
  -OEChem-04052318463D

 83 91  0     1  0  0  0  0  0999 V2000
  -19.0488  -18.9905   25.6229 C   0  0  0  0  0  0  0  0  0  0  0  0
  -20.0756  -18.9178   24.6870 C   0  0  0  0  0  0  0  0  0  0  0  0
  -23.1901   -9.8170   19.9370 C   0  0  0  0  0  0  0  0  0  0  0  0
  -23.5755  -10.0054   22.3146 C   0  0  0  0  0  0  0  0  0  0  0  0
  -19.2547  -19.6538   26.8318 C   0  0  0  0  0  0  0  0  0  0  0  0
  -21.3086  -19.5095   24.9591 C   0  0  0  0  0  0  0  0  0  0  0  0
  -26.8253  -17.4785   23.2425 C   0  0  0  0  0  0  0  0  0  0  0  0
  -22.4257   -8.6702   20.1518 C   0  0  0  0  0  0  0  0  0  0  0  0
  -22.8111   -8.8586   22.5294 C   0  0  0  0  0  0  0  0  0  0  0  0
  -27.6672  -17.8284   22.1876 C   0  0  0  0  0  0  0  0  0  0  0  0
  -23.2149   -5.5115   22.2748 C   0  0  0  0  0  0  0  0  0  0  0  0
  -23.7170   -4.5535   23.1555 C   0  0  0  0  0  0  0  0  0  0  0  0
  -28.8726  -19.3190   23.6520 C   0  0  0  0  0  0  0  0  0  0  0  0
  -21.7645   -4.8159   24.5541 C   0  0  0  0  0  0  0  0  0  0  0  0
  -31.2457  -16.0446   22.2340 C   0  0  0  0  0  0  0  0  0  0  0  0
  -23.7651  -10.4846   21.0185 C   0  0  0  0  0  0  0  0  0  0  0  0
  -24.1003  -13.0008   20.7656 C   0  0  0  0  0  0  0  0  0  0  0  0
  -20.4940  -20.2456   27.1229 C   0  0  0  0  0  0  0  0  0  0  0  0
  -26.9943  -18.0555   24.5094 C   0  0  0  0  0  0  0  0  0  0  0  0
  -21.5308  -20.1825   26.1725 C   0  0  0  0  0  0  0  0  0  0  0  0
  -28.0332  -18.9728   24.7219 C   0  0  0  0  0  0  0  0  0  0  0  0
  -22.2361   -8.1910   21.4480 C   0  0  0  0  0  0  0  0  0  0  0  0
  -28.6892  -18.7509   22.3915 C   0  0  0  0  0  0  0  0  0  0  0  0
  -21.9876   -6.1218   22.5337 C   0  0  0  0  0  0  0  0  0  0  0  0
  -22.9918   -4.2057   24.2951 C   0  0  0  0  0  0  0  0  0  0  0  0
  -21.2624   -5.7739   23.6733 C   0  0  0  0  0  0  0  0  0  0  0  0
  -24.5553  -11.6689   20.7972 C   0  0  0  0  0  0  0  0  0  0  0  0
  -31.9753  -15.4106   23.1997 C   0  0  0  0  0  0  0  0  0  0  0  0
  -25.2300  -13.7439   20.5245 C   0  0  0  0  0  0  0  0  0  0  0  0
  -33.3803  -16.5319   21.9076 C   0  0  0  0  0  0  0  0  0  0  0  0
  -22.7751  -13.5198   20.9389 C   0  0  0  0  0  0  0  0  0  0  0  0
  -25.2067  -19.8830   26.3984 C   0  0  0  0  0  0  0  0  0  0  0  0
  -27.6306  -19.4057   28.5006 C   0  0  0  0  0  0  0  0  0  0  0  0
  -30.9188  -18.6456   29.0072 C   0  0  0  0  0  0  0  0  0  0  0  0
  -31.0490  -12.7633   21.5388 C   0  0  0  0  0  0  0  0  0  0  0  0
  -20.6541  -20.9926   28.4233 C   0  0  0  0  0  0  0  0  0  0  0  0
  -26.0946  -17.6474   25.6436 C   0  0  0  0  0  0  0  0  0  0  0  0
  -28.2695  -19.6056   26.0681 C   0  0  0  0  0  0  0  0  0  0  0  0
  -22.1095  -21.2697   28.7913 C   0  0  0  0  0  0  0  0  0  0  0  0
  -29.5112  -13.4691   18.4062 C   0  0  0  0  0  0  0  0  0  0  0  0
  -22.8712  -21.8111   27.5856 C   0  0  0  0  0  0  0  0  0  0  0  0
  -28.0256  -13.2079   18.6609 C   0  0  0  0  0  0  0  0  0  0  0  0
  -30.3959  -12.4831   19.1658 C   0  0  0  0  0  0  0  0  0  0  0  0
  -28.6479  -12.1439   20.8698 C   0  0  0  0  0  0  0  0  0  0  0  0
  -22.8904  -20.7904   26.4414 C   0  0  1  0  0  0  0  0  0  0  0  0
  -26.0354  -18.6835   26.7618 C   0  0  1  0  0  0  0  0  0  0  0  0
  -27.7173  -13.1484   20.1691 C   0  0  2  0  0  0  0  0  0  0  0  0
  -34.6377  -17.0902   21.3508 C   0  0  0  0  0  0  0  0  0  0  0  0
  -30.1821  -14.9237   24.8942 C   0  0  0  0  0  0  0  0  0  0  0  0
  -32.6179  -18.3683   30.8330 C   0  0  0  0  0  0  0  0  0  0  0  0
  -27.8058  -22.4376   28.7948 C   0  0  0  0  0  0  0  0  0  0  0  0
  -30.0607  -22.1361   29.8401 C   0  0  0  0  0  0  0  0  0  0  0  0
  -28.0402  -21.1665   30.9358 C   0  0  0  0  0  0  0  0  0  0  0  0
  -31.3915  -15.8120   28.2958 C   0  0  0  0  0  0  0  0  0  0  0  0
  -31.7675  -19.0802   20.5458 C   0  0  0  0  0  0  0  0  0  0  0  0
  -31.7752  -17.5777   20.2558 C   0  0  0  0  0  0  0  0  0  0  0  0
  -31.5464  -13.0227   23.9564 C   0  0  0  0  0  0  0  0  0  0  0  0
  -30.8479  -19.4683   21.6978 C   0  0  0  0  0  0  0  0  0  1  0  0
  -31.5679  -14.5414   24.3066 C   0  0  1  0  0  0  0  0  0  0  0  0
  -28.9270  -20.1120   28.8159 C   0  0  1  0  0  0  0  0  0  0  0  0
  -31.5926  -17.6689   29.9541 C   0  0  2  0  0  0  0  0  0  0  0  0
  -28.7030  -21.4528   29.5707 C   0  0  0  0  0  0  0  0  0  0  0  0
  -25.8713  -11.5686   20.5923 N   0  0  0  0  0  0  0  0  0  0  0  0
  -32.1403  -16.7312   21.4490 N   0  0  0  0  0  0  0  0  0  0  0  0
  -26.2530  -12.8468   20.4296 N   0  0  0  0  0  0  0  0  0  0  0  0
  -33.2926  -15.7295   22.9734 N   0  3  0  0  0  0  0  0  0  0  0  0
  -27.3593  -19.1790   27.1438 N   0  0  0  0  0  0  0  0  0  0  0  0
  -30.0537  -12.4761   20.5902 N   0  0  0  0  0  0  0  0  0  0  0  0
  -25.4381  -15.0705   20.3863 N   0  0  0  0  0  0  0  0  0  0  0  0
  -21.7301  -12.6172   21.1791 N   0  0  0  0  0  0  0  0  0  0  0  0
  -23.8655  -19.7541   26.7049 N   0  0  0  0  0  0  0  0  0  0  0  0
  -29.7508  -19.1495   29.5393 N   0  0  0  0  0  0  0  0  0  0  0  0
  -30.6389  -12.7417   22.8663 N   0  0  0  0  0  0  0  0  0  0  0  0
  -32.2858  -16.5968   29.1854 N   0  3  0  0  0  0  0  0  0  0  0  0
  -22.5224  -14.7464   20.8661 O   0  0  0  0  0  0  0  0  0  0  0  0
  -25.7446  -20.8543   25.8797 O   0  0  0  0  0  0  0  0  0  0  0  0
  -26.8894  -19.0611   29.4245 O   0  0  0  0  0  0  0  0  0  0  0  0
  -31.3842  -18.9355   27.9072 O   0  0  0  0  0  0  0  0  0  0  0  0
  -32.2153  -13.0252   21.2257 O   0  0  0  0  0  0  0  0  0  0  0  0
  -21.4901   -7.0721   21.6579 O   0  0  0  0  0  0  0  0  0  0  0  0
  -29.5119  -19.0946   21.3635 O   0  0  0  0  0  0  0  0  0  1  0  0
  -23.4734   -3.2846   25.1400 F   0  0  0  0  0  0  0  0  0  0  0  0
  -20.0822   -6.3559   23.9268 F   0  0  0  0  0  0  0  0  0  0  0  0
  1  2  1  0  0  0  0
  1  5  2  0  0  0  0
  2  6  2  0  0  0  0
  3  8  2  0  0  0  0
  3 16  1  0  0  0  0
  4  9  1  0  0  0  0
  4 16  2  0  0  0  0
  5 18  1  0  0  0  0
  6 20  1  0  0  0  0
  7 10  2  0  0  0  0
  7 19  1  0  0  0  0
  8 22  1  0  0  0  0
  9 22  2  0  0  0  0
 10 23  1  0  0  0  0
 11 12  2  0  0  0  0
 11 24  1  0  0  0  0
 12 25  1  0  0  0  0
 13 21  1  0  0  0  0
 13 23  2  0  0  0  0
 14 25  2  0  0  0  0
 14 26  1  0  0  0  0
 15 28  2  0  0  0  0
 15 64  1  0  0  0  0
 16 27  1  0  0  0  0
 17 27  1  0  0  0  0
 17 29  2  0  0  0  0
 17 31  1  0  0  0  0
 18 20  2  0  0  0  0
 18 36  1  0  0  0  0
 19 21  2  0  0  0  0
 19 37  1  0  0  0  0
 20 45  1  0  0  0  0
 21 38  1  0  0  0  0
 22 80  1  0  0  0  0
 23 81  1  0  0  0  0
 24 26  2  0  0  0  0
 24 80  1  0  0  0  0
 25 82  1  0  0  0  0
 26 83  1  0  0  0  0
 27 63  2  0  0  0  0
 28 59  1  0  0  0  0
 28 66  1  0  0  0  0
 29 65  1  0  0  0  0
 29 69  1  0  0  0  0
 30 48  1  0  0  0  0
 30 64  1  0  0  0  0
 30 66  2  0  0  0  0
 31 70  1  0  0  0  0
 31 75  2  0  0  0  0
 32 46  1  0  0  0  0
 32 71  1  0  0  0  0
 32 76  2  0  0  0  0
 33 60  1  0  0  0  0
 33 67  1  0  0  0  0
 33 77  2  0  0  0  0
 34 61  1  0  0  0  0
 34 72  1  0  0  0  0
 34 78  2  0  0  0  0
 35 68  1  0  0  0  0
 35 73  1  0  0  0  0
 35 79  2  0  0  0  0
 36 39  1  0  0  0  0
 37 46  1  0  0  0  0
 38 67  1  0  0  0  0
 39 41  1  0  0  0  0
 40 42  1  0  0  0  0
 40 43  1  0  0  0  0
 41 45  1  0  0  0  0
 42 47  1  0  0  0  0
 43 68  1  0  0  0  0
 44 47  1  0  0  0  0
 44 68  1  0  0  0  0
 45 71  1  0  0  0  0
 46 67  1  0  0  0  0
 47 65  1  0  0  0  0
 49 59  1  0  0  0  0
 50 61  1  0  0  0  0
 51 62  1  0  0  0  0
 52 62  1  0  0  0  0
 53 62  1  0  0  0  0
 54 74  1  0  0  0  0
 55 56  1  0  0  0  0
 55 58  1  0  0  0  0
 56 64  1  0  0  0  0
 57 59  1  0  0  0  0
 57 73  1  0  0  0  0
 58 81  1  0  0  0  0
 60 62  1  0  0  0  0
 60 72  1  0  0  0  0
 61 74  1  0  0  0  0
 63 65  1  0  0  0  0
M  CHG  2  66   1  74   1
M  ISO  4  35 100  58 101  73 100  81 101
M  END
> <Batch ID>
0081

> <Smiles>
CNC(C)C(=O)NC(C(=O)N1Cc2cc([101O:1][101CH2:1]CCn3cc(C(C)C[100NH:0][100C:0](=O)N4CCCC(n5nc(-c6ccc(Oc7ccc(F)cc7F)cc6)c(C(N)=O)c5N)C4)nc3C)ccc2CC1C(=O)NC1CCCc2ccccc21)C(C)(C)C

> <Shape>
0.169

> <Color>
0.179

> <Negative vol penalty>
0.000

$$$$

  -OEChem-04052318463D

 87 95  0     1  0  0  0  0  0999 V2000
  -29.0100  -34.6239   25.0242 C   0  0  0  0  0  0  0  0  0  0  0  0
  -29.0470  -33.3266   24.5231 C   0  0  0  0  0  0  0  0  0  0  0  0
  -22.0925  -17.3969   21.2698 C   0  0  0  0  0  0  0  0  0  0  0  0
  -24.3309  -16.7036   20.6817 C   0  0  0  0  0  0  0  0  0  0  0  0
  -27.8077  -35.1574   25.4864 C   0  0  0  0  0  0  0  0  0  0  0  0
  -27.8817  -32.5617   24.4850 C   0  0  0  0  0  0  0  0  0  0  0  0
  -27.3066  -30.1151   20.0885 C   0  0  0  0  0  0  0  0  0  0  0  0
  -21.6483  -16.0821   21.1292 C   0  0  0  0  0  0  0  0  0  0  0  0
  -23.8867  -15.3888   20.5411 C   0  0  0  0  0  0  0  0  0  0  0  0
  -28.0630  -28.9593   19.8994 C   0  0  0  0  0  0  0  0  0  0  0  0
  -23.1308  -12.7874   22.5614 C   0  0  0  0  0  0  0  0  0  0  0  0
  -23.9093  -11.7779   23.1273 C   0  0  0  0  0  0  0  0  0  0  0  0
  -26.1430  -27.6163   20.4735 C   0  0  0  0  0  0  0  0  0  0  0  0
  -24.1965  -10.7771   20.9472 C   0  0  0  0  0  0  0  0  0  0  0  0
  -31.1180  -24.3341   19.3226 C   0  0  0  0  0  0  0  0  0  0  0  0
  -23.4338  -17.7076   21.0460 C   0  0  0  0  0  0  0  0  0  0  0  0
  -24.3891  -19.6756   22.3583 C   0  0  0  0  0  0  0  0  0  0  0  0
  -26.6252  -34.4021   25.4450 C   0  0  0  0  0  0  0  0  0  0  0  0
  -25.9636  -30.0304   20.4828 C   0  0  0  0  0  0  0  0  0  0  0  0
  -26.6627  -33.0852   24.9483 C   0  0  0  0  0  0  0  0  0  0  0  0
  -25.3711  -28.7725   20.6644 C   0  0  0  0  0  0  0  0  0  0  0  0
  -22.5454  -15.0781   20.7649 C   0  0  0  0  0  0  0  0  0  0  0  0
  -27.4820  -27.7097   20.0947 C   0  0  0  0  0  0  0  0  0  0  0  0
  -22.8849  -12.7917   21.1883 C   0  0  0  0  0  0  0  0  0  0  0  0
  -24.4422  -10.7728   22.3203 C   0  0  0  0  0  0  0  0  0  0  0  0
  -23.4178  -11.7866   20.3812 C   0  0  0  0  0  0  0  0  0  0  0  0
  -23.8931  -19.0656   21.1905 C   0  0  0  0  0  0  0  0  0  0  0  0
  -29.7999  -24.0956   19.7558 C   0  0  0  0  0  0  0  0  0  0  0  0
  -31.2146  -23.6600   18.1298 C   0  0  0  0  0  0  0  0  0  0  0  0
  -24.6871  -20.9603   21.9747 C   0  0  0  0  0  0  0  0  0  0  0  0
  -24.5648  -19.1296   23.6724 C   0  0  0  0  0  0  0  0  0  0  0  0
  -24.3029  -31.0024   23.0128 C   0  0  0  0  0  0  0  0  0  0  0  0
  -21.7786  -29.9321   21.2793 C   0  0  0  0  0  0  0  0  0  0  0  0
  -20.1572  -27.5814   19.0741 C   0  0  0  0  0  0  0  0  0  0  0  0
  -26.0592  -23.4238   16.6927 C   0  0  0  0  0  0  0  0  0  0  0  0
  -25.3589  -35.0050   25.9997 C   0  0  0  0  0  0  0  0  0  0  0  0
  -25.1539  -31.2860   20.6567 C   0  0  0  0  0  0  0  0  0  0  0  0
  -23.9274  -28.6268   21.0680 C   0  0  0  0  0  0  0  0  0  0  0  0
  -24.0945  -34.2610   25.5779 C   0  0  0  0  0  0  0  0  0  0  0  0
  -23.3741  -24.3339   18.8464 C   0  0  0  0  0  0  0  0  0  0  0  0
  -24.2769  -32.7567   25.7521 C   0  0  0  0  0  0  0  0  0  0  0  0
  -23.2474  -23.1419   19.7968 C   0  0  0  0  0  0  0  0  0  0  0  0
  -23.7415  -23.8912   17.4318 C   0  0  0  0  0  0  0  0  0  0  0  0
  -24.8146  -21.8462   18.2922 C   0  0  0  0  0  0  0  0  0  0  0  0
  -25.4148  -32.2328   24.8676 C   0  0  1  0  0  0  0  0  0  0  0  0
  -23.9383  -31.0931   21.5579 C   0  0  1  0  0  0  0  0  0  0  0  0
  -24.5001  -22.2468   19.7437 C   0  0  2  0  0  0  0  0  0  0  0  0
  -17.8648  -27.6156   18.0538 C   0  0  0  0  0  0  0  0  0  0  0  0
  -28.2911  -22.2316   14.6529 C   0  0  0  0  0  0  0  0  0  0  0  0
  -30.0573  -25.4775   21.9245 C   0  0  0  0  0  0  0  0  0  0  0  0
  -28.6983  -23.3965   21.9046 C   0  0  0  0  0  0  0  0  0  0  0  0
  -33.6106  -24.2904   17.6742 C   0  0  0  0  0  0  0  0  0  0  0  0
  -31.9805  -24.0830   15.7673 C   0  0  0  0  0  0  0  0  0  0  0  0
  -32.8348  -22.0521   16.9193 C   0  0  0  0  0  0  0  0  0  0  0  0
  -20.9931  -28.2456   23.6977 C   0  0  0  0  0  0  0  0  0  0  0  0
  -19.4960  -26.9148   22.1958 C   0  0  0  0  0  0  0  0  0  0  0  0
  -19.0775  -29.3511   22.5302 C   0  0  0  0  0  0  0  0  0  0  0  0
  -21.2458  -27.3151   16.3349 C   0  0  0  0  0  0  0  0  0  0  0  0
  -29.5978  -22.2639   16.8065 C   0  0  0  0  0  0  0  0  0  0  0  0
  -27.8687  -25.4422   20.6988 C   0  0  0  0  0  0  0  0  0  1  0  0
  -21.0580  -28.6126   21.1429 C   0  0  1  0  0  0  0  0  0  0  0  0
  -19.3410  -27.9100   17.8371 C   0  0  2  0  0  0  0  0  0  0  0  0
  -28.3822  -22.8279   16.0541 C   0  0  2  0  0  0  0  0  0  0  0  0
  -29.1285  -24.6069   21.0442 C   0  0  0  0  0  0  0  0  0  0  0  0
  -32.3376  -23.5198   17.1848 C   0  0  0  0  0  0  0  0  0  0  0  0
  -20.1839  -28.2835   22.3859 C   0  0  0  0  0  0  0  0  0  0  0  0
  -23.8753  -19.8947   20.1434 N   0  0  0  0  0  0  0  0  0  0  0  0
  -29.1088  -23.3300   18.9072 N   0  0  0  0  0  0  0  0  0  0  0  0
  -29.9959  -23.0815   17.9287 N   0  0  0  0  0  0  0  0  0  0  0  0
  -24.3638  -21.0388   20.6520 N   0  0  0  0  0  0  0  0  0  0  0  0
  -23.1791  -29.8841   21.2319 N   0  0  0  0  0  0  0  0  0  0  0  0
  -24.9386  -23.0471   17.4512 N   0  0  0  0  0  0  0  0  0  0  0  0
  -25.1914  -22.0192   22.6431 N   0  0  0  0  0  0  0  0  0  0  0  0
  -24.2079  -17.7924   23.8935 N   0  0  0  0  0  0  0  0  0  0  0  0
  -24.9727  -32.1107   23.4950 N   0  0  0  0  0  0  0  0  0  0  0  0
  -20.3133  -28.6818   19.8902 N   0  0  0  0  0  0  0  0  0  0  0  0
  -27.1537  -22.5715   16.7723 N   0  0  0  0  0  0  0  0  0  0  0  0
  -19.8149  -27.1061   16.6752 N   0  3  0  0  0  0  0  0  0  0  0  0
  -25.0092  -19.8123   24.6263 O   0  0  0  0  0  0  0  0  0  0  0  0
  -23.9977  -30.0018   23.6509 O   0  0  0  0  0  0  0  0  0  0  0  0
  -21.1230  -30.9680   21.4154 O   0  0  0  0  0  0  0  0  0  0  0  0
  -20.6079  -26.4598   19.2962 O   0  0  0  0  0  0  0  0  0  0  0  0
  -26.0845  -24.4470   16.0003 O   0  0  0  0  0  0  0  0  0  0  0  0
  -22.1124  -13.7950   20.6279 O   0  0  0  0  0  0  0  0  0  0  0  0
  -28.2181  -26.5799   19.9114 O   0  0  0  0  0  0  0  0  0  1  0  0
  -25.1912   -9.8043   22.8637 F   0  0  0  0  0  0  0  0  0  0  0  0
  -23.1861  -11.7861   19.0614 F   0  0  0  0  0  0  0  0  0  0  0  0
  1  2  1  0  0  0  0
  1  5  2  0  0  0  0
  2  6  2  0  0  0  0
  3  8  2  0  0  0  0
  3 16  1  0  0  0  0
  4  9  1  0  0  0  0
  4 16  2  0  0  0  0
  5 18  1  0  0  0  0
  6 20  1  0  0  0  0
  7 10  2  0  0  0  0
  7 19  1  0  0  0  0
  8 22  1  0  0  0  0
  9 22  2  0  0  0  0
 10 23  1  0  0  0  0
 11 12  2  0  0  0  0
 11 24  1  0  0  0  0
 12 25  1  0  0  0  0
 13 21  1  0  0  0  0
 13 23  2  0  0  0  0
 14 25  2  0  0  0  0
 14 26  1  0  0  0  0
 15 28  1  0  0  0  0
 15 29  2  0  0  0  0
 16 27  1  0  0  0  0
 17 27  1  0  0  0  0
 17 30  2  0  0  0  0
 17 31  1  0  0  0  0
 18 20  2  0  0  0  0
 18 36  1  0  0  0  0
 19 21  2  0  0  0  0
 19 37  1  0  0  0  0
 20 45  1  0  0  0  0
 21 38  1  0  0  0  0
 22 84  1  0  0  0  0
 23 85  1  0  0  0  0
 24 26  2  0  0  0  0
 24 84  1  0  0  0  0
 25 86  1  0  0  0  0
 26 87  1  0  0  0  0
 27 67  2  0  0  0  0
 28 64  1  0  0  0  0
 28 68  2  0  0  0  0
 29 65  1  0  0  0  0
 29 69  1  0  0  0  0
 30 70  1  0  0  0  0
 30 73  1  0  0  0  0
 31 74  1  0  0  0  0
 31 79  2  0  0  0  0
 32 46  1  0  0  0  0
 32 75  1  0  0  0  0
 32 80  2  0  0  0  0
 33 61  1  0  0  0  0
 33 71  1  0  0  0  0
 33 81  2  0  0  0  0
 34 62  1  0  0  0  0
 34 76  1  0  0  0  0
 34 82  2  0  0  0  0
 35 72  1  0  0  0  0
 35 77  1  0  0  0  0
 35 83  2  0  0  0  0
 36 39  1  0  0  0  0
 37 46  1  0  0  0  0
 38 71  1  0  0  0  0
 39 41  1  0  0  0  0
 40 42  1  0  0  0  0
 40 43  1  0  0  0  0
 41 45  1  0  0  0  0
 42 47  1  0  0  0  0
 43 72  1  0  0  0  0
 44 47  1  0  0  0  0
 44 72  1  0  0  0  0
 45 75  1  0  0  0  0
 46 71  1  0  0  0  0
 47 70  1  0  0  0  0
 48 62  1  0  0  0  0
 49 63  1  0  0  0  0
 50 64  1  0  0  0  0
 51 64  1  0  0  0  0
 52 65  1  0  0  0  0
 53 65  1  0  0  0  0
 54 65  1  0  0  0  0
 55 66  1  0  0  0  0
 56 66  1  0  0  0  0
 57 66  1  0  0  0  0
 58 78  1  0  0  0  0
 59 63  1  0  0  0  0
 59 69  1  0  0  0  0
 60 64  1  0  0  0  0
 60 85  1  0  0  0  0
 61 66  1  0  0  0  0
 61 76  1  0  0  0  0
 62 78  1  0  0  0  0
 63 77  1  0  0  0  0
 67 70  1  0  0  0  0
 68 69  1  0  0  0  0
M  CHG  1  78   1
M  ISO  4  35 100  60 101  77 100  85 101
M  END
> <Batch ID>
0081

> <Smiles>
CNC(C)C(=O)NC(C(=O)N1Cc2cc([101O:1][101CH2:1]C(C)(C)c3cc(C(C)(C)C)n(CC(C)[100NH:0][100C:0](=O)N4CCCC(n5nc(-c6ccc(Oc7ccc(F)cc7F)cc6)c(C(N)=O)c5N)C4)n3)ccc2CC1C(=O)NC1CCCc2ccccc21)C(C)(C)C

> <Shape>
0.228

> <Color>
0.073

> <Negative vol penalty>
0.000

$$$$

  -OEChem-04052318463D

 85 93  0     1  0  0  0  0  0999 V2000
  -32.4407  -26.2914   14.6600 C   0  0  0  0  0  0  0  0  0  0  0  0
  -31.7921  -25.3562   15.4599 C   0  0  0  0  0  0  0  0  0  0  0  0
  -27.1077  -16.5383   18.8283 C   0  0  0  0  0  0  0  0  0  0  0  0
  -26.9873  -17.5521   21.0181 C   0  0  0  0  0  0  0  0  0  0  0  0
  -32.6240  -27.5943   15.1214 C   0  0  0  0  0  0  0  0  0  0  0  0
  -31.3272  -25.7230   16.7224 C   0  0  0  0  0  0  0  0  0  0  0  0
  -26.2730  -23.6883   19.5189 C   0  0  0  0  0  0  0  0  0  0  0  0
  -28.4382  -16.9415   18.7148 C   0  0  0  0  0  0  0  0  0  0  0  0
  -28.3178  -17.9553   20.9046 C   0  0  0  0  0  0  0  0  0  0  0  0
  -26.0674  -22.7065   20.4872 C   0  0  0  0  0  0  0  0  0  0  0  0
  -30.0527  -20.4165   19.3673 C   0  0  0  0  0  0  0  0  0  0  0  0
  -30.3683  -21.7223   19.7423 C   0  0  0  0  0  0  0  0  0  0  0  0
  -26.1171  -24.3992   22.2052 C   0  0  0  0  0  0  0  0  0  0  0  0
  -31.8897  -20.8736   21.4164 C   0  0  0  0  0  0  0  0  0  0  0  0
  -21.6865  -18.5084   25.1173 C   0  0  0  0  0  0  0  0  0  0  0  0
  -26.3822  -16.8437   19.9799 C   0  0  0  0  0  0  0  0  0  0  0  0
  -24.5285  -15.2169   20.6320 C   0  0  0  0  0  0  0  0  0  0  0  0
  -32.1526  -27.9798   16.3863 C   0  0  0  0  0  0  0  0  0  0  0  0
  -26.4132  -25.0338   19.8880 C   0  0  0  0  0  0  0  0  0  0  0  0
  -31.5055  -27.0318   17.2018 C   0  0  0  0  0  0  0  0  0  0  0  0
  -26.3217  -25.3964   21.2394 C   0  0  0  0  0  0  0  0  0  0  0  0
  -29.0432  -17.6500   19.7530 C   0  0  0  0  0  0  0  0  0  0  0  0
  -25.9923  -23.0616   21.8309 C   0  0  0  0  0  0  0  0  0  0  0  0
  -30.6554  -19.3392   20.0167 C   0  0  0  0  0  0  0  0  0  0  0  0
  -31.2869  -21.9509   20.7669 C   0  0  0  0  0  0  0  0  0  0  0  0
  -31.5740  -19.5678   21.0413 C   0  0  0  0  0  0  0  0  0  0  0  0
  -25.0076  -16.4279   20.0975 C   0  0  0  0  0  0  0  0  0  0  0  0
  -21.7667  -19.8396   25.5682 C   0  0  0  0  0  0  0  0  0  0  0  0
  -20.5525  -18.4760   24.3429 C   0  0  0  0  0  0  0  0  0  0  0  0
  -23.1629  -15.3069   20.5162 C   0  0  0  0  0  0  0  0  0  0  0  0
  -25.2531  -14.1097   21.1840 C   0  0  0  0  0  0  0  0  0  0  0  0
  -28.7219  -27.2029   19.6256 C   0  0  0  0  0  0  0  0  0  0  0  0
  -26.4505  -29.1945   20.8073 C   0  0  0  0  0  0  0  0  0  0  0  0
  -23.5732  -29.5653   22.6047 C   0  0  0  0  0  0  0  0  0  0  0  0
  -19.3947  -19.9494   20.2010 C   0  0  0  0  0  0  0  0  0  0  0  0
  -32.4159  -29.3868   16.8612 C   0  0  0  0  0  0  0  0  0  0  0  0
  -26.6078  -26.0841   18.8290 C   0  0  0  0  0  0  0  0  0  0  0  0
  -26.4456  -26.8295   21.6861 C   0  0  0  0  0  0  0  0  0  0  0  0
  -31.5618  -29.7954   18.0586 C   0  0  0  0  0  0  0  0  0  0  0  0
  -19.7580  -17.3219   17.8259 C   0  0  0  0  0  0  0  0  0  0  0  0
  -31.5663  -28.6971   19.1172 C   0  0  0  0  0  0  0  0  0  0  0  0
  -21.1014  -16.6855   18.1870 C   0  0  0  0  0  0  0  0  0  0  0  0
  -19.7800  -18.8362   18.0218 C   0  0  0  0  0  0  0  0  0  0  0  0
  -21.5546  -18.6450   19.7212 C   0  0  0  0  0  0  0  0  0  0  0  0
  -30.9651  -27.3981   18.5670 C   0  0  1  0  0  0  0  0  0  0  0  0
  -27.2507  -27.3600   19.3638 C   0  0  1  0  0  0  0  0  0  0  0  0
  -21.5639  -17.1121   19.5932 C   0  0  2  0  0  0  0  0  0  0  0  0
  -19.9244  -17.3742   23.5911 C   0  0  0  0  0  0  0  0  0  0  0  0
  -21.9791  -31.3182   23.4314 C   0  0  0  0  0  0  0  0  0  0  0  0
  -22.1455  -20.9983   27.7553 C   0  0  0  0  0  0  0  0  0  0  0  0
  -23.9084  -19.4462   26.9646 C   0  0  0  0  0  0  0  0  0  0  0  0
  -28.4519  -29.9921   22.9679 C   0  0  0  0  0  0  0  0  0  0  0  0
  -26.5506  -30.9712   24.2697 C   0  0  0  0  0  0  0  0  0  0  0  0
  -27.1254  -31.8899   22.0228 C   0  0  0  0  0  0  0  0  0  0  0  0
  -21.3153  -28.3893   21.0954 C   0  0  0  0  0  0  0  0  0  0  0  0
  -24.3492  -21.2887   24.5149 C   0  0  0  0  0  0  0  0  0  0  0  0
  -23.5627  -21.6525   25.7800 C   0  0  0  0  0  0  0  0  0  0  0  0
  -18.8501  -20.2129   23.7112 C   0  0  0  0  0  0  0  0  0  0  0  0
  -19.1485  -20.9982   22.4367 C   0  0  0  0  0  0  0  0  0  0  0  0
  -25.0937  -22.4969   23.9591 C   0  0  0  0  0  0  0  0  0  1  0  0
  -26.0182  -29.6231   22.1888 C   0  0  1  0  0  0  0  0  0  0  0  0
  -22.2971  -30.3350   22.3156 C   0  0  2  0  0  0  0  0  0  0  0  0
  -22.8416  -20.4578   26.4806 C   0  0  0  0  0  0  0  0  0  0  0  0
  -27.0361  -30.5918   22.8544 C   0  0  0  0  0  0  0  0  0  0  0  0
  -24.0262  -17.2285   19.6735 N   0  0  0  0  0  0  0  0  0  0  0  0
  -20.7637  -20.5980   25.1177 N   0  0  0  0  0  0  0  0  0  0  0  0
  -20.0426  -19.7405   24.3755 N   0  0  0  0  0  0  0  0  0  0  0  0
  -22.9167  -16.5190   19.9414 N   0  0  0  0  0  0  0  0  0  0  0  0
  -26.6412  -27.8190   20.6136 N   0  0  0  0  0  0  0  0  0  0  0  0
  -20.2257  -19.1737   19.3758 N   0  0  0  0  0  0  0  0  0  0  0  0
  -22.1607  -14.4667   20.8508 N   0  0  0  0  0  0  0  0  0  0  0  0
  -26.6522  -14.1815   21.2269 N   0  0  0  0  0  0  0  0  0  0  0  0
  -29.5208  -27.4840   18.5338 N   0  0  0  0  0  0  0  0  0  0  0  0
  -24.6755  -30.1747   22.0435 N   0  0  0  0  0  0  0  0  0  0  0  0
  -19.8901  -20.2183   21.4710 N   0  0  0  0  0  0  0  0  0  0  0  0
  -21.1475  -29.3974   22.1736 N   0  3  0  0  0  0  0  0  0  0  0  0
  -24.6779  -13.0800   21.6110 O   0  0  0  0  0  0  0  0  0  0  0  0
  -29.1040  -26.8539   20.7365 O   0  0  0  0  0  0  0  0  0  0  0  0
  -26.6061  -30.0480   19.9304 O   0  0  0  0  0  0  0  0  0  0  0  0
  -23.5909  -28.5292   23.2655 O   0  0  0  0  0  0  0  0  0  0  0  0
  -18.2907  -20.3666   19.8349 O   0  0  0  0  0  0  0  0  0  0  0  0
  -30.3415  -18.0434   19.6427 O   0  0  0  0  0  0  0  0  0  0  0  0
  -25.7924  -22.1052   22.7782 O   0  0  0  0  0  0  0  0  0  1  0  0
  -31.5911  -23.2050   21.1259 F   0  0  0  0  0  0  0  0  0  0  0  0
  -32.1572  -18.5369   21.6681 F   0  0  0  0  0  0  0  0  0  0  0  0
  1  2  1  0  0  0  0
  1  5  2  0  0  0  0
  2  6  2  0  0  0  0
  3  8  2  0  0  0  0
  3 16  1  0  0  0  0
  4  9  1  0  0  0  0
  4 16  2  0  0  0  0
  5 18  1  0  0  0  0
  6 20  1  0  0  0  0
  7 10  2  0  0  0  0
  7 19  1  0  0  0  0
  8 22  1  0  0  0  0
  9 22  2  0  0  0  0
 10 23  1  0  0  0  0
 11 12  2  0  0  0  0
 11 24  1  0  0  0  0
 12 25  1  0  0  0  0
 13 21  1  0  0  0  0
 13 23  2  0  0  0  0
 14 25  2  0  0  0  0
 14 26  1  0  0  0  0
 15 28  1  0  0  0  0
 15 29  2  0  0  0  0
 16 27  1  0  0  0  0
 17 27  1  0  0  0  0
 17 30  2  0  0  0  0
 17 31  1  0  0  0  0
 18 20  2  0  0  0  0
 18 36  1  0  0  0  0
 19 21  2  0  0  0  0
 19 37  1  0  0  0  0
 20 45  1  0  0  0  0
 21 38  1  0  0  0  0
 22 82  1  0  0  0  0
 23 83  1  0  0  0  0
 24 26  2  0  0  0  0
 24 82  1  0  0  0  0
 25 84  1  0  0  0  0
 26 85  1  0  0  0  0
 27 65  2  0  0  0  0
 28 63  1  0  0  0  0
 28 66  2  0  0  0  0
 29 48  1  0  0  0  0
 29 67  1  0  0  0  0
 30 68  1  0  0  0  0
 30 71  1  0  0  0  0
 31 72  1  0  0  0  0
 31 77  2  0  0  0  0
 32 46  1  0  0  0  0
 32 73  1  0  0  0  0
 32 78  2  0  0  0  0
 33 61  1  0  0  0  0
 33 69  1  0  0  0  0
 33 79  2  0  0  0  0
 34 62  1  0  0  0  0
 34 74  1  0  0  0  0
 34 80  2  0  0  0  0
 35 70  1  0  0  0  0
 35 75  1  0  0  0  0
 35 81  2  0  0  0  0
 36 39  1  0  0  0  0
 37 46  1  0  0  0  0
 38 69  1  0  0  0  0
 39 41  1  0  0  0  0
 40 42  1  0  0  0  0
 40 43  1  0  0  0  0
 41 45  1  0  0  0  0
 42 47  1  0  0  0  0
 43 70  1  0  0  0  0
 44 47  1  0  0  0  0
 44 70  1  0  0  0  0
 45 73  1  0  0  0  0
 46 69  1  0  0  0  0
 47 68  1  0  0  0  0
 49 62  1  0  0  0  0
 50 63  1  0  0  0  0
 51 63  1  0  0  0  0
 52 64  1  0  0  0  0
 53 64  1  0  0  0  0
 54 64  1  0  0  0  0
 55 76  1  0  0  0  0
 56 57  1  0  0  0  0
 56 60  1  0  0  0  0
 57 63  1  0  0  0  0
 58 59  1  0  0  0  0
 58 67  1  0  0  0  0
 59 75  1  0  0  0  0
 60 83  1  0  0  0  0
 61 64  1  0  0  0  0
 61 74  1  0  0  0  0
 62 76  1  0  0  0  0
 65 68  1  0  0  0  0
 66 67  1  0  0  0  0
M  CHG  1  76   1
M  ISO  4  35 100  60 101  75 100  83 101
M  END
> <Batch ID>
0081

> <Smiles>
CNC(C)C(=O)NC(C(=O)N1Cc2cc([101O:1][101CH2:1]CCC(C)(C)c3cc(C)n(CC[100NH:0][100C:0](=O)N4CCCC(n5nc(-c6ccc(Oc7ccc(F)cc7F)cc6)c(C(N)=O)c5N)C4)n3)ccc2CC1C(=O)NC1CCCc2ccccc21)C(C)(C)C

> <Shape>
0.167

> <Color>
0.076

> <Negative vol penalty>
0.000

$$$$

  -OEChem-04052318463D

 85 93  0     1  0  0  0  0  0999 V2000
  -20.0859  -16.7047   16.3902 C   0  0  0  0  0  0  0  0  0  0  0  0
  -21.2263  -17.4281   16.7243 C   0  0  0  0  0  0  0  0  0  0  0  0
  -24.9969  -31.1226   21.0853 C   0  0  0  0  0  0  0  0  0  0  0  0
  -24.1988  -29.5584   22.7446 C   0  0  0  0  0  0  0  0  0  0  0  0
  -19.8180  -15.4941   17.0277 C   0  0  0  0  0  0  0  0  0  0  0  0
  -22.0989  -16.9417   17.6971 C   0  0  0  0  0  0  0  0  0  0  0  0
  -26.9561  -17.3257   16.3168 C   0  0  0  0  0  0  0  0  0  0  0  0
  -24.2655  -32.1421   21.6945 C   0  0  0  0  0  0  0  0  0  0  0  0
  -23.4674  -30.5779   23.3539 C   0  0  0  0  0  0  0  0  0  0  0  0
  -27.5505  -18.5824   16.4222 C   0  0  0  0  0  0  0  0  0  0  0  0
  -22.8946  -35.2351   23.0245 C   0  0  0  0  0  0  0  0  0  0  0  0
  -23.5277  -36.4634   23.2139 C   0  0  0  0  0  0  0  0  0  0  0  0
  -28.5780  -17.9154   18.5004 C   0  0  0  0  0  0  0  0  0  0  0  0
  -27.0674  -22.9766   21.3114 C   0  0  0  0  0  0  0  0  0  0  0  0
  -25.2047  -35.3882   24.5809 C   0  0  0  0  0  0  0  0  0  0  0  0
  -24.9636  -29.8307   21.6103 C   0  0  0  0  0  0  0  0  0  0  0  0
  -27.1121  -28.7279   20.7886 C   0  0  0  0  0  0  0  0  0  0  0  0
  -20.6928  -14.9879   18.0019 C   0  0  0  0  0  0  0  0  0  0  0  0
  -27.1597  -16.3565   17.3096 C   0  0  0  0  0  0  0  0  0  0  0  0
  -21.8418  -15.7238   18.3493 C   0  0  0  0  0  0  0  0  0  0  0  0
  -27.9870  -16.6463   18.4039 C   0  0  0  0  0  0  0  0  0  0  0  0
  -28.3229  -22.3948   21.3266 C   0  0  0  0  0  0  0  0  0  0  0  0
  -23.5007  -31.8698   22.8288 C   0  0  0  0  0  0  0  0  0  0  0  0
  -28.3593  -18.8785   17.5156 C   0  0  0  0  0  0  0  0  0  0  0  0
  -23.4164  -34.0833   23.6134 C   0  0  0  0  0  0  0  0  0  0  0  0
  -24.6828  -36.5400   23.9921 C   0  0  0  0  0  0  0  0  0  0  0  0
  -24.5715  -34.1598   24.3915 C   0  0  0  0  0  0  0  0  0  0  0  0
  -25.7185  -28.7770   20.9811 C   0  0  0  0  0  0  0  0  0  0  0  0
  -26.1711  -22.6047   22.2932 C   0  0  0  0  0  0  0  0  0  0  0  0
  -28.5991  -21.4799   22.3228 C   0  0  0  0  0  0  0  0  0  0  0  0
  -27.3288  -27.5309   20.1510 C   0  0  0  0  0  0  0  0  0  0  0  0
  -28.1207  -29.6793   21.1537 C   0  0  0  0  0  0  0  0  0  0  0  0
  -25.2782  -14.8014   19.3456 C   0  0  0  0  0  0  0  0  0  0  0  0
  -28.0056  -13.1808   20.0219 C   0  0  0  0  0  0  0  0  0  0  0  0
  -24.1556  -22.4297   20.0062 C   0  0  0  0  0  0  0  0  0  0  0  0
  -31.4179  -13.1312   20.0381 C   0  0  0  0  0  0  0  0  0  0  0  0
  -20.3366  -13.6979   18.6975 C   0  0  0  0  0  0  0  0  0  0  0  0
  -26.5329  -14.9966   17.1676 C   0  0  0  0  0  0  0  0  0  0  0  0
  -28.2538  -15.6338   19.4865 C   0  0  0  0  0  0  0  0  0  0  0  0
  -21.5063  -13.0683   19.4495 C   0  0  0  0  0  0  0  0  0  0  0  0
  -25.2204  -24.4081   17.2148 C   0  0  0  0  0  0  0  0  0  0  0  0
  -22.2369  -14.1205   20.2777 C   0  0  0  0  0  0  0  0  0  0  0  0
  -25.5684  -25.7571   17.8428 C   0  0  0  0  0  0  0  0  0  0  0  0
  -24.0375  -23.7523   17.9203 C   0  0  0  0  0  0  0  0  0  0  0  0
  -24.5703  -24.9395   20.0246 C   0  0  0  0  0  0  0  0  0  0  0  0
  -22.8253  -15.2170   19.3817 C   0  0  1  0  0  0  0  0  0  0  0  0
  -26.3941  -14.2609   18.4969 C   0  0  1  0  0  0  0  0  0  0  0  0
  -25.7796  -25.6219   19.3612 C   0  0  2  0  0  0  0  0  0  0  0  0
  -29.9302  -20.8119   22.4020 C   0  0  0  0  0  0  0  0  0  0  0  0
  -24.3114  -23.4583   23.7720 C   0  0  0  0  0  0  0  0  0  0  0  0
  -33.7318  -12.2004   20.3155 C   0  0  0  0  0  0  0  0  0  0  0  0
  -22.3264  -23.1091   21.4975 C   0  0  0  0  0  0  0  0  0  0  0  0
  -23.5900  -20.9787   21.8612 C   0  0  0  0  0  0  0  0  0  0  0  0
  -27.5388  -13.8697   22.9575 C   0  0  0  0  0  0  0  0  0  0  0  0
  -29.9229  -13.2532   23.4091 C   0  0  0  0  0  0  0  0  0  0  0  0
  -28.3337  -11.5342   22.5477 C   0  0  0  0  0  0  0  0  0  0  0  0
  -31.4742  -12.1296   17.2538 C   0  0  0  0  0  0  0  0  0  0  0  0
  -29.3400  -22.7662   20.2773 C   0  0  0  0  0  0  0  0  0  0  0  0
  -29.0823  -22.1207   18.9140 C   0  0  0  0  0  0  0  0  0  0  0  0
  -29.1771  -20.5996   18.9385 C   0  0  0  0  0  0  0  0  0  1  0  0
  -24.8057  -23.2014   22.3213 C   0  0  2  0  0  0  0  0  0  0  0  0
  -29.1423  -13.3615   20.9988 C   0  0  1  0  0  0  0  0  0  0  0  0
  -32.4124  -12.0849   19.5682 C   0  0  2  0  0  0  0  0  0  0  0  0
  -23.7154  -22.4563   21.4483 C   0  0  0  0  0  0  0  0  0  0  0  0
  -28.7281  -13.0246   22.4590 C   0  0  0  0  0  0  0  0  0  0  0  0
  -25.0938  -27.6970   20.5042 N   0  0  0  0  0  0  0  0  0  0  0  0
  -26.4685  -21.7066   23.2560 N   0  0  0  0  0  0  0  0  0  0  0  0
  -27.7026  -21.1351   23.2711 N   0  0  0  0  0  0  0  0  0  0  0  0
  -26.0995  -26.9581   20.0056 N   0  0  0  0  0  0  0  0  0  0  0  0
  -27.6132  -14.3205   19.3058 N   0  0  0  0  0  0  0  0  0  0  0  0
  -24.2675  -23.6627   19.3633 N   0  0  0  0  0  0  0  0  0  0  0  0
  -28.4489  -26.9229   19.7060 N   0  0  0  0  0  0  0  0  0  0  0  0
  -28.7218  -29.5652   22.4147 N   0  0  0  0  0  0  0  0  0  0  0  0
  -24.0365  -14.7507   18.7414 N   0  0  0  0  0  0  0  0  0  0  0  0
  -30.2487  -12.5576   20.4909 N   0  0  0  0  0  0  0  0  0  0  0  0
  -32.6820  -12.2440   18.1112 N   0  3  0  0  0  0  0  0  0  0  0  0
  -28.4667  -30.6131   20.3909 O   0  0  0  0  0  0  0  0  0  0  0  0
  -25.5253  -15.2312   20.4663 O   0  0  0  0  0  0  0  0  0  0  0  0
  -27.4897  -12.0677   19.8937 O   0  0  0  0  0  0  0  0  0  0  0  0
  -24.3952  -21.3448   19.4698 O   0  0  0  0  0  0  0  0  0  0  0  0
  -31.6561  -14.3366   20.0101 O   0  0  0  0  0  0  0  0  0  0  0  0
  -22.7871  -32.8644   23.4237 O   0  0  0  0  0  0  0  0  0  0  0  0
  -28.9402  -20.1045   17.6213 O   0  0  0  0  0  0  0  0  0  1  0  0
  -25.2916  -37.7194   24.1726 F   0  0  0  0  0  0  0  0  0  0  0  0
  -25.0782  -33.0565   24.9588 F   0  0  0  0  0  0  0  0  0  0  0  0
  1  2  1  0  0  0  0
  1  5  2  0  0  0  0
  2  6  2  0  0  0  0
  3  8  2  0  0  0  0
  3 16  1  0  0  0  0
  4  9  1  0  0  0  0
  4 16  2  0  0  0  0
  5 18  1  0  0  0  0
  6 20  1  0  0  0  0
  7 10  2  0  0  0  0
  7 19  1  0  0  0  0
  8 23  1  0  0  0  0
  9 23  2  0  0  0  0
 10 24  1  0  0  0  0
 11 12  2  0  0  0  0
 11 25  1  0  0  0  0
 12 26  1  0  0  0  0
 13 21  1  0  0  0  0
 13 24  2  0  0  0  0
 14 22  1  0  0  0  0
 14 29  2  0  0  0  0
 15 26  2  0  0  0  0
 15 27  1  0  0  0  0
 16 28  1  0  0  0  0
 17 28  1  0  0  0  0
 17 31  2  0  0  0  0
 17 32  1  0  0  0  0
 18 20  2  0  0  0  0
 18 37  1  0  0  0  0
 19 21  2  0  0  0  0
 19 38  1  0  0  0  0
 20 46  1  0  0  0  0
 21 39  1  0  0  0  0
 22 30  2  0  0  0  0
 22 58  1  0  0  0  0
 23 82  1  0  0  0  0
 24 83  1  0  0  0  0
 25 27  2  0  0  0  0
 25 82  1  0  0  0  0
 26 84  1  0  0  0  0
 27 85  1  0  0  0  0
 28 66  2  0  0  0  0
 29 61  1  0  0  0  0
 29 67  1  0  0  0  0
 30 49  1  0  0  0  0
 30 68  1  0  0  0  0
 31 69  1  0  0  0  0
 31 72  1  0  0  0  0
 32 73  1  0  0  0  0
 32 77  2  0  0  0  0
 33 47  1  0  0  0  0
 33 74  1  0  0  0  0
 33 78  2  0  0  0  0
 34 62  1  0  0  0  0
 34 70  1  0  0  0  0
 34 79  2  0  0  0  0
 35 64  1  0  0  0  0
 35 71  1  0  0  0  0
 35 80  2  0  0  0  0
 36 63  1  0  0  0  0
 36 75  1  0  0  0  0
 36 81  2  0  0  0  0
 37 40  1  0  0  0  0
 38 47  1  0  0  0  0
 39 70  1  0  0  0  0
 40 42  1  0  0  0  0
 41 43  1  0  0  0  0
 41 44  1  0  0  0  0
 42 46  1  0  0  0  0
 43 48  1  0  0  0  0
 44 71  1  0  0  0  0
 45 48  1  0  0  0  0
 45 71  1  0  0  0  0
 46 74  1  0  0  0  0
 47 70  1  0  0  0  0
 48 69  1  0  0  0  0
 50 61  1  0  0  0  0
 51 63  1  0  0  0  0
 52 64  1  0  0  0  0
 53 64  1  0  0  0  0
 54 65  1  0  0  0  0
 55 65  1  0  0  0  0
 56 65  1  0  0  0  0
 57 76  1  0  0  0  0
 58 59  1  0  0  0  0
 59 60  1  0  0  0  0
 60 83  1  0  0  0  0
 61 64  1  0  0  0  0
 62 65  1  0  0  0  0
 62 75  1  0  0  0  0
 63 76  1  0  0  0  0
 66 69  1  0  0  0  0
 67 68  2  0  0  0  0
M  CHG  1  76   1
M  ISO  4  35 100  60 101  64 100  83 101
M  END
> <Batch ID>
0081

> <Smiles>
CNC(C)C(=O)NC(C(=O)N1Cc2cc([101O:1][101CH2:1]CCc3cc(C(C)[100C:0](C)(C)[100C:0](=O)N4CCCC(n5nc(-c6ccc(Oc7ccc(F)cc7F)cc6)c(C(N)=O)c5N)C4)nnc3C)ccc2CC1C(=O)NC1CCCc2ccccc21)C(C)(C)C

> <Shape>
0.220

> <Color>
0.074

> <Negative vol penalty>
0.000

$$$$

  -OEChem-04052318463D

 85 94  0     1  0  0  0  0  0999 V2000
  -27.7696  -23.5170   17.9552 C   0  0  0  0  0  0  0  0  0  0  0  0
  -26.6072  -23.8591   18.6387 C   0  0  0  0  0  0  0  0  0  0  0  0
  -26.3021  -13.6714   19.8578 C   0  0  0  0  0  0  0  0  0  0  0  0
  -24.1968  -13.8559   21.0285 C   0  0  0  0  0  0  0  0  0  0  0  0
  -28.9916  -24.0653   18.3425 C   0  0  0  0  0  0  0  0  0  0  0  0
  -26.6664  -24.7488   19.7108 C   0  0  0  0  0  0  0  0  0  0  0  0
  -22.9900  -28.2279   19.5530 C   0  0  0  0  0  0  0  0  0  0  0  0
  -26.3800  -12.3240   20.2101 C   0  0  0  0  0  0  0  0  0  0  0  0
  -24.2746  -12.5085   21.3807 C   0  0  0  0  0  0  0  0  0  0  0  0
  -21.7184  -27.8296   19.9631 C   0  0  0  0  0  0  0  0  0  0  0  0
  -23.7092   -9.5161   19.9157 C   0  0  0  0  0  0  0  0  0  0  0  0
  -22.5580   -8.7421   19.7696 C   0  0  0  0  0  0  0  0  0  0  0  0
  -20.1213  -23.1957   22.6691 C   0  0  0  0  0  0  0  0  0  0  0  0
  -22.0947  -28.8609   22.1112 C   0  0  0  0  0  0  0  0  0  0  0  0
  -22.5867   -8.2528   22.1354 C   0  0  0  0  0  0  0  0  0  0  0  0
  -21.7453  -24.7332   23.4785 C   0  0  0  0  0  0  0  0  0  0  0  0
  -25.2106  -14.4374   20.2671 C   0  0  0  0  0  0  0  0  0  0  0  0
  -24.5356  -16.3739   18.7499 C   0  0  0  0  0  0  0  0  0  0  0  0
  -29.0644  -24.9697   19.4137 C   0  0  0  0  0  0  0  0  0  0  0  0
  -23.8290  -28.9375   20.4242 C   0  0  0  0  0  0  0  0  0  0  0  0
  -27.8907  -25.3087   20.1136 C   0  0  0  0  0  0  0  0  0  0  0  0
  -21.1392  -22.2677   22.4787 C   0  0  0  0  0  0  0  0  0  0  0  0
  -23.3755  -29.2693   21.7088 C   0  0  0  0  0  0  0  0  0  0  0  0
  -20.4218  -24.4542   23.1781 C   0  0  0  0  0  0  0  0  0  0  0  0
  -25.3662  -11.7425   20.9715 C   0  0  0  0  0  0  0  0  0  0  0  0
  -21.2716  -28.1435   21.2433 C   0  0  0  0  0  0  0  0  0  0  0  0
  -24.2992   -9.6584   21.1716 C   0  0  0  0  0  0  0  0  0  0  0  0
  -21.9967   -8.1105   20.8794 C   0  0  0  0  0  0  0  0  0  0  0  0
  -23.7380   -9.0268   22.2815 C   0  0  0  0  0  0  0  0  0  0  0  0
  -25.1299  -15.8294   19.9041 C   0  0  0  0  0  0  0  0  0  0  0  0
  -22.4306  -22.6447   22.8102 C   0  0  0  0  0  0  0  0  0  0  0  0
  -24.7225  -17.7289   18.8741 C   0  0  0  0  0  0  0  0  0  0  0  0
  -23.8738  -15.7138   17.6627 C   0  0  0  0  0  0  0  0  0  0  0  0
  -26.6711  -28.3942   21.7399 C   0  0  0  0  0  0  0  0  0  0  0  0
  -26.3289  -31.4411   22.7991 C   0  0  0  0  0  0  0  0  0  0  0  0
  -24.2321  -34.0135   23.5946 C   0  0  0  0  0  0  0  0  0  0  0  0
  -24.8306  -21.8827   22.8859 C   0  0  0  0  0  0  0  0  0  0  0  0
  -30.4149  -25.4998   19.8257 C   0  0  0  0  0  0  0  0  0  0  0  0
  -25.1877  -29.3831   19.9574 C   0  0  0  0  0  0  0  0  0  0  0  0
  -24.2298  -30.0469   22.6752 C   0  0  0  0  0  0  0  0  0  0  0  0
  -30.3373  -26.7242   20.7340 C   0  0  0  0  0  0  0  0  0  0  0  0
  -20.0066  -19.6197   20.3206 C   0  0  0  0  0  0  0  0  0  0  0  0
  -27.8243  -20.5975   21.4496 C   0  0  0  0  0  0  0  0  0  0  0  0
  -19.3623  -20.5615   21.3556 C   0  0  0  0  0  0  0  0  0  0  0  0
  -21.2876  -20.4634   20.4662 C   0  0  0  0  0  0  0  0  0  0  0  0
  -29.3149  -26.5017   21.8439 C   0  0  0  0  0  0  0  0  0  0  0  0
  -27.3783  -19.2899   20.7912 C   0  0  0  0  0  0  0  0  0  0  0  0
  -27.0878  -20.8507   22.7638 C   0  0  0  0  0  0  0  0  0  0  0  0
  -25.1771  -19.4867   22.0171 C   0  0  0  0  0  0  0  0  0  0  0  0
  -20.7977  -20.8339   21.8988 C   0  0  0  0  0  0  0  0  0  0  0  0
  -27.9105  -26.2895   21.2659 C   0  0  1  0  0  0  0  0  0  0  0  0
  -26.1547  -29.6547   21.1057 C   0  0  1  0  0  0  0  0  0  0  0  0
  -25.8443  -19.2208   20.6578 C   0  0  2  0  0  0  0  0  0  0  0  0
  -18.3299  -25.0002   24.4492 C   0  0  0  0  0  0  0  0  0  0  0  0
  -24.2434  -36.3657   24.4691 C   0  0  0  0  0  0  0  0  0  0  0  0
  -26.8600  -30.3895   25.6138 C   0  0  0  0  0  0  0  0  0  0  0  0
  -25.9357  -32.5349   26.5144 C   0  0  0  0  0  0  0  0  0  0  0  0
  -27.9789  -32.5624   25.0836 C   0  0  0  0  0  0  0  0  0  0  0  0
  -22.9838  -35.0613   21.1243 C   0  0  0  0  0  0  0  0  0  0  0  0
  -18.6006  -25.8823   22.1005 C   0  0  0  0  0  0  0  0  0  0  0  0
  -19.5086  -26.5562   21.0761 C   0  0  0  0  0  0  0  0  0  1  0  0
  -19.3332  -25.4904   23.3982 C   0  0  2  0  0  0  0  0  0  0  0  0
  -25.7321  -32.0854   24.0270 C   0  0  1  0  0  0  0  0  0  0  0  0
  -24.2607  -35.4864   23.2284 C   0  0  2  0  0  0  0  0  0  0  0  0
  -26.6110  -31.8767   25.2924 C   0  0  0  0  0  0  0  0  0  0  0  0
  -22.7611  -23.8578   23.3070 N   0  0  0  0  0  0  0  0  0  0  0  0
  -25.6551  -16.7624   20.7026 N   0  0  0  0  0  0  0  0  0  0  0  0
  -25.3916  -17.9068   20.0492 N   0  0  0  0  0  0  0  0  0  0  0  0
  -25.5528  -30.4547   22.1742 N   0  0  0  0  0  0  0  0  0  0  0  0
  -25.6397  -20.7738   22.5596 N   0  0  0  0  0  0  0  0  0  0  0  0
  -24.3781  -18.7737   18.0916 N   0  0  0  0  0  0  0  0  0  0  0  0
  -23.7693  -14.3165   17.6935 N   0  0  0  0  0  0  0  0  0  0  0  0
  -23.4736  -21.7050   22.6183 N   0  0  0  0  0  0  0  0  0  0  0  0
  -27.3327  -27.5542   20.8646 N   0  0  0  0  0  0  0  0  0  0  0  0
  -25.5024  -33.4844   23.6831 N   0  0  0  0  0  0  0  0  0  0  0  0
  -23.0795  -35.8346   22.3891 N   0  3  0  0  0  0  0  0  0  0  0  0
  -23.4038  -16.3431   16.6846 O   0  0  0  0  0  0  0  0  0  0  0  0
  -26.4846  -28.1990   22.9352 O   0  0  0  0  0  0  0  0  0  0  0  0
  -27.4397  -31.8048   22.4047 O   0  0  0  0  0  0  0  0  0  0  0  0
  -23.1875  -33.3951   23.7870 O   0  0  0  0  0  0  0  0  0  0  0  0
  -25.3100  -22.9240   23.3419 O   0  0  0  0  0  0  0  0  0  0  0  0
  -25.4416  -10.4277   21.3152 O   0  0  0  0  0  0  0  0  0  0  0  0
  -20.0312  -27.7554   21.6464 O   0  0  0  0  0  0  0  0  0  1  0  0
  -20.8904   -7.3686   20.7393 F   0  0  0  0  0  0  0  0  0  0  0  0
  -24.2996   -9.1607   23.4908 F   0  0  0  0  0  0  0  0  0  0  0  0
  1  2  1  0  0  0  0
  1  5  2  0  0  0  0
  2  6  2  0  0  0  0
  3  8  2  0  0  0  0
  3 17  1  0  0  0  0
  4  9  1  0  0  0  0
  4 17  2  0  0  0  0
  5 19  1  0  0  0  0
  6 21  1  0  0  0  0
  7 10  2  0  0  0  0
  7 20  1  0  0  0  0
  8 25  1  0  0  0  0
  9 25  2  0  0  0  0
 10 26  1  0  0  0  0
 11 12  2  0  0  0  0
 11 27  1  0  0  0  0
 12 28  1  0  0  0  0
 13 22  1  0  0  0  0
 13 24  2  0  0  0  0
 14 23  1  0  0  0  0
 14 26  2  0  0  0  0
 15 28  2  0  0  0  0
 15 29  1  0  0  0  0
 16 24  1  0  0  0  0
 16 66  2  0  0  0  0
 17 30  1  0  0  0  0
 18 30  1  0  0  0  0
 18 32  2  0  0  0  0
 18 33  1  0  0  0  0
 19 21  2  0  0  0  0
 19 38  1  0  0  0  0
 20 23  2  0  0  0  0
 20 39  1  0  0  0  0
 21 51  1  0  0  0  0
 22 31  2  0  0  0  0
 22 50  1  0  0  0  0
 23 40  1  0  0  0  0
 24 62  1  0  0  0  0
 25 82  1  0  0  0  0
 26 83  1  0  0  0  0
 27 29  2  0  0  0  0
 27 82  1  0  0  0  0
 28 84  1  0  0  0  0
 29 85  1  0  0  0  0
 30 67  2  0  0  0  0
 31 66  1  0  0  0  0
 31 73  1  0  0  0  0
 32 68  1  0  0  0  0
 32 71  1  0  0  0  0
 33 72  1  0  0  0  0
 33 77  2  0  0  0  0
 34 52  1  0  0  0  0
 34 74  1  0  0  0  0
 34 78  2  0  0  0  0
 35 63  1  0  0  0  0
 35 69  1  0  0  0  0
 35 79  2  0  0  0  0
 36 64  1  0  0  0  0
 36 75  1  0  0  0  0
 36 80  2  0  0  0  0
 37 70  1  0  0  0  0
 37 73  1  0  0  0  0
 37 81  2  0  0  0  0
 38 41  1  0  0  0  0
 39 52  1  0  0  0  0
 40 69  1  0  0  0  0
 41 46  1  0  0  0  0
 42 44  1  0  0  0  0
 42 45  1  0  0  0  0
 43 47  1  0  0  0  0
 43 48  1  0  0  0  0
 44 50  1  0  0  0  0
 45 50  1  0  0  0  0
 46 51  1  0  0  0  0
 47 53  1  0  0  0  0
 48 70  1  0  0  0  0
 49 53  1  0  0  0  0
 49 70  1  0  0  0  0
 51 74  1  0  0  0  0
 52 69  1  0  0  0  0
 53 68  1  0  0  0  0
 54 62  1  0  0  0  0
 55 64  1  0  0  0  0
 56 65  1  0  0  0  0
 57 65  1  0  0  0  0
 58 65  1  0  0  0  0
 59 76  1  0  0  0  0
 60 61  1  0  0  0  0
 60 62  1  0  0  0  0
 61 83  1  0  0  0  0
 63 65  1  0  0  0  0
 63 75  1  0  0  0  0
 64 76  1  0  0  0  0
 67 68  1  0  0  0  0
M  CHG  1  76   1
M  ISO  4  37 100  61 101  73 100  83 101
M  END
> <Batch ID>
0081

> <Smiles>
CNC(C)C(=O)NC(C(=O)N1Cc2cc([101O:1][101CH2:1]CC(C)c3cnc([100NH:0][100C:0](=O)N4CCCC(n5nc(-c6ccc(Oc7ccc(F)cc7F)cc6)c(C(N)=O)c5N)C4)c(C4CCC4)c3)ccc2CC1C(=O)NC1CCCc2ccccc21)C(C)(C)C

> <Shape>
0.279

> <Color>
0.078

> <Negative vol penalty>
0.000

$$$$

  -OEChem-04052318463D

 87 95  0     1  0  0  0  0  0999 V2000
  -27.7074  -23.7153   17.8642 C   0  0  0  0  0  0  0  0  0  0  0  0
  -26.5352  -24.0697   18.5243 C   0  0  0  0  0  0  0  0  0  0  0  0
  -27.2666  -14.4122   19.0774 C   0  0  0  0  0  0  0  0  0  0  0  0
  -25.6167  -14.9959   20.7430 C   0  0  0  0  0  0  0  0  0  0  0  0
  -28.9307  -24.2265   18.2954 C   0  0  0  0  0  0  0  0  0  0  0  0
  -26.5858  -24.9348   19.6168 C   0  0  0  0  0  0  0  0  0  0  0  0
  -22.9952  -28.5014   19.4387 C   0  0  0  0  0  0  0  0  0  0  0  0
  -27.0463  -13.0589   19.3334 C   0  0  0  0  0  0  0  0  0  0  0  0
  -25.3964  -13.6426   20.9990 C   0  0  0  0  0  0  0  0  0  0  0  0
  -21.7043  -28.1242   19.8064 C   0  0  0  0  0  0  0  0  0  0  0  0
  -23.7085  -11.0831   19.5775 C   0  0  0  0  0  0  0  0  0  0  0  0
  -22.3862  -10.6524   19.6853 C   0  0  0  0  0  0  0  0  0  0  0  0
  -22.0463  -29.1004   21.9857 C   0  0  0  0  0  0  0  0  0  0  0  0
  -22.8137   -9.9052   21.9428 C   0  0  0  0  0  0  0  0  0  0  0  0
  -21.6441  -25.2429   22.9816 C   0  0  0  0  0  0  0  0  0  0  0  0
  -26.5519  -15.3808   19.7823 C   0  0  0  0  0  0  0  0  0  0  0  0
  -26.1136  -17.5858   18.5767 C   0  0  0  0  0  0  0  0  0  0  0  0
  -28.9953  -25.1059   19.3877 C   0  0  0  0  0  0  0  0  0  0  0  0
  -23.8266  -29.1724   20.3470 C   0  0  0  0  0  0  0  0  0  0  0  0
  -27.8113  -25.4572   20.0639 C   0  0  0  0  0  0  0  0  0  0  0  0
  -23.3464  -29.4873   21.6262 C   0  0  0  0  0  0  0  0  0  0  0  0
  -26.1112  -12.6741   20.2941 C   0  0  0  0  0  0  0  0  0  0  0  0
  -21.2307  -28.4212   21.0810 C   0  0  0  0  0  0  0  0  0  0  0  0
  -24.5835  -10.9248   20.6523 C   0  0  0  0  0  0  0  0  0  0  0  0
  -21.9388  -10.0635   20.8680 C   0  0  0  0  0  0  0  0  0  0  0  0
  -24.1360  -10.3359   21.8350 C   0  0  0  0  0  0  0  0  0  0  0  0
  -26.7794  -16.7789   19.5187 C   0  0  0  0  0  0  0  0  0  0  0  0
  -22.3892  -24.1216   22.7486 C   0  0  0  0  0  0  0  0  0  0  0  0
  -26.6911  -18.8242   18.7160 C   0  0  0  0  0  0  0  0  0  0  0  0
  -20.2518  -23.5520   22.6613 C   0  0  0  0  0  0  0  0  0  0  0  0
  -25.0666  -17.2463   17.6579 C   0  0  0  0  0  0  0  0  0  0  0  0
  -26.6192  -28.5350   21.7248 C   0  0  0  0  0  0  0  0  0  0  0  0
  -26.3183  -31.5657   22.8412 C   0  0  0  0  0  0  0  0  0  0  0  0
  -24.2600  -34.1689   23.6375 C   0  0  0  0  0  0  0  0  0  0  0  0
  -29.5176  -21.5175   23.2556 C   0  0  0  0  0  0  0  0  0  0  0  0
  -30.3460  -25.5954   19.8467 C   0  0  0  0  0  0  0  0  0  0  0  0
  -25.2070  -29.5960   19.9260 C   0  0  0  0  0  0  0  0  0  0  0  0
  -24.1920  -30.2240   22.6315 C   0  0  0  0  0  0  0  0  0  0  0  0
  -30.2721  -26.8017   20.7793 C   0  0  0  0  0  0  0  0  0  0  0  0
  -30.8007  -20.9173   19.9891 C   0  0  0  0  0  0  0  0  0  0  0  0
  -29.2155  -26.5795   21.8568 C   0  0  0  0  0  0  0  0  0  0  0  0
  -29.8555  -19.8615   19.4132 C   0  0  0  0  0  0  0  0  0  0  0  0
  -31.0431  -20.7038   21.4817 C   0  0  0  0  0  0  0  0  0  0  0  0
  -28.8750  -19.5577   21.7251 C   0  0  0  0  0  0  0  0  0  0  0  0
  -27.8226  -26.4125   21.2375 C   0  0  1  0  0  0  0  0  0  0  0  0
  -26.1488  -29.8204   21.1050 C   0  0  1  0  0  0  0  0  0  0  0  0
  -28.5558  -19.7645   20.2345 C   0  0  2  0  0  0  0  0  0  0  0  0
  -17.4515  -21.5657   20.8957 C   0  0  0  0  0  0  0  0  0  0  0  0
  -24.3015  -36.5010   24.5633 C   0  0  0  0  0  0  0  0  0  0  0  0
  -26.7496  -30.4423   25.6451 C   0  0  0  0  0  0  0  0  0  0  0  0
  -25.8506  -32.5890   26.5680 C   0  0  0  0  0  0  0  0  0  0  0  0
  -27.9315  -32.5993   25.1923 C   0  0  0  0  0  0  0  0  0  0  0  0
  -23.1025  -35.2980   21.1587 C   0  0  0  0  0  0  0  0  0  0  0  0
  -23.8389  -23.9175   22.6898 C   0  0  0  0  0  0  0  0  0  0  0  0
  -19.0182  -22.7399   22.5143 C   0  0  0  0  0  0  0  0  0  0  0  0
  -18.6952  -22.4279   21.0423 C   0  0  0  0  0  0  0  0  0  0  0  0
  -18.4775  -26.2127   21.8115 C   0  0  0  0  0  0  0  0  0  0  0  0
  -26.3652  -22.4249   25.0292 C   0  0  0  0  0  0  0  0  0  0  0  0
  -19.1469  -25.7812   23.1181 C   0  0  0  0  0  0  0  0  0  0  0  0
  -27.8773  -22.2274   24.9775 C   0  0  0  0  0  0  0  0  0  0  0  0
  -25.8193  -23.0904   23.7648 C   0  0  0  0  0  0  0  0  0  0  0  0
  -19.4370  -26.8794   20.8326 C   0  0  0  0  0  0  0  0  0  1  0  0
  -25.7035  -32.1975   24.0668 C   0  0  1  0  0  0  0  0  0  0  0  0
  -24.3320  -35.6482   23.3045 C   0  0  2  0  0  0  0  0  0  0  0  0
  -26.5433  -31.9414   25.3500 C   0  0  0  0  0  0  0  0  0  0  0  0
  -27.7090  -17.4484   20.2056 N   0  0  0  0  0  0  0  0  0  0  0  0
  -20.3255  -24.8614   22.9213 N   0  0  0  0  0  0  0  0  0  0  0  0
  -27.6314  -18.6889   19.6947 N   0  0  0  0  0  0  0  0  0  0  0  0
  -21.5020  -23.0906   22.5540 N   0  3  0  0  0  0  0  0  0  0  0  0
  -25.5369  -30.6113   22.1746 N   0  0  0  0  0  0  0  0  0  0  0  0
  -29.7709  -20.6222   22.2033 N   0  0  0  0  0  0  0  0  0  0  0  0
  -26.4814  -20.0046   18.0956 N   0  0  0  0  0  0  0  0  0  0  0  0
  -24.5895  -15.9285   17.6459 N   0  0  0  0  0  0  0  0  0  0  0  0
  -27.2847  -27.6986   20.8490 N   0  0  0  0  0  0  0  0  0  0  0  0
  -25.5151  -33.6086   23.7477 N   0  0  0  0  0  0  0  0  0  0  0  0
  -28.2855  -21.3761   23.8823 N   0  0  0  0  0  0  0  0  0  0  0  0
  -24.3743  -23.2600   23.8674 N   0  0  0  0  0  0  0  0  0  0  0  0
  -23.1819  -36.0417   22.4423 N   0  3  0  0  0  0  0  0  0  0  0  0
  -24.5803  -18.0826   16.8594 O   0  0  0  0  0  0  0  0  0  0  0  0
  -26.3964  -28.3188   22.9102 O   0  0  0  0  0  0  0  0  0  0  0  0
  -27.4472  -31.9117   22.4842 O   0  0  0  0  0  0  0  0  0  0  0  0
  -23.1969  -33.5711   23.7887 O   0  0  0  0  0  0  0  0  0  0  0  0
  -30.3271  -22.3826   23.6069 O   0  0  0  0  0  0  0  0  0  0  0  0
  -25.8957  -11.3536   20.5440 O   0  0  0  0  0  0  0  0  0  0  0  0
  -19.9713  -28.0536   21.4426 O   0  0  0  0  0  0  0  0  0  1  0  0
  -20.6685   -9.6514   20.9719 F   0  0  0  0  0  0  0  0  0  0  0  0
  -24.9715  -10.1822   22.8713 F   0  0  0  0  0  0  0  0  0  0  0  0
  1  2  1  0  0  0  0
  1  5  2  0  0  0  0
  2  6  2  0  0  0  0
  3  8  2  0  0  0  0
  3 16  1  0  0  0  0
  4  9  1  0  0  0  0
  4 16  2  0  0  0  0
  5 18  1  0  0  0  0
  6 20  1  0  0  0  0
  7 10  2  0  0  0  0
  7 19  1  0  0  0  0
  8 22  1  0  0  0  0
  9 22  2  0  0  0  0
 10 23  1  0  0  0  0
 11 12  2  0  0  0  0
 11 24  1  0  0  0  0
 12 25  1  0  0  0  0
 13 21  1  0  0  0  0
 13 23  2  0  0  0  0
 14 25  2  0  0  0  0
 14 26  1  0  0  0  0
 15 28  2  0  0  0  0
 15 67  1  0  0  0  0
 16 27  1  0  0  0  0
 17 27  1  0  0  0  0
 17 29  2  0  0  0  0
 17 31  1  0  0  0  0
 18 20  2  0  0  0  0
 18 36  1  0  0  0  0
 19 21  2  0  0  0  0
 19 37  1  0  0  0  0
 20 45  1  0  0  0  0
 21 38  1  0  0  0  0
 22 84  1  0  0  0  0
 23 85  1  0  0  0  0
 24 26  2  0  0  0  0
 24 84  1  0  0  0  0
 25 86  1  0  0  0  0
 26 87  1  0  0  0  0
 27 66  2  0  0  0  0
 28 54  1  0  0  0  0
 28 69  1  0  0  0  0
 29 68  1  0  0  0  0
 29 72  1  0  0  0  0
 30 55  1  0  0  0  0
 30 67  1  0  0  0  0
 30 69  2  0  0  0  0
 31 73  1  0  0  0  0
 31 79  2  0  0  0  0
 32 46  1  0  0  0  0
 32 74  1  0  0  0  0
 32 80  2  0  0  0  0
 33 63  1  0  0  0  0
 33 70  1  0  0  0  0
 33 81  2  0  0  0  0
 34 64  1  0  0  0  0
 34 75  1  0  0  0  0
 34 82  2  0  0  0  0
 35 71  1  0  0  0  0
 35 76  1  0  0  0  0
 35 83  2  0  0  0  0
 36 39  1  0  0  0  0
 37 46  1  0  0  0  0
 38 70  1  0  0  0  0
 39 41  1  0  0  0  0
 40 42  1  0  0  0  0
 40 43  1  0  0  0  0
 41 45  1  0  0  0  0
 42 47  1  0  0  0  0
 43 71  1  0  0  0  0
 44 47  1  0  0  0  0
 44 71  1  0  0  0  0
 45 74  1  0  0  0  0
 46 70  1  0  0  0  0
 47 68  1  0  0  0  0
 48 56  1  0  0  0  0
 49 64  1  0  0  0  0
 50 65  1  0  0  0  0
 51 65  1  0  0  0  0
 52 65  1  0  0  0  0
 53 78  1  0  0  0  0
 54 77  1  0  0  0  0
 55 56  1  0  0  0  0
 57 59  1  0  0  0  0
 57 62  1  0  0  0  0
 58 60  1  0  0  0  0
 58 61  1  0  0  0  0
 59 67  1  0  0  0  0
 60 76  1  0  0  0  0
 61 77  1  0  0  0  0
 62 85  1  0  0  0  0
 63 65  1  0  0  0  0
 63 75  1  0  0  0  0
 64 78  1  0  0  0  0
 66 68  1  0  0  0  0
M  CHG  2  69   1  78   1
M  ISO  4  35 100  62 101  76 100  85 101
M  END
> <Batch ID>
0081

> <Smiles>
CCCc1nc(CNCCC[100NH:0][100C:0](=O)N2CCCC(n3nc(-c4ccc(Oc5ccc(F)cc5F)cc4)c(C(N)=O)c3N)C2)cn1CC[101CH2:1][101O:1]c1ccc2c(c1)CN(C(=O)C(NC(=O)C(C)NC)C(C)(C)C)C(C(=O)NC1CCCc3ccccc31)C2

> <Shape>
0.302

> <Color>
0.063

> <Negative vol penalty>
0.000

$$$$

  -OEChem-04052318463D

 87 95  0     1  0  0  0  0  0999 V2000
  -17.2442  -23.6218   32.2456 C   0  0  0  0  0  0  0  0  0  0  0  0
  -17.8172  -23.4192   30.9941 C   0  0  0  0  0  0  0  0  0  0  0  0
  -23.1901   -9.8193   19.9312 C   0  0  0  0  0  0  0  0  0  0  0  0
  -23.5671   -9.9997   22.3108 C   0  0  0  0  0  0  0  0  0  0  0  0
  -17.7612  -22.9661   33.3621 C   0  0  0  0  0  0  0  0  0  0  0  0
  -18.9083  -22.5616   30.8587 C   0  0  0  0  0  0  0  0  0  0  0  0
  -21.8489  -17.9574   26.2250 C   0  0  0  0  0  0  0  0  0  0  0  0
  -22.4237   -8.6727   20.1396 C   0  0  0  0  0  0  0  0  0  0  0  0
  -22.8006   -8.8531   22.5192 C   0  0  0  0  0  0  0  0  0  0  0  0
  -23.0658  -17.6872   25.6006 C   0  0  0  0  0  0  0  0  0  0  0  0
  -21.2423   -5.7694   23.6472 C   0  0  0  0  0  0  0  0  0  0  0  0
  -21.7381   -4.8095   24.5295 C   0  0  0  0  0  0  0  0  0  0  0  0
  -23.8246  -16.5471   27.5865 C   0  0  0  0  0  0  0  0  0  0  0  0
  -23.6975   -4.5454   23.1410 C   0  0  0  0  0  0  0  0  0  0  0  0
  -23.7619  -10.4828   21.0169 C   0  0  0  0  0  0  0  0  0  0  0  0
  -24.1009  -12.9994   20.7733 C   0  0  0  0  0  0  0  0  0  0  0  0
  -18.8531  -22.0925   33.2387 C   0  0  0  0  0  0  0  0  0  0  0  0
  -21.6144  -17.5332   27.5409 C   0  0  0  0  0  0  0  0  0  0  0  0
  -19.4412  -21.8946   31.9749 C   0  0  0  0  0  0  0  0  0  0  0  0
  -22.6029  -16.8109   28.2244 C   0  0  0  0  0  0  0  0  0  0  0  0
  -28.5464  -13.4906   27.5952 C   0  0  0  0  0  0  0  0  0  0  0  0
  -22.2289   -8.1896   21.4335 C   0  0  0  0  0  0  0  0  0  0  0  0
  -24.0550  -16.9845   26.2824 C   0  0  0  0  0  0  0  0  0  0  0  0
  -21.9740   -6.1172   22.5117 C   0  0  0  0  0  0  0  0  0  0  0  0
  -22.9657   -4.1975   24.2764 C   0  0  0  0  0  0  0  0  0  0  0  0
  -23.2017   -5.5052   22.2586 C   0  0  0  0  0  0  0  0  0  0  0  0
  -24.5542  -11.6669   20.8023 C   0  0  0  0  0  0  0  0  0  0  0  0
  -29.7977  -13.9085   28.0864 C   0  0  0  0  0  0  0  0  0  0  0  0
  -28.5480  -13.8780   26.2775 C   0  0  0  0  0  0  0  0  0  0  0  0
  -25.2322  -13.7420   20.5386 C   0  0  0  0  0  0  0  0  0  0  0  0
  -22.7756  -13.5194   20.9433 C   0  0  0  0  0  0  0  0  0  0  0  0
  -21.0041  -18.9984   30.2949 C   0  0  0  0  0  0  0  0  0  0  0  0
  -20.6000  -15.9650   31.3709 C   0  0  0  0  0  0  0  0  0  0  0  0
  -21.2890  -12.6433   30.9996 C   0  0  0  0  0  0  0  0  0  0  0  0
  -31.0464  -12.7517   21.5711 C   0  0  0  0  0  0  0  0  0  0  0  0
  -19.4070  -21.4428   34.4820 C   0  0  0  0  0  0  0  0  0  0  0  0
  -20.2863  -17.8094   28.1908 C   0  0  0  0  0  0  0  0  0  0  0  0
  -22.3932  -16.3158   29.6312 C   0  0  0  0  0  0  0  0  0  0  0  0
  -20.3287  -20.2609   34.1926 C   0  0  0  0  0  0  0  0  0  0  0  0
  -29.5208  -13.4691   18.4351 C   0  0  0  0  0  0  0  0  0  0  0  0
  -21.3278  -20.6189   33.0969 C   0  0  0  0  0  0  0  0  0  0  0  0
  -28.0340  -13.2088   18.6836 C   0  0  0  0  0  0  0  0  0  0  0  0
  -30.4016  -12.4797   19.1948 C   0  0  0  0  0  0  0  0  0  0  0  0
  -28.6471  -12.1371   20.8913 C   0  0  0  0  0  0  0  0  0  0  0  0
  -20.6102  -20.9528   31.7835 C   0  0  1  0  0  0  0  0  0  0  0  0
  -20.3487  -17.7771   29.7148 C   0  0  1  0  0  0  0  0  0  0  0  0
  -27.7201  -13.1449   20.1904 C   0  0  2  0  0  0  0  0  0  0  0  0
  -31.3622  -12.6177   29.5605 C   0  0  0  0  0  0  0  0  0  0  0  0
  -27.8990  -10.5378   27.2203 C   0  0  0  0  0  0  0  0  0  0  0  0
  -20.8479  -10.4099   32.0555 C   0  0  0  0  0  0  0  0  0  0  0  0
  -22.6109  -16.6115   33.5728 C   0  0  0  0  0  0  0  0  0  0  0  0
  -22.8440  -14.1532   33.9856 C   0  0  0  0  0  0  0  0  0  0  0  0
  -20.6386  -15.2691   34.3226 C   0  0  0  0  0  0  0  0  0  0  0  0
  -19.9443  -11.6286   28.5663 C   0  0  0  0  0  0  0  0  0  0  0  0
  -27.4737  -12.7949   28.3271 C   0  0  0  0  0  0  0  0  0  0  0  0
  -30.3325  -13.7485   29.4501 C   0  0  0  0  0  0  0  0  0  0  0  0
  -27.5087  -13.7302   25.1951 C   0  0  0  0  0  0  0  0  0  0  0  0
  -27.7689  -11.2942   28.5329 C   0  0  0  0  0  0  0  0  0  0  0  0
  -26.7474  -15.0225   24.8916 C   0  0  0  0  0  0  0  0  0  0  0  0
  -31.5732  -14.4851   24.3571 C   0  0  0  0  0  0  0  0  0  0  0  0
  -30.2318  -15.0589   24.8333 C   0  0  0  0  0  0  0  0  0  0  0  0
  -31.5352  -13.0029   23.9913 C   0  0  0  0  0  0  0  0  0  0  0  0
  -25.9237  -15.5289   26.0700 C   0  0  0  0  0  0  0  0  0  1  0  0
  -21.5023  -14.9151   31.9730 C   0  0  1  0  0  0  0  0  0  0  0  0
  -20.3900  -11.4202   31.0151 C   0  0  2  0  0  0  0  0  0  0  0  0
  -21.9039  -15.2481   33.4377 C   0  0  0  0  0  0  0  0  0  0  0  0
  -25.8709  -11.5658   20.6019 N   0  0  0  0  0  0  0  0  0  0  0  0
  -30.5404  -14.5147   27.1564 N   0  0  0  0  0  0  0  0  0  0  0  0
  -29.7534  -14.4805   26.0676 N   0  0  0  0  0  0  0  0  0  0  0  0
  -26.2546  -12.8441   20.4446 N   0  0  0  0  0  0  0  0  0  0  0  0
  -21.0804  -16.6163   30.2260 N   0  0  0  0  0  0  0  0  0  0  0  0
  -30.0543  -12.4686   20.6179 N   0  0  0  0  0  0  0  0  0  0  0  0
  -25.4423  -15.0688   20.4055 N   0  0  0  0  0  0  0  0  0  0  0  0
  -21.7287  -12.6172   21.1768 N   0  0  0  0  0  0  0  0  0  0  0  0
  -20.1806  -19.7405   31.1199 N   0  0  0  0  0  0  0  0  0  0  0  0
  -20.8067  -13.6420   31.8189 N   0  0  0  0  0  0  0  0  0  0  0  0
  -30.6314  -12.7264   22.8970 N   0  0  0  0  0  0  0  0  0  0  0  0
  -20.3956  -10.7562   29.6809 N   0  3  0  0  0  0  0  0  0  0  0  0
  -22.5245  -14.7464   20.8735 O   0  0  0  0  0  0  0  0  0  0  0  0
  -22.1709  -19.2481   30.0159 O   0  0  0  0  0  0  0  0  0  0  0  0
  -19.5060  -16.1937   31.8930 O   0  0  0  0  0  0  0  0  0  0  0  0
  -22.3182  -12.7050   30.3307 O   0  0  0  0  0  0  0  0  0  0  0  0
  -32.2141  -13.0133   21.2631 O   0  0  0  0  0  0  0  0  0  0  0  0
  -21.4808   -7.0709   21.6372 O   0  0  0  0  0  0  0  0  0  0  0  0
  -25.2440  -16.7200   25.6755 O   0  0  0  0  0  0  0  0  0  1  0  0
  -23.4425   -3.2769   25.1246 F   0  0  0  0  0  0  0  0  0  0  0  0
  -23.9097   -5.8361   21.1701 F   0  0  0  0  0  0  0  0  0  0  0  0
  1  2  1  0  0  0  0
  1  5  2  0  0  0  0
  2  6  2  0  0  0  0
  3  8  2  0  0  0  0
  3 15  1  0  0  0  0
  4  9  1  0  0  0  0
  4 15  2  0  0  0  0
  5 17  1  0  0  0  0
  6 19  1  0  0  0  0
  7 10  2  0  0  0  0
  7 18  1  0  0  0  0
  8 22  1  0  0  0  0
  9 22  2  0  0  0  0
 10 23  1  0  0  0  0
 11 12  2  0  0  0  0
 11 24  1  0  0  0  0
 12 25  1  0  0  0  0
 13 20  1  0  0  0  0
 13 23  2  0  0  0  0
 14 25  2  0  0  0  0
 14 26  1  0  0  0  0
 15 27  1  0  0  0  0
 16 27  1  0  0  0  0
 16 30  2  0  0  0  0
 16 31  1  0  0  0  0
 17 19  2  0  0  0  0
 17 36  1  0  0  0  0
 18 20  2  0  0  0  0
 18 37  1  0  0  0  0
 19 45  1  0  0  0  0
 20 38  1  0  0  0  0
 21 28  1  0  0  0  0
 21 29  2  0  0  0  0
 21 55  1  0  0  0  0
 22 84  1  0  0  0  0
 23 85  1  0  0  0  0
 24 26  2  0  0  0  0
 24 84  1  0  0  0  0
 25 86  1  0  0  0  0
 26 87  1  0  0  0  0
 27 67  2  0  0  0  0
 28 56  1  0  0  0  0
 28 68  2  0  0  0  0
 29 57  1  0  0  0  0
 29 69  1  0  0  0  0
 30 70  1  0  0  0  0
 30 73  1  0  0  0  0
 31 74  1  0  0  0  0
 31 79  2  0  0  0  0
 32 46  1  0  0  0  0
 32 75  1  0  0  0  0
 32 80  2  0  0  0  0
 33 64  1  0  0  0  0
 33 71  1  0  0  0  0
 33 81  2  0  0  0  0
 34 65  1  0  0  0  0
 34 76  1  0  0  0  0
 34 82  2  0  0  0  0
 35 72  1  0  0  0  0
 35 77  1  0  0  0  0
 35 83  2  0  0  0  0
 36 39  1  0  0  0  0
 37 46  1  0  0  0  0
 38 71  1  0  0  0  0
 39 41  1  0  0  0  0
 40 42  1  0  0  0  0
 40 43  1  0  0  0  0
 41 45  1  0  0  0  0
 42 47  1  0  0  0  0
 43 72  1  0  0  0  0
 44 47  1  0  0  0  0
 44 72  1  0  0  0  0
 45 75  1  0  0  0  0
 46 71  1  0  0  0  0
 47 70  1  0  0  0  0
 48 56  1  0  0  0  0
 49 58  1  0  0  0  0
 50 65  1  0  0  0  0
 51 66  1  0  0  0  0
 52 66  1  0  0  0  0
 53 66  1  0  0  0  0
 54 78  1  0  0  0  0
 55 58  1  0  0  0  0
 57 59  1  0  0  0  0
 59 63  1  0  0  0  0
 60 61  1  0  0  0  0
 60 62  1  0  0  0  0
 61 69  1  0  0  0  0
 62 77  1  0  0  0  0
 63 85  1  0  0  0  0
 64 66  1  0  0  0  0
 64 76  1  0  0  0  0
 65 78  1  0  0  0  0
 67 70  1  0  0  0  0
 68 69  1  0  0  0  0
M  CHG  1  78   1
M  ISO  4  35 100  63 101  77 100  85 101
M  END
> <Batch ID>
0081

> <Smiles>
CCCc1c(CC)nn(CCC[100NH:0][100C:0](=O)N2CCCC(n3nc(-c4ccc(Oc5ccc(F)cc5F)cc4)c(C(N)=O)c3N)C2)c1CC[101CH2:1][101O:1]c1ccc2c(c1)CN(C(=O)C(NC(=O)C(C)NC)C(C)(C)C)C(C(=O)NC1CCCc3ccccc31)C2

> <Shape>
0.137

> <Color>
0.178

> <Negative vol penalty>
0.000

$$$$

  -OEChem-04052318463D

 81 89  0     1  0  0  0  0  0999 V2000
  -30.5568  -22.1412   15.3306 C   0  0  0  0  0  0  0  0  0  0  0  0
  -30.1187  -22.0321   16.6465 C   0  0  0  0  0  0  0  0  0  0  0  0
  -24.7748  -14.0171   19.5794 C   0  0  0  0  0  0  0  0  0  0  0  0
  -25.1869  -13.3304   21.8588 C   0  0  0  0  0  0  0  0  0  0  0  0
  -30.8233  -23.3974   14.7877 C   0  0  0  0  0  0  0  0  0  0  0  0
  -29.9481  -23.1792   17.4207 C   0  0  0  0  0  0  0  0  0  0  0  0
  -25.6170  -23.1256   20.0444 C   0  0  0  0  0  0  0  0  0  0  0  0
  -24.7012  -12.6799   19.1898 C   0  0  0  0  0  0  0  0  0  0  0  0
  -25.1133  -11.9930   21.4691 C   0  0  0  0  0  0  0  0  0  0  0  0
  -25.5831  -22.3485   21.2015 C   0  0  0  0  0  0  0  0  0  0  0  0
  -24.6756   -8.3988   21.1400 C   0  0  0  0  0  0  0  0  0  0  0  0
  -23.9323   -7.5298   21.9387 C   0  0  0  0  0  0  0  0  0  0  0  0
  -25.9352  -24.3281   22.5342 C   0  0  0  0  0  0  0  0  0  0  0  0
  -21.9564   -8.8658   21.5535 C   0  0  0  0  0  0  0  0  0  0  0  0
  -25.0177  -14.3424   20.9139 C   0  0  0  0  0  0  0  0  0  0  0  0
  -24.0355  -16.5414   21.7550 C   0  0  0  0  0  0  0  0  0  0  0  0
  -30.6466  -24.5612   15.5525 C   0  0  0  0  0  0  0  0  0  0  0  0
  -25.8215  -24.5107   20.1231 C   0  0  0  0  0  0  0  0  0  0  0  0
  -30.2138  -24.4521   16.8879 C   0  0  0  0  0  0  0  0  0  0  0  0
  -25.9688  -25.1210   21.3769 C   0  0  0  0  0  0  0  0  0  0  0  0
  -24.8704  -11.6678   20.1346 C   0  0  0  0  0  0  0  0  0  0  0  0
  -25.7451  -22.9493   22.4464 C   0  0  0  0  0  0  0  0  0  0  0  0
  -24.0593   -9.5014   20.5481 C   0  0  0  0  0  0  0  0  0  0  0  0
  -22.5727   -7.7633   22.1454 C   0  0  0  0  0  0  0  0  0  0  0  0
  -22.6998   -9.7348   20.7548 C   0  0  0  0  0  0  0  0  0  0  0  0
  -25.0944  -15.7236   21.3170 C   0  0  0  0  0  0  0  0  0  0  0  0
  -26.8279  -21.3278   26.7283 C   0  0  0  0  0  0  0  0  0  0  0  0
  -25.8489  -21.8726   25.9360 C   0  0  0  0  0  0  0  0  0  0  0  0
  -24.6239  -17.7549   22.0152 C   0  0  0  0  0  0  0  0  0  0  0  0
  -22.6445  -16.2318   21.9127 C   0  0  0  0  0  0  0  0  0  0  0  0
  -28.0513  -26.5127   19.0630 C   0  0  0  0  0  0  0  0  0  0  0  0
  -26.0247  -28.7660   20.2196 C   0  0  0  0  0  0  0  0  0  0  0  0
  -23.5074  -29.5628   22.3818 C   0  0  0  0  0  0  0  0  0  0  0  0
  -29.5470  -19.9808   24.0943 C   0  0  0  0  0  0  0  0  0  0  0  0
  -30.9928  -25.8939   14.9372 C   0  0  0  0  0  0  0  0  0  0  0  0
  -25.8289  -25.3387   18.8674 C   0  0  0  0  0  0  0  0  0  0  0  0
  -26.1708  -26.6069   21.5168 C   0  0  0  0  0  0  0  0  0  0  0  0
  -30.4277  -27.0852   15.7064 C   0  0  0  0  0  0  0  0  0  0  0  0
  -28.8159  -19.9673   20.6098 C   0  0  0  0  0  0  0  0  0  0  0  0
  -30.6866  -26.9268   17.2013 C   0  0  0  0  0  0  0  0  0  0  0  0
  -27.6833  -18.9476   20.4776 C   0  0  0  0  0  0  0  0  0  0  0  0
  -29.8306  -19.5492   21.6716 C   0  0  0  0  0  0  0  0  0  0  0  0
  -28.1217  -18.2337   22.8644 C   0  0  0  0  0  0  0  0  0  0  0  0
  -29.9929  -25.6749   17.7517 C   0  0  1  0  0  0  0  0  0  0  0  0
  -26.5572  -26.6689   19.0330 C   0  0  1  0  0  0  0  0  0  0  0  0
  -27.0437  -18.6396   21.8449 C   0  0  2  0  0  0  0  0  0  0  0  0
  -22.7558  -22.7756   26.4246 C   0  0  0  0  0  0  0  0  0  0  0  0
  -22.0851  -31.4924   23.1240 C   0  0  0  0  0  0  0  0  0  0  0  0
  -28.3748  -29.8818   21.8140 C   0  0  0  0  0  0  0  0  0  0  0  0
  -26.7323  -31.1504   23.2144 C   0  0  0  0  0  0  0  0  0  0  0  0
  -26.9057  -31.6154   20.7697 C   0  0  0  0  0  0  0  0  0  0  0  0
  -21.0185  -28.2052   21.5326 C   0  0  0  0  0  0  0  0  0  0  0  0
  -28.2761  -21.5747   26.7194 C   0  0  0  0  0  0  0  0  0  0  0  0
  -25.8858  -22.8741   24.8193 C   0  0  0  0  0  0  0  0  0  1  0  0
  -23.3591  -21.4771   25.9173 C   0  0  0  0  0  0  0  0  0  0  0  0
  -29.1362  -20.3100   26.5196 C   0  0  0  0  0  0  0  0  0  0  0  0
  -25.8418  -29.4583   21.5486 C   0  0  1  0  0  0  0  0  0  0  0  0
  -22.2014  -30.3088   22.1762 C   0  0  2  0  0  0  0  0  0  0  0  0
  -26.9618  -30.4982   21.8343 C   0  0  0  0  0  0  0  0  0  0  0  0
  -26.2666  -16.3637   21.2984 N   0  0  0  0  0  0  0  0  0  0  0  0
  -26.2670  -20.4482   27.6122 N   0  0  0  0  0  0  0  0  0  0  0  0
  -24.9570  -20.4277   27.3919 N   0  0  0  0  0  0  0  0  0  0  0  0
  -24.7084  -21.2823   26.3864 N   0  0  0  0  0  0  0  0  0  0  0  0
  -25.9478  -17.5965   21.7280 N   0  0  0  0  0  0  0  0  0  0  0  0
  -26.1768  -27.3727   20.2594 N   0  0  0  0  0  0  0  0  0  0  0  0
  -29.1599  -19.2732   22.9443 N   0  0  0  0  0  0  0  0  0  0  0  0
  -24.1328  -18.9314   22.4592 N   0  0  0  0  0  0  0  0  0  0  0  0
  -22.2087  -14.9368   21.6006 N   0  0  0  0  0  0  0  0  0  0  0  0
  -28.5778  -25.9191   17.9316 N   0  0  0  0  0  0  0  0  0  0  0  0
  -24.4951  -30.0191   21.5347 N   0  0  0  0  0  0  0  0  0  0  0  0
  -28.8562  -19.6628   25.2572 N   0  0  0  0  0  0  0  0  0  0  0  0
  -21.0435  -29.4011   22.4136 N   0  3  0  0  0  0  0  0  0  0  0  0
  -21.8099  -17.0830   22.3028 O   0  0  0  0  0  0  0  0  0  0  0  0
  -28.6802  -26.9032   20.0396 O   0  0  0  0  0  0  0  0  0  0  0  0
  -26.0253  -29.4358   19.1838 O   0  0  0  0  0  0  0  0  0  0  0  0
  -23.6393  -28.6675   23.2134 O   0  0  0  0  0  0  0  0  0  0  0  0
  -30.4382  -20.8367   24.0842 O   0  0  0  0  0  0  0  0  0  0  0  0
  -24.7985  -10.3628   19.7548 O   0  0  0  0  0  0  0  0  0  0  0  0
  -25.7130  -22.1930   23.5773 O   0  0  0  0  0  0  0  0  0  1  0  0
  -21.8587   -6.9278   22.9112 F   0  0  0  0  0  0  0  0  0  0  0  0
  -22.1019  -10.7917   20.1878 F   0  0  0  0  0  0  0  0  0  0  0  0
  1  2  1  0  0  0  0
  1  5  2  0  0  0  0
  2  6  2  0  0  0  0
  3  8  2  0  0  0  0
  3 15  1  0  0  0  0
  4  9  1  0  0  0  0
  4 15  2  0  0  0  0
  5 17  1  0  0  0  0
  6 19  1  0  0  0  0
  7 10  2  0  0  0  0
  7 18  1  0  0  0  0
  8 21  1  0  0  0  0
  9 21  2  0  0  0  0
 10 22  1  0  0  0  0
 11 12  2  0  0  0  0
 11 23  1  0  0  0  0
 12 24  1  0  0  0  0
 13 20  1  0  0  0  0
 13 22  2  0  0  0  0
 14 24  2  0  0  0  0
 14 25  1  0  0  0  0
 15 26  1  0  0  0  0
 16 26  1  0  0  0  0
 16 29  2  0  0  0  0
 16 30  1  0  0  0  0
 17 19  2  0  0  0  0
 17 35  1  0  0  0  0
 18 20  2  0  0  0  0
 18 36  1  0  0  0  0
 19 44  1  0  0  0  0
 20 37  1  0  0  0  0
 21 78  1  0  0  0  0
 22 79  1  0  0  0  0
 23 25  2  0  0  0  0
 23 78  1  0  0  0  0
 24 80  1  0  0  0  0
 25 81  1  0  0  0  0
 26 60  2  0  0  0  0
 27 28  2  0  0  0  0
 27 53  1  0  0  0  0
 27 61  1  0  0  0  0
 28 54  1  0  0  0  0
 28 63  1  0  0  0  0
 29 64  1  0  0  0  0
 29 67  1  0  0  0  0
 30 68  1  0  0  0  0
 30 73  2  0  0  0  0
 31 45  1  0  0  0  0
 31 69  1  0  0  0  0
 31 74  2  0  0  0  0
 32 57  1  0  0  0  0
 32 65  1  0  0  0  0
 32 75  2  0  0  0  0
 33 58  1  0  0  0  0
 33 70  1  0  0  0  0
 33 76  2  0  0  0  0
 34 66  1  0  0  0  0
 34 71  1  0  0  0  0
 34 77  2  0  0  0  0
 35 38  1  0  0  0  0
 36 45  1  0  0  0  0
 37 65  1  0  0  0  0
 38 40  1  0  0  0  0
 39 41  1  0  0  0  0
 39 42  1  0  0  0  0
 40 44  1  0  0  0  0
 41 46  1  0  0  0  0
 42 66  1  0  0  0  0
 43 46  1  0  0  0  0
 43 66  1  0  0  0  0
 44 69  1  0  0  0  0
 45 65  1  0  0  0  0
 46 64  1  0  0  0  0
 47 55  1  0  0  0  0
 48 58  1  0  0  0  0
 49 59  1  0  0  0  0
 50 59  1  0  0  0  0
 51 59  1  0  0  0  0
 52 72  1  0  0  0  0
 53 56  1  0  0  0  0
 54 79  1  0  0  0  0
 55 63  1  0  0  0  0
 56 71  1  0  0  0  0
 57 59  1  0  0  0  0
 57 70  1  0  0  0  0
 58 72  1  0  0  0  0
 60 64  1  0  0  0  0
 61 62  2  0  0  0  0
 62 63  1  0  0  0  0
M  CHG  1  72   1
M  ISO  4  34 100  54 101  71 100  79 101
M  END
> <Batch ID>
0081

> <Smiles>
CCn1nnc(CC[100NH:0][100C:0](=O)N2CCCC(n3nc(-c4ccc(Oc5ccc(F)cc5F)cc4)c(C(N)=O)c3N)C2)c1[101CH2:1][101O:1]c1ccc2c(c1)CN(C(=O)C(NC(=O)C(C)NC)C(C)(C)C)C(C(=O)NC1CCCc3ccccc31)C2

> <Shape>
0.205

> <Color>
0.081

> <Negative vol penalty>
0.000

$$$$

  -OEChem-04052318463D

 82 90  0     1  0  0  0  0  0999 V2000
  -29.9627  -17.1677   28.5097 C   0  0  0  0  0  0  0  0  0  0  0  0
  -29.6094  -17.5992   27.2352 C   0  0  0  0  0  0  0  0  0  0  0  0
  -23.0626   -9.8979   19.9342 C   0  0  0  0  0  0  0  0  0  0  0  0
  -23.8537   -9.8643   22.2168 C   0  0  0  0  0  0  0  0  0  0  0  0
  -29.0279  -16.5053   29.3042 C   0  0  0  0  0  0  0  0  0  0  0  0
  -28.3213  -17.3676   26.7540 C   0  0  0  0  0  0  0  0  0  0  0  0
  -26.3372  -21.4334   24.4785 C   0  0  0  0  0  0  0  0  0  0  0  0
  -22.3150   -8.7454   20.1764 C   0  0  0  0  0  0  0  0  0  0  0  0
  -23.1061   -8.7119   22.4589 C   0  0  0  0  0  0  0  0  0  0  0  0
  -26.7649  -21.7086   23.1804 C   0  0  0  0  0  0  0  0  0  0  0  0
  -19.8816   -7.9241   23.0933 C   0  0  0  0  0  0  0  0  0  0  0  0
  -19.1405   -7.8704   24.2737 C   0  0  0  0  0  0  0  0  0  0  0  0
  -24.7540  -20.6993   22.3104 C   0  0  0  0  0  0  0  0  0  0  0  0
  -27.6767  -18.3272   20.8240 C   0  0  0  0  0  0  0  0  0  0  0  0
  -20.3797   -5.9142   24.9627 C   0  0  0  0  0  0  0  0  0  0  0  0
  -29.9166  -17.1829   19.7661 C   0  0  0  0  0  0  0  0  0  0  0  0
  -23.8320  -10.4573   20.9544 C   0  0  0  0  0  0  0  0  0  0  0  0
  -24.1879  -12.9819   20.8691 C   0  0  0  0  0  0  0  0  0  0  0  0
  -27.7247  -16.2740   28.8363 C   0  0  0  0  0  0  0  0  0  0  0  0
  -25.1178  -20.7782   24.7023 C   0  0  0  0  0  0  0  0  0  0  0  0
  -27.3686  -16.7003   27.5425 C   0  0  0  0  0  0  0  0  0  0  0  0
  -24.3120  -20.4192   23.6124 C   0  0  0  0  0  0  0  0  0  0  0  0
  -28.3177  -17.3098   21.5222 C   0  0  0  0  0  0  0  0  0  0  0  0
  -29.4596  -16.7215   20.9900 C   0  0  0  0  0  0  0  0  0  0  0  0
  -22.3368   -8.1524   21.4387 C   0  0  0  0  0  0  0  0  0  0  0  0
  -25.9746  -21.3390   22.0960 C   0  0  0  0  0  0  0  0  0  0  0  0
  -20.8718   -6.9728   22.8475 C   0  0  0  0  0  0  0  0  0  0  0  0
  -19.3896   -6.8654   25.2084 C   0  0  0  0  0  0  0  0  0  0  0  0
  -21.1208   -5.9679   23.7822 C   0  0  0  0  0  0  0  0  0  0  0  0
  -24.6049  -11.6474   20.7048 C   0  0  0  0  0  0  0  0  0  0  0  0
  -28.2137  -18.7169   19.6076 C   0  0  0  0  0  0  0  0  0  0  0  0
  -25.2796  -13.7304   20.5026 C   0  0  0  0  0  0  0  0  0  0  0  0
  -22.9265  -13.4987   21.3135 C   0  0  0  0  0  0  0  0  0  0  0  0
  -24.2637  -18.0234   26.0385 C   0  0  0  0  0  0  0  0  0  0  0  0
  -30.7934  -14.6453   20.7271 C   0  0  0  0  0  0  0  0  0  0  0  0
  -21.2666  -19.1680   25.5589 C   0  0  0  0  0  0  0  0  0  0  0  0
  -19.2055  -21.2468   23.8047 C   0  0  0  0  0  0  0  0  0  0  0  0
  -26.7630  -15.5120   29.7132 C   0  0  0  0  0  0  0  0  0  0  0  0
  -24.6582  -20.5125   26.1096 C   0  0  0  0  0  0  0  0  0  0  0  0
  -22.9849  -19.7319   23.7997 C   0  0  0  0  0  0  0  0  0  0  0  0
  -25.3068  -15.6376   29.2730 C   0  0  0  0  0  0  0  0  0  0  0  0
  -29.5804  -12.3952   18.2160 C   0  0  0  0  0  0  0  0  0  0  0  0
  -25.1842  -15.4261   27.7673 C   0  0  0  0  0  0  0  0  0  0  0  0
  -28.1542  -12.0861   18.6696 C   0  0  0  0  0  0  0  0  0  0  0  0
  -30.5184  -12.5734   19.4057 C   0  0  0  0  0  0  0  0  0  0  0  0
  -28.6390  -13.2975   20.8428 C   0  0  0  0  0  0  0  0  0  0  0  0
  -25.9737  -16.4897   26.9947 C   0  0  1  0  0  0  0  0  0  0  0  0
  -23.6396  -19.3805   26.2018 C   0  0  1  0  0  0  0  0  0  0  0  0
  -27.6524  -13.1404   19.6722 C   0  0  2  0  0  0  0  0  0  0  0  0
  -27.7645  -16.8670   22.8361 C   0  0  0  0  0  0  0  0  0  0  0  0
  -31.2788  -16.1364   22.6454 C   0  0  0  0  0  0  0  0  0  0  0  0
  -16.7998  -21.9350   23.6146 C   0  0  0  0  0  0  0  0  0  0  0  0
  -20.6376  -16.5592   24.1069 C   0  0  0  0  0  0  0  0  0  0  0  0
  -18.6099  -17.6663   23.1420 C   0  0  0  0  0  0  0  0  0  0  0  0
  -18.8168  -17.3809   25.6115 C   0  0  0  0  0  0  0  0  0  0  0  0
  -19.8349  -24.0570   24.4869 C   0  0  0  0  0  0  0  0  0  0  0  0
  -27.5450  -19.8169   18.8225 C   0  0  0  0  0  0  0  0  0  0  0  0
  -28.0664  -21.2163   19.1562 C   0  0  0  0  0  0  0  0  0  0  0  0
  -27.7981  -21.6327   20.5977 C   0  0  0  0  0  0  0  0  0  1  0  0
  -30.1845  -15.6282   21.6952 C   0  0  1  0  0  0  0  0  0  0  0  0
  -20.2601  -19.0920   24.4364 C   0  0  1  0  0  0  0  0  0  0  0  0
  -18.1444  -22.2324   24.2598 C   0  0  2  0  0  0  0  0  0  0  0  0
  -19.6069  -17.6858   24.3203 C   0  0  0  0  0  0  0  0  0  0  0  0
  -29.3210  -18.1690   19.0586 N   0  0  0  0  0  0  0  0  0  0  0  0
  -25.8633  -11.5506   20.2677 N   0  0  0  0  0  0  0  0  0  0  0  0
  -26.2464  -12.8337   20.1542 N   0  0  0  0  0  0  0  0  0  0  0  0
  -22.5822  -19.4882   25.1946 N   0  0  0  0  0  0  0  0  0  0  0  0
  -29.9955  -13.5665   20.3457 N   0  0  0  0  0  0  0  0  0  0  0  0
  -25.4973  -15.0616   20.4475 N   0  0  0  0  0  0  0  0  0  0  0  0
  -21.9136  -12.5905   21.6504 N   0  0  0  0  0  0  0  0  0  0  0  0
  -25.2455  -17.7401   26.9687 N   0  0  0  0  0  0  0  0  0  0  0  0
  -19.3100  -20.1751   24.6659 N   0  0  0  0  0  0  0  0  0  0  0  0
  -18.5409  -23.6232   23.9001 N   0  3  0  0  0  0  0  0  0  0  0  0
  -22.6987  -14.7297   21.3933 O   0  0  0  0  0  0  0  0  0  0  0  0
  -23.8816  -17.2873   25.1364 O   0  0  0  0  0  0  0  0  0  0  0  0
  -31.9430  -14.8341   20.3207 O   0  0  0  0  0  0  0  0  0  0  0  0
  -20.8977  -18.9583   26.7172 O   0  0  0  0  0  0  0  0  0  0  0  0
  -19.8722  -21.4094   22.7851 O   0  0  0  0  0  0  0  0  0  0  0  0
  -21.6072   -7.0280   21.6754 O   0  0  0  0  0  0  0  0  0  0  0  0
  -26.3900  -21.6058   20.8279 O   0  0  0  0  0  0  0  0  0  1  0  0
  -18.6788   -6.8148   26.3426 F   0  0  0  0  0  0  0  0  0  0  0  0
  -22.0716   -5.0520   23.5521 F   0  0  0  0  0  0  0  0  0  0  0  0
  1  2  1  0  0  0  0
  1  5  2  0  0  0  0
  2  6  2  0  0  0  0
  3  8  2  0  0  0  0
  3 17  1  0  0  0  0
  4  9  1  0  0  0  0
  4 17  2  0  0  0  0
  5 19  1  0  0  0  0
  6 21  1  0  0  0  0
  7 10  2  0  0  0  0
  7 20  1  0  0  0  0
  8 25  1  0  0  0  0
  9 25  2  0  0  0  0
 10 26  1  0  0  0  0
 11 12  2  0  0  0  0
 11 27  1  0  0  0  0
 12 28  1  0  0  0  0
 13 22  1  0  0  0  0
 13 26  2  0  0  0  0
 14 23  2  0  0  0  0
 14 31  1  0  0  0  0
 15 28  2  0  0  0  0
 15 29  1  0  0  0  0
 16 24  2  0  0  0  0
 16 64  1  0  0  0  0
 17 30  1  0  0  0  0
 18 30  1  0  0  0  0
 18 32  2  0  0  0  0
 18 33  1  0  0  0  0
 19 21  2  0  0  0  0
 19 38  1  0  0  0  0
 20 22  2  0  0  0  0
 20 39  1  0  0  0  0
 21 47  1  0  0  0  0
 22 40  1  0  0  0  0
 23 24  1  0  0  0  0
 23 50  1  0  0  0  0
 24 60  1  0  0  0  0
 25 79  1  0  0  0  0
 26 80  1  0  0  0  0
 27 29  2  0  0  0  0
 27 79  1  0  0  0  0
 28 81  1  0  0  0  0
 29 82  1  0  0  0  0
 30 65  2  0  0  0  0
 31 57  1  0  0  0  0
 31 64  2  0  0  0  0
 32 66  1  0  0  0  0
 32 69  1  0  0  0  0
 33 70  1  0  0  0  0
 33 74  2  0  0  0  0
 34 48  1  0  0  0  0
 34 71  1  0  0  0  0
 34 75  2  0  0  0  0
 35 60  1  0  0  0  0
 35 68  1  0  0  0  0
 35 76  2  0  0  0  0
 36 61  1  0  0  0  0
 36 67  1  0  0  0  0
 36 77  2  0  0  0  0
 37 62  1  0  0  0  0
 37 72  1  0  0  0  0
 37 78  2  0  0  0  0
 38 41  1  0  0  0  0
 39 48  1  0  0  0  0
 40 67  1  0  0  0  0
 41 43  1  0  0  0  0
 42 44  1  0  0  0  0
 42 45  1  0  0  0  0
 43 47  1  0  0  0  0
 44 49  1  0  0  0  0
 45 68  1  0  0  0  0
 46 49  1  0  0  0  0
 46 68  1  0  0  0  0
 47 71  1  0  0  0  0
 48 67  1  0  0  0  0
 49 66  1  0  0  0  0
 51 60  1  0  0  0  0
 52 62  1  0  0  0  0
 53 63  1  0  0  0  0
 54 63  1  0  0  0  0
 55 63  1  0  0  0  0
 56 73  1  0  0  0  0
 57 58  1  0  0  0  0
 58 59  1  0  0  0  0
 59 80  1  0  0  0  0
 61 63  1  0  0  0  0
 61 72  1  0  0  0  0
 62 73  1  0  0  0  0
 65 66  1  0  0  0  0
M  CHG  1  73   1
M  ISO  4  35 100  59 101  60 100  80 101
M  END
> <Batch ID>
0081

> <Smiles>
CNC(C)C(=O)NC(C(=O)N1Cc2cc([101O:1][101CH2:1]CCc3cc(C)c([100CH:0](C)[100C:0](=O)N4CCCC(n5nc(-c6ccc(Oc7ccc(F)cc7F)cc6)c(C(N)=O)c5N)C4)cn3)ccc2CC1C(=O)NC1CCCc2ccccc21)C(C)(C)C

> <Shape>
0.211

> <Color>
0.197

> <Negative vol penalty>
0.000

$$$$

  -OEChem-04052318463D

 83 91  0     1  0  0  0  0  0999 V2000
  -19.0633  -24.2262   21.3746 C   0  0  0  0  0  0  0  0  0  0  0  0
  -20.4170  -24.4922   21.1955 C   0  0  0  0  0  0  0  0  0  0  0  0
  -26.4266  -14.7680   21.2265 C   0  0  0  0  0  0  0  0  0  0  0  0
  -26.6759  -14.6337   18.8272 C   0  0  0  0  0  0  0  0  0  0  0  0
  -18.2306  -25.1971   21.9295 C   0  0  0  0  0  0  0  0  0  0  0  0
  -20.9387  -25.7299   21.5704 C   0  0  0  0  0  0  0  0  0  0  0  0
  -25.3104  -25.3122   24.0920 C   0  0  0  0  0  0  0  0  0  0  0  0
  -26.2564  -13.3849   21.2863 C   0  0  0  0  0  0  0  0  0  0  0  0
  -26.5057  -13.2505   18.8870 C   0  0  0  0  0  0  0  0  0  0  0  0
  -26.4580  -25.0643   23.3401 C   0  0  0  0  0  0  0  0  0  0  0  0
  -25.3977   -9.9305   22.0301 C   0  0  0  0  0  0  0  0  0  0  0  0
  -24.3677   -9.4362   22.8302 C   0  0  0  0  0  0  0  0  0  0  0  0
  -27.0368  -27.4029   23.4639 C   0  0  0  0  0  0  0  0  0  0  0  0
  -31.0915  -23.9276   21.6993 C   0  0  0  0  0  0  0  0  0  0  0  0
  -22.7551  -10.6554   21.5072 C   0  0  0  0  0  0  0  0  0  0  0  0
  -26.6363  -15.3924   19.9970 C   0  0  0  0  0  0  0  0  0  0  0  0
  -28.0227  -17.5337   20.0202 C   0  0  0  0  0  0  0  0  0  0  0  0
  -18.7442  -26.4437   22.3203 C   0  0  0  0  0  0  0  0  0  0  0  0
  -25.0113  -26.6113   24.5270 C   0  0  0  0  0  0  0  0  0  0  0  0
  -20.1119  -26.7188   22.1299 C   0  0  0  0  0  0  0  0  0  0  0  0
  -25.8862  -27.6641   24.2233 C   0  0  0  0  0  0  0  0  0  0  0  0
  -29.9596  -24.4622   21.1095 C   0  0  0  0  0  0  0  0  0  0  0  0
  -26.2960  -12.6261   20.1166 C   0  0  0  0  0  0  0  0  0  0  0  0
  -27.3199  -26.1102   23.0235 C   0  0  0  0  0  0  0  0  0  0  0  0
  -25.1065  -10.7872   20.9685 C   0  0  0  0  0  0  0  0  0  0  0  0
  -23.0463   -9.7987   22.5688 C   0  0  0  0  0  0  0  0  0  0  0  0
  -23.7852  -11.1497   20.7071 C   0  0  0  0  0  0  0  0  0  0  0  0
  -26.8116  -16.8212   19.9345 C   0  0  0  0  0  0  0  0  0  0  0  0
  -32.2529  -23.8923   20.9540 C   0  0  0  0  0  0  0  0  0  0  0  0
  -30.0641  -24.9264   19.8137 C   0  0  0  0  0  0  0  0  0  0  0  0
  -27.6543  -18.8520   19.9073 C   0  0  0  0  0  0  0  0  0  0  0  0
  -29.3611  -17.0473   20.1869 C   0  0  0  0  0  0  0  0  0  0  0  0
  -22.6294  -28.6540   24.0194 C   0  0  0  0  0  0  0  0  0  0  0  0
  -24.1786  -30.4134   26.2614 C   0  0  0  0  0  0  0  0  0  0  0  0
  -27.1019  -31.1326   27.8689 C   0  0  0  0  0  0  0  0  0  0  0  0
  -24.6695  -22.8780   17.4521 C   0  0  0  0  0  0  0  0  0  0  0  0
  -17.7961  -27.4788   22.8721 C   0  0  0  0  0  0  0  0  0  0  0  0
  -23.7833  -26.8576   25.3599 C   0  0  0  0  0  0  0  0  0  0  0  0
  -25.6209  -29.0735   24.6836 C   0  0  0  0  0  0  0  0  0  0  0  0
  -18.4995  -28.6285   23.5887 C   0  0  0  0  0  0  0  0  0  0  0  0
  -23.0844  -21.0164   20.0402 C   0  0  0  0  0  0  0  0  0  0  0  0
  -19.6712  -29.1394   22.7562 C   0  0  0  0  0  0  0  0  0  0  0  0
  -24.0091  -19.8153   20.2458 C   0  0  0  0  0  0  0  0  0  0  0  0
  -23.0056  -21.4229   18.5703 C   0  0  0  0  0  0  0  0  0  0  0  0
  -25.2336  -20.4658   18.1302 C   0  0  0  0  0  0  0  0  0  0  0  0
  -20.7199  -28.0404   22.5469 C   0  0  1  0  0  0  0  0  0  0  0  0
  -23.3103  -28.3072   25.3131 C   0  0  1  0  0  0  0  0  0  0  0  0
  -25.3891  -20.0537   19.6040 C   0  0  2  0  0  0  0  0  0  0  0  0
  -33.4997  -23.3262   21.5424 C   0  0  0  0  0  0  0  0  0  0  0  0
  -28.0634  -32.6439   29.6263 C   0  0  0  0  0  0  0  0  0  0  0  0
  -24.1603  -32.7301   24.2758 C   0  0  0  0  0  0  0  0  0  0  0  0
  -25.9155  -33.8466   25.6688 C   0  0  0  0  0  0  0  0  0  0  0  0
  -23.6659  -33.3786   26.6400 C   0  0  0  0  0  0  0  0  0  0  0  0
  -27.8675  -28.8445   29.5828 C   0  0  0  0  0  0  0  0  0  0  0  0
  -28.6712  -24.5249   21.8760 C   0  0  0  0  0  0  0  0  0  1  0  0
  -28.8861  -25.5147   19.1132 C   0  0  0  0  0  0  0  0  0  0  0  0
  -28.2602  -24.5370   18.1062 C   0  0  0  0  0  0  0  0  0  0  0  0
  -27.0753  -25.1659   17.3672 C   0  0  0  0  0  0  0  0  0  0  0  0
  -26.4465  -24.2166   16.3523 C   0  0  0  0  0  0  0  0  0  0  0  0
  -25.2643  -31.4620   26.2351 C   0  0  1  0  0  0  0  0  0  0  0  0
  -27.4282  -31.2915   29.3429 C   0  0  2  0  0  0  0  0  0  0  0  0
  -24.7558  -32.8282   25.6944 C   0  0  0  0  0  0  0  0  0  0  0  0
  -25.7529  -17.6207   19.7792 N   0  0  0  0  0  0  0  0  0  0  0  0
  -32.3263  -24.3537   19.6876 N   0  0  0  0  0  0  0  0  0  0  0  0
  -31.2139  -24.8795   19.1081 N   0  0  0  0  0  0  0  0  0  0  0  0
  -26.2977  -18.8492   19.7666 N   0  0  0  0  0  0  0  0  0  0  0  0
  -24.4041  -29.2646   25.4900 N   0  0  0  0  0  0  0  0  0  0  0  0
  -24.3474  -21.6354   18.0223 N   0  0  0  0  0  0  0  0  0  0  0  0
  -28.3617  -20.0018   19.9157 N   0  0  0  0  0  0  0  0  0  0  0  0
  -29.5617  -15.6637   20.2860 N   0  0  0  0  0  0  0  0  0  0  0  0
  -21.5232  -27.8747   23.7392 N   0  0  0  0  0  0  0  0  0  0  0  0
  -25.8088  -31.5198   27.5874 N   0  0  0  0  0  0  0  0  0  0  0  0
  -25.9643  -22.9974   16.9621 N   0  0  0  0  0  0  0  0  0  0  0  0
  -28.3740  -30.2268   29.7818 N   0  3  0  0  0  0  0  0  0  0  0  0
  -30.3481  -17.8177   20.2628 O   0  0  0  0  0  0  0  0  0  0  0  0
  -23.0737  -29.5625   23.3273 O   0  0  0  0  0  0  0  0  0  0  0  0
  -23.1708  -30.6035   26.9470 O   0  0  0  0  0  0  0  0  0  0  0  0
  -27.9141  -30.7108   27.0485 O   0  0  0  0  0  0  0  0  0  0  0  0
  -23.8647  -23.8135   17.3894 O   0  0  0  0  0  0  0  0  0  0  0  0
  -26.1302  -11.2764   20.1746 O   0  0  0  0  0  0  0  0  0  0  0  0
  -28.4404  -25.8711   22.2891 O   0  0  0  0  0  0  0  0  0  1  0  0
  -22.0571   -9.3228   23.3363 F   0  0  0  0  0  0  0  0  0  0  0  0
  -23.4991  -11.9714   19.6879 F   0  0  0  0  0  0  0  0  0  0  0  0
  1  2  1  0  0  0  0
  1  5  2  0  0  0  0
  2  6  2  0  0  0  0
  3  8  2  0  0  0  0
  3 16  1  0  0  0  0
  4  9  1  0  0  0  0
  4 16  2  0  0  0  0
  5 18  1  0  0  0  0
  6 20  1  0  0  0  0
  7 10  2  0  0  0  0
  7 19  1  0  0  0  0
  8 23  1  0  0  0  0
  9 23  2  0  0  0  0
 10 24  1  0  0  0  0
 11 12  2  0  0  0  0
 11 25  1  0  0  0  0
 12 26  1  0  0  0  0
 13 21  1  0  0  0  0
 13 24  2  0  0  0  0
 14 22  1  0  0  0  0
 14 29  2  0  0  0  0
 15 26  2  0  0  0  0
 15 27  1  0  0  0  0
 16 28  1  0  0  0  0
 17 28  1  0  0  0  0
 17 31  2  0  0  0  0
 17 32  1  0  0  0  0
 18 20  2  0  0  0  0
 18 37  1  0  0  0  0
 19 21  2  0  0  0  0
 19 38  1  0  0  0  0
 20 46  1  0  0  0  0
 21 39  1  0  0  0  0
 22 30  2  0  0  0  0
 22 55  1  0  0  0  0
 23 80  1  0  0  0  0
 24 81  1  0  0  0  0
 25 27  2  0  0  0  0
 25 80  1  0  0  0  0
 26 82  1  0  0  0  0
 27 83  1  0  0  0  0
 28 63  2  0  0  0  0
 29 49  1  0  0  0  0
 29 64  1  0  0  0  0
 30 56  1  0  0  0  0
 30 65  1  0  0  0  0
 31 66  1  0  0  0  0
 31 69  1  0  0  0  0
 32 70  1  0  0  0  0
 32 75  2  0  0  0  0
 33 47  1  0  0  0  0
 33 71  1  0  0  0  0
 33 76  2  0  0  0  0
 34 60  1  0  0  0  0
 34 67  1  0  0  0  0
 34 77  2  0  0  0  0
 35 61  1  0  0  0  0
 35 72  1  0  0  0  0
 35 78  2  0  0  0  0
 36 68  1  0  0  0  0
 36 73  1  0  0  0  0
 36 79  2  0  0  0  0
 37 40  1  0  0  0  0
 38 47  1  0  0  0  0
 39 67  1  0  0  0  0
 40 42  1  0  0  0  0
 41 43  1  0  0  0  0
 41 44  1  0  0  0  0
 42 46  1  0  0  0  0
 43 48  1  0  0  0  0
 44 68  1  0  0  0  0
 45 48  1  0  0  0  0
 45 68  1  0  0  0  0
 46 71  1  0  0  0  0
 47 67  1  0  0  0  0
 48 66  1  0  0  0  0
 50 61  1  0  0  0  0
 51 62  1  0  0  0  0
 52 62  1  0  0  0  0
 53 62  1  0  0  0  0
 54 74  1  0  0  0  0
 55 81  1  0  0  0  0
 56 57  1  0  0  0  0
 57 58  1  0  0  0  0
 58 59  1  0  0  0  0
 59 73  1  0  0  0  0
 60 62  1  0  0  0  0
 60 72  1  0  0  0  0
 61 74  1  0  0  0  0
 63 66  1  0  0  0  0
 64 65  2  0  0  0  0
M  CHG  1  74   1
M  ISO  4  36 100  55 101  73 100  81 101
M  END
> <Batch ID>
0081

> <Smiles>
CNC(C)C(=O)NC(C(=O)N1Cc2cc([101O:1][101CH2:1]c3cc(C)nnc3CCCC[100NH:0][100C:0](=O)N3CCCC(n4nc(-c5ccc(Oc6ccc(F)cc6F)cc5)c(C(N)=O)c4N)C3)ccc2CC1C(=O)NC1CCCc2ccccc21)C(C)(C)C

> <Shape>
0.217

> <Color>
0.080

> <Negative vol penalty>
0.000

$$$$

  -OEChem-04052318463D

 86 94  0     1  0  0  0  0  0999 V2000
  -21.2162  -30.9919   19.8298 C   0  0  0  0  0  0  0  0  0  0  0  0
  -21.6340  -29.7998   19.2468 C   0  0  0  0  0  0  0  0  0  0  0  0
  -22.9953   -9.9653   19.8906 C   0  0  0  0  0  0  0  0  0  0  0  0
  -23.8810   -9.7300   22.1261 C   0  0  0  0  0  0  0  0  0  0  0  0
  -22.1419  -31.8167   20.4674 C   0  0  0  0  0  0  0  0  0  0  0  0
  -22.9781  -29.4324   19.3002 C   0  0  0  0  0  0  0  0  0  0  0  0
  -25.2265  -23.7571   19.7912 C   0  0  0  0  0  0  0  0  0  0  0  0
  -22.2327   -8.8115   20.0713 C   0  0  0  0  0  0  0  0  0  0  0  0
  -23.1183   -8.5761   22.3068 C   0  0  0  0  0  0  0  0  0  0  0  0
  -25.7325  -22.8638   18.8479 C   0  0  0  0  0  0  0  0  0  0  0  0
  -19.9064   -7.8011   23.0160 C   0  0  0  0  0  0  0  0  0  0  0  0
  -19.2146   -7.6652   24.2196 C   0  0  0  0  0  0  0  0  0  0  0  0
  -27.9718  -23.5999   19.3610 C   0  0  0  0  0  0  0  0  0  0  0  0
  -29.3838  -18.2218   20.0605 C   0  0  0  0  0  0  0  0  0  0  0  0
  -20.4371   -5.6358   24.6931 C   0  0  0  0  0  0  0  0  0  0  0  0
  -27.3392  -19.0540   20.5041 C   0  0  0  0  0  0  0  0  0  0  0  0
  -23.8195  -10.4245   20.9180 C   0  0  0  0  0  0  0  0  0  0  0  0
  -24.2286  -12.9404   21.0217 C   0  0  0  0  0  0  0  0  0  0  0  0
  -23.4964  -31.4546   20.5370 C   0  0  0  0  0  0  0  0  0  0  0  0
  -26.0900  -24.5877   20.5199 C   0  0  0  0  0  0  0  0  0  0  0  0
  -23.9230  -30.2538   19.9382 C   0  0  0  0  0  0  0  0  0  0  0  0
  -27.4744  -24.5010   20.3147 C   0  0  0  0  0  0  0  0  0  0  0  0
  -28.2147  -18.7714   19.4790 C   0  0  0  0  0  0  0  0  0  0  0  0
  -22.2942   -8.1169   21.2793 C   0  0  0  0  0  0  0  0  0  0  0  0
  -27.1051  -22.7871   18.6306 C   0  0  0  0  0  0  0  0  0  0  0  0
  -20.8635   -6.8543   22.6509 C   0  0  0  0  0  0  0  0  0  0  0  0
  -19.4800   -6.5826   25.0582 C   0  0  0  0  0  0  0  0  0  0  0  0
  -21.1289   -5.7717   23.4895 C   0  0  0  0  0  0  0  0  0  0  0  0
  -24.6080  -11.6161   20.7318 C   0  0  0  0  0  0  0  0  0  0  0  0
  -29.1871  -18.1851   21.4233 C   0  0  0  0  0  0  0  0  0  0  0  0
  -25.3206  -13.6953   20.6694 C   0  0  0  0  0  0  0  0  0  0  0  0
  -22.9991  -13.4432   21.5613 C   0  0  0  0  0  0  0  0  0  0  0  0
  -26.4855  -27.7304   20.7858 C   0  0  0  0  0  0  0  0  0  0  0  0
  -28.5994  -26.8764   23.0933 C   0  0  0  0  0  0  0  0  0  0  0  0
  -30.6826  -24.4977   24.3774 C   0  0  0  0  0  0  0  0  0  0  0  0
  -30.8341  -14.5590   20.6364 C   0  0  0  0  0  0  0  0  0  0  0  0
  -24.4681  -32.4015   21.1958 C   0  0  0  0  0  0  0  0  0  0  0  0
  -25.5303  -25.5269   21.5528 C   0  0  0  0  0  0  0  0  0  0  0  0
  -28.4453  -25.3564   21.0855 C   0  0  0  0  0  0  0  0  0  0  0  0
  -25.8104  -31.7584   21.5348 C   0  0  0  0  0  0  0  0  0  0  0  0
  -29.4960  -12.4471   18.1015 C   0  0  0  0  0  0  0  0  0  0  0  0
  -26.3295  -30.9503   20.3498 C   0  0  0  0  0  0  0  0  0  0  0  0
  -28.0767  -12.1471   18.5868 C   0  0  0  0  0  0  0  0  0  0  0  0
  -30.4844  -12.5274   19.2628 C   0  0  0  0  0  0  0  0  0  0  0  0
  -28.6849  -13.1651   20.8212 C   0  0  0  0  0  0  0  0  0  0  0  0
  -25.3682  -29.8088   19.9969 C   0  0  1  0  0  0  0  0  0  0  0  0
  -26.4640  -26.6908   21.8705 C   0  0  1  0  0  0  0  0  0  0  0  0
  -27.6422  -13.1298   19.6908 C   0  0  2  0  0  0  0  0  0  0  0  0
  -27.9675  -17.6759   17.2365 C   0  0  0  0  0  0  0  0  0  0  0  0
  -32.2626  -23.4165   25.9997 C   0  0  0  0  0  0  0  0  0  0  0  0
  -30.6769  -28.5778   21.6446 C   0  0  0  0  0  0  0  0  0  0  0  0
  -32.4532  -27.4125   22.9695 C   0  0  0  0  0  0  0  0  0  0  0  0
  -30.7209  -28.7757   24.1373 C   0  0  0  0  0  0  0  0  0  0  0  0
  -25.9267  -19.4489   22.8473 C   0  0  0  0  0  0  0  0  0  0  0  0
  -28.2156  -19.7478   23.8727 C   0  0  0  0  0  0  0  0  0  0  0  0
  -27.1704  -17.4978   23.7522 C   0  0  0  0  0  0  0  0  0  0  0  0
  -28.4603  -23.3045   25.9254 C   0  0  0  0  0  0  0  0  0  0  0  0
  -30.0824  -17.7088   22.4979 C   0  0  0  0  0  0  0  0  0  0  0  0
  -28.9816  -19.9829   17.3667 C   0  0  0  0  0  0  0  0  0  0  0  0
  -31.0319  -16.5763   22.0684 C   0  0  0  0  0  0  0  0  0  0  0  0
  -28.9060  -21.3904   17.9511 C   0  0  0  0  0  0  0  0  0  1  0  0
  -27.9705  -19.0067   17.9984 C   0  0  2  0  0  0  0  0  0  0  0  0
  -30.0732  -26.5510   23.1257 C   0  0  1  0  0  0  0  0  0  0  0  0
  -30.8630  -23.9733   25.7905 C   0  0  2  0  0  0  0  0  0  0  0  0
  -30.9629  -27.8144   22.9532 C   0  0  0  0  0  0  0  0  0  0  0  0
  -27.3372  -18.8348   22.9884 C   0  0  0  0  0  0  0  0  0  0  0  0
  -25.8443  -11.5312   20.2335 N   0  0  0  0  0  0  0  0  0  0  0  0
  -27.9407  -18.6931   21.6815 N   0  0  0  0  0  0  0  0  0  0  0  0
  -26.2513  -12.8117   20.2076 N   0  0  0  0  0  0  0  0  0  0  0  0
  -27.8489  -26.2635   22.0799 N   0  0  0  0  0  0  0  0  0  0  0  0
  -30.0144  -13.4774   20.2740 N   0  0  0  0  0  0  0  0  0  0  0  0
  -25.5659  -15.0221   20.7127 N   0  0  0  0  0  0  0  0  0  0  0  0
  -21.9810  -12.5300   21.8677 N   0  0  0  0  0  0  0  0  0  0  0  0
  -25.5230  -28.7116   20.9278 N   0  0  0  0  0  0  0  0  0  0  0  0
  -30.3034  -25.8233   24.3690 N   0  0  0  0  0  0  0  0  0  0  0  0
  -30.3102  -15.4153   21.5972 N   0  0  0  0  0  0  0  0  0  0  0  0
  -29.8793  -22.8893   26.0703 N   0  3  0  0  0  0  0  0  0  0  0  0
  -22.8028  -14.6677   21.7503 O   0  0  0  0  0  0  0  0  0  0  0  0
  -27.3150  -27.6491   19.8874 O   0  0  0  0  0  0  0  0  0  0  0  0
  -28.1300  -27.6403   23.9405 O   0  0  0  0  0  0  0  0  0  0  0  0
  -30.8639  -23.8019   23.3805 O   0  0  0  0  0  0  0  0  0  0  0  0
  -31.9479  -14.7506   20.1366 O   0  0  0  0  0  0  0  0  0  0  0  0
  -21.5500   -6.9911   21.4561 O   0  0  0  0  0  0  0  0  0  0  0  0
  -27.6016  -21.9166   17.7101 O   0  0  0  0  0  0  0  0  0  1  0  0
  -18.8167   -6.4530   26.2146 F   0  0  0  0  0  0  0  0  0  0  0  0
  -22.0481   -4.8596   23.1446 F   0  0  0  0  0  0  0  0  0  0  0  0
  1  2  1  0  0  0  0
  1  5  2  0  0  0  0
  2  6  2  0  0  0  0
  3  8  2  0  0  0  0
  3 17  1  0  0  0  0
  4  9  1  0  0  0  0
  4 17  2  0  0  0  0
  5 19  1  0  0  0  0
  6 21  1  0  0  0  0
  7 10  2  0  0  0  0
  7 20  1  0  0  0  0
  8 24  1  0  0  0  0
  9 24  2  0  0  0  0
 10 25  1  0  0  0  0
 11 12  2  0  0  0  0
 11 26  1  0  0  0  0
 12 27  1  0  0  0  0
 13 22  1  0  0  0  0
 13 25  2  0  0  0  0
 14 23  1  0  0  0  0
 14 30  2  0  0  0  0
 15 27  2  0  0  0  0
 15 28  1  0  0  0  0
 16 23  2  0  0  0  0
 16 68  1  0  0  0  0
 17 29  1  0  0  0  0
 18 29  1  0  0  0  0
 18 31  2  0  0  0  0
 18 32  1  0  0  0  0
 19 21  2  0  0  0  0
 19 37  1  0  0  0  0
 20 22  2  0  0  0  0
 20 38  1  0  0  0  0
 21 46  1  0  0  0  0
 22 39  1  0  0  0  0
 23 62  1  0  0  0  0
 24 83  1  0  0  0  0
 25 84  1  0  0  0  0
 26 28  2  0  0  0  0
 26 83  1  0  0  0  0
 27 85  1  0  0  0  0
 28 86  1  0  0  0  0
 29 67  2  0  0  0  0
 30 58  1  0  0  0  0
 30 68  1  0  0  0  0
 31 69  1  0  0  0  0
 31 72  1  0  0  0  0
 32 73  1  0  0  0  0
 32 78  2  0  0  0  0
 33 47  1  0  0  0  0
 33 74  1  0  0  0  0
 33 79  2  0  0  0  0
 34 63  1  0  0  0  0
 34 70  1  0  0  0  0
 34 80  2  0  0  0  0
 35 64  1  0  0  0  0
 35 75  1  0  0  0  0
 35 81  2  0  0  0  0
 36 71  1  0  0  0  0
 36 76  1  0  0  0  0
 36 82  2  0  0  0  0
 37 40  1  0  0  0  0
 38 47  1  0  0  0  0
 39 70  1  0  0  0  0
 40 42  1  0  0  0  0
 41 43  1  0  0  0  0
 41 44  1  0  0  0  0
 42 46  1  0  0  0  0
 43 48  1  0  0  0  0
 44 71  1  0  0  0  0
 45 48  1  0  0  0  0
 45 71  1  0  0  0  0
 46 74  1  0  0  0  0
 47 70  1  0  0  0  0
 48 69  1  0  0  0  0
 49 62  1  0  0  0  0
 50 64  1  0  0  0  0
 51 65  1  0  0  0  0
 52 65  1  0  0  0  0
 53 65  1  0  0  0  0
 54 66  1  0  0  0  0
 55 66  1  0  0  0  0
 56 66  1  0  0  0  0
 57 77  1  0  0  0  0
 58 60  1  0  0  0  0
 59 61  1  0  0  0  0
 59 62  1  0  0  0  0
 60 76  1  0  0  0  0
 61 84  1  0  0  0  0
 63 65  1  0  0  0  0
 63 75  1  0  0  0  0
 64 77  1  0  0  0  0
 66 68  1  0  0  0  0
 67 69  1  0  0  0  0
M  CHG  1  77   1
M  ISO  4  36 100  61 101  76 100  84 101
M  END
> <Batch ID>
0081

> <Smiles>
CNC(C)C(=O)NC(C(=O)N1Cc2cc([101O:1][101CH2:1]CC(C)c3cc(CC[100NH:0][100C:0](=O)N4CCCC(n5nc(-c6ccc(Oc7ccc(F)cc7F)cc6)c(C(N)=O)c5N)C4)n(C(C)(C)C)c3)ccc2CC1C(=O)NC1CCCc2ccccc21)C(C)(C)C

> <Shape>
0.288

> <Color>
0.194

> <Negative vol penalty>
0.000

$$$$

  -OEChem-04052318463D

 88 96  0     1  0  0  0  0  0999 V2000
  -22.2192  -32.9227   11.6804 C   0  0  0  0  0  0  0  0  0  0  0  0
  -23.4426  -32.4399   12.1338 C   0  0  0  0  0  0  0  0  0  0  0  0
  -22.9700  -10.0651   19.9072 C   0  0  0  0  0  0  0  0  0  0  0  0
  -23.9337   -9.7446   22.0993 C   0  0  0  0  0  0  0  0  0  0  0  0
  -21.2453  -33.3197   12.5957 C   0  0  0  0  0  0  0  0  0  0  0  0
  -23.6932  -32.3548   13.5029 C   0  0  0  0  0  0  0  0  0  0  0  0
  -25.3369  -26.0561   16.5876 C   0  0  0  0  0  0  0  0  0  0  0  0
  -22.2245   -8.8966   20.0640 C   0  0  0  0  0  0  0  0  0  0  0  0
  -23.1883   -8.5761   22.2562 C   0  0  0  0  0  0  0  0  0  0  0  0
  -25.8636  -24.9272   17.2157 C   0  0  0  0  0  0  0  0  0  0  0  0
  -20.0097   -7.7378   23.0399 C   0  0  0  0  0  0  0  0  0  0  0  0
  -19.3608   -7.5436   24.2592 C   0  0  0  0  0  0  0  0  0  0  0  0
  -25.8870  -26.1012   19.3297 C   0  0  0  0  0  0  0  0  0  0  0  0
  -20.6173   -5.5090   24.6040 C   0  0  0  0  0  0  0  0  0  0  0  0
  -28.2903  -18.4612   20.3978 C   0  0  0  0  0  0  0  0  0  0  0  0
  -23.8246  -10.4891   20.9248 C   0  0  0  0  0  0  0  0  0  0  0  0
  -24.2141  -13.0024   21.1220 C   0  0  0  0  0  0  0  0  0  0  0  0
  -21.4805  -33.2304   13.9768 C   0  0  0  0  0  0  0  0  0  0  0  0
  -25.0685  -27.2081   17.3321 C   0  0  0  0  0  0  0  0  0  0  0  0
  -22.7220  -32.7523   14.4375 C   0  0  0  0  0  0  0  0  0  0  0  0
  -25.3478  -27.2308   18.7084 C   0  0  0  0  0  0  0  0  0  0  0  0
  -22.3336   -8.1521   21.2385 C   0  0  0  0  0  0  0  0  0  0  0  0
  -26.1381  -24.9498   18.5833 C   0  0  0  0  0  0  0  0  0  0  0  0
  -20.9623   -6.8175   22.6025 C   0  0  0  0  0  0  0  0  0  0  0  0
  -19.6646   -6.4293   25.0413 C   0  0  0  0  0  0  0  0  0  0  0  0
  -21.2661   -5.7032   23.3846 C   0  0  0  0  0  0  0  0  0  0  0  0
  -24.5953  -11.6957   20.7631 C   0  0  0  0  0  0  0  0  0  0  0  0
  -29.2399  -18.3312   21.3716 C   0  0  0  0  0  0  0  0  0  0  0  0
  -25.2864  -13.7831   20.7657 C   0  0  0  0  0  0  0  0  0  0  0  0
  -27.3453  -18.9396   22.3417 C   0  0  0  0  0  0  0  0  0  0  0  0
  -22.9992  -13.4689   21.7239 C   0  0  0  0  0  0  0  0  0  0  0  0
  -23.7767  -30.7304   17.3449 C   0  0  0  0  0  0  0  0  0  0  0  0
  -22.7333  -29.3894   19.8990 C   0  0  0  0  0  0  0  0  0  0  0  0
  -21.4447  -27.4277   22.3745 C   0  0  0  0  0  0  0  0  0  0  0  0
  -30.7874  -14.7057   20.5832 C   0  0  0  0  0  0  0  0  0  0  0  0
  -20.4150  -33.7159   14.9275 C   0  0  0  0  0  0  0  0  0  0  0  0
  -24.5588  -28.4676   16.6858 C   0  0  0  0  0  0  0  0  0  0  0  0
  -25.0754  -28.5036   19.4627 C   0  0  0  0  0  0  0  0  0  0  0  0
  -20.6192  -33.2425   16.3643 C   0  0  0  0  0  0  0  0  0  0  0  0
  -29.3827  -12.6891   18.0070 C   0  0  0  0  0  0  0  0  0  0  0  0
  -22.0696  -33.4437   16.7917 C   0  0  0  0  0  0  0  0  0  0  0  0
  -27.9837  -12.3538   18.5268 C   0  0  0  0  0  0  0  0  0  0  0  0
  -30.4095  -12.7306   19.1366 C   0  0  0  0  0  0  0  0  0  0  0  0
  -28.6586  -13.2825   20.7809 C   0  0  0  0  0  0  0  0  0  0  0  0
  -23.0221  -32.6217   15.9150 C   0  0  1  0  0  0  0  0  0  0  0  0
  -23.5951  -29.2607   17.5865 C   0  0  1  0  0  0  0  0  0  0  0  0
  -27.5782  -13.2842   19.6858 C   0  0  2  0  0  0  0  0  0  0  0  0
  -28.3152  -23.9701   23.9860 C   0  0  0  0  0  0  0  0  0  0  0  0
  -31.6040  -19.0918   21.7668 C   0  0  0  0  0  0  0  0  0  0  0  0
  -19.9311  -27.5198   24.3741 C   0  0  0  0  0  0  0  0  0  0  0  0
  -24.9347  -30.7691   21.4971 C   0  0  0  0  0  0  0  0  0  0  0  0
  -23.8060  -29.9885   23.5910 C   0  0  0  0  0  0  0  0  0  0  0  0
  -22.6163  -31.5355   22.0373 C   0  0  0  0  0  0  0  0  0  0  0  0
  -19.5749  -25.4600   21.1950 C   0  0  0  0  0  0  0  0  0  0  0  0
  -26.3578  -19.3206   23.3820 C   0  0  0  0  0  0  0  0  0  0  0  0
  -27.0538  -23.1486   23.7723 C   0  0  0  0  0  0  0  0  0  0  0  0
  -26.0928  -20.8326   23.4665 C   0  0  0  0  0  0  0  0  0  0  0  0
  -27.3622  -21.6518   23.7208 C   0  0  0  0  0  0  0  0  0  0  0  0
  -25.8901  -20.1558   19.2309 C   0  0  0  0  0  0  0  0  0  0  0  0
  -26.2554  -21.5442   19.7584 C   0  0  0  0  0  0  0  0  0  0  0  0
  -25.8126  -19.0955   20.3352 C   0  0  0  0  0  0  0  0  0  0  0  0
  -31.0157  -16.6624   22.0927 C   0  0  0  0  0  0  0  0  0  0  0  0
  -26.2883  -22.5767   18.6396 C   0  0  0  0  0  0  0  0  0  1  0  0
  -30.6542  -17.9551   21.3005 C   0  0  1  0  0  0  0  0  0  0  0  0
  -22.9516  -29.1210   21.3665 C   0  0  1  0  0  0  0  0  0  0  0  0
  -20.0250  -27.2472   22.8809 C   0  0  2  0  0  0  0  0  0  0  0  0
  -23.5852  -30.3349   22.1031 C   0  0  0  0  0  0  0  0  0  0  0  0
  -25.8146  -11.6451   20.2202 N   0  0  0  0  0  0  0  0  0  0  0  0
  -27.1280  -18.8380   21.0264 N   0  0  0  0  0  0  0  0  0  0  0  0
  -26.2088  -12.9298   20.2353 N   0  0  0  0  0  0  0  0  0  0  0  0
  -28.6276  -18.6334   22.5640 N   0  3  0  0  0  0  0  0  0  0  0  0
  -23.7893  -29.0757   19.0347 N   0  0  0  0  0  0  0  0  0  0  0  0
  -29.9658  -13.6318   20.2028 N   0  0  0  0  0  0  0  0  0  0  0  0
  -25.5210  -15.1094   20.8573 N   0  0  0  0  0  0  0  0  0  0  0  0
  -22.0006  -12.5328   22.0252 N   0  0  0  0  0  0  0  0  0  0  0  0
  -23.0035  -31.2309   16.3148 N   0  0  0  0  0  0  0  0  0  0  0  0
  -21.6598  -28.7050   21.9020 N   0  0  0  0  0  0  0  0  0  0  0  0
  -30.2890  -15.5148   21.5969 N   0  0  0  0  0  0  0  0  0  0  0  0
  -19.5575  -25.8551   22.6270 N   0  3  0  0  0  0  0  0  0  0  0  0
  -22.7984  -14.6821   21.9716 O   0  0  0  0  0  0  0  0  0  0  0  0
  -24.5593  -31.3652   18.0421 O   0  0  0  0  0  0  0  0  0  0  0  0
  -21.6588  -29.8693   19.5269 O   0  0  0  0  0  0  0  0  0  0  0  0
  -22.2803  -26.5268   22.3994 O   0  0  0  0  0  0  0  0  0  0  0  0
  -31.8817  -14.9301   20.0547 O   0  0  0  0  0  0  0  0  0  0  0  0
  -21.6062   -7.0120   21.3921 O   0  0  0  0  0  0  0  0  0  0  0  0
  -26.6480  -23.8428   19.1909 O   0  0  0  0  0  0  0  0  0  1  0  0
  -19.0425   -6.2438   26.2130 F   0  0  0  0  0  0  0  0  0  0  0  0
  -22.1813   -4.8163   22.9702 F   0  0  0  0  0  0  0  0  0  0  0  0
  1  2  1  0  0  0  0
  1  5  2  0  0  0  0
  2  6  2  0  0  0  0
  3  8  2  0  0  0  0
  3 16  1  0  0  0  0
  4  9  1  0  0  0  0
  4 16  2  0  0  0  0
  5 18  1  0  0  0  0
  6 20  1  0  0  0  0
  7 10  2  0  0  0  0
  7 19  1  0  0  0  0
  8 22  1  0  0  0  0
  9 22  2  0  0  0  0
 10 23  1  0  0  0  0
 11 12  2  0  0  0  0
 11 24  1  0  0  0  0
 12 25  1  0  0  0  0
 13 21  1  0  0  0  0
 13 23  2  0  0  0  0
 14 25  2  0  0  0  0
 14 26  1  0  0  0  0
 15 28  2  0  0  0  0
 15 69  1  0  0  0  0
 16 27  1  0  0  0  0
 17 27  1  0  0  0  0
 17 29  2  0  0  0  0
 17 31  1  0  0  0  0
 18 20  2  0  0  0  0
 18 36  1  0  0  0  0
 19 21  2  0  0  0  0
 19 37  1  0  0  0  0
 20 45  1  0  0  0  0
 21 38  1  0  0  0  0
 22 85  1  0  0  0  0
 23 86  1  0  0  0  0
 24 26  2  0  0  0  0
 24 85  1  0  0  0  0
 25 87  1  0  0  0  0
 26 88  1  0  0  0  0
 27 68  2  0  0  0  0
 28 64  1  0  0  0  0
 28 71  1  0  0  0  0
 29 70  1  0  0  0  0
 29 74  1  0  0  0  0
 30 55  1  0  0  0  0
 30 69  1  0  0  0  0
 30 71  2  0  0  0  0
 31 75  1  0  0  0  0
 31 80  2  0  0  0  0
 32 46  1  0  0  0  0
 32 76  1  0  0  0  0
 32 81  2  0  0  0  0
 33 65  1  0  0  0  0
 33 72  1  0  0  0  0
 33 82  2  0  0  0  0
 34 66  1  0  0  0  0
 34 77  1  0  0  0  0
 34 83  2  0  0  0  0
 35 73  1  0  0  0  0
 35 78  1  0  0  0  0
 35 84  2  0  0  0  0
 36 39  1  0  0  0  0
 37 46  1  0  0  0  0
 38 72  1  0  0  0  0
 39 41  1  0  0  0  0
 40 42  1  0  0  0  0
 40 43  1  0  0  0  0
 41 45  1  0  0  0  0
 42 47  1  0  0  0  0
 43 73  1  0  0  0  0
 44 47  1  0  0  0  0
 44 73  1  0  0  0  0
 45 76  1  0  0  0  0
 46 72  1  0  0  0  0
 47 70  1  0  0  0  0
 48 56  1  0  0  0  0
 49 64  1  0  0  0  0
 50 66  1  0  0  0  0
 51 67  1  0  0  0  0
 52 67  1  0  0  0  0
 53 67  1  0  0  0  0
 54 79  1  0  0  0  0
 55 57  1  0  0  0  0
 56 58  1  0  0  0  0
 57 58  1  0  0  0  0
 59 60  1  0  0  0  0
 59 61  1  0  0  0  0
 60 63  1  0  0  0  0
 61 69  1  0  0  0  0
 62 64  1  0  0  0  0
 62 78  1  0  0  0  0
 63 86  1  0  0  0  0
 65 67  1  0  0  0  0
 65 77  1  0  0  0  0
 66 79  1  0  0  0  0
 68 70  1  0  0  0  0
M  CHG  2  71   1  79   1
M  ISO  4  35 100  63 101  78 100  86 101
M  END
> <Batch ID>
0081

> <Smiles>
CCCCCc1nc(C(C)C[100NH:0][100C:0](=O)N2CCCC(n3nc(-c4ccc(Oc5ccc(F)cc5F)cc4)c(C(N)=O)c3N)C2)cn1CCC[101CH2:1][101O:1]c1ccc2c(c1)CN(C(=O)C(NC(=O)C(C)NC)C(C)(C)C)C(C(=O)NC1CCCc3ccccc31)C2

> <Shape>
0.298

> <Color>
0.177

> <Negative vol penalty>
0.000

$$$$

  -OEChem-04052318463D

 88 96  0     1  0  0  0  0  0999 V2000
  -17.2806  -26.2319   21.7279 C   0  0  0  0  0  0  0  0  0  0  0  0
  -18.4911  -25.6098   22.0161 C   0  0  0  0  0  0  0  0  0  0  0  0
  -25.1639  -13.3341   19.6721 C   0  0  0  0  0  0  0  0  0  0  0  0
  -25.2883  -14.2003   21.9240 C   0  0  0  0  0  0  0  0  0  0  0  0
  -17.2161  -27.6218   21.6397 C   0  0  0  0  0  0  0  0  0  0  0  0
  -19.6382  -26.3774   22.2152 C   0  0  0  0  0  0  0  0  0  0  0  0
  -22.3234  -24.8529   26.2290 C   0  0  0  0  0  0  0  0  0  0  0  0
  -25.0819  -12.0360   20.1759 C   0  0  0  0  0  0  0  0  0  0  0  0
  -25.2062  -12.9023   22.4279 C   0  0  0  0  0  0  0  0  0  0  0  0
  -23.1186  -23.7189   26.0695 C   0  0  0  0  0  0  0  0  0  0  0  0
  -22.7231  -10.0432   21.5535 C   0  0  0  0  0  0  0  0  0  0  0  0
  -21.7679   -9.1916   20.9985 C   0  0  0  0  0  0  0  0  0  0  0  0
  -25.0554  -25.1261   25.7732 C   0  0  0  0  0  0  0  0  0  0  0  0
  -27.5793  -22.8623   21.2363 C   0  0  0  0  0  0  0  0  0  0  0  0
  -25.5674  -22.0034   22.2359 C   0  0  0  0  0  0  0  0  0  0  0  0
  -23.5178   -7.6684   20.3240 C   0  0  0  0  0  0  0  0  0  0  0  0
  -25.2672  -14.4163   20.5462 C   0  0  0  0  0  0  0  0  0  0  0  0
  -24.2843  -16.6314   19.7493 C   0  0  0  0  0  0  0  0  0  0  0  0
  -18.3609  -28.4073   21.8474 C   0  0  0  0  0  0  0  0  0  0  0  0
  -22.8873  -26.1344   26.1507 C   0  0  0  0  0  0  0  0  0  0  0  0
  -19.5892  -27.7791   22.1284 C   0  0  0  0  0  0  0  0  0  0  0  0
  -24.2656  -26.2747   25.9345 C   0  0  0  0  0  0  0  0  0  0  0  0
  -26.1983  -22.7024   21.2127 C   0  0  0  0  0  0  0  0  0  0  0  0
  -25.1030  -11.8201   21.5538 C   0  0  0  0  0  0  0  0  0  0  0  0
  -24.4843  -23.8554   25.8388 C   0  0  0  0  0  0  0  0  0  0  0  0
  -24.0756   -9.7074   21.4937 C   0  0  0  0  0  0  0  0  0  0  0  0
  -22.1652   -8.0042   20.3838 C   0  0  0  0  0  0  0  0  0  0  0  0
  -24.4730   -8.5201   20.8790 C   0  0  0  0  0  0  0  0  0  0  0  0
  -25.3525  -15.7574   20.0263 C   0  0  0  0  0  0  0  0  0  0  0  0
  -28.2783  -22.3085   22.2967 C   0  0  0  0  0  0  0  0  0  0  0  0
  -26.3565  -21.4879   23.2514 C   0  0  0  0  0  0  0  0  0  0  0  0
  -24.8871  -17.7720   19.2782 C   0  0  0  0  0  0  0  0  0  0  0  0
  -22.8731  -16.4302   19.9042 C   0  0  0  0  0  0  0  0  0  0  0  0
  -22.4925  -28.6461   24.2430 C   0  0  0  0  0  0  0  0  0  0  0  0
  -24.5109  -30.0693   26.3461 C   0  0  0  0  0  0  0  0  0  0  0  0
  -26.9648  -29.7250   28.6927 C   0  0  0  0  0  0  0  0  0  0  0  0
  -30.3385  -20.1226   20.0578 C   0  0  0  0  0  0  0  0  0  0  0  0
  -18.2518  -29.9039   21.6950 C   0  0  0  0  0  0  0  0  0  0  0  0
  -22.0203  -27.3471   26.3514 C   0  0  0  0  0  0  0  0  0  0  0  0
  -24.9232  -27.6278   25.8620 C   0  0  0  0  0  0  0  0  0  0  0  0
  -19.4345  -30.6644   22.2894 C   0  0  0  0  0  0  0  0  0  0  0  0
  -28.8035  -19.2553   16.9646 C   0  0  0  0  0  0  0  0  0  0  0  0
  -20.7507  -30.0211   21.8644 C   0  0  0  0  0  0  0  0  0  0  0  0
  -27.6486  -18.3393   17.3735 C   0  0  0  0  0  0  0  0  0  0  0  0
  -30.0308  -19.0450   17.8486 C   0  0  0  0  0  0  0  0  0  0  0  0
  -28.6228  -18.2440   19.7060 C   0  0  0  0  0  0  0  0  0  0  0  0
  -20.8500  -28.5787   22.3752 C   0  0  1  0  0  0  0  0  0  0  0  0
  -22.6130  -28.6130   25.7403 C   0  0  1  0  0  0  0  0  0  0  0  0
  -27.3439  -18.4592   18.8788 C   0  0  2  0  0  0  0  0  0  0  0  0
  -30.2076  -23.2713   23.5909 C   0  0  0  0  0  0  0  0  0  0  0  0
  -28.4432  -31.0712   30.2091 C   0  0  0  0  0  0  0  0  0  0  0  0
  -25.8359  -22.6872   18.7199 C   0  0  0  0  0  0  0  0  0  0  0  0
  -25.5677  -24.8280   20.0165 C   0  0  0  0  0  0  0  0  0  0  0  0
  -23.8535  -23.0346   20.1797 C   0  0  0  0  0  0  0  0  0  0  0  0
  -26.6946  -20.1907   25.4610 C   0  0  0  0  0  0  0  0  0  0  0  0
  -24.9747  -19.4662   23.8195 C   0  0  0  0  0  0  0  0  0  0  0  0
  -26.2544  -30.8354   23.9622 C   0  0  0  0  0  0  0  0  0  0  0  0
  -28.1179  -31.3083   25.5659 C   0  0  0  0  0  0  0  0  0  0  0  0
  -26.0037  -32.6264   25.6896 C   0  0  0  0  0  0  0  0  0  0  0  0
  -25.8346  -28.4536   31.1145 C   0  0  0  0  0  0  0  0  0  0  0  0
  -30.5210  -21.1135   22.3259 C   0  0  0  0  0  0  0  0  0  0  0  0
  -24.6438  -21.5944   25.1189 C   0  0  0  0  0  0  0  0  0  1  0  0
  -29.7614  -22.4617   22.3558 C   0  0  1  0  0  0  0  0  0  0  0  0
  -26.0091  -30.2174   26.4570 C   0  0  1  0  0  0  0  0  0  0  0  0
  -27.1249  -30.3244   30.0782 C   0  0  2  0  0  0  0  0  0  0  0  0
  -25.3969  -23.2790   20.0952 C   0  0  0  0  0  0  0  0  0  0  0  0
  -25.6923  -20.7063   24.4004 C   0  0  0  0  0  0  0  0  0  0  0  0
  -26.5839  -31.2213   25.4180 C   0  0  0  0  0  0  0  0  0  0  0  0
  -26.5438  -16.2965   19.7537 N   0  0  0  0  0  0  0  0  0  0  0  0
  -27.7004  -21.6230   23.3085 N   0  0  0  0  0  0  0  0  0  0  0  0
  -26.2276  -17.5215   19.3004 N   0  0  0  0  0  0  0  0  0  0  0  0
  -24.0322  -28.7833   26.0584 N   0  0  0  0  0  0  0  0  0  0  0  0
  -29.6741  -19.1735   19.2636 N   0  0  0  0  0  0  0  0  0  0  0  0
  -24.3960  -18.9547   18.8511 N   0  0  0  0  0  0  0  0  0  0  0  0
  -22.4244  -15.1991   20.4017 N   0  0  0  0  0  0  0  0  0  0  0  0
  -21.1928  -28.5628   23.7812 N   0  0  0  0  0  0  0  0  0  0  0  0
  -26.2826  -30.5723   27.8454 N   0  0  0  0  0  0  0  0  0  0  0  0
  -29.9354  -20.1835   21.3862 N   0  0  0  0  0  0  0  0  0  0  0  0
  -27.0866  -29.2533   31.1136 N   0  3  0  0  0  0  0  0  0  0  0  0
  -22.0342  -17.3098   19.5946 O   0  0  0  0  0  0  0  0  0  0  0  0
  -23.5038  -28.7416   23.5574 O   0  0  0  0  0  0  0  0  0  0  0  0
  -23.7914  -31.0568   26.5158 O   0  0  0  0  0  0  0  0  0  0  0  0
  -27.4044  -28.6176   28.3912 O   0  0  0  0  0  0  0  0  0  0  0  0
  -31.2215  -20.8647   19.6145 O   0  0  0  0  0  0  0  0  0  0  0  0
  -25.0227  -10.5536   22.0458 O   0  0  0  0  0  0  0  0  0  0  0  0
  -25.2627  -22.7502   25.6822 O   0  0  0  0  0  0  0  0  0  1  0  0
  -21.2478   -7.1858   19.8522 F   0  0  0  0  0  0  0  0  0  0  0  0
  -25.7708   -8.1916   20.8195 F   0  0  0  0  0  0  0  0  0  0  0  0
  1  2  1  0  0  0  0
  1  5  2  0  0  0  0
  2  6  2  0  0  0  0
  3  8  2  0  0  0  0
  3 17  1  0  0  0  0
  4  9  1  0  0  0  0
  4 17  2  0  0  0  0
  5 19  1  0  0  0  0
  6 21  1  0  0  0  0
  7 10  2  0  0  0  0
  7 20  1  0  0  0  0
  8 24  1  0  0  0  0
  9 24  2  0  0  0  0
 10 25  1  0  0  0  0
 11 12  2  0  0  0  0
 11 26  1  0  0  0  0
 12 27  1  0  0  0  0
 13 22  1  0  0  0  0
 13 25  2  0  0  0  0
 14 23  1  0  0  0  0
 14 30  2  0  0  0  0
 15 23  2  0  0  0  0
 15 31  1  0  0  0  0
 16 27  2  0  0  0  0
 16 28  1  0  0  0  0
 17 29  1  0  0  0  0
 18 29  1  0  0  0  0
 18 32  2  0  0  0  0
 18 33  1  0  0  0  0
 19 21  2  0  0  0  0
 19 38  1  0  0  0  0
 20 22  2  0  0  0  0
 20 39  1  0  0  0  0
 21 47  1  0  0  0  0
 22 40  1  0  0  0  0
 23 66  1  0  0  0  0
 24 85  1  0  0  0  0
 25 86  1  0  0  0  0
 26 28  2  0  0  0  0
 26 85  1  0  0  0  0
 27 87  1  0  0  0  0
 28 88  1  0  0  0  0
 29 69  2  0  0  0  0
 30 63  1  0  0  0  0
 30 70  1  0  0  0  0
 31 67  1  0  0  0  0
 31 70  2  0  0  0  0
 32 71  1  0  0  0  0
 32 74  1  0  0  0  0
 33 75  1  0  0  0  0
 33 80  2  0  0  0  0
 34 48  1  0  0  0  0
 34 76  1  0  0  0  0
 34 81  2  0  0  0  0
 35 64  1  0  0  0  0
 35 72  1  0  0  0  0
 35 82  2  0  0  0  0
 36 65  1  0  0  0  0
 36 77  1  0  0  0  0
 36 83  2  0  0  0  0
 37 73  1  0  0  0  0
 37 78  1  0  0  0  0
 37 84  2  0  0  0  0
 38 41  1  0  0  0  0
 39 48  1  0  0  0  0
 40 72  1  0  0  0  0
 41 43  1  0  0  0  0
 42 44  1  0  0  0  0
 42 45  1  0  0  0  0
 43 47  1  0  0  0  0
 44 49  1  0  0  0  0
 45 73  1  0  0  0  0
 46 49  1  0  0  0  0
 46 73  1  0  0  0  0
 47 76  1  0  0  0  0
 48 72  1  0  0  0  0
 49 71  1  0  0  0  0
 50 63  1  0  0  0  0
 51 65  1  0  0  0  0
 52 66  1  0  0  0  0
 53 66  1  0  0  0  0
 54 66  1  0  0  0  0
 55 67  1  0  0  0  0
 56 67  1  0  0  0  0
 57 68  1  0  0  0  0
 58 68  1  0  0  0  0
 59 68  1  0  0  0  0
 60 79  1  0  0  0  0
 61 63  1  0  0  0  0
 61 78  1  0  0  0  0
 62 67  1  0  0  0  0
 62 86  1  0  0  0  0
 64 68  1  0  0  0  0
 64 77  1  0  0  0  0
 65 79  1  0  0  0  0
 69 71  1  0  0  0  0
M  CHG  1  79   1
M  ISO  4  37 100  62 101  78 100  86 101
M  END
> <Batch ID>
0081

> <Smiles>
CNC(C)C(=O)NC(C(=O)N1Cc2cc([101O:1][101CH2:1]C(C)(C)c3cc(C(C)(C)C)cc(C(C)C[100NH:0][100C:0](=O)N4CCCC(n5nc(-c6ccc(Oc7ccc(F)cc7F)cc6)c(C(N)=O)c5N)C4)n3)ccc2CC1C(=O)NC1CCCc2ccccc21)C(C)(C)C

> <Shape>
0.199

> <Color>
0.069

> <Negative vol penalty>
0.000

$$$$

  -OEChem-04052318463D

 90 98  0     1  0  0  0  0  0999 V2000
  -27.5118  -19.1446   21.4556 C   0  0  0  0  0  0  0  0  0  0  0  0
  -27.0882  -20.4595   21.6193 C   0  0  0  0  0  0  0  0  0  0  0  0
  -25.8842  -14.7794   20.6719 C   0  0  0  0  0  0  0  0  0  0  0  0
  -24.0858  -14.0902   19.2131 C   0  0  0  0  0  0  0  0  0  0  0  0
  -28.7829  -18.8811   20.9469 C   0  0  0  0  0  0  0  0  0  0  0  0
  -27.9360  -21.5119   21.2754 C   0  0  0  0  0  0  0  0  0  0  0  0
  -25.5629  -25.1451   18.6653 C   0  0  0  0  0  0  0  0  0  0  0  0
  -26.1618  -13.4434   20.9608 C   0  0  0  0  0  0  0  0  0  0  0  0
  -24.3635  -12.7542   19.5020 C   0  0  0  0  0  0  0  0  0  0  0  0
  -24.7669  -26.0322   19.3885 C   0  0  0  0  0  0  0  0  0  0  0  0
  -23.7634  -10.5717   22.0135 C   0  0  0  0  0  0  0  0  0  0  0  0
  -22.6857   -9.7319   22.2943 C   0  0  0  0  0  0  0  0  0  0  0  0
  -26.5428  -27.6638   19.3301 C   0  0  0  0  0  0  0  0  0  0  0  0
  -20.5515  -26.6374   22.4623 C   0  0  0  0  0  0  0  0  0  0  0  0
  -20.0099  -28.9038   23.0575 C   0  0  0  0  0  0  0  0  0  0  0  0
  -23.2859   -8.3339   20.4175 C   0  0  0  0  0  0  0  0  0  0  0  0
  -24.8461  -15.1029   19.7980 C   0  0  0  0  0  0  0  0  0  0  0  0
  -25.1041  -17.2593   18.4598 C   0  0  0  0  0  0  0  0  0  0  0  0
  -29.6431  -19.9306   20.5876 C   0  0  0  0  0  0  0  0  0  0  0  0
  -26.8610  -25.5072   18.2778 C   0  0  0  0  0  0  0  0  0  0  0  0
  -29.2204  -21.2622   20.7627 C   0  0  0  0  0  0  0  0  0  0  0  0
  -27.3523  -26.7804   18.5998 C   0  0  0  0  0  0  0  0  0  0  0  0
  -20.9281  -27.8610   23.0047 C   0  0  0  0  0  0  0  0  0  0  0  0
  -25.4015  -12.4308   20.3759 C   0  0  0  0  0  0  0  0  0  0  0  0
  -25.2579  -27.2907   19.7236 C   0  0  0  0  0  0  0  0  0  0  0  0
  -24.6023  -10.2927   20.9345 C   0  0  0  0  0  0  0  0  0  0  0  0
  -22.4469   -8.6130   21.4964 C   0  0  0  0  0  0  0  0  0  0  0  0
  -24.3636   -9.1738   20.1366 C   0  0  0  0  0  0  0  0  0  0  0  0
  -24.5585  -16.4828   19.4996 C   0  0  0  0  0  0  0  0  0  0  0  0
  -19.2553  -26.5086   21.9903 C   0  0  0  0  0  0  0  0  0  0  0  0
  -18.7379  -28.6737   22.5586 C   0  0  0  0  0  0  0  0  0  0  0  0
  -24.5135  -18.4908   18.6047 C   0  0  0  0  0  0  0  0  0  0  0  0
  -26.0593  -16.8995   17.4529 C   0  0  0  0  0  0  0  0  0  0  0  0
  -29.7765  -24.4001   18.8927 C   0  0  0  0  0  0  0  0  0  0  0  0
  -30.6566  -26.6045   16.6817 C   0  0  0  0  0  0  0  0  0  0  0  0
  -29.9418  -29.5138   15.0472 C   0  0  0  0  0  0  0  0  0  0  0  0
  -20.0528  -21.5661   19.3743 C   0  0  0  0  0  0  0  0  0  0  0  0
  -31.0258  -19.5967   20.0862 C   0  0  0  0  0  0  0  0  0  0  0  0
  -27.6972  -24.5487   17.4749 C   0  0  0  0  0  0  0  0  0  0  0  0
  -28.7317  -27.2252   18.1900 C   0  0  0  0  0  0  0  0  0  0  0  0
  -31.7219  -20.7662   19.3948 C   0  0  0  0  0  0  0  0  0  0  0  0
  -21.7047  -20.3757   22.3663 C   0  0  0  0  0  0  0  0  0  0  0  0
  -31.5763  -22.0391   20.2226 C   0  0  0  0  0  0  0  0  0  0  0  0
  -22.6450  -19.3140   21.7927 C   0  0  0  0  0  0  0  0  0  0  0  0
  -20.3672  -20.3843   21.6321 C   0  0  0  0  0  0  0  0  0  0  0  0
  -21.4144  -19.5056   19.5815 C   0  0  0  0  0  0  0  0  0  0  0  0
  -30.1018  -22.4306   20.3780 C   0  0  1  0  0  0  0  0  0  0  0  0
  -29.1930  -24.8307   17.5767 C   0  0  1  0  0  0  0  0  0  0  0  0
  -22.7924  -19.4617   20.2667 C   0  0  2  0  0  0  0  0  0  0  0  0
  -17.3461  -24.8747   21.7804 C   0  0  0  0  0  0  0  0  0  0  0  0
  -30.8689  -31.0835   13.3228 C   0  0  0  0  0  0  0  0  0  0  0  0
  -17.2237  -30.1473   21.1920 C   0  0  0  0  0  0  0  0  0  0  0  0
  -16.5284  -29.4250   23.4998 C   0  0  0  0  0  0  0  0  0  0  0  0
  -32.6227  -27.7016   18.7411 C   0  0  0  0  0  0  0  0  0  0  0  0
  -32.8092  -29.7776   17.3541 C   0  0  0  0  0  0  0  0  0  0  0  0
  -33.5152  -27.5800   16.4080 C   0  0  0  0  0  0  0  0  0  0  0  0
  -18.3699  -26.0663   18.9840 C   0  0  0  0  0  0  0  0  0  0  0  0
  -20.6219  -25.1709   19.5725 C   0  0  0  0  0  0  0  0  0  0  0  0
  -27.6318  -29.0857   13.2473 C   0  0  0  0  0  0  0  0  0  0  0  0
  -22.3264  -28.0560   23.5342 C   0  0  0  0  0  0  0  0  0  0  0  0
  -23.3162  -28.5685   22.4858 C   0  0  0  0  0  0  0  0  0  0  0  0
  -18.6607  -23.6194   19.3219 C   0  0  0  0  0  0  0  0  0  0  0  0
  -23.5347  -27.5938   21.3345 C   0  0  0  0  0  0  0  0  0  1  0  0
  -18.8155  -25.2092   21.4030 C   0  0  1  0  0  0  0  0  0  0  0  0
  -31.0531  -28.0605   16.7227 C   0  0  1  0  0  0  0  0  0  0  0  0
  -29.9785  -29.8765   13.5736 C   0  0  2  0  0  0  0  0  0  0  0  0
  -17.7276  -29.7711   22.5977 C   0  0  0  0  0  0  0  0  0  0  0  0
  -32.4747  -28.2712   17.3160 C   0  0  0  0  0  0  0  0  0  0  0  0
  -19.1059  -25.0158   19.8449 C   0  0  0  0  0  0  0  0  0  0  0  0
  -23.6883  -17.1640   20.2497 N   0  0  0  0  0  0  0  0  0  0  0  0
  -18.3355  -27.4987   22.0245 N   0  0  0  0  0  0  0  0  0  0  0  0
  -23.6826  -18.3815   19.6807 N   0  0  0  0  0  0  0  0  0  0  0  0
  -29.5132  -26.2500   17.4116 N   0  0  0  0  0  0  0  0  0  0  0  0
  -20.5769  -20.5466   20.1865 N   0  0  0  0  0  0  0  0  0  0  0  0
  -24.6291  -19.6458   17.9154 N   0  0  0  0  0  0  0  0  0  0  0  0
  -26.5650  -15.5924   17.4483 N   0  0  0  0  0  0  0  0  0  0  0  0
  -29.6145  -23.0555   19.1670 N   0  0  0  0  0  0  0  0  0  0  0  0
  -30.8918  -28.5659   15.3637 N   0  0  0  0  0  0  0  0  0  0  0  0
  -19.2644  -22.5084   20.0233 N   0  0  0  0  0  0  0  0  0  0  0  0
  -28.6072  -30.1942   13.0840 N   0  3  0  0  0  0  0  0  0  0  0  0
  -26.4651  -17.7178   16.5931 O   0  0  0  0  0  0  0  0  0  0  0  0
  -30.3338  -25.2263   19.6058 O   0  0  0  0  0  0  0  0  0  0  0  0
  -31.3323  -25.8122   16.0204 O   0  0  0  0  0  0  0  0  0  0  0  0
  -29.1519  -30.0233   15.8391 O   0  0  0  0  0  0  0  0  0  0  0  0
  -20.2756  -21.6347   18.1608 O   0  0  0  0  0  0  0  0  0  0  0  0
  -25.6723  -11.1269   20.6574 O   0  0  0  0  0  0  0  0  0  0  0  0
  -24.4833  -28.1584   20.4301 O   0  0  0  0  0  0  0  0  0  1  0  0
  -21.4129   -7.8058   21.7672 F   0  0  0  0  0  0  0  0  0  0  0  0
  -25.1667   -8.8999   19.0994 F   0  0  0  0  0  0  0  0  0  0  0  0
  -18.2343  -30.9486   23.1189 F   0  0  0  0  0  0  0  0  0  0  0  0
  1  2  1  0  0  0  0
  1  5  2  0  0  0  0
  2  6  2  0  0  0  0
  3  8  2  0  0  0  0
  3 17  1  0  0  0  0
  4  9  1  0  0  0  0
  4 17  2  0  0  0  0
  5 19  1  0  0  0  0
  6 21  1  0  0  0  0
  7 10  2  0  0  0  0
  7 20  1  0  0  0  0
  8 24  1  0  0  0  0
  9 24  2  0  0  0  0
 10 25  1  0  0  0  0
 11 12  2  0  0  0  0
 11 26  1  0  0  0  0
 12 27  1  0  0  0  0
 13 22  1  0  0  0  0
 13 25  2  0  0  0  0
 14 23  1  0  0  0  0
 14 30  2  0  0  0  0
 15 23  2  0  0  0  0
 15 31  1  0  0  0  0
 16 27  2  0  0  0  0
 16 28  1  0  0  0  0
 17 29  1  0  0  0  0
 18 29  1  0  0  0  0
 18 32  2  0  0  0  0
 18 33  1  0  0  0  0
 19 21  2  0  0  0  0
 19 38  1  0  0  0  0
 20 22  2  0  0  0  0
 20 39  1  0  0  0  0
 21 47  1  0  0  0  0
 22 40  1  0  0  0  0
 23 60  1  0  0  0  0
 24 86  1  0  0  0  0
 25 87  1  0  0  0  0
 26 28  2  0  0  0  0
 26 86  1  0  0  0  0
 27 88  1  0  0  0  0
 28 89  1  0  0  0  0
 29 70  2  0  0  0  0
 30 64  1  0  0  0  0
 30 71  1  0  0  0  0
 31 67  1  0  0  0  0
 31 71  2  0  0  0  0
 32 72  1  0  0  0  0
 32 75  1  0  0  0  0
 33 76  1  0  0  0  0
 33 81  2  0  0  0  0
 34 48  1  0  0  0  0
 34 77  1  0  0  0  0
 34 82  2  0  0  0  0
 35 65  1  0  0  0  0
 35 73  1  0  0  0  0
 35 83  2  0  0  0  0
 36 66  1  0  0  0  0
 36 78  1  0  0  0  0
 36 84  2  0  0  0  0
 37 74  1  0  0  0  0
 37 79  1  0  0  0  0
 37 85  2  0  0  0  0
 38 41  1  0  0  0  0
 39 48  1  0  0  0  0
 40 73  1  0  0  0  0
 41 43  1  0  0  0  0
 42 44  1  0  0  0  0
 42 45  1  0  0  0  0
 43 47  1  0  0  0  0
 44 49  1  0  0  0  0
 45 74  1  0  0  0  0
 46 49  1  0  0  0  0
 46 74  1  0  0  0  0
 47 77  1  0  0  0  0
 48 73  1  0  0  0  0
 49 72  1  0  0  0  0
 50 64  1  0  0  0  0
 51 66  1  0  0  0  0
 52 67  1  0  0  0  0
 53 67  1  0  0  0  0
 54 68  1  0  0  0  0
 55 68  1  0  0  0  0
 56 68  1  0  0  0  0
 57 69  1  0  0  0  0
 58 69  1  0  0  0  0
 59 80  1  0  0  0  0
 60 61  1  0  0  0  0
 61 63  1  0  0  0  0
 62 69  1  0  0  0  0
 62 79  1  0  0  0  0
 63 87  1  0  0  0  0
 64 69  1  0  0  0  0
 65 68  1  0  0  0  0
 65 78  1  0  0  0  0
 66 80  1  0  0  0  0
 67 90  1  0  0  0  0
 70 72  1  0  0  0  0
M  CHG  1  80   1
M  ISO  4  37 100  63 101  79 100  87 101
M  END
> <Batch ID>
0081

> <Smiles>
CNC(C)C(=O)NC(C(=O)N1Cc2cc([101O:1][101CH2:1]CCc3cc(C(C)C(C)(C)C[100NH:0][100C:0](=O)N4CCCC(n5nc(-c6ccc(Oc7ccc(F)cc7F)cc6)c(C(N)=O)c5N)C4)nc(C(C)(C)F)c3)ccc2CC1C(=O)NC1CCCc2ccccc21)C(C)(C)C

> <Shape>
0.222

> <Color>
0.063

> <Negative vol penalty>
0.000

$$$$

  -OEChem-04052318463D

 84 92  0     1  0  0  0  0  0999 V2000
  -32.0279  -27.5405   14.4617 C   0  0  0  0  0  0  0  0  0  0  0  0
  -30.7243  -27.0870   14.6359 C   0  0  0  0  0  0  0  0  0  0  0  0
  -29.7460  -18.0492   21.2983 C   0  0  0  0  0  0  0  0  0  0  0  0
  -28.5251  -17.4213   19.3103 C   0  0  0  0  0  0  0  0  0  0  0  0
  -32.8291  -27.7993   15.5730 C   0  0  0  0  0  0  0  0  0  0  0  0
  -30.2214  -26.8911   15.9217 C   0  0  0  0  0  0  0  0  0  0  0  0
  -24.4648  -27.8031   17.8018 C   0  0  0  0  0  0  0  0  0  0  0  0
  -30.5193  -16.8935   21.1884 C   0  0  0  0  0  0  0  0  0  0  0  0
  -29.2985  -16.2656   19.2003 C   0  0  0  0  0  0  0  0  0  0  0  0
  -23.3922  -26.9336   17.9949 C   0  0  0  0  0  0  0  0  0  0  0  0
  -30.7095  -12.9705   18.5996 C   0  0  0  0  0  0  0  0  0  0  0  0
  -30.0505  -11.7735   18.3194 C   0  0  0  0  0  0  0  0  0  0  0  0
  -23.9417  -26.7859   20.3391 C   0  0  0  0  0  0  0  0  0  0  0  0
  -28.7633  -12.0068   20.3506 C   0  0  0  0  0  0  0  0  0  0  0  0
  -18.5772  -23.4937   21.4814 C   0  0  0  0  0  0  0  0  0  0  0  0
  -28.7489  -18.3130   20.3592 C   0  0  0  0  0  0  0  0  0  0  0  0
  -28.2194  -20.7674   19.9082 C   0  0  0  0  0  0  0  0  0  0  0  0
  -32.3326  -27.6157   16.8732 C   0  0  0  0  0  0  0  0  0  0  0  0
  -25.2919  -28.1626   18.8757 C   0  0  0  0  0  0  0  0  0  0  0  0
  -31.0172  -27.1464   17.0514 C   0  0  0  0  0  0  0  0  0  0  0  0
  -25.0226  -27.6622   20.1576 C   0  0  0  0  0  0  0  0  0  0  0  0
  -19.5979  -24.4194   21.5564 C   0  0  0  0  0  0  0  0  0  0  0  0
  -30.2956  -16.0018   20.1394 C   0  0  0  0  0  0  0  0  0  0  0  0
  -23.1323  -26.4226   19.2631 C   0  0  0  0  0  0  0  0  0  0  0  0
  -30.3956  -13.6856   19.7554 C   0  0  0  0  0  0  0  0  0  0  0  0
  -29.0773  -11.2917   19.1949 C   0  0  0  0  0  0  0  0  0  0  0  0
  -29.4224  -13.2038   20.6308 C   0  0  0  0  0  0  0  0  0  0  0  0
  -27.9493  -19.5063   20.4726 C   0  0  0  0  0  0  0  0  0  0  0  0
  -20.7059  -24.1506   20.7791 C   0  0  0  0  0  0  0  0  0  0  0  0
  -27.1661  -21.5541   20.3055 C   0  0  0  0  0  0  0  0  0  0  0  0
  -19.7575  -22.2377   19.9994 C   0  0  0  0  0  0  0  0  0  0  0  0
  -29.3237  -21.1898   19.0971 C   0  0  0  0  0  0  0  0  0  0  0  0
  -28.3759  -27.7956   19.5524 C   0  0  0  0  0  0  0  0  0  0  0  0
  -27.6394  -29.6652   22.0989 C   0  0  0  0  0  0  0  0  0  0  0  0
  -25.2577  -30.8185   24.2539 C   0  0  0  0  0  0  0  0  0  0  0  0
  -21.5308  -20.3182   21.9080 C   0  0  0  0  0  0  0  0  0  0  0  0
  -33.2518  -27.8636   18.0430 C   0  0  0  0  0  0  0  0  0  0  0  0
  -26.4287  -29.1227   18.6560 C   0  0  0  0  0  0  0  0  0  0  0  0
  -25.8683  -28.0331   21.3474 C   0  0  0  0  0  0  0  0  0  0  0  0
  -32.5200  -27.9883   19.3768 C   0  0  0  0  0  0  0  0  0  0  0  0
  -23.9779  -22.0374   23.8401 C   0  0  0  0  0  0  0  0  0  0  0  0
  -31.4942  -26.8697   19.5296 C   0  0  0  0  0  0  0  0  0  0  0  0
  -25.2976  -21.6974   23.1452 C   0  0  0  0  0  0  0  0  0  0  0  0
  -23.0096  -20.8567   23.8211 C   0  0  0  0  0  0  0  0  0  0  0  0
  -24.0699  -19.9500   21.7895 C   0  0  0  0  0  0  0  0  0  0  0  0
  -30.4275  -26.9454   18.4306 C   0  0  1  0  0  0  0  0  0  0  0  0
  -27.5154  -29.0157   19.7214 C   0  0  1  0  0  0  0  0  0  0  0  0
  -25.0578  -21.1279   21.7341 C   0  0  2  0  0  0  0  0  0  0  0  0
  -24.9648  -32.3054   26.2541 C   0  0  0  0  0  0  0  0  0  0  0  0
  -18.1198  -25.6506   23.1828 C   0  0  0  0  0  0  0  0  0  0  0  0
  -19.5889  -26.9384   21.5955 C   0  0  0  0  0  0  0  0  0  0  0  0
  -20.5779  -25.7500   23.5425 C   0  0  0  0  0  0  0  0  0  0  0  0
  -28.8684  -27.5115   23.8768 C   0  0  0  0  0  0  0  0  0  0  0  0
  -27.7195  -28.5695   25.8335 C   0  0  0  0  0  0  0  0  0  0  0  0
  -29.4232  -29.8569   24.5442 C   0  0  0  0  0  0  0  0  0  0  0  0
  -23.4007  -32.6054   22.7988 C   0  0  0  0  0  0  0  0  0  0  0  0
  -21.8779  -25.0875   20.7798 C   0  0  0  0  0  0  0  0  0  1  0  0
  -19.8460  -21.0263   19.1340 C   0  0  0  0  0  0  0  0  0  0  0  0
  -20.1834  -19.7442   19.9045 C   0  0  0  0  0  0  0  0  0  0  0  0
  -27.1604  -29.4122   23.5080 C   0  0  1  0  0  0  0  0  0  0  0  0
  -24.9293  -32.2199   24.7362 C   0  0  2  0  0  0  0  0  0  0  0  0
  -19.4861  -25.6185   22.4255 C   0  0  0  0  0  0  0  0  0  0  0  0
  -28.2779  -28.8288   24.4180 C   0  0  0  0  0  0  0  0  0  0  0  0
  -18.6237  -22.3875   20.7104 N   0  0  0  0  0  0  0  0  0  0  0  0
  -26.8134  -19.4884   21.1751 N   0  0  0  0  0  0  0  0  0  0  0  0
  -20.8199  -23.0651   19.9860 N   0  0  0  0  0  0  0  0  0  0  0  0
  -26.3606  -20.7480   21.0549 N   0  0  0  0  0  0  0  0  0  0  0  0
  -26.9720  -28.9701   21.0804 N   0  0  0  0  0  0  0  0  0  0  0  0
  -22.8243  -20.3649   22.4537 N   0  0  0  0  0  0  0  0  0  0  0  0
  -26.8596  -22.8500   20.0836 N   0  0  0  0  0  0  0  0  0  0  0  0
  -30.3184  -20.2537   18.7828 N   0  0  0  0  0  0  0  0  0  0  0  0
  -29.4683  -27.9873   18.7282 N   0  0  0  0  0  0  0  0  0  0  0  0
  -26.6017  -30.6738   23.9819 N   0  0  0  0  0  0  0  0  0  0  0  0
  -21.4447  -19.8452   20.6044 N   0  0  0  0  0  0  0  0  0  0  0  0
  -23.5704  -32.6215   24.2746 N   0  3  0  0  0  0  0  0  0  0  0  0
  -29.4338  -22.3668   18.6776 O   0  0  0  0  0  0  0  0  0  0  0  0
  -28.0720  -26.7575   20.1284 O   0  0  0  0  0  0  0  0  0  0  0  0
  -28.5666  -30.4561   21.9082 O   0  0  0  0  0  0  0  0  0  0  0  0
  -24.4076  -29.9390   24.1343 O   0  0  0  0  0  0  0  0  0  0  0  0
  -20.5278  -20.6770   22.5342 O   0  0  0  0  0  0  0  0  0  0  0  0
  -31.0502  -14.8742   20.0317 O   0  0  0  0  0  0  0  0  0  0  0  0
  -22.0864  -25.5732   19.4542 O   0  0  0  0  0  0  0  0  0  1  0  0
  -28.4434  -10.1430   18.9249 F   0  0  0  0  0  0  0  0  0  0  0  0
  -29.1156  -13.8870   21.7421 F   0  0  0  0  0  0  0  0  0  0  0  0
  1  2  1  0  0  0  0
  1  5  2  0  0  0  0
  2  6  2  0  0  0  0
  3  8  2  0  0  0  0
  3 16  1  0  0  0  0
  4  9  1  0  0  0  0
  4 16  2  0  0  0  0
  5 18  1  0  0  0  0
  6 20  1  0  0  0  0
  7 10  2  0  0  0  0
  7 19  1  0  0  0  0
  8 23  1  0  0  0  0
  9 23  2  0  0  0  0
 10 24  1  0  0  0  0
 11 12  2  0  0  0  0
 11 25  1  0  0  0  0
 12 26  1  0  0  0  0
 13 21  1  0  0  0  0
 13 24  2  0  0  0  0
 14 26  2  0  0  0  0
 14 27  1  0  0  0  0
 15 22  1  0  0  0  0
 15 64  2  0  0  0  0
 16 28  1  0  0  0  0
 17 28  1  0  0  0  0
 17 30  2  0  0  0  0
 17 32  1  0  0  0  0
 18 20  2  0  0  0  0
 18 37  1  0  0  0  0
 19 21  2  0  0  0  0
 19 38  1  0  0  0  0
 20 46  1  0  0  0  0
 21 39  1  0  0  0  0
 22 29  2  0  0  0  0
 22 62  1  0  0  0  0
 23 81  1  0  0  0  0
 24 82  1  0  0  0  0
 25 27  2  0  0  0  0
 25 81  1  0  0  0  0
 26 83  1  0  0  0  0
 27 84  1  0  0  0  0
 28 65  2  0  0  0  0
 29 57  1  0  0  0  0
 29 66  1  0  0  0  0
 30 67  1  0  0  0  0
 30 70  1  0  0  0  0
 31 58  1  0  0  0  0
 31 64  1  0  0  0  0
 31 66  2  0  0  0  0
 32 71  1  0  0  0  0
 32 76  2  0  0  0  0
 33 47  1  0  0  0  0
 33 72  1  0  0  0  0
 33 77  2  0  0  0  0
 34 60  1  0  0  0  0
 34 68  1  0  0  0  0
 34 78  2  0  0  0  0
 35 61  1  0  0  0  0
 35 73  1  0  0  0  0
 35 79  2  0  0  0  0
 36 69  1  0  0  0  0
 36 74  1  0  0  0  0
 36 80  2  0  0  0  0
 37 40  1  0  0  0  0
 38 47  1  0  0  0  0
 39 68  1  0  0  0  0
 40 42  1  0  0  0  0
 41 43  1  0  0  0  0
 41 44  1  0  0  0  0
 42 46  1  0  0  0  0
 43 48  1  0  0  0  0
 44 69  1  0  0  0  0
 45 48  1  0  0  0  0
 45 69  1  0  0  0  0
 46 72  1  0  0  0  0
 47 68  1  0  0  0  0
 48 67  1  0  0  0  0
 49 61  1  0  0  0  0
 50 62  1  0  0  0  0
 51 62  1  0  0  0  0
 52 62  1  0  0  0  0
 53 63  1  0  0  0  0
 54 63  1  0  0  0  0
 55 63  1  0  0  0  0
 56 75  1  0  0  0  0
 57 82  1  0  0  0  0
 58 59  1  0  0  0  0
 59 74  1  0  0  0  0
 60 63  1  0  0  0  0
 60 73  1  0  0  0  0
 61 75  1  0  0  0  0
 65 67  1  0  0  0  0
M  CHG  1  75   1
M  ISO  4  36 100  57 101  74 100  82 101
M  END
> <Batch ID>
0081

> <Smiles>
CNC(C)C(=O)NC(C(=O)N1Cc2cc([101O:1][101CH2:1]c3nc(CC[100NH:0][100C:0](=O)N4CCCC(n5nc(-c6ccc(Oc7ccc(F)cc7F)cc6)c(C(N)=O)c5N)C4)ncc3C(C)(C)C)ccc2CC1C(=O)NC1CCCc2ccccc21)C(C)(C)C

> <Shape>
0.233

> <Color>
0.066

> <Negative vol penalty>
0.000

$$$$

  -OEChem-04052318463D

 85 93  0     1  0  0  0  0  0999 V2000
  -20.3509  -28.3252   18.8966 C   0  0  0  0  0  0  0  0  0  0  0  0
  -21.0598  -27.1283   18.9066 C   0  0  0  0  0  0  0  0  0  0  0  0
  -28.1130  -23.8600   20.6606 C   0  0  0  0  0  0  0  0  0  0  0  0
  -26.7852  -22.6961   19.0116 C   0  0  0  0  0  0  0  0  0  0  0  0
  -19.7159  -28.7677   20.0563 C   0  0  0  0  0  0  0  0  0  0  0  0
  -21.1351  -26.3736   20.0767 C   0  0  0  0  0  0  0  0  0  0  0  0
  -21.2827  -20.2670   20.5159 C   0  0  0  0  0  0  0  0  0  0  0  0
  -27.7852  -25.0779   20.0650 C   0  0  0  0  0  0  0  0  0  0  0  0
  -26.4573  -23.9140   18.4160 C   0  0  0  0  0  0  0  0  0  0  0  0
  -22.3313  -19.3638   20.6846 C   0  0  0  0  0  0  0  0  0  0  0  0
  -25.1560  -27.2036   20.0253 C   0  0  0  0  0  0  0  0  0  0  0  0
  -24.7814  -28.2546   20.8624 C   0  0  0  0  0  0  0  0  0  0  0  0
  -21.9231  -19.3432   23.0620 C   0  0  0  0  0  0  0  0  0  0  0  0
  -24.2042  -12.6731   21.6748 C   0  0  0  0  0  0  0  0  0  0  0  0
  -25.6300  -14.0482   20.3108 C   0  0  0  0  0  0  0  0  0  0  0  0
  -26.6286  -29.5730   20.0336 C   0  0  0  0  0  0  0  0  0  0  0  0
  -27.6131  -22.6691   20.1339 C   0  0  0  0  0  0  0  0  0  0  0  0
  -27.2524  -20.7512   21.7768 C   0  0  0  0  0  0  0  0  0  0  0  0
  -19.7754  -28.0133   21.2386 C   0  0  0  0  0  0  0  0  0  0  0  0
  -20.5523  -20.7242   21.6221 C   0  0  0  0  0  0  0  0  0  0  0  0
  -20.5015  -26.8071   21.2537 C   0  0  0  0  0  0  0  0  0  0  0  0
  -20.8641  -20.2502   22.9044 C   0  0  0  0  0  0  0  0  0  0  0  0
  -24.5557  -13.9260   21.1851 C   0  0  0  0  0  0  0  0  0  0  0  0
  -26.9573  -25.1049   18.9427 C   0  0  0  0  0  0  0  0  0  0  0  0
  -22.6535  -18.9040   21.9581 C   0  0  0  0  0  0  0  0  0  0  0  0
  -26.2669  -27.3373   19.1924 C   0  0  0  0  0  0  0  0  0  0  0  0
  -25.5177  -29.4393   20.8666 C   0  0  0  0  0  0  0  0  0  0  0  0
  -27.0032  -28.5220   19.1966 C   0  0  0  0  0  0  0  0  0  0  0  0
  -27.9519  -21.4106   20.7484 C   0  0  0  0  0  0  0  0  0  0  0  0
  -24.9528  -11.5823   21.2629 C   0  0  0  0  0  0  0  0  0  0  0  0
  -26.3149  -12.8960   19.9601 C   0  0  0  0  0  0  0  0  0  0  0  0
  -27.9746  -19.6050   22.0031 C   0  0  0  0  0  0  0  0  0  0  0  0
  -26.0567  -21.1399   22.4659 C   0  0  0  0  0  0  0  0  0  0  0  0
  -20.0554  -23.5624   22.9643 C   0  0  0  0  0  0  0  0  0  0  0  0
  -17.9868  -21.8883   24.8191 C   0  0  0  0  0  0  0  0  0  0  0  0
  -17.0600  -18.8797   26.1368 C   0  0  0  0  0  0  0  0  0  0  0  0
  -30.7578  -15.1532   20.1108 C   0  0  0  0  0  0  0  0  0  0  0  0
  -19.1126  -28.5559   22.4800 C   0  0  0  0  0  0  0  0  0  0  0  0
  -19.4068  -21.6779   21.4202 C   0  0  0  0  0  0  0  0  0  0  0  0
  -20.0975  -20.6947   24.1223 C   0  0  0  0  0  0  0  0  0  0  0  0
  -18.9268  -27.5111   23.5774 C   0  0  0  0  0  0  0  0  0  0  0  0
  -32.5519  -18.2188   20.3561 C   0  0  0  0  0  0  0  0  0  0  0  0
  -20.2096  -26.7093   23.7738 C   0  0  0  0  0  0  0  0  0  0  0  0
  -31.4573  -19.2680   20.5584 C   0  0  0  0  0  0  0  0  0  0  0  0
  -32.1027  -17.1106   19.4063 C   0  0  0  0  0  0  0  0  0  0  0  0
  -29.7379  -17.5065   19.9759 C   0  0  0  0  0  0  0  0  0  0  0  0
  -20.5853  -25.9481   22.4968 C   0  0  1  0  0  0  0  0  0  0  0  0
  -19.0622  -22.4723   22.6763 C   0  0  1  0  0  0  0  0  0  0  0  0
  -30.1240  -18.6152   20.9699 C   0  0  2  0  0  0  0  0  0  0  0  0
  -24.6033  -10.2220   21.7668 C   0  0  0  0  0  0  0  0  0  0  0  0
  -27.2011  -12.2298   17.7100 C   0  0  0  0  0  0  0  0  0  0  0  0
  -15.3504  -17.8330   27.6464 C   0  0  0  0  0  0  0  0  0  0  0  0
  -19.4362  -23.0309   27.2489 C   0  0  0  0  0  0  0  0  0  0  0  0
  -18.3456  -21.2614   28.6444 C   0  0  0  0  0  0  0  0  0  0  0  0
  -16.9456  -22.9532   27.4611 C   0  0  0  0  0  0  0  0  0  0  0  0
  -16.0510  -17.1303   23.9733 C   0  0  0  0  0  0  0  0  0  0  0  0
  -23.7744  -15.1472   21.5996 C   0  0  0  0  0  0  0  0  0  0  0  0
  -24.3193  -15.8297   22.8562 C   0  0  0  0  0  0  0  0  0  0  0  0
  -28.8194  -12.4951   19.6310 C   0  0  0  0  0  0  0  0  0  0  0  0
  -29.2870  -13.2949   20.8472 C   0  0  0  0  0  0  0  0  0  0  0  0
  -23.5761  -17.1103   23.2181 C   0  0  0  0  0  0  0  0  0  1  0  0
  -27.4742  -12.9904   19.0253 C   0  0  2  0  0  0  0  0  0  0  0  0
  -18.0889  -21.1370   26.1246 C   0  0  1  0  0  0  0  0  0  0  0  0
  -15.7122  -18.1852   26.2119 C   0  0  2  0  0  0  0  0  0  0  0  0
  -18.2200  -22.0886   27.3472 C   0  0  0  0  0  0  0  0  0  0  0  0
  -29.0353  -20.7393   20.3490 N   0  0  0  0  0  0  0  0  0  0  0  0
  -26.0028  -11.6618   20.4151 N   0  0  0  0  0  0  0  0  0  0  0  0
  -29.0221  -19.6461   21.1306 N   0  0  0  0  0  0  0  0  0  0  0  0
  -18.9904  -21.6329   23.8739 N   0  0  0  0  0  0  0  0  0  0  0  0
  -30.8335  -16.5321   19.8538 N   0  0  0  0  0  0  0  0  0  0  0  0
  -27.8094  -18.5761   22.8613 N   0  0  0  0  0  0  0  0  0  0  0  0
  -25.4425  -22.3480   22.1088 N   0  0  0  0  0  0  0  0  0  0  0  0
  -19.7626  -24.7663   22.3523 N   0  0  0  0  0  0  0  0  0  0  0  0
  -16.9305  -20.2518   26.1778 N   0  0  0  0  0  0  0  0  0  0  0  0
  -29.5199  -14.6879   20.5372 N   0  0  0  0  0  0  0  0  0  0  0  0
  -15.7314  -16.9291   25.4101 N   0  3  0  0  0  0  0  0  0  0  0  0
  -25.5571  -20.4447   23.3828 O   0  0  0  0  0  0  0  0  0  0  0  0
  -21.0154  -23.3291   23.6893 O   0  0  0  0  0  0  0  0  0  0  0  0
  -17.0471  -22.6675   24.6418 O   0  0  0  0  0  0  0  0  0  0  0  0
  -18.1218  -18.2662   26.0540 O   0  0  0  0  0  0  0  0  0  0  0  0
  -31.7234  -14.3941   19.9758 O   0  0  0  0  0  0  0  0  0  0  0  0
  -26.6370  -26.2932   18.3613 O   0  0  0  0  0  0  0  0  0  0  0  0
  -23.6770  -18.0229   22.1257 O   0  0  0  0  0  0  0  0  0  1  0  0
  -25.1570  -30.4490   21.6694 F   0  0  0  0  0  0  0  0  0  0  0  0
  -28.0707  -28.6567   18.3977 F   0  0  0  0  0  0  0  0  0  0  0  0
  1  2  1  0  0  0  0
  1  5  2  0  0  0  0
  2  6  2  0  0  0  0
  3  8  2  0  0  0  0
  3 17  1  0  0  0  0
  4  9  1  0  0  0  0
  4 17  2  0  0  0  0
  5 19  1  0  0  0  0
  6 21  1  0  0  0  0
  7 10  2  0  0  0  0
  7 20  1  0  0  0  0
  8 24  1  0  0  0  0
  9 24  2  0  0  0  0
 10 25  1  0  0  0  0
 11 12  2  0  0  0  0
 11 26  1  0  0  0  0
 12 27  1  0  0  0  0
 13 22  1  0  0  0  0
 13 25  2  0  0  0  0
 14 23  1  0  0  0  0
 14 30  2  0  0  0  0
 15 23  2  0  0  0  0
 15 31  1  0  0  0  0
 16 27  2  0  0  0  0
 16 28  1  0  0  0  0
 17 29  1  0  0  0  0
 18 29  1  0  0  0  0
 18 32  2  0  0  0  0
 18 33  1  0  0  0  0
 19 21  2  0  0  0  0
 19 38  1  0  0  0  0
 20 22  2  0  0  0  0
 20 39  1  0  0  0  0
 21 47  1  0  0  0  0
 22 40  1  0  0  0  0
 23 57  1  0  0  0  0
 24 82  1  0  0  0  0
 25 83  1  0  0  0  0
 26 28  2  0  0  0  0
 26 82  1  0  0  0  0
 27 84  1  0  0  0  0
 28 85  1  0  0  0  0
 29 66  2  0  0  0  0
 30 50  1  0  0  0  0
 30 67  1  0  0  0  0
 31 62  1  0  0  0  0
 31 67  2  0  0  0  0
 32 68  1  0  0  0  0
 32 71  1  0  0  0  0
 33 72  1  0  0  0  0
 33 77  2  0  0  0  0
 34 48  1  0  0  0  0
 34 73  1  0  0  0  0
 34 78  2  0  0  0  0
 35 63  1  0  0  0  0
 35 69  1  0  0  0  0
 35 79  2  0  0  0  0
 36 64  1  0  0  0  0
 36 74  1  0  0  0  0
 36 80  2  0  0  0  0
 37 70  1  0  0  0  0
 37 75  1  0  0  0  0
 37 81  2  0  0  0  0
 38 41  1  0  0  0  0
 39 48  1  0  0  0  0
 40 69  1  0  0  0  0
 41 43  1  0  0  0  0
 42 44  1  0  0  0  0
 42 45  1  0  0  0  0
 43 47  1  0  0  0  0
 44 49  1  0  0  0  0
 45 70  1  0  0  0  0
 46 49  1  0  0  0  0
 46 70  1  0  0  0  0
 47 73  1  0  0  0  0
 48 69  1  0  0  0  0
 49 68  1  0  0  0  0
 51 62  1  0  0  0  0
 52 64  1  0  0  0  0
 53 65  1  0  0  0  0
 54 65  1  0  0  0  0
 55 65  1  0  0  0  0
 56 76  1  0  0  0  0
 57 58  1  0  0  0  0
 58 61  1  0  0  0  0
 59 60  1  0  0  0  0
 59 62  1  0  0  0  0
 60 75  1  0  0  0  0
 61 83  1  0  0  0  0
 63 65  1  0  0  0  0
 63 74  1  0  0  0  0
 64 76  1  0  0  0  0
 66 68  1  0  0  0  0
M  CHG  1  76   1
M  ISO  4  37 100  61 101  75 100  83 101
M  END
> <Batch ID>
0081

> <Smiles>
CNC(C)C(=O)NC(C(=O)N1Cc2cc([101O:1][101CH2:1]CCc3cc(C)nc(C(C)CC[100NH:0][100C:0](=O)N4CCCC(n5nc(-c6ccc(Oc7ccc(F)cc7F)cc6)c(C(N)=O)c5N)C4)c3)ccc2CC1C(=O)NC1CCCc2ccccc21)C(C)(C)C

> <Shape>
0.197

> <Color>
0.101

> <Negative vol penalty>
0.000

$$$$

  -OEChem-04052318463D

 89 97  0     1  0  0  0  0  0999 V2000
  -22.4909  -11.1672   18.7490 C   0  0  0  0  0  0  0  0  0  0  0  0
  -21.9388  -12.4382   18.8717 C   0  0  0  0  0  0  0  0  0  0  0  0
  -25.0327  -27.8606   19.4635 C   0  0  0  0  0  0  0  0  0  0  0  0
  -25.3910  -25.6080   20.2600 C   0  0  0  0  0  0  0  0  0  0  0  0
  -23.7013  -10.8708   19.3742 C   0  0  0  0  0  0  0  0  0  0  0  0
  -22.5964  -13.4134   19.6208 C   0  0  0  0  0  0  0  0  0  0  0  0
  -23.6912  -20.4893   19.8407 C   0  0  0  0  0  0  0  0  0  0  0  0
  -26.4089  -28.0867   19.4838 C   0  0  0  0  0  0  0  0  0  0  0  0
  -26.7673  -25.8341   20.2803 C   0  0  0  0  0  0  0  0  0  0  0  0
  -23.5920  -21.5678   20.7187 C   0  0  0  0  0  0  0  0  0  0  0  0
  -29.3074  -25.9287   18.0534 C   0  0  0  0  0  0  0  0  0  0  0  0
  -30.1335  -24.9367   17.5251 C   0  0  0  0  0  0  0  0  0  0  0  0
  -25.7169  -20.9656   21.6890 C   0  0  0  0  0  0  0  0  0  0  0  0
  -31.2259  -24.7055   19.6676 C   0  0  0  0  0  0  0  0  0  0  0  0
  -24.5237  -26.6213   19.8516 C   0  0  0  0  0  0  0  0  0  0  0  0
  -22.3382  -25.8867   18.7601 C   0  0  0  0  0  0  0  0  0  0  0  0
  -24.3788  -11.8457   20.1234 C   0  0  0  0  0  0  0  0  0  0  0  0
  -24.8007  -19.6331   19.8877 C   0  0  0  0  0  0  0  0  0  0  0  0
  -23.8163  -13.1294   20.2578 C   0  0  0  0  0  0  0  0  0  0  0  0
  -25.8290  -19.8785   20.8088 C   0  0  0  0  0  0  0  0  0  0  0  0
  -27.2762  -27.0735   19.8922 C   0  0  0  0  0  0  0  0  0  0  0  0
  -24.6035  -21.8044   21.6450 C   0  0  0  0  0  0  0  0  0  0  0  0
  -29.4406  -26.3092   19.3888 C   0  0  0  0  0  0  0  0  0  0  0  0
  -31.0927  -24.3250   18.3322 C   0  0  0  0  0  0  0  0  0  0  0  0
  -30.3999  -25.6976   20.1958 C   0  0  0  0  0  0  0  0  0  0  0  0
  -23.1021  -26.3872   19.8314 C   0  0  0  0  0  0  0  0  0  0  0  0
  -22.9304  -21.6834   25.5523 C   0  0  0  0  0  0  0  0  0  0  0  0
  -21.7581  -21.7576   26.2717 C   0  0  0  0  0  0  0  0  0  0  0  0
  -21.3988  -19.5273   25.9165 C   0  0  0  0  0  0  0  0  0  0  0  0
  -22.5707  -19.4532   25.1964 C   0  0  0  0  0  0  0  0  0  0  0  0
  -21.0525  -25.8518   19.2421 C   0  0  0  0  0  0  0  0  0  0  0  0
  -22.7535  -25.4889   17.4468 C   0  0  0  0  0  0  0  0  0  0  0  0
  -25.2227  -16.5389   20.4808 C   0  0  0  0  0  0  0  0  0  0  0  0
  -28.2845  -17.1927   19.6320 C   0  0  0  0  0  0  0  0  0  0  0  0
  -30.7698  -19.5091   19.3089 C   0  0  0  0  0  0  0  0  0  0  0  0
  -18.7786  -25.4594   24.7672 C   0  0  0  0  0  0  0  0  0  0  0  0
  -25.6610  -11.4644   20.8201 C   0  0  0  0  0  0  0  0  0  0  0  0
  -24.9055  -18.4899   18.9158 C   0  0  0  0  0  0  0  0  0  0  0  0
  -27.0505  -19.0009   20.8862 C   0  0  0  0  0  0  0  0  0  0  0  0
  -26.4813  -12.6647   21.2857 C   0  0  0  0  0  0  0  0  0  0  0  0
  -18.1690  -28.0285   22.3787 C   0  0  0  0  0  0  0  0  0  0  0  0
  -25.5882  -13.6807   21.9905 C   0  0  0  0  0  0  0  0  0  0  0  0
  -19.2952  -27.8540   21.3583 C   0  0  0  0  0  0  0  0  0  0  0  0
  -18.6448  -27.7360   23.8000 C   0  0  0  0  0  0  0  0  0  0  0  0
  -20.4209  -26.2496   22.9575 C   0  0  0  0  0  0  0  0  0  0  0  0
  -24.5119  -14.2213   21.0413 C   0  0  1  0  0  0  0  0  0  0  0  0
  -25.8352  -17.3801   19.3968 C   0  0  1  0  0  0  0  0  0  0  0  0
  -19.9752  -26.4793   21.5033 C   0  0  2  0  0  0  0  0  0  0  0  0
  -17.9469  -16.4770   23.8909 C   0  0  0  0  0  0  0  0  0  0  0  0
  -21.9156  -23.2622   28.2726 C   0  0  0  0  0  0  0  0  0  0  0  0
  -33.0082  -20.4494   18.6745 C   0  0  0  0  0  0  0  0  0  0  0  0
  -29.1520  -15.9493   22.2799 C   0  0  0  0  0  0  0  0  0  0  0  0
  -31.3860  -17.0391   21.9797 C   0  0  0  0  0  0  0  0  0  0  0  0
  -30.5917  -15.3501   20.3247 C   0  0  0  0  0  0  0  0  0  0  0  0
  -29.8301  -20.2236   16.5950 C   0  0  0  0  0  0  0  0  0  0  0  0
  -23.8019  -22.8957   25.3416 C   0  0  0  0  0  0  0  0  0  0  0  0
  -20.5306  -18.3336   26.1304 C   0  0  0  0  0  0  0  0  0  0  0  0
  -18.7884  -16.7877   25.1185 C   0  0  0  0  0  0  0  0  0  0  0  0
  -23.2632  -23.8660   24.2881 C   0  0  0  0  0  0  0  0  0  0  0  0
  -19.7053  -17.9875   24.8804 C   0  0  0  0  0  0  0  0  0  0  0  0
  -19.7487  -23.1736   26.9779 C   0  0  0  0  0  0  0  0  0  0  0  0
  -19.0308  -23.1455   25.6283 C   0  0  0  0  0  0  0  0  0  0  0  0
  -23.1968  -23.2630   22.8897 C   0  0  0  0  0  0  0  0  0  1  0  0
  -21.2965  -23.0398   26.8754 C   0  0  2  0  0  0  0  0  0  0  0  0
  -29.5248  -17.6418   20.3661 C   0  0  1  0  0  0  0  0  0  0  0  0
  -31.7254  -19.8088   18.1680 C   0  0  2  0  0  0  0  0  0  0  0  0
  -30.1398  -16.5107   21.2377 C   0  0  0  0  0  0  0  0  0  0  0  0
  -22.3634  -26.6514   20.9123 N   0  0  0  0  0  0  0  0  0  0  0  0
  -20.9713  -20.6809   26.4668 N   0  0  0  0  0  0  0  0  0  0  0  0
  -23.3578  -20.5298   25.0016 N   0  0  0  0  0  0  0  0  0  0  0  0
  -21.1218  -26.3157   20.5228 N   0  0  0  0  0  0  0  0  0  0  0  0
  -27.1038  -17.8921   19.9191 N   0  0  0  0  0  0  0  0  0  0  0  0
  -19.2786  -26.4172   23.8695 N   0  0  0  0  0  0  0  0  0  0  0  0
  -22.9645  -18.2138   24.6437 N   0  0  0  0  0  0  0  0  0  0  0  0
  -19.8808  -25.4698   18.6911 N   0  0  0  0  0  0  0  0  0  0  0  0
  -24.1120  -25.5890   17.1167 N   0  0  0  0  0  0  0  0  0  0  0  0
  -25.0775  -15.2065   20.1447 N   0  0  0  0  0  0  0  0  0  0  0  0
  -30.4291  -18.1737   19.3523 N   0  0  0  0  0  0  0  0  0  0  0  0
  -19.4329  -24.2336   24.7650 N   0  0  0  0  0  0  0  0  0  0  0  0
  -31.0902  -20.7375   17.1908 N   0  3  0  0  0  0  0  0  0  0  0  0
  -21.9416  -25.0728   16.5858 O   0  0  0  0  0  0  0  0  0  0  0  0
  -24.9068  -17.0599   21.5440 O   0  0  0  0  0  0  0  0  0  0  0  0
  -28.3620  -16.2604   18.8279 O   0  0  0  0  0  0  0  0  0  0  0  0
  -30.3689  -20.3725   20.0862 O   0  0  0  0  0  0  0  0  0  0  0  0
  -17.8167  -25.6785   25.5113 O   0  0  0  0  0  0  0  0  0  0  0  0
  -28.6192  -27.2937   19.9119 O   0  0  0  0  0  0  0  0  0  0  0  0
  -24.5088  -22.8560   22.5035 O   0  0  0  0  0  0  0  0  0  1  0  0
  -31.8849  -23.3713   17.8252 F   0  0  0  0  0  0  0  0  0  0  0  0
  -30.5318  -26.0580   21.4798 F   0  0  0  0  0  0  0  0  0  0  0  0
  1  2  1  0  0  0  0
  1  5  2  0  0  0  0
  2  6  2  0  0  0  0
  3  8  2  0  0  0  0
  3 15  1  0  0  0  0
  4  9  1  0  0  0  0
  4 15  2  0  0  0  0
  5 17  1  0  0  0  0
  6 19  1  0  0  0  0
  7 10  2  0  0  0  0
  7 18  1  0  0  0  0
  8 21  1  0  0  0  0
  9 21  2  0  0  0  0
 10 22  1  0  0  0  0
 11 12  2  0  0  0  0
 11 23  1  0  0  0  0
 12 24  1  0  0  0  0
 13 20  1  0  0  0  0
 13 22  2  0  0  0  0
 14 24  2  0  0  0  0
 14 25  1  0  0  0  0
 15 26  1  0  0  0  0
 16 26  1  0  0  0  0
 16 31  2  0  0  0  0
 16 32  1  0  0  0  0
 17 19  2  0  0  0  0
 17 37  1  0  0  0  0
 18 20  2  0  0  0  0
 18 38  1  0  0  0  0
 19 46  1  0  0  0  0
 20 39  1  0  0  0  0
 21 86  1  0  0  0  0
 22 87  1  0  0  0  0
 23 25  2  0  0  0  0
 23 86  1  0  0  0  0
 24 88  1  0  0  0  0
 25 89  1  0  0  0  0
 26 68  2  0  0  0  0
 27 28  1  0  0  0  0
 27 56  1  0  0  0  0
 27 70  2  0  0  0  0
 28 64  1  0  0  0  0
 28 69  2  0  0  0  0
 29 30  2  0  0  0  0
 29 57  1  0  0  0  0
 29 69  1  0  0  0  0
 30 70  1  0  0  0  0
 30 74  1  0  0  0  0
 31 71  1  0  0  0  0
 31 75  1  0  0  0  0
 32 76  1  0  0  0  0
 32 81  2  0  0  0  0
 33 47  1  0  0  0  0
 33 77  1  0  0  0  0
 33 82  2  0  0  0  0
 34 65  1  0  0  0  0
 34 72  1  0  0  0  0
 34 83  2  0  0  0  0
 35 66  1  0  0  0  0
 35 78  1  0  0  0  0
 35 84  2  0  0  0  0
 36 73  1  0  0  0  0
 36 79  1  0  0  0  0
 36 85  2  0  0  0  0
 37 40  1  0  0  0  0
 38 47  1  0  0  0  0
 39 72  1  0  0  0  0
 40 42  1  0  0  0  0
 41 43  1  0  0  0  0
 41 44  1  0  0  0  0
 42 46  1  0  0  0  0
 43 48  1  0  0  0  0
 44 73  1  0  0  0  0
 45 48  1  0  0  0  0
 45 73  1  0  0  0  0
 46 77  1  0  0  0  0
 47 72  1  0  0  0  0
 48 71  1  0  0  0  0
 49 58  1  0  0  0  0
 50 64  1  0  0  0  0
 51 66  1  0  0  0  0
 52 67  1  0  0  0  0
 53 67  1  0  0  0  0
 54 67  1  0  0  0  0
 55 80  1  0  0  0  0
 56 59  1  0  0  0  0
 57 60  1  0  0  0  0
 58 60  1  0  0  0  0
 59 63  1  0  0  0  0
 61 62  1  0  0  0  0
 61 64  1  0  0  0  0
 62 79  1  0  0  0  0
 63 87  1  0  0  0  0
 65 67  1  0  0  0  0
 65 78  1  0  0  0  0
 66 80  1  0  0  0  0
 68 71  1  0  0  0  0
M  CHG  1  80   1
M  ISO  4  36 100  63 101  79 100  87 101
M  END
> <Batch ID>
0081

> <Smiles>
CCCCc1nc(C(C)CC[100NH:0][100C:0](=O)N2CCCC(n3nc(-c4ccc(Oc5ccc(F)cc5F)cc4)c(C(N)=O)c3N)C2)c(CC[101CH2:1][101O:1]c2ccc3c(c2)CN(C(=O)C(NC(=O)C(C)NC)C(C)(C)C)C(C(=O)NC2CCCc4ccccc42)C3)nc1N

> <Shape>
0.189

> <Color>
0.065

> <Negative vol penalty>
0.000

$$$$

  -OEChem-04052318463D

 86 94  0     1  0  0  0  0  0999 V2000
  -16.5634  -29.3152   23.9546 C   0  0  0  0  0  0  0  0  0  0  0  0
  -17.1501  -28.3600   23.1308 C   0  0  0  0  0  0  0  0  0  0  0  0
  -24.3048  -13.0280   21.3092 C   0  0  0  0  0  0  0  0  0  0  0  0
  -26.4267  -13.0096   20.1542 C   0  0  0  0  0  0  0  0  0  0  0  0
  -17.1833  -30.5503   24.1392 C   0  0  0  0  0  0  0  0  0  0  0  0
  -18.3566  -28.6397   22.4902 C   0  0  0  0  0  0  0  0  0  0  0  0
  -24.3672  -25.4418   20.2624 C   0  0  0  0  0  0  0  0  0  0  0  0
  -24.0344  -11.7452   20.8329 C   0  0  0  0  0  0  0  0  0  0  0  0
  -26.1563  -11.7268   19.6778 C   0  0  0  0  0  0  0  0  0  0  0  0
  -25.1550  -25.3055   19.1202 C   0  0  0  0  0  0  0  0  0  0  0  0
  -24.9250   -8.5706   21.5822 C   0  0  0  0  0  0  0  0  0  0  0  0
  -24.4160   -7.6376   22.4856 C   0  0  0  0  0  0  0  0  0  0  0  0
  -26.1751  -27.4435   19.5759 C   0  0  0  0  0  0  0  0  0  0  0  0
  -28.9767  -23.5687   16.3111 C   0  0  0  0  0  0  0  0  0  0  0  0
  -29.7528  -24.3296   18.4566 C   0  0  0  0  0  0  0  0  0  0  0  0
  -22.4364   -7.3969   21.1216 C   0  0  0  0  0  0  0  0  0  0  0  0
  -25.5010  -13.6602   20.9698 C   0  0  0  0  0  0  0  0  0  0  0  0
  -26.4360  -15.3273   22.6593 C   0  0  0  0  0  0  0  0  0  0  0  0
  -18.4030  -30.8418   23.5081 C   0  0  0  0  0  0  0  0  0  0  0  0
  -24.4698  -26.5869   21.0653 C   0  0  0  0  0  0  0  0  0  0  0  0
  -18.9928  -29.8804   22.6654 C   0  0  0  0  0  0  0  0  0  0  0  0
  -25.3893  -27.5908   20.7292 C   0  0  0  0  0  0  0  0  0  0  0  0
  -29.2791  -24.6112   17.1801 C   0  0  0  0  0  0  0  0  0  0  0  0
  -24.9601  -11.0946   20.0172 C   0  0  0  0  0  0  0  0  0  0  0  0
  -26.0570  -26.3077   18.7752 C   0  0  0  0  0  0  0  0  0  0  0  0
  -24.1897   -8.9169   20.4486 C   0  0  0  0  0  0  0  0  0  0  0  0
  -23.1718   -7.0507   22.2552 C   0  0  0  0  0  0  0  0  0  0  0  0
  -22.9454   -8.3300   20.2183 C   0  0  0  0  0  0  0  0  0  0  0  0
  -25.7806  -14.9856   21.4612 C   0  0  0  0  0  0  0  0  0  0  0  0
  -29.1639  -22.2725   16.7634 C   0  0  0  0  0  0  0  0  0  0  0  0
  -29.9050  -22.9993   18.8129 C   0  0  0  0  0  0  0  0  0  0  0  0
  -26.4508  -16.7007   22.6629 C   0  0  0  0  0  0  0  0  0  0  0  0
  -26.9826  -14.4791   23.6778 C   0  0  0  0  0  0  0  0  0  0  0  0
  -22.4801  -28.9147   21.9173 C   0  0  0  0  0  0  0  0  0  0  0  0
  -24.9536  -29.8030   23.8186 C   0  0  0  0  0  0  0  0  0  0  0  0
  -28.3125  -29.7434   24.4196 C   0  0  0  0  0  0  0  0  0  0  0  0
  -27.2386  -21.5661   20.0451 C   0  0  0  0  0  0  0  0  0  0  0  0
  -19.0116  -32.2083   23.7005 C   0  0  0  0  0  0  0  0  0  0  0  0
  -23.6321  -26.7067   22.3088 C   0  0  0  0  0  0  0  0  0  0  0  0
  -25.5522  -28.8305   21.5689 C   0  0  0  0  0  0  0  0  0  0  0  0
  -20.4777  -32.2864   23.2825 C   0  0  0  0  0  0  0  0  0  0  0  0
  -24.0461  -20.0268   19.7064 C   0  0  0  0  0  0  0  0  0  0  0  0
  -20.6812  -31.6251   21.9231 C   0  0  0  0  0  0  0  0  0  0  0  0
  -24.2685  -18.6052   20.2255 C   0  0  0  0  0  0  0  0  0  0  0  0
  -25.2648  -20.5479   18.9480 C   0  0  0  0  0  0  0  0  0  0  0  0
  -26.7589  -19.0484   20.2101 C   0  0  0  0  0  0  0  0  0  0  0  0
  -20.3136  -30.1372   21.9729 C   0  0  1  0  0  0  0  0  0  0  0  0
  -23.4513  -28.1493   22.7708 C   0  0  1  0  0  0  0  0  0  0  0  0
  -25.5782  -18.5005   21.0299 C   0  0  2  0  0  0  0  0  0  0  0  0
  -28.8513  -21.1286   15.8575 C   0  0  0  0  0  0  0  0  0  0  0  0
  -30.0410  -30.5907   26.0295 C   0  0  0  0  0  0  0  0  0  0  0  0
  -28.5585  -26.2121   15.2835 C   0  0  0  0  0  0  0  0  0  0  0  0
  -30.4567  -26.7956   16.7782 C   0  0  0  0  0  0  0  0  0  0  0  0
  -31.3803  -23.7129   20.8156 C   0  0  0  0  0  0  0  0  0  0  0  0
  -31.2312  -21.3308   20.1377 C   0  0  0  0  0  0  0  0  0  0  0  0
  -24.7568  -32.5781   22.5656 C   0  0  0  0  0  0  0  0  0  0  0  0
  -27.0364  -33.0738   23.4745 C   0  0  0  0  0  0  0  0  0  0  0  0
  -25.1551  -32.5741   25.0346 C   0  0  0  0  0  0  0  0  0  0  0  0
  -29.1260  -26.9988   25.1708 C   0  0  0  0  0  0  0  0  0  0  0  0
  -29.2479  -22.4402   21.2103 C   0  0  0  0  0  0  0  0  0  0  0  0
  -28.1083  -26.8049   17.6792 C   0  0  0  0  0  0  0  0  0  1  0  0
  -26.1550  -30.7031   23.6592 C   0  0  1  0  0  0  0  0  0  0  0  0
  -29.1053  -29.4442   25.6791 C   0  0  2  0  0  0  0  0  0  0  0  0
  -29.0912  -26.0722   16.7299 C   0  0  0  0  0  0  0  0  0  0  0  0
  -30.4093  -22.6605   20.1758 C   0  0  0  0  0  0  0  0  0  0  0  0
  -25.7716  -32.2099   23.6664 C   0  0  0  0  0  0  0  0  0  0  0  0
  -25.4061  -16.0556   20.7550 N   0  0  0  0  0  0  0  0  0  0  0  0
  -29.6219  -21.9598   17.9963 N   0  0  0  0  0  0  0  0  0  0  0  0
  -25.8274  -17.0832   21.5117 N   0  0  0  0  0  0  0  0  0  0  0  0
  -24.7061  -28.9040   22.7715 N   0  0  0  0  0  0  0  0  0  0  0  0
  -26.4731  -20.4218   19.7666 N   0  0  0  0  0  0  0  0  0  0  0  0
  -26.9361  -17.6064   23.5384 N   0  0  0  0  0  0  0  0  0  0  0  0
  -26.8818  -13.0906   23.5162 N   0  0  0  0  0  0  0  0  0  0  0  0
  -21.3718  -29.3760   22.6017 N   0  0  0  0  0  0  0  0  0  0  0  0
  -27.0939  -30.3205   24.7081 N   0  0  0  0  0  0  0  0  0  0  0  0
  -28.3643  -21.3596   20.8331 N   0  0  0  0  0  0  0  0  0  0  0  0
  -29.9213  -28.2105   25.4968 N   0  3  0  0  0  0  0  0  0  0  0  0
  -27.5293  -14.9391   24.7089 O   0  0  0  0  0  0  0  0  0  0  0  0
  -22.7193  -29.0763   20.7264 O   0  0  0  0  0  0  0  0  0  0  0  0
  -24.2645  -29.8891   24.8381 O   0  0  0  0  0  0  0  0  0  0  0  0
  -28.7338  -29.4938   23.2923 O   0  0  0  0  0  0  0  0  0  0  0  0
  -26.9380  -22.6895   19.6273 O   0  0  0  0  0  0  0  0  0  0  0  0
  -24.6967   -9.8428   19.5523 O   0  0  0  0  0  0  0  0  0  0  0  0
  -26.8267  -26.1775   17.6605 O   0  0  0  0  0  0  0  0  0  1  0  0
  -22.6838   -6.1536   23.1220 F   0  0  0  0  0  0  0  0  0  0  0  0
  -22.2349   -8.6578   19.1304 F   0  0  0  0  0  0  0  0  0  0  0  0
  1  2  1  0  0  0  0
  1  5  2  0  0  0  0
  2  6  2  0  0  0  0
  3  8  2  0  0  0  0
  3 17  1  0  0  0  0
  4  9  1  0  0  0  0
  4 17  2  0  0  0  0
  5 19  1  0  0  0  0
  6 21  1  0  0  0  0
  7 10  2  0  0  0  0
  7 20  1  0  0  0  0
  8 24  1  0  0  0  0
  9 24  2  0  0  0  0
 10 25  1  0  0  0  0
 11 12  2  0  0  0  0
 11 26  1  0  0  0  0
 12 27  1  0  0  0  0
 13 22  1  0  0  0  0
 13 25  2  0  0  0  0
 14 23  1  0  0  0  0
 14 30  2  0  0  0  0
 15 23  2  0  0  0  0
 15 31  1  0  0  0  0
 16 27  2  0  0  0  0
 16 28  1  0  0  0  0
 17 29  1  0  0  0  0
 18 29  1  0  0  0  0
 18 32  2  0  0  0  0
 18 33  1  0  0  0  0
 19 21  2  0  0  0  0
 19 38  1  0  0  0  0
 20 22  2  0  0  0  0
 20 39  1  0  0  0  0
 21 47  1  0  0  0  0
 22 40  1  0  0  0  0
 23 64  1  0  0  0  0
 24 83  1  0  0  0  0
 25 84  1  0  0  0  0
 26 28  2  0  0  0  0
 26 83  1  0  0  0  0
 27 85  1  0  0  0  0
 28 86  1  0  0  0  0
 29 67  2  0  0  0  0
 30 50  1  0  0  0  0
 30 68  1  0  0  0  0
 31 65  1  0  0  0  0
 31 68  2  0  0  0  0
 32 69  1  0  0  0  0
 32 72  1  0  0  0  0
 33 73  1  0  0  0  0
 33 78  2  0  0  0  0
 34 48  1  0  0  0  0
 34 74  1  0  0  0  0
 34 79  2  0  0  0  0
 35 62  1  0  0  0  0
 35 70  1  0  0  0  0
 35 80  2  0  0  0  0
 36 63  1  0  0  0  0
 36 75  1  0  0  0  0
 36 81  2  0  0  0  0
 37 71  1  0  0  0  0
 37 76  1  0  0  0  0
 37 82  2  0  0  0  0
 38 41  1  0  0  0  0
 39 48  1  0  0  0  0
 40 70  1  0  0  0  0
 41 43  1  0  0  0  0
 42 44  1  0  0  0  0
 42 45  1  0  0  0  0
 43 47  1  0  0  0  0
 44 49  1  0  0  0  0
 45 71  1  0  0  0  0
 46 49  1  0  0  0  0
 46 71  1  0  0  0  0
 47 74  1  0  0  0  0
 48 70  1  0  0  0  0
 49 69  1  0  0  0  0
 51 63  1  0  0  0  0
 52 64  1  0  0  0  0
 53 64  1  0  0  0  0
 54 65  1  0  0  0  0
 55 65  1  0  0  0  0
 56 66  1  0  0  0  0
 57 66  1  0  0  0  0
 58 66  1  0  0  0  0
 59 77  1  0  0  0  0
 60 65  1  0  0  0  0
 60 76  1  0  0  0  0
 61 64  1  0  0  0  0
 61 84  1  0  0  0  0
 62 66  1  0  0  0  0
 62 75  1  0  0  0  0
 63 77  1  0  0  0  0
 67 69  1  0  0  0  0
M  CHG  1  77   1
M  ISO  4  37 100  61 101  76 100  84 101
M  END
> <Batch ID>
0081

> <Smiles>
CNC(C)C(=O)NC(C(=O)N1Cc2cc([101O:1][101CH2:1]C(C)(C)c3cc(C)nc(C(C)(C)C[100NH:0][100C:0](=O)N4CCCC(n5nc(-c6ccc(Oc7ccc(F)cc7F)cc6)c(C(N)=O)c5N)C4)c3)ccc2CC1C(=O)NC1CCCc2ccccc21)C(C)(C)C

> <Shape>
0.274

> <Color>
0.066

> <Negative vol penalty>
0.000

$$$$

  -OEChem-04052318463D

 84 92  0     1  0  0  0  0  0999 V2000
  -24.1392  -10.6951   19.5638 C   0  0  0  0  0  0  0  0  0  0  0  0
  -23.8324  -11.8091   20.3386 C   0  0  0  0  0  0  0  0  0  0  0  0
  -25.2077  -31.4316   23.8562 C   0  0  0  0  0  0  0  0  0  0  0  0
  -26.0267  -29.1856   24.2049 C   0  0  0  0  0  0  0  0  0  0  0  0
  -25.4710  -10.3628   19.3193 C   0  0  0  0  0  0  0  0  0  0  0  0
  -24.8574  -12.5908   20.8704 C   0  0  0  0  0  0  0  0  0  0  0  0
  -24.0059  -17.5516   20.3131 C   0  0  0  0  0  0  0  0  0  0  0  0
  -26.1566  -31.9173   24.7558 C   0  0  0  0  0  0  0  0  0  0  0  0
  -26.9757  -29.6713   25.1045 C   0  0  0  0  0  0  0  0  0  0  0  0
  -23.1047  -18.1460   21.1953 C   0  0  0  0  0  0  0  0  0  0  0  0
  -28.1286  -33.7043   27.2340 C   0  0  0  0  0  0  0  0  0  0  0  0
  -27.7082  -34.6376   28.1815 C   0  0  0  0  0  0  0  0  0  0  0  0
  -24.9490  -18.9857   22.5040 C   0  0  0  0  0  0  0  0  0  0  0  0
  -26.1264  -33.0354   29.0578 C   0  0  0  0  0  0  0  0  0  0  0  0
  -22.9053  -23.6592   22.1396 C   0  0  0  0  0  0  0  0  0  0  0  0
  -25.1427  -30.0657   23.5808 C   0  0  0  0  0  0  0  0  0  0  0  0
  -24.3127  -29.4021   21.2617 C   0  0  0  0  0  0  0  0  0  0  0  0
  -26.5127  -11.1464   19.8403 C   0  0  0  0  0  0  0  0  0  0  0  0
  -25.3876  -17.6607   20.5262 C   0  0  0  0  0  0  0  0  0  0  0  0
  -26.2044  -12.2679   20.6337 C   0  0  0  0  0  0  0  0  0  0  0  0
  -25.8657  -18.3939   21.6217 C   0  0  0  0  0  0  0  0  0  0  0  0
  -27.0406  -31.0372   25.3799 C   0  0  0  0  0  0  0  0  0  0  0  0
  -23.5761  -18.8607   22.2926 C   0  0  0  0  0  0  0  0  0  0  0  0
  -27.5478  -32.4366   27.1984 C   0  0  0  0  0  0  0  0  0  0  0  0
  -26.7071  -34.3032   29.0935 C   0  0  0  0  0  0  0  0  0  0  0  0
  -26.5468  -32.1021   28.1103 C   0  0  0  0  0  0  0  0  0  0  0  0
  -24.1623  -29.5633   22.6521 C   0  0  0  0  0  0  0  0  0  0  0  0
  -21.9101  -22.7534   21.9030 C   0  0  0  0  0  0  0  0  0  0  0  0
  -23.1066  -28.8962   20.8423 C   0  0  0  0  0  0  0  0  0  0  0  0
  -22.5391  -23.6012   19.9572 C   0  0  0  0  0  0  0  0  0  0  0  0
  -25.4417  -29.6842   20.4242 C   0  0  0  0  0  0  0  0  0  0  0  0
  -27.7416  -15.5980   21.0810 C   0  0  0  0  0  0  0  0  0  0  0  0
  -29.5995  -18.2429   20.8069 C   0  0  0  0  0  0  0  0  0  0  0  0
  -29.8499  -21.6407   21.0039 C   0  0  0  0  0  0  0  0  0  0  0  0
  -18.8191  -25.3801   21.4748 C   0  0  0  0  0  0  0  0  0  0  0  0
  -27.9374  -10.7204   19.5883 C   0  0  0  0  0  0  0  0  0  0  0  0
  -26.3470  -17.0363   19.5504 C   0  0  0  0  0  0  0  0  0  0  0  0
  -27.3397  -18.5578   21.8837 C   0  0  0  0  0  0  0  0  0  0  0  0
  -28.9607  -11.8158   19.8767 C   0  0  0  0  0  0  0  0  0  0  0  0
  -18.6981  -28.4458   23.2814 C   0  0  0  0  0  0  0  0  0  0  0  0
  -28.6661  -12.4821   21.2169 C   0  0  0  0  0  0  0  0  0  0  0  0
  -20.1222  -28.9929   23.1692 C   0  0  0  0  0  0  0  0  0  0  0  0
  -18.6865  -26.9240   23.4075 C   0  0  0  0  0  0  0  0  0  0  0  0
  -20.8491  -26.7563   22.2376 C   0  0  0  0  0  0  0  0  0  0  0  0
  -27.2881  -13.1548   21.2074 C   0  0  1  0  0  0  0  0  0  0  0  0
  -27.7256  -16.7776   20.1504 C   0  0  1  0  0  0  0  0  0  0  0  0
  -20.9096  -28.2822   22.0520 C   0  0  2  0  0  0  0  0  0  0  0  0
  -22.6454  -23.8918   18.5058 C   0  0  0  0  0  0  0  0  0  0  0  0
  -31.5053  -23.5113   20.7630 C   0  0  0  0  0  0  0  0  0  0  0  0
  -18.3413  -21.4984   19.1842 C   0  0  0  0  0  0  0  0  0  0  0  0
  -30.7939  -17.5325   23.5233 C   0  0  0  0  0  0  0  0  0  0  0  0
  -31.6972  -19.8636   23.6578 C   0  0  0  0  0  0  0  0  0  0  0  0
  -32.4518  -18.3388   21.8334 C   0  0  0  0  0  0  0  0  0  0  0  0
  -28.3169  -22.8673   18.7894 C   0  0  0  0  0  0  0  0  0  0  0  0
  -21.1265  -21.8900   22.8590 C   0  0  0  0  0  0  0  0  0  0  0  0
  -21.9082  -21.4941   24.1135 C   0  0  0  0  0  0  0  0  0  0  0  0
  -20.7326  -21.9165   19.8467 C   0  0  0  0  0  0  0  0  0  0  0  0
  -19.1040  -23.8875   19.5127 C   0  0  0  0  0  0  0  0  0  0  0  0
  -23.1287  -20.6304   23.8170 C   0  0  0  0  0  0  0  0  0  1  0  0
  -30.1117  -19.2933   21.7625 C   0  0  1  0  0  0  0  0  0  0  0  0
  -30.4576  -22.6624   20.0598 C   0  0  2  0  0  0  0  0  0  0  0  0
  -19.2803  -22.4273   19.9622 C   0  0  1  0  0  0  0  0  0  0  0  0
  -31.2358  -18.7525   22.6907 C   0  0  0  0  0  0  0  0  0  0  0  0
  -22.9558  -29.1903   23.0869 N   0  0  0  0  0  0  0  0  0  0  0  0
  -21.7037  -22.7382   20.5446 N   0  0  0  0  0  0  0  0  0  0  0  0
  -22.3370  -28.7897   21.9632 N   0  0  0  0  0  0  0  0  0  0  0  0
  -23.2757  -24.1680   20.9181 N   0  3  0  0  0  0  0  0  0  0  0  0
  -28.2378  -17.9235   20.9047 N   0  0  0  0  0  0  0  0  0  0  0  0
  -19.4490  -26.3112   22.3171 N   0  0  0  0  0  0  0  0  0  0  0  0
  -22.6399  -28.5367   19.6277 N   0  0  0  0  0  0  0  0  0  0  0  0
  -26.6017  -30.2002   21.0179 N   0  0  0  0  0  0  0  0  0  0  0  0
  -27.3444  -14.4122   20.4931 N   0  0  0  0  0  0  0  0  0  0  0  0
  -30.5104  -20.4319   20.9422 N   0  0  0  0  0  0  0  0  0  0  0  0
  -19.6115  -24.8520   20.4629 N   0  0  0  0  0  0  0  0  0  0  0  0
  -29.4007  -23.5673   19.5258 N   0  3  0  0  0  0  0  0  0  0  0  0
  -25.4168  -29.5001   19.1836 O   0  0  0  0  0  0  0  0  0  0  0  0
  -28.0899  -15.7520   22.2457 O   0  0  0  0  0  0  0  0  0  0  0  0
  -30.3774  -17.7300   19.9985 O   0  0  0  0  0  0  0  0  0  0  0  0
  -28.8880  -21.8912   21.7268 O   0  0  0  0  0  0  0  0  0  0  0  0
  -17.6366  -25.0484   21.6110 O   0  0  0  0  0  0  0  0  0  0  0  0
  -27.9669  -31.5108   26.2576 O   0  0  0  0  0  0  0  0  0  0  0  0
  -22.6986  -19.4413   23.1556 O   0  0  0  0  0  0  0  0  0  1  0  0
  -26.3045  -35.1990   30.0043 F   0  0  0  0  0  0  0  0  0  0  0  0
  -25.9860  -30.8853   28.0817 F   0  0  0  0  0  0  0  0  0  0  0  0
  1  2  1  0  0  0  0
  1  5  2  0  0  0  0
  2  6  2  0  0  0  0
  3  8  2  0  0  0  0
  3 16  1  0  0  0  0
  4  9  1  0  0  0  0
  4 16  2  0  0  0  0
  5 18  1  0  0  0  0
  6 20  1  0  0  0  0
  7 10  2  0  0  0  0
  7 19  1  0  0  0  0
  8 22  1  0  0  0  0
  9 22  2  0  0  0  0
 10 23  1  0  0  0  0
 11 12  2  0  0  0  0
 11 24  1  0  0  0  0
 12 25  1  0  0  0  0
 13 21  1  0  0  0  0
 13 23  2  0  0  0  0
 14 25  2  0  0  0  0
 14 26  1  0  0  0  0
 15 28  2  0  0  0  0
 15 67  1  0  0  0  0
 16 27  1  0  0  0  0
 17 27  1  0  0  0  0
 17 29  2  0  0  0  0
 17 31  1  0  0  0  0
 18 20  2  0  0  0  0
 18 36  1  0  0  0  0
 19 21  2  0  0  0  0
 19 37  1  0  0  0  0
 20 45  1  0  0  0  0
 21 38  1  0  0  0  0
 22 81  1  0  0  0  0
 23 82  1  0  0  0  0
 24 26  2  0  0  0  0
 24 81  1  0  0  0  0
 25 83  1  0  0  0  0
 26 84  1  0  0  0  0
 27 64  2  0  0  0  0
 28 55  1  0  0  0  0
 28 65  1  0  0  0  0
 29 66  1  0  0  0  0
 29 70  1  0  0  0  0
 30 48  1  0  0  0  0
 30 65  1  0  0  0  0
 30 67  2  0  0  0  0
 31 71  1  0  0  0  0
 31 76  2  0  0  0  0
 32 46  1  0  0  0  0
 32 72  1  0  0  0  0
 32 77  2  0  0  0  0
 33 60  1  0  0  0  0
 33 68  1  0  0  0  0
 33 78  2  0  0  0  0
 34 61  1  0  0  0  0
 34 73  1  0  0  0  0
 34 79  2  0  0  0  0
 35 69  1  0  0  0  0
 35 74  1  0  0  0  0
 35 80  2  0  0  0  0
 36 39  1  0  0  0  0
 37 46  1  0  0  0  0
 38 68  1  0  0  0  0
 39 41  1  0  0  0  0
 40 42  1  0  0  0  0
 40 43  1  0  0  0  0
 41 45  1  0  0  0  0
 42 47  1  0  0  0  0
 43 69  1  0  0  0  0
 44 47  1  0  0  0  0
 44 69  1  0  0  0  0
 45 72  1  0  0  0  0
 46 68  1  0  0  0  0
 47 66  1  0  0  0  0
 49 61  1  0  0  0  0
 50 62  1  0  0  0  0
 51 63  1  0  0  0  0
 52 63  1  0  0  0  0
 53 63  1  0  0  0  0
 54 75  1  0  0  0  0
 55 56  1  0  0  0  0
 56 59  1  0  0  0  0
 57 62  1  0  0  0  0
 57 65  1  0  0  0  0
 58 62  1  0  0  0  0
 58 74  1  0  0  0  0
 59 82  1  0  0  0  0
 60 63  1  0  0  0  0
 60 73  1  0  0  0  0
 61 75  1  0  0  0  0
 64 66  1  0  0  0  0
M  CHG  2  67   1  75   1
M  ISO  4  35 100  59 101  74 100  82 101
M  END
> <Batch ID>
0081

> <Smiles>
CNC(C)C(=O)NC(C(=O)N1Cc2cc([101O:1][101CH2:1]CCc3cnc(C)n3CC(C)C[100NH:0][100C:0](=O)N3CCCC(n4nc(-c5ccc(Oc6ccc(F)cc6F)cc5)c(C(N)=O)c4N)C3)ccc2CC1C(=O)NC1CCCc2ccccc21)C(C)(C)C

> <Shape>
0.252

> <Color>
0.050

> <Negative vol penalty>
0.000

$$$$

  -OEChem-04052318463D

 83 91  0     1  0  0  0  0  0999 V2000
  -17.6070  -27.8819   25.8800 C   0  0  0  0  0  0  0  0  0  0  0  0
  -18.1692  -26.6101   25.9238 C   0  0  0  0  0  0  0  0  0  0  0  0
  -19.3622  -18.0402   23.2390 C   0  0  0  0  0  0  0  0  0  0  0  0
  -21.2179  -19.3106   22.3561 C   0  0  0  0  0  0  0  0  0  0  0  0
  -17.8321  -28.7047   24.7772 C   0  0  0  0  0  0  0  0  0  0  0  0
  -18.9560  -26.1600   24.8641 C   0  0  0  0  0  0  0  0  0  0  0  0
  -24.6253  -22.0011   23.4936 C   0  0  0  0  0  0  0  0  0  0  0  0
  -19.1454  -19.0259   24.2018 C   0  0  0  0  0  0  0  0  0  0  0  0
  -21.0011  -20.2963   23.3189 C   0  0  0  0  0  0  0  0  0  0  0  0
  -25.0084  -20.9367   22.6786 C   0  0  0  0  0  0  0  0  0  0  0  0
  -17.8769  -21.3800   26.6643 C   0  0  0  0  0  0  0  0  0  0  0  0
  -16.5628  -21.7913   26.8868 C   0  0  0  0  0  0  0  0  0  0  0  0
  -25.3940  -22.4751   20.8610 C   0  0  0  0  0  0  0  0  0  0  0  0
  -27.5574  -17.3963   19.9759 C   0  0  0  0  0  0  0  0  0  0  0  0
  -16.3925  -22.4940   24.5815 C   0  0  0  0  0  0  0  0  0  0  0  0
  -20.3985  -18.1825   22.3162 C   0  0  0  0  0  0  0  0  0  0  0  0
  -20.0588  -17.0945   20.0340 C   0  0  0  0  0  0  0  0  0  0  0  0
  -18.6300  -28.2681   23.7078 C   0  0  0  0  0  0  0  0  0  0  0  0
  -24.6132  -23.3114   22.9942 C   0  0  0  0  0  0  0  0  0  0  0  0
  -19.1908  -26.9772   23.7454 C   0  0  0  0  0  0  0  0  0  0  0  0
  -25.0128  -23.5546   21.6724 C   0  0  0  0  0  0  0  0  0  0  0  0
  -27.7621  -18.5192   19.1935 C   0  0  0  0  0  0  0  0  0  0  0  0
  -19.9648  -20.1539   24.2418 C   0  0  0  0  0  0  0  0  0  0  0  0
  -25.3901  -21.1733   21.3613 C   0  0  0  0  0  0  0  0  0  0  0  0
  -18.4489  -21.5257   25.4005 C   0  0  0  0  0  0  0  0  0  0  0  0
  -15.8206  -22.3483   25.8454 C   0  0  0  0  0  0  0  0  0  0  0  0
  -17.7067  -22.0827   24.3591 C   0  0  0  0  0  0  0  0  0  0  0  0
  -20.6233  -17.1644   21.3217 C   0  0  0  0  0  0  0  0  0  0  0  0
  -28.6562  -16.8243   20.5850 C   0  0  0  0  0  0  0  0  0  0  0  0
  -29.0520  -18.9958   19.0722 C   0  0  0  0  0  0  0  0  0  0  0  0
  -20.5856  -15.9486   19.4899 C   0  0  0  0  0  0  0  0  0  0  0  0
  -19.1405  -17.9857   19.3874 C   0  0  0  0  0  0  0  0  0  0  0  0
  -22.3741  -25.5249   22.5577 C   0  0  0  0  0  0  0  0  0  0  0  0
  -24.9130  -27.3772   21.7543 C   0  0  0  0  0  0  0  0  0  0  0  0
  -28.1268  -27.5537   20.6199 C   0  0  0  0  0  0  0  0  0  0  0  0
  -25.6085  -12.8668   20.5501 C   0  0  0  0  0  0  0  0  0  0  0  0
  -18.8060  -29.1752   22.5158 C   0  0  0  0  0  0  0  0  0  0  0  0
  -24.2229  -24.4517   23.8941 C   0  0  0  0  0  0  0  0  0  0  0  0
  -25.0365  -24.9452   21.0942 C   0  0  0  0  0  0  0  0  0  0  0  0
  -19.9592  -28.7652   21.6035 C   0  0  0  0  0  0  0  0  0  0  0  0
  -22.2690  -11.6453   20.7303 C   0  0  0  0  0  0  0  0  0  0  0  0
  -19.9156  -27.2653   21.3293 C   0  0  0  0  0  0  0  0  0  0  0  0
  -21.4176  -12.9150   20.7861 C   0  0  0  0  0  0  0  0  0  0  0  0
  -23.5787  -11.8098   21.4983 C   0  0  0  0  0  0  0  0  0  0  0  0
  -23.5328  -14.2507   21.1609 C   0  0  0  0  0  0  0  0  0  0  0  0
  -20.0704  -26.4625   22.6266 C   0  0  1  0  0  0  0  0  0  0  0  0
  -23.7552  -25.6849   23.1273 C   0  0  1  0  0  0  0  0  0  0  0  0
  -22.2271  -14.1523   20.3537 C   0  0  2  0  0  0  0  0  0  0  0  0
  -29.3489  -20.2008   18.2450 C   0  0  0  0  0  0  0  0  0  0  0  0
  -29.9194  -29.2077   20.0297 C   0  0  0  0  0  0  0  0  0  0  0  0
  -23.4654  -28.0110   19.1442 C   0  0  0  0  0  0  0  0  0  0  0  0
  -25.6377  -28.8491   18.2240 C   0  0  0  0  0  0  0  0  0  0  0  0
  -24.6099  -29.9660   20.2037 C   0  0  0  0  0  0  0  0  0  0  0  0
  -29.9563  -26.4834   22.6853 C   0  0  0  0  0  0  0  0  0  0  0  0
  -26.5948  -19.1841   18.5055 C   0  0  0  0  0  0  0  0  0  0  0  0
  -28.4900  -15.6133   21.4377 C   0  0  0  0  0  0  0  0  0  0  0  0
  -28.6153  -14.2761   20.6802 C   0  0  0  0  0  0  0  0  0  0  0  0
  -27.5600  -14.0671   19.5962 C   0  0  0  0  0  0  0  0  0  0  0  0
  -26.1429  -20.4507   19.2242 C   0  0  0  0  0  0  0  0  0  1  0  0
  -25.6535  -27.6791   20.4739 C   0  0  1  0  0  0  0  0  0  0  0  0
  -29.3313  -28.3289   21.1226 C   0  0  2  0  0  0  0  0  0  0  0  0
  -24.8394  -28.5998   19.5215 C   0  0  0  0  0  0  0  0  0  0  0  0
  -21.4455  -16.1441   21.5804 N   0  0  0  0  0  0  0  0  0  0  0  0
  -29.9074  -17.3121   20.4487 N   0  0  0  0  0  0  0  0  0  0  0  0
  -30.1085  -18.4159   19.6800 N   0  0  0  0  0  0  0  0  0  0  0  0
  -21.4015  -15.4221   20.4477 N   0  0  0  0  0  0  0  0  0  0  0  0
  -24.6403  -26.0262   22.0118 N   0  0  0  0  0  0  0  0  0  0  0  0
  -24.2985  -13.0002   21.0393 N   0  0  0  0  0  0  0  0  0  0  0  0
  -20.4257  -15.3500   18.2905 N   0  0  0  0  0  0  0  0  0  0  0  0
  -18.6998  -19.1158   20.0894 N   0  0  0  0  0  0  0  0  0  0  0  0
  -21.4563  -26.4369   23.0428 N   0  0  0  0  0  0  0  0  0  0  0  0
  -26.9478  -28.2237   20.8695 N   0  0  0  0  0  0  0  0  0  0  0  0
  -26.2163  -14.0435   20.1298 N   0  0  0  0  0  0  0  0  0  0  0  0
  -30.3905  -27.3922   21.5933 N   0  3  0  0  0  0  0  0  0  0  0  0
  -18.7104  -17.7770   18.2276 O   0  0  0  0  0  0  0  0  0  0  0  0
  -22.1575  -24.6404   21.7376 O   0  0  0  0  0  0  0  0  0  0  0  0
  -24.5947  -28.3052   22.5020 O   0  0  0  0  0  0  0  0  0  0  0  0
  -28.2226  -26.4647   20.0583 O   0  0  0  0  0  0  0  0  0  0  0  0
  -26.1911  -11.7789   20.4873 O   0  0  0  0  0  0  0  0  0  0  0  0
  -19.7534  -21.1161   25.1810 O   0  0  0  0  0  0  0  0  0  0  0  0
  -25.7639  -20.1361   20.5635 O   0  0  0  0  0  0  0  0  0  1  0  0
  -14.5582  -22.7419   26.0588 F   0  0  0  0  0  0  0  0  0  0  0  0
  -18.2504  -22.2241   23.1424 F   0  0  0  0  0  0  0  0  0  0  0  0
  1  2  1  0  0  0  0
  1  5  2  0  0  0  0
  2  6  2  0  0  0  0
  3  8  2  0  0  0  0
  3 16  1  0  0  0  0
  4  9  1  0  0  0  0
  4 16  2  0  0  0  0
  5 18  1  0  0  0  0
  6 20  1  0  0  0  0
  7 10  2  0  0  0  0
  7 19  1  0  0  0  0
  8 23  1  0  0  0  0
  9 23  2  0  0  0  0
 10 24  1  0  0  0  0
 11 12  2  0  0  0  0
 11 25  1  0  0  0  0
 12 26  1  0  0  0  0
 13 21  1  0  0  0  0
 13 24  2  0  0  0  0
 14 22  1  0  0  0  0
 14 29  2  0  0  0  0
 15 26  2  0  0  0  0
 15 27  1  0  0  0  0
 16 28  1  0  0  0  0
 17 28  1  0  0  0  0
 17 31  2  0  0  0  0
 17 32  1  0  0  0  0
 18 20  2  0  0  0  0
 18 37  1  0  0  0  0
 19 21  2  0  0  0  0
 19 38  1  0  0  0  0
 20 46  1  0  0  0  0
 21 39  1  0  0  0  0
 22 30  2  0  0  0  0
 22 55  1  0  0  0  0
 23 80  1  0  0  0  0
 24 81  1  0  0  0  0
 25 27  2  0  0  0  0
 25 80  1  0  0  0  0
 26 82  1  0  0  0  0
 27 83  1  0  0  0  0
 28 63  2  0  0  0  0
 29 56  1  0  0  0  0
 29 64  1  0  0  0  0
 30 49  1  0  0  0  0
 30 65  1  0  0  0  0
 31 66  1  0  0  0  0
 31 69  1  0  0  0  0
 32 70  1  0  0  0  0
 32 75  2  0  0  0  0
 33 47  1  0  0  0  0
 33 71  1  0  0  0  0
 33 76  2  0  0  0  0
 34 60  1  0  0  0  0
 34 67  1  0  0  0  0
 34 77  2  0  0  0  0
 35 61  1  0  0  0  0
 35 72  1  0  0  0  0
 35 78  2  0  0  0  0
 36 68  1  0  0  0  0
 36 73  1  0  0  0  0
 36 79  2  0  0  0  0
 37 40  1  0  0  0  0
 38 47  1  0  0  0  0
 39 67  1  0  0  0  0
 40 42  1  0  0  0  0
 41 43  1  0  0  0  0
 41 44  1  0  0  0  0
 42 46  1  0  0  0  0
 43 48  1  0  0  0  0
 44 68  1  0  0  0  0
 45 48  1  0  0  0  0
 45 68  1  0  0  0  0
 46 71  1  0  0  0  0
 47 67  1  0  0  0  0
 48 66  1  0  0  0  0
 50 61  1  0  0  0  0
 51 62  1  0  0  0  0
 52 62  1  0  0  0  0
 53 62  1  0  0  0  0
 54 74  1  0  0  0  0
 55 59  1  0  0  0  0
 56 57  1  0  0  0  0
 57 58  1  0  0  0  0
 58 73  1  0  0  0  0
 59 81  1  0  0  0  0
 60 62  1  0  0  0  0
 60 72  1  0  0  0  0
 61 74  1  0  0  0  0
 63 66  1  0  0  0  0
 64 65  2  0  0  0  0
M  CHG  1  74   1
M  ISO  4  36 100  59 101  73 100  81 101
M  END
> <Batch ID>
0081

> <Smiles>
CNC(C)C(=O)NC(C(=O)N1Cc2cc([101O:1][101CH2:1]Cc3cc(CCC[100NH:0][100C:0](=O)N4CCCC(n5nc(-c6ccc(Oc7ccc(F)cc7F)cc6)c(C(N)=O)c5N)C4)nnc3C)ccc2CC1C(=O)NC1CCCc2ccccc21)C(C)(C)C

> <Shape>
0.182

> <Color>
0.079

> <Negative vol penalty>
0.000

$$$$

  -OEChem-04052318463D

 85 93  0     1  0  0  0  0  0999 V2000
  -16.8275  -30.6718   23.2768 C   0  0  0  0  0  0  0  0  0  0  0  0
  -17.9365  -30.9431   22.4819 C   0  0  0  0  0  0  0  0  0  0  0  0
  -25.3008  -15.5363   22.6644 C   0  0  0  0  0  0  0  0  0  0  0  0
  -25.8599  -15.8325   20.3327 C   0  0  0  0  0  0  0  0  0  0  0  0
  -16.9126  -29.7147   24.2870 C   0  0  0  0  0  0  0  0  0  0  0  0
  -19.1318  -30.2581   22.6976 C   0  0  0  0  0  0  0  0  0  0  0  0
  -24.8158  -27.7002   19.1668 C   0  0  0  0  0  0  0  0  0  0  0  0
  -24.0680  -14.9950   22.3000 C   0  0  0  0  0  0  0  0  0  0  0  0
  -24.6271  -15.2912   19.9683 C   0  0  0  0  0  0  0  0  0  0  0  0
  -26.2091  -27.7403   19.1955 C   0  0  0  0  0  0  0  0  0  0  0  0
  -20.9220  -13.2024   21.9772 C   0  0  0  0  0  0  0  0  0  0  0  0
  -20.5010  -12.0469   22.6354 C   0  0  0  0  0  0  0  0  0  0  0  0
  -26.2163  -26.0515   20.9181 C   0  0  0  0  0  0  0  0  0  0  0  0
  -31.2596  -26.7051   16.6025 C   0  0  0  0  0  0  0  0  0  0  0  0
  -22.4589  -10.8784   21.8363 C   0  0  0  0  0  0  0  0  0  0  0  0
  -26.1968  -15.9551   21.6807 C   0  0  0  0  0  0  0  0  0  0  0  0
  -28.6780  -15.8203   22.2577 C   0  0  0  0  0  0  0  0  0  0  0  0
  -18.1067  -29.0107   24.5089 C   0  0  0  0  0  0  0  0  0  0  0  0
  -24.1107  -26.8418   20.0227 C   0  0  0  0  0  0  0  0  0  0  0  0
  -19.2334  -29.2916   23.7126 C   0  0  0  0  0  0  0  0  0  0  0  0
  -24.8141  -26.0005   20.8965 C   0  0  0  0  0  0  0  0  0  0  0  0
  -31.0300  -26.2916   15.2950 C   0  0  0  0  0  0  0  0  0  0  0  0
  -30.7542  -25.9582   17.6608 C   0  0  0  0  0  0  0  0  0  0  0  0
  -23.7311  -14.8724   20.9520 C   0  0  0  0  0  0  0  0  0  0  0  0
  -26.9095  -26.9180   20.0732 C   0  0  0  0  0  0  0  0  0  0  0  0
  -22.1114  -13.1959   21.2484 C   0  0  0  0  0  0  0  0  0  0  0  0
  -21.2695  -10.8850   22.5650 C   0  0  0  0  0  0  0  0  0  0  0  0
  -22.8798  -12.0339   21.1780 C   0  0  0  0  0  0  0  0  0  0  0  0
  -27.4702  -16.5149   22.0565 C   0  0  0  0  0  0  0  0  0  0  0  0
  -30.2948  -25.1334   15.1007 C   0  0  0  0  0  0  0  0  0  0  0  0
  -30.0312  -24.8150   17.3606 C   0  0  0  0  0  0  0  0  0  0  0  0
  -29.5827  -16.7961   22.5978 C   0  0  0  0  0  0  0  0  0  0  0  0
  -28.9572  -14.4183   22.1471 C   0  0  0  0  0  0  0  0  0  0  0  0
  -21.9996  -27.2462   22.3644 C   0  0  0  0  0  0  0  0  0  0  0  0
  -21.8481  -24.0076   22.2601 C   0  0  0  0  0  0  0  0  0  0  0  0
  -23.3623  -21.0613   21.4393 C   0  0  0  0  0  0  0  0  0  0  0  0
  -29.8481  -22.6746   21.4910 C   0  0  0  0  0  0  0  0  0  0  0  0
  -18.1646  -28.0189   25.6436 C   0  0  0  0  0  0  0  0  0  0  0  0
  -22.6087  -26.7910   19.9607 C   0  0  0  0  0  0  0  0  0  0  0  0
  -24.1050  -25.0465   21.8214 C   0  0  0  0  0  0  0  0  0  0  0  0
  -19.3576  -27.0699   25.5629 C   0  0  0  0  0  0  0  0  0  0  0  0
  -29.8474  -21.0947   24.6818 C   0  0  0  0  0  0  0  0  0  0  0  0
  -20.6357  -27.8440   25.2565 C   0  0  0  0  0  0  0  0  0  0  0  0
  -29.3471  -19.6791   24.3889 C   0  0  0  0  0  0  0  0  0  0  0  0
  -29.1499  -22.1325   23.8051 C   0  0  0  0  0  0  0  0  0  0  0  0
  -28.7093  -20.4449   22.0639 C   0  0  0  0  0  0  0  0  0  0  0  0
  -20.5403  -28.5518   23.8995 C   0  0  1  0  0  0  0  0  0  0  0  0
  -21.9758  -26.2506   21.2392 C   0  0  1  0  0  0  0  0  0  0  0  0
  -29.4238  -19.3574   22.8843 C   0  0  2  0  0  0  0  0  0  0  0  0
  -31.5689  -27.0873   14.1568 C   0  0  0  0  0  0  0  0  0  0  0  0
  -30.0156  -24.6413   13.7183 C   0  0  0  0  0  0  0  0  0  0  0  0
  -23.0071  -18.5781   21.5073 C   0  0  0  0  0  0  0  0  0  0  0  0
  -30.8066  -28.1798   20.8469 C   0  0  0  0  0  0  0  0  0  0  0  0
  -22.4308  -24.0088   25.2552 C   0  0  0  0  0  0  0  0  0  0  0  0
  -22.9999  -21.5774   25.0747 C   0  0  0  0  0  0  0  0  0  0  0  0
  -20.6948  -22.3607   24.5308 C   0  0  0  0  0  0  0  0  0  0  0  0
  -23.5420  -20.8381   18.4937 C   0  0  0  0  0  0  0  0  0  0  0  0
  -30.9996  -26.4017   19.0826 C   0  0  0  0  0  0  0  0  0  0  0  0
  -29.4658  -23.9736   18.4578 C   0  0  0  0  0  0  0  0  0  0  0  0
  -30.5025  -23.0666   19.1294 C   0  0  0  0  0  0  0  0  0  0  0  0
  -28.9143  -27.8613   19.2091 C   0  0  0  0  0  0  0  0  0  1  0  0
  -22.5886  -22.8803   22.9383 C   0  0  1  0  0  0  0  0  0  0  0  0
  -22.8579  -19.8464   20.6816 C   0  0  2  0  0  0  0  0  0  0  0  0
  -30.4354  -27.7993   19.4079 C   0  0  1  0  0  0  0  0  0  0  0  0
  -22.1921  -22.7261   24.4338 C   0  0  0  0  0  0  0  0  0  0  0  0
  -27.5930  -17.8303   22.2526 N   0  0  0  0  0  0  0  0  0  0  0  0
  -29.7877  -24.3817   16.1034 N   0  0  0  0  0  0  0  0  0  0  0  0
  -28.8888  -17.9701   22.5806 N   0  0  0  0  0  0  0  0  0  0  0  0
  -22.6358  -25.0382   21.7279 N   0  0  0  0  0  0  0  0  0  0  0  0
  -29.2607  -21.7694   22.3903 N   0  0  0  0  0  0  0  0  0  0  0  0
  -30.8962  -16.7559   22.9069 N   0  0  0  0  0  0  0  0  0  0  0  0
  -27.9129  -13.5554   21.7878 N   0  0  0  0  0  0  0  0  0  0  0  0
  -20.7469  -27.6083   22.8218 N   0  0  0  0  0  0  0  0  0  0  0  0
  -22.3479  -21.6896   22.1305 N   0  0  0  0  0  0  0  0  0  0  0  0
  -29.9196  -22.2493   20.1701 N   0  0  0  0  0  0  0  0  0  0  0  0
  -23.6205  -19.6738   19.4130 N   0  3  0  0  0  0  0  0  0  0  0  0
  -30.0951  -13.9428   22.3765 O   0  0  0  0  0  0  0  0  0  0  0  0
  -23.0748  -27.6545   22.7872 O   0  0  0  0  0  0  0  0  0  0  0  0
  -20.6166  -23.9714   22.1983 O   0  0  0  0  0  0  0  0  0  0  0  0
  -24.5391  -21.4153   21.4229 O   0  0  0  0  0  0  0  0  0  0  0  0
  -30.2818  -23.7776   21.8405 O   0  0  0  0  0  0  0  0  0  0  0  0
  -22.5283  -14.3441   20.5961 O   0  0  0  0  0  0  0  0  0  0  0  0
  -28.2694  -26.9557   20.1037 O   0  0  0  0  0  0  0  0  0  1  0  0
  -20.8659   -9.7759   23.1984 F   0  0  0  0  0  0  0  0  0  0  0  0
  -24.0240  -12.0219   20.4805 F   0  0  0  0  0  0  0  0  0  0  0  0
  1  2  1  0  0  0  0
  1  5  2  0  0  0  0
  2  6  2  0  0  0  0
  3  8  2  0  0  0  0
  3 16  1  0  0  0  0
  4  9  1  0  0  0  0
  4 16  2  0  0  0  0
  5 18  1  0  0  0  0
  6 20  1  0  0  0  0
  7 10  2  0  0  0  0
  7 19  1  0  0  0  0
  8 24  1  0  0  0  0
  9 24  2  0  0  0  0
 10 25  1  0  0  0  0
 11 12  2  0  0  0  0
 11 26  1  0  0  0  0
 12 27  1  0  0  0  0
 13 21  1  0  0  0  0
 13 25  2  0  0  0  0
 14 22  2  0  0  0  0
 14 23  1  0  0  0  0
 15 27  2  0  0  0  0
 15 28  1  0  0  0  0
 16 29  1  0  0  0  0
 17 29  1  0  0  0  0
 17 32  2  0  0  0  0
 17 33  1  0  0  0  0
 18 20  2  0  0  0  0
 18 38  1  0  0  0  0
 19 21  2  0  0  0  0
 19 39  1  0  0  0  0
 20 47  1  0  0  0  0
 21 40  1  0  0  0  0
 22 30  1  0  0  0  0
 22 50  1  0  0  0  0
 23 31  2  0  0  0  0
 23 58  1  0  0  0  0
 24 82  1  0  0  0  0
 25 83  1  0  0  0  0
 26 28  2  0  0  0  0
 26 82  1  0  0  0  0
 27 84  1  0  0  0  0
 28 85  1  0  0  0  0
 29 66  2  0  0  0  0
 30 51  1  0  0  0  0
 30 67  2  0  0  0  0
 31 59  1  0  0  0  0
 31 67  1  0  0  0  0
 32 68  1  0  0  0  0
 32 71  1  0  0  0  0
 33 72  1  0  0  0  0
 33 77  2  0  0  0  0
 34 48  1  0  0  0  0
 34 73  1  0  0  0  0
 34 78  2  0  0  0  0
 35 62  1  0  0  0  0
 35 69  1  0  0  0  0
 35 79  2  0  0  0  0
 36 63  1  0  0  0  0
 36 74  1  0  0  0  0
 36 80  2  0  0  0  0
 37 70  1  0  0  0  0
 37 75  1  0  0  0  0
 37 81  2  0  0  0  0
 38 41  1  0  0  0  0
 39 48  1  0  0  0  0
 40 69  1  0  0  0  0
 41 43  1  0  0  0  0
 42 44  1  0  0  0  0
 42 45  1  0  0  0  0
 43 47  1  0  0  0  0
 44 49  1  0  0  0  0
 45 70  1  0  0  0  0
 46 49  1  0  0  0  0
 46 70  1  0  0  0  0
 47 73  1  0  0  0  0
 48 69  1  0  0  0  0
 49 68  1  0  0  0  0
 52 63  1  0  0  0  0
 53 64  1  0  0  0  0
 54 65  1  0  0  0  0
 55 65  1  0  0  0  0
 56 65  1  0  0  0  0
 57 76  1  0  0  0  0
 58 64  1  0  0  0  0
 59 60  1  0  0  0  0
 60 75  1  0  0  0  0
 61 64  1  0  0  0  0
 61 83  1  0  0  0  0
 62 65  1  0  0  0  0
 62 74  1  0  0  0  0
 63 76  1  0  0  0  0
 66 68  1  0  0  0  0
M  CHG  1  76   1
M  ISO  4  37 100  61 101  75 100  83 101
M  END
> <Batch ID>
0081

> <Smiles>
CNC(C)C(=O)NC(C(=O)N1Cc2cc([101O:1][101CH2:1]C(C)Cc3cc(C)c(C)nc3CC[100NH:0][100C:0](=O)N3CCCC(n4nc(-c5ccc(Oc6ccc(F)cc6F)cc5)c(C(N)=O)c4N)C3)ccc2CC1C(=O)NC1CCCc2ccccc21)C(C)(C)C

> <Shape>
0.215

> <Color>
0.054

> <Negative vol penalty>
0.000

$$$$

  -OEChem-04052318463D

 84 92  0     1  0  0  0  0  0999 V2000
  -19.5568  -15.5841   28.7476 C   0  0  0  0  0  0  0  0  0  0  0  0
  -20.9382  -15.4196   28.7451 C   0  0  0  0  0  0  0  0  0  0  0  0
  -23.2862   -9.8004   19.9133 C   0  0  0  0  0  0  0  0  0  0  0  0
  -23.7340   -9.9421   22.2832 C   0  0  0  0  0  0  0  0  0  0  0  0
  -18.7341  -14.5542   29.2017 C   0  0  0  0  0  0  0  0  0  0  0  0
  -21.4978  -14.2253   29.1978 C   0  0  0  0  0  0  0  0  0  0  0  0
  -25.1661  -12.5210   26.1509 C   0  0  0  0  0  0  0  0  0  0  0  0
  -22.5586   -8.6286   20.1209 C   0  0  0  0  0  0  0  0  0  0  0  0
  -23.0064   -8.7703   22.4908 C   0  0  0  0  0  0  0  0  0  0  0  0
  -26.4137  -13.1351   26.2511 C   0  0  0  0  0  0  0  0  0  0  0  0
  -23.2089   -5.3541   20.6491 C   0  0  0  0  0  0  0  0  0  0  0  0
  -23.4376   -4.2876   19.7797 C   0  0  0  0  0  0  0  0  0  0  0  0
  -27.1997  -11.3032   27.6097 C   0  0  0  0  0  0  0  0  0  0  0  0
  -33.4094  -13.1243   27.9892 C   0  0  0  0  0  0  0  0  0  0  0  0
  -21.1164   -4.3348   19.1111 C   0  0  0  0  0  0  0  0  0  0  0  0
  -23.8739  -10.4572   20.9945 C   0  0  0  0  0  0  0  0  0  0  0  0
  -24.1356  -12.9869   20.7947 C   0  0  0  0  0  0  0  0  0  0  0  0
  -19.2834  -13.3430   29.6512 C   0  0  0  0  0  0  0  0  0  0  0  0
  -24.9222  -11.2966   26.7894 C   0  0  0  0  0  0  0  0  0  0  0  0
  -20.6818  -13.1787   29.6596 C   0  0  0  0  0  0  0  0  0  0  0  0
  -25.9489  -10.6744   27.5139 C   0  0  0  0  0  0  0  0  0  0  0  0
  -32.2654  -13.3809   27.1938 C   0  0  0  0  0  0  0  0  0  0  0  0
  -22.4187   -8.1135   21.4096 C   0  0  0  0  0  0  0  0  0  0  0  0
  -27.4298  -12.5277   26.9830 C   0  0  0  0  0  0  0  0  0  0  0  0
  -21.9339   -5.9109   20.7495 C   0  0  0  0  0  0  0  0  0  0  0  0
  -22.3914   -3.7779   19.0107 C   0  0  0  0  0  0  0  0  0  0  0  0
  -20.8877   -5.4013   19.9806 C   0  0  0  0  0  0  0  0  0  0  0  0
  -24.6261  -11.6674   20.7807 C   0  0  0  0  0  0  0  0  0  0  0  0
  -34.0846  -12.0721   27.4112 C   0  0  0  0  0  0  0  0  0  0  0  0
  -32.2763  -12.4775   26.1541 C   0  0  0  0  0  0  0  0  0  0  0  0
  -25.2380  -13.7657   20.5406 C   0  0  0  0  0  0  0  0  0  0  0  0
  -22.8026  -13.4657   21.0175 C   0  0  0  0  0  0  0  0  0  0  0  0
  -22.9340  -10.3104   29.0650 C   0  0  0  0  0  0  0  0  0  0  0  0
  -24.1521   -7.3967   28.3242 C   0  0  0  0  0  0  0  0  0  0  0  0
  -26.7283   -5.5810   27.0154 C   0  0  0  0  0  0  0  0  0  0  0  0
  -31.1073  -12.9186   21.3682 C   0  0  0  0  0  0  0  0  0  0  0  0
  -18.3561  -12.2762   30.1770 C   0  0  0  0  0  0  0  0  0  0  0  0
  -23.5791  -10.6340   26.6494 C   0  0  0  0  0  0  0  0  0  0  0  0
  -25.7443   -9.3499   28.2012 C   0  0  0  0  0  0  0  0  0  0  0  0
  -19.0104  -10.9015   30.2891 C   0  0  0  0  0  0  0  0  0  0  0  0
  -29.4628  -13.6574   18.2979 C   0  0  0  0  0  0  0  0  0  0  0  0
  -20.3795  -11.0145   30.9521 C   0  0  0  0  0  0  0  0  0  0  0  0
  -27.9925  -13.3502   18.5873 C   0  0  0  0  0  0  0  0  0  0  0  0
  -30.3944  -12.6777   19.0080 C   0  0  0  0  0  0  0  0  0  0  0  0
  -28.7053  -12.2508   20.7511 C   0  0  0  0  0  0  0  0  0  0  0  0
  -21.3253  -11.8886   30.1197 C   0  0  1  0  0  0  0  0  0  0  0  0
  -23.2844   -9.6387   27.7674 C   0  0  1  0  0  0  0  0  0  0  0  0
  -27.7289  -13.2463   20.1016 C   0  0  2  0  0  0  0  0  0  0  0  0
  -35.3348  -11.4054   27.8299 C   0  0  0  0  0  0  0  0  0  0  0  0
  -27.9762   -3.5616   26.2017 C   0  0  0  0  0  0  0  0  0  0  0  0
  -31.6733  -14.6297   24.0731 C   0  0  0  0  0  0  0  0  0  0  0  0
  -24.8022   -7.0544   31.2857 C   0  0  0  0  0  0  0  0  0  0  0  0
  -26.3316   -5.1732   30.6609 C   0  0  0  0  0  0  0  0  0  0  0  0
  -23.8906   -5.0078   30.1744 C   0  0  0  0  0  0  0  0  0  0  0  0
  -33.7648  -10.6094   25.4063 C   0  0  0  0  0  0  0  0  0  0  0  0
  -25.6025   -5.8397   24.2906 C   0  0  0  0  0  0  0  0  0  0  0  0
  -31.2314  -14.4490   27.4458 C   0  0  0  0  0  0  0  0  0  0  0  0
  -31.3244  -12.2993   25.0369 C   0  0  0  0  0  0  0  0  0  0  0  0
  -30.2536  -14.1063   28.5720 C   0  0  0  0  0  0  0  0  0  0  0  0
  -29.3950  -12.8825   28.2745 C   0  0  0  0  0  0  0  0  0  1  0  0
  -25.3244   -6.5749   28.8030 C   0  0  1  0  0  0  0  0  0  0  0  0
  -26.7501   -4.4413   26.0129 C   0  0  2  0  0  0  0  0  0  0  0  0
  -31.6663  -13.1334   23.7766 C   0  0  1  0  0  0  0  0  0  0  0  0
  -25.0908   -5.9785   30.2198 C   0  0  0  0  0  0  0  0  0  0  0  0
  -25.9380  -11.6076   20.5368 N   0  0  0  0  0  0  0  0  0  0  0  0
  -33.3865  -11.6868   26.2965 N   0  0  0  0  0  0  0  0  0  0  0  0
  -26.2811  -12.8992   20.3952 N   0  0  0  0  0  0  0  0  0  0  0  0
  -24.4118   -8.7449   28.0402 N   0  0  0  0  0  0  0  0  0  0  0  0
  -30.0933  -12.6274   20.4408 N   0  0  0  0  0  0  0  0  0  0  0  0
  -25.4071  -15.1004   20.4296 N   0  0  0  0  0  0  0  0  0  0  0  0
  -21.7890  -12.5297   21.2643 N   0  0  0  0  0  0  0  0  0  0  0  0
  -21.8355  -11.1452   28.9876 N   0  0  0  0  0  0  0  0  0  0  0  0
  -25.5731   -5.5770   27.7682 N   0  0  0  0  0  0  0  0  0  0  0  0
  -30.7358  -12.8542   22.7056 N   0  0  0  0  0  0  0  0  0  0  0  0
  -26.7646   -4.9754   24.6217 N   0  3  0  0  0  0  0  0  0  0  0  0
  -22.5157  -14.6863   20.9821 O   0  0  0  0  0  0  0  0  0  0  0  0
  -23.6092  -10.0867   30.0628 O   0  0  0  0  0  0  0  0  0  0  0  0
  -23.0482   -6.8604   28.1998 O   0  0  0  0  0  0  0  0  0  0  0  0
  -27.6461   -6.3915   27.1226 O   0  0  0  0  0  0  0  0  0  0  0  0
  -32.2569  -13.2193   21.0293 O   0  0  0  0  0  0  0  0  0  0  0  0
  -21.7086   -6.9702   21.6125 O   0  0  0  0  0  0  0  0  0  0  0  0
  -28.6483  -13.1254   27.0830 O   0  0  0  0  0  0  0  0  0  1  0  0
  -22.6115   -2.7547   18.1748 F   0  0  0  0  0  0  0  0  0  0  0  0
  -19.6610   -5.9329   20.0719 F   0  0  0  0  0  0  0  0  0  0  0  0
  1  2  1  0  0  0  0
  1  5  2  0  0  0  0
  2  6  2  0  0  0  0
  3  8  2  0  0  0  0
  3 16  1  0  0  0  0
  4  9  1  0  0  0  0
  4 16  2  0  0  0  0
  5 18  1  0  0  0  0
  6 20  1  0  0  0  0
  7 10  2  0  0  0  0
  7 19  1  0  0  0  0
  8 23  1  0  0  0  0
  9 23  2  0  0  0  0
 10 24  1  0  0  0  0
 11 12  2  0  0  0  0
 11 25  1  0  0  0  0
 12 26  1  0  0  0  0
 13 21  1  0  0  0  0
 13 24  2  0  0  0  0
 14 22  1  0  0  0  0
 14 29  2  0  0  0  0
 15 26  2  0  0  0  0
 15 27  1  0  0  0  0
 16 28  1  0  0  0  0
 17 28  1  0  0  0  0
 17 31  2  0  0  0  0
 17 32  1  0  0  0  0
 18 20  2  0  0  0  0
 18 37  1  0  0  0  0
 19 21  2  0  0  0  0
 19 38  1  0  0  0  0
 20 46  1  0  0  0  0
 21 39  1  0  0  0  0
 22 30  2  0  0  0  0
 22 57  1  0  0  0  0
 23 81  1  0  0  0  0
 24 82  1  0  0  0  0
 25 27  2  0  0  0  0
 25 81  1  0  0  0  0
 26 83  1  0  0  0  0
 27 84  1  0  0  0  0
 28 65  2  0  0  0  0
 29 49  1  0  0  0  0
 29 66  1  0  0  0  0
 30 58  1  0  0  0  0
 30 66  1  0  0  0  0
 31 67  1  0  0  0  0
 31 70  1  0  0  0  0
 32 71  1  0  0  0  0
 32 76  2  0  0  0  0
 33 47  1  0  0  0  0
 33 72  1  0  0  0  0
 33 77  2  0  0  0  0
 34 61  1  0  0  0  0
 34 68  1  0  0  0  0
 34 78  2  0  0  0  0
 35 62  1  0  0  0  0
 35 73  1  0  0  0  0
 35 79  2  0  0  0  0
 36 69  1  0  0  0  0
 36 74  1  0  0  0  0
 36 80  2  0  0  0  0
 37 40  1  0  0  0  0
 38 47  1  0  0  0  0
 39 68  1  0  0  0  0
 40 42  1  0  0  0  0
 41 43  1  0  0  0  0
 41 44  1  0  0  0  0
 42 46  1  0  0  0  0
 43 48  1  0  0  0  0
 44 69  1  0  0  0  0
 45 48  1  0  0  0  0
 45 69  1  0  0  0  0
 46 72  1  0  0  0  0
 47 68  1  0  0  0  0
 48 67  1  0  0  0  0
 50 62  1  0  0  0  0
 51 63  1  0  0  0  0
 52 64  1  0  0  0  0
 53 64  1  0  0  0  0
 54 64  1  0  0  0  0
 55 66  1  0  0  0  0
 56 75  1  0  0  0  0
 57 59  1  0  0  0  0
 58 63  1  0  0  0  0
 59 60  1  0  0  0  0
 60 82  1  0  0  0  0
 61 64  1  0  0  0  0
 61 73  1  0  0  0  0
 62 75  1  0  0  0  0
 63 74  1  0  0  0  0
 65 67  1  0  0  0  0
M  CHG  1  75   1
M  ISO  4  36 100  60 101  74 100  82 101
M  END
> <Batch ID>
0081

> <Smiles>
CNC(C)C(=O)NC(C(=O)N1Cc2cc([101O:1][101CH2:1]CCc3cc(C)n(C)c3CC(C)[100NH:0][100C:0](=O)N3CCCC(n4nc(-c5ccc(Oc6ccc(F)cc6F)cc5)c(C(N)=O)c4N)C3)ccc2CC1C(=O)NC1CCCc2ccccc21)C(C)(C)C

> <Shape>
0.120

> <Color>
0.182

> <Negative vol penalty>
0.000

$$$$

  -OEChem-04052318463D

 83 91  0     1  0  0  0  0  0999 V2000
  -17.9666  -30.6053   23.5715 C   0  0  0  0  0  0  0  0  0  0  0  0
  -19.3555  -30.6498   23.6382 C   0  0  0  0  0  0  0  0  0  0  0  0
  -27.2456  -17.5098   19.5723 C   0  0  0  0  0  0  0  0  0  0  0  0
  -28.5490  -17.8278   21.5815 C   0  0  0  0  0  0  0  0  0  0  0  0
  -17.3276  -29.4442   23.1386 C   0  0  0  0  0  0  0  0  0  0  0  0
  -20.1061  -29.5328   23.2732 C   0  0  0  0  0  0  0  0  0  0  0  0
  -25.5802  -29.5129   20.5272 C   0  0  0  0  0  0  0  0  0  0  0  0
  -27.2194  -16.1351   19.8069 C   0  0  0  0  0  0  0  0  0  0  0  0
  -28.5228  -16.4531   21.8161 C   0  0  0  0  0  0  0  0  0  0  0  0
  -26.8761  -29.3652   21.0197 C   0  0  0  0  0  0  0  0  0  0  0  0
  -25.5268  -13.9776   21.7851 C   0  0  0  0  0  0  0  0  0  0  0  0
  -24.3079  -13.3170   21.6321 C   0  0  0  0  0  0  0  0  0  0  0  0
  -26.8035  -27.0133   20.4881 C   0  0  0  0  0  0  0  0  0  0  0  0
  -31.2338  -28.7862   22.9515 C   0  0  0  0  0  0  0  0  0  0  0  0
  -25.2804  -11.9193   19.9181 C   0  0  0  0  0  0  0  0  0  0  0  0
  -27.9105  -18.3562   20.4596 C   0  0  0  0  0  0  0  0  0  0  0  0
  -27.0103  -20.7339   20.6682 C   0  0  0  0  0  0  0  0  0  0  0  0
  -18.0711  -28.3156   22.7589 C   0  0  0  0  0  0  0  0  0  0  0  0
  -24.8810  -28.4080   20.0206 C   0  0  0  0  0  0  0  0  0  0  0  0
  -19.4764  -28.3551   22.8361 C   0  0  0  0  0  0  0  0  0  0  0  0
  -25.4998  -27.1502   19.9874 C   0  0  0  0  0  0  0  0  0  0  0  0
  -31.5522  -27.6204   22.2774 C   0  0  0  0  0  0  0  0  0  0  0  0
  -27.8579  -15.6067   20.9288 C   0  0  0  0  0  0  0  0  0  0  0  0
  -27.4869  -28.1147   21.0028 C   0  0  0  0  0  0  0  0  0  0  0  0
  -26.6226  -13.6091   21.0045 C   0  0  0  0  0  0  0  0  0  0  0  0
  -24.1847  -12.2879   20.6987 C   0  0  0  0  0  0  0  0  0  0  0  0
  -26.4994  -12.5799   20.0711 C   0  0  0  0  0  0  0  0  0  0  0  0
  -27.9385  -19.7763   20.2175 C   0  0  0  0  0  0  0  0  0  0  0  0
  -31.7479  -28.9596   24.2208 C   0  0  0  0  0  0  0  0  0  0  0  0
  -32.3639  -26.7052   22.9172 C   0  0  0  0  0  0  0  0  0  0  0  0
  -27.4806  -21.9265   20.1754 C   0  0  0  0  0  0  0  0  0  0  0  0
  -25.8286  -20.5609   21.4616 C   0  0  0  0  0  0  0  0  0  0  0  0
  -22.2014  -26.8932   20.8138 C   0  0  0  0  0  0  0  0  0  0  0  0
  -22.7859  -25.2438   18.0825 C   0  0  0  0  0  0  0  0  0  0  0  0
  -25.0605  -24.1765   15.7729 C   0  0  0  0  0  0  0  0  0  0  0  0
  -32.9326  -23.8069   18.5656 C   0  0  0  0  0  0  0  0  0  0  0  0
  -17.3342  -27.0673   22.3426 C   0  0  0  0  0  0  0  0  0  0  0  0
  -23.4936  -28.5891   19.4685 C   0  0  0  0  0  0  0  0  0  0  0  0
  -24.7997  -25.9362   19.4355 C   0  0  0  0  0  0  0  0  0  0  0  0
  -18.2150  -26.0534   21.6171 C   0  0  0  0  0  0  0  0  0  0  0  0
  -30.0061  -23.7400   16.5388 C   0  0  0  0  0  0  0  0  0  0  0  0
  -19.5326  -25.8616   22.3615 C   0  0  0  0  0  0  0  0  0  0  0  0
  -29.0606  -22.8029   17.2925 C   0  0  0  0  0  0  0  0  0  0  0  0
  -31.4587  -23.2811   16.6453 C   0  0  0  0  0  0  0  0  0  0  0  0
  -30.9965  -22.1325   18.7762 C   0  0  0  0  0  0  0  0  0  0  0  0
  -20.3261  -27.1722   22.4251 C   0  0  1  0  0  0  0  0  0  0  0  0
  -22.6846  -27.2959   19.4492 C   0  0  1  0  0  0  0  0  0  0  0  0
  -29.5267  -22.5851   18.7446 C   0  0  2  0  0  0  0  0  0  0  0  0
  -31.4348  -30.1973   24.9896 C   0  0  0  0  0  0  0  0  0  0  0  0
  -25.2454  -22.8133   13.6741 C   0  0  0  0  0  0  0  0  0  0  0  0
  -22.5615  -22.6842   19.7281 C   0  0  0  0  0  0  0  0  0  0  0  0
  -23.6696  -21.4599   17.8463 C   0  0  0  0  0  0  0  0  0  0  0  0
  -21.4701  -22.5783   17.4805 C   0  0  0  0  0  0  0  0  0  0  0  0
  -26.0380  -26.4951   14.2148 C   0  0  0  0  0  0  0  0  0  0  0  0
  -31.0168  -27.3810   20.8866 C   0  0  0  0  0  0  0  0  0  0  0  0
  -32.7484  -25.4263   22.2532 C   0  0  0  0  0  0  0  0  0  0  0  0
  -33.8872  -25.5595   21.2229 C   0  0  0  0  0  0  0  0  0  0  0  0
  -34.3126  -24.2400   20.5823 C   0  0  0  0  0  0  0  0  0  0  0  0
  -29.5554  -26.9461   20.8948 C   0  0  0  0  0  0  0  0  0  1  0  0
  -23.5519  -23.9906   17.7335 C   0  0  1  0  0  0  0  0  0  0  0  0
  -25.0437  -24.2041   14.2552 C   0  0  2  0  0  0  0  0  0  0  0  0
  -22.8260  -22.7006   18.2093 C   0  0  0  0  0  0  0  0  0  0  0  0
  -28.9239  -20.3140   19.4937 N   0  0  0  0  0  0  0  0  0  0  0  0
  -32.5399  -28.0470   24.8225 N   0  0  0  0  0  0  0  0  0  0  0  0
  -32.8531  -26.9013   24.1599 N   0  0  0  0  0  0  0  0  0  0  0  0
  -28.6175  -21.6225   19.4859 N   0  0  0  0  0  0  0  0  0  0  0  0
  -23.4421  -26.1632   18.9130 N   0  0  0  0  0  0  0  0  0  0  0  0
  -31.8383  -23.0947   18.0478 N   0  0  0  0  0  0  0  0  0  0  0  0
  -27.0285  -23.1951   20.2687 N   0  0  0  0  0  0  0  0  0  0  0  0
  -25.4911  -19.2680   21.8844 N   0  0  0  0  0  0  0  0  0  0  0  0
  -20.9763  -27.4314   21.1583 N   0  0  0  0  0  0  0  0  0  0  0  0
  -23.7912  -24.0456   16.2954 N   0  0  0  0  0  0  0  0  0  0  0  0
  -33.2207  -23.5766   19.9053 N   0  0  0  0  0  0  0  0  0  0  0  0
  -26.1265  -25.0898   13.7412 N   0  3  0  0  0  0  0  0  0  0  0  0
  -25.0850  -21.5221   21.7723 O   0  0  0  0  0  0  0  0  0  0  0  0
  -22.8886  -26.1480   21.5025 O   0  0  0  0  0  0  0  0  0  0  0  0
  -21.6501  -25.4044   17.6289 O   0  0  0  0  0  0  0  0  0  0  0  0
  -26.0963  -24.2589   16.4292 O   0  0  0  0  0  0  0  0  0  0  0  0
  -33.5999  -24.5941   17.8859 O   0  0  0  0  0  0  0  0  0  0  0  0
  -27.8323  -14.2653   21.1582 O   0  0  0  0  0  0  0  0  0  0  0  0
  -28.7515  -27.9676   21.4835 O   0  0  0  0  0  0  0  0  0  1  0  0
  -23.0145  -11.6526   20.5529 F   0  0  0  0  0  0  0  0  0  0  0  0
  -27.5489  -12.2207   19.3192 F   0  0  0  0  0  0  0  0  0  0  0  0
  1  2  1  0  0  0  0
  1  5  2  0  0  0  0
  2  6  2  0  0  0  0
  3  8  2  0  0  0  0
  3 16  1  0  0  0  0
  4  9  1  0  0  0  0
  4 16  2  0  0  0  0
  5 18  1  0  0  0  0
  6 20  1  0  0  0  0
  7 10  2  0  0  0  0
  7 19  1  0  0  0  0
  8 23  1  0  0  0  0
  9 23  2  0  0  0  0
 10 24  1  0  0  0  0
 11 12  2  0  0  0  0
 11 25  1  0  0  0  0
 12 26  1  0  0  0  0
 13 21  1  0  0  0  0
 13 24  2  0  0  0  0
 14 22  1  0  0  0  0
 14 29  2  0  0  0  0
 15 26  2  0  0  0  0
 15 27  1  0  0  0  0
 16 28  1  0  0  0  0
 17 28  1  0  0  0  0
 17 31  2  0  0  0  0
 17 32  1  0  0  0  0
 18 20  2  0  0  0  0
 18 37  1  0  0  0  0
 19 21  2  0  0  0  0
 19 38  1  0  0  0  0
 20 46  1  0  0  0  0
 21 39  1  0  0  0  0
 22 30  2  0  0  0  0
 22 55  1  0  0  0  0
 23 80  1  0  0  0  0
 24 81  1  0  0  0  0
 25 27  2  0  0  0  0
 25 80  1  0  0  0  0
 26 82  1  0  0  0  0
 27 83  1  0  0  0  0
 28 63  2  0  0  0  0
 29 49  1  0  0  0  0
 29 64  1  0  0  0  0
 30 56  1  0  0  0  0
 30 65  1  0  0  0  0
 31 66  1  0  0  0  0
 31 69  1  0  0  0  0
 32 70  1  0  0  0  0
 32 75  2  0  0  0  0
 33 47  1  0  0  0  0
 33 71  1  0  0  0  0
 33 76  2  0  0  0  0
 34 60  1  0  0  0  0
 34 67  1  0  0  0  0
 34 77  2  0  0  0  0
 35 61  1  0  0  0  0
 35 72  1  0  0  0  0
 35 78  2  0  0  0  0
 36 68  1  0  0  0  0
 36 73  1  0  0  0  0
 36 79  2  0  0  0  0
 37 40  1  0  0  0  0
 38 47  1  0  0  0  0
 39 67  1  0  0  0  0
 40 42  1  0  0  0  0
 41 43  1  0  0  0  0
 41 44  1  0  0  0  0
 42 46  1  0  0  0  0
 43 48  1  0  0  0  0
 44 68  1  0  0  0  0
 45 48  1  0  0  0  0
 45 68  1  0  0  0  0
 46 71  1  0  0  0  0
 47 67  1  0  0  0  0
 48 66  1  0  0  0  0
 50 61  1  0  0  0  0
 51 62  1  0  0  0  0
 52 62  1  0  0  0  0
 53 62  1  0  0  0  0
 54 74  1  0  0  0  0
 55 59  1  0  0  0  0
 56 57  1  0  0  0  0
 57 58  1  0  0  0  0
 58 73  1  0  0  0  0
 59 81  1  0  0  0  0
 60 62  1  0  0  0  0
 60 72  1  0  0  0  0
 61 74  1  0  0  0  0
 63 66  1  0  0  0  0
 64 65  2  0  0  0  0
M  CHG  1  74   1
M  ISO  4  36 100  59 101  73 100  81 101
M  END
> <Batch ID>
0081

> <Smiles>
CNC(C)C(=O)NC(C(=O)N1Cc2cc([101O:1][101CH2:1]Cc3cc(C)nnc3CCC[100NH:0][100C:0](=O)N3CCCC(n4nc(-c5ccc(Oc6ccc(F)cc6F)cc5)c(C(N)=O)c4N)C3)ccc2CC1C(=O)NC1CCCc2ccccc21)C(C)(C)C

> <Shape>
0.237

> <Color>
0.065

> <Negative vol penalty>
0.000

$$$$

  -OEChem-04052318463D

 83 91  0     1  0  0  0  0  0999 V2000
  -22.9483  -23.0285   15.2589 C   0  0  0  0  0  0  0  0  0  0  0  0
  -23.5629  -21.7928   15.4344 C   0  0  0  0  0  0  0  0  0  0  0  0
  -26.3147  -27.8265   18.8907 C   0  0  0  0  0  0  0  0  0  0  0  0
  -26.4602  -27.4375   21.2707 C   0  0  0  0  0  0  0  0  0  0  0  0
  -22.6547  -23.8233   16.3662 C   0  0  0  0  0  0  0  0  0  0  0  0
  -23.8852  -21.3517   16.7174 C   0  0  0  0  0  0  0  0  0  0  0  0
  -23.7683  -15.5807   18.7638 C   0  0  0  0  0  0  0  0  0  0  0  0
  -25.2542  -28.7081   19.0995 C   0  0  0  0  0  0  0  0  0  0  0  0
  -25.3997  -28.3192   21.4796 C   0  0  0  0  0  0  0  0  0  0  0  0
  -24.7688  -14.6240   18.9301 C   0  0  0  0  0  0  0  0  0  0  0  0
  -22.4966  -30.1911   22.6102 C   0  0  0  0  0  0  0  0  0  0  0  0
  -21.4924  -29.7992   23.4954 C   0  0  0  0  0  0  0  0  0  0  0  0
  -24.9735  -15.2505   21.2507 C   0  0  0  0  0  0  0  0  0  0  0  0
  -21.0236  -27.8750   22.1117 C   0  0  0  0  0  0  0  0  0  0  0  0
  -26.9177  -27.1911   19.9762 C   0  0  0  0  0  0  0  0  0  0  0  0
  -29.3851  -26.5925   19.7285 C   0  0  0  0  0  0  0  0  0  0  0  0
  -22.9649  -23.3874   17.6640 C   0  0  0  0  0  0  0  0  0  0  0  0
  -23.3699  -16.3883   19.8387 C   0  0  0  0  0  0  0  0  0  0  0  0
  -23.5967  -22.1420   17.8429 C   0  0  0  0  0  0  0  0  0  0  0  0
  -23.9660  -16.2149   21.0959 C   0  0  0  0  0  0  0  0  0  0  0  0
  -24.7967  -28.9545   20.3940 C   0  0  0  0  0  0  0  0  0  0  0  0
  -25.3735  -14.4608   20.1730 C   0  0  0  0  0  0  0  0  0  0  0  0
  -22.7642  -29.4250   21.4757 C   0  0  0  0  0  0  0  0  0  0  0  0
  -20.7559  -28.6411   23.2462 C   0  0  0  0  0  0  0  0  0  0  0  0
  -22.0277  -28.2669   21.2264 C   0  0  0  0  0  0  0  0  0  0  0  0
  -28.0128  -26.2799   19.7611 C   0  0  0  0  0  0  0  0  0  0  0  0
  -30.8041  -16.3234   20.5554 C   0  0  0  0  0  0  0  0  0  0  0  0
  -30.7573  -14.1707   19.7852 C   0  0  0  0  0  0  0  0  0  0  0  0
  -29.4415  -16.2823   20.7532 C   0  0  0  0  0  0  0  0  0  0  0  0
  -29.3948  -14.1293   19.9836 C   0  0  0  0  0  0  0  0  0  0  0  0
  -30.0058  -25.3898   19.4949 C   0  0  0  0  0  0  0  0  0  0  0  0
  -30.0400  -27.8571   19.8947 C   0  0  0  0  0  0  0  0  0  0  0  0
  -23.4010  -19.5112   20.4302 C   0  0  0  0  0  0  0  0  0  0  0  0
  -21.7701  -18.6282   23.0915 C   0  0  0  0  0  0  0  0  0  0  0  0
  -21.0253  -16.1862   25.3562 C   0  0  0  0  0  0  0  0  0  0  0  0
  -28.3809  -19.8339   20.6555 C   0  0  0  0  0  0  0  0  0  0  0  0
  -22.6711  -24.3022   18.8266 C   0  0  0  0  0  0  0  0  0  0  0  0
  -22.2706  -17.3973   19.6495 C   0  0  0  0  0  0  0  0  0  0  0  0
  -23.5601  -17.0427   22.2869 C   0  0  0  0  0  0  0  0  0  0  0  0
  -22.7055  -23.5972   20.1802 C   0  0  0  0  0  0  0  0  0  0  0  0
  -29.2814  -21.1454   17.4049 C   0  0  0  0  0  0  0  0  0  0  0  0
  -23.9451  -22.7154   20.2915 C   0  0  0  0  0  0  0  0  0  0  0  0
  -29.1857  -22.6527   17.6479 C   0  0  0  0  0  0  0  0  0  0  0  0
  -28.1873  -20.3936   18.1571 C   0  0  0  0  0  0  0  0  0  0  0  0
  -28.0602  -22.1622   19.8688 C   0  0  0  0  0  0  0  0  0  0  0  0
  -23.9394  -21.6179   19.2206 C   0  0  1  0  0  0  0  0  0  0  0  0
  -22.3031  -18.5175   20.6846 C   0  0  1  0  0  0  0  0  0  0  0  0
  -29.1532  -22.9766   19.1533 C   0  0  2  0  0  0  0  0  0  0  0  0
  -31.5992  -17.5438   20.8713 C   0  0  0  0  0  0  0  0  0  0  0  0
  -31.5001  -12.9967   19.2449 C   0  0  0  0  0  0  0  0  0  0  0  0
  -28.5503  -11.9248   20.8547 C   0  0  0  0  0  0  0  0  0  0  0  0
  -19.6919  -15.7740   27.4417 C   0  0  0  0  0  0  0  0  0  0  0  0
  -23.8526  -20.1509   24.7209 C   0  0  0  0  0  0  0  0  0  0  0  0
  -23.0444  -18.9385   26.7569 C   0  0  0  0  0  0  0  0  0  0  0  0
  -21.4962  -20.4425   25.5064 C   0  0  0  0  0  0  0  0  0  0  0  0
  -19.3986  -14.0923   24.0415 C   0  0  0  0  0  0  0  0  0  0  0  0
  -28.6986  -17.4568   21.2921 C   0  0  0  0  0  0  0  0  0  0  0  0
  -27.1605  -13.2280   19.2020 C   0  0  0  0  0  0  0  0  0  1  0  0
  -28.5839  -12.8839   19.6615 C   0  0  1  0  0  0  0  0  0  0  0  0
  -22.1527  -18.2209   24.4939 C   0  0  1  0  0  0  0  0  0  0  0  0
  -19.7006  -15.7077   25.9224 C   0  0  2  0  0  0  0  0  0  0  0  0
  -22.6457  -19.4238   25.3468 C   0  0  0  0  0  0  0  0  0  0  0  0
  -27.7753  -24.9804   19.5638 N   0  0  0  0  0  0  0  0  0  0  0  0
  -31.4864  -15.2684   20.0678 N   0  0  0  0  0  0  0  0  0  0  0  0
  -28.7124  -15.1844   20.4709 N   0  0  0  0  0  0  0  0  0  0  0  0
  -29.0066  -24.4659   19.4049 N   0  0  0  0  0  0  0  0  0  0  0  0
  -22.4852  -18.0203   22.0499 N   0  0  0  0  0  0  0  0  0  0  0  0
  -28.2228  -20.7320   19.5869 N   0  0  0  0  0  0  0  0  0  0  0  0
  -31.3034  -25.0430   19.3596 N   0  0  0  0  0  0  0  0  0  0  0  0
  -29.2518  -28.9923   20.1276 N   0  0  0  0  0  0  0  0  0  0  0  0
  -23.0368  -20.5506   19.5956 N   0  0  0  0  0  0  0  0  0  0  0  0
  -20.9938  -17.5300   25.0488 N   0  0  0  0  0  0  0  0  0  0  0  0
  -28.5216  -18.4971   20.3035 N   0  0  0  0  0  0  0  0  0  0  0  0
  -19.4405  -14.2988   25.5120 N   0  3  0  0  0  0  0  0  0  0  0  0
  -31.2863  -27.9795   19.8219 O   0  0  0  0  0  0  0  0  0  0  0  0
  -24.4970  -19.3480   20.9535 O   0  0  0  0  0  0  0  0  0  0  0  0
  -20.8652  -19.4500   22.9262 O   0  0  0  0  0  0  0  0  0  0  0  0
  -21.9926  -15.4431   25.2053 O   0  0  0  0  0  0  0  0  0  0  0  0
  -28.4007  -20.1972   21.8365 O   0  0  0  0  0  0  0  0  0  0  0  0
  -23.7620  -29.8149   20.5982 O   0  0  0  0  0  0  0  0  0  0  0  0
  -26.3508  -13.5282   20.3380 O   0  0  0  0  0  0  0  0  0  1  0  0
  -19.7927  -28.2641   24.0972 F   0  0  0  0  0  0  0  0  0  0  0  0
  -22.2811  -27.5262   20.1388 F   0  0  0  0  0  0  0  0  0  0  0  0
  1  2  1  0  0  0  0
  1  5  2  0  0  0  0
  2  6  2  0  0  0  0
  3  8  2  0  0  0  0
  3 15  1  0  0  0  0
  4  9  1  0  0  0  0
  4 15  2  0  0  0  0
  5 17  1  0  0  0  0
  6 19  1  0  0  0  0
  7 10  2  0  0  0  0
  7 18  1  0  0  0  0
  8 21  1  0  0  0  0
  9 21  2  0  0  0  0
 10 22  1  0  0  0  0
 11 12  2  0  0  0  0
 11 23  1  0  0  0  0
 12 24  1  0  0  0  0
 13 20  1  0  0  0  0
 13 22  2  0  0  0  0
 14 24  2  0  0  0  0
 14 25  1  0  0  0  0
 15 26  1  0  0  0  0
 16 26  1  0  0  0  0
 16 31  2  0  0  0  0
 16 32  1  0  0  0  0
 17 19  2  0  0  0  0
 17 37  1  0  0  0  0
 18 20  2  0  0  0  0
 18 38  1  0  0  0  0
 19 46  1  0  0  0  0
 20 39  1  0  0  0  0
 21 80  1  0  0  0  0
 22 81  1  0  0  0  0
 23 25  2  0  0  0  0
 23 80  1  0  0  0  0
 24 82  1  0  0  0  0
 25 83  1  0  0  0  0
 26 63  2  0  0  0  0
 27 29  1  0  0  0  0
 27 49  1  0  0  0  0
 27 64  2  0  0  0  0
 28 30  2  0  0  0  0
 28 50  1  0  0  0  0
 28 64  1  0  0  0  0
 29 57  1  0  0  0  0
 29 65  2  0  0  0  0
 30 59  1  0  0  0  0
 30 65  1  0  0  0  0
 31 66  1  0  0  0  0
 31 69  1  0  0  0  0
 32 70  1  0  0  0  0
 32 75  2  0  0  0  0
 33 47  1  0  0  0  0
 33 71  1  0  0  0  0
 33 76  2  0  0  0  0
 34 60  1  0  0  0  0
 34 67  1  0  0  0  0
 34 77  2  0  0  0  0
 35 61  1  0  0  0  0
 35 72  1  0  0  0  0
 35 78  2  0  0  0  0
 36 68  1  0  0  0  0
 36 73  1  0  0  0  0
 36 79  2  0  0  0  0
 37 40  1  0  0  0  0
 38 47  1  0  0  0  0
 39 67  1  0  0  0  0
 40 42  1  0  0  0  0
 41 43  1  0  0  0  0
 41 44  1  0  0  0  0
 42 46  1  0  0  0  0
 43 48  1  0  0  0  0
 44 68  1  0  0  0  0
 45 48  1  0  0  0  0
 45 68  1  0  0  0  0
 46 71  1  0  0  0  0
 47 67  1  0  0  0  0
 48 66  1  0  0  0  0
 51 59  1  0  0  0  0
 52 61  1  0  0  0  0
 53 62  1  0  0  0  0
 54 62  1  0  0  0  0
 55 62  1  0  0  0  0
 56 74  1  0  0  0  0
 57 73  1  0  0  0  0
 58 59  1  0  0  0  0
 58 81  1  0  0  0  0
 60 62  1  0  0  0  0
 60 72  1  0  0  0  0
 61 74  1  0  0  0  0
 63 66  1  0  0  0  0
M  CHG  1  74   1
M  ISO  4  36 100  58 101  73 100  81 101
M  END
> <Batch ID>
0081

> <Smiles>
CNC(C)C(=O)NC(C(=O)N1Cc2cc([101O:1][101CH2:1]C(C)c3nc(C[100NH:0][100C:0](=O)N4CCCC(n5nc(-c6ccc(Oc7ccc(F)cc7F)cc6)c(C(N)=O)c5N)C4)c(C)nc3C)ccc2CC1C(=O)NC1CCCc2ccccc21)C(C)(C)C

> <Shape>
0.230

> <Color>
0.043

> <Negative vol penalty>
0.000

$$$$

  -OEChem-04052318463D

 83 91  0     1  0  0  0  0  0999 V2000
  -20.5185  -30.9049   22.6437 C   0  0  0  0  0  0  0  0  0  0  0  0
  -21.6314  -30.3531   22.0173 C   0  0  0  0  0  0  0  0  0  0  0  0
  -27.4251  -17.5960   19.7486 C   0  0  0  0  0  0  0  0  0  0  0  0
  -28.4519  -17.8397   21.9219 C   0  0  0  0  0  0  0  0  0  0  0  0
  -19.4535  -30.0867   23.0179 C   0  0  0  0  0  0  0  0  0  0  0  0
  -21.6803  -28.9824   21.7658 C   0  0  0  0  0  0  0  0  0  0  0  0
  -23.3408  -27.9212   17.1008 C   0  0  0  0  0  0  0  0  0  0  0  0
  -27.3090  -16.2218   19.9575 C   0  0  0  0  0  0  0  0  0  0  0  0
  -28.3358  -16.4655   22.1308 C   0  0  0  0  0  0  0  0  0  0  0  0
  -24.7149  -28.0034   16.8800 C   0  0  0  0  0  0  0  0  0  0  0  0
  -25.2712  -14.1234   21.6537 C   0  0  0  0  0  0  0  0  0  0  0  0
  -24.0582  -13.5180   21.3255 C   0  0  0  0  0  0  0  0  0  0  0  0
  -24.8854  -25.6060   17.0861 C   0  0  0  0  0  0  0  0  0  0  0  0
  -25.1977  -12.0939   19.7411 C   0  0  0  0  0  0  0  0  0  0  0  0
  -27.2085  -27.0763   20.4081 C   0  0  0  0  0  0  0  0  0  0  0  0
  -27.9966  -18.4050   20.7307 C   0  0  0  0  0  0  0  0  0  0  0  0
  -27.1770  -20.8179   20.8483 C   0  0  0  0  0  0  0  0  0  0  0  0
  -19.4852  -28.7068   22.7622 C   0  0  0  0  0  0  0  0  0  0  0  0
  -22.7293  -26.6797   17.3271 C   0  0  0  0  0  0  0  0  0  0  0  0
  -20.6153  -28.1447   22.1382 C   0  0  0  0  0  0  0  0  0  0  0  0
  -23.5030  -25.5105   17.3070 C   0  0  0  0  0  0  0  0  0  0  0  0
  -27.7644  -15.6565   21.1486 C   0  0  0  0  0  0  0  0  0  0  0  0
  -25.4879  -26.8461   16.8755 C   0  0  0  0  0  0  0  0  0  0  0  0
  -26.4475  -13.7141   21.0255 C   0  0  0  0  0  0  0  0  0  0  0  0
  -24.0214  -12.5032   20.3693 C   0  0  0  0  0  0  0  0  0  0  0  0
  -26.4107  -12.6993   20.0692 C   0  0  0  0  0  0  0  0  0  0  0  0
  -28.1173  -19.8245   20.5153 C   0  0  0  0  0  0  0  0  0  0  0  0
  -27.2955  -27.6909   21.6716 C   0  0  0  0  0  0  0  0  0  0  0  0
  -28.4732  -27.1881   19.8841 C   0  0  0  0  0  0  0  0  0  0  0  0
  -27.7604  -21.9930   20.4418 C   0  0  0  0  0  0  0  0  0  0  0  0
  -25.8913  -20.6898   21.4697 C   0  0  0  0  0  0  0  0  0  0  0  0
  -21.1144  -25.3808   19.7372 C   0  0  0  0  0  0  0  0  0  0  0  0
  -20.6691  -22.9614   17.6229 C   0  0  0  0  0  0  0  0  0  0  0  0
  -21.7529  -21.3091   14.8405 C   0  0  0  0  0  0  0  0  0  0  0  0
  -32.2022  -25.3530   20.0858 C   0  0  0  0  0  0  0  0  0  0  0  0
  -18.3305  -27.8555   23.2278 C   0  0  0  0  0  0  0  0  0  0  0  0
  -21.2418  -26.6053   17.5372 C   0  0  0  0  0  0  0  0  0  0  0  0
  -22.8917  -24.1513   17.5246 C   0  0  0  0  0  0  0  0  0  0  0  0
  -18.2985  -26.4699   22.5880 C   0  0  0  0  0  0  0  0  0  0  0  0
  -31.8654  -22.8216   17.6047 C   0  0  0  0  0  0  0  0  0  0  0  0
  -19.6842  -25.8332   22.6238 C   0  0  0  0  0  0  0  0  0  0  0  0
  -30.7878  -21.8954   18.1711 C   0  0  0  0  0  0  0  0  0  0  0  0
  -32.7681  -23.3759   18.7047 C   0  0  0  0  0  0  0  0  0  0  0  0
  -30.9796  -23.1135   20.3798 C   0  0  0  0  0  0  0  0  0  0  0  0
  -20.6948  -26.6661   21.8260 C   0  0  1  0  0  0  0  0  0  0  0  0
  -20.8040  -25.3396   18.2677 C   0  0  1  0  0  0  0  0  0  0  0  0
  -30.0097  -22.5738   19.3147 C   0  0  2  0  0  0  0  0  0  0  0  0
  -25.4356  -29.1606   22.4888 C   0  0  0  0  0  0  0  0  0  0  0  0
  -21.2037  -19.3470   13.3755 C   0  0  0  0  0  0  0  0  0  0  0  0
  -21.7767  -21.0698   19.7454 C   0  0  0  0  0  0  0  0  0  0  0  0
  -22.0932  -19.3532   17.9505 C   0  0  0  0  0  0  0  0  0  0  0  0
  -19.8040  -20.1861   18.4875 C   0  0  0  0  0  0  0  0  0  0  0  0
  -21.3824  -23.0373   12.4667 C   0  0  0  0  0  0  0  0  0  0  0  0
  -26.2212  -27.8552   22.6654 C   0  0  0  0  0  0  0  0  0  0  0  0
  -29.0423  -26.7324   18.5643 C   0  0  0  0  0  0  0  0  0  0  0  0
  -28.9283  -27.7762   17.4511 C   0  0  0  0  0  0  0  0  0  0  0  0
  -30.6100  -28.1914   20.7454 C   0  0  0  0  0  0  0  0  0  0  0  0
  -31.5129  -27.2467   21.5342 C   0  0  0  0  0  0  0  0  0  0  0  0
  -27.4876  -28.1159   17.0871 C   0  0  0  0  0  0  0  0  0  1  0  0
  -21.4194  -21.7006   17.2674 C   0  0  1  0  0  0  0  0  0  0  0  0
  -21.0185  -20.8401   13.5974 C   0  0  2  0  0  0  0  0  0  0  0  0
  -21.2854  -20.6031   18.3605 C   0  0  0  0  0  0  0  0  0  0  0  0
  -29.2146  -20.3249   19.9412 N   0  0  0  0  0  0  0  0  0  0  0  0
  -28.5187  -28.1583   21.9346 N   0  0  0  0  0  0  0  0  0  0  0  0
  -29.2121  -27.8372   20.8290 N   0  0  0  0  0  0  0  0  0  0  0  0
  -28.9675  -21.6455   19.9104 N   0  0  0  0  0  0  0  0  0  0  0  0
  -21.4342  -24.1312   17.7320 N   0  0  0  0  0  0  0  0  0  0  0  0
  -31.9687  -24.0074   19.7573 N   0  0  0  0  0  0  0  0  0  0  0  0
  -27.3535  -23.2792   20.4906 N   0  0  0  0  0  0  0  0  0  0  0  0
  -25.4447  -19.4093   21.8235 N   0  0  0  0  0  0  0  0  0  0  0  0
  -20.5287  -26.4384   20.4065 N   0  0  0  0  0  0  0  0  0  0  0  0
  -20.9366  -21.2956   15.9516 N   0  0  0  0  0  0  0  0  0  0  0  0
  -31.3964  -25.8756   21.0899 N   0  0  0  0  0  0  0  0  0  0  0  0
  -21.5239  -21.5602   12.3945 N   0  3  0  0  0  0  0  0  0  0  0  0
  -25.1530  -21.6799   21.6893 O   0  0  0  0  0  0  0  0  0  0  0  0
  -21.8309  -24.5162   20.2280 O   0  0  0  0  0  0  0  0  0  0  0  0
  -19.4480  -22.9116   17.7904 O   0  0  0  0  0  0  0  0  0  0  0  0
  -22.9338  -21.6496   14.8278 O   0  0  0  0  0  0  0  0  0  0  0  0
  -33.0612  -26.0393   19.5220 O   0  0  0  0  0  0  0  0  0  0  0  0
  -27.6511  -14.3156   21.3529 O   0  0  0  0  0  0  0  0  0  0  0  0
  -26.8295  -26.9236   16.6609 O   0  0  0  0  0  0  0  0  0  1  0  0
  -22.8567  -11.9209   20.0554 F   0  0  0  0  0  0  0  0  0  0  0  0
  -27.5376  -12.3010   19.4632 F   0  0  0  0  0  0  0  0  0  0  0  0
  1  2  1  0  0  0  0
  1  5  2  0  0  0  0
  2  6  2  0  0  0  0
  3  8  2  0  0  0  0
  3 16  1  0  0  0  0
  4  9  1  0  0  0  0
  4 16  2  0  0  0  0
  5 18  1  0  0  0  0
  6 20  1  0  0  0  0
  7 10  2  0  0  0  0
  7 19  1  0  0  0  0
  8 22  1  0  0  0  0
  9 22  2  0  0  0  0
 10 23  1  0  0  0  0
 11 12  2  0  0  0  0
 11 24  1  0  0  0  0
 12 25  1  0  0  0  0
 13 21  1  0  0  0  0
 13 23  2  0  0  0  0
 14 25  2  0  0  0  0
 14 26  1  0  0  0  0
 15 28  1  0  0  0  0
 15 29  2  0  0  0  0
 16 27  1  0  0  0  0
 17 27  1  0  0  0  0
 17 30  2  0  0  0  0
 17 31  1  0  0  0  0
 18 20  2  0  0  0  0
 18 36  1  0  0  0  0
 19 21  2  0  0  0  0
 19 37  1  0  0  0  0
 20 45  1  0  0  0  0
 21 38  1  0  0  0  0
 22 80  1  0  0  0  0
 23 81  1  0  0  0  0
 24 26  2  0  0  0  0
 24 80  1  0  0  0  0
 25 82  1  0  0  0  0
 26 83  1  0  0  0  0
 27 63  2  0  0  0  0
 28 54  1  0  0  0  0
 28 64  2  0  0  0  0
 29 55  1  0  0  0  0
 29 65  1  0  0  0  0
 30 66  1  0  0  0  0
 30 69  1  0  0  0  0
 31 70  1  0  0  0  0
 31 75  2  0  0  0  0
 32 46  1  0  0  0  0
 32 71  1  0  0  0  0
 32 76  2  0  0  0  0
 33 60  1  0  0  0  0
 33 67  1  0  0  0  0
 33 77  2  0  0  0  0
 34 61  1  0  0  0  0
 34 72  1  0  0  0  0
 34 78  2  0  0  0  0
 35 68  1  0  0  0  0
 35 73  1  0  0  0  0
 35 79  2  0  0  0  0
 36 39  1  0  0  0  0
 37 46  1  0  0  0  0
 38 67  1  0  0  0  0
 39 41  1  0  0  0  0
 40 42  1  0  0  0  0
 40 43  1  0  0  0  0
 41 45  1  0  0  0  0
 42 47  1  0  0  0  0
 43 68  1  0  0  0  0
 44 47  1  0  0  0  0
 44 68  1  0  0  0  0
 45 71  1  0  0  0  0
 46 67  1  0  0  0  0
 47 66  1  0  0  0  0
 48 54  1  0  0  0  0
 49 61  1  0  0  0  0
 50 62  1  0  0  0  0
 51 62  1  0  0  0  0
 52 62  1  0  0  0  0
 53 74  1  0  0  0  0
 55 56  1  0  0  0  0
 56 59  1  0  0  0  0
 57 58  1  0  0  0  0
 57 65  1  0  0  0  0
 58 73  1  0  0  0  0
 59 81  1  0  0  0  0
 60 62  1  0  0  0  0
 60 72  1  0  0  0  0
 61 74  1  0  0  0  0
 63 66  1  0  0  0  0
 64 65  1  0  0  0  0
M  CHG  1  74   1
M  ISO  4  35 100  59 101  73 100  81 101
M  END
> <Batch ID>
0081

> <Smiles>
CCc1cc(CC[101CH2:1][101O:1]c2ccc3c(c2)CN(C(=O)C(NC(=O)C(C)NC)C(C)(C)C)C(C(=O)NC2CCCc4ccccc42)C3)n(CC[100NH:0][100C:0](=O)N2CCCC(n3nc(-c4ccc(Oc5ccc(F)cc5F)cc4)c(C(N)=O)c3N)C2)n1

> <Shape>
0.205

> <Color>
0.050

> <Negative vol penalty>
0.000

$$$$

  -OEChem-04052318463D

 86 94  0     1  0  0  0  0  0999 V2000
  -25.5525  -35.0196   23.2445 C   0  0  0  0  0  0  0  0  0  0  0  0
  -26.2721  -33.8356   23.3709 C   0  0  0  0  0  0  0  0  0  0  0  0
  -23.9388   -9.9681   22.1635 C   0  0  0  0  0  0  0  0  0  0  0  0
  -23.0219  -10.0370   19.9292 C   0  0  0  0  0  0  0  0  0  0  0  0
  -24.1612  -34.9828   23.1612 C   0  0  0  0  0  0  0  0  0  0  0  0
  -25.6007  -32.6143   23.4151 C   0  0  0  0  0  0  0  0  0  0  0  0
  -27.5227  -27.2715   21.1202 C   0  0  0  0  0  0  0  0  0  0  0  0
  -23.1518   -8.8532   22.4520 C   0  0  0  0  0  0  0  0  0  0  0  0
  -22.2350   -8.9220   20.2178 C   0  0  0  0  0  0  0  0  0  0  0  0
  -28.1420  -26.1678   21.7052 C   0  0  0  0  0  0  0  0  0  0  0  0
  -23.2207   -5.5291   21.8369 C   0  0  0  0  0  0  0  0  0  0  0  0
  -23.8273   -4.4610   22.4978 C   0  0  0  0  0  0  0  0  0  0  0  0
  -25.9953  -25.0908   21.9315 C   0  0  0  0  0  0  0  0  0  0  0  0
  -22.2602   -4.6992   24.3212 C   0  0  0  0  0  0  0  0  0  0  0  0
  -28.3400  -22.4262   18.1302 C   0  0  0  0  0  0  0  0  0  0  0  0
  -23.8738  -10.5601   20.9021 C   0  0  0  0  0  0  0  0  0  0  0  0
  -25.9883  -11.7187   20.0691 C   0  0  0  0  0  0  0  0  0  0  0  0
  -23.4730  -33.7598   23.1947 C   0  0  0  0  0  0  0  0  0  0  0  0
  -26.1315  -27.2977   20.9461 C   0  0  0  0  0  0  0  0  0  0  0  0
  -24.1988  -32.5613   23.3335 C   0  0  0  0  0  0  0  0  0  0  0  0
  -25.3611  -26.1949   21.3417 C   0  0  0  0  0  0  0  0  0  0  0  0
  -22.3000   -8.3301   21.4792 C   0  0  0  0  0  0  0  0  0  0  0  0
  -27.3780  -25.0785   22.1136 C   0  0  0  0  0  0  0  0  0  0  0  0
  -22.1339   -6.1823   22.4182 C   0  0  0  0  0  0  0  0  0  0  0  0
  -23.3471   -4.0460   23.7399 C   0  0  0  0  0  0  0  0  0  0  0  0
  -21.6536   -5.7673   23.6602 C   0  0  0  0  0  0  0  0  0  0  0  0
  -24.6860  -11.7122   20.6035 C   0  0  0  0  0  0  0  0  0  0  0  0
  -28.9837  -21.7333   20.0370 C   0  0  0  0  0  0  0  0  0  0  0  0
  -28.6365  -20.6040   19.3337 C   0  0  0  0  0  0  0  0  0  0  0  0
  -26.3143  -13.0497   19.9754 C   0  0  0  0  0  0  0  0  0  0  0  0
  -26.8283  -10.6200   19.6911 C   0  0  0  0  0  0  0  0  0  0  0  0
  -23.7703  -29.1332   22.0230 C   0  0  0  0  0  0  0  0  0  0  0  0
  -21.9817  -27.3584   19.9801 C   0  0  0  0  0  0  0  0  0  0  0  0
  -21.5979  -24.4425   18.2490 C   0  0  0  0  0  0  0  0  0  0  0  0
  -23.8931  -18.1709   18.7817 C   0  0  0  0  0  0  0  0  0  0  0  0
  -21.9656  -33.7735   23.1489 C   0  0  0  0  0  0  0  0  0  0  0  0
  -25.4816  -28.4845   20.2891 C   0  0  0  0  0  0  0  0  0  0  0  0
  -23.8664  -26.1650   21.1586 C   0  0  0  0  0  0  0  0  0  0  0  0
  -21.3536  -32.4128   22.8262 C   0  0  0  0  0  0  0  0  0  0  0  0
  -24.6796  -17.1962   22.1146 C   0  0  0  0  0  0  0  0  0  0  0  0
  -22.0089  -31.3202   23.6650 C   0  0  0  0  0  0  0  0  0  0  0  0
  -24.8825  -15.6833   22.0150 C   0  0  0  0  0  0  0  0  0  0  0  0
  -23.5662  -17.6785   21.1874 C   0  0  0  0  0  0  0  0  0  0  0  0
  -23.9206  -15.7637   19.6768 C   0  0  0  0  0  0  0  0  0  0  0  0
  -23.5080  -31.2151   23.3600 C   0  0  1  0  0  0  0  0  0  0  0  0
  -24.0008  -28.6196   20.6299 C   0  0  1  0  0  0  0  0  0  0  0  0
  -25.0709  -15.2379   20.5524 C   0  0  2  0  0  0  0  0  0  0  0  0
  -28.6572  -19.1755   19.6952 C   0  0  0  0  0  0  0  0  0  0  0  0
  -20.0163  -23.2680   16.6945 C   0  0  0  0  0  0  0  0  0  0  0  0
  -20.1299  -26.7502   22.3276 C   0  0  0  0  0  0  0  0  0  0  0  0
  -19.1616  -24.8707   20.9866 C   0  0  0  0  0  0  0  0  0  0  0  0
  -18.9579  -27.2185   20.1686 C   0  0  0  0  0  0  0  0  0  0  0  0
  -26.5991  -17.7475   15.8193 C   0  0  0  0  0  0  0  0  0  0  0  0
  -25.6741  -19.8042   14.7556 C   0  0  0  0  0  0  0  0  0  0  0  0
  -23.6295  -24.3019   16.1015 C   0  0  0  0  0  0  0  0  0  0  0  0
  -29.5088  -21.8361   21.4467 C   0  0  0  0  0  0  0  0  0  0  0  0
  -28.4336  -21.6502   22.5196 C   0  0  0  0  0  0  0  0  0  0  0  0
  -26.3089  -19.8120   17.2140 C   0  0  0  0  0  0  0  0  0  0  0  0
  -27.7572  -20.2721   17.0015 C   0  0  0  0  0  0  0  0  0  0  0  0
  -24.2494  -18.5050   16.3485 C   0  0  0  0  0  0  0  0  0  0  0  0
  -27.3586  -22.7304   22.4907 C   0  0  0  0  0  0  0  0  0  1  0  0
  -21.2070  -26.0668   20.0829 C   0  0  1  0  0  0  0  0  0  0  0  0
  -21.2350  -24.1715   16.8001 C   0  0  2  0  0  0  0  0  0  0  0  0
  -19.8920  -26.2276   20.8968 C   0  0  0  0  0  0  0  0  0  0  0  0
  -25.6937  -18.9757   16.0562 C   0  0  0  0  0  0  0  0  0  0  0  0
  -28.7965  -22.8643   19.2824 N   0  0  0  0  0  0  0  0  0  0  0  0
  -24.2168  -12.9414   20.8334 N   0  0  0  0  0  0  0  0  0  0  0  0
  -28.2257  -21.0639   18.1143 N   0  0  0  0  0  0  0  0  0  0  0  0
  -25.2298  -13.7328   20.4416 N   0  0  0  0  0  0  0  0  0  0  0  0
  -23.2769  -27.3517   20.5170 N   0  0  0  0  0  0  0  0  0  0  0  0
  -23.8057  -17.2240   19.8155 N   0  0  0  0  0  0  0  0  0  0  0  0
  -27.4200  -13.6906   19.5407 N   0  0  0  0  0  0  0  0  0  0  0  0
  -26.3375   -9.3172   19.8531 N   0  0  0  0  0  0  0  0  0  0  0  0
  -23.7221  -30.5112   22.1138 N   0  0  0  0  0  0  0  0  0  0  0  0
  -21.0097  -25.5992   18.7151 N   0  0  0  0  0  0  0  0  0  0  0  0
  -24.1280  -17.6560   17.5127 N   0  0  0  0  0  0  0  0  0  0  0  0
  -22.3711  -23.5123   16.0961 N   0  3  0  0  0  0  0  0  0  0  0  0
  -27.9862  -10.7880   19.2387 O   0  0  0  0  0  0  0  0  0  0  0  0
  -23.6439  -28.3381   22.9469 O   0  0  0  0  0  0  0  0  0  0  0  0
  -21.4596  -28.3351   19.4368 O   0  0  0  0  0  0  0  0  0  0  0  0
  -22.3270  -23.7001   18.9031 O   0  0  0  0  0  0  0  0  0  0  0  0
  -23.7762  -19.3856   18.9761 O   0  0  0  0  0  0  0  0  0  0  0  0
  -21.5322   -7.2420   21.7604 O   0  0  0  0  0  0  0  0  0  0  0  0
  -27.9799  -24.0003   22.6855 O   0  0  0  0  0  0  0  0  0  1  0  0
  -23.9288   -3.0194   24.3737 F   0  0  0  0  0  0  0  0  0  0  0  0
  -20.6091   -6.3902   24.2231 F   0  0  0  0  0  0  0  0  0  0  0  0
  1  2  1  0  0  0  0
  1  5  2  0  0  0  0
  2  6  2  0  0  0  0
  3  8  2  0  0  0  0
  3 16  1  0  0  0  0
  4  9  1  0  0  0  0
  4 16  2  0  0  0  0
  5 18  1  0  0  0  0
  6 20  1  0  0  0  0
  7 10  2  0  0  0  0
  7 19  1  0  0  0  0
  8 22  1  0  0  0  0
  9 22  2  0  0  0  0
 10 23  1  0  0  0  0
 11 12  2  0  0  0  0
 11 24  1  0  0  0  0
 12 25  1  0  0  0  0
 13 21  1  0  0  0  0
 13 23  2  0  0  0  0
 14 25  2  0  0  0  0
 14 26  1  0  0  0  0
 15 66  2  0  0  0  0
 15 68  1  0  0  0  0
 16 27  1  0  0  0  0
 17 27  1  0  0  0  0
 17 30  2  0  0  0  0
 17 31  1  0  0  0  0
 18 20  2  0  0  0  0
 18 36  1  0  0  0  0
 19 21  2  0  0  0  0
 19 37  1  0  0  0  0
 20 45  1  0  0  0  0
 21 38  1  0  0  0  0
 22 83  1  0  0  0  0
 23 84  1  0  0  0  0
 24 26  2  0  0  0  0
 24 83  1  0  0  0  0
 25 85  1  0  0  0  0
 26 86  1  0  0  0  0
 27 67  2  0  0  0  0
 28 29  2  0  0  0  0
 28 56  1  0  0  0  0
 28 66  1  0  0  0  0
 29 48  1  0  0  0  0
 29 68  1  0  0  0  0
 30 69  1  0  0  0  0
 30 72  1  0  0  0  0
 31 73  1  0  0  0  0
 31 78  2  0  0  0  0
 32 46  1  0  0  0  0
 32 74  1  0  0  0  0
 32 79  2  0  0  0  0
 33 62  1  0  0  0  0
 33 70  1  0  0  0  0
 33 80  2  0  0  0  0
 34 63  1  0  0  0  0
 34 75  1  0  0  0  0
 34 81  2  0  0  0  0
 35 71  1  0  0  0  0
 35 76  1  0  0  0  0
 35 82  2  0  0  0  0
 36 39  1  0  0  0  0
 37 46  1  0  0  0  0
 38 70  1  0  0  0  0
 39 41  1  0  0  0  0
 40 42  1  0  0  0  0
 40 43  1  0  0  0  0
 41 45  1  0  0  0  0
 42 47  1  0  0  0  0
 43 71  1  0  0  0  0
 44 47  1  0  0  0  0
 44 71  1  0  0  0  0
 45 74  1  0  0  0  0
 46 70  1  0  0  0  0
 47 69  1  0  0  0  0
 49 63  1  0  0  0  0
 50 64  1  0  0  0  0
 51 64  1  0  0  0  0
 52 64  1  0  0  0  0
 53 65  1  0  0  0  0
 54 65  1  0  0  0  0
 55 77  1  0  0  0  0
 56 57  1  0  0  0  0
 57 61  1  0  0  0  0
 58 59  1  0  0  0  0
 58 65  1  0  0  0  0
 59 68  1  0  0  0  0
 60 65  1  0  0  0  0
 60 76  1  0  0  0  0
 61 84  1  0  0  0  0
 62 64  1  0  0  0  0
 62 75  1  0  0  0  0
 63 77  1  0  0  0  0
 67 69  1  0  0  0  0
M  CHG  1  77   1
M  ISO  4  35 100  61 101  76 100  84 101
M  END
> <Batch ID>
0081

> <Smiles>
CNC(C)C(=O)NC(C(=O)N1Cc2cc([101O:1][101CH2:1]CCc3ncn(CCC(C)(C)C[100NH:0][100C:0](=O)N4CCCC(n5nc(-c6ccc(Oc7ccc(F)cc7F)cc6)c(C(N)=O)c5N)C4)c3C)ccc2CC1C(=O)NC1CCCc2ccccc21)C(C)(C)C

> <Shape>
0.252

> <Color>
0.084

> <Negative vol penalty>
0.000

$$$$

  -OEChem-04052318463D

 82 90  0     1  0  0  0  0  0999 V2000
  -27.5511   -4.9032   22.6069 C   0  0  0  0  0  0  0  0  0  0  0  0
  -27.7947   -5.7629   21.5407 C   0  0  0  0  0  0  0  0  0  0  0  0
  -21.8838  -29.5300   21.3649 C   0  0  0  0  0  0  0  0  0  0  0  0
  -22.5580  -27.2494   21.7906 C   0  0  0  0  0  0  0  0  0  0  0  0
  -26.2995   -4.8936   23.2213 C   0  0  0  0  0  0  0  0  0  0  0  0
  -26.7864   -6.6129   21.0874 C   0  0  0  0  0  0  0  0  0  0  0  0
  -27.7145  -13.7560   21.0092 C   0  0  0  0  0  0  0  0  0  0  0  0
  -20.5637  -29.1096   21.2031 C   0  0  0  0  0  0  0  0  0  0  0  0
  -21.2379  -26.8290   21.6288 C   0  0  0  0  0  0  0  0  0  0  0  0
  -27.8931  -15.1180   20.7657 C   0  0  0  0  0  0  0  0  0  0  0  0
  -18.3932  -26.8006   23.4530 C   0  0  0  0  0  0  0  0  0  0  0  0
  -17.8828  -25.8990   24.3868 C   0  0  0  0  0  0  0  0  0  0  0  0
  -25.6098  -15.2892   19.9879 C   0  0  0  0  0  0  0  0  0  0  0  0
  -17.4759  -24.3008   22.6212 C   0  0  0  0  0  0  0  0  0  0  0  0
  -22.8810  -28.6000   21.6586 C   0  0  0  0  0  0  0  0  0  0  0  0
  -24.7356  -29.9500   22.7746 C   0  0  0  0  0  0  0  0  0  0  0  0
  -25.2784   -5.7507   22.7815 C   0  0  0  0  0  0  0  0  0  0  0  0
  -26.4766  -13.1580   20.7572 C   0  0  0  0  0  0  0  0  0  0  0  0
  -25.5196   -6.6138   21.6956 C   0  0  0  0  0  0  0  0  0  0  0  0
  -25.4212  -13.9280   20.2416 C   0  0  0  0  0  0  0  0  0  0  0  0
  -20.2407  -27.7591   21.3351 C   0  0  0  0  0  0  0  0  0  0  0  0
  -26.8434  -15.8826   20.2560 C   0  0  0  0  0  0  0  0  0  0  0  0
  -18.4449  -26.4524   22.1033 C   0  0  0  0  0  0  0  0  0  0  0  0
  -17.4242  -24.6490   23.9710 C   0  0  0  0  0  0  0  0  0  0  0  0
  -17.9863  -25.2025   21.6874 C   0  0  0  0  0  0  0  0  0  0  0  0
  -24.2449  -29.0336   21.8253 C   0  0  0  0  0  0  0  0  0  0  0  0
  -26.0834  -30.0197   22.5198 C   0  0  0  0  0  0  0  0  0  0  0  0
  -24.0356  -30.6735   23.7955 C   0  0  0  0  0  0  0  0  0  0  0  0
  -24.4063  -10.0301   20.8339 C   0  0  0  0  0  0  0  0  0  0  0  0
  -29.8812  -26.1538   19.9230 C   0  0  0  0  0  0  0  0  0  0  0  0
  -22.5944  -12.3212   21.7711 C   0  0  0  0  0  0  0  0  0  0  0  0
  -20.2093  -14.2556   23.2564 C   0  0  0  0  0  0  0  0  0  0  0  0
  -23.9270   -5.6709   23.4464 C   0  0  0  0  0  0  0  0  0  0  0  0
  -26.2574  -11.6815   20.9466 C   0  0  0  0  0  0  0  0  0  0  0  0
  -24.1176  -13.2350   19.9530 C   0  0  0  0  0  0  0  0  0  0  0  0
  -23.0296   -6.8691   23.1479 C   0  0  0  0  0  0  0  0  0  0  0  0
  -29.2628  -29.5565   18.9850 C   0  0  0  0  0  0  0  0  0  0  0  0
  -23.0476   -7.1913   21.6571 C   0  0  0  0  0  0  0  0  0  0  0  0
  -27.9363  -29.8822   19.6700 C   0  0  0  0  0  0  0  0  0  0  0  0
  -28.9589  -22.8601   21.6482 C   0  0  0  0  0  0  0  0  0  0  0  0
  -28.2484  -23.8064   19.4234 C   0  0  0  0  0  0  0  0  0  0  0  0
  -29.3079  -28.1053   18.5168 C   0  0  0  0  0  0  0  0  0  0  0  0
  -27.7124  -27.4333   20.2844 C   0  0  0  0  0  0  0  0  0  0  0  0
  -28.7131  -21.4531   21.1212 C   0  0  0  0  0  0  0  0  0  0  0  0
  -28.0066  -22.3947   18.9074 C   0  0  0  0  0  0  0  0  0  0  0  0
  -24.4591   -7.5683   21.1912 C   0  0  1  0  0  0  0  0  0  0  0  0
  -24.8360  -11.3393   21.4277 C   0  0  1  0  0  0  0  0  0  0  0  0
  -29.3168  -23.8363   20.5220 C   0  0  0  0  0  0  0  0  0  0  0  0
  -27.6373  -28.8813   20.8001 C   0  0  2  0  0  0  0  0  0  0  0  0
  -30.7763  -26.7627   22.6714 C   0  0  0  0  0  0  0  0  0  0  0  0
  -17.7252  -14.4269   23.5683 C   0  0  0  0  0  0  0  0  0  0  0  0
  -22.3097  -13.3450   18.9119 C   0  0  0  0  0  0  0  0  0  0  0  0
  -20.1180  -14.3611   19.5694 C   0  0  0  0  0  0  0  0  0  0  0  0
  -20.4313  -11.8893   19.6910 C   0  0  0  0  0  0  0  0  0  0  0  0
  -20.4455  -14.0204   26.1971 C   0  0  0  0  0  0  0  0  0  0  0  0
  -30.5597  -25.3450   22.1630 C   0  0  0  0  0  0  0  0  0  0  0  0
  -26.3338  -19.4414   20.5818 C   0  0  0  0  0  0  0  0  0  0  0  0
  -27.2731  -20.1125   19.5911 C   0  0  0  0  0  0  0  0  0  0  0  0
  -25.8770  -18.0534   20.1499 C   0  0  0  0  0  0  0  0  0  1  0  0
  -29.4941  -25.2517   21.0676 C   0  0  1  0  0  0  0  0  0  0  0  0
  -21.5803  -13.3693   21.3885 C   0  0  1  0  0  0  0  0  0  0  0  0
  -19.0300  -13.8977   24.1429 C   0  0  2  0  0  0  0  0  0  0  0  0
  -21.1337  -13.2480   19.9042 C   0  0  0  0  0  0  0  0  0  0  0  0
  -25.2030  -28.5555   21.0269 N   0  0  0  0  0  0  0  0  0  0  0  0
  -26.3093  -29.1740   21.4739 N   0  0  0  0  0  0  0  0  0  0  0  0
  -23.7912  -12.3040   21.0446 N   0  0  0  0  0  0  0  0  0  0  0  0
  -28.9965  -27.1871   19.6137 N   0  0  0  0  0  0  0  0  0  0  0  0
  -27.0856  -30.7213   23.0906 N   0  0  0  0  0  0  0  0  0  0  0  0
  -23.9066  -30.0864   25.0616 N   0  0  0  0  0  0  0  0  0  0  0  0
  -24.7738   -8.9264   21.5797 N   0  0  0  0  0  0  0  0  0  0  0  0
  -20.4907  -13.2539   22.3517 N   0  0  0  0  0  0  0  0  0  0  0  0
  -27.6400  -21.4933   20.0609 N   0  3  0  0  0  0  0  0  0  0  0  0
  -19.2120  -14.4746   25.5049 N   0  3  0  0  0  0  0  0  0  0  0  0
  -23.5249  -31.8000   23.5863 O   0  0  0  0  0  0  0  0  0  0  0  0
  -23.7855  -10.0206   19.7774 O   0  0  0  0  0  0  0  0  0  0  0  0
  -30.9402  -25.9466   19.3247 O   0  0  0  0  0  0  0  0  0  0  0  0
  -22.3328  -11.5340   22.6850 O   0  0  0  0  0  0  0  0  0  0  0  0
  -20.8174  -15.3192   23.3541 O   0  0  0  0  0  0  0  0  0  0  0  0
  -18.9527  -27.3485   21.1775 O   0  0  0  0  0  0  0  0  0  0  0  0
  -27.0232  -17.2126   20.0248 O   0  0  0  0  0  0  0  0  0  1  0  0
  -16.9355  -23.7826   24.8680 F   0  0  0  0  0  0  0  0  0  0  0  0
  -18.0345  -24.8619   20.3922 F   0  0  0  0  0  0  0  0  0  0  0  0
  1  2  1  0  0  0  0
  1  5  2  0  0  0  0
  2  6  2  0  0  0  0
  3  8  2  0  0  0  0
  3 15  1  0  0  0  0
  4  9  1  0  0  0  0
  4 15  2  0  0  0  0
  5 17  1  0  0  0  0
  6 19  1  0  0  0  0
  7 10  2  0  0  0  0
  7 18  1  0  0  0  0
  8 21  1  0  0  0  0
  9 21  2  0  0  0  0
 10 22  1  0  0  0  0
 11 12  2  0  0  0  0
 11 23  1  0  0  0  0
 12 24  1  0  0  0  0
 13 20  1  0  0  0  0
 13 22  2  0  0  0  0
 14 24  2  0  0  0  0
 14 25  1  0  0  0  0
 15 26  1  0  0  0  0
 16 26  1  0  0  0  0
 16 27  2  0  0  0  0
 16 28  1  0  0  0  0
 17 19  2  0  0  0  0
 17 33  1  0  0  0  0
 18 20  2  0  0  0  0
 18 34  1  0  0  0  0
 19 46  1  0  0  0  0
 20 35  1  0  0  0  0
 21 79  1  0  0  0  0
 22 80  1  0  0  0  0
 23 25  2  0  0  0  0
 23 79  1  0  0  0  0
 24 81  1  0  0  0  0
 25 82  1  0  0  0  0
 26 64  2  0  0  0  0
 27 65  1  0  0  0  0
 27 68  1  0  0  0  0
 28 69  1  0  0  0  0
 28 74  2  0  0  0  0
 29 47  1  0  0  0  0
 29 70  1  0  0  0  0
 29 75  2  0  0  0  0
 30 60  1  0  0  0  0
 30 67  1  0  0  0  0
 30 76  2  0  0  0  0
 31 61  1  0  0  0  0
 31 66  1  0  0  0  0
 31 77  2  0  0  0  0
 32 62  1  0  0  0  0
 32 71  1  0  0  0  0
 32 78  2  0  0  0  0
 33 36  1  0  0  0  0
 34 47  1  0  0  0  0
 35 66  1  0  0  0  0
 36 38  1  0  0  0  0
 37 39  1  0  0  0  0
 37 42  1  0  0  0  0
 38 46  1  0  0  0  0
 39 49  1  0  0  0  0
 40 44  1  0  0  0  0
 40 48  1  0  0  0  0
 41 45  1  0  0  0  0
 41 48  1  0  0  0  0
 42 67  1  0  0  0  0
 43 49  1  0  0  0  0
 43 67  1  0  0  0  0
 44 72  1  0  0  0  0
 45 72  1  0  0  0  0
 46 70  1  0  0  0  0
 47 66  1  0  0  0  0
 48 60  1  0  0  0  0
 49 65  1  0  0  0  0
 50 56  1  0  0  0  0
 51 62  1  0  0  0  0
 52 63  1  0  0  0  0
 53 63  1  0  0  0  0
 54 63  1  0  0  0  0
 55 73  1  0  0  0  0
 56 60  1  0  0  0  0
 57 58  1  0  0  0  0
 57 59  1  0  0  0  0
 58 72  1  0  0  0  0
 59 80  1  0  0  0  0
 61 63  1  0  0  0  0
 61 71  1  0  0  0  0
 62 73  1  0  0  0  0
 64 65  1  0  0  0  0
M  CHG  2  72   1  73   1
M  ISO  4  30 100  59 101  60 100  80 101
M  END
> <Batch ID>
0081

> <Smiles>
CC[100CH:0](C1CCN(CC[101CH2:1][101O:1]c2ccc3c(c2)CN(C(=O)C(NC(=O)C(C)NC)C(C)(C)C)C(C(=O)NC2CCCc4ccccc42)C3)CC1)[100C:0](=O)N1CCCC(n2nc(-c3ccc(Oc4ccc(F)cc4F)cc3)c(C(N)=O)c2N)C1

> <Shape>
0.262

> <Color>
0.051

> <Negative vol penalty>
0.000

$$$$

  -OEChem-04052318463D

 84 92  0     1  0  0  0  0  0999 V2000
  -26.3556  -24.0465   17.0604 C   0  0  0  0  0  0  0  0  0  0  0  0
  -25.2352  -24.6108   17.6620 C   0  0  0  0  0  0  0  0  0  0  0  0
  -25.4736  -13.2045   19.3897 C   0  0  0  0  0  0  0  0  0  0  0  0
  -24.4389  -13.1722   21.5727 C   0  0  0  0  0  0  0  0  0  0  0  0
  -27.6113  -24.1988   17.6467 C   0  0  0  0  0  0  0  0  0  0  0  0
  -25.3699  -25.3267   18.8510 C   0  0  0  0  0  0  0  0  0  0  0  0
  -22.7537  -29.6625   18.8148 C   0  0  0  0  0  0  0  0  0  0  0  0
  -26.2584  -12.1076   19.7455 C   0  0  0  0  0  0  0  0  0  0  0  0
  -25.2236  -12.0752   21.9284 C   0  0  0  0  0  0  0  0  0  0  0  0
  -21.3787  -29.5783   19.0296 C   0  0  0  0  0  0  0  0  0  0  0  0
  -26.6968   -9.0414   23.2863 C   0  0  0  0  0  0  0  0  0  0  0  0
  -26.0712   -7.9806   23.9411 C   0  0  0  0  0  0  0  0  0  0  0  0
  -21.7048  -30.2246   21.3308 C   0  0  0  0  0  0  0  0  0  0  0  0
  -24.6043   -7.6758   22.0457 C   0  0  0  0  0  0  0  0  0  0  0  0
  -20.1173  -26.3034   21.8893 C   0  0  0  0  0  0  0  0  0  0  0  0
  -24.5639  -13.7369   20.3034 C   0  0  0  0  0  0  0  0  0  0  0  0
  -22.4815  -14.8464   19.3337 C   0  0  0  0  0  0  0  0  0  0  0  0
  -27.7628  -24.9252   18.8384 C   0  0  0  0  0  0  0  0  0  0  0  0
  -23.6171  -30.0184   19.8609 C   0  0  0  0  0  0  0  0  0  0  0  0
  -26.6287  -25.4877   19.4545 C   0  0  0  0  0  0  0  0  0  0  0  0
  -23.0901  -30.3151   21.1260 C   0  0  0  0  0  0  0  0  0  0  0  0
  -18.7612  -26.4278   21.6823 C   0  0  0  0  0  0  0  0  0  0  0  0
  -18.2737  -25.1549   21.2963 C   0  0  0  0  0  0  0  0  0  0  0  0
  -26.1334  -11.5430   21.0148 C   0  0  0  0  0  0  0  0  0  0  0  0
  -20.8544  -29.8566   20.2885 C   0  0  0  0  0  0  0  0  0  0  0  0
  -26.2761   -9.4195   22.0112 C   0  0  0  0  0  0  0  0  0  0  0  0
  -25.0249   -7.2977   23.3208 C   0  0  0  0  0  0  0  0  0  0  0  0
  -25.2299   -8.7367   21.3909 C   0  0  0  0  0  0  0  0  0  0  0  0
  -23.7533  -14.8703   19.9367 C   0  0  0  0  0  0  0  0  0  0  0  0
  -19.3466  -24.2912   21.2794 C   0  0  0  0  0  0  0  0  0  0  0  0
  -22.1429  -16.1701   19.1938 C   0  0  0  0  0  0  0  0  0  0  0  0
  -21.6779  -13.7276   18.9358 C   0  0  0  0  0  0  0  0  0  0  0  0
  -26.0195  -28.5869   21.3720 C   0  0  0  0  0  0  0  0  0  0  0  0
  -26.3185  -31.4759   22.8165 C   0  0  0  0  0  0  0  0  0  0  0  0
  -24.8537  -34.4129   23.7518 C   0  0  0  0  0  0  0  0  0  0  0  0
  -23.7812  -20.9870   22.1886 C   0  0  0  0  0  0  0  0  0  0  0  0
  -29.1336  -25.0227   19.4598 C   0  0  0  0  0  0  0  0  0  0  0  0
  -25.0952  -30.1307   19.6060 C   0  0  0  0  0  0  0  0  0  0  0  0
  -23.9722  -30.7214   22.2771 C   0  0  0  0  0  0  0  0  0  0  0  0
  -29.2448  -26.1139   20.5215 C   0  0  0  0  0  0  0  0  0  0  0  0
  -24.1061  -20.4969   18.6177 C   0  0  0  0  0  0  0  0  0  0  0  0
  -28.0566  -26.0529   21.4762 C   0  0  0  0  0  0  0  0  0  0  0  0
  -23.9288  -18.9819   18.5012 C   0  0  0  0  0  0  0  0  0  0  0  0
  -24.8877  -20.8669   19.8748 C   0  0  0  0  0  0  0  0  0  0  0  0
  -24.1264  -18.8254   21.0263 C   0  0  0  0  0  0  0  0  0  0  0  0
  -26.7377  -26.2924   20.7315 C   0  0  1  0  0  0  0  0  0  0  0  0
  -25.9319  -30.0023   20.8753 C   0  0  1  0  0  0  0  0  0  0  0  0
  -23.3242  -18.3880   19.7873 C   0  0  2  0  0  0  0  0  0  0  0  0
  -16.8732  -24.8138   20.9713 C   0  0  0  0  0  0  0  0  0  0  0  0
  -19.4071  -22.8514   20.9500 C   0  0  0  0  0  0  0  0  0  0  0  0
  -25.3405  -36.5627   24.9514 C   0  0  0  0  0  0  0  0  0  0  0  0
  -26.1729  -30.0139   25.4907 C   0  0  0  0  0  0  0  0  0  0  0  0
  -25.7079  -32.2149   26.5895 C   0  0  0  0  0  0  0  0  0  0  0  0
  -27.8682  -31.8501   25.3966 C   0  0  0  0  0  0  0  0  0  0  0  0
  -24.2641  -36.0262   21.3417 C   0  0  0  0  0  0  0  0  0  0  0  0
  -17.9551  -27.6922   21.8401 C   0  0  0  0  0  0  0  0  0  0  0  0
  -17.5798  -28.3533   20.5121 C   0  0  0  0  0  0  0  0  0  0  0  0
  -22.0634  -23.6977   23.0503 C   0  0  0  0  0  0  0  0  0  0  0  0
  -21.8042  -24.4722   21.7511 C   0  0  0  0  0  0  0  0  0  0  0  0
  -23.5038  -23.2225   23.2290 C   0  0  0  0  0  0  0  0  0  0  0  0
  -18.7868  -28.8316   19.7135 C   0  0  0  0  0  0  0  0  0  1  0  0
  -25.7414  -32.1164   24.0557 C   0  0  1  0  0  0  0  0  0  0  0  0
  -25.3050  -35.8550   23.6058 C   0  0  2  0  0  0  0  0  0  0  0  0
  -26.3559  -31.5393   25.3622 C   0  0  0  0  0  0  0  0  0  0  0  0
  -24.1930  -16.1109   20.1640 N   0  0  0  0  0  0  0  0  0  0  0  0
  -20.4620  -25.0003   21.6418 N   0  0  0  0  0  0  0  0  0  0  0  0
  -23.1918  -16.8788   19.7013 N   0  0  0  0  0  0  0  0  0  0  0  0
  -25.4113  -30.8109   21.9795 N   0  0  0  0  0  0  0  0  0  0  0  0
  -24.2496  -20.2864   21.0647 N   0  0  0  0  0  0  0  0  0  0  0  0
  -21.0533  -16.7853   18.6872 N   0  0  0  0  0  0  0  0  0  0  0  0
  -22.1769  -12.4359   19.1523 N   0  0  0  0  0  0  0  0  0  0  0  0
  -26.5604  -27.7025   20.4583 N   0  0  0  0  0  0  0  0  0  0  0  0
  -25.9236  -33.5549   23.8943 N   0  0  0  0  0  0  0  0  0  0  0  0
  -23.9418  -22.3666   22.1490 N   0  0  0  0  0  0  0  0  0  0  0  0
  -24.3777  -36.5995   22.7075 N   0  3  0  0  0  0  0  0  0  0  0  0
  -20.5579  -13.8694   18.3889 O   0  0  0  0  0  0  0  0  0  0  0  0
  -25.6268  -28.3175   22.5011 O   0  0  0  0  0  0  0  0  0  0  0  0
  -27.5286  -31.5685   22.5955 O   0  0  0  0  0  0  0  0  0  0  0  0
  -23.6702  -34.0813   23.7443 O   0  0  0  0  0  0  0  0  0  0  0  0
  -23.2535  -20.4249   23.1544 O   0  0  0  0  0  0  0  0  0  0  0  0
  -26.8988  -10.4724   21.3621 O   0  0  0  0  0  0  0  0  0  0  0  0
  -19.5128  -29.7745   20.5011 O   0  0  0  0  0  0  0  0  0  1  0  0
  -24.4253   -6.2780   23.9490 F   0  0  0  0  0  0  0  0  0  0  0  0
  -24.8222   -9.0946   20.1655 F   0  0  0  0  0  0  0  0  0  0  0  0
  1  2  1  0  0  0  0
  1  5  2  0  0  0  0
  2  6  2  0  0  0  0
  3  8  2  0  0  0  0
  3 16  1  0  0  0  0
  4  9  1  0  0  0  0
  4 16  2  0  0  0  0
  5 18  1  0  0  0  0
  6 20  1  0  0  0  0
  7 10  2  0  0  0  0
  7 19  1  0  0  0  0
  8 24  1  0  0  0  0
  9 24  2  0  0  0  0
 10 25  1  0  0  0  0
 11 12  2  0  0  0  0
 11 26  1  0  0  0  0
 12 27  1  0  0  0  0
 13 21  1  0  0  0  0
 13 25  2  0  0  0  0
 14 27  2  0  0  0  0
 14 28  1  0  0  0  0
 15 22  2  0  0  0  0
 15 66  1  0  0  0  0
 16 29  1  0  0  0  0
 17 29  1  0  0  0  0
 17 31  2  0  0  0  0
 17 32  1  0  0  0  0
 18 20  2  0  0  0  0
 18 37  1  0  0  0  0
 19 21  2  0  0  0  0
 19 38  1  0  0  0  0
 20 46  1  0  0  0  0
 21 39  1  0  0  0  0
 22 23  1  0  0  0  0
 22 56  1  0  0  0  0
 23 30  2  0  0  0  0
 23 49  1  0  0  0  0
 24 81  1  0  0  0  0
 25 82  1  0  0  0  0
 26 28  2  0  0  0  0
 26 81  1  0  0  0  0
 27 83  1  0  0  0  0
 28 84  1  0  0  0  0
 29 65  2  0  0  0  0
 30 50  1  0  0  0  0
 30 66  1  0  0  0  0
 31 67  1  0  0  0  0
 31 70  1  0  0  0  0
 32 71  1  0  0  0  0
 32 76  2  0  0  0  0
 33 47  1  0  0  0  0
 33 72  1  0  0  0  0
 33 77  2  0  0  0  0
 34 62  1  0  0  0  0
 34 68  1  0  0  0  0
 34 78  2  0  0  0  0
 35 63  1  0  0  0  0
 35 73  1  0  0  0  0
 35 79  2  0  0  0  0
 36 69  1  0  0  0  0
 36 74  1  0  0  0  0
 36 80  2  0  0  0  0
 37 40  1  0  0  0  0
 38 47  1  0  0  0  0
 39 68  1  0  0  0  0
 40 42  1  0  0  0  0
 41 43  1  0  0  0  0
 41 44  1  0  0  0  0
 42 46  1  0  0  0  0
 43 48  1  0  0  0  0
 44 69  1  0  0  0  0
 45 48  1  0  0  0  0
 45 69  1  0  0  0  0
 46 72  1  0  0  0  0
 47 68  1  0  0  0  0
 48 67  1  0  0  0  0
 51 63  1  0  0  0  0
 52 64  1  0  0  0  0
 53 64  1  0  0  0  0
 54 64  1  0  0  0  0
 55 75  1  0  0  0  0
 56 57  1  0  0  0  0
 57 61  1  0  0  0  0
 58 59  1  0  0  0  0
 58 60  1  0  0  0  0
 59 66  1  0  0  0  0
 60 74  1  0  0  0  0
 61 82  1  0  0  0  0
 62 64  1  0  0  0  0
 62 73  1  0  0  0  0
 63 75  1  0  0  0  0
 65 67  1  0  0  0  0
M  CHG  1  75   1
M  ISO  4  36 100  61 101  74 100  82 101
M  END
> <Batch ID>
0081

> <Smiles>
CNC(C)C(=O)NC(C(=O)N1Cc2cc([101O:1][101CH2:1]CCc3cn(CCC[100NH:0][100C:0](=O)N4CCCC(n5nc(-c6ccc(Oc7ccc(F)cc7F)cc6)c(C(N)=O)c5N)C4)c(C)c3C)ccc2CC1C(=O)NC1CCCc2ccccc21)C(C)(C)C

> <Shape>
0.243

> <Color>
0.073

> <Negative vol penalty>
0.000

$$$$

  -OEChem-04052318463D

 84 92  0     1  0  0  0  0  0999 V2000
  -29.0500  -13.7531   20.6503 C   0  0  0  0  0  0  0  0  0  0  0  0
  -28.5186  -15.0252   20.4642 C   0  0  0  0  0  0  0  0  0  0  0  0
  -27.6630  -25.2311   17.8922 C   0  0  0  0  0  0  0  0  0  0  0  0
  -26.1648  -23.9294   19.2700 C   0  0  0  0  0  0  0  0  0  0  0  0
  -28.1997  -12.6555   20.7781 C   0  0  0  0  0  0  0  0  0  0  0  0
  -27.1365  -15.2004   20.4046 C   0  0  0  0  0  0  0  0  0  0  0  0
  -23.9414  -19.9995   22.4699 C   0  0  0  0  0  0  0  0  0  0  0  0
  -28.5832  -24.1830   17.9025 C   0  0  0  0  0  0  0  0  0  0  0  0
  -27.0851  -22.8812   19.2803 C   0  0  0  0  0  0  0  0  0  0  0  0
  -23.4182  -21.1229   21.8313 C   0  0  0  0  0  0  0  0  0  0  0  0
  -29.1923  -20.0011   19.9687 C   0  0  0  0  0  0  0  0  0  0  0  0
  -29.4479  -19.3746   21.1885 C   0  0  0  0  0  0  0  0  0  0  0  0
  -21.2840  -20.0144   21.6426 C   0  0  0  0  0  0  0  0  0  0  0  0
  -30.2122  -21.4745   22.1068 C   0  0  0  0  0  0  0  0  0  0  0  0
  -19.6551  -27.0512   23.4328 C   0  0  0  0  0  0  0  0  0  0  0  0
  -26.4538  -25.1044   18.5760 C   0  0  0  0  0  0  0  0  0  0  0  0
  -24.4655  -26.3989   17.6386 C   0  0  0  0  0  0  0  0  0  0  0  0
  -26.8063  -12.8186   20.7297 C   0  0  0  0  0  0  0  0  0  0  0  0
  -23.1415  -18.8690   22.6903 C   0  0  0  0  0  0  0  0  0  0  0  0
  -26.2668  -14.1038   20.5304 C   0  0  0  0  0  0  0  0  0  0  0  0
  -21.7987  -18.8788   22.2865 C   0  0  0  0  0  0  0  0  0  0  0  0
  -28.2943  -23.0080   18.5965 C   0  0  0  0  0  0  0  0  0  0  0  0
  -22.0901  -21.1295   21.4150 C   0  0  0  0  0  0  0  0  0  0  0  0
  -29.4468  -21.3642   19.8179 C   0  0  0  0  0  0  0  0  0  0  0  0
  -29.9578  -20.1113   22.2575 C   0  0  0  0  0  0  0  0  0  0  0  0
  -29.9567  -22.1010   20.8870 C   0  0  0  0  0  0  0  0  0  0  0  0
  -25.5031  -26.1870   18.5662 C   0  0  0  0  0  0  0  0  0  0  0  0
  -19.8821  -28.3980   23.3963 C   0  0  0  0  0  0  0  0  0  0  0  0
  -23.8540  -27.5525   18.0649 C   0  0  0  0  0  0  0  0  0  0  0  0
  -19.0518  -27.7916   21.4358 C   0  0  0  0  0  0  0  0  0  0  0  0
  -24.0883  -25.6223   16.4939 C   0  0  0  0  0  0  0  0  0  0  0  0
  -23.2380  -15.8346   21.7484 C   0  0  0  0  0  0  0  0  0  0  0  0
  -20.7389  -15.5270   23.7935 C   0  0  0  0  0  0  0  0  0  0  0  0
  -18.1478  -17.0112   25.4459 C   0  0  0  0  0  0  0  0  0  0  0  0
  -23.4631  -30.2248   23.4088 C   0  0  0  0  0  0  0  0  0  0  0  0
  -25.9285  -11.5959   20.8253 C   0  0  0  0  0  0  0  0  0  0  0  0
  -23.7134  -17.6751   23.4045 C   0  0  0  0  0  0  0  0  0  0  0  0
  -20.8924  -17.6982   22.5177 C   0  0  0  0  0  0  0  0  0  0  0  0
  -24.4668  -11.9174   21.1260 C   0  0  0  0  0  0  0  0  0  0  0  0
  -24.7602  -31.6266   20.4040 C   0  0  0  0  0  0  0  0  0  0  0  0
  -23.9752  -13.0522   20.2330 C   0  0  0  0  0  0  0  0  0  0  0  0
  -25.0041  -30.4106   19.5085 C   0  0  0  0  0  0  0  0  0  0  0  0
  -25.0649  -31.3192   21.8685 C   0  0  0  0  0  0  0  0  0  0  0  0
  -24.6113  -28.9226   21.5161 C   0  0  0  0  0  0  0  0  0  0  0  0
  -24.7724  -14.3377   20.4852 C   0  0  1  0  0  0  0  0  0  0  0  0
  -22.9514  -16.3852   23.1168 C   0  0  1  0  0  0  0  0  0  0  0  0
  -24.2642  -29.1672   20.0376 C   0  0  2  0  0  0  0  0  0  0  0  0
  -18.5495  -27.8576   20.0407 C   0  0  0  0  0  0  0  0  0  0  0  0
  -19.5208  -29.4132   25.6685 C   0  0  0  0  0  0  0  0  0  0  0  0
  -16.2583  -16.4955   27.0146 C   0  0  0  0  0  0  0  0  0  0  0  0
  -19.1688  -14.2859   21.4904 C   0  0  0  0  0  0  0  0  0  0  0  0
  -17.0725  -14.6706   22.8041 C   0  0  0  0  0  0  0  0  0  0  0  0
  -18.8444  -13.1605   23.7001 C   0  0  0  0  0  0  0  0  0  0  0  0
  -19.2202  -18.8294   27.5202 C   0  0  0  0  0  0  0  0  0  0  0  0
  -19.8654  -24.2755   21.9343 C   0  0  0  0  0  0  0  0  0  0  0  0
  -21.0493  -24.5557   21.0073 C   0  0  0  0  0  0  0  0  0  0  0  0
  -18.7402  -25.3077   21.7993 C   0  0  0  0  0  0  0  0  0  0  0  0
  -21.8716  -28.9931   24.8612 C   0  0  0  0  0  0  0  0  0  0  0  0
  -22.1302  -23.4918   21.1435 C   0  0  0  0  0  0  0  0  0  1  0  0
  -20.4172  -29.3172   24.4039 C   0  0  1  0  0  0  0  0  0  0  0  0
  -19.2395  -15.6576   23.6765 C   0  0  1  0  0  0  0  0  0  0  0  0
  -17.7071  -16.9425   26.8969 C   0  0  2  0  0  0  0  0  0  0  0  0
  -18.5986  -14.4653   22.9115 C   0  0  0  0  0  0  0  0  0  0  0  0
  -25.5510  -27.1304   19.5105 N   0  0  0  0  0  0  0  0  0  0  0  0
  -19.1409  -26.7031   22.2070 N   0  0  0  0  0  0  0  0  0  0  0  0
  -24.5361  -27.9463   19.1784 N   0  0  0  0  0  0  0  0  0  0  0  0
  -19.5001  -28.8298   22.1490 N   0  3  0  0  0  0  0  0  0  0  0  0
  -21.4999  -16.5523   23.2144 N   0  0  0  0  0  0  0  0  0  0  0  0
  -24.3310  -30.1303   22.3084 N   0  0  0  0  0  0  0  0  0  0  0  0
  -22.8049  -28.2583   17.5922 N   0  0  0  0  0  0  0  0  0  0  0  0
  -24.8233  -24.4659   16.1993 N   0  0  0  0  0  0  0  0  0  0  0  0
  -24.3232  -14.9804   21.7016 N   0  0  0  0  0  0  0  0  0  0  0  0
  -18.7380  -15.8347   25.0350 N   0  0  0  0  0  0  0  0  0  0  0  0
  -22.8018  -29.0530   23.7558 N   0  0  0  0  0  0  0  0  0  0  0  0
  -17.8406  -18.2789   27.5426 N   0  3  0  0  0  0  0  0  0  0  0  0
  -23.1381  -25.9533   15.7448 O   0  0  0  0  0  0  0  0  0  0  0  0
  -22.5263  -16.1595   20.8052 O   0  0  0  0  0  0  0  0  0  0  0  0
  -21.2171  -14.5549   24.3833 O   0  0  0  0  0  0  0  0  0  0  0  0
  -17.9816  -18.0075   24.7457 O   0  0  0  0  0  0  0  0  0  0  0  0
  -23.2862  -31.2769   24.0323 O   0  0  0  0  0  0  0  0  0  0  0  0
  -29.1919  -21.9849   18.6066 O   0  0  0  0  0  0  0  0  0  0  0  0
  -21.5771  -22.2245   20.7908 O   0  0  0  0  0  0  0  0  0  1  0  0
  -30.2016  -19.5099   23.4293 F   0  0  0  0  0  0  0  0  0  0  0  0
  -30.2021  -23.4111   20.7485 F   0  0  0  0  0  0  0  0  0  0  0  0
  1  2  1  0  0  0  0
  1  5  2  0  0  0  0
  2  6  2  0  0  0  0
  3  8  2  0  0  0  0
  3 16  1  0  0  0  0
  4  9  1  0  0  0  0
  4 16  2  0  0  0  0
  5 18  1  0  0  0  0
  6 20  1  0  0  0  0
  7 10  2  0  0  0  0
  7 19  1  0  0  0  0
  8 22  1  0  0  0  0
  9 22  2  0  0  0  0
 10 23  1  0  0  0  0
 11 12  2  0  0  0  0
 11 24  1  0  0  0  0
 12 25  1  0  0  0  0
 13 21  1  0  0  0  0
 13 23  2  0  0  0  0
 14 25  2  0  0  0  0
 14 26  1  0  0  0  0
 15 28  2  0  0  0  0
 15 65  1  0  0  0  0
 16 27  1  0  0  0  0
 17 27  1  0  0  0  0
 17 29  2  0  0  0  0
 17 31  1  0  0  0  0
 18 20  2  0  0  0  0
 18 36  1  0  0  0  0
 19 21  2  0  0  0  0
 19 37  1  0  0  0  0
 20 45  1  0  0  0  0
 21 38  1  0  0  0  0
 22 81  1  0  0  0  0
 23 82  1  0  0  0  0
 24 26  2  0  0  0  0
 24 81  1  0  0  0  0
 25 83  1  0  0  0  0
 26 84  1  0  0  0  0
 27 64  2  0  0  0  0
 28 60  1  0  0  0  0
 28 67  1  0  0  0  0
 29 66  1  0  0  0  0
 29 70  1  0  0  0  0
 30 48  1  0  0  0  0
 30 65  1  0  0  0  0
 30 67  2  0  0  0  0
 31 71  1  0  0  0  0
 31 76  2  0  0  0  0
 32 46  1  0  0  0  0
 32 72  1  0  0  0  0
 32 77  2  0  0  0  0
 33 61  1  0  0  0  0
 33 68  1  0  0  0  0
 33 78  2  0  0  0  0
 34 62  1  0  0  0  0
 34 73  1  0  0  0  0
 34 79  2  0  0  0  0
 35 69  1  0  0  0  0
 35 74  1  0  0  0  0
 35 80  2  0  0  0  0
 36 39  1  0  0  0  0
 37 46  1  0  0  0  0
 38 68  1  0  0  0  0
 39 41  1  0  0  0  0
 40 42  1  0  0  0  0
 40 43  1  0  0  0  0
 41 45  1  0  0  0  0
 42 47  1  0  0  0  0
 43 69  1  0  0  0  0
 44 47  1  0  0  0  0
 44 69  1  0  0  0  0
 45 72  1  0  0  0  0
 46 68  1  0  0  0  0
 47 66  1  0  0  0  0
 49 60  1  0  0  0  0
 50 62  1  0  0  0  0
 51 63  1  0  0  0  0
 52 63  1  0  0  0  0
 53 63  1  0  0  0  0
 54 75  1  0  0  0  0
 55 56  1  0  0  0  0
 55 57  1  0  0  0  0
 56 59  1  0  0  0  0
 57 65  1  0  0  0  0
 58 60  1  0  0  0  0
 58 74  1  0  0  0  0
 59 82  1  0  0  0  0
 61 63  1  0  0  0  0
 61 73  1  0  0  0  0
 62 75  1  0  0  0  0
 64 66  1  0  0  0  0
M  CHG  2  67   1  75   1
M  ISO  4  35 100  59 101  74 100  82 101
M  END
> <Batch ID>
0081

> <Smiles>
CNC(C)C(=O)NC(C(=O)N1Cc2cc([101O:1][101CH2:1]CCCn3cc(C(C)C[100NH:0][100C:0](=O)N4CCCC(n5nc(-c6ccc(Oc7ccc(F)cc7F)cc6)c(C(N)=O)c5N)C4)nc3C)ccc2CC1C(=O)NC1CCCc2ccccc21)C(C)(C)C

> <Shape>
0.201

> <Color>
0.071

> <Negative vol penalty>
0.000

$$$$

  -OEChem-04052318463D

 88 96  0     1  0  0  0  0  0999 V2000
  -17.9284  -19.2667   28.9601 C   0  0  0  0  0  0  0  0  0  0  0  0
  -18.0652  -20.6501   28.9069 C   0  0  0  0  0  0  0  0  0  0  0  0
  -27.9300  -17.2138   20.8776 C   0  0  0  0  0  0  0  0  0  0  0  0
  -29.9888  -17.6925   22.0477 C   0  0  0  0  0  0  0  0  0  0  0  0
  -18.8052  -18.4526   28.2443 C   0  0  0  0  0  0  0  0  0  0  0  0
  -19.0797  -21.2202   28.1387 C   0  0  0  0  0  0  0  0  0  0  0  0
  -20.4899  -27.0117   24.1654 C   0  0  0  0  0  0  0  0  0  0  0  0
  -28.1860  -15.8469   20.9862 C   0  0  0  0  0  0  0  0  0  0  0  0
  -30.2448  -16.3256   22.1564 C   0  0  0  0  0  0  0  0  0  0  0  0
  -21.4428  -28.0207   24.0325 C   0  0  0  0  0  0  0  0  0  0  0  0
  -28.4766  -12.2388   20.6396 C   0  0  0  0  0  0  0  0  0  0  0  0
  -28.2789  -11.4484   19.5074 C   0  0  0  0  0  0  0  0  0  0  0  0
  -22.8497  -26.5181   22.7748 C   0  0  0  0  0  0  0  0  0  0  0  0
  -29.2288  -29.4619   21.3676 C   0  0  0  0  0  0  0  0  0  0  0  0
  -29.9233  -12.7520   18.3101 C   0  0  0  0  0  0  0  0  0  0  0  0
  -28.8314  -18.1366   21.4083 C   0  0  0  0  0  0  0  0  0  0  0  0
  -27.8621  -20.3569   22.2073 C   0  0  0  0  0  0  0  0  0  0  0  0
  -19.8250  -19.0133   27.4593 C   0  0  0  0  0  0  0  0  0  0  0  0
  -20.7150  -25.7429   23.6124 C   0  0  0  0  0  0  0  0  0  0  0  0
  -19.9719  -20.4128   27.4128 C   0  0  0  0  0  0  0  0  0  0  0  0
  -21.8970  -25.4955   22.8999 C   0  0  0  0  0  0  0  0  0  0  0  0
  -28.0120  -30.1276   21.2706 C   0  0  0  0  0  0  0  0  0  0  0  0
  -26.9689  -29.5564   20.5502 C   0  0  0  0  0  0  0  0  0  0  0  0
  -29.3434  -15.4028   21.6256 C   0  0  0  0  0  0  0  0  0  0  0  0
  -22.6242  -27.7732   23.3396 C   0  0  0  0  0  0  0  0  0  0  0  0
  -29.3977  -13.2859   20.6070 C   0  0  0  0  0  0  0  0  0  0  0  0
  -29.0022  -11.7050   18.3427 C   0  0  0  0  0  0  0  0  0  0  0  0
  -30.1210  -13.5424   19.4423 C   0  0  0  0  0  0  0  0  0  0  0  0
  -28.5677  -19.5486   21.2959 C   0  0  0  0  0  0  0  0  0  0  0  0
  -29.3506  -28.2373   20.7311 C   0  0  0  0  0  0  0  0  0  0  0  0
  -27.1919  -28.3276   19.9501 C   0  0  0  0  0  0  0  0  0  0  0  0
  -27.8899  -21.6107   21.6472 C   0  0  0  0  0  0  0  0  0  0  0  0
  -27.2374  -20.0057   23.4491 C   0  0  0  0  0  0  0  0  0  0  0  0
  -20.9935  -22.8019   24.7857 C   0  0  0  0  0  0  0  0  0  0  0  0
  -21.0681  -21.9773   21.6493 C   0  0  0  0  0  0  0  0  0  0  0  0
  -21.7090  -22.8978   18.4261 C   0  0  0  0  0  0  0  0  0  0  0  0
  -30.6346  -25.7296   19.0693 C   0  0  0  0  0  0  0  0  0  0  0  0
  -20.7781  -18.0913   26.7407 C   0  0  0  0  0  0  0  0  0  0  0  0
  -19.6654  -24.6732   23.7417 C   0  0  0  0  0  0  0  0  0  0  0  0
  -22.1777  -24.1565   22.2700 C   0  0  0  0  0  0  0  0  0  0  0  0
  -21.5931  -18.7856   25.6526 C   0  0  0  0  0  0  0  0  0  0  0  0
  -29.3098  -23.1254   17.0346 C   0  0  0  0  0  0  0  0  0  0  0  0
  -22.1643  -20.1015   26.1711 C   0  0  0  0  0  0  0  0  0  0  0  0
  -28.9466  -22.0277   18.0361 C   0  0  0  0  0  0  0  0  0  0  0  0
  -30.5837  -23.8623   17.4424 C   0  0  0  0  0  0  0  0  0  0  0  0
  -30.2093  -23.3089   19.8146 C   0  0  0  0  0  0  0  0  0  0  0  0
  -21.0444  -21.0696   26.5710 C   0  0  1  0  0  0  0  0  0  0  0  0
  -20.2257  -23.2636   23.5795 C   0  0  1  0  0  0  0  0  0  0  0  0
  -28.9007  -22.5747   19.4756 C   0  0  2  0  0  0  0  0  0  0  0  0
  -25.3186  -25.5107   18.0897 C   0  0  0  0  0  0  0  0  0  0  0  0
  -21.7149  -21.9964   16.0842 C   0  0  0  0  0  0  0  0  0  0  0  0
  -28.6827  -32.8176   19.9587 C   0  0  0  0  0  0  0  0  0  0  0  0
  -28.6333  -33.8351   22.2447 C   0  0  0  0  0  0  0  0  0  0  0  0
  -23.6674  -20.4891   22.2313 C   0  0  0  0  0  0  0  0  0  0  0  0
  -24.1062  -20.4341   19.7670 C   0  0  0  0  0  0  0  0  0  0  0  0
  -22.0973  -19.2869   20.7003 C   0  0  0  0  0  0  0  0  0  0  0  0
  -19.6751  -24.8578   17.5428 C   0  0  0  0  0  0  0  0  0  0  0  0
  -27.8527  -31.4505   21.9441 C   0  0  0  0  0  0  0  0  0  0  0  0
  -25.6374  -30.2538   20.4298 C   0  0  0  0  0  0  0  0  0  0  0  0
  -26.1089  -27.6633   19.1643 C   0  0  0  0  0  0  0  0  0  0  0  0
  -30.6417  -27.4937   20.8149 C   0  0  0  0  0  0  0  0  0  0  0  0
  -26.4368  -26.1945   18.8604 C   0  0  0  0  0  0  0  0  0  0  0  0
  -24.7754  -30.1575   21.6904 C   0  0  0  0  0  0  0  0  0  0  0  0
  -24.3677  -28.7299   22.0354 C   0  0  0  0  0  0  0  0  0  1  0  0
  -22.1531  -21.8130   20.6126 C   0  0  1  0  0  0  0  0  0  0  0  0
  -20.9069  -22.7207   17.1496 C   0  0  2  0  0  0  0  0  0  0  0  0
  -28.8387  -32.5394   21.4559 C   0  0  0  0  0  0  0  0  0  0  0  0
  -23.0018  -20.5305   20.8412 C   0  0  0  0  0  0  0  0  0  0  0  0
  -29.0113  -20.2316   20.2372 N   0  0  0  0  0  0  0  0  0  0  0  0
  -28.3600  -27.6508   20.0223 N   0  0  0  0  0  0  0  0  0  0  0  0
  -28.5831  -21.4822   20.4797 N   0  0  0  0  0  0  0  0  0  0  0  0
  -21.1236  -23.1412   22.4292 N   0  0  0  0  0  0  0  0  0  0  0  0
  -30.4747  -24.3571   18.8168 N   0  0  0  0  0  0  0  0  0  0  0  0
  -27.3885  -22.7995   22.0444 N   0  0  0  0  0  0  0  0  0  0  0  0
  -27.3034  -18.6726   23.8767 N   0  0  0  0  0  0  0  0  0  0  0  0
  -20.4620  -21.6819   25.3961 N   0  0  0  0  0  0  0  0  0  0  0  0
  -21.4890  -21.8666   19.3147 N   0  0  0  0  0  0  0  0  0  0  0  0
  -30.5096  -26.1154   20.3983 N   0  0  0  0  0  0  0  0  0  0  0  0
  -20.4966  -24.0469   16.6075 N   0  3  0  0  0  0  0  0  0  0  0  0
  -26.6243  -20.8457   24.1505 O   0  0  0  0  0  0  0  0  0  0  0  0
  -21.9949  -23.4154   25.1358 O   0  0  0  0  0  0  0  0  0  0  0  0
  -20.1991  -21.1086   21.7581 O   0  0  0  0  0  0  0  0  0  0  0  0
  -22.4589  -23.8531   18.6146 O   0  0  0  0  0  0  0  0  0  0  0  0
  -30.8660  -26.5512   18.1757 O   0  0  0  0  0  0  0  0  0  0  0  0
  -29.5934  -14.0692   21.7321 O   0  0  0  0  0  0  0  0  0  0  0  0
  -23.5562  -28.7561   23.2090 O   0  0  0  0  0  0  0  0  0  1  0  0
  -28.8134  -10.9449   17.2561 F   0  0  0  0  0  0  0  0  0  0  0  0
  -31.0081  -14.5462   19.4053 F   0  0  0  0  0  0  0  0  0  0  0  0
  1  2  1  0  0  0  0
  1  5  2  0  0  0  0
  2  6  2  0  0  0  0
  3  8  2  0  0  0  0
  3 16  1  0  0  0  0
  4  9  1  0  0  0  0
  4 16  2  0  0  0  0
  5 18  1  0  0  0  0
  6 20  1  0  0  0  0
  7 10  2  0  0  0  0
  7 19  1  0  0  0  0
  8 24  1  0  0  0  0
  9 24  2  0  0  0  0
 10 25  1  0  0  0  0
 11 12  2  0  0  0  0
 11 26  1  0  0  0  0
 12 27  1  0  0  0  0
 13 21  1  0  0  0  0
 13 25  2  0  0  0  0
 14 22  2  0  0  0  0
 14 30  1  0  0  0  0
 15 27  2  0  0  0  0
 15 28  1  0  0  0  0
 16 29  1  0  0  0  0
 17 29  1  0  0  0  0
 17 32  2  0  0  0  0
 17 33  1  0  0  0  0
 18 20  2  0  0  0  0
 18 38  1  0  0  0  0
 19 21  2  0  0  0  0
 19 39  1  0  0  0  0
 20 47  1  0  0  0  0
 21 40  1  0  0  0  0
 22 23  1  0  0  0  0
 22 58  1  0  0  0  0
 23 31  2  0  0  0  0
 23 59  1  0  0  0  0
 24 85  1  0  0  0  0
 25 86  1  0  0  0  0
 26 28  2  0  0  0  0
 26 85  1  0  0  0  0
 27 87  1  0  0  0  0
 28 88  1  0  0  0  0
 29 69  2  0  0  0  0
 30 61  1  0  0  0  0
 30 70  2  0  0  0  0
 31 60  1  0  0  0  0
 31 70  1  0  0  0  0
 32 71  1  0  0  0  0
 32 74  1  0  0  0  0
 33 75  1  0  0  0  0
 33 80  2  0  0  0  0
 34 48  1  0  0  0  0
 34 76  1  0  0  0  0
 34 81  2  0  0  0  0
 35 65  1  0  0  0  0
 35 72  1  0  0  0  0
 35 82  2  0  0  0  0
 36 66  1  0  0  0  0
 36 77  1  0  0  0  0
 36 83  2  0  0  0  0
 37 73  1  0  0  0  0
 37 78  1  0  0  0  0
 37 84  2  0  0  0  0
 38 41  1  0  0  0  0
 39 48  1  0  0  0  0
 40 72  1  0  0  0  0
 41 43  1  0  0  0  0
 42 44  1  0  0  0  0
 42 45  1  0  0  0  0
 43 47  1  0  0  0  0
 44 49  1  0  0  0  0
 45 73  1  0  0  0  0
 46 49  1  0  0  0  0
 46 73  1  0  0  0  0
 47 76  1  0  0  0  0
 48 72  1  0  0  0  0
 49 71  1  0  0  0  0
 50 62  1  0  0  0  0
 51 66  1  0  0  0  0
 52 67  1  0  0  0  0
 53 67  1  0  0  0  0
 54 68  1  0  0  0  0
 55 68  1  0  0  0  0
 56 68  1  0  0  0  0
 57 79  1  0  0  0  0
 58 67  1  0  0  0  0
 59 63  1  0  0  0  0
 60 62  1  0  0  0  0
 61 78  1  0  0  0  0
 63 64  1  0  0  0  0
 64 86  1  0  0  0  0
 65 68  1  0  0  0  0
 65 77  1  0  0  0  0
 66 79  1  0  0  0  0
 69 71  1  0  0  0  0
M  CHG  1  79   1
M  ISO  4  37 100  64 101  78 100  86 101
M  END
> <Batch ID>
0081

> <Smiles>
CCCc1nc(C[100NH:0][100C:0](=O)N2CCCC(n3nc(-c4ccc(Oc5ccc(F)cc5F)cc4)c(C(N)=O)c3N)C2)cc(CC(C)C)c1CC[101CH2:1][101O:1]c1ccc2c(c1)CN(C(=O)C(NC(=O)C(C)NC)C(C)(C)C)C(C(=O)NC1CCCc3ccccc31)C2

> <Shape>
0.226

> <Color>
0.058

> <Negative vol penalty>
0.000

$$$$

  -OEChem-04052318463D

 85 93  0     1  0  0  0  0  0999 V2000
  -28.7379  -11.2753   20.3422 C   0  0  0  0  0  0  0  0  0  0  0  0
  -28.9479  -12.6014   19.9779 C   0  0  0  0  0  0  0  0  0  0  0  0
  -21.1872  -28.6829   20.9082 C   0  0  0  0  0  0  0  0  0  0  0  0
  -22.1536  -27.4838   22.7697 C   0  0  0  0  0  0  0  0  0  0  0  0
  -27.4411  -10.8077   20.5507 C   0  0  0  0  0  0  0  0  0  0  0  0
  -27.8608  -13.4605   19.8207 C   0  0  0  0  0  0  0  0  0  0  0  0
  -28.6225  -17.9738   21.9877 C   0  0  0  0  0  0  0  0  0  0  0  0
  -19.9916  -27.9852   21.0794 C   0  0  0  0  0  0  0  0  0  0  0  0
  -20.9580  -26.7861   22.9410 C   0  0  0  0  0  0  0  0  0  0  0  0
  -29.4294  -18.8810   21.3024 C   0  0  0  0  0  0  0  0  0  0  0  0
  -18.7630  -24.9275   20.3273 C   0  0  0  0  0  0  0  0  0  0  0  0
  -18.1427  -24.4166   19.1873 C   0  0  0  0  0  0  0  0  0  0  0  0
  -27.4590  -20.0146   20.4952 C   0  0  0  0  0  0  0  0  0  0  0  0
  -30.0223  -22.5697   23.0746 C   0  0  0  0  0  0  0  0  0  0  0  0
  -16.1824  -25.7485   19.6568 C   0  0  0  0  0  0  0  0  0  0  0  0
  -22.2682  -28.4322   21.7534 C   0  0  0  0  0  0  0  0  0  0  0  0
  -23.8687  -30.3736   22.1741 C   0  0  0  0  0  0  0  0  0  0  0  0
  -26.3382  -11.6641   20.4054 C   0  0  0  0  0  0  0  0  0  0  0  0
  -27.2253  -18.0737   21.9229 C   0  0  0  0  0  0  0  0  0  0  0  0
  -26.5479  -13.0037   20.0261 C   0  0  0  0  0  0  0  0  0  0  0  0
  -26.6366  -19.1089   21.1826 C   0  0  0  0  0  0  0  0  0  0  0  0
  -29.3560  -22.9837   24.2226 C   0  0  0  0  0  0  0  0  0  0  0  0
  -30.4353  -23.5118   22.1392 C   0  0  0  0  0  0  0  0  0  0  0  0
  -19.8770  -27.0368   22.0958 C   0  0  0  0  0  0  0  0  0  0  0  0
  -28.8477  -19.8999   20.5537 C   0  0  0  0  0  0  0  0  0  0  0  0
  -18.0930  -25.8489   21.1322 C   0  0  0  0  0  0  0  0  0  0  0  0
  -16.8525  -24.8270   18.8520 C   0  0  0  0  0  0  0  0  0  0  0  0
  -16.8027  -26.2594   20.7970 C   0  0  0  0  0  0  0  0  0  0  0  0
  -23.5037  -29.1523   21.5767 C   0  0  0  0  0  0  0  0  0  0  0  0
  -29.1288  -24.3406   24.3869 C   0  0  0  0  0  0  0  0  0  0  0  0
  -30.1596  -24.8451   22.3966 C   0  0  0  0  0  0  0  0  0  0  0  0
  -25.1272  -30.6311   21.6877 C   0  0  0  0  0  0  0  0  0  0  0  0
  -23.1359  -31.2013   23.0871 C   0  0  0  0  0  0  0  0  0  0  0  0
  -24.8892  -16.1984   20.8600 C   0  0  0  0  0  0  0  0  0  0  0  0
  -22.9906  -18.4869   22.1564 C   0  0  0  0  0  0  0  0  0  0  0  0
  -22.1229  -21.9122   22.8855 C   0  0  0  0  0  0  0  0  0  0  0  0
  -29.4766  -27.1081   19.5615 C   0  0  0  0  0  0  0  0  0  0  0  0
  -24.9520  -11.1010   20.5952 C   0  0  0  0  0  0  0  0  0  0  0  0
  -26.3692  -17.1033   22.6895 C   0  0  0  0  0  0  0  0  0  0  0  0
  -25.1418  -19.2719   21.0973 C   0  0  0  0  0  0  0  0  0  0  0  0
  -23.8788  -12.1718   20.7736 C   0  0  0  0  0  0  0  0  0  0  0  0
  -27.9067  -29.8243   17.8780 C   0  0  0  0  0  0  0  0  0  0  0  0
  -24.0408  -13.2695   19.7269 C   0  0  0  0  0  0  0  0  0  0  0  0
  -26.6332  -30.0703   18.6889 C   0  0  0  0  0  0  0  0  0  0  0  0
  -28.2463  -28.3376   17.7977 C   0  0  0  0  0  0  0  0  0  0  0  0
  -27.0574  -27.8964   19.9109 C   0  0  0  0  0  0  0  0  0  0  0  0
  -25.3960  -13.9727   19.8701 C   0  0  1  0  0  0  0  0  0  0  0  0
  -24.9522  -16.9898   22.1357 C   0  0  1  0  0  0  0  0  0  0  0  0
  -26.7050  -29.3856   20.0671 C   0  0  2  0  0  0  0  0  0  0  0  0
  -28.4169  -24.8439   25.5997 C   0  0  0  0  0  0  0  0  0  0  0  0
  -27.6546  -21.2311   24.7884 C   0  0  0  0  0  0  0  0  0  0  0  0
  -31.5503  -26.9192   22.0420 C   0  0  0  0  0  0  0  0  0  0  0  0
  -20.2161  -22.8659   24.2092 C   0  0  0  0  0  0  0  0  0  0  0  0
  -21.5900  -18.6799   19.4525 C   0  0  0  0  0  0  0  0  0  0  0  0
  -20.6161  -20.8648   20.1913 C   0  0  0  0  0  0  0  0  0  0  0  0
  -20.0601  -18.7714   21.4287 C   0  0  0  0  0  0  0  0  0  0  0  0
  -23.9531  -23.4319   24.6462 C   0  0  0  0  0  0  0  0  0  0  0  0
  -28.9110  -21.9793   25.2287 C   0  0  0  0  0  0  0  0  0  0  0  0
  -31.1580  -23.0694   20.8920 C   0  0  0  0  0  0  0  0  0  0  0  0
  -30.2838  -23.0824   19.6362 C   0  0  0  0  0  0  0  0  0  0  0  0
  -29.1166  -22.1044   19.7029 C   0  0  0  0  0  0  0  0  0  1  0  0
  -30.5812  -25.9004   21.4271 C   0  0  2  0  0  0  0  0  0  0  0  0
  -22.3712  -19.7704   21.6585 C   0  0  1  0  0  0  0  0  0  0  0  0
  -21.6852  -22.4731   24.2266 C   0  0  2  0  0  0  0  0  0  0  0  0
  -21.1875  -19.5177   20.6826 C   0  0  0  0  0  0  0  0  0  0  0  0
  -24.4533  -28.6677   20.7721 N   0  0  0  0  0  0  0  0  0  0  0  0
  -29.5149  -25.2854   23.5003 N   0  0  0  0  0  0  0  0  0  0  0  0
  -25.4275  -29.5892   20.8605 N   0  0  0  0  0  0  0  0  0  0  0  0
  -24.3473  -18.2943   21.8593 N   0  0  0  0  0  0  0  0  0  0  0  0
  -28.3006  -27.7488   19.1380 N   0  0  0  0  0  0  0  0  0  0  0  0
  -25.9950  -31.6450   21.8912 N   0  0  0  0  0  0  0  0  0  0  0  0
  -21.8568  -30.7882   23.4841 N   0  0  0  0  0  0  0  0  0  0  0  0
  -25.3665  -14.9067   20.9751 N   0  0  0  0  0  0  0  0  0  0  0  0
  -22.0130  -20.5383   22.8462 N   0  0  0  0  0  0  0  0  0  0  0  0
  -29.4459  -26.5830   20.8476 N   0  0  0  0  0  0  0  0  0  0  0  0
  -22.4901  -23.6790   24.5712 N   0  3  0  0  0  0  0  0  0  0  0  0
  -23.5949  -32.2835   23.5248 O   0  0  0  0  0  0  0  0  0  0  0  0
  -24.4394  -16.7205   19.8467 O   0  0  0  0  0  0  0  0  0  0  0  0
  -22.2982  -17.6880   22.7919 O   0  0  0  0  0  0  0  0  0  0  0  0
  -22.5189  -22.6222   21.9638 O   0  0  0  0  0  0  0  0  0  0  0  0
  -30.4816  -27.0157   18.8483 O   0  0  0  0  0  0  0  0  0  0  0  0
  -18.7104  -26.3559   22.2633 O   0  0  0  0  0  0  0  0  0  0  0  0
  -29.6329  -20.7864   19.8833 O   0  0  0  0  0  0  0  0  0  1  0  0
  -16.2575  -24.3374   17.7563 F   0  0  0  0  0  0  0  0  0  0  0  0
  -16.1545  -27.1452   21.5657 F   0  0  0  0  0  0  0  0  0  0  0  0
  1  2  1  0  0  0  0
  1  5  2  0  0  0  0
  2  6  2  0  0  0  0
  3  8  2  0  0  0  0
  3 16  1  0  0  0  0
  4  9  1  0  0  0  0
  4 16  2  0  0  0  0
  5 18  1  0  0  0  0
  6 20  1  0  0  0  0
  7 10  2  0  0  0  0
  7 19  1  0  0  0  0
  8 24  1  0  0  0  0
  9 24  2  0  0  0  0
 10 25  1  0  0  0  0
 11 12  2  0  0  0  0
 11 26  1  0  0  0  0
 12 27  1  0  0  0  0
 13 21  1  0  0  0  0
 13 25  2  0  0  0  0
 14 22  1  0  0  0  0
 14 23  2  0  0  0  0
 15 27  2  0  0  0  0
 15 28  1  0  0  0  0
 16 29  1  0  0  0  0
 17 29  1  0  0  0  0
 17 32  2  0  0  0  0
 17 33  1  0  0  0  0
 18 20  2  0  0  0  0
 18 38  1  0  0  0  0
 19 21  2  0  0  0  0
 19 39  1  0  0  0  0
 20 47  1  0  0  0  0
 21 40  1  0  0  0  0
 22 30  2  0  0  0  0
 22 58  1  0  0  0  0
 23 31  1  0  0  0  0
 23 59  1  0  0  0  0
 24 82  1  0  0  0  0
 25 83  1  0  0  0  0
 26 28  2  0  0  0  0
 26 82  1  0  0  0  0
 27 84  1  0  0  0  0
 28 85  1  0  0  0  0
 29 66  2  0  0  0  0
 30 50  1  0  0  0  0
 30 67  1  0  0  0  0
 31 62  1  0  0  0  0
 31 67  2  0  0  0  0
 32 68  1  0  0  0  0
 32 71  1  0  0  0  0
 33 72  1  0  0  0  0
 33 77  2  0  0  0  0
 34 48  1  0  0  0  0
 34 73  1  0  0  0  0
 34 78  2  0  0  0  0
 35 63  1  0  0  0  0
 35 69  1  0  0  0  0
 35 79  2  0  0  0  0
 36 64  1  0  0  0  0
 36 74  1  0  0  0  0
 36 80  2  0  0  0  0
 37 70  1  0  0  0  0
 37 75  1  0  0  0  0
 37 81  2  0  0  0  0
 38 41  1  0  0  0  0
 39 48  1  0  0  0  0
 40 69  1  0  0  0  0
 41 43  1  0  0  0  0
 42 44  1  0  0  0  0
 42 45  1  0  0  0  0
 43 47  1  0  0  0  0
 44 49  1  0  0  0  0
 45 70  1  0  0  0  0
 46 49  1  0  0  0  0
 46 70  1  0  0  0  0
 47 73  1  0  0  0  0
 48 69  1  0  0  0  0
 49 68  1  0  0  0  0
 51 58  1  0  0  0  0
 52 62  1  0  0  0  0
 53 64  1  0  0  0  0
 54 65  1  0  0  0  0
 55 65  1  0  0  0  0
 56 65  1  0  0  0  0
 57 76  1  0  0  0  0
 59 60  1  0  0  0  0
 60 61  1  0  0  0  0
 61 83  1  0  0  0  0
 62 75  1  0  0  0  0
 63 65  1  0  0  0  0
 63 74  1  0  0  0  0
 64 76  1  0  0  0  0
 66 68  1  0  0  0  0
M  CHG  1  76   1
M  ISO  4  37 100  61 101  75 100  83 101
M  END
> <Batch ID>
0081

> <Smiles>
CCc1cc(CC[101CH2:1][101O:1]c2ccc3c(c2)CN(C(=O)C(NC(=O)C(C)NC)C(C)(C)C)C(C(=O)NC2CCCc4ccccc42)C3)c(C(C)[100NH:0][100C:0](=O)N2CCCC(n3nc(-c4ccc(Oc5ccc(F)cc5F)cc4)c(C(N)=O)c3N)C2)nc1C

> <Shape>
0.235

> <Color>
0.079

> <Negative vol penalty>
0.000

$$$$

  -OEChem-04052318463D

 82 90  0     1  0  0  0  0  0999 V2000
  -18.7567  -33.4492   23.7009 C   0  0  0  0  0  0  0  0  0  0  0  0
  -19.9704  -33.4541   23.0209 C   0  0  0  0  0  0  0  0  0  0  0  0
  -26.1241  -14.9577   22.7439 C   0  0  0  0  0  0  0  0  0  0  0  0
  -25.5378  -14.5958   20.4282 C   0  0  0  0  0  0  0  0  0  0  0  0
  -18.4032  -32.3525   24.4858 C   0  0  0  0  0  0  0  0  0  0  0  0
  -20.8318  -32.3627   23.1264 C   0  0  0  0  0  0  0  0  0  0  0  0
  -25.6539  -28.6691   19.3289 C   0  0  0  0  0  0  0  0  0  0  0  0
  -25.2303  -13.9575   23.1265 C   0  0  0  0  0  0  0  0  0  0  0  0
  -24.6440  -13.5956   20.8109 C   0  0  0  0  0  0  0  0  0  0  0  0
  -26.9666  -28.2069   19.4135 C   0  0  0  0  0  0  0  0  0  0  0  0
  -24.7900  -10.3514   21.7459 C   0  0  0  0  0  0  0  0  0  0  0  0
  -24.8007   -9.1616   21.0180 C   0  0  0  0  0  0  0  0  0  0  0  0
  -26.2156  -26.3338   20.7350 C   0  0  0  0  0  0  0  0  0  0  0  0
  -22.4857   -9.5069   20.4194 C   0  0  0  0  0  0  0  0  0  0  0  0
  -31.1728  -24.9911   17.9578 C   0  0  0  0  0  0  0  0  0  0  0  0
  -26.2778  -15.2768   21.3947 C   0  0  0  0  0  0  0  0  0  0  0  0
  -28.5625  -16.1565   20.6778 C   0  0  0  0  0  0  0  0  0  0  0  0
  -19.2564  -31.2429   24.5932 C   0  0  0  0  0  0  0  0  0  0  0  0
  -24.6120  -27.9717   19.9570 C   0  0  0  0  0  0  0  0  0  0  0  0
  -20.4900  -31.2507   23.9146 C   0  0  0  0  0  0  0  0  0  0  0  0
  -24.8902  -26.7878   20.6547 C   0  0  0  0  0  0  0  0  0  0  0  0
  -24.4903  -13.2765   22.1600 C   0  0  0  0  0  0  0  0  0  0  0  0
  -27.2480  -27.0407   20.1190 C   0  0  0  0  0  0  0  0  0  0  0  0
  -23.6270  -11.1189   21.8106 C   0  0  0  0  0  0  0  0  0  0  0  0
  -23.6486   -8.7393   20.3547 C   0  0  0  0  0  0  0  0  0  0  0  0
  -22.4749  -10.6967   21.1473 C   0  0  0  0  0  0  0  0  0  0  0  0
  -27.2005  -16.3103   20.9988 C   0  0  0  0  0  0  0  0  0  0  0  0
  -31.2212  -23.6266   17.9060 C   0  0  0  0  0  0  0  0  0  0  0  0
  -28.9884  -17.4256   20.3707 C   0  0  0  0  0  0  0  0  0  0  0  0
  -30.9608  -24.2212   20.0224 C   0  0  0  0  0  0  0  0  0  0  0  0
  -29.3705  -14.9722   20.6587 C   0  0  0  0  0  0  0  0  0  0  0  0
  -22.5254  -28.6502   22.2569 C   0  0  0  0  0  0  0  0  0  0  0  0
  -21.2959  -25.7566   21.4585 C   0  0  0  0  0  0  0  0  0  0  0  0
  -21.7991  -22.6753   20.0803 C   0  0  0  0  0  0  0  0  0  0  0  0
  -28.2344  -22.3250   17.8068 C   0  0  0  0  0  0  0  0  0  0  0  0
  -18.8523  -30.1007   25.4914 C   0  0  0  0  0  0  0  0  0  0  0  0
  -23.1978  -28.4689   19.8338 C   0  0  0  0  0  0  0  0  0  0  0  0
  -23.8047  -25.9913   21.3297 C   0  0  0  0  0  0  0  0  0  0  0  0
  -19.6538  -28.8239   25.2511 C   0  0  0  0  0  0  0  0  0  0  0  0
  -26.7192  -21.9023   21.0009 C   0  0  0  0  0  0  0  0  0  0  0  0
  -21.1438  -29.1378   25.1613 C   0  0  0  0  0  0  0  0  0  0  0  0
  -26.8162  -20.3970   21.2554 C   0  0  0  0  0  0  0  0  0  0  0  0
  -26.4569  -22.2099   19.5283 C   0  0  0  0  0  0  0  0  0  0  0  0
  -27.5085  -20.0894   18.8420 C   0  0  0  0  0  0  0  0  0  0  0  0
  -21.4402  -30.0749   23.9841 C   0  0  1  0  0  0  0  0  0  0  0  0
  -22.2859  -27.9579   20.9450 C   0  0  1  0  0  0  0  0  0  0  0  0
  -27.8281  -19.7314   20.3035 C   0  0  2  0  0  0  0  0  0  0  0  0
  -30.7949  -24.1405   21.4951 C   0  0  0  0  0  0  0  0  0  0  0  0
  -32.1627  -21.4192   17.1544 C   0  0  0  0  0  0  0  0  0  0  0  0
  -20.6171  -20.5134   19.6044 C   0  0  0  0  0  0  0  0  0  0  0  0
  -21.5199  -24.9887   24.4030 C   0  0  0  0  0  0  0  0  0  0  0  0
  -21.2459  -22.5936   23.7274 C   0  0  0  0  0  0  0  0  0  0  0  0
  -19.4159  -24.2299   23.2841 C   0  0  0  0  0  0  0  0  0  0  0  0
  -22.2070  -22.9603   17.1629 C   0  0  0  0  0  0  0  0  0  0  0  0
  -30.9053  -26.7421   19.8054 C   0  0  0  0  0  0  0  0  0  0  0  0
  -30.0391  -22.2800   16.1038 C   0  0  0  0  0  0  0  0  0  0  0  0
  -29.5343  -27.3570   19.5457 C   0  0  0  0  0  0  0  0  0  1  0  0
  -31.3787  -22.7057   16.7774 C   0  0  1  0  0  0  0  0  0  0  0  0
  -21.5326  -24.3342   21.9055 C   0  0  1  0  0  0  0  0  0  0  0  0
  -20.9966  -21.8832   19.0639 C   0  0  2  0  0  0  0  0  0  0  0  0
  -20.9495  -24.0524   23.3190 C   0  0  0  0  0  0  0  0  0  0  0  0
  -26.7885  -17.5773   20.9047 N   0  0  0  0  0  0  0  0  0  0  0  0
  -31.0107  -25.3314   19.2792 N   0  0  0  0  0  0  0  0  0  0  0  0
  -27.8981  -18.2312   20.5210 N   0  0  0  0  0  0  0  0  0  0  0  0
  -31.0879  -23.1768   19.1975 N   0  3  0  0  0  0  0  0  0  0  0  0
  -22.4388  -26.5217   21.1860 N   0  0  0  0  0  0  0  0  0  0  0  0
  -27.4522  -21.5506   18.6794 N   0  0  0  0  0  0  0  0  0  0  0  0
  -30.1853  -17.9200   19.9896 N   0  0  0  0  0  0  0  0  0  0  0  0
  -28.7742  -13.7510   21.0013 N   0  0  0  0  0  0  0  0  0  0  0  0
  -21.4286  -29.3397   22.7376 N   0  0  0  0  0  0  0  0  0  0  0  0
  -20.9903  -23.4803   20.8543 N   0  0  0  0  0  0  0  0  0  0  0  0
  -29.1579  -21.6222   17.0427 N   0  0  0  0  0  0  0  0  0  0  0  0
  -21.7867  -21.6932   17.8146 N   0  3  0  0  0  0  0  0  0  0  0  0
  -30.5893  -14.9987   20.3630 O   0  0  0  0  0  0  0  0  0  0  0  0
  -23.6235  -28.5640   22.7939 O   0  0  0  0  0  0  0  0  0  0  0  0
  -20.1394  -26.1712   21.3480 O   0  0  0  0  0  0  0  0  0  0  0  0
  -23.0207  -22.5858   20.1804 O   0  0  0  0  0  0  0  0  0  0  0  0
  -28.1222  -23.5525   17.7194 O   0  0  0  0  0  0  0  0  0  0  0  0
  -23.6182  -12.3003   22.5331 O   0  0  0  0  0  0  0  0  0  0  0  0
  -28.5284  -26.5878   20.2037 O   0  0  0  0  0  0  0  0  0  1  0  0
  -23.6596   -7.5975   19.6545 F   0  0  0  0  0  0  0  0  0  0  0  0
  -21.3550  -11.4304   21.2049 F   0  0  0  0  0  0  0  0  0  0  0  0
  1  2  1  0  0  0  0
  1  5  2  0  0  0  0
  2  6  2  0  0  0  0
  3  8  2  0  0  0  0
  3 16  1  0  0  0  0
  4  9  1  0  0  0  0
  4 16  2  0  0  0  0
  5 18  1  0  0  0  0
  6 20  1  0  0  0  0
  7 10  2  0  0  0  0
  7 19  1  0  0  0  0
  8 22  1  0  0  0  0
  9 22  2  0  0  0  0
 10 23  1  0  0  0  0
 11 12  2  0  0  0  0
 11 24  1  0  0  0  0
 12 25  1  0  0  0  0
 13 21  1  0  0  0  0
 13 23  2  0  0  0  0
 14 25  2  0  0  0  0
 14 26  1  0  0  0  0
 15 28  2  0  0  0  0
 15 63  1  0  0  0  0
 16 27  1  0  0  0  0
 17 27  1  0  0  0  0
 17 29  2  0  0  0  0
 17 31  1  0  0  0  0
 18 20  2  0  0  0  0
 18 36  1  0  0  0  0
 19 21  2  0  0  0  0
 19 37  1  0  0  0  0
 20 45  1  0  0  0  0
 21 38  1  0  0  0  0
 22 79  1  0  0  0  0
 23 80  1  0  0  0  0
 24 26  2  0  0  0  0
 24 79  1  0  0  0  0
 25 81  1  0  0  0  0
 26 82  1  0  0  0  0
 27 62  2  0  0  0  0
 28 58  1  0  0  0  0
 28 65  1  0  0  0  0
 29 64  1  0  0  0  0
 29 68  1  0  0  0  0
 30 48  1  0  0  0  0
 30 63  1  0  0  0  0
 30 65  2  0  0  0  0
 31 69  1  0  0  0  0
 31 74  2  0  0  0  0
 32 46  1  0  0  0  0
 32 70  1  0  0  0  0
 32 75  2  0  0  0  0
 33 59  1  0  0  0  0
 33 66  1  0  0  0  0
 33 76  2  0  0  0  0
 34 60  1  0  0  0  0
 34 71  1  0  0  0  0
 34 77  2  0  0  0  0
 35 67  1  0  0  0  0
 35 72  1  0  0  0  0
 35 78  2  0  0  0  0
 36 39  1  0  0  0  0
 37 46  1  0  0  0  0
 38 66  1  0  0  0  0
 39 41  1  0  0  0  0
 40 42  1  0  0  0  0
 40 43  1  0  0  0  0
 41 45  1  0  0  0  0
 42 47  1  0  0  0  0
 43 67  1  0  0  0  0
 44 47  1  0  0  0  0
 44 67  1  0  0  0  0
 45 70  1  0  0  0  0
 46 66  1  0  0  0  0
 47 64  1  0  0  0  0
 49 58  1  0  0  0  0
 50 60  1  0  0  0  0
 51 61  1  0  0  0  0
 52 61  1  0  0  0  0
 53 61  1  0  0  0  0
 54 73  1  0  0  0  0
 55 57  1  0  0  0  0
 55 63  1  0  0  0  0
 56 58  1  0  0  0  0
 56 72  1  0  0  0  0
 57 80  1  0  0  0  0
 59 61  1  0  0  0  0
 59 71  1  0  0  0  0
 60 73  1  0  0  0  0
 62 64  1  0  0  0  0
M  CHG  2  65   1  73   1
M  ISO  4  35 100  57 101  72 100  80 101
M  END
> <Batch ID>
0081

> <Smiles>
CNC(C)C(=O)NC(C(=O)N1Cc2cc([101O:1][101CH2:1]Cn3cc(C(C)C[100NH:0][100C:0](=O)N4CCCC(n5nc(-c6ccc(Oc7ccc(F)cc7F)cc6)c(C(N)=O)c5N)C4)nc3C)ccc2CC1C(=O)NC1CCCc2ccccc21)C(C)(C)C

> <Shape>
0.238

> <Color>
0.092

> <Negative vol penalty>
0.000

$$$$

  -OEChem-04052318463D

 84 92  0     1  0  0  0  0  0999 V2000
  -25.4641  -11.3407   17.2598 C   0  0  0  0  0  0  0  0  0  0  0  0
  -25.1250  -12.6446   16.9132 C   0  0  0  0  0  0  0  0  0  0  0  0
  -28.4181  -25.4532   18.6537 C   0  0  0  0  0  0  0  0  0  0  0  0
  -27.0178  -24.2010   20.1730 C   0  0  0  0  0  0  0  0  0  0  0  0
  -25.4936  -10.9623   18.6014 C   0  0  0  0  0  0  0  0  0  0  0  0
  -24.8141  -13.5708   17.9082 C   0  0  0  0  0  0  0  0  0  0  0  0
  -25.3460  -20.5584   19.3940 C   0  0  0  0  0  0  0  0  0  0  0  0
  -29.4458  -24.5284   18.8386 C   0  0  0  0  0  0  0  0  0  0  0  0
  -28.0455  -23.2762   20.3579 C   0  0  0  0  0  0  0  0  0  0  0  0
  -24.5595  -21.6368   19.7968 C   0  0  0  0  0  0  0  0  0  0  0  0
  -32.3109  -22.3007   18.6315 C   0  0  0  0  0  0  0  0  0  0  0  0
  -32.9918  -21.8528   17.4995 C   0  0  0  0  0  0  0  0  0  0  0  0
  -19.4129  -27.5837   21.3795 C   0  0  0  0  0  0  0  0  0  0  0  0
  -19.7668  -28.6735   22.1553 C   0  0  0  0  0  0  0  0  0  0  0  0
  -24.7205  -20.8916   22.0854 C   0  0  0  0  0  0  0  0  0  0  0  0
  -30.9242  -20.9862   16.5988 C   0  0  0  0  0  0  0  0  0  0  0  0
  -27.2041  -25.2895   19.3209 C   0  0  0  0  0  0  0  0  0  0  0  0
  -25.1249  -26.2027   18.1586 C   0  0  0  0  0  0  0  0  0  0  0  0
  -25.1923  -11.8869   19.6138 C   0  0  0  0  0  0  0  0  0  0  0  0
  -25.8174  -19.6308   20.3341 C   0  0  0  0  0  0  0  0  0  0  0  0
  -24.8383  -13.2042   19.2646 C   0  0  0  0  0  0  0  0  0  0  0  0
  -25.5149  -19.8037   21.6923 C   0  0  0  0  0  0  0  0  0  0  0  0
  -29.2595  -23.4399   19.6907 C   0  0  0  0  0  0  0  0  0  0  0  0
  -24.2442  -21.8019   21.1423 C   0  0  0  0  0  0  0  0  0  0  0  0
  -30.9367  -22.0912   18.7472 C   0  0  0  0  0  0  0  0  0  0  0  0
  -32.2985  -21.1955   16.4831 C   0  0  0  0  0  0  0  0  0  0  0  0
  -30.2434  -21.4340   17.7308 C   0  0  0  0  0  0  0  0  0  0  0  0
  -26.1423  -26.2448   19.1307 C   0  0  0  0  0  0  0  0  0  0  0  0
  -19.4572  -26.3335   21.9631 C   0  0  0  0  0  0  0  0  0  0  0  0
  -20.1412  -28.4410   23.4635 C   0  0  0  0  0  0  0  0  0  0  0  0
  -24.3753  -27.3286   18.3970 C   0  0  0  0  0  0  0  0  0  0  0  0
  -24.8794  -25.2324   17.1319 C   0  0  0  0  0  0  0  0  0  0  0  0
  -25.4168  -16.5128   20.8044 C   0  0  0  0  0  0  0  0  0  0  0  0
  -27.6570  -16.9680   23.1058 C   0  0  0  0  0  0  0  0  0  0  0  0
  -29.2045  -19.1175   25.2579 C   0  0  0  0  0  0  0  0  0  0  0  0
  -23.4875  -30.6771   23.2807 C   0  0  0  0  0  0  0  0  0  0  0  0
  -25.1915  -11.4189   21.0475 C   0  0  0  0  0  0  0  0  0  0  0  0
  -26.6869  -18.4879   19.8869 C   0  0  0  0  0  0  0  0  0  0  0  0
  -26.0132  -18.8473   22.7437 C   0  0  0  0  0  0  0  0  0  0  0  0
  -25.2136  -12.5604   22.0609 C   0  0  0  0  0  0  0  0  0  0  0  0
  -24.7408  -31.7719   20.1331 C   0  0  0  0  0  0  0  0  0  0  0  0
  -24.1934  -13.6295   21.6830 C   0  0  0  0  0  0  0  0  0  0  0  0
  -25.1503  -30.4757   19.4316 C   0  0  0  0  0  0  0  0  0  0  0  0
  -25.0197  -31.7141   21.6334 C   0  0  0  0  0  0  0  0  0  0  0  0
  -24.8437  -29.2559   21.6262 C   0  0  0  0  0  0  0  0  0  0  0  0
  -24.5189  -14.2442   20.3164 C   0  0  1  0  0  0  0  0  0  0  0  0
  -26.6846  -17.3171   20.8649 C   0  0  1  0  0  0  0  0  0  0  0  0
  -24.5300  -29.2453   20.1203 C   0  0  2  0  0  0  0  0  0  0  0  0
  -19.5688  -29.7378   25.5406 C   0  0  0  0  0  0  0  0  0  0  0  0
  -30.9700  -19.1900   27.0398 C   0  0  0  0  0  0  0  0  0  0  0  0
  -25.7247  -15.6575   25.0703 C   0  0  0  0  0  0  0  0  0  0  0  0
  -27.0968  -16.5996   26.9406 C   0  0  0  0  0  0  0  0  0  0  0  0
  -28.1147  -14.9744   25.3452 C   0  0  0  0  0  0  0  0  0  0  0  0
  -30.8467  -21.0368   23.7156 C   0  0  0  0  0  0  0  0  0  0  0  0
  -19.0836  -25.1123   21.1612 C   0  0  0  0  0  0  0  0  0  0  0  0
  -20.2645  -24.4700   20.4249 C   0  0  0  0  0  0  0  0  0  0  0  0
  -21.3420  -23.9380   21.3709 C   0  0  0  0  0  0  0  0  0  0  0  0
  -21.9840  -29.4939   24.8614 C   0  0  0  0  0  0  0  0  0  0  0  0
  -22.5155  -23.3439   20.6038 C   0  0  0  0  0  0  0  0  0  1  0  0
  -20.5280  -29.5813   24.3417 C   0  0  1  0  0  0  0  0  0  0  0  0
  -27.6263  -17.3311   24.5708 C   0  0  1  0  0  0  0  0  0  0  0  0
  -30.6729  -19.3592   25.5580 C   0  0  2  0  0  0  0  0  0  0  0  0
  -27.1295  -16.1578   25.4619 C   0  0  0  0  0  0  0  0  0  0  0  0
  -26.0504  -27.3130   19.9272 N   0  0  0  0  0  0  0  0  0  0  0  0
  -19.8276  -26.1354   23.2459 N   0  0  0  0  0  0  0  0  0  0  0  0
  -20.1751  -27.2065   24.0085 N   0  0  0  0  0  0  0  0  0  0  0  0
  -24.9665  -27.9526   19.4560 N   0  0  0  0  0  0  0  0  0  0  0  0
  -26.8546  -17.7421   22.2558 N   0  0  0  0  0  0  0  0  0  0  0  0
  -24.4029  -30.5249   22.2262 N   0  0  0  0  0  0  0  0  0  0  0  0
  -23.2749  -27.8359   17.8020 N   0  0  0  0  0  0  0  0  0  0  0  0
  -25.7468  -24.1366   17.0270 N   0  0  0  0  0  0  0  0  0  0  0  0
  -25.6040  -15.1945   20.4352 N   0  0  0  0  0  0  0  0  0  0  0  0
  -28.9650  -17.8072   24.9016 N   0  0  0  0  0  0  0  0  0  0  0  0
  -22.9446  -29.4998   23.7806 N   0  0  0  0  0  0  0  0  0  0  0  0
  -31.0635  -20.7398   25.1550 N   0  3  0  0  0  0  0  0  0  0  0  0
  -23.9288  -25.3429   16.3209 O   0  0  0  0  0  0  0  0  0  0  0  0
  -24.3481  -17.0483   21.0743 O   0  0  0  0  0  0  0  0  0  0  0  0
  -28.3723  -16.0365   22.7286 O   0  0  0  0  0  0  0  0  0  0  0  0
  -28.3544  -20.0017   25.3358 O   0  0  0  0  0  0  0  0  0  0  0  0
  -23.1730  -31.7808   23.7389 O   0  0  0  0  0  0  0  0  0  0  0  0
  -30.2620  -22.5372   19.8712 O   0  0  0  0  0  0  0  0  0  0  0  0
  -23.4762  -22.8533   21.5381 O   0  0  0  0  0  0  0  0  0  1  0  0
  -32.9522  -20.7669   15.3954 F   0  0  0  0  0  0  0  0  0  0  0  0
  -28.9229  -21.2310   17.8357 F   0  0  0  0  0  0  0  0  0  0  0  0
  1  2  1  0  0  0  0
  1  5  2  0  0  0  0
  2  6  2  0  0  0  0
  3  8  2  0  0  0  0
  3 17  1  0  0  0  0
  4  9  1  0  0  0  0
  4 17  2  0  0  0  0
  5 19  1  0  0  0  0
  6 21  1  0  0  0  0
  7 10  2  0  0  0  0
  7 20  1  0  0  0  0
  8 23  1  0  0  0  0
  9 23  2  0  0  0  0
 10 24  1  0  0  0  0
 11 12  2  0  0  0  0
 11 25  1  0  0  0  0
 12 26  1  0  0  0  0
 13 14  2  0  0  0  0
 13 29  1  0  0  0  0
 14 30  1  0  0  0  0
 15 22  1  0  0  0  0
 15 24  2  0  0  0  0
 16 26  2  0  0  0  0
 16 27  1  0  0  0  0
 17 28  1  0  0  0  0
 18 28  1  0  0  0  0
 18 31  2  0  0  0  0
 18 32  1  0  0  0  0
 19 21  2  0  0  0  0
 19 37  1  0  0  0  0
 20 22  2  0  0  0  0
 20 38  1  0  0  0  0
 21 46  1  0  0  0  0
 22 39  1  0  0  0  0
 23 81  1  0  0  0  0
 24 82  1  0  0  0  0
 25 27  2  0  0  0  0
 25 81  1  0  0  0  0
 26 83  1  0  0  0  0
 27 84  1  0  0  0  0
 28 64  2  0  0  0  0
 29 55  1  0  0  0  0
 29 65  2  0  0  0  0
 30 60  1  0  0  0  0
 30 66  2  0  0  0  0
 31 67  1  0  0  0  0
 31 70  1  0  0  0  0
 32 71  1  0  0  0  0
 32 76  2  0  0  0  0
 33 47  1  0  0  0  0
 33 72  1  0  0  0  0
 33 77  2  0  0  0  0
 34 61  1  0  0  0  0
 34 68  1  0  0  0  0
 34 78  2  0  0  0  0
 35 62  1  0  0  0  0
 35 73  1  0  0  0  0
 35 79  2  0  0  0  0
 36 69  1  0  0  0  0
 36 74  1  0  0  0  0
 36 80  2  0  0  0  0
 37 40  1  0  0  0  0
 38 47  1  0  0  0  0
 39 68  1  0  0  0  0
 40 42  1  0  0  0  0
 41 43  1  0  0  0  0
 41 44  1  0  0  0  0
 42 46  1  0  0  0  0
 43 48  1  0  0  0  0
 44 69  1  0  0  0  0
 45 48  1  0  0  0  0
 45 69  1  0  0  0  0
 46 72  1  0  0  0  0
 47 68  1  0  0  0  0
 48 67  1  0  0  0  0
 49 60  1  0  0  0  0
 50 62  1  0  0  0  0
 51 63  1  0  0  0  0
 52 63  1  0  0  0  0
 53 63  1  0  0  0  0
 54 75  1  0  0  0  0
 55 56  1  0  0  0  0
 56 57  1  0  0  0  0
 57 59  1  0  0  0  0
 58 60  1  0  0  0  0
 58 74  1  0  0  0  0
 59 82  1  0  0  0  0
 61 63  1  0  0  0  0
 61 73  1  0  0  0  0
 62 75  1  0  0  0  0
 64 67  1  0  0  0  0
 65 66  1  0  0  0  0
M  CHG  1  75   1
M  ISO  4  36 100  59 101  74 100  82 101
M  END
> <Batch ID>
0081

> <Smiles>
CNC(C)C(=O)NC(C(=O)N1Cc2cc([101O:1][101CH2:1]CCCc3ccc(C(C)C[100NH:0][100C:0](=O)N4CCCC(n5nc(-c6ccc(Oc7ccc(F)cc7F)cc6)c(C(N)=O)c5N)C4)nn3)ccc2CC1C(=O)NC1CCCc2ccccc21)C(C)(C)C

> <Shape>
0.179

> <Color>
0.081

> <Negative vol penalty>
0.000

$$$$

  -OEChem-04052318463D

 84 92  0     1  0  0  0  0  0999 V2000
  -32.1718  -32.0561   21.7333 C   0  0  0  0  0  0  0  0  0  0  0  0
  -32.0547  -30.6952   21.9974 C   0  0  0  0  0  0  0  0  0  0  0  0
  -23.0042   -9.8912   19.9835 C   0  0  0  0  0  0  0  0  0  0  0  0
  -23.7287   -9.9515   22.2875 C   0  0  0  0  0  0  0  0  0  0  0  0
  -31.0420  -32.8722   21.7710 C   0  0  0  0  0  0  0  0  0  0  0  0
  -30.8076  -30.1498   22.3004 C   0  0  0  0  0  0  0  0  0  0  0  0
  -28.7586  -24.5809   20.7856 C   0  0  0  0  0  0  0  0  0  0  0  0
  -22.2404   -8.7557   20.2533 C   0  0  0  0  0  0  0  0  0  0  0  0
  -22.9648   -8.8160   22.5574 C   0  0  0  0  0  0  0  0  0  0  0  0
  -28.6868  -23.3828   21.4950 C   0  0  0  0  0  0  0  0  0  0  0  0
  -23.2173   -5.4762   22.0965 C   0  0  0  0  0  0  0  0  0  0  0  0
  -23.8070   -4.4629   22.8521 C   0  0  0  0  0  0  0  0  0  0  0  0
  -26.3959  -23.8693   22.0731 C   0  0  0  0  0  0  0  0  0  0  0  0
  -28.4536  -18.2255   19.5087 C   0  0  0  0  0  0  0  0  0  0  0  0
  -28.4113  -18.8478   21.8427 C   0  0  0  0  0  0  0  0  0  0  0  0
  -22.0821   -4.7071   24.5261 C   0  0  0  0  0  0  0  0  0  0  0  0
  -23.7484  -10.4890   21.0006 C   0  0  0  0  0  0  0  0  0  0  0  0
  -24.1277  -13.0050   20.8164 C   0  0  0  0  0  0  0  0  0  0  0  0
  -29.7789  -32.3347   22.0653 C   0  0  0  0  0  0  0  0  0  0  0  0
  -27.6511  -25.4388   20.7236 C   0  0  0  0  0  0  0  0  0  0  0  0
  -29.6600  -30.9597   22.3435 C   0  0  0  0  0  0  0  0  0  0  0  0
  -26.4554  -25.0765   21.3601 C   0  0  0  0  0  0  0  0  0  0  0  0
  -29.1059  -18.3649   20.7337 C   0  0  0  0  0  0  0  0  0  0  0  0
  -27.1067  -18.5691   19.3927 C   0  0  0  0  0  0  0  0  0  0  0  0
  -27.0644  -19.1914   21.7267 C   0  0  0  0  0  0  0  0  0  0  0  0
  -26.4121  -19.0520   20.5017 C   0  0  0  0  0  0  0  0  0  0  0  0
  -22.2206   -8.2182   21.5403 C   0  0  0  0  0  0  0  0  0  0  0  0
  -27.5063  -23.0282   22.1413 C   0  0  0  0  0  0  0  0  0  0  0  0
  -22.0599   -6.1050   22.5557 C   0  0  0  0  0  0  0  0  0  0  0  0
  -23.2395   -4.0783   24.0669 C   0  0  0  0  0  0  0  0  0  0  0  0
  -21.4924   -5.7205   23.7705 C   0  0  0  0  0  0  0  0  0  0  0  0
  -24.5382  -11.6616   20.7223 C   0  0  0  0  0  0  0  0  0  0  0  0
  -25.2358  -13.7290   20.4499 C   0  0  0  0  0  0  0  0  0  0  0  0
  -22.8584  -13.5496   21.2008 C   0  0  0  0  0  0  0  0  0  0  0  0
  -27.0655  -28.4175   21.6661 C   0  0  0  0  0  0  0  0  0  0  0  0
  -24.2626  -27.9469   20.1027 C   0  0  0  0  0  0  0  0  0  0  0  0
  -21.9377  -25.7448   18.9226 C   0  0  0  0  0  0  0  0  0  0  0  0
  -30.7299  -14.6777   20.6968 C   0  0  0  0  0  0  0  0  0  0  0  0
  -28.5940  -33.2648   22.1409 C   0  0  0  0  0  0  0  0  0  0  0  0
  -27.7363  -26.7149   19.9320 C   0  0  0  0  0  0  0  0  0  0  0  0
  -25.2316  -25.9529   21.3071 C   0  0  0  0  0  0  0  0  0  0  0  0
  -27.2496  -32.5428   22.1021 C   0  0  0  0  0  0  0  0  0  0  0  0
  -29.5957  -12.2436   18.3590 C   0  0  0  0  0  0  0  0  0  0  0  0
  -27.2551  -31.3525   23.0560 C   0  0  0  0  0  0  0  0  0  0  0  0
  -28.1477  -11.9817   18.7771 C   0  0  0  0  0  0  0  0  0  0  0  0
  -30.4972  -12.4851   19.5677 C   0  0  0  0  0  0  0  0  0  0  0  0
  -28.5848  -13.2804   20.9033 C   0  0  0  0  0  0  0  0  0  0  0  0
  -28.3206  -30.3264   22.6518 C   0  0  1  0  0  0  0  0  0  0  0  0
  -26.7089  -27.7563   20.3649 C   0  0  1  0  0  0  0  0  0  0  0  0
  -27.6265  -13.0865   19.7157 C   0  0  2  0  0  0  0  0  0  0  0  0
  -26.4312  -18.4094   18.0698 C   0  0  0  0  0  0  0  0  0  0  0  0
  -24.9678  -19.4200   20.3771 C   0  0  0  0  0  0  0  0  0  0  0  0
  -31.4219  -19.2159   21.2196 C   0  0  0  0  0  0  0  0  0  0  0  0
  -19.7360  -25.6602   17.7214 C   0  0  0  0  0  0  0  0  0  0  0  0
  -22.8363  -28.7984   22.6621 C   0  0  0  0  0  0  0  0  0  0  0  0
  -20.7333  -27.8017   21.7390 C   0  0  0  0  0  0  0  0  0  0  0  0
  -21.8329  -29.7040   20.5580 C   0  0  0  0  0  0  0  0  0  0  0  0
  -23.0935  -24.2112   16.6707 C   0  0  0  0  0  0  0  0  0  0  0  0
  -26.3356  -19.7115   22.9419 C   0  0  0  0  0  0  0  0  0  0  0  0
  -30.8070  -16.8607   21.8748 C   0  0  0  0  0  0  0  0  0  0  0  0
  -26.1575  -21.2255   22.9073 C   0  0  0  0  0  0  0  0  0  1  0  0
  -30.5461  -17.9981   20.8576 C   0  0  1  0  0  0  0  0  0  0  0  0
  -22.9023  -27.4143   20.4836 C   0  0  1  0  0  0  0  0  0  0  0  0
  -21.2494  -25.6331   17.5742 C   0  0  2  0  0  0  0  0  0  0  0  0
  -22.0997  -28.4138   21.3635 C   0  0  0  0  0  0  0  0  0  0  0  0
  -25.8078  -11.5369   20.3269 N   0  0  0  0  0  0  0  0  0  0  0  0
  -26.2048  -12.8111   20.1692 N   0  0  0  0  0  0  0  0  0  0  0  0
  -25.3667  -27.1934   20.5257 N   0  0  0  0  0  0  0  0  0  0  0  0
  -29.9476  -13.5453   20.4161 N   0  0  0  0  0  0  0  0  0  0  0  0
  -25.4661  -15.0549   20.3435 N   0  0  0  0  0  0  0  0  0  0  0  0
  -21.8286  -12.6641   21.5469 N   0  0  0  0  0  0  0  0  0  0  0  0
  -27.8624  -29.5380   21.5281 N   0  0  0  0  0  0  0  0  0  0  0  0
  -22.2409  -27.0533   19.2344 N   0  0  0  0  0  0  0  0  0  0  0  0
  -30.1310  -15.6377   21.5033 N   0  0  0  0  0  0  0  0  0  0  0  0
  -21.6334  -24.3604   16.9005 N   0  3  0  0  0  0  0  0  0  0  0  0
  -22.6387  -14.7844   21.2204 O   0  0  0  0  0  0  0  0  0  0  0  0
  -26.6475  -27.9468   22.7175 O   0  0  0  0  0  0  0  0  0  0  0  0
  -24.3423  -28.9891   19.4477 O   0  0  0  0  0  0  0  0  0  0  0  0
  -22.1787  -24.7694   19.6303 O   0  0  0  0  0  0  0  0  0  0  0  0
  -31.8751  -14.8249   20.2565 O   0  0  0  0  0  0  0  0  0  0  0  0
  -21.4751   -7.1103   21.8041 O   0  0  0  0  0  0  0  0  0  0  0  0
  -27.4337  -21.8597   22.8349 O   0  0  0  0  0  0  0  0  0  1  0  0
  -23.8051   -3.1041   24.7916 F   0  0  0  0  0  0  0  0  0  0  0  0
  -20.3799   -6.3201   24.2163 F   0  0  0  0  0  0  0  0  0  0  0  0
  1  2  1  0  0  0  0
  1  5  2  0  0  0  0
  2  6  2  0  0  0  0
  3  8  2  0  0  0  0
  3 17  1  0  0  0  0
  4  9  1  0  0  0  0
  4 17  2  0  0  0  0
  5 19  1  0  0  0  0
  6 21  1  0  0  0  0
  7 10  2  0  0  0  0
  7 20  1  0  0  0  0
  8 27  1  0  0  0  0
  9 27  2  0  0  0  0
 10 28  1  0  0  0  0
 11 12  2  0  0  0  0
 11 29  1  0  0  0  0
 12 30  1  0  0  0  0
 13 22  1  0  0  0  0
 13 28  2  0  0  0  0
 14 23  1  0  0  0  0
 14 24  2  0  0  0  0
 15 23  2  0  0  0  0
 15 25  1  0  0  0  0
 16 30  2  0  0  0  0
 16 31  1  0  0  0  0
 17 32  1  0  0  0  0
 18 32  1  0  0  0  0
 18 33  2  0  0  0  0
 18 34  1  0  0  0  0
 19 21  2  0  0  0  0
 19 39  1  0  0  0  0
 20 22  2  0  0  0  0
 20 40  1  0  0  0  0
 21 48  1  0  0  0  0
 22 41  1  0  0  0  0
 23 62  1  0  0  0  0
 24 26  1  0  0  0  0
 24 51  1  0  0  0  0
 25 26  2  0  0  0  0
 25 59  1  0  0  0  0
 26 52  1  0  0  0  0
 27 81  1  0  0  0  0
 28 82  1  0  0  0  0
 29 31  2  0  0  0  0
 29 81  1  0  0  0  0
 30 83  1  0  0  0  0
 31 84  1  0  0  0  0
 32 66  2  0  0  0  0
 33 67  1  0  0  0  0
 33 70  1  0  0  0  0
 34 71  1  0  0  0  0
 34 76  2  0  0  0  0
 35 49  1  0  0  0  0
 35 72  1  0  0  0  0
 35 77  2  0  0  0  0
 36 63  1  0  0  0  0
 36 68  1  0  0  0  0
 36 78  2  0  0  0  0
 37 64  1  0  0  0  0
 37 73  1  0  0  0  0
 37 79  2  0  0  0  0
 38 69  1  0  0  0  0
 38 74  1  0  0  0  0
 38 80  2  0  0  0  0
 39 42  1  0  0  0  0
 40 49  1  0  0  0  0
 41 68  1  0  0  0  0
 42 44  1  0  0  0  0
 43 45  1  0  0  0  0
 43 46  1  0  0  0  0
 44 48  1  0  0  0  0
 45 50  1  0  0  0  0
 46 69  1  0  0  0  0
 47 50  1  0  0  0  0
 47 69  1  0  0  0  0
 48 72  1  0  0  0  0
 49 68  1  0  0  0  0
 50 67  1  0  0  0  0
 53 62  1  0  0  0  0
 54 64  1  0  0  0  0
 55 65  1  0  0  0  0
 56 65  1  0  0  0  0
 57 65  1  0  0  0  0
 58 75  1  0  0  0  0
 59 61  1  0  0  0  0
 60 62  1  0  0  0  0
 60 74  1  0  0  0  0
 61 82  1  0  0  0  0
 63 65  1  0  0  0  0
 63 73  1  0  0  0  0
 64 75  1  0  0  0  0
 66 67  1  0  0  0  0
M  CHG  1  75   1
M  ISO  4  38 100  61 101  74 100  82 101
M  END
> <Batch ID>
0081

> <Smiles>
CNC(C)C(=O)NC(C(=O)N1Cc2cc([101O:1][101CH2:1]Cc3cc(C(C)C[100NH:0][100C:0](=O)N4CCCC(n5nc(-c6ccc(Oc7ccc(F)cc7F)cc6)c(C(N)=O)c5N)C4)cc(C)c3C)ccc2CC1C(=O)NC1CCCc2ccccc21)C(C)(C)C

> <Shape>
0.297

> <Color>
0.202

> <Negative vol penalty>
0.000

$$$$

  -OEChem-04052318463D

 83 91  0     1  0  0  0  0  0999 V2000
  -28.7605  -22.8135   16.0205 C   0  0  0  0  0  0  0  0  0  0  0  0
  -27.5516  -23.1166   16.6385 C   0  0  0  0  0  0  0  0  0  0  0  0
  -26.8168  -15.1172   21.6348 C   0  0  0  0  0  0  0  0  0  0  0  0
  -26.4738  -15.1566   19.2436 C   0  0  0  0  0  0  0  0  0  0  0  0
  -29.9628  -23.1588   16.6362 C   0  0  0  0  0  0  0  0  0  0  0  0
  -27.5443  -23.7644   17.8734 C   0  0  0  0  0  0  0  0  0  0  0  0
  -24.1602  -27.5264   18.0738 C   0  0  0  0  0  0  0  0  0  0  0  0
  -26.5110  -13.7565   21.6563 C   0  0  0  0  0  0  0  0  0  0  0  0
  -26.1682  -13.7958   19.2651 C   0  0  0  0  0  0  0  0  0  0  0  0
  -22.8246  -27.1722   18.2599 C   0  0  0  0  0  0  0  0  0  0  0  0
  -23.7384  -11.8253   21.5709 C   0  0  0  0  0  0  0  0  0  0  0  0
  -22.8764  -11.3711   22.5690 C   0  0  0  0  0  0  0  0  0  0  0  0
  -23.0138  -27.7134   20.6031 C   0  0  0  0  0  0  0  0  0  0  0  0
  -24.6052   -9.8973   23.3914 C   0  0  0  0  0  0  0  0  0  0  0  0
  -20.0756  -22.9597   21.1546 C   0  0  0  0  0  0  0  0  0  0  0  0
  -19.8883  -23.6476   19.0745 C   0  0  0  0  0  0  0  0  0  0  0  0
  -26.7981  -15.8173   20.4285 C   0  0  0  0  0  0  0  0  0  0  0  0
  -28.3825  -17.8071   20.2332 C   0  0  0  0  0  0  0  0  0  0  0  0
  -29.9701  -23.8197   17.8747 C   0  0  0  0  0  0  0  0  0  0  0  0
  -24.9369  -27.9672   19.1550 C   0  0  0  0  0  0  0  0  0  0  0  0
  -28.7478  -24.1177   18.5069 C   0  0  0  0  0  0  0  0  0  0  0  0
  -24.3582  -28.0751   20.4276 C   0  0  0  0  0  0  0  0  0  0  0  0
  -19.7630  -24.0861   20.3701 C   0  0  0  0  0  0  0  0  0  0  0  0
  -26.1868  -13.0957   20.4714 C   0  0  0  0  0  0  0  0  0  0  0  0
  -22.2520  -27.2629   19.5252 C   0  0  0  0  0  0  0  0  0  0  0  0
  -25.0338  -11.3154   21.4829 C   0  0  0  0  0  0  0  0  0  0  0  0
  -23.3098  -10.4071   23.4793 C   0  0  0  0  0  0  0  0  0  0  0  0
  -25.4672  -10.3514   22.3932 C   0  0  0  0  0  0  0  0  0  0  0  0
  -27.1132  -17.2231   20.4058 C   0  0  0  0  0  0  0  0  0  0  0  0
  -28.1486  -19.1594   20.2882 C   0  0  0  0  0  0  0  0  0  0  0  0
  -29.6588  -17.1830   20.0403 C   0  0  0  0  0  0  0  0  0  0  0  0
  -27.5591  -26.9134   20.6101 C   0  0  0  0  0  0  0  0  0  0  0  0
  -27.3039  -29.7046   22.2430 C   0  0  0  0  0  0  0  0  0  0  0  0
  -25.3094  -32.2466   23.3416 C   0  0  0  0  0  0  0  0  0  0  0  0
  -23.4841  -22.5749   19.1683 C   0  0  0  0  0  0  0  0  0  0  0  0
  -31.2955  -24.1306   18.5238 C   0  0  0  0  0  0  0  0  0  0  0  0
  -26.3687  -28.3709   18.9325 C   0  0  0  0  0  0  0  0  0  0  0  0
  -25.1435  -28.5618   21.6171 C   0  0  0  0  0  0  0  0  0  0  0  0
  -31.1952  -25.1501   19.6555 C   0  0  0  0  0  0  0  0  0  0  0  0
  -25.1790  -22.3815   22.1876 C   0  0  0  0  0  0  0  0  0  0  0  0
  -30.0357  -24.8044   20.5843 C   0  0  0  0  0  0  0  0  0  0  0  0
  -25.9932  -21.0938   22.0702 C   0  0  0  0  0  0  0  0  0  0  0  0
  -23.7860  -22.2007   21.5963 C   0  0  0  0  0  0  0  0  0  0  0  0
  -24.6034  -20.4664   20.0326 C   0  0  0  0  0  0  0  0  0  0  0  0
  -28.6984  -24.8418   19.8348 C   0  0  1  0  0  0  0  0  0  0  0  0
  -27.2092  -28.3172   20.2045 C   0  0  1  0  0  0  0  0  0  0  0  0
  -26.0259  -20.5931   20.6156 C   0  0  2  0  0  0  0  0  0  0  0  0
  -18.5882  -25.4066   22.1611 C   0  0  0  0  0  0  0  0  0  0  0  0
  -25.3785  -34.3648   24.6854 C   0  0  0  0  0  0  0  0  0  0  0  0
  -19.5035  -20.2850   18.0446 C   0  0  0  0  0  0  0  0  0  0  0  0
  -27.4244  -28.0665   24.8144 C   0  0  0  0  0  0  0  0  0  0  0  0
  -26.5495  -30.0635   26.0452 C   0  0  0  0  0  0  0  0  0  0  0  0
  -28.7448  -30.1897   24.8673 C   0  0  0  0  0  0  0  0  0  0  0  0
  -23.1302  -22.6295   16.7291 C   0  0  0  0  0  0  0  0  0  0  0  0
  -24.4373  -33.8778   21.0312 C   0  0  0  0  0  0  0  0  0  0  0  0
  -21.9457  -20.9099   18.0432 C   0  0  0  0  0  0  0  0  0  0  0  0
  -20.5894  -26.3987   20.9896 C   0  0  0  0  0  0  0  0  0  1  0  0
  -19.3714  -25.4758   20.8471 C   0  0  1  0  0  0  0  0  0  0  0  0
  -26.6115  -30.1419   23.5113 C   0  0  1  0  0  0  0  0  0  0  0  0
  -25.4823  -33.7541   23.2965 C   0  0  2  0  0  0  0  0  0  0  0  0
  -20.5049  -21.4449   18.0515 C   0  0  2  0  0  0  0  0  0  0  0  0
  -27.3180  -29.6043   24.7877 C   0  0  0  0  0  0  0  0  0  0  0  0
  -20.3767  -21.8864   20.4188 N   0  0  0  0  0  0  0  0  0  0  0  0
  -26.1448  -18.1302   20.5591 N   0  0  0  0  0  0  0  0  0  0  0  0
  -20.2538  -22.3363   19.1585 N   0  0  0  0  0  0  0  0  0  0  0  0
  -26.8058  -19.2978   20.4831 N   0  0  0  0  0  0  0  0  0  0  0  0
  -26.5413  -28.9387   21.3499 N   0  0  0  0  0  0  0  0  0  0  0  0
  -23.8549  -21.7194   20.2163 N   0  0  0  0  0  0  0  0  0  0  0  0
  -28.9625  -20.2317   20.1884 N   0  0  0  0  0  0  0  0  0  0  0  0
  -29.7201  -15.7831   20.0092 N   0  0  0  0  0  0  0  0  0  0  0  0
  -28.2604  -26.2087   19.6504 N   0  0  0  0  0  0  0  0  0  0  0  0
  -26.5208  -31.5965   23.4462 N   0  0  0  0  0  0  0  0  0  0  0  0
  -22.9380  -21.9829   18.0195 N   0  0  0  0  0  0  0  0  0  0  0  0
  -24.4354  -34.3700   22.4329 N   0  3  0  0  0  0  0  0  0  0  0  0
  -30.7159  -17.8467   19.9162 O   0  0  0  0  0  0  0  0  0  0  0  0
  -27.2193  -26.5007   21.7128 O   0  0  0  0  0  0  0  0  0  0  0  0
  -28.4759  -30.0366   22.0486 O   0  0  0  0  0  0  0  0  0  0  0  0
  -24.2094  -31.7006   23.2929 O   0  0  0  0  0  0  0  0  0  0  0  0
  -23.6256  -23.8015   19.2559 O   0  0  0  0  0  0  0  0  0  0  0  0
  -25.8887  -11.7679   20.4919 O   0  0  0  0  0  0  0  0  0  0  0  0
  -20.9489  -26.9172   19.7097 O   0  0  0  0  0  0  0  0  0  1  0  0
  -22.4824   -9.9722   24.4387 F   0  0  0  0  0  0  0  0  0  0  0  0
  -26.7109   -9.8587   22.3145 F   0  0  0  0  0  0  0  0  0  0  0  0
  1  2  1  0  0  0  0
  1  5  2  0  0  0  0
  2  6  2  0  0  0  0
  3  8  2  0  0  0  0
  3 17  1  0  0  0  0
  4  9  1  0  0  0  0
  4 17  2  0  0  0  0
  5 19  1  0  0  0  0
  6 21  1  0  0  0  0
  7 10  2  0  0  0  0
  7 20  1  0  0  0  0
  8 24  1  0  0  0  0
  9 24  2  0  0  0  0
 10 25  1  0  0  0  0
 11 12  2  0  0  0  0
 11 26  1  0  0  0  0
 12 27  1  0  0  0  0
 13 22  1  0  0  0  0
 13 25  2  0  0  0  0
 14 27  2  0  0  0  0
 14 28  1  0  0  0  0
 15 23  1  0  0  0  0
 15 63  2  0  0  0  0
 16 23  2  0  0  0  0
 16 65  1  0  0  0  0
 17 29  1  0  0  0  0
 18 29  1  0  0  0  0
 18 30  2  0  0  0  0
 18 31  1  0  0  0  0
 19 21  2  0  0  0  0
 19 36  1  0  0  0  0
 20 22  2  0  0  0  0
 20 37  1  0  0  0  0
 21 45  1  0  0  0  0
 22 38  1  0  0  0  0
 23 58  1  0  0  0  0
 24 80  1  0  0  0  0
 25 81  1  0  0  0  0
 26 28  2  0  0  0  0
 26 80  1  0  0  0  0
 27 82  1  0  0  0  0
 28 83  1  0  0  0  0
 29 64  2  0  0  0  0
 30 66  1  0  0  0  0
 30 69  1  0  0  0  0
 31 70  1  0  0  0  0
 31 75  2  0  0  0  0
 32 46  1  0  0  0  0
 32 71  1  0  0  0  0
 32 76  2  0  0  0  0
 33 59  1  0  0  0  0
 33 67  1  0  0  0  0
 33 77  2  0  0  0  0
 34 60  1  0  0  0  0
 34 72  1  0  0  0  0
 34 78  2  0  0  0  0
 35 68  1  0  0  0  0
 35 73  1  0  0  0  0
 35 79  2  0  0  0  0
 36 39  1  0  0  0  0
 37 46  1  0  0  0  0
 38 67  1  0  0  0  0
 39 41  1  0  0  0  0
 40 42  1  0  0  0  0
 40 43  1  0  0  0  0
 41 45  1  0  0  0  0
 42 47  1  0  0  0  0
 43 68  1  0  0  0  0
 44 47  1  0  0  0  0
 44 68  1  0  0  0  0
 45 71  1  0  0  0  0
 46 67  1  0  0  0  0
 47 66  1  0  0  0  0
 48 58  1  0  0  0  0
 49 60  1  0  0  0  0
 50 61  1  0  0  0  0
 51 62  1  0  0  0  0
 52 62  1  0  0  0  0
 53 62  1  0  0  0  0
 54 73  1  0  0  0  0
 55 74  1  0  0  0  0
 56 61  1  0  0  0  0
 56 73  1  0  0  0  0
 57 58  1  0  0  0  0
 57 81  1  0  0  0  0
 59 62  1  0  0  0  0
 59 72  1  0  0  0  0
 60 74  1  0  0  0  0
 61 65  1  0  0  0  0
 63 65  1  0  0  0  0
 64 66  1  0  0  0  0
M  CHG  1  74   1
M  ISO  4  35 100  57 101  73 100  81 101
M  END
> <Batch ID>
0081

> <Smiles>
CNC(C)C(=O)NC(C(=O)N1Cc2cc([101O:1][101CH2:1]C(C)c3cnn(C(C)C[100N:0](C)[100C:0](=O)N4CCCC(n5nc(-c6ccc(Oc7ccc(F)cc7F)cc6)c(C(N)=O)c5N)C4)c3)ccc2CC1C(=O)NC1CCCc2ccccc21)C(C)(C)C

> <Shape>
0.239

> <Color>
0.078

> <Negative vol penalty>
0.000

$$$$

  -OEChem-04052318463D

 88 96  0     1  0  0  0  0  0999 V2000
  -21.5410  -26.5704   23.4879 C   0  0  0  0  0  0  0  0  0  0  0  0
  -21.5420  -25.2246   23.1356 C   0  0  0  0  0  0  0  0  0  0  0  0
  -28.4141  -26.3567   18.1622 C   0  0  0  0  0  0  0  0  0  0  0  0
  -27.0071  -25.5860   19.9687 C   0  0  0  0  0  0  0  0  0  0  0  0
  -21.1254  -27.5307   22.5665 C   0  0  0  0  0  0  0  0  0  0  0  0
  -21.1263  -24.8382   21.8619 C   0  0  0  0  0  0  0  0  0  0  0  0
  -24.2094  -21.4090   19.7691 C   0  0  0  0  0  0  0  0  0  0  0  0
  -27.6131  -27.4900   18.0218 C   0  0  0  0  0  0  0  0  0  0  0  0
  -26.2060  -26.7192   19.8283 C   0  0  0  0  0  0  0  0  0  0  0  0
  -24.0826  -20.0900   20.2027 C   0  0  0  0  0  0  0  0  0  0  0  0
  -23.9999  -29.5870   20.1849 C   0  0  0  0  0  0  0  0  0  0  0  0
  -23.6200  -30.2613   21.3453 C   0  0  0  0  0  0  0  0  0  0  0  0
  -22.7815  -19.5754   18.2376 C   0  0  0  0  0  0  0  0  0  0  0  0
  -25.9436  -30.6541   21.8779 C   0  0  0  0  0  0  0  0  0  0  0  0
  -28.1111  -25.4047   19.1356 C   0  0  0  0  0  0  0  0  0  0  0  0
  -30.0716  -24.0899   20.1029 C   0  0  0  0  0  0  0  0  0  0  0  0
  -20.7136  -27.1568   21.2776 C   0  0  0  0  0  0  0  0  0  0  0  0
  -23.6130  -21.8244   18.5698 C   0  0  0  0  0  0  0  0  0  0  0  0
  -20.7035  -25.7943   20.9228 C   0  0  0  0  0  0  0  0  0  0  0  0
  -22.9044  -20.8996   17.7897 C   0  0  0  0  0  0  0  0  0  0  0  0
  -26.5091  -27.6712   18.8548 C   0  0  0  0  0  0  0  0  0  0  0  0
  -23.3661  -19.1737   19.4384 C   0  0  0  0  0  0  0  0  0  0  0  0
  -25.3517  -29.4461   19.8711 C   0  0  0  0  0  0  0  0  0  0  0  0
  -24.5918  -30.7949   22.1918 C   0  0  0  0  0  0  0  0  0  0  0  0
  -26.3236  -29.9797   20.7175 C   0  0  0  0  0  0  0  0  0  0  0  0
  -28.9378  -24.2336   19.2808 C   0  0  0  0  0  0  0  0  0  0  0  0
  -30.4939  -22.8016   19.8832 C   0  0  0  0  0  0  0  0  0  0  0  0
  -24.8833  -12.6801   21.3761 C   0  0  0  0  0  0  0  0  0  0  0  0
  -26.5686  -13.1035   20.0763 C   0  0  0  0  0  0  0  0  0  0  0  0
  -30.6878  -25.0364   20.9861 C   0  0  0  0  0  0  0  0  0  0  0  0
  -21.3814  -23.9506   17.7932 C   0  0  0  0  0  0  0  0  0  0  0  0
  -22.2121  -23.1360   14.7652 C   0  0  0  0  0  0  0  0  0  0  0  0
  -23.5673  -20.8204   12.6563 C   0  0  0  0  0  0  0  0  0  0  0  0
  -29.4147  -17.4577   19.4085 C   0  0  0  0  0  0  0  0  0  0  0  0
  -20.2281  -28.2265   20.3318 C   0  0  0  0  0  0  0  0  0  0  0  0
  -23.7817  -23.2441   18.1026 C   0  0  0  0  0  0  0  0  0  0  0  0
  -22.2623  -21.2902   16.4845 C   0  0  0  0  0  0  0  0  0  0  0  0
  -20.1583  -27.7677   18.8775 C   0  0  0  0  0  0  0  0  0  0  0  0
  -29.0896  -19.4247   16.3881 C   0  0  0  0  0  0  0  0  0  0  0  0
  -19.4850  -26.4024   18.7801 C   0  0  0  0  0  0  0  0  0  0  0  0
  -29.1156  -20.8481   16.9479 C   0  0  0  0  0  0  0  0  0  0  0  0
  -28.3325  -18.4794   17.3162 C   0  0  0  0  0  0  0  0  0  0  0  0
  -28.8697  -19.8719   19.2773 C   0  0  0  0  0  0  0  0  0  0  0  0
  -20.2832  -25.3380   19.5425 C   0  0  1  0  0  0  0  0  0  0  0  0
  -22.6987  -23.6831   17.1218 C   0  0  1  0  0  0  0  0  0  0  0  0
  -29.6403  -20.8714   18.3957 C   0  0  2  0  0  0  0  0  0  0  0  0
  -24.0757  -20.4235   10.2311 C   0  0  0  0  0  0  0  0  0  0  0  0
  -20.2294  -10.9865   25.4115 C   0  0  0  0  0  0  0  0  0  0  0  0
  -22.4738   -9.8814   25.3632 C   0  0  0  0  0  0  0  0  0  0  0  0
  -19.2604  -22.5672   14.2420 C   0  0  0  0  0  0  0  0  0  0  0  0
  -19.9394  -21.3040   12.1898 C   0  0  0  0  0  0  0  0  0  0  0  0
  -20.4434  -23.7399   12.3767 C   0  0  0  0  0  0  0  0  0  0  0  0
  -26.4710  -20.5950   13.1823 C   0  0  0  0  0  0  0  0  0  0  0  0
  -23.7583  -12.8917   22.3043 C   0  0  0  0  0  0  0  0  0  0  0  0
  -27.6006  -13.8571   19.3422 C   0  0  0  0  0  0  0  0  0  0  0  0
  -23.1930  -11.6028   22.9487 C   0  0  0  0  0  0  0  0  0  0  0  0
  -28.8280  -14.2810   20.1864 C   0  0  0  0  0  0  0  0  0  0  0  0
  -21.9881  -11.8819   23.8562 C   0  0  0  0  0  0  0  0  0  0  0  0
  -24.3811  -15.8475   20.4071 C   0  0  0  0  0  0  0  0  0  0  0  0
  -25.5087  -15.1666   21.1861 C   0  0  0  0  0  0  0  0  0  0  0  0
  -29.9012  -15.0246   19.3942 C   0  0  0  0  0  0  0  0  0  0  0  0
  -24.3066  -17.3515   20.6430 C   0  0  0  0  0  0  0  0  0  1  0  0
  -21.7549  -22.0920   13.7754 C   0  0  1  0  0  0  0  0  0  0  0  0
  -24.6069  -20.9453   11.5571 C   0  0  2  0  0  0  0  0  0  0  0  0
  -21.4237  -10.6159   24.5286 C   0  0  0  0  0  0  0  0  0  0  0  0
  -20.3599  -22.4186   13.1715 C   0  0  0  0  0  0  0  0  0  0  0  0
  -28.6577  -23.1250   18.5904 N   0  0  0  0  0  0  0  0  0  0  0  0
  -25.3064  -11.5341   20.8925 N   0  0  0  0  0  0  0  0  0  0  0  0
  -26.3787  -11.8034   20.0655 N   0  0  0  0  0  0  0  0  0  0  0  0
  -29.6217  -22.2726   18.9780 N   0  0  0  0  0  0  0  0  0  0  0  0
  -25.6493  -13.6951   20.8885 N   0  0  0  0  0  0  0  0  0  0  0  0
  -22.4500  -22.6914   16.0735 N   0  0  0  0  0  0  0  0  0  0  0  0
  -28.8933  -18.5354   18.6736 N   0  0  0  0  0  0  0  0  0  0  0  0
  -31.5227  -22.0810   20.3780 N   0  0  0  0  0  0  0  0  0  0  0  0
  -30.1250  -26.3156   21.0925 N   0  0  0  0  0  0  0  0  0  0  0  0
  -21.4366  -24.9236   18.7729 N   0  0  0  0  0  0  0  0  0  0  0  0
  -22.8209  -21.9724   12.7866 N   0  0  0  0  0  0  0  0  0  0  0  0
  -29.3939  -16.2250   18.7676 N   0  0  0  0  0  0  0  0  0  0  0  0
  -25.8302  -20.1711   11.9108 N   0  3  0  0  0  0  0  0  0  0  0  0
  -31.7169  -24.7615   21.6485 O   0  0  0  0  0  0  0  0  0  0  0  0
  -20.3882  -23.3219   17.4471 O   0  0  0  0  0  0  0  0  0  0  0  0
  -22.3598  -24.3017   14.3898 O   0  0  0  0  0  0  0  0  0  0  0  0
  -23.4286  -19.8013   13.3292 O   0  0  0  0  0  0  0  0  0  0  0  0
  -29.8704  -17.5855   20.5500 O   0  0  0  0  0  0  0  0  0  0  0  0
  -25.7273  -28.7770   18.7183 O   0  0  0  0  0  0  0  0  0  0  0  0
  -23.2402  -17.8859   19.8597 O   0  0  0  0  0  0  0  0  0  1  0  0
  -24.2267  -31.4438   23.3053 F   0  0  0  0  0  0  0  0  0  0  0  0
  -27.6237  -29.8485   20.4207 F   0  0  0  0  0  0  0  0  0  0  0  0
  1  2  1  0  0  0  0
  1  5  2  0  0  0  0
  2  6  2  0  0  0  0
  3  8  2  0  0  0  0
  3 15  1  0  0  0  0
  4  9  1  0  0  0  0
  4 15  2  0  0  0  0
  5 17  1  0  0  0  0
  6 19  1  0  0  0  0
  7 10  2  0  0  0  0
  7 18  1  0  0  0  0
  8 21  1  0  0  0  0
  9 21  2  0  0  0  0
 10 22  1  0  0  0  0
 11 12  2  0  0  0  0
 11 23  1  0  0  0  0
 12 24  1  0  0  0  0
 13 20  1  0  0  0  0
 13 22  2  0  0  0  0
 14 24  2  0  0  0  0
 14 25  1  0  0  0  0
 15 26  1  0  0  0  0
 16 26  1  0  0  0  0
 16 27  2  0  0  0  0
 16 30  1  0  0  0  0
 17 19  2  0  0  0  0
 17 35  1  0  0  0  0
 18 20  2  0  0  0  0
 18 36  1  0  0  0  0
 19 44  1  0  0  0  0
 20 37  1  0  0  0  0
 21 85  1  0  0  0  0
 22 86  1  0  0  0  0
 23 25  2  0  0  0  0
 23 85  1  0  0  0  0
 24 87  1  0  0  0  0
 25 88  1  0  0  0  0
 26 67  2  0  0  0  0
 27 70  1  0  0  0  0
 27 74  1  0  0  0  0
 28 54  1  0  0  0  0
 28 68  2  0  0  0  0
 28 71  1  0  0  0  0
 29 55  1  0  0  0  0
 29 69  2  0  0  0  0
 29 71  1  0  0  0  0
 30 75  1  0  0  0  0
 30 80  2  0  0  0  0
 31 45  1  0  0  0  0
 31 76  1  0  0  0  0
 31 81  2  0  0  0  0
 32 63  1  0  0  0  0
 32 72  1  0  0  0  0
 32 82  2  0  0  0  0
 33 64  1  0  0  0  0
 33 77  1  0  0  0  0
 33 83  2  0  0  0  0
 34 73  1  0  0  0  0
 34 78  1  0  0  0  0
 34 84  2  0  0  0  0
 35 38  1  0  0  0  0
 36 45  1  0  0  0  0
 37 72  1  0  0  0  0
 38 40  1  0  0  0  0
 39 41  1  0  0  0  0
 39 42  1  0  0  0  0
 40 44  1  0  0  0  0
 41 46  1  0  0  0  0
 42 73  1  0  0  0  0
 43 46  1  0  0  0  0
 43 73  1  0  0  0  0
 44 76  1  0  0  0  0
 45 72  1  0  0  0  0
 46 70  1  0  0  0  0
 47 64  1  0  0  0  0
 48 65  1  0  0  0  0
 49 65  1  0  0  0  0
 50 66  1  0  0  0  0
 51 66  1  0  0  0  0
 52 66  1  0  0  0  0
 53 79  1  0  0  0  0
 54 56  1  0  0  0  0
 55 57  1  0  0  0  0
 56 58  1  0  0  0  0
 57 61  1  0  0  0  0
 58 65  1  0  0  0  0
 59 60  1  0  0  0  0
 59 62  1  0  0  0  0
 60 71  1  0  0  0  0
 61 78  1  0  0  0  0
 62 86  1  0  0  0  0
 63 66  1  0  0  0  0
 63 77  1  0  0  0  0
 64 79  1  0  0  0  0
 67 70  1  0  0  0  0
 68 69  1  0  0  0  0
M  CHG  1  79   1
M  ISO  4  34 100  62 101  78 100  86 101
M  END
> <Batch ID>
0081

> <Smiles>
CNC(C)C(=O)NC(C(=O)N1Cc2cc([101O:1][101CH2:1]CCn3c(CCC[100NH:0][100C:0](=O)N4CCCC(n5nc(-c6ccc(Oc7ccc(F)cc7F)cc6)c(C(N)=O)c5N)C4)nnc3CCCC(C)C)ccc2CC1C(=O)NC1CCCc2ccccc21)C(C)(C)C

> <Shape>
0.213

> <Color>
0.080

> <Negative vol penalty>
0.000

$$$$

  -OEChem-04052318463D

 91 99  0     1  0  0  0  0  0999 V2000
  -31.8764  -15.1104   20.2019 C   0  0  0  0  0  0  0  0  0  0  0  0
  -30.8291  -15.9991   19.9812 C   0  0  0  0  0  0  0  0  0  0  0  0
  -28.9434  -26.9600   19.9810 C   0  0  0  0  0  0  0  0  0  0  0  0
  -27.0887  -25.5429   20.6050 C   0  0  0  0  0  0  0  0  0  0  0  0
  -31.6371  -13.7368   20.1931 C   0  0  0  0  0  0  0  0  0  0  0  0
  -29.5420  -15.5148   19.7506 C   0  0  0  0  0  0  0  0  0  0  0  0
  -26.0183  -18.0386   22.3695 C   0  0  0  0  0  0  0  0  0  0  0  0
  -19.2069  -27.1041   21.2304 C   0  0  0  0  0  0  0  0  0  0  0  0
  -29.8180  -25.8850   20.1390 C   0  0  0  0  0  0  0  0  0  0  0  0
  -27.9633  -24.4678   20.7629 C   0  0  0  0  0  0  0  0  0  0  0  0
  -25.6300  -19.2841   21.8778 C   0  0  0  0  0  0  0  0  0  0  0  0
  -29.6591  -21.2593   20.9810 C   0  0  0  0  0  0  0  0  0  0  0  0
  -29.2798  -20.0293   20.4435 C   0  0  0  0  0  0  0  0  0  0  0  0
  -19.0296  -28.2765   21.9565 C   0  0  0  0  0  0  0  0  0  0  0  0
  -23.6617  -18.2811   20.9087 C   0  0  0  0  0  0  0  0  0  0  0  0
  -29.1898  -21.0195   18.2415 C   0  0  0  0  0  0  0  0  0  0  0  0
  -27.5787  -26.7890   20.2141 C   0  0  0  0  0  0  0  0  0  0  0  0
  -25.9926  -28.2755   18.8791 C   0  0  0  0  0  0  0  0  0  0  0  0
  -30.3447  -13.2357   19.9718 C   0  0  0  0  0  0  0  0  0  0  0  0
  -25.2356  -16.9012   22.1247 C   0  0  0  0  0  0  0  0  0  0  0  0
  -29.2855  -14.1332   19.7375 C   0  0  0  0  0  0  0  0  0  0  0  0
  -24.0411  -17.0228   21.4005 C   0  0  0  0  0  0  0  0  0  0  0  0
  -19.8422  -26.0170   21.8202 C   0  0  0  0  0  0  0  0  0  0  0  0
  -29.3280  -24.6389   20.5299 C   0  0  0  0  0  0  0  0  0  0  0  0
  -24.4530  -19.4050   21.1449 C   0  0  0  0  0  0  0  0  0  0  0  0
  -29.8037  -22.3694   20.1488 C   0  0  0  0  0  0  0  0  0  0  0  0
  -29.0452  -19.9094   19.0738 C   0  0  0  0  0  0  0  0  0  0  0  0
  -29.5690  -22.2494   18.7791 C   0  0  0  0  0  0  0  0  0  0  0  0
  -26.6749  -27.8993   20.0516 C   0  0  0  0  0  0  0  0  0  0  0  0
  -19.5020  -28.3107   23.2585 C   0  0  0  0  0  0  0  0  0  0  0  0
  -20.2785  -26.1524   23.1284 C   0  0  0  0  0  0  0  0  0  0  0  0
  -25.2677  -29.3836   19.2442 C   0  0  0  0  0  0  0  0  0  0  0  0
  -26.0124  -27.6769   17.5764 C   0  0  0  0  0  0  0  0  0  0  0  0
  -25.6932  -14.1484   20.6027 C   0  0  0  0  0  0  0  0  0  0  0  0
  -22.7698  -13.4396   21.8165 C   0  0  0  0  0  0  0  0  0  0  0  0
  -19.7844  -14.5664   23.0268 C   0  0  0  0  0  0  0  0  0  0  0  0
  -22.3305  -31.5161   23.7541 C   0  0  0  0  0  0  0  0  0  0  0  0
  -30.1436  -11.7417   19.9247 C   0  0  0  0  0  0  0  0  0  0  0  0
  -25.6547  -15.5696   22.6847 C   0  0  0  0  0  0  0  0  0  0  0  0
  -23.1549  -15.8359   21.1275 C   0  0  0  0  0  0  0  0  0  0  0  0
  -28.6814  -11.3198   20.0448 C   0  0  0  0  0  0  0  0  0  0  0  0
  -25.5766  -32.7011   22.8967 C   0  0  0  0  0  0  0  0  0  0  0  0
  -27.8050  -12.1638   19.1248 C   0  0  0  0  0  0  0  0  0  0  0  0
  -26.1273  -31.6186   21.9667 C   0  0  0  0  0  0  0  0  0  0  0  0
  -24.7227  -32.1047   24.0135 C   0  0  0  0  0  0  0  0  0  0  0  0
  -24.1830  -30.1408   22.6258 C   0  0  0  0  0  0  0  0  0  0  0  0
  -27.8708  -13.6471   19.5083 C   0  0  1  0  0  0  0  0  0  0  0  0
  -25.0447  -14.3881   21.9367 C   0  0  1  0  0  0  0  0  0  0  0  0
  -25.0047  -30.6982   21.4509 C   0  0  2  0  0  0  0  0  0  0  0  0
  -21.0824  -25.2359   25.3193 C   0  0  0  0  0  0  0  0  0  0  0  0
  -17.5798  -13.7494   23.9040 C   0  0  0  0  0  0  0  0  0  0  0  0
  -19.8953  -29.4909   25.5277 C   0  0  0  0  0  0  0  0  0  0  0  0
  -17.8080  -29.8783   24.2437 C   0  0  0  0  0  0  0  0  0  0  0  0
  -21.8914  -12.7643   18.9735 C   0  0  0  0  0  0  0  0  0  0  0  0
  -19.5154  -12.8853   19.7533 C   0  0  0  0  0  0  0  0  0  0  0  0
  -21.0602  -11.1847   20.7251 C   0  0  0  0  0  0  0  0  0  0  0  0
  -25.0523  -22.0563   18.3214 C   0  0  0  0  0  0  0  0  0  0  0  0
  -22.7592  -21.8694   17.3476 C   0  0  0  0  0  0  0  0  0  0  0  0
  -20.2167  -15.8634   25.6516 C   0  0  0  0  0  0  0  0  0  0  0  0
  -20.0376  -24.7496   21.0414 C   0  0  0  0  0  0  0  0  0  0  0  0
  -20.9646  -25.0167   23.8141 C   0  0  0  0  0  0  0  0  0  0  0  0
  -23.1533  -23.1952   19.4851 C   0  0  0  0  0  0  0  0  0  0  0  0
  -19.9795  -30.8101   23.3888 C   0  0  0  0  0  0  0  0  0  0  0  0
  -21.6772  -23.2810   19.8610 C   0  0  0  0  0  0  0  0  0  0  0  0
  -23.3157  -20.6300   19.4532 C   0  0  0  0  0  0  0  0  0  1  0  0
  -21.3458  -13.6183   21.3482 C   0  0  1  0  0  0  0  0  0  0  0  0
  -18.9912  -14.1866   24.2641 C   0  0  2  0  0  0  0  0  0  0  0  0
  -19.3270  -29.5526   24.0674 C   0  0  0  0  0  0  0  0  0  0  0  0
  -20.9707  -12.6354   20.2033 C   0  0  0  0  0  0  0  0  0  0  0  0
  -23.5521  -21.9364   18.6651 C   0  0  0  0  0  0  0  0  0  0  0  0
  -26.4074  -28.7031   21.0843 N   0  0  0  0  0  0  0  0  0  0  0  0
  -20.1241  -27.2752   23.8654 N   0  0  0  0  0  0  0  0  0  0  0  0
  -25.5491  -29.5956   20.5618 N   0  0  0  0  0  0  0  0  0  0  0  0
  -23.6108  -14.5543   21.6907 N   0  0  0  0  0  0  0  0  0  0  0  0
  -23.6761  -31.2437   23.4574 N   0  0  0  0  0  0  0  0  0  0  0  0
  -24.4235  -30.1875   18.5635 N   0  0  0  0  0  0  0  0  0  0  0  0
  -26.8114  -26.5434   17.3740 N   0  0  0  0  0  0  0  0  0  0  0  0
  -27.0516  -13.9048   20.6732 N   0  0  0  0  0  0  0  0  0  0  0  0
  -20.5074  -13.4997   22.5362 N   0  0  0  0  0  0  0  0  0  0  0  0
  -21.4021  -30.6553   23.1816 N   0  0  0  0  0  0  0  0  0  0  0  0
  -18.9007  -15.3451   25.1972 N   0  3  0  0  0  0  0  0  0  0  0  0
  -21.4401  -24.5564   20.5849 N   0  3  0  0  0  0  0  0  0  0  0  0
  -25.3540  -28.1435   16.6160 O   0  0  0  0  0  0  0  0  0  0  0  0
  -25.0114  -14.1805   19.5850 O   0  0  0  0  0  0  0  0  0  0  0  0
  -23.1209  -12.3532   22.2835 O   0  0  0  0  0  0  0  0  0  0  0  0
  -19.7617  -15.6954   22.5416 O   0  0  0  0  0  0  0  0  0  0  0  0
  -21.9820  -32.4599   24.4715 O   0  0  0  0  0  0  0  0  0  0  0  0
  -30.1811  -23.5896   20.6839 O   0  0  0  0  0  0  0  0  0  0  0  0
  -24.0719  -20.6194   20.6633 O   0  0  0  0  0  0  0  0  0  1  0  0
  -28.6824  -18.7279   18.5575 F   0  0  0  0  0  0  0  0  0  0  0  0
  -29.7075  -23.3121   17.9744 F   0  0  0  0  0  0  0  0  0  0  0  0
  1  2  1  0  0  0  0
  1  5  2  0  0  0  0
  2  6  2  0  0  0  0
  3  9  2  0  0  0  0
  3 17  1  0  0  0  0
  4 10  1  0  0  0  0
  4 17  2  0  0  0  0
  5 19  1  0  0  0  0
  6 21  1  0  0  0  0
  7 11  2  0  0  0  0
  7 20  1  0  0  0  0
  8 14  2  0  0  0  0
  8 23  1  0  0  0  0
  9 24  1  0  0  0  0
 10 24  2  0  0  0  0
 11 25  1  0  0  0  0
 12 13  2  0  0  0  0
 12 26  1  0  0  0  0
 13 27  1  0  0  0  0
 14 30  1  0  0  0  0
 15 22  1  0  0  0  0
 15 25  2  0  0  0  0
 16 27  2  0  0  0  0
 16 28  1  0  0  0  0
 17 29  1  0  0  0  0
 18 29  1  0  0  0  0
 18 32  2  0  0  0  0
 18 33  1  0  0  0  0
 19 21  2  0  0  0  0
 19 38  1  0  0  0  0
 20 22  2  0  0  0  0
 20 39  1  0  0  0  0
 21 47  1  0  0  0  0
 22 40  1  0  0  0  0
 23 31  2  0  0  0  0
 23 60  1  0  0  0  0
 24 88  1  0  0  0  0
 25 89  1  0  0  0  0
 26 28  2  0  0  0  0
 26 88  1  0  0  0  0
 27 90  1  0  0  0  0
 28 91  1  0  0  0  0
 29 71  2  0  0  0  0
 30 68  1  0  0  0  0
 30 72  2  0  0  0  0
 31 61  1  0  0  0  0
 31 72  1  0  0  0  0
 32 73  1  0  0  0  0
 32 76  1  0  0  0  0
 33 77  1  0  0  0  0
 33 83  2  0  0  0  0
 34 48  1  0  0  0  0
 34 78  1  0  0  0  0
 34 84  2  0  0  0  0
 35 66  1  0  0  0  0
 35 74  1  0  0  0  0
 35 85  2  0  0  0  0
 36 67  1  0  0  0  0
 36 79  1  0  0  0  0
 36 86  2  0  0  0  0
 37 75  1  0  0  0  0
 37 80  1  0  0  0  0
 37 87  2  0  0  0  0
 38 41  1  0  0  0  0
 39 48  1  0  0  0  0
 40 74  1  0  0  0  0
 41 43  1  0  0  0  0
 42 44  1  0  0  0  0
 42 45  1  0  0  0  0
 43 47  1  0  0  0  0
 44 49  1  0  0  0  0
 45 75  1  0  0  0  0
 46 49  1  0  0  0  0
 46 75  1  0  0  0  0
 47 78  1  0  0  0  0
 48 74  1  0  0  0  0
 49 73  1  0  0  0  0
 50 61  1  0  0  0  0
 51 67  1  0  0  0  0
 52 68  1  0  0  0  0
 53 68  1  0  0  0  0
 54 69  1  0  0  0  0
 55 69  1  0  0  0  0
 56 69  1  0  0  0  0
 57 70  1  0  0  0  0
 58 70  1  0  0  0  0
 59 81  1  0  0  0  0
 60 82  1  0  0  0  0
 62 64  1  0  0  0  0
 62 70  1  0  0  0  0
 63 68  1  0  0  0  0
 63 80  1  0  0  0  0
 64 82  1  0  0  0  0
 65 70  1  0  0  0  0
 65 89  1  0  0  0  0
 66 69  1  0  0  0  0
 66 79  1  0  0  0  0
 67 81  1  0  0  0  0
 71 73  1  0  0  0  0
M  CHG  2  81   1  82   1
M  ISO  4  37 100  65 101  80 100  89 101
M  END
> <Batch ID>
0081

> <Smiles>
CCc1nc(C(C)(C)C[100NH:0][100C:0](=O)N2CCCC(n3nc(-c4ccc(Oc5ccc(F)cc5F)cc4)c(C(N)=O)c3N)C2)ccc1CNCCC(C)(C)[101CH2:1][101O:1]c1ccc2c(c1)CN(C(=O)C(NC(=O)C(C)NC)C(C)(C)C)C(C(=O)NC1CCCc3ccccc31)C2

> <Shape>
0.296

> <Color>
0.050

> <Negative vol penalty>
0.000

$$$$

  -OEChem-04052318463D

 83 91  0     1  0  0  0  0  0999 V2000
  -27.8916  -36.0403   20.4493 C   0  0  0  0  0  0  0  0  0  0  0  0
  -28.2120  -34.6890   20.5327 C   0  0  0  0  0  0  0  0  0  0  0  0
  -25.1189  -13.8549   19.4578 C   0  0  0  0  0  0  0  0  0  0  0  0
  -26.0905  -14.4755   21.5810 C   0  0  0  0  0  0  0  0  0  0  0  0
  -26.8379  -36.5535   21.2045 C   0  0  0  0  0  0  0  0  0  0  0  0
  -27.4795  -33.8504   21.3721 C   0  0  0  0  0  0  0  0  0  0  0  0
  -26.2648  -29.4622   19.1556 C   0  0  0  0  0  0  0  0  0  0  0  0
  -25.0752  -12.5222   19.8673 C   0  0  0  0  0  0  0  0  0  0  0  0
  -26.0468  -13.1428   21.9905 C   0  0  0  0  0  0  0  0  0  0  0  0
  -27.2639  -28.4934   19.0714 C   0  0  0  0  0  0  0  0  0  0  0  0
  -24.3744   -9.0100   20.4907 C   0  0  0  0  0  0  0  0  0  0  0  0
  -23.2045   -8.2928   20.2407 C   0  0  0  0  0  0  0  0  0  0  0  0
  -26.3210  -27.3637   20.9829 C   0  0  0  0  0  0  0  0  0  0  0  0
  -21.9541   -9.8645   21.5836 C   0  0  0  0  0  0  0  0  0  0  0  0
  -25.6266  -14.8315   20.3146 C   0  0  0  0  0  0  0  0  0  0  0  0
  -24.6727  -17.1842   20.0644 C   0  0  0  0  0  0  0  0  0  0  0  0
  -26.0860  -35.7189   22.0463 C   0  0  0  0  0  0  0  0  0  0  0  0
  -25.2911  -29.3949   20.1624 C   0  0  0  0  0  0  0  0  0  0  0  0
  -26.4156  -34.3533   22.1403 C   0  0  0  0  0  0  0  0  0  0  0  0
  -25.3091  -28.3315   21.0761 C   0  0  0  0  0  0  0  0  0  0  0  0
  -28.0443  -22.2307   22.5060 C   0  0  0  0  0  0  0  0  0  0  0  0
  -25.5391  -12.1662   21.1337 C   0  0  0  0  0  0  0  0  0  0  0  0
  -27.2938  -27.4455   19.9869 C   0  0  0  0  0  0  0  0  0  0  0  0
  -24.3342  -10.1545   21.2871 C   0  0  0  0  0  0  0  0  0  0  0  0
  -21.9943   -8.7201   20.7872 C   0  0  0  0  0  0  0  0  0  0  0  0
  -23.1241  -10.5817   21.8336 C   0  0  0  0  0  0  0  0  0  0  0  0
  -25.6725  -16.2082   19.8920 C   0  0  0  0  0  0  0  0  0  0  0  0
  -28.9537  -21.9398   23.5405 C   0  0  0  0  0  0  0  0  0  0  0  0
  -28.8318  -22.3963   21.3930 C   0  0  0  0  0  0  0  0  0  0  0  0
  -25.1976  -18.3180   19.4938 C   0  0  0  0  0  0  0  0  0  0  0  0
  -23.3848  -17.0757   20.6849 C   0  0  0  0  0  0  0  0  0  0  0  0
  -24.4445  -31.2609   22.5925 C   0  0  0  0  0  0  0  0  0  0  0  0
  -22.0379  -29.1077   22.8996 C   0  0  0  0  0  0  0  0  0  0  0  0
  -20.8915  -25.9435   22.3331 C   0  0  0  0  0  0  0  0  0  0  0  0
  -30.8073  -20.1575   18.4944 C   0  0  0  0  0  0  0  0  0  0  0  0
  -24.9862  -36.3286   22.8791 C   0  0  0  0  0  0  0  0  0  0  0  0
  -24.2044  -30.4331   20.2233 C   0  0  0  0  0  0  0  0  0  0  0  0
  -24.2749  -28.2025   22.1634 C   0  0  0  0  0  0  0  0  0  0  0  0
  -24.0204  -35.2993   23.4603 C   0  0  0  0  0  0  0  0  0  0  0  0
  -28.2318  -19.7282   16.0738 C   0  0  0  0  0  0  0  0  0  0  0  0
  -24.7887  -34.1348   24.0771 C   0  0  0  0  0  0  0  0  0  0  0  0
  -27.1936  -18.8655   16.7934 C   0  0  0  0  0  0  0  0  0  0  0  0
  -29.6564  -19.3368   16.4601 C   0  0  0  0  0  0  0  0  0  0  0  0
  -28.8849  -18.4598   18.6302 C   0  0  0  0  0  0  0  0  0  0  0  0
  -25.6287  -33.4068   23.0207 C   0  0  1  0  0  0  0  0  0  0  0  0
  -23.5653  -30.5489   21.6037 C   0  0  1  0  0  0  0  0  0  0  0  0
  -27.4317  -18.8542   18.3154 C   0  0  2  0  0  0  0  0  0  0  0  0
  -26.5775  -22.3355   22.5938 C   0  0  0  0  0  0  0  0  0  0  0  0
  -28.6541  -21.6703   24.9578 C   0  0  0  0  0  0  0  0  0  0  0  0
  -18.9014  -24.4682   22.7334 C   0  0  0  0  0  0  0  0  0  0  0  0
  -22.8681  -28.7836   25.8177 C   0  0  0  0  0  0  0  0  0  0  0  0
  -21.5205  -26.6750   25.8944 C   0  0  0  0  0  0  0  0  0  0  0  0
  -20.3973  -28.8550   25.4379 C   0  0  0  0  0  0  0  0  0  0  0  0
  -20.4404  -25.5683   19.4323 C   0  0  0  0  0  0  0  0  0  0  0  0
  -28.4796  -22.7239   19.9639 C   0  0  0  0  0  0  0  0  0  0  0  0
  -28.7677  -24.1758   19.5759 C   0  0  0  0  0  0  0  0  0  0  0  0
  -31.3117  -22.2707   21.0058 C   0  0  0  0  0  0  0  0  0  0  0  0
  -31.8518  -20.8958   20.6212 C   0  0  0  0  0  0  0  0  0  0  0  0
  -27.9367  -25.1862   20.3582 C   0  0  0  0  0  0  0  0  0  1  0  0
  -21.8519  -27.8123   23.6521 C   0  0  1  0  0  0  0  0  0  0  0  0
  -19.5762  -25.4341   21.7720 C   0  0  2  0  0  0  0  0  0  0  0  0
  -21.6802  -28.0347   25.1814 C   0  0  0  0  0  0  0  0  0  0  0  0
  -26.7509  -16.6806   19.2610 N   0  0  0  0  0  0  0  0  0  0  0  0
  -30.2219  -21.9208   23.1219 N   0  0  0  0  0  0  0  0  0  0  0  0
  -30.1151  -22.2018   21.8121 N   0  0  0  0  0  0  0  0  0  0  0  0
  -26.4317  -17.9658   19.0319 N   0  0  0  0  0  0  0  0  0  0  0  0
  -23.2365  -29.2459   22.1854 N   0  0  0  0  0  0  0  0  0  0  0  0
  -29.8163  -19.3472   17.9162 N   0  0  0  0  0  0  0  0  0  0  0  0
  -24.7193  -19.5718   19.3469 N   0  0  0  0  0  0  0  0  0  0  0  0
  -23.0033  -15.8380   21.2205 N   0  0  0  0  0  0  0  0  0  0  0  0
  -24.7909  -32.5443   22.2153 N   0  0  0  0  0  0  0  0  0  0  0  0
  -20.7295  -27.1293   23.0180 N   0  0  0  0  0  0  0  0  0  0  0  0
  -30.8872  -20.1132   19.8809 N   0  0  0  0  0  0  0  0  0  0  0  0
  -19.8032  -24.7285   20.4791 N   0  3  0  0  0  0  0  0  0  0  0  0
  -22.5890  -18.0433   20.7477 O   0  0  0  0  0  0  0  0  0  0  0  0
  -24.7823  -30.6887   23.6222 O   0  0  0  0  0  0  0  0  0  0  0  0
  -21.1492  -29.9623   22.9380 O   0  0  0  0  0  0  0  0  0  0  0  0
  -21.9555  -25.3472   22.1824 O   0  0  0  0  0  0  0  0  0  0  0  0
  -31.5612  -20.8719   17.8249 O   0  0  0  0  0  0  0  0  0  0  0  0
  -25.4964  -10.8659   21.5337 O   0  0  0  0  0  0  0  0  0  0  0  0
  -28.2682  -26.4989   19.9075 O   0  0  0  0  0  0  0  0  0  1  0  0
  -20.8707   -8.0321   20.5459 F   0  0  0  0  0  0  0  0  0  0  0  0
  -23.0790  -11.6811   22.5986 F   0  0  0  0  0  0  0  0  0  0  0  0
  1  2  1  0  0  0  0
  1  5  2  0  0  0  0
  2  6  2  0  0  0  0
  3  8  2  0  0  0  0
  3 15  1  0  0  0  0
  4  9  1  0  0  0  0
  4 15  2  0  0  0  0
  5 17  1  0  0  0  0
  6 19  1  0  0  0  0
  7 10  2  0  0  0  0
  7 18  1  0  0  0  0
  8 22  1  0  0  0  0
  9 22  2  0  0  0  0
 10 23  1  0  0  0  0
 11 12  2  0  0  0  0
 11 24  1  0  0  0  0
 12 25  1  0  0  0  0
 13 20  1  0  0  0  0
 13 23  2  0  0  0  0
 14 25  2  0  0  0  0
 14 26  1  0  0  0  0
 15 27  1  0  0  0  0
 16 27  1  0  0  0  0
 16 30  2  0  0  0  0
 16 31  1  0  0  0  0
 17 19  2  0  0  0  0
 17 36  1  0  0  0  0
 18 20  2  0  0  0  0
 18 37  1  0  0  0  0
 19 45  1  0  0  0  0
 20 38  1  0  0  0  0
 21 28  1  0  0  0  0
 21 29  2  0  0  0  0
 21 48  1  0  0  0  0
 22 80  1  0  0  0  0
 23 81  1  0  0  0  0
 24 26  2  0  0  0  0
 24 80  1  0  0  0  0
 25 82  1  0  0  0  0
 26 83  1  0  0  0  0
 27 63  2  0  0  0  0
 28 49  1  0  0  0  0
 28 64  2  0  0  0  0
 29 55  1  0  0  0  0
 29 65  1  0  0  0  0
 30 66  1  0  0  0  0
 30 69  1  0  0  0  0
 31 70  1  0  0  0  0
 31 75  2  0  0  0  0
 32 46  1  0  0  0  0
 32 71  1  0  0  0  0
 32 76  2  0  0  0  0
 33 60  1  0  0  0  0
 33 67  1  0  0  0  0
 33 77  2  0  0  0  0
 34 61  1  0  0  0  0
 34 72  1  0  0  0  0
 34 78  2  0  0  0  0
 35 68  1  0  0  0  0
 35 73  1  0  0  0  0
 35 79  2  0  0  0  0
 36 39  1  0  0  0  0
 37 46  1  0  0  0  0
 38 67  1  0  0  0  0
 39 41  1  0  0  0  0
 40 42  1  0  0  0  0
 40 43  1  0  0  0  0
 41 45  1  0  0  0  0
 42 47  1  0  0  0  0
 43 68  1  0  0  0  0
 44 47  1  0  0  0  0
 44 68  1  0  0  0  0
 45 71  1  0  0  0  0
 46 67  1  0  0  0  0
 47 66  1  0  0  0  0
 50 61  1  0  0  0  0
 51 62  1  0  0  0  0
 52 62  1  0  0  0  0
 53 62  1  0  0  0  0
 54 74  1  0  0  0  0
 55 56  1  0  0  0  0
 56 59  1  0  0  0  0
 57 58  1  0  0  0  0
 57 65  1  0  0  0  0
 58 73  1  0  0  0  0
 59 81  1  0  0  0  0
 60 62  1  0  0  0  0
 60 72  1  0  0  0  0
 61 74  1  0  0  0  0
 63 66  1  0  0  0  0
 64 65  1  0  0  0  0
M  CHG  1  74   1
M  ISO  4  35 100  59 101  73 100  81 101
M  END
> <Batch ID>
0081

> <Smiles>
CNC(C)C(=O)NC(C(=O)N1Cc2cc([101O:1][101CH2:1]CCc3c(C)c(C)nn3CC[100NH:0][100C:0](=O)N3CCCC(n4nc(-c5ccc(Oc6ccc(F)cc6F)cc5)c(C(N)=O)c4N)C3)ccc2CC1C(=O)NC1CCCc2ccccc21)C(C)(C)C

> <Shape>
0.253

> <Color>
0.075

> <Negative vol penalty>
0.000

$$$$

  -OEChem-04052318463D

 82 90  0     1  0  0  0  0  0999 V2000
  -28.7074  -10.9592   19.9202 C   0  0  0  0  0  0  0  0  0  0  0  0
  -29.1688  -12.2344   19.6097 C   0  0  0  0  0  0  0  0  0  0  0  0
  -23.7814  -30.0128   22.7034 C   0  0  0  0  0  0  0  0  0  0  0  0
  -22.5946  -28.0188   22.0306 C   0  0  0  0  0  0  0  0  0  0  0  0
  -27.3578  -10.7582   20.2069 C   0  0  0  0  0  0  0  0  0  0  0  0
  -28.2807  -13.3091   19.5847 C   0  0  0  0  0  0  0  0  0  0  0  0
  -29.4578  -19.0960   21.2074 C   0  0  0  0  0  0  0  0  0  0  0  0
  -22.7114  -30.3734   23.5222 C   0  0  0  0  0  0  0  0  0  0  0  0
  -21.5245  -28.3794   22.8495 C   0  0  0  0  0  0  0  0  0  0  0  0
  -29.7752  -20.2323   20.4646 C   0  0  0  0  0  0  0  0  0  0  0  0
  -18.9083  -30.5178   22.7326 C   0  0  0  0  0  0  0  0  0  0  0  0
  -17.6220  -30.4046   22.2053 C   0  0  0  0  0  0  0  0  0  0  0  0
  -27.4542  -20.8892   20.4891 C   0  0  0  0  0  0  0  0  0  0  0  0
  -30.1622  -23.7594   16.9377 C   0  0  0  0  0  0  0  0  0  0  0  0
  -17.0416  -28.8444   23.9562 C   0  0  0  0  0  0  0  0  0  0  0  0
  -31.2516  -25.9041   18.2258 C   0  0  0  0  0  0  0  0  0  0  0  0
  -23.7230  -28.8354   21.9576 C   0  0  0  0  0  0  0  0  0  0  0  0
  -25.9430  -27.6794   21.4645 C   0  0  0  0  0  0  0  0  0  0  0  0
  -26.4545  -11.8326   20.1949 C   0  0  0  0  0  0  0  0  0  0  0  0
  -28.1323  -18.8416   21.5879 C   0  0  0  0  0  0  0  0  0  0  0  0
  -26.9176  -13.1220   19.8703 C   0  0  0  0  0  0  0  0  0  0  0  0
  -27.1230  -19.7503   21.2388 C   0  0  0  0  0  0  0  0  0  0  0  0
  -30.3040  -24.9637   16.2575 C   0  0  0  0  0  0  0  0  0  0  0  0
  -30.8581  -26.0614   16.9066 C   0  0  0  0  0  0  0  0  0  0  0  0
  -21.5829  -29.5568   23.5953 C   0  0  0  0  0  0  0  0  0  0  0  0
  -28.7729  -21.1277   20.1029 C   0  0  0  0  0  0  0  0  0  0  0  0
  -19.2614  -29.7942   23.8716 C   0  0  0  0  0  0  0  0  0  0  0  0
  -16.6886  -29.5679   22.8171 C   0  0  0  0  0  0  0  0  0  0  0  0
  -18.3280  -28.9575   24.4835 C   0  0  0  0  0  0  0  0  0  0  0  0
  -24.8279  -28.4626   21.1111 C   0  0  0  0  0  0  0  0  0  0  0  0
  -30.5871  -23.7051   18.2555 C   0  0  0  0  0  0  0  0  0  0  0  0
  -26.6961  -27.6171   20.3176 C   0  0  0  0  0  0  0  0  0  0  0  0
  -26.2689  -27.0633   22.7175 C   0  0  0  0  0  0  0  0  0  0  0  0
  -26.0341  -16.5277   20.9989 C   0  0  0  0  0  0  0  0  0  0  0  0
  -24.2351  -18.1416   23.1625 C   0  0  0  0  0  0  0  0  0  0  0  0
  -23.5475  -21.0921   24.7335 C   0  0  0  0  0  0  0  0  0  0  0  0
  -27.1039  -26.9278   14.7946 C   0  0  0  0  0  0  0  0  0  0  0  0
  -24.9963  -11.5582   20.4653 C   0  0  0  0  0  0  0  0  0  0  0  0
  -27.8104  -17.6251   22.4118 C   0  0  0  0  0  0  0  0  0  0  0  0
  -25.6875  -19.5336   21.6399 C   0  0  0  0  0  0  0  0  0  0  0  0
  -24.1891  -12.8139   20.7842 C   0  0  0  0  0  0  0  0  0  0  0  0
  -26.3070  -30.1893   15.9796 C   0  0  0  0  0  0  0  0  0  0  0  0
  -24.5096  -13.9223   19.7864 C   0  0  0  0  0  0  0  0  0  0  0  0
  -25.9373  -29.9652   17.4469 C   0  0  0  0  0  0  0  0  0  0  0  0
  -25.8374  -29.0352   15.0966 C   0  0  0  0  0  0  0  0  0  0  0  0
  -25.9121  -27.4750   17.0029 C   0  0  0  0  0  0  0  0  0  0  0  0
  -25.9896  -14.3174   19.8572 C   0  0  1  0  0  0  0  0  0  0  0  0
  -26.3490  -17.2006   22.3049 C   0  0  1  0  0  0  0  0  0  0  0  0
  -26.4141  -28.5861   17.9409 C   0  0  2  0  0  0  0  0  0  0  0  0
  -31.0323  -27.3744   16.2257 C   0  0  0  0  0  0  0  0  0  0  0  0
  -30.6618  -24.1130   13.9182 C   0  0  0  0  0  0  0  0  0  0  0  0
  -21.9968  -22.1089   26.4244 C   0  0  0  0  0  0  0  0  0  0  0  0
  -22.0044  -18.1945   21.0814 C   0  0  0  0  0  0  0  0  0  0  0  0
  -20.8898  -19.9902   22.4235 C   0  0  0  0  0  0  0  0  0  0  0  0
  -21.2412  -17.7293   23.4171 C   0  0  0  0  0  0  0  0  0  0  0  0
  -25.7861  -21.7862   26.5407 C   0  0  0  0  0  0  0  0  0  0  0  0
  -30.4492  -22.4219   19.0208 C   0  0  0  0  0  0  0  0  0  1  0  0
  -28.3443  -24.7832   14.6494 C   0  0  0  0  0  0  0  0  0  0  0  0
  -29.8563  -25.0550   14.8363 C   0  0  1  0  0  0  0  0  0  0  0  0
  -23.2255  -19.2616   23.0904 C   0  0  1  0  0  0  0  0  0  0  0  0
  -23.3379  -21.4281   26.1990 C   0  0  2  0  0  0  0  0  0  0  0  0
  -21.8669  -18.7973   22.4937 C   0  0  0  0  0  0  0  0  0  0  0  0
  -31.1299  -24.7501   18.9194 N   0  0  0  0  0  0  0  0  0  0  0  0
  -24.8653  -28.8689   19.8393 N   0  0  0  0  0  0  0  0  0  0  0  0
  -26.0131  -28.3389   19.3835 N   0  0  0  0  0  0  0  0  0  0  0  0
  -25.4221  -18.3262   22.4396 N   0  0  0  0  0  0  0  0  0  0  0  0
  -26.3246  -27.7563   15.6189 N   0  0  0  0  0  0  0  0  0  0  0  0
  -27.8694  -27.0159   20.0272 N   0  0  0  0  0  0  0  0  0  0  0  0
  -25.3850  -27.2275   23.7927 N   0  0  0  0  0  0  0  0  0  0  0  0
  -26.2332  -15.1603   21.0082 N   0  0  0  0  0  0  0  0  0  0  0  0
  -23.1293  -19.8118   24.4382 N   0  0  0  0  0  0  0  0  0  0  0  0
  -27.5301  -25.7368   15.3695 N   0  0  0  0  0  0  0  0  0  0  0  0
  -24.4144  -22.3392   26.6807 N   0  3  0  0  0  0  0  0  0  0  0  0
  -27.3211  -26.4008   22.8834 O   0  0  0  0  0  0  0  0  0  0  0  0
  -25.6383  -17.1991   20.0533 O   0  0  0  0  0  0  0  0  0  0  0  0
  -23.9829  -17.1428   23.8412 O   0  0  0  0  0  0  0  0  0  0  0  0
  -24.0302  -21.8873   23.9303 O   0  0  0  0  0  0  0  0  0  0  0  0
  -27.4025  -27.2298   13.6342 O   0  0  0  0  0  0  0  0  0  0  0  0
  -20.5387  -29.9083   24.3944 O   0  0  0  0  0  0  0  0  0  0  0  0
  -29.0799  -22.2373   19.3774 O   0  0  0  0  0  0  0  0  0  1  0  0
  -15.4528  -29.4605   22.3116 F   0  0  0  0  0  0  0  0  0  0  0  0
  -18.6610  -28.2608   25.5787 F   0  0  0  0  0  0  0  0  0  0  0  0
  1  2  1  0  0  0  0
  1  5  2  0  0  0  0
  2  6  2  0  0  0  0
  3  8  2  0  0  0  0
  3 17  1  0  0  0  0
  4  9  1  0  0  0  0
  4 17  2  0  0  0  0
  5 19  1  0  0  0  0
  6 21  1  0  0  0  0
  7 10  2  0  0  0  0
  7 20  1  0  0  0  0
  8 25  1  0  0  0  0
  9 25  2  0  0  0  0
 10 26  1  0  0  0  0
 11 12  2  0  0  0  0
 11 27  1  0  0  0  0
 12 28  1  0  0  0  0
 13 22  1  0  0  0  0
 13 26  2  0  0  0  0
 14 23  2  0  0  0  0
 14 31  1  0  0  0  0
 15 28  2  0  0  0  0
 15 29  1  0  0  0  0
 16 24  2  0  0  0  0
 16 63  1  0  0  0  0
 17 30  1  0  0  0  0
 18 30  1  0  0  0  0
 18 32  2  0  0  0  0
 18 33  1  0  0  0  0
 19 21  2  0  0  0  0
 19 38  1  0  0  0  0
 20 22  2  0  0  0  0
 20 39  1  0  0  0  0
 21 47  1  0  0  0  0
 22 40  1  0  0  0  0
 23 24  1  0  0  0  0
 23 59  1  0  0  0  0
 24 50  1  0  0  0  0
 25 79  1  0  0  0  0
 26 80  1  0  0  0  0
 27 29  2  0  0  0  0
 27 79  1  0  0  0  0
 28 81  1  0  0  0  0
 29 82  1  0  0  0  0
 30 64  2  0  0  0  0
 31 57  1  0  0  0  0
 31 63  2  0  0  0  0
 32 65  1  0  0  0  0
 32 68  1  0  0  0  0
 33 69  1  0  0  0  0
 33 74  2  0  0  0  0
 34 48  1  0  0  0  0
 34 70  1  0  0  0  0
 34 75  2  0  0  0  0
 35 60  1  0  0  0  0
 35 66  1  0  0  0  0
 35 76  2  0  0  0  0
 36 61  1  0  0  0  0
 36 71  1  0  0  0  0
 36 77  2  0  0  0  0
 37 67  1  0  0  0  0
 37 72  1  0  0  0  0
 37 78  2  0  0  0  0
 38 41  1  0  0  0  0
 39 48  1  0  0  0  0
 40 66  1  0  0  0  0
 41 43  1  0  0  0  0
 42 44  1  0  0  0  0
 42 45  1  0  0  0  0
 43 47  1  0  0  0  0
 44 49  1  0  0  0  0
 45 67  1  0  0  0  0
 46 49  1  0  0  0  0
 46 67  1  0  0  0  0
 47 70  1  0  0  0  0
 48 66  1  0  0  0  0
 49 65  1  0  0  0  0
 51 59  1  0  0  0  0
 52 61  1  0  0  0  0
 53 62  1  0  0  0  0
 54 62  1  0  0  0  0
 55 62  1  0  0  0  0
 56 73  1  0  0  0  0
 57 80  1  0  0  0  0
 58 59  1  0  0  0  0
 58 72  1  0  0  0  0
 60 62  1  0  0  0  0
 60 71  1  0  0  0  0
 61 73  1  0  0  0  0
 64 65  1  0  0  0  0
M  CHG  1  73   1
M  ISO  4  37 100  57 101  72 100  80 101
M  END
> <Batch ID>
0081

> <Smiles>
CNC(C)C(=O)NC(C(=O)N1Cc2cc([101O:1][101CH2:1]c3cc(C(C)C[100NH:0][100C:0](=O)N4CCCC(n5nc(-c6ccc(Oc7ccc(F)cc7F)cc6)c(C(N)=O)c5N)C4)c(C)cn3)ccc2CC1C(=O)NC1CCCc2ccccc21)C(C)(C)C

> <Shape>
0.212

> <Color>
0.087

> <Negative vol penalty>
0.000

$$$$

  -OEChem-04052318463D

 88 96  0     1  0  0  0  0  0999 V2000
  -18.1791  -22.6370   24.1777 C   0  0  0  0  0  0  0  0  0  0  0  0
  -19.5491  -22.4266   24.0576 C   0  0  0  0  0  0  0  0  0  0  0  0
  -25.3205  -12.7447   22.0102 C   0  0  0  0  0  0  0  0  0  0  0  0
  -25.7233  -13.2822   19.6895 C   0  0  0  0  0  0  0  0  0  0  0  0
  -17.5695  -23.6727   23.4709 C   0  0  0  0  0  0  0  0  0  0  0  0
  -20.3100  -23.2512   23.2296 C   0  0  0  0  0  0  0  0  0  0  0  0
  -26.8492  -26.1281   22.7020 C   0  0  0  0  0  0  0  0  0  0  0  0
  -25.0840  -11.4151   21.6612 C   0  0  0  0  0  0  0  0  0  0  0  0
  -25.4869  -11.9526   19.3404 C   0  0  0  0  0  0  0  0  0  0  0  0
  -27.9068  -26.2409   21.8005 C   0  0  0  0  0  0  0  0  0  0  0  0
  -22.5594   -9.5990   20.3374 C   0  0  0  0  0  0  0  0  0  0  0  0
  -21.4548   -8.9666   20.9079 C   0  0  0  0  0  0  0  0  0  0  0  0
  -26.7588  -28.0482   20.6892 C   0  0  0  0  0  0  0  0  0  0  0  0
  -30.8565  -22.5218   18.1092 C   0  0  0  0  0  0  0  0  0  0  0  0
  -28.7283  -21.4052   18.0175 C   0  0  0  0  0  0  0  0  0  0  0  0
  -22.9136   -7.3206   21.9077 C   0  0  0  0  0  0  0  0  0  0  0  0
  -25.6401  -13.6783   21.0243 C   0  0  0  0  0  0  0  0  0  0  0  0
  -27.1177  -15.6334   21.7328 C   0  0  0  0  0  0  0  0  0  0  0  0
  -18.3249  -24.5164   22.6413 C   0  0  0  0  0  0  0  0  0  0  0  0
  -25.7317  -26.9687   22.5970 C   0  0  0  0  0  0  0  0  0  0  0  0
  -19.7096  -24.2983   22.5099 C   0  0  0  0  0  0  0  0  0  0  0  0
  -25.6896  -27.9458   21.5922 C   0  0  0  0  0  0  0  0  0  0  0  0
  -30.1070  -21.3535   18.1901 C   0  0  0  0  0  0  0  0  0  0  0  0
  -25.1672  -11.0190   20.3263 C   0  0  0  0  0  0  0  0  0  0  0  0
  -27.8604  -27.1991   20.7922 C   0  0  0  0  0  0  0  0  0  0  0  0
  -23.8411   -9.0922   20.5519 C   0  0  0  0  0  0  0  0  0  0  0  0
  -21.6319   -7.8274   21.6931 C   0  0  0  0  0  0  0  0  0  0  0  0
  -24.0182   -7.9530   21.3371 C   0  0  0  0  0  0  0  0  0  0  0  0
  -25.8839  -15.0521   21.3841 C   0  0  0  0  0  0  0  0  0  0  0  0
  -30.1849  -23.7069   17.8558 C   0  0  0  0  0  0  0  0  0  0  0  0
  -28.1519  -22.6404   17.7683 C   0  0  0  0  0  0  0  0  0  0  0  0
  -26.8180  -16.9499   21.9848 C   0  0  0  0  0  0  0  0  0  0  0  0
  -28.4185  -15.0368   21.8208 C   0  0  0  0  0  0  0  0  0  0  0  0
  -22.6291  -26.5203   22.0715 C   0  0  0  0  0  0  0  0  0  0  0  0
  -22.4666  -29.7060   22.6611 C   0  0  0  0  0  0  0  0  0  0  0  0
  -24.0542  -32.7264   22.7184 C   0  0  0  0  0  0  0  0  0  0  0  0
  -24.1901  -21.6863   20.6409 C   0  0  0  0  0  0  0  0  0  0  0  0
  -17.6138  -25.5930   21.8604 C   0  0  0  0  0  0  0  0  0  0  0  0
  -24.6112  -26.8521   23.5936 C   0  0  0  0  0  0  0  0  0  0  0  0
  -24.5217  -28.8860   21.4488 C   0  0  0  0  0  0  0  0  0  0  0  0
  -18.5522  -26.6562   21.2953 C   0  0  0  0  0  0  0  0  0  0  0  0
  -22.3524  -19.2693   22.5004 C   0  0  0  0  0  0  0  0  0  0  0  0
  -19.7593  -26.0033   20.6295 C   0  0  0  0  0  0  0  0  0  0  0  0
  -23.2058  -18.0038   22.3991 C   0  0  0  0  0  0  0  0  0  0  0  0
  -22.3907  -20.0807   21.2073 C   0  0  0  0  0  0  0  0  0  0  0  0
  -24.5974  -19.1505   20.6251 C   0  0  0  0  0  0  0  0  0  0  0  0
  -20.5729  -25.1870   21.6410 C   0  0  1  0  0  0  0  0  0  0  0  0
  -23.2916  -27.4179   23.0779 C   0  0  1  0  0  0  0  0  0  0  0  0
  -24.6351  -18.3278   21.9243 C   0  0  2  0  0  0  0  0  0  0  0  0
  -26.3169  -23.2106   16.1561 C   0  0  0  0  0  0  0  0  0  0  0  0
  -23.6512  -35.1547   23.2069 C   0  0  0  0  0  0  0  0  0  0  0  0
  -31.5304  -20.0730   19.8272 C   0  0  0  0  0  0  0  0  0  0  0  0
  -31.8269  -19.7137   17.3535 C   0  0  0  0  0  0  0  0  0  0  0  0
  -29.8313  -18.8066   18.5267 C   0  0  0  0  0  0  0  0  0  0  0  0
  -21.0118  -29.9983   19.9950 C   0  0  0  0  0  0  0  0  0  0  0  0
  -21.4813  -32.4558   20.0877 C   0  0  0  0  0  0  0  0  0  0  0  0
  -20.0768  -31.3887   21.8516 C   0  0  0  0  0  0  0  0  0  0  0  0
  -26.0578  -32.7403   24.8966 C   0  0  0  0  0  0  0  0  0  0  0  0
  -30.9652  -24.9936   17.7596 C   0  0  0  0  0  0  0  0  0  0  0  0
  -30.1734  -26.2281   18.1961 C   0  0  0  0  0  0  0  0  0  0  0  0
  -25.9586  -23.6446   18.6184 C   0  0  0  0  0  0  0  0  0  0  0  0
  -26.0957  -23.1681   20.0646 C   0  0  0  0  0  0  0  0  0  0  0  0
  -29.6236  -26.1227   19.6138 C   0  0  0  0  0  0  0  0  0  1  0  0
  -26.6746  -22.7332   17.5798 C   0  0  2  0  0  0  0  0  0  0  0  0
  -22.5674  -30.9554   21.8198 C   0  0  1  0  0  0  0  0  0  0  0  0
  -24.1049  -33.8178   23.7723 C   0  0  2  0  0  0  0  0  0  0  0  0
  -30.7792  -20.0500   18.4598 C   0  0  0  0  0  0  0  0  0  0  0  0
  -21.3056  -31.1807   20.9398 C   0  0  0  0  0  0  0  0  0  0  0  0
  -24.8754  -15.9274   21.4113 N   0  0  0  0  0  0  0  0  0  0  0  0
  -28.8472  -23.7966   17.6826 N   0  0  0  0  0  0  0  0  0  0  0  0
  -25.4751  -17.0722   21.7801 N   0  0  0  0  0  0  0  0  0  0  0  0
  -23.4480  -28.7285   22.4437 N   0  0  0  0  0  0  0  0  0  0  0  0
  -23.7745  -20.3556   20.8128 N   0  0  0  0  0  0  0  0  0  0  0  0
  -27.5747  -18.0032   22.3594 N   0  0  0  0  0  0  0  0  0  0  0  0
  -28.5489  -13.6723   21.5282 N   0  0  0  0  0  0  0  0  0  0  0  0
  -21.3848  -26.0615   22.4598 N   0  0  0  0  0  0  0  0  0  0  0  0
  -22.8543  -32.0475   22.7437 N   0  0  0  0  0  0  0  0  0  0  0  0
  -25.5189  -21.8587   20.2728 N   0  0  0  0  0  0  0  0  0  0  0  0
  -25.4936  -33.9736   24.2903 N   0  3  0  0  0  0  0  0  0  0  0  0
  -29.4322  -15.6904   22.1652 O   0  0  0  0  0  0  0  0  0  0  0  0
  -23.2035  -26.2642   21.0197 O   0  0  0  0  0  0  0  0  0  0  0  0
  -21.5551  -29.6042   23.4859 O   0  0  0  0  0  0  0  0  0  0  0  0
  -24.9843  -32.5013   21.9473 O   0  0  0  0  0  0  0  0  0  0  0  0
  -23.4346  -22.6496   20.8087 O   0  0  0  0  0  0  0  0  0  0  0  0
  -24.9368   -9.7216   19.9855 O   0  0  0  0  0  0  0  0  0  0  0  0
  -28.8910  -27.3108   19.9106 O   0  0  0  0  0  0  0  0  0  1  0  0
  -20.5712   -7.2211   22.2422 F   0  0  0  0  0  0  0  0  0  0  0  0
  -25.2472   -7.4621   21.5478 F   0  0  0  0  0  0  0  0  0  0  0  0
  1  2  1  0  0  0  0
  1  5  2  0  0  0  0
  2  6  2  0  0  0  0
  3  8  2  0  0  0  0
  3 17  1  0  0  0  0
  4  9  1  0  0  0  0
  4 17  2  0  0  0  0
  5 19  1  0  0  0  0
  6 21  1  0  0  0  0
  7 10  2  0  0  0  0
  7 20  1  0  0  0  0
  8 24  1  0  0  0  0
  9 24  2  0  0  0  0
 10 25  1  0  0  0  0
 11 12  2  0  0  0  0
 11 26  1  0  0  0  0
 12 27  1  0  0  0  0
 13 22  1  0  0  0  0
 13 25  2  0  0  0  0
 14 23  2  0  0  0  0
 14 30  1  0  0  0  0
 15 23  1  0  0  0  0
 15 31  2  0  0  0  0
 16 27  2  0  0  0  0
 16 28  1  0  0  0  0
 17 29  1  0  0  0  0
 18 29  1  0  0  0  0
 18 32  2  0  0  0  0
 18 33  1  0  0  0  0
 19 21  2  0  0  0  0
 19 38  1  0  0  0  0
 20 22  2  0  0  0  0
 20 39  1  0  0  0  0
 21 47  1  0  0  0  0
 22 40  1  0  0  0  0
 23 67  1  0  0  0  0
 24 85  1  0  0  0  0
 25 86  1  0  0  0  0
 26 28  2  0  0  0  0
 26 85  1  0  0  0  0
 27 87  1  0  0  0  0
 28 88  1  0  0  0  0
 29 69  2  0  0  0  0
 30 59  1  0  0  0  0
 30 70  2  0  0  0  0
 31 64  1  0  0  0  0
 31 70  1  0  0  0  0
 32 71  1  0  0  0  0
 32 74  1  0  0  0  0
 33 75  1  0  0  0  0
 33 80  2  0  0  0  0
 34 48  1  0  0  0  0
 34 76  1  0  0  0  0
 34 81  2  0  0  0  0
 35 65  1  0  0  0  0
 35 72  1  0  0  0  0
 35 82  2  0  0  0  0
 36 66  1  0  0  0  0
 36 77  1  0  0  0  0
 36 83  2  0  0  0  0
 37 73  1  0  0  0  0
 37 78  1  0  0  0  0
 37 84  2  0  0  0  0
 38 41  1  0  0  0  0
 39 48  1  0  0  0  0
 40 72  1  0  0  0  0
 41 43  1  0  0  0  0
 42 44  1  0  0  0  0
 42 45  1  0  0  0  0
 43 47  1  0  0  0  0
 44 49  1  0  0  0  0
 45 73  1  0  0  0  0
 46 49  1  0  0  0  0
 46 73  1  0  0  0  0
 47 76  1  0  0  0  0
 48 72  1  0  0  0  0
 49 71  1  0  0  0  0
 50 64  1  0  0  0  0
 51 66  1  0  0  0  0
 52 67  1  0  0  0  0
 53 67  1  0  0  0  0
 54 67  1  0  0  0  0
 55 68  1  0  0  0  0
 56 68  1  0  0  0  0
 57 68  1  0  0  0  0
 58 79  1  0  0  0  0
 59 60  1  0  0  0  0
 60 63  1  0  0  0  0
 61 62  1  0  0  0  0
 61 64  1  0  0  0  0
 62 78  1  0  0  0  0
 63 86  1  0  0  0  0
 65 68  1  0  0  0  0
 65 77  1  0  0  0  0
 66 79  1  0  0  0  0
 69 71  1  0  0  0  0
M  CHG  1  79   1
M  ISO  4  37 100  63 101  78 100  86 101
M  END
> <Batch ID>
0081

> <Smiles>
CNC(C)C(=O)NC(C(=O)N1Cc2cc([101O:1][101CH2:1]CCc3cc(C(C)(C)C)cc(C(C)CC[100NH:0][100C:0](=O)N4CCCC(n5nc(-c6ccc(Oc7ccc(F)cc7F)cc6)c(C(N)=O)c5N)C4)n3)ccc2CC1C(=O)NC1CCCc2ccccc21)C(C)(C)C

> <Shape>
0.240

> <Color>
0.060

> <Negative vol penalty>
0.000

$$$$

  -OEChem-04052318463D

 86 94  0     1  0  0  0  0  0999 V2000
  -21.6697  -12.7188   19.7474 C   0  0  0  0  0  0  0  0  0  0  0  0
  -21.6994  -13.9393   20.4145 C   0  0  0  0  0  0  0  0  0  0  0  0
  -26.9942  -28.2023   15.9009 C   0  0  0  0  0  0  0  0  0  0  0  0
  -27.4968  -29.7474   17.6890 C   0  0  0  0  0  0  0  0  0  0  0  0
  -22.8423  -11.9801   19.5951 C   0  0  0  0  0  0  0  0  0  0  0  0
  -22.9017  -14.4212   20.9308 C   0  0  0  0  0  0  0  0  0  0  0  0
  -23.6118  -19.3357   19.9364 C   0  0  0  0  0  0  0  0  0  0  0  0
  -27.6343  -29.0453   14.9925 C   0  0  0  0  0  0  0  0  0  0  0  0
  -28.1370  -30.5904   16.7806 C   0  0  0  0  0  0  0  0  0  0  0  0
  -22.9150  -20.2517   20.7233 C   0  0  0  0  0  0  0  0  0  0  0  0
  -26.9342  -31.9008   13.3252 C   0  0  0  0  0  0  0  0  0  0  0  0
  -26.2944  -32.1493   12.1109 C   0  0  0  0  0  0  0  0  0  0  0  0
  -24.8983  -20.6129   22.0482 C   0  0  0  0  0  0  0  0  0  0  0  0
  -28.1803  -31.2133   10.9258 C   0  0  0  0  0  0  0  0  0  0  0  0
  -24.6715  -27.8406   24.9805 C   0  0  0  0  0  0  0  0  0  0  0  0
  -26.9254  -28.5533   17.2491 C   0  0  0  0  0  0  0  0  0  0  0  0
  -26.8425  -26.6363   18.9301 C   0  0  0  0  0  0  0  0  0  0  0  0
  -24.0614  -12.4579   20.1014 C   0  0  0  0  0  0  0  0  0  0  0  0
  -24.9562  -19.0428   20.2067 C   0  0  0  0  0  0  0  0  0  0  0  0
  -24.0916  -13.6876   20.7863 C   0  0  0  0  0  0  0  0  0  0  0  0
  -25.6106  -19.6947   21.2616 C   0  0  0  0  0  0  0  0  0  0  0  0
  -28.2057  -30.2393   15.4323 C   0  0  0  0  0  0  0  0  0  0  0  0
  -23.5574  -20.8883   21.7812 C   0  0  0  0  0  0  0  0  0  0  0  0
  -28.1971  -31.3087   13.3398 C   0  0  0  0  0  0  0  0  0  0  0  0
  -26.9175  -31.8054   10.9112 C   0  0  0  0  0  0  0  0  0  0  0  0
  -28.8201  -30.9649   12.1401 C   0  0  0  0  0  0  0  0  0  0  0  0
  -26.2638  -27.6832   18.1879 C   0  0  0  0  0  0  0  0  0  0  0  0
  -24.7563  -29.1733   25.4260 C   0  0  0  0  0  0  0  0  0  0  0  0
  -23.3451  -27.6663   24.6693 C   0  0  0  0  0  0  0  0  0  0  0  0
  -25.8034  -26.1228   19.6671 C   0  0  0  0  0  0  0  0  0  0  0  0
  -28.1980  -26.1698   18.9516 C   0  0  0  0  0  0  0  0  0  0  0  0
  -26.5586  -16.4268   21.0387 C   0  0  0  0  0  0  0  0  0  0  0  0
  -29.1385  -18.3530   20.6434 C   0  0  0  0  0  0  0  0  0  0  0  0
  -30.4060  -21.5210   20.5789 C   0  0  0  0  0  0  0  0  0  0  0  0
  -20.6392  -28.4504   21.6071 C   0  0  0  0  0  0  0  0  0  0  0  0
  -25.2942  -11.6017   19.9537 C   0  0  0  0  0  0  0  0  0  0  0  0
  -25.7013  -18.0723   19.3319 C   0  0  0  0  0  0  0  0  0  0  0  0
  -27.0586  -19.4305   21.5808 C   0  0  0  0  0  0  0  0  0  0  0  0
  -26.5956  -12.3597   20.2025 C   0  0  0  0  0  0  0  0  0  0  0  0
  -21.0526  -25.5669   19.5600 C   0  0  0  0  0  0  0  0  0  0  0  0
  -26.4884  -13.2031   21.4690 C   0  0  0  0  0  0  0  0  0  0  0  0
  -22.4872  -25.6878   19.0431 C   0  0  0  0  0  0  0  0  0  0  0  0
  -20.3749  -26.9311   19.6685 C   0  0  0  0  0  0  0  0  0  0  0  0
  -22.5529  -28.0517   19.9413 C   0  0  0  0  0  0  0  0  0  0  0  0
  -25.3809  -14.2556   21.3387 C   0  0  1  0  0  0  0  0  0  0  0  0
  -26.9225  -17.4664   20.0167 C   0  0  1  0  0  0  0  0  0  0  0  0
  -23.2963  -26.7069   19.8679 C   0  0  2  0  0  0  0  0  0  0  0  0
  -32.0962  -23.3464   20.2492 C   0  0  0  0  0  0  0  0  0  0  0  0
  -27.0620  -29.9571   24.7816 C   0  0  0  0  0  0  0  0  0  0  0  0
  -26.6049  -29.1970   27.1374 C   0  0  0  0  0  0  0  0  0  0  0  0
  -25.7408  -31.3842   26.3306 C   0  0  0  0  0  0  0  0  0  0  0  0
  -30.0006  -17.5669   23.4628 C   0  0  0  0  0  0  0  0  0  0  0  0
  -31.5670  -19.5200   23.4532 C   0  0  0  0  0  0  0  0  0  0  0  0
  -31.8617  -17.6790   21.7959 C   0  0  0  0  0  0  0  0  0  0  0  0
  -29.7174  -21.8002   17.7142 C   0  0  0  0  0  0  0  0  0  0  0  0
  -22.6013  -26.4662   24.1401 C   0  0  0  0  0  0  0  0  0  0  0  0
  -23.4890  -25.2371   23.9154 C   0  0  0  0  0  0  0  0  0  0  0  0
  -22.7327  -24.0555   23.3066 C   0  0  0  0  0  0  0  0  0  0  0  0
  -21.3410  -29.1789   24.7700 C   0  0  0  0  0  0  0  0  0  0  0  0
  -21.0609  -29.9899   23.5075 C   0  0  0  0  0  0  0  0  0  0  0  0
  -23.6363  -22.8419   23.1351 C   0  0  0  0  0  0  0  0  0  1  0  0
  -29.9249  -19.2831   21.5353 C   0  0  1  0  0  0  0  0  0  0  0  0
  -31.3161  -22.2217   19.5864 C   0  0  2  0  0  0  0  0  0  0  0  0
  -25.9563  -29.8896   25.8901 C   0  0  0  0  0  0  0  0  0  0  0  0
  -30.8107  -18.5160   22.5573 C   0  0  0  0  0  0  0  0  0  0  0  0
  -24.9584  -27.8273   18.4310 N   0  0  0  0  0  0  0  0  0  0  0  0
  -23.5777  -29.8012   25.4014 N   0  0  0  0  0  0  0  0  0  0  0  0
  -22.7397  -28.8589   24.9366 N   0  0  0  0  0  0  0  0  0  0  0  0
  -24.7081  -26.8642   19.3342 N   0  0  0  0  0  0  0  0  0  0  0  0
  -27.7423  -18.4687   20.7005 N   0  0  0  0  0  0  0  0  0  0  0  0
  -21.1925  -27.8501   20.4641 N   0  0  0  0  0  0  0  0  0  0  0  0
  -25.7289  -25.1138   20.5609 N   0  0  0  0  0  0  0  0  0  0  0  0
  -29.1381  -26.8104   18.1329 N   0  0  0  0  0  0  0  0  0  0  0  0
  -25.8326  -15.3671   20.5293 N   0  0  0  0  0  0  0  0  0  0  0  0
  -30.6688  -20.1691   20.6465 N   0  0  0  0  0  0  0  0  0  0  0  0
  -21.4838  -29.3031   22.3074 N   0  0  0  0  0  0  0  0  0  0  0  0
  -30.5168  -22.7992   18.4690 N   0  3  0  0  0  0  0  0  0  0  0  0
  -28.5614  -25.2027   19.6631 O   0  0  0  0  0  0  0  0  0  0  0  0
  -26.9118  -16.5743   22.2028 O   0  0  0  0  0  0  0  0  0  0  0  0
  -29.7409  -17.5583   19.9174 O   0  0  0  0  0  0  0  0  0  0  0  0
  -29.5504  -22.1142   21.2319 O   0  0  0  0  0  0  0  0  0  0  0  0
  -19.4802  -28.2379   21.9792 O   0  0  0  0  0  0  0  0  0  0  0  0
  -28.8307  -31.0620   14.5462 O   0  0  0  0  0  0  0  0  0  0  0  0
  -22.8795  -21.7823   22.5513 O   0  0  0  0  0  0  0  0  0  1  0  0
  -26.3023  -32.0426    9.7452 F   0  0  0  0  0  0  0  0  0  0  0  0
  -30.0328  -30.3947   12.1479 F   0  0  0  0  0  0  0  0  0  0  0  0
  1  2  1  0  0  0  0
  1  5  2  0  0  0  0
  2  6  2  0  0  0  0
  3  8  2  0  0  0  0
  3 16  1  0  0  0  0
  4  9  1  0  0  0  0
  4 16  2  0  0  0  0
  5 18  1  0  0  0  0
  6 20  1  0  0  0  0
  7 10  2  0  0  0  0
  7 19  1  0  0  0  0
  8 22  1  0  0  0  0
  9 22  2  0  0  0  0
 10 23  1  0  0  0  0
 11 12  2  0  0  0  0
 11 24  1  0  0  0  0
 12 25  1  0  0  0  0
 13 21  1  0  0  0  0
 13 23  2  0  0  0  0
 14 25  2  0  0  0  0
 14 26  1  0  0  0  0
 15 28  1  0  0  0  0
 15 29  2  0  0  0  0
 16 27  1  0  0  0  0
 17 27  1  0  0  0  0
 17 30  2  0  0  0  0
 17 31  1  0  0  0  0
 18 20  2  0  0  0  0
 18 36  1  0  0  0  0
 19 21  2  0  0  0  0
 19 37  1  0  0  0  0
 20 45  1  0  0  0  0
 21 38  1  0  0  0  0
 22 83  1  0  0  0  0
 23 84  1  0  0  0  0
 24 26  2  0  0  0  0
 24 83  1  0  0  0  0
 25 85  1  0  0  0  0
 26 86  1  0  0  0  0
 27 66  2  0  0  0  0
 28 64  1  0  0  0  0
 28 67  2  0  0  0  0
 29 56  1  0  0  0  0
 29 68  1  0  0  0  0
 30 69  1  0  0  0  0
 30 72  1  0  0  0  0
 31 73  1  0  0  0  0
 31 78  2  0  0  0  0
 32 46  1  0  0  0  0
 32 74  1  0  0  0  0
 32 79  2  0  0  0  0
 33 62  1  0  0  0  0
 33 70  1  0  0  0  0
 33 80  2  0  0  0  0
 34 63  1  0  0  0  0
 34 75  1  0  0  0  0
 34 81  2  0  0  0  0
 35 71  1  0  0  0  0
 35 76  1  0  0  0  0
 35 82  2  0  0  0  0
 36 39  1  0  0  0  0
 37 46  1  0  0  0  0
 38 70  1  0  0  0  0
 39 41  1  0  0  0  0
 40 42  1  0  0  0  0
 40 43  1  0  0  0  0
 41 45  1  0  0  0  0
 42 47  1  0  0  0  0
 43 71  1  0  0  0  0
 44 47  1  0  0  0  0
 44 71  1  0  0  0  0
 45 74  1  0  0  0  0
 46 70  1  0  0  0  0
 47 69  1  0  0  0  0
 48 63  1  0  0  0  0
 49 64  1  0  0  0  0
 50 64  1  0  0  0  0
 51 64  1  0  0  0  0
 52 65  1  0  0  0  0
 53 65  1  0  0  0  0
 54 65  1  0  0  0  0
 55 77  1  0  0  0  0
 56 57  1  0  0  0  0
 57 58  1  0  0  0  0
 58 61  1  0  0  0  0
 59 60  1  0  0  0  0
 59 68  1  0  0  0  0
 60 76  1  0  0  0  0
 61 84  1  0  0  0  0
 62 65  1  0  0  0  0
 62 75  1  0  0  0  0
 63 77  1  0  0  0  0
 66 69  1  0  0  0  0
 67 68  1  0  0  0  0
M  CHG  1  77   1
M  ISO  4  35 100  61 101  76 100  84 101
M  END
> <Batch ID>
0081

> <Smiles>
CNC(C)C(=O)NC(C(=O)N1Cc2cc([101O:1][101CH2:1]CCCc3cc(C(C)(C)C)nn3CC[100NH:0][100C:0](=O)N3CCCC(n4nc(-c5ccc(Oc6ccc(F)cc6F)cc5)c(C(N)=O)c4N)C3)ccc2CC1C(=O)NC1CCCc2ccccc21)C(C)(C)C

> <Shape>
0.184

> <Color>
0.070

> <Negative vol penalty>
0.000

$$$$

  -OEChem-04052318463D

 88 96  0     1  0  0  0  0  0999 V2000
  -23.0718  -24.5163   13.4547 C   0  0  0  0  0  0  0  0  0  0  0  0
  -23.8857  -23.8188   14.3415 C   0  0  0  0  0  0  0  0  0  0  0  0
  -23.1970   -9.8530   19.9557 C   0  0  0  0  0  0  0  0  0  0  0  0
  -23.9038   -9.9356   22.2645 C   0  0  0  0  0  0  0  0  0  0  0  0
  -21.8278  -23.9982   13.0970 C   0  0  0  0  0  0  0  0  0  0  0  0
  -23.4555  -22.6031   14.8721 C   0  0  0  0  0  0  0  0  0  0  0  0
  -27.0765  -19.0636   14.8039 C   0  0  0  0  0  0  0  0  0  0  0  0
  -22.5035   -8.6698   20.2103 C   0  0  0  0  0  0  0  0  0  0  0  0
  -23.2102   -8.7524   22.5191 C   0  0  0  0  0  0  0  0  0  0  0  0
  -28.0587  -19.1384   15.7905 C   0  0  0  0  0  0  0  0  0  0  0  0
  -20.8435   -5.4347   20.1695 C   0  0  0  0  0  0  0  0  0  0  0  0
  -20.9770   -4.3927   19.2520 C   0  0  0  0  0  0  0  0  0  0  0  0
  -26.9197  -17.4219   17.0459 C   0  0  0  0  0  0  0  0  0  0  0  0
  -30.4702  -17.7754   20.7546 C   0  0  0  0  0  0  0  0  0  0  0  0
  -23.3587   -4.3434   19.6545 C   0  0  0  0  0  0  0  0  0  0  0  0
  -23.8972  -10.4858   20.9828 C   0  0  0  0  0  0  0  0  0  0  0  0
  -24.1208  -13.0221   20.8246 C   0  0  0  0  0  0  0  0  0  0  0  0
  -21.3862  -22.7709   13.6160 C   0  0  0  0  0  0  0  0  0  0  0  0
  -26.0009  -18.1736   14.9363 C   0  0  0  0  0  0  0  0  0  0  0  0
  -22.2038  -22.0687   14.5221 C   0  0  0  0  0  0  0  0  0  0  0  0
  -25.9266  -17.3359   16.0583 C   0  0  0  0  0  0  0  0  0  0  0  0
  -31.0727  -18.6346   19.8424 C   0  0  0  0  0  0  0  0  0  0  0  0
  -31.4719  -19.9028   20.2493 C   0  0  0  0  0  0  0  0  0  0  0  0
  -22.5101   -8.1196   21.4920 C   0  0  0  0  0  0  0  0  0  0  0  0
  -27.9789  -18.3196   16.9132 C   0  0  0  0  0  0  0  0  0  0  0  0
  -21.9676   -5.9311   20.8295 C   0  0  0  0  0  0  0  0  0  0  0  0
  -22.2346   -3.8470   18.9945 C   0  0  0  0  0  0  0  0  0  0  0  0
  -23.2252   -5.3855   20.5720 C   0  0  0  0  0  0  0  0  0  0  0  0
  -24.6142  -11.7078   20.7203 C   0  0  0  0  0  0  0  0  0  0  0  0
  -30.2911  -18.2286   22.0517 C   0  0  0  0  0  0  0  0  0  0  0  0
  -31.2477  -20.2608   21.5689 C   0  0  0  0  0  0  0  0  0  0  0  0
  -25.1839  -13.8169   20.4716 C   0  0  0  0  0  0  0  0  0  0  0  0
  -22.8181  -13.4833   21.2064 C   0  0  0  0  0  0  0  0  0  0  0  0
  -22.8454  -18.4857   15.1571 C   0  0  0  0  0  0  0  0  0  0  0  0
  -22.9047  -15.2465   14.9949 C   0  0  0  0  0  0  0  0  0  0  0  0
  -24.6515  -12.3534   15.4699 C   0  0  0  0  0  0  0  0  0  0  0  0
  -30.9469  -14.0527   20.9683 C   0  0  0  0  0  0  0  0  0  0  0  0
  -20.0137  -22.2740   13.2368 C   0  0  0  0  0  0  0  0  0  0  0  0
  -24.9639  -18.0860   13.8503 C   0  0  0  0  0  0  0  0  0  0  0  0
  -24.8031  -16.3491   16.2382 C   0  0  0  0  0  0  0  0  0  0  0  0
  -19.7916  -20.7972   13.5529 C   0  0  0  0  0  0  0  0  0  0  0  0
  -29.3609  -13.1182   17.9207 C   0  0  0  0  0  0  0  0  0  0  0  0
  -20.2780  -20.4739   14.9620 C   0  0  0  0  0  0  0  0  0  0  0  0
  -27.9293  -12.7814   18.3416 C   0  0  0  0  0  0  0  0  0  0  0  0
  -30.3756  -12.6914   18.9791 C   0  0  0  0  0  0  0  0  0  0  0  0
  -28.6775  -12.8688   20.7565 C   0  0  0  0  0  0  0  0  0  0  0  0
  -21.7828  -20.7348   15.0997 C   0  0  1  0  0  0  0  0  0  0  0  0
  -23.6378  -17.5086   14.3355 C   0  0  1  0  0  0  0  0  0  0  0  0
  -27.6138  -13.3309   19.7458 C   0  0  2  0  0  0  0  0  0  0  0  0
  -32.1229  -20.8450   19.2934 C   0  0  0  0  0  0  0  0  0  0  0  0
  -31.1554  -23.4828   23.6940 C   0  0  0  0  0  0  0  0  0  0  0  0
  -24.4223   -9.8612   15.2864 C   0  0  0  0  0  0  0  0  0  0  0  0
  -21.2478  -15.2127   17.5568 C   0  0  0  0  0  0  0  0  0  0  0  0
  -21.8548  -12.7997   17.8349 C   0  0  0  0  0  0  0  0  0  0  0  0
  -20.5490  -13.5336   15.8402 C   0  0  0  0  0  0  0  0  0  0  0  0
  -31.6005  -17.2163   24.7101 C   0  0  0  0  0  0  0  0  0  0  0  0
  -29.7068  -15.6135   24.9061 C   0  0  0  0  0  0  0  0  0  0  0  0
  -26.8297  -12.1837   13.4736 C   0  0  0  0  0  0  0  0  0  0  0  0
  -31.2784  -18.1691   18.4214 C   0  0  0  0  0  0  0  0  0  0  0  0
  -29.6491  -17.3331   23.0581 C   0  0  0  0  0  0  0  0  0  0  0  0
  -31.6561  -21.6093   22.0654 C   0  0  0  0  0  0  0  0  0  0  0  0
  -30.7188  -22.1253   23.1665 C   0  0  0  0  0  0  0  0  0  0  0  0
  -31.3669  -15.3921   23.0149 C   0  0  0  0  0  0  0  0  0  0  0  0
  -30.2503  -18.7603   17.4630 C   0  0  0  0  0  0  0  0  0  1  0  0
  -23.0011  -14.1272   16.0032 C   0  0  1  0  0  0  0  0  0  0  0  0
  -24.8496  -11.1389   14.5810 C   0  0  2  0  0  0  0  0  0  0  0  0
  -21.6834  -13.9381   16.8066 C   0  0  0  0  0  0  0  0  0  0  0  0
  -30.5814  -16.3922   23.8966 C   0  0  0  0  0  0  0  0  0  0  0  0
  -25.8913  -11.6657   20.3314 N   0  0  0  0  0  0  0  0  0  0  0  0
  -30.6656  -19.4536   22.4839 N   0  0  0  0  0  0  0  0  0  0  0  0
  -26.2094  -12.9636   20.1881 N   0  0  0  0  0  0  0  0  0  0  0  0
  -23.8102  -16.3054   15.1520 N   0  0  0  0  0  0  0  0  0  0  0  0
  -30.0197  -13.2469   20.2870 N   0  0  0  0  0  0  0  0  0  0  0  0
  -25.3322  -15.1555   20.3791 N   0  0  0  0  0  0  0  0  0  0  0  0
  -21.8433  -12.5324   21.5380 N   0  0  0  0  0  0  0  0  0  0  0  0
  -22.5396  -19.6595   14.4952 N   0  0  0  0  0  0  0  0  0  0  0  0
  -23.4233  -12.9443   15.2609 N   0  0  0  0  0  0  0  0  0  0  0  0
  -30.5274  -14.5439   22.1985 N   0  0  0  0  0  0  0  0  0  0  0  0
  -26.2835  -11.0066   14.1968 N   0  3  0  0  0  0  0  0  0  0  0  0
  -22.5222  -14.7019   21.2363 O   0  0  0  0  0  0  0  0  0  0  0  0
  -22.5331  -18.1955   16.3060 O   0  0  0  0  0  0  0  0  0  0  0  0
  -22.0619  -15.1803   14.0966 O   0  0  0  0  0  0  0  0  0  0  0  0
  -25.4997  -12.7372   16.2722 O   0  0  0  0  0  0  0  0  0  0  0  0
  -32.0637  -14.3193   20.5114 O   0  0  0  0  0  0  0  0  0  0  0  0
  -21.8333   -6.9652   21.7408 O   0  0  0  0  0  0  0  0  0  0  0  0
  -28.9358  -18.3910   17.8780 O   0  0  0  0  0  0  0  0  0  1  0  0
  -22.3624   -2.8453   18.1145 F   0  0  0  0  0  0  0  0  0  0  0  0
  -24.3086   -5.8574   21.2039 F   0  0  0  0  0  0  0  0  0  0  0  0
  1  2  1  0  0  0  0
  1  5  2  0  0  0  0
  2  6  2  0  0  0  0
  3  8  2  0  0  0  0
  3 16  1  0  0  0  0
  4  9  1  0  0  0  0
  4 16  2  0  0  0  0
  5 18  1  0  0  0  0
  6 20  1  0  0  0  0
  7 10  2  0  0  0  0
  7 19  1  0  0  0  0
  8 24  1  0  0  0  0
  9 24  2  0  0  0  0
 10 25  1  0  0  0  0
 11 12  2  0  0  0  0
 11 26  1  0  0  0  0
 12 27  1  0  0  0  0
 13 21  1  0  0  0  0
 13 25  2  0  0  0  0
 14 22  2  0  0  0  0
 14 30  1  0  0  0  0
 15 27  2  0  0  0  0
 15 28  1  0  0  0  0
 16 29  1  0  0  0  0
 17 29  1  0  0  0  0
 17 32  2  0  0  0  0
 17 33  1  0  0  0  0
 18 20  2  0  0  0  0
 18 38  1  0  0  0  0
 19 21  2  0  0  0  0
 19 39  1  0  0  0  0
 20 47  1  0  0  0  0
 21 40  1  0  0  0  0
 22 23  1  0  0  0  0
 22 59  1  0  0  0  0
 23 31  2  0  0  0  0
 23 50  1  0  0  0  0
 24 85  1  0  0  0  0
 25 86  1  0  0  0  0
 26 28  2  0  0  0  0
 26 85  1  0  0  0  0
 27 87  1  0  0  0  0
 28 88  1  0  0  0  0
 29 69  2  0  0  0  0
 30 60  1  0  0  0  0
 30 70  2  0  0  0  0
 31 61  1  0  0  0  0
 31 70  1  0  0  0  0
 32 71  1  0  0  0  0
 32 74  1  0  0  0  0
 33 75  1  0  0  0  0
 33 80  2  0  0  0  0
 34 48  1  0  0  0  0
 34 76  1  0  0  0  0
 34 81  2  0  0  0  0
 35 65  1  0  0  0  0
 35 72  1  0  0  0  0
 35 82  2  0  0  0  0
 36 66  1  0  0  0  0
 36 77  1  0  0  0  0
 36 83  2  0  0  0  0
 37 73  1  0  0  0  0
 37 78  1  0  0  0  0
 37 84  2  0  0  0  0
 38 41  1  0  0  0  0
 39 48  1  0  0  0  0
 40 72  1  0  0  0  0
 41 43  1  0  0  0  0
 42 44  1  0  0  0  0
 42 45  1  0  0  0  0
 43 47  1  0  0  0  0
 44 49  1  0  0  0  0
 45 73  1  0  0  0  0
 46 49  1  0  0  0  0
 46 73  1  0  0  0  0
 47 76  1  0  0  0  0
 48 72  1  0  0  0  0
 49 71  1  0  0  0  0
 51 62  1  0  0  0  0
 52 66  1  0  0  0  0
 53 67  1  0  0  0  0
 54 67  1  0  0  0  0
 55 67  1  0  0  0  0
 56 68  1  0  0  0  0
 57 68  1  0  0  0  0
 58 79  1  0  0  0  0
 59 64  1  0  0  0  0
 60 68  1  0  0  0  0
 61 62  1  0  0  0  0
 63 68  1  0  0  0  0
 63 78  1  0  0  0  0
 64 86  1  0  0  0  0
 65 67  1  0  0  0  0
 65 77  1  0  0  0  0
 66 79  1  0  0  0  0
 69 71  1  0  0  0  0
M  CHG  1  79   1
M  ISO  4  37 100  64 101  78 100  86 101
M  END
> <Batch ID>
0081

> <Smiles>
CCCc1nc(CC(C)(C)C[100NH:0][100C:0](=O)N2CCCC(n3nc(-c4ccc(Oc5ccc(F)cc5F)cc4)c(C(N)=O)c3N)C2)cc(C[101CH2:1][101O:1]c2ccc3c(c2)CN(C(=O)C(NC(=O)C(C)NC)C(C)(C)C)C(C(=O)NC2CCCc4ccccc42)C3)c1C

> <Shape>
0.168

> <Color>
0.181

> <Negative vol penalty>
0.000

$$$$

  -OEChem-04052318463D

 84 92  0     1  0  0  0  0  0999 V2000
  -28.1958  -35.3450   20.2837 C   0  0  0  0  0  0  0  0  0  0  0  0
  -28.8314  -34.1737   19.8842 C   0  0  0  0  0  0  0  0  0  0  0  0
  -23.6628   -9.9780   21.7272 C   0  0  0  0  0  0  0  0  0  0  0  0
  -24.2963  -11.1623   23.7354 C   0  0  0  0  0  0  0  0  0  0  0  0
  -27.2309  -35.3050   21.2893 C   0  0  0  0  0  0  0  0  0  0  0  0
  -28.5031  -32.9618   20.4910 C   0  0  0  0  0  0  0  0  0  0  0  0
  -27.9486  -25.9667   19.0500 C   0  0  0  0  0  0  0  0  0  0  0  0
  -23.1005   -8.9640   22.5025 C   0  0  0  0  0  0  0  0  0  0  0  0
  -23.7340  -10.1483   24.5108 C   0  0  0  0  0  0  0  0  0  0  0  0
  -28.3837  -24.7309   19.5270 C   0  0  0  0  0  0  0  0  0  0  0  0
  -24.1786   -6.2948   24.2737 C   0  0  0  0  0  0  0  0  0  0  0  0
  -24.4553   -4.9758   23.9140 C   0  0  0  0  0  0  0  0  0  0  0  0
  -26.6447  -24.7705   21.1983 C   0  0  0  0  0  0  0  0  0  0  0  0
  -22.0954   -4.5674   23.5961 C   0  0  0  0  0  0  0  0  0  0  0  0
  -24.2608  -11.0772   22.3436 C   0  0  0  0  0  0  0  0  0  0  0  0
  -24.2018  -13.2825   21.0628 C   0  0  0  0  0  0  0  0  0  0  0  0
  -26.8837  -34.0906   21.9020 C   0  0  0  0  0  0  0  0  0  0  0  0
  -26.8633  -26.6198   19.6516 C   0  0  0  0  0  0  0  0  0  0  0  0
  -27.5336  -32.9058   21.5066 C   0  0  0  0  0  0  0  0  0  0  0  0
  -26.1962  -26.0133   20.7255 C   0  0  0  0  0  0  0  0  0  0  0  0
  -23.1360   -9.0491   23.8943 C   0  0  0  0  0  0  0  0  0  0  0  0
  -27.7336  -24.1340   20.6031 C   0  0  0  0  0  0  0  0  0  0  0  0
  -22.8602   -6.7500   24.2946 C   0  0  0  0  0  0  0  0  0  0  0  0
  -23.4138   -4.1121   23.5752 C   0  0  0  0  0  0  0  0  0  0  0  0
  -21.8187   -5.8863   23.9558 C   0  0  0  0  0  0  0  0  0  0  0  0
  -24.8423  -12.1247   21.5433 C   0  0  0  0  0  0  0  0  0  0  0  0
  -30.1803  -20.9192   22.2795 C   0  0  0  0  0  0  0  0  0  0  0  0
  -29.4639  -18.7228   20.9417 C   0  0  0  0  0  0  0  0  0  0  0  0
  -29.5653  -21.0048   21.0499 C   0  0  0  0  0  0  0  0  0  0  0  0
  -30.0795  -18.6371   22.1710 C   0  0  0  0  0  0  0  0  0  0  0  0
  -25.1774  -13.9493   20.3628 C   0  0  0  0  0  0  0  0  0  0  0  0
  -22.8460  -13.7166   21.2340 C   0  0  0  0  0  0  0  0  0  0  0  0
  -26.4716  -29.3824   21.1742 C   0  0  0  0  0  0  0  0  0  0  0  0
  -23.3422  -28.5314   21.1025 C   0  0  0  0  0  0  0  0  0  0  0  0
  -21.0220  -26.0381   20.8851 C   0  0  0  0  0  0  0  0  0  0  0  0
  -31.1555  -13.9545   20.6996 C   0  0  0  0  0  0  0  0  0  0  0  0
  -25.8687  -34.1043   23.0174 C   0  0  0  0  0  0  0  0  0  0  0  0
  -26.3895  -27.9399   19.1082 C   0  0  0  0  0  0  0  0  0  0  0  0
  -25.0132  -26.6637   21.3934 C   0  0  0  0  0  0  0  0  0  0  0  0
  -25.3096  -32.7232   23.3492 C   0  0  0  0  0  0  0  0  0  0  0  0
  -29.1726  -13.1753   17.8469 C   0  0  0  0  0  0  0  0  0  0  0  0
  -26.4376  -31.7019   23.4548 C   0  0  0  0  0  0  0  0  0  0  0  0
  -27.7802  -12.9221   18.4274 C   0  0  0  0  0  0  0  0  0  0  0  0
  -30.2725  -12.6669   18.7763 C   0  0  0  0  0  0  0  0  0  0  0  0
  -28.8050  -12.9200   20.7401 C   0  0  0  0  0  0  0  0  0  0  0  0
  -27.1871  -31.5681   22.1236 C   0  0  1  0  0  0  0  0  0  0  0  0
  -25.5972  -28.7551   20.1256 C   0  0  1  0  0  0  0  0  0  0  0  0
  -27.6643  -13.4658   19.8642 C   0  0  2  0  0  0  0  0  0  0  0  0
  -30.5832  -22.1399   23.0338 C   0  0  0  0  0  0  0  0  0  0  0  0
  -29.0605  -17.5024   20.1872 C   0  0  0  0  0  0  0  0  0  0  0  0
  -30.2519  -17.3920   24.3417 C   0  0  0  0  0  0  0  0  0  0  0  0
  -18.5431  -25.6479   20.8928 C   0  0  0  0  0  0  0  0  0  0  0  0
  -23.2878  -28.9520   24.1242 C   0  0  0  0  0  0  0  0  0  0  0  0
  -21.1414  -27.6650   24.1946 C   0  0  0  0  0  0  0  0  0  0  0  0
  -21.2703  -29.8030   22.9160 C   0  0  0  0  0  0  0  0  0  0  0  0
  -21.0789  -24.8801   18.1621 C   0  0  0  0  0  0  0  0  0  0  0  0
  -29.2726  -22.3311   20.4122 C   0  0  0  0  0  0  0  0  0  1  0  0
  -31.7622  -16.7283   22.4291 C   0  0  0  0  0  0  0  0  0  0  0  0
  -31.8937  -15.2289   22.6971 C   0  0  0  0  0  0  0  0  0  0  0  0
  -30.3714  -17.3195   22.8037 C   0  0  2  0  0  0  0  0  0  0  0  0
  -22.4269  -27.7455   22.0101 C   0  0  1  0  0  0  0  0  0  0  0  0
  -19.7733  -25.8956   20.0337 C   0  0  2  0  0  0  0  0  0  0  0  0
  -22.0551  -28.5298   23.3001 C   0  0  0  0  0  0  0  0  0  0  0  0
  -26.1256  -12.0567   21.1791 N   0  0  0  0  0  0  0  0  0  0  0  0
  -29.1957  -19.9082   20.3590 N   0  0  0  0  0  0  0  0  0  0  0  0
  -30.4488  -19.7338   22.8620 N   0  0  0  0  0  0  0  0  0  0  0  0
  -26.2993  -13.1801   20.4624 N   0  0  0  0  0  0  0  0  0  0  0  0
  -24.5917  -27.9568   20.8298 N   0  0  0  0  0  0  0  0  0  0  0  0
  -30.1060  -13.2209   20.1222 N   0  0  0  0  0  0  0  0  0  0  0  0
  -25.1765  -15.1127   19.6779 N   0  0  0  0  0  0  0  0  0  0  0  0
  -21.9762  -12.9116   21.9822 N   0  0  0  0  0  0  0  0  0  0  0  0
  -26.4249  -30.7633   21.1931 N   0  0  0  0  0  0  0  0  0  0  0  0
  -21.2805  -27.3564   21.1960 N   0  0  0  0  0  0  0  0  0  0  0  0
  -30.9128  -14.4496   21.9750 N   0  0  0  0  0  0  0  0  0  0  0  0
  -19.9208  -24.7563   19.0844 N   0  3  0  0  0  0  0  0  0  0  0  0
  -22.4143  -14.7784   20.7244 O   0  0  0  0  0  0  0  0  0  0  0  0
  -27.1380  -28.6665   21.9125 O   0  0  0  0  0  0  0  0  0  0  0  0
  -22.9597  -29.6119   20.6465 O   0  0  0  0  0  0  0  0  0  0  0  0
  -21.6983  -25.0759   21.2420 O   0  0  0  0  0  0  0  0  0  0  0  0
  -32.2272  -14.1581   20.1191 O   0  0  0  0  0  0  0  0  0  0  0  0
  -22.5872   -8.0600   24.6512 O   0  0  0  0  0  0  0  0  0  0  0  0
  -28.1566  -22.9282   21.0711 O   0  0  0  0  0  0  0  0  0  1  0  0
  -23.6798   -2.8460   23.2283 F   0  0  0  0  0  0  0  0  0  0  0  0
  -20.5502   -6.3183   23.9729 F   0  0  0  0  0  0  0  0  0  0  0  0
  1  2  1  0  0  0  0
  1  5  2  0  0  0  0
  2  6  2  0  0  0  0
  3  8  2  0  0  0  0
  3 15  1  0  0  0  0
  4  9  1  0  0  0  0
  4 15  2  0  0  0  0
  5 17  1  0  0  0  0
  6 19  1  0  0  0  0
  7 10  2  0  0  0  0
  7 18  1  0  0  0  0
  8 21  1  0  0  0  0
  9 21  2  0  0  0  0
 10 22  1  0  0  0  0
 11 12  2  0  0  0  0
 11 23  1  0  0  0  0
 12 24  1  0  0  0  0
 13 20  1  0  0  0  0
 13 22  2  0  0  0  0
 14 24  2  0  0  0  0
 14 25  1  0  0  0  0
 15 26  1  0  0  0  0
 16 26  1  0  0  0  0
 16 31  2  0  0  0  0
 16 32  1  0  0  0  0
 17 19  2  0  0  0  0
 17 37  1  0  0  0  0
 18 20  2  0  0  0  0
 18 38  1  0  0  0  0
 19 46  1  0  0  0  0
 20 39  1  0  0  0  0
 21 81  1  0  0  0  0
 22 82  1  0  0  0  0
 23 25  2  0  0  0  0
 23 81  1  0  0  0  0
 24 83  1  0  0  0  0
 25 84  1  0  0  0  0
 26 64  2  0  0  0  0
 27 29  2  0  0  0  0
 27 49  1  0  0  0  0
 27 66  1  0  0  0  0
 28 30  1  0  0  0  0
 28 50  1  0  0  0  0
 28 65  2  0  0  0  0
 29 57  1  0  0  0  0
 29 65  1  0  0  0  0
 30 60  1  0  0  0  0
 30 66  2  0  0  0  0
 31 67  1  0  0  0  0
 31 70  1  0  0  0  0
 32 71  1  0  0  0  0
 32 76  2  0  0  0  0
 33 47  1  0  0  0  0
 33 72  1  0  0  0  0
 33 77  2  0  0  0  0
 34 61  1  0  0  0  0
 34 68  1  0  0  0  0
 34 78  2  0  0  0  0
 35 62  1  0  0  0  0
 35 73  1  0  0  0  0
 35 79  2  0  0  0  0
 36 69  1  0  0  0  0
 36 74  1  0  0  0  0
 36 80  2  0  0  0  0
 37 40  1  0  0  0  0
 38 47  1  0  0  0  0
 39 68  1  0  0  0  0
 40 42  1  0  0  0  0
 41 43  1  0  0  0  0
 41 44  1  0  0  0  0
 42 46  1  0  0  0  0
 43 48  1  0  0  0  0
 44 69  1  0  0  0  0
 45 48  1  0  0  0  0
 45 69  1  0  0  0  0
 46 72  1  0  0  0  0
 47 68  1  0  0  0  0
 48 67  1  0  0  0  0
 51 60  1  0  0  0  0
 52 62  1  0  0  0  0
 53 63  1  0  0  0  0
 54 63  1  0  0  0  0
 55 63  1  0  0  0  0
 56 75  1  0  0  0  0
 57 82  1  0  0  0  0
 58 59  1  0  0  0  0
 58 60  1  0  0  0  0
 59 74  1  0  0  0  0
 61 63  1  0  0  0  0
 61 73  1  0  0  0  0
 62 75  1  0  0  0  0
 64 67  1  0  0  0  0
M  CHG  1  75   1
M  ISO  4  36 100  57 101  74 100  82 101
M  END
> <Batch ID>
0081

> <Smiles>
CNC(C)C(=O)NC(C(=O)N1Cc2cc([101O:1][101CH2:1]c3nc(C)c(C(C)CC[100NH:0][100C:0](=O)N4CCCC(n5nc(-c6ccc(Oc7ccc(F)cc7F)cc6)c(C(N)=O)c5N)C4)nc3C)ccc2CC1C(=O)NC1CCCc2ccccc21)C(C)(C)C

> <Shape>
0.333

> <Color>
0.141

> <Negative vol penalty>
0.000

$$$$

  -OEChem-04052318463D

 81 89  0     1  0  0  0  0  0999 V2000
  -31.0955  -22.0872   15.8596 C   0  0  0  0  0  0  0  0  0  0  0  0
  -30.6540  -22.0391   17.1780 C   0  0  0  0  0  0  0  0  0  0  0  0
  -30.0222  -15.6996   20.3658 C   0  0  0  0  0  0  0  0  0  0  0  0
  -27.7802  -15.9512   21.2302 C   0  0  0  0  0  0  0  0  0  0  0  0
  -31.2752  -23.3183   15.2303 C   0  0  0  0  0  0  0  0  0  0  0  0
  -30.3930  -23.2222   17.8683 C   0  0  0  0  0  0  0  0  0  0  0  0
  -26.0524  -23.0362   20.4701 C   0  0  0  0  0  0  0  0  0  0  0  0
  -29.6263  -14.5564   19.6715 C   0  0  0  0  0  0  0  0  0  0  0  0
  -27.3842  -14.8081   20.5358 C   0  0  0  0  0  0  0  0  0  0  0  0
  -26.0640  -22.3419   21.6791 C   0  0  0  0  0  0  0  0  0  0  0  0
  -27.6329  -11.4567   20.9067 C   0  0  0  0  0  0  0  0  0  0  0  0
  -26.8507  -10.5236   21.5871 C   0  0  0  0  0  0  0  0  0  0  0  0
  -26.2584  -24.4308   22.8699 C   0  0  0  0  0  0  0  0  0  0  0  0
  -25.0874  -10.8165   19.9616 C   0  0  0  0  0  0  0  0  0  0  0  0
  -27.3077  -22.0721   27.3494 C   0  0  0  0  0  0  0  0  0  0  0  0
  -29.0992  -16.3969   21.1452 C   0  0  0  0  0  0  0  0  0  0  0  0
  -29.4783  -18.9067   21.4003 C   0  0  0  0  0  0  0  0  0  0  0  0
  -31.0070  -24.5169   15.9101 C   0  0  0  0  0  0  0  0  0  0  0  0
  -26.1549  -24.4347   20.4514 C   0  0  0  0  0  0  0  0  0  0  0  0
  -30.5706  -24.4706   17.2479 C   0  0  0  0  0  0  0  0  0  0  0  0
  -26.2453  -25.1406   21.6595 C   0  0  0  0  0  0  0  0  0  0  0  0
  -28.3073  -14.1107   19.7565 C   0  0  0  0  0  0  0  0  0  0  0  0
  -26.1699  -23.0390   22.8791 C   0  0  0  0  0  0  0  0  0  0  0  0
  -27.1424  -12.0698   19.7537 C   0  0  0  0  0  0  0  0  0  0  0  0
  -25.5779  -10.2035   21.1146 C   0  0  0  0  0  0  0  0  0  0  0  0
  -25.8696  -11.7497   19.2812 C   0  0  0  0  0  0  0  0  0  0  0  0
  -29.5078  -17.5775   21.8631 C   0  0  0  0  0  0  0  0  0  0  0  0
  -26.9217  -21.1095   28.2389 C   0  0  0  0  0  0  0  0  0  0  0  0
  -29.9652  -19.6467   22.4500 C   0  0  0  0  0  0  0  0  0  0  0  0
  -25.3141  -21.3329   26.7336 C   0  0  0  0  0  0  0  0  0  0  0  0
  -29.0491  -19.4260   20.1347 C   0  0  0  0  0  0  0  0  0  0  0  0
  -28.2433  -26.5150   19.2621 C   0  0  0  0  0  0  0  0  0  0  0  0
  -26.0472  -28.6896   20.2474 C   0  0  0  0  0  0  0  0  0  0  0  0
  -23.4580  -29.4500   22.3366 C   0  0  0  0  0  0  0  0  0  0  0  0
  -30.1454  -18.7108   28.3612 C   0  0  0  0  0  0  0  0  0  0  0  0
  -31.2613  -25.8248   15.2035 C   0  0  0  0  0  0  0  0  0  0  0  0
  -26.1140  -25.1706   19.1403 C   0  0  0  0  0  0  0  0  0  0  0  0
  -26.3375  -26.6436   21.6948 C   0  0  0  0  0  0  0  0  0  0  0  0
  -30.6038  -27.0227   15.8839 C   0  0  0  0  0  0  0  0  0  0  0  0
  -32.9113  -19.3297   26.2064 C   0  0  0  0  0  0  0  0  0  0  0  0
  -30.8592  -26.9891   17.3874 C   0  0  0  0  0  0  0  0  0  0  0  0
  -32.3500  -19.0708   24.8071 C   0  0  0  0  0  0  0  0  0  0  0  0
  -32.3256  -18.3666   27.2366 C   0  0  0  0  0  0  0  0  0  0  0  0
  -30.2906  -18.0667   25.8792 C   0  0  0  0  0  0  0  0  0  0  0  0
  -30.2531  -25.7316   18.0220 C   0  0  1  0  0  0  0  0  0  0  0  0
  -26.7421  -26.5589   19.2146 C   0  0  1  0  0  0  0  0  0  0  0  0
  -30.8096  -19.0498   24.8159 C   0  0  2  0  0  0  0  0  0  0  0  0
  -24.0397  -21.1376   25.9983 C   0  0  0  0  0  0  0  0  0  0  0  0
  -26.8052  -20.8344   30.7359 C   0  0  0  0  0  0  0  0  0  0  0  0
  -21.8921  -31.3177   22.9341 C   0  0  0  0  0  0  0  0  0  0  0  0
  -28.2946  -30.0837   21.7692 C   0  0  0  0  0  0  0  0  0  0  0  0
  -26.5508  -31.3239   23.0690 C   0  0  0  0  0  0  0  0  0  0  0  0
  -26.7134  -31.6275   20.5983 C   0  0  0  0  0  0  0  0  0  0  0  0
  -21.0826  -27.8575   21.5747 C   0  0  0  0  0  0  0  0  0  0  0  0
  -27.8891  -19.0348   29.3427 C   0  0  0  0  0  0  0  0  0  0  0  0
  -26.2931  -23.1369   25.2588 C   0  0  0  0  0  0  0  0  0  1  0  0
  -27.5888  -20.5622   29.4231 C   0  0  1  0  0  0  0  0  0  0  0  0
  -25.8017  -29.4583   21.5233 C   0  0  1  0  0  0  0  0  0  0  0  0
  -22.1033  -30.0821   22.0730 C   0  0  2  0  0  0  0  0  0  0  0  0
  -26.8403  -30.5949   21.7395 C   0  0  0  0  0  0  0  0  0  0  0  0
  -29.9764  -17.4759   23.1097 N   0  0  0  0  0  0  0  0  0  0  0  0
  -26.2944  -22.1893   26.4287 N   0  0  0  0  0  0  0  0  0  0  0  0
  -30.2460  -18.7506   23.4391 N   0  0  0  0  0  0  0  0  0  0  0  0
  -25.6845  -20.6698   27.8339 N   0  3  0  0  0  0  0  0  0  0  0  0
  -26.2998  -27.3175   20.3864 N   0  0  0  0  0  0  0  0  0  0  0  0
  -30.8616  -18.3958   27.1946 N   0  0  0  0  0  0  0  0  0  0  0  0
  -30.1762  -20.9699   22.6141 N   0  0  0  0  0  0  0  0  0  0  0  0
  -28.5767  -18.5268   19.1690 N   0  0  0  0  0  0  0  0  0  0  0  0
  -28.8223  -25.8835   18.1780 N   0  0  0  0  0  0  0  0  0  0  0  0
  -24.4180  -29.9167   21.4638 N   0  0  0  0  0  0  0  0  0  0  0  0
  -28.7619  -18.7227   28.2329 N   0  0  0  0  0  0  0  0  0  0  0  0
  -21.0122  -29.1110   22.3689 N   0  3  0  0  0  0  0  0  0  0  0  0
  -29.0990  -20.6495   19.8621 O   0  0  0  0  0  0  0  0  0  0  0  0
  -28.8327  -27.0182   20.2114 O   0  0  0  0  0  0  0  0  0  0  0  0
  -26.0090  -29.2833   19.1668 O   0  0  0  0  0  0  0  0  0  0  0  0
  -23.6467  -28.6274   23.2301 O   0  0  0  0  0  0  0  0  0  0  0  0
  -30.6982  -18.9680   29.4360 O   0  0  0  0  0  0  0  0  0  0  0  0
  -27.9205  -12.9954   19.0789 O   0  0  0  0  0  0  0  0  0  0  0  0
  -26.1821  -22.3637   24.0605 O   0  0  0  0  0  0  0  0  0  1  0  0
  -24.8275   -9.3063   21.7673 F   0  0  0  0  0  0  0  0  0  0  0  0
  -25.3934  -12.3345   18.1735 F   0  0  0  0  0  0  0  0  0  0  0  0
  1  2  1  0  0  0  0
  1  5  2  0  0  0  0
  2  6  2  0  0  0  0
  3  8  2  0  0  0  0
  3 16  1  0  0  0  0
  4  9  1  0  0  0  0
  4 16  2  0  0  0  0
  5 18  1  0  0  0  0
  6 20  1  0  0  0  0
  7 10  2  0  0  0  0
  7 19  1  0  0  0  0
  8 22  1  0  0  0  0
  9 22  2  0  0  0  0
 10 23  1  0  0  0  0
 11 12  2  0  0  0  0
 11 24  1  0  0  0  0
 12 25  1  0  0  0  0
 13 21  1  0  0  0  0
 13 23  2  0  0  0  0
 14 25  2  0  0  0  0
 14 26  1  0  0  0  0
 15 28  2  0  0  0  0
 15 62  1  0  0  0  0
 16 27  1  0  0  0  0
 17 27  1  0  0  0  0
 17 29  2  0  0  0  0
 17 31  1  0  0  0  0
 18 20  2  0  0  0  0
 18 36  1  0  0  0  0
 19 21  2  0  0  0  0
 19 37  1  0  0  0  0
 20 45  1  0  0  0  0
 21 38  1  0  0  0  0
 22 78  1  0  0  0  0
 23 79  1  0  0  0  0
 24 26  2  0  0  0  0
 24 78  1  0  0  0  0
 25 80  1  0  0  0  0
 26 81  1  0  0  0  0
 27 61  2  0  0  0  0
 28 57  1  0  0  0  0
 28 64  1  0  0  0  0
 29 63  1  0  0  0  0
 29 67  1  0  0  0  0
 30 48  1  0  0  0  0
 30 62  1  0  0  0  0
 30 64  2  0  0  0  0
 31 68  1  0  0  0  0
 31 73  2  0  0  0  0
 32 46  1  0  0  0  0
 32 69  1  0  0  0  0
 32 74  2  0  0  0  0
 33 58  1  0  0  0  0
 33 65  1  0  0  0  0
 33 75  2  0  0  0  0
 34 59  1  0  0  0  0
 34 70  1  0  0  0  0
 34 76  2  0  0  0  0
 35 66  1  0  0  0  0
 35 71  1  0  0  0  0
 35 77  2  0  0  0  0
 36 39  1  0  0  0  0
 37 46  1  0  0  0  0
 38 65  1  0  0  0  0
 39 41  1  0  0  0  0
 40 42  1  0  0  0  0
 40 43  1  0  0  0  0
 41 45  1  0  0  0  0
 42 47  1  0  0  0  0
 43 66  1  0  0  0  0
 44 47  1  0  0  0  0
 44 66  1  0  0  0  0
 45 69  1  0  0  0  0
 46 65  1  0  0  0  0
 47 63  1  0  0  0  0
 49 57  1  0  0  0  0
 50 59  1  0  0  0  0
 51 60  1  0  0  0  0
 52 60  1  0  0  0  0
 53 60  1  0  0  0  0
 54 72  1  0  0  0  0
 55 57  1  0  0  0  0
 55 71  1  0  0  0  0
 56 62  1  0  0  0  0
 56 79  1  0  0  0  0
 58 60  1  0  0  0  0
 58 70  1  0  0  0  0
 59 72  1  0  0  0  0
 61 63  1  0  0  0  0
M  CHG  2  64   1  72   1
M  ISO  4  35 100  56 101  71 100  79 101
M  END
> <Batch ID>
0081

> <Smiles>
CNC(C)C(=O)NC(C(=O)N1Cc2cc([101O:1][101CH2:1]n3cc(C(C)C[100NH:0][100C:0](=O)N4CCCC(n5nc(-c6ccc(Oc7ccc(F)cc7F)cc6)c(C(N)=O)c5N)C4)nc3C)ccc2CC1C(=O)NC1CCCc2ccccc21)C(C)(C)C

> <Shape>
0.213

> <Color>
0.063

> <Negative vol penalty>
0.000

$$$$

  -OEChem-04052318463D

 83 91  0     1  0  0  0  0  0999 V2000
  -22.3069  -27.8342   18.8201 C   0  0  0  0  0  0  0  0  0  0  0  0
  -23.5524  -27.3304   18.4594 C   0  0  0  0  0  0  0  0  0  0  0  0
  -26.9235  -13.2150   20.9693 C   0  0  0  0  0  0  0  0  0  0  0  0
  -27.0881  -13.1727   18.5593 C   0  0  0  0  0  0  0  0  0  0  0  0
  -22.2142  -28.8344   19.7871 C   0  0  0  0  0  0  0  0  0  0  0  0
  -24.7062  -27.8272   19.0647 C   0  0  0  0  0  0  0  0  0  0  0  0
  -27.9173  -24.1576   20.4313 C   0  0  0  0  0  0  0  0  0  0  0  0
  -26.2637  -11.9863   20.9458 C   0  0  0  0  0  0  0  0  0  0  0  0
  -26.4283  -11.9440   18.5358 C   0  0  0  0  0  0  0  0  0  0  0  0
  -28.6983  -23.5881   19.4265 C   0  0  0  0  0  0  0  0  0  0  0  0
  -24.2164   -9.0314   21.4945 C   0  0  0  0  0  0  0  0  0  0  0  0
  -23.0836   -8.8865   22.2953 C   0  0  0  0  0  0  0  0  0  0  0  0
  -30.5615  -24.9624   20.1042 C   0  0  0  0  0  0  0  0  0  0  0  0
  -22.0126  -10.6977   21.1080 C   0  0  0  0  0  0  0  0  0  0  0  0
  -30.9843  -20.2313   14.3912 C   0  0  0  0  0  0  0  0  0  0  0  0
  -27.3357  -13.8082   19.7760 C   0  0  0  0  0  0  0  0  0  0  0  0
  -29.4045  -15.2964   19.8903 C   0  0  0  0  0  0  0  0  0  0  0  0
  -23.3667  -29.3369   20.4115 C   0  0  0  0  0  0  0  0  0  0  0  0
  -28.4501  -25.1432   21.2745 C   0  0  0  0  0  0  0  0  0  0  0  0
  -24.6290  -28.8359   20.0399 C   0  0  0  0  0  0  0  0  0  0  0  0
  -29.7859  -25.5409   21.1206 C   0  0  0  0  0  0  0  0  0  0  0  0
  -30.0425  -21.2273   14.5504 C   0  0  0  0  0  0  0  0  0  0  0  0
  -26.0161  -11.3508   19.7291 C   0  0  0  0  0  0  0  0  0  0  0  0
  -30.0197  -23.9926   19.2610 C   0  0  0  0  0  0  0  0  0  0  0  0
  -24.2474  -10.0096   20.5005 C   0  0  0  0  0  0  0  0  0  0  0  0
  -21.9817   -9.7196   22.1020 C   0  0  0  0  0  0  0  0  0  0  0  0
  -23.1455  -10.8427   20.3072 C   0  0  0  0  0  0  0  0  0  0  0  0
  -28.0168  -15.0777   19.7996 C   0  0  0  0  0  0  0  0  0  0  0  0
  -28.7354  -20.8000   14.6656 C   0  0  0  0  0  0  0  0  0  0  0  0
  -29.5385  -16.6632   19.8747 C   0  0  0  0  0  0  0  0  0  0  0  0
  -29.3753  -18.6276   14.4703 C   0  0  0  0  0  0  0  0  0  0  0  0
  -30.4766  -14.3486   19.9806 C   0  0  0  0  0  0  0  0  0  0  0  0
  -27.7758  -28.1925   21.8666 C   0  0  0  0  0  0  0  0  0  0  0  0
  -30.0370  -27.8414   24.1657 C   0  0  0  0  0  0  0  0  0  0  0  0
  -32.7838  -26.1603   25.2951 C   0  0  0  0  0  0  0  0  0  0  0  0
  -26.1139  -21.0714   17.7089 C   0  0  0  0  0  0  0  0  0  0  0  0
  -23.2202  -30.4513   21.4171 C   0  0  0  0  0  0  0  0  0  0  0  0
  -27.6026  -25.7284   22.3707 C   0  0  0  0  0  0  0  0  0  0  0  0
  -30.4115  -26.5808   22.0126 C   0  0  0  0  0  0  0  0  0  0  0  0
  -24.4616  -30.6597   22.2806 C   0  0  0  0  0  0  0  0  0  0  0  0
  -27.2104  -20.6678   21.0721 C   0  0  0  0  0  0  0  0  0  0  0  0
  -25.7179  -30.6712   21.4154 C   0  0  0  0  0  0  0  0  0  0  0  0
  -27.6666  -19.2091   21.1356 C   0  0  0  0  0  0  0  0  0  0  0  0
  -25.9887  -20.8384   20.1719 C   0  0  0  0  0  0  0  0  0  0  0  0
  -26.5980  -18.8341   18.8736 C   0  0  0  0  0  0  0  0  0  0  0  0
  -25.9016  -29.3318   20.6917 C   0  0  1  0  0  0  0  0  0  0  0  0
  -28.0937  -27.0940   22.8412 C   0  0  1  0  0  0  0  0  0  0  0  0
  -27.8612  -18.6206   19.7252 C   0  0  2  0  0  0  0  0  0  0  0  0
  -29.0046  -17.1837   14.4266 C   0  0  0  0  0  0  0  0  0  0  0  0
  -34.4332  -26.1267   27.1861 C   0  0  0  0  0  0  0  0  0  0  0  0
  -31.4403  -30.2785   22.9818 C   0  0  0  0  0  0  0  0  0  0  0  0
  -33.4937  -29.6296   24.2588 C   0  0  0  0  0  0  0  0  0  0  0  0
  -31.3984  -30.2108   25.4814 C   0  0  0  0  0  0  0  0  0  0  0  0
  -31.9997  -23.4176   26.0837 C   0  0  0  0  0  0  0  0  0  0  0  0
  -30.4424  -22.6805   14.5919 C   0  0  0  0  0  0  0  0  0  0  0  0
  -27.6310  -21.7893   14.8422 C   0  0  0  0  0  0  0  0  0  0  0  0
  -31.0675  -23.1096   15.9211 C   0  0  0  0  0  0  0  0  0  0  0  0
  -26.2940  -21.1510   15.2349 C   0  0  0  0  0  0  0  0  0  0  0  0
  -30.1102  -22.9991   17.1021 C   0  0  0  0  0  0  0  0  0  1  0  0
  -31.5348  -28.0193   24.2281 C   0  0  1  0  0  0  0  0  0  0  0  0
  -33.1184  -25.5763   26.6558 C   0  0  2  0  0  0  0  0  0  0  0  0
  -31.9547  -29.5163   24.2193 C   0  0  0  0  0  0  0  0  0  0  0  0
  -30.6847  -18.9165   14.3466 N   0  0  0  0  0  0  0  0  0  0  0  0
  -27.3191  -16.2146   19.7315 N   0  0  0  0  0  0  0  0  0  0  0  0
  -28.3646  -19.5033   14.6296 N   0  0  0  0  0  0  0  0  0  0  0  0
  -28.2722  -17.1608   19.7796 N   0  0  0  0  0  0  0  0  0  0  0  0
  -29.5403  -27.1279   23.0658 N   0  0  0  0  0  0  0  0  0  0  0  0
  -26.2392  -20.2608   18.8492 N   0  0  0  0  0  0  0  0  0  0  0  0
  -30.6148  -17.4760   19.9332 N   0  0  0  0  0  0  0  0  0  0  0  0
  -30.1624  -12.9828   19.9838 N   0  0  0  0  0  0  0  0  0  0  0  0
  -26.4275  -28.3348   21.5994 N   0  0  0  0  0  0  0  0  0  0  0  0
  -31.9852  -27.2793   25.4019 N   0  0  0  0  0  0  0  0  0  0  0  0
  -26.3751  -20.4470   16.4953 N   0  0  0  0  0  0  0  0  0  0  0  0
  -33.2307  -24.0928   26.5694 N   0  3  0  0  0  0  0  0  0  0  0  0
  -31.6764  -14.7028   20.0727 O   0  0  0  0  0  0  0  0  0  0  0  0
  -28.6862  -28.8625   21.3933 O   0  0  0  0  0  0  0  0  0  0  0  0
  -29.3342  -28.3120   25.0637 O   0  0  0  0  0  0  0  0  0  0  0  0
  -33.1932  -25.6747   24.2429 O   0  0  0  0  0  0  0  0  0  0  0  0
  -25.7981  -22.2646   17.7683 O   0  0  0  0  0  0  0  0  0  0  0  0
  -25.3725  -10.1517   19.7058 O   0  0  0  0  0  0  0  0  0  0  0  0
  -30.7840  -23.4389   18.2807 O   0  0  0  0  0  0  0  0  0  1  0  0
  -20.8933   -9.5793   22.8701 F   0  0  0  0  0  0  0  0  0  0  0  0
  -23.1689  -11.7834   19.3531 F   0  0  0  0  0  0  0  0  0  0  0  0
  1  2  1  0  0  0  0
  1  5  2  0  0  0  0
  2  6  2  0  0  0  0
  3  8  2  0  0  0  0
  3 16  1  0  0  0  0
  4  9  1  0  0  0  0
  4 16  2  0  0  0  0
  5 18  1  0  0  0  0
  6 20  1  0  0  0  0
  7 10  2  0  0  0  0
  7 19  1  0  0  0  0
  8 23  1  0  0  0  0
  9 23  2  0  0  0  0
 10 24  1  0  0  0  0
 11 12  2  0  0  0  0
 11 25  1  0  0  0  0
 12 26  1  0  0  0  0
 13 21  1  0  0  0  0
 13 24  2  0  0  0  0
 14 26  2  0  0  0  0
 14 27  1  0  0  0  0
 15 22  1  0  0  0  0
 15 63  2  0  0  0  0
 16 28  1  0  0  0  0
 17 28  1  0  0  0  0
 17 30  2  0  0  0  0
 17 32  1  0  0  0  0
 18 20  2  0  0  0  0
 18 37  1  0  0  0  0
 19 21  2  0  0  0  0
 19 38  1  0  0  0  0
 20 46  1  0  0  0  0
 21 39  1  0  0  0  0
 22 29  2  0  0  0  0
 22 55  1  0  0  0  0
 23 80  1  0  0  0  0
 24 81  1  0  0  0  0
 25 27  2  0  0  0  0
 25 80  1  0  0  0  0
 26 82  1  0  0  0  0
 27 83  1  0  0  0  0
 28 64  2  0  0  0  0
 29 56  1  0  0  0  0
 29 65  1  0  0  0  0
 30 66  1  0  0  0  0
 30 69  1  0  0  0  0
 31 49  1  0  0  0  0
 31 63  1  0  0  0  0
 31 65  2  0  0  0  0
 32 70  1  0  0  0  0
 32 75  2  0  0  0  0
 33 47  1  0  0  0  0
 33 71  1  0  0  0  0
 33 76  2  0  0  0  0
 34 60  1  0  0  0  0
 34 67  1  0  0  0  0
 34 77  2  0  0  0  0
 35 61  1  0  0  0  0
 35 72  1  0  0  0  0
 35 78  2  0  0  0  0
 36 68  1  0  0  0  0
 36 73  1  0  0  0  0
 36 79  2  0  0  0  0
 37 40  1  0  0  0  0
 38 47  1  0  0  0  0
 39 67  1  0  0  0  0
 40 42  1  0  0  0  0
 41 43  1  0  0  0  0
 41 44  1  0  0  0  0
 42 46  1  0  0  0  0
 43 48  1  0  0  0  0
 44 68  1  0  0  0  0
 45 48  1  0  0  0  0
 45 68  1  0  0  0  0
 46 71  1  0  0  0  0
 47 67  1  0  0  0  0
 48 66  1  0  0  0  0
 50 61  1  0  0  0  0
 51 62  1  0  0  0  0
 52 62  1  0  0  0  0
 53 62  1  0  0  0  0
 54 74  1  0  0  0  0
 55 57  1  0  0  0  0
 56 58  1  0  0  0  0
 57 59  1  0  0  0  0
 58 73  1  0  0  0  0
 59 81  1  0  0  0  0
 60 62  1  0  0  0  0
 60 72  1  0  0  0  0
 61 74  1  0  0  0  0
 64 66  1  0  0  0  0
M  CHG  1  74   1
M  ISO  4  36 100  59 101  73 100  81 101
M  END
> <Batch ID>
0081

> <Smiles>
CNC(C)C(=O)NC(C(=O)N1Cc2cc([101O:1][101CH2:1]CCc3cnc(C)nc3CC[100NH:0][100C:0](=O)N3CCCC(n4nc(-c5ccc(Oc6ccc(F)cc6F)cc5)c(C(N)=O)c4N)C3)ccc2CC1C(=O)NC1CCCc2ccccc21)C(C)(C)C

> <Shape>
0.210

> <Color>
0.068

> <Negative vol penalty>
0.000

$$$$

  -OEChem-04052318463D

 87 95  0     1  0  0  0  0  0999 V2000
  -22.1472  -10.2268   20.4876 C   0  0  0  0  0  0  0  0  0  0  0  0
  -21.7652  -11.4678   20.9871 C   0  0  0  0  0  0  0  0  0  0  0  0
  -26.7312  -29.0269   22.1877 C   0  0  0  0  0  0  0  0  0  0  0  0
  -25.1061  -28.3787   20.5216 C   0  0  0  0  0  0  0  0  0  0  0  0
  -23.4852   -9.9817   20.1815 C   0  0  0  0  0  0  0  0  0  0  0  0
  -22.7212  -12.4641   21.1817 C   0  0  0  0  0  0  0  0  0  0  0  0
  -21.1859  -16.9857   19.4956 C   0  0  0  0  0  0  0  0  0  0  0  0
  -27.6952  -28.2447   21.5519 C   0  0  0  0  0  0  0  0  0  0  0  0
  -26.0702  -27.5965   19.8856 C   0  0  0  0  0  0  0  0  0  0  0  0
  -20.2936  -17.6951   20.2982 C   0  0  0  0  0  0  0  0  0  0  0  0
  -28.5234  -24.9728   21.3696 C   0  0  0  0  0  0  0  0  0  0  0  0
  -29.3267  -24.1591   22.1684 C   0  0  0  0  0  0  0  0  0  0  0  0
  -22.1177  -19.0371   21.1295 C   0  0  0  0  0  0  0  0  0  0  0  0
  -31.2917  -25.3174   21.3721 C   0  0  0  0  0  0  0  0  0  0  0  0
  -19.6014  -26.5747   21.5385 C   0  0  0  0  0  0  0  0  0  0  0  0
  -25.4366  -29.0939   21.6726 C   0  0  0  0  0  0  0  0  0  0  0  0
  -24.1488  -31.2569   22.0858 C   0  0  0  0  0  0  0  0  0  0  0  0
  -24.4565  -10.9787   20.3634 C   0  0  0  0  0  0  0  0  0  0  0  0
  -22.5547  -17.2899   19.5121 C   0  0  0  0  0  0  0  0  0  0  0  0
  -24.0736  -12.2316   20.8790 C   0  0  0  0  0  0  0  0  0  0  0  0
  -23.0249  -18.3317   20.3242 C   0  0  0  0  0  0  0  0  0  0  0  0
  -27.3647  -27.5295   20.4008 C   0  0  0  0  0  0  0  0  0  0  0  0
  -20.7598  -18.7191   21.1175 C   0  0  0  0  0  0  0  0  0  0  0  0
  -29.1042  -25.9587   20.5719 C   0  0  0  0  0  0  0  0  0  0  0  0
  -30.7108  -24.3315   22.1698 C   0  0  0  0  0  0  0  0  0  0  0  0
  -30.4884  -26.1311   20.5732 C   0  0  0  0  0  0  0  0  0  0  0  0
  -24.4401  -29.9013   22.3293 C   0  0  0  0  0  0  0  0  0  0  0  0
  -19.7368  -27.1722   20.3019 C   0  0  0  0  0  0  0  0  0  0  0  0
  -18.3675  -26.0145   21.7990 C   0  0  0  0  0  0  0  0  0  0  0  0
  -23.1323  -31.5522   22.9610 C   0  0  0  0  0  0  0  0  0  0  0  0
  -17.5948  -26.6425   19.7555 C   0  0  0  0  0  0  0  0  0  0  0  0
  -24.7437  -32.1676   21.1518 C   0  0  0  0  0  0  0  0  0  0  0  0
  -25.1962  -15.7025   20.2909 C   0  0  0  0  0  0  0  0  0  0  0  0
  -26.6633  -18.3590   19.1452 C   0  0  0  0  0  0  0  0  0  0  0  0
  -26.4846  -21.6953   18.4493 C   0  0  0  0  0  0  0  0  0  0  0  0
  -18.9631  -28.1993   25.6492 C   0  0  0  0  0  0  0  0  0  0  0  0
  -25.8978  -10.6514   20.0629 C   0  0  0  0  0  0  0  0  0  0  0  0
  -23.5004  -16.5330   18.6204 C   0  0  0  0  0  0  0  0  0  0  0  0
  -24.4820  -18.7110   20.3632 C   0  0  0  0  0  0  0  0  0  0  0  0
  -26.7905  -11.8841   19.9451 C   0  0  0  0  0  0  0  0  0  0  0  0
  -21.3786  -30.2846   27.2282 C   0  0  0  0  0  0  0  0  0  0  0  0
  -26.5271  -12.8463   21.0990 C   0  0  0  0  0  0  0  0  0  0  0  0
  -22.4109  -30.5451   26.1297 C   0  0  0  0  0  0  0  0  0  0  0  0
  -20.8173  -28.8666   27.1502 C   0  0  0  0  0  0  0  0  0  0  0  0
  -21.2996  -28.7502   24.7362 C   0  0  0  0  0  0  0  0  0  0  0  0
  -25.0774  -13.3460   21.0806 C   0  0  1  0  0  0  0  0  0  0  0  0
  -24.9472  -16.5863   19.1016 C   0  0  1  0  0  0  0  0  0  0  0  0
  -21.8532  -30.1854   24.7395 C   0  0  2  0  0  0  0  0  0  0  0  0
  -21.0357  -27.8048   19.9293 C   0  0  0  0  0  0  0  0  0  0  0  0
  -16.4812  -26.6766   18.7644 C   0  0  0  0  0  0  0  0  0  0  0  0
  -27.8554  -23.5970   17.5541 C   0  0  0  0  0  0  0  0  0  0  0  0
  -15.5908  -25.6464   23.6589 C   0  0  0  0  0  0  0  0  0  0  0  0
  -28.1676  -18.5188   21.7950 C   0  0  0  0  0  0  0  0  0  0  0  0
  -28.7676  -20.8834   21.2318 C   0  0  0  0  0  0  0  0  0  0  0  0
  -29.5559  -19.0177   19.7755 C   0  0  0  0  0  0  0  0  0  0  0  0
  -24.6212  -22.1279   16.1910 C   0  0  0  0  0  0  0  0  0  0  0  0
  -19.2103  -23.0304   22.6947 C   0  0  0  0  0  0  0  0  0  0  0  0
  -18.9288  -21.5570   22.4021 C   0  0  0  0  0  0  0  0  0  0  0  0
  -17.9113  -23.8031   22.9491 C   0  0  0  0  0  0  0  0  0  0  0  0
  -17.2046  -27.5600   24.0187 C   0  0  0  0  0  0  0  0  0  0  0  0
  -20.2147  -20.7709   22.1894 C   0  0  0  0  0  0  0  0  0  1  0  0
  -18.1212  -25.3282   23.1405 C   0  0  2  0  0  0  0  0  0  0  0  0
  -27.1139  -19.6717   19.7391 C   0  0  1  0  0  0  0  0  0  0  0  0
  -26.8710  -22.4887   17.2142 C   0  0  2  0  0  0  0  0  0  0  0  0
  -17.0326  -26.0284   24.0182 C   0  0  2  0  0  0  0  0  0  0  0  0
  -28.3740  -19.5147   20.6363 C   0  0  0  0  0  0  0  0  0  0  0  0
  -23.6711  -29.3722   23.2846 N   0  0  0  0  0  0  0  0  0  0  0  0
  -18.7506  -27.2245   19.3827 N   0  0  0  0  0  0  0  0  0  0  0  0
  -17.3379  -26.0303   20.9272 N   0  0  0  0  0  0  0  0  0  0  0  0
  -22.8865  -30.4006   23.6491 N   0  0  0  0  0  0  0  0  0  0  0  0
  -25.3682  -17.9373   19.4780 N   0  0  0  0  0  0  0  0  0  0  0  0
  -20.3032  -28.5895   25.8067 N   0  0  0  0  0  0  0  0  0  0  0  0
  -22.4339  -32.6822   23.2016 N   0  0  0  0  0  0  0  0  0  0  0  0
  -25.7764  -31.6998   20.3278 N   0  0  0  0  0  0  0  0  0  0  0  0
  -24.9082  -14.3690   20.0711 N   0  0  0  0  0  0  0  0  0  0  0  0
  -27.2893  -20.5883   18.6177 N   0  0  0  0  0  0  0  0  0  0  0  0
  -18.5553  -27.9623   24.3421 N   0  0  0  0  0  0  0  0  0  0  0  0
  -25.6635  -23.1059   16.5962 N   0  3  0  0  0  0  0  0  0  0  0  0
  -24.3818  -33.3654   21.0625 O   0  0  0  0  0  0  0  0  0  0  0  0
  -25.6197  -16.1937   21.3306 O   0  0  0  0  0  0  0  0  0  0  0  0
  -27.4294  -17.7344   18.4072 O   0  0  0  0  0  0  0  0  0  0  0  0
  -25.5635  -22.0265   19.1926 O   0  0  0  0  0  0  0  0  0  0  0  0
  -18.1861  -28.0766   26.6021 O   0  0  0  0  0  0  0  0  0  0  0  0
  -28.3052  -26.7663   19.7799 O   0  0  0  0  0  0  0  0  0  0  0  0
  -19.8847  -19.4178   21.9082 O   0  0  0  0  0  0  0  0  0  1  0  0
  -31.4820  -23.5510   22.9381 F   0  0  0  0  0  0  0  0  0  0  0  0
  -31.0521  -27.0774   19.8099 F   0  0  0  0  0  0  0  0  0  0  0  0
  1  2  1  0  0  0  0
  1  5  2  0  0  0  0
  2  6  2  0  0  0  0
  3  8  2  0  0  0  0
  3 16  1  0  0  0  0
  4  9  1  0  0  0  0
  4 16  2  0  0  0  0
  5 18  1  0  0  0  0
  6 20  1  0  0  0  0
  7 10  2  0  0  0  0
  7 19  1  0  0  0  0
  8 22  1  0  0  0  0
  9 22  2  0  0  0  0
 10 23  1  0  0  0  0
 11 12  2  0  0  0  0
 11 24  1  0  0  0  0
 12 25  1  0  0  0  0
 13 21  1  0  0  0  0
 13 23  2  0  0  0  0
 14 25  2  0  0  0  0
 14 26  1  0  0  0  0
 15 28  2  0  0  0  0
 15 29  1  0  0  0  0
 16 27  1  0  0  0  0
 17 27  1  0  0  0  0
 17 30  2  0  0  0  0
 17 32  1  0  0  0  0
 18 20  2  0  0  0  0
 18 37  1  0  0  0  0
 19 21  2  0  0  0  0
 19 38  1  0  0  0  0
 20 46  1  0  0  0  0
 21 39  1  0  0  0  0
 22 84  1  0  0  0  0
 23 85  1  0  0  0  0
 24 26  2  0  0  0  0
 24 84  1  0  0  0  0
 25 86  1  0  0  0  0
 26 87  1  0  0  0  0
 27 67  2  0  0  0  0
 28 49  1  0  0  0  0
 28 68  1  0  0  0  0
 29 62  1  0  0  0  0
 29 69  2  0  0  0  0
 30 70  1  0  0  0  0
 30 73  1  0  0  0  0
 31 50  1  0  0  0  0
 31 68  2  0  0  0  0
 31 69  1  0  0  0  0
 32 74  1  0  0  0  0
 32 79  2  0  0  0  0
 33 47  1  0  0  0  0
 33 75  1  0  0  0  0
 33 80  2  0  0  0  0
 34 63  1  0  0  0  0
 34 71  1  0  0  0  0
 34 81  2  0  0  0  0
 35 64  1  0  0  0  0
 35 76  1  0  0  0  0
 35 82  2  0  0  0  0
 36 72  1  0  0  0  0
 36 77  1  0  0  0  0
 36 83  2  0  0  0  0
 37 40  1  0  0  0  0
 38 47  1  0  0  0  0
 39 71  1  0  0  0  0
 40 42  1  0  0  0  0
 41 43  1  0  0  0  0
 41 44  1  0  0  0  0
 42 46  1  0  0  0  0
 43 48  1  0  0  0  0
 44 72  1  0  0  0  0
 45 48  1  0  0  0  0
 45 72  1  0  0  0  0
 46 75  1  0  0  0  0
 47 71  1  0  0  0  0
 48 70  1  0  0  0  0
 51 64  1  0  0  0  0
 52 65  1  0  0  0  0
 53 66  1  0  0  0  0
 54 66  1  0  0  0  0
 55 66  1  0  0  0  0
 56 78  1  0  0  0  0
 57 58  1  0  0  0  0
 57 59  1  0  0  0  0
 58 61  1  0  0  0  0
 59 62  1  0  0  0  0
 60 65  1  0  0  0  0
 60 77  1  0  0  0  0
 61 85  1  0  0  0  0
 62 65  1  0  0  0  0
 63 66  1  0  0  0  0
 63 76  1  0  0  0  0
 64 78  1  0  0  0  0
 67 70  1  0  0  0  0
M  CHG  1  78   1
M  ISO  4  36 100  61 101  77 100  85 101
M  END
> <Batch ID>
0081

> <Smiles>
CNC(C)C(=O)NC(C(=O)N1Cc2cc([101O:1][101CH2:1]CCCC(c3cc(C)nc(C)n3)C(C)C[100NH:0][100C:0](=O)N3CCCC(n4nc(-c5ccc(Oc6ccc(F)cc6F)cc5)c(C(N)=O)c4N)C3)ccc2CC1C(=O)NC1CCCc2ccccc21)C(C)(C)C

> <Shape>
0.221

> <Color>
0.061

> <Negative vol penalty>
0.000

$$$$

  -OEChem-04052318463D

 88 96  0     1  0  0  0  0  0999 V2000
  -31.1943  -34.0861   19.9038 C   0  0  0  0  0  0  0  0  0  0  0  0
  -30.8455  -32.7633   19.6510 C   0  0  0  0  0  0  0  0  0  0  0  0
  -26.9594  -12.3293   20.8905 C   0  0  0  0  0  0  0  0  0  0  0  0
  -25.8927  -14.1245   19.6754 C   0  0  0  0  0  0  0  0  0  0  0  0
  -30.7606  -34.7088   21.0735 C   0  0  0  0  0  0  0  0  0  0  0  0
  -30.0637  -32.0620   20.5683 C   0  0  0  0  0  0  0  0  0  0  0  0
  -25.8418  -27.8068   19.3136 C   0  0  0  0  0  0  0  0  0  0  0  0
  -25.7140  -11.8987   21.3476 C   0  0  0  0  0  0  0  0  0  0  0  0
  -24.6472  -13.6938   20.1324 C   0  0  0  0  0  0  0  0  0  0  0  0
  -25.8818  -26.4133   19.3267 C   0  0  0  0  0  0  0  0  0  0  0  0
  -23.0942  -10.1310   20.1453 C   0  0  0  0  0  0  0  0  0  0  0  0
  -22.8232   -8.7637   20.0965 C   0  0  0  0  0  0  0  0  0  0  0  0
  -24.9566  -26.4136   21.5545 C   0  0  0  0  0  0  0  0  0  0  0  0
  -30.6989  -22.1195   20.9213 C   0  0  0  0  0  0  0  0  0  0  0  0
  -22.5112   -8.7401   22.4922 C   0  0  0  0  0  0  0  0  0  0  0  0
  -27.0488  -13.4423   20.0544 C   0  0  0  0  0  0  0  0  0  0  0  0
  -28.9956  -13.4847   18.4064 C   0  0  0  0  0  0  0  0  0  0  0  0
  -29.9651  -34.0178   22.0010 C   0  0  0  0  0  0  0  0  0  0  0  0
  -25.3682  -28.5158   20.4270 C   0  0  0  0  0  0  0  0  0  0  0  0
  -29.6202  -32.6756   21.7522 C   0  0  0  0  0  0  0  0  0  0  0  0
  -24.9092  -27.8161   21.5520 C   0  0  0  0  0  0  0  0  0  0  0  0
  -30.1788  -21.2970   19.8916 C   0  0  0  0  0  0  0  0  0  0  0  0
  -24.5578  -12.5808   20.9685 C   0  0  0  0  0  0  0  0  0  0  0  0
  -25.4419  -25.7165   20.4483 C   0  0  0  0  0  0  0  0  0  0  0  0
  -23.0738  -10.8030   21.3675 C   0  0  0  0  0  0  0  0  0  0  0  0
  -22.5317   -8.0682   21.2700 C   0  0  0  0  0  0  0  0  0  0  0  0
  -22.7823  -10.1075   22.5409 C   0  0  0  0  0  0  0  0  0  0  0  0
  -28.3351  -13.8881   19.5824 C   0  0  0  0  0  0  0  0  0  0  0  0
  -29.8935  -21.9538   22.0264 C   0  0  0  0  0  0  0  0  0  0  0  0
  -29.0713  -20.6539   20.3988 C   0  0  0  0  0  0  0  0  0  0  0  0
  -30.1734  -14.1913   18.4146 C   0  0  0  0  0  0  0  0  0  0  0  0
  -28.5814  -12.5547   17.3969 C   0  0  0  0  0  0  0  0  0  0  0  0
  -26.6282  -30.6218   22.4470 C   0  0  0  0  0  0  0  0  0  0  0  0
  -23.5850  -30.7917   23.5571 C   0  0  0  0  0  0  0  0  0  0  0  0
  -28.8810  -18.4478   19.2986 C   0  0  0  0  0  0  0  0  0  0  0  0
  -20.5365  -29.2952   23.8950 C   0  0  0  0  0  0  0  0  0  0  0  0
  -29.5598  -34.7182   23.2738 C   0  0  0  0  0  0  0  0  0  0  0  0
  -25.3066  -30.0181   20.3868 C   0  0  0  0  0  0  0  0  0  0  0  0
  -24.3727  -28.5295   22.7652 C   0  0  0  0  0  0  0  0  0  0  0  0
  -28.4218  -34.0222   24.0161 C   0  0  0  0  0  0  0  0  0  0  0  0
  -30.3452  -17.0077   22.2155 C   0  0  0  0  0  0  0  0  0  0  0  0
  -28.6821  -32.5219   24.1063 C   0  0  0  0  0  0  0  0  0  0  0  0
  -31.3792  -16.0747   21.5713 C   0  0  0  0  0  0  0  0  0  0  0  0
  -30.2102  -18.3263   21.4620 C   0  0  0  0  0  0  0  0  0  0  0  0
  -31.0771  -17.3113   19.3968 C   0  0  0  0  0  0  0  0  0  0  0  0
  -28.7529  -31.8894   22.7112 C   0  0  1  0  0  0  0  0  0  0  0  0
  -25.2852  -30.6526   21.7740 C   0  0  1  0  0  0  0  0  0  0  0  0
  -31.2207  -15.9148   20.0400 C   0  0  2  0  0  0  0  0  0  0  0  0
  -29.9844  -22.5722   23.3650 C   0  0  0  0  0  0  0  0  0  0  0  0
  -18.2596  -29.6643   24.8832 C   0  0  0  0  0  0  0  0  0  0  0  0
  -25.4203  -20.8913   23.3208 C   0  0  0  0  0  0  0  0  0  0  0  0
  -32.2795  -21.3760   18.5037 C   0  0  0  0  0  0  0  0  0  0  0  0
  -30.1054  -22.2036   17.5423 C   0  0  0  0  0  0  0  0  0  0  0  0
  -30.5055  -19.7673   17.8352 C   0  0  0  0  0  0  0  0  0  0  0  0
  -27.4682  -20.2996   18.5022 C   0  0  0  0  0  0  0  0  0  0  0  0
  -27.0071  -19.1172   20.6524 C   0  0  0  0  0  0  0  0  0  0  0  0
  -24.6990  -30.2055   26.3366 C   0  0  0  0  0  0  0  0  0  0  0  0
  -22.3723  -29.6504   27.0758 C   0  0  0  0  0  0  0  0  0  0  0  0
  -22.9096  -31.9516   26.2768 C   0  0  0  0  0  0  0  0  0  0  0  0
  -19.2306  -29.1202   21.2449 C   0  0  0  0  0  0  0  0  0  0  0  0
  -26.3873  -22.4003   21.5159 C   0  0  0  0  0  0  0  0  0  0  0  0
  -27.8089  -20.5975   22.6233 C   0  0  0  0  0  0  0  0  0  0  0  0
  -25.6661  -23.7264   21.7309 C   0  0  0  0  0  0  0  0  0  1  0  0
  -22.7875  -30.0569   24.6073 C   0  0  1  0  0  0  0  0  0  0  0  0
  -19.1297  -29.8074   23.6442 C   0  0  2  0  0  0  0  0  0  0  0  0
  -26.6694  -21.6240   22.8179 C   0  0  2  0  0  0  0  0  0  0  0  0
  -30.7291  -21.1596   18.5285 C   0  0  0  0  0  0  0  0  0  0  0  0
  -28.1548  -19.6865   19.7583 C   0  0  0  0  0  0  0  0  0  0  0  0
  -23.2039  -30.4524   26.0522 C   0  0  0  0  0  0  0  0  0  0  0  0
  -29.0352  -14.7814   20.2865 N   0  0  0  0  0  0  0  0  0  0  0  0
  -28.9072  -21.0610   21.6971 N   0  0  0  0  0  0  0  0  0  0  0  0
  -30.1479  -14.9452   19.5508 N   0  0  0  0  0  0  0  0  0  0  0  0
  -24.3385  -29.9989   22.6799 N   0  0  0  0  0  0  0  0  0  0  0  0
  -30.0046  -18.0750   20.0342 N   0  0  0  0  0  0  0  0  0  0  0  0
  -31.2180  -14.2349   17.5606 N   0  0  0  0  0  0  0  0  0  0  0  0
  -27.3421  -11.9168   17.5441 N   0  0  0  0  0  0  0  0  0  0  0  0
  -27.4233  -31.7167   22.1665 N   0  0  0  0  0  0  0  0  0  0  0  0
  -21.3828  -30.3052   24.3012 N   0  0  0  0  0  0  0  0  0  0  0  0
  -18.4923  -29.0472   22.5320 N   0  3  0  0  0  0  0  0  0  0  0  0
  -29.2966  -12.2845   16.4024 O   0  0  0  0  0  0  0  0  0  0  0  0
  -26.9209  -29.6756   23.1687 O   0  0  0  0  0  0  0  0  0  0  0  0
  -23.5354  -32.0235   23.5120 O   0  0  0  0  0  0  0  0  0  0  0  0
  -28.4598  -17.8301   18.3174 O   0  0  0  0  0  0  0  0  0  0  0  0
  -20.8522  -28.1164   23.7490 O   0  0  0  0  0  0  0  0  0  0  0  0
  -23.3423  -12.1607   21.4142 O   0  0  0  0  0  0  0  0  0  0  0  0
  -25.4805  -24.3563   20.4640 O   0  0  0  0  0  0  0  0  0  1  0  0
  -22.2699   -6.7554   21.2228 F   0  0  0  0  0  0  0  0  0  0  0  0
  -22.7600  -10.7478   23.7179 F   0  0  0  0  0  0  0  0  0  0  0  0
  1  2  1  0  0  0  0
  1  5  2  0  0  0  0
  2  6  2  0  0  0  0
  3  8  2  0  0  0  0
  3 16  1  0  0  0  0
  4  9  1  0  0  0  0
  4 16  2  0  0  0  0
  5 18  1  0  0  0  0
  6 20  1  0  0  0  0
  7 10  2  0  0  0  0
  7 19  1  0  0  0  0
  8 23  1  0  0  0  0
  9 23  2  0  0  0  0
 10 24  1  0  0  0  0
 11 12  2  0  0  0  0
 11 25  1  0  0  0  0
 12 26  1  0  0  0  0
 13 21  1  0  0  0  0
 13 24  2  0  0  0  0
 14 22  1  0  0  0  0
 14 29  2  0  0  0  0
 15 26  2  0  0  0  0
 15 27  1  0  0  0  0
 16 28  1  0  0  0  0
 17 28  1  0  0  0  0
 17 31  2  0  0  0  0
 17 32  1  0  0  0  0
 18 20  2  0  0  0  0
 18 37  1  0  0  0  0
 19 21  2  0  0  0  0
 19 38  1  0  0  0  0
 20 46  1  0  0  0  0
 21 39  1  0  0  0  0
 22 30  2  0  0  0  0
 22 67  1  0  0  0  0
 23 85  1  0  0  0  0
 24 86  1  0  0  0  0
 25 27  2  0  0  0  0
 25 85  1  0  0  0  0
 26 87  1  0  0  0  0
 27 88  1  0  0  0  0
 28 70  2  0  0  0  0
 29 49  1  0  0  0  0
 29 71  1  0  0  0  0
 30 68  1  0  0  0  0
 30 71  1  0  0  0  0
 31 72  1  0  0  0  0
 31 75  1  0  0  0  0
 32 76  1  0  0  0  0
 32 80  2  0  0  0  0
 33 47  1  0  0  0  0
 33 77  1  0  0  0  0
 33 81  2  0  0  0  0
 34 64  1  0  0  0  0
 34 73  1  0  0  0  0
 34 82  2  0  0  0  0
 35 68  1  0  0  0  0
 35 74  1  0  0  0  0
 35 83  2  0  0  0  0
 36 65  1  0  0  0  0
 36 78  1  0  0  0  0
 36 84  2  0  0  0  0
 37 40  1  0  0  0  0
 38 47  1  0  0  0  0
 39 73  1  0  0  0  0
 40 42  1  0  0  0  0
 41 43  1  0  0  0  0
 41 44  1  0  0  0  0
 42 46  1  0  0  0  0
 43 48  1  0  0  0  0
 44 74  1  0  0  0  0
 45 48  1  0  0  0  0
 45 74  1  0  0  0  0
 46 77  1  0  0  0  0
 47 73  1  0  0  0  0
 48 72  1  0  0  0  0
 50 65  1  0  0  0  0
 51 66  1  0  0  0  0
 52 67  1  0  0  0  0
 53 67  1  0  0  0  0
 54 67  1  0  0  0  0
 55 68  1  0  0  0  0
 56 68  1  0  0  0  0
 57 69  1  0  0  0  0
 58 69  1  0  0  0  0
 59 69  1  0  0  0  0
 60 79  1  0  0  0  0
 61 63  1  0  0  0  0
 61 66  1  0  0  0  0
 62 66  1  0  0  0  0
 62 71  1  0  0  0  0
 63 86  1  0  0  0  0
 64 69  1  0  0  0  0
 64 78  1  0  0  0  0
 65 79  1  0  0  0  0
 70 72  1  0  0  0  0
M  CHG  1  79   1
M  ISO  4  35 100  63 101  68 100  86 101
M  END
> <Batch ID>
0081

> <Smiles>
CNC(C)C(=O)NC(C(=O)N1Cc2cc([101O:1][101CH2:1]CC(C)Cn3c(C)cc(C(C)(C)C)c3[100C:0](C)(C)[100C:0](=O)N3CCCC(n4nc(-c5ccc(Oc6ccc(F)cc6F)cc5)c(C(N)=O)c4N)C3)ccc2CC1C(=O)NC1CCCc2ccccc21)C(C)(C)C

> <Shape>
0.305

> <Color>
0.056

> <Negative vol penalty>
0.000

$$$$

  -OEChem-04052318463D

 84 92  0     1  0  0  0  0  0999 V2000
  -21.6507  -12.8015   19.4438 C   0  0  0  0  0  0  0  0  0  0  0  0
  -21.6817  -14.0996   19.9431 C   0  0  0  0  0  0  0  0  0  0  0  0
  -29.2636  -25.9642   18.6870 C   0  0  0  0  0  0  0  0  0  0  0  0
  -29.5934  -27.8153   20.2041 C   0  0  0  0  0  0  0  0  0  0  0  0
  -22.7865  -11.9969   19.5260 C   0  0  0  0  0  0  0  0  0  0  0  0
  -22.8481  -14.5936   20.5260 C   0  0  0  0  0  0  0  0  0  0  0  0
  -23.9550  -19.2873   18.9805 C   0  0  0  0  0  0  0  0  0  0  0  0
  -30.5778  -26.0972   18.2389 C   0  0  0  0  0  0  0  0  0  0  0  0
  -30.9077  -27.9482   19.7561 C   0  0  0  0  0  0  0  0  0  0  0  0
  -23.2337  -20.3333   19.5545 C   0  0  0  0  0  0  0  0  0  0  0  0
  -33.7361  -26.1810   16.4385 C   0  0  0  0  0  0  0  0  0  0  0  0
  -33.9625  -26.1279   15.0632 C   0  0  0  0  0  0  0  0  0  0  0  0
  -25.0808  -20.7841   21.0392 C   0  0  0  0  0  0  0  0  0  0  0  0
  -32.5281  -28.0471   14.7529 C   0  0  0  0  0  0  0  0  0  0  0  0
  -18.1980  -23.8405   23.6233 C   0  0  0  0  0  0  0  0  0  0  0  0
  -28.7713  -26.8233   19.6695 C   0  0  0  0  0  0  0  0  0  0  0  0
  -26.9555  -25.8929   21.2009 C   0  0  0  0  0  0  0  0  0  0  0  0
  -23.9704  -12.4846   20.1014 C   0  0  0  0  0  0  0  0  0  0  0  0
  -25.2424  -18.9744   19.4397 C   0  0  0  0  0  0  0  0  0  0  0  0
  -24.0004  -13.7944   20.6172 C   0  0  0  0  0  0  0  0  0  0  0  0
  -25.8173  -19.7353   20.4676 C   0  0  0  0  0  0  0  0  0  0  0  0
  -31.3998  -27.0892   18.7735 C   0  0  0  0  0  0  0  0  0  0  0  0
  -23.7955  -21.0801   20.5860 C   0  0  0  0  0  0  0  0  0  0  0  0
  -32.9056  -27.1672   16.9710 C   0  0  0  0  0  0  0  0  0  0  0  0
  -33.3586  -27.0609   14.2204 C   0  0  0  0  0  0  0  0  0  0  0  0
  -32.3016  -28.1002   16.1282 C   0  0  0  0  0  0  0  0  0  0  0  0
  -27.4137  -26.6868   20.1324 C   0  0  0  0  0  0  0  0  0  0  0  0
  -18.2450  -24.0216   24.9768 C   0  0  0  0  0  0  0  0  0  0  0  0
  -25.5996  -26.1095   21.2328 C   0  0  0  0  0  0  0  0  0  0  0  0
  -19.4092  -25.6485   24.0289 C   0  0  0  0  0  0  0  0  0  0  0  0
  -27.6900  -25.0364   22.0855 C   0  0  0  0  0  0  0  0  0  0  0  0
  -26.5859  -16.4285   20.7879 C   0  0  0  0  0  0  0  0  0  0  0  0
  -29.3043  -18.1642   20.4411 C   0  0  0  0  0  0  0  0  0  0  0  0
  -30.7594  -21.2329   20.1055 C   0  0  0  0  0  0  0  0  0  0  0  0
  -21.2152  -29.5557   21.0173 C   0  0  0  0  0  0  0  0  0  0  0  0
  -25.1583  -11.5617   20.2105 C   0  0  0  0  0  0  0  0  0  0  0  0
  -26.0178  -17.8601   18.7919 C   0  0  0  0  0  0  0  0  0  0  0  0
  -27.2040  -19.4528   20.9830 C   0  0  0  0  0  0  0  0  0  0  0  0
  -26.4685  -12.2875   20.5051 C   0  0  0  0  0  0  0  0  0  0  0  0
  -22.5562  -28.4223   17.9199 C   0  0  0  0  0  0  0  0  0  0  0  0
  -26.2763  -13.3013   21.6285 C   0  0  0  0  0  0  0  0  0  0  0  0
  -23.9037  -27.8103   18.3068 C   0  0  0  0  0  0  0  0  0  0  0  0
  -22.2339  -29.6552   18.7615 C   0  0  0  0  0  0  0  0  0  0  0  0
  -23.6449  -28.8315   20.6065 C   0  0  0  0  0  0  0  0  0  0  0  0
  -25.2544  -14.3745   21.2343 C   0  0  1  0  0  0  0  0  0  0  0  0
  -27.1195  -17.3001   19.6864 C   0  0  1  0  0  0  0  0  0  0  0  0
  -23.9879  -27.5528   19.8233 C   0  0  2  0  0  0  0  0  0  0  0  0
  -17.6579  -23.2529   26.0773 C   0  0  0  0  0  0  0  0  0  0  0  0
  -32.5817  -22.9177   19.7344 C   0  0  0  0  0  0  0  0  0  0  0  0
  -29.8089  -17.7359   23.4197 C   0  0  0  0  0  0  0  0  0  0  0  0
  -31.4817  -19.5967   23.3327 C   0  0  0  0  0  0  0  0  0  0  0  0
  -31.8420  -17.5337   21.9775 C   0  0  0  0  0  0  0  0  0  0  0  0
  -30.4014  -21.1454   17.1690 C   0  0  0  0  0  0  0  0  0  0  0  0
  -20.2467  -26.8617   23.8565 C   0  0  0  0  0  0  0  0  0  0  0  0
  -19.4660  -28.1336   23.4590 C   0  0  0  0  0  0  0  0  0  0  0  0
  -19.7709  -23.8503   20.8810 C   0  0  0  0  0  0  0  0  0  0  0  0
  -21.1836  -23.5365   21.3764 C   0  0  0  0  0  0  0  0  0  0  0  0
  -19.1438  -25.0601   21.5830 C   0  0  0  0  0  0  0  0  0  0  0  0
  -20.3320  -29.3849   23.3303 C   0  0  0  0  0  0  0  0  0  0  0  0
  -21.7868  -22.3524   20.6328 C   0  0  0  0  0  0  0  0  0  1  0  0
  -30.0445  -19.1719   21.2870 C   0  0  1  0  0  0  0  0  0  0  0  0
  -31.8115  -21.7486   19.1404 C   0  0  2  0  0  0  0  0  0  0  0  0
  -30.7674  -18.5139   22.4961 C   0  0  0  0  0  0  0  0  0  0  0  0
  -26.4287  -27.3575   19.5290 N   0  0  0  0  0  0  0  0  0  0  0  0
  -18.9262  -24.8616   23.0619 N   0  0  0  0  0  0  0  0  0  0  0  0
  -25.3381  -26.9855   20.2206 N   0  0  0  0  0  0  0  0  0  0  0  0
  -19.0011  -25.1472   25.1992 N   0  3  0  0  0  0  0  0  0  0  0  0
  -27.9196  -18.3492   20.3217 N   0  0  0  0  0  0  0  0  0  0  0  0
  -22.3299  -29.3432   20.1895 N   0  0  0  0  0  0  0  0  0  0  0  0
  -24.6174  -25.6341   22.0275 N   0  0  0  0  0  0  0  0  0  0  0  0
  -29.0768  -24.9294   21.9134 N   0  0  0  0  0  0  0  0  0  0  0  0
  -25.8566  -15.3425   20.3427 N   0  0  0  0  0  0  0  0  0  0  0  0
  -30.9316  -19.8927   20.3805 N   0  0  0  0  0  0  0  0  0  0  0  0
  -21.3892  -29.2280   22.3564 N   0  0  0  0  0  0  0  0  0  0  0  0
  -31.1734  -22.2021   17.8723 N   0  3  0  0  0  0  0  0  0  0  0  0
  -27.1307  -24.3726   22.9911 O   0  0  0  0  0  0  0  0  0  0  0  0
  -26.8198  -16.7189   21.9552 O   0  0  0  0  0  0  0  0  0  0  0  0
  -29.9326  -17.2507   19.9003 O   0  0  0  0  0  0  0  0  0  0  0  0
  -29.8755  -21.9482   20.5720 O   0  0  0  0  0  0  0  0  0  0  0  0
  -20.1426  -29.9993   20.5934 O   0  0  0  0  0  0  0  0  0  0  0  0
  -32.6824  -27.2191   18.3368 O   0  0  0  0  0  0  0  0  0  0  0  0
  -23.0935  -22.1012   21.1485 O   0  0  0  0  0  0  0  0  0  1  0  0
  -33.5774  -27.0107   12.8999 F   0  0  0  0  0  0  0  0  0  0  0  0
  -31.5037  -29.0506   16.6341 F   0  0  0  0  0  0  0  0  0  0  0  0
  1  2  1  0  0  0  0
  1  5  2  0  0  0  0
  2  6  2  0  0  0  0
  3  8  2  0  0  0  0
  3 16  1  0  0  0  0
  4  9  1  0  0  0  0
  4 16  2  0  0  0  0
  5 18  1  0  0  0  0
  6 20  1  0  0  0  0
  7 10  2  0  0  0  0
  7 19  1  0  0  0  0
  8 22  1  0  0  0  0
  9 22  2  0  0  0  0
 10 23  1  0  0  0  0
 11 12  2  0  0  0  0
 11 24  1  0  0  0  0
 12 25  1  0  0  0  0
 13 21  1  0  0  0  0
 13 23  2  0  0  0  0
 14 25  2  0  0  0  0
 14 26  1  0  0  0  0
 15 28  2  0  0  0  0
 15 65  1  0  0  0  0
 16 27  1  0  0  0  0
 17 27  1  0  0  0  0
 17 29  2  0  0  0  0
 17 31  1  0  0  0  0
 18 20  2  0  0  0  0
 18 36  1  0  0  0  0
 19 21  2  0  0  0  0
 19 37  1  0  0  0  0
 20 45  1  0  0  0  0
 21 38  1  0  0  0  0
 22 81  1  0  0  0  0
 23 82  1  0  0  0  0
 24 26  2  0  0  0  0
 24 81  1  0  0  0  0
 25 83  1  0  0  0  0
 26 84  1  0  0  0  0
 27 64  2  0  0  0  0
 28 48  1  0  0  0  0
 28 67  1  0  0  0  0
 29 66  1  0  0  0  0
 29 70  1  0  0  0  0
 30 54  1  0  0  0  0
 30 65  1  0  0  0  0
 30 67  2  0  0  0  0
 31 71  1  0  0  0  0
 31 76  2  0  0  0  0
 32 46  1  0  0  0  0
 32 72  1  0  0  0  0
 32 77  2  0  0  0  0
 33 61  1  0  0  0  0
 33 68  1  0  0  0  0
 33 78  2  0  0  0  0
 34 62  1  0  0  0  0
 34 73  1  0  0  0  0
 34 79  2  0  0  0  0
 35 69  1  0  0  0  0
 35 74  1  0  0  0  0
 35 80  2  0  0  0  0
 36 39  1  0  0  0  0
 37 46  1  0  0  0  0
 38 68  1  0  0  0  0
 39 41  1  0  0  0  0
 40 42  1  0  0  0  0
 40 43  1  0  0  0  0
 41 45  1  0  0  0  0
 42 47  1  0  0  0  0
 43 69  1  0  0  0  0
 44 47  1  0  0  0  0
 44 69  1  0  0  0  0
 45 72  1  0  0  0  0
 46 68  1  0  0  0  0
 47 66  1  0  0  0  0
 49 62  1  0  0  0  0
 50 63  1  0  0  0  0
 51 63  1  0  0  0  0
 52 63  1  0  0  0  0
 53 75  1  0  0  0  0
 54 55  1  0  0  0  0
 55 59  1  0  0  0  0
 56 57  1  0  0  0  0
 56 58  1  0  0  0  0
 57 60  1  0  0  0  0
 58 65  1  0  0  0  0
 59 74  1  0  0  0  0
 60 82  1  0  0  0  0
 61 63  1  0  0  0  0
 61 73  1  0  0  0  0
 62 75  1  0  0  0  0
 64 66  1  0  0  0  0
M  CHG  2  67   1  75   1
M  ISO  4  35 100  60 101  74 100  82 101
M  END
> <Batch ID>
0081

> <Smiles>
CNC(C)C(=O)NC(C(=O)N1Cc2cc([101O:1][101CH2:1]CCCn3cc(C)nc3CCC[100NH:0][100C:0](=O)N3CCCC(n4nc(-c5ccc(Oc6ccc(F)cc6F)cc5)c(C(N)=O)c4N)C3)ccc2CC1C(=O)NC1CCCc2ccccc21)C(C)(C)C

> <Shape>
0.200

> <Color>
0.067

> <Negative vol penalty>
0.000

$$$$

  -OEChem-04052318463D

 88 96  0     1  0  0  0  0  0999 V2000
  -17.7948  -20.7076   26.3696 C   0  0  0  0  0  0  0  0  0  0  0  0
  -18.7307  -20.7002   25.3403 C   0  0  0  0  0  0  0  0  0  0  0  0
  -23.9138  -12.3664   19.1920 C   0  0  0  0  0  0  0  0  0  0  0  0
  -25.0098  -11.6212   21.2121 C   0  0  0  0  0  0  0  0  0  0  0  0
  -16.9206  -21.7850   26.5077 C   0  0  0  0  0  0  0  0  0  0  0  0
  -18.7921  -21.7697   24.4477 C   0  0  0  0  0  0  0  0  0  0  0  0
  -23.8098  -24.0597   21.7861 C   0  0  0  0  0  0  0  0  0  0  0  0
  -23.7518  -11.0404   18.7907 C   0  0  0  0  0  0  0  0  0  0  0  0
  -24.8477  -10.2952   20.8108 C   0  0  0  0  0  0  0  0  0  0  0  0
  -24.3719  -23.8701   20.5244 C   0  0  0  0  0  0  0  0  0  0  0  0
  -24.4009   -6.7014   20.4888 C   0  0  0  0  0  0  0  0  0  0  0  0
  -23.9512   -5.7856   21.4399 C   0  0  0  0  0  0  0  0  0  0  0  0
  -23.2659  -25.8647   19.7385 C   0  0  0  0  0  0  0  0  0  0  0  0
  -29.2678  -23.1332   18.9123 C   0  0  0  0  0  0  0  0  0  0  0  0
  -21.9258   -7.0724   21.7214 C   0  0  0  0  0  0  0  0  0  0  0  0
  -24.5429  -12.6568   20.4027 C   0  0  0  0  0  0  0  0  0  0  0  0
  -23.8188  -14.7975   21.5863 C   0  0  0  0  0  0  0  0  0  0  0  0
  -16.9779  -22.8727   25.6221 C   0  0  0  0  0  0  0  0  0  0  0  0
  -22.9614  -25.1491   22.0309 C   0  0  0  0  0  0  0  0  0  0  0  0
  -17.9170  -22.8620   24.5732 C   0  0  0  0  0  0  0  0  0  0  0  0
  -22.6963  -26.0673   21.0049 C   0  0  0  0  0  0  0  0  0  0  0  0
  -29.0080  -24.1114   17.9686 C   0  0  0  0  0  0  0  0  0  0  0  0
  -24.2187  -10.0048   19.6001 C   0  0  0  0  0  0  0  0  0  0  0  0
  -24.0977  -24.7711   19.4996 C   0  0  0  0  0  0  0  0  0  0  0  0
  -23.6131   -7.8028   20.1540 C   0  0  0  0  0  0  0  0  0  0  0  0
  -22.7137   -5.9710   22.0562 C   0  0  0  0  0  0  0  0  0  0  0  0
  -22.3755   -7.9883   20.7703 C   0  0  0  0  0  0  0  0  0  0  0  0
  -24.7111  -14.0264   20.8175 C   0  0  0  0  0  0  0  0  0  0  0  0
  -30.1427  -23.4387   19.9353 C   0  0  0  0  0  0  0  0  0  0  0  0
  -29.6401  -25.3303   18.1106 C   0  0  0  0  0  0  0  0  0  0  0  0
  -24.4346  -16.0195   21.7041 C   0  0  0  0  0  0  0  0  0  0  0  0
  -22.5471  -14.4409   22.1442 C   0  0  0  0  0  0  0  0  0  0  0  0
  -19.9188  -25.4733   22.8919 C   0  0  0  0  0  0  0  0  0  0  0  0
  -20.7017  -28.6177   23.0408 C   0  0  0  0  0  0  0  0  0  0  0  0
  -22.7549  -31.1439   22.0163 C   0  0  0  0  0  0  0  0  0  0  0  0
  -28.7190  -19.1345   22.6537 C   0  0  0  0  0  0  0  0  0  0  0  0
  -15.9807  -23.9928   25.7828 C   0  0  0  0  0  0  0  0  0  0  0  0
  -22.3843  -25.3543   23.4047 C   0  0  0  0  0  0  0  0  0  0  0  0
  -21.8082  -27.2642   21.2217 C   0  0  0  0  0  0  0  0  0  0  0  0
  -16.3604  -25.2601   25.0212 C   0  0  0  0  0  0  0  0  0  0  0  0
  -28.4696  -17.9275   19.3441 C   0  0  0  0  0  0  0  0  0  0  0  0
  -16.7923  -24.9189   23.5986 C   0  0  0  0  0  0  0  0  0  0  0  0
  -27.3945  -16.8522   19.4944 C   0  0  0  0  0  0  0  0  0  0  0  0
  -29.4359  -17.9437   20.5301 C   0  0  0  0  0  0  0  0  0  0  0  0
  -27.6910  -16.9798   21.9959 C   0  0  0  0  0  0  0  0  0  0  0  0
  -18.0311  -24.0152   23.5999 C   0  0  1  0  0  0  0  0  0  0  0  0
  -21.1234  -26.2131   23.4009 C   0  0  1  0  0  0  0  0  0  0  0  0
  -26.6716  -16.9821   20.8463 C   0  0  2  0  0  0  0  0  0  0  0  0
  -29.4095  -26.4317   17.1317 C   0  0  0  0  0  0  0  0  0  0  0  0
  -31.9491  -22.4757   21.4078 C   0  0  0  0  0  0  0  0  0  0  0  0
  -23.1236  -33.6121   22.2793 C   0  0  0  0  0  0  0  0  0  0  0  0
  -18.3362  -29.1656   21.1930 C   0  0  0  0  0  0  0  0  0  0  0  0
  -19.3055  -31.4287   20.7378 C   0  0  0  0  0  0  0  0  0  0  0  0
  -18.6104  -30.8143   23.0534 C   0  0  0  0  0  0  0  0  0  0  0  0
  -29.4560  -23.7006   23.0132 C   0  0  0  0  0  0  0  0  0  0  0  0
  -28.0178  -22.1143   21.7345 C   0  0  0  0  0  0  0  0  0  0  0  0
  -31.2227  -19.3995   22.3960 C   0  0  0  0  0  0  0  0  0  0  0  0
  -25.4555  -30.7364   23.1562 C   0  0  0  0  0  0  0  0  0  0  0  0
  -28.0594  -23.8300   16.8308 C   0  0  0  0  0  0  0  0  0  0  0  0
  -26.6814  -24.4724   17.0045 C   0  0  0  0  0  0  0  0  0  0  0  0
  -29.8331  -21.2531   23.2442 C   0  0  0  0  0  0  0  0  0  0  0  0
  -25.9148  -23.9403   18.2096 C   0  0  0  0  0  0  0  0  0  1  0  0
  -30.4568  -22.4202   20.9771 C   0  0  1  0  0  0  0  0  0  0  0  0
  -20.6900  -29.7697   22.0653 C   0  0  1  0  0  0  0  0  0  0  0  0
  -23.4842  -32.2263   22.7914 C   0  0  2  0  0  0  0  0  0  0  0  0
  -19.2508  -30.2710   21.7574 C   0  0  0  0  0  0  0  0  0  0  0  0
  -29.4629  -22.3709   22.2269 C   0  0  0  0  0  0  0  0  0  0  0  0
  -25.8100  -14.7020   20.4712 N   0  0  0  0  0  0  0  0  0  0  0  0
  -30.7473  -24.6402   20.0495 N   0  0  0  0  0  0  0  0  0  0  0  0
  -30.4916  -25.6017   19.1222 N   0  0  0  0  0  0  0  0  0  0  0  0
  -25.6123  -15.9105   21.0248 N   0  0  0  0  0  0  0  0  0  0  0  0
  -21.2627  -27.4180   22.5805 N   0  0  0  0  0  0  0  0  0  0  0  0
  -28.7033  -18.0206   21.8014 N   0  0  0  0  0  0  0  0  0  0  0  0
  -24.0781  -17.1660   22.3213 N   0  0  0  0  0  0  0  0  0  0  0  0
  -22.0625  -13.1438   21.9277 N   0  0  0  0  0  0  0  0  0  0  0  0
  -19.2223  -24.7910   23.8711 N   0  0  0  0  0  0  0  0  0  0  0  0
  -21.5704  -30.7887   22.6264 N   0  0  0  0  0  0  0  0  0  0  0  0
  -29.8829  -19.9178   22.6654 N   0  0  0  0  0  0  0  0  0  0  0  0
  -24.9586  -32.0483   22.6672 N   0  3  0  0  0  0  0  0  0  0  0  0
  -21.8532  -15.2538   22.8010 O   0  0  0  0  0  0  0  0  0  0  0  0
  -19.6409  -25.5194   21.6993 O   0  0  0  0  0  0  0  0  0  0  0  0
  -20.2368  -28.7785   24.1721 O   0  0  0  0  0  0  0  0  0  0  0  0
  -23.1904  -30.6642   20.9718 O   0  0  0  0  0  0  0  0  0  0  0  0
  -27.7495  -19.4108   23.3718 O   0  0  0  0  0  0  0  0  0  0  0  0
  -24.0605   -8.7108   19.2090 O   0  0  0  0  0  0  0  0  0  0  0  0
  -24.6445  -24.5880   18.2670 O   0  0  0  0  0  0  0  0  0  1  0  0
  -22.2813   -5.0906   22.9684 F   0  0  0  0  0  0  0  0  0  0  0  0
  -21.6137   -9.0438   20.4519 F   0  0  0  0  0  0  0  0  0  0  0  0
  1  2  1  0  0  0  0
  1  5  2  0  0  0  0
  2  6  2  0  0  0  0
  3  8  2  0  0  0  0
  3 16  1  0  0  0  0
  4  9  1  0  0  0  0
  4 16  2  0  0  0  0
  5 18  1  0  0  0  0
  6 20  1  0  0  0  0
  7 10  2  0  0  0  0
  7 19  1  0  0  0  0
  8 23  1  0  0  0  0
  9 23  2  0  0  0  0
 10 24  1  0  0  0  0
 11 12  2  0  0  0  0
 11 25  1  0  0  0  0
 12 26  1  0  0  0  0
 13 21  1  0  0  0  0
 13 24  2  0  0  0  0
 14 22  1  0  0  0  0
 14 29  2  0  0  0  0
 15 26  2  0  0  0  0
 15 27  1  0  0  0  0
 16 28  1  0  0  0  0
 17 28  1  0  0  0  0
 17 31  2  0  0  0  0
 17 32  1  0  0  0  0
 18 20  2  0  0  0  0
 18 37  1  0  0  0  0
 19 21  2  0  0  0  0
 19 38  1  0  0  0  0
 20 46  1  0  0  0  0
 21 39  1  0  0  0  0
 22 30  2  0  0  0  0
 22 59  1  0  0  0  0
 23 85  1  0  0  0  0
 24 86  1  0  0  0  0
 25 27  2  0  0  0  0
 25 85  1  0  0  0  0
 26 87  1  0  0  0  0
 27 88  1  0  0  0  0
 28 68  2  0  0  0  0
 29 63  1  0  0  0  0
 29 69  1  0  0  0  0
 30 49  1  0  0  0  0
 30 70  1  0  0  0  0
 31 71  1  0  0  0  0
 31 74  1  0  0  0  0
 32 75  1  0  0  0  0
 32 80  2  0  0  0  0
 33 47  1  0  0  0  0
 33 76  1  0  0  0  0
 33 81  2  0  0  0  0
 34 64  1  0  0  0  0
 34 72  1  0  0  0  0
 34 82  2  0  0  0  0
 35 65  1  0  0  0  0
 35 77  1  0  0  0  0
 35 83  2  0  0  0  0
 36 73  1  0  0  0  0
 36 78  1  0  0  0  0
 36 84  2  0  0  0  0
 37 40  1  0  0  0  0
 38 47  1  0  0  0  0
 39 72  1  0  0  0  0
 40 42  1  0  0  0  0
 41 43  1  0  0  0  0
 41 44  1  0  0  0  0
 42 46  1  0  0  0  0
 43 48  1  0  0  0  0
 44 73  1  0  0  0  0
 45 48  1  0  0  0  0
 45 73  1  0  0  0  0
 46 76  1  0  0  0  0
 47 72  1  0  0  0  0
 48 71  1  0  0  0  0
 50 63  1  0  0  0  0
 51 65  1  0  0  0  0
 52 66  1  0  0  0  0
 53 66  1  0  0  0  0
 54 66  1  0  0  0  0
 55 67  1  0  0  0  0
 56 67  1  0  0  0  0
 57 78  1  0  0  0  0
 58 79  1  0  0  0  0
 59 60  1  0  0  0  0
 60 62  1  0  0  0  0
 61 67  1  0  0  0  0
 61 78  1  0  0  0  0
 62 86  1  0  0  0  0
 63 67  1  0  0  0  0
 64 66  1  0  0  0  0
 64 77  1  0  0  0  0
 65 79  1  0  0  0  0
 68 71  1  0  0  0  0
 69 70  2  0  0  0  0
M  CHG  1  79   1
M  ISO  4  36 100  62 101  78 100  86 101
M  END
> <Batch ID>
0081

> <Smiles>
CNC(C)C(=O)NC(C(=O)N1Cc2cc([101O:1][101CH2:1]CCc3cc(C(C)C(C)(C)C[100N:0](C)[100C:0](=O)N4CCCC(n5nc(-c6ccc(Oc7ccc(F)cc7F)cc6)c(C(N)=O)c5N)C4)nnc3C)ccc2CC1C(=O)NC1CCCc2ccccc21)C(C)(C)C

> <Shape>
0.237

> <Color>
0.054

> <Negative vol penalty>
0.000

$$$$

  -OEChem-04052318463D

 85 93  0     1  0  0  0  0  0999 V2000
  -29.1169  -12.0936   19.5199 C   0  0  0  0  0  0  0  0  0  0  0  0
  -29.0372  -13.4824   19.5120 C   0  0  0  0  0  0  0  0  0  0  0  0
  -28.6466  -25.3982   19.2347 C   0  0  0  0  0  0  0  0  0  0  0  0
  -27.1476  -24.1858   20.6908 C   0  0  0  0  0  0  0  0  0  0  0  0
  -27.9882  -11.3333   19.8229 C   0  0  0  0  0  0  0  0  0  0  0  0
  -27.8282  -14.1119   19.8061 C   0  0  0  0  0  0  0  0  0  0  0  0
  -25.2205  -20.0394   22.8690 C   0  0  0  0  0  0  0  0  0  0  0  0
  -29.6640  -24.4893   19.5252 C   0  0  0  0  0  0  0  0  0  0  0  0
  -28.1650  -23.2768   20.9812 C   0  0  0  0  0  0  0  0  0  0  0  0
  -24.3444  -21.0916   22.6059 C   0  0  0  0  0  0  0  0  0  0  0  0
  -29.6107  -20.6032   19.5040 C   0  0  0  0  0  0  0  0  0  0  0  0
  -29.2883  -19.2462   19.4912 C   0  0  0  0  0  0  0  0  0  0  0  0
  -22.4799  -19.6779   23.1925 C   0  0  0  0  0  0  0  0  0  0  0  0
  -29.9378  -19.0701   21.8116 C   0  0  0  0  0  0  0  0  0  0  0  0
  -19.7321  -27.2676   23.7260 C   0  0  0  0  0  0  0  0  0  0  0  0
  -27.3884  -25.2465   19.8176 C   0  0  0  0  0  0  0  0  0  0  0  0
  -25.3934  -26.1016   18.4772 C   0  0  0  0  0  0  0  0  0  0  0  0
  -26.7671  -11.9540   20.1304 C   0  0  0  0  0  0  0  0  0  0  0  0
  -24.7312  -18.7932   23.2860 C   0  0  0  0  0  0  0  0  0  0  0  0
  -26.6817  -13.3592   20.1123 C   0  0  0  0  0  0  0  0  0  0  0  0
  -23.3520  -18.6123   23.4627 C   0  0  0  0  0  0  0  0  0  0  0  0
  -19.5603  -26.5534   22.5654 C   0  0  0  0  0  0  0  0  0  0  0  0
  -29.4231  -23.4286   20.3984 C   0  0  0  0  0  0  0  0  0  0  0  0
  -22.9737  -20.9101   22.7649 C   0  0  0  0  0  0  0  0  0  0  0  0
  -30.0967  -21.1937   20.6706 C   0  0  0  0  0  0  0  0  0  0  0  0
  -29.4518  -18.4797   20.6450 C   0  0  0  0  0  0  0  0  0  0  0  0
  -30.2602  -20.4271   21.8244 C   0  0  0  0  0  0  0  0  0  0  0  0
  -26.3373  -26.1855   19.5184 C   0  0  0  0  0  0  0  0  0  0  0  0
  -19.8215  -27.4812   21.5394 C   0  0  0  0  0  0  0  0  0  0  0  0
  -24.6215  -27.2284   18.6220 C   0  0  0  0  0  0  0  0  0  0  0  0
  -25.2292  -25.0952   17.4694 C   0  0  0  0  0  0  0  0  0  0  0  0
  -24.8064  -15.8438   22.1031 C   0  0  0  0  0  0  0  0  0  0  0  0
  -23.4374  -15.0875   24.9450 C   0  0  0  0  0  0  0  0  0  0  0  0
  -21.5998  -16.1007   27.6363 C   0  0  0  0  0  0  0  0  0  0  0  0
  -23.3604  -30.7321   23.3108 C   0  0  0  0  0  0  0  0  0  0  0  0
  -25.5624  -11.0894   20.4055 C   0  0  0  0  0  0  0  0  0  0  0  0
  -25.6912  -17.6763   23.5914 C   0  0  0  0  0  0  0  0  0  0  0  0
  -22.7774  -17.3000   23.9277 C   0  0  0  0  0  0  0  0  0  0  0  0
  -24.4131  -11.8407   21.0726 C   0  0  0  0  0  0  0  0  0  0  0  0
  -24.8320  -31.7309   20.2265 C   0  0  0  0  0  0  0  0  0  0  0  0
  -24.1627  -13.1694   20.3666 C   0  0  0  0  0  0  0  0  0  0  0  0
  -25.2995  -30.4153   19.6013 C   0  0  0  0  0  0  0  0  0  0  0  0
  -25.0016  -31.7261   21.7441 C   0  0  0  0  0  0  0  0  0  0  0  0
  -24.8420  -29.2677   21.8086 C   0  0  0  0  0  0  0  0  0  0  0  0
  -25.3942  -14.0793   20.4503 C   0  0  1  0  0  0  0  0  0  0  0  0
  -25.0457  -16.2961   23.5158 C   0  0  1  0  0  0  0  0  0  0  0  0
  -24.6386  -29.2034   20.2852 C   0  0  2  0  0  0  0  0  0  0  0  0
  -18.4897  -27.6220   17.9184 C   0  0  0  0  0  0  0  0  0  0  0  0
  -20.6093  -15.2484   29.7787 C   0  0  0  0  0  0  0  0  0  0  0  0
  -21.2230  -13.7027   23.3674 C   0  0  0  0  0  0  0  0  0  0  0  0
  -19.8284  -13.7173   25.4466 C   0  0  0  0  0  0  0  0  0  0  0  0
  -21.9851  -12.4646   25.4023 C   0  0  0  0  0  0  0  0  0  0  0  0
  -23.1988  -17.9876   29.2617 C   0  0  0  0  0  0  0  0  0  0  0  0
  -19.1772  -25.1010   22.4338 C   0  0  0  0  0  0  0  0  0  0  0  0
  -19.7829  -27.2532   20.0842 C   0  0  0  0  0  0  0  0  0  0  0  0
  -18.5097  -27.8241   19.4253 C   0  0  0  0  0  0  0  0  0  0  0  0
  -20.3485  -24.1822   22.0688 C   0  0  0  0  0  0  0  0  0  0  0  0
  -21.4398  -24.1494   23.1398 C   0  0  0  0  0  0  0  0  0  0  0  0
  -20.3542  -29.6460   24.2111 C   0  0  0  0  0  0  0  0  0  0  0  0
  -21.7535  -29.5897   24.8183 C   0  0  0  0  0  0  0  0  0  0  0  0
  -22.6033  -23.2590   22.7252 C   0  0  0  0  0  0  0  0  0  1  0  0
  -22.0206  -14.9920   25.4573 C   0  0  1  0  0  0  0  0  0  0  0  0
  -21.8114  -15.9149   29.1280 C   0  0  2  0  0  0  0  0  0  0  0  0
  -21.2746  -13.7434   24.9078 C   0  0  0  0  0  0  0  0  0  0  0  0
  -26.1811  -27.2792   20.2690 N   0  0  0  0  0  0  0  0  0  0  0  0
  -20.1352  -28.6924   22.0070 N   0  0  0  0  0  0  0  0  0  0  0  0
  -20.0722  -28.5306   23.3396 N   0  0  0  0  0  0  0  0  0  0  0  0
  -25.1302  -27.8929   19.6989 N   0  0  0  0  0  0  0  0  0  0  0  0
  -23.7563  -16.2365   24.2074 N   0  0  0  0  0  0  0  0  0  0  0  0
  -24.3508  -30.5523   22.3312 N   0  0  0  0  0  0  0  0  0  0  0  0
  -23.5639  -27.7056   17.9319 N   0  0  0  0  0  0  0  0  0  0  0  0
  -26.1088  -24.0040   17.4652 N   0  0  0  0  0  0  0  0  0  0  0  0
  -25.4838  -14.6894   21.7596 N   0  0  0  0  0  0  0  0  0  0  0  0
  -22.1085  -15.0430   26.9127 N   0  0  0  0  0  0  0  0  0  0  0  0
  -22.7900  -29.5676   23.8103 N   0  0  0  0  0  0  0  0  0  0  0  0
  -22.0325  -17.2327   29.7879 N   0  3  0  0  0  0  0  0  0  0  0  0
  -24.3393  -25.1698   16.5884 O   0  0  0  0  0  0  0  0  0  0  0  0
  -24.0612  -16.4932   21.3788 O   0  0  0  0  0  0  0  0  0  0  0  0
  -24.2338  -14.1797   25.1962 O   0  0  0  0  0  0  0  0  0  0  0  0
  -21.0360  -17.0839   27.1609 O   0  0  0  0  0  0  0  0  0  0  0  0
  -23.0065  -31.8478   23.7069 O   0  0  0  0  0  0  0  0  0  0  0  0
  -30.4156  -22.5412   20.6819 O   0  0  0  0  0  0  0  0  0  0  0  0
  -22.1164  -21.9353   22.5081 O   0  0  0  0  0  0  0  0  0  1  0  0
  -29.1408  -17.1769   20.6330 F   0  0  0  0  0  0  0  0  0  0  0  0
  -30.7256  -20.9891   22.9484 F   0  0  0  0  0  0  0  0  0  0  0  0
  1  2  1  0  0  0  0
  1  5  2  0  0  0  0
  2  6  2  0  0  0  0
  3  8  2  0  0  0  0
  3 16  1  0  0  0  0
  4  9  1  0  0  0  0
  4 16  2  0  0  0  0
  5 18  1  0  0  0  0
  6 20  1  0  0  0  0
  7 10  2  0  0  0  0
  7 19  1  0  0  0  0
  8 23  1  0  0  0  0
  9 23  2  0  0  0  0
 10 24  1  0  0  0  0
 11 12  2  0  0  0  0
 11 25  1  0  0  0  0
 12 26  1  0  0  0  0
 13 21  1  0  0  0  0
 13 24  2  0  0  0  0
 14 26  2  0  0  0  0
 14 27  1  0  0  0  0
 15 22  2  0  0  0  0
 15 67  1  0  0  0  0
 16 28  1  0  0  0  0
 17 28  1  0  0  0  0
 17 30  2  0  0  0  0
 17 31  1  0  0  0  0
 18 20  2  0  0  0  0
 18 36  1  0  0  0  0
 19 21  2  0  0  0  0
 19 37  1  0  0  0  0
 20 45  1  0  0  0  0
 21 38  1  0  0  0  0
 22 29  1  0  0  0  0
 22 54  1  0  0  0  0
 23 82  1  0  0  0  0
 24 83  1  0  0  0  0
 25 27  2  0  0  0  0
 25 82  1  0  0  0  0
 26 84  1  0  0  0  0
 27 85  1  0  0  0  0
 28 65  2  0  0  0  0
 29 55  1  0  0  0  0
 29 66  2  0  0  0  0
 30 68  1  0  0  0  0
 30 71  1  0  0  0  0
 31 72  1  0  0  0  0
 31 77  2  0  0  0  0
 32 46  1  0  0  0  0
 32 73  1  0  0  0  0
 32 78  2  0  0  0  0
 33 62  1  0  0  0  0
 33 69  1  0  0  0  0
 33 79  2  0  0  0  0
 34 63  1  0  0  0  0
 34 74  1  0  0  0  0
 34 80  2  0  0  0  0
 35 70  1  0  0  0  0
 35 75  1  0  0  0  0
 35 81  2  0  0  0  0
 36 39  1  0  0  0  0
 37 46  1  0  0  0  0
 38 69  1  0  0  0  0
 39 41  1  0  0  0  0
 40 42  1  0  0  0  0
 40 43  1  0  0  0  0
 41 45  1  0  0  0  0
 42 47  1  0  0  0  0
 43 70  1  0  0  0  0
 44 47  1  0  0  0  0
 44 70  1  0  0  0  0
 45 73  1  0  0  0  0
 46 69  1  0  0  0  0
 47 68  1  0  0  0  0
 48 56  1  0  0  0  0
 49 63  1  0  0  0  0
 50 64  1  0  0  0  0
 51 64  1  0  0  0  0
 52 64  1  0  0  0  0
 53 76  1  0  0  0  0
 54 57  1  0  0  0  0
 55 56  1  0  0  0  0
 57 58  1  0  0  0  0
 58 61  1  0  0  0  0
 59 60  1  0  0  0  0
 59 67  1  0  0  0  0
 60 75  1  0  0  0  0
 61 83  1  0  0  0  0
 62 64  1  0  0  0  0
 62 74  1  0  0  0  0
 63 76  1  0  0  0  0
 65 68  1  0  0  0  0
 66 67  1  0  0  0  0
M  CHG  1  76   1
M  ISO  4  35 100  61 101  75 100  83 101
M  END
> <Batch ID>
0081

> <Smiles>
CCCc1nn(CC[100NH:0][100C:0](=O)N2CCCC(n3nc(-c4ccc(Oc5ccc(F)cc5F)cc4)c(C(N)=O)c3N)C2)cc1CCC[101CH2:1][101O:1]c1ccc2c(c1)CN(C(=O)C(NC(=O)C(C)NC)C(C)(C)C)C(C(=O)NC1CCCc3ccccc31)C2

> <Shape>
0.229

> <Color>
0.071

> <Negative vol penalty>
0.000

$$$$

  -OEChem-04052318463D

 83 91  0     1  0  0  0  0  0999 V2000
  -31.1300  -19.6964   26.1542 C   0  0  0  0  0  0  0  0  0  0  0  0
  -30.7887  -18.3478   26.1626 C   0  0  0  0  0  0  0  0  0  0  0  0
  -23.2888   -9.7996   19.9126 C   0  0  0  0  0  0  0  0  0  0  0  0
  -23.7392   -9.9396   22.2821 C   0  0  0  0  0  0  0  0  0  0  0  0
  -30.4086  -20.6017   26.9314 C   0  0  0  0  0  0  0  0  0  0  0  0
  -29.7264  -17.9034   26.9490 C   0  0  0  0  0  0  0  0  0  0  0  0
  -26.6952  -14.6842   24.4805 C   0  0  0  0  0  0  0  0  0  0  0  0
  -22.5624   -8.6270   20.1199 C   0  0  0  0  0  0  0  0  0  0  0  0
  -23.0128   -8.7670   22.4894 C   0  0  0  0  0  0  0  0  0  0  0  0
  -27.1372  -13.3687   24.3471 C   0  0  0  0  0  0  0  0  0  0  0  0
  -20.9736   -6.0065   23.6892 C   0  0  0  0  0  0  0  0  0  0  0  0
  -20.0719   -5.9808   24.7530 C   0  0  0  0  0  0  0  0  0  0  0  0
  -25.7207  -12.7127   26.1863 C   0  0  0  0  0  0  0  0  0  0  0  0
  -31.5283  -10.7561   26.3346 C   0  0  0  0  0  0  0  0  0  0  0  0
  -18.8624   -7.8282   23.7723 C   0  0  0  0  0  0  0  0  0  0  0  0
  -30.2307   -9.8443   24.7363 C   0  0  0  0  0  0  0  0  0  0  0  0
  -23.8772  -10.4559   20.9937 C   0  0  0  0  0  0  0  0  0  0  0  0
  -24.1366  -12.9860   20.7958 C   0  0  0  0  0  0  0  0  0  0  0  0
  -29.3308  -20.1698   27.7203 C   0  0  0  0  0  0  0  0  0  0  0  0
  -25.7692  -15.0265   25.4765 C   0  0  0  0  0  0  0  0  0  0  0  0
  -28.9907  -18.8036   27.7385 C   0  0  0  0  0  0  0  0  0  0  0  0
  -25.2666  -14.0327   26.3286 C   0  0  0  0  0  0  0  0  0  0  0  0
  -31.4552  -10.4354   24.9566 C   0  0  0  0  0  0  0  0  0  0  0  0
  -22.4244   -8.1107   21.4083 C   0  0  0  0  0  0  0  0  0  0  0  0
  -26.6521  -12.3832   25.2019 C   0  0  0  0  0  0  0  0  0  0  0  0
  -20.8198   -6.9430   22.6669 C   0  0  0  0  0  0  0  0  0  0  0  0
  -19.0162   -6.8917   24.7946 C   0  0  0  0  0  0  0  0  0  0  0  0
  -19.7642   -7.8538   22.7085 C   0  0  0  0  0  0  0  0  0  0  0  0
  -24.6282  -11.6669   20.7801 C   0  0  0  0  0  0  0  0  0  0  0  0
  -30.3463  -10.3510   26.9145 C   0  0  0  0  0  0  0  0  0  0  0  0
  -25.2380  -13.7660   20.5412 C   0  0  0  0  0  0  0  0  0  0  0  0
  -22.8035  -13.4635   21.0206 C   0  0  0  0  0  0  0  0  0  0  0  0
  -25.8030  -16.9541   28.0037 C   0  0  0  0  0  0  0  0  0  0  0  0
  -22.6665  -16.1444   28.1748 C   0  0  0  0  0  0  0  0  0  0  0  0
  -20.2088  -13.8990   27.4235 C   0  0  0  0  0  0  0  0  0  0  0  0
  -31.1090  -12.9229   21.3614 C   0  0  0  0  0  0  0  0  0  0  0  0
  -28.6107  -21.1781   28.5802 C   0  0  0  0  0  0  0  0  0  0  0  0
  -25.2822  -16.4450   25.5901 C   0  0  0  0  0  0  0  0  0  0  0  0
  -24.2561  -14.3445   27.4010 C   0  0  0  0  0  0  0  0  0  0  0  0
  -27.2615  -20.6850   29.0968 C   0  0  0  0  0  0  0  0  0  0  0  0
  -29.4605  -13.6631   18.2937 C   0  0  0  0  0  0  0  0  0  0  0  0
  -27.3869  -19.2693   29.6508 C   0  0  0  0  0  0  0  0  0  0  0  0
  -27.9907  -13.3545   18.5844 C   0  0  0  0  0  0  0  0  0  0  0  0
  -30.3937  -12.6835   19.0019 C   0  0  0  0  0  0  0  0  0  0  0  0
  -28.7068  -12.2536   20.7464 C   0  0  0  0  0  0  0  0  0  0  0  0
  -27.8291  -18.2870   28.5595 C   0  0  1  0  0  0  0  0  0  0  0  0
  -24.7258  -16.7770   26.9713 C   0  0  1  0  0  0  0  0  0  0  0  0
  -27.7289  -13.2490   20.0989 C   0  0  2  0  0  0  0  0  0  0  0  0
  -29.8984  -10.4455   28.3193 C   0  0  0  0  0  0  0  0  0  0  0  0
  -33.7940   -9.8896   24.2328 C   0  0  0  0  0  0  0  0  0  0  0  0
  -17.7513  -13.4928   27.7285 C   0  0  0  0  0  0  0  0  0  0  0  0
  -23.1626  -15.3346   31.0745 C   0  0  0  0  0  0  0  0  0  0  0  0
  -20.9930  -14.0862   31.0240 C   0  0  0  0  0  0  0  0  0  0  0  0
  -21.0161  -16.5575   30.6856 C   0  0  0  0  0  0  0  0  0  0  0  0
  -19.7260  -13.9135   24.5036 C   0  0  0  0  0  0  0  0  0  0  0  0
  -32.8742  -12.1935   23.7579 C   0  0  0  0  0  0  0  0  0  0  0  0
  -28.1830   -9.2222   26.1231 C   0  0  0  0  0  0  0  0  0  0  0  0
  -31.6705  -13.1360   23.7694 C   0  0  0  0  0  0  0  0  0  0  0  0
  -27.1178  -10.3047   26.2596 C   0  0  0  0  0  0  0  0  0  1  0  0
  -32.4974  -10.6878   23.9433 C   0  0  2  0  0  0  0  0  0  0  0  0
  -21.8810  -15.0473   28.8517 C   0  0  1  0  0  0  0  0  0  0  0  0
  -18.8249  -14.0823   26.8271 C   0  0  2  0  0  0  0  0  0  0  0  0
  -21.7837  -15.2506   30.3901 C   0  0  0  0  0  0  0  0  0  0  0  0
  -25.9398  -11.6084   20.5347 N   0  0  0  0  0  0  0  0  0  0  0  0
  -29.5654   -9.7980   25.9335 N   0  0  0  0  0  0  0  0  0  0  0  0
  -26.2817  -12.9004   20.3938 N   0  0  0  0  0  0  0  0  0  0  0  0
  -23.8154  -15.7472   27.4763 N   0  0  0  0  0  0  0  0  0  0  0  0
  -30.0942  -12.6317   20.4349 N   0  0  0  0  0  0  0  0  0  0  0  0
  -25.4060  -15.1009   20.4312 N   0  0  0  0  0  0  0  0  0  0  0  0
  -21.7909  -12.5265   21.2676 N   0  0  0  0  0  0  0  0  0  0  0  0
  -26.7136  -17.9486   27.7019 N   0  0  0  0  0  0  0  0  0  0  0  0
  -20.5905  -14.9912   28.1736 N   0  0  0  0  0  0  0  0  0  0  0  0
  -30.7391  -12.8570   22.6992 N   0  0  0  0  0  0  0  0  0  0  0  0
  -18.7413  -13.4142   25.4976 N   0  3  0  0  0  0  0  0  0  0  0  0
  -22.5155  -14.6839   20.9866 O   0  0  0  0  0  0  0  0  0  0  0  0
  -25.8068  -16.2422   29.0012 O   0  0  0  0  0  0  0  0  0  0  0  0
  -22.2712  -17.3100   28.2567 O   0  0  0  0  0  0  0  0  0  0  0  0
  -20.8822  -12.8864   27.2452 O   0  0  0  0  0  0  0  0  0  0  0  0
  -32.2580  -13.2248   21.0215 O   0  0  0  0  0  0  0  0  0  0  0  0
  -21.7155   -6.9666   21.6110 O   0  0  0  0  0  0  0  0  0  0  0  0
  -27.0824  -11.0985   25.0743 O   0  0  0  0  0  0  0  0  0  1  0  0
  -18.1495   -6.8660   25.8155 F   0  0  0  0  0  0  0  0  0  0  0  0
  -19.6107   -8.7551   21.7287 F   0  0  0  0  0  0  0  0  0  0  0  0
  1  2  1  0  0  0  0
  1  5  2  0  0  0  0
  2  6  2  0  0  0  0
  3  8  2  0  0  0  0
  3 17  1  0  0  0  0
  4  9  1  0  0  0  0
  4 17  2  0  0  0  0
  5 19  1  0  0  0  0
  6 21  1  0  0  0  0
  7 10  2  0  0  0  0
  7 20  1  0  0  0  0
  8 24  1  0  0  0  0
  9 24  2  0  0  0  0
 10 25  1  0  0  0  0
 11 12  2  0  0  0  0
 11 26  1  0  0  0  0
 12 27  1  0  0  0  0
 13 22  1  0  0  0  0
 13 25  2  0  0  0  0
 14 23  1  0  0  0  0
 14 30  2  0  0  0  0
 15 27  2  0  0  0  0
 15 28  1  0  0  0  0
 16 23  2  0  0  0  0
 16 65  1  0  0  0  0
 17 29  1  0  0  0  0
 18 29  1  0  0  0  0
 18 31  2  0  0  0  0
 18 32  1  0  0  0  0
 19 21  2  0  0  0  0
 19 37  1  0  0  0  0
 20 22  2  0  0  0  0
 20 38  1  0  0  0  0
 21 46  1  0  0  0  0
 22 39  1  0  0  0  0
 23 60  1  0  0  0  0
 24 80  1  0  0  0  0
 25 81  1  0  0  0  0
 26 28  2  0  0  0  0
 26 80  1  0  0  0  0
 27 82  1  0  0  0  0
 28 83  1  0  0  0  0
 29 64  2  0  0  0  0
 30 49  1  0  0  0  0
 30 65  1  0  0  0  0
 31 66  1  0  0  0  0
 31 69  1  0  0  0  0
 32 70  1  0  0  0  0
 32 75  2  0  0  0  0
 33 47  1  0  0  0  0
 33 71  1  0  0  0  0
 33 76  2  0  0  0  0
 34 61  1  0  0  0  0
 34 67  1  0  0  0  0
 34 77  2  0  0  0  0
 35 62  1  0  0  0  0
 35 72  1  0  0  0  0
 35 78  2  0  0  0  0
 36 68  1  0  0  0  0
 36 73  1  0  0  0  0
 36 79  2  0  0  0  0
 37 40  1  0  0  0  0
 38 47  1  0  0  0  0
 39 67  1  0  0  0  0
 40 42  1  0  0  0  0
 41 43  1  0  0  0  0
 41 44  1  0  0  0  0
 42 46  1  0  0  0  0
 43 48  1  0  0  0  0
 44 68  1  0  0  0  0
 45 48  1  0  0  0  0
 45 68  1  0  0  0  0
 46 71  1  0  0  0  0
 47 67  1  0  0  0  0
 48 66  1  0  0  0  0
 50 60  1  0  0  0  0
 51 62  1  0  0  0  0
 52 63  1  0  0  0  0
 53 63  1  0  0  0  0
 54 63  1  0  0  0  0
 55 74  1  0  0  0  0
 56 58  1  0  0  0  0
 56 60  1  0  0  0  0
 57 59  1  0  0  0  0
 57 65  1  0  0  0  0
 58 73  1  0  0  0  0
 59 81  1  0  0  0  0
 61 63  1  0  0  0  0
 61 72  1  0  0  0  0
 62 74  1  0  0  0  0
 64 66  1  0  0  0  0
M  CHG  1  74   1
M  ISO  4  36 100  59 101  73 100  81 101
M  END
> <Batch ID>
0081

> <Smiles>
CNC(C)C(=O)NC(C(=O)N1Cc2cc([101O:1][101CH2:1]Cn3cc(C(C)CC[100NH:0][100C:0](=O)N4CCCC(n5nc(-c6ccc(Oc7ccc(F)cc7F)cc6)c(C(N)=O)c5N)C4)cc3C)ccc2CC1C(=O)NC1CCCc2ccccc21)C(C)(C)C

> <Shape>
0.129

> <Color>
0.178

> <Negative vol penalty>
0.000

$$$$

  -OEChem-04052318463D

 83 91  0     1  0  0  0  0  0999 V2000
  -18.7032  -32.7070   19.7590 C   0  0  0  0  0  0  0  0  0  0  0  0
  -19.9789  -32.2754   19.4099 C   0  0  0  0  0  0  0  0  0  0  0  0
  -27.8222  -17.3465   20.3575 C   0  0  0  0  0  0  0  0  0  0  0  0
  -30.0325  -18.1604   20.8953 C   0  0  0  0  0  0  0  0  0  0  0  0
  -18.2420  -32.5321   21.0631 C   0  0  0  0  0  0  0  0  0  0  0  0
  -20.7945  -31.6697   20.3650 C   0  0  0  0  0  0  0  0  0  0  0  0
  -24.8282  -27.1567   19.4330 C   0  0  0  0  0  0  0  0  0  0  0  0
  -28.2295  -16.0455   20.6521 C   0  0  0  0  0  0  0  0  0  0  0  0
  -30.4398  -16.8593   21.1899 C   0  0  0  0  0  0  0  0  0  0  0  0
  -26.2109  -27.1565   19.2549 C   0  0  0  0  0  0  0  0  0  0  0  0
  -28.7901  -12.4623   20.9173 C   0  0  0  0  0  0  0  0  0  0  0  0
  -28.4240  -11.4500   20.0304 C   0  0  0  0  0  0  0  0  0  0  0  0
  -26.5071  -26.6905   21.6032 C   0  0  0  0  0  0  0  0  0  0  0  0
  -31.3244  -27.0225   18.5849 C   0  0  0  0  0  0  0  0  0  0  0  0
  -29.6233  -12.5698   18.2571 C   0  0  0  0  0  0  0  0  0  0  0  0
  -28.7236  -18.4040   20.4790 C   0  0  0  0  0  0  0  0  0  0  0  0
  -27.7426  -20.6855   21.0624 C   0  0  0  0  0  0  0  0  0  0  0  0
  -19.0488  -31.9152   22.0323 C   0  0  0  0  0  0  0  0  0  0  0  0
  -24.2738  -26.9342   20.7017 C   0  0  0  0  0  0  0  0  0  0  0  0
  -20.3442  -31.4876   21.6836 C   0  0  0  0  0  0  0  0  0  0  0  0
  -25.1169  -26.6858   21.7942 C   0  0  0  0  0  0  0  0  0  0  0  0
  -31.3064  -26.9263   19.9652 C   0  0  0  0  0  0  0  0  0  0  0  0
  -29.5383  -15.8018   21.0683 C   0  0  0  0  0  0  0  0  0  0  0  0
  -27.0507  -26.9262   20.3407 C   0  0  0  0  0  0  0  0  0  0  0  0
  -29.5728  -13.5285   20.4741 C   0  0  0  0  0  0  0  0  0  0  0  0
  -28.8406  -11.5037   18.7003 C   0  0  0  0  0  0  0  0  0  0  0  0
  -29.9894  -13.5822   19.1440 C   0  0  0  0  0  0  0  0  0  0  0  0
  -28.3036  -19.7482   20.1743 C   0  0  0  0  0  0  0  0  0  0  0  0
  -32.0617  -26.0910   17.8819 C   0  0  0  0  0  0  0  0  0  0  0  0
  -32.0267  -25.9048   20.5512 C   0  0  0  0  0  0  0  0  0  0  0  0
  -27.5210  -21.7998   20.2906 C   0  0  0  0  0  0  0  0  0  0  0  0
  -27.4482  -20.5601   22.4600 C   0  0  0  0  0  0  0  0  0  0  0  0
  -22.4628  -28.6316   22.6873 C   0  0  0  0  0  0  0  0  0  0  0  0
  -22.4336  -25.8744   24.3960 C   0  0  0  0  0  0  0  0  0  0  0  0
  -23.9517  -22.9092   25.1375 C   0  0  0  0  0  0  0  0  0  0  0  0
  -30.0245  -23.8280   15.2438 C   0  0  0  0  0  0  0  0  0  0  0  0
  -18.5247  -31.7908   23.4410 C   0  0  0  0  0  0  0  0  0  0  0  0
  -22.7795  -26.9111   20.8720 C   0  0  0  0  0  0  0  0  0  0  0  0
  -24.5714  -26.4215   23.1729 C   0  0  0  0  0  0  0  0  0  0  0  0
  -19.3103  -30.8016   24.2980 C   0  0  0  0  0  0  0  0  0  0  0  0
  -26.5800  -23.1079   15.7857 C   0  0  0  0  0  0  0  0  0  0  0  0
  -20.8100  -31.0293   24.1369 C   0  0  0  0  0  0  0  0  0  0  0  0
  -26.5805  -22.2497   17.0520 C   0  0  0  0  0  0  0  0  0  0  0  0
  -27.7909  -22.8125   14.9033 C   0  0  0  0  0  0  0  0  0  0  0  0
  -29.0947  -22.0549   16.8526 C   0  0  0  0  0  0  0  0  0  0  0  0
  -21.2494  -30.8038   22.6852 C   0  0  1  0  0  0  0  0  0  0  0  0
  -22.3373  -27.1835   22.3064 C   0  0  1  0  0  0  0  0  0  0  0  0
  -27.9222  -22.3570   17.8014 C   0  0  2  0  0  0  0  0  0  0  0  0
  -32.0547  -25.7391   22.0331 C   0  0  0  0  0  0  0  0  0  0  0  0
  -33.2349  -27.0866   15.8928 C   0  0  0  0  0  0  0  0  0  0  0  0
  -23.7112  -20.8848   26.6008 C   0  0  0  0  0  0  0  0  0  0  0  0
  -23.3919  -27.4977   26.7952 C   0  0  0  0  0  0  0  0  0  0  0  0
  -24.0336  -25.3475   27.9055 C   0  0  0  0  0  0  0  0  0  0  0  0
  -21.6477  -25.7853   27.3239 C   0  0  0  0  0  0  0  0  0  0  0  0
  -23.7644  -21.1004   22.8025 C   0  0  0  0  0  0  0  0  0  0  0  0
  -30.5154  -27.9191   20.7819 C   0  0  0  0  0  0  0  0  0  0  0  0
  -32.2724  -24.7628   15.7256 C   0  0  0  0  0  0  0  0  0  0  0  0
  -29.1960  -27.3395   21.2803 C   0  0  0  0  0  0  0  0  0  1  0  0
  -32.1145  -26.1507   16.3937 C   0  0  1  0  0  0  0  0  0  0  0  0
  -23.3003  -25.2785   25.4789 C   0  0  1  0  0  0  0  0  0  0  0  0
  -23.4058  -21.4966   25.2424 C   0  0  2  0  0  0  0  0  0  0  0  0
  -23.1040  -25.9841   26.8504 C   0  0  0  0  0  0  0  0  0  0  0  0
  -28.4304  -20.2255   18.9333 N   0  0  0  0  0  0  0  0  0  0  0  0
  -32.7573  -25.1017   18.4817 N   0  0  0  0  0  0  0  0  0  0  0  0
  -32.7392  -25.0070   19.8383 N   0  0  0  0  0  0  0  0  0  0  0  0
  -27.9458  -21.4748   19.0360 N   0  0  0  0  0  0  0  0  0  0  0  0
  -23.1038  -26.4154   23.2897 N   0  0  0  0  0  0  0  0  0  0  0  0
  -29.0310  -22.9330   15.6737 N   0  0  0  0  0  0  0  0  0  0  0  0
  -27.0060  -23.0161   20.5695 N   0  0  0  0  0  0  0  0  0  0  0  0
  -27.7391  -19.3464   23.0977 N   0  0  0  0  0  0  0  0  0  0  0  0
  -21.3428  -29.3881   22.3995 N   0  0  0  0  0  0  0  0  0  0  0  0
  -23.0084  -23.8492   25.4951 N   0  0  0  0  0  0  0  0  0  0  0  0
  -31.1655  -23.8853   16.0347 N   0  0  0  0  0  0  0  0  0  0  0  0
  -24.0074  -20.6294   24.1903 N   0  3  0  0  0  0  0  0  0  0  0  0
  -26.9271  -21.4909   23.1199 O   0  0  0  0  0  0  0  0  0  0  0  0
  -23.4984  -29.0325   23.2055 O   0  0  0  0  0  0  0  0  0  0  0  0
  -21.2068  -25.8540   24.5236 O   0  0  0  0  0  0  0  0  0  0  0  0
  -25.1012  -23.1541   24.7781 O   0  0  0  0  0  0  0  0  0  0  0  0
  -29.9014  -24.5284   14.2332 O   0  0  0  0  0  0  0  0  0  0  0  0
  -29.9361  -14.5324   21.3561 O   0  0  0  0  0  0  0  0  0  0  0  0
  -28.4008  -26.9262   20.1698 O   0  0  0  0  0  0  0  0  0  1  0  0
  -28.4902  -10.5307   17.8490 F   0  0  0  0  0  0  0  0  0  0  0  0
  -30.7425  -14.6034   18.7127 F   0  0  0  0  0  0  0  0  0  0  0  0
  1  2  1  0  0  0  0
  1  5  2  0  0  0  0
  2  6  2  0  0  0  0
  3  8  2  0  0  0  0
  3 16  1  0  0  0  0
  4  9  1  0  0  0  0
  4 16  2  0  0  0  0
  5 18  1  0  0  0  0
  6 20  1  0  0  0  0
  7 10  2  0  0  0  0
  7 19  1  0  0  0  0
  8 23  1  0  0  0  0
  9 23  2  0  0  0  0
 10 24  1  0  0  0  0
 11 12  2  0  0  0  0
 11 25  1  0  0  0  0
 12 26  1  0  0  0  0
 13 21  1  0  0  0  0
 13 24  2  0  0  0  0
 14 22  1  0  0  0  0
 14 29  2  0  0  0  0
 15 26  2  0  0  0  0
 15 27  1  0  0  0  0
 16 28  1  0  0  0  0
 17 28  1  0  0  0  0
 17 31  2  0  0  0  0
 17 32  1  0  0  0  0
 18 20  2  0  0  0  0
 18 37  1  0  0  0  0
 19 21  2  0  0  0  0
 19 38  1  0  0  0  0
 20 46  1  0  0  0  0
 21 39  1  0  0  0  0
 22 30  2  0  0  0  0
 22 56  1  0  0  0  0
 23 80  1  0  0  0  0
 24 81  1  0  0  0  0
 25 27  2  0  0  0  0
 25 80  1  0  0  0  0
 26 82  1  0  0  0  0
 27 83  1  0  0  0  0
 28 63  2  0  0  0  0
 29 59  1  0  0  0  0
 29 64  1  0  0  0  0
 30 49  1  0  0  0  0
 30 65  1  0  0  0  0
 31 66  1  0  0  0  0
 31 69  1  0  0  0  0
 32 70  1  0  0  0  0
 32 75  2  0  0  0  0
 33 47  1  0  0  0  0
 33 71  1  0  0  0  0
 33 76  2  0  0  0  0
 34 60  1  0  0  0  0
 34 67  1  0  0  0  0
 34 77  2  0  0  0  0
 35 61  1  0  0  0  0
 35 72  1  0  0  0  0
 35 78  2  0  0  0  0
 36 68  1  0  0  0  0
 36 73  1  0  0  0  0
 36 79  2  0  0  0  0
 37 40  1  0  0  0  0
 38 47  1  0  0  0  0
 39 67  1  0  0  0  0
 40 42  1  0  0  0  0
 41 43  1  0  0  0  0
 41 44  1  0  0  0  0
 42 46  1  0  0  0  0
 43 48  1  0  0  0  0
 44 68  1  0  0  0  0
 45 48  1  0  0  0  0
 45 68  1  0  0  0  0
 46 71  1  0  0  0  0
 47 67  1  0  0  0  0
 48 66  1  0  0  0  0
 50 59  1  0  0  0  0
 51 61  1  0  0  0  0
 52 62  1  0  0  0  0
 53 62  1  0  0  0  0
 54 62  1  0  0  0  0
 55 74  1  0  0  0  0
 56 58  1  0  0  0  0
 57 59  1  0  0  0  0
 57 73  1  0  0  0  0
 58 81  1  0  0  0  0
 60 62  1  0  0  0  0
 60 72  1  0  0  0  0
 61 74  1  0  0  0  0
 63 66  1  0  0  0  0
 64 65  2  0  0  0  0
M  CHG  1  74   1
M  ISO  4  36 100  58 101  73 100  81 101
M  END
> <Batch ID>
0081

> <Smiles>
CNC(C)C(=O)NC(C(=O)N1Cc2cc([101O:1][101CH2:1]Cc3cc(C(C)C[100NH:0][100C:0](=O)N4CCCC(n5nc(-c6ccc(Oc7ccc(F)cc7F)cc6)c(C(N)=O)c5N)C4)nnc3C)ccc2CC1C(=O)NC1CCCc2ccccc21)C(C)(C)C

> <Shape>
0.195

> <Color>
0.077

> <Negative vol penalty>
0.000

$$$$

  -OEChem-04052318463D

 90 98  0     1  0  0  0  0  0999 V2000
  -16.8793  -28.5194   24.4536 C   0  0  0  0  0  0  0  0  0  0  0  0
  -17.6867  -27.6816   23.6908 C   0  0  0  0  0  0  0  0  0  0  0  0
  -23.1573  -11.8017   22.8979 C   0  0  0  0  0  0  0  0  0  0  0  0
  -23.1652  -14.2113   22.7222 C   0  0  0  0  0  0  0  0  0  0  0  0
  -17.0357  -29.9023   24.3696 C   0  0  0  0  0  0  0  0  0  0  0  0
  -18.6503  -28.2264   22.8428 C   0  0  0  0  0  0  0  0  0  0  0  0
  -23.0995  -25.8292   23.1638 C   0  0  0  0  0  0  0  0  0  0  0  0
  -22.3190  -11.8855   24.0096 C   0  0  0  0  0  0  0  0  0  0  0  0
  -22.3268  -14.2951   23.8339 C   0  0  0  0  0  0  0  0  0  0  0  0
  -23.2148  -24.6091   22.4991 C   0  0  0  0  0  0  0  0  0  0  0  0
  -19.8976  -15.1289   26.4071 C   0  0  0  0  0  0  0  0  0  0  0  0
  -18.8133  -16.0035   26.3381 C   0  0  0  0  0  0  0  0  0  0  0  0
  -24.3595  -25.7125   20.6849 C   0  0  0  0  0  0  0  0  0  0  0  0
  -17.9511  -14.7847   24.4386 C   0  0  0  0  0  0  0  0  0  0  0  0
  -23.5804  -12.9646   22.2542 C   0  0  0  0  0  0  0  0  0  0  0  0
  -24.0614  -12.7817   19.7556 C   0  0  0  0  0  0  0  0  0  0  0  0
  -18.0082  -30.4640   23.5274 C   0  0  0  0  0  0  0  0  0  0  0  0
  -23.6046  -27.0039   22.5880 C   0  0  0  0  0  0  0  0  0  0  0  0
  -18.8189  -29.6182   22.7465 C   0  0  0  0  0  0  0  0  0  0  0  0
  -24.2516  -26.9458   21.3455 C   0  0  0  0  0  0  0  0  0  0  0  0
  -21.9038  -13.1322   24.4776 C   0  0  0  0  0  0  0  0  0  0  0  0
  -23.8423  -24.5511   21.2581 C   0  0  0  0  0  0  0  0  0  0  0  0
  -20.0088  -14.0822   25.4918 C   0  0  0  0  0  0  0  0  0  0  0  0
  -17.8400  -15.8314   25.3539 C   0  0  0  0  0  0  0  0  0  0  0  0
  -19.0355  -13.9101   24.5076 C   0  0  0  0  0  0  0  0  0  0  0  0
  -24.4468  -12.8787   21.1061 C   0  0  0  0  0  0  0  0  0  0  0  0
  -27.3299  -18.5677   18.6479 C   0  0  0  0  0  0  0  0  0  0  0  0
  -28.6980  -18.7099   18.5728 C   0  0  0  0  0  0  0  0  0  0  0  0
  -27.1809  -20.5736   19.7358 C   0  0  0  0  0  0  0  0  0  0  0  0
  -28.5491  -20.7156   19.6614 C   0  0  0  0  0  0  0  0  0  0  0  0
  -25.2465  -12.7282   19.0634 C   0  0  0  0  0  0  0  0  0  0  0  0
  -22.7495  -12.7434   19.1785 C   0  0  0  0  0  0  0  0  0  0  0  0
  -22.3358  -29.7533   21.6211 C   0  0  0  0  0  0  0  0  0  0  0  0
  -25.4401  -30.5767   21.1655 C   0  0  0  0  0  0  0  0  0  0  0  0
  -28.6533  -29.5695   20.6111 C   0  0  0  0  0  0  0  0  0  0  0  0
  -30.7797  -14.6552   20.2968 C   0  0  0  0  0  0  0  0  0  0  0  0
  -18.1082  -31.9660   23.4346 C   0  0  0  0  0  0  0  0  0  0  0  0
  -23.4959  -28.3078   23.3301 C   0  0  0  0  0  0  0  0  0  0  0  0
  -24.8287  -28.1748   20.6937 C   0  0  0  0  0  0  0  0  0  0  0  0
  -19.4055  -32.4517   22.7932 C   0  0  0  0  0  0  0  0  0  0  0  0
  -29.7953  -11.3206   19.5300 C   0  0  0  0  0  0  0  0  0  0  0  0
  -19.7021  -31.6602   21.5234 C   0  0  0  0  0  0  0  0  0  0  0  0
  -28.2782  -11.3330   19.7252 C   0  0  0  0  0  0  0  0  0  0  0  0
  -30.5031  -12.2068   20.5525 C   0  0  0  0  0  0  0  0  0  0  0  0
  -28.4919  -13.6075   20.8114 C   0  0  0  0  0  0  0  0  0  0  0  0
  -19.8921  -30.1705   21.8336 C   0  0  1  0  0  0  0  0  0  0  0  0
  -23.5905  -29.5253   22.4157 C   0  0  1  0  0  0  0  0  0  0  0  0
  -27.7302  -12.7721   19.7682 C   0  0  2  0  0  0  0  0  0  0  0  0
  -26.6403  -17.3724   18.0848 C   0  0  0  0  0  0  0  0  0  0  0  0
  -29.5476  -21.7234   21.7269 C   0  0  0  0  0  0  0  0  0  0  0  0
  -30.9656  -30.4731   20.2449 C   0  0  0  0  0  0  0  0  0  0  0  0
  -31.7268  -23.0536   17.3926 C   0  0  0  0  0  0  0  0  0  0  0  0
  -29.4020  -23.8688   17.8252 C   0  0  0  0  0  0  0  0  0  0  0  0
  -24.6906  -31.3285   18.3049 C   0  0  0  0  0  0  0  0  0  0  0  0
  -27.1282  -31.3042   17.7339 C   0  0  0  0  0  0  0  0  0  0  0  0
  -26.2610  -32.9205   19.4246 C   0  0  0  0  0  0  0  0  0  0  0  0
  -29.6898  -28.2197   23.0324 C   0  0  0  0  0  0  0  0  0  0  0  0
  -29.5524  -17.6751   17.9243 C   0  0  0  0  0  0  0  0  0  0  0  0
  -26.3163  -21.6210   20.3906 C   0  0  0  0  0  0  0  0  0  0  0  0
  -30.9388  -17.4924   18.5739 C   0  0  0  0  0  0  0  0  0  0  0  0
  -24.8875  -21.1517   20.6730 C   0  0  0  0  0  0  0  0  0  0  0  0
  -30.5510  -22.3003   19.4827 C   0  0  0  0  0  0  0  0  0  0  0  0
  -30.8947  -17.1225   20.0549 C   0  0  0  0  0  0  0  0  0  0  0  0
  -24.0468  -22.1866   21.4116 C   0  0  0  0  0  0  0  0  0  1  0  0
  -29.2384  -21.9109   20.2250 C   0  0  1  0  0  0  0  0  0  0  0  0
  -26.4179  -30.4685   20.0204 C   0  0  1  0  0  0  0  0  0  0  0  0
  -29.9617  -29.9682   21.2696 C   0  0  2  0  0  0  0  0  0  0  0  0
  -30.3676  -22.6958   18.0015 C   0  0  0  0  0  0  0  0  0  0  0  0
  -26.1119  -31.4824   18.8821 C   0  0  0  0  0  0  0  0  0  0  0  0
  -25.7731  -12.8865   21.2646 N   0  0  0  0  0  0  0  0  0  0  0  0
  -26.5468  -19.4970   19.2307 N   0  0  0  0  0  0  0  0  0  0  0  0
  -29.3321  -19.7865   19.0782 N   0  0  0  0  0  0  0  0  0  0  0  0
  -26.2313  -12.7935   20.0047 N   0  0  0  0  0  0  0  0  0  0  0  0
  -24.6919  -29.4270   21.4558 N   0  0  0  0  0  0  0  0  0  0  0  0
  -29.9375  -13.5581   20.5418 N   0  0  0  0  0  0  0  0  0  0  0  0
  -25.5318  -12.6320   17.7474 N   0  0  0  0  0  0  0  0  0  0  0  0
  -21.6411  -12.8087   20.0339 N   0  0  0  0  0  0  0  0  0  0  0  0
  -21.2051  -29.9345   22.3946 N   0  0  0  0  0  0  0  0  0  0  0  0
  -27.7474  -30.6090   20.6043 N   0  0  0  0  0  0  0  0  0  0  0  0
  -30.1619  -15.8998   20.2978 N   0  0  0  0  0  0  0  0  0  0  0  0
  -30.5606  -28.8026   21.9794 N   0  3  0  0  0  0  0  0  0  0  0  0
  -22.5655  -12.6375   17.9422 O   0  0  0  0  0  0  0  0  0  0  0  0
  -22.3897  -29.7654   20.3969 O   0  0  0  0  0  0  0  0  0  0  0  0
  -25.3488  -31.6399   21.7844 O   0  0  0  0  0  0  0  0  0  0  0  0
  -28.4560  -28.4492   20.1458 O   0  0  0  0  0  0  0  0  0  0  0  0
  -31.9914  -14.5340   20.0870 O   0  0  0  0  0  0  0  0  0  0  0  0
  -21.0856  -13.2143   25.5622 O   0  0  0  0  0  0  0  0  0  0  0  0
  -23.9555  -23.3615   20.6069 O   0  0  0  0  0  0  0  0  0  1  0  0
  -16.7979  -16.6704   25.2887 F   0  0  0  0  0  0  0  0  0  0  0  0
  -19.1363  -12.9056   23.6263 F   0  0  0  0  0  0  0  0  0  0  0  0
  1  2  1  0  0  0  0
  1  5  2  0  0  0  0
  2  6  2  0  0  0  0
  3  8  2  0  0  0  0
  3 15  1  0  0  0  0
  4  9  1  0  0  0  0
  4 15  2  0  0  0  0
  5 17  1  0  0  0  0
  6 19  1  0  0  0  0
  7 10  2  0  0  0  0
  7 18  1  0  0  0  0
  8 21  1  0  0  0  0
  9 21  2  0  0  0  0
 10 22  1  0  0  0  0
 11 12  2  0  0  0  0
 11 23  1  0  0  0  0
 12 24  1  0  0  0  0
 13 20  1  0  0  0  0
 13 22  2  0  0  0  0
 14 24  2  0  0  0  0
 14 25  1  0  0  0  0
 15 26  1  0  0  0  0
 16 26  1  0  0  0  0
 16 31  2  0  0  0  0
 16 32  1  0  0  0  0
 17 19  2  0  0  0  0
 17 37  1  0  0  0  0
 18 20  2  0  0  0  0
 18 38  1  0  0  0  0
 19 46  1  0  0  0  0
 20 39  1  0  0  0  0
 21 87  1  0  0  0  0
 22 88  1  0  0  0  0
 23 25  2  0  0  0  0
 23 87  1  0  0  0  0
 24 89  1  0  0  0  0
 25 90  1  0  0  0  0
 26 70  2  0  0  0  0
 27 28  1  0  0  0  0
 27 49  1  0  0  0  0
 27 71  2  0  0  0  0
 28 58  1  0  0  0  0
 28 72  2  0  0  0  0
 29 30  2  0  0  0  0
 29 59  1  0  0  0  0
 29 71  1  0  0  0  0
 30 65  1  0  0  0  0
 30 72  1  0  0  0  0
 31 73  1  0  0  0  0
 31 76  1  0  0  0  0
 32 77  1  0  0  0  0
 32 82  2  0  0  0  0
 33 47  1  0  0  0  0
 33 78  1  0  0  0  0
 33 83  2  0  0  0  0
 34 66  1  0  0  0  0
 34 74  1  0  0  0  0
 34 84  2  0  0  0  0
 35 67  1  0  0  0  0
 35 79  1  0  0  0  0
 35 85  2  0  0  0  0
 36 75  1  0  0  0  0
 36 80  1  0  0  0  0
 36 86  2  0  0  0  0
 37 40  1  0  0  0  0
 38 47  1  0  0  0  0
 39 74  1  0  0  0  0
 40 42  1  0  0  0  0
 41 43  1  0  0  0  0
 41 44  1  0  0  0  0
 42 46  1  0  0  0  0
 43 48  1  0  0  0  0
 44 75  1  0  0  0  0
 45 48  1  0  0  0  0
 45 75  1  0  0  0  0
 46 78  1  0  0  0  0
 47 74  1  0  0  0  0
 48 73  1  0  0  0  0
 50 65  1  0  0  0  0
 51 67  1  0  0  0  0
 52 68  1  0  0  0  0
 53 68  1  0  0  0  0
 54 69  1  0  0  0  0
 55 69  1  0  0  0  0
 56 69  1  0  0  0  0
 57 81  1  0  0  0  0
 58 60  1  0  0  0  0
 59 61  1  0  0  0  0
 60 63  1  0  0  0  0
 61 64  1  0  0  0  0
 62 65  1  0  0  0  0
 62 68  1  0  0  0  0
 63 80  1  0  0  0  0
 64 88  1  0  0  0  0
 66 69  1  0  0  0  0
 66 79  1  0  0  0  0
 67 81  1  0  0  0  0
 70 73  1  0  0  0  0
M  CHG  1  81   1
M  ISO  4  36 100  64 101  80 100  88 101
M  END
> <Batch ID>
0081

> <Smiles>
CNC(C)C(=O)NC(C(=O)N1Cc2cc([101O:1][101CH2:1]CCc3nc(C)c(CCC[100NH:0][100C:0](=O)N4CCCC(n5nc(-c6ccc(Oc7ccc(F)cc7F)cc6)c(C(N)=O)c5N)C4)nc3C(C)CC(C)C)ccc2CC1C(=O)NC1CCCc2ccccc21)C(C)(C)C

> <Shape>
0.259

> <Color>
0.084

> <Negative vol penalty>
0.000

$$$$

  -OEChem-04052318463D

 84 92  0     1  0  0  0  0  0999 V2000
  -37.5152  -27.1572   23.6876 C   0  0  0  0  0  0  0  0  0  0  0  0
  -36.7208  -26.2357   23.0130 C   0  0  0  0  0  0  0  0  0  0  0  0
  -23.2850   -9.7975   19.9174 C   0  0  0  0  0  0  0  0  0  0  0  0
  -23.7370   -9.9430   22.2863 C   0  0  0  0  0  0  0  0  0  0  0  0
  -37.7347  -27.0161   25.0572 C   0  0  0  0  0  0  0  0  0  0  0  0
  -36.1463  -25.1717   23.7075 C   0  0  0  0  0  0  0  0  0  0  0  0
  -30.6896  -22.6014   22.6475 C   0  0  0  0  0  0  0  0  0  0  0  0
  -22.5580   -8.6259   20.1281 C   0  0  0  0  0  0  0  0  0  0  0  0
  -23.0099   -8.7715   22.4970 C   0  0  0  0  0  0  0  0  0  0  0  0
  -30.3130  -21.4519   21.9543 C   0  0  0  0  0  0  0  0  0  0  0  0
  -23.2095   -5.3523   20.6603 C   0  0  0  0  0  0  0  0  0  0  0  0
  -23.4369   -4.2844   19.7923 C   0  0  0  0  0  0  0  0  0  0  0  0
  -30.2885  -20.2175   24.0267 C   0  0  0  0  0  0  0  0  0  0  0  0
  -31.0775  -16.0970   22.2345 C   0  0  0  0  0  0  0  0  0  0  0  0
  -21.1145   -4.3303   19.1276 C   0  0  0  0  0  0  0  0  0  0  0  0
  -23.8746  -10.4560   20.9965 C   0  0  0  0  0  0  0  0  0  0  0  0
  -24.1356  -12.9854   20.7922 C   0  0  0  0  0  0  0  0  0  0  0  0
  -37.1546  -25.9554   25.7707 C   0  0  0  0  0  0  0  0  0  0  0  0
  -30.8794  -22.5650   24.0364 C   0  0  0  0  0  0  0  0  0  0  0  0
  -36.3593  -25.0156   25.0877 C   0  0  0  0  0  0  0  0  0  0  0  0
  -30.6650  -21.3686   24.7355 C   0  0  0  0  0  0  0  0  0  0  0  0
  -31.4751  -16.9207   21.1961 C   0  0  0  0  0  0  0  0  0  0  0  0
  -22.4204   -8.1129   21.4178 C   0  0  0  0  0  0  0  0  0  0  0  0
  -30.1152  -20.2590   22.6435 C   0  0  0  0  0  0  0  0  0  0  0  0
  -21.9347   -5.9092   20.7621 C   0  0  0  0  0  0  0  0  0  0  0  0
  -22.3894   -3.7735   19.0259 C   0  0  0  0  0  0  0  0  0  0  0  0
  -20.8872   -5.3982   19.9958 C   0  0  0  0  0  0  0  0  0  0  0  0
  -24.6262  -11.6660   20.7794 C   0  0  0  0  0  0  0  0  0  0  0  0
  -32.0584  -15.5495   23.0368 C   0  0  0  0  0  0  0  0  0  0  0  0
  -32.8273  -17.1427   21.0289 C   0  0  0  0  0  0  0  0  0  0  0  0
  -25.2375  -13.7640   20.5350 C   0  0  0  0  0  0  0  0  0  0  0  0
  -22.8030  -13.4644   21.0166 C   0  0  0  0  0  0  0  0  0  0  0  0
  -33.3446  -23.0731   25.9775 C   0  0  0  0  0  0  0  0  0  0  0  0
  -31.0976  -22.7145   28.2894 C   0  0  0  0  0  0  0  0  0  0  0  0
  -28.0723  -21.4352   29.2156 C   0  0  0  0  0  0  0  0  0  0  0  0
  -31.1083  -12.9189   21.3537 C   0  0  0  0  0  0  0  0  0  0  0  0
  -37.4591  -25.8175   27.2414 C   0  0  0  0  0  0  0  0  0  0  0  0
  -31.2597  -23.8201   24.7730 C   0  0  0  0  0  0  0  0  0  0  0  0
  -30.8360  -21.2815   26.2294 C   0  0  0  0  0  0  0  0  0  0  0  0
  -36.5084  -24.8745   27.9744 C   0  0  0  0  0  0  0  0  0  0  0  0
  -29.4584  -13.6526   18.2851 C   0  0  0  0  0  0  0  0  0  0  0  0
  -36.3224  -23.5833   27.1837 C   0  0  0  0  0  0  0  0  0  0  0  0
  -27.9887  -13.3457   18.5776 C   0  0  0  0  0  0  0  0  0  0  0  0
  -30.3914  -12.6741   18.9952 C   0  0  0  0  0  0  0  0  0  0  0  0
  -28.7053  -12.2498   20.7418 C   0  0  0  0  0  0  0  0  0  0  0  0
  -35.6985  -23.8621   25.8109 C   0  0  1  0  0  0  0  0  0  0  0  0
  -31.9251  -23.5451   26.1180 C   0  0  1  0  0  0  0  0  0  0  0  0
  -27.7277  -13.2442   20.0925 C   0  0  2  0  0  0  0  0  0  0  0  0
  -33.3301  -18.0181   19.9311 C   0  0  0  0  0  0  0  0  0  0  0  0
  -26.5196  -21.2746   31.1805 C   0  0  0  0  0  0  0  0  0  0  0  0
  -30.2892  -14.9474   24.8267 C   0  0  0  0  0  0  0  0  0  0  0  0
  -32.7120  -14.7934   25.3387 C   0  0  0  0  0  0  0  0  0  0  0  0
  -32.8994  -20.5912   29.5364 C   0  0  0  0  0  0  0  0  0  0  0  0
  -30.9375  -19.8193   30.8868 C   0  0  0  0  0  0  0  0  0  0  0  0
  -31.8163  -22.1357   31.1784 C   0  0  0  0  0  0  0  0  0  0  0  0
  -25.9191  -22.8702   27.7791 C   0  0  0  0  0  0  0  0  0  0  0  0
  -30.4430  -17.5457   20.2893 C   0  0  0  0  0  0  0  0  0  0  0  0
  -31.6714  -13.1375   23.7609 C   0  0  0  0  0  0  0  0  0  0  0  0
  -30.1939  -19.0134   20.6191 C   0  0  0  0  0  0  0  0  0  1  0  0
  -30.5465  -21.5477   29.0728 C   0  0  1  0  0  0  0  0  0  0  0  0
  -26.8908  -22.0621   29.9336 C   0  0  2  0  0  0  0  0  0  0  0  0
  -31.6832  -14.6553   24.1684 C   0  0  0  0  0  0  0  0  0  0  0  0
  -31.5485  -21.0243   30.1402 C   0  0  0  0  0  0  0  0  0  0  0  0
  -25.9377  -11.6059   20.5334 N   0  0  0  0  0  0  0  0  0  0  0  0
  -33.3746  -15.7840   22.8499 N   0  0  0  0  0  0  0  0  0  0  0  0
  -33.7653  -16.5939   21.8295 N   0  0  0  0  0  0  0  0  0  0  0  0
  -26.2804  -12.8973   20.3891 N   0  0  0  0  0  0  0  0  0  0  0  0
  -31.2147  -22.5342   26.9039 N   0  0  0  0  0  0  0  0  0  0  0  0
  -30.0927  -12.6261   20.4285 N   0  0  0  0  0  0  0  0  0  0  0  0
  -25.4062  -15.0986   20.4215 N   0  0  0  0  0  0  0  0  0  0  0  0
  -21.7899  -12.5288   21.2666 N   0  0  0  0  0  0  0  0  0  0  0  0
  -34.2757  -24.0935   25.9400 N   0  0  0  0  0  0  0  0  0  0  0  0
  -29.2682  -21.9902   29.6193 N   0  0  0  0  0  0  0  0  0  0  0  0
  -30.7391  -12.8565   22.6919 N   0  0  0  0  0  0  0  0  0  0  0  0
  -25.7028  -22.1065   29.0349 N   0  3  0  0  0  0  0  0  0  0  0  0
  -22.5159  -14.6850   20.9797 O   0  0  0  0  0  0  0  0  0  0  0  0
  -33.5781  -21.8720   25.9099 O   0  0  0  0  0  0  0  0  0  0  0  0
  -31.4059  -23.7504   28.8839 O   0  0  0  0  0  0  0  0  0  0  0  0
  -27.9472  -20.5400   28.3829 O   0  0  0  0  0  0  0  0  0  0  0  0
  -32.2573  -13.2191   21.0124 O   0  0  0  0  0  0  0  0  0  0  0  0
  -21.7108   -6.9699   21.6238 O   0  0  0  0  0  0  0  0  0  0  0  0
  -29.7483  -19.1354   21.9693 O   0  0  0  0  0  0  0  0  0  1  0  0
  -22.6082   -2.7490   18.1912 F   0  0  0  0  0  0  0  0  0  0  0  0
  -19.6605   -5.9298   20.0884 F   0  0  0  0  0  0  0  0  0  0  0  0
  1  2  1  0  0  0  0
  1  5  2  0  0  0  0
  2  6  2  0  0  0  0
  3  8  2  0  0  0  0
  3 16  1  0  0  0  0
  4  9  1  0  0  0  0
  4 16  2  0  0  0  0
  5 18  1  0  0  0  0
  6 20  1  0  0  0  0
  7 10  2  0  0  0  0
  7 19  1  0  0  0  0
  8 23  1  0  0  0  0
  9 23  2  0  0  0  0
 10 24  1  0  0  0  0
 11 12  2  0  0  0  0
 11 25  1  0  0  0  0
 12 26  1  0  0  0  0
 13 21  1  0  0  0  0
 13 24  2  0  0  0  0
 14 22  1  0  0  0  0
 14 29  2  0  0  0  0
 15 26  2  0  0  0  0
 15 27  1  0  0  0  0
 16 28  1  0  0  0  0
 17 28  1  0  0  0  0
 17 31  2  0  0  0  0
 17 32  1  0  0  0  0
 18 20  2  0  0  0  0
 18 37  1  0  0  0  0
 19 21  2  0  0  0  0
 19 38  1  0  0  0  0
 20 46  1  0  0  0  0
 21 39  1  0  0  0  0
 22 30  2  0  0  0  0
 22 57  1  0  0  0  0
 23 81  1  0  0  0  0
 24 82  1  0  0  0  0
 25 27  2  0  0  0  0
 25 81  1  0  0  0  0
 26 83  1  0  0  0  0
 27 84  1  0  0  0  0
 28 64  2  0  0  0  0
 29 62  1  0  0  0  0
 29 65  1  0  0  0  0
 30 49  1  0  0  0  0
 30 66  1  0  0  0  0
 31 67  1  0  0  0  0
 31 70  1  0  0  0  0
 32 71  1  0  0  0  0
 32 76  2  0  0  0  0
 33 47  1  0  0  0  0
 33 72  1  0  0  0  0
 33 77  2  0  0  0  0
 34 60  1  0  0  0  0
 34 68  1  0  0  0  0
 34 78  2  0  0  0  0
 35 61  1  0  0  0  0
 35 73  1  0  0  0  0
 35 79  2  0  0  0  0
 36 69  1  0  0  0  0
 36 74  1  0  0  0  0
 36 80  2  0  0  0  0
 37 40  1  0  0  0  0
 38 47  1  0  0  0  0
 39 68  1  0  0  0  0
 40 42  1  0  0  0  0
 41 43  1  0  0  0  0
 41 44  1  0  0  0  0
 42 46  1  0  0  0  0
 43 48  1  0  0  0  0
 44 69  1  0  0  0  0
 45 48  1  0  0  0  0
 45 69  1  0  0  0  0
 46 72  1  0  0  0  0
 47 68  1  0  0  0  0
 48 67  1  0  0  0  0
 50 61  1  0  0  0  0
 51 62  1  0  0  0  0
 52 62  1  0  0  0  0
 53 63  1  0  0  0  0
 54 63  1  0  0  0  0
 55 63  1  0  0  0  0
 56 75  1  0  0  0  0
 57 59  1  0  0  0  0
 58 62  1  0  0  0  0
 58 74  1  0  0  0  0
 59 82  1  0  0  0  0
 60 63  1  0  0  0  0
 60 73  1  0  0  0  0
 61 75  1  0  0  0  0
 64 67  1  0  0  0  0
 65 66  2  0  0  0  0
M  CHG  1  75   1
M  ISO  4  36 100  59 101  74 100  82 101
M  END
> <Batch ID>
0081

> <Smiles>
CNC(C)C(=O)NC(C(=O)N1Cc2cc([101O:1][101CH2:1]Cc3cc(C(C)(C)C[100NH:0][100C:0](=O)N4CCCC(n5nc(-c6ccc(Oc7ccc(F)cc7F)cc6)c(C(N)=O)c5N)C4)nnc3C)ccc2CC1C(=O)NC1CCCc2ccccc21)C(C)(C)C

> <Shape>
0.154

> <Color>
0.169

> <Negative vol penalty>
0.000

$$$$

  -OEChem-04052318463D

 83 91  0     1  0  0  0  0  0999 V2000
  -30.5363  -33.7743   22.7248 C   0  0  0  0  0  0  0  0  0  0  0  0
  -30.6767  -32.4492   22.3251 C   0  0  0  0  0  0  0  0  0  0  0  0
  -22.8699  -10.1240   20.0173 C   0  0  0  0  0  0  0  0  0  0  0  0
  -23.6771  -10.0255   22.2923 C   0  0  0  0  0  0  0  0  0  0  0  0
  -29.3492  -34.1999   23.3194 C   0  0  0  0  0  0  0  0  0  0  0  0
  -29.6304  -31.5485   22.5209 C   0  0  0  0  0  0  0  0  0  0  0  0
  -28.0597  -26.8822   18.8789 C   0  0  0  0  0  0  0  0  0  0  0  0
  -22.0449   -9.0264   20.2625 C   0  0  0  0  0  0  0  0  0  0  0  0
  -22.8521   -8.9279   22.5376 C   0  0  0  0  0  0  0  0  0  0  0  0
  -28.3309  -25.5158   18.9353 C   0  0  0  0  0  0  0  0  0  0  0  0
  -22.8740   -5.6056   21.9111 C   0  0  0  0  0  0  0  0  0  0  0  0
  -23.4238   -4.5215   22.5953 C   0  0  0  0  0  0  0  0  0  0  0  0
  -26.2085  -25.1455   20.0205 C   0  0  0  0  0  0  0  0  0  0  0  0
  -29.2634  -20.6621   20.3424 C   0  0  0  0  0  0  0  0  0  0  0  0
  -21.7779   -4.7900   24.3435 C   0  0  0  0  0  0  0  0  0  0  0  0
  -23.6861  -10.6236   21.0322 C   0  0  0  0  0  0  0  0  0  0  0  0
  -24.2189  -13.1170   20.9519 C   0  0  0  0  0  0  0  0  0  0  0  0
  -28.2842  -33.3062   23.5138 C   0  0  0  0  0  0  0  0  0  0  0  0
  -26.8636  -27.3927   19.4035 C   0  0  0  0  0  0  0  0  0  0  0  0
  -28.4284  -31.9622   23.1199 C   0  0  0  0  0  0  0  0  0  0  0  0
  -25.9234  -26.5184   19.9671 C   0  0  0  0  0  0  0  0  0  0  0  0
  -29.0005  -21.3799   19.1496 C   0  0  0  0  0  0  0  0  0  0  0  0
  -22.0359   -8.4283   21.5226 C   0  0  0  0  0  0  0  0  0  0  0  0
  -27.4065  -24.6476   19.5088 C   0  0  0  0  0  0  0  0  0  0  0  0
  -21.7761   -6.2819   22.4432 C   0  0  0  0  0  0  0  0  0  0  0  0
  -22.8758   -4.1137   23.8114 C   0  0  0  0  0  0  0  0  0  0  0  0
  -21.2281   -5.8740   23.6593 C   0  0  0  0  0  0  0  0  0  0  0  0
  -24.5390  -11.7570   20.7793 C   0  0  0  0  0  0  0  0  0  0  0  0
  -29.2601  -19.3218   20.0251 C   0  0  0  0  0  0  0  0  0  0  0  0
  -28.8443  -20.4563   18.1397 C   0  0  0  0  0  0  0  0  0  0  0  0
  -25.3575  -13.7879   20.5778 C   0  0  0  0  0  0  0  0  0  0  0  0
  -23.0013  -13.7200   21.4096 C   0  0  0  0  0  0  0  0  0  0  0  0
  -26.1232  -29.4334   21.7254 C   0  0  0  0  0  0  0  0  0  0  0  0
  -23.1141  -29.0406   20.5796 C   0  0  0  0  0  0  0  0  0  0  0  0
  -20.8968  -27.0897   18.8695 C   0  0  0  0  0  0  0  0  0  0  0  0
  -30.9063  -14.3794   20.6591 C   0  0  0  0  0  0  0  0  0  0  0  0
  -27.0378  -33.8013   24.2038 C   0  0  0  0  0  0  0  0  0  0  0  0
  -26.5743  -28.8658   19.3108 C   0  0  0  0  0  0  0  0  0  0  0  0
  -24.6155  -27.0137   20.5262 C   0  0  0  0  0  0  0  0  0  0  0  0
  -25.8381  -32.8727   24.0345 C   0  0  0  0  0  0  0  0  0  0  0  0
  -29.5372  -12.1387   18.2546 C   0  0  0  0  0  0  0  0  0  0  0  0
  -26.2427  -31.4251   24.2946 C   0  0  0  0  0  0  0  0  0  0  0  0
  -28.0910  -11.9472   18.7149 C   0  0  0  0  0  0  0  0  0  0  0  0
  -30.4942  -12.2639   19.4381 C   0  0  0  0  0  0  0  0  0  0  0  0
  -28.6848  -13.1099   20.8816 C   0  0  0  0  0  0  0  0  0  0  0  0
  -27.3068  -30.9610   23.2927 C   0  0  1  0  0  0  0  0  0  0  0  0
  -25.5517  -29.3398   20.3389 C   0  0  1  0  0  0  0  0  0  0  0  0
  -27.6750  -13.0348   19.7236 C   0  0  2  0  0  0  0  0  0  0  0  0
  -28.5566  -20.6551   16.7031 C   0  0  0  0  0  0  0  0  0  0  0  0
  -27.4784  -17.5658   17.6624 C   0  0  0  0  0  0  0  0  0  0  0  0
  -18.5004  -27.0171   18.1282 C   0  0  0  0  0  0  0  0  0  0  0  0
  -22.2589  -28.3312   23.4213 C   0  0  0  0  0  0  0  0  0  0  0  0
  -20.1515  -27.3687   22.4724 C   0  0  0  0  0  0  0  0  0  0  0  0
  -20.6530  -29.7951   22.1834 C   0  0  0  0  0  0  0  0  0  0  0  0
  -21.6622  -27.0086   16.0118 C   0  0  0  0  0  0  0  0  0  0  0  0
  -28.9110  -22.8720   19.0190 C   0  0  0  0  0  0  0  0  0  1  0  0
  -29.4799  -18.1440   20.8894 C   0  0  0  0  0  0  0  0  0  0  0  0
  -30.9531  -17.6845   21.0031 C   0  0  0  0  0  0  0  0  0  0  0  0
  -28.9159  -17.9614   17.9533 C   0  0  0  0  0  0  0  0  0  0  0  0
  -31.1643  -16.4927   21.9345 C   0  0  0  0  0  0  0  0  0  0  0  0
  -21.9765  -28.0905   20.8663 C   0  0  1  0  0  0  0  0  0  0  0  0
  -19.9197  -27.4156   17.7544 C   0  0  2  0  0  0  0  0  0  0  0  0
  -21.2854  -28.3870   22.2271 C   0  0  0  0  0  0  0  0  0  0  0  0
  -25.7834  -11.5731   20.3303 N   0  0  0  0  0  0  0  0  0  0  0  0
  -29.0039  -19.2086   18.6835 N   0  0  0  0  0  0  0  0  0  0  0  0
  -26.2553  -12.8264   20.2175 N   0  0  0  0  0  0  0  0  0  0  0  0
  -24.3814  -28.4632   20.4178 N   0  0  0  0  0  0  0  0  0  0  0  0
  -30.0438  -13.3131   20.3557 N   0  0  0  0  0  0  0  0  0  0  0  0
  -25.6684  -15.1005   20.5251 N   0  0  0  0  0  0  0  0  0  0  0  0
  -21.9298  -12.8843   21.7529 N   0  0  0  0  0  0  0  0  0  0  0  0
  -26.6991  -30.6556   22.0152 N   0  0  0  0  0  0  0  0  0  0  0  0
  -21.0839  -28.1631   19.7145 N   0  0  0  0  0  0  0  0  0  0  0  0
  -30.3988  -15.3339   21.5321 N   0  0  0  0  0  0  0  0  0  0  0  0
  -20.2976  -26.6931   16.5070 N   0  3  0  0  0  0  0  0  0  0  0  0
  -22.8619  -14.9636   21.4956 O   0  0  0  0  0  0  0  0  0  0  0  0
  -26.0461  -28.4687   22.4771 O   0  0  0  0  0  0  0  0  0  0  0  0
  -22.8854  -30.2498   20.4949 O   0  0  0  0  0  0  0  0  0  0  0  0
  -21.4369  -25.9914   18.9820 O   0  0  0  0  0  0  0  0  0  0  0  0
  -32.0424  -14.4766   20.1829 O   0  0  0  0  0  0  0  0  0  0  0  0
  -21.2308   -7.3574   21.7623 O   0  0  0  0  0  0  0  0  0  0  0  0
  -27.6690  -23.3135   19.5658 O   0  0  0  0  0  0  0  0  0  1  0  0
  -23.4030   -3.0717   24.4676 F   0  0  0  0  0  0  0  0  0  0  0  0
  -20.1726   -6.5191   24.1748 F   0  0  0  0  0  0  0  0  0  0  0  0
  1  2  1  0  0  0  0
  1  5  2  0  0  0  0
  2  6  2  0  0  0  0
  3  8  2  0  0  0  0
  3 16  1  0  0  0  0
  4  9  1  0  0  0  0
  4 16  2  0  0  0  0
  5 18  1  0  0  0  0
  6 20  1  0  0  0  0
  7 10  2  0  0  0  0
  7 19  1  0  0  0  0
  8 23  1  0  0  0  0
  9 23  2  0  0  0  0
 10 24  1  0  0  0  0
 11 12  2  0  0  0  0
 11 25  1  0  0  0  0
 12 26  1  0  0  0  0
 13 21  1  0  0  0  0
 13 24  2  0  0  0  0
 14 22  1  0  0  0  0
 14 29  2  0  0  0  0
 15 26  2  0  0  0  0
 15 27  1  0  0  0  0
 16 28  1  0  0  0  0
 17 28  1  0  0  0  0
 17 31  2  0  0  0  0
 17 32  1  0  0  0  0
 18 20  2  0  0  0  0
 18 37  1  0  0  0  0
 19 21  2  0  0  0  0
 19 38  1  0  0  0  0
 20 46  1  0  0  0  0
 21 39  1  0  0  0  0
 22 30  2  0  0  0  0
 22 56  1  0  0  0  0
 23 80  1  0  0  0  0
 24 81  1  0  0  0  0
 25 27  2  0  0  0  0
 25 80  1  0  0  0  0
 26 82  1  0  0  0  0
 27 83  1  0  0  0  0
 28 64  2  0  0  0  0
 29 57  1  0  0  0  0
 29 65  1  0  0  0  0
 30 49  1  0  0  0  0
 30 65  1  0  0  0  0
 31 66  1  0  0  0  0
 31 69  1  0  0  0  0
 32 70  1  0  0  0  0
 32 75  2  0  0  0  0
 33 47  1  0  0  0  0
 33 71  1  0  0  0  0
 33 76  2  0  0  0  0
 34 61  1  0  0  0  0
 34 67  1  0  0  0  0
 34 77  2  0  0  0  0
 35 62  1  0  0  0  0
 35 72  1  0  0  0  0
 35 78  2  0  0  0  0
 36 68  1  0  0  0  0
 36 73  1  0  0  0  0
 36 79  2  0  0  0  0
 37 40  1  0  0  0  0
 38 47  1  0  0  0  0
 39 67  1  0  0  0  0
 40 42  1  0  0  0  0
 41 43  1  0  0  0  0
 41 44  1  0  0  0  0
 42 46  1  0  0  0  0
 43 48  1  0  0  0  0
 44 68  1  0  0  0  0
 45 48  1  0  0  0  0
 45 68  1  0  0  0  0
 46 71  1  0  0  0  0
 47 67  1  0  0  0  0
 48 66  1  0  0  0  0
 50 59  1  0  0  0  0
 51 62  1  0  0  0  0
 52 63  1  0  0  0  0
 53 63  1  0  0  0  0
 54 63  1  0  0  0  0
 55 74  1  0  0  0  0
 56 81  1  0  0  0  0
 57 58  1  0  0  0  0
 58 60  1  0  0  0  0
 59 65  1  0  0  0  0
 60 73  1  0  0  0  0
 61 63  1  0  0  0  0
 61 72  1  0  0  0  0
 62 74  1  0  0  0  0
 64 66  1  0  0  0  0
M  CHG  1  74   1
M  ISO  4  36 100  56 101  73 100  81 101
M  END
> <Batch ID>
0081

> <Smiles>
CCn1c(CCC[100NH:0][100C:0](=O)N2CCCC(n3nc(-c4ccc(Oc5ccc(F)cc5F)cc4)c(C(N)=O)c3N)C2)cc([101CH2:1][101O:1]c2ccc3c(c2)CN(C(=O)C(NC(=O)C(C)NC)C(C)(C)C)C(C(=O)NC2CCCc4ccccc42)C3)c1C

> <Shape>
0.385

> <Color>
0.217

> <Negative vol penalty>
0.000

$$$$

  -OEChem-04052318463D

 83 91  0     1  0  0  0  0  0999 V2000
  -26.0470  -34.9925   25.0155 C   0  0  0  0  0  0  0  0  0  0  0  0
  -26.6146  -33.8302   24.5032 C   0  0  0  0  0  0  0  0  0  0  0  0
  -25.7536  -12.5831   21.9038 C   0  0  0  0  0  0  0  0  0  0  0  0
  -25.2510  -13.5584   19.7514 C   0  0  0  0  0  0  0  0  0  0  0  0
  -24.7174  -34.9912   25.4352 C   0  0  0  0  0  0  0  0  0  0  0  0
  -25.8532  -32.6657   24.4113 C   0  0  0  0  0  0  0  0  0  0  0  0
  -26.4441  -30.3034   19.9711 C   0  0  0  0  0  0  0  0  0  0  0  0
  -25.3388  -11.3364   21.4358 C   0  0  0  0  0  0  0  0  0  0  0  0
  -24.8363  -12.3116   19.2833 C   0  0  0  0  0  0  0  0  0  0  0  0
  -27.6045  -29.5496   19.8004 C   0  0  0  0  0  0  0  0  0  0  0  0
  -24.0732   -7.9669   20.9175 C   0  0  0  0  0  0  0  0  0  0  0  0
  -23.2492   -7.2034   21.7443 C   0  0  0  0  0  0  0  0  0  0  0  0
  -26.3624  -27.5391   20.2845 C   0  0  0  0  0  0  0  0  0  0  0  0
  -21.5920   -8.9612   21.7158 C   0  0  0  0  0  0  0  0  0  0  0  0
  -30.5066  -22.9934   19.7395 C   0  0  0  0  0  0  0  0  0  0  0  0
  -25.7097  -13.6942   21.0616 C   0  0  0  0  0  0  0  0  0  0  0  0
  -27.4356  -15.5239   21.4867 C   0  0  0  0  0  0  0  0  0  0  0  0
  -23.9365  -33.8286   25.3395 C   0  0  0  0  0  0  0  0  0  0  0  0
  -25.2345  -29.6808   20.3111 C   0  0  0  0  0  0  0  0  0  0  0  0
  -24.5123  -32.6485   24.8314 C   0  0  0  0  0  0  0  0  0  0  0  0
  -25.1875  -28.2870   20.4564 C   0  0  0  0  0  0  0  0  0  0  0  0
  -24.8802  -11.2006   20.1255 C   0  0  0  0  0  0  0  0  0  0  0  0
  -27.5644  -28.1676   19.9599 C   0  0  0  0  0  0  0  0  0  0  0  0
  -23.6567   -9.2276   20.4899 C   0  0  0  0  0  0  0  0  0  0  0  0
  -22.0086   -7.7005   22.1434 C   0  0  0  0  0  0  0  0  0  0  0  0
  -22.4161   -9.7247   20.8890 C   0  0  0  0  0  0  0  0  0  0  0  0
  -26.1375  -14.9825   21.5447 C   0  0  0  0  0  0  0  0  0  0  0  0
  -29.8711  -21.8108   19.4856 C   0  0  0  0  0  0  0  0  0  0  0  0
  -27.3185  -16.7603   22.0733 C   0  0  0  0  0  0  0  0  0  0  0  0
  -29.2026  -22.5338   21.4683 C   0  0  0  0  0  0  0  0  0  0  0  0
  -28.6397  -14.9598   20.9504 C   0  0  0  0  0  0  0  0  0  0  0  0
  -23.2432  -29.8473   22.7831 C   0  0  0  0  0  0  0  0  0  0  0  0
  -21.4130  -27.9038   20.9404 C   0  0  0  0  0  0  0  0  0  0  0  0
  -21.2517  -25.6175   18.4118 C   0  0  0  0  0  0  0  0  0  0  0  0
  -24.5990  -21.5858   22.7549 C   0  0  0  0  0  0  0  0  0  0  0  0
  -22.5177  -33.8631   25.8498 C   0  0  0  0  0  0  0  0  0  0  0  0
  -23.9859  -30.5053   20.4655 C   0  0  0  0  0  0  0  0  0  0  0  0
  -23.9097  -27.5682   20.8011 C   0  0  0  0  0  0  0  0  0  0  0  0
  -21.6693  -32.6878   25.3707 C   0  0  0  0  0  0  0  0  0  0  0  0
  -23.5142  -18.8098   24.7027 C   0  0  0  0  0  0  0  0  0  0  0  0
  -22.4312  -31.3768   25.5369 C   0  0  0  0  0  0  0  0  0  0  0  0
  -24.2018  -17.6114   24.0463 C   0  0  0  0  0  0  0  0  0  0  0  0
  -23.0866  -19.8504   23.6701 C   0  0  0  0  0  0  0  0  0  0  0  0
  -24.8498  -19.1111   22.1150 C   0  0  0  0  0  0  0  0  0  0  0  0
  -23.7114  -31.3719   24.6928 C   0  0  1  0  0  0  0  0  0  0  0  0
  -22.9198  -29.8215   21.3160 C   0  0  1  0  0  0  0  0  0  0  0  0
  -25.3492  -18.0605   23.1216 C   0  0  2  0  0  0  0  0  0  0  0  0
  -29.9360  -20.9042   18.3365 C   0  0  0  0  0  0  0  0  0  0  0  0
  -19.6221  -24.1793   17.1574 C   0  0  0  0  0  0  0  0  0  0  0  0
  -21.2881  -25.9840   23.3087 C   0  0  0  0  0  0  0  0  0  0  0  0
  -20.4956  -24.2050   21.7354 C   0  0  0  0  0  0  0  0  0  0  0  0
  -19.1292  -26.2638   22.0776 C   0  0  0  0  0  0  0  0  0  0  0  0
  -21.8746  -26.9499   15.8435 C   0  0  0  0  0  0  0  0  0  0  0  0
  -28.4986  -22.6103   22.7726 C   0  0  0  0  0  0  0  0  0  0  0  0
  -27.2762  -23.5542   22.7917 C   0  0  0  0  0  0  0  0  0  0  0  0
  -30.2784  -25.9500   20.8251 C   0  0  0  0  0  0  0  0  0  0  0  0
  -30.5160  -24.6874   21.6564 C   0  0  0  0  0  0  0  0  0  0  0  0
  -26.1995  -23.2047   21.7666 C   0  0  0  0  0  0  0  0  0  0  0  0
  -28.8040  -26.2275   20.5559 C   0  0  0  0  0  0  0  0  0  1  0  0
  -21.2834  -26.4103   20.7623 C   0  0  1  0  0  0  0  0  0  0  0  0
  -20.3423  -25.5180   17.2003 C   0  0  2  0  0  0  0  0  0  0  0  0
  -20.5737  -25.7292   21.9664 C   0  0  0  0  0  0  0  0  0  0  0  0
  -25.2601  -15.8073   22.1227 N   0  0  0  0  0  0  0  0  0  0  0  0
  -30.0739  -23.4184   20.9725 N   0  0  0  0  0  0  0  0  0  0  0  0
  -26.0084  -16.8795   22.4334 N   0  0  0  0  0  0  0  0  0  0  0  0
  -29.0710  -21.5506   20.5720 N   0  3  0  0  0  0  0  0  0  0  0  0
  -22.7170  -28.4188   20.9480 N   0  0  0  0  0  0  0  0  0  0  0  0
  -24.2208  -20.2349   22.8265 N   0  0  0  0  0  0  0  0  0  0  0  0
  -28.2094  -17.7463   22.3113 N   0  0  0  0  0  0  0  0  0  0  0  0
  -28.5830  -13.6790   20.3842 N   0  0  0  0  0  0  0  0  0  0  0  0
  -23.3993  -31.1182   23.3026 N   0  0  0  0  0  0  0  0  0  0  0  0
  -20.6138  -26.2085   19.4819 N   0  0  0  0  0  0  0  0  0  0  0  0
  -25.6880  -21.8631   21.9376 N   0  0  0  0  0  0  0  0  0  0  0  0
  -21.1328  -25.6668   15.9457 N   0  3  0  0  0  0  0  0  0  0  0  0
  -29.7370  -15.5666   20.9875 O   0  0  0  0  0  0  0  0  0  0  0  0
  -23.3422  -28.7922   23.3985 O   0  0  0  0  0  0  0  0  0  0  0  0
  -20.3944  -28.5890   21.0610 O   0  0  0  0  0  0  0  0  0  0  0  0
  -22.4106  -25.2084   18.4102 O   0  0  0  0  0  0  0  0  0  0  0  0
  -24.0131  -22.4779   23.3776 O   0  0  0  0  0  0  0  0  0  0  0  0
  -24.4756   -9.9841   19.6684 O   0  0  0  0  0  0  0  0  0  0  0  0
  -28.6956  -27.4295   19.7945 O   0  0  0  0  0  0  0  0  0  1  0  0
  -21.2167   -6.9666   22.9362 F   0  0  0  0  0  0  0  0  0  0  0  0
  -22.0099  -10.9347   20.4805 F   0  0  0  0  0  0  0  0  0  0  0  0
  1  2  1  0  0  0  0
  1  5  2  0  0  0  0
  2  6  2  0  0  0  0
  3  8  2  0  0  0  0
  3 16  1  0  0  0  0
  4  9  1  0  0  0  0
  4 16  2  0  0  0  0
  5 18  1  0  0  0  0
  6 20  1  0  0  0  0
  7 10  2  0  0  0  0
  7 19  1  0  0  0  0
  8 22  1  0  0  0  0
  9 22  2  0  0  0  0
 10 23  1  0  0  0  0
 11 12  2  0  0  0  0
 11 24  1  0  0  0  0
 12 25  1  0  0  0  0
 13 21  1  0  0  0  0
 13 23  2  0  0  0  0
 14 25  2  0  0  0  0
 14 26  1  0  0  0  0
 15 28  2  0  0  0  0
 15 64  1  0  0  0  0
 16 27  1  0  0  0  0
 17 27  1  0  0  0  0
 17 29  2  0  0  0  0
 17 31  1  0  0  0  0
 18 20  2  0  0  0  0
 18 36  1  0  0  0  0
 19 21  2  0  0  0  0
 19 37  1  0  0  0  0
 20 45  1  0  0  0  0
 21 38  1  0  0  0  0
 22 80  1  0  0  0  0
 23 81  1  0  0  0  0
 24 26  2  0  0  0  0
 24 80  1  0  0  0  0
 25 82  1  0  0  0  0
 26 83  1  0  0  0  0
 27 63  2  0  0  0  0
 28 48  1  0  0  0  0
 28 66  1  0  0  0  0
 29 65  1  0  0  0  0
 29 69  1  0  0  0  0
 30 54  1  0  0  0  0
 30 64  1  0  0  0  0
 30 66  2  0  0  0  0
 31 70  1  0  0  0  0
 31 75  2  0  0  0  0
 32 46  1  0  0  0  0
 32 71  1  0  0  0  0
 32 76  2  0  0  0  0
 33 60  1  0  0  0  0
 33 67  1  0  0  0  0
 33 77  2  0  0  0  0
 34 61  1  0  0  0  0
 34 72  1  0  0  0  0
 34 78  2  0  0  0  0
 35 68  1  0  0  0  0
 35 73  1  0  0  0  0
 35 79  2  0  0  0  0
 36 39  1  0  0  0  0
 37 46  1  0  0  0  0
 38 67  1  0  0  0  0
 39 41  1  0  0  0  0
 40 42  1  0  0  0  0
 40 43  1  0  0  0  0
 41 45  1  0  0  0  0
 42 47  1  0  0  0  0
 43 68  1  0  0  0  0
 44 47  1  0  0  0  0
 44 68  1  0  0  0  0
 45 71  1  0  0  0  0
 46 67  1  0  0  0  0
 47 65  1  0  0  0  0
 49 61  1  0  0  0  0
 50 62  1  0  0  0  0
 51 62  1  0  0  0  0
 52 62  1  0  0  0  0
 53 74  1  0  0  0  0
 54 55  1  0  0  0  0
 55 58  1  0  0  0  0
 56 57  1  0  0  0  0
 56 59  1  0  0  0  0
 57 64  1  0  0  0  0
 58 73  1  0  0  0  0
 59 81  1  0  0  0  0
 60 62  1  0  0  0  0
 60 72  1  0  0  0  0
 61 74  1  0  0  0  0
 63 65  1  0  0  0  0
M  CHG  2  66   1  74   1
M  ISO  4  35 100  59 101  73 100  81 101
M  END
> <Batch ID>
0081

> <Smiles>
CNC(C)C(=O)NC(C(=O)N1Cc2cc([101O:1][101CH2:1]CCn3cc(C)nc3CCC[100NH:0][100C:0](=O)N3CCCC(n4nc(-c5ccc(Oc6ccc(F)cc6F)cc5)c(C(N)=O)c4N)C3)ccc2CC1C(=O)NC1CCCc2ccccc21)C(C)(C)C

> <Shape>
0.262

> <Color>
0.072

> <Negative vol penalty>
0.000

$$$$

  -OEChem-04052318463D

 85 93  0     1  0  0  0  0  0999 V2000
  -31.8623  -18.4915   22.1148 C   0  0  0  0  0  0  0  0  0  0  0  0
  -30.6254  -18.9676   21.6918 C   0  0  0  0  0  0  0  0  0  0  0  0
  -28.9508  -25.4358   21.8989 C   0  0  0  0  0  0  0  0  0  0  0  0
  -26.9019  -24.1644   22.0486 C   0  0  0  0  0  0  0  0  0  0  0  0
  -32.1395  -17.1264   22.0565 C   0  0  0  0  0  0  0  0  0  0  0  0
  -29.6654  -18.0789   21.2091 C   0  0  0  0  0  0  0  0  0  0  0  0
  -25.0503  -19.0000   23.0792 C   0  0  0  0  0  0  0  0  0  0  0  0
  -18.4503  -27.0200   24.6139 C   0  0  0  0  0  0  0  0  0  0  0  0
  -29.5877  -24.5064   22.7212 C   0  0  0  0  0  0  0  0  0  0  0  0
  -27.5389  -23.2349   22.8709 C   0  0  0  0  0  0  0  0  0  0  0  0
  -24.3377  -20.0610   22.5221 C   0  0  0  0  0  0  0  0  0  0  0  0
  -28.4528  -22.9941   26.1171 C   0  0  0  0  0  0  0  0  0  0  0  0
  -27.7738  -22.5653   27.2575 C   0  0  0  0  0  0  0  0  0  0  0  0
  -18.6602  -25.8186   23.9462 C   0  0  0  0  0  0  0  0  0  0  0  0
  -23.0782  -18.5021   21.1794 C   0  0  0  0  0  0  0  0  0  0  0  0
  -27.8461  -20.2910   26.4454 C   0  0  0  0  0  0  0  0  0  0  0  0
  -27.6079  -25.2648   21.5627 C   0  0  0  0  0  0  0  0  0  0  0  0
  -26.8625  -26.1990   19.3089 C   0  0  0  0  0  0  0  0  0  0  0  0
  -31.1790  -16.2193   21.5819 C   0  0  0  0  0  0  0  0  0  0  0  0
  -24.7893  -17.6808   22.6819 C   0  0  0  0  0  0  0  0  0  0  0  0
  -29.9306  -16.7004   21.1431 C   0  0  0  0  0  0  0  0  0  0  0  0
  -23.7871  -17.4260   21.7348 C   0  0  0  0  0  0  0  0  0  0  0  0
  -18.8764  -28.2121   24.0389 C   0  0  0  0  0  0  0  0  0  0  0  0
  -28.8818  -23.4059   23.2071 C   0  0  0  0  0  0  0  0  0  0  0  0
  -23.3535  -19.8124   21.5700 C   0  0  0  0  0  0  0  0  0  0  0  0
  -28.8283  -22.0714   25.1407 C   0  0  0  0  0  0  0  0  0  0  0  0
  -27.4705  -21.2137   27.4217 C   0  0  0  0  0  0  0  0  0  0  0  0
  -28.5250  -20.7199   25.3049 C   0  0  0  0  0  0  0  0  0  0  0  0
  -26.9493  -26.2249   20.7138 C   0  0  0  0  0  0  0  0  0  0  0  0
  -19.2958  -25.8628   22.7159 C   0  0  0  0  0  0  0  0  0  0  0  0
  -19.5026  -28.1492   22.8044 C   0  0  0  0  0  0  0  0  0  0  0  0
  -26.1406  -27.3228   18.9888 C   0  0  0  0  0  0  0  0  0  0  0  0
  -27.3873  -25.2444   18.3768 C   0  0  0  0  0  0  0  0  0  0  0  0
  -26.4803  -15.3850   21.2769 C   0  0  0  0  0  0  0  0  0  0  0  0
  -23.8376  -13.6046   21.8841 C   0  0  0  0  0  0  0  0  0  0  0  0
  -20.4782  -13.5150   22.4785 C   0  0  0  0  0  0  0  0  0  0  0  0
  -22.1453  -30.6013   22.0120 C   0  0  0  0  0  0  0  0  0  0  0  0
  -31.5417  -14.7581   21.4933 C   0  0  0  0  0  0  0  0  0  0  0  0
  -25.5484  -16.5453   23.3119 C   0  0  0  0  0  0  0  0  0  0  0  0
  -23.4545  -16.0263   21.2892 C   0  0  0  0  0  0  0  0  0  0  0  0
  -30.3343  -13.8403   21.3197 C   0  0  0  0  0  0  0  0  0  0  0  0
  -25.1929  -31.7396   20.5652 C   0  0  0  0  0  0  0  0  0  0  0  0
  -29.3991  -14.3859   20.2452 C   0  0  0  0  0  0  0  0  0  0  0  0
  -25.9808  -30.4530   20.3124 C   0  0  0  0  0  0  0  0  0  0  0  0
  -24.3798  -31.6592   21.8553 C   0  0  0  0  0  0  0  0  0  0  0  0
  -24.2762  -29.2017   21.7008 C   0  0  0  0  0  0  0  0  0  0  0  0
  -28.8544  -15.7649   20.6365 C   0  0  1  0  0  0  0  0  0  0  0  0
  -25.5542  -15.2827   22.4557 C   0  0  1  0  0  0  0  0  0  0  0  0
  -25.0682  -29.2138   20.3822 C   0  0  2  0  0  0  0  0  0  0  0  0
  -19.9274  -30.0277   25.4120 C   0  0  0  0  0  0  0  0  0  0  0  0
  -19.3126  -29.6351   20.7753 C   0  0  0  0  0  0  0  0  0  0  0  0
  -18.5942  -11.9116   22.8987 C   0  0  0  0  0  0  0  0  0  0  0  0
  -23.8033  -12.8726   18.9222 C   0  0  0  0  0  0  0  0  0  0  0  0
  -21.4428  -12.0909   19.2143 C   0  0  0  0  0  0  0  0  0  0  0  0
  -23.2879  -10.9779   20.4711 C   0  0  0  0  0  0  0  0  0  0  0  0
  -19.9212  -14.6857   25.1389 C   0  0  0  0  0  0  0  0  0  0  0  0
  -18.6555  -29.5023   24.7499 C   0  0  0  0  0  0  0  0  0  0  0  0
  -19.5383  -24.5789   21.9631 C   0  0  0  0  0  0  0  0  0  0  0  0
  -20.8802  -23.9139   22.2893 C   0  0  0  0  0  0  0  0  0  0  0  0
  -21.1419  -22.6556   21.4604 C   0  0  0  0  0  0  0  0  0  0  0  0
  -22.4636  -22.0013   21.8395 C   0  0  0  0  0  0  0  0  0  1  0  0
  -19.9784  -29.3980   22.1376 C   0  0  2  0  0  0  0  0  0  0  0  0
  -22.5578  -13.3035   21.1423 C   0  0  1  0  0  0  0  0  0  0  0  0
  -19.6608  -12.7907   23.5328 C   0  0  2  0  0  0  0  0  0  0  0  0
  -22.7803  -12.3378   19.9442 C   0  0  0  0  0  0  0  0  0  0  0  0
  -26.3321  -27.2815   21.2492 N   0  0  0  0  0  0  0  0  0  0  0  0
  -19.7240  -27.0012   22.1257 N   0  0  0  0  0  0  0  0  0  0  0  0
  -25.8506  -27.9301   20.1751 N   0  0  0  0  0  0  0  0  0  0  0  0
  -24.2287  -14.9502   21.9298 N   0  0  0  0  0  0  0  0  0  0  0  0
  -23.5346  -30.4627   21.8574 N   0  0  0  0  0  0  0  0  0  0  0  0
  -25.7322  -27.8410   17.8110 N   0  0  0  0  0  0  0  0  0  0  0  0
  -28.1047  -24.1485   18.8753 N   0  0  0  0  0  0  0  0  0  0  0  0
  -27.7971  -15.6315   21.6156 N   0  0  0  0  0  0  0  0  0  0  0  0
  -21.6141  -12.8105   22.1398 N   0  0  0  0  0  0  0  0  0  0  0  0
  -21.4173  -29.4179   21.9963 N   0  0  0  0  0  0  0  0  0  0  0  0
  -18.9885  -13.7715   24.4311 N   0  3  0  0  0  0  0  0  0  0  0  0
  -27.2389  -25.3686   17.1374 O   0  0  0  0  0  0  0  0  0  0  0  0
  -26.0335  -15.2489   20.1440 O   0  0  0  0  0  0  0  0  0  0  0  0
  -24.4635  -12.6807   22.4099 O   0  0  0  0  0  0  0  0  0  0  0  0
  -20.1408  -14.5957   22.0003 O   0  0  0  0  0  0  0  0  0  0  0  0
  -21.5941  -31.6988   22.1483 O   0  0  0  0  0  0  0  0  0  0  0  0
  -29.5030  -22.4987   24.0093 O   0  0  0  0  0  0  0  0  0  0  0  0
  -22.6569  -20.8462   21.0242 O   0  0  0  0  0  0  0  0  0  1  0  0
  -26.8199  -20.8018   28.5177 F   0  0  0  0  0  0  0  0  0  0  0  0
  -28.8843  -19.8286   24.3709 F   0  0  0  0  0  0  0  0  0  0  0  0
  1  2  1  0  0  0  0
  1  5  2  0  0  0  0
  2  6  2  0  0  0  0
  3  9  2  0  0  0  0
  3 17  1  0  0  0  0
  4 10  1  0  0  0  0
  4 17  2  0  0  0  0
  5 19  1  0  0  0  0
  6 21  1  0  0  0  0
  7 11  2  0  0  0  0
  7 20  1  0  0  0  0
  8 14  2  0  0  0  0
  8 23  1  0  0  0  0
  9 24  1  0  0  0  0
 10 24  2  0  0  0  0
 11 25  1  0  0  0  0
 12 13  2  0  0  0  0
 12 26  1  0  0  0  0
 13 27  1  0  0  0  0
 14 30  1  0  0  0  0
 15 22  1  0  0  0  0
 15 25  2  0  0  0  0
 16 27  2  0  0  0  0
 16 28  1  0  0  0  0
 17 29  1  0  0  0  0
 18 29  1  0  0  0  0
 18 32  2  0  0  0  0
 18 33  1  0  0  0  0
 19 21  2  0  0  0  0
 19 38  1  0  0  0  0
 20 22  2  0  0  0  0
 20 39  1  0  0  0  0
 21 47  1  0  0  0  0
 22 40  1  0  0  0  0
 23 31  2  0  0  0  0
 23 57  1  0  0  0  0
 24 82  1  0  0  0  0
 25 83  1  0  0  0  0
 26 28  2  0  0  0  0
 26 82  1  0  0  0  0
 27 84  1  0  0  0  0
 28 85  1  0  0  0  0
 29 66  2  0  0  0  0
 30 58  1  0  0  0  0
 30 67  2  0  0  0  0
 31 62  1  0  0  0  0
 31 67  1  0  0  0  0
 32 68  1  0  0  0  0
 32 71  1  0  0  0  0
 33 72  1  0  0  0  0
 33 77  2  0  0  0  0
 34 48  1  0  0  0  0
 34 73  1  0  0  0  0
 34 78  2  0  0  0  0
 35 63  1  0  0  0  0
 35 69  1  0  0  0  0
 35 79  2  0  0  0  0
 36 64  1  0  0  0  0
 36 74  1  0  0  0  0
 36 80  2  0  0  0  0
 37 70  1  0  0  0  0
 37 75  1  0  0  0  0
 37 81  2  0  0  0  0
 38 41  1  0  0  0  0
 39 48  1  0  0  0  0
 40 69  1  0  0  0  0
 41 43  1  0  0  0  0
 42 44  1  0  0  0  0
 42 45  1  0  0  0  0
 43 47  1  0  0  0  0
 44 49  1  0  0  0  0
 45 70  1  0  0  0  0
 46 49  1  0  0  0  0
 46 70  1  0  0  0  0
 47 73  1  0  0  0  0
 48 69  1  0  0  0  0
 49 68  1  0  0  0  0
 50 57  1  0  0  0  0
 51 62  1  0  0  0  0
 52 64  1  0  0  0  0
 53 65  1  0  0  0  0
 54 65  1  0  0  0  0
 55 65  1  0  0  0  0
 56 76  1  0  0  0  0
 58 59  1  0  0  0  0
 59 60  1  0  0  0  0
 60 61  1  0  0  0  0
 61 83  1  0  0  0  0
 62 75  1  0  0  0  0
 63 65  1  0  0  0  0
 63 74  1  0  0  0  0
 64 76  1  0  0  0  0
 66 68  1  0  0  0  0
M  CHG  1  76   1
M  ISO  4  37 100  61 101  75 100  83 101
M  END
> <Batch ID>
0081

> <Smiles>
CCc1ccc(CCC[101CH2:1][101O:1]c2ccc3c(c2)CN(C(=O)C(NC(=O)C(C)NC)C(C)(C)C)C(C(=O)NC2CCCc4ccccc42)C3)nc1C(C)[100NH:0][100C:0](=O)N1CCCC(n2nc(-c3ccc(Oc4ccc(F)cc4F)cc3)c(C(N)=O)c2N)C1

> <Shape>
0.203

> <Color>
0.071

> <Negative vol penalty>
0.000

$$$$

  -OEChem-04052318463D

 87 95  0     1  0  0  0  0  0999 V2000
  -16.8246  -25.2042   23.7763 C   0  0  0  0  0  0  0  0  0  0  0  0
  -17.4626  -24.5032   22.7580 C   0  0  0  0  0  0  0  0  0  0  0  0
  -25.8123  -13.2954   21.1921 C   0  0  0  0  0  0  0  0  0  0  0  0
  -24.7235  -14.0352   19.1662 C   0  0  0  0  0  0  0  0  0  0  0  0
  -17.1995  -26.5171   24.0582 C   0  0  0  0  0  0  0  0  0  0  0  0
  -18.4752  -25.1153   22.0201 C   0  0  0  0  0  0  0  0  0  0  0  0
  -23.4769  -22.4418   19.7091 C   0  0  0  0  0  0  0  0  0  0  0  0
  -24.8117  -12.3424   21.3819 C   0  0  0  0  0  0  0  0  0  0  0  0
  -23.7229  -13.0821   19.3560 C   0  0  0  0  0  0  0  0  0  0  0  0
  -23.7821  -21.9658   18.4347 C   0  0  0  0  0  0  0  0  0  0  0  0
  -24.0139   -9.2913   20.1622 C   0  0  0  0  0  0  0  0  0  0  0  0
  -24.4065   -8.0016   20.5199 C   0  0  0  0  0  0  0  0  0  0  0  0
  -24.8835  -24.0509   17.9262 C   0  0  0  0  0  0  0  0  0  0  0  0
  -23.1312   -8.1803   22.5642 C   0  0  0  0  0  0  0  0  0  0  0  0
  -29.3984  -22.0157   13.5013 C   0  0  0  0  0  0  0  0  0  0  0  0
  -25.7682  -14.1418   20.0842 C   0  0  0  0  0  0  0  0  0  0  0  0
  -28.0073  -14.9645   19.1802 C   0  0  0  0  0  0  0  0  0  0  0  0
  -18.2238  -27.1424   23.3299 C   0  0  0  0  0  0  0  0  0  0  0  0
  -23.8638  -23.7322   20.0984 C   0  0  0  0  0  0  0  0  0  0  0  0
  -18.8632  -26.4383   22.2917 C   0  0  0  0  0  0  0  0  0  0  0  0
  -24.5842  -24.5400   19.2069 C   0  0  0  0  0  0  0  0  0  0  0  0
  -23.7669  -12.2357   20.4639 C   0  0  0  0  0  0  0  0  0  0  0  0
  -24.4830  -22.7714   17.5420 C   0  0  0  0  0  0  0  0  0  0  0  0
  -23.1800  -10.0256   21.0055 C   0  0  0  0  0  0  0  0  0  0  0  0
  -23.9652   -7.4460   21.7209 C   0  0  0  0  0  0  0  0  0  0  0  0
  -22.7387   -9.4701   22.2065 C   0  0  0  0  0  0  0  0  0  0  0  0
  -26.8013  -15.1269   19.8879 C   0  0  0  0  0  0  0  0  0  0  0  0
  -29.9862  -20.8098   13.7605 C   0  0  0  0  0  0  0  0  0  0  0  0
  -28.6345  -16.1818   19.2866 C   0  0  0  0  0  0  0  0  0  0  0  0
  -29.7987  -21.9042   15.6756 C   0  0  0  0  0  0  0  0  0  0  0  0
  -28.5153  -13.8160   18.4884 C   0  0  0  0  0  0  0  0  0  0  0  0
  -22.3198  -26.3644   20.9881 C   0  0  0  0  0  0  0  0  0  0  0  0
  -25.3181  -27.4584   21.5676 C   0  0  0  0  0  0  0  0  0  0  0  0
  -28.6588  -27.2453   20.9031 C   0  0  0  0  0  0  0  0  0  0  0  0
  -28.4962  -21.7585   19.1237 C   0  0  0  0  0  0  0  0  0  0  0  0
  -18.5620  -28.5791   23.6397 C   0  0  0  0  0  0  0  0  0  0  0  0
  -23.5502  -24.2209   21.4860 C   0  0  0  0  0  0  0  0  0  0  0  0
  -25.0401  -25.9252   19.5832 C   0  0  0  0  0  0  0  0  0  0  0  0
  -19.9005  -29.0286   23.0595 C   0  0  0  0  0  0  0  0  0  0  0  0
  -27.5731  -20.1900   22.1839 C   0  0  0  0  0  0  0  0  0  0  0  0
  -20.0267  -28.5878   21.6047 C   0  0  0  0  0  0  0  0  0  0  0  0
  -27.3836  -18.7215   21.7996 C   0  0  0  0  0  0  0  0  0  0  0  0
  -27.1049  -21.1287   21.0741 C   0  0  0  0  0  0  0  0  0  0  0  0
  -27.5103  -19.3993   19.3658 C   0  0  0  0  0  0  0  0  0  0  0  0
  -19.9831  -27.0596   21.4855 C   0  0  1  0  0  0  0  0  0  0  0  0
  -23.5449  -25.7425   21.5965 C   0  0  1  0  0  0  0  0  0  0  0  0
  -28.0201  -18.4134   20.4310 C   0  0  2  0  0  0  0  0  0  0  0  0
  -31.3248  -22.2535   17.6532 C   0  0  0  0  0  0  0  0  0  0  0  0
  -31.1127  -27.7187   21.1296 C   0  0  0  0  0  0  0  0  0  0  0  0
  -32.8524  -19.7788   13.3627 C   0  0  0  0  0  0  0  0  0  0  0  0
  -32.0357  -18.6018   11.3106 C   0  0  0  0  0  0  0  0  0  0  0  0
  -23.8098  -22.9718   14.2078 C   0  0  0  0  0  0  0  0  0  0  0  0
  -24.6481  -29.8581   19.8062 C   0  0  0  0  0  0  0  0  0  0  0  0
  -27.0986  -30.3520   19.6671 C   0  0  0  0  0  0  0  0  0  0  0  0
  -25.9395  -30.4109   21.8752 C   0  0  0  0  0  0  0  0  0  0  0  0
  -28.9926  -25.1436   22.9600 C   0  0  0  0  0  0  0  0  0  0  0  0
  -30.3470  -19.6987   12.8762 C   0  0  0  0  0  0  0  0  0  0  0  0
  -27.2911  -24.0330   15.4958 C   0  0  0  0  0  0  0  0  0  0  0  0
  -26.2821  -23.2543   14.6409 C   0  0  0  0  0  0  0  0  0  0  0  0
  -28.7013  -24.0452   14.8941 C   0  0  0  0  0  0  0  0  0  0  0  0
  -29.8817  -22.2338   17.1204 C   0  0  2  0  0  0  0  0  0  0  0  0
  -26.3666  -28.1832   20.7587 C   0  0  1  0  0  0  0  0  0  0  0  0
  -29.8666  -27.1874   21.8208 C   0  0  2  0  0  0  0  0  0  0  0  0
  -31.7818  -19.7683   12.2687 C   0  0  0  0  0  0  0  0  0  0  0  0
  -24.8762  -23.2756   15.2514 C   0  0  2  0  0  0  0  0  0  1  0  0
  -26.0031  -29.6757   20.5187 C   0  0  0  0  0  0  0  0  0  0  0  0
  -26.6682  -16.3508   20.4058 N   0  0  0  0  0  0  0  0  0  0  0  0
  -29.2942  -22.6718   14.7041 N   0  0  0  0  0  0  0  0  0  0  0  0
  -27.7987  -16.9686   20.0233 N   0  0  0  0  0  0  0  0  0  0  0  0
  -30.2232  -20.7679   15.1133 N   0  3  0  0  0  0  0  0  0  0  0  0
  -24.7038  -26.3603   20.9490 N   0  0  0  0  0  0  0  0  0  0  0  0
  -27.7468  -20.7840   19.8033 N   0  0  0  0  0  0  0  0  0  0  0  0
  -29.8139  -16.6451   18.8211 N   0  0  0  0  0  0  0  0  0  0  0  0
  -27.7426  -12.6467   18.4776 N   0  0  0  0  0  0  0  0  0  0  0  0
  -21.2573  -26.4866   21.8631 N   0  0  0  0  0  0  0  0  0  0  0  0
  -27.6320  -27.9811   21.4560 N   0  0  0  0  0  0  0  0  0  0  0  0
  -29.0763  -21.3470   17.9301 N   0  0  0  0  0  0  0  0  0  0  0  0
  -30.1275  -25.7830   22.2458 N   0  3  0  0  0  0  0  0  0  0  0  0
  -29.6290  -13.8212   17.9112 O   0  0  0  0  0  0  0  0  0  0  0  0
  -22.3378  -26.7091   19.8123 O   0  0  0  0  0  0  0  0  0  0  0  0
  -25.0589  -27.8477   22.7090 O   0  0  0  0  0  0  0  0  0  0  0  0
  -28.6304  -26.6960   19.8040 O   0  0  0  0  0  0  0  0  0  0  0  0
  -28.6423  -22.9084   19.5520 O   0  0  0  0  0  0  0  0  0  0  0  0
  -22.7905  -11.3057   20.6486 O   0  0  0  0  0  0  0  0  0  0  0  0
  -24.7816  -22.3095   16.2973 O   0  0  0  0  0  0  0  0  0  1  0  0
  -24.3410   -6.2069   22.0635 F   0  0  0  0  0  0  0  0  0  0  0  0
  -21.9365  -10.1703   23.0201 F   0  0  0  0  0  0  0  0  0  0  0  0
  1  2  1  0  0  0  0
  1  5  2  0  0  0  0
  2  6  2  0  0  0  0
  3  8  2  0  0  0  0
  3 16  1  0  0  0  0
  4  9  1  0  0  0  0
  4 16  2  0  0  0  0
  5 18  1  0  0  0  0
  6 20  1  0  0  0  0
  7 10  2  0  0  0  0
  7 19  1  0  0  0  0
  8 22  1  0  0  0  0
  9 22  2  0  0  0  0
 10 23  1  0  0  0  0
 11 12  2  0  0  0  0
 11 24  1  0  0  0  0
 12 25  1  0  0  0  0
 13 21  1  0  0  0  0
 13 23  2  0  0  0  0
 14 25  2  0  0  0  0
 14 26  1  0  0  0  0
 15 28  2  0  0  0  0
 15 68  1  0  0  0  0
 16 27  1  0  0  0  0
 17 27  1  0  0  0  0
 17 29  2  0  0  0  0
 17 31  1  0  0  0  0
 18 20  2  0  0  0  0
 18 36  1  0  0  0  0
 19 21  2  0  0  0  0
 19 37  1  0  0  0  0
 20 45  1  0  0  0  0
 21 38  1  0  0  0  0
 22 84  1  0  0  0  0
 23 85  1  0  0  0  0
 24 26  2  0  0  0  0
 24 84  1  0  0  0  0
 25 86  1  0  0  0  0
 26 87  1  0  0  0  0
 27 67  2  0  0  0  0
 28 57  1  0  0  0  0
 28 70  1  0  0  0  0
 29 69  1  0  0  0  0
 29 73  1  0  0  0  0
 30 61  1  0  0  0  0
 30 68  1  0  0  0  0
 30 70  2  0  0  0  0
 31 74  1  0  0  0  0
 31 79  2  0  0  0  0
 32 46  1  0  0  0  0
 32 75  1  0  0  0  0
 32 80  2  0  0  0  0
 33 62  1  0  0  0  0
 33 71  1  0  0  0  0
 33 81  2  0  0  0  0
 34 63  1  0  0  0  0
 34 76  1  0  0  0  0
 34 82  2  0  0  0  0
 35 72  1  0  0  0  0
 35 77  1  0  0  0  0
 35 83  2  0  0  0  0
 36 39  1  0  0  0  0
 37 46  1  0  0  0  0
 38 71  1  0  0  0  0
 39 41  1  0  0  0  0
 40 42  1  0  0  0  0
 40 43  1  0  0  0  0
 41 45  1  0  0  0  0
 42 47  1  0  0  0  0
 43 72  1  0  0  0  0
 44 47  1  0  0  0  0
 44 72  1  0  0  0  0
 45 75  1  0  0  0  0
 46 71  1  0  0  0  0
 47 69  1  0  0  0  0
 48 61  1  0  0  0  0
 49 63  1  0  0  0  0
 50 64  1  0  0  0  0
 51 64  1  0  0  0  0
 52 65  1  0  0  0  0
 53 66  1  0  0  0  0
 54 66  1  0  0  0  0
 55 66  1  0  0  0  0
 56 78  1  0  0  0  0
 57 64  1  0  0  0  0
 58 59  1  0  0  0  0
 58 60  1  0  0  0  0
 59 65  1  0  0  0  0
 60 68  1  0  0  0  0
 61 77  1  0  0  0  0
 62 66  1  0  0  0  0
 62 76  1  0  0  0  0
 63 78  1  0  0  0  0
 65 85  1  0  0  0  0
 67 69  1  0  0  0  0
M  CHG  2  70   1  78   1
M  ISO  4  35 100  65 101  77 100  85 101
M  END
> <Batch ID>
0081

> <Smiles>
CNC(C)C(=O)NC(C(=O)N1Cc2cc([101O:1][101CH:1](C)CCCn3cc(CC(C)C)nc3C(C)[100NH:0][100C:0](=O)N3CCCC(n4nc(-c5ccc(Oc6ccc(F)cc6F)cc5)c(C(N)=O)c4N)C3)ccc2CC1C(=O)NC1CCCc2ccccc21)C(C)(C)C

> <Shape>
0.235

> <Color>
0.070

> <Negative vol penalty>
0.000

$$$$

  -OEChem-04052318463D

 87 95  0     1  0  0  0  0  0999 V2000
  -30.5584  -25.3551   13.9922 C   0  0  0  0  0  0  0  0  0  0  0  0
  -29.7808  -24.7285   14.9607 C   0  0  0  0  0  0  0  0  0  0  0  0
  -23.8685  -11.7196   23.9402 C   0  0  0  0  0  0  0  0  0  0  0  0
  -24.1090  -14.1235   23.9544 C   0  0  0  0  0  0  0  0  0  0  0  0
  -31.2051  -26.5544   14.2878 C   0  0  0  0  0  0  0  0  0  0  0  0
  -29.6503  -25.3002   16.2258 C   0  0  0  0  0  0  0  0  0  0  0  0
  -24.8680  -25.2621   17.8910 C   0  0  0  0  0  0  0  0  0  0  0  0
  -23.2792  -11.7711   25.2034 C   0  0  0  0  0  0  0  0  0  0  0  0
  -23.5197  -14.1751   25.2175 C   0  0  0  0  0  0  0  0  0  0  0  0
  -24.3781  -24.0571   18.3929 C   0  0  0  0  0  0  0  0  0  0  0  0
  -24.4418  -13.6146   28.4217 C   0  0  0  0  0  0  0  0  0  0  0  0
  -25.0427  -14.4253   29.3846 C   0  0  0  0  0  0  0  0  0  0  0  0
  -24.7643  -24.8435   20.6405 C   0  0  0  0  0  0  0  0  0  0  0  0
  -27.2337  -21.6312   20.3596 C   0  0  0  0  0  0  0  0  0  0  0  0
  -27.3385  -19.2301   20.4479 C   0  0  0  0  0  0  0  0  0  0  0  0
  -23.0098  -15.7184   29.5645 C   0  0  0  0  0  0  0  0  0  0  0  0
  -24.2835  -12.8958   23.3157 C   0  0  0  0  0  0  0  0  0  0  0  0
  -24.2417  -12.9158   20.7651 C   0  0  0  0  0  0  0  0  0  0  0  0
  -31.0747  -27.1462   15.5541 C   0  0  0  0  0  0  0  0  0  0  0  0
  -25.3206  -26.2642   18.7612 C   0  0  0  0  0  0  0  0  0  0  0  0
  -30.2969  -26.5079   16.5390 C   0  0  0  0  0  0  0  0  0  0  0  0
  -25.2571  -26.0612   20.1472 C   0  0  0  0  0  0  0  0  0  0  0  0
  -26.6571  -20.4143   20.7060 C   0  0  0  0  0  0  0  0  0  0  0  0
  -23.1047  -12.9988   25.8421 C   0  0  0  0  0  0  0  0  0  0  0  0
  -24.3289  -23.8465   19.7678 C   0  0  0  0  0  0  0  0  0  0  0  0
  -23.1249  -13.8558   28.0301 C   0  0  0  0  0  0  0  0  0  0  0  0
  -24.3267  -15.4772   29.9560 C   0  0  0  0  0  0  0  0  0  0  0  0
  -22.4089  -14.9077   28.6015 C   0  0  0  0  0  0  0  0  0  0  0  0
  -24.8929  -12.8432   22.0111 C   0  0  0  0  0  0  0  0  0  0  0  0
  -28.4836  -21.6100   19.7620 C   0  0  0  0  0  0  0  0  0  0  0  0
  -28.5836  -19.3163   19.8462 C   0  0  0  0  0  0  0  0  0  0  0  0
  -25.2545  -12.8208   19.8423 C   0  0  0  0  0  0  0  0  0  0  0  0
  -22.8461  -13.0568   20.4684 C   0  0  0  0  0  0  0  0  0  0  0  0
  -28.1062  -27.7116   19.2602 C   0  0  0  0  0  0  0  0  0  0  0  0
  -26.3474  -29.5503   21.2721 C   0  0  0  0  0  0  0  0  0  0  0  0
  -23.5695  -29.8621   23.2299 C   0  0  0  0  0  0  0  0  0  0  0  0
  -31.1012  -14.0939   20.0594 C   0  0  0  0  0  0  0  0  0  0  0  0
  -31.8309  -28.4189   15.8420 C   0  0  0  0  0  0  0  0  0  0  0  0
  -25.8212  -27.5688   18.2046 C   0  0  0  0  0  0  0  0  0  0  0  0
  -25.7118  -27.1132   21.1244 C   0  0  0  0  0  0  0  0  0  0  0  0
  -31.3382  -29.1518   17.0872 C   0  0  0  0  0  0  0  0  0  0  0  0
  -29.6217  -10.9570   19.2544 C   0  0  0  0  0  0  0  0  0  0  0  0
  -31.1621  -28.1759   18.2463 C   0  0  0  0  0  0  0  0  0  0  0  0
  -28.1832  -11.0913   19.7572 C   0  0  0  0  0  0  0  0  0  0  0  0
  -30.6102  -11.6686   20.1755 C   0  0  0  0  0  0  0  0  0  0  0  0
  -28.8569  -13.2179   20.9498 C   0  0  0  0  0  0  0  0  0  0  0  0
  -30.1110  -27.1097   17.9150 C   0  0  1  0  0  0  0  0  0  0  0  0
  -26.7348  -28.3187   19.1692 C   0  0  1  0  0  0  0  0  0  0  0  0
  -27.8174  -12.5639   20.0235 C   0  0  2  0  0  0  0  0  0  0  0  0
  -29.1337  -22.8971   19.3782 C   0  0  0  0  0  0  0  0  0  0  0  0
  -29.4663  -17.8119   18.0252 C   0  0  0  0  0  0  0  0  0  0  0  0
  -22.4236  -31.4665   24.7824 C   0  0  0  0  0  0  0  0  0  0  0  0
  -28.3776  -28.8878   23.4515 C   0  0  0  0  0  0  0  0  0  0  0  0
  -26.7191  -29.6946   25.1446 C   0  0  0  0  0  0  0  0  0  0  0  0
  -27.6122  -31.2685   23.4277 C   0  0  0  0  0  0  0  0  0  0  0  0
  -31.7332  -19.0209   19.9455 C   0  0  0  0  0  0  0  0  0  0  0  0
  -30.5056  -17.9693   21.8447 C   0  0  0  0  0  0  0  0  0  0  0  0
  -21.1657  -29.9918   21.5084 C   0  0  0  0  0  0  0  0  0  0  0  0
  -25.2989  -20.3791   21.3599 C   0  0  0  0  0  0  0  0  0  0  0  0
  -24.1388  -20.2914   20.3658 C   0  0  0  0  0  0  0  0  0  0  0  0
  -31.4395  -16.5515   19.9915 C   0  0  0  0  0  0  0  0  0  0  0  0
  -24.0321  -21.5079   19.4536 C   0  0  0  0  0  0  0  0  0  1  0  0
  -29.3421  -18.0651   19.5528 C   0  0  1  0  0  0  0  0  0  0  0  0
  -25.9692  -29.4774   22.7318 C   0  0  1  0  0  0  0  0  0  0  0  0
  -22.5405  -30.9718   23.3491 C   0  0  2  0  0  0  0  0  0  0  0  0
  -27.1627  -29.8113   23.6707 C   0  0  0  0  0  0  0  0  0  0  0  0
  -30.7354  -17.9010   20.3153 C   0  0  0  0  0  0  0  0  0  0  0  0
  -26.2169  -12.7119   21.8941 N   0  0  0  0  0  0  0  0  0  0  0  0
  -29.1759  -20.4798   19.4955 N   0  0  0  0  0  0  0  0  0  0  0  0
  -26.4059  -12.7012   20.5636 N   0  0  0  0  0  0  0  0  0  0  0  0
  -26.1991  -28.3694   20.5310 N   0  0  0  0  0  0  0  0  0  0  0  0
  -30.2069  -13.0611   20.3861 N   0  0  0  0  0  0  0  0  0  0  0  0
  -25.2636  -12.8285   18.4924 N   0  0  0  0  0  0  0  0  0  0  0  0
  -21.9412  -13.1403   21.5355 N   0  0  0  0  0  0  0  0  0  0  0  0
  -28.7774  -27.6545   18.0536 N   0  0  0  0  0  0  0  0  0  0  0  0
  -24.8145  -30.3534   22.8985 N   0  0  0  0  0  0  0  0  0  0  0  0
  -30.6376  -15.3844   20.2839 N   0  0  0  0  0  0  0  0  0  0  0  0
  -21.2020  -30.4865   22.9088 N   0  3  0  0  0  0  0  0  0  0  0  0
  -22.4125  -13.0907   19.2918 O   0  0  0  0  0  0  0  0  0  0  0  0
  -28.5251  -27.3250   20.3450 O   0  0  0  0  0  0  0  0  0  0  0  0
  -26.7526  -30.6177   20.8050 O   0  0  0  0  0  0  0  0  0  0  0  0
  -23.2970  -28.6782   23.4162 O   0  0  0  0  0  0  0  0  0  0  0  0
  -32.2271  -13.8818   19.5966 O   0  0  0  0  0  0  0  0  0  0  0  0
  -22.5294  -13.0495   27.0746 O   0  0  0  0  0  0  0  0  0  0  0  0
  -23.8519  -22.6711   20.2604 O   0  0  0  0  0  0  0  0  0  1  0  0
  -24.9034  -16.2547   30.8818 F   0  0  0  0  0  0  0  0  0  0  0  0
  -21.1430  -15.1436   28.2302 F   0  0  0  0  0  0  0  0  0  0  0  0
  1  2  1  0  0  0  0
  1  5  2  0  0  0  0
  2  6  2  0  0  0  0
  3  8  2  0  0  0  0
  3 17  1  0  0  0  0
  4  9  1  0  0  0  0
  4 17  2  0  0  0  0
  5 19  1  0  0  0  0
  6 21  1  0  0  0  0
  7 10  2  0  0  0  0
  7 20  1  0  0  0  0
  8 24  1  0  0  0  0
  9 24  2  0  0  0  0
 10 25  1  0  0  0  0
 11 12  2  0  0  0  0
 11 26  1  0  0  0  0
 12 27  1  0  0  0  0
 13 22  1  0  0  0  0
 13 25  2  0  0  0  0
 14 23  1  0  0  0  0
 14 30  2  0  0  0  0
 15 23  2  0  0  0  0
 15 31  1  0  0  0  0
 16 27  2  0  0  0  0
 16 28  1  0  0  0  0
 17 29  1  0  0  0  0
 18 29  1  0  0  0  0
 18 32  2  0  0  0  0
 18 33  1  0  0  0  0
 19 21  2  0  0  0  0
 19 38  1  0  0  0  0
 20 22  2  0  0  0  0
 20 39  1  0  0  0  0
 21 47  1  0  0  0  0
 22 40  1  0  0  0  0
 23 59  1  0  0  0  0
 24 84  1  0  0  0  0
 25 85  1  0  0  0  0
 26 28  2  0  0  0  0
 26 84  1  0  0  0  0
 27 86  1  0  0  0  0
 28 87  1  0  0  0  0
 29 68  2  0  0  0  0
 30 50  1  0  0  0  0
 30 69  1  0  0  0  0
 31 63  1  0  0  0  0
 31 69  2  0  0  0  0
 32 70  1  0  0  0  0
 32 73  1  0  0  0  0
 33 74  1  0  0  0  0
 33 79  2  0  0  0  0
 34 48  1  0  0  0  0
 34 75  1  0  0  0  0
 34 80  2  0  0  0  0
 35 64  1  0  0  0  0
 35 71  1  0  0  0  0
 35 81  2  0  0  0  0
 36 65  1  0  0  0  0
 36 76  1  0  0  0  0
 36 82  2  0  0  0  0
 37 72  1  0  0  0  0
 37 77  1  0  0  0  0
 37 83  2  0  0  0  0
 38 41  1  0  0  0  0
 39 48  1  0  0  0  0
 40 71  1  0  0  0  0
 41 43  1  0  0  0  0
 42 44  1  0  0  0  0
 42 45  1  0  0  0  0
 43 47  1  0  0  0  0
 44 49  1  0  0  0  0
 45 72  1  0  0  0  0
 46 49  1  0  0  0  0
 46 72  1  0  0  0  0
 47 75  1  0  0  0  0
 48 71  1  0  0  0  0
 49 70  1  0  0  0  0
 51 63  1  0  0  0  0
 52 65  1  0  0  0  0
 53 66  1  0  0  0  0
 54 66  1  0  0  0  0
 55 66  1  0  0  0  0
 56 67  1  0  0  0  0
 57 67  1  0  0  0  0
 58 78  1  0  0  0  0
 59 60  1  0  0  0  0
 60 62  1  0  0  0  0
 61 67  1  0  0  0  0
 61 77  1  0  0  0  0
 62 85  1  0  0  0  0
 63 67  1  0  0  0  0
 64 66  1  0  0  0  0
 64 76  1  0  0  0  0
 65 78  1  0  0  0  0
 68 70  1  0  0  0  0
M  CHG  1  78   1
M  ISO  4  37 100  62 101  77 100  85 101
M  END
> <Batch ID>
0081

> <Smiles>
CNC(C)C(=O)NC(C(=O)N1Cc2cc([101O:1][101CH2:1]CCc3cc(C)nc(C(C)C(C)(C)C[100NH:0][100C:0](=O)N4CCCC(n5nc(-c6ccc(Oc7ccc(F)cc7F)cc6)c(C(N)=O)c5N)C4)c3)ccc2CC1C(=O)NC1CCCc2ccccc21)C(C)(C)C

> <Shape>
0.240

> <Color>
0.103

> <Negative vol penalty>
0.000

$$$$

  -OEChem-04052318463D

 85 93  0     1  0  0  0  0  0999 V2000
  -16.3203  -26.8850   25.9841 C   0  0  0  0  0  0  0  0  0  0  0  0
  -16.9502  -25.8978   25.2331 C   0  0  0  0  0  0  0  0  0  0  0  0
  -24.4917  -17.8440   22.2917 C   0  0  0  0  0  0  0  0  0  0  0  0
  -24.0674  -18.3547   19.9687 C   0  0  0  0  0  0  0  0  0  0  0  0
  -16.5045  -28.2288   25.6614 C   0  0  0  0  0  0  0  0  0  0  0  0
  -17.7639  -26.2539   24.1581 C   0  0  0  0  0  0  0  0  0  0  0  0
  -22.8551  -23.4065   22.2932 C   0  0  0  0  0  0  0  0  0  0  0  0
  -25.4041  -21.2390   14.3334 C   0  0  0  0  0  0  0  0  0  0  0  0
  -23.1281  -17.6316   22.4941 C   0  0  0  0  0  0  0  0  0  0  0  0
  -22.7038  -18.1423   20.1711 C   0  0  0  0  0  0  0  0  0  0  0  0
  -23.0943  -22.4823   21.2770 C   0  0  0  0  0  0  0  0  0  0  0  0
  -19.1529  -17.3830   19.9906 C   0  0  0  0  0  0  0  0  0  0  0  0
  -18.4656  -16.6269   19.0411 C   0  0  0  0  0  0  0  0  0  0  0  0
  -24.9945  -21.8739   13.1662 C   0  0  0  0  0  0  0  0  0  0  0  0
  -23.7798  -24.2753   19.8160 C   0  0  0  0  0  0  0  0  0  0  0  0
  -19.9177  -14.7480   19.4863 C   0  0  0  0  0  0  0  0  0  0  0  0
  -24.9614  -18.2056   21.0290 C   0  0  0  0  0  0  0  0  0  0  0  0
  -27.3312  -17.4722   20.4340 C   0  0  0  0  0  0  0  0  0  0  0  0
  -17.3286  -28.6019   24.5879 C   0  0  0  0  0  0  0  0  0  0  0  0
  -23.0663  -24.7754   22.0745 C   0  0  0  0  0  0  0  0  0  0  0  0
  -17.9582  -27.6039   23.8199 C   0  0  0  0  0  0  0  0  0  0  0  0
  -23.5449  -25.2145   20.8318 C   0  0  0  0  0  0  0  0  0  0  0  0
  -26.0994  -21.9558   15.3009 C   0  0  0  0  0  0  0  0  0  0  0  0
  -22.2341  -17.7808   21.4338 C   0  0  0  0  0  0  0  0  0  0  0  0
  -23.5540  -22.9170   20.0373 C   0  0  0  0  0  0  0  0  0  0  0  0
  -20.2226  -16.8217   20.6879 C   0  0  0  0  0  0  0  0  0  0  0  0
  -18.8480  -15.3094   18.7890 C   0  0  0  0  0  0  0  0  0  0  0  0
  -20.6050  -15.5042   20.4358 C   0  0  0  0  0  0  0  0  0  0  0  0
  -26.3699  -18.4257   20.8195 C   0  0  0  0  0  0  0  0  0  0  0  0
  -25.3025  -23.2164   13.0158 C   0  0  0  0  0  0  0  0  0  0  0  0
  -26.3581  -23.2946   15.0548 C   0  0  0  0  0  0  0  0  0  0  0  0
  -28.5085  -18.1768   20.3731 C   0  0  0  0  0  0  0  0  0  0  0  0
  -27.1739  -16.0744   20.1559 C   0  0  0  0  0  0  0  0  0  0  0  0
  -21.2194  -27.3623   22.0997 C   0  0  0  0  0  0  0  0  0  0  0  0
  -24.0442  -28.9059   21.6995 C   0  0  0  0  0  0  0  0  0  0  0  0
  -27.2834  -28.7896   20.6312 C   0  0  0  0  0  0  0  0  0  0  0  0
  -29.7540  -23.9672   19.4945 C   0  0  0  0  0  0  0  0  0  0  0  0
  -17.4596  -30.0654   24.2478 C   0  0  0  0  0  0  0  0  0  0  0  0
  -22.8290  -25.7568   23.1894 C   0  0  0  0  0  0  0  0  0  0  0  0
  -23.8070  -26.6712   20.5527 C   0  0  0  0  0  0  0  0  0  0  0  0
  -18.6364  -30.3734   23.3256 C   0  0  0  0  0  0  0  0  0  0  0  0
  -30.7038  -21.9728   22.2868 C   0  0  0  0  0  0  0  0  0  0  0  0
  -18.6749  -29.3880   22.1619 C   0  0  0  0  0  0  0  0  0  0  0  0
  -29.7875  -20.7515   22.1926 C   0  0  0  0  0  0  0  0  0  0  0  0
  -29.9877  -23.2503   21.8541 C   0  0  0  0  0  0  0  0  0  0  0  0
  -28.4426  -21.9655   20.4273 C   0  0  0  0  0  0  0  0  0  0  0  0
  -18.8682  -27.9513   22.6617 C   0  0  1  0  0  0  0  0  0  0  0  0
  -22.5879  -27.1788   22.6924 C   0  0  1  0  0  0  0  0  0  0  0  0
  -29.1371  -20.6446   20.8002 C   0  0  2  0  0  0  0  0  0  0  0  0
  -24.8766  -23.9298   11.7761 C   0  0  0  0  0  0  0  0  0  0  0  0
  -26.5991  -25.5751   16.0714 C   0  0  0  0  0  0  0  0  0  0  0  0
  -29.3330  -30.2185   20.3975 C   0  0  0  0  0  0  0  0  0  0  0  0
  -22.8059  -30.2812   19.2736 C   0  0  0  0  0  0  0  0  0  0  0  0
  -25.1136  -30.9280   18.5495 C   0  0  0  0  0  0  0  0  0  0  0  0
  -24.2058  -31.7700   20.7151 C   0  0  0  0  0  0  0  0  0  0  0  0
  -28.8490  -27.0419   22.4349 C   0  0  0  0  0  0  0  0  0  0  0  0
  -26.5474  -21.2725   16.5681 C   0  0  0  0  0  0  0  0  0  0  0  0
  -25.4198  -21.0460   17.5775 C   0  0  0  0  0  0  0  0  0  0  0  0
  -28.6426  -24.1041   15.8719 C   0  0  0  0  0  0  0  0  0  0  0  0
  -29.4242  -24.5551   17.1060 C   0  0  0  0  0  0  0  0  0  0  0  0
  -24.8094  -22.3407   18.1014 C   0  0  0  0  0  0  0  0  0  1  0  0
  -27.0984  -24.1149   16.0598 C   0  0  2  0  0  0  0  0  0  0  0  0
  -24.8670  -29.3384   20.5100 C   0  0  1  0  0  0  0  0  0  0  0  0
  -28.5765  -29.2424   21.2849 C   0  0  2  0  0  0  0  0  0  0  0  0
  -24.2414  -30.5521   19.7664 C   0  0  0  0  0  0  0  0  0  0  0  0
  -26.8914  -19.6432   20.9914 N   0  0  0  0  0  0  0  0  0  0  0  0
  -25.9762  -23.9457   13.9333 N   0  0  0  0  0  0  0  0  0  0  0  0
  -28.1932  -19.4596   20.7128 N   0  0  0  0  0  0  0  0  0  0  0  0
  -23.5539  -27.5926   21.6727 N   0  0  0  0  0  0  0  0  0  0  0  0
  -29.3946  -23.0831   20.5252 N   0  0  0  0  0  0  0  0  0  0  0  0
  -29.7724  -17.8182   20.0627 N   0  0  0  0  0  0  0  0  0  0  0  0
  -25.8954  -15.5110   20.2663 N   0  0  0  0  0  0  0  0  0  0  0  0
  -20.2520  -27.7221   23.0184 N   0  0  0  0  0  0  0  0  0  0  0  0
  -26.2163  -29.5757   21.0116 N   0  0  0  0  0  0  0  0  0  0  0  0
  -29.1506  -23.7344   18.2646 N   0  0  0  0  0  0  0  0  0  0  0  0
  -29.4583  -28.0716   21.5543 N   0  3  0  0  0  0  0  0  0  0  0  0
  -28.1415  -15.3433   19.8354 O   0  0  0  0  0  0  0  0  0  0  0  0
  -21.0538  -27.1915   20.8975 O   0  0  0  0  0  0  0  0  0  0  0  0
  -23.8499  -29.7016   22.6219 O   0  0  0  0  0  0  0  0  0  0  0  0
  -27.2263  -27.8365   19.8574 O   0  0  0  0  0  0  0  0  0  0  0  0
  -30.5574  -24.8919   19.6568 O   0  0  0  0  0  0  0  0  0  0  0  0
  -20.9034  -17.5734   21.6308 O   0  0  0  0  0  0  0  0  0  0  0  0
  -23.7876  -22.0171   19.0436 O   0  0  0  0  0  0  0  0  0  1  0  0
  -18.1869  -14.5829   17.8783 F   0  0  0  0  0  0  0  0  0  0  0  0
  -21.6311  -14.9590   21.1034 F   0  0  0  0  0  0  0  0  0  0  0  0
  1  2  1  0  0  0  0
  1  5  2  0  0  0  0
  2  6  2  0  0  0  0
  3  9  2  0  0  0  0
  3 17  1  0  0  0  0
  4 10  1  0  0  0  0
  4 17  2  0  0  0  0
  5 19  1  0  0  0  0
  6 21  1  0  0  0  0
  7 11  2  0  0  0  0
  7 20  1  0  0  0  0
  8 14  2  0  0  0  0
  8 23  1  0  0  0  0
  9 24  1  0  0  0  0
 10 24  2  0  0  0  0
 11 25  1  0  0  0  0
 12 13  2  0  0  0  0
 12 26  1  0  0  0  0
 13 27  1  0  0  0  0
 14 30  1  0  0  0  0
 15 22  1  0  0  0  0
 15 25  2  0  0  0  0
 16 27  2  0  0  0  0
 16 28  1  0  0  0  0
 17 29  1  0  0  0  0
 18 29  1  0  0  0  0
 18 32  2  0  0  0  0
 18 33  1  0  0  0  0
 19 21  2  0  0  0  0
 19 38  1  0  0  0  0
 20 22  2  0  0  0  0
 20 39  1  0  0  0  0
 21 47  1  0  0  0  0
 22 40  1  0  0  0  0
 23 31  2  0  0  0  0
 23 57  1  0  0  0  0
 24 82  1  0  0  0  0
 25 83  1  0  0  0  0
 26 28  2  0  0  0  0
 26 82  1  0  0  0  0
 27 84  1  0  0  0  0
 28 85  1  0  0  0  0
 29 66  2  0  0  0  0
 30 50  1  0  0  0  0
 30 67  2  0  0  0  0
 31 62  1  0  0  0  0
 31 67  1  0  0  0  0
 32 68  1  0  0  0  0
 32 71  1  0  0  0  0
 33 72  1  0  0  0  0
 33 77  2  0  0  0  0
 34 48  1  0  0  0  0
 34 73  1  0  0  0  0
 34 78  2  0  0  0  0
 35 63  1  0  0  0  0
 35 69  1  0  0  0  0
 35 79  2  0  0  0  0
 36 64  1  0  0  0  0
 36 74  1  0  0  0  0
 36 80  2  0  0  0  0
 37 70  1  0  0  0  0
 37 75  1  0  0  0  0
 37 81  2  0  0  0  0
 38 41  1  0  0  0  0
 39 48  1  0  0  0  0
 40 69  1  0  0  0  0
 41 43  1  0  0  0  0
 42 44  1  0  0  0  0
 42 45  1  0  0  0  0
 43 47  1  0  0  0  0
 44 49  1  0  0  0  0
 45 70  1  0  0  0  0
 46 49  1  0  0  0  0
 46 70  1  0  0  0  0
 47 73  1  0  0  0  0
 48 69  1  0  0  0  0
 49 68  1  0  0  0  0
 51 62  1  0  0  0  0
 52 64  1  0  0  0  0
 53 65  1  0  0  0  0
 54 65  1  0  0  0  0
 55 65  1  0  0  0  0
 56 76  1  0  0  0  0
 57 58  1  0  0  0  0
 58 61  1  0  0  0  0
 59 60  1  0  0  0  0
 59 62  1  0  0  0  0
 60 75  1  0  0  0  0
 61 83  1  0  0  0  0
 63 65  1  0  0  0  0
 63 74  1  0  0  0  0
 64 76  1  0  0  0  0
 66 68  1  0  0  0  0
M  CHG  1  76   1
M  ISO  4  37 100  61 101  75 100  83 101
M  END
> <Batch ID>
0081

> <Smiles>
CNC(C)C(=O)NC(C(=O)N1Cc2cc([101O:1][101CH2:1]CCc3ccc(C)nc3C(C)CC[100NH:0][100C:0](=O)N3CCCC(n4nc(-c5ccc(Oc6ccc(F)cc6F)cc5)c(C(N)=O)c4N)C3)ccc2CC1C(=O)NC1CCCc2ccccc21)C(C)(C)C

> <Shape>
0.186

> <Color>
0.062

> <Negative vol penalty>
0.000

$$$$

  -OEChem-04052318463D

 81 89  0     1  0  0  0  0  0999 V2000
  -23.2346  -17.2111   27.5594 C   0  0  0  0  0  0  0  0  0  0  0  0
  -24.3403  -17.9983   27.2543 C   0  0  0  0  0  0  0  0  0  0  0  0
  -25.7279  -13.6187   21.4587 C   0  0  0  0  0  0  0  0  0  0  0  0
  -24.8081  -14.4473   19.3840 C   0  0  0  0  0  0  0  0  0  0  0  0
  -22.0311  -17.4098   26.8840 C   0  0  0  0  0  0  0  0  0  0  0  0
  -24.2435  -18.9840   26.2727 C   0  0  0  0  0  0  0  0  0  0  0  0
  -27.0705  -24.4164   26.2192 C   0  0  0  0  0  0  0  0  0  0  0  0
  -24.7015  -12.6775   21.5378 C   0  0  0  0  0  0  0  0  0  0  0  0
  -23.7817  -13.5061   19.4631 C   0  0  0  0  0  0  0  0  0  0  0  0
  -28.2256  -24.8665   25.5813 C   0  0  0  0  0  0  0  0  0  0  0  0
  -22.5278   -9.8185   22.1005 C   0  0  0  0  0  0  0  0  0  0  0  0
  -22.8718   -8.5112   22.4439 C   0  0  0  0  0  0  0  0  0  0  0  0
  -26.8811  -25.7527   23.7852 C   0  0  0  0  0  0  0  0  0  0  0  0
  -24.2980   -8.3754   20.4985 C   0  0  0  0  0  0  0  0  0  0  0  0
  -28.6241  -25.0714   18.9876 C   0  0  0  0  0  0  0  0  0  0  0  0
  -25.7812  -14.5037   20.3818 C   0  0  0  0  0  0  0  0  0  0  0  0
  -28.0948  -15.3174   19.6801 C   0  0  0  0  0  0  0  0  0  0  0  0
  -21.9168  -18.4049   25.9004 C   0  0  0  0  0  0  0  0  0  0  0  0
  -25.8107  -24.6219   25.6386 C   0  0  0  0  0  0  0  0  0  0  0  0
  -23.0378  -19.1953   25.5826 C   0  0  0  0  0  0  0  0  0  0  0  0
  -25.7113  -25.3065   24.4190 C   0  0  0  0  0  0  0  0  0  0  0  0
  -23.7284  -12.6212   20.5400 C   0  0  0  0  0  0  0  0  0  0  0  0
  -28.1312  -25.5322   24.3627 C   0  0  0  0  0  0  0  0  0  0  0  0
  -23.0688  -10.4044   20.9560 C   0  0  0  0  0  0  0  0  0  0  0  0
  -23.7570   -7.7896   21.6430 C   0  0  0  0  0  0  0  0  0  0  0  0
  -23.9539   -9.6828   20.1550 C   0  0  0  0  0  0  0  0  0  0  0  0
  -26.8408  -15.4765   20.2998 C   0  0  0  0  0  0  0  0  0  0  0  0
  -28.2396  -23.8317   18.5420 C   0  0  0  0  0  0  0  0  0  0  0  0
  -28.7302  -16.5191   19.8773 C   0  0  0  0  0  0  0  0  0  0  0  0
  -28.6368  -14.1848   18.9879 C   0  0  0  0  0  0  0  0  0  0  0  0
  -23.4919  -22.7226   24.5803 C   0  0  0  0  0  0  0  0  0  0  0  0
  -21.8985  -25.5238   24.2107 C   0  0  0  0  0  0  0  0  0  0  0  0
  -22.0463  -28.9060   23.7797 C   0  0  0  0  0  0  0  0  0  0  0  0
  -26.7292  -22.0811   20.8315 C   0  0  0  0  0  0  0  0  0  0  0  0
  -20.6087  -18.5508   25.1641 C   0  0  0  0  0  0  0  0  0  0  0  0
  -24.5722  -24.1538   26.3525 C   0  0  0  0  0  0  0  0  0  0  0  0
  -24.3811  -25.5702   23.7637 C   0  0  0  0  0  0  0  0  0  0  0  0
  -20.4830  -19.8668   24.4007 C   0  0  0  0  0  0  0  0  0  0  0  0
  -28.9120  -20.2026   22.9252 C   0  0  0  0  0  0  0  0  0  0  0  0
  -21.7561  -20.1486   23.6092 C   0  0  0  0  0  0  0  0  0  0  0  0
  -28.7418  -18.7640   22.4338 C   0  0  0  0  0  0  0  0  0  0  0  0
  -27.5966  -20.9764   22.8720 C   0  0  0  0  0  0  0  0  0  0  0  0
  -26.7522  -19.5239   21.0690 C   0  0  0  0  0  0  0  0  0  0  0  0
  -22.9652  -20.2912   24.5415 C   0  0  1  0  0  0  0  0  0  0  0  0
  -23.3803  -23.9641   25.4193 C   0  0  1  0  0  0  0  0  0  0  0  0
  -28.0637  -18.7202   21.0512 C   0  0  2  0  0  0  0  0  0  0  0  0
  -20.5793  -30.9186   23.4721 C   0  0  0  0  0  0  0  0  0  0  0  0
  -21.3931  -24.7098   21.3138 C   0  0  0  0  0  0  0  0  0  0  0  0
  -20.7920  -27.0901   20.8229 C   0  0  0  0  0  0  0  0  0  0  0  0
  -19.4387  -25.7748   22.4543 C   0  0  0  0  0  0  0  0  0  0  0  0
  -23.0594  -30.1674   26.2579 C   0  0  0  0  0  0  0  0  0  0  0  0
  -27.0227  -23.4468   17.8155 C   0  0  0  0  0  0  0  0  0  0  0  0
  -30.6424  -25.8165   21.7848 C   0  0  0  0  0  0  0  0  0  0  0  0
  -30.7298  -25.8386   20.2571 C   0  0  0  0  0  0  0  0  0  0  0  0
  -25.8421  -23.0395   18.7211 C   0  0  0  0  0  0  0  0  0  0  0  0
  -29.2282  -26.0296   22.3120 C   0  0  0  0  0  0  0  0  0  1  0  0
  -21.7612  -26.5372   23.1002 C   0  0  1  0  0  0  0  0  0  0  0  0
  -21.3168  -30.0426   24.4728 C   0  0  2  0  0  0  0  0  0  0  0  0
  -20.8716  -26.0214   21.9339 C   0  0  0  0  0  0  0  0  0  0  0  0
  -26.6869  -16.6840   20.8497 N   0  0  0  0  0  0  0  0  0  0  0  0
  -29.1936  -22.9091   18.8706 N   0  0  0  0  0  0  0  0  0  0  0  0
  -30.1689  -23.5417   19.5137 N   0  0  0  0  0  0  0  0  0  0  0  0
  -29.8255  -24.8380   19.5830 N   0  0  0  0  0  0  0  0  0  0  0  0
  -27.8525  -17.2945   20.5763 N   0  0  0  0  0  0  0  0  0  0  0  0
  -23.1997  -25.0876   24.4977 N   0  0  0  0  0  0  0  0  0  0  0  0
  -27.0060  -20.8966   21.5338 N   0  0  0  0  0  0  0  0  0  0  0  0
  -29.9485  -16.9774   19.5194 N   0  0  0  0  0  0  0  0  0  0  0  0
  -27.8498  -13.0304   18.8766 N   0  0  0  0  0  0  0  0  0  0  0  0
  -22.9642  -21.5924   25.1750 N   0  0  0  0  0  0  0  0  0  0  0  0
  -21.2763  -27.7635   23.7242 N   0  0  0  0  0  0  0  0  0  0  0  0
  -26.1761  -21.9158   19.5676 N   0  0  0  0  0  0  0  0  0  0  0  0
  -22.2812  -30.8958   25.2231 N   0  3  0  0  0  0  0  0  0  0  0  0
  -29.7913  -14.1904   18.4973 O   0  0  0  0  0  0  0  0  0  0  0  0
  -24.0165  -22.7858   23.4746 O   0  0  0  0  0  0  0  0  0  0  0  0
  -20.8892  -25.1391   24.8065 O   0  0  0  0  0  0  0  0  0  0  0  0
  -23.1839  -29.0214   23.3289 O   0  0  0  0  0  0  0  0  0  0  0  0
  -26.9631  -23.2028   21.2942 O   0  0  0  0  0  0  0  0  0  0  0  0
  -22.7269  -11.7027   20.6168 O   0  0  0  0  0  0  0  0  0  0  0  0
  -29.2572  -25.9719   23.7376 O   0  0  0  0  0  0  0  0  0  1  0  0
  -24.0885   -6.5347   21.9737 F   0  0  0  0  0  0  0  0  0  0  0  0
  -24.4779  -10.2407   19.0550 F   0  0  0  0  0  0  0  0  0  0  0  0
  1  2  1  0  0  0  0
  1  5  2  0  0  0  0
  2  6  2  0  0  0  0
  3  8  2  0  0  0  0
  3 16  1  0  0  0  0
  4  9  1  0  0  0  0
  4 16  2  0  0  0  0
  5 18  1  0  0  0  0
  6 20  1  0  0  0  0
  7 10  2  0  0  0  0
  7 19  1  0  0  0  0
  8 22  1  0  0  0  0
  9 22  2  0  0  0  0
 10 23  1  0  0  0  0
 11 12  2  0  0  0  0
 11 24  1  0  0  0  0
 12 25  1  0  0  0  0
 13 21  1  0  0  0  0
 13 23  2  0  0  0  0
 14 25  2  0  0  0  0
 14 26  1  0  0  0  0
 15 28  2  0  0  0  0
 15 63  1  0  0  0  0
 16 27  1  0  0  0  0
 17 27  1  0  0  0  0
 17 29  2  0  0  0  0
 17 30  1  0  0  0  0
 18 20  2  0  0  0  0
 18 35  1  0  0  0  0
 19 21  2  0  0  0  0
 19 36  1  0  0  0  0
 20 44  1  0  0  0  0
 21 37  1  0  0  0  0
 22 78  1  0  0  0  0
 23 79  1  0  0  0  0
 24 26  2  0  0  0  0
 24 78  1  0  0  0  0
 25 80  1  0  0  0  0
 26 81  1  0  0  0  0
 27 60  2  0  0  0  0
 28 52  1  0  0  0  0
 28 61  1  0  0  0  0
 29 64  1  0  0  0  0
 29 67  1  0  0  0  0
 30 68  1  0  0  0  0
 30 73  2  0  0  0  0
 31 45  1  0  0  0  0
 31 69  1  0  0  0  0
 31 74  2  0  0  0  0
 32 57  1  0  0  0  0
 32 65  1  0  0  0  0
 32 75  2  0  0  0  0
 33 58  1  0  0  0  0
 33 70  1  0  0  0  0
 33 76  2  0  0  0  0
 34 66  1  0  0  0  0
 34 71  1  0  0  0  0
 34 77  2  0  0  0  0
 35 38  1  0  0  0  0
 36 45  1  0  0  0  0
 37 65  1  0  0  0  0
 38 40  1  0  0  0  0
 39 41  1  0  0  0  0
 39 42  1  0  0  0  0
 40 44  1  0  0  0  0
 41 46  1  0  0  0  0
 42 66  1  0  0  0  0
 43 46  1  0  0  0  0
 43 66  1  0  0  0  0
 44 69  1  0  0  0  0
 45 65  1  0  0  0  0
 46 64  1  0  0  0  0
 47 58  1  0  0  0  0
 48 59  1  0  0  0  0
 49 59  1  0  0  0  0
 50 59  1  0  0  0  0
 51 72  1  0  0  0  0
 52 55  1  0  0  0  0
 53 54  1  0  0  0  0
 53 56  1  0  0  0  0
 54 63  1  0  0  0  0
 55 71  1  0  0  0  0
 56 79  1  0  0  0  0
 57 59  1  0  0  0  0
 57 70  1  0  0  0  0
 58 72  1  0  0  0  0
 60 64  1  0  0  0  0
 61 62  2  0  0  0  0
 62 63  1  0  0  0  0
M  CHG  1  72   1
M  ISO  4  34 100  56 101  71 100  79 101
M  END
> <Batch ID>
0081

> <Smiles>
CNC(C)C(=O)NC(C(=O)N1Cc2cc([101O:1][101CH2:1]CCn3cc(CC[100NH:0][100C:0](=O)N4CCCC(n5nc(-c6ccc(Oc7ccc(F)cc7F)cc6)c(C(N)=O)c5N)C4)nn3)ccc2CC1C(=O)NC1CCCc2ccccc21)C(C)(C)C

> <Shape>
0.178

> <Color>
0.070

> <Negative vol penalty>
0.000

$$$$

  -OEChem-04052318463D

 85 93  0     1  0  0  0  0  0999 V2000
  -33.7529  -19.3946   16.2079 C   0  0  0  0  0  0  0  0  0  0  0  0
  -32.8094  -19.5124   17.2234 C   0  0  0  0  0  0  0  0  0  0  0  0
  -23.1539   -9.8656   19.9625 C   0  0  0  0  0  0  0  0  0  0  0  0
  -23.8225   -9.9662   22.2820 C   0  0  0  0  0  0  0  0  0  0  0  0
  -33.5991  -20.1204   15.0274 C   0  0  0  0  0  0  0  0  0  0  0  0
  -31.7119  -20.3569   17.0594 C   0  0  0  0  0  0  0  0  0  0  0  0
  -27.3721  -18.2142   18.5493 C   0  0  0  0  0  0  0  0  0  0  0  0
  -22.4397   -8.6952   20.2191 C   0  0  0  0  0  0  0  0  0  0  0  0
  -23.1083   -8.7958   22.5386 C   0  0  0  0  0  0  0  0  0  0  0  0
  -27.1225  -18.1680   19.9202 C   0  0  0  0  0  0  0  0  0  0  0  0
  -23.5317   -5.4709   22.0950 C   0  0  0  0  0  0  0  0  0  0  0  0
  -24.1524   -4.4891   22.8671 C   0  0  0  0  0  0  0  0  0  0  0  0
  -25.6749  -20.0867   19.7151 C   0  0  0  0  0  0  0  0  0  0  0  0
  -22.3804   -4.6538   24.5012 C   0  0  0  0  0  0  0  0  0  0  0  0
  -23.8453  -10.5010   20.9939 C   0  0  0  0  0  0  0  0  0  0  0  0
  -24.1071  -13.0319   20.8096 C   0  0  0  0  0  0  0  0  0  0  0  0
  -32.4941  -20.9668   14.8449 C   0  0  0  0  0  0  0  0  0  0  0  0
  -26.7825  -19.2053   17.7515 C   0  0  0  0  0  0  0  0  0  0  0  0
  -31.5439  -21.0956   15.8758 C   0  0  0  0  0  0  0  0  0  0  0  0
  -25.9166  -20.1418   18.3339 C   0  0  0  0  0  0  0  0  0  0  0  0
  -22.4169   -8.1604   21.5071 C   0  0  0  0  0  0  0  0  0  0  0  0
  -26.2761  -19.1061   20.5038 C   0  0  0  0  0  0  0  0  0  0  0  0
  -22.3353   -6.0443   22.5260 C   0  0  0  0  0  0  0  0  0  0  0  0
  -23.5768   -4.0805   24.0702 C   0  0  0  0  0  0  0  0  0  0  0  0
  -21.7597   -5.6358   23.7291 C   0  0  0  0  0  0  0  0  0  0  0  0
  -24.5837  -11.7097   20.7294 C   0  0  0  0  0  0  0  0  0  0  0  0
  -30.5545  -20.8264   22.2827 C   0  0  0  0  0  0  0  0  0  0  0  0
  -29.3090  -21.4026   22.1645 C   0  0  0  0  0  0  0  0  0  0  0  0
  -29.5782  -18.7916   22.6517 C   0  0  0  0  0  0  0  0  0  0  0  0
  -28.3326  -19.3679   22.5343 C   0  0  0  0  0  0  0  0  0  0  0  0
  -25.1870  -13.8077   20.4655 C   0  0  0  0  0  0  0  0  0  0  0  0
  -22.8046  -13.5155   21.1636 C   0  0  0  0  0  0  0  0  0  0  0  0
  -27.8814  -21.5799   15.9466 C   0  0  0  0  0  0  0  0  0  0  0  0
  -24.7557  -21.8915   15.1372 C   0  0  0  0  0  0  0  0  0  0  0  0
  -21.4844  -21.3732   15.9597 C   0  0  0  0  0  0  0  0  0  0  0  0
  -30.9434  -13.9700   21.0580 C   0  0  0  0  0  0  0  0  0  0  0  0
  -32.3955  -21.7672   13.5705 C   0  0  0  0  0  0  0  0  0  0  0  0
  -27.0407  -19.2252   16.2698 C   0  0  0  0  0  0  0  0  0  0  0  0
  -25.2427  -21.2135   17.5181 C   0  0  0  0  0  0  0  0  0  0  0  0
  -31.0075  -22.3536   13.3254 C   0  0  0  0  0  0  0  0  0  0  0  0
  -29.3964  -13.0208   17.9949 C   0  0  0  0  0  0  0  0  0  0  0  0
  -30.4728  -23.0083   14.5952 C   0  0  0  0  0  0  0  0  0  0  0  0
  -27.9534  -12.7089   18.3953 C   0  0  0  0  0  0  0  0  0  0  0  0
  -30.3869  -12.5928   19.0755 C   0  0  0  0  0  0  0  0  0  0  0  0
  -28.6617  -12.8150   20.8213 C   0  0  0  0  0  0  0  0  0  0  0  0
  -30.3268  -21.9824   15.7255 C   0  0  1  0  0  0  0  0  0  0  0  0
  -26.7925  -20.5915   15.6383 C   0  0  1  0  0  0  0  0  0  0  0  0
  -27.6218  -13.2795   19.7873 C   0  0  2  0  0  0  0  0  0  0  0  0
  -31.8005  -21.6322   22.1434 C   0  0  0  0  0  0  0  0  0  0  0  0
  -27.7168  -23.3388   22.1132 C   0  0  0  0  0  0  0  0  0  0  0  0
  -26.5636  -18.5178   24.1126 C   0  0  0  0  0  0  0  0  0  0  0  0
  -19.1544  -21.7707   15.1166 C   0  0  0  0  0  0  0  0  0  0  0  0
  -24.9725  -24.8298   15.9305 C   0  0  0  0  0  0  0  0  0  0  0  0
  -22.4713  -24.9284   15.9819 C   0  0  0  0  0  0  0  0  0  0  0  0
  -23.6536  -24.4059   13.8483 C   0  0  0  0  0  0  0  0  0  0  0  0
  -20.8978  -18.4738   15.8698 C   0  0  0  0  0  0  0  0  0  0  0  0
  -29.1493  -22.8592   21.8915 C   0  0  0  0  0  0  0  0  0  0  0  0
  -29.7381  -17.3348   22.9235 C   0  0  0  0  0  0  0  0  0  0  0  0
  -31.1794  -16.8101   22.7674 C   0  0  0  0  0  0  0  0  0  0  0  0
  -31.3474  -15.3280   23.0956 C   0  0  0  0  0  0  0  0  0  0  0  0
  -27.0691  -18.5503   22.6759 C   0  0  1  0  0  0  0  0  0  1  0  0
  -23.5822  -22.6683   15.6834 C   0  0  1  0  0  0  0  0  0  0  0  0
  -20.3245  -20.8005   15.1652 C   0  0  2  0  0  0  0  0  0  0  0  0
  -23.6840  -24.1892   15.3770 C   0  0  0  0  0  0  0  0  0  0  0  0
  -25.8665  -11.6454   20.3629 N   0  0  0  0  0  0  0  0  0  0  0  0
  -30.7115  -19.5105   22.5283 N   0  0  0  0  0  0  0  0  0  0  0  0
  -28.1756  -20.6837   22.2883 N   0  0  0  0  0  0  0  0  0  0  0  0
  -26.2051  -12.9369   20.2097 N   0  0  0  0  0  0  0  0  0  0  0  0
  -25.5318  -21.1952   16.0746 N   0  0  0  0  0  0  0  0  0  0  0  0
  -30.0168  -13.1689   20.3705 N   0  0  0  0  0  0  0  0  0  0  0  0
  -25.3555  -15.1429   20.3598 N   0  0  0  0  0  0  0  0  0  0  0  0
  -21.8111  -12.5822   21.4897 N   0  0  0  0  0  0  0  0  0  0  0  0
  -29.1374  -21.1813   15.5305 N   0  0  0  0  0  0  0  0  0  0  0  0
  -22.3849  -22.0296   15.1477 N   0  0  0  0  0  0  0  0  0  0  0  0
  -30.5101  -14.4817   22.2750 N   0  0  0  0  0  0  0  0  0  0  0  0
  -19.8541  -19.5271   15.7802 N   0  3  0  0  0  0  0  0  0  0  0  0
  -22.5253  -14.7384   21.1741 O   0  0  0  0  0  0  0  0  0  0  0  0
  -27.6025  -22.6273   16.5184 O   0  0  0  0  0  0  0  0  0  0  0  0
  -24.9715  -21.8962   13.9227 O   0  0  0  0  0  0  0  0  0  0  0  0
  -21.5799  -21.2537   17.1792 O   0  0  0  0  0  0  0  0  0  0  0  0
  -32.0714  -14.2156   20.6172 O   0  0  0  0  0  0  0  0  0  0  0  0
  -21.7199   -7.0185   21.7580 O   0  0  0  0  0  0  0  0  0  0  0  0
  -26.0314  -19.0638   21.8418 O   0  0  0  0  0  0  0  0  0  1  0  0
  -24.1722   -3.1364   24.8108 F   0  0  0  0  0  0  0  0  0  0  0  0
  -20.6099   -6.1821   24.1477 F   0  0  0  0  0  0  0  0  0  0  0  0
  1  2  1  0  0  0  0
  1  5  2  0  0  0  0
  2  6  2  0  0  0  0
  3  8  2  0  0  0  0
  3 15  1  0  0  0  0
  4  9  1  0  0  0  0
  4 15  2  0  0  0  0
  5 17  1  0  0  0  0
  6 19  1  0  0  0  0
  7 10  2  0  0  0  0
  7 18  1  0  0  0  0
  8 21  1  0  0  0  0
  9 21  2  0  0  0  0
 10 22  1  0  0  0  0
 11 12  2  0  0  0  0
 11 23  1  0  0  0  0
 12 24  1  0  0  0  0
 13 20  1  0  0  0  0
 13 22  2  0  0  0  0
 14 24  2  0  0  0  0
 14 25  1  0  0  0  0
 15 26  1  0  0  0  0
 16 26  1  0  0  0  0
 16 31  2  0  0  0  0
 16 32  1  0  0  0  0
 17 19  2  0  0  0  0
 17 37  1  0  0  0  0
 18 20  2  0  0  0  0
 18 38  1  0  0  0  0
 19 46  1  0  0  0  0
 20 39  1  0  0  0  0
 21 82  1  0  0  0  0
 22 83  1  0  0  0  0
 23 25  2  0  0  0  0
 23 82  1  0  0  0  0
 24 84  1  0  0  0  0
 25 85  1  0  0  0  0
 26 65  2  0  0  0  0
 27 28  2  0  0  0  0
 27 49  1  0  0  0  0
 27 66  1  0  0  0  0
 28 57  1  0  0  0  0
 28 67  1  0  0  0  0
 29 30  1  0  0  0  0
 29 58  1  0  0  0  0
 29 66  2  0  0  0  0
 30 61  1  0  0  0  0
 30 67  2  0  0  0  0
 31 68  1  0  0  0  0
 31 71  1  0  0  0  0
 32 72  1  0  0  0  0
 32 77  2  0  0  0  0
 33 47  1  0  0  0  0
 33 73  1  0  0  0  0
 33 78  2  0  0  0  0
 34 62  1  0  0  0  0
 34 69  1  0  0  0  0
 34 79  2  0  0  0  0
 35 63  1  0  0  0  0
 35 74  1  0  0  0  0
 35 80  2  0  0  0  0
 36 70  1  0  0  0  0
 36 75  1  0  0  0  0
 36 81  2  0  0  0  0
 37 40  1  0  0  0  0
 38 47  1  0  0  0  0
 39 69  1  0  0  0  0
 40 42  1  0  0  0  0
 41 43  1  0  0  0  0
 41 44  1  0  0  0  0
 42 46  1  0  0  0  0
 43 48  1  0  0  0  0
 44 70  1  0  0  0  0
 45 48  1  0  0  0  0
 45 70  1  0  0  0  0
 46 73  1  0  0  0  0
 47 69  1  0  0  0  0
 48 68  1  0  0  0  0
 50 57  1  0  0  0  0
 51 61  1  0  0  0  0
 52 63  1  0  0  0  0
 53 64  1  0  0  0  0
 54 64  1  0  0  0  0
 55 64  1  0  0  0  0
 56 76  1  0  0  0  0
 58 59  1  0  0  0  0
 59 60  1  0  0  0  0
 60 75  1  0  0  0  0
 61 83  1  0  0  0  0
 62 64  1  0  0  0  0
 62 74  1  0  0  0  0
 63 76  1  0  0  0  0
 65 68  1  0  0  0  0
M  CHG  1  76   1
M  ISO  4  36 100  61 101  75 100  83 101
M  END
> <Batch ID>
0081

> <Smiles>
CCc1nc([101CH:1](C)[101O:1]c2ccc3c(c2)CN(C(=O)C(NC(=O)C(C)NC)C(C)(C)C)C(C(=O)NC2CCCc4ccccc42)C3)c(CCC[100NH:0][100C:0](=O)N2CCCC(n3nc(-c4ccc(Oc5ccc(F)cc5F)cc4)c(C(N)=O)c3N)C2)nc1C

> <Shape>
0.191

> <Color>
0.183

> <Negative vol penalty>
0.000

$$$$

  -OEChem-04052318463D

 87 95  0     1  0  0  0  0  0999 V2000
  -21.7797  -17.2822   23.4178 C   0  0  0  0  0  0  0  0  0  0  0  0
  -22.5439  -18.4095   23.6972 C   0  0  0  0  0  0  0  0  0  0  0  0
  -24.9857  -13.5150   22.0749 C   0  0  0  0  0  0  0  0  0  0  0  0
  -26.7930  -13.3460   20.4805 C   0  0  0  0  0  0  0  0  0  0  0  0
  -20.7137  -17.3713   22.5251 C   0  0  0  0  0  0  0  0  0  0  0  0
  -22.2351  -19.6289   23.0933 C   0  0  0  0  0  0  0  0  0  0  0  0
  -25.0813  -25.0103   23.3514 C   0  0  0  0  0  0  0  0  0  0  0  0
  -24.2838  -12.5272   21.3840 C   0  0  0  0  0  0  0  0  0  0  0  0
  -26.0912  -12.3581   19.7897 C   0  0  0  0  0  0  0  0  0  0  0  0
  -26.0627  -25.6909   22.6321 C   0  0  0  0  0  0  0  0  0  0  0  0
  -24.3359   -9.1565   21.1214 C   0  0  0  0  0  0  0  0  0  0  0  0
  -23.7362   -8.1438   21.8699 C   0  0  0  0  0  0  0  0  0  0  0  0
  -24.3450  -26.8618   21.4081 C   0  0  0  0  0  0  0  0  0  0  0  0
  -29.3407  -26.5862   18.5461 C   0  0  0  0  0  0  0  0  0  0  0  0
  -21.5748   -8.7782   20.9963 C   0  0  0  0  0  0  0  0  0  0  0  0
  -31.6231  -25.9405   18.3724 C   0  0  0  0  0  0  0  0  0  0  0  0
  -26.2402  -13.9245   21.6231 C   0  0  0  0  0  0  0  0  0  0  0  0
  -27.8789  -14.7595   23.3909 C   0  0  0  0  0  0  0  0  0  0  0  0
  -20.4000  -18.5899   21.9009 C   0  0  0  0  0  0  0  0  0  0  0  0
  -23.7221  -25.2427   23.0964 C   0  0  0  0  0  0  0  0  0  0  0  0
  -21.1483  -19.7445   22.2079 C   0  0  0  0  0  0  0  0  0  0  0  0
  -23.3483  -26.1847   22.1273 C   0  0  0  0  0  0  0  0  0  0  0  0
  -30.2871  -25.6470   18.1518 C   0  0  0  0  0  0  0  0  0  0  0  0
  -29.7534  -27.7735   19.1405 C   0  0  0  0  0  0  0  0  0  0  0  0
  -24.8366  -11.9487   20.2415 C   0  0  0  0  0  0  0  0  0  0  0  0
  -25.6946  -26.6147   21.6583 C   0  0  0  0  0  0  0  0  0  0  0  0
  -23.5551   -9.9801   20.3104 C   0  0  0  0  0  0  0  0  0  0  0  0
  -22.3556   -7.9546   21.8074 C   0  0  0  0  0  0  0  0  0  0  0  0
  -22.1746   -9.7909   20.2478 C   0  0  0  0  0  0  0  0  0  0  0  0
  -26.9654  -14.9452   22.3360 C   0  0  0  0  0  0  0  0  0  0  0  0
  -31.1133  -27.9718   19.3171 C   0  0  0  0  0  0  0  0  0  0  0  0
  -28.2878  -16.0291   23.7186 C   0  0  0  0  0  0  0  0  0  0  0  0
  -28.3186  -13.5476   24.0184 C   0  0  0  0  0  0  0  0  0  0  0  0
  -21.2952  -23.4625   22.0742 C   0  0  0  0  0  0  0  0  0  0  0  0
  -19.5712  -26.1318   22.7260 C   0  0  0  0  0  0  0  0  0  0  0  0
  -19.5176  -29.5208   23.1240 C   0  0  0  0  0  0  0  0  0  0  0  0
  -28.5621  -21.0106   20.5619 C   0  0  0  0  0  0  0  0  0  0  0  0
  -19.2307  -18.6316   20.9490 C   0  0  0  0  0  0  0  0  0  0  0  0
  -22.6757  -24.5200   23.8996 C   0  0  0  0  0  0  0  0  0  0  0  0
  -21.9029  -26.4853   21.8296 C   0  0  0  0  0  0  0  0  0  0  0  0
  -19.2568  -19.8471   20.0280 C   0  0  0  0  0  0  0  0  0  0  0  0
  -26.7851  -20.5731   23.6842 C   0  0  0  0  0  0  0  0  0  0  0  0
  -19.4839  -21.1117   20.8428 C   0  0  0  0  0  0  0  0  0  0  0  0
  -26.7206  -19.0481   23.7863 C   0  0  0  0  0  0  0  0  0  0  0  0
  -26.6192  -21.0380   22.2404 C   0  0  0  0  0  0  0  0  0  0  0  0
  -27.5289  -18.9134   21.3845 C   0  0  0  0  0  0  0  0  0  0  0  0
  -20.8499  -21.0745   21.5396 C   0  0  1  0  0  0  0  0  0  0  0  0
  -21.3218  -24.4582   23.1991 C   0  0  1  0  0  0  0  0  0  0  0  0
  -27.7127  -18.3791   22.8166 C   0  0  2  0  0  0  0  0  0  0  0  0
  -31.6145  -29.2282   19.9509 C   0  0  0  0  0  0  0  0  0  0  0  0
  -29.7899  -25.3838   15.0971 C   0  0  0  0  0  0  0  0  0  0  0  0
  -17.9552  -31.4221   23.6153 C   0  0  0  0  0  0  0  0  0  0  0  0
  -31.0530  -23.3993   17.1196 C   0  0  0  0  0  0  0  0  0  0  0  0
  -18.4980  -25.9838   19.8736 C   0  0  0  0  0  0  0  0  0  0  0  0
  -17.7319  -28.3553   20.1130 C   0  0  0  0  0  0  0  0  0  0  0  0
  -16.7920  -26.5867   21.6000 C   0  0  0  0  0  0  0  0  0  0  0  0
  -20.9853  -30.2421   25.5907 C   0  0  0  0  0  0  0  0  0  0  0  0
  -28.7324  -28.7971   19.5688 C   0  0  0  0  0  0  0  0  0  0  0  0
  -29.0487  -24.6093   16.1840 C   0  0  0  0  0  0  0  0  0  0  0  0
  -28.4828  -28.8239   21.0783 C   0  0  0  0  0  0  0  0  0  0  0  0
  -28.9153  -23.5225   18.4508 C   0  0  0  0  0  0  0  0  0  0  0  0
  -29.4938  -23.1901   19.8279 C   0  0  0  0  0  0  0  0  0  0  0  0
  -27.8909  -27.5260   21.6155 C   0  0  0  0  0  0  0  0  0  1  0  0
  -19.1726  -27.3633   21.9491 C   0  0  1  0  0  0  0  0  0  0  0  0
  -18.9131  -30.3987   24.2050 C   0  0  2  0  0  0  0  0  0  0  0  0
  -29.8784  -24.3671   17.5141 C   0  0  2  0  0  0  0  0  0  0  0  0
  -18.0760  -27.0654   20.8880 C   0  0  0  0  0  0  0  0  0  0  0  0
  -32.0622  -27.0828   18.9470 N   0  0  0  0  0  0  0  0  0  0  0  0
  -26.8031  -16.2315   22.0149 N   0  0  0  0  0  0  0  0  0  0  0  0
  -27.6201  -16.8656   22.8732 N   0  0  0  0  0  0  0  0  0  0  0  0
  -20.9168  -25.7483   22.6371 N   0  0  0  0  0  0  0  0  0  0  0  0
  -27.6051  -20.3781   21.3728 N   0  0  0  0  0  0  0  0  0  0  0  0
  -29.1497  -16.5004   24.6445 N   0  0  0  0  0  0  0  0  0  0  0  0
  -27.7982  -12.3302   23.5586 N   0  0  0  0  0  0  0  0  0  0  0  0
  -20.9397  -22.1848   22.4621 N   0  0  0  0  0  0  0  0  0  0  0  0
  -18.7899  -28.3643   22.9391 N   0  0  0  0  0  0  0  0  0  0  0  0
  -28.5636  -22.3995   20.6029 N   0  0  0  0  0  0  0  0  0  0  0  0
  -19.9852  -31.1274   24.9402 N   0  3  0  0  0  0  0  0  0  0  0  0
  -29.1360  -13.5456   24.9699 O   0  0  0  0  0  0  0  0  0  0  0  0
  -21.5750  -23.8269   20.9381 O   0  0  0  0  0  0  0  0  0  0  0  0
  -18.7214  -25.5363   23.3931 O   0  0  0  0  0  0  0  0  0  0  0  0
  -20.5317  -29.8318   22.5031 O   0  0  0  0  0  0  0  0  0  0  0  0
  -29.3604  -20.3837   19.8571 O   0  0  0  0  0  0  0  0  0  0  0  0
  -24.1522  -10.9846   19.5672 O   0  0  0  0  0  0  0  0  0  0  0  0
  -26.6505  -27.2799   20.9543 O   0  0  0  0  0  0  0  0  0  1  0  0
  -21.7800   -6.9811   22.5250 F   0  0  0  0  0  0  0  0  0  0  0  0
  -21.4194  -10.5782   19.4695 F   0  0  0  0  0  0  0  0  0  0  0  0
  1  2  1  0  0  0  0
  1  5  2  0  0  0  0
  2  6  2  0  0  0  0
  3  8  2  0  0  0  0
  3 17  1  0  0  0  0
  4  9  1  0  0  0  0
  4 17  2  0  0  0  0
  5 19  1  0  0  0  0
  6 21  1  0  0  0  0
  7 10  2  0  0  0  0
  7 20  1  0  0  0  0
  8 25  1  0  0  0  0
  9 25  2  0  0  0  0
 10 26  1  0  0  0  0
 11 12  2  0  0  0  0
 11 27  1  0  0  0  0
 12 28  1  0  0  0  0
 13 22  1  0  0  0  0
 13 26  2  0  0  0  0
 14 23  2  0  0  0  0
 14 24  1  0  0  0  0
 15 28  2  0  0  0  0
 15 29  1  0  0  0  0
 16 23  1  0  0  0  0
 16 68  2  0  0  0  0
 17 30  1  0  0  0  0
 18 30  1  0  0  0  0
 18 32  2  0  0  0  0
 18 33  1  0  0  0  0
 19 21  2  0  0  0  0
 19 38  1  0  0  0  0
 20 22  2  0  0  0  0
 20 39  1  0  0  0  0
 21 47  1  0  0  0  0
 22 40  1  0  0  0  0
 23 66  1  0  0  0  0
 24 31  2  0  0  0  0
 24 58  1  0  0  0  0
 25 84  1  0  0  0  0
 26 85  1  0  0  0  0
 27 29  2  0  0  0  0
 27 84  1  0  0  0  0
 28 86  1  0  0  0  0
 29 87  1  0  0  0  0
 30 69  2  0  0  0  0
 31 50  1  0  0  0  0
 31 68  1  0  0  0  0
 32 70  1  0  0  0  0
 32 73  1  0  0  0  0
 33 74  1  0  0  0  0
 33 79  2  0  0  0  0
 34 48  1  0  0  0  0
 34 75  1  0  0  0  0
 34 80  2  0  0  0  0
 35 64  1  0  0  0  0
 35 71  1  0  0  0  0
 35 81  2  0  0  0  0
 36 65  1  0  0  0  0
 36 76  1  0  0  0  0
 36 82  2  0  0  0  0
 37 72  1  0  0  0  0
 37 77  1  0  0  0  0
 37 83  2  0  0  0  0
 38 41  1  0  0  0  0
 39 48  1  0  0  0  0
 40 71  1  0  0  0  0
 41 43  1  0  0  0  0
 42 44  1  0  0  0  0
 42 45  1  0  0  0  0
 43 47  1  0  0  0  0
 44 49  1  0  0  0  0
 45 72  1  0  0  0  0
 46 49  1  0  0  0  0
 46 72  1  0  0  0  0
 47 75  1  0  0  0  0
 48 71  1  0  0  0  0
 49 70  1  0  0  0  0
 51 59  1  0  0  0  0
 52 65  1  0  0  0  0
 53 66  1  0  0  0  0
 54 67  1  0  0  0  0
 55 67  1  0  0  0  0
 56 67  1  0  0  0  0
 57 78  1  0  0  0  0
 58 60  1  0  0  0  0
 59 66  1  0  0  0  0
 60 63  1  0  0  0  0
 61 62  1  0  0  0  0
 61 66  1  0  0  0  0
 62 77  1  0  0  0  0
 63 85  1  0  0  0  0
 64 67  1  0  0  0  0
 64 76  1  0  0  0  0
 65 78  1  0  0  0  0
 69 70  1  0  0  0  0
M  CHG  1  78   1
M  ISO  4  37 100  63 101  77 100  85 101
M  END
> <Batch ID>
0081

> <Smiles>
CCC(C)(CC[100NH:0][100C:0](=O)N1CCCC(n2nc(-c3ccc(Oc4ccc(F)cc4F)cc3)c(C(N)=O)c2N)C1)c1cnc(C)c(CC[101CH2:1][101O:1]c2ccc3c(c2)CN(C(=O)C(NC(=O)C(C)NC)C(C)(C)C)C(C(=O)NC2CCCc4ccccc42)C3)c1

> <Shape>
0.231

> <Color>
0.049

> <Negative vol penalty>
0.000

$$$$

  -OEChem-04052318463D

 86 94  0     1  0  0  0  0  0999 V2000
  -35.4190  -25.1155   23.9405 C   0  0  0  0  0  0  0  0  0  0  0  0
  -34.5212  -24.5711   23.0278 C   0  0  0  0  0  0  0  0  0  0  0  0
  -23.0396   -9.9346   19.9584 C   0  0  0  0  0  0  0  0  0  0  0  0
  -23.8178   -9.9166   22.2455 C   0  0  0  0  0  0  0  0  0  0  0  0
  -35.8549  -26.4311   23.7879 C   0  0  0  0  0  0  0  0  0  0  0  0
  -34.0579  -25.3424   21.9625 C   0  0  0  0  0  0  0  0  0  0  0  0
  -34.0863  -22.8127   17.5756 C   0  0  0  0  0  0  0  0  0  0  0  0
  -22.2610   -8.8060   20.2144 C   0  0  0  0  0  0  0  0  0  0  0  0
  -23.0392   -8.7880   22.5016 C   0  0  0  0  0  0  0  0  0  0  0  0
  -33.0518  -21.9038   17.3580 C   0  0  0  0  0  0  0  0  0  0  0  0
  -19.7920   -8.0945   23.1302 C   0  0  0  0  0  0  0  0  0  0  0  0
  -19.0436   -8.0787   24.3072 C   0  0  0  0  0  0  0  0  0  0  0  0
  -31.9177  -23.5322   15.9864 C   0  0  0  0  0  0  0  0  0  0  0  0
  -20.2278   -6.1021   25.0337 C   0  0  0  0  0  0  0  0  0  0  0  0
  -23.8181  -10.4899   20.9739 C   0  0  0  0  0  0  0  0  0  0  0  0
  -24.2401  -13.0028   20.8510 C   0  0  0  0  0  0  0  0  0  0  0  0
  -35.4041  -27.2158   22.7147 C   0  0  0  0  0  0  0  0  0  0  0  0
  -34.0390  -24.0942   17.0081 C   0  0  0  0  0  0  0  0  0  0  0  0
  -34.4871  -26.6702   21.7961 C   0  0  0  0  0  0  0  0  0  0  0  0
  -32.9541  -24.4546   16.1962 C   0  0  0  0  0  0  0  0  0  0  0  0
  -22.2607   -8.2327   21.4860 C   0  0  0  0  0  0  0  0  0  0  0  0
  -31.9659  -22.2644   16.5657 C   0  0  0  0  0  0  0  0  0  0  0  0
  -20.7582   -7.1140   22.9049 C   0  0  0  0  0  0  0  0  0  0  0  0
  -19.2615   -7.0826   25.2589 C   0  0  0  0  0  0  0  0  0  0  0  0
  -20.9762   -6.1179   23.8566 C   0  0  0  0  0  0  0  0  0  0  0  0
  -24.6230  -11.6555   20.7099 C   0  0  0  0  0  0  0  0  0  0  0  0
  -25.3529  -13.7168   20.4789 C   0  0  0  0  0  0  0  0  0  0  0  0
  -29.0060  -19.4036   19.8703 C   0  0  0  0  0  0  0  0  0  0  0  0
  -28.7108  -20.5584   18.0570 C   0  0  0  0  0  0  0  0  0  0  0  0
  -22.9903  -13.5592   21.2802 C   0  0  0  0  0  0  0  0  0  0  0  0
  -33.9574  -27.0558   18.1597 C   0  0  0  0  0  0  0  0  0  0  0  0
  -34.2384  -27.8635   15.0307 C   0  0  0  0  0  0  0  0  0  0  0  0
  -33.7898  -26.9916   11.7618 C   0  0  0  0  0  0  0  0  0  0  0  0
  -30.8679  -14.5585   20.6229 C   0  0  0  0  0  0  0  0  0  0  0  0
  -35.8669  -28.6480   22.6180 C   0  0  0  0  0  0  0  0  0  0  0  0
  -35.1758  -25.0537   17.2306 C   0  0  0  0  0  0  0  0  0  0  0  0
  -32.8653  -25.8110   15.5474 C   0  0  0  0  0  0  0  0  0  0  0  0
  -35.6175  -29.2776   21.2499 C   0  0  0  0  0  0  0  0  0  0  0  0
  -29.6349  -12.2124   18.2455 C   0  0  0  0  0  0  0  0  0  0  0  0
  -34.1999  -28.9764   20.7740 C   0  0  0  0  0  0  0  0  0  0  0  0
  -28.1922  -11.9651   18.6900 C   0  0  0  0  0  0  0  0  0  0  0  0
  -30.5683  -12.4033   19.4389 C   0  0  0  0  0  0  0  0  0  0  0  0
  -28.7023  -13.1950   20.8408 C   0  0  0  0  0  0  0  0  0  0  0  0
  -33.9809  -27.4671   20.6135 C   0  0  1  0  0  0  0  0  0  0  0  0
  -34.7765  -26.5115   17.0237 C   0  0  1  0  0  0  0  0  0  0  0  0
  -27.7136  -13.0522   19.6711 C   0  0  2  0  0  0  0  0  0  0  0  0
  -26.8386  -15.6607   15.8720 C   0  0  0  0  0  0  0  0  0  0  0  0
  -27.1854  -21.4012   16.2419 C   0  0  0  0  0  0  0  0  0  0  0  0
  -34.0777  -27.8740    9.4303 C   0  0  0  0  0  0  0  0  0  0  0  0
  -31.7616  -29.6092   15.3881 C   0  0  0  0  0  0  0  0  0  0  0  0
  -31.5459  -29.6923   12.8952 C   0  0  0  0  0  0  0  0  0  0  0  0
  -33.5716  -30.6376   14.0022 C   0  0  0  0  0  0  0  0  0  0  0  0
  -35.6849  -24.8314   11.0538 C   0  0  0  0  0  0  0  0  0  0  0  0
  -29.2698  -18.2583   20.7595 C   0  0  0  0  0  0  0  0  0  0  0  0
  -28.1398  -16.2705   16.3683 C   0  0  0  0  0  0  0  0  0  0  0  0
  -30.7621  -17.8684   20.9013 C   0  0  0  0  0  0  0  0  0  0  0  0
  -27.8883  -17.5321   17.1926 C   0  0  0  0  0  0  0  0  0  0  0  0
  -29.1974  -18.1162   17.7213 C   0  0  0  0  0  0  0  0  0  0  0  0
  -31.0130  -16.7056   21.8591 C   0  0  0  0  0  0  0  0  0  0  0  0
  -29.6514  -21.9211   16.1403 C   0  0  0  0  0  0  0  0  0  1  0  0
  -28.5925  -20.9008   16.5801 C   0  0  1  0  0  0  0  0  0  0  0  0
  -33.2695  -28.1294   13.9040 C   0  0  1  0  0  0  0  0  0  0  0  0
  -34.7133  -27.0789   10.5602 C   0  0  2  0  0  0  0  0  0  0  0  0
  -32.5376  -29.4922   14.0610 C   0  0  0  0  0  0  0  0  0  0  0  0
  -25.8807  -11.5190   20.2814 N   0  0  0  0  0  0  0  0  0  0  0  0
  -28.7648  -20.6447   20.2277 N   0  0  0  0  0  0  0  0  0  0  0  0
  -28.5771  -21.3795   19.0740 N   0  0  0  0  0  0  0  0  0  0  0  0
  -26.2977  -12.7898   20.1500 N   0  0  0  0  0  0  0  0  0  0  0  0
  -28.9815  -19.3038   18.5123 N   0  0  0  0  0  0  0  0  0  0  0  0
  -33.9986  -26.7162   15.8001 N   0  0  0  0  0  0  0  0  0  0  0  0
  -30.0583  -13.4489   20.3293 N   0  0  0  0  0  0  0  0  0  0  0  0
  -25.6055  -15.0408   20.4041 N   0  0  0  0  0  0  0  0  0  0  0  0
  -21.9524  -12.6830   21.6256 N   0  0  0  0  0  0  0  0  0  0  0  0
  -34.5886  -26.9958   19.3875 N   0  0  0  0  0  0  0  0  0  0  0  0
  -34.0347  -28.0011   12.6686 N   0  0  0  0  0  0  0  0  0  0  0  0
  -30.3058  -15.5060   21.4697 N   0  0  0  0  0  0  0  0  0  0  0  0
  -35.0333  -25.7147   10.0527 N   0  3  0  0  0  0  0  0  0  0  0  0
  -22.7943  -14.7968   21.3393 O   0  0  0  0  0  0  0  0  0  0  0  0
  -32.8365  -27.4988   17.9385 O   0  0  0  0  0  0  0  0  0  0  0  0
  -35.1778  -28.6411   15.2166 O   0  0  0  0  0  0  0  0  0  0  0  0
  -32.9340  -26.1177   11.8822 O   0  0  0  0  0  0  0  0  0  0  0  0
  -32.0053  -14.6974   20.1601 O   0  0  0  0  0  0  0  0  0  0  0  0
  -21.5009   -7.1315   21.7362 O   0  0  0  0  0  0  0  0  0  0  0  0
  -30.9544  -21.3794   16.3522 O   0  0  0  0  0  0  0  0  0  1  0  0
  -18.5439   -7.0685   26.3898 F   0  0  0  0  0  0  0  0  0  0  0  0
  -21.9039   -5.1740   23.6463 F   0  0  0  0  0  0  0  0  0  0  0  0
  1  2  1  0  0  0  0
  1  5  2  0  0  0  0
  2  6  2  0  0  0  0
  3  8  2  0  0  0  0
  3 15  1  0  0  0  0
  4  9  1  0  0  0  0
  4 15  2  0  0  0  0
  5 17  1  0  0  0  0
  6 19  1  0  0  0  0
  7 10  2  0  0  0  0
  7 18  1  0  0  0  0
  8 21  1  0  0  0  0
  9 21  2  0  0  0  0
 10 22  1  0  0  0  0
 11 12  2  0  0  0  0
 11 23  1  0  0  0  0
 12 24  1  0  0  0  0
 13 20  1  0  0  0  0
 13 22  2  0  0  0  0
 14 24  2  0  0  0  0
 14 25  1  0  0  0  0
 15 26  1  0  0  0  0
 16 26  1  0  0  0  0
 16 27  2  0  0  0  0
 16 30  1  0  0  0  0
 17 19  2  0  0  0  0
 17 35  1  0  0  0  0
 18 20  2  0  0  0  0
 18 36  1  0  0  0  0
 19 44  1  0  0  0  0
 20 37  1  0  0  0  0
 21 83  1  0  0  0  0
 22 84  1  0  0  0  0
 23 25  2  0  0  0  0
 23 83  1  0  0  0  0
 24 85  1  0  0  0  0
 25 86  1  0  0  0  0
 26 65  2  0  0  0  0
 27 68  1  0  0  0  0
 27 72  1  0  0  0  0
 28 54  1  0  0  0  0
 28 66  2  0  0  0  0
 28 69  1  0  0  0  0
 29 61  1  0  0  0  0
 29 67  2  0  0  0  0
 29 69  1  0  0  0  0
 30 73  1  0  0  0  0
 30 78  2  0  0  0  0
 31 45  1  0  0  0  0
 31 74  1  0  0  0  0
 31 79  2  0  0  0  0
 32 62  1  0  0  0  0
 32 70  1  0  0  0  0
 32 80  2  0  0  0  0
 33 63  1  0  0  0  0
 33 75  1  0  0  0  0
 33 81  2  0  0  0  0
 34 71  1  0  0  0  0
 34 76  1  0  0  0  0
 34 82  2  0  0  0  0
 35 38  1  0  0  0  0
 36 45  1  0  0  0  0
 37 70  1  0  0  0  0
 38 40  1  0  0  0  0
 39 41  1  0  0  0  0
 39 42  1  0  0  0  0
 40 44  1  0  0  0  0
 41 46  1  0  0  0  0
 42 71  1  0  0  0  0
 43 46  1  0  0  0  0
 43 71  1  0  0  0  0
 44 74  1  0  0  0  0
 45 70  1  0  0  0  0
 46 68  1  0  0  0  0
 47 55  1  0  0  0  0
 48 61  1  0  0  0  0
 49 63  1  0  0  0  0
 50 64  1  0  0  0  0
 51 64  1  0  0  0  0
 52 64  1  0  0  0  0
 53 77  1  0  0  0  0
 54 56  1  0  0  0  0
 55 57  1  0  0  0  0
 56 59  1  0  0  0  0
 57 58  1  0  0  0  0
 58 69  1  0  0  0  0
 59 76  1  0  0  0  0
 60 61  1  0  0  0  0
 60 84  1  0  0  0  0
 62 64  1  0  0  0  0
 62 75  1  0  0  0  0
 63 77  1  0  0  0  0
 65 68  1  0  0  0  0
 66 67  1  0  0  0  0
M  CHG  1  77   1
M  ISO  4  34 100  60 101  76 100  84 101
M  END
> <Batch ID>
0081

> <Smiles>
CCCCn1c(CCC[100NH:0][100C:0](=O)N2CCCC(n3nc(-c4ccc(Oc5ccc(F)cc5F)cc4)c(C(N)=O)c3N)C2)nnc1C(C)[101CH2:1][101O:1]c1ccc2c(c1)CN(C(=O)C(NC(=O)C(C)NC)C(C)(C)C)C(C(=O)NC1CCCc3ccccc31)C2

> <Shape>
0.205

> <Color>
0.197

> <Negative vol penalty>
0.000

$$$$

  -OEChem-04052318463D

 82 90  0     1  0  0  0  0  0999 V2000
  -36.8412  -26.5011   22.2843 C   0  0  0  0  0  0  0  0  0  0  0  0
  -36.2781  -25.3573   21.7275 C   0  0  0  0  0  0  0  0  0  0  0  0
  -22.9835   -9.8841   20.1010 C   0  0  0  0  0  0  0  0  0  0  0  0
  -23.6876  -10.0931   22.4026 C   0  0  0  0  0  0  0  0  0  0  0  0
  -36.0280  -27.5797   22.6298 C   0  0  0  0  0  0  0  0  0  0  0  0
  -34.9013  -25.2910   21.5169 C   0  0  0  0  0  0  0  0  0  0  0  0
  -32.0131  -22.4681   16.9130 C   0  0  0  0  0  0  0  0  0  0  0  0
  -22.2048   -8.7775   20.4396 C   0  0  0  0  0  0  0  0  0  0  0  0
  -22.9088   -8.9865   22.7413 C   0  0  0  0  0  0  0  0  0  0  0  0
  -31.3918  -21.2236   16.8181 C   0  0  0  0  0  0  0  0  0  0  0  0
  -23.1287   -5.6206   22.5103 C   0  0  0  0  0  0  0  0  0  0  0  0
  -23.7004   -4.6549   23.3386 C   0  0  0  0  0  0  0  0  0  0  0  0
  -29.2620  -22.2585   17.2787 C   0  0  0  0  0  0  0  0  0  0  0  0
  -27.2192  -18.5785   19.0387 C   0  0  0  0  0  0  0  0  0  0  0  0
  -21.9631   -5.0301   24.9752 C   0  0  0  0  0  0  0  0  0  0  0  0
  -23.7250  -10.5418   21.0825 C   0  0  0  0  0  0  0  0  0  0  0  0
  -24.1336  -13.0354   20.7320 C   0  0  0  0  0  0  0  0  0  0  0  0
  -34.6417  -27.5303   22.4144 C   0  0  0  0  0  0  0  0  0  0  0  0
  -31.2638  -23.6175   17.2028 C   0  0  0  0  0  0  0  0  0  0  0  0
  -34.0686  -26.3694   21.8610 C   0  0  0  0  0  0  0  0  0  0  0  0
  -29.8758  -23.5168   17.3742 C   0  0  0  0  0  0  0  0  0  0  0  0
  -28.5506  -18.2103   19.1213 C   0  0  0  0  0  0  0  0  0  0  0  0
  -22.1674   -8.3288   21.7598 C   0  0  0  0  0  0  0  0  0  0  0  0
  -30.0165  -21.1182   17.0038 C   0  0  0  0  0  0  0  0  0  0  0  0
  -21.9743   -6.2912   22.9145 C   0  0  0  0  0  0  0  0  0  0  0  0
  -23.1176   -4.3596   24.5710 C   0  0  0  0  0  0  0  0  0  0  0  0
  -21.3915   -5.9959   24.1469 C   0  0  0  0  0  0  0  0  0  0  0  0
  -24.5301  -11.6846   20.7332 C   0  0  0  0  0  0  0  0  0  0  0  0
  -26.6032  -19.0365   20.1860 C   0  0  0  0  0  0  0  0  0  0  0  0
  -29.1779  -18.3248   20.3456 C   0  0  0  0  0  0  0  0  0  0  0  0
  -25.2529  -13.7214   20.3282 C   0  0  0  0  0  0  0  0  0  0  0  0
  -22.8669  -13.6180   21.0661 C   0  0  0  0  0  0  0  0  0  0  0  0
  -31.2422  -25.7447   19.5645 C   0  0  0  0  0  0  0  0  0  0  0  0
  -29.0787  -27.2458   17.6702 C   0  0  0  0  0  0  0  0  0  0  0  0
  -26.7519  -27.0158   15.1843 C   0  0  0  0  0  0  0  0  0  0  0  0
  -30.7546  -14.6276   20.5642 C   0  0  0  0  0  0  0  0  0  0  0  0
  -33.7975  -28.7027   22.8476 C   0  0  0  0  0  0  0  0  0  0  0  0
  -31.9452  -24.9565   17.2753 C   0  0  0  0  0  0  0  0  0  0  0  0
  -29.0233  -24.7234   17.6672 C   0  0  0  0  0  0  0  0  0  0  0  0
  -32.3947  -28.6985   22.2458 C   0  0  0  0  0  0  0  0  0  0  0  0
  -29.6150  -12.0524   18.3857 C   0  0  0  0  0  0  0  0  0  0  0  0
  -31.7665  -27.3136   22.3656 C   0  0  0  0  0  0  0  0  0  0  0  0
  -28.1605  -11.8345   18.8063 C   0  0  0  0  0  0  0  0  0  0  0  0
  -30.5081  -12.3660   19.5840 C   0  0  0  0  0  0  0  0  0  0  0  0
  -28.5925  -13.2699   20.8439 C   0  0  0  0  0  0  0  0  0  0  0  0
  -32.5824  -26.2691   21.5942 C   0  0  1  0  0  0  0  0  0  0  0  0
  -31.1588  -25.9840   18.0835 C   0  0  1  0  0  0  0  0  0  0  0  0
  -27.6430  -13.0058   19.6627 C   0  0  2  0  0  0  0  0  0  0  0  0
  -25.1705  -19.4452   20.1508 C   0  0  0  0  0  0  0  0  0  0  0  0
  -25.1216  -28.4056   13.8773 C   0  0  0  0  0  0  0  0  0  0  0  0
  -27.1921  -27.2834   20.0680 C   0  0  0  0  0  0  0  0  0  0  0  0
  -25.3125  -27.7874   18.4928 C   0  0  0  0  0  0  0  0  0  0  0  0
  -27.2098  -29.3907   18.7214 C   0  0  0  0  0  0  0  0  0  0  0  0
  -28.1077  -26.4079   12.6248 C   0  0  0  0  0  0  0  0  0  0  0  0
  -29.2721  -17.7033   17.8962 C   0  0  0  0  0  0  0  0  0  0  0  0
  -30.6110  -17.9461   20.5107 C   0  0  0  0  0  0  0  0  0  0  0  0
  -30.8450  -16.8846   21.5923 C   0  0  0  0  0  0  0  0  0  0  0  0
  -30.1795  -18.7615   17.2783 C   0  0  0  0  0  0  0  0  0  1  0  0
  -27.5777  -27.1987   17.5165 C   0  0  1  0  0  0  0  0  0  0  0  0
  -26.5332  -27.8420   13.9297 C   0  0  2  0  0  0  0  0  0  0  0  0
  -26.8391  -27.8918   18.6961 C   0  0  0  0  0  0  0  0  0  0  0  0
  -25.8018  -11.5202   20.3596 N   0  0  0  0  0  0  0  0  0  0  0  0
  -27.2417  -19.1381   21.3710 N   0  0  0  0  0  0  0  0  0  0  0  0
  -28.5503  -18.7766   21.4520 N   0  0  0  0  0  0  0  0  0  0  0  0
  -26.2142  -12.7766   20.1198 N   0  0  0  0  0  0  0  0  0  0  0  0
  -29.7369  -26.0095   17.7345 N   0  0  0  0  0  0  0  0  0  0  0  0
  -29.9625  -13.4870   20.3533 N   0  0  0  0  0  0  0  0  0  0  0  0
  -25.4988  -15.0346   20.1345 N   0  0  0  0  0  0  0  0  0  0  0  0
  -21.8243  -12.7687   21.4613 N   0  0  0  0  0  0  0  0  0  0  0  0
  -32.3148  -26.3660   20.1753 N   0  0  0  0  0  0  0  0  0  0  0  0
  -27.2832  -27.7719   16.2076 N   0  0  0  0  0  0  0  0  0  0  0  0
  -30.1590  -15.6463   21.2979 N   0  0  0  0  0  0  0  0  0  0  0  0
  -26.7512  -27.0068   12.7149 N   0  3  0  0  0  0  0  0  0  0  0  0
  -22.6606  -14.8535   20.9999 O   0  0  0  0  0  0  0  0  0  0  0  0
  -30.3952  -25.0492   20.1129 O   0  0  0  0  0  0  0  0  0  0  0  0
  -29.6471  -28.3393   17.7238 O   0  0  0  0  0  0  0  0  0  0  0  0
  -26.4753  -25.8201   15.2511 O   0  0  0  0  0  0  0  0  0  0  0  0
  -31.9053  -14.7328   20.1262 O   0  0  0  0  0  0  0  0  0  0  0  0
  -21.4074   -7.2492   22.0907 O   0  0  0  0  0  0  0  0  0  0  0  0
  -29.4076  -19.9047   16.9124 O   0  0  0  0  0  0  0  0  0  1  0  0
  -23.6659   -3.4310   25.3656 F   0  0  0  0  0  0  0  0  0  0  0  0
  -20.2817   -6.6359   24.5400 F   0  0  0  0  0  0  0  0  0  0  0  0
  1  2  1  0  0  0  0
  1  5  2  0  0  0  0
  2  6  2  0  0  0  0
  3  8  2  0  0  0  0
  3 16  1  0  0  0  0
  4  9  1  0  0  0  0
  4 16  2  0  0  0  0
  5 18  1  0  0  0  0
  6 20  1  0  0  0  0
  7 10  2  0  0  0  0
  7 19  1  0  0  0  0
  8 23  1  0  0  0  0
  9 23  2  0  0  0  0
 10 24  1  0  0  0  0
 11 12  2  0  0  0  0
 11 25  1  0  0  0  0
 12 26  1  0  0  0  0
 13 21  1  0  0  0  0
 13 24  2  0  0  0  0
 14 22  1  0  0  0  0
 14 29  2  0  0  0  0
 15 26  2  0  0  0  0
 15 27  1  0  0  0  0
 16 28  1  0  0  0  0
 17 28  1  0  0  0  0
 17 31  2  0  0  0  0
 17 32  1  0  0  0  0
 18 20  2  0  0  0  0
 18 37  1  0  0  0  0
 19 21  2  0  0  0  0
 19 38  1  0  0  0  0
 20 46  1  0  0  0  0
 21 39  1  0  0  0  0
 22 30  2  0  0  0  0
 22 55  1  0  0  0  0
 23 79  1  0  0  0  0
 24 80  1  0  0  0  0
 25 27  2  0  0  0  0
 25 79  1  0  0  0  0
 26 81  1  0  0  0  0
 27 82  1  0  0  0  0
 28 62  2  0  0  0  0
 29 49  1  0  0  0  0
 29 63  1  0  0  0  0
 30 56  1  0  0  0  0
 30 64  1  0  0  0  0
 31 65  1  0  0  0  0
 31 68  1  0  0  0  0
 32 69  1  0  0  0  0
 32 74  2  0  0  0  0
 33 47  1  0  0  0  0
 33 70  1  0  0  0  0
 33 75  2  0  0  0  0
 34 59  1  0  0  0  0
 34 66  1  0  0  0  0
 34 76  2  0  0  0  0
 35 60  1  0  0  0  0
 35 71  1  0  0  0  0
 35 77  2  0  0  0  0
 36 67  1  0  0  0  0
 36 72  1  0  0  0  0
 36 78  2  0  0  0  0
 37 40  1  0  0  0  0
 38 47  1  0  0  0  0
 39 66  1  0  0  0  0
 40 42  1  0  0  0  0
 41 43  1  0  0  0  0
 41 44  1  0  0  0  0
 42 46  1  0  0  0  0
 43 48  1  0  0  0  0
 44 67  1  0  0  0  0
 45 48  1  0  0  0  0
 45 67  1  0  0  0  0
 46 70  1  0  0  0  0
 47 66  1  0  0  0  0
 48 65  1  0  0  0  0
 50 60  1  0  0  0  0
 51 61  1  0  0  0  0
 52 61  1  0  0  0  0
 53 61  1  0  0  0  0
 54 73  1  0  0  0  0
 55 58  1  0  0  0  0
 56 57  1  0  0  0  0
 57 72  1  0  0  0  0
 58 80  1  0  0  0  0
 59 61  1  0  0  0  0
 59 71  1  0  0  0  0
 60 73  1  0  0  0  0
 62 65  1  0  0  0  0
 63 64  2  0  0  0  0
M  CHG  1  73   1
M  ISO  4  36 100  58 101  72 100  80 101
M  END
> <Batch ID>
0081

> <Smiles>
CNC(C)C(=O)NC(C(=O)N1Cc2cc([101O:1][101CH2:1]Cc3cc(C)nnc3CC[100NH:0][100C:0](=O)N3CCCC(n4nc(-c5ccc(Oc6ccc(F)cc6F)cc5)c(C(N)=O)c4N)C3)ccc2CC1C(=O)NC1CCCc2ccccc21)C(C)(C)C

> <Shape>
0.278

> <Color>
0.202

> <Negative vol penalty>
0.000

$$$$

  -OEChem-04052318463D

 87 95  0     1  0  0  0  0  0999 V2000
  -19.8863  -28.3773   23.3668 C   0  0  0  0  0  0  0  0  0  0  0  0
  -20.5843  -27.1945   23.5891 C   0  0  0  0  0  0  0  0  0  0  0  0
  -28.5959  -23.6664   19.0571 C   0  0  0  0  0  0  0  0  0  0  0  0
  -30.8223  -22.7410   19.2127 C   0  0  0  0  0  0  0  0  0  0  0  0
  -19.0271  -28.4835   22.2740 C   0  0  0  0  0  0  0  0  0  0  0  0
  -20.4225  -26.1168   22.7192 C   0  0  0  0  0  0  0  0  0  0  0  0
  -24.6921  -22.0521   21.0596 C   0  0  0  0  0  0  0  0  0  0  0  0
  -29.1287  -24.9549   19.0971 C   0  0  0  0  0  0  0  0  0  0  0  0
  -31.3550  -24.0295   19.2526 C   0  0  0  0  0  0  0  0  0  0  0  0
  -24.9817  -20.7623   21.5025 C   0  0  0  0  0  0  0  0  0  0  0  0
  -30.3335  -27.0802   21.4329 C   0  0  0  0  0  0  0  0  0  0  0  0
  -29.7147  -28.0109   22.2674 C   0  0  0  0  0  0  0  0  0  0  0  0
  -23.6723  -19.8531   19.6919 C   0  0  0  0  0  0  0  0  0  0  0  0
  -29.2578  -29.4191   20.3582 C   0  0  0  0  0  0  0  0  0  0  0  0
  -24.2302  -15.7542   22.4506 C   0  0  0  0  0  0  0  0  0  0  0  0
  -29.4427  -22.5595   19.1149 C   0  0  0  0  0  0  0  0  0  0  0  0
  -28.1196  -20.6590   18.0448 C   0  0  0  0  0  0  0  0  0  0  0  0
  -18.8621  -27.4099   21.3847 C   0  0  0  0  0  0  0  0  0  0  0  0
  -23.8801  -22.2527   19.9341 C   0  0  0  0  0  0  0  0  0  0  0  0
  -19.5592  -26.2083   21.6141 C   0  0  0  0  0  0  0  0  0  0  0  0
  -23.3760  -21.1465   19.2353 C   0  0  0  0  0  0  0  0  0  0  0  0
  -30.5082  -25.1365   19.1948 C   0  0  0  0  0  0  0  0  0  0  0  0
  -24.4694  -19.6626   20.8204 C   0  0  0  0  0  0  0  0  0  0  0  0
  -30.4145  -27.3190   20.0609 C   0  0  0  0  0  0  0  0  0  0  0  0
  -29.1769  -29.1804   21.7301 C   0  0  0  0  0  0  0  0  0  0  0  0
  -29.8766  -28.4884   19.5236 C   0  0  0  0  0  0  0  0  0  0  0  0
  -28.8930  -21.2282   19.0742 C   0  0  0  0  0  0  0  0  0  0  0  0
  -24.5885  -16.0259   21.1486 C   0  0  0  0  0  0  0  0  0  0  0  0
  -25.2831  -13.7285   22.3177 C   0  0  0  0  0  0  0  0  0  0  0  0
  -25.6409  -13.9999   21.0154 C   0  0  0  0  0  0  0  0  0  0  0  0
  -27.8480  -19.3860   18.4833 C   0  0  0  0  0  0  0  0  0  0  0  0
  -27.6857  -21.2298   16.8032 C   0  0  0  0  0  0  0  0  0  0  0  0
  -21.0783  -23.6600   19.4115 C   0  0  0  0  0  0  0  0  0  0  0  0
  -21.7748  -23.0179   16.3091 C   0  0  0  0  0  0  0  0  0  0  0  0
  -23.7646  -21.5498   14.3608 C   0  0  0  0  0  0  0  0  0  0  0  0
  -29.4830  -14.5958   20.8341 C   0  0  0  0  0  0  0  0  0  0  0  0
  -17.8861  -27.5554   20.2441 C   0  0  0  0  0  0  0  0  0  0  0  0
  -23.5990  -23.6499   19.4534 C   0  0  0  0  0  0  0  0  0  0  0  0
  -22.5159  -21.3076   18.0094 C   0  0  0  0  0  0  0  0  0  0  0  0
  -18.0566  -26.4966   19.1578 C   0  0  0  0  0  0  0  0  0  0  0  0
  -28.5389  -17.2472   23.0148 C   0  0  0  0  0  0  0  0  0  0  0  0
  -18.1898  -25.1102   19.7798 C   0  0  0  0  0  0  0  0  0  0  0  0
  -28.4893  -18.4726   22.1006 C   0  0  0  0  0  0  0  0  0  0  0  0
  -29.6693  -16.2974   22.6247 C   0  0  0  0  0  0  0  0  0  0  0  0
  -29.6161  -17.1037   20.2964 C   0  0  0  0  0  0  0  0  0  0  0  0
  -19.4292  -25.0257   20.6789 C   0  0  1  0  0  0  0  0  0  0  0  0
  -22.3390  -23.7456   18.5986 C   0  0  1  0  0  0  0  0  0  0  0  0
  -28.4572  -18.0635   20.6157 C   0  0  2  0  0  0  0  0  0  0  0  0
  -26.8370  -12.6200   23.9435 C   0  0  0  0  0  0  0  0  0  0  0  0
  -25.1077  -20.5358   12.4993 C   0  0  0  0  0  0  0  0  0  0  0  0
  -25.4713  -13.3846   17.8927 C   0  0  0  0  0  0  0  0  0  0  0  0
  -19.0572  -21.6445   16.1135 C   0  0  0  0  0  0  0  0  0  0  0  0
  -19.8367  -20.5578   13.9970 C   0  0  0  0  0  0  0  0  0  0  0  0
  -19.6646  -23.0428   14.1310 C   0  0  0  0  0  0  0  0  0  0  0  0
  -27.7280  -11.2430   18.0085 C   0  0  0  0  0  0  0  0  0  0  0  0
  -28.1965  -13.2783   16.6569 C   0  0  0  0  0  0  0  0  0  0  0  0
  -25.2648  -24.0624   13.9187 C   0  0  0  0  0  0  0  0  0  0  0  0
  -25.6663  -12.4485   22.9784 C   0  0  0  0  0  0  0  0  0  0  0  0
  -26.4278  -13.0260   20.2066 C   0  0  0  0  0  0  0  0  0  0  0  0
  -24.1921  -17.3218   20.5045 C   0  0  0  0  0  0  0  0  0  1  0  0
  -29.2847  -13.0134   18.9325 C   0  0  0  0  0  0  0  0  0  0  0  0
  -21.5215  -21.8601   15.3740 C   0  0  1  0  0  0  0  0  0  0  0  0
  -24.5439  -21.8204   13.0865 C   0  0  2  0  0  0  0  0  0  0  0  0
  -26.7475  -13.4922   18.7500 C   0  0  1  0  0  0  0  0  0  0  0  0
  -20.0346  -21.7730   14.9281 C   0  0  0  0  0  0  0  0  0  0  0  0
  -27.9972  -12.7642   18.1042 C   0  0  0  0  0  0  0  0  0  0  0  0
  -24.5711  -14.6006   23.0585 N   0  0  0  0  0  0  0  0  0  0  0  0
  -29.0991  -20.3861   20.0902 N   0  0  0  0  0  0  0  0  0  0  0  0
  -25.3003  -15.1536   20.4076 N   0  0  0  0  0  0  0  0  0  0  0  0
  -28.4513  -19.2746   19.7014 N   0  0  0  0  0  0  0  0  0  0  0  0
  -22.2641  -22.6939   17.5825 N   0  0  0  0  0  0  0  0  0  0  0  0
  -29.5804  -15.9470   21.2051 N   0  0  0  0  0  0  0  0  0  0  0  0
  -27.1543  -18.3623   17.9419 N   0  0  0  0  0  0  0  0  0  0  0  0
  -28.5101  -21.0885   15.6786 N   0  0  0  0  0  0  0  0  0  0  0  0
  -20.6256  -24.8795   19.8778 N   0  0  0  0  0  0  0  0  0  0  0  0
  -22.4676  -22.0097   14.2736 N   0  0  0  0  0  0  0  0  0  0  0  0
  -29.3964  -14.3515   19.4690 N   0  0  0  0  0  0  0  0  0  0  0  0
  -25.6769  -22.7492   13.3595 N   0  3  0  0  0  0  0  0  0  0  0  0
  -26.6068  -21.8610   16.6981 O   0  0  0  0  0  0  0  0  0  0  0  0
  -20.5542  -22.5685   19.6004 O   0  0  0  0  0  0  0  0  0  0  0  0
  -21.5537  -24.1679   15.9215 O   0  0  0  0  0  0  0  0  0  0  0  0
  -24.2561  -20.9837   15.3347 O   0  0  0  0  0  0  0  0  0  0  0  0
  -29.4684  -13.6756   21.6587 O   0  0  0  0  0  0  0  0  0  0  0  0
  -31.0284  -26.3936   19.2336 O   0  0  0  0  0  0  0  0  0  0  0  0
  -24.7500  -18.4025   21.2509 O   0  0  0  0  0  0  0  0  0  1  0  0
  -28.5813  -30.0733   22.5314 F   0  0  0  0  0  0  0  0  0  0  0  0
  -29.9503  -28.7228   18.2062 F   0  0  0  0  0  0  0  0  0  0  0  0
  1  2  1  0  0  0  0
  1  5  2  0  0  0  0
  2  6  2  0  0  0  0
  3  8  2  0  0  0  0
  3 16  1  0  0  0  0
  4  9  1  0  0  0  0
  4 16  2  0  0  0  0
  5 18  1  0  0  0  0
  6 20  1  0  0  0  0
  7 10  2  0  0  0  0
  7 19  1  0  0  0  0
  8 22  1  0  0  0  0
  9 22  2  0  0  0  0
 10 23  1  0  0  0  0
 11 12  2  0  0  0  0
 11 24  1  0  0  0  0
 12 25  1  0  0  0  0
 13 21  1  0  0  0  0
 13 23  2  0  0  0  0
 14 25  2  0  0  0  0
 14 26  1  0  0  0  0
 15 28  1  0  0  0  0
 15 67  2  0  0  0  0
 16 27  1  0  0  0  0
 17 27  1  0  0  0  0
 17 31  2  0  0  0  0
 17 32  1  0  0  0  0
 18 20  2  0  0  0  0
 18 37  1  0  0  0  0
 19 21  2  0  0  0  0
 19 38  1  0  0  0  0
 20 46  1  0  0  0  0
 21 39  1  0  0  0  0
 22 84  1  0  0  0  0
 23 85  1  0  0  0  0
 24 26  2  0  0  0  0
 24 84  1  0  0  0  0
 25 86  1  0  0  0  0
 26 87  1  0  0  0  0
 27 68  2  0  0  0  0
 28 60  1  0  0  0  0
 28 69  2  0  0  0  0
 29 30  2  0  0  0  0
 29 58  1  0  0  0  0
 29 67  1  0  0  0  0
 30 59  1  0  0  0  0
 30 69  1  0  0  0  0
 31 70  1  0  0  0  0
 31 73  1  0  0  0  0
 32 74  1  0  0  0  0
 32 79  2  0  0  0  0
 33 47  1  0  0  0  0
 33 75  1  0  0  0  0
 33 80  2  0  0  0  0
 34 62  1  0  0  0  0
 34 71  1  0  0  0  0
 34 81  2  0  0  0  0
 35 63  1  0  0  0  0
 35 76  1  0  0  0  0
 35 82  2  0  0  0  0
 36 72  1  0  0  0  0
 36 77  1  0  0  0  0
 36 83  2  0  0  0  0
 37 40  1  0  0  0  0
 38 47  1  0  0  0  0
 39 71  1  0  0  0  0
 40 42  1  0  0  0  0
 41 43  1  0  0  0  0
 41 44  1  0  0  0  0
 42 46  1  0  0  0  0
 43 48  1  0  0  0  0
 44 72  1  0  0  0  0
 45 48  1  0  0  0  0
 45 72  1  0  0  0  0
 46 75  1  0  0  0  0
 47 71  1  0  0  0  0
 48 70  1  0  0  0  0
 49 58  1  0  0  0  0
 50 63  1  0  0  0  0
 51 64  1  0  0  0  0
 52 65  1  0  0  0  0
 53 65  1  0  0  0  0
 54 65  1  0  0  0  0
 55 66  1  0  0  0  0
 56 66  1  0  0  0  0
 57 78  1  0  0  0  0
 59 64  1  0  0  0  0
 60 85  1  0  0  0  0
 61 66  1  0  0  0  0
 61 77  1  0  0  0  0
 62 65  1  0  0  0  0
 62 76  1  0  0  0  0
 63 78  1  0  0  0  0
 64 66  1  0  0  0  0
 68 70  1  0  0  0  0
M  CHG  1  78   1
M  ISO  4  36 100  60 101  77 100  85 101
M  END
> <Batch ID>
0081

> <Smiles>
CCc1ncc([101CH2:1][101O:1]c2ccc3c(c2)CN(C(=O)C(NC(=O)C(C)NC)C(C)(C)C)C(C(=O)NC2CCCc4ccccc42)C3)nc1CC(C)C(C)(C)C[100NH:0][100C:0](=O)N1CCCC(n2nc(-c3ccc(Oc4ccc(F)cc4F)cc3)c(C(N)=O)c2N)C1

> <Shape>
0.210

> <Color>
0.053

> <Negative vol penalty>
0.000

$$$$

  -OEChem-04052318463D

 85 93  0     1  0  0  0  0  0999 V2000
  -24.5059  -11.2428   20.1851 C   0  0  0  0  0  0  0  0  0  0  0  0
  -23.8510  -12.3981   20.5995 C   0  0  0  0  0  0  0  0  0  0  0  0
  -26.2598  -31.8105   21.1148 C   0  0  0  0  0  0  0  0  0  0  0  0
  -24.5654  -30.4336   22.1493 C   0  0  0  0  0  0  0  0  0  0  0  0
  -25.8994  -11.1998   20.1709 C   0  0  0  0  0  0  0  0  0  0  0  0
  -24.5893  -13.5108   21.0011 C   0  0  0  0  0  0  0  0  0  0  0  0
  -23.1217  -19.3982   20.1702 C   0  0  0  0  0  0  0  0  0  0  0  0
  -25.7648  -32.9265   21.7893 C   0  0  0  0  0  0  0  0  0  0  0  0
  -24.0704  -31.5496   22.8239 C   0  0  0  0  0  0  0  0  0  0  0  0
  -22.5353  -20.3460   21.0079 C   0  0  0  0  0  0  0  0  0  0  0  0
  -25.9527  -34.2444   24.8975 C   0  0  0  0  0  0  0  0  0  0  0  0
  -26.8749  -35.0961   25.5055 C   0  0  0  0  0  0  0  0  0  0  0  0
  -24.7247  -21.1644   21.6046 C   0  0  0  0  0  0  0  0  0  0  0  0
  -26.0967  -36.9221   24.1281 C   0  0  0  0  0  0  0  0  0  0  0  0
  -25.6601  -30.5640   21.2947 C   0  0  0  0  0  0  0  0  0  0  0  0
  -27.1659  -28.5203   21.0428 C   0  0  0  0  0  0  0  0  0  0  0  0
  -26.6552  -12.3158   20.5633 C   0  0  0  0  0  0  0  0  0  0  0  0
  -24.5168  -19.3192   20.0516 C   0  0  0  0  0  0  0  0  0  0  0  0
  -25.9943  -13.4822   20.9934 C   0  0  0  0  0  0  0  0  0  0  0  0
  -25.3263  -20.2164   20.7628 C   0  0  0  0  0  0  0  0  0  0  0  0
  -24.6701  -32.7961   22.6439 C   0  0  0  0  0  0  0  0  0  0  0  0
  -23.3369  -21.2273   21.7274 C   0  0  0  0  0  0  0  0  0  0  0  0
  -25.1025  -34.7315   23.9047 C   0  0  0  0  0  0  0  0  0  0  0  0
  -26.9469  -36.4350   25.1209 C   0  0  0  0  0  0  0  0  0  0  0  0
  -25.1745  -36.0703   23.5200 C   0  0  0  0  0  0  0  0  0  0  0  0
  -26.1706  -29.4109   20.5977 C   0  0  0  0  0  0  0  0  0  0  0  0
  -19.6226  -25.1694   18.7438 C   0  0  0  0  0  0  0  0  0  0  0  0
  -20.1789  -25.5641   19.9377 C   0  0  0  0  0  0  0  0  0  0  0  0
  -27.2874  -27.6052   20.0258 C   0  0  0  0  0  0  0  0  0  0  0  0
  -18.8482  -23.8276   20.2034 C   0  0  0  0  0  0  0  0  0  0  0  0
  -27.9136  -28.5202   22.2662 C   0  0  0  0  0  0  0  0  0  0  0  0
  -26.6992  -17.0960   20.6828 C   0  0  0  0  0  0  0  0  0  0  0  0
  -28.7051  -19.2201   19.2731 C   0  0  0  0  0  0  0  0  0  0  0  0
  -29.3599  -22.4581   18.4170 C   0  0  0  0  0  0  0  0  0  0  0  0
  -23.5399  -25.7504   15.7401 C   0  0  0  0  0  0  0  0  0  0  0  0
  -28.1593  -12.2058   20.5761 C   0  0  0  0  0  0  0  0  0  0  0  0
  -25.1329  -18.3087   19.1233 C   0  0  0  0  0  0  0  0  0  0  0  0
  -26.8282  -20.1862   20.6549 C   0  0  0  0  0  0  0  0  0  0  0  0
  -28.8681  -13.5552   20.6605 C   0  0  0  0  0  0  0  0  0  0  0  0
  -26.7689  -27.1810   15.2885 C   0  0  0  0  0  0  0  0  0  0  0  0
  -28.2303  -14.4267   21.7378 C   0  0  0  0  0  0  0  0  0  0  0  0
  -27.0715  -27.8343   16.6381 C   0  0  0  0  0  0  0  0  0  0  0  0
  -25.2910  -27.3001   14.9226 C   0  0  0  0  0  0  0  0  0  0  0  0
  -24.6593  -27.4568   17.2995 C   0  0  0  0  0  0  0  0  0  0  0  0
  -26.7602  -14.7182   21.4128 C   0  0  1  0  0  0  0  0  0  0  0  0
  -26.5809  -17.9802   19.4738 C   0  0  1  0  0  0  0  0  0  0  0  0
  -26.1268  -27.3132   17.7378 C   0  0  2  0  0  0  0  0  0  0  0  0
  -21.1150  -26.6516   20.2745 C   0  0  0  0  0  0  0  0  0  0  0  0
  -18.1286  -22.7412   20.8999 C   0  0  0  0  0  0  0  0  0  0  0  0
  -18.5028  -26.3446   16.8315 C   0  0  0  0  0  0  0  0  0  0  0  0
  -31.0957  -23.8894   17.3054 C   0  0  0  0  0  0  0  0  0  0  0  0
  -30.4494  -19.0397   21.7701 C   0  0  0  0  0  0  0  0  0  0  0  0
  -31.6030  -21.1351   21.0307 C   0  0  0  0  0  0  0  0  0  0  0  0
  -31.7157  -19.0850   19.6140 C   0  0  0  0  0  0  0  0  0  0  0  0
  -27.4687  -23.3170   16.3088 C   0  0  0  0  0  0  0  0  0  0  0  0
  -21.3226  -24.0629   22.6942 C   0  0  0  0  0  0  0  0  0  0  0  0
  -20.4202  -24.7738   16.3461 C   0  0  0  0  0  0  0  0  0  0  0  0
  -19.9738  -24.6937   22.3409 C   0  0  0  0  0  0  0  0  0  0  0  0
  -21.8120  -24.2559   16.7097 C   0  0  0  0  0  0  0  0  0  0  0  0
  -21.4750  -22.6358   22.1807 C   0  0  0  0  0  0  0  0  0  1  0  0
  -19.8164  -25.7530   17.4069 C   0  0  2  0  0  0  0  0  0  0  0  0
  -29.5470  -20.3770   19.7543 C   0  0  1  0  0  0  0  0  0  0  0  0
  -29.8219  -23.0814   17.1122 C   0  0  2  0  0  0  0  0  0  0  0  0
  -30.8006  -19.9088   20.5460 C   0  0  0  0  0  0  0  0  0  0  0  0
  -25.6939  -29.0906   19.3918 N   0  0  0  0  0  0  0  0  0  0  0  0
  -18.7950  -24.0882   18.9160 N   0  0  0  0  0  0  0  0  0  0  0  0
  -19.6731  -24.6955   20.8634 N   0  0  0  0  0  0  0  0  0  0  0  0
  -26.3927  -27.9886   19.0705 N   0  0  0  0  0  0  0  0  0  0  0  0
  -27.3834  -19.1760   19.7391 N   0  0  0  0  0  0  0  0  0  0  0  0
  -24.4494  -26.7873   16.0063 N   0  0  0  0  0  0  0  0  0  0  0  0
  -28.0713  -26.5181   19.8645 N   0  0  0  0  0  0  0  0  0  0  0  0
  -27.6633  -29.5328   23.2023 N   0  0  0  0  0  0  0  0  0  0  0  0
  -26.6609  -15.7445   20.3974 N   0  0  0  0  0  0  0  0  0  0  0  0
  -29.8509  -21.1793   18.5743 N   0  0  0  0  0  0  0  0  0  0  0  0
  -22.7854  -25.3190   16.8243 N   0  0  0  0  0  0  0  0  0  0  0  0
  -28.7695  -23.9858   16.5689 N   0  3  0  0  0  0  0  0  0  0  0  0
  -28.7896  -27.6574   22.5145 O   0  0  0  0  0  0  0  0  0  0  0  0
  -26.8180  -17.6024   21.7924 O   0  0  0  0  0  0  0  0  0  0  0  0
  -29.1996  -18.3901   18.5062 O   0  0  0  0  0  0  0  0  0  0  0  0
  -28.6387  -23.0482   19.2185 O   0  0  0  0  0  0  0  0  0  0  0  0
  -23.4136  -25.2429   14.6206 O   0  0  0  0  0  0  0  0  0  0  0  0
  -24.1870  -33.8848   23.3025 O   0  0  0  0  0  0  0  0  0  0  0  0
  -22.7671  -22.1529   22.5463 O   0  0  0  0  0  0  0  0  0  1  0  0
  -27.8314  -37.2531   25.7059 F   0  0  0  0  0  0  0  0  0  0  0  0
  -24.3595  -36.5443   22.5676 F   0  0  0  0  0  0  0  0  0  0  0  0
  1  2  1  0  0  0  0
  1  5  2  0  0  0  0
  2  6  2  0  0  0  0
  3  8  2  0  0  0  0
  3 15  1  0  0  0  0
  4  9  1  0  0  0  0
  4 15  2  0  0  0  0
  5 17  1  0  0  0  0
  6 19  1  0  0  0  0
  7 10  2  0  0  0  0
  7 18  1  0  0  0  0
  8 21  1  0  0  0  0
  9 21  2  0  0  0  0
 10 22  1  0  0  0  0
 11 12  2  0  0  0  0
 11 23  1  0  0  0  0
 12 24  1  0  0  0  0
 13 20  1  0  0  0  0
 13 22  2  0  0  0  0
 14 24  2  0  0  0  0
 14 25  1  0  0  0  0
 15 26  1  0  0  0  0
 16 26  1  0  0  0  0
 16 29  2  0  0  0  0
 16 31  1  0  0  0  0
 17 19  2  0  0  0  0
 17 36  1  0  0  0  0
 18 20  2  0  0  0  0
 18 37  1  0  0  0  0
 19 45  1  0  0  0  0
 20 38  1  0  0  0  0
 21 82  1  0  0  0  0
 22 83  1  0  0  0  0
 23 25  2  0  0  0  0
 23 82  1  0  0  0  0
 24 84  1  0  0  0  0
 25 85  1  0  0  0  0
 26 65  2  0  0  0  0
 27 28  2  0  0  0  0
 27 61  1  0  0  0  0
 27 66  1  0  0  0  0
 28 48  1  0  0  0  0
 28 67  1  0  0  0  0
 29 68  1  0  0  0  0
 29 71  1  0  0  0  0
 30 49  1  0  0  0  0
 30 66  2  0  0  0  0
 30 67  1  0  0  0  0
 31 72  1  0  0  0  0
 31 77  2  0  0  0  0
 32 46  1  0  0  0  0
 32 73  1  0  0  0  0
 32 78  2  0  0  0  0
 33 62  1  0  0  0  0
 33 69  1  0  0  0  0
 33 79  2  0  0  0  0
 34 63  1  0  0  0  0
 34 74  1  0  0  0  0
 34 80  2  0  0  0  0
 35 70  1  0  0  0  0
 35 75  1  0  0  0  0
 35 81  2  0  0  0  0
 36 39  1  0  0  0  0
 37 46  1  0  0  0  0
 38 69  1  0  0  0  0
 39 41  1  0  0  0  0
 40 42  1  0  0  0  0
 40 43  1  0  0  0  0
 41 45  1  0  0  0  0
 42 47  1  0  0  0  0
 43 70  1  0  0  0  0
 44 47  1  0  0  0  0
 44 70  1  0  0  0  0
 45 73  1  0  0  0  0
 46 69  1  0  0  0  0
 47 68  1  0  0  0  0
 50 61  1  0  0  0  0
 51 63  1  0  0  0  0
 52 64  1  0  0  0  0
 53 64  1  0  0  0  0
 54 64  1  0  0  0  0
 55 76  1  0  0  0  0
 56 58  1  0  0  0  0
 56 60  1  0  0  0  0
 57 59  1  0  0  0  0
 57 61  1  0  0  0  0
 58 67  1  0  0  0  0
 59 75  1  0  0  0  0
 60 83  1  0  0  0  0
 62 64  1  0  0  0  0
 62 74  1  0  0  0  0
 63 76  1  0  0  0  0
 65 68  1  0  0  0  0
M  CHG  1  76   1
M  ISO  4  35 100  60 101  75 100  83 101
M  END
> <Batch ID>
0081

> <Smiles>
CNC(C)C(=O)NC(C(=O)N1Cc2cc([101O:1][101CH2:1]CCn3c(C)nc(C(C)CC[100NH:0][100C:0](=O)N4CCCC(n5nc(-c6ccc(Oc7ccc(F)cc7F)cc6)c(C(N)=O)c5N)C4)c3C)ccc2CC1C(=O)NC1CCCc2ccccc21)C(C)(C)C

> <Shape>
0.242

> <Color>
0.065

> <Negative vol penalty>
0.000

$$$$

  -OEChem-04052318463D

 83 91  0     1  0  0  0  0  0999 V2000
  -18.1025  -24.7589   21.5653 C   0  0  0  0  0  0  0  0  0  0  0  0
  -19.4662  -24.5829   21.3538 C   0  0  0  0  0  0  0  0  0  0  0  0
  -26.4746  -13.2850   21.5828 C   0  0  0  0  0  0  0  0  0  0  0  0
  -24.8990  -13.2389   19.7519 C   0  0  0  0  0  0  0  0  0  0  0  0
  -17.6302  -25.9559   22.1019 C   0  0  0  0  0  0  0  0  0  0  0  0
  -20.3584  -25.6045   21.6778 C   0  0  0  0  0  0  0  0  0  0  0  0
  -24.4475  -23.9058   24.1352 C   0  0  0  0  0  0  0  0  0  0  0  0
  -26.3625  -11.9009   21.7142 C   0  0  0  0  0  0  0  0  0  0  0  0
  -24.7869  -11.8548   19.8832 C   0  0  0  0  0  0  0  0  0  0  0  0
  -25.4394  -23.2914   23.3720 C   0  0  0  0  0  0  0  0  0  0  0  0
  -23.8108   -8.3548   19.9697 C   0  0  0  0  0  0  0  0  0  0  0  0
  -22.5311   -7.8014   19.9308 C   0  0  0  0  0  0  0  0  0  0  0  0
  -26.7230  -25.3335   23.4071 C   0  0  0  0  0  0  0  0  0  0  0  0
  -21.9062   -9.1106   21.8628 C   0  0  0  0  0  0  0  0  0  0  0  0
  -29.0115  -24.6288   19.5189 C   0  0  0  0  0  0  0  0  0  0  0  0
  -25.7428  -13.9540   20.6017 C   0  0  0  0  0  0  0  0  0  0  0  0
  -26.7717  -16.0906   19.6614 C   0  0  0  0  0  0  0  0  0  0  0  0
  -18.5179  -26.9890   22.4416 C   0  0  0  0  0  0  0  0  0  0  0  0
  -24.5811  -25.2443   24.5314 C   0  0  0  0  0  0  0  0  0  0  0  0
  -19.8974  -26.8170   22.2182 C   0  0  0  0  0  0  0  0  0  0  0  0
  -25.7325  -25.9619   24.1774 C   0  0  0  0  0  0  0  0  0  0  0  0
  -27.9839  -23.7159   19.3968 C   0  0  0  0  0  0  0  0  0  0  0  0
  -25.5186  -11.1858   20.8644 C   0  0  0  0  0  0  0  0  0  0  0  0
  -26.5760  -24.0061   23.0054 C   0  0  0  0  0  0  0  0  0  0  0  0
  -24.1384   -9.2860   20.9553 C   0  0  0  0  0  0  0  0  0  0  0  0
  -21.5788   -8.1794   20.8773 C   0  0  0  0  0  0  0  0  0  0  0  0
  -23.1861   -9.6640   21.9018 C   0  0  0  0  0  0  0  0  0  0  0  0
  -25.8578  -15.3839   20.4659 C   0  0  0  0  0  0  0  0  0  0  0  0
  -26.9401  -24.0978   18.5790 C   0  0  0  0  0  0  0  0  0  0  0  0
  -26.4736  -17.4128   19.8835 C   0  0  0  0  0  0  0  0  0  0  0  0
  -27.9543  -26.0809   18.1257 C   0  0  0  0  0  0  0  0  0  0  0  0
  -27.7982  -15.5961   18.7911 C   0  0  0  0  0  0  0  0  0  0  0  0
  -22.9437  -27.9159   23.9974 C   0  0  0  0  0  0  0  0  0  0  0  0
  -25.0252  -29.1603   26.1517 C   0  0  0  0  0  0  0  0  0  0  0  0
  -28.0693  -28.9702   27.6827 C   0  0  0  0  0  0  0  0  0  0  0  0
  -22.7532  -21.5317   20.4658 C   0  0  0  0  0  0  0  0  0  0  0  0
  -17.9560  -28.2830   22.9749 C   0  0  0  0  0  0  0  0  0  0  0  0
  -23.5145  -25.8845   25.3770 C   0  0  0  0  0  0  0  0  0  0  0  0
  -25.9334  -27.3950   24.5947 C   0  0  0  0  0  0  0  0  0  0  0  0
  -19.0025  -29.1732   23.6401 C   0  0  0  0  0  0  0  0  0  0  0  0
  -23.4928  -19.5785   23.3493 C   0  0  0  0  0  0  0  0  0  0  0  0
  -20.2521  -29.2695   22.7706 C   0  0  0  0  0  0  0  0  0  0  0  0
  -24.2435  -18.3690   22.7891 C   0  0  0  0  0  0  0  0  0  0  0  0
  -22.3823  -20.0391   22.4077 C   0  0  0  0  0  0  0  0  0  0  0  0
  -23.5656  -19.0952   20.4628 C   0  0  0  0  0  0  0  0  0  0  0  0
  -20.8989  -27.8923   22.5799 C   0  0  1  0  0  0  0  0  0  0  0  0
  -23.5170  -27.4075   25.2899 C   0  0  1  0  0  0  0  0  0  0  0  0
  -24.7316  -18.6287   21.3512 C   0  0  2  0  0  0  0  0  0  0  0  0
  -27.9381  -27.3941   17.4191 C   0  0  0  0  0  0  0  0  0  0  0  0
  -29.5021  -30.1504   29.3714 C   0  0  0  0  0  0  0  0  0  0  0  0
  -25.6776  -31.3130   24.0901 C   0  0  0  0  0  0  0  0  0  0  0  0
  -27.7309  -31.8602   25.4140 C   0  0  0  0  0  0  0  0  0  0  0  0
  -25.4749  -32.1458   26.4395 C   0  0  0  0  0  0  0  0  0  0  0  0
  -28.1279  -26.6035   29.4587 C   0  0  0  0  0  0  0  0  0  0  0  0
  -28.0237  -22.3928   20.1221 C   0  0  0  0  0  0  0  0  0  0  0  0
  -25.7729  -23.1899   18.3716 C   0  0  0  0  0  0  0  0  0  0  0  0
  -24.4086  -23.8191   18.7134 C   0  0  0  0  0  0  0  0  0  0  0  0
  -23.2120  -22.9071   18.4516 C   0  0  0  0  0  0  0  0  0  0  0  0
  -27.1320  -22.3825   21.3590 C   0  0  0  0  0  0  0  0  0  1  0  0
  -26.3830  -29.8152   26.0712 C   0  0  1  0  0  0  0  0  0  0  0  0
  -28.4687  -29.0579   29.1446 C   0  0  2  0  0  0  0  0  0  0  0  0
  -26.3122  -31.2572   25.4940 C   0  0  0  0  0  0  0  0  0  0  0  0
  -29.0294  -25.8251   18.8953 N   0  0  0  0  0  0  0  0  0  0  0  0
  -25.0405  -16.1903   21.1482 N   0  0  0  0  0  0  0  0  0  0  0  0
  -26.8923  -25.2774   17.9258 N   0  0  0  0  0  0  0  0  0  0  0  0
  -25.4398  -17.4175   20.7732 N   0  0  0  0  0  0  0  0  0  0  0  0
  -24.8595  -27.9787   25.4154 N   0  0  0  0  0  0  0  0  0  0  0  0
  -22.9115  -20.2694   21.0613 N   0  0  0  0  0  0  0  0  0  0  0  0
  -26.9976  -18.5603   19.4028 N   0  0  0  0  0  0  0  0  0  0  0  0
  -27.9691  -14.2095   18.6798 N   0  0  0  0  0  0  0  0  0  0  0  0
  -21.6423  -27.5149   23.7629 N   0  0  0  0  0  0  0  0  0  0  0  0
  -26.9547  -29.7353   27.4110 N   0  0  0  0  0  0  0  0  0  0  0  0
  -23.2897  -21.6670   19.1912 N   0  0  0  0  0  0  0  0  0  0  0  0
  -29.0461  -27.7625   29.6024 N   0  3  0  0  0  0  0  0  0  0  0  0
  -28.5526  -16.3615   18.1441 O   0  0  0  0  0  0  0  0  0  0  0  0
  -23.6307  -28.6210   23.2676 O   0  0  0  0  0  0  0  0  0  0  0  0
  -24.1462  -29.6743   26.8480 O   0  0  0  0  0  0  0  0  0  0  0  0
  -28.6865  -28.2939   26.8629 O   0  0  0  0  0  0  0  0  0  0  0  0
  -22.1812  -22.4703   21.0305 O   0  0  0  0  0  0  0  0  0  0  0  0
  -25.4091   -9.8351   20.9921 O   0  0  0  0  0  0  0  0  0  0  0  0
  -27.5454  -23.4090   22.2600 O   0  0  0  0  0  0  0  0  0  1  0  0
  -20.3493   -7.6490   20.8389 F   0  0  0  0  0  0  0  0  0  0  0  0
  -23.4945  -10.5590   22.8502 F   0  0  0  0  0  0  0  0  0  0  0  0
  1  2  1  0  0  0  0
  1  5  2  0  0  0  0
  2  6  2  0  0  0  0
  3  8  2  0  0  0  0
  3 16  1  0  0  0  0
  4  9  1  0  0  0  0
  4 16  2  0  0  0  0
  5 18  1  0  0  0  0
  6 20  1  0  0  0  0
  7 10  2  0  0  0  0
  7 19  1  0  0  0  0
  8 23  1  0  0  0  0
  9 23  2  0  0  0  0
 10 24  1  0  0  0  0
 11 12  2  0  0  0  0
 11 25  1  0  0  0  0
 12 26  1  0  0  0  0
 13 21  1  0  0  0  0
 13 24  2  0  0  0  0
 14 26  2  0  0  0  0
 14 27  1  0  0  0  0
 15 22  1  0  0  0  0
 15 63  2  0  0  0  0
 16 28  1  0  0  0  0
 17 28  1  0  0  0  0
 17 30  2  0  0  0  0
 17 32  1  0  0  0  0
 18 20  2  0  0  0  0
 18 37  1  0  0  0  0
 19 21  2  0  0  0  0
 19 38  1  0  0  0  0
 20 46  1  0  0  0  0
 21 39  1  0  0  0  0
 22 29  2  0  0  0  0
 22 55  1  0  0  0  0
 23 80  1  0  0  0  0
 24 81  1  0  0  0  0
 25 27  2  0  0  0  0
 25 80  1  0  0  0  0
 26 82  1  0  0  0  0
 27 83  1  0  0  0  0
 28 64  2  0  0  0  0
 29 56  1  0  0  0  0
 29 65  1  0  0  0  0
 30 66  1  0  0  0  0
 30 69  1  0  0  0  0
 31 49  1  0  0  0  0
 31 63  1  0  0  0  0
 31 65  2  0  0  0  0
 32 70  1  0  0  0  0
 32 75  2  0  0  0  0
 33 47  1  0  0  0  0
 33 71  1  0  0  0  0
 33 76  2  0  0  0  0
 34 60  1  0  0  0  0
 34 67  1  0  0  0  0
 34 77  2  0  0  0  0
 35 61  1  0  0  0  0
 35 72  1  0  0  0  0
 35 78  2  0  0  0  0
 36 68  1  0  0  0  0
 36 73  1  0  0  0  0
 36 79  2  0  0  0  0
 37 40  1  0  0  0  0
 38 47  1  0  0  0  0
 39 67  1  0  0  0  0
 40 42  1  0  0  0  0
 41 43  1  0  0  0  0
 41 44  1  0  0  0  0
 42 46  1  0  0  0  0
 43 48  1  0  0  0  0
 44 68  1  0  0  0  0
 45 48  1  0  0  0  0
 45 68  1  0  0  0  0
 46 71  1  0  0  0  0
 47 67  1  0  0  0  0
 48 66  1  0  0  0  0
 50 61  1  0  0  0  0
 51 62  1  0  0  0  0
 52 62  1  0  0  0  0
 53 62  1  0  0  0  0
 54 74  1  0  0  0  0
 55 59  1  0  0  0  0
 56 57  1  0  0  0  0
 57 58  1  0  0  0  0
 58 73  1  0  0  0  0
 59 81  1  0  0  0  0
 60 62  1  0  0  0  0
 60 72  1  0  0  0  0
 61 74  1  0  0  0  0
 64 66  1  0  0  0  0
M  CHG  1  74   1
M  ISO  4  36 100  59 101  73 100  81 101
M  END
> <Batch ID>
0081

> <Smiles>
CNC(C)C(=O)NC(C(=O)N1Cc2cc([101O:1][101CH2:1]Cc3cnc(C)nc3CCC[100NH:0][100C:0](=O)N3CCCC(n4nc(-c5ccc(Oc6ccc(F)cc6F)cc5)c(C(N)=O)c4N)C3)ccc2CC1C(=O)NC1CCCc2ccccc21)C(C)(C)C

> <Shape>
0.198

> <Color>
0.086

> <Negative vol penalty>
0.000

$$$$

  -OEChem-04052318463D

 83 91  0     1  0  0  0  0  0999 V2000
  -29.2806  -10.2690   16.0637 C   0  0  0  0  0  0  0  0  0  0  0  0
  -28.1651  -11.0788   15.8762 C   0  0  0  0  0  0  0  0  0  0  0  0
  -25.7562  -29.8115   22.0183 C   0  0  0  0  0  0  0  0  0  0  0  0
  -23.5330  -29.7723   21.0733 C   0  0  0  0  0  0  0  0  0  0  0  0
  -30.0231  -10.3686   17.2396 C   0  0  0  0  0  0  0  0  0  0  0  0
  -27.7907  -11.9879   16.8650 C   0  0  0  0  0  0  0  0  0  0  0  0
  -25.2954  -17.5177   16.0278 C   0  0  0  0  0  0  0  0  0  0  0  0
  -25.4007  -30.9039   22.8094 C   0  0  0  0  0  0  0  0  0  0  0  0
  -23.1775  -30.8648   21.8644 C   0  0  0  0  0  0  0  0  0  0  0  0
  -23.9778  -17.9701   16.0818 C   0  0  0  0  0  0  0  0  0  0  0  0
  -25.0210  -34.2402   22.4226 C   0  0  0  0  0  0  0  0  0  0  0  0
  -25.9191  -35.3048   22.4974 C   0  0  0  0  0  0  0  0  0  0  0  0
  -24.3179  -18.6699   18.3652 C   0  0  0  0  0  0  0  0  0  0  0  0
  -26.0858  -34.9963   24.8878 C   0  0  0  0  0  0  0  0  0  0  0  0
  -24.8223  -29.2457   21.1502 C   0  0  0  0  0  0  0  0  0  0  0  0
  -25.0724  -26.7542   20.6630 C   0  0  0  0  0  0  0  0  0  0  0  0
  -29.6633  -11.2862   18.2392 C   0  0  0  0  0  0  0  0  0  0  0  0
  -26.1324  -17.6283   17.1475 C   0  0  0  0  0  0  0  0  0  0  0  0
  -28.5283  -12.0989   18.0559 C   0  0  0  0  0  0  0  0  0  0  0  0
  -25.6466  -18.2205   18.3220 C   0  0  0  0  0  0  0  0  0  0  0  0
  -24.1114  -31.4306   22.7325 C   0  0  0  0  0  0  0  0  0  0  0  0
  -23.4880  -18.5437   17.2515 C   0  0  0  0  0  0  0  0  0  0  0  0
  -24.6552  -33.5536   23.5805 C   0  0  0  0  0  0  0  0  0  0  0  0
  -26.4515  -35.6828   23.7300 C   0  0  0  0  0  0  0  0  0  0  0  0
  -25.1876  -33.9316   24.8130 C   0  0  0  0  0  0  0  0  0  0  0  0
  -25.1891  -28.1176   20.3323 C   0  0  0  0  0  0  0  0  0  0  0  0
  -21.7393  -22.6714   14.5271 C   0  0  0  0  0  0  0  0  0  0  0  0
  -21.5555  -22.7402   15.8852 C   0  0  0  0  0  0  0  0  0  0  0  0
  -25.5520  -26.0911   19.5599 C   0  0  0  0  0  0  0  0  0  0  0  0
  -24.5749  -26.1419   21.8601 C   0  0  0  0  0  0  0  0  0  0  0  0
  -27.6687  -15.5629   19.0123 C   0  0  0  0  0  0  0  0  0  0  0  0
  -28.9097  -18.2613   20.3166 C   0  0  0  0  0  0  0  0  0  0  0  0
  -28.5894  -21.6079   20.9034 C   0  0  0  0  0  0  0  0  0  0  0  0
  -25.8438  -25.4264   14.0265 C   0  0  0  0  0  0  0  0  0  0  0  0
  -30.4691  -11.3245   19.5135 C   0  0  0  0  0  0  0  0  0  0  0  0
  -27.5592  -17.1598   17.0645 C   0  0  0  0  0  0  0  0  0  0  0  0
  -26.5106  -18.3809   19.5452 C   0  0  0  0  0  0  0  0  0  0  0  0
  -30.2246  -12.5769   20.3513 C   0  0  0  0  0  0  0  0  0  0  0  0
  -28.0327  -27.8152   15.5027 C   0  0  0  0  0  0  0  0  0  0  0  0
  -28.7297  -12.8557   20.4710 C   0  0  0  0  0  0  0  0  0  0  0  0
  -27.4748  -27.9987   16.9152 C   0  0  0  0  0  0  0  0  0  0  0  0
  -26.9189  -27.6120   14.4780 C   0  0  0  0  0  0  0  0  0  0  0  0
  -25.4160  -26.7093   16.2100 C   0  0  0  0  0  0  0  0  0  0  0  0
  -28.1049  -13.1147   19.0947 C   0  0  1  0  0  0  0  0  0  0  0  0
  -28.1683  -16.8546   18.4295 C   0  0  1  0  0  0  0  0  0  0  0  0
  -26.5039  -26.8618   17.2867 C   0  0  2  0  0  0  0  0  0  0  0  0
  -21.7066  -23.8347   16.8571 C   0  0  0  0  0  0  0  0  0  0  0  0
  -21.0608  -24.0618   12.5526 C   0  0  0  0  0  0  0  0  0  0  0  0
  -29.7452  -23.5300   22.0289 C   0  0  0  0  0  0  0  0  0  0  0  0
  -27.9836  -17.2244   23.0327 C   0  0  0  0  0  0  0  0  0  0  0  0
  -28.2911  -19.5367   23.9422 C   0  0  0  0  0  0  0  0  0  0  0  0
  -30.2492  -18.2836   23.0376 C   0  0  0  0  0  0  0  0  0  0  0  0
  -28.8720  -23.0824   18.3529 C   0  0  0  0  0  0  0  0  0  0  0  0
  -23.4884  -23.4163   12.8162 C   0  0  0  0  0  0  0  0  0  0  0  0
  -20.8148  -20.9426   17.5850 C   0  0  0  0  0  0  0  0  0  0  0  0
  -24.7051  -23.2420   13.7254 C   0  0  0  0  0  0  0  0  0  0  0  0
  -21.9303  -20.0859   18.1740 C   0  0  0  0  0  0  0  0  0  1  0  0
  -22.1629  -23.7220   13.5916 C   0  0  2  0  0  0  0  0  0  0  0  0
  -28.5103  -19.1871   21.4401 C   0  0  1  0  0  0  0  0  0  0  0  0
  -29.5643  -22.7586   20.7308 C   0  0  2  0  0  0  0  0  0  0  0  0
  -28.7414  -18.5533   22.8409 C   0  0  0  0  0  0  0  0  0  0  0  0
  -25.7028  -28.3107   19.1146 N   0  0  0  0  0  0  0  0  0  0  0  0
  -21.4629  -21.4059   14.0895 N   0  0  0  0  0  0  0  0  0  0  0  0
  -21.1084  -20.6781   15.1429 N   0  0  0  0  0  0  0  0  0  0  0  0
  -21.1644  -21.4800   16.2186 N   0  0  0  0  0  0  0  0  0  0  0  0
  -25.9131  -27.0599   18.6704 N   0  0  0  0  0  0  0  0  0  0  0  0
  -27.8967  -17.9017   19.4165 N   0  0  0  0  0  0  0  0  0  0  0  0
  -26.0346  -26.5188   14.8887 N   0  0  0  0  0  0  0  0  0  0  0  0
  -25.6960  -24.7797   19.2738 N   0  0  0  0  0  0  0  0  0  0  0  0
  -24.1210  -26.9704   22.8955 N   0  0  0  0  0  0  0  0  0  0  0  0
  -28.4102  -14.4561   18.6454 N   0  0  0  0  0  0  0  0  0  0  0  0
  -29.2373  -20.4328   21.2205 N   0  0  0  0  0  0  0  0  0  0  0  0
  -24.9953  -24.4310   14.4954 N   0  0  0  0  0  0  0  0  0  0  0  0
  -29.0721  -23.7026   19.6879 N   0  3  0  0  0  0  0  0  0  0  0  0
  -24.5492  -24.8972   22.0138 O   0  0  0  0  0  0  0  0  0  0  0  0
  -26.6843  -15.5701   19.7421 O   0  0  0  0  0  0  0  0  0  0  0  0
  -30.0792  -17.8771   20.2364 O   0  0  0  0  0  0  0  0  0  0  0  0
  -27.3742  -21.7392   20.7737 O   0  0  0  0  0  0  0  0  0  0  0  0
  -26.3935  -25.3418   12.9230 O   0  0  0  0  0  0  0  0  0  0  0  0
  -23.7641  -32.4964   23.5044 O   0  0  0  0  0  0  0  0  0  0  0  0
  -22.2020  -18.9855   17.3071 O   0  0  0  0  0  0  0  0  0  1  0  0
  -27.3151  -36.7042   23.8014 F   0  0  0  0  0  0  0  0  0  0  0  0
  -24.8409  -33.2751   25.9286 F   0  0  0  0  0  0  0  0  0  0  0  0
  1  2  1  0  0  0  0
  1  5  2  0  0  0  0
  2  6  2  0  0  0  0
  3  8  2  0  0  0  0
  3 15  1  0  0  0  0
  4  9  1  0  0  0  0
  4 15  2  0  0  0  0
  5 17  1  0  0  0  0
  6 19  1  0  0  0  0
  7 10  2  0  0  0  0
  7 18  1  0  0  0  0
  8 21  1  0  0  0  0
  9 21  2  0  0  0  0
 10 22  1  0  0  0  0
 11 12  2  0  0  0  0
 11 23  1  0  0  0  0
 12 24  1  0  0  0  0
 13 20  1  0  0  0  0
 13 22  2  0  0  0  0
 14 24  2  0  0  0  0
 14 25  1  0  0  0  0
 15 26  1  0  0  0  0
 16 26  1  0  0  0  0
 16 29  2  0  0  0  0
 16 30  1  0  0  0  0
 17 19  2  0  0  0  0
 17 35  1  0  0  0  0
 18 20  2  0  0  0  0
 18 36  1  0  0  0  0
 19 44  1  0  0  0  0
 20 37  1  0  0  0  0
 21 80  1  0  0  0  0
 22 81  1  0  0  0  0
 23 25  2  0  0  0  0
 23 80  1  0  0  0  0
 24 82  1  0  0  0  0
 25 83  1  0  0  0  0
 26 62  2  0  0  0  0
 27 28  2  0  0  0  0
 27 58  1  0  0  0  0
 27 63  1  0  0  0  0
 28 47  1  0  0  0  0
 28 65  1  0  0  0  0
 29 66  1  0  0  0  0
 29 69  1  0  0  0  0
 30 70  1  0  0  0  0
 30 75  2  0  0  0  0
 31 45  1  0  0  0  0
 31 71  1  0  0  0  0
 31 76  2  0  0  0  0
 32 59  1  0  0  0  0
 32 67  1  0  0  0  0
 32 77  2  0  0  0  0
 33 60  1  0  0  0  0
 33 72  1  0  0  0  0
 33 78  2  0  0  0  0
 34 68  1  0  0  0  0
 34 73  1  0  0  0  0
 34 79  2  0  0  0  0
 35 38  1  0  0  0  0
 36 45  1  0  0  0  0
 37 67  1  0  0  0  0
 38 40  1  0  0  0  0
 39 41  1  0  0  0  0
 39 42  1  0  0  0  0
 40 44  1  0  0  0  0
 41 46  1  0  0  0  0
 42 68  1  0  0  0  0
 43 46  1  0  0  0  0
 43 68  1  0  0  0  0
 44 71  1  0  0  0  0
 45 67  1  0  0  0  0
 46 66  1  0  0  0  0
 48 58  1  0  0  0  0
 49 60  1  0  0  0  0
 50 61  1  0  0  0  0
 51 61  1  0  0  0  0
 52 61  1  0  0  0  0
 53 74  1  0  0  0  0
 54 56  1  0  0  0  0
 54 58  1  0  0  0  0
 55 57  1  0  0  0  0
 55 65  1  0  0  0  0
 56 73  1  0  0  0  0
 57 81  1  0  0  0  0
 59 61  1  0  0  0  0
 59 72  1  0  0  0  0
 60 74  1  0  0  0  0
 62 66  1  0  0  0  0
 63 64  2  0  0  0  0
 64 65  1  0  0  0  0
M  CHG  1  74   1
M  ISO  4  34 100  57 101  73 100  81 101
M  END
> <Batch ID>
0081

> <Smiles>
CNC(C)C(=O)NC(C(=O)N1Cc2cc([101O:1][101CH2:1]Cn3nnc(C(C)CC[100NH:0][100C:0](=O)N4CCCC(n5nc(-c6ccc(Oc7ccc(F)cc7F)cc6)c(C(N)=O)c5N)C4)c3C)ccc2CC1C(=O)NC1CCCc2ccccc21)C(C)(C)C

> <Shape>
0.211

> <Color>
0.054

> <Negative vol penalty>
0.000

$$$$

  -OEChem-04052318463D

 86 94  0     1  0  0  0  0  0999 V2000
  -20.4120  -21.5200   13.7242 C   0  0  0  0  0  0  0  0  0  0  0  0
  -21.0477  -20.6705   14.6240 C   0  0  0  0  0  0  0  0  0  0  0  0
  -27.8836  -23.5294   20.8236 C   0  0  0  0  0  0  0  0  0  0  0  0
  -28.0201  -23.0192   18.4661 C   0  0  0  0  0  0  0  0  0  0  0  0
  -19.8920  -22.7366   14.1642 C   0  0  0  0  0  0  0  0  0  0  0  0
  -21.1646  -21.0375   15.9642 C   0  0  0  0  0  0  0  0  0  0  0  0
  -20.0446  -17.2412   19.1230 C   0  0  0  0  0  0  0  0  0  0  0  0
  -27.8620  -24.8922   20.5275 C   0  0  0  0  0  0  0  0  0  0  0  0
  -27.9985  -24.3821   18.1699 C   0  0  0  0  0  0  0  0  0  0  0  0
  -21.0193  -16.2627   19.3134 C   0  0  0  0  0  0  0  0  0  0  0  0
  -25.6105  -27.1708   19.4449 C   0  0  0  0  0  0  0  0  0  0  0  0
  -24.6779  -27.9645   20.1125 C   0  0  0  0  0  0  0  0  0  0  0  0
  -21.6574  -17.3110   21.3902 C   0  0  0  0  0  0  0  0  0  0  0  0
  -23.6357  -12.1130   20.5173 C   0  0  0  0  0  0  0  0  0  0  0  0
  -25.3113  -13.7299   19.9151 C   0  0  0  0  0  0  0  0  0  0  0  0
  -26.4713  -29.2907   21.0410 C   0  0  0  0  0  0  0  0  0  0  0  0
  -27.9627  -22.5928   19.7929 C   0  0  0  0  0  0  0  0  0  0  0  0
  -26.8789  -20.3234   20.2203 C   0  0  0  0  0  0  0  0  0  0  0  0
  -19.9941  -23.1144   15.5123 C   0  0  0  0  0  0  0  0  0  0  0  0
  -19.8760  -18.2699   20.0610 C   0  0  0  0  0  0  0  0  0  0  0  0
  -20.6467  -22.2608   16.4223 C   0  0  0  0  0  0  0  0  0  0  0  0
  -20.6781  -18.2999   21.2107 C   0  0  0  0  0  0  0  0  0  0  0  0
  -23.9729  -13.3711   20.0306 C   0  0  0  0  0  0  0  0  0  0  0  0
  -27.9195  -25.3186   19.2006 C   0  0  0  0  0  0  0  0  0  0  0  0
  -21.8278  -16.2991   20.4457 C   0  0  0  0  0  0  0  0  0  0  0  0
  -26.9736  -27.4369   19.5754 C   0  0  0  0  0  0  0  0  0  0  0  0
  -25.1083  -29.0245   20.9106 C   0  0  0  0  0  0  0  0  0  0  0  0
  -27.4039  -28.4969   20.3734 C   0  0  0  0  0  0  0  0  0  0  0  0
  -27.9856  -21.1849   20.0982 C   0  0  0  0  0  0  0  0  0  0  0  0
  -24.6661  -11.2573   20.8719 C   0  0  0  0  0  0  0  0  0  0  0  0
  -26.2667  -12.8019   20.2969 C   0  0  0  0  0  0  0  0  0  0  0  0
  -27.4275  -19.0995   20.5161 C   0  0  0  0  0  0  0  0  0  0  0  0
  -25.4800  -20.6044   20.0790 C   0  0  0  0  0  0  0  0  0  0  0  0
  -20.1373  -21.4369   19.9881 C   0  0  0  0  0  0  0  0  0  0  0  0
  -18.9700  -21.2130   23.0063 C   0  0  0  0  0  0  0  0  0  0  0  0
  -18.5408  -19.3206   25.8137 C   0  0  0  0  0  0  0  0  0  0  0  0
  -31.2709  -15.1490   19.6398 C   0  0  0  0  0  0  0  0  0  0  0  0
  -19.4584  -24.4604   15.9316 C   0  0  0  0  0  0  0  0  0  0  0  0
  -18.8021  -19.3026   19.8543 C   0  0  0  0  0  0  0  0  0  0  0  0
  -20.5236  -19.3715   22.2577 C   0  0  0  0  0  0  0  0  0  0  0  0
  -19.2930  -24.6066   17.4421 C   0  0  0  0  0  0  0  0  0  0  0  0
  -32.1523  -17.8343   21.8052 C   0  0  0  0  0  0  0  0  0  0  0  0
  -20.5370  -24.1024   18.1666 C   0  0  0  0  0  0  0  0  0  0  0  0
  -31.0595  -18.8761   21.5596 C   0  0  0  0  0  0  0  0  0  0  0  0
  -32.5252  -17.0943   20.5225 C   0  0  0  0  0  0  0  0  0  0  0  0
  -30.2965  -17.5241   19.5624 C   0  0  0  0  0  0  0  0  0  0  0  0
  -20.7714  -22.6126   17.8889 C   0  0  1  0  0  0  0  0  0  0  0  0
  -19.0628  -20.5969   20.6186 C   0  0  1  0  0  0  0  0  0  0  0  0
  -29.8472  -18.2576   20.8377 C   0  0  2  0  0  0  0  0  0  0  0  0
  -24.2401   -8.8570   20.2855 C   0  0  0  0  0  0  0  0  0  0  0  0
  -28.5354  -12.5827   21.3753 C   0  0  0  0  0  0  0  0  0  0  0  0
  -17.5829  -19.4230   28.1309 C   0  0  0  0  0  0  0  0  0  0  0  0
  -21.3680  -22.8625   23.9221 C   0  0  0  0  0  0  0  0  0  0  0  0
  -20.8855  -22.1330   26.2681 C   0  0  0  0  0  0  0  0  0  0  0  0
  -19.2020  -23.4774   25.0106 C   0  0  0  0  0  0  0  0  0  0  0  0
  -28.3637  -11.3604   18.4148 C   0  0  0  0  0  0  0  0  0  0  0  0
  -27.6363  -13.6235   17.6603 C   0  0  0  0  0  0  0  0  0  0  0  0
  -16.6237  -17.1394   25.2427 C   0  0  0  0  0  0  0  0  0  0  0  0
  -22.8968  -14.3372   19.6307 C   0  0  0  0  0  0  0  0  0  1  0  0
  -24.3418   -9.8985   21.3965 C   0  0  0  0  0  0  0  0  0  0  0  0
  -29.8880  -13.3005   18.7289 C   0  0  0  0  0  0  0  0  0  0  0  0
  -27.7126  -13.1541   20.1880 C   0  0  1  0  0  0  0  0  0  0  0  0
  -19.5785  -21.0584   24.3792 C   0  0  1  0  0  0  0  0  0  0  0  0
  -17.3193  -19.0622   26.6772 C   0  0  2  0  0  0  0  0  0  0  0  0
  -20.2630  -22.3636   24.8745 C   0  0  0  0  0  0  0  0  0  0  0  0
  -28.3954  -12.8625   18.7743 C   0  0  0  0  0  0  0  0  0  0  0  0
  -29.1493  -20.5611   20.3001 N   0  0  0  0  0  0  0  0  0  0  0  0
  -25.9776  -11.5704   20.7739 N   0  0  0  0  0  0  0  0  0  0  0  0
  -28.7768  -19.2947   20.5521 N   0  0  0  0  0  0  0  0  0  0  0  0
  -19.4639  -20.3623   22.0072 N   0  0  0  0  0  0  0  0  0  0  0  0
  -31.3314  -16.5303   19.8880 N   0  0  0  0  0  0  0  0  0  0  0  0
  -26.8825  -17.8861   20.7464 N   0  0  0  0  0  0  0  0  0  0  0  0
  -25.0894  -21.9153   19.7735 N   0  0  0  0  0  0  0  0  0  0  0  0
  -19.8718  -21.8029   18.6823 N   0  0  0  0  0  0  0  0  0  0  0  0
  -18.5094  -20.5776   25.2477 N   0  0  0  0  0  0  0  0  0  0  0  0
  -30.1015  -14.6961   19.0413 N   0  0  0  0  0  0  0  0  0  0  0  0
  -16.9340  -17.6240   26.6123 N   0  3  0  0  0  0  0  0  0  0  0  0
  -24.6016  -19.7228   20.2356 O   0  0  0  0  0  0  0  0  0  0  0  0
  -21.1329  -21.7324   20.6386 O   0  0  0  0  0  0  0  0  0  0  0  0
  -18.0839  -22.0526   22.8286 O   0  0  0  0  0  0  0  0  0  0  0  0
  -19.4352  -18.4919   25.6598 O   0  0  0  0  0  0  0  0  0  0  0  0
  -32.1886  -14.3760   19.9348 O   0  0  0  0  0  0  0  0  0  0  0  0
  -27.8982  -26.6484   18.9113 O   0  0  0  0  0  0  0  0  0  0  0  0
  -22.7804  -15.3456   20.6337 O   0  0  0  0  0  0  0  0  0  1  0  0
  -24.2125  -29.7876   21.5504 F   0  0  0  0  0  0  0  0  0  0  0  0
  -28.7120  -28.7582   20.5016 F   0  0  0  0  0  0  0  0  0  0  0  0
  1  2  1  0  0  0  0
  1  5  2  0  0  0  0
  2  6  2  0  0  0  0
  3  8  2  0  0  0  0
  3 17  1  0  0  0  0
  4  9  1  0  0  0  0
  4 17  2  0  0  0  0
  5 19  1  0  0  0  0
  6 21  1  0  0  0  0
  7 10  2  0  0  0  0
  7 20  1  0  0  0  0
  8 24  1  0  0  0  0
  9 24  2  0  0  0  0
 10 25  1  0  0  0  0
 11 12  2  0  0  0  0
 11 26  1  0  0  0  0
 12 27  1  0  0  0  0
 13 22  1  0  0  0  0
 13 25  2  0  0  0  0
 14 23  2  0  0  0  0
 14 30  1  0  0  0  0
 15 23  1  0  0  0  0
 15 31  2  0  0  0  0
 16 27  2  0  0  0  0
 16 28  1  0  0  0  0
 17 29  1  0  0  0  0
 18 29  1  0  0  0  0
 18 32  2  0  0  0  0
 18 33  1  0  0  0  0
 19 21  2  0  0  0  0
 19 38  1  0  0  0  0
 20 22  2  0  0  0  0
 20 39  1  0  0  0  0
 21 47  1  0  0  0  0
 22 40  1  0  0  0  0
 23 59  1  0  0  0  0
 24 83  1  0  0  0  0
 25 84  1  0  0  0  0
 26 28  2  0  0  0  0
 26 83  1  0  0  0  0
 27 85  1  0  0  0  0
 28 86  1  0  0  0  0
 29 67  2  0  0  0  0
 30 60  1  0  0  0  0
 30 68  2  0  0  0  0
 31 62  1  0  0  0  0
 31 68  1  0  0  0  0
 32 69  1  0  0  0  0
 32 72  1  0  0  0  0
 33 73  1  0  0  0  0
 33 78  2  0  0  0  0
 34 48  1  0  0  0  0
 34 74  1  0  0  0  0
 34 79  2  0  0  0  0
 35 63  1  0  0  0  0
 35 70  1  0  0  0  0
 35 80  2  0  0  0  0
 36 64  1  0  0  0  0
 36 75  1  0  0  0  0
 36 81  2  0  0  0  0
 37 71  1  0  0  0  0
 37 76  1  0  0  0  0
 37 82  2  0  0  0  0
 38 41  1  0  0  0  0
 39 48  1  0  0  0  0
 40 70  1  0  0  0  0
 41 43  1  0  0  0  0
 42 44  1  0  0  0  0
 42 45  1  0  0  0  0
 43 47  1  0  0  0  0
 44 49  1  0  0  0  0
 45 71  1  0  0  0  0
 46 49  1  0  0  0  0
 46 71  1  0  0  0  0
 47 74  1  0  0  0  0
 48 70  1  0  0  0  0
 49 69  1  0  0  0  0
 50 60  1  0  0  0  0
 51 62  1  0  0  0  0
 52 64  1  0  0  0  0
 53 65  1  0  0  0  0
 54 65  1  0  0  0  0
 55 65  1  0  0  0  0
 56 66  1  0  0  0  0
 57 66  1  0  0  0  0
 58 77  1  0  0  0  0
 59 84  1  0  0  0  0
 61 66  1  0  0  0  0
 61 76  1  0  0  0  0
 62 66  1  0  0  0  0
 63 65  1  0  0  0  0
 63 75  1  0  0  0  0
 64 77  1  0  0  0  0
 67 69  1  0  0  0  0
M  CHG  1  77   1
M  ISO  4  37 100  59 101  76 100  84 101
M  END
> <Batch ID>
0081

> <Smiles>
CCc1cc([101CH2:1][101O:1]c2ccc3c(c2)CN(C(=O)C(NC(=O)C(C)NC)C(C)(C)C)C(C(=O)NC2CCCc4ccccc42)C3)cc(C(C)C(C)(C)C[100NH:0][100C:0](=O)N2CCCC(n3nc(-c4ccc(Oc5ccc(F)cc5F)cc4)c(C(N)=O)c3N)C2)n1

> <Shape>
0.190

> <Color>
0.096

> <Negative vol penalty>
0.000

$$$$

  -OEChem-04052318463D

 85 93  0     1  0  0  0  0  0999 V2000
  -22.9603   -8.4464   21.9240 C   0  0  0  0  0  0  0  0  0  0  0  0
  -24.1732   -9.0780   22.1797 C   0  0  0  0  0  0  0  0  0  0  0  0
  -23.5694  -29.0013   21.9255 C   0  0  0  0  0  0  0  0  0  0  0  0
  -25.6810  -30.0746   21.4498 C   0  0  0  0  0  0  0  0  0  0  0  0
  -22.0545   -9.0150   21.0295 C   0  0  0  0  0  0  0  0  0  0  0  0
  -24.4815  -10.2781   21.5400 C   0  0  0  0  0  0  0  0  0  0  0  0
  -27.9921  -16.4309   22.6055 C   0  0  0  0  0  0  0  0  0  0  0  0
  -23.1764  -30.1080   22.6779 C   0  0  0  0  0  0  0  0  0  0  0  0
  -25.2879  -31.1814   22.2022 C   0  0  0  0  0  0  0  0  0  0  0  0
  -28.9638  -17.2336   22.0096 C   0  0  0  0  0  0  0  0  0  0  0  0
  -25.0824  -32.0272   25.4692 C   0  0  0  0  0  0  0  0  0  0  0  0
  -26.0083  -32.5651   26.3630 C   0  0  0  0  0  0  0  0  0  0  0  0
  -31.9399  -23.7757   18.1224 C   0  0  0  0  0  0  0  0  0  0  0  0
  -27.2885  -18.1636   20.5442 C   0  0  0  0  0  0  0  0  0  0  0  0
  -25.9132  -34.6758   25.1914 C   0  0  0  0  0  0  0  0  0  0  0  0
  -31.7492  -22.7238   17.2538 C   0  0  0  0  0  0  0  0  0  0  0  0
  -29.8438  -23.0007   18.3973 C   0  0  0  0  0  0  0  0  0  0  0  0
  -24.8218  -28.9845   21.3115 C   0  0  0  0  0  0  0  0  0  0  0  0
  -25.0244  -27.6331   19.1573 C   0  0  0  0  0  0  0  0  0  0  0  0
  -22.3477  -10.2276   20.3859 C   0  0  0  0  0  0  0  0  0  0  0  0
  -26.6610  -16.4807   22.1671 C   0  0  0  0  0  0  0  0  0  0  0  0
  -23.5793  -10.8628   20.6350 C   0  0  0  0  0  0  0  0  0  0  0  0
  -26.3012  -17.3624   21.1378 C   0  0  0  0  0  0  0  0  0  0  0  0
  -30.7345  -23.9509   18.8458 C   0  0  0  0  0  0  0  0  0  0  0  0
  -24.0356  -31.1981   22.8162 C   0  0  0  0  0  0  0  0  0  0  0  0
  -28.6127  -18.0980   20.9768 C   0  0  0  0  0  0  0  0  0  0  0  0
  -24.5720  -32.8136   24.4363 C   0  0  0  0  0  0  0  0  0  0  0  0
  -26.4237  -33.8894   26.2242 C   0  0  0  0  0  0  0  0  0  0  0  0
  -24.9873  -34.1379   24.2975 C   0  0  0  0  0  0  0  0  0  0  0  0
  -25.2286  -27.8413   20.5345 C   0  0  0  0  0  0  0  0  0  0  0  0
  -25.5920  -26.4076   18.9074 C   0  0  0  0  0  0  0  0  0  0  0  0
  -24.3794  -28.4725   18.1903 C   0  0  0  0  0  0  0  0  0  0  0  0
  -24.6479  -14.3922   20.8671 C   0  0  0  0  0  0  0  0  0  0  0  0
  -22.5175  -16.8114   21.2291 C   0  0  0  0  0  0  0  0  0  0  0  0
  -29.9054  -23.3302   21.7422 C   0  0  0  0  0  0  0  0  0  0  0  0
  -21.9679  -20.1646   21.5473 C   0  0  0  0  0  0  0  0  0  0  0  0
  -21.3574  -10.7795   19.3912 C   0  0  0  0  0  0  0  0  0  0  0  0
  -25.6196  -15.6278   22.8382 C   0  0  0  0  0  0  0  0  0  0  0  0
  -24.8822  -17.4682   20.6442 C   0  0  0  0  0  0  0  0  0  0  0  0
  -21.6000  -12.2450   19.0393 C   0  0  0  0  0  0  0  0  0  0  0  0
  -26.5758  -22.2302   21.0050 C   0  0  0  0  0  0  0  0  0  0  0  0
  -23.0778  -12.4868   18.7491 C   0  0  0  0  0  0  0  0  0  0  0  0
  -25.8275  -23.5280   20.7035 C   0  0  0  0  0  0  0  0  0  0  0  0
  -27.6282  -22.4318   22.0907 C   0  0  0  0  0  0  0  0  0  0  0  0
  -27.8596  -24.8214   21.4925 C   0  0  0  0  0  0  0  0  0  0  0  0
  -23.9394  -12.1784   19.9796 C   0  0  1  0  0  0  0  0  0  0  0  0
  -24.3922  -15.3856   21.9651 C   0  0  1  0  0  0  0  0  0  0  0  0
  -26.8080  -24.6689   20.3792 C   0  0  2  0  0  0  0  0  0  0  0  0
  -31.1529  -26.3340   19.5669 C   0  0  0  0  0  0  0  0  0  0  0  0
  -20.1183  -21.8435   21.7873 C   0  0  0  0  0  0  0  0  0  0  0  0
  -29.7553  -21.4300   15.1746 C   0  0  0  0  0  0  0  0  0  0  0  0
  -30.4937  -25.6156   22.4219 C   0  0  0  0  0  0  0  0  0  0  0  0
  -32.2163  -24.0269   21.5406 C   0  0  0  0  0  0  0  0  0  0  0  0
  -21.8671  -16.5153   18.2627 C   0  0  0  0  0  0  0  0  0  0  0  0
  -20.7721  -18.7651   18.3496 C   0  0  0  0  0  0  0  0  0  0  0  0
  -19.8800  -16.8915   19.7339 C   0  0  0  0  0  0  0  0  0  0  0  0
  -22.9827  -21.0801   24.1723 C   0  0  0  0  0  0  0  0  0  0  0  0
  -30.7272  -19.3850   18.3576 C   0  0  0  0  0  0  0  0  0  0  0  0
  -30.5911  -19.7663   16.8811 C   0  0  0  0  0  0  0  0  0  0  0  0
  -29.3659  -19.2209   19.0204 C   0  0  0  0  0  0  0  0  0  1  0  0
  -30.4784  -24.9646   19.8869 C   0  0  2  0  0  0  0  0  0  0  0  0
  -22.0695  -17.9773   20.3811 C   0  0  1  0  0  0  0  0  0  0  0  0
  -21.1136  -20.9574   22.5200 C   0  0  2  0  0  0  0  0  0  0  0  0
  -29.8475  -21.1025   16.6701 C   0  0  1  0  0  0  0  0  0  0  0  0
  -30.7652  -24.5163   21.3846 C   0  0  0  0  0  0  0  0  0  0  0  0
  -21.1744  -17.5341   19.1896 C   0  0  0  0  0  0  0  0  0  0  0  0
  -25.8753  -26.8290   21.1187 N   0  0  0  0  0  0  0  0  0  0  0  0
  -30.4716  -22.2603   17.4299 N   0  0  0  0  0  0  0  0  0  0  0  0
  -26.0823  -25.9730   20.1036 N   0  0  0  0  0  0  0  0  0  0  0  0
  -23.9014  -16.6093   21.3281 N   0  0  0  0  0  0  0  0  0  0  0  0
  -28.5261  -23.5386   21.7561 N   0  0  0  0  0  0  0  0  0  0  0  0
  -25.7144  -25.6701   17.7834 N   0  0  0  0  0  0  0  0  0  0  0  0
  -23.8512  -29.6988   18.6165 N   0  0  0  0  0  0  0  0  0  0  0  0
  -23.8584  -13.2604   20.9373 N   0  0  0  0  0  0  0  0  0  0  0  0
  -21.4294  -18.9214   21.2907 N   0  0  0  0  0  0  0  0  0  0  0  0
  -21.9723  -21.8235   23.3765 N   0  3  0  0  0  0  0  0  0  0  0  0
  -24.2600  -28.1374   16.9874 O   0  0  0  0  0  0  0  0  0  0  0  0
  -25.4976  -14.6354   20.0182 O   0  0  0  0  0  0  0  0  0  0  0  0
  -21.6709  -16.1104   21.7890 O   0  0  0  0  0  0  0  0  0  0  0  0
  -30.4452  -22.2507   21.9983 O   0  0  0  0  0  0  0  0  0  0  0  0
  -23.0068  -20.6055   21.0608 O   0  0  0  0  0  0  0  0  0  0  0  0
  -23.6523  -32.2784   23.5502 O   0  0  0  0  0  0  0  0  0  0  0  0
  -29.5593  -18.8822   20.3930 O   0  0  0  0  0  0  0  0  0  1  0  0
  -27.3116  -34.4062   27.0836 F   0  0  0  0  0  0  0  0  0  0  0  0
  -24.4996  -34.8987   23.3080 F   0  0  0  0  0  0  0  0  0  0  0  0
  1  2  1  0  0  0  0
  1  5  2  0  0  0  0
  2  6  2  0  0  0  0
  3  8  2  0  0  0  0
  3 18  1  0  0  0  0
  4  9  1  0  0  0  0
  4 18  2  0  0  0  0
  5 20  1  0  0  0  0
  6 22  1  0  0  0  0
  7 10  2  0  0  0  0
  7 21  1  0  0  0  0
  8 25  1  0  0  0  0
  9 25  2  0  0  0  0
 10 26  1  0  0  0  0
 11 12  2  0  0  0  0
 11 27  1  0  0  0  0
 12 28  1  0  0  0  0
 13 16  2  0  0  0  0
 13 24  1  0  0  0  0
 14 23  1  0  0  0  0
 14 26  2  0  0  0  0
 15 28  2  0  0  0  0
 15 29  1  0  0  0  0
 16 68  1  0  0  0  0
 17 24  2  0  0  0  0
 17 68  1  0  0  0  0
 18 30  1  0  0  0  0
 19 30  1  0  0  0  0
 19 31  2  0  0  0  0
 19 32  1  0  0  0  0
 20 22  2  0  0  0  0
 20 37  1  0  0  0  0
 21 23  2  0  0  0  0
 21 38  1  0  0  0  0
 22 46  1  0  0  0  0
 23 39  1  0  0  0  0
 24 61  1  0  0  0  0
 25 82  1  0  0  0  0
 26 83  1  0  0  0  0
 27 29  2  0  0  0  0
 27 82  1  0  0  0  0
 28 84  1  0  0  0  0
 29 85  1  0  0  0  0
 30 67  2  0  0  0  0
 31 69  1  0  0  0  0
 31 72  1  0  0  0  0
 32 73  1  0  0  0  0
 32 77  2  0  0  0  0
 33 47  1  0  0  0  0
 33 74  1  0  0  0  0
 33 78  2  0  0  0  0
 34 62  1  0  0  0  0
 34 70  1  0  0  0  0
 34 79  2  0  0  0  0
 35 65  1  0  0  0  0
 35 71  1  0  0  0  0
 35 80  2  0  0  0  0
 36 63  1  0  0  0  0
 36 75  1  0  0  0  0
 36 81  2  0  0  0  0
 37 40  1  0  0  0  0
 38 47  1  0  0  0  0
 39 70  1  0  0  0  0
 40 42  1  0  0  0  0
 41 43  1  0  0  0  0
 41 44  1  0  0  0  0
 42 46  1  0  0  0  0
 43 48  1  0  0  0  0
 44 71  1  0  0  0  0
 45 48  1  0  0  0  0
 45 71  1  0  0  0  0
 46 74  1  0  0  0  0
 47 70  1  0  0  0  0
 48 69  1  0  0  0  0
 49 61  1  0  0  0  0
 50 63  1  0  0  0  0
 51 64  1  0  0  0  0
 52 65  1  0  0  0  0
 53 65  1  0  0  0  0
 54 66  1  0  0  0  0
 55 66  1  0  0  0  0
 56 66  1  0  0  0  0
 57 76  1  0  0  0  0
 58 59  1  0  0  0  0
 58 60  1  0  0  0  0
 59 64  1  0  0  0  0
 60 83  1  0  0  0  0
 61 65  1  0  0  0  0
 62 66  1  0  0  0  0
 62 75  1  0  0  0  0
 63 76  1  0  0  0  0
 64 68  1  0  0  0  0
 67 69  1  0  0  0  0
M  CHG  1  76   1
M  ISO  4  35 100  60 101  65 100  83 101
M  END
> <Batch ID>
0081

> <Smiles>
CNC(C)C(=O)NC(C(=O)N1Cc2cc([101O:1][101CH2:1]CCC(C)n3ccc(C(C)[100C:0](C)(C)[100C:0](=O)N4CCCC(n5nc(-c6ccc(Oc7ccc(F)cc7F)cc6)c(C(N)=O)c5N)C4)c3)ccc2CC1C(=O)NC1CCCc2ccccc21)C(C)(C)C

> <Shape>
0.241

> <Color>
0.058

> <Negative vol penalty>
0.000

$$$$

  -OEChem-04052318463D

 82 90  0     1  0  0  0  0  0999 V2000
  -27.5882  -34.4200   25.0127 C   0  0  0  0  0  0  0  0  0  0  0  0
  -27.6488  -33.0318   25.0807 C   0  0  0  0  0  0  0  0  0  0  0  0
  -25.0096  -13.5384   21.5273 C   0  0  0  0  0  0  0  0  0  0  0  0
  -26.4854  -13.1990   19.6448 C   0  0  0  0  0  0  0  0  0  0  0  0
  -26.3703  -35.0521   24.7655 C   0  0  0  0  0  0  0  0  0  0  0  0
  -26.4912  -32.2749   24.9025 C   0  0  0  0  0  0  0  0  0  0  0  0
  -27.2198  -28.2995   21.8513 C   0  0  0  0  0  0  0  0  0  0  0  0
  -24.8659  -12.1577   21.6637 C   0  0  0  0  0  0  0  0  0  0  0  0
  -26.3418  -11.8183   19.7812 C   0  0  0  0  0  0  0  0  0  0  0  0
  -27.8554  -27.1855   22.3978 C   0  0  0  0  0  0  0  0  0  0  0  0
  -23.1229   -9.6758   20.1716 C   0  0  0  0  0  0  0  0  0  0  0  0
  -21.8366   -9.1756   20.3737 C   0  0  0  0  0  0  0  0  0  0  0  0
  -25.7149  -26.1090   22.6777 C   0  0  0  0  0  0  0  0  0  0  0  0
  -22.5364   -8.2287   22.4834 C   0  0  0  0  0  0  0  0  0  0  0  0
  -27.3844  -23.0572   19.8385 C   0  0  0  0  0  0  0  0  0  0  0  0
  -29.5201  -22.5171   19.8987 C   0  0  0  0  0  0  0  0  0  0  0  0
  -25.8192  -14.0591   20.5178 C   0  0  0  0  0  0  0  0  0  0  0  0
  -26.9359  -16.3042   20.9873 C   0  0  0  0  0  0  0  0  0  0  0  0
  -25.1990  -34.3023   24.5747 C   0  0  0  0  0  0  0  0  0  0  0  0
  -25.8237  -28.3311   21.7237 C   0  0  0  0  0  0  0  0  0  0  0  0
  -25.2563  -32.8977   24.6539 C   0  0  0  0  0  0  0  0  0  0  0  0
  -25.0641  -27.2235   22.1269 C   0  0  0  0  0  0  0  0  0  0  0  0
  -25.5320  -11.2976   20.7907 C   0  0  0  0  0  0  0  0  0  0  0  0
  -27.1028  -26.0911   22.8138 C   0  0  0  0  0  0  0  0  0  0  0  0
  -24.1160   -9.4524   21.1254 C   0  0  0  0  0  0  0  0  0  0  0  0
  -21.5433   -8.4521   21.5296 C   0  0  0  0  0  0  0  0  0  0  0  0
  -23.8227   -8.7289   22.2813 C   0  0  0  0  0  0  0  0  0  0  0  0
  -25.9676  -15.4853   20.3760 C   0  0  0  0  0  0  0  0  0  0  0  0
  -27.9624  -23.1522   18.5946 C   0  0  0  0  0  0  0  0  0  0  0  0
  -26.6509  -17.5692   20.5346 C   0  0  0  0  0  0  0  0  0  0  0  0
  -27.9980  -15.9527   21.8839 C   0  0  0  0  0  0  0  0  0  0  0  0
  -23.5038  -30.1535   22.9073 C   0  0  0  0  0  0  0  0  0  0  0  0
  -21.6444  -28.4151   20.8966 C   0  0  0  0  0  0  0  0  0  0  0  0
  -21.1966  -25.5280   19.1328 C   0  0  0  0  0  0  0  0  0  0  0  0
  -25.3076  -21.0723   16.4031 C   0  0  0  0  0  0  0  0  0  0  0  0
  -23.8972  -35.0321   24.3571 C   0  0  0  0  0  0  0  0  0  0  0  0
  -25.1553  -29.5295   21.1076 C   0  0  0  0  0  0  0  0  0  0  0  0
  -23.5642  -27.1994   21.9929 C   0  0  0  0  0  0  0  0  0  0  0  0
  -22.7848  -34.1428   23.8075 C   0  0  0  0  0  0  0  0  0  0  0  0
  -22.6433  -19.3352   18.0034 C   0  0  0  0  0  0  0  0  0  0  0  0
  -22.7194  -32.8300   24.5815 C   0  0  0  0  0  0  0  0  0  0  0  0
  -23.3500  -18.2431   18.8082 C   0  0  0  0  0  0  0  0  0  0  0  0
  -23.3391  -19.5921   16.6685 C   0  0  0  0  0  0  0  0  0  0  0  0
  -25.4878  -18.7929   17.5728 C   0  0  0  0  0  0  0  0  0  0  0  0
  -24.0270  -32.0412   24.4414 C   0  0  1  0  0  0  0  0  0  0  0  0
  -23.6869  -29.6619   21.4993 C   0  0  1  0  0  0  0  0  0  0  0  0
  -24.8553  -18.5374   18.9516 C   0  0  2  0  0  0  0  0  0  0  0  0
  -27.9427  -24.8484   16.7381 C   0  0  0  0  0  0  0  0  0  0  0  0
  -19.5616  -24.3815   17.6130 C   0  0  0  0  0  0  0  0  0  0  0  0
  -19.8698  -27.7727   23.2941 C   0  0  0  0  0  0  0  0  0  0  0  0
  -18.8531  -25.9169   21.9561 C   0  0  0  0  0  0  0  0  0  0  0  0
  -18.6282  -28.2778   21.1828 C   0  0  0  0  0  0  0  0  0  0  0  0
  -23.1557  -25.4181   16.9173 C   0  0  0  0  0  0  0  0  0  0  0  0
  -29.2778  -23.2148   22.9811 C   0  0  0  0  0  0  0  0  0  0  0  0
  -28.2898  -22.3971   22.1464 C   0  0  0  0  0  0  0  0  0  0  0  0
  -27.3653  -22.4485   16.2267 C   0  0  0  0  0  0  0  0  0  0  0  0
  -29.0431  -24.7183   22.8937 C   0  0  0  0  0  0  0  0  0  1  0  0
  -27.3327  -23.5496   17.3262 C   0  0  1  0  0  0  0  0  0  0  0  0
  -20.8704  -27.1234   21.0043 C   0  0  1  0  0  0  0  0  0  0  0  0
  -20.7853  -25.2809   17.6926 C   0  0  2  0  0  0  0  0  0  0  0  0
  -19.5835  -27.2736   21.8638 C   0  0  0  0  0  0  0  0  0  0  0  0
  -29.2919  -22.8143   18.6387 N   0  0  0  0  0  0  0  0  0  0  0  0
  -25.1299  -16.1724   19.5948 N   0  0  0  0  0  0  0  0  0  0  0  0
  -28.3944  -22.6490   20.6634 N   0  0  0  0  0  0  0  0  0  0  0  0
  -25.5710  -17.4364   19.7122 N   0  0  0  0  0  0  0  0  0  0  0  0
  -22.9566  -28.3974   21.3902 N   0  0  0  0  0  0  0  0  0  0  0  0
  -24.7632  -19.8663   16.8746 N   0  0  0  0  0  0  0  0  0  0  0  0
  -27.2211  -18.7712   20.7640 N   0  0  0  0  0  0  0  0  0  0  0  0
  -28.1491  -14.6072   22.2459 N   0  0  0  0  0  0  0  0  0  0  0  0
  -24.0846  -31.3828   23.1539 N   0  0  0  0  0  0  0  0  0  0  0  0
  -20.6269  -26.6782   19.6365 N   0  0  0  0  0  0  0  0  0  0  0  0
  -26.6634  -21.2557   16.6456 N   0  0  0  0  0  0  0  0  0  0  0  0
  -21.8960  -24.6310   16.9409 N   0  3  0  0  0  0  0  0  0  0  0  0
  -28.7796  -16.8089   22.3632 O   0  0  0  0  0  0  0  0  0  0  0  0
  -22.8804  -29.4689   23.7100 O   0  0  0  0  0  0  0  0  0  0  0  0
  -21.1070  -29.4014   20.3866 O   0  0  0  0  0  0  0  0  0  0  0  0
  -21.9451  -24.7739   19.7505 O   0  0  0  0  0  0  0  0  0  0  0  0
  -24.6340  -21.9249   15.8147 O   0  0  0  0  0  0  0  0  0  0  0  0
  -25.3923   -9.9503   20.9236 O   0  0  0  0  0  0  0  0  0  0  0  0
  -27.7206  -25.0028   23.3481 O   0  0  0  0  0  0  0  0  0  1  0  0
  -20.3076   -7.9731   21.7243 F   0  0  0  0  0  0  0  0  0  0  0  0
  -24.7722   -8.5120   23.2017 F   0  0  0  0  0  0  0  0  0  0  0  0
  1  2  1  0  0  0  0
  1  5  2  0  0  0  0
  2  6  2  0  0  0  0
  3  8  2  0  0  0  0
  3 17  1  0  0  0  0
  4  9  1  0  0  0  0
  4 17  2  0  0  0  0
  5 19  1  0  0  0  0
  6 21  1  0  0  0  0
  7 10  2  0  0  0  0
  7 20  1  0  0  0  0
  8 23  1  0  0  0  0
  9 23  2  0  0  0  0
 10 24  1  0  0  0  0
 11 12  2  0  0  0  0
 11 25  1  0  0  0  0
 12 26  1  0  0  0  0
 13 22  1  0  0  0  0
 13 24  2  0  0  0  0
 14 26  2  0  0  0  0
 14 27  1  0  0  0  0
 15 29  2  0  0  0  0
 15 64  1  0  0  0  0
 16 62  2  0  0  0  0
 16 64  1  0  0  0  0
 17 28  1  0  0  0  0
 18 28  1  0  0  0  0
 18 30  2  0  0  0  0
 18 31  1  0  0  0  0
 19 21  2  0  0  0  0
 19 36  1  0  0  0  0
 20 22  2  0  0  0  0
 20 37  1  0  0  0  0
 21 45  1  0  0  0  0
 22 38  1  0  0  0  0
 23 79  1  0  0  0  0
 24 80  1  0  0  0  0
 25 27  2  0  0  0  0
 25 79  1  0  0  0  0
 26 81  1  0  0  0  0
 27 82  1  0  0  0  0
 28 63  2  0  0  0  0
 29 58  1  0  0  0  0
 29 62  1  0  0  0  0
 30 65  1  0  0  0  0
 30 68  1  0  0  0  0
 31 69  1  0  0  0  0
 31 74  2  0  0  0  0
 32 46  1  0  0  0  0
 32 70  1  0  0  0  0
 32 75  2  0  0  0  0
 33 59  1  0  0  0  0
 33 66  1  0  0  0  0
 33 76  2  0  0  0  0
 34 60  1  0  0  0  0
 34 71  1  0  0  0  0
 34 77  2  0  0  0  0
 35 67  1  0  0  0  0
 35 72  1  0  0  0  0
 35 78  2  0  0  0  0
 36 39  1  0  0  0  0
 37 46  1  0  0  0  0
 38 66  1  0  0  0  0
 39 41  1  0  0  0  0
 40 42  1  0  0  0  0
 40 43  1  0  0  0  0
 41 45  1  0  0  0  0
 42 47  1  0  0  0  0
 43 67  1  0  0  0  0
 44 47  1  0  0  0  0
 44 67  1  0  0  0  0
 45 70  1  0  0  0  0
 46 66  1  0  0  0  0
 47 65  1  0  0  0  0
 48 58  1  0  0  0  0
 49 60  1  0  0  0  0
 50 61  1  0  0  0  0
 51 61  1  0  0  0  0
 52 61  1  0  0  0  0
 53 73  1  0  0  0  0
 54 55  1  0  0  0  0
 54 57  1  0  0  0  0
 55 64  1  0  0  0  0
 56 58  1  0  0  0  0
 56 72  1  0  0  0  0
 57 80  1  0  0  0  0
 59 61  1  0  0  0  0
 59 71  1  0  0  0  0
 60 73  1  0  0  0  0
 63 65  1  0  0  0  0
M  CHG  1  73   1
M  ISO  4  35 100  57 101  72 100  80 101
M  END
> <Batch ID>
0081

> <Smiles>
CNC(C)C(=O)NC(C(=O)N1Cc2cc([101O:1][101CH2:1]CCn3cnc(C(C)C[100NH:0][100C:0](=O)N4CCCC(n5nc(-c6ccc(Oc7ccc(F)cc7F)cc6)c(C(N)=O)c5N)C4)c3)ccc2CC1C(=O)NC1CCCc2ccccc21)C(C)(C)C

> <Shape>
0.239

> <Color>
0.059

> <Negative vol penalty>
0.000

$$$$

  -OEChem-04052318463D

 88 96  0     1  0  0  0  0  0999 V2000
  -22.9059  -20.0845   24.2645 C   0  0  0  0  0  0  0  0  0  0  0  0
  -23.6523  -20.8743   23.3958 C   0  0  0  0  0  0  0  0  0  0  0  0
  -27.3592  -13.6201   22.5086 C   0  0  0  0  0  0  0  0  0  0  0  0
  -26.9224  -13.0156   20.2105 C   0  0  0  0  0  0  0  0  0  0  0  0
  -21.6540  -20.5187   24.6980 C   0  0  0  0  0  0  0  0  0  0  0  0
  -23.1466  -22.0983   22.9593 C   0  0  0  0  0  0  0  0  0  0  0  0
  -26.6008  -25.7978   23.1254 C   0  0  0  0  0  0  0  0  0  0  0  0
  -26.7255  -12.4533   22.9359 C   0  0  0  0  0  0  0  0  0  0  0  0
  -26.2888  -11.8487   20.6379 C   0  0  0  0  0  0  0  0  0  0  0  0
  -27.5469  -25.8319   22.1019 C   0  0  0  0  0  0  0  0  0  0  0  0
  -23.2826  -10.9693   21.9107 C   0  0  0  0  0  0  0  0  0  0  0  0
  -22.0676  -10.6353   21.3125 C   0  0  0  0  0  0  0  0  0  0  0  0
  -26.2831  -27.5658   20.9995 C   0  0  0  0  0  0  0  0  0  0  0  0
  -27.9495  -23.7762   16.9808 C   0  0  0  0  0  0  0  0  0  0  0  0
  -23.0209   -8.5550   20.5375 C   0  0  0  0  0  0  0  0  0  0  0  0
  -27.4179  -25.9491   16.7241 C   0  0  0  0  0  0  0  0  0  0  0  0
  -27.4576  -13.9013   21.1459 C   0  0  0  0  0  0  0  0  0  0  0  0
  -29.4764  -15.2713   20.4009 C   0  0  0  0  0  0  0  0  0  0  0  0
  -21.1369  -21.7530   24.2743 C   0  0  0  0  0  0  0  0  0  0  0  0
  -25.4811  -26.6411   23.0880 C   0  0  0  0  0  0  0  0  0  0  0  0
  -21.8860  -22.5488   23.3865 C   0  0  0  0  0  0  0  0  0  0  0  0
  -25.3255  -27.5422   22.0250 C   0  0  0  0  0  0  0  0  0  0  0  0
  -28.3047  -25.0982   17.3461 C   0  0  0  0  0  0  0  0  0  0  0  0
  -26.1903  -11.5676   22.0006 C   0  0  0  0  0  0  0  0  0  0  0  0
  -27.3867  -26.7139   21.0373 C   0  0  0  0  0  0  0  0  0  0  0  0
  -24.3668  -10.0961   21.8222 C   0  0  0  0  0  0  0  0  0  0  0  0
  -21.9367   -9.4281   20.6259 C   0  0  0  0  0  0  0  0  0  0  0  0
  -24.2360   -8.8890   21.1357 C   0  0  0  0  0  0  0  0  0  0  0  0
  -28.1115  -15.1067   20.7038 C   0  0  0  0  0  0  0  0  0  0  0  0
  -26.8566  -23.8596   16.1465 C   0  0  0  0  0  0  0  0  0  0  0  0
  -29.5897  -16.5894   20.0318 C   0  0  0  0  0  0  0  0  0  0  0  0
  -30.5462  -14.3179   20.4488 C   0  0  0  0  0  0  0  0  0  0  0  0
  -22.3371  -26.1911   22.9590 C   0  0  0  0  0  0  0  0  0  0  0  0
  -22.2534  -29.4131   23.3253 C   0  0  0  0  0  0  0  0  0  0  0  0
  -23.8457  -32.4112   22.9744 C   0  0  0  0  0  0  0  0  0  0  0  0
  -25.6891  -20.3804   17.7364 C   0  0  0  0  0  0  0  0  0  0  0  0
  -19.7584  -22.1585   24.7325 C   0  0  0  0  0  0  0  0  0  0  0  0
  -24.4835  -26.6110   24.2132 C   0  0  0  0  0  0  0  0  0  0  0  0
  -24.1517  -28.4828   21.9480 C   0  0  0  0  0  0  0  0  0  0  0  0
  -19.4566  -23.6396   24.5193 C   0  0  0  0  0  0  0  0  0  0  0  0
  -27.5880  -20.8724   20.7777 C   0  0  0  0  0  0  0  0  0  0  0  0
  -19.8734  -24.0728   23.1173 C   0  0  0  0  0  0  0  0  0  0  0  0
  -28.0678  -19.4496   21.0702 C   0  0  0  0  0  0  0  0  0  0  0  0
  -26.1718  -20.8725   20.2098 C   0  0  0  0  0  0  0  0  0  0  0  0
  -26.4753  -18.6096   19.2819 C   0  0  0  0  0  0  0  0  0  0  0  0
  -21.3823  -23.8940   22.9104 C   0  0  1  0  0  0  0  0  0  0  0  0
  -23.1146  -27.1525   23.8128 C   0  0  1  0  0  0  0  0  0  0  0  0
  -27.9095  -18.5403   19.8373 C   0  0  2  0  0  0  0  0  0  0  0  0
  -23.5091  -34.8732   23.3244 C   0  0  0  0  0  0  0  0  0  0  0  0
  -23.8048  -28.3586   17.5975 C   0  0  0  0  0  0  0  0  0  0  0  0
  -23.2204  -25.9402   17.3411 C   0  0  0  0  0  0  0  0  0  0  0  0
  -25.9065  -25.8960   13.7441 C   0  0  0  0  0  0  0  0  0  0  0  0
  -30.0671  -26.8957   17.9309 C   0  0  0  0  0  0  0  0  0  0  0  0
  -30.6113  -24.4787   18.1304 C   0  0  0  0  0  0  0  0  0  0  0  0
  -20.5000  -29.5256   20.8307 C   0  0  0  0  0  0  0  0  0  0  0  0
  -20.9842  -31.9777   20.6858 C   0  0  0  0  0  0  0  0  0  0  0  0
  -19.7907  -31.0592   22.6744 C   0  0  0  0  0  0  0  0  0  0  0  0
  -26.0885  -32.5619   24.8995 C   0  0  0  0  0  0  0  0  0  0  0  0
  -26.0879  -22.7874   15.4811 C   0  0  0  0  0  0  0  0  0  0  0  0
  -24.8878  -27.0427   15.7498 C   0  0  0  0  0  0  0  0  0  0  0  0
  -24.9063  -22.2542   16.3105 C   0  0  0  0  0  0  0  0  0  0  0  0
  -28.9981  -25.5338   19.7464 C   0  0  0  0  0  0  0  0  0  1  0  0
  -22.2596  -30.5961   22.3876 C   0  0  1  0  0  0  0  0  0  0  0  0
  -24.0215  -33.5763   23.9314 C   0  0  2  0  0  0  0  0  0  0  0  0
  -24.3319  -26.9798   17.1890 C   0  0  0  0  0  0  0  0  0  0  0  0
  -25.4574  -25.7146   15.2005 C   0  0  2  0  0  0  0  0  0  0  0  0
  -29.4673  -25.5095   18.2688 C   0  0  0  0  0  0  0  0  0  0  0  0
  -20.9048  -30.7707   21.6448 C   0  0  0  0  0  0  0  0  0  0  0  0
  -27.4081  -16.2305   20.5414 N   0  0  0  0  0  0  0  0  0  0  0  0
  -26.5424  -25.1852   15.9974 N   0  0  0  0  0  0  0  0  0  0  0  0
  -28.3347  -17.1138   20.1324 N   0  0  0  0  0  0  0  0  0  0  0  0
  -23.2001  -28.4110   23.0692 N   0  0  0  0  0  0  0  0  0  0  0  0
  -26.0934  -20.0027   19.0276 N   0  0  0  0  0  0  0  0  0  0  0  0
  -30.6394  -17.3394   19.6343 N   0  0  0  0  0  0  0  0  0  0  0  0
  -30.2553  -13.0068   20.8498 N   0  0  0  0  0  0  0  0  0  0  0  0
  -22.1113  -24.9651   23.5551 N   0  0  0  0  0  0  0  0  0  0  0  0
  -22.6549  -31.7497   23.1884 N   0  0  0  0  0  0  0  0  0  0  0  0
  -25.3373  -21.7157   17.5815 N   0  0  0  0  0  0  0  0  0  0  0  0
  -25.4614  -33.7537   24.2725 N   0  3  0  0  0  0  0  0  0  0  0  0
  -31.7282  -14.6239   20.1609 O   0  0  0  0  0  0  0  0  0  0  0  0
  -21.9681  -26.5366   21.8427 O   0  0  0  0  0  0  0  0  0  0  0  0
  -21.4434  -29.3826   24.2551 O   0  0  0  0  0  0  0  0  0  0  0  0
  -24.6794  -32.1194   22.1199 O   0  0  0  0  0  0  0  0  0  0  0  0
  -25.6495  -19.5872   16.7897 O   0  0  0  0  0  0  0  0  0  0  0  0
  -25.5722  -10.4288   22.4173 O   0  0  0  0  0  0  0  0  0  0  0  0
  -28.3084  -26.7488   20.0367 O   0  0  0  0  0  0  0  0  0  1  0  0
  -20.7694   -9.1068   20.0529 F   0  0  0  0  0  0  0  0  0  0  0  0
  -25.2737   -8.0456   21.0483 F   0  0  0  0  0  0  0  0  0  0  0  0
  1  2  1  0  0  0  0
  1  5  2  0  0  0  0
  2  6  2  0  0  0  0
  3  8  2  0  0  0  0
  3 17  1  0  0  0  0
  4  9  1  0  0  0  0
  4 17  2  0  0  0  0
  5 19  1  0  0  0  0
  6 21  1  0  0  0  0
  7 10  2  0  0  0  0
  7 20  1  0  0  0  0
  8 24  1  0  0  0  0
  9 24  2  0  0  0  0
 10 25  1  0  0  0  0
 11 12  2  0  0  0  0
 11 26  1  0  0  0  0
 12 27  1  0  0  0  0
 13 22  1  0  0  0  0
 13 25  2  0  0  0  0
 14 23  1  0  0  0  0
 14 30  2  0  0  0  0
 15 27  2  0  0  0  0
 15 28  1  0  0  0  0
 16 23  2  0  0  0  0
 16 70  1  0  0  0  0
 17 29  1  0  0  0  0
 18 29  1  0  0  0  0
 18 31  2  0  0  0  0
 18 32  1  0  0  0  0
 19 21  2  0  0  0  0
 19 37  1  0  0  0  0
 20 22  2  0  0  0  0
 20 38  1  0  0  0  0
 21 46  1  0  0  0  0
 22 39  1  0  0  0  0
 23 67  1  0  0  0  0
 24 85  1  0  0  0  0
 25 86  1  0  0  0  0
 26 28  2  0  0  0  0
 26 85  1  0  0  0  0
 27 87  1  0  0  0  0
 28 88  1  0  0  0  0
 29 69  2  0  0  0  0
 30 59  1  0  0  0  0
 30 70  1  0  0  0  0
 31 71  1  0  0  0  0
 31 74  1  0  0  0  0
 32 75  1  0  0  0  0
 32 80  2  0  0  0  0
 33 47  1  0  0  0  0
 33 76  1  0  0  0  0
 33 81  2  0  0  0  0
 34 63  1  0  0  0  0
 34 72  1  0  0  0  0
 34 82  2  0  0  0  0
 35 64  1  0  0  0  0
 35 77  1  0  0  0  0
 35 83  2  0  0  0  0
 36 73  1  0  0  0  0
 36 78  1  0  0  0  0
 36 84  2  0  0  0  0
 37 40  1  0  0  0  0
 38 47  1  0  0  0  0
 39 72  1  0  0  0  0
 40 42  1  0  0  0  0
 41 43  1  0  0  0  0
 41 44  1  0  0  0  0
 42 46  1  0  0  0  0
 43 48  1  0  0  0  0
 44 73  1  0  0  0  0
 45 48  1  0  0  0  0
 45 73  1  0  0  0  0
 46 76  1  0  0  0  0
 47 72  1  0  0  0  0
 48 71  1  0  0  0  0
 49 64  1  0  0  0  0
 50 65  1  0  0  0  0
 51 65  1  0  0  0  0
 52 66  1  0  0  0  0
 53 67  1  0  0  0  0
 54 67  1  0  0  0  0
 55 68  1  0  0  0  0
 56 68  1  0  0  0  0
 57 68  1  0  0  0  0
 58 79  1  0  0  0  0
 59 61  1  0  0  0  0
 60 65  1  0  0  0  0
 60 66  1  0  0  0  0
 61 78  1  0  0  0  0
 62 67  1  0  0  0  0
 62 86  1  0  0  0  0
 63 68  1  0  0  0  0
 63 77  1  0  0  0  0
 64 79  1  0  0  0  0
 66 70  1  0  0  0  0
 69 71  1  0  0  0  0
M  CHG  1  79   1
M  ISO  4  36 100  62 101  78 100  86 101
M  END
> <Batch ID>
0081

> <Smiles>
CNC(C)C(=O)NC(C(=O)N1Cc2cc([101O:1][101CH2:1]C(C)(C)c3cc(CC[100NH:0][100C:0](=O)N4CCCC(n5nc(-c6ccc(Oc7ccc(F)cc7F)cc6)c(C(N)=O)c5N)C4)n(C(C)CC(C)C)c3)ccc2CC1C(=O)NC1CCCc2ccccc21)C(C)(C)C

> <Shape>
0.215

> <Color>
0.087

> <Negative vol penalty>
0.000

$$$$

  -OEChem-04052318463D

 81 89  0     1  0  0  0  0  0999 V2000
  -29.8019  -12.6483   20.2712 C   0  0  0  0  0  0  0  0  0  0  0  0
  -29.7293  -14.0285   20.4296 C   0  0  0  0  0  0  0  0  0  0  0  0
  -28.9924  -25.7454   21.0748 C   0  0  0  0  0  0  0  0  0  0  0  0
  -27.0373  -24.5647   20.2872 C   0  0  0  0  0  0  0  0  0  0  0  0
  -28.8025  -11.9747   19.5702 C   0  0  0  0  0  0  0  0  0  0  0  0
  -28.6576  -14.7361   19.8862 C   0  0  0  0  0  0  0  0  0  0  0  0
  -24.5545  -20.4758   21.1260 C   0  0  0  0  0  0  0  0  0  0  0  0
  -29.6071  -24.5291   21.3723 C   0  0  0  0  0  0  0  0  0  0  0  0
  -27.6520  -23.3484   20.5845 C   0  0  0  0  0  0  0  0  0  0  0  0
  -24.1058  -21.6355   20.4955 C   0  0  0  0  0  0  0  0  0  0  0  0
  -28.8475  -19.9217   20.8007 C   0  0  0  0  0  0  0  0  0  0  0  0
  -28.7654  -18.9034   19.8511 C   0  0  0  0  0  0  0  0  0  0  0  0
  -22.3965  -20.3563   19.3724 C   0  0  0  0  0  0  0  0  0  0  0  0
  -29.8982  -20.3092   18.2456 C   0  0  0  0  0  0  0  0  0  0  0  0
  -19.5576  -27.6680   19.9658 C   0  0  0  0  0  0  0  0  0  0  0  0
  -27.7075  -25.7632   20.5323 C   0  0  0  0  0  0  0  0  0  0  0  0
  -27.1326  -27.7284   19.0109 C   0  0  0  0  0  0  0  0  0  0  0  0
  -27.7131  -12.6732   19.0262 C   0  0  0  0  0  0  0  0  0  0  0  0
  -23.9334  -19.2437   20.8757 C   0  0  0  0  0  0  0  0  0  0  0  0
  -27.6434  -14.0714   19.1762 C   0  0  0  0  0  0  0  0  0  0  0  0
  -22.8376  -19.1829   20.0029 C   0  0  0  0  0  0  0  0  0  0  0  0
  -28.9369  -23.3306   21.1271 C   0  0  0  0  0  0  0  0  0  0  0  0
  -23.0285  -21.5754   19.6163 C   0  0  0  0  0  0  0  0  0  0  0  0
  -29.4550  -21.1339   20.4728 C   0  0  0  0  0  0  0  0  0  0  0  0
  -29.2907  -19.0971   18.5735 C   0  0  0  0  0  0  0  0  0  0  0  0
  -29.9803  -21.3276   19.1953 C   0  0  0  0  0  0  0  0  0  0  0  0
  -27.0718  -27.0193   20.2254 C   0  0  0  0  0  0  0  0  0  0  0  0
  -19.3194  -27.8474   21.3053 C   0  0  0  0  0  0  0  0  0  0  0  0
  -26.3677  -28.8483   19.2284 C   0  0  0  0  0  0  0  0  0  0  0  0
  -27.8191  -27.4039   17.7947 C   0  0  0  0  0  0  0  0  0  0  0  0
  -24.8707  -16.4695   19.6390 C   0  0  0  0  0  0  0  0  0  0  0  0
  -21.9038  -15.5124   20.5355 C   0  0  0  0  0  0  0  0  0  0  0  0
  -18.6848  -16.3680   21.2789 C   0  0  0  0  0  0  0  0  0  0  0  0
  -21.8531  -30.0370   22.9776 C   0  0  0  0  0  0  0  0  0  0  0  0
  -26.6815  -11.9077   18.2360 C   0  0  0  0  0  0  0  0  0  0  0  0
  -24.4124  -18.0064   21.5843 C   0  0  0  0  0  0  0  0  0  0  0  0
  -22.1234  -17.8883   19.7157 C   0  0  0  0  0  0  0  0  0  0  0  0
  -25.3859  -12.6837   18.0131 C   0  0  0  0  0  0  0  0  0  0  0  0
  -24.9426  -31.7884   22.7235 C   0  0  0  0  0  0  0  0  0  0  0  0
  -25.6882  -14.1076   17.5570 C   0  0  0  0  0  0  0  0  0  0  0  0
  -25.8441  -30.8287   21.9449 C   0  0  0  0  0  0  0  0  0  0  0  0
  -24.0086  -31.0406   23.6725 C   0  0  0  0  0  0  0  0  0  0  0  0
  -24.1011  -29.0228   22.2605 C   0  0  0  0  0  0  0  0  0  0  0  0
  -26.4839  -14.8710   18.6226 C   0  0  1  0  0  0  0  0  0  0  0  0
  -24.0320  -16.7184   20.8607 C   0  0  1  0  0  0  0  0  0  0  0  0
  -25.0220  -29.7270   21.2494 C   0  0  2  0  0  0  0  0  0  0  0  0
  -16.4819  -15.3637   21.9392 C   0  0  0  0  0  0  0  0  0  0  0  0
  -21.4797  -14.5629   17.6669 C   0  0  0  0  0  0  0  0  0  0  0  0
  -19.0226  -14.4630   18.1371 C   0  0  0  0  0  0  0  0  0  0  0  0
  -20.5961  -13.0136   19.4200 C   0  0  0  0  0  0  0  0  0  0  0  0
  -18.6328  -17.8695   23.8287 C   0  0  0  0  0  0  0  0  0  0  0  0
  -19.7784  -28.9262   22.1897 C   0  0  0  0  0  0  0  0  0  0  0  0
  -19.2701  -24.3646   18.3642 C   0  0  0  0  0  0  0  0  0  0  0  0
  -20.7576  -24.2262   18.6921 C   0  0  0  0  0  0  0  0  0  0  0  0
  -18.7941  -25.8216   18.3402 C   0  0  0  0  0  0  0  0  0  0  0  0
  -21.2014  -22.7696   18.6723 C   0  0  0  0  0  0  0  0  0  1  0  0
  -20.5424  -15.4984   19.8833 C   0  0  1  0  0  0  0  0  0  0  0  0
  -17.7807  -15.9800   22.4350 C   0  0  2  0  0  0  0  0  0  0  0  0
  -20.4247  -14.4087   18.7806 C   0  0  0  0  0  0  0  0  0  0  0  0
  -26.3272  -27.6369   21.1464 N   0  0  0  0  0  0  0  0  0  0  0  0
  -18.5371  -26.8283   21.7733 N   0  0  0  0  0  0  0  0  0  0  0  0
  -18.2794  -26.0119   20.7574 N   0  0  0  0  0  0  0  0  0  0  0  0
  -18.8923  -26.5170   19.6746 N   0  0  0  0  0  0  0  0  0  0  0  0
  -25.9131  -28.7459   20.5103 N   0  0  0  0  0  0  0  0  0  0  0  0
  -22.6331  -16.7050   20.4281 N   0  0  0  0  0  0  0  0  0  0  0  0
  -23.2572  -30.0112   22.9503 N   0  0  0  0  0  0  0  0  0  0  0  0
  -26.0463  -29.9007   18.4464 N   0  0  0  0  0  0  0  0  0  0  0  0
  -28.5592  -26.2149   17.7421 N   0  0  0  0  0  0  0  0  0  0  0  0
  -25.6103  -15.3035   19.6923 N   0  0  0  0  0  0  0  0  0  0  0  0
  -19.5730  -15.3611   20.9649 N   0  0  0  0  0  0  0  0  0  0  0  0
  -21.2189  -29.0290   22.2618 N   0  0  0  0  0  0  0  0  0  0  0  0
  -17.4488  -17.1776   23.2575 N   0  3  0  0  0  0  0  0  0  0  0  0
  -27.7908  -28.1544   16.7900 O   0  0  0  0  0  0  0  0  0  0  0  0
  -24.8473  -17.2750   18.7158 O   0  0  0  0  0  0  0  0  0  0  0  0
  -22.3024  -14.5047   21.1248 O   0  0  0  0  0  0  0  0  0  0  0  0
  -18.6080  -17.4540   20.7087 O   0  0  0  0  0  0  0  0  0  0  0  0
  -21.2121  -30.8980   23.5898 O   0  0  0  0  0  0  0  0  0  0  0  0
  -29.5365  -22.1436   21.4170 O   0  0  0  0  0  0  0  0  0  0  0  0
  -22.5890  -22.7058   18.9991 O   0  0  0  0  0  0  0  0  0  1  0  0
  -29.2131  -18.1186   17.6622 F   0  0  0  0  0  0  0  0  0  0  0  0
  -30.5661  -22.4894   18.8747 F   0  0  0  0  0  0  0  0  0  0  0  0
  1  2  1  0  0  0  0
  1  5  2  0  0  0  0
  2  6  2  0  0  0  0
  3  8  2  0  0  0  0
  3 16  1  0  0  0  0
  4  9  1  0  0  0  0
  4 16  2  0  0  0  0
  5 18  1  0  0  0  0
  6 20  1  0  0  0  0
  7 10  2  0  0  0  0
  7 19  1  0  0  0  0
  8 22  1  0  0  0  0
  9 22  2  0  0  0  0
 10 23  1  0  0  0  0
 11 12  2  0  0  0  0
 11 24  1  0  0  0  0
 12 25  1  0  0  0  0
 13 21  1  0  0  0  0
 13 23  2  0  0  0  0
 14 25  2  0  0  0  0
 14 26  1  0  0  0  0
 15 28  2  0  0  0  0
 15 63  1  0  0  0  0
 16 27  1  0  0  0  0
 17 27  1  0  0  0  0
 17 29  2  0  0  0  0
 17 30  1  0  0  0  0
 18 20  2  0  0  0  0
 18 35  1  0  0  0  0
 19 21  2  0  0  0  0
 19 36  1  0  0  0  0
 20 44  1  0  0  0  0
 21 37  1  0  0  0  0
 22 78  1  0  0  0  0
 23 79  1  0  0  0  0
 24 26  2  0  0  0  0
 24 78  1  0  0  0  0
 25 80  1  0  0  0  0
 26 81  1  0  0  0  0
 27 60  2  0  0  0  0
 28 52  1  0  0  0  0
 28 61  1  0  0  0  0
 29 64  1  0  0  0  0
 29 67  1  0  0  0  0
 30 68  1  0  0  0  0
 30 73  2  0  0  0  0
 31 45  1  0  0  0  0
 31 69  1  0  0  0  0
 31 74  2  0  0  0  0
 32 57  1  0  0  0  0
 32 65  1  0  0  0  0
 32 75  2  0  0  0  0
 33 58  1  0  0  0  0
 33 70  1  0  0  0  0
 33 76  2  0  0  0  0
 34 66  1  0  0  0  0
 34 71  1  0  0  0  0
 34 77  2  0  0  0  0
 35 38  1  0  0  0  0
 36 45  1  0  0  0  0
 37 65  1  0  0  0  0
 38 40  1  0  0  0  0
 39 41  1  0  0  0  0
 39 42  1  0  0  0  0
 40 44  1  0  0  0  0
 41 46  1  0  0  0  0
 42 66  1  0  0  0  0
 43 46  1  0  0  0  0
 43 66  1  0  0  0  0
 44 69  1  0  0  0  0
 45 65  1  0  0  0  0
 46 64  1  0  0  0  0
 47 58  1  0  0  0  0
 48 59  1  0  0  0  0
 49 59  1  0  0  0  0
 50 59  1  0  0  0  0
 51 72  1  0  0  0  0
 52 71  1  0  0  0  0
 53 54  1  0  0  0  0
 53 55  1  0  0  0  0
 54 56  1  0  0  0  0
 55 63  1  0  0  0  0
 56 79  1  0  0  0  0
 57 59  1  0  0  0  0
 57 70  1  0  0  0  0
 58 72  1  0  0  0  0
 60 64  1  0  0  0  0
 61 62  2  0  0  0  0
 62 63  1  0  0  0  0
M  CHG  1  72   1
M  ISO  4  34 100  56 101  71 100  79 101
M  END
> <Batch ID>
0081

> <Smiles>
CNC(C)C(=O)NC(C(=O)N1Cc2cc([101O:1][101CH2:1]CCCn3cc(C[100NH:0][100C:0](=O)N4CCCC(n5nc(-c6ccc(Oc7ccc(F)cc7F)cc6)c(C(N)=O)c5N)C4)nn3)ccc2CC1C(=O)NC1CCCc2ccccc21)C(C)(C)C

> <Shape>
0.212

> <Color>
0.070

> <Negative vol penalty>
0.000

$$$$

  -OEChem-04052318463D

 90 99  0     1  0  0  0  0  0999 V2000
  -19.5467  -28.8804   26.9163 C   0  0  0  0  0  0  0  0  0  0  0  0
  -20.7154  -28.2725   26.4689 C   0  0  0  0  0  0  0  0  0  0  0  0
  -26.0139  -11.8526   20.6123 C   0  0  0  0  0  0  0  0  0  0  0  0
  -25.9280  -14.2581   20.4048 C   0  0  0  0  0  0  0  0  0  0  0  0
  -18.6220  -29.3726   25.9962 C   0  0  0  0  0  0  0  0  0  0  0  0
  -20.9594  -28.1554   25.1010 C   0  0  0  0  0  0  0  0  0  0  0  0
  -26.3922  -28.4637   22.2911 C   0  0  0  0  0  0  0  0  0  0  0  0
  -24.7133  -11.8495   21.1161 C   0  0  0  0  0  0  0  0  0  0  0  0
  -24.6273  -14.2551   20.9086 C   0  0  0  0  0  0  0  0  0  0  0  0
  -27.2674  -27.4808   21.8311 C   0  0  0  0  0  0  0  0  0  0  0  0
  -23.1258  -14.0127   23.9282 C   0  0  0  0  0  0  0  0  0  0  0  0
  -22.8049  -14.9610   24.8995 C   0  0  0  0  0  0  0  0  0  0  0  0
  -26.3180  -27.6777   19.6222 C   0  0  0  0  0  0  0  0  0  0  0  0
  -21.0949  -15.8650   23.4519 C   0  0  0  0  0  0  0  0  0  0  0  0
  -31.2451  -20.1019   21.7578 C   0  0  0  0  0  0  0  0  0  0  0  0
  -26.6213  -13.0569   20.2566 C   0  0  0  0  0  0  0  0  0  0  0  0
  -28.3549  -12.9585   18.3878 C   0  0  0  0  0  0  0  0  0  0  0  0
  -18.8594  -29.2701   24.6164 C   0  0  0  0  0  0  0  0  0  0  0  0
  -25.4643  -29.0542   21.4212 C   0  0  0  0  0  0  0  0  0  0  0  0
  -20.0364  -28.6454   24.1616 C   0  0  0  0  0  0  0  0  0  0  0  0
  -25.4338  -28.6697   20.0731 C   0  0  0  0  0  0  0  0  0  0  0  0
  -24.0199  -13.0507   21.2643 C   0  0  0  0  0  0  0  0  0  0  0  0
  -27.2284  -27.0855   20.4971 C   0  0  0  0  0  0  0  0  0  0  0  0
  -22.4314  -13.9907   22.7187 C   0  0  0  0  0  0  0  0  0  0  0  0
  -21.7894  -15.8871   24.6614 C   0  0  0  0  0  0  0  0  0  0  0  0
  -21.4159  -14.9168   22.4806 C   0  0  0  0  0  0  0  0  0  0  0  0
  -27.9650  -13.0607   19.7366 C   0  0  0  0  0  0  0  0  0  0  0  0
  -29.9289  -20.2851   21.3857 C   0  0  0  0  0  0  0  0  0  0  0  0
  -31.4833  -19.0406   22.6069 C   0  0  0  0  0  0  0  0  0  0  0  0
  -29.7269  -13.0114   18.4220 C   0  0  0  0  0  0  0  0  0  0  0  0
  -29.2761  -18.4976   22.6290 C   0  0  0  0  0  0  0  0  0  0  0  0
  -27.5488  -12.8276   17.2093 C   0  0  0  0  0  0  0  0  0  0  0  0
  -22.2918  -29.1995   21.2878 C   0  0  0  0  0  0  0  0  0  0  0  0
  -22.8773  -31.2247   18.8223 C   0  0  0  0  0  0  0  0  0  0  0  0
  -25.0170  -32.2716   16.3785 C   0  0  0  0  0  0  0  0  0  0  0  0
  -33.6215  -15.3454   22.3253 C   0  0  0  0  0  0  0  0  0  0  0  0
  -17.8084  -29.7746   23.6596 C   0  0  0  0  0  0  0  0  0  0  0  0
  -24.5452  -30.1322   21.9268 C   0  0  0  0  0  0  0  0  0  0  0  0
  -24.4703  -29.2872   19.0939 C   0  0  0  0  0  0  0  0  0  0  0  0
  -18.3176  -29.9465   22.2308 C   0  0  0  0  0  0  0  0  0  0  0  0
  -26.8353  -15.7802   25.0480 C   0  0  0  0  0  0  0  0  0  0  0  0
  -26.3556  -17.2153   24.8532 C   0  0  0  0  0  0  0  0  0  0  0  0
  -27.5065  -15.2357   23.7907 C   0  0  0  0  0  0  0  0  0  0  0  0
  -33.4456  -11.9582   21.2422 C   0  0  0  0  0  0  0  0  0  0  0  0
  -19.1148  -28.7205   21.7971 C   0  0  0  0  0  0  0  0  0  0  0  0
  -27.4876  -18.1303   24.3894 C   0  0  0  0  0  0  0  0  0  0  0  0
  -28.6441  -16.1409   23.3216 C   0  0  0  0  0  0  0  0  0  0  0  0
  -32.0562  -11.8475   20.6118 C   0  0  0  0  0  0  0  0  0  0  0  0
  -33.4406  -12.8785   22.4609 C   0  0  0  0  0  0  0  0  0  0  0  0
  -31.4925  -14.1113   21.5897 C   0  0  0  0  0  0  0  0  0  0  0  0
  -20.3485  -28.5218   22.6860 C   0  0  1  0  0  0  0  0  0  0  0  0
  -28.1671  -17.5906   23.1175 C   0  0  0  0  0  0  0  0  0  0  0  0
  -23.2928  -30.2991   21.0718 C   0  0  1  0  0  0  0  0  0  0  0  0
  -31.4587  -13.2379   20.3238 C   0  0  2  0  0  0  0  0  0  0  0  0
  -32.9101  -18.1903   24.4951 C   0  0  0  0  0  0  0  0  0  0  0  0
  -25.2016  -33.9202   14.4956 C   0  0  0  0  0  0  0  0  0  0  0  0
  -21.0459  -29.4786   17.1172 C   0  0  0  0  0  0  0  0  0  0  0  0
  -22.0038  -30.5812   15.0837 C   0  0  0  0  0  0  0  0  0  0  0  0
  -20.7628  -31.9389   16.7687 C   0  0  0  0  0  0  0  0  0  0  0  0
  -27.3481  -33.6059   17.6213 C   0  0  0  0  0  0  0  0  0  0  0  0
  -29.5696  -21.4191   20.4590 C   0  0  0  0  0  0  0  0  0  0  0  0
  -29.2260  -22.7254   21.1833 C   0  0  0  0  0  0  0  0  0  0  0  0
  -28.7901  -23.8407   20.2320 C   0  0  0  0  0  0  0  0  0  0  0  0
  -33.6566  -17.8181   22.1163 C   0  0  0  0  0  0  0  0  0  0  0  0
  -28.4956  -25.1324   20.9825 C   0  0  0  0  0  0  0  0  0  1  0  0
  -32.8765  -18.7623   23.0627 C   0  0  1  0  0  0  0  0  0  0  0  0
  -23.0686  -31.0687   17.3330 C   0  0  1  0  0  0  0  0  0  0  0  0
  -25.4762  -33.6592   15.9684 C   0  0  2  0  0  0  0  0  0  0  0  0
  -21.7372  -30.7537   16.5943 C   0  0  0  0  0  0  0  0  0  0  0  0
  -29.0054  -13.1700   20.5672 N   0  0  0  0  0  0  0  0  0  0  0  0
  -28.9154  -19.4989   21.8039 N   0  0  0  0  0  0  0  0  0  0  0  0
  -30.5189  -18.2151   23.0640 N   0  0  0  0  0  0  0  0  0  0  0  0
  -30.0625  -13.1368   19.7380 N   0  0  0  0  0  0  0  0  0  0  0  0
  -23.5877  -30.3325   19.6379 N   0  0  0  0  0  0  0  0  0  0  0  0
  -32.8632  -14.1809   22.1201 N   0  0  0  0  0  0  0  0  0  0  0  0
  -30.6671  -12.9622   17.4544 N   0  0  0  0  0  0  0  0  0  0  0  0
  -26.1553  -12.7896   17.3538 N   0  0  0  0  0  0  0  0  0  0  0  0
  -21.3962  -29.4469   22.3106 N   0  0  0  0  0  0  0  0  0  0  0  0
  -23.7314  -32.2857   16.8770 N   0  0  0  0  0  0  0  0  0  0  0  0
  -33.0018  -16.5372   21.9700 N   0  0  0  0  0  0  0  0  0  0  0  0
  -26.9391  -33.8126   16.2081 N   0  3  0  0  0  0  0  0  0  0  0  0
  -28.0501  -12.7304   16.0635 O   0  0  0  0  0  0  0  0  0  0  0  0
  -22.3284  -28.2012   20.5780 O   0  0  0  0  0  0  0  0  0  0  0  0
  -22.1307  -32.1103   19.2467 O   0  0  0  0  0  0  0  0  0  0  0  0
  -25.7262  -31.2744   16.2643 O   0  0  0  0  0  0  0  0  0  0  0  0
  -34.7680  -15.3240   22.7858 O   0  0  0  0  0  0  0  0  0  0  0  0
  -22.7507  -13.0481   21.7557 O   0  0  0  0  0  0  0  0  0  0  0  0
  -28.0811  -26.1259   20.0457 O   0  0  0  0  0  0  0  0  0  1  0  0
  -21.4803  -16.7966   25.5948 F   0  0  0  0  0  0  0  0  0  0  0  0
  -20.7443  -14.8997   21.3210 F   0  0  0  0  0  0  0  0  0  0  0  0
  1  2  1  0  0  0  0
  1  5  2  0  0  0  0
  2  6  2  0  0  0  0
  3  8  2  0  0  0  0
  3 16  1  0  0  0  0
  4  9  1  0  0  0  0
  4 16  2  0  0  0  0
  5 18  1  0  0  0  0
  6 20  1  0  0  0  0
  7 10  2  0  0  0  0
  7 19  1  0  0  0  0
  8 22  1  0  0  0  0
  9 22  2  0  0  0  0
 10 23  1  0  0  0  0
 11 12  2  0  0  0  0
 11 24  1  0  0  0  0
 12 25  1  0  0  0  0
 13 21  1  0  0  0  0
 13 23  2  0  0  0  0
 14 25  2  0  0  0  0
 14 26  1  0  0  0  0
 15 28  1  0  0  0  0
 15 29  2  0  0  0  0
 16 27  1  0  0  0  0
 17 27  1  0  0  0  0
 17 30  2  0  0  0  0
 17 32  1  0  0  0  0
 18 20  2  0  0  0  0
 18 37  1  0  0  0  0
 19 21  2  0  0  0  0
 19 38  1  0  0  0  0
 20 51  1  0  0  0  0
 21 39  1  0  0  0  0
 22 87  1  0  0  0  0
 23 88  1  0  0  0  0
 24 26  2  0  0  0  0
 24 87  1  0  0  0  0
 25 89  1  0  0  0  0
 26 90  1  0  0  0  0
 27 70  2  0  0  0  0
 28 61  1  0  0  0  0
 28 71  2  0  0  0  0
 29 66  1  0  0  0  0
 29 72  1  0  0  0  0
 30 73  1  0  0  0  0
 30 76  1  0  0  0  0
 31 52  1  0  0  0  0
 31 71  1  0  0  0  0
 31 72  2  0  0  0  0
 32 77  1  0  0  0  0
 32 82  2  0  0  0  0
 33 53  1  0  0  0  0
 33 78  1  0  0  0  0
 33 83  2  0  0  0  0
 34 67  1  0  0  0  0
 34 74  1  0  0  0  0
 34 84  2  0  0  0  0
 35 68  1  0  0  0  0
 35 79  1  0  0  0  0
 35 85  2  0  0  0  0
 36 75  1  0  0  0  0
 36 80  1  0  0  0  0
 36 86  2  0  0  0  0
 37 40  1  0  0  0  0
 38 53  1  0  0  0  0
 39 74  1  0  0  0  0
 40 45  1  0  0  0  0
 41 42  1  0  0  0  0
 41 43  1  0  0  0  0
 42 46  1  0  0  0  0
 43 47  1  0  0  0  0
 44 48  1  0  0  0  0
 44 49  1  0  0  0  0
 45 51  1  0  0  0  0
 46 52  1  0  0  0  0
 47 52  1  0  0  0  0
 48 54  1  0  0  0  0
 49 75  1  0  0  0  0
 50 54  1  0  0  0  0
 50 75  1  0  0  0  0
 51 78  1  0  0  0  0
 53 74  1  0  0  0  0
 54 73  1  0  0  0  0
 55 66  1  0  0  0  0
 56 68  1  0  0  0  0
 57 69  1  0  0  0  0
 58 69  1  0  0  0  0
 59 69  1  0  0  0  0
 60 81  1  0  0  0  0
 61 62  1  0  0  0  0
 62 63  1  0  0  0  0
 63 65  1  0  0  0  0
 64 66  1  0  0  0  0
 64 80  1  0  0  0  0
 65 88  1  0  0  0  0
 67 69  1  0  0  0  0
 67 79  1  0  0  0  0
 68 81  1  0  0  0  0
 70 73  1  0  0  0  0
M  CHG  1  81   1
M  ISO  4  36 100  65 101  80 100  88 101
M  END
> <Batch ID>
0081

> <Smiles>
CNC(C)C(=O)NC(C(=O)N1Cc2cc([101O:1][101CH2:1]CCCc3cc(C(C)C[100NH:0][100C:0](=O)N4CCCC(n5nc(-c6ccc(Oc7ccc(F)cc7F)cc6)c(C(N)=O)c5N)C4)nc(C4CCCCC4)n3)ccc2CC1C(=O)NC1CCCc2ccccc21)C(C)(C)C

> <Shape>
0.231

> <Color>
0.087

> <Negative vol penalty>
0.000

$$$$

  -OEChem-04052318463D

 85 93  0     1  0  0  0  0  0999 V2000
  -20.1928  -11.5533   18.7686 C   0  0  0  0  0  0  0  0  0  0  0  0
  -20.5508  -12.8431   18.3898 C   0  0  0  0  0  0  0  0  0  0  0  0
  -24.8123  -30.0402   20.2958 C   0  0  0  0  0  0  0  0  0  0  0  0
  -24.3909  -28.5736   22.1689 C   0  0  0  0  0  0  0  0  0  0  0  0
  -20.9002  -10.9030   19.7788 C   0  0  0  0  0  0  0  0  0  0  0  0
  -21.6158  -13.4839   19.0219 C   0  0  0  0  0  0  0  0  0  0  0  0
  -26.8790  -18.1666   17.7227 C   0  0  0  0  0  0  0  0  0  0  0  0
  -24.4325  -31.1371   21.0692 C   0  0  0  0  0  0  0  0  0  0  0  0
  -24.0111  -29.6705   22.9423 C   0  0  0  0  0  0  0  0  0  0  0  0
  -27.4116  -19.3542   18.2223 C   0  0  0  0  0  0  0  0  0  0  0  0
  -23.9190  -34.3650   22.6604 C   0  0  0  0  0  0  0  0  0  0  0  0
  -24.7201  -35.5055   22.6060 C   0  0  0  0  0  0  0  0  0  0  0  0
  -28.6117  -18.1033   19.8998 C   0  0  0  0  0  0  0  0  0  0  0  0
  -26.5996  -34.2240   23.4199 C   0  0  0  0  0  0  0  0  0  0  0  0
  -26.0183  -20.4335   22.4138 C   0  0  0  0  0  0  0  0  0  0  0  0
  -24.7914  -28.7584   20.8457 C   0  0  0  0  0  0  0  0  0  0  0  0
  -26.4762  -27.0842   19.9149 C   0  0  0  0  0  0  0  0  0  0  0  0
  -21.9806  -11.5324   20.4170 C   0  0  0  0  0  0  0  0  0  0  0  0
  -27.2007  -16.9373   18.3157 C   0  0  0  0  0  0  0  0  0  0  0  0
  -22.3375  -12.8419   20.0425 C   0  0  0  0  0  0  0  0  0  0  0  0
  -28.0839  -16.9013   19.4042 C   0  0  0  0  0  0  0  0  0  0  0  0
  -26.6100  -21.6726   22.4408 C   0  0  0  0  0  0  0  0  0  0  0  0
  -24.0319  -30.9523   22.3925 C   0  0  0  0  0  0  0  0  0  0  0  0
  -28.2758  -19.3230   19.3128 C   0  0  0  0  0  0  0  0  0  0  0  0
  -24.4581  -33.1540   23.0947 C   0  0  0  0  0  0  0  0  0  0  0  0
  -26.0605  -35.4350   22.9856 C   0  0  0  0  0  0  0  0  0  0  0  0
  -25.7984  -33.0835   23.4744 C   0  0  0  0  0  0  0  0  0  0  0  0
  -25.1831  -27.6249   20.0471 C   0  0  0  0  0  0  0  0  0  0  0  0
  -25.5597  -22.5575   22.7500 C   0  0  0  0  0  0  0  0  0  0  0  0
  -26.3196  -26.0266   19.0527 C   0  0  0  0  0  0  0  0  0  0  0  0
  -27.7086  -27.5006   20.5177 C   0  0  0  0  0  0  0  0  0  0  0  0
  -25.5470  -14.6545   19.7847 C   0  0  0  0  0  0  0  0  0  0  0  0
  -22.4346  -21.8912   17.8068 C   0  0  0  0  0  0  0  0  0  0  0  0
  -28.3962  -13.1044   19.7431 C   0  0  0  0  0  0  0  0  0  0  0  0
  -31.7996  -13.3015   19.5851 C   0  0  0  0  0  0  0  0  0  0  0  0
  -22.6852  -10.8074   21.5361 C   0  0  0  0  0  0  0  0  0  0  0  0
  -26.6388  -15.6627   17.7481 C   0  0  0  0  0  0  0  0  0  0  0  0
  -28.4768  -15.6056   20.0640 C   0  0  0  0  0  0  0  0  0  0  0  0
  -24.0386  -11.4138   21.8977 C   0  0  0  0  0  0  0  0  0  0  0  0
  -22.9504  -24.7330   15.6860 C   0  0  0  0  0  0  0  0  0  0  0  0
  -23.9288  -12.9305   22.0188 C   0  0  0  0  0  0  0  0  0  0  0  0
  -23.6760  -25.7286   16.5900 C   0  0  0  0  0  0  0  0  0  0  0  0
  -21.9325  -23.9082   16.4675 C   0  0  0  0  0  0  0  0  0  0  0  0
  -23.2329  -24.1882   18.5536 C   0  0  0  0  0  0  0  0  0  0  0  0
  -23.5026  -13.5608   20.6874 C   0  0  1  0  0  0  0  0  0  0  0  0
  -26.6298  -14.5143   18.7524 C   0  0  1  0  0  0  0  0  0  0  0  0
  -24.2922  -25.0206   17.8096 C   0  0  2  0  0  0  0  0  0  0  0  0
  -25.6282  -24.0211   22.9059 C   0  0  0  0  0  0  0  0  0  0  0  0
  -33.8591  -11.8680   19.6110 C   0  0  0  0  0  0  0  0  0  0  0  0
  -28.0938  -12.7286   22.7560 C   0  0  0  0  0  0  0  0  0  0  0  0
  -30.5325  -12.1718   22.8610 C   0  0  0  0  0  0  0  0  0  0  0  0
  -28.9820  -10.7321   21.5396 C   0  0  0  0  0  0  0  0  0  0  0  0
  -32.6054  -14.2080   16.8854 C   0  0  0  0  0  0  0  0  0  0  0  0
  -23.7841  -17.7715   20.2245 C   0  0  0  0  0  0  0  0  0  0  0  0
  -28.0612  -21.9985   22.1926 C   0  0  0  0  0  0  0  0  0  0  0  0
  -23.1022  -21.3060   19.0258 C   0  0  0  0  0  0  0  0  0  0  0  0
  -28.3290  -22.6058   20.8138 C   0  0  0  0  0  0  0  0  0  0  0  0
  -23.6720  -19.6346   22.7824 C   0  0  0  0  0  0  0  0  0  0  0  0
  -22.8955  -19.8036   19.0923 C   0  0  0  0  0  0  0  0  0  0  0  0
  -22.7516  -19.5955   21.5695 C   0  0  0  0  0  0  0  0  0  0  0  0
  -28.0042  -21.6594   19.6639 C   0  0  0  0  0  0  0  0  0  1  0  0
  -29.5854  -13.0282   20.6700 C   0  0  1  0  0  0  0  0  0  0  0  0
  -32.8140  -12.5501   18.7419 C   0  0  2  0  0  0  0  0  0  0  0  0
  -29.2897  -12.1899   21.9456 C   0  0  0  0  0  0  0  0  0  0  0  0
  -24.2723  -26.9653   19.3264 N   0  0  0  0  0  0  0  0  0  0  0  0
  -24.3894  -21.9335   22.9080 N   0  0  0  0  0  0  0  0  0  0  0  0
  -24.7008  -20.6433   22.6971 N   0  0  0  0  0  0  0  0  0  0  0  0
  -24.9940  -25.9994   18.7330 N   0  0  0  0  0  0  0  0  0  0  0  0
  -27.8962  -14.3869   19.4766 N   0  0  0  0  0  0  0  0  0  0  0  0
  -22.5519  -23.2700   17.6304 N   0  0  0  0  0  0  0  0  0  0  0  0
  -27.1879  -25.1266   18.5443 N   0  0  0  0  0  0  0  0  0  0  0  0
  -27.6911  -28.6064   21.3787 N   0  0  0  0  0  0  0  0  0  0  0  0
  -24.6252  -13.6251   19.7764 N   0  0  0  0  0  0  0  0  0  0  0  0
  -30.6959  -12.5252   19.8686 N   0  0  0  0  0  0  0  0  0  0  0  0
  -33.5116  -13.4855   17.8149 N   0  3  0  0  0  0  0  0  0  0  0  0
  -23.5228  -19.2526   20.3495 N   0  3  1  0  0  0  0  0  0  0  0  0
  -28.7961  -26.9198   20.2865 O   0  0  0  0  0  0  0  0  0  0  0  0
  -25.5487  -15.6239   20.5342 O   0  0  0  0  0  0  0  0  0  0  0  0
  -21.8299  -21.1431   17.0342 O   0  0  0  0  0  0  0  0  0  0  0  0
  -27.9327  -12.0650   19.2673 O   0  0  0  0  0  0  0  0  0  0  0  0
  -31.9710  -14.4599   19.9582 O   0  0  0  0  0  0  0  0  0  0  0  0
  -23.6615  -32.0225   23.1475 O   0  0  0  0  0  0  0  0  0  0  0  0
  -28.7966  -20.4808   19.8028 O   0  0  0  0  0  0  0  0  0  1  0  0
  -26.8302  -36.5299   22.9318 F   0  0  0  0  0  0  0  0  0  0  0  0
  -26.3223  -31.9227   23.8913 F   0  0  0  0  0  0  0  0  0  0  0  0
  1  2  1  0  0  0  0
  1  5  2  0  0  0  0
  2  6  2  0  0  0  0
  3  8  2  0  0  0  0
  3 16  1  0  0  0  0
  4  9  1  0  0  0  0
  4 16  2  0  0  0  0
  5 18  1  0  0  0  0
  6 20  1  0  0  0  0
  7 10  2  0  0  0  0
  7 19  1  0  0  0  0
  8 23  1  0  0  0  0
  9 23  2  0  0  0  0
 10 24  1  0  0  0  0
 11 12  2  0  0  0  0
 11 25  1  0  0  0  0
 12 26  1  0  0  0  0
 13 21  1  0  0  0  0
 13 24  2  0  0  0  0
 14 26  2  0  0  0  0
 14 27  1  0  0  0  0
 15 22  2  0  0  0  0
 15 67  1  0  0  0  0
 16 28  1  0  0  0  0
 17 28  1  0  0  0  0
 17 30  2  0  0  0  0
 17 31  1  0  0  0  0
 18 20  2  0  0  0  0
 18 36  1  0  0  0  0
 19 21  2  0  0  0  0
 19 37  1  0  0  0  0
 20 45  1  0  0  0  0
 21 38  1  0  0  0  0
 22 29  1  0  0  0  0
 22 55  1  0  0  0  0
 23 82  1  0  0  0  0
 24 83  1  0  0  0  0
 25 27  2  0  0  0  0
 25 82  1  0  0  0  0
 26 84  1  0  0  0  0
 27 85  1  0  0  0  0
 28 65  2  0  0  0  0
 29 48  1  0  0  0  0
 29 66  2  0  0  0  0
 30 68  1  0  0  0  0
 30 71  1  0  0  0  0
 31 72  1  0  0  0  0
 31 77  2  0  0  0  0
 32 46  1  0  0  0  0
 32 73  1  0  0  0  0
 32 78  2  0  0  0  0
 33 56  1  0  0  0  0
 33 70  1  0  0  0  0
 33 79  2  0  0  0  0
 34 62  1  0  0  0  0
 34 69  1  0  0  0  0
 34 80  2  0  0  0  0
 35 63  1  0  0  0  0
 35 74  1  0  0  0  0
 35 81  2  0  0  0  0
 36 39  1  0  0  0  0
 37 46  1  0  0  0  0
 38 69  1  0  0  0  0
 39 41  1  0  0  0  0
 40 42  1  0  0  0  0
 40 43  1  0  0  0  0
 41 45  1  0  0  0  0
 42 47  1  0  0  0  0
 43 70  1  0  0  0  0
 44 47  1  0  0  0  0
 44 70  1  0  0  0  0
 45 73  1  0  0  0  0
 46 69  1  0  0  0  0
 47 68  1  0  0  0  0
 49 63  1  0  0  0  0
 50 64  1  0  0  0  0
 51 64  1  0  0  0  0
 52 64  1  0  0  0  0
 53 75  1  0  0  0  0
 54 76  1  0  0  0  0
 55 57  1  0  0  0  0
 56 59  1  0  0  0  0
 57 61  1  0  0  0  0
 58 60  1  0  0  0  0
 58 67  1  0  0  0  0
 59 76  1  0  0  0  0
 60 76  1  0  0  0  0
 61 83  1  0  0  0  0
 62 64  1  0  0  0  0
 62 74  1  0  0  0  0
 63 75  1  0  0  0  0
 65 68  1  0  0  0  0
 66 67  1  0  0  0  0
M  CHG  2  75   1  76   1
M  ISO  4  33 100  56 100  61 101  83 101
M  END
> <Batch ID>
0081

> <Smiles>
CNC(C)C(=O)NC(C(=O)N1Cc2cc([101O:1][101CH2:1]CCc3cn(CCN(C)C[100CH2:0][100C:0](=O)N4CCCC(n5nc(-c6ccc(Oc7ccc(F)cc7F)cc6)c(C(N)=O)c5N)C4)nc3C)ccc2CC1C(=O)NC1CCCc2ccccc21)C(C)(C)C

> <Shape>
0.252

> <Color>
0.087

> <Negative vol penalty>
0.000

$$$$

  -OEChem-04052318463D

 85 93  0     1  0  0  0  0  0999 V2000
  -18.2770  -24.6772   21.4156 C   0  0  0  0  0  0  0  0  0  0  0  0
  -19.6515  -24.5006   21.2931 C   0  0  0  0  0  0  0  0  0  0  0  0
  -25.7800  -12.9890   21.4684 C   0  0  0  0  0  0  0  0  0  0  0  0
  -25.2572  -13.5900   19.1875 C   0  0  0  0  0  0  0  0  0  0  0  0
  -17.7700  -25.8879   21.8859 C   0  0  0  0  0  0  0  0  0  0  0  0
  -20.5198  -25.5351   21.6399 C   0  0  0  0  0  0  0  0  0  0  0  0
  -24.4549  -23.9278   24.3925 C   0  0  0  0  0  0  0  0  0  0  0  0
  -25.4630  -11.6593   21.1907 C   0  0  0  0  0  0  0  0  0  0  0  0
  -24.9402  -12.2603   18.9098 C   0  0  0  0  0  0  0  0  0  0  0  0
  -25.4930  -23.2948   23.7102 C   0  0  0  0  0  0  0  0  0  0  0  0
  -22.6724   -9.7807   20.8622 C   0  0  0  0  0  0  0  0  0  0  0  0
  -21.8840   -9.0964   21.7873 C   0  0  0  0  0  0  0  0  0  0  0  0
  -26.7674  -25.3424   23.7619 C   0  0  0  0  0  0  0  0  0  0  0  0
  -29.3057  -24.5166   20.0621 C   0  0  0  0  0  0  0  0  0  0  0  0
  -23.6551   -7.4839   22.1040 C   0  0  0  0  0  0  0  0  0  0  0  0
  -25.6770  -13.9544   20.4668 C   0  0  0  0  0  0  0  0  0  0  0  0
  -27.2621  -15.9466   20.6276 C   0  0  0  0  0  0  0  0  0  0  0  0
  -18.6330  -26.9343   22.2478 C   0  0  0  0  0  0  0  0  0  0  0  0
  -24.5610  -25.2781   24.7556 C   0  0  0  0  0  0  0  0  0  0  0  0
  -20.0239  -26.7614   22.1143 C   0  0  0  0  0  0  0  0  0  0  0  0
  -25.7303  -25.9895   24.4509 C   0  0  0  0  0  0  0  0  0  0  0  0
  -28.2748  -23.6102   19.8867 C   0  0  0  0  0  0  0  0  0  0  0  0
  -25.0431  -11.2950   19.9114 C   0  0  0  0  0  0  0  0  0  0  0  0
  -26.6483  -24.0029   23.3923 C   0  0  0  0  0  0  0  0  0  0  0  0
  -23.9522   -9.3166   20.5580 C   0  0  0  0  0  0  0  0  0  0  0  0
  -22.3753   -7.9480   22.4081 C   0  0  0  0  0  0  0  0  0  0  0  0
  -24.4435   -8.1683   21.1789 C   0  0  0  0  0  0  0  0  0  0  0  0
  -26.0038  -15.3281   20.7532 C   0  0  0  0  0  0  0  0  0  0  0  0
  -29.2624  -25.6920   19.3397 C   0  0  0  0  0  0  0  0  0  0  0  0
  -27.2687  -23.9396   19.0008 C   0  0  0  0  0  0  0  0  0  0  0  0
  -27.0468  -17.2456   21.0184 C   0  0  0  0  0  0  0  0  0  0  0  0
  -28.5137  -15.3962   20.1961 C   0  0  0  0  0  0  0  0  0  0  0  0
  -22.9532  -27.9257   24.0421 C   0  0  0  0  0  0  0  0  0  0  0  0
  -24.8962  -29.2428   26.2808 C   0  0  0  0  0  0  0  0  0  0  0  0
  -27.8415  -29.1113   27.9999 C   0  0  0  0  0  0  0  0  0  0  0  0
  -23.0111  -21.3868   20.7375 C   0  0  0  0  0  0  0  0  0  0  0  0
  -18.0365  -28.2414   22.7064 C   0  0  0  0  0  0  0  0  0  0  0  0
  -23.4433  -25.9390   25.5148 C   0  0  0  0  0  0  0  0  0  0  0  0
  -25.9020  -27.4353   24.8362 C   0  0  0  0  0  0  0  0  0  0  0  0
  -19.0384  -29.1555   23.4071 C   0  0  0  0  0  0  0  0  0  0  0  0
  -23.6080  -19.5452   23.7257 C   0  0  0  0  0  0  0  0  0  0  0  0
  -20.3385  -29.2308   22.6130 C   0  0  0  0  0  0  0  0  0  0  0  0
  -24.4036  -18.3275   23.2521 C   0  0  0  0  0  0  0  0  0  0  0  0
  -22.5477  -19.9575   22.7070 C   0  0  0  0  0  0  0  0  0  0  0  0
  -23.8511  -18.9631   20.8669 C   0  0  0  0  0  0  0  0  0  0  0  0
  -20.9990  -27.8511   22.5038 C   0  0  1  0  0  0  0  0  0  0  0  0
  -23.4476  -27.4588   25.3819 C   0  0  1  0  0  0  0  0  0  0  0  0
  -24.9698  -18.5438   21.8358 C   0  0  2  0  0  0  0  0  0  0  0  0
  -29.8333  -28.0430   20.0473 C   0  0  0  0  0  0  0  0  0  0  0  0
  -31.1184  -26.9418   18.1789 C   0  0  0  0  0  0  0  0  0  0  0  0
  -29.1657  -30.3475   29.7364 C   0  0  0  0  0  0  0  0  0  0  0  0
  -25.6686  -31.3353   24.1988 C   0  0  0  0  0  0  0  0  0  0  0  0
  -27.6359  -31.9304   25.6284 C   0  0  0  0  0  0  0  0  0  0  0  0
  -25.3208  -32.2374   26.5052 C   0  0  0  0  0  0  0  0  0  0  0  0
  -27.7968  -26.7992   29.8468 C   0  0  0  0  0  0  0  0  0  0  0  0
  -28.2732  -22.3097   20.6528 C   0  0  0  0  0  0  0  0  0  0  0  0
  -26.1259  -23.0119   18.7598 C   0  0  0  0  0  0  0  0  0  0  0  0
  -24.7367  -23.6346   19.0017 C   0  0  0  0  0  0  0  0  0  0  0  0
  -23.5678  -22.6976   18.7051 C   0  0  0  0  0  0  0  0  0  0  0  0
  -27.3076  -22.3329   21.8327 C   0  0  0  0  0  0  0  0  0  1  0  0
  -30.3484  -26.7012   19.4918 C   0  0  0  0  0  0  0  0  0  0  0  0
  -26.2549  -29.9005   26.2637 C   0  0  1  0  0  0  0  0  0  0  0  0
  -28.1506  -29.2444   29.4801 C   0  0  2  0  0  0  0  0  0  0  0  0
  -26.2163  -31.3242   25.6399 C   0  0  0  0  0  0  0  0  0  0  0  0
  -25.0590  -16.1653   21.1898 N   0  0  0  0  0  0  0  0  0  0  0  0
  -28.2652  -25.9881   18.4794 N   0  0  0  0  0  0  0  0  0  0  0  0
  -27.2518  -25.0975   18.3074 N   0  0  0  0  0  0  0  0  0  0  0  0
  -25.7241  -17.3231   21.3420 N   0  0  0  0  0  0  0  0  0  0  0  0
  -24.7786  -28.0389   25.5718 N   0  0  0  0  0  0  0  0  0  0  0  0
  -23.1501  -20.1482   21.3854 N   0  0  0  0  0  0  0  0  0  0  0  0
  -27.8617  -18.3177   21.1133 N   0  0  0  0  0  0  0  0  0  0  0  0
  -28.5583  -14.0440   19.8304 N   0  0  0  0  0  0  0  0  0  0  0  0
  -21.6695  -27.5125   23.7408 N   0  0  0  0  0  0  0  0  0  0  0  0
  -26.7439  -29.8632   27.6377 N   0  0  0  0  0  0  0  0  0  0  0  0
  -23.6178  -21.4852   19.4913 N   0  0  0  0  0  0  0  0  0  0  0  0
  -28.7019  -27.9658   30.0112 N   0  3  0  0  0  0  0  0  0  0  0  0
  -29.5651  -16.0790   20.1524 O   0  0  0  0  0  0  0  0  0  0  0  0
  -23.6819  -28.6114   23.3346 O   0  0  0  0  0  0  0  0  0  0  0  0
  -23.9752  -29.7738   26.9064 O   0  0  0  0  0  0  0  0  0  0  0  0
  -28.5093  -28.4132   27.2401 O   0  0  0  0  0  0  0  0  0  0  0  0
  -22.3968  -22.3364   21.2354 O   0  0  0  0  0  0  0  0  0  0  0  0
  -24.7340   -9.9976   19.6400 O   0  0  0  0  0  0  0  0  0  0  0  0
  -27.6627  -23.3876   22.7258 O   0  0  0  0  0  0  0  0  0  1  0  0
  -21.6186   -7.2919   23.2976 F   0  0  0  0  0  0  0  0  0  0  0  0
  -25.6726   -7.7182   20.8915 F   0  0  0  0  0  0  0  0  0  0  0  0
  1  2  1  0  0  0  0
  1  5  2  0  0  0  0
  2  6  2  0  0  0  0
  3  8  2  0  0  0  0
  3 16  1  0  0  0  0
  4  9  1  0  0  0  0
  4 16  2  0  0  0  0
  5 18  1  0  0  0  0
  6 20  1  0  0  0  0
  7 10  2  0  0  0  0
  7 19  1  0  0  0  0
  8 23  1  0  0  0  0
  9 23  2  0  0  0  0
 10 24  1  0  0  0  0
 11 12  2  0  0  0  0
 11 25  1  0  0  0  0
 12 26  1  0  0  0  0
 13 21  1  0  0  0  0
 13 24  2  0  0  0  0
 14 22  1  0  0  0  0
 14 29  2  0  0  0  0
 15 26  2  0  0  0  0
 15 27  1  0  0  0  0
 16 28  1  0  0  0  0
 17 28  1  0  0  0  0
 17 31  2  0  0  0  0
 17 32  1  0  0  0  0
 18 20  2  0  0  0  0
 18 37  1  0  0  0  0
 19 21  2  0  0  0  0
 19 38  1  0  0  0  0
 20 46  1  0  0  0  0
 21 39  1  0  0  0  0
 22 30  2  0  0  0  0
 22 56  1  0  0  0  0
 23 82  1  0  0  0  0
 24 83  1  0  0  0  0
 25 27  2  0  0  0  0
 25 82  1  0  0  0  0
 26 84  1  0  0  0  0
 27 85  1  0  0  0  0
 28 65  2  0  0  0  0
 29 61  1  0  0  0  0
 29 66  1  0  0  0  0
 30 57  1  0  0  0  0
 30 67  1  0  0  0  0
 31 68  1  0  0  0  0
 31 71  1  0  0  0  0
 32 72  1  0  0  0  0
 32 77  2  0  0  0  0
 33 47  1  0  0  0  0
 33 73  1  0  0  0  0
 33 78  2  0  0  0  0
 34 62  1  0  0  0  0
 34 69  1  0  0  0  0
 34 79  2  0  0  0  0
 35 63  1  0  0  0  0
 35 74  1  0  0  0  0
 35 80  2  0  0  0  0
 36 70  1  0  0  0  0
 36 75  1  0  0  0  0
 36 81  2  0  0  0  0
 37 40  1  0  0  0  0
 38 47  1  0  0  0  0
 39 69  1  0  0  0  0
 40 42  1  0  0  0  0
 41 43  1  0  0  0  0
 41 44  1  0  0  0  0
 42 46  1  0  0  0  0
 43 48  1  0  0  0  0
 44 70  1  0  0  0  0
 45 48  1  0  0  0  0
 45 70  1  0  0  0  0
 46 73  1  0  0  0  0
 47 69  1  0  0  0  0
 48 68  1  0  0  0  0
 49 61  1  0  0  0  0
 50 61  1  0  0  0  0
 51 63  1  0  0  0  0
 52 64  1  0  0  0  0
 53 64  1  0  0  0  0
 54 64  1  0  0  0  0
 55 76  1  0  0  0  0
 56 60  1  0  0  0  0
 57 58  1  0  0  0  0
 58 59  1  0  0  0  0
 59 75  1  0  0  0  0
 60 83  1  0  0  0  0
 62 64  1  0  0  0  0
 62 74  1  0  0  0  0
 63 76  1  0  0  0  0
 65 68  1  0  0  0  0
 66 67  2  0  0  0  0
M  CHG  1  76   1
M  ISO  4  36 100  60 101  75 100  83 101
M  END
> <Batch ID>
0081

> <Smiles>
CNC(C)C(=O)NC(C(=O)N1Cc2cc([101O:1][101CH2:1]Cc3cc(C(C)C)nnc3CCC[100NH:0][100C:0](=O)N3CCCC(n4nc(-c5ccc(Oc6ccc(F)cc6F)cc5)c(C(N)=O)c4N)C3)ccc2CC1C(=O)NC1CCCc2ccccc21)C(C)(C)C

> <Shape>
0.224

> <Color>
0.080

> <Negative vol penalty>
0.000

$$$$

  -OEChem-04052318463D

 85 93  0     1  0  0  0  0  0999 V2000
  -19.4576  -33.7116   19.9819 C   0  0  0  0  0  0  0  0  0  0  0  0
  -20.6960  -33.1643   19.6619 C   0  0  0  0  0  0  0  0  0  0  0  0
  -25.7430  -18.1225   19.7606 C   0  0  0  0  0  0  0  0  0  0  0  0
  -27.8089  -16.9277   20.1369 C   0  0  0  0  0  0  0  0  0  0  0  0
  -18.8774  -33.4433   21.2210 C   0  0  0  0  0  0  0  0  0  0  0  0
  -21.3554  -32.3493   20.5813 C   0  0  0  0  0  0  0  0  0  0  0  0
  -24.8809  -27.4989   19.3363 C   0  0  0  0  0  0  0  0  0  0  0  0
  -25.1108  -16.9246   19.4277 C   0  0  0  0  0  0  0  0  0  0  0  0
  -27.1767  -15.7297   19.8040 C   0  0  0  0  0  0  0  0  0  0  0  0
  -26.2634  -27.3422   19.2478 C   0  0  0  0  0  0  0  0  0  0  0  0
  -25.1029  -13.5132   21.2896 C   0  0  0  0  0  0  0  0  0  0  0  0
  -25.3364  -12.4093   22.1097 C   0  0  0  0  0  0  0  0  0  0  0  0
  -26.3156  -26.5653   21.5310 C   0  0  0  0  0  0  0  0  0  0  0  0
  -30.6518  -25.9002   24.1626 C   0  0  0  0  0  0  0  0  0  0  0  0
  -26.2495  -11.2030   20.2260 C   0  0  0  0  0  0  0  0  0  0  0  0
  -27.0921  -18.1241   20.1151 C   0  0  0  0  0  0  0  0  0  0  0  0
  -27.8492  -19.9420   21.7368 C   0  0  0  0  0  0  0  0  0  0  0  0
  -19.5256  -32.6167   22.1522 C   0  0  0  0  0  0  0  0  0  0  0  0
  -24.2056  -27.1998   20.5284 C   0  0  0  0  0  0  0  0  0  0  0  0
  -20.7839  -32.0708   21.8345 C   0  0  0  0  0  0  0  0  0  0  0  0
  -24.9241  -26.7167   21.6313 C   0  0  0  0  0  0  0  0  0  0  0  0
  -31.5471  -26.2476   23.1662 C   0  0  0  0  0  0  0  0  0  0  0  0
  -25.8276  -15.7282   19.4495 C   0  0  0  0  0  0  0  0  0  0  0  0
  -26.9813  -26.8781   20.3461 C   0  0  0  0  0  0  0  0  0  0  0  0
  -25.4426  -13.4620   19.9377 C   0  0  0  0  0  0  0  0  0  0  0  0
  -25.9097  -11.2542   21.5779 C   0  0  0  0  0  0  0  0  0  0  0  0
  -26.0159  -12.3069   19.4059 C   0  0  0  0  0  0  0  0  0  0  0  0
  -27.7459  -19.3613   20.4585 C   0  0  0  0  0  0  0  0  0  0  0  0
  -30.8624  -24.7135   24.8354 C   0  0  0  0  0  0  0  0  0  0  0  0
  -32.5940  -25.3853   22.9090 C   0  0  0  0  0  0  0  0  0  0  0  0
  -28.5577  -21.1006   21.5313 C   0  0  0  0  0  0  0  0  0  0  0  0
  -27.3495  -19.4757   22.9971 C   0  0  0  0  0  0  0  0  0  0  0  0
  -22.4598  -28.8670   22.5963 C   0  0  0  0  0  0  0  0  0  0  0  0
  -21.9661  -25.9526   23.9324 C   0  0  0  0  0  0  0  0  0  0  0  0
  -23.0553  -22.7498   24.3826 C   0  0  0  0  0  0  0  0  0  0  0  0
  -32.8076  -23.8557   19.1876 C   0  0  0  0  0  0  0  0  0  0  0  0
  -18.8809  -32.3937   23.4973 C   0  0  0  0  0  0  0  0  0  0  0  0
  -22.7105  -27.3488   20.5992 C   0  0  0  0  0  0  0  0  0  0  0  0
  -24.2438  -26.3622   22.9274 C   0  0  0  0  0  0  0  0  0  0  0  0
  -19.4724  -31.2166   24.2687 C   0  0  0  0  0  0  0  0  0  0  0  0
  -29.8520  -23.4519   17.2438 C   0  0  0  0  0  0  0  0  0  0  0  0
  -20.9966  -31.2672   24.2334 C   0  0  0  0  0  0  0  0  0  0  0  0
  -29.0526  -22.3956   18.0088 C   0  0  0  0  0  0  0  0  0  0  0  0
  -31.3527  -23.1753   17.3016 C   0  0  0  0  0  0  0  0  0  0  0  0
  -31.1004  -21.9517   19.4260 C   0  0  0  0  0  0  0  0  0  0  0  0
  -21.5190  -31.1618   22.7955 C   0  0  1  0  0  0  0  0  0  0  0  0
  -22.1924  -27.5029   22.0258 C   0  0  1  0  0  0  0  0  0  0  0  0
  -29.5856  -22.2191   19.4434 C   0  0  2  0  0  0  0  0  0  0  0  0
  -29.9270  -24.2931   25.9168 C   0  0  0  0  0  0  0  0  0  0  0  0
  -34.7513  -26.5665   22.3846 C   0  0  0  0  0  0  0  0  0  0  0  0
  -22.4597  -20.6132   25.5563 C   0  0  0  0  0  0  0  0  0  0  0  0
  -30.4389  -28.7336   20.3948 C   0  0  0  0  0  0  0  0  0  0  0  0
  -22.9197  -27.1416   26.5756 C   0  0  0  0  0  0  0  0  0  0  0  0
  -23.2099  -24.8098   27.4398 C   0  0  0  0  0  0  0  0  0  0  0  0
  -20.9468  -25.6169   26.7690 C   0  0  0  0  0  0  0  0  0  0  0  0
  -22.8377  -21.2715   21.8280 C   0  0  0  0  0  0  0  0  0  0  0  0
  -31.3632  -27.5349   22.3999 C   0  0  0  0  0  0  0  0  0  0  0  0
  -34.1838  -24.4312   21.1710 C   0  0  0  0  0  0  0  0  0  0  0  0
  -29.0798  -26.8972   21.4649 C   0  0  0  0  0  0  0  0  0  1  0  0
  -33.5974  -25.6931   21.8493 C   0  0  1  0  0  0  0  0  0  0  0  0
  -22.6672  -25.1255   24.9827 C   0  0  1  0  0  0  0  0  0  0  0  0
  -22.3378  -21.4168   24.2709 C   0  0  2  0  0  0  0  0  0  0  0  0
  -30.4956  -27.3904   21.1337 C   0  0  1  0  0  0  0  0  0  0  0  0
  -22.4493  -25.6819   26.4181 C   0  0  0  0  0  0  0  0  0  0  0  0
  -28.3410  -20.0909   19.5111 N   0  0  0  0  0  0  0  0  0  0  0  0
  -31.8957  -23.8888   24.5626 N   0  0  0  0  0  0  0  0  0  0  0  0
  -32.7758  -24.2304   23.5836 N   0  0  0  0  0  0  0  0  0  0  0  0
  -28.8250  -21.1420   20.1946 N   0  0  0  0  0  0  0  0  0  0  0  0
  -22.7814  -26.5310   22.9492 N   0  0  0  0  0  0  0  0  0  0  0  0
  -31.7945  -23.0198   18.6896 N   0  0  0  0  0  0  0  0  0  0  0  0
  -28.9718  -22.0778   22.3656 N   0  0  0  0  0  0  0  0  0  0  0  0
  -26.6429  -18.2658   23.0294 N   0  0  0  0  0  0  0  0  0  0  0  0
  -21.4646  -29.7901   22.3374 N   0  0  0  0  0  0  0  0  0  0  0  0
  -22.2060  -23.7539   24.7971 N   0  0  0  0  0  0  0  0  0  0  0  0
  -33.1622  -23.6461   20.5146 N   0  0  0  0  0  0  0  0  0  0  0  0
  -22.9123  -20.6110   23.1566 N   0  3  0  0  0  0  0  0  0  0  0  0
  -27.5101  -20.1214   24.0605 O   0  0  0  0  0  0  0  0  0  0  0  0
  -23.4918  -29.0668   23.2261 O   0  0  0  0  0  0  0  0  0  0  0  0
  -20.7395  -26.0750   23.9783 O   0  0  0  0  0  0  0  0  0  0  0  0
  -24.2506  -22.8860   24.1311 O   0  0  0  0  0  0  0  0  0  0  0  0
  -33.3518  -24.7279   18.5020 O   0  0  0  0  0  0  0  0  0  0  0  0
  -25.2109  -14.5590   19.1250 O   0  0  0  0  0  0  0  0  0  0  0  0
  -28.3309  -26.7248   20.2625 O   0  0  0  0  0  0  0  0  0  1  0  0
  -26.1353  -10.1948   22.3659 F   0  0  0  0  0  0  0  0  0  0  0  0
  -26.3455  -12.2522   18.1081 F   0  0  0  0  0  0  0  0  0  0  0  0
  1  2  1  0  0  0  0
  1  5  2  0  0  0  0
  2  6  2  0  0  0  0
  3  8  2  0  0  0  0
  3 16  1  0  0  0  0
  4  9  1  0  0  0  0
  4 16  2  0  0  0  0
  5 18  1  0  0  0  0
  6 20  1  0  0  0  0
  7 10  2  0  0  0  0
  7 19  1  0  0  0  0
  8 23  1  0  0  0  0
  9 23  2  0  0  0  0
 10 24  1  0  0  0  0
 11 12  2  0  0  0  0
 11 25  1  0  0  0  0
 12 26  1  0  0  0  0
 13 21  1  0  0  0  0
 13 24  2  0  0  0  0
 14 22  1  0  0  0  0
 14 29  2  0  0  0  0
 15 26  2  0  0  0  0
 15 27  1  0  0  0  0
 16 28  1  0  0  0  0
 17 28  1  0  0  0  0
 17 31  2  0  0  0  0
 17 32  1  0  0  0  0
 18 20  2  0  0  0  0
 18 37  1  0  0  0  0
 19 21  2  0  0  0  0
 19 38  1  0  0  0  0
 20 46  1  0  0  0  0
 21 39  1  0  0  0  0
 22 30  2  0  0  0  0
 22 57  1  0  0  0  0
 23 82  1  0  0  0  0
 24 83  1  0  0  0  0
 25 27  2  0  0  0  0
 25 82  1  0  0  0  0
 26 84  1  0  0  0  0
 27 85  1  0  0  0  0
 28 65  2  0  0  0  0
 29 49  1  0  0  0  0
 29 66  1  0  0  0  0
 30 60  1  0  0  0  0
 30 67  1  0  0  0  0
 31 68  1  0  0  0  0
 31 71  1  0  0  0  0
 32 72  1  0  0  0  0
 32 77  2  0  0  0  0
 33 47  1  0  0  0  0
 33 73  1  0  0  0  0
 33 78  2  0  0  0  0
 34 61  1  0  0  0  0
 34 69  1  0  0  0  0
 34 79  2  0  0  0  0
 35 62  1  0  0  0  0
 35 74  1  0  0  0  0
 35 80  2  0  0  0  0
 36 70  1  0  0  0  0
 36 75  1  0  0  0  0
 36 81  2  0  0  0  0
 37 40  1  0  0  0  0
 38 47  1  0  0  0  0
 39 69  1  0  0  0  0
 40 42  1  0  0  0  0
 41 43  1  0  0  0  0
 41 44  1  0  0  0  0
 42 46  1  0  0  0  0
 43 48  1  0  0  0  0
 44 70  1  0  0  0  0
 45 48  1  0  0  0  0
 45 70  1  0  0  0  0
 46 73  1  0  0  0  0
 47 69  1  0  0  0  0
 48 68  1  0  0  0  0
 50 60  1  0  0  0  0
 51 62  1  0  0  0  0
 52 63  1  0  0  0  0
 53 64  1  0  0  0  0
 54 64  1  0  0  0  0
 55 64  1  0  0  0  0
 56 76  1  0  0  0  0
 57 63  1  0  0  0  0
 58 60  1  0  0  0  0
 58 75  1  0  0  0  0
 59 63  1  0  0  0  0
 59 83  1  0  0  0  0
 61 64  1  0  0  0  0
 61 74  1  0  0  0  0
 62 76  1  0  0  0  0
 65 68  1  0  0  0  0
 66 67  2  0  0  0  0
M  CHG  1  76   1
M  ISO  4  36 100  59 101  75 100  83 101
M  END
> <Batch ID>
0081

> <Smiles>
CNC(C)C(=O)NC(C(=O)N1Cc2cc([101O:1][101CH2:1]C(C)Cc3cc(C)nnc3C(C)C[100NH:0][100C:0](=O)N3CCCC(n4nc(-c5ccc(Oc6ccc(F)cc6F)cc5)c(C(N)=O)c4N)C3)ccc2CC1C(=O)NC1CCCc2ccccc21)C(C)(C)C

> <Shape>
0.167

> <Color>
0.074

> <Negative vol penalty>
0.000

$$$$

  -OEChem-04052318463D

 90 98  0     1  0  0  0  0  0999 V2000
  -28.4559  -35.4207   22.4965 C   0  0  0  0  0  0  0  0  0  0  0  0
  -27.2901  -34.7754   22.0966 C   0  0  0  0  0  0  0  0  0  0  0  0
  -23.1459   -9.7265   19.9733 C   0  0  0  0  0  0  0  0  0  0  0  0
  -23.8318   -9.8678   22.2856 C   0  0  0  0  0  0  0  0  0  0  0  0
  -29.6728  -35.0919   21.9008 C   0  0  0  0  0  0  0  0  0  0  0  0
  -27.3405  -33.8015   21.0999 C   0  0  0  0  0  0  0  0  0  0  0  0
  -25.0945  -27.0759   22.3701 C   0  0  0  0  0  0  0  0  0  0  0  0
  -22.4577   -8.5451   20.2496 C   0  0  0  0  0  0  0  0  0  0  0  0
  -23.1436   -8.6864   22.5619 C   0  0  0  0  0  0  0  0  0  0  0  0
  -24.4885  -25.8235   22.4717 C   0  0  0  0  0  0  0  0  0  0  0  0
  -23.6303   -5.3657   22.1532 C   0  0  0  0  0  0  0  0  0  0  0  0
  -24.2772   -4.4057   22.9312 C   0  0  0  0  0  0  0  0  0  0  0  0
  -25.1968  -25.2863   20.2228 C   0  0  0  0  0  0  0  0  0  0  0  0
  -27.8981  -18.4487   19.4748 C   0  0  0  0  0  0  0  0  0  0  0  0
  -22.5161   -4.5539   24.5786 C   0  0  0  0  0  0  0  0  0  0  0  0
  -27.7967  -19.0562   21.6406 C   0  0  0  0  0  0  0  0  0  0  0  0
  -23.8330  -10.3878   20.9913 C   0  0  0  0  0  0  0  0  0  0  0  0
  -24.0420  -12.9210   20.7754 C   0  0  0  0  0  0  0  0  0  0  0  0
  -29.7396  -34.1066   20.9031 C   0  0  0  0  0  0  0  0  0  0  0  0
  -25.7681  -27.4327   21.1986 C   0  0  0  0  0  0  0  0  0  0  0  0
  -28.5593  -33.4601   20.4894 C   0  0  0  0  0  0  0  0  0  0  0  0
  -25.8165  -26.5346   20.1198 C   0  0  0  0  0  0  0  0  0  0  0  0
  -28.6556  -18.6080   20.6614 C   0  0  0  0  0  0  0  0  0  0  0  0
  -22.4565   -8.0251   21.5439 C   0  0  0  0  0  0  0  0  0  0  0  0
  -24.5393  -24.9310   21.4006 C   0  0  0  0  0  0  0  0  0  0  0  0
  -22.4263   -5.9200   22.5879 C   0  0  0  0  0  0  0  0  0  0  0  0
  -23.7201   -3.9997   24.1439 C   0  0  0  0  0  0  0  0  0  0  0  0
  -21.8692   -5.5141   23.8006 C   0  0  0  0  0  0  0  0  0  0  0  0
  -24.5446  -11.6079   20.7064 C   0  0  0  0  0  0  0  0  0  0  0  0
  -26.5995  -18.8047   19.7650 C   0  0  0  0  0  0  0  0  0  0  0  0
  -25.1031  -13.7143   20.4131 C   0  0  0  0  0  0  0  0  0  0  0  0
  -22.7331  -13.3826   21.1351 C   0  0  0  0  0  0  0  0  0  0  0  0
  -27.7677  -30.0285   19.3711 C   0  0  0  0  0  0  0  0  0  0  0  0
  -29.0382  -27.3108   18.7304 C   0  0  0  0  0  0  0  0  0  0  0  0
  -30.3884  -24.1802   18.6138 C   0  0  0  0  0  0  0  0  0  0  0  0
  -30.5154  -15.0406   20.7185 C   0  0  0  0  0  0  0  0  0  0  0  0
  -31.0707  -33.8187   20.2552 C   0  0  0  0  0  0  0  0  0  0  0  0
  -26.3825  -28.7948   21.0222 C   0  0  0  0  0  0  0  0  0  0  0  0
  -26.5224  -26.9747   18.8664 C   0  0  0  0  0  0  0  0  0  0  0  0
  -31.0955  -32.5099   19.4699 C   0  0  0  0  0  0  0  0  0  0  0  0
  -29.5835  -12.5028   18.4017 C   0  0  0  0  0  0  0  0  0  0  0  0
  -29.8579  -32.3942   18.5859 C   0  0  0  0  0  0  0  0  0  0  0  0
  -28.1510  -12.1480   18.8044 C   0  0  0  0  0  0  0  0  0  0  0  0
  -30.4492  -12.8220   19.6185 C   0  0  0  0  0  0  0  0  0  0  0  0
  -28.4682  -13.5025   20.9171 C   0  0  0  0  0  0  0  0  0  0  0  0
  -28.5770  -32.3806   19.4289 C   0  0  1  0  0  0  0  0  0  0  0  0
  -27.6731  -28.7706   20.1837 C   0  0  1  0  0  0  0  0  0  0  0  0
  -27.5423  -13.2272   19.7199 C   0  0  2  0  0  0  0  0  0  0  0  0
  -30.8990  -19.6190   21.1800 C   0  0  0  0  0  0  0  0  0  0  0  0
  -32.0521  -22.3806   18.0746 C   0  0  0  0  0  0  0  0  0  0  0  0
  -23.5073  -22.7053   17.4398 C   0  0  0  0  0  0  0  0  0  0  0  0
  -24.9249  -21.7487   15.6186 C   0  0  0  0  0  0  0  0  0  0  0  0
  -22.4570  -21.3599   15.6034 C   0  0  0  0  0  0  0  0  0  0  0  0
  -27.6073  -27.3011   16.0366 C   0  0  0  0  0  0  0  0  0  0  0  0
  -28.9782  -25.3066   15.3957 C   0  0  0  0  0  0  0  0  0  0  0  0
  -30.0978  -27.4792   15.8948 C   0  0  0  0  0  0  0  0  0  0  0  0
  -31.9098  -24.6798   21.1027 C   0  0  0  0  0  0  0  0  0  0  0  0
  -25.4050  -18.8243   18.8954 C   0  0  0  0  0  0  0  0  0  0  0  0
  -25.2103  -20.1784   18.1800 C   0  0  0  0  0  0  0  0  0  0  0  0
  -25.2442  -21.1556   22.0094 C   0  0  0  0  0  0  0  0  0  0  0  0
  -23.9472  -21.6130   22.6785 C   0  0  0  0  0  0  0  0  0  0  0  0
  -23.9408  -20.1954   17.3193 C   0  0  0  0  0  0  0  0  0  0  0  0
  -25.3215  -19.6355   21.8267 C   0  0  0  0  0  0  0  0  0  0  0  0
  -30.4265  -17.2396   21.8654 C   0  0  0  0  0  0  0  0  0  0  0  0
  -23.8907  -23.1289   22.8110 C   0  0  0  0  0  0  0  0  0  1  0  0
  -30.0981  -18.3427   20.8205 C   0  0  1  0  0  0  0  0  0  0  0  0
  -29.1013  -26.1343   17.7896 C   0  0  1  0  0  0  0  0  0  0  0  0
  -31.8108  -23.6884   18.8123 C   0  0  2  0  0  0  0  0  0  0  0  0
  -23.6922  -21.4956   16.5089 C   0  0  0  0  0  0  0  0  0  0  0  0
  -28.9299  -26.5548   16.3025 C   0  0  0  0  0  0  0  0  0  0  0  0
  -25.8253  -11.5651   20.3296 N   0  0  0  0  0  0  0  0  0  0  0  0
  -26.5497  -19.1724   21.0842 N   0  0  0  0  0  0  0  0  0  0  0  0
  -26.1364  -12.8612   20.1586 N   0  0  0  0  0  0  0  0  0  0  0  0
  -27.7730  -27.6688   19.2116 N   0  0  0  0  0  0  0  0  0  0  0  0
  -29.8165  -13.8535   20.4441 N   0  0  0  0  0  0  0  0  0  0  0  0
  -25.2438  -15.0513   20.2904 N   0  0  0  0  0  0  0  0  0  0  0  0
  -21.7615  -12.4334   21.4805 N   0  0  0  0  0  0  0  0  0  0  0  0
  -28.3804  -31.0782   20.0285 N   0  0  0  0  0  0  0  0  0  0  0  0
  -30.3572  -25.4495   18.0760 N   0  0  0  0  0  0  0  0  0  0  0  0
  -29.8410  -15.9682   21.5030 N   0  0  0  0  0  0  0  0  0  0  0  0
  -32.0855  -23.4687   20.2605 N   0  3  0  0  0  0  0  0  0  0  0  0
  -22.4293  -14.5996   21.1338 O   0  0  0  0  0  0  0  0  0  0  0  0
  -27.3195  -30.0462   18.2307 O   0  0  0  0  0  0  0  0  0  0  0  0
  -30.0801  -27.9017   19.0279 O   0  0  0  0  0  0  0  0  0  0  0  0
  -29.4034  -23.5044   18.9032 O   0  0  0  0  0  0  0  0  0  0  0  0
  -31.6540  -15.2599   20.2913 O   0  0  0  0  0  0  0  0  0  0  0  0
  -21.7849   -6.8725   21.8140 O   0  0  0  0  0  0  0  0  0  0  0  0
  -23.9494  -23.7083   21.5082 O   0  0  0  0  0  0  0  0  0  1  0  0
  -24.3407   -3.0766   24.8902 F   0  0  0  0  0  0  0  0  0  0  0  0
  -20.7122   -6.0421   24.2228 F   0  0  0  0  0  0  0  0  0  0  0  0
  1  2  1  0  0  0  0
  1  5  2  0  0  0  0
  2  6  2  0  0  0  0
  3  8  2  0  0  0  0
  3 17  1  0  0  0  0
  4  9  1  0  0  0  0
  4 17  2  0  0  0  0
  5 19  1  0  0  0  0
  6 21  1  0  0  0  0
  7 10  2  0  0  0  0
  7 20  1  0  0  0  0
  8 24  1  0  0  0  0
  9 24  2  0  0  0  0
 10 25  1  0  0  0  0
 11 12  2  0  0  0  0
 11 26  1  0  0  0  0
 12 27  1  0  0  0  0
 13 22  1  0  0  0  0
 13 25  2  0  0  0  0
 14 23  1  0  0  0  0
 14 30  2  0  0  0  0
 15 27  2  0  0  0  0
 15 28  1  0  0  0  0
 16 23  2  0  0  0  0
 16 72  1  0  0  0  0
 17 29  1  0  0  0  0
 18 29  1  0  0  0  0
 18 31  2  0  0  0  0
 18 32  1  0  0  0  0
 19 21  2  0  0  0  0
 19 37  1  0  0  0  0
 20 22  2  0  0  0  0
 20 38  1  0  0  0  0
 21 46  1  0  0  0  0
 22 39  1  0  0  0  0
 23 66  1  0  0  0  0
 24 87  1  0  0  0  0
 25 88  1  0  0  0  0
 26 28  2  0  0  0  0
 26 87  1  0  0  0  0
 27 89  1  0  0  0  0
 28 90  1  0  0  0  0
 29 71  2  0  0  0  0
 30 58  1  0  0  0  0
 30 72  1  0  0  0  0
 31 73  1  0  0  0  0
 31 76  1  0  0  0  0
 32 77  1  0  0  0  0
 32 82  2  0  0  0  0
 33 47  1  0  0  0  0
 33 78  1  0  0  0  0
 33 83  2  0  0  0  0
 34 67  1  0  0  0  0
 34 74  1  0  0  0  0
 34 84  2  0  0  0  0
 35 68  1  0  0  0  0
 35 79  1  0  0  0  0
 35 85  2  0  0  0  0
 36 75  1  0  0  0  0
 36 80  1  0  0  0  0
 36 86  2  0  0  0  0
 37 40  1  0  0  0  0
 38 47  1  0  0  0  0
 39 74  1  0  0  0  0
 40 42  1  0  0  0  0
 41 43  1  0  0  0  0
 41 44  1  0  0  0  0
 42 46  1  0  0  0  0
 43 48  1  0  0  0  0
 44 75  1  0  0  0  0
 45 48  1  0  0  0  0
 45 75  1  0  0  0  0
 46 78  1  0  0  0  0
 47 74  1  0  0  0  0
 48 73  1  0  0  0  0
 49 66  1  0  0  0  0
 50 68  1  0  0  0  0
 51 69  1  0  0  0  0
 52 69  1  0  0  0  0
 53 69  1  0  0  0  0
 54 70  1  0  0  0  0
 55 70  1  0  0  0  0
 56 70  1  0  0  0  0
 57 81  1  0  0  0  0
 58 59  1  0  0  0  0
 59 62  1  0  0  0  0
 60 61  1  0  0  0  0
 60 63  1  0  0  0  0
 61 65  1  0  0  0  0
 62 69  1  0  0  0  0
 63 72  1  0  0  0  0
 64 66  1  0  0  0  0
 64 80  1  0  0  0  0
 65 88  1  0  0  0  0
 67 70  1  0  0  0  0
 67 79  1  0  0  0  0
 68 81  1  0  0  0  0
 71 73  1  0  0  0  0
M  CHG  1  81   1
M  ISO  4  36 100  65 101  80 100  88 101
M  END
> <Batch ID>
0081

> <Smiles>
CNC(C)C(=O)NC(C(=O)N1Cc2cc([101O:1][101CH2:1]CCCn3cc(C(C)C[100NH:0][100C:0](=O)N4CCCC(n5nc(-c6ccc(Oc7ccc(F)cc7F)cc6)c(C(N)=O)c5N)C4)cc3CCCC(C)(C)C)ccc2CC1C(=O)NC1CCCc2ccccc21)C(C)(C)C

> <Shape>
0.267

> <Color>
0.209

> <Negative vol penalty>
0.000

$$$$

  -OEChem-04052318463D

 85 93  0     1  0  0  0  0  0999 V2000
  -25.3730  -35.2954   22.8991 C   0  0  0  0  0  0  0  0  0  0  0  0
  -25.7199  -34.1569   22.1805 C   0  0  0  0  0  0  0  0  0  0  0  0
  -26.3595  -14.8218   22.2339 C   0  0  0  0  0  0  0  0  0  0  0  0
  -26.1702  -14.0934   19.9382 C   0  0  0  0  0  0  0  0  0  0  0  0
  -24.3990  -35.2183   23.8923 C   0  0  0  0  0  0  0  0  0  0  0  0
  -25.0846  -32.9435   22.4468 C   0  0  0  0  0  0  0  0  0  0  0  0
  -26.0930  -29.1849   19.4369 C   0  0  0  0  0  0  0  0  0  0  0  0
  -25.5494  -13.7605   22.6375 C   0  0  0  0  0  0  0  0  0  0  0  0
  -25.3602  -13.0319   20.3418 C   0  0  0  0  0  0  0  0  0  0  0  0
  -27.3191  -28.5213   19.4445 C   0  0  0  0  0  0  0  0  0  0  0  0
  -23.2362  -11.4502   24.2297 C   0  0  0  0  0  0  0  0  0  0  0  0
  -22.2206  -11.7198   25.1470 C   0  0  0  0  0  0  0  0  0  0  0  0
  -26.3105  -26.6842   20.6391 C   0  0  0  0  0  0  0  0  0  0  0  0
  -21.2346  -13.2868   23.5948 C   0  0  0  0  0  0  0  0  0  0  0  0
  -29.0234  -23.4796   16.3321 C   0  0  0  0  0  0  0  0  0  0  0  0
  -26.6698  -14.9883   20.8842 C   0  0  0  0  0  0  0  0  0  0  0  0
  -28.9090  -16.0876   20.3499 C   0  0  0  0  0  0  0  0  0  0  0  0
  -23.7608  -34.0002   24.1788 C   0  0  0  0  0  0  0  0  0  0  0  0
  -24.9671  -28.6071   20.0409 C   0  0  0  0  0  0  0  0  0  0  0  0
  -24.0820  -32.8504   23.4291 C   0  0  0  0  0  0  0  0  0  0  0  0
  -25.0707  -27.3414   20.6355 C   0  0  0  0  0  0  0  0  0  0  0  0
  -25.0498  -12.8655   21.6915 C   0  0  0  0  0  0  0  0  0  0  0  0
  -27.4287  -27.2720   20.0481 C   0  0  0  0  0  0  0  0  0  0  0  0
  -23.2510  -12.0989   22.9949 C   0  0  0  0  0  0  0  0  0  0  0  0
  -21.2198  -12.6381   24.8296 C   0  0  0  0  0  0  0  0  0  0  0  0
  -22.2502  -13.0172   22.6775 C   0  0  0  0  0  0  0  0  0  0  0  0
  -27.5061  -16.0849   20.4666 C   0  0  0  0  0  0  0  0  0  0  0  0
  -28.8722  -24.6733   17.0078 C   0  0  0  0  0  0  0  0  0  0  0  0
  -27.9667  -23.1131   15.5239 C   0  0  0  0  0  0  0  0  0  0  0  0
  -29.2155  -17.3560   19.9213 C   0  0  0  0  0  0  0  0  0  0  0  0
  -26.8170  -24.9905   16.0899 C   0  0  0  0  0  0  0  0  0  0  0  0
  -29.8509  -15.0374   20.6060 C   0  0  0  0  0  0  0  0  0  0  0  0
  -23.0548  -29.4081   22.4503 C   0  0  0  0  0  0  0  0  0  0  0  0
  -21.3753  -26.8126   21.4679 C   0  0  0  0  0  0  0  0  0  0  0  0
  -21.3669  -23.8135   19.8394 C   0  0  0  0  0  0  0  0  0  0  0  0
  -25.6042  -21.3753   17.0331 C   0  0  0  0  0  0  0  0  0  0  0  0
  -22.7082  -33.9751   25.2590 C   0  0  0  0  0  0  0  0  0  0  0  0
  -23.6455  -29.3240   20.0008 C   0  0  0  0  0  0  0  0  0  0  0  0
  -23.8871  -26.6688   21.2799 C   0  0  0  0  0  0  0  0  0  0  0  0
  -22.4134  -32.5683   25.7691 C   0  0  0  0  0  0  0  0  0  0  0  0
  -27.6345  -21.8623   20.0896 C   0  0  0  0  0  0  0  0  0  0  0  0
  -22.1710  -31.6303   24.5961 C   0  0  0  0  0  0  0  0  0  0  0  0
  -27.8851  -20.4289   20.5549 C   0  0  0  0  0  0  0  0  0  0  0  0
  -26.3274  -21.9860   19.3124 C   0  0  0  0  0  0  0  0  0  0  0  0
  -26.4700  -19.6143   18.6276 C   0  0  0  0  0  0  0  0  0  0  0  0
  -23.4262  -31.5131   23.7222 C   0  0  1  0  0  0  0  0  0  0  0  0
  -22.6860  -28.8702   21.0966 C   0  0  1  0  0  0  0  0  0  0  0  0
  -27.8021  -19.4463   19.3738 C   0  0  2  0  0  0  0  0  0  0  0  0
  -24.6626  -25.7041   17.1557 C   0  0  0  0  0  0  0  0  0  0  0  0
  -20.4313  -21.7193   18.8213 C   0  0  0  0  0  0  0  0  0  0  0  0
  -21.5318  -25.7818   24.3354 C   0  0  0  0  0  0  0  0  0  0  0  0
  -20.8758  -23.5204   23.4845 C   0  0  0  0  0  0  0  0  0  0  0  0
  -19.3149  -25.4491   23.2268 C   0  0  0  0  0  0  0  0  0  0  0  0
  -25.1372  -20.5802   14.7463 C   0  0  0  0  0  0  0  0  0  0  0  0
  -20.8708  -25.1560   17.2489 C   0  0  0  0  0  0  0  0  0  0  0  0
  -29.9745  -25.1583   17.9152 C   0  0  0  0  0  0  0  0  0  0  0  0
  -28.0397  -21.8384   14.7517 C   0  0  0  0  0  0  0  0  0  0  0  0
  -25.5929  -25.8310   15.9520 C   0  0  0  0  0  0  0  0  0  0  0  0
  -29.8399  -24.6747   19.3607 C   0  0  0  0  0  0  0  0  0  0  0  0
  -27.4822  -20.6286   15.5106 C   0  0  0  0  0  0  0  0  0  0  0  0
  -28.5884  -25.1958   20.0577 C   0  0  0  0  0  0  0  0  0  1  0  0
  -21.3960  -25.3391   21.7954 C   0  0  1  0  0  0  0  0  0  0  0  0
  -20.4321  -23.2398   18.7899 C   0  0  2  0  0  0  0  0  0  0  0  0
  -20.8026  -25.0358   23.2002 C   0  0  0  0  0  0  0  0  0  0  0  0
  -26.9592  -17.2585   20.1388 N   0  0  0  0  0  0  0  0  0  0  0  0
  -27.7783  -25.4569   16.9096 N   0  0  0  0  0  0  0  0  0  0  0  0
  -26.8441  -23.8472   15.3788 N   0  0  0  0  0  0  0  0  0  0  0  0
  -28.0239  -18.0105   19.8119 N   0  0  0  0  0  0  0  0  0  0  0  0
  -22.6180  -27.4127   21.2204 N   0  0  0  0  0  0  0  0  0  0  0  0
  -26.2563  -21.0119   18.2228 N   0  0  0  0  0  0  0  0  0  0  0  0
  -30.3853  -17.9641   19.6311 N   0  0  0  0  0  0  0  0  0  0  0  0
  -29.3661  -13.7963   21.0406 N   0  0  0  0  0  0  0  0  0  0  0  0
  -23.0952  -30.7878   22.5154 N   0  0  0  0  0  0  0  0  0  0  0  0
  -20.7078  -24.6673   20.6984 N   0  0  0  0  0  0  0  0  0  0  0  0
  -26.0690  -20.7915   15.8449 N   0  0  0  0  0  0  0  0  0  0  0  0
  -20.8482  -23.6815   17.4287 N   0  3  0  0  0  0  0  0  0  0  0  0
  -31.0873  -15.1999   20.4697 O   0  0  0  0  0  0  0  0  0  0  0  0
  -23.2841  -28.6291   23.3680 O   0  0  0  0  0  0  0  0  0  0  0  0
  -20.2955  -27.4076   21.4260 O   0  0  0  0  0  0  0  0  0  0  0  0
  -22.5614  -23.5295   19.8942 O   0  0  0  0  0  0  0  0  0  0  0  0
  -24.6665  -22.1832   17.0317 O   0  0  0  0  0  0  0  0  0  0  0  0
  -24.2595  -11.8296   22.0850 O   0  0  0  0  0  0  0  0  0  0  0  0
  -28.6244  -26.6223   20.0575 O   0  0  0  0  0  0  0  0  0  1  0  0
  -20.2438  -12.8957   25.7100 F   0  0  0  0  0  0  0  0  0  0  0  0
  -22.2585  -13.6427   21.4924 F   0  0  0  0  0  0  0  0  0  0  0  0
  1  2  1  0  0  0  0
  1  5  2  0  0  0  0
  2  6  2  0  0  0  0
  3  8  2  0  0  0  0
  3 16  1  0  0  0  0
  4  9  1  0  0  0  0
  4 16  2  0  0  0  0
  5 18  1  0  0  0  0
  6 20  1  0  0  0  0
  7 10  2  0  0  0  0
  7 19  1  0  0  0  0
  8 22  1  0  0  0  0
  9 22  2  0  0  0  0
 10 23  1  0  0  0  0
 11 12  2  0  0  0  0
 11 24  1  0  0  0  0
 12 25  1  0  0  0  0
 13 21  1  0  0  0  0
 13 23  2  0  0  0  0
 14 25  2  0  0  0  0
 14 26  1  0  0  0  0
 15 28  2  0  0  0  0
 15 29  1  0  0  0  0
 16 27  1  0  0  0  0
 17 27  1  0  0  0  0
 17 30  2  0  0  0  0
 17 32  1  0  0  0  0
 18 20  2  0  0  0  0
 18 37  1  0  0  0  0
 19 21  2  0  0  0  0
 19 38  1  0  0  0  0
 20 46  1  0  0  0  0
 21 39  1  0  0  0  0
 22 82  1  0  0  0  0
 23 83  1  0  0  0  0
 24 26  2  0  0  0  0
 24 82  1  0  0  0  0
 25 84  1  0  0  0  0
 26 85  1  0  0  0  0
 27 65  2  0  0  0  0
 28 56  1  0  0  0  0
 28 66  1  0  0  0  0
 29 57  1  0  0  0  0
 29 67  2  0  0  0  0
 30 68  1  0  0  0  0
 30 71  1  0  0  0  0
 31 58  1  0  0  0  0
 31 66  2  0  0  0  0
 31 67  1  0  0  0  0
 32 72  1  0  0  0  0
 32 77  2  0  0  0  0
 33 47  1  0  0  0  0
 33 73  1  0  0  0  0
 33 78  2  0  0  0  0
 34 62  1  0  0  0  0
 34 69  1  0  0  0  0
 34 79  2  0  0  0  0
 35 63  1  0  0  0  0
 35 74  1  0  0  0  0
 35 80  2  0  0  0  0
 36 70  1  0  0  0  0
 36 75  1  0  0  0  0
 36 81  2  0  0  0  0
 37 40  1  0  0  0  0
 38 47  1  0  0  0  0
 39 69  1  0  0  0  0
 40 42  1  0  0  0  0
 41 43  1  0  0  0  0
 41 44  1  0  0  0  0
 42 46  1  0  0  0  0
 43 48  1  0  0  0  0
 44 70  1  0  0  0  0
 45 48  1  0  0  0  0
 45 70  1  0  0  0  0
 46 73  1  0  0  0  0
 47 69  1  0  0  0  0
 48 68  1  0  0  0  0
 49 58  1  0  0  0  0
 50 63  1  0  0  0  0
 51 64  1  0  0  0  0
 52 64  1  0  0  0  0
 53 64  1  0  0  0  0
 54 75  1  0  0  0  0
 55 76  1  0  0  0  0
 56 59  1  0  0  0  0
 57 60  1  0  0  0  0
 59 61  1  0  0  0  0
 60 75  1  0  0  0  0
 61 83  1  0  0  0  0
 62 64  1  0  0  0  0
 62 74  1  0  0  0  0
 63 76  1  0  0  0  0
 65 68  1  0  0  0  0
M  CHG  1  76   1
M  ISO  4  36 100  61 101  75 100  83 101
M  END
> <Batch ID>
0081

> <Smiles>
CCc1nc(CC[100N:0](C)[100C:0](=O)N2CCCC(n3nc(-c4ccc(Oc5ccc(F)cc5F)cc4)c(C(N)=O)c3N)C2)cc(CC[101CH2:1][101O:1]c2ccc3c(c2)CN(C(=O)C(NC(=O)C(C)NC)C(C)(C)C)C(C(=O)NC2CCCc4ccccc42)C3)n1

> <Shape>
0.229

> <Color>
0.079

> <Negative vol penalty>
0.000

$$$$

  -OEChem-04052318463D

 86 94  0     1  0  0  0  0  0999 V2000
  -34.2791  -21.1350   24.4898 C   0  0  0  0  0  0  0  0  0  0  0  0
  -33.2554  -20.8723   23.5852 C   0  0  0  0  0  0  0  0  0  0  0  0
  -23.0698   -9.8812   19.9353 C   0  0  0  0  0  0  0  0  0  0  0  0
  -23.8376   -9.8778   22.2261 C   0  0  0  0  0  0  0  0  0  0  0  0
  -34.0332  -21.9328   25.6065 C   0  0  0  0  0  0  0  0  0  0  0  0
  -31.9849  -21.4064   23.7972 C   0  0  0  0  0  0  0  0  0  0  0  0
  -29.9736  -23.3673   19.5836 C   0  0  0  0  0  0  0  0  0  0  0  0
  -22.3236   -8.7293   20.1837 C   0  0  0  0  0  0  0  0  0  0  0  0
  -23.0913   -8.7258   22.4745 C   0  0  0  0  0  0  0  0  0  0  0  0
  -29.4355  -22.4732   18.6591 C   0  0  0  0  0  0  0  0  0  0  0  0
  -19.8630   -7.9350   23.0852 C   0  0  0  0  0  0  0  0  0  0  0  0
  -19.1099   -7.8929   24.2586 C   0  0  0  0  0  0  0  0  0  0  0  0
  -27.2233  -22.9504   19.4943 C   0  0  0  0  0  0  0  0  0  0  0  0
  -20.3484   -5.9494   24.9838 C   0  0  0  0  0  0  0  0  0  0  0  0
  -23.8269  -10.4555   20.9565 C   0  0  0  0  0  0  0  0  0  0  0  0
  -24.1754  -12.9801   20.8444 C   0  0  0  0  0  0  0  0  0  0  0  0
  -32.7616  -22.4849   25.8273 C   0  0  0  0  0  0  0  0  0  0  0  0
  -29.1402  -24.0527   20.4793 C   0  0  0  0  0  0  0  0  0  0  0  0
  -31.7215  -22.2112   24.9186 C   0  0  0  0  0  0  0  0  0  0  0  0
  -27.7531  -23.8546   20.4275 C   0  0  0  0  0  0  0  0  0  0  0  0
  -26.4986  -19.0393   20.6897 C   0  0  0  0  0  0  0  0  0  0  0  0
  -22.3342   -8.1516   21.4533 C   0  0  0  0  0  0  0  0  0  0  0  0
  -28.0605  -22.2624   18.6163 C   0  0  0  0  0  0  0  0  0  0  0  0
  -20.8587   -6.9841   22.8611 C   0  0  0  0  0  0  0  0  0  0  0  0
  -19.3526   -6.9002   25.2079 C   0  0  0  0  0  0  0  0  0  0  0  0
  -21.1014   -5.9914   23.8104 C   0  0  0  0  0  0  0  0  0  0  0  0
  -24.5985  -11.6451   20.7004 C   0  0  0  0  0  0  0  0  0  0  0  0
  -27.1853  -19.0402   21.8867 C   0  0  0  0  0  0  0  0  0  0  0  0
  -27.2363  -18.6856   19.5785 C   0  0  0  0  0  0  0  0  0  0  0  0
  -25.2685  -13.7278   20.4801 C   0  0  0  0  0  0  0  0  0  0  0  0
  -29.1005  -18.3947   20.8463 C   0  0  0  0  0  0  0  0  0  0  0  0
  -22.9079  -13.4979   21.2696 C   0  0  0  0  0  0  0  0  0  0  0  0
  -28.8486  -24.1535   23.6429 C   0  0  0  0  0  0  0  0  0  0  0  0
  -26.7156  -26.5061   22.9812 C   0  0  0  0  0  0  0  0  0  0  0  0
  -24.5599  -27.9168   20.7430 C   0  0  0  0  0  0  0  0  0  0  0  0
  -30.7557  -14.7307   20.6532 C   0  0  0  0  0  0  0  0  0  0  0  0
  -32.5315  -23.3024   27.0736 C   0  0  0  0  0  0  0  0  0  0  0  0
  -29.7338  -25.0339   21.4526 C   0  0  0  0  0  0  0  0  0  0  0  0
  -26.8132  -24.5808   21.3536 C   0  0  0  0  0  0  0  0  0  0  0  0
  -31.2546  -24.1376   27.0271 C   0  0  0  0  0  0  0  0  0  0  0  0
  -29.6032  -12.3580   18.2618 C   0  0  0  0  0  0  0  0  0  0  0  0
  -30.0844  -23.2964   26.5274 C   0  0  0  0  0  0  0  0  0  0  0  0
  -28.1664  -12.0668   18.6986 C   0  0  0  0  0  0  0  0  0  0  0  0
  -30.5250  -12.5719   19.4603 C   0  0  0  0  0  0  0  0  0  0  0  0
  -28.6301  -13.3033   20.8561 C   0  0  0  0  0  0  0  0  0  0  0  0
  -30.3363  -22.7928   25.1010 C   0  0  1  0  0  0  0  0  0  0  0  0
  -28.8397  -25.2913   22.6616 C   0  0  1  0  0  0  0  0  0  0  0  0
  -27.6514  -13.1357   19.6812 C   0  0  2  0  0  0  0  0  0  0  0  0
  -25.0566  -19.3946   20.6037 C   0  0  0  0  0  0  0  0  0  0  0  0
  -26.4902  -19.4061   23.1569 C   0  0  0  0  0  0  0  0  0  0  0  0
  -22.9298  -29.8095   20.5024 C   0  0  0  0  0  0  0  0  0  0  0  0
  -24.6901  -24.9732   24.6716 C   0  0  0  0  0  0  0  0  0  0  0  0
  -22.8811  -26.3603   23.6365 C   0  0  0  0  0  0  0  0  0  0  0  0
  -24.6609  -27.4520   25.0015 C   0  0  0  0  0  0  0  0  0  0  0  0
  -28.3951  -17.8765   16.5686 C   0  0  0  0  0  0  0  0  0  0  0  0
  -26.5496  -19.3719   15.8162 C   0  0  0  0  0  0  0  0  0  0  0  0
  -26.1008  -29.1145   18.5181 C   0  0  0  0  0  0  0  0  0  0  0  0
  -26.5930  -18.6496   18.2119 C   0  0  0  0  0  0  0  0  0  0  0  0
  -30.5447  -18.0341   20.9336 C   0  0  0  0  0  0  0  0  0  0  0  0
  -30.8318  -16.8766   21.8976 C   0  0  0  0  0  0  0  0  0  0  0  0
  -28.3490  -20.2863   17.3249 C   0  0  0  0  0  0  0  0  0  1  0  0
  -25.2321  -26.5579   22.7067 C   0  0  1  0  0  0  0  0  0  0  0  0
  -24.3671  -29.3559   20.2999 C   0  0  2  0  0  0  0  0  0  0  0  0
  -24.3836  -26.3206   23.9878 C   0  0  0  0  0  0  0  0  0  0  0  0
  -27.4877  -19.0448   17.0002 C   0  0  0  0  0  0  0  0  0  0  0  0
  -25.8616  -11.5472   20.2775 N   0  0  0  0  0  0  0  0  0  0  0  0
  -28.4914  -18.7221   22.0018 N   0  0  0  0  0  0  0  0  0  0  0  0
  -28.5441  -18.3564   19.6205 N   0  0  0  0  0  0  0  0  0  0  0  0
  -26.2417  -12.8302   20.1524 N   0  0  0  0  0  0  0  0  0  0  0  0
  -27.4423  -25.5252   22.2917 N   0  0  0  0  0  0  0  0  0  0  0  0
  -29.9804  -13.5988   20.3519 N   0  0  0  0  0  0  0  0  0  0  0  0
  -25.4824  -15.0589   20.4111 N   0  0  0  0  0  0  0  0  0  0  0  0
  -21.8946  -12.5904   21.6070 N   0  0  0  0  0  0  0  0  0  0  0  0
  -30.1010  -23.8512   24.1425 N   0  0  0  0  0  0  0  0  0  0  0  0
  -24.9823  -27.8381   22.0532 N   0  0  0  0  0  0  0  0  0  0  0  0
  -30.1620  -15.6582   21.5007 N   0  0  0  0  0  0  0  0  0  0  0  0
  -24.7076  -29.5035   18.8565 N   0  3  0  0  0  0  0  0  0  0  0  0
  -22.6753  -14.7290   21.3321 O   0  0  0  0  0  0  0  0  0  0  0  0
  -27.7969  -23.5923   23.9269 O   0  0  0  0  0  0  0  0  0  0  0  0
  -27.2126  -27.3111   23.7728 O   0  0  0  0  0  0  0  0  0  0  0  0
  -24.3527  -26.9583   20.0022 O   0  0  0  0  0  0  0  0  0  0  0  0
  -31.8906  -14.9046   20.1963 O   0  0  0  0  0  0  0  0  0  0  0  0
  -21.6060   -7.0277   21.6961 O   0  0  0  0  0  0  0  0  0  0  0  0
  -27.5327  -21.3897   17.7153 O   0  0  0  0  0  0  0  0  0  1  0  0
  -18.6304   -6.8609   26.3353 F   0  0  0  0  0  0  0  0  0  0  0  0
  -22.0574   -5.0759   23.6012 F   0  0  0  0  0  0  0  0  0  0  0  0
  1  2  1  0  0  0  0
  1  5  2  0  0  0  0
  2  6  2  0  0  0  0
  3  8  2  0  0  0  0
  3 15  1  0  0  0  0
  4  9  1  0  0  0  0
  4 15  2  0  0  0  0
  5 17  1  0  0  0  0
  6 19  1  0  0  0  0
  7 10  2  0  0  0  0
  7 18  1  0  0  0  0
  8 22  1  0  0  0  0
  9 22  2  0  0  0  0
 10 23  1  0  0  0  0
 11 12  2  0  0  0  0
 11 24  1  0  0  0  0
 12 25  1  0  0  0  0
 13 20  1  0  0  0  0
 13 23  2  0  0  0  0
 14 25  2  0  0  0  0
 14 26  1  0  0  0  0
 15 27  1  0  0  0  0
 16 27  1  0  0  0  0
 16 30  2  0  0  0  0
 16 32  1  0  0  0  0
 17 19  2  0  0  0  0
 17 37  1  0  0  0  0
 18 20  2  0  0  0  0
 18 38  1  0  0  0  0
 19 46  1  0  0  0  0
 20 39  1  0  0  0  0
 21 28  1  0  0  0  0
 21 29  2  0  0  0  0
 21 49  1  0  0  0  0
 22 83  1  0  0  0  0
 23 84  1  0  0  0  0
 24 26  2  0  0  0  0
 24 83  1  0  0  0  0
 25 85  1  0  0  0  0
 26 86  1  0  0  0  0
 27 66  2  0  0  0  0
 28 50  1  0  0  0  0
 28 67  2  0  0  0  0
 29 58  1  0  0  0  0
 29 68  1  0  0  0  0
 30 69  1  0  0  0  0
 30 72  1  0  0  0  0
 31 59  1  0  0  0  0
 31 67  1  0  0  0  0
 31 68  2  0  0  0  0
 32 73  1  0  0  0  0
 32 78  2  0  0  0  0
 33 47  1  0  0  0  0
 33 74  1  0  0  0  0
 33 79  2  0  0  0  0
 34 62  1  0  0  0  0
 34 70  1  0  0  0  0
 34 80  2  0  0  0  0
 35 63  1  0  0  0  0
 35 75  1  0  0  0  0
 35 81  2  0  0  0  0
 36 71  1  0  0  0  0
 36 76  1  0  0  0  0
 36 82  2  0  0  0  0
 37 40  1  0  0  0  0
 38 47  1  0  0  0  0
 39 70  1  0  0  0  0
 40 42  1  0  0  0  0
 41 43  1  0  0  0  0
 41 44  1  0  0  0  0
 42 46  1  0  0  0  0
 43 48  1  0  0  0  0
 44 71  1  0  0  0  0
 45 48  1  0  0  0  0
 45 71  1  0  0  0  0
 46 74  1  0  0  0  0
 47 70  1  0  0  0  0
 48 69  1  0  0  0  0
 51 63  1  0  0  0  0
 52 64  1  0  0  0  0
 53 64  1  0  0  0  0
 54 64  1  0  0  0  0
 55 65  1  0  0  0  0
 56 65  1  0  0  0  0
 57 77  1  0  0  0  0
 58 65  1  0  0  0  0
 59 60  1  0  0  0  0
 60 76  1  0  0  0  0
 61 65  1  0  0  0  0
 61 84  1  0  0  0  0
 62 64  1  0  0  0  0
 62 75  1  0  0  0  0
 63 77  1  0  0  0  0
 66 69  1  0  0  0  0
M  CHG  1  77   1
M  ISO  4  36 100  61 101  76 100  84 101
M  END
> <Batch ID>
0081

> <Smiles>
CNC(C)C(=O)NC(C(=O)N1Cc2cc([101O:1][101CH2:1]C(C)(C)Cc3nc(CC[100NH:0][100C:0](=O)N4CCCC(n5nc(-c6ccc(Oc7ccc(F)cc7F)cc6)c(C(N)=O)c5N)C4)nc(C)c3C)ccc2CC1C(=O)NC1CCCc2ccccc21)C(C)(C)C

> <Shape>
0.258

> <Color>
0.188

> <Negative vol penalty>
0.000

$$$$

  -OEChem-04052318463D

 84 92  0     1  0  0  0  0  0999 V2000
  -30.0213  -21.4081   21.0259 C   0  0  0  0  0  0  0  0  0  0  0  0
  -28.6409  -21.5195   21.1579 C   0  0  0  0  0  0  0  0  0  0  0  0
  -28.5523  -27.8424   18.1515 C   0  0  0  0  0  0  0  0  0  0  0  0
  -28.7678  -26.2035   19.9135 C   0  0  0  0  0  0  0  0  0  0  0  0
  -30.5741  -20.2780   20.4248 C   0  0  0  0  0  0  0  0  0  0  0  0
  -27.8123  -20.5011   20.6880 C   0  0  0  0  0  0  0  0  0  0  0  0
  -24.1505  -19.3036   23.9747 C   0  0  0  0  0  0  0  0  0  0  0  0
  -29.7913  -27.4560   17.6406 C   0  0  0  0  0  0  0  0  0  0  0  0
  -30.0068  -25.8170   19.4025 C   0  0  0  0  0  0  0  0  0  0  0  0
  -23.0507  -20.1578   24.0416 C   0  0  0  0  0  0  0  0  0  0  0  0
  -31.1681  -23.9042   16.8701 C   0  0  0  0  0  0  0  0  0  0  0  0
  -31.4263  -22.5376   16.7647 C   0  0  0  0  0  0  0  0  0  0  0  0
  -19.7073  -29.3121   22.5238 C   0  0  0  0  0  0  0  0  0  0  0  0
  -21.7930  -18.6373   22.6541 C   0  0  0  0  0  0  0  0  0  0  0  0
  -33.3195  -22.7810   18.2459 C   0  0  0  0  0  0  0  0  0  0  0  0
  -19.4905  -28.6262   21.3461 C   0  0  0  0  0  0  0  0  0  0  0  0
  -28.0405  -27.2161   19.2881 C   0  0  0  0  0  0  0  0  0  0  0  0
  -25.5000  -27.0873   19.4802 C   0  0  0  0  0  0  0  0  0  0  0  0
  -29.7523  -19.2409   19.9560 C   0  0  0  0  0  0  0  0  0  0  0  0
  -24.0833  -18.1131   23.2368 C   0  0  0  0  0  0  0  0  0  0  0  0
  -28.3545  -19.3567   20.0789 C   0  0  0  0  0  0  0  0  0  0  0  0
  -22.8925  -17.7684   22.5815 C   0  0  0  0  0  0  0  0  0  0  0  0
  -30.5186  -26.4433   18.2660 C   0  0  0  0  0  0  0  0  0  0  0  0
  -21.8726  -19.8261   23.3789 C   0  0  0  0  0  0  0  0  0  0  0  0
  -31.9857  -24.7094   17.6633 C   0  0  0  0  0  0  0  0  0  0  0  0
  -32.5020  -21.9759   17.4526 C   0  0  0  0  0  0  0  0  0  0  0  0
  -33.0613  -24.1477   18.3512 C   0  0  0  0  0  0  0  0  0  0  0  0
  -26.7609  -27.6152   19.8167 C   0  0  0  0  0  0  0  0  0  0  0  0
  -19.6858  -28.5477   23.6725 C   0  0  0  0  0  0  0  0  0  0  0  0
  -24.6132  -27.7984   20.2512 C   0  0  0  0  0  0  0  0  0  0  0  0
  -19.2723  -26.6629   22.4710 C   0  0  0  0  0  0  0  0  0  0  0  0
  -25.1607  -26.0472   18.5535 C   0  0  0  0  0  0  0  0  0  0  0  0
  -25.6242  -16.9489   20.7121 C   0  0  0  0  0  0  0  0  0  0  0  0
  -23.9055  -14.2807   21.3824 C   0  0  0  0  0  0  0  0  0  0  0  0
  -21.1358  -12.9051   22.8256 C   0  0  0  0  0  0  0  0  0  0  0  0
  -23.1269  -30.0463   25.1382 C   0  0  0  0  0  0  0  0  0  0  0  0
  -30.3934  -18.0602   19.2707 C   0  0  0  0  0  0  0  0  0  0  0  0
  -25.2698  -17.1895   23.1965 C   0  0  0  0  0  0  0  0  0  0  0  0
  -22.7623  -16.4921   21.7926 C   0  0  0  0  0  0  0  0  0  0  0  0
  -29.4650  -16.8558   19.1369 C   0  0  0  0  0  0  0  0  0  0  0  0
  -25.2822  -31.9598   23.0478 C   0  0  0  0  0  0  0  0  0  0  0  0
  -28.0957  -17.2915   18.6250 C   0  0  0  0  0  0  0  0  0  0  0  0
  -25.7596  -30.9554   21.9975 C   0  0  0  0  0  0  0  0  0  0  0  0
  -25.1329  -31.3112   24.4222 C   0  0  0  0  0  0  0  0  0  0  0  0
  -24.7623  -29.1002   23.3984 C   0  0  0  0  0  0  0  0  0  0  0  0
  -27.4239  -18.2619   19.6040 C   0  0  1  0  0  0  0  0  0  0  0  0
  -25.2574  -16.2530   21.9923 C   0  0  1  0  0  0  0  0  0  0  0  0
  -24.8742  -29.6947   21.9841 C   0  0  2  0  0  0  0  0  0  0  0  0
  -18.6744  -29.0844   25.9115 C   0  0  0  0  0  0  0  0  0  0  0  0
  -19.9855  -10.7027   23.1769 C   0  0  0  0  0  0  0  0  0  0  0  0
  -22.9458  -14.3229   18.4863 C   0  0  0  0  0  0  0  0  0  0  0  0
  -21.1244  -12.7343   19.1399 C   0  0  0  0  0  0  0  0  0  0  0  0
  -23.5130  -12.0509   19.3644 C   0  0  0  0  0  0  0  0  0  0  0  0
  -21.3481  -13.1318   25.7688 C   0  0  0  0  0  0  0  0  0  0  0  0
  -19.0270  -25.1754   22.4415 C   0  0  0  0  0  0  0  0  0  0  0  0
  -20.1653  -24.3480   23.0489 C   0  0  0  0  0  0  0  0  0  0  0  0
  -19.9334  -22.8402   22.9405 C   0  0  0  0  0  0  0  0  0  0  0  0
  -21.1546  -28.6667   25.7430 C   0  0  0  0  0  0  0  0  0  0  0  0
  -21.0638  -22.0527   23.5889 C   0  0  0  0  0  0  0  0  0  1  0  0
  -19.9097  -29.2015   24.9946 C   0  0  1  0  0  0  0  0  0  0  0  0
  -22.5533  -13.7491   20.9728 C   0  0  1  0  0  0  0  0  0  0  0  0
  -20.9685  -11.7120   23.7492 C   0  0  2  0  0  0  0  0  0  0  0  0
  -22.5369  -13.2394   19.5041 C   0  0  0  0  0  0  0  0  0  0  0  0
  -19.2690  -27.2968   21.2828 N   0  0  0  0  0  0  0  0  0  0  0  0
  -26.6860  -28.5867   20.7302 N   0  0  0  0  0  0  0  0  0  0  0  0
  -19.4702  -27.2159   23.6828 N   0  0  0  0  0  0  0  0  0  0  0  0
  -25.3674  -28.6750   20.9742 N   0  0  0  0  0  0  0  0  0  0  0  0
  -23.9521  -15.6250   21.7780 N   0  0  0  0  0  0  0  0  0  0  0  0
  -24.2806  -30.1225   24.3406 N   0  0  0  0  0  0  0  0  0  0  0  0
  -23.2696  -27.7531   20.3743 N   0  0  0  0  0  0  0  0  0  0  0  0
  -26.1946  -25.4212   17.8438 N   0  0  0  0  0  0  0  0  0  0  0  0
  -26.8724  -17.5413   20.7314 N   0  0  0  0  0  0  0  0  0  0  0  0
  -22.1964  -12.7367   21.9607 N   0  0  0  0  0  0  0  0  0  0  0  0
  -22.3720  -28.8886   24.9949 N   0  0  0  0  0  0  0  0  0  0  0  0
  -20.4661  -12.1542   25.0808 N   0  3  0  0  0  0  0  0  0  0  0  0
  -23.9744  -25.6949   18.3485 O   0  0  0  0  0  0  0  0  0  0  0  0
  -24.8338  -16.9472   19.7756 O   0  0  0  0  0  0  0  0  0  0  0  0
  -24.8832  -13.5289   21.3591 O   0  0  0  0  0  0  0  0  0  0  0  0
  -20.3970  -13.8866   22.8648 O   0  0  0  0  0  0  0  0  0  0  0  0
  -22.7915  -30.9459   25.9161 O   0  0  0  0  0  0  0  0  0  0  0  0
  -31.7276  -26.0659   17.7676 O   0  0  0  0  0  0  0  0  0  0  0  0
  -20.7978  -20.6584   23.4420 O   0  0  0  0  0  0  0  0  0  1  0  0
  -32.7488  -20.6632   17.3525 F   0  0  0  0  0  0  0  0  0  0  0  0
  -33.8495  -24.9159   19.1157 F   0  0  0  0  0  0  0  0  0  0  0  0
  1  2  1  0  0  0  0
  1  5  2  0  0  0  0
  2  6  2  0  0  0  0
  3  8  2  0  0  0  0
  3 17  1  0  0  0  0
  4  9  1  0  0  0  0
  4 17  2  0  0  0  0
  5 19  1  0  0  0  0
  6 21  1  0  0  0  0
  7 10  2  0  0  0  0
  7 20  1  0  0  0  0
  8 23  1  0  0  0  0
  9 23  2  0  0  0  0
 10 24  1  0  0  0  0
 11 12  2  0  0  0  0
 11 25  1  0  0  0  0
 12 26  1  0  0  0  0
 13 16  1  0  0  0  0
 13 29  2  0  0  0  0
 14 22  1  0  0  0  0
 14 24  2  0  0  0  0
 15 26  2  0  0  0  0
 15 27  1  0  0  0  0
 16 64  2  0  0  0  0
 17 28  1  0  0  0  0
 18 28  1  0  0  0  0
 18 30  2  0  0  0  0
 18 32  1  0  0  0  0
 19 21  2  0  0  0  0
 19 37  1  0  0  0  0
 20 22  2  0  0  0  0
 20 38  1  0  0  0  0
 21 46  1  0  0  0  0
 22 39  1  0  0  0  0
 23 81  1  0  0  0  0
 24 82  1  0  0  0  0
 25 27  2  0  0  0  0
 25 81  1  0  0  0  0
 26 83  1  0  0  0  0
 27 84  1  0  0  0  0
 28 65  2  0  0  0  0
 29 60  1  0  0  0  0
 29 66  1  0  0  0  0
 30 67  1  0  0  0  0
 30 70  1  0  0  0  0
 31 55  1  0  0  0  0
 31 64  1  0  0  0  0
 31 66  2  0  0  0  0
 32 71  1  0  0  0  0
 32 76  2  0  0  0  0
 33 47  1  0  0  0  0
 33 72  1  0  0  0  0
 33 77  2  0  0  0  0
 34 61  1  0  0  0  0
 34 68  1  0  0  0  0
 34 78  2  0  0  0  0
 35 62  1  0  0  0  0
 35 73  1  0  0  0  0
 35 79  2  0  0  0  0
 36 69  1  0  0  0  0
 36 74  1  0  0  0  0
 36 80  2  0  0  0  0
 37 40  1  0  0  0  0
 38 47  1  0  0  0  0
 39 68  1  0  0  0  0
 40 42  1  0  0  0  0
 41 43  1  0  0  0  0
 41 44  1  0  0  0  0
 42 46  1  0  0  0  0
 43 48  1  0  0  0  0
 44 69  1  0  0  0  0
 45 48  1  0  0  0  0
 45 69  1  0  0  0  0
 46 72  1  0  0  0  0
 47 68  1  0  0  0  0
 48 67  1  0  0  0  0
 49 60  1  0  0  0  0
 50 62  1  0  0  0  0
 51 63  1  0  0  0  0
 52 63  1  0  0  0  0
 53 63  1  0  0  0  0
 54 75  1  0  0  0  0
 55 56  1  0  0  0  0
 56 57  1  0  0  0  0
 57 59  1  0  0  0  0
 58 60  1  0  0  0  0
 58 74  1  0  0  0  0
 59 82  1  0  0  0  0
 61 63  1  0  0  0  0
 61 73  1  0  0  0  0
 62 75  1  0  0  0  0
 65 67  1  0  0  0  0
M  CHG  1  75   1
M  ISO  4  36 100  59 101  74 100  82 101
M  END
> <Batch ID>
0081

> <Smiles>
CNC(C)C(=O)NC(C(=O)N1Cc2cc([101O:1][101CH2:1]CCCc3nccc(C(C)C[100NH:0][100C:0](=O)N4CCCC(n5nc(-c6ccc(Oc7ccc(F)cc7F)cc6)c(C(N)=O)c5N)C4)n3)ccc2CC1C(=O)NC1CCCc2ccccc21)C(C)(C)C

> <Shape>
0.227

> <Color>
0.051

> <Negative vol penalty>
0.000

$$$$

  -OEChem-04052318463D

 83 90  0     1  0  0  0  0  0999 V2000
  -22.1030  -26.2250   21.9960 C   0  0  0  0  0  0  0  0  0  0  0  0
  -23.1416  -25.3425   21.7169 C   0  0  0  0  0  0  0  0  0  0  0  0
  -23.1866   -9.8623   19.9483 C   0  0  0  0  0  0  0  0  0  0  0  0
  -23.9401   -9.8576   22.2438 C   0  0  0  0  0  0  0  0  0  0  0  0
  -22.2080  -27.5641   21.6220 C   0  0  0  0  0  0  0  0  0  0  0  0
  -24.2855  -25.7984   21.0626 C   0  0  0  0  0  0  0  0  0  0  0  0
  -28.5512  -24.0797   23.1826 C   0  0  0  0  0  0  0  0  0  0  0  0
  -22.4937   -8.6729   20.1733 C   0  0  0  0  0  0  0  0  0  0  0  0
  -23.2472   -8.6681   22.4688 C   0  0  0  0  0  0  0  0  0  0  0  0
  -28.9199  -22.7659   22.8966 C   0  0  0  0  0  0  0  0  0  0  0  0
  -20.0559   -7.7172   23.0453 C   0  0  0  0  0  0  0  0  0  0  0  0
  -19.2988   -7.6209   24.2128 C   0  0  0  0  0  0  0  0  0  0  0  0
  -30.4963  -23.5715   21.2579 C   0  0  0  0  0  0  0  0  0  0  0  0
  -20.6227   -5.7258   24.9151 C   0  0  0  0  0  0  0  0  0  0  0  0
  -23.9098  -10.4547   20.9836 C   0  0  0  0  0  0  0  0  0  0  0  0
  -24.1402  -12.9943   20.9141 C   0  0  0  0  0  0  0  0  0  0  0  0
  -23.3578  -28.0386   20.9714 C   0  0  0  0  0  0  0  0  0  0  0  0
  -29.1455  -25.1505   22.4995 C   0  0  0  0  0  0  0  0  0  0  0  0
  -24.4054  -27.1447   20.6784 C   0  0  0  0  0  0  0  0  0  0  0  0
  -30.1352  -24.8980   21.5389 C   0  0  0  0  0  0  0  0  0  0  0  0
  -22.5239   -8.0757   21.4335 C   0  0  0  0  0  0  0  0  0  0  0  0
  -29.8905  -22.5115   21.9321 C   0  0  0  0  0  0  0  0  0  0  0  0
  -21.0964   -6.8177   22.8126 C   0  0  0  0  0  0  0  0  0  0  0  0
  -19.5821   -6.6252   25.1477 C   0  0  0  0  0  0  0  0  0  0  0  0
  -21.3798   -5.8221   23.7475 C   0  0  0  0  0  0  0  0  0  0  0  0
  -24.6262  -11.6831   20.7517 C   0  0  0  0  0  0  0  0  0  0  0  0
  -25.1991  -13.7982   20.5691 C   0  0  0  0  0  0  0  0  0  0  0  0
  -22.8473  -13.4453   21.3390 C   0  0  0  0  0  0  0  0  0  0  0  0
  -28.0865  -27.4478   20.5748 C   0  0  0  0  0  0  0  0  0  0  0  0
  -31.1405  -28.5156   20.8102 C   0  0  0  0  0  0  0  0  0  0  0  0
  -34.4192  -27.8022   21.4332 C   0  0  0  0  0  0  0  0  0  0  0  0
  -30.9718  -13.9970   20.9570 C   0  0  0  0  0  0  0  0  0  0  0  0
  -23.4058  -29.4843   20.5443 C   0  0  0  0  0  0  0  0  0  0  0  0
  -28.7559  -26.5632   22.8387 C   0  0  0  0  0  0  0  0  0  0  0  0
  -30.8181  -26.0134   20.7918 C   0  0  0  0  0  0  0  0  0  0  0  0
  -24.8092  -29.9682   20.1889 C   0  0  0  0  0  0  0  0  0  0  0  0
  -29.3210  -13.1805   17.9099 C   0  0  0  0  0  0  0  0  0  0  0  0
  -25.5096  -28.9579   19.2859 C   0  0  0  0  0  0  0  0  0  0  0  0
  -27.8969  -12.8330   18.3472 C   0  0  0  0  0  0  0  0  0  0  0  0
  -30.3551  -12.7117   18.9311 C   0  0  0  0  0  0  0  0  0  0  0  0
  -28.6940  -12.8291   20.7479 C   0  0  0  0  0  0  0  0  0  0  0  0
  -25.6727  -27.6067   19.9923 C   0  0  1  0  0  0  0  0  0  0  0  0
  -29.0575  -27.5519   21.7167 C   0  0  1  0  0  0  0  0  0  0  0  0
  -27.6119  -13.3314   19.7768 C   0  0  2  0  0  0  0  0  0  0  0  0
  -35.5710  -16.7488   21.3599 C   0  0  0  0  0  0  0  0  0  0  0  0
  -36.6875  -28.8727   21.5123 C   0  0  0  0  0  0  0  0  0  0  0  0
  -33.0328  -20.2277   23.8121 C   0  0  0  0  0  0  0  0  0  0  0  0
  -29.7891  -17.1553   23.1479 C   0  0  0  0  0  0  0  0  0  0  0  0
  -31.2401  -28.5241   17.7606 C   0  0  0  0  0  0  0  0  0  0  0  0
  -33.7352  -28.6661   17.9119 C   0  0  0  0  0  0  0  0  0  0  0  0
  -32.3244  -30.4995   18.8453 C   0  0  0  0  0  0  0  0  0  0  0  0
  -32.2473  -17.5470   24.9851 C   0  0  0  0  0  0  0  0  0  0  0  0
  -34.7538  -27.1522   24.3011 C   0  0  0  0  0  0  0  0  0  0  0  0
  -34.0908  -17.0309   21.5851 C   0  0  0  0  0  0  0  0  0  0  0  0
  -33.8024  -17.3191   23.0601 C   0  0  0  0  0  0  0  0  0  0  0  0
  -32.0441  -19.5943   21.5708 C   0  0  0  0  0  0  0  0  0  0  0  0
  -31.4383  -15.2588   23.0425 C   0  0  0  0  0  0  0  0  0  0  0  0
  -31.5896  -21.0105   21.2136 C   0  0  0  0  0  0  0  0  0  1  0  0
  -32.4190  -28.2756   20.0441 C   0  0  1  0  0  0  0  0  0  0  0  0
  -35.4506  -28.4894   22.3098 C   0  0  2  0  0  0  0  0  0  0  0  0
  -32.0595  -19.2716   23.0947 C   0  0  1  0  0  0  0  0  0  0  0  0
  -31.2396  -16.7706   22.7886 C   0  0  2  0  0  0  0  0  0  0  0  0
  -32.4156  -28.9700   18.6530 C   0  0  0  0  0  0  0  0  0  0  0  0
  -32.3374  -17.7367   23.4380 C   0  0  2  0  0  0  0  0  0  0  0  0
  -25.8951  -11.6514   20.3356 N   0  0  0  0  0  0  0  0  0  0  0  0
  -26.2153  -12.9526   20.2337 N   0  0  0  0  0  0  0  0  0  0  0  0
  -30.3982  -27.3771   21.1545 N   0  0  0  0  0  0  0  0  0  0  0  0
  -30.0279  -13.2199   20.2656 N   0  0  0  0  0  0  0  0  0  0  0  0
  -25.3508  -15.1388   20.5229 N   0  0  0  0  0  0  0  0  0  0  0  0
  -21.8757  -12.4860   21.6552 N   0  0  0  0  0  0  0  0  0  0  0  0
  -26.7693  -27.6585   20.9353 N   0  0  0  0  0  0  0  0  0  0  0  0
  -33.5057  -28.6989   20.9207 N   0  0  0  0  0  0  0  0  0  0  0  0
  -30.5792  -14.4439   22.2127 N   0  0  0  0  0  0  0  0  0  0  0  0
  -35.8684  -27.5889   23.4213 N   0  3  0  0  0  0  0  0  0  0  0  0
  -22.5569  -14.6630   21.4197 O   0  0  0  0  0  0  0  0  0  0  0  0
  -28.5018  -27.1965   19.4496 O   0  0  0  0  0  0  0  0  0  0  0  0
  -30.8161  -29.6702   21.0988 O   0  0  0  0  0  0  0  0  0  0  0  0
  -34.4256  -26.5916   21.2212 O   0  0  0  0  0  0  0  0  0  0  0  0
  -32.0802  -14.2767   20.4876 O   0  0  0  0  0  0  0  0  0  0  0  0
  -21.8477   -6.9152   21.6534 O   0  0  0  0  0  0  0  0  0  0  0  0
  -30.2546  -21.2200   21.6483 O   0  0  0  0  0  0  0  0  0  1  0  0
  -18.8559   -6.5338   26.2695 F   0  0  0  0  0  0  0  0  0  0  0  0
  -22.3790   -4.9559   23.5301 F   0  0  0  0  0  0  0  0  0  0  0  0
  1  2  1  0  0  0  0
  1  5  2  0  0  0  0
  2  6  2  0  0  0  0
  3  8  2  0  0  0  0
  3 15  1  0  0  0  0
  4  9  1  0  0  0  0
  4 15  2  0  0  0  0
  5 17  1  0  0  0  0
  6 19  1  0  0  0  0
  7 10  2  0  0  0  0
  7 18  1  0  0  0  0
  8 21  1  0  0  0  0
  9 21  2  0  0  0  0
 10 22  1  0  0  0  0
 11 12  2  0  0  0  0
 11 23  1  0  0  0  0
 12 24  1  0  0  0  0
 13 20  1  0  0  0  0
 13 22  2  0  0  0  0
 14 24  2  0  0  0  0
 14 25  1  0  0  0  0
 15 26  1  0  0  0  0
 16 26  1  0  0  0  0
 16 27  2  0  0  0  0
 16 28  1  0  0  0  0
 17 19  2  0  0  0  0
 17 33  1  0  0  0  0
 18 20  2  0  0  0  0
 18 34  1  0  0  0  0
 19 42  1  0  0  0  0
 20 35  1  0  0  0  0
 21 80  1  0  0  0  0
 22 81  1  0  0  0  0
 23 25  2  0  0  0  0
 23 80  1  0  0  0  0
 24 82  1  0  0  0  0
 25 83  1  0  0  0  0
 26 65  2  0  0  0  0
 27 66  1  0  0  0  0
 27 69  1  0  0  0  0
 28 70  1  0  0  0  0
 28 75  2  0  0  0  0
 29 43  1  0  0  0  0
 29 71  1  0  0  0  0
 29 76  2  0  0  0  0
 30 59  1  0  0  0  0
 30 67  1  0  0  0  0
 30 77  2  0  0  0  0
 31 60  1  0  0  0  0
 31 72  1  0  0  0  0
 31 78  2  0  0  0  0
 32 68  1  0  0  0  0
 32 73  1  0  0  0  0
 32 79  2  0  0  0  0
 33 36  1  0  0  0  0
 34 43  1  0  0  0  0
 35 67  1  0  0  0  0
 36 38  1  0  0  0  0
 37 39  1  0  0  0  0
 37 40  1  0  0  0  0
 38 42  1  0  0  0  0
 39 44  1  0  0  0  0
 40 68  1  0  0  0  0
 41 44  1  0  0  0  0
 41 68  1  0  0  0  0
 42 71  1  0  0  0  0
 43 67  1  0  0  0  0
 44 66  1  0  0  0  0
 45 54  1  0  0  0  0
 46 60  1  0  0  0  0
 47 61  1  0  0  0  0
 48 62  1  0  0  0  0
 49 63  1  0  0  0  0
 50 63  1  0  0  0  0
 51 63  1  0  0  0  0
 52 64  1  0  0  0  0
 53 74  1  0  0  0  0
 54 55  1  0  0  0  0
 55 64  1  0  0  0  0
 56 58  1  0  0  0  0
 56 61  1  0  0  0  0
 57 62  1  0  0  0  0
 57 73  1  0  0  0  0
 58 81  1  0  0  0  0
 59 63  1  0  0  0  0
 59 72  1  0  0  0  0
 60 74  1  0  0  0  0
 61 64  1  0  0  0  0
 62 64  1  0  0  0  0
 65 66  1  0  0  0  0
M  CHG  1  74   1
M  ISO  4  32 100  58 101  73 100  81 101
M  END
> <Batch ID>
0081

> <Smiles>
CCCC(C)(C(C)C[100NH:0][100C:0](=O)N1CCCC(n2nc(-c3ccc(Oc4ccc(F)cc4F)cc3)c(C(N)=O)c2N)C1)C(C)C[101CH2:1][101O:1]c1ccc2c(c1)CN(C(=O)C(NC(=O)C(C)NC)C(C)(C)C)C(C(=O)NC1CCCc3ccccc31)C2

> <Shape>
0.265

> <Color>
0.156

> <Negative vol penalty>
0.000

$$$$

  -OEChem-04052318463D

 84 92  0     1  0  0  0  0  0999 V2000
  -32.5681  -33.7644   23.6993 C   0  0  0  0  0  0  0  0  0  0  0  0
  -32.1169  -32.5115   23.2966 C   0  0  0  0  0  0  0  0  0  0  0  0
  -27.9569  -13.9492   22.2382 C   0  0  0  0  0  0  0  0  0  0  0  0
  -26.2889  -15.0566   20.8859 C   0  0  0  0  0  0  0  0  0  0  0  0
  -31.7952  -34.5372   24.5650 C   0  0  0  0  0  0  0  0  0  0  0  0
  -30.8930  -32.0302   23.7602 C   0  0  0  0  0  0  0  0  0  0  0  0
  -28.1082  -29.9405   20.0829 C   0  0  0  0  0  0  0  0  0  0  0  0
  -27.4809  -12.7099   21.8104 C   0  0  0  0  0  0  0  0  0  0  0  0
  -25.8130  -13.8172   20.4580 C   0  0  0  0  0  0  0  0  0  0  0  0
  -28.4530  -28.6519   19.6772 C   0  0  0  0  0  0  0  0  0  0  0  0
  -23.8417  -11.3521   21.6696 C   0  0  0  0  0  0  0  0  0  0  0  0
  -22.4605  -11.1579   21.6559 C   0  0  0  0  0  0  0  0  0  0  0  0
  -26.6690  -27.7549   21.0306 C   0  0  0  0  0  0  0  0  0  0  0  0
  -22.5424  -10.7438   19.2770 C   0  0  0  0  0  0  0  0  0  0  0  0
  -27.3608  -15.1226   21.7760 C   0  0  0  0  0  0  0  0  0  0  0  0
  -28.8574  -17.1823   21.6153 C   0  0  0  0  0  0  0  0  0  0  0  0
  -30.5568  -34.0692   25.0318 C   0  0  0  0  0  0  0  0  0  0  0  0
  -27.0463  -30.1454   20.9756 C   0  0  0  0  0  0  0  0  0  0  0  0
  -30.1035  -32.7969   24.6340 C   0  0  0  0  0  0  0  0  0  0  0  0
  -26.3111  -29.0472   21.4441 C   0  0  0  0  0  0  0  0  0  0  0  0
  -26.0908  -22.3716   19.6766 C   0  0  0  0  0  0  0  0  0  0  0  0
  -26.4090  -12.6439   20.9203 C   0  0  0  0  0  0  0  0  0  0  0  0
  -27.7352  -27.5587   20.1533 C   0  0  0  0  0  0  0  0  0  0  0  0
  -24.5732  -11.2423   20.4870 C   0  0  0  0  0  0  0  0  0  0  0  0
  -21.8109  -10.8537   20.4596 C   0  0  0  0  0  0  0  0  0  0  0  0
  -23.9236  -10.9381   19.2907 C   0  0  0  0  0  0  0  0  0  0  0  0
  -27.8516  -16.4032   22.2181 C   0  0  0  0  0  0  0  0  0  0  0  0
  -26.9141  -21.3256   20.1345 C   0  0  0  0  0  0  0  0  0  0  0  0
  -25.0700  -22.4317   20.5936 C   0  0  0  0  0  0  0  0  0  0  0  0
  -28.9511  -18.2976   22.4115 C   0  0  0  0  0  0  0  0  0  0  0  0
  -29.6370  -16.9213   20.4407 C   0  0  0  0  0  0  0  0  0  0  0  0
  -26.7755  -31.3716   23.8956 C   0  0  0  0  0  0  0  0  0  0  0  0
  -23.6041  -30.9615   23.3510 C   0  0  0  0  0  0  0  0  0  0  0  0
  -21.1454  -29.3102   21.6554 C   0  0  0  0  0  0  0  0  0  0  0  0
  -24.7582  -20.6105   26.2336 C   0  0  0  0  0  0  0  0  0  0  0  0
  -29.7787  -34.9205   26.0037 C   0  0  0  0  0  0  0  0  0  0  0  0
  -26.6700  -31.5436   21.3826 C   0  0  0  0  0  0  0  0  0  0  0  0
  -25.1496  -29.2151   22.3882 C   0  0  0  0  0  0  0  0  0  0  0  0
  -28.3199  -34.4962   26.1525 C   0  0  0  0  0  0  0  0  0  0  0  0
  -28.2978  -19.7660   26.9117 C   0  0  0  0  0  0  0  0  0  0  0  0
  -28.2186  -32.9839   26.3246 C   0  0  0  0  0  0  0  0  0  0  0  0
  -28.6390  -18.8154   25.7653 C   0  0  0  0  0  0  0  0  0  0  0  0
  -26.8146  -19.7179   27.2660 C   0  0  0  0  0  0  0  0  0  0  0  0
  -26.2519  -19.0141   24.9634 C   0  0  0  0  0  0  0  0  0  0  0  0
  -28.7699  -32.2507   25.0957 C   0  0  1  0  0  0  0  0  0  0  0  0
  -25.8975  -31.5958   22.6971 C   0  0  1  0  0  0  0  0  0  0  0  0
  -27.7303  -19.0726   24.5506 C   0  0  2  0  0  0  0  0  0  0  0  0
  -28.1602  -20.8248   19.5282 C   0  0  0  0  0  0  0  0  0  0  0  0
  -23.8889  -23.3112   20.6801 C   0  0  0  0  0  0  0  0  0  0  0  0
  -18.6484  -29.1661   21.4518 C   0  0  0  0  0  0  0  0  0  0  0  0
  -23.4824  -29.4064   25.9734 C   0  0  0  0  0  0  0  0  0  0  0  0
  -21.2611  -28.5030   25.2539 C   0  0  0  0  0  0  0  0  0  0  0  0
  -21.5580  -30.9569   25.5898 C   0  0  0  0  0  0  0  0  0  0  0  0
  -23.0578  -22.0948   25.2410 C   0  0  0  0  0  0  0  0  0  0  0  0
  -21.2159  -30.1046   18.8054 C   0  0  0  0  0  0  0  0  0  0  0  0
  -26.2826  -23.2338   18.4546 C   0  0  0  0  0  0  0  0  0  0  0  0
  -27.3563  -24.3110   18.6232 C   0  0  0  0  0  0  0  0  0  0  0  0
  -24.5458  -21.1214   22.6730 C   0  0  0  0  0  0  0  0  0  0  0  0
  -25.1299  -21.6770   23.9692 C   0  0  0  0  0  0  0  0  0  0  0  0
  -27.0186  -25.3371   19.6985 C   0  0  0  0  0  0  0  0  0  1  0  0
  -22.6156  -29.8439   23.5811 C   0  0  1  0  0  0  0  0  0  0  0  0
  -19.9171  -29.8135   20.9190 C   0  0  2  0  0  0  0  0  0  0  0  0
  -22.2523  -29.6739   25.0833 C   0  0  0  0  0  0  0  0  0  0  0  0
  -27.3430  -16.9750   23.3128 N   0  0  0  0  0  0  0  0  0  0  0  0
  -26.4561  -20.7618   21.2554 N   0  0  0  0  0  0  0  0  0  0  0  0
  -25.3339  -21.4562   21.5096 N   0  0  0  0  0  0  0  0  0  0  0  0
  -28.0319  -18.1252   23.4042 N   0  0  0  0  0  0  0  0  0  0  0  0
  -24.8244  -30.6015   22.7619 N   0  0  0  0  0  0  0  0  0  0  0  0
  -25.9737  -19.9223   26.0861 N   0  0  0  0  0  0  0  0  0  0  0  0
  -29.7294  -19.3990   22.3522 N   0  0  0  0  0  0  0  0  0  0  0  0
  -29.4126  -15.7276   19.7414 N   0  0  0  0  0  0  0  0  0  0  0  0
  -27.8080  -32.2821   24.0149 N   0  0  0  0  0  0  0  0  0  0  0  0
  -21.4734  -30.1252   22.7182 N   0  0  0  0  0  0  0  0  0  0  0  0
  -24.3069  -21.3546   25.1329 N   0  0  0  0  0  0  0  0  0  0  0  0
  -20.0247  -29.5094   19.4640 N   0  3  0  0  0  0  0  0  0  0  0  0
  -30.5184  -17.7152   20.0330 O   0  0  0  0  0  0  0  0  0  0  0  0
  -26.5331  -30.4423   24.6568 O   0  0  0  0  0  0  0  0  0  0  0  0
  -23.3018  -32.1125   23.6754 O   0  0  0  0  0  0  0  0  0  0  0  0
  -21.7510  -28.2935   21.3236 O   0  0  0  0  0  0  0  0  0  0  0  0
  -24.1180  -20.5704   27.2921 O   0  0  0  0  0  0  0  0  0  0  0  0
  -25.9445  -11.4347   20.5024 O   0  0  0  0  0  0  0  0  0  0  0  0
  -28.0701  -26.2999   19.7594 O   0  0  0  0  0  0  0  0  0  1  0  0
  -20.4847  -10.6657   20.4469 F   0  0  0  0  0  0  0  0  0  0  0  0
  -24.6212  -10.8301   18.1516 F   0  0  0  0  0  0  0  0  0  0  0  0
  1  2  1  0  0  0  0
  1  5  2  0  0  0  0
  2  6  2  0  0  0  0
  3  8  2  0  0  0  0
  3 15  1  0  0  0  0
  4  9  1  0  0  0  0
  4 15  2  0  0  0  0
  5 17  1  0  0  0  0
  6 19  1  0  0  0  0
  7 10  2  0  0  0  0
  7 18  1  0  0  0  0
  8 22  1  0  0  0  0
  9 22  2  0  0  0  0
 10 23  1  0  0  0  0
 11 12  2  0  0  0  0
 11 24  1  0  0  0  0
 12 25  1  0  0  0  0
 13 20  1  0  0  0  0
 13 23  2  0  0  0  0
 14 25  2  0  0  0  0
 14 26  1  0  0  0  0
 15 27  1  0  0  0  0
 16 27  1  0  0  0  0
 16 30  2  0  0  0  0
 16 31  1  0  0  0  0
 17 19  2  0  0  0  0
 17 36  1  0  0  0  0
 18 20  2  0  0  0  0
 18 37  1  0  0  0  0
 19 45  1  0  0  0  0
 20 38  1  0  0  0  0
 21 28  1  0  0  0  0
 21 29  2  0  0  0  0
 21 56  1  0  0  0  0
 22 81  1  0  0  0  0
 23 82  1  0  0  0  0
 24 26  2  0  0  0  0
 24 81  1  0  0  0  0
 25 83  1  0  0  0  0
 26 84  1  0  0  0  0
 27 64  2  0  0  0  0
 28 48  1  0  0  0  0
 28 65  2  0  0  0  0
 29 49  1  0  0  0  0
 29 66  1  0  0  0  0
 30 67  1  0  0  0  0
 30 70  1  0  0  0  0
 31 71  1  0  0  0  0
 31 76  2  0  0  0  0
 32 46  1  0  0  0  0
 32 72  1  0  0  0  0
 32 77  2  0  0  0  0
 33 61  1  0  0  0  0
 33 68  1  0  0  0  0
 33 78  2  0  0  0  0
 34 62  1  0  0  0  0
 34 73  1  0  0  0  0
 34 79  2  0  0  0  0
 35 69  1  0  0  0  0
 35 74  1  0  0  0  0
 35 80  2  0  0  0  0
 36 39  1  0  0  0  0
 37 46  1  0  0  0  0
 38 68  1  0  0  0  0
 39 41  1  0  0  0  0
 40 42  1  0  0  0  0
 40 43  1  0  0  0  0
 41 45  1  0  0  0  0
 42 47  1  0  0  0  0
 43 69  1  0  0  0  0
 44 47  1  0  0  0  0
 44 69  1  0  0  0  0
 45 72  1  0  0  0  0
 46 68  1  0  0  0  0
 47 67  1  0  0  0  0
 50 62  1  0  0  0  0
 51 63  1  0  0  0  0
 52 63  1  0  0  0  0
 53 63  1  0  0  0  0
 54 74  1  0  0  0  0
 55 75  1  0  0  0  0
 56 57  1  0  0  0  0
 57 60  1  0  0  0  0
 58 59  1  0  0  0  0
 58 66  1  0  0  0  0
 59 74  1  0  0  0  0
 60 82  1  0  0  0  0
 61 63  1  0  0  0  0
 61 73  1  0  0  0  0
 62 75  1  0  0  0  0
 64 67  1  0  0  0  0
 65 66  1  0  0  0  0
M  CHG  1  75   1
M  ISO  4  35 100  60 101  74 100  82 101
M  END
> <Batch ID>
0081

> <Smiles>
CNC(C)C(=O)NC(C(=O)N1Cc2cc([101O:1][101CH2:1]CCc3c(C)nn(CC[100N:0](C)[100C:0](=O)N4CCCC(n5nc(-c6ccc(Oc7ccc(F)cc7F)cc6)c(C(N)=O)c5N)C4)c3C)ccc2CC1C(=O)NC1CCCc2ccccc21)C(C)(C)C

> <Shape>
0.205

> <Color>
0.085

> <Negative vol penalty>
0.000

$$$$

  -OEChem-04052318463D

 83 91  0     1  0  0  0  0  0999 V2000
  -21.2952  -20.7901   26.1400 C   0  0  0  0  0  0  0  0  0  0  0  0
  -22.3803  -21.1111   25.3307 C   0  0  0  0  0  0  0  0  0  0  0  0
  -26.3228  -14.1272   22.9553 C   0  0  0  0  0  0  0  0  0  0  0  0
  -25.5856  -14.0290   20.6567 C   0  0  0  0  0  0  0  0  0  0  0  0
  -20.1530  -21.5895   26.1220 C   0  0  0  0  0  0  0  0  0  0  0  0
  -22.3234  -22.2312   24.5021 C   0  0  0  0  0  0  0  0  0  0  0  0
  -26.9549  -25.9548   23.0223 C   0  0  0  0  0  0  0  0  0  0  0  0
  -25.4528  -13.0861   23.2789 C   0  0  0  0  0  0  0  0  0  0  0  0
  -24.7156  -12.9878   20.9802 C   0  0  0  0  0  0  0  0  0  0  0  0
  -27.7822  -26.0235   21.9022 C   0  0  0  0  0  0  0  0  0  0  0  0
  -24.9123   -9.6589   21.5278 C   0  0  0  0  0  0  0  0  0  0  0  0
  -24.8719   -8.5598   20.6698 C   0  0  0  0  0  0  0  0  0  0  0  0
  -26.3537  -27.7232   20.9589 C   0  0  0  0  0  0  0  0  0  0  0  0
  -29.5408  -24.5870   18.1139 C   0  0  0  0  0  0  0  0  0  0  0  0
  -27.5315  -24.4736   16.7970 C   0  0  0  0  0  0  0  0  0  0  0  0
  -22.5238   -8.9609   20.2665 C   0  0  0  0  0  0  0  0  0  0  0  0
  -26.3892  -14.5987   21.6442 C   0  0  0  0  0  0  0  0  0  0  0  0
  -28.6250  -15.5643   20.8850 C   0  0  0  0  0  0  0  0  0  0  0  0
  -20.0859  -22.7254   25.2999 C   0  0  0  0  0  0  0  0  0  0  0  0
  -25.8130  -26.7634   23.1144 C   0  0  0  0  0  0  0  0  0  0  0  0
  -21.1788  -23.0458   24.4721 C   0  0  0  0  0  0  0  0  0  0  0  0
  -25.5151  -27.6648   22.0824 C   0  0  0  0  0  0  0  0  0  0  0  0
  -28.5132  -25.2275   17.4306 C   0  0  0  0  0  0  0  0  0  0  0  0
  -24.6492  -12.5164   22.2913 C   0  0  0  0  0  0  0  0  0  0  0  0
  -27.4801  -26.9056   20.8689 C   0  0  0  0  0  0  0  0  0  0  0  0
  -23.7584  -10.4089   21.7551 C   0  0  0  0  0  0  0  0  0  0  0  0
  -23.6777   -8.2109   20.0392 C   0  0  0  0  0  0  0  0  0  0  0  0
  -22.5642  -10.0600   21.1245 C   0  0  0  0  0  0  0  0  0  0  0  0
  -27.2873  -15.6746   21.3095 C   0  0  0  0  0  0  0  0  0  0  0  0
  -29.5416  -23.2016   18.1339 C   0  0  0  0  0  0  0  0  0  0  0  0
  -27.6223  -23.0933   16.8758 C   0  0  0  0  0  0  0  0  0  0  0  0
  -29.0338  -16.8621   20.6976 C   0  0  0  0  0  0  0  0  0  0  0  0
  -29.4264  -14.3935   20.6785 C   0  0  0  0  0  0  0  0  0  0  0  0
  -22.6887  -26.2172   23.3252 C   0  0  0  0  0  0  0  0  0  0  0  0
  -22.5485  -29.4331   23.7257 C   0  0  0  0  0  0  0  0  0  0  0  0
  -24.0018  -32.4807   23.2289 C   0  0  0  0  0  0  0  0  0  0  0  0
  -26.0865  -21.9302   19.4817 C   0  0  0  0  0  0  0  0  0  0  0  0
  -18.8118  -23.5323   25.2794 C   0  0  0  0  0  0  0  0  0  0  0  0
  -24.9456  -26.6966   24.3414 C   0  0  0  0  0  0  0  0  0  0  0  0
  -24.3121  -28.5690   22.1419 C   0  0  0  0  0  0  0  0  0  0  0  0
  -18.9760  -24.9140   24.6515 C   0  0  0  0  0  0  0  0  0  0  0  0
  -28.2181  -21.3083   22.2649 C   0  0  0  0  0  0  0  0  0  0  0  0
  -19.7527  -24.8166   23.3423 C   0  0  0  0  0  0  0  0  0  0  0  0
  -28.3419  -19.7840   22.2974 C   0  0  0  0  0  0  0  0  0  0  0  0
  -26.8196  -21.7520   21.8412 C   0  0  0  0  0  0  0  0  0  0  0  0
  -26.4696  -19.6509   20.6016 C   0  0  0  0  0  0  0  0  0  0  0  0
  -21.1647  -24.2668   23.5781 C   0  0  1  0  0  0  0  0  0  0  0  0
  -23.5254  -27.1977   24.0972 C   0  0  1  0  0  0  0  0  0  0  0  0
  -27.8787  -19.1554   20.9694 C   0  0  2  0  0  0  0  0  0  0  0  0
  -30.6281  -22.4803   18.8590 C   0  0  0  0  0  0  0  0  0  0  0  0
  -27.1750  -20.9291   15.6757 C   0  0  0  0  0  0  0  0  0  0  0  0
  -23.6314  -34.9293   23.6345 C   0  0  0  0  0  0  0  0  0  0  0  0
  -20.5304  -29.5043   21.4383 C   0  0  0  0  0  0  0  0  0  0  0  0
  -20.9218  -31.9709   21.2623 C   0  0  0  0  0  0  0  0  0  0  0  0
  -19.9809  -31.0057   23.3614 C   0  0  0  0  0  0  0  0  0  0  0  0
  -26.4359  -32.6907   24.8992 C   0  0  0  0  0  0  0  0  0  0  0  0
  -28.4629  -26.7351   17.3776 C   0  0  0  0  0  0  0  0  0  0  0  0
  -25.3663  -21.9464   17.1068 C   0  0  0  0  0  0  0  0  0  0  0  0
  -27.6704  -27.3299   18.5366 C   0  0  0  0  0  0  0  0  0  1  0  0
  -26.5869  -22.2530   16.2060 C   0  0  1  0  0  0  0  0  0  0  0  0
  -22.4165  -30.6206   22.8031 C   0  0  1  0  0  0  0  0  0  0  0  0
  -24.2459  -33.6458   24.1709 C   0  0  2  0  0  0  0  0  0  0  0  0
  -20.9841  -30.7571   22.2140 C   0  0  0  0  0  0  0  0  0  0  0  0
  -26.8739  -16.9423   21.3874 N   0  0  0  0  0  0  0  0  0  0  0  0
  -28.6054  -22.4355   17.5303 N   0  0  0  0  0  0  0  0  0  0  0  0
  -27.9581  -17.6405   21.0094 N   0  0  0  0  0  0  0  0  0  0  0  0
  -23.4912  -28.4621   23.3595 N   0  0  0  0  0  0  0  0  0  0  0  0
  -26.4414  -21.1217   20.5741 N   0  0  0  0  0  0  0  0  0  0  0  0
  -30.2049  -17.4020   20.2982 N   0  0  0  0  0  0  0  0  0  0  0  0
  -28.8499  -13.1386   20.9178 N   0  0  0  0  0  0  0  0  0  0  0  0
  -22.0254  -25.2984   24.1160 N   0  0  0  0  0  0  0  0  0  0  0  0
  -22.8620  -31.7817   23.5658 N   0  0  0  0  0  0  0  0  0  0  0  0
  -25.7477  -21.2527   18.3168 N   0  0  0  0  0  0  0  0  0  0  0  0
  -25.7084  -33.8658   24.3545 N   0  3  0  0  0  0  0  0  0  0  0  0
  -30.6233  -14.4589   20.3090 O   0  0  0  0  0  0  0  0  0  0  0  0
  -22.6467  -26.2898   22.1026 O   0  0  0  0  0  0  0  0  0  0  0  0
  -21.8462  -29.3728   24.7381 O   0  0  0  0  0  0  0  0  0  0  0  0
  -24.7456  -32.2192   22.2861 O   0  0  0  0  0  0  0  0  0  0  0  0
  -26.0777  -23.1646   19.5386 O   0  0  0  0  0  0  0  0  0  0  0  0
  -23.8003  -11.5002   22.6066 O   0  0  0  0  0  0  0  0  0  0  0  0
  -28.2854  -26.9741   19.7742 O   0  0  0  0  0  0  0  0  0  1  0  0
  -23.6395   -7.1564   19.2141 F   0  0  0  0  0  0  0  0  0  0  0  0
  -21.4527  -10.7774   21.3381 F   0  0  0  0  0  0  0  0  0  0  0  0
  1  2  1  0  0  0  0
  1  5  2  0  0  0  0
  2  6  2  0  0  0  0
  3  8  2  0  0  0  0
  3 17  1  0  0  0  0
  4  9  1  0  0  0  0
  4 17  2  0  0  0  0
  5 19  1  0  0  0  0
  6 21  1  0  0  0  0
  7 10  2  0  0  0  0
  7 20  1  0  0  0  0
  8 24  1  0  0  0  0
  9 24  2  0  0  0  0
 10 25  1  0  0  0  0
 11 12  2  0  0  0  0
 11 26  1  0  0  0  0
 12 27  1  0  0  0  0
 13 22  1  0  0  0  0
 13 25  2  0  0  0  0
 14 23  1  0  0  0  0
 14 30  2  0  0  0  0
 15 23  2  0  0  0  0
 15 31  1  0  0  0  0
 16 27  2  0  0  0  0
 16 28  1  0  0  0  0
 17 29  1  0  0  0  0
 18 29  1  0  0  0  0
 18 32  2  0  0  0  0
 18 33  1  0  0  0  0
 19 21  2  0  0  0  0
 19 38  1  0  0  0  0
 20 22  2  0  0  0  0
 20 39  1  0  0  0  0
 21 47  1  0  0  0  0
 22 40  1  0  0  0  0
 23 57  1  0  0  0  0
 24 80  1  0  0  0  0
 25 81  1  0  0  0  0
 26 28  2  0  0  0  0
 26 80  1  0  0  0  0
 27 82  1  0  0  0  0
 28 83  1  0  0  0  0
 29 64  2  0  0  0  0
 30 50  1  0  0  0  0
 30 65  1  0  0  0  0
 31 60  1  0  0  0  0
 31 65  2  0  0  0  0
 32 66  1  0  0  0  0
 32 69  1  0  0  0  0
 33 70  1  0  0  0  0
 33 75  2  0  0  0  0
 34 48  1  0  0  0  0
 34 71  1  0  0  0  0
 34 76  2  0  0  0  0
 35 61  1  0  0  0  0
 35 67  1  0  0  0  0
 35 77  2  0  0  0  0
 36 62  1  0  0  0  0
 36 72  1  0  0  0  0
 36 78  2  0  0  0  0
 37 68  1  0  0  0  0
 37 73  1  0  0  0  0
 37 79  2  0  0  0  0
 38 41  1  0  0  0  0
 39 48  1  0  0  0  0
 40 67  1  0  0  0  0
 41 43  1  0  0  0  0
 42 44  1  0  0  0  0
 42 45  1  0  0  0  0
 43 47  1  0  0  0  0
 44 49  1  0  0  0  0
 45 68  1  0  0  0  0
 46 49  1  0  0  0  0
 46 68  1  0  0  0  0
 47 71  1  0  0  0  0
 48 67  1  0  0  0  0
 49 66  1  0  0  0  0
 51 60  1  0  0  0  0
 52 62  1  0  0  0  0
 53 63  1  0  0  0  0
 54 63  1  0  0  0  0
 55 63  1  0  0  0  0
 56 74  1  0  0  0  0
 57 59  1  0  0  0  0
 58 60  1  0  0  0  0
 58 73  1  0  0  0  0
 59 81  1  0  0  0  0
 61 63  1  0  0  0  0
 61 72  1  0  0  0  0
 62 74  1  0  0  0  0
 64 66  1  0  0  0  0
M  CHG  1  74   1
M  ISO  4  37 100  59 101  73 100  81 101
M  END
> <Batch ID>
0081

> <Smiles>
CNC(C)C(=O)NC(C(=O)N1Cc2cc([101O:1][101CH2:1]Cc3cc(C)nc(C(C)C[100NH:0][100C:0](=O)N4CCCC(n5nc(-c6ccc(Oc7ccc(F)cc7F)cc6)c(C(N)=O)c5N)C4)c3)ccc2CC1C(=O)NC1CCCc2ccccc21)C(C)(C)C

> <Shape>
0.209

> <Color>
0.072

> <Negative vol penalty>
0.000

$$$$

  -OEChem-04052318463D

 83 91  0     1  0  0  0  0  0999 V2000
  -28.1024  -10.9344   16.4574 C   0  0  0  0  0  0  0  0  0  0  0  0
  -27.1954  -11.9677   16.2450 C   0  0  0  0  0  0  0  0  0  0  0  0
  -26.8133  -30.7502   21.4718 C   0  0  0  0  0  0  0  0  0  0  0  0
  -26.3876  -29.1777   23.2560 C   0  0  0  0  0  0  0  0  0  0  0  0
  -28.8991  -10.9318   17.6015 C   0  0  0  0  0  0  0  0  0  0  0  0
  -27.0839  -12.9986   17.1774 C   0  0  0  0  0  0  0  0  0  0  0  0
  -25.8908  -18.8935   16.0230 C   0  0  0  0  0  0  0  0  0  0  0  0
  -27.1992  -31.7088   22.4087 C   0  0  0  0  0  0  0  0  0  0  0  0
  -26.7735  -30.1363   24.1929 C   0  0  0  0  0  0  0  0  0  0  0  0
  -24.7160  -19.6418   16.0826 C   0  0  0  0  0  0  0  0  0  0  0  0
  -27.9533  -34.6873   24.3538 C   0  0  0  0  0  0  0  0  0  0  0  0
  -27.4634  -35.9838   24.1968 C   0  0  0  0  0  0  0  0  0  0  0  0
  -25.3083  -20.3841   18.3001 C   0  0  0  0  0  0  0  0  0  0  0  0
  -20.9542  -22.7917   18.6239 C   0  0  0  0  0  0  0  0  0  0  0  0
  -25.2029  -35.1527   24.3869 C   0  0  0  0  0  0  0  0  0  0  0  0
  -19.5612  -22.2885   16.7761 C   0  0  0  0  0  0  0  0  0  0  0  0
  -26.4075  -29.4847   21.8954 C   0  0  0  0  0  0  0  0  0  0  0  0
  -26.8326  -27.5476   20.2909 C   0  0  0  0  0  0  0  0  0  0  0  0
  -28.8042  -11.9682   18.5436 C   0  0  0  0  0  0  0  0  0  0  0  0
  -26.7794  -18.8762   17.1077 C   0  0  0  0  0  0  0  0  0  0  0  0
  -27.8792  -13.0092   18.3359 C   0  0  0  0  0  0  0  0  0  0  0  0
  -26.4950  -19.6368   18.2508 C   0  0  0  0  0  0  0  0  0  0  0  0
  -20.8032  -22.6535   17.2554 C   0  0  0  0  0  0  0  0  0  0  0  0
  -27.1793  -31.4019   23.7692 C   0  0  0  0  0  0  0  0  0  0  0  0
  -24.4232  -20.3850   17.2223 C   0  0  0  0  0  0  0  0  0  0  0  0
  -27.0680  -33.6234   24.5272 C   0  0  0  0  0  0  0  0  0  0  0  0
  -26.0882  -36.2165   24.2134 C   0  0  0  0  0  0  0  0  0  0  0  0
  -25.6928  -33.8561   24.5438 C   0  0  0  0  0  0  0  0  0  0  0  0
  -26.0082  -28.4942   20.9281 C   0  0  0  0  0  0  0  0  0  0  0  0
  -19.8532  -22.5560   19.4226 C   0  0  0  0  0  0  0  0  0  0  0  0
  -25.9813  -26.8472   19.4716 C   0  0  0  0  0  0  0  0  0  0  0  0
  -28.2418  -27.3216   20.4273 C   0  0  0  0  0  0  0  0  0  0  0  0
  -27.8812  -16.6306   19.0692 C   0  0  0  0  0  0  0  0  0  0  0  0
  -29.7651  -19.0430   20.1434 C   0  0  0  0  0  0  0  0  0  0  0  0
  -30.2482  -22.4024   20.5009 C   0  0  0  0  0  0  0  0  0  0  0  0
  -20.0881  -25.8039   19.6511 C   0  0  0  0  0  0  0  0  0  0  0  0
  -29.6526  -11.8976   19.7885 C   0  0  0  0  0  0  0  0  0  0  0  0
  -28.0555  -18.0850   17.0173 C   0  0  0  0  0  0  0  0  0  0  0  0
  -27.4259  -19.6680   19.4344 C   0  0  0  0  0  0  0  0  0  0  0  0
  -29.7396  -13.2221   20.5423 C   0  0  0  0  0  0  0  0  0  0  0  0
  -21.9112  -27.3367   17.0047 C   0  0  0  0  0  0  0  0  0  0  0  0
  -28.3554  -13.8472   20.6847 C   0  0  0  0  0  0  0  0  0  0  0  0
  -23.2423  -27.7218   17.6527 C   0  0  0  0  0  0  0  0  0  0  0  0
  -20.7426  -27.5048   17.9733 C   0  0  0  0  0  0  0  0  0  0  0  0
  -22.2331  -27.1924   19.9110 C   0  0  0  0  0  0  0  0  0  0  0  0
  -27.7467  -14.1580   19.3120 C   0  0  1  0  0  0  0  0  0  0  0  0
  -28.6378  -17.7323   18.3825 C   0  0  1  0  0  0  0  0  0  0  0  0
  -23.4483  -26.9863   18.9905 C   0  0  2  0  0  0  0  0  0  0  0  0
  -31.8631  -24.0699   21.4543 C   0  0  0  0  0  0  0  0  0  0  0  0
  -21.3757  -22.3769   21.5074 C   0  0  0  0  0  0  0  0  0  0  0  0
  -18.9935  -21.6923   21.6163 C   0  0  0  0  0  0  0  0  0  0  0  0
  -28.7466  -18.4204   22.9514 C   0  0  0  0  0  0  0  0  0  0  0  0
  -29.6167  -20.6501   23.6860 C   0  0  0  0  0  0  0  0  0  0  0  0
  -31.1928  -18.9230   22.8166 C   0  0  0  0  0  0  0  0  0  0  0  0
  -30.7489  -23.6095   17.8456 C   0  0  0  0  0  0  0  0  0  0  0  0
  -21.9599  -22.8941   16.3161 C   0  0  0  0  0  0  0  0  0  0  0  0
  -19.5742  -24.1282   21.4081 C   0  0  0  0  0  0  0  0  0  0  0  0
  -22.7662  -21.6270   16.0527 C   0  0  0  0  0  0  0  0  0  1  0  0
  -29.6390  -20.1043   21.2096 C   0  0  1  0  0  0  0  0  0  0  0  0
  -31.4527  -23.2824   20.2197 C   0  0  2  0  0  0  0  0  0  0  0  0
  -19.9624  -22.6917   20.9026 C   0  0  0  0  0  0  0  0  0  0  0  0
  -29.7801  -19.5225   22.6445 C   0  0  0  0  0  0  0  0  0  0  0  0
  -18.5011  -22.0641   17.5811 N   0  0  0  0  0  0  0  0  0  0  0  0
  -24.7313  -28.4060   20.5464 N   0  0  0  0  0  0  0  0  0  0  0  0
  -18.6495  -22.2003   18.9261 N   0  0  0  0  0  0  0  0  0  0  0  0
  -24.7470  -27.3957   19.6603 N   0  0  0  0  0  0  0  0  0  0  0  0
  -28.6578  -18.8731   19.3003 N   0  0  0  0  0  0  0  0  0  0  0  0
  -21.0001  -26.7818   19.2211 N   0  0  0  0  0  0  0  0  0  0  0  0
  -26.1758  -25.8218   18.6152 N   0  0  0  0  0  0  0  0  0  0  0  0
  -28.9657  -28.1315   21.3129 N   0  0  0  0  0  0  0  0  0  0  0  0
  -28.3317  -15.3613   18.7604 N   0  0  0  0  0  0  0  0  0  0  0  0
  -30.6222  -21.1310   20.8817 N   0  0  0  0  0  0  0  0  0  0  0  0
  -20.4109  -25.1619   20.8404 N   0  0  0  0  0  0  0  0  0  0  0  0
  -31.1449  -24.2481   19.1271 N   0  3  0  0  0  0  0  0  0  0  0  0
  -28.8443  -26.4387   19.7708 O   0  0  0  0  0  0  0  0  0  0  0  0
  -26.9580  -16.9115   19.8246 O   0  0  0  0  0  0  0  0  0  0  0  0
  -30.8104  -18.3936   20.0571 O   0  0  0  0  0  0  0  0  0  0  0  0
  -29.0912  -22.8038   20.3971 O   0  0  0  0  0  0  0  0  0  0  0  0
  -19.0649  -25.5200   19.0191 O   0  0  0  0  0  0  0  0  0  0  0  0
  -27.5560  -32.3369   24.6837 O   0  0  0  0  0  0  0  0  0  0  0  0
  -23.2768  -21.1158   17.2833 O   0  0  0  0  0  0  0  0  0  1  0  0
  -25.6180  -37.4618   24.0641 F   0  0  0  0  0  0  0  0  0  0  0  0
  -24.8374  -32.8382   24.7113 F   0  0  0  0  0  0  0  0  0  0  0  0
  1  2  1  0  0  0  0
  1  5  2  0  0  0  0
  2  6  2  0  0  0  0
  3  8  2  0  0  0  0
  3 17  1  0  0  0  0
  4  9  1  0  0  0  0
  4 17  2  0  0  0  0
  5 19  1  0  0  0  0
  6 21  1  0  0  0  0
  7 10  2  0  0  0  0
  7 20  1  0  0  0  0
  8 24  1  0  0  0  0
  9 24  2  0  0  0  0
 10 25  1  0  0  0  0
 11 12  2  0  0  0  0
 11 26  1  0  0  0  0
 12 27  1  0  0  0  0
 13 22  1  0  0  0  0
 13 25  2  0  0  0  0
 14 23  2  0  0  0  0
 14 30  1  0  0  0  0
 15 27  2  0  0  0  0
 15 28  1  0  0  0  0
 16 23  1  0  0  0  0
 16 63  2  0  0  0  0
 17 29  1  0  0  0  0
 18 29  1  0  0  0  0
 18 31  2  0  0  0  0
 18 32  1  0  0  0  0
 19 21  2  0  0  0  0
 19 37  1  0  0  0  0
 20 22  2  0  0  0  0
 20 38  1  0  0  0  0
 21 46  1  0  0  0  0
 22 39  1  0  0  0  0
 23 56  1  0  0  0  0
 24 80  1  0  0  0  0
 25 81  1  0  0  0  0
 26 28  2  0  0  0  0
 26 80  1  0  0  0  0
 27 82  1  0  0  0  0
 28 83  1  0  0  0  0
 29 64  2  0  0  0  0
 30 61  1  0  0  0  0
 30 65  2  0  0  0  0
 31 66  1  0  0  0  0
 31 69  1  0  0  0  0
 32 70  1  0  0  0  0
 32 75  2  0  0  0  0
 33 47  1  0  0  0  0
 33 71  1  0  0  0  0
 33 76  2  0  0  0  0
 34 59  1  0  0  0  0
 34 67  1  0  0  0  0
 34 77  2  0  0  0  0
 35 60  1  0  0  0  0
 35 72  1  0  0  0  0
 35 78  2  0  0  0  0
 36 68  1  0  0  0  0
 36 73  1  0  0  0  0
 36 79  2  0  0  0  0
 37 40  1  0  0  0  0
 38 47  1  0  0  0  0
 39 67  1  0  0  0  0
 40 42  1  0  0  0  0
 41 43  1  0  0  0  0
 41 44  1  0  0  0  0
 42 46  1  0  0  0  0
 43 48  1  0  0  0  0
 44 68  1  0  0  0  0
 45 48  1  0  0  0  0
 45 68  1  0  0  0  0
 46 71  1  0  0  0  0
 47 67  1  0  0  0  0
 48 66  1  0  0  0  0
 49 60  1  0  0  0  0
 50 61  1  0  0  0  0
 51 61  1  0  0  0  0
 52 62  1  0  0  0  0
 53 62  1  0  0  0  0
 54 62  1  0  0  0  0
 55 74  1  0  0  0  0
 56 58  1  0  0  0  0
 57 61  1  0  0  0  0
 57 73  1  0  0  0  0
 58 81  1  0  0  0  0
 59 62  1  0  0  0  0
 59 72  1  0  0  0  0
 60 74  1  0  0  0  0
 63 65  1  0  0  0  0
 64 66  1  0  0  0  0
M  CHG  1  74   1
M  ISO  4  36 100  58 101  73 100  81 101
M  END
> <Batch ID>
0081

> <Smiles>
CNC(C)C(=O)NC(C(=O)N1Cc2cc([101O:1][101CH2:1]Cc3cnnc(C(C)(C)C[100NH:0][100C:0](=O)N4CCCC(n5nc(-c6ccc(Oc7ccc(F)cc7F)cc6)c(C(N)=O)c5N)C4)c3)ccc2CC1C(=O)NC1CCCc2ccccc21)C(C)(C)C

> <Shape>
0.255

> <Color>
0.051

> <Negative vol penalty>
0.000

$$$$

  -OEChem-04052318463D

 88 96  0     1  0  0  0  0  0999 V2000
  -18.6976  -16.7186   23.2665 C   0  0  0  0  0  0  0  0  0  0  0  0
  -19.9124  -17.2559   22.8529 C   0  0  0  0  0  0  0  0  0  0  0  0
  -23.1897   -9.8645   19.9478 C   0  0  0  0  0  0  0  0  0  0  0  0
  -23.9144   -9.9235   22.2518 C   0  0  0  0  0  0  0  0  0  0  0  0
  -17.5106  -17.1402   22.6690 C   0  0  0  0  0  0  0  0  0  0  0  0
  -19.9408  -18.2145   21.8406 C   0  0  0  0  0  0  0  0  0  0  0  0
  -23.0021  -22.0990   22.9291 C   0  0  0  0  0  0  0  0  0  0  0  0
  -22.4972   -8.6794   20.1959 C   0  0  0  0  0  0  0  0  0  0  0  0
  -23.2219   -8.7383   22.4999 C   0  0  0  0  0  0  0  0  0  0  0  0
  -24.3716  -21.8957   22.7652 C   0  0  0  0  0  0  0  0  0  0  0  0
  -23.2204   -5.3937   20.5207 C   0  0  0  0  0  0  0  0  0  0  0  0
  -23.3495   -4.3618   19.5912 C   0  0  0  0  0  0  0  0  0  0  0  0
  -30.6907  -18.7352   23.4353 C   0  0  0  0  0  0  0  0  0  0  0  0
  -30.3458  -19.8517   22.6342 C   0  0  0  0  0  0  0  0  0  0  0  0
  -24.2816  -23.0412   20.6441 C   0  0  0  0  0  0  0  0  0  0  0  0
  -20.9653   -4.4126   19.2038 C   0  0  0  0  0  0  0  0  0  0  0  0
  -23.8984  -10.4865   20.9757 C   0  0  0  0  0  0  0  0  0  0  0  0
  -24.1229  -13.0241   20.8411 C   0  0  0  0  0  0  0  0  0  0  0  0
  -17.5237  -18.1116   21.6556 C   0  0  0  0  0  0  0  0  0  0  0  0
  -22.2588  -22.7665   21.9450 C   0  0  0  0  0  0  0  0  0  0  0  0
  -18.7530  -18.6486   21.2281 C   0  0  0  0  0  0  0  0  0  0  0  0
  -22.9033  -23.2539   20.7991 C   0  0  0  0  0  0  0  0  0  0  0  0
  -22.5133   -8.1163   21.4719 C   0  0  0  0  0  0  0  0  0  0  0  0
  -25.0111  -22.3643   21.6213 C   0  0  0  0  0  0  0  0  0  0  0  0
  -21.9638   -5.9351   20.7919 C   0  0  0  0  0  0  0  0  0  0  0  0
  -22.2219   -3.8713   18.9327 C   0  0  0  0  0  0  0  0  0  0  0  0
  -20.8362   -5.4445   20.1334 C   0  0  0  0  0  0  0  0  0  0  0  0
  -24.6144  -11.7105   20.7199 C   0  0  0  0  0  0  0  0  0  0  0  0
  -29.6018  -17.8918   23.4560 C   0  0  0  0  0  0  0  0  0  0  0  0
  -29.0566  -19.6567   22.1900 C   0  0  0  0  0  0  0  0  0  0  0  0
  -25.1839  -13.8216   20.4879 C   0  0  0  0  0  0  0  0  0  0  0  0
  -22.8235  -13.4824   21.2376 C   0  0  0  0  0  0  0  0  0  0  0  0
  -19.8289  -21.9820   20.0519 C   0  0  0  0  0  0  0  0  0  0  0  0
  -19.9478  -25.1229   19.2497 C   0  0  0  0  0  0  0  0  0  0  0  0
  -21.7849  -27.9910   19.0365 C   0  0  0  0  0  0  0  0  0  0  0  0
  -30.9507  -14.0480   20.9422 C   0  0  0  0  0  0  0  0  0  0  0  0
  -16.2191  -18.5013   21.0068 C   0  0  0  0  0  0  0  0  0  0  0  0
  -20.7872  -23.0012   22.1493 C   0  0  0  0  0  0  0  0  0  0  0  0
  -22.1543  -23.9945   19.7225 C   0  0  0  0  0  0  0  0  0  0  0  0
  -16.3024  -19.7948   20.2004 C   0  0  0  0  0  0  0  0  0  0  0  0
  -29.3404  -13.1452   17.8978 C   0  0  0  0  0  0  0  0  0  0  0  0
  -17.5418  -19.7906   19.3111 C   0  0  0  0  0  0  0  0  0  0  0  0
  -27.9118  -12.8053   18.3264 C   0  0  0  0  0  0  0  0  0  0  0  0
  -30.3629  -12.7071   18.9440 C   0  0  0  0  0  0  0  0  0  0  0  0
  -28.6788  -12.8680   20.7361 C   0  0  0  0  0  0  0  0  0  0  0  0
  -18.8227  -19.7086   20.1502 C   0  0  1  0  0  0  0  0  0  0  0  0
  -20.0338  -23.2419   20.8447 C   0  0  1  0  0  0  0  0  0  0  0  0
  -27.6077  -13.3410   19.7384 C   0  0  2  0  0  0  0  0  0  0  0  0
  -21.6202  -30.3861   18.3057 C   0  0  0  0  0  0  0  0  0  0  0  0
  -24.2502  -18.1195   22.2681 C   0  0  0  0  0  0  0  0  0  0  0  0
  -24.1396  -17.6479   24.7230 C   0  0  0  0  0  0  0  0  0  0  0  0
  -27.7273  -19.8522   19.9824 C   0  0  0  0  0  0  0  0  0  0  0  0
  -28.9824  -21.8008   20.8797 C   0  0  0  0  0  0  0  0  0  0  0  0
  -20.1237  -24.2427   16.3335 C   0  0  0  0  0  0  0  0  0  0  0  0
  -20.9012  -26.5514   15.7562 C   0  0  0  0  0  0  0  0  0  0  0  0
  -18.6350  -26.2103   16.7413 C   0  0  0  0  0  0  0  0  0  0  0  0
  -22.3731  -28.9841   21.7617 C   0  0  0  0  0  0  0  0  0  0  0  0
  -29.4236  -16.5927   24.1367 C   0  0  0  0  0  0  0  0  0  0  0  0
  -30.7194  -15.7656   24.3127 C   0  0  0  0  0  0  0  0  0  0  0  0
  -26.3802  -18.0709   23.6688 C   0  0  0  0  0  0  0  0  0  0  0  0
  -27.3047  -17.8907   22.4630 C   0  0  0  0  0  0  0  0  0  0  0  0
  -31.3877  -15.3666   22.9988 C   0  0  0  0  0  0  0  0  0  0  0  0
  -26.9093  -20.9998   22.0578 C   0  0  0  0  0  0  0  0  0  1  0  0
  -20.6775  -25.9326   18.2053 C   0  0  1  0  0  0  0  0  0  0  0  0
  -21.4832  -29.4149   19.4679 C   0  0  2  0  0  0  0  0  0  0  0  0
  -24.9759  -17.4792   23.4523 C   0  0  0  0  0  0  0  0  0  0  0  0
  -28.1779  -20.5460   21.2903 C   0  0  0  0  0  0  0  0  0  0  0  0
  -20.0984  -25.7187   16.7783 C   0  0  0  0  0  0  0  0  0  0  0  0
  -25.8884  -11.6713   20.3207 N   0  0  0  0  0  0  0  0  0  0  0  0
  -28.6143  -18.4623   22.6960 N   0  0  0  0  0  0  0  0  0  0  0  0
  -26.2064  -12.9703   20.1879 N   0  0  0  0  0  0  0  0  0  0  0  0
  -20.7159  -24.1935   19.9654 N   0  0  0  0  0  0  0  0  0  0  0  0
  -30.0176  -13.2498   20.2601 N   0  0  0  0  0  0  0  0  0  0  0  0
  -25.3325  -15.1609   20.4076 N   0  0  0  0  0  0  0  0  0  0  0  0
  -21.8506  -12.5290   21.5672 N   0  0  0  0  0  0  0  0  0  0  0  0
  -19.1318  -20.9989   20.7280 N   0  0  0  0  0  0  0  0  0  0  0  0
  -20.6412  -27.3172   18.6634 N   0  0  0  0  0  0  0  0  0  0  0  0
  -30.5412  -14.5271   22.1805 N   0  0  0  0  0  0  0  0  0  0  0  0
  -22.4196  -29.8384   20.5472 N   0  3  0  0  0  0  0  0  0  0  0  0
  -22.5289  -14.7009   21.2820 O   0  0  0  0  0  0  0  0  0  0  0  0
  -20.2692  -21.9080   18.9107 O   0  0  0  0  0  0  0  0  0  0  0  0
  -18.7423  -25.3131   19.4291 O   0  0  0  0  0  0  0  0  0  0  0  0
  -22.9219  -27.5245   19.0275 O   0  0  0  0  0  0  0  0  0  0  0  0
  -32.0641  -14.3183   20.4793 O   0  0  0  0  0  0  0  0  0  0  0  0
  -21.8374   -6.9600   21.7145 O   0  0  0  0  0  0  0  0  0  0  0  0
  -26.3476  -22.1666   21.4585 O   0  0  0  0  0  0  0  0  0  1  0  0
  -22.3462   -2.8814   18.0389 F   0  0  0  0  0  0  0  0  0  0  0  0
  -19.6265   -5.9614   20.3888 F   0  0  0  0  0  0  0  0  0  0  0  0
  1  2  1  0  0  0  0
  1  5  2  0  0  0  0
  2  6  2  0  0  0  0
  3  8  2  0  0  0  0
  3 17  1  0  0  0  0
  4  9  1  0  0  0  0
  4 17  2  0  0  0  0
  5 19  1  0  0  0  0
  6 21  1  0  0  0  0
  7 10  2  0  0  0  0
  7 20  1  0  0  0  0
  8 23  1  0  0  0  0
  9 23  2  0  0  0  0
 10 24  1  0  0  0  0
 11 12  2  0  0  0  0
 11 25  1  0  0  0  0
 12 26  1  0  0  0  0
 13 14  1  0  0  0  0
 13 29  2  0  0  0  0
 14 30  2  0  0  0  0
 15 22  1  0  0  0  0
 15 24  2  0  0  0  0
 16 26  2  0  0  0  0
 16 27  1  0  0  0  0
 17 28  1  0  0  0  0
 18 28  1  0  0  0  0
 18 31  2  0  0  0  0
 18 32  1  0  0  0  0
 19 21  2  0  0  0  0
 19 37  1  0  0  0  0
 20 22  2  0  0  0  0
 20 38  1  0  0  0  0
 21 46  1  0  0  0  0
 22 39  1  0  0  0  0
 23 85  1  0  0  0  0
 24 86  1  0  0  0  0
 25 27  2  0  0  0  0
 25 85  1  0  0  0  0
 26 87  1  0  0  0  0
 27 88  1  0  0  0  0
 28 69  2  0  0  0  0
 29 58  1  0  0  0  0
 29 70  1  0  0  0  0
 30 67  1  0  0  0  0
 30 70  1  0  0  0  0
 31 71  1  0  0  0  0
 31 74  1  0  0  0  0
 32 75  1  0  0  0  0
 32 80  2  0  0  0  0
 33 47  1  0  0  0  0
 33 76  1  0  0  0  0
 33 81  2  0  0  0  0
 34 64  1  0  0  0  0
 34 72  1  0  0  0  0
 34 82  2  0  0  0  0
 35 65  1  0  0  0  0
 35 77  1  0  0  0  0
 35 83  2  0  0  0  0
 36 73  1  0  0  0  0
 36 78  1  0  0  0  0
 36 84  2  0  0  0  0
 37 40  1  0  0  0  0
 38 47  1  0  0  0  0
 39 72  1  0  0  0  0
 40 42  1  0  0  0  0
 41 43  1  0  0  0  0
 41 44  1  0  0  0  0
 42 46  1  0  0  0  0
 43 48  1  0  0  0  0
 44 73  1  0  0  0  0
 45 48  1  0  0  0  0
 45 73  1  0  0  0  0
 46 76  1  0  0  0  0
 47 72  1  0  0  0  0
 48 71  1  0  0  0  0
 49 65  1  0  0  0  0
 50 66  1  0  0  0  0
 51 66  1  0  0  0  0
 52 67  1  0  0  0  0
 53 67  1  0  0  0  0
 54 68  1  0  0  0  0
 55 68  1  0  0  0  0
 56 68  1  0  0  0  0
 57 79  1  0  0  0  0
 58 59  1  0  0  0  0
 59 62  1  0  0  0  0
 60 61  1  0  0  0  0
 60 66  1  0  0  0  0
 61 70  1  0  0  0  0
 62 78  1  0  0  0  0
 63 67  1  0  0  0  0
 63 86  1  0  0  0  0
 64 68  1  0  0  0  0
 64 77  1  0  0  0  0
 65 79  1  0  0  0  0
 69 71  1  0  0  0  0
M  CHG  1  79   1
M  ISO  4  36 100  63 101  78 100  86 101
M  END
> <Batch ID>
0081

> <Smiles>
CNC(C)C(=O)NC(C(=O)N1Cc2cc([101O:1][101CH2:1]C(C)(C)c3ccc(CCC[100NH:0][100C:0](=O)N4CCCC(n5nc(-c6ccc(Oc7ccc(F)cc7F)cc6)c(C(N)=O)c5N)C4)n3CCC(C)C)ccc2CC1C(=O)NC1CCCc2ccccc21)C(C)(C)C

> <Shape>
0.185

> <Color>
0.185

> <Negative vol penalty>
0.000

$$$$

  -OEChem-04052318463D

 86 94  0     1  0  0  0  0  0999 V2000
  -25.0086  -12.2175   15.5789 C   0  0  0  0  0  0  0  0  0  0  0  0
  -25.6624  -13.4181   15.8367 C   0  0  0  0  0  0  0  0  0  0  0  0
  -23.0732   -9.8743   19.9402 C   0  0  0  0  0  0  0  0  0  0  0  0
  -23.8389   -9.8752   22.2316 C   0  0  0  0  0  0  0  0  0  0  0  0
  -25.6222  -11.2467   14.7884 C   0  0  0  0  0  0  0  0  0  0  0  0
  -26.9308  -13.6482   15.3050 C   0  0  0  0  0  0  0  0  0  0  0  0
  -27.3932  -18.2834   13.3187 C   0  0  0  0  0  0  0  0  0  0  0  0
  -22.3292   -8.7210   20.1892 C   0  0  0  0  0  0  0  0  0  0  0  0
  -23.0949   -8.7219   22.4807 C   0  0  0  0  0  0  0  0  0  0  0  0
  -27.5818  -19.3410   14.2073 C   0  0  0  0  0  0  0  0  0  0  0  0
  -19.8678   -7.9247   23.0895 C   0  0  0  0  0  0  0  0  0  0  0  0
  -19.1138   -7.8824   24.2622 C   0  0  0  0  0  0  0  0  0  0  0  0
  -29.9476  -19.3061   13.7372 C   0  0  0  0  0  0  0  0  0  0  0  0
  -27.8164  -21.2562   18.1812 C   0  0  0  0  0  0  0  0  0  0  0  0
  -29.6359  -19.9771   19.0964 C   0  0  0  0  0  0  0  0  0  0  0  0
  -20.3558   -5.9424   24.9908 C   0  0  0  0  0  0  0  0  0  0  0  0
  -23.8281  -10.4513   20.9613 C   0  0  0  0  0  0  0  0  0  0  0  0
  -24.1713  -12.9766   20.8466 C   0  0  0  0  0  0  0  0  0  0  0  0
  -26.8947  -11.4688   14.2388 C   0  0  0  0  0  0  0  0  0  0  0  0
  -28.4837  -17.7211   12.6397 C   0  0  0  0  0  0  0  0  0  0  0  0
  -27.5626  -12.6788   14.5075 C   0  0  0  0  0  0  0  0  0  0  0  0
  -29.7698  -18.2431   12.8386 C   0  0  0  0  0  0  0  0  0  0  0  0
  -29.1715  -20.9467   18.2146 C   0  0  0  0  0  0  0  0  0  0  0  0
  -22.3400   -8.1448   21.4595 C   0  0  0  0  0  0  0  0  0  0  0  0
  -28.8596  -19.8506   14.4189 C   0  0  0  0  0  0  0  0  0  0  0  0
  -20.8657   -6.9758   22.8673 C   0  0  0  0  0  0  0  0  0  0  0  0
  -19.3578   -6.8913   25.2129 C   0  0  0  0  0  0  0  0  0  0  0  0
  -21.1098   -5.9847   23.8180 C   0  0  0  0  0  0  0  0  0  0  0  0
  -24.5973  -11.6423   20.7045 C   0  0  0  0  0  0  0  0  0  0  0  0
  -26.9736  -20.5730   19.0431 C   0  0  0  0  0  0  0  0  0  0  0  0
  -28.7118  -19.3513   19.9175 C   0  0  0  0  0  0  0  0  0  0  0  0
  -25.2630  -13.7262   20.4824 C   0  0  0  0  0  0  0  0  0  0  0  0
  -22.9022  -13.4922   21.2700 C   0  0  0  0  0  0  0  0  0  0  0  0
  -29.8351  -14.8452   12.5593 C   0  0  0  0  0  0  0  0  0  0  0  0
  -31.6223  -16.1800   10.2042 C   0  0  0  0  0  0  0  0  0  0  0  0
  -32.8914  -19.0102    8.7809 C   0  0  0  0  0  0  0  0  0  0  0  0
  -30.7478  -14.7412   20.6592 C   0  0  0  0  0  0  0  0  0  0  0  0
  -27.5377  -10.3706   13.4294 C   0  0  0  0  0  0  0  0  0  0  0  0
  -28.2598  -16.5983   11.6643 C   0  0  0  0  0  0  0  0  0  0  0  0
  -30.9709  -17.6882   12.1190 C   0  0  0  0  0  0  0  0  0  0  0  0
  -28.7250  -10.8442   12.5949 C   0  0  0  0  0  0  0  0  0  0  0  0
  -29.6026  -12.3633   18.2695 C   0  0  0  0  0  0  0  0  0  0  0  0
  -29.6527  -11.7173   13.4339 C   0  0  0  0  0  0  0  0  0  0  0  0
  -28.1661  -12.0694   18.7054 C   0  0  0  0  0  0  0  0  0  0  0  0
  -30.5229  -12.5806   19.4686 C   0  0  0  0  0  0  0  0  0  0  0  0
  -28.6252  -13.3095   20.8618 C   0  0  0  0  0  0  0  0  0  0  0  0
  -28.9288  -12.9755   13.9281 C   0  0  1  0  0  0  0  0  0  0  0  0
  -29.5128  -15.7644   11.4153 C   0  0  1  0  0  0  0  0  0  0  0  0
  -27.6479  -13.1384   19.6863 C   0  0  2  0  0  0  0  0  0  0  0  0
  -25.0210  -21.4350   20.3839 C   0  0  0  0  0  0  0  0  0  0  0  0
  -24.6597  -19.6640   18.6266 C   0  0  0  0  0  0  0  0  0  0  0  0
  -34.3478  -19.7806    6.8880 C   0  0  0  0  0  0  0  0  0  0  0  0
  -30.4166  -17.2796   23.3201 C   0  0  0  0  0  0  0  0  0  0  0  0
  -34.0979  -15.2890   11.7495 C   0  0  0  0  0  0  0  0  0  0  0  0
  -35.4505  -16.8701   10.3571 C   0  0  0  0  0  0  0  0  0  0  0  0
  -34.2448  -14.9745    9.2728 C   0  0  0  0  0  0  0  0  0  0  0  0
  -30.6886  -20.5708    7.5679 C   0  0  0  0  0  0  0  0  0  0  0  0
  -30.1344  -21.6604   17.2971 C   0  0  0  0  0  0  0  0  0  0  0  0
  -30.5795  -18.0099   20.8859 C   0  0  0  0  0  0  0  0  0  0  0  0
  -30.3021  -20.9437   15.9618 C   0  0  0  0  0  0  0  0  0  1  0  0
  -25.5132  -20.8794   19.0345 C   0  0  0  0  0  0  0  0  0  0  0  0
  -32.9239  -16.9429   10.1518 C   0  0  1  0  0  0  0  0  0  0  0  0
  -32.9260  -19.4843    7.3392 C   0  0  2  0  0  0  0  0  0  0  0  0
  -30.8182  -16.8887   21.9011 C   0  0  2  0  0  0  0  0  0  0  0  0
  -34.1571  -16.0285   10.3980 C   0  0  0  0  0  0  0  0  0  0  0  0
  -25.8610  -11.5467   20.2828 N   0  0  0  0  0  0  0  0  0  0  0  0
  -27.3879  -19.6252   19.9135 N   0  0  0  0  0  0  0  0  0  0  0  0
  -26.2384  -12.8303   20.1566 N   0  0  0  0  0  0  0  0  0  0  0  0
  -30.7015  -16.5866   11.1802 N   0  0  0  0  0  0  0  0  0  0  0  0
  -29.9753  -13.6073   20.3585 N   0  0  0  0  0  0  0  0  0  0  0  0
  -25.4741  -15.0577   20.4120 N   0  0  0  0  0  0  0  0  0  0  0  0
  -21.8905  -12.5828   21.6076 N   0  0  0  0  0  0  0  0  0  0  0  0
  -29.2001  -18.3657   20.8109 N   0  0  0  0  0  0  0  0  0  0  0  0
  -28.8267  -13.9508   12.8638 N   0  0  0  0  0  0  0  0  0  0  0  0
  -32.9400  -17.6350    8.8676 N   0  0  0  0  0  0  0  0  0  0  0  0
  -30.1514  -15.6684   21.5050 N   0  0  0  0  0  0  0  0  0  0  0  0
  -32.1150  -20.7247    7.1822 N   0  3  0  0  0  0  0  0  0  0  0  0
  -22.6669  -14.7228   21.3309 O   0  0  0  0  0  0  0  0  0  0  0  0
  -30.9191  -14.9394   13.1231 O   0  0  0  0  0  0  0  0  0  0  0  0
  -31.4268  -15.2619    9.4038 O   0  0  0  0  0  0  0  0  0  0  0  0
  -32.8313  -19.7828    9.7349 O   0  0  0  0  0  0  0  0  0  0  0  0
  -31.8827  -14.9171   20.2031 O   0  0  0  0  0  0  0  0  0  0  0  0
  -21.6139   -7.0196   21.7029 O   0  0  0  0  0  0  0  0  0  0  0  0
  -29.0466  -20.8825   15.2862 O   0  0  0  0  0  0  0  0  0  1  0  0
  -18.6347   -6.8517   26.3397 F   0  0  0  0  0  0  0  0  0  0  0  0
  -22.0680   -5.0710   23.6107 F   0  0  0  0  0  0  0  0  0  0  0  0
  1  2  1  0  0  0  0
  1  5  2  0  0  0  0
  2  6  2  0  0  0  0
  3  8  2  0  0  0  0
  3 17  1  0  0  0  0
  4  9  1  0  0  0  0
  4 17  2  0  0  0  0
  5 19  1  0  0  0  0
  6 21  1  0  0  0  0
  7 10  2  0  0  0  0
  7 20  1  0  0  0  0
  8 24  1  0  0  0  0
  9 24  2  0  0  0  0
 10 25  1  0  0  0  0
 11 12  2  0  0  0  0
 11 26  1  0  0  0  0
 12 27  1  0  0  0  0
 13 22  1  0  0  0  0
 13 25  2  0  0  0  0
 14 23  2  0  0  0  0
 14 30  1  0  0  0  0
 15 23  1  0  0  0  0
 15 31  2  0  0  0  0
 16 27  2  0  0  0  0
 16 28  1  0  0  0  0
 17 29  1  0  0  0  0
 18 29  1  0  0  0  0
 18 32  2  0  0  0  0
 18 33  1  0  0  0  0
 19 21  2  0  0  0  0
 19 38  1  0  0  0  0
 20 22  2  0  0  0  0
 20 39  1  0  0  0  0
 21 47  1  0  0  0  0
 22 40  1  0  0  0  0
 23 58  1  0  0  0  0
 24 83  1  0  0  0  0
 25 84  1  0  0  0  0
 26 28  2  0  0  0  0
 26 83  1  0  0  0  0
 27 85  1  0  0  0  0
 28 86  1  0  0  0  0
 29 66  2  0  0  0  0
 30 61  1  0  0  0  0
 30 67  2  0  0  0  0
 31 67  1  0  0  0  0
 31 73  1  0  0  0  0
 32 68  1  0  0  0  0
 32 71  1  0  0  0  0
 33 72  1  0  0  0  0
 33 78  2  0  0  0  0
 34 48  1  0  0  0  0
 34 74  1  0  0  0  0
 34 79  2  0  0  0  0
 35 62  1  0  0  0  0
 35 69  1  0  0  0  0
 35 80  2  0  0  0  0
 36 63  1  0  0  0  0
 36 75  1  0  0  0  0
 36 81  2  0  0  0  0
 37 70  1  0  0  0  0
 37 76  1  0  0  0  0
 37 82  2  0  0  0  0
 38 41  1  0  0  0  0
 39 48  1  0  0  0  0
 40 69  1  0  0  0  0
 41 43  1  0  0  0  0
 42 44  1  0  0  0  0
 42 45  1  0  0  0  0
 43 47  1  0  0  0  0
 44 49  1  0  0  0  0
 45 70  1  0  0  0  0
 46 49  1  0  0  0  0
 46 70  1  0  0  0  0
 47 74  1  0  0  0  0
 48 69  1  0  0  0  0
 49 68  1  0  0  0  0
 50 61  1  0  0  0  0
 51 61  1  0  0  0  0
 52 63  1  0  0  0  0
 53 64  1  0  0  0  0
 54 65  1  0  0  0  0
 55 65  1  0  0  0  0
 56 65  1  0  0  0  0
 57 77  1  0  0  0  0
 58 60  1  0  0  0  0
 59 64  1  0  0  0  0
 59 73  1  0  0  0  0
 60 84  1  0  0  0  0
 62 65  1  0  0  0  0
 62 75  1  0  0  0  0
 63 77  1  0  0  0  0
 64 76  1  0  0  0  0
 66 68  1  0  0  0  0
M  CHG  1  77   1
M  ISO  4  37 100  60 101  76 100  84 101
M  END
> <Batch ID>
0081

> <Smiles>
CNC(C)C(=O)NC(C(=O)N1Cc2cc([101O:1][101CH2:1]Cc3cc(NCC(C)[100NH:0][100C:0](=O)N4CCCC(n5nc(-c6ccc(Oc7ccc(F)cc7F)cc6)c(C(N)=O)c5N)C4)nc(C(C)C)c3)ccc2CC1C(=O)NC1CCCc2ccccc21)C(C)(C)C

> <Shape>
0.201

> <Color>
0.188

> <Negative vol penalty>
0.000

$$$$

  -OEChem-04052318463D

 84 92  0     1  0  0  0  0  0999 V2000
  -31.2090  -29.0924   20.7780 C   0  0  0  0  0  0  0  0  0  0  0  0
  -30.3835  -27.9926   20.9887 C   0  0  0  0  0  0  0  0  0  0  0  0
  -23.0756   -9.8663   19.9434 C   0  0  0  0  0  0  0  0  0  0  0  0
  -23.8382   -9.8760   22.2359 C   0  0  0  0  0  0  0  0  0  0  0  0
  -32.5910  -28.9599   20.9059 C   0  0  0  0  0  0  0  0  0  0  0  0
  -30.9397  -26.7593   21.3264 C   0  0  0  0  0  0  0  0  0  0  0  0
  -28.4567  -24.4773   25.1042 C   0  0  0  0  0  0  0  0  0  0  0  0
  -22.3333   -8.7125   20.1952 C   0  0  0  0  0  0  0  0  0  0  0  0
  -23.0958   -8.7223   22.4878 C   0  0  0  0  0  0  0  0  0  0  0  0
  -27.2577  -23.8411   24.7854 C   0  0  0  0  0  0  0  0  0  0  0  0
  -19.8693   -7.9214   23.0947 C   0  0  0  0  0  0  0  0  0  0  0  0
  -19.1137   -7.8817   24.2665 C   0  0  0  0  0  0  0  0  0  0  0  0
  -28.4014  -21.7175   24.7482 C   0  0  0  0  0  0  0  0  0  0  0  0
  -20.3581   -5.9462   25.0032 C   0  0  0  0  0  0  0  0  0  0  0  0
  -27.0832  -19.0968   20.0084 C   0  0  0  0  0  0  0  0  0  0  0  0
  -28.1443  -18.2995   21.8120 C   0  0  0  0  0  0  0  0  0  0  0  0
  -23.8281  -10.4480   20.9638 C   0  0  0  0  0  0  0  0  0  0  0  0
  -24.1670  -12.9734   20.8412 C   0  0  0  0  0  0  0  0  0  0  0  0
  -33.1638  -27.7267   21.2547 C   0  0  0  0  0  0  0  0  0  0  0  0
  -29.6411  -23.7384   25.2369 C   0  0  0  0  0  0  0  0  0  0  0  0
  -32.3308  -26.6098   21.4577 C   0  0  0  0  0  0  0  0  0  0  0  0
  -29.6135  -22.3463   25.0712 C   0  0  0  0  0  0  0  0  0  0  0  0
  -28.4034  -18.9133   19.6612 C   0  0  0  0  0  0  0  0  0  0  0  0
  -29.0748  -18.4090   20.8022 C   0  0  0  0  0  0  0  0  0  0  0  0
  -22.3434   -8.1405   21.4674 C   0  0  0  0  0  0  0  0  0  0  0  0
  -27.2305  -22.4614   24.6045 C   0  0  0  0  0  0  0  0  0  0  0  0
  -20.8692   -6.9735   22.8771 C   0  0  0  0  0  0  0  0  0  0  0  0
  -19.3582   -6.8941   25.2208 C   0  0  0  0  0  0  0  0  0  0  0  0
  -21.1136   -5.9860   23.8313 C   0  0  0  0  0  0  0  0  0  0  0  0
  -24.5956  -11.6395   20.7041 C   0  0  0  0  0  0  0  0  0  0  0  0
  -25.2579  -13.7238   20.4760 C   0  0  0  0  0  0  0  0  0  0  0  0
  -22.8965  -13.4882   21.2611 C   0  0  0  0  0  0  0  0  0  0  0  0
  -32.4428  -23.7029   23.7359 C   0  0  0  0  0  0  0  0  0  0  0  0
  -33.2274  -21.5941   26.0725 C   0  0  0  0  0  0  0  0  0  0  0  0
  -32.1840  -19.3094   28.3829 C   0  0  0  0  0  0  0  0  0  0  0  0
  -30.7408  -14.7490   20.6571 C   0  0  0  0  0  0  0  0  0  0  0  0
  -34.6661  -27.6208   21.3349 C   0  0  0  0  0  0  0  0  0  0  0  0
  -30.9210  -24.4362   25.6074 C   0  0  0  0  0  0  0  0  0  0  0  0
  -30.8536  -21.5050   25.2225 C   0  0  0  0  0  0  0  0  0  0  0  0
  -35.1505  -26.3693   22.0626 C   0  0  0  0  0  0  0  0  0  0  0  0
  -29.6030  -12.3612   18.2737 C   0  0  0  0  0  0  0  0  0  0  0  0
  -34.3971  -25.1388   21.5677 C   0  0  0  0  0  0  0  0  0  0  0  0
  -28.1664  -12.0663   18.7085 C   0  0  0  0  0  0  0  0  0  0  0  0
  -30.5213  -12.5841   19.4733 C   0  0  0  0  0  0  0  0  0  0  0  0
  -28.6204  -13.3143   20.8615 C   0  0  0  0  0  0  0  0  0  0  0  0
  -32.8948  -25.2614   21.8497 C   0  0  1  0  0  0  0  0  0  0  0  0
  -32.1667  -23.6493   25.2119 C   0  0  1  0  0  0  0  0  0  0  0  0
  -27.6450  -13.1376   19.6851 C   0  0  2  0  0  0  0  0  0  0  0  0
  -28.9978  -19.1929   18.3389 C   0  0  0  0  0  0  0  0  0  0  0  0
  -31.3844  -19.2782   21.2862 C   0  0  0  0  0  0  0  0  0  0  0  0
  -33.0594  -17.7216   30.1179 C   0  0  0  0  0  0  0  0  0  0  0  0
  -24.9539  -21.7386   22.1661 C   0  0  0  0  0  0  0  0  0  0  0  0
  -34.0875  -19.6655   23.8701 C   0  0  0  0  0  0  0  0  0  0  0  0
  -34.0403  -17.8213   25.5627 C   0  0  0  0  0  0  0  0  0  0  0  0
  -35.6138  -19.7356   25.8500 C   0  0  0  0  0  0  0  0  0  0  0  0
  -30.7361  -20.7026   30.5558 C   0  0  0  0  0  0  0  0  0  0  0  0
  -25.7056  -19.6439   23.3498 C   0  0  0  0  0  0  0  0  0  0  0  0
  -25.6459  -18.7603   22.0955 C   0  0  0  0  0  0  0  0  0  0  0  0
  -30.8057  -16.9007   21.8921 C   0  0  0  0  0  0  0  0  0  0  0  0
  -30.5060  -18.0616   20.9031 C   0  0  1  0  0  0  0  0  0  0  0  0
  -33.1408  -20.0956   26.2333 C   0  0  1  0  0  0  0  0  0  0  0  0
  -32.5378  -19.1243   29.8475 C   0  0  2  0  0  0  0  0  0  0  0  0
  -26.0182  -21.1175   23.0617 C   0  0  2  0  0  0  0  0  0  1  0  0
  -34.1974  -19.3453   25.3742 C   0  0  0  0  0  0  0  0  0  0  0  0
  -25.8601  -11.5447   20.2844 N   0  0  0  0  0  0  0  0  0  0  0  0
  -26.9372  -18.7201   21.3180 N   0  0  0  0  0  0  0  0  0  0  0  0
  -26.2354  -12.8286   20.1546 N   0  0  0  0  0  0  0  0  0  0  0  0
  -32.0817  -22.2344   25.5793 N   0  0  0  0  0  0  0  0  0  0  0  0
  -29.9706  -13.6128   20.3591 N   0  0  0  0  0  0  0  0  0  0  0  0
  -25.4668  -15.0554   20.4016 N   0  0  0  0  0  0  0  0  0  0  0  0
  -21.8860  -12.5782   21.6004 N   0  0  0  0  0  0  0  0  0  0  0  0
  -32.6175  -24.9817   23.2423 N   0  0  0  0  0  0  0  0  0  0  0  0
  -33.2387  -19.8323   27.6649 N   0  0  0  0  0  0  0  0  0  0  0  0
  -30.1416  -15.6779   21.4990 N   0  0  0  0  0  0  0  0  0  0  0  0
  -31.3390  -19.3528   30.7029 N   0  3  0  0  0  0  0  0  0  0  0  0
  -22.6589  -14.7186   21.3177 O   0  0  0  0  0  0  0  0  0  0  0  0
  -32.4950  -22.6611   23.0928 O   0  0  0  0  0  0  0  0  0  0  0  0
  -34.2706  -22.1761   26.3802 O   0  0  0  0  0  0  0  0  0  0  0  0
  -31.0835  -19.0156   27.9212 O   0  0  0  0  0  0  0  0  0  0  0  0
  -31.8760  -14.9254   20.2020 O   0  0  0  0  0  0  0  0  0  0  0  0
  -21.6190   -7.0148   21.7135 O   0  0  0  0  0  0  0  0  0  0  0  0
  -26.0617  -21.8381   24.2927 O   0  0  0  0  0  0  0  0  0  1  0  0
  -18.6336   -6.8570   26.3467 F   0  0  0  0  0  0  0  0  0  0  0  0
  -22.0737   -5.0734   23.6284 F   0  0  0  0  0  0  0  0  0  0  0  0
  1  2  1  0  0  0  0
  1  5  2  0  0  0  0
  2  6  2  0  0  0  0
  3  8  2  0  0  0  0
  3 17  1  0  0  0  0
  4  9  1  0  0  0  0
  4 17  2  0  0  0  0
  5 19  1  0  0  0  0
  6 21  1  0  0  0  0
  7 10  2  0  0  0  0
  7 20  1  0  0  0  0
  8 25  1  0  0  0  0
  9 25  2  0  0  0  0
 10 26  1  0  0  0  0
 11 12  2  0  0  0  0
 11 27  1  0  0  0  0
 12 28  1  0  0  0  0
 13 22  1  0  0  0  0
 13 26  2  0  0  0  0
 14 28  2  0  0  0  0
 14 29  1  0  0  0  0
 15 23  2  0  0  0  0
 15 66  1  0  0  0  0
 16 24  2  0  0  0  0
 16 66  1  0  0  0  0
 17 30  1  0  0  0  0
 18 30  1  0  0  0  0
 18 31  2  0  0  0  0
 18 32  1  0  0  0  0
 19 21  2  0  0  0  0
 19 37  1  0  0  0  0
 20 22  2  0  0  0  0
 20 38  1  0  0  0  0
 21 46  1  0  0  0  0
 22 39  1  0  0  0  0
 23 24  1  0  0  0  0
 23 49  1  0  0  0  0
 24 60  1  0  0  0  0
 25 81  1  0  0  0  0
 26 82  1  0  0  0  0
 27 29  2  0  0  0  0
 27 81  1  0  0  0  0
 28 83  1  0  0  0  0
 29 84  1  0  0  0  0
 30 65  2  0  0  0  0
 31 67  1  0  0  0  0
 31 70  1  0  0  0  0
 32 71  1  0  0  0  0
 32 76  2  0  0  0  0
 33 47  1  0  0  0  0
 33 72  1  0  0  0  0
 33 77  2  0  0  0  0
 34 61  1  0  0  0  0
 34 68  1  0  0  0  0
 34 78  2  0  0  0  0
 35 62  1  0  0  0  0
 35 73  1  0  0  0  0
 35 79  2  0  0  0  0
 36 69  1  0  0  0  0
 36 74  1  0  0  0  0
 36 80  2  0  0  0  0
 37 40  1  0  0  0  0
 38 47  1  0  0  0  0
 39 68  1  0  0  0  0
 40 42  1  0  0  0  0
 41 43  1  0  0  0  0
 41 44  1  0  0  0  0
 42 46  1  0  0  0  0
 43 48  1  0  0  0  0
 44 69  1  0  0  0  0
 45 48  1  0  0  0  0
 45 69  1  0  0  0  0
 46 72  1  0  0  0  0
 47 68  1  0  0  0  0
 48 67  1  0  0  0  0
 50 60  1  0  0  0  0
 51 62  1  0  0  0  0
 52 63  1  0  0  0  0
 53 64  1  0  0  0  0
 54 64  1  0  0  0  0
 55 64  1  0  0  0  0
 56 75  1  0  0  0  0
 57 58  1  0  0  0  0
 57 63  1  0  0  0  0
 58 66  1  0  0  0  0
 59 60  1  0  0  0  0
 59 74  1  0  0  0  0
 61 64  1  0  0  0  0
 61 73  1  0  0  0  0
 62 75  1  0  0  0  0
 63 82  1  0  0  0  0
 65 67  1  0  0  0  0
M  CHG  1  75   1
M  ISO  4  36 100  63 101  74 100  82 101
M  END
> <Batch ID>
0081

> <Smiles>
CNC(C)C(=O)NC(C(=O)N1Cc2cc([101O:1][101CH:1](C)CCn3cc(C)c(C(C)C[100NH:0][100C:0](=O)N4CCCC(n5nc(-c6ccc(Oc7ccc(F)cc7F)cc6)c(C(N)=O)c5N)C4)c3)ccc2CC1C(=O)NC1CCCc2ccccc21)C(C)(C)C

> <Shape>
0.209

> <Color>
0.196

> <Negative vol penalty>
0.000

$$$$

  -OEChem-04052318463D

 84 92  0     1  0  0  0  0  0999 V2000
  -30.0924  -23.2222   18.2529 C   0  0  0  0  0  0  0  0  0  0  0  0
  -28.8684  -23.3086   18.9085 C   0  0  0  0  0  0  0  0  0  0  0  0
  -25.2238  -13.6096   19.3828 C   0  0  0  0  0  0  0  0  0  0  0  0
  -23.5084  -15.0962   20.2102 C   0  0  0  0  0  0  0  0  0  0  0  0
  -31.1397  -24.0661   18.6202 C   0  0  0  0  0  0  0  0  0  0  0  0
  -28.6913  -24.2384   19.9325 C   0  0  0  0  0  0  0  0  0  0  0  0
  -24.2933  -26.7214   19.5630 C   0  0  0  0  0  0  0  0  0  0  0  0
  -24.3421  -12.5339   19.4878 C   0  0  0  0  0  0  0  0  0  0  0  0
  -22.6267  -14.0205   20.3151 C   0  0  0  0  0  0  0  0  0  0  0  0
  -23.1459  -26.0503   19.9837 C   0  0  0  0  0  0  0  0  0  0  0  0
  -23.1466  -10.5226   21.9270 C   0  0  0  0  0  0  0  0  0  0  0  0
  -23.6286   -9.3437   22.4957 C   0  0  0  0  0  0  0  0  0  0  0  0
  -23.2212  -27.2466   22.0771 C   0  0  0  0  0  0  0  0  0  0  0  0
  -23.1385   -8.1563   20.4495 C   0  0  0  0  0  0  0  0  0  0  0  0
  -23.8414  -23.5060   23.3646 C   0  0  0  0  0  0  0  0  0  0  0  0
  -24.8070  -14.8908   19.7441 C   0  0  0  0  0  0  0  0  0  0  0  0
  -25.9067  -16.8413   18.5219 C   0  0  0  0  0  0  0  0  0  0  0  0
  -30.9724  -25.0133   19.6427 C   0  0  0  0  0  0  0  0  0  0  0  0
  -24.9205  -27.6537   20.4020 C   0  0  0  0  0  0  0  0  0  0  0  0
  -29.7378  -25.0948   20.3147 C   0  0  0  0  0  0  0  0  0  0  0  0
  -24.3749  -27.9300   21.6637 C   0  0  0  0  0  0  0  0  0  0  0  0
  -23.0436  -12.7393   19.9539 C   0  0  0  0  0  0  0  0  0  0  0  0
  -22.6113  -26.3107   21.2420 C   0  0  0  0  0  0  0  0  0  0  0  0
  -22.6604  -10.5184   20.6196 C   0  0  0  0  0  0  0  0  0  0  0  0
  -23.6246   -8.1606   21.7569 C   0  0  0  0  0  0  0  0  0  0  0  0
  -22.6564   -9.3353   19.8808 C   0  0  0  0  0  0  0  0  0  0  0  0
  -25.7174  -16.0024   19.6364 C   0  0  0  0  0  0  0  0  0  0  0  0
  -24.8536  -22.6031   23.2004 C   0  0  0  0  0  0  0  0  0  0  0  0
  -26.8716  -17.7327   18.9231 C   0  0  0  0  0  0  0  0  0  0  0  0
  -22.9394  -21.4913   23.1989 C   0  0  0  0  0  0  0  0  0  0  0  0
  -25.2675  -16.8171   17.2388 C   0  0  0  0  0  0  0  0  0  0  0  0
  -27.7829  -27.8740   21.7664 C   0  0  0  0  0  0  0  0  0  0  0  0
  -26.7004  -30.7982   22.6607 C   0  0  0  0  0  0  0  0  0  0  0  0
  -24.0335  -32.8284   23.3031 C   0  0  0  0  0  0  0  0  0  0  0  0
  -28.5922  -19.7339   24.2976 C   0  0  0  0  0  0  0  0  0  0  0  0
  -32.1482  -25.8716   20.0367 C   0  0  0  0  0  0  0  0  0  0  0  0
  -26.1422  -28.3887   19.9228 C   0  0  0  0  0  0  0  0  0  0  0  0
  -24.9987  -28.9367   22.5943 C   0  0  0  0  0  0  0  0  0  0  0  0
  -31.7617  -27.0850   20.8784 C   0  0  0  0  0  0  0  0  0  0  0  0
  -30.6257  -18.1150   21.8644 C   0  0  0  0  0  0  0  0  0  0  0  0
  -30.8001  -26.6787   21.9906 C   0  0  0  0  0  0  0  0  0  0  0  0
  -29.6154  -17.4657   20.9169 C   0  0  0  0  0  0  0  0  0  0  0  0
  -30.1466  -18.0749   23.3138 C   0  0  0  0  0  0  0  0  0  0  0  0
  -27.7923  -17.9900   22.5902 C   0  0  0  0  0  0  0  0  0  0  0  0
  -29.4992  -26.1074   21.4138 C   0  0  1  0  0  0  0  0  0  0  0  0
  -26.9928  -28.9408   21.0626 C   0  0  1  0  0  0  0  0  0  0  0  0
  -28.2058  -18.0562   21.1100 C   0  0  2  0  0  0  0  0  0  0  0  0
  -21.9609  -20.3770   23.1376 C   0  0  0  0  0  0  0  0  0  0  0  0
  -23.4640  -35.1547   24.0523 C   0  0  0  0  0  0  0  0  0  0  0  0
  -26.6231  -23.8387   25.4300 C   0  0  0  0  0  0  0  0  0  0  0  0
  -27.4108  -30.0451   25.5309 C   0  0  0  0  0  0  0  0  0  0  0  0
  -25.9821  -31.9478   26.3099 C   0  0  0  0  0  0  0  0  0  0  0  0
  -27.9878  -32.3941   24.8954 C   0  0  0  0  0  0  0  0  0  0  0  0
  -22.6208  -33.4226   20.7713 C   0  0  0  0  0  0  0  0  0  0  0  0
  -26.3062  -22.7799   23.1276 C   0  0  0  0  0  0  0  0  0  0  0  0
  -20.5312  -23.5241   22.1900 C   0  0  0  0  0  0  0  0  0  0  0  0
  -21.2903  -23.3838   23.5113 C   0  0  0  0  0  0  0  0  0  0  0  0
  -26.9192  -21.3389   25.1831 C   0  0  0  0  0  0  0  0  0  0  0  0
  -21.2830  -24.3405   21.1451 C   0  0  0  0  0  0  0  0  0  1  0  0
  -25.9421  -31.3403   23.8482 C   0  0  1  0  0  0  0  0  0  0  0  0
  -23.7162  -34.2452   22.8598 C   0  0  2  0  0  0  0  0  0  0  0  0
  -27.0605  -22.7064   24.4937 C   0  0  2  0  0  0  0  0  0  0  0  0
  -26.8198  -31.4114   25.1296 C   0  0  0  0  0  0  0  0  0  0  0  0
  -26.4994  -16.3313   20.6681 N   0  0  0  0  0  0  0  0  0  0  0  0
  -22.6683  -22.7906   23.3594 N   0  0  0  0  0  0  0  0  0  0  0  0
  -27.1894  -17.3868   20.2035 N   0  0  0  0  0  0  0  0  0  0  0  0
  -24.2667  -21.3647   23.1009 N   0  3  0  0  0  0  0  0  0  0  0  0
  -26.1955  -29.6248   22.0827 N   0  0  0  0  0  0  0  0  0  0  0  0
  -28.8047  -18.6510   23.4286 N   0  0  0  0  0  0  0  0  0  0  0  0
  -27.4707  -18.7709   18.3020 N   0  0  0  0  0  0  0  0  0  0  0  0
  -24.2986  -15.8345   16.9934 N   0  0  0  0  0  0  0  0  0  0  0  0
  -28.6438  -27.1751   20.9418 N   0  0  0  0  0  0  0  0  0  0  0  0
  -25.3913  -32.6246   23.4291 N   0  0  0  0  0  0  0  0  0  0  0  0
  -27.2927  -20.2239   24.3417 N   0  0  0  0  0  0  0  0  0  0  0  0
  -22.5032  -34.2578   21.9943 N   0  3  0  0  0  0  0  0  0  0  0  0
  -25.5589  -17.6321   16.3309 O   0  0  0  0  0  0  0  0  0  0  0  0
  -27.6245  -27.6990   22.9689 O   0  0  0  0  0  0  0  0  0  0  0  0
  -27.6996  -31.3979   22.2562 O   0  0  0  0  0  0  0  0  0  0  0  0
  -23.1635  -31.9876   23.5197 O   0  0  0  0  0  0  0  0  0  0  0  0
  -29.4950  -20.2310   24.9794 O   0  0  0  0  0  0  0  0  0  0  0  0
  -22.1829  -11.6898   20.0562 O   0  0  0  0  0  0  0  0  0  0  0  0
  -21.4919  -25.6567   21.6554 O   0  0  0  0  0  0  0  0  0  1  0  0
  -24.0889   -7.0288   22.3026 F   0  0  0  0  0  0  0  0  0  0  0  0
  -22.1917   -9.3253   18.6239 F   0  0  0  0  0  0  0  0  0  0  0  0
  1  2  1  0  0  0  0
  1  5  2  0  0  0  0
  2  6  2  0  0  0  0
  3  8  2  0  0  0  0
  3 16  1  0  0  0  0
  4  9  1  0  0  0  0
  4 16  2  0  0  0  0
  5 18  1  0  0  0  0
  6 20  1  0  0  0  0
  7 10  2  0  0  0  0
  7 19  1  0  0  0  0
  8 22  1  0  0  0  0
  9 22  2  0  0  0  0
 10 23  1  0  0  0  0
 11 12  2  0  0  0  0
 11 24  1  0  0  0  0
 12 25  1  0  0  0  0
 13 21  1  0  0  0  0
 13 23  2  0  0  0  0
 14 25  2  0  0  0  0
 14 26  1  0  0  0  0
 15 28  2  0  0  0  0
 15 65  1  0  0  0  0
 16 27  1  0  0  0  0
 17 27  1  0  0  0  0
 17 29  2  0  0  0  0
 17 31  1  0  0  0  0
 18 20  2  0  0  0  0
 18 36  1  0  0  0  0
 19 21  2  0  0  0  0
 19 37  1  0  0  0  0
 20 45  1  0  0  0  0
 21 38  1  0  0  0  0
 22 81  1  0  0  0  0
 23 82  1  0  0  0  0
 24 26  2  0  0  0  0
 24 81  1  0  0  0  0
 25 83  1  0  0  0  0
 26 84  1  0  0  0  0
 27 64  2  0  0  0  0
 28 55  1  0  0  0  0
 28 67  1  0  0  0  0
 29 66  1  0  0  0  0
 29 70  1  0  0  0  0
 30 48  1  0  0  0  0
 30 65  1  0  0  0  0
 30 67  2  0  0  0  0
 31 71  1  0  0  0  0
 31 76  2  0  0  0  0
 32 46  1  0  0  0  0
 32 72  1  0  0  0  0
 32 77  2  0  0  0  0
 33 60  1  0  0  0  0
 33 68  1  0  0  0  0
 33 78  2  0  0  0  0
 34 61  1  0  0  0  0
 34 73  1  0  0  0  0
 34 79  2  0  0  0  0
 35 69  1  0  0  0  0
 35 74  1  0  0  0  0
 35 80  2  0  0  0  0
 36 39  1  0  0  0  0
 37 46  1  0  0  0  0
 38 68  1  0  0  0  0
 39 41  1  0  0  0  0
 40 42  1  0  0  0  0
 40 43  1  0  0  0  0
 41 45  1  0  0  0  0
 42 47  1  0  0  0  0
 43 69  1  0  0  0  0
 44 47  1  0  0  0  0
 44 69  1  0  0  0  0
 45 72  1  0  0  0  0
 46 68  1  0  0  0  0
 47 66  1  0  0  0  0
 49 61  1  0  0  0  0
 50 62  1  0  0  0  0
 51 63  1  0  0  0  0
 52 63  1  0  0  0  0
 53 63  1  0  0  0  0
 54 75  1  0  0  0  0
 55 62  1  0  0  0  0
 56 57  1  0  0  0  0
 56 59  1  0  0  0  0
 57 65  1  0  0  0  0
 58 62  1  0  0  0  0
 58 74  1  0  0  0  0
 59 82  1  0  0  0  0
 60 63  1  0  0  0  0
 60 73  1  0  0  0  0
 61 75  1  0  0  0  0
 64 66  1  0  0  0  0
M  CHG  2  67   1  75   1
M  ISO  4  35 100  59 101  74 100  82 101
M  END
> <Batch ID>
0081

> <Smiles>
CNC(C)C(=O)NC(C(=O)N1Cc2cc([101O:1][101CH2:1]CCn3cc(CC(C)C[100NH:0][100C:0](=O)N4CCCC(n5nc(-c6ccc(Oc7ccc(F)cc7F)cc6)c(C(N)=O)c5N)C4)nc3C)ccc2CC1C(=O)NC1CCCc2ccccc21)C(C)(C)C

> <Shape>
0.242

> <Color>
0.056

> <Negative vol penalty>
0.000

$$$$

  -OEChem-04052318463D

 87 95  0     1  0  0  0  0  0999 V2000
  -17.9021  -31.0307   23.1321 C   0  0  0  0  0  0  0  0  0  0  0  0
  -19.2860  -31.1589   23.0709 C   0  0  0  0  0  0  0  0  0  0  0  0
  -25.2985  -13.3081   22.1454 C   0  0  0  0  0  0  0  0  0  0  0  0
  -26.7305  -13.3089   20.1995 C   0  0  0  0  0  0  0  0  0  0  0  0
  -17.3167  -29.7670   23.0685 C   0  0  0  0  0  0  0  0  0  0  0  0
  -20.0854  -30.0231   22.9471 C   0  0  0  0  0  0  0  0  0  0  0  0
  -25.3534  -29.5477   19.8604 C   0  0  0  0  0  0  0  0  0  0  0  0
  -24.4340  -12.4176   21.5089 C   0  0  0  0  0  0  0  0  0  0  0  0
  -25.8660  -12.4183   19.5630 C   0  0  0  0  0  0  0  0  0  0  0  0
  -26.6863  -29.5981   20.2663 C   0  0  0  0  0  0  0  0  0  0  0  0
  -24.3090   -9.1017   20.8592 C   0  0  0  0  0  0  0  0  0  0  0  0
  -23.8405   -8.0142   21.5964 C   0  0  0  0  0  0  0  0  0  0  0  0
  -26.7398  -27.1886   20.3694 C   0  0  0  0  0  0  0  0  0  0  0  0
  -21.5697   -8.7729   21.2724 C   0  0  0  0  0  0  0  0  0  0  0  0
  -31.5743  -26.6117   20.2102 C   0  0  0  0  0  0  0  0  0  0  0  0
  -26.4468  -13.7538   21.4907 C   0  0  0  0  0  0  0  0  0  0  0  0
  -28.4442  -14.3537   22.9597 C   0  0  0  0  0  0  0  0  0  0  0  0
  -18.1088  -28.6158   22.9342 C   0  0  0  0  0  0  0  0  0  0  0  0
  -24.6995  -28.3156   19.7162 C   0  0  0  0  0  0  0  0  0  0  0  0
  -19.5101  -28.7426   22.8830 C   0  0  0  0  0  0  0  0  0  0  0  0
  -25.3994  -27.1251   19.9591 C   0  0  0  0  0  0  0  0  0  0  0  0
  -30.9915  -27.7157   19.6282 C   0  0  0  0  0  0  0  0  0  0  0  0
  -30.4599  -27.3052   18.3808 C   0  0  0  0  0  0  0  0  0  0  0  0
  -24.7177  -11.9727   20.2177 C   0  0  0  0  0  0  0  0  0  0  0  0
  -27.3788  -28.4186   20.5237 C   0  0  0  0  0  0  0  0  0  0  0  0
  -23.4078  -10.0248   20.3286 C   0  0  0  0  0  0  0  0  0  0  0  0
  -22.4708   -7.8498   21.8030 C   0  0  0  0  0  0  0  0  0  0  0  0
  -22.0382   -9.8604   20.5352 C   0  0  0  0  0  0  0  0  0  0  0  0
  -27.3399  -14.6741   22.1475 C   0  0  0  0  0  0  0  0  0  0  0  0
  -30.7339  -25.9628   18.2386 C   0  0  0  0  0  0  0  0  0  0  0  0
  -28.9575  -15.5705   23.3369 C   0  0  0  0  0  0  0  0  0  0  0  0
  -28.9599  -13.0709   23.3392 C   0  0  0  0  0  0  0  0  0  0  0  0
  -22.1886  -26.9344   21.0915 C   0  0  0  0  0  0  0  0  0  0  0  0
  -22.7019  -24.6546   18.8417 C   0  0  0  0  0  0  0  0  0  0  0  0
  -24.8857  -23.1291   16.7086 C   0  0  0  0  0  0  0  0  0  0  0  0
  -28.7540  -20.8885   20.7809 C   0  0  0  0  0  0  0  0  0  0  0  0
  -17.4331  -27.2676   22.9171 C   0  0  0  0  0  0  0  0  0  0  0  0
  -23.2693  -28.2772   19.2518 C   0  0  0  0  0  0  0  0  0  0  0  0
  -24.7489  -25.7761   19.7995 C   0  0  0  0  0  0  0  0  0  0  0  0
  -18.3312  -26.1426   22.4090 C   0  0  0  0  0  0  0  0  0  0  0  0
  -27.6452  -20.1035   24.1353 C   0  0  0  0  0  0  0  0  0  0  0  0
  -19.7053  -26.2180   23.0670 C   0  0  0  0  0  0  0  0  0  0  0  0
  -27.5481  -18.5781   24.0744 C   0  0  0  0  0  0  0  0  0  0  0  0
  -27.2017  -20.7386   22.8207 C   0  0  0  0  0  0  0  0  0  0  0  0
  -27.8378  -18.7205   21.5573 C   0  0  0  0  0  0  0  0  0  0  0  0
  -20.4097  -27.5362   22.7238 C   0  0  1  0  0  0  0  0  0  0  0  0
  -22.5513  -26.9867   19.6343 C   0  0  1  0  0  0  0  0  0  0  0  0
  -28.2939  -18.0176   22.8488 C   0  0  2  0  0  0  0  0  0  0  0  0
  -29.7434  -28.1576   17.4096 C   0  0  0  0  0  0  0  0  0  0  0  0
  -30.4090  -25.0346   17.1350 C   0  0  0  0  0  0  0  0  0  0  0  0
  -25.0237  -21.2721   15.0264 C   0  0  0  0  0  0  0  0  0  0  0  0
  -31.6262  -30.2065   19.3595 C   0  0  0  0  0  0  0  0  0  0  0  0
  -31.6595  -29.1272   21.5982 C   0  0  0  0  0  0  0  0  0  0  0  0
  -22.7631  -22.6108   21.1065 C   0  0  0  0  0  0  0  0  0  0  0  0
  -23.8250  -20.9898   19.5214 C   0  0  0  0  0  0  0  0  0  0  0  0
  -21.5346  -21.8639   19.0602 C   0  0  0  0  0  0  0  0  0  0  0  0
  -31.0142  -23.9593   22.0034 C   0  0  0  0  0  0  0  0  0  0  0  0
  -31.7525  -21.9622   20.7150 C   0  0  0  0  0  0  0  0  0  0  0  0
  -25.5966  -25.0004   14.5287 C   0  0  0  0  0  0  0  0  0  0  0  0
  -31.8892  -24.2111   19.6140 C   0  0  0  0  0  0  0  0  0  0  0  0
  -29.5922  -23.1288   20.1211 C   0  0  0  0  0  0  0  0  0  0  0  0
  -29.4624  -29.5630   20.4537 C   0  0  0  0  0  0  0  0  0  1  0  0
  -23.5270  -23.3926   18.7674 C   0  0  1  0  0  0  0  0  0  0  0  0
  -24.7663  -22.7553   15.2421 C   0  0  2  0  0  0  0  0  0  0  0  0
  -30.9351  -29.1314   20.2323 C   0  0  0  0  0  0  0  0  0  0  0  0
  -22.9244  -22.2396   19.6188 C   0  0  0  0  0  0  0  0  0  0  0  0
  -31.0513  -23.3348   20.5936 C   0  0  0  0  0  0  0  0  0  0  0  0
  -27.1614  -15.9913   22.0161 N   0  0  0  0  0  0  0  0  0  0  0  0
  -31.4114  -25.5519   19.3568 N   0  0  0  0  0  0  0  0  0  0  0  0
  -28.1603  -16.5093   22.7508 N   0  0  0  0  0  0  0  0  0  0  0  0
  -23.3473  -25.7912   19.3493 N   0  0  0  0  0  0  0  0  0  0  0  0
  -27.9628  -20.1752   21.6966 N   0  0  0  0  0  0  0  0  0  0  0  0
  -30.0084  -15.9184   24.1096 N   0  0  0  0  0  0  0  0  0  0  0  0
  -28.3121  -11.9228   22.8630 N   0  0  0  0  0  0  0  0  0  0  0  0
  -20.9550  -27.4840   21.3843 N   0  0  0  0  0  0  0  0  0  0  0  0
  -23.6659  -23.0787   17.3495 N   0  0  0  0  0  0  0  0  0  0  0  0
  -28.8141  -22.2626   20.9785 N   0  0  0  0  0  0  0  0  0  0  0  0
  -25.7494  -23.5261   14.4294 N   0  3  0  0  0  0  0  0  0  0  0  0
  -29.9555  -12.9463   24.0921 O   0  0  0  0  0  0  0  0  0  0  0  0
  -22.9693  -26.4313   21.8908 O   0  0  0  0  0  0  0  0  0  0  0  0
  -21.5301  -24.6346   18.4568 O   0  0  0  0  0  0  0  0  0  0  0  0
  -25.9548  -23.4317   17.2340 O   0  0  0  0  0  0  0  0  0  0  0  0
  -29.3664  -20.3405   19.8579 O   0  0  0  0  0  0  0  0  0  0  0  0
  -23.8745  -11.1035   19.5963 O   0  0  0  0  0  0  0  0  0  0  0  0
  -28.6796  -28.4651   20.9207 O   0  0  0  0  0  0  0  0  0  1  0  0
  -22.0210   -6.8046   22.5096 F   0  0  0  0  0  0  0  0  0  0  0  0
  -21.1676  -10.7433   20.0270 F   0  0  0  0  0  0  0  0  0  0  0  0
  1  2  1  0  0  0  0
  1  5  2  0  0  0  0
  2  6  2  0  0  0  0
  3  8  2  0  0  0  0
  3 16  1  0  0  0  0
  4  9  1  0  0  0  0
  4 16  2  0  0  0  0
  5 18  1  0  0  0  0
  6 20  1  0  0  0  0
  7 10  2  0  0  0  0
  7 19  1  0  0  0  0
  8 24  1  0  0  0  0
  9 24  2  0  0  0  0
 10 25  1  0  0  0  0
 11 12  2  0  0  0  0
 11 26  1  0  0  0  0
 12 27  1  0  0  0  0
 13 21  1  0  0  0  0
 13 25  2  0  0  0  0
 14 27  2  0  0  0  0
 14 28  1  0  0  0  0
 15 22  2  0  0  0  0
 15 69  1  0  0  0  0
 16 29  1  0  0  0  0
 17 29  1  0  0  0  0
 17 31  2  0  0  0  0
 17 32  1  0  0  0  0
 18 20  2  0  0  0  0
 18 37  1  0  0  0  0
 19 21  2  0  0  0  0
 19 38  1  0  0  0  0
 20 46  1  0  0  0  0
 21 39  1  0  0  0  0
 22 23  1  0  0  0  0
 22 65  1  0  0  0  0
 23 30  2  0  0  0  0
 23 49  1  0  0  0  0
 24 84  1  0  0  0  0
 25 85  1  0  0  0  0
 26 28  2  0  0  0  0
 26 84  1  0  0  0  0
 27 86  1  0  0  0  0
 28 87  1  0  0  0  0
 29 68  2  0  0  0  0
 30 50  1  0  0  0  0
 30 69  1  0  0  0  0
 31 70  1  0  0  0  0
 31 73  1  0  0  0  0
 32 74  1  0  0  0  0
 32 79  2  0  0  0  0
 33 47  1  0  0  0  0
 33 75  1  0  0  0  0
 33 80  2  0  0  0  0
 34 63  1  0  0  0  0
 34 71  1  0  0  0  0
 34 81  2  0  0  0  0
 35 64  1  0  0  0  0
 35 76  1  0  0  0  0
 35 82  2  0  0  0  0
 36 72  1  0  0  0  0
 36 77  1  0  0  0  0
 36 83  2  0  0  0  0
 37 40  1  0  0  0  0
 38 47  1  0  0  0  0
 39 71  1  0  0  0  0
 40 42  1  0  0  0  0
 41 43  1  0  0  0  0
 41 44  1  0  0  0  0
 42 46  1  0  0  0  0
 43 48  1  0  0  0  0
 44 72  1  0  0  0  0
 45 48  1  0  0  0  0
 45 72  1  0  0  0  0
 46 75  1  0  0  0  0
 47 71  1  0  0  0  0
 48 70  1  0  0  0  0
 51 64  1  0  0  0  0
 52 65  1  0  0  0  0
 53 65  1  0  0  0  0
 54 66  1  0  0  0  0
 55 66  1  0  0  0  0
 56 66  1  0  0  0  0
 57 67  1  0  0  0  0
 58 67  1  0  0  0  0
 59 78  1  0  0  0  0
 60 67  1  0  0  0  0
 60 69  1  0  0  0  0
 61 67  1  0  0  0  0
 61 77  1  0  0  0  0
 62 65  1  0  0  0  0
 62 85  1  0  0  0  0
 63 66  1  0  0  0  0
 63 76  1  0  0  0  0
 64 78  1  0  0  0  0
 68 70  1  0  0  0  0
M  CHG  1  78   1
M  ISO  4  36 100  62 101  77 100  85 101
M  END
> <Batch ID>
0081

> <Smiles>
CNC(C)C(=O)NC(C(=O)N1Cc2cc([101O:1][101CH2:1]C(C)(C)c3cn(CC(C)(C)C[100NH:0][100C:0](=O)N4CCCC(n5nc(-c6ccc(Oc7ccc(F)cc7F)cc6)c(C(N)=O)c5N)C4)c(C)c3C)ccc2CC1C(=O)NC1CCCc2ccccc21)C(C)(C)C

> <Shape>
0.263

> <Color>
0.093

> <Negative vol penalty>
0.000

$$$$

  -OEChem-04052318463D

 82 90  0     1  0  0  0  0  0999 V2000
  -32.3820  -30.7402   22.3099 C   0  0  0  0  0  0  0  0  0  0  0  0
  -32.3059  -29.3511   22.3179 C   0  0  0  0  0  0  0  0  0  0  0  0
  -23.0793   -9.8514   19.9489 C   0  0  0  0  0  0  0  0  0  0  0  0
  -23.8358   -9.8772   22.2433 C   0  0  0  0  0  0  0  0  0  0  0  0
  -31.2436  -31.5011   22.5723 C   0  0  0  0  0  0  0  0  0  0  0  0
  -31.0914  -28.7220   22.5894 C   0  0  0  0  0  0  0  0  0  0  0  0
  -30.1287  -24.9011   19.4085 C   0  0  0  0  0  0  0  0  0  0  0  0
  -22.3401   -8.6968   20.2056 C   0  0  0  0  0  0  0  0  0  0  0  0
  -23.0965   -8.7226   22.5000 C   0  0  0  0  0  0  0  0  0  0  0  0
  -30.7948  -23.6981   19.6383 C   0  0  0  0  0  0  0  0  0  0  0  0
  -19.8710   -7.9148   23.1032 C   0  0  0  0  0  0  0  0  0  0  0  0
  -19.1124   -7.8795   24.2732 C   0  0  0  0  0  0  0  0  0  0  0  0
  -28.8208  -22.8163   20.7084 C   0  0  0  0  0  0  0  0  0  0  0  0
  -20.3611   -5.9525   25.0246 C   0  0  0  0  0  0  0  0  0  0  0  0
  -28.7533  -17.7843   19.2026 C   0  0  0  0  0  0  0  0  0  0  0  0
  -23.8272  -10.4416   20.9677 C   0  0  0  0  0  0  0  0  0  0  0  0
  -24.1583  -12.9674   20.8311 C   0  0  0  0  0  0  0  0  0  0  0  0
  -30.0123  -30.8811   22.8377 C   0  0  0  0  0  0  0  0  0  0  0  0
  -28.8049  -25.0748   19.8373 C   0  0  0  0  0  0  0  0  0  0  0  0
  -29.9357  -29.4754   22.8570 C   0  0  0  0  0  0  0  0  0  0  0  0
  -28.1393  -24.0216   20.4805 C   0  0  0  0  0  0  0  0  0  0  0  0
  -22.3487   -8.1324   21.4811 C   0  0  0  0  0  0  0  0  0  0  0  0
  -30.1419  -22.6565   20.2909 C   0  0  0  0  0  0  0  0  0  0  0  0
  -20.8745   -6.9689   22.8938 C   0  0  0  0  0  0  0  0  0  0  0  0
  -19.3575   -6.8984   25.2339 C   0  0  0  0  0  0  0  0  0  0  0  0
  -21.1196   -5.9878   23.8545 C   0  0  0  0  0  0  0  0  0  0  0  0
  -24.5915  -11.6341   20.7030 C   0  0  0  0  0  0  0  0  0  0  0  0
  -29.7712  -18.2606   19.9798 C   0  0  0  0  0  0  0  0  0  0  0  0
  -25.2477  -13.7191   20.4643 C   0  0  0  0  0  0  0  0  0  0  0  0
  -30.1928  -18.8245   17.8810 C   0  0  0  0  0  0  0  0  0  0  0  0
  -22.8850  -13.4805   21.2446 C   0  0  0  0  0  0  0  0  0  0  0  0
  -27.3451  -27.0311   21.8734 C   0  0  0  0  0  0  0  0  0  0  0  0
  -24.6691  -25.6133   20.7110 C   0  0  0  0  0  0  0  0  0  0  0  0
  -23.2502  -22.9029   19.1987 C   0  0  0  0  0  0  0  0  0  0  0  0
  -30.7267  -14.7633   20.6538 C   0  0  0  0  0  0  0  0  0  0  0  0
  -28.8196  -31.7452   23.1623 C   0  0  0  0  0  0  0  0  0  0  0  0
  -28.0915  -26.3692   19.5581 C   0  0  0  0  0  0  0  0  0  0  0  0
  -26.7116  -24.1503   20.9427 C   0  0  0  0  0  0  0  0  0  0  0  0
  -27.4880  -31.0043   23.0714 C   0  0  0  0  0  0  0  0  0  0  0  0
  -29.6030  -12.3577   18.2816 C   0  0  0  0  0  0  0  0  0  0  0  0
  -27.5775  -29.6565   23.7801 C   0  0  0  0  0  0  0  0  0  0  0  0
  -28.1662  -12.0607   18.7144 C   0  0  0  0  0  0  0  0  0  0  0  0
  -30.5174  -12.5907   19.4823 C   0  0  0  0  0  0  0  0  0  0  0  0
  -28.6104  -13.3228   20.8611 C   0  0  0  0  0  0  0  0  0  0  0  0
  -28.6308  -28.7565   23.1228 C   0  0  1  0  0  0  0  0  0  0  0  0
  -26.9134  -26.6164   20.4952 C   0  0  1  0  0  0  0  0  0  0  0  0
  -27.6388  -13.1360   19.6833 C   0  0  2  0  0  0  0  0  0  0  0  0
  -29.9294  -20.3663   15.9215 C   0  0  0  0  0  0  0  0  0  0  0  0
  -21.0364  -22.0196   18.4134 C   0  0  0  0  0  0  0  0  0  0  0  0
  -23.8968  -24.9904   23.5964 C   0  0  0  0  0  0  0  0  0  0  0  0
  -22.2387  -23.3313   22.7210 C   0  0  0  0  0  0  0  0  0  0  0  0
  -22.0027  -25.7481   22.1498 C   0  0  0  0  0  0  0  0  0  0  0  0
  -24.1762  -22.7490   16.3919 C   0  0  0  0  0  0  0  0  0  0  0  0
  -29.9863  -18.1667   21.4289 C   0  0  0  0  0  0  0  0  0  0  0  0
  -30.8345  -19.3833   16.6652 C   0  0  0  0  0  0  0  0  0  0  0  0
  -31.9278  -19.5827   19.5517 C   0  0  0  0  0  0  0  0  0  0  0  0
  -30.7814  -16.9224   21.8762 C   0  0  0  0  0  0  0  0  0  0  0  0
  -31.7930  -21.1013   19.5758 C   0  0  0  0  0  0  0  0  0  1  0  0
  -23.8553  -24.3977   21.0838 C   0  0  1  0  0  0  0  0  0  0  0  0
  -22.2897  -22.7903   18.0285 C   0  0  2  0  0  0  0  0  0  0  0  0
  -23.0259  -24.6148   22.3809 C   0  0  0  0  0  0  0  0  0  0  0  0
  -25.8574  -11.5409   20.2873 N   0  0  0  0  0  0  0  0  0  0  0  0
  -30.6477  -18.8993   19.1360 N   0  0  0  0  0  0  0  0  0  0  0  0
  -26.2289  -12.8252   20.1508 N   0  0  0  0  0  0  0  0  0  0  0  0
  -29.0401  -18.1479   17.9089 N   0  3  0  0  0  0  0  0  0  0  0  0
  -26.0589  -25.4376   20.6521 N   0  0  0  0  0  0  0  0  0  0  0  0
  -29.9611  -13.6227   20.3605 N   0  0  0  0  0  0  0  0  0  0  0  0
  -25.4525  -15.0510   20.3826 N   0  0  0  0  0  0  0  0  0  0  0  0
  -21.8765  -12.5692   21.5866 N   0  0  0  0  0  0  0  0  0  0  0  0
  -28.1118  -28.1804   21.9008 N   0  0  0  0  0  0  0  0  0  0  0  0
  -23.0538  -24.0674   19.9103 N   0  0  0  0  0  0  0  0  0  0  0  0
  -30.1223  -15.6951   21.4886 N   0  0  0  0  0  0  0  0  0  0  0  0
  -22.9425  -22.0867   16.8884 N   0  3  0  0  0  0  0  0  0  0  0  0
  -22.6433  -14.7104   21.2933 O   0  0  0  0  0  0  0  0  0  0  0  0
  -27.0064  -26.3590   22.8405 O   0  0  0  0  0  0  0  0  0  0  0  0
  -24.0925  -26.6775   20.4735 O   0  0  0  0  0  0  0  0  0  0  0  0
  -24.0881  -22.0419   19.4578 O   0  0  0  0  0  0  0  0  0  0  0  0
  -31.8626  -14.9406   20.2007 O   0  0  0  0  0  0  0  0  0  0  0  0
  -21.6272   -7.0058   21.7320 O   0  0  0  0  0  0  0  0  0  0  0  0
  -30.7900  -21.4814   20.5170 O   0  0  0  0  0  0  0  0  0  1  0  0
  -18.6301   -6.8656   26.3582 F   0  0  0  0  0  0  0  0  0  0  0  0
  -22.0832   -5.0772   23.6595 F   0  0  0  0  0  0  0  0  0  0  0  0
  1  2  1  0  0  0  0
  1  5  2  0  0  0  0
  2  6  2  0  0  0  0
  3  8  2  0  0  0  0
  3 16  1  0  0  0  0
  4  9  1  0  0  0  0
  4 16  2  0  0  0  0
  5 18  1  0  0  0  0
  6 20  1  0  0  0  0
  7 10  2  0  0  0  0
  7 19  1  0  0  0  0
  8 22  1  0  0  0  0
  9 22  2  0  0  0  0
 10 23  1  0  0  0  0
 11 12  2  0  0  0  0
 11 24  1  0  0  0  0
 12 25  1  0  0  0  0
 13 21  1  0  0  0  0
 13 23  2  0  0  0  0
 14 25  2  0  0  0  0
 14 26  1  0  0  0  0
 15 28  2  0  0  0  0
 15 65  1  0  0  0  0
 16 27  1  0  0  0  0
 17 27  1  0  0  0  0
 17 29  2  0  0  0  0
 17 31  1  0  0  0  0
 18 20  2  0  0  0  0
 18 36  1  0  0  0  0
 19 21  2  0  0  0  0
 19 37  1  0  0  0  0
 20 45  1  0  0  0  0
 21 38  1  0  0  0  0
 22 79  1  0  0  0  0
 23 80  1  0  0  0  0
 24 26  2  0  0  0  0
 24 79  1  0  0  0  0
 25 81  1  0  0  0  0
 26 82  1  0  0  0  0
 27 62  2  0  0  0  0
 28 54  1  0  0  0  0
 28 63  1  0  0  0  0
 29 64  1  0  0  0  0
 29 68  1  0  0  0  0
 30 55  1  0  0  0  0
 30 63  1  0  0  0  0
 30 65  2  0  0  0  0
 31 69  1  0  0  0  0
 31 74  2  0  0  0  0
 32 46  1  0  0  0  0
 32 70  1  0  0  0  0
 32 75  2  0  0  0  0
 33 59  1  0  0  0  0
 33 66  1  0  0  0  0
 33 76  2  0  0  0  0
 34 60  1  0  0  0  0
 34 71  1  0  0  0  0
 34 77  2  0  0  0  0
 35 67  1  0  0  0  0
 35 72  1  0  0  0  0
 35 78  2  0  0  0  0
 36 39  1  0  0  0  0
 37 46  1  0  0  0  0
 38 66  1  0  0  0  0
 39 41  1  0  0  0  0
 40 42  1  0  0  0  0
 40 43  1  0  0  0  0
 41 45  1  0  0  0  0
 42 47  1  0  0  0  0
 43 67  1  0  0  0  0
 44 47  1  0  0  0  0
 44 67  1  0  0  0  0
 45 70  1  0  0  0  0
 46 66  1  0  0  0  0
 47 64  1  0  0  0  0
 48 55  1  0  0  0  0
 49 60  1  0  0  0  0
 50 61  1  0  0  0  0
 51 61  1  0  0  0  0
 52 61  1  0  0  0  0
 53 73  1  0  0  0  0
 54 57  1  0  0  0  0
 56 58  1  0  0  0  0
 56 63  1  0  0  0  0
 57 72  1  0  0  0  0
 58 80  1  0  0  0  0
 59 61  1  0  0  0  0
 59 71  1  0  0  0  0
 60 73  1  0  0  0  0
 62 64  1  0  0  0  0
M  CHG  2  65   1  73   1
M  ISO  4  35 100  58 101  72 100  80 101
M  END
> <Batch ID>
0081

> <Smiles>
CCc1ncc(CC[100NH:0][100C:0](=O)N2CCCC(n3nc(-c4ccc(Oc5ccc(F)cc5F)cc4)c(C(N)=O)c3N)C2)n1C[101CH2:1][101O:1]c1ccc2c(c1)CN(C(=O)C(NC(=O)C(C)NC)C(C)(C)C)C(C(=O)NC1CCCc3ccccc31)C2

> <Shape>
0.274

> <Color>
0.188

> <Negative vol penalty>
0.000

$$$$

  -OEChem-04052318463D

 86 94  0     1  0  0  0  0  0999 V2000
  -17.0663  -29.7606   24.5384 C   0  0  0  0  0  0  0  0  0  0  0  0
  -17.7248  -28.5392   24.6390 C   0  0  0  0  0  0  0  0  0  0  0  0
  -29.9685  -16.9149   18.8689 C   0  0  0  0  0  0  0  0  0  0  0  0
  -29.2447  -18.1340   20.8251 C   0  0  0  0  0  0  0  0  0  0  0  0
  -17.3148  -30.5977   23.4515 C   0  0  0  0  0  0  0  0  0  0  0  0
  -18.6314  -28.1538   23.6522 C   0  0  0  0  0  0  0  0  0  0  0  0
  -23.7694  -24.9144   24.4358 C   0  0  0  0  0  0  0  0  0  0  0  0
  -30.3979  -18.1066   18.2850 C   0  0  0  0  0  0  0  0  0  0  0  0
  -29.6741  -19.3258   20.2412 C   0  0  0  0  0  0  0  0  0  0  0  0
  -24.0615  -23.5624   24.2615 C   0  0  0  0  0  0  0  0  0  0  0  0
  -28.5507  -21.5063   17.9144 C   0  0  0  0  0  0  0  0  0  0  0  0
  -27.6991  -22.6085   17.9895 C   0  0  0  0  0  0  0  0  0  0  0  0
  -24.9132  -24.0370   22.0550 C   0  0  0  0  0  0  0  0  0  0  0  0
  -29.3963  -23.8379   19.1917 C   0  0  0  0  0  0  0  0  0  0  0  0
  -29.3919  -16.9285   20.1389 C   0  0  0  0  0  0  0  0  0  0  0  0
  -29.6988  -14.8323   21.5600 C   0  0  0  0  0  0  0  0  0  0  0  0
  -18.2322  -30.2267   22.4558 C   0  0  0  0  0  0  0  0  0  0  0  0
  -24.0373  -25.8379   23.4150 C   0  0  0  0  0  0  0  0  0  0  0  0
  -18.8915  -28.9862   22.5503 C   0  0  0  0  0  0  0  0  0  0  0  0
  -24.6259  -25.4006   22.2198 C   0  0  0  0  0  0  0  0  0  0  0  0
  -30.2507  -19.3121   18.9711 C   0  0  0  0  0  0  0  0  0  0  0  0
  -24.6309  -23.1231   23.0699 C   0  0  0  0  0  0  0  0  0  0  0  0
  -29.8252  -21.5700   18.4779 C   0  0  0  0  0  0  0  0  0  0  0  0
  -28.1219  -23.7743   18.6281 C   0  0  0  0  0  0  0  0  0  0  0  0
  -30.2479  -22.7357   19.1165 C   0  0  0  0  0  0  0  0  0  0  0  0
  -28.9477  -15.6979   20.7424 C   0  0  0  0  0  0  0  0  0  0  0  0
  -28.8300  -13.8157   21.8731 C   0  0  0  0  0  0  0  0  0  0  0  0
  -23.7333  -15.5098   25.8547 C   0  0  0  0  0  0  0  0  0  0  0  0
  -25.8413  -15.6110   26.3599 C   0  0  0  0  0  0  0  0  0  0  0  0
  -31.0602  -14.9379   21.9973 C   0  0  0  0  0  0  0  0  0  0  0  0
  -22.2707  -27.7984   21.6432 C   0  0  0  0  0  0  0  0  0  0  0  0
  -25.1623  -28.8146   20.5811 C   0  0  0  0  0  0  0  0  0  0  0  0
  -28.4714  -28.1371   20.0935 C   0  0  0  0  0  0  0  0  0  0  0  0
  -22.8573  -13.4958   22.1475 C   0  0  0  0  0  0  0  0  0  0  0  0
  -18.4326  -31.1437   21.2753 C   0  0  0  0  0  0  0  0  0  0  0  0
  -23.7409  -27.2969   23.6290 C   0  0  0  0  0  0  0  0  0  0  0  0
  -24.9518  -26.3548   21.1010 C   0  0  0  0  0  0  0  0  0  0  0  0
  -19.6876  -30.8285   20.4653 C   0  0  0  0  0  0  0  0  0  0  0  0
  -25.0198  -11.4849   20.1583 C   0  0  0  0  0  0  0  0  0  0  0  0
  -19.7897  -29.3297   20.2006 C   0  0  0  0  0  0  0  0  0  0  0  0
  -26.3394  -12.2585   20.1562 C   0  0  0  0  0  0  0  0  0  0  0  0
  -23.8154  -12.4234   20.1305 C   0  0  0  0  0  0  0  0  0  0  0  0
  -25.1254  -14.2237   21.1871 C   0  0  0  0  0  0  0  0  0  0  0  0
  -19.9005  -28.5440   21.5128 C   0  0  1  0  0  0  0  0  0  0  0  0
  -23.5817  -28.0718   22.3245 C   0  0  1  0  0  0  0  0  0  0  0  0
  -26.3682  -13.3212   21.2712 C   0  0  2  0  0  0  0  0  0  0  0  0
  -30.5741  -29.1488   19.1701 C   0  0  0  0  0  0  0  0  0  0  0  0
  -28.0980  -15.2812   27.4297 C   0  0  0  0  0  0  0  0  0  0  0  0
  -27.4548  -17.5390   26.5215 C   0  0  0  0  0  0  0  0  0  0  0  0
  -28.0223  -15.6760   24.9761 C   0  0  0  0  0  0  0  0  0  0  0  0
  -24.1617  -28.2999   17.7450 C   0  0  0  0  0  0  0  0  0  0  0  0
  -26.5376  -28.4038   16.9625 C   0  0  0  0  0  0  0  0  0  0  0  0
  -25.4855  -30.4040   18.0183 C   0  0  0  0  0  0  0  0  0  0  0  0
  -29.8368  -27.9782   22.7144 C   0  0  0  0  0  0  0  0  0  0  0  0
  -22.4575  -15.7662   25.1630 C   0  0  0  0  0  0  0  0  0  0  0  0
  -24.6973  -18.5111   24.7080 C   0  0  0  0  0  0  0  0  0  0  0  0
  -25.0177  -19.5097   23.5947 C   0  0  0  0  0  0  0  0  0  0  0  0
  -25.1297  -17.0792   24.3724 C   0  0  0  0  0  0  0  0  0  0  0  0
  -22.0361  -14.6555   24.1822 C   0  0  0  0  0  0  0  0  0  0  0  0
  -24.6065  -20.9251   23.9777 C   0  0  0  0  0  0  0  0  0  1  0  0
  -26.0895  -28.4157   19.4585 C   0  0  1  0  0  0  0  0  0  0  0  0
  -29.7211  -28.9381   20.4114 C   0  0  2  0  0  0  0  0  0  0  0  0
  -27.2626  -15.9979   26.3147 C   0  0  0  0  0  0  0  0  0  0  0  0
  -25.5607  -28.8623   18.0662 C   0  0  0  0  0  0  0  0  0  0  0  0
  -27.6979  -15.2685   20.5482 N   0  0  0  0  0  0  0  0  0  0  0  0
  -23.9324  -14.7116   26.8792 N   0  0  0  0  0  0  0  0  0  0  0  0
  -25.2736  -14.7760   27.2006 N   0  0  0  0  0  0  0  0  0  0  0  0
  -27.6571  -14.1219   21.2481 N   0  0  0  0  0  0  0  0  0  0  0  0
  -24.9084  -16.0967   25.4947 N   0  0  0  0  0  0  0  0  0  0  0  0
  -24.6375  -27.7703   21.3556 N   0  0  0  0  0  0  0  0  0  0  0  0
  -23.9029  -13.4055   21.2139 N   0  0  0  0  0  0  0  0  0  0  0  0
  -28.9626  -12.6985   22.6193 N   0  0  0  0  0  0  0  0  0  0  0  0
  -31.8109  -16.0467   21.5832 N   0  0  0  0  0  0  0  0  0  0  0  0
  -21.2442  -28.6326   22.0429 N   0  0  0  0  0  0  0  0  0  0  0  0
  -27.4009  -28.9554   19.8009 N   0  0  0  0  0  0  0  0  0  0  0  0
  -23.0227  -14.4482   23.1456 N   0  0  0  0  0  0  0  0  0  0  0  0
  -30.5441  -28.2304   21.4326 N   0  3  0  0  0  0  0  0  0  0  0  0
  -31.6000  -14.0663   22.7201 O   0  0  0  0  0  0  0  0  0  0  0  0
  -22.1964  -26.8981   20.8151 O   0  0  0  0  0  0  0  0  0  0  0  0
  -24.9186  -30.0092   20.7686 O   0  0  0  0  0  0  0  0  0  0  0  0
  -28.4482  -26.9083   20.1001 O   0  0  0  0  0  0  0  0  0  0  0  0
  -21.8534  -12.7769   22.0985 O   0  0  0  0  0  0  0  0  0  0  0  0
  -30.6698  -20.4752   18.4018 O   0  0  0  0  0  0  0  0  0  0  0  0
  -24.9165  -21.8038   22.8970 O   0  0  0  0  0  0  0  0  0  1  0  0
  -27.3046  -24.8331   18.6989 F   0  0  0  0  0  0  0  0  0  0  0  0
  -31.4716  -22.8032   19.6588 F   0  0  0  0  0  0  0  0  0  0  0  0
  1  2  1  0  0  0  0
  1  5  2  0  0  0  0
  2  6  2  0  0  0  0
  3  8  2  0  0  0  0
  3 15  1  0  0  0  0
  4  9  1  0  0  0  0
  4 15  2  0  0  0  0
  5 17  1  0  0  0  0
  6 19  1  0  0  0  0
  7 10  2  0  0  0  0
  7 18  1  0  0  0  0
  8 21  1  0  0  0  0
  9 21  2  0  0  0  0
 10 22  1  0  0  0  0
 11 12  2  0  0  0  0
 11 23  1  0  0  0  0
 12 24  1  0  0  0  0
 13 20  1  0  0  0  0
 13 22  2  0  0  0  0
 14 24  2  0  0  0  0
 14 25  1  0  0  0  0
 15 26  1  0  0  0  0
 16 26  1  0  0  0  0
 16 27  2  0  0  0  0
 16 30  1  0  0  0  0
 17 19  2  0  0  0  0
 17 35  1  0  0  0  0
 18 20  2  0  0  0  0
 18 36  1  0  0  0  0
 19 44  1  0  0  0  0
 20 37  1  0  0  0  0
 21 83  1  0  0  0  0
 22 84  1  0  0  0  0
 23 25  2  0  0  0  0
 23 83  1  0  0  0  0
 24 85  1  0  0  0  0
 25 86  1  0  0  0  0
 26 65  2  0  0  0  0
 27 68  1  0  0  0  0
 27 72  1  0  0  0  0
 28 55  1  0  0  0  0
 28 66  2  0  0  0  0
 28 69  1  0  0  0  0
 29 63  1  0  0  0  0
 29 67  2  0  0  0  0
 29 69  1  0  0  0  0
 30 73  1  0  0  0  0
 30 78  2  0  0  0  0
 31 45  1  0  0  0  0
 31 74  1  0  0  0  0
 31 79  2  0  0  0  0
 32 61  1  0  0  0  0
 32 70  1  0  0  0  0
 32 80  2  0  0  0  0
 33 62  1  0  0  0  0
 33 75  1  0  0  0  0
 33 81  2  0  0  0  0
 34 71  1  0  0  0  0
 34 76  1  0  0  0  0
 34 82  2  0  0  0  0
 35 38  1  0  0  0  0
 36 45  1  0  0  0  0
 37 70  1  0  0  0  0
 38 40  1  0  0  0  0
 39 41  1  0  0  0  0
 39 42  1  0  0  0  0
 40 44  1  0  0  0  0
 41 46  1  0  0  0  0
 42 71  1  0  0  0  0
 43 46  1  0  0  0  0
 43 71  1  0  0  0  0
 44 74  1  0  0  0  0
 45 70  1  0  0  0  0
 46 68  1  0  0  0  0
 47 62  1  0  0  0  0
 48 63  1  0  0  0  0
 49 63  1  0  0  0  0
 50 63  1  0  0  0  0
 51 64  1  0  0  0  0
 52 64  1  0  0  0  0
 53 64  1  0  0  0  0
 54 77  1  0  0  0  0
 55 59  1  0  0  0  0
 56 57  1  0  0  0  0
 56 58  1  0  0  0  0
 57 60  1  0  0  0  0
 58 69  1  0  0  0  0
 59 76  1  0  0  0  0
 60 84  1  0  0  0  0
 61 64  1  0  0  0  0
 61 75  1  0  0  0  0
 62 77  1  0  0  0  0
 65 68  1  0  0  0  0
 66 67  1  0  0  0  0
M  CHG  1  77   1
M  ISO  4  34 100  60 101  76 100  84 101
M  END
> <Batch ID>
0081

> <Smiles>
CNC(C)C(=O)NC(C(=O)N1Cc2cc([101O:1][101CH2:1]CCCn3c(CC[100NH:0][100C:0](=O)N4CCCC(n5nc(-c6ccc(Oc7ccc(F)cc7F)cc6)c(C(N)=O)c5N)C4)nnc3C(C)(C)C)ccc2CC1C(=O)NC1CCCc2ccccc21)C(C)(C)C

> <Shape>
0.216

> <Color>
0.064

> <Negative vol penalty>
0.000

$$$$

  -OEChem-04052318463D

 89 98  0     1  0  0  0  0  0999 V2000
  -24.4160  -33.7884   22.7224 C   0  0  0  0  0  0  0  0  0  0  0  0
  -24.7575  -32.6101   22.0664 C   0  0  0  0  0  0  0  0  0  0  0  0
  -22.7206  -10.0372   20.1077 C   0  0  0  0  0  0  0  0  0  0  0  0
  -24.3394   -9.3483   21.7635 C   0  0  0  0  0  0  0  0  0  0  0  0
  -23.3972  -33.7849   23.6742 C   0  0  0  0  0  0  0  0  0  0  0  0
  -24.0811  -31.4272   22.3627 C   0  0  0  0  0  0  0  0  0  0  0  0
  -22.7095  -26.8980   18.4755 C   0  0  0  0  0  0  0  0  0  0  0  0
  -22.0101   -8.8541   20.3100 C   0  0  0  0  0  0  0  0  0  0  0  0
  -23.6289   -8.1651   21.9659 C   0  0  0  0  0  0  0  0  0  0  0  0
  -23.3196  -25.6727   18.2100 C   0  0  0  0  0  0  0  0  0  0  0  0
  -20.8518   -7.1814   23.6213 C   0  0  0  0  0  0  0  0  0  0  0  0
  -20.6354   -6.7743   24.9377 C   0  0  0  0  0  0  0  0  0  0  0  0
  -21.7893  -24.5889   19.7275 C   0  0  0  0  0  0  0  0  0  0  0  0
  -24.7392  -21.2042   16.3311 C   0  0  0  0  0  0  0  0  0  0  0  0
  -25.8032  -21.3191   18.4850 C   0  0  0  0  0  0  0  0  0  0  0  0
  -21.8279   -4.7195   24.4984 C   0  0  0  0  0  0  0  0  0  0  0  0
  -23.8853  -10.2843   20.8344 C   0  0  0  0  0  0  0  0  0  0  0  0
  -24.1530  -12.8211   20.8108 C   0  0  0  0  0  0  0  0  0  0  0  0
  -22.7015  -32.6034   23.9754 C   0  0  0  0  0  0  0  0  0  0  0  0
  -21.6400  -26.9797   19.3788 C   0  0  0  0  0  0  0  0  0  0  0  0
  -23.0530  -31.4076   23.3204 C   0  0  0  0  0  0  0  0  0  0  0  0
  -21.1657  -25.8159   20.0007 C   0  0  0  0  0  0  0  0  0  0  0  0
  -25.0400  -21.9155   17.4874 C   0  0  0  0  0  0  0  0  0  0  0  0
  -22.4642   -7.9180   21.2391 C   0  0  0  0  0  0  0  0  0  0  0  0
  -22.8613  -24.5184   18.8383 C   0  0  0  0  0  0  0  0  0  0  0  0
  -21.5563   -6.3576   22.7434 C   0  0  0  0  0  0  0  0  0  0  0  0
  -21.1234   -5.5434   25.3763 C   0  0  0  0  0  0  0  0  0  0  0  0
  -22.0444   -5.1267   23.1819 C   0  0  0  0  0  0  0  0  0  0  0  0
  -24.6200  -11.5060   20.6255 C   0  0  0  0  0  0  0  0  0  0  0  0
  -25.2216  -19.9099   16.2219 C   0  0  0  0  0  0  0  0  0  0  0  0
  -26.2378  -20.0196   18.2795 C   0  0  0  0  0  0  0  0  0  0  0  0
  -25.2241  -13.6154   20.4816 C   0  0  0  0  0  0  0  0  0  0  0  0
  -22.8662  -13.2834   21.2422 C   0  0  0  0  0  0  0  0  0  0  0  0
  -21.1479  -28.4683   22.1438 C   0  0  0  0  0  0  0  0  0  0  0  0
  -18.1336  -27.3282   21.7749 C   0  0  0  0  0  0  0  0  0  0  0  0
  -16.0686  -24.9959   20.3810 C   0  0  0  0  0  0  0  0  0  0  0  0
  -30.6746  -14.7868   20.7364 C   0  0  0  0  0  0  0  0  0  0  0  0
  -21.6396  -32.6390   25.0458 C   0  0  0  0  0  0  0  0  0  0  0  0
  -20.9755  -28.3047   19.6339 C   0  0  0  0  0  0  0  0  0  0  0  0
  -20.0076  -25.8468   20.9632 C   0  0  0  0  0  0  0  0  0  0  0  0
  -20.7189  -31.4215   25.0312 C   0  0  0  0  0  0  0  0  0  0  0  0
  -29.6175  -12.4615   18.2561 C   0  0  0  0  0  0  0  0  0  0  0  0
  -21.5335  -30.1376   24.9091 C   0  0  0  0  0  0  0  0  0  0  0  0
  -28.1876  -12.1097   18.6702 C   0  0  0  0  0  0  0  0  0  0  0  0
  -27.5425  -19.1843   21.6828 C   0  0  0  0  0  0  0  0  0  0  0  0
  -29.1155  -18.3348   19.9328 C   0  0  0  0  0  0  0  0  0  0  0  0
  -30.5228  -12.6638   19.4691 C   0  0  0  0  0  0  0  0  0  0  0  0
  -26.4337  -19.2819   20.6350 C   0  0  0  0  0  0  0  0  0  0  0  0
  -28.0011  -18.4295   18.8921 C   0  0  0  0  0  0  0  0  0  0  0  0
  -28.5947  -13.2861   20.8723 C   0  0  0  0  0  0  0  0  0  0  0  0
  -22.3257  -30.1095   23.5964 C   0  0  1  0  0  0  0  0  0  0  0  0
  -20.2269  -28.3517   20.9624 C   0  0  1  0  0  0  0  0  0  0  0  0
  -28.5525  -18.0861   21.3360 C   0  0  0  0  0  0  0  0  0  0  0  0
  -27.6309  -13.1275   19.6839 C   0  0  2  0  0  0  0  0  0  0  0  0
  -24.9182  -19.1170   14.9947 C   0  0  0  0  0  0  0  0  0  0  0  0
  -13.6594  -24.2991   20.2930 C   0  0  0  0  0  0  0  0  0  0  0  0
  -29.0656  -17.7574   23.7619 C   0  0  0  0  0  0  0  0  0  0  0  0
  -30.4021  -19.3900   22.4230 C   0  0  0  0  0  0  0  0  0  0  0  0
  -18.3848  -26.1163   24.5638 C   0  0  0  0  0  0  0  0  0  0  0  0
  -16.4023  -24.6791   24.0418 C   0  0  0  0  0  0  0  0  0  0  0  0
  -16.1659  -27.1621   24.0768 C   0  0  0  0  0  0  0  0  0  0  0  0
  -15.9289  -25.4317   17.4570 C   0  0  0  0  0  0  0  0  0  0  0  0
  -24.5430  -23.3209   17.6577 C   0  0  0  0  0  0  0  0  0  1  0  0
  -30.6720  -16.8904   22.0533 C   0  0  0  0  0  0  0  0  0  0  0  0
  -17.4132  -26.0625   22.1723 C   0  0  1  0  0  0  0  0  0  0  0  0
  -14.7511  -25.1318   19.6391 C   0  0  2  0  0  0  0  0  0  0  0  0
  -29.6742  -18.0319   22.3703 C   0  0  0  0  0  0  0  0  0  0  0  0
  -17.1146  -26.0044   23.6971 C   0  0  0  0  0  0  0  0  0  0  0  0
  -25.8888  -11.4631   20.2104 N   0  0  0  0  0  0  0  0  0  0  0  0
  -25.9658  -19.2971   17.1697 N   0  0  0  0  0  0  0  0  0  0  0  0
  -26.2282  -12.7611   20.1322 N   0  0  0  0  0  0  0  0  0  0  0  0
  -27.0049  -19.4324   19.2927 N   0  0  0  0  0  0  0  0  0  0  0  0
  -19.3952  -27.1672   21.1847 N   0  0  0  0  0  0  0  0  0  0  0  0
  -29.9386  -13.6417   20.3902 N   0  0  0  0  0  0  0  0  0  0  0  0
  -25.3955  -14.9543   20.4596 N   0  0  0  0  0  0  0  0  0  0  0  0
  -22.6485  -13.4693   22.6142 N   0  0  0  0  0  0  0  0  0  0  0  0
  -21.4576  -29.7699   22.4894 N   0  0  0  0  0  0  0  0  0  0  0  0
  -16.2262  -25.9860   21.3276 N   0  0  0  0  0  0  0  0  0  0  0  0
  -30.0449  -15.6654   21.6095 N   0  0  0  0  0  0  0  0  0  0  0  0
  -14.9032  -24.6816   18.2266 N   0  3  0  0  0  0  0  0  0  0  0  0
  -21.9318  -13.5087   20.4362 O   0  0  0  0  0  0  0  0  0  0  0  0
  -21.5469  -27.4527   22.7015 O   0  0  0  0  0  0  0  0  0  0  0  0
  -17.5936  -28.4193   21.9740 O   0  0  0  0  0  0  0  0  0  0  0  0
  -16.8754  -24.0988   20.1469 O   0  0  0  0  0  0  0  0  0  0  0  0
  -31.8067  -15.0124   20.2955 O   0  0  0  0  0  0  0  0  0  0  0  0
  -21.7710   -6.7635   21.4369 O   0  0  0  0  0  0  0  0  0  0  0  0
  -23.4554  -23.3213   18.5815 O   0  0  0  0  0  0  0  0  0  1  0  0
  -20.9168   -5.1532   26.6409 F   0  0  0  0  0  0  0  0  0  0  0  0
  -22.7229   -4.3315   22.3434 F   0  0  0  0  0  0  0  0  0  0  0  0
  1  2  1  0  0  0  0
  1  5  2  0  0  0  0
  2  6  2  0  0  0  0
  3  8  2  0  0  0  0
  3 17  1  0  0  0  0
  4  9  1  0  0  0  0
  4 17  2  0  0  0  0
  5 19  1  0  0  0  0
  6 21  1  0  0  0  0
  7 10  2  0  0  0  0
  7 20  1  0  0  0  0
  8 24  1  0  0  0  0
  9 24  2  0  0  0  0
 10 25  1  0  0  0  0
 11 12  2  0  0  0  0
 11 26  1  0  0  0  0
 12 27  1  0  0  0  0
 13 22  1  0  0  0  0
 13 25  2  0  0  0  0
 14 23  1  0  0  0  0
 14 30  2  0  0  0  0
 15 23  2  0  0  0  0
 15 31  1  0  0  0  0
 16 27  2  0  0  0  0
 16 28  1  0  0  0  0
 17 29  1  0  0  0  0
 18 29  1  0  0  0  0
 18 32  2  0  0  0  0
 18 33  1  0  0  0  0
 19 21  2  0  0  0  0
 19 38  1  0  0  0  0
 20 22  2  0  0  0  0
 20 39  1  0  0  0  0
 21 51  1  0  0  0  0
 22 40  1  0  0  0  0
 23 63  1  0  0  0  0
 24 86  1  0  0  0  0
 25 87  1  0  0  0  0
 26 28  2  0  0  0  0
 26 86  1  0  0  0  0
 27 88  1  0  0  0  0
 28 89  1  0  0  0  0
 29 69  2  0  0  0  0
 30 55  1  0  0  0  0
 30 70  1  0  0  0  0
 31 70  2  0  0  0  0
 31 72  1  0  0  0  0
 32 71  1  0  0  0  0
 32 75  1  0  0  0  0
 33 76  1  0  0  0  0
 33 81  2  0  0  0  0
 34 52  1  0  0  0  0
 34 77  1  0  0  0  0
 34 82  2  0  0  0  0
 35 65  1  0  0  0  0
 35 73  1  0  0  0  0
 35 83  2  0  0  0  0
 36 66  1  0  0  0  0
 36 78  1  0  0  0  0
 36 84  2  0  0  0  0
 37 74  1  0  0  0  0
 37 79  1  0  0  0  0
 37 85  2  0  0  0  0
 38 41  1  0  0  0  0
 39 52  1  0  0  0  0
 40 73  1  0  0  0  0
 41 43  1  0  0  0  0
 42 44  1  0  0  0  0
 42 47  1  0  0  0  0
 43 51  1  0  0  0  0
 44 54  1  0  0  0  0
 45 48  1  0  0  0  0
 45 53  1  0  0  0  0
 46 49  1  0  0  0  0
 46 53  1  0  0  0  0
 47 74  1  0  0  0  0
 48 72  1  0  0  0  0
 49 72  1  0  0  0  0
 50 54  1  0  0  0  0
 50 74  1  0  0  0  0
 51 77  1  0  0  0  0
 52 73  1  0  0  0  0
 53 67  1  0  0  0  0
 54 71  1  0  0  0  0
 56 66  1  0  0  0  0
 57 67  1  0  0  0  0
 58 67  1  0  0  0  0
 59 68  1  0  0  0  0
 60 68  1  0  0  0  0
 61 68  1  0  0  0  0
 62 80  1  0  0  0  0
 63 87  1  0  0  0  0
 64 67  1  0  0  0  0
 64 79  1  0  0  0  0
 65 68  1  0  0  0  0
 65 78  1  0  0  0  0
 66 80  1  0  0  0  0
 69 71  1  0  0  0  0
M  CHG  1  80   1
M  ISO  4  37 100  63 101  79 100  87 101
M  END
> <Batch ID>
0081

> <Smiles>
CNC(C)C(=O)NC(C(=O)N1Cc2cc([101O:1][101CH2:1]c3cc(C)nc(N4CCC(C(C)(C)C[100NH:0][100C:0](=O)N5CCCC(n6nc(-c7ccc(Oc8ccc(F)cc8F)cc7)c(C(N)=O)c6N)C5)CC4)c3)ccc2CC1C(=O)NC1CCCc2ccccc21)C(C)(C)C

> <Shape>
0.312

> <Color>
0.193

> <Negative vol penalty>
0.000

$$$$

  -OEChem-04052318463D

 84 92  0     1  0  0  0  0  0999 V2000
  -29.7380  -12.6139   19.9103 C   0  0  0  0  0  0  0  0  0  0  0  0
  -29.6628  -13.7937   20.6436 C   0  0  0  0  0  0  0  0  0  0  0  0
  -28.1580  -24.9888   18.9097 C   0  0  0  0  0  0  0  0  0  0  0  0
  -25.7813  -24.5815   18.7591 C   0  0  0  0  0  0  0  0  0  0  0  0
  -28.7861  -12.3430   18.9282 C   0  0  0  0  0  0  0  0  0  0  0  0
  -28.6362  -14.7039   20.3946 C   0  0  0  0  0  0  0  0  0  0  0  0
  -24.4912  -19.4960   23.7370 C   0  0  0  0  0  0  0  0  0  0  0  0
  -28.3921  -23.6140   18.9335 C   0  0  0  0  0  0  0  0  0  0  0  0
  -26.0155  -23.2066   18.7828 C   0  0  0  0  0  0  0  0  0  0  0  0
  -24.0949  -20.8293   23.6422 C   0  0  0  0  0  0  0  0  0  0  0  0
  -29.5914  -20.2123   19.3961 C   0  0  0  0  0  0  0  0  0  0  0  0
  -30.5037  -19.7243   20.3317 C   0  0  0  0  0  0  0  0  0  0  0  0
  -22.4608  -20.2188   21.9760 C   0  0  0  0  0  0  0  0  0  0  0  0
  -29.1413  -20.6076   22.1208 C   0  0  0  0  0  0  0  0  0  0  0  0
  -26.8526  -25.4726   18.8226 C   0  0  0  0  0  0  0  0  0  0  0  0
  -26.5392  -27.7240   17.6647 C   0  0  0  0  0  0  0  0  0  0  0  0
  -27.7417  -13.2459   18.6737 C   0  0  0  0  0  0  0  0  0  0  0  0
  -23.8818  -18.5141   22.9427 C   0  0  0  0  0  0  0  0  0  0  0  0
  -27.6702  -14.4455   19.4073 C   0  0  0  0  0  0  0  0  0  0  0  0
  -22.8494  -18.8734   22.0644 C   0  0  0  0  0  0  0  0  0  0  0  0
  -27.3209  -22.7228   18.8700 C   0  0  0  0  0  0  0  0  0  0  0  0
  -23.0815  -21.1913   22.7596 C   0  0  0  0  0  0  0  0  0  0  0  0
  -28.4541  -20.8980   19.8229 C   0  0  0  0  0  0  0  0  0  0  0  0
  -30.2786  -19.9219   21.6940 C   0  0  0  0  0  0  0  0  0  0  0  0
  -28.2291  -21.0956   21.1852 C   0  0  0  0  0  0  0  0  0  0  0  0
  -26.6100  -26.8927   18.7986 C   0  0  0  0  0  0  0  0  0  0  0  0
  -26.2916  -28.9761   18.1719 C   0  0  0  0  0  0  0  0  0  0  0  0
  -19.0910  -26.8821   21.2476 C   0  0  0  0  0  0  0  0  0  0  0  0
  -19.8384  -27.8239   23.0541 C   0  0  0  0  0  0  0  0  0  0  0  0
  -26.6842  -27.3938   16.2771 C   0  0  0  0  0  0  0  0  0  0  0  0
  -24.8865  -16.5091   20.6900 C   0  0  0  0  0  0  0  0  0  0  0  0
  -21.8584  -15.3661   20.9046 C   0  0  0  0  0  0  0  0  0  0  0  0
  -18.6004  -15.9334   21.7477 C   0  0  0  0  0  0  0  0  0  0  0  0
  -23.7607  -30.8917   23.2489 C   0  0  0  0  0  0  0  0  0  0  0  0
  -26.7634  -12.9316   17.5697 C   0  0  0  0  0  0  0  0  0  0  0  0
  -24.3024  -17.0762   23.0761 C   0  0  0  0  0  0  0  0  0  0  0  0
  -22.1493  -17.8543   21.2044 C   0  0  0  0  0  0  0  0  0  0  0  0
  -25.4914  -13.7738   17.6251 C   0  0  0  0  0  0  0  0  0  0  0  0
  -27.0327  -31.6516   22.0685 C   0  0  0  0  0  0  0  0  0  0  0  0
  -25.8335  -15.2437   17.8468 C   0  0  0  0  0  0  0  0  0  0  0  0
  -27.2890  -30.5931   20.9943 C   0  0  0  0  0  0  0  0  0  0  0  0
  -26.2302  -31.0859   23.2382 C   0  0  0  0  0  0  0  0  0  0  0  0
  -25.2224  -29.3682   21.7864 C   0  0  0  0  0  0  0  0  0  0  0  0
  -26.5572  -15.4461   19.1835 C   0  0  1  0  0  0  0  0  0  0  0  0
  -23.9659  -16.2386   21.8463 C   0  0  1  0  0  0  0  0  0  0  0  0
  -25.9802  -29.9061   20.5605 C   0  0  2  0  0  0  0  0  0  0  0  0
  -19.0658  -26.1073   19.9943 C   0  0  0  0  0  0  0  0  0  0  0  0
  -16.3506  -14.8221   21.7756 C   0  0  0  0  0  0  0  0  0  0  0  0
  -21.6304  -15.7574   17.8872 C   0  0  0  0  0  0  0  0  0  0  0  0
  -19.1459  -15.5528   18.1185 C   0  0  0  0  0  0  0  0  0  0  0  0
  -20.6169  -13.6376   18.7438 C   0  0  0  0  0  0  0  0  0  0  0  0
  -18.3791  -16.1942   24.6874 C   0  0  0  0  0  0  0  0  0  0  0  0
  -20.7699  -28.2548   24.1116 C   0  0  0  0  0  0  0  0  0  0  0  0
  -20.8279  -29.7840   24.3514 C   0  0  0  0  0  0  0  0  0  0  0  0
  -21.9863  -25.3061   22.5045 C   0  0  0  0  0  0  0  0  0  0  0  0
  -23.3514  -24.7345   22.1183 C   0  0  0  0  0  0  0  0  0  0  0  0
  -21.6017  -26.5449   21.6876 C   0  0  0  0  0  0  0  0  0  0  0  0
  -21.3002  -30.5861   23.1406 C   0  0  0  0  0  0  0  0  0  0  0  0
  -23.6833  -23.4862   22.9248 C   0  0  0  0  0  0  0  0  0  1  0  0
  -20.5459  -15.6824   20.2290 C   0  0  1  0  0  0  0  0  0  0  0  0
  -17.6153  -15.1188   22.5664 C   0  0  2  0  0  0  0  0  0  0  0  0
  -20.4991  -15.1773   18.7593 C   0  0  0  0  0  0  0  0  0  0  0  0
  -26.4227  -27.5605   19.9401 N   0  0  0  0  0  0  0  0  0  0  0  0
  -18.0780  -27.4877   21.8251 N   0  0  0  0  0  0  0  0  0  0  0  0
  -18.5535  -28.0869   22.9744 N   0  0  0  0  0  0  0  0  0  0  0  0
  -26.2318  -28.8247   19.5260 N   0  0  0  0  0  0  0  0  0  0  0  0
  -20.2193  -27.0677   21.9874 N   0  0  0  0  0  0  0  0  0  0  0  0
  -22.6006  -16.4623   21.3664 N   0  0  0  0  0  0  0  0  0  0  0  0
  -25.0007  -30.4497   22.7591 N   0  0  0  0  0  0  0  0  0  0  0  0
  -26.1215  -30.1810   17.5872 N   0  0  0  0  0  0  0  0  0  0  0  0
  -26.9357  -26.0592   15.9306 N   0  0  0  0  0  0  0  0  0  0  0  0
  -25.6135  -15.4078   20.2801 N   0  0  0  0  0  0  0  0  0  0  0  0
  -19.5023  -15.1283   21.0848 N   0  0  0  0  0  0  0  0  0  0  0  0
  -22.6451  -30.2395   22.7382 N   0  0  0  0  0  0  0  0  0  0  0  0
  -17.2338  -15.8577   23.8031 N   0  3  0  0  0  0  0  0  0  0  0  0
  -26.6098  -28.2594   15.3723 O   0  0  0  0  0  0  0  0  0  0  0  0
  -24.9328  -17.6335   20.2048 O   0  0  0  0  0  0  0  0  0  0  0  0
  -22.2086  -14.1895   21.0247 O   0  0  0  0  0  0  0  0  0  0  0  0
  -18.5704  -17.1611   21.6981 O   0  0  0  0  0  0  0  0  0  0  0  0
  -23.6553  -31.8039   24.0759 O   0  0  0  0  0  0  0  0  0  0  0  0
  -27.5490  -21.3812   18.8928 O   0  0  0  0  0  0  0  0  0  0  0  0
  -22.6931  -22.4921   22.6647 O   0  0  0  0  0  0  0  0  0  1  0  0
  -31.1539  -19.4519   22.5924 F   0  0  0  0  0  0  0  0  0  0  0  0
  -27.1377  -21.7526   21.6013 F   0  0  0  0  0  0  0  0  0  0  0  0
  1  2  1  0  0  0  0
  1  5  2  0  0  0  0
  2  6  2  0  0  0  0
  3  8  2  0  0  0  0
  3 15  1  0  0  0  0
  4  9  1  0  0  0  0
  4 15  2  0  0  0  0
  5 17  1  0  0  0  0
  6 19  1  0  0  0  0
  7 10  2  0  0  0  0
  7 18  1  0  0  0  0
  8 21  1  0  0  0  0
  9 21  2  0  0  0  0
 10 22  1  0  0  0  0
 11 12  2  0  0  0  0
 11 23  1  0  0  0  0
 12 24  1  0  0  0  0
 13 20  1  0  0  0  0
 13 22  2  0  0  0  0
 14 24  2  0  0  0  0
 14 25  1  0  0  0  0
 15 26  1  0  0  0  0
 16 26  1  0  0  0  0
 16 27  2  0  0  0  0
 16 30  1  0  0  0  0
 17 19  2  0  0  0  0
 17 35  1  0  0  0  0
 18 20  2  0  0  0  0
 18 36  1  0  0  0  0
 19 44  1  0  0  0  0
 20 37  1  0  0  0  0
 21 81  1  0  0  0  0
 22 82  1  0  0  0  0
 23 25  2  0  0  0  0
 23 81  1  0  0  0  0
 24 83  1  0  0  0  0
 25 84  1  0  0  0  0
 26 63  2  0  0  0  0
 27 66  1  0  0  0  0
 27 70  1  0  0  0  0
 28 47  1  0  0  0  0
 28 64  2  0  0  0  0
 28 67  1  0  0  0  0
 29 53  1  0  0  0  0
 29 65  2  0  0  0  0
 29 67  1  0  0  0  0
 30 71  1  0  0  0  0
 30 76  2  0  0  0  0
 31 45  1  0  0  0  0
 31 72  1  0  0  0  0
 31 77  2  0  0  0  0
 32 60  1  0  0  0  0
 32 68  1  0  0  0  0
 32 78  2  0  0  0  0
 33 61  1  0  0  0  0
 33 73  1  0  0  0  0
 33 79  2  0  0  0  0
 34 69  1  0  0  0  0
 34 74  1  0  0  0  0
 34 80  2  0  0  0  0
 35 38  1  0  0  0  0
 36 45  1  0  0  0  0
 37 68  1  0  0  0  0
 38 40  1  0  0  0  0
 39 41  1  0  0  0  0
 39 42  1  0  0  0  0
 40 44  1  0  0  0  0
 41 46  1  0  0  0  0
 42 69  1  0  0  0  0
 43 46  1  0  0  0  0
 43 69  1  0  0  0  0
 44 72  1  0  0  0  0
 45 68  1  0  0  0  0
 46 66  1  0  0  0  0
 48 61  1  0  0  0  0
 49 62  1  0  0  0  0
 50 62  1  0  0  0  0
 51 62  1  0  0  0  0
 52 75  1  0  0  0  0
 53 54  1  0  0  0  0
 54 58  1  0  0  0  0
 55 56  1  0  0  0  0
 55 57  1  0  0  0  0
 56 59  1  0  0  0  0
 57 67  1  0  0  0  0
 58 74  1  0  0  0  0
 59 82  1  0  0  0  0
 60 62  1  0  0  0  0
 60 73  1  0  0  0  0
 61 75  1  0  0  0  0
 63 66  1  0  0  0  0
 64 65  1  0  0  0  0
M  CHG  1  75   1
M  ISO  4  34 100  59 101  74 100  82 101
M  END
> <Batch ID>
0081

> <Smiles>
CNC(C)C(=O)NC(C(=O)N1Cc2cc([101O:1][101CH2:1]CCCn3c(C)nnc3CCC[100NH:0][100C:0](=O)N3CCCC(n4nc(-c5ccc(Oc6ccc(F)cc6F)cc5)c(C(N)=O)c4N)C3)ccc2CC1C(=O)NC1CCCc2ccccc21)C(C)(C)C

> <Shape>
0.210

> <Color>
0.078

> <Negative vol penalty>
0.000

$$$$

  -OEChem-04052318463D

 84 92  0     1  0  0  0  0  0999 V2000
  -33.4204  -25.7019   31.4376 C   0  0  0  0  0  0  0  0  0  0  0  0
  -32.3386  -25.0836   30.8190 C   0  0  0  0  0  0  0  0  0  0  0  0
  -23.0763   -9.8648   19.9517 C   0  0  0  0  0  0  0  0  0  0  0  0
  -23.8342   -9.8854   22.2457 C   0  0  0  0  0  0  0  0  0  0  0  0
  -34.1818  -26.6364   30.7370 C   0  0  0  0  0  0  0  0  0  0  0  0
  -32.0167  -25.4004   29.4997 C   0  0  0  0  0  0  0  0  0  0  0  0
  -29.7521  -21.6144   25.2519 C   0  0  0  0  0  0  0  0  0  0  0  0
  -22.3335   -8.7122   20.2075 C   0  0  0  0  0  0  0  0  0  0  0  0
  -23.0914   -8.7328   22.5014 C   0  0  0  0  0  0  0  0  0  0  0  0
  -28.4560  -21.3923   24.7885 C   0  0  0  0  0  0  0  0  0  0  0  0
  -20.5229   -5.5588   20.1651 C   0  0  0  0  0  0  0  0  0  0  0  0
  -20.5882   -4.5233   19.2330 C   0  0  0  0  0  0  0  0  0  0  0  0
  -28.8559  -22.9128   22.9590 C   0  0  0  0  0  0  0  0  0  0  0  0
  -22.9729   -4.3578   19.5837 C   0  0  0  0  0  0  0  0  0  0  0  0
  -28.1888  -18.8730   21.6947 C   0  0  0  0  0  0  0  0  0  0  0  0
  -23.8267  -10.4513   20.9708 C   0  0  0  0  0  0  0  0  0  0  0  0
  -24.1658  -12.9762   20.8370 C   0  0  0  0  0  0  0  0  0  0  0  0
  -33.8751  -26.9577   29.4053 C   0  0  0  0  0  0  0  0  0  0  0  0
  -30.6075  -22.4973   24.5773 C   0  0  0  0  0  0  0  0  0  0  0  0
  -32.7739  -26.3411   28.7811 C   0  0  0  0  0  0  0  0  0  0  0  0
  -30.1632  -23.1425   23.4144 C   0  0  0  0  0  0  0  0  0  0  0  0
  -22.3410   -8.1462   21.4823 C   0  0  0  0  0  0  0  0  0  0  0  0
  -28.0068  -22.0437   23.6436 C   0  0  0  0  0  0  0  0  0  0  0  0
  -21.6827   -5.9940   20.8065 C   0  0  0  0  0  0  0  0  0  0  0  0
  -21.8131   -3.9227   18.9422 C   0  0  0  0  0  0  0  0  0  0  0  0
  -22.9076   -5.3934   20.5158 C   0  0  0  0  0  0  0  0  0  0  0  0
  -24.5947  -11.6416   20.7071 C   0  0  0  0  0  0  0  0  0  0  0  0
  -29.0819  -18.4116   20.7693 C   0  0  0  0  0  0  0  0  0  0  0  0
  -25.2574  -13.7248   20.4705 C   0  0  0  0  0  0  0  0  0  0  0  0
  -27.1298  -18.6798   19.7604 C   0  0  0  0  0  0  0  0  0  0  0  0
  -22.8944  -13.4929   21.2520 C   0  0  0  0  0  0  0  0  0  0  0  0
  -32.0774  -25.2127   25.3322 C   0  0  0  0  0  0  0  0  0  0  0  0
  -33.4508  -24.8247   22.4192 C   0  0  0  0  0  0  0  0  0  0  0  0
  -33.2830  -23.4601   19.2957 C   0  0  0  0  0  0  0  0  0  0  0  0
  -30.7398  -14.7511   20.6577 C   0  0  0  0  0  0  0  0  0  0  0  0
  -34.6983  -28.0090   28.7041 C   0  0  0  0  0  0  0  0  0  0  0  0
  -32.0117  -22.7057   25.0748 C   0  0  0  0  0  0  0  0  0  0  0  0
  -31.0492  -24.0844   22.6422 C   0  0  0  0  0  0  0  0  0  0  0  0
  -34.5191  -28.0119   27.1881 C   0  0  0  0  0  0  0  0  0  0  0  0
  -29.6069  -12.3521   18.2833 C   0  0  0  0  0  0  0  0  0  0  0  0
  -33.0393  -27.9381   26.8253 C   0  0  0  0  0  0  0  0  0  0  0  0
  -28.1694  -12.0592   18.7167 C   0  0  0  0  0  0  0  0  0  0  0  0
  -30.5228  -12.5806   19.4837 C   0  0  0  0  0  0  0  0  0  0  0  0
  -28.6191  -13.3172   20.8647 C   0  0  0  0  0  0  0  0  0  0  0  0
  -32.4084  -26.6399   27.3433 C   0  0  1  0  0  0  0  0  0  0  0  0
  -32.6247  -24.0198   24.6008 C   0  0  1  0  0  0  0  0  0  0  0  0
  -27.6461  -13.1350   19.6872 C   0  0  2  0  0  0  0  0  0  0  0  0
  -26.2182  -19.8946   17.7655 C   0  0  0  0  0  0  0  0  0  0  0  0
  -31.3893  -19.2807   21.2638 C   0  0  0  0  0  0  0  0  0  0  0  0
  -34.0352  -22.8332   16.9851 C   0  0  0  0  0  0  0  0  0  0  0  0
  -32.5163  -27.6491   21.7412 C   0  0  0  0  0  0  0  0  0  0  0  0
  -32.9352  -27.1332   19.3274 C   0  0  0  0  0  0  0  0  0  0  0  0
  -34.8253  -27.0973   20.9549 C   0  0  0  0  0  0  0  0  0  0  0  0
  -34.5397  -20.9593   20.2578 C   0  0  0  0  0  0  0  0  0  0  0  0
  -26.0810  -18.7000   18.7103 C   0  0  0  0  0  0  0  0  0  0  0  0
  -25.4051  -20.9921   21.3817 C   0  0  0  0  0  0  0  0  0  0  0  0
  -25.7147  -19.5234   21.6799 C   0  0  0  0  0  0  0  0  0  0  0  0
  -30.8022  -16.9086   21.8827 C   0  0  0  0  0  0  0  0  0  0  0  0
  -26.5293  -21.9400   21.7828 C   0  0  0  0  0  0  0  0  0  1  0  0
  -30.5010  -18.0653   20.8823 C   0  0  1  0  0  0  0  0  0  0  0  0
  -33.1064  -25.2441   21.0105 C   0  0  1  0  0  0  0  0  0  0  0  0
  -34.3044  -22.6932   18.4753 C   0  0  2  0  0  0  0  0  0  0  0  0
  -33.3282  -26.7647   20.7739 C   0  0  0  0  0  0  0  0  0  0  0  0
  -25.8600  -11.5449   20.2904 N   0  0  0  0  0  0  0  0  0  0  0  0
  -26.9894  -19.0305   21.0429 N   0  0  0  0  0  0  0  0  0  0  0  0
  -26.2355  -12.8282   20.1552 N   0  0  0  0  0  0  0  0  0  0  0  0
  -28.3995  -18.3012   19.5818 N   0  3  0  0  0  0  0  0  0  0  0  0
  -32.4115  -24.2601   23.1721 N   0  0  0  0  0  0  0  0  0  0  0  0
  -29.9703  -13.6134   20.3635 N   0  0  0  0  0  0  0  0  0  0  0  0
  -25.4664  -15.0561   20.3903 N   0  0  0  0  0  0  0  0  0  0  0  0
  -21.8832  -12.5844   21.5935 N   0  0  0  0  0  0  0  0  0  0  0  0
  -32.7655  -25.5282   26.4883 N   0  0  0  0  0  0  0  0  0  0  0  0
  -33.8836  -24.3822   20.1265 N   0  0  0  0  0  0  0  0  0  0  0  0
  -30.1389  -15.6839   21.4941 N   0  0  0  0  0  0  0  0  0  0  0  0
  -34.2681  -21.2450   18.8255 N   0  3  0  0  0  0  0  0  0  0  0  0
  -22.6567  -14.7235   21.3023 O   0  0  0  0  0  0  0  0  0  0  0  0
  -31.1038  -25.8041   24.8804 O   0  0  0  0  0  0  0  0  0  0  0  0
  -34.6014  -24.9853   22.8338 O   0  0  0  0  0  0  0  0  0  0  0  0
  -32.0731  -23.2637   19.2056 O   0  0  0  0  0  0  0  0  0  0  0  0
  -31.8760  -14.9253   20.2041 O   0  0  0  0  0  0  0  0  0  0  0  0
  -21.6161   -7.0217   21.7323 O   0  0  0  0  0  0  0  0  0  0  0  0
  -26.7420  -21.8291   23.1896 O   0  0  0  0  0  0  0  0  0  1  0  0
  -21.8753   -2.9273   18.0482 F   0  0  0  0  0  0  0  0  0  0  0  0
  -24.0250   -5.8063   21.1297 F   0  0  0  0  0  0  0  0  0  0  0  0
  1  2  1  0  0  0  0
  1  5  2  0  0  0  0
  2  6  2  0  0  0  0
  3  8  2  0  0  0  0
  3 16  1  0  0  0  0
  4  9  1  0  0  0  0
  4 16  2  0  0  0  0
  5 18  1  0  0  0  0
  6 20  1  0  0  0  0
  7 10  2  0  0  0  0
  7 19  1  0  0  0  0
  8 22  1  0  0  0  0
  9 22  2  0  0  0  0
 10 23  1  0  0  0  0
 11 12  2  0  0  0  0
 11 24  1  0  0  0  0
 12 25  1  0  0  0  0
 13 21  1  0  0  0  0
 13 23  2  0  0  0  0
 14 25  2  0  0  0  0
 14 26  1  0  0  0  0
 15 28  2  0  0  0  0
 15 65  1  0  0  0  0
 16 27  1  0  0  0  0
 17 27  1  0  0  0  0
 17 29  2  0  0  0  0
 17 31  1  0  0  0  0
 18 20  2  0  0  0  0
 18 36  1  0  0  0  0
 19 21  2  0  0  0  0
 19 37  1  0  0  0  0
 20 45  1  0  0  0  0
 21 38  1  0  0  0  0
 22 81  1  0  0  0  0
 23 82  1  0  0  0  0
 24 26  2  0  0  0  0
 24 81  1  0  0  0  0
 25 83  1  0  0  0  0
 26 84  1  0  0  0  0
 27 64  2  0  0  0  0
 28 60  1  0  0  0  0
 28 67  1  0  0  0  0
 29 66  1  0  0  0  0
 29 70  1  0  0  0  0
 30 55  1  0  0  0  0
 30 65  1  0  0  0  0
 30 67  2  0  0  0  0
 31 71  1  0  0  0  0
 31 76  2  0  0  0  0
 32 46  1  0  0  0  0
 32 72  1  0  0  0  0
 32 77  2  0  0  0  0
 33 61  1  0  0  0  0
 33 68  1  0  0  0  0
 33 78  2  0  0  0  0
 34 62  1  0  0  0  0
 34 73  1  0  0  0  0
 34 79  2  0  0  0  0
 35 69  1  0  0  0  0
 35 74  1  0  0  0  0
 35 80  2  0  0  0  0
 36 39  1  0  0  0  0
 37 46  1  0  0  0  0
 38 68  1  0  0  0  0
 39 41  1  0  0  0  0
 40 42  1  0  0  0  0
 40 43  1  0  0  0  0
 41 45  1  0  0  0  0
 42 47  1  0  0  0  0
 43 69  1  0  0  0  0
 44 47  1  0  0  0  0
 44 69  1  0  0  0  0
 45 72  1  0  0  0  0
 46 68  1  0  0  0  0
 47 66  1  0  0  0  0
 48 55  1  0  0  0  0
 49 60  1  0  0  0  0
 50 62  1  0  0  0  0
 51 63  1  0  0  0  0
 52 63  1  0  0  0  0
 53 63  1  0  0  0  0
 54 75  1  0  0  0  0
 56 57  1  0  0  0  0
 56 59  1  0  0  0  0
 57 65  1  0  0  0  0
 58 60  1  0  0  0  0
 58 74  1  0  0  0  0
 59 82  1  0  0  0  0
 61 63  1  0  0  0  0
 61 73  1  0  0  0  0
 62 75  1  0  0  0  0
 64 66  1  0  0  0  0
M  CHG  2  67   1  75   1
M  ISO  4  35 100  59 101  74 100  82 101
M  END
> <Batch ID>
0081

> <Smiles>
CCc1nc(C(C)C[100NH:0][100C:0](=O)N2CCCC(n3nc(-c4ccc(Oc5ccc(F)cc5F)cc4)c(C(N)=O)c3N)C2)cn1CC[101CH2:1][101O:1]c1ccc2c(c1)CN(C(=O)C(NC(=O)C(C)NC)C(C)(C)C)C(C(=O)NC1CCCc3ccccc31)C2

> <Shape>
0.183

> <Color>
0.184

> <Negative vol penalty>
0.000

$$$$

  -OEChem-04052318463D

 84 92  0     1  0  0  0  0  0999 V2000
  -23.3263  -30.8137   17.0013 C   0  0  0  0  0  0  0  0  0  0  0  0
  -23.5983  -29.4991   16.6361 C   0  0  0  0  0  0  0  0  0  0  0  0
  -22.8860  -11.2840   17.1240 C   0  0  0  0  0  0  0  0  0  0  0  0
  -23.0159  -10.0530   19.1988 C   0  0  0  0  0  0  0  0  0  0  0  0
  -24.0691  -31.4232   18.0117 C   0  0  0  0  0  0  0  0  0  0  0  0
  -24.6140  -28.7936   17.2802 C   0  0  0  0  0  0  0  0  0  0  0  0
  -26.3447  -22.1663   19.3777 C   0  0  0  0  0  0  0  0  0  0  0  0
  -22.0186  -10.3216   16.6072 C   0  0  0  0  0  0  0  0  0  0  0  0
  -22.1485   -9.0906   18.6821 C   0  0  0  0  0  0  0  0  0  0  0  0
  -27.3841  -21.2423   19.2791 C   0  0  0  0  0  0  0  0  0  0  0  0
  -20.0533   -8.0007   14.6137 C   0  0  0  0  0  0  0  0  0  0  0  0
  -20.2833   -7.5490   13.3142 C   0  0  0  0  0  0  0  0  0  0  0  0
  -28.5491  -22.3713   21.0644 C   0  0  0  0  0  0  0  0  0  0  0  0
  -27.4471  -18.1813   22.0635 C   0  0  0  0  0  0  0  0  0  0  0  0
  -22.4737   -6.7706   13.9725 C   0  0  0  0  0  0  0  0  0  0  0  0
  -23.3847  -11.1497   18.4197 C   0  0  0  0  0  0  0  0  0  0  0  0
  -23.9336  -13.3067   19.6662 C   0  0  0  0  0  0  0  0  0  0  0  0
  -25.0880  -30.7216   18.6751 C   0  0  0  0  0  0  0  0  0  0  0  0
  -26.4049  -23.2079   20.3146 C   0  0  0  0  0  0  0  0  0  0  0  0
  -25.3720  -29.3947   18.2995 C   0  0  0  0  0  0  0  0  0  0  0  0
  -27.5081  -23.3057   21.1747 C   0  0  0  0  0  0  0  0  0  0  0  0
  -28.7086  -17.6202   22.1570 C   0  0  0  0  0  0  0  0  0  0  0  0
  -21.6498   -9.2249   17.3863 C   0  0  0  0  0  0  0  0  0  0  0  0
  -28.4878  -21.3464   20.1205 C   0  0  0  0  0  0  0  0  0  0  0  0
  -21.0335   -7.8374   15.5926 C   0  0  0  0  0  0  0  0  0  0  0  0
  -21.4935   -6.9339   12.9936 C   0  0  0  0  0  0  0  0  0  0  0  0
  -22.2437   -7.2223   15.2720 C   0  0  0  0  0  0  0  0  0  0  0  0
  -24.2811  -12.1433   18.9539 C   0  0  0  0  0  0  0  0  0  0  0  0
  -26.6186  -18.0956   23.1643 C   0  0  0  0  0  0  0  0  0  0  0  0
  -29.0582  -17.0108   23.3453 C   0  0  0  0  0  0  0  0  0  0  0  0
  -25.1356  -13.9082   19.9488 C   0  0  0  0  0  0  0  0  0  0  0  0
  -22.6399  -13.7997   20.0391 C   0  0  0  0  0  0  0  0  0  0  0  0
  -26.4597  -26.3813   20.1404 C   0  0  0  0  0  0  0  0  0  0  0  0
  -26.2504  -26.1734   23.3708 C   0  0  0  0  0  0  0  0  0  0  0  0
  -26.7739  -24.3310   26.1954 C   0  0  0  0  0  0  0  0  0  0  0  0
  -30.4381  -13.6186   21.6650 C   0  0  0  0  0  0  0  0  0  0  0  0
  -25.8954  -31.4379   19.7285 C   0  0  0  0  0  0  0  0  0  0  0  0
  -25.2632  -24.1808   20.4266 C   0  0  0  0  0  0  0  0  0  0  0  0
  -27.6116  -24.3935   22.2112 C   0  0  0  0  0  0  0  0  0  0  0  0
  -26.7052  -30.4987   20.6186 C   0  0  0  0  0  0  0  0  0  0  0  0
  -29.7917  -12.9275   18.2326 C   0  0  0  0  0  0  0  0  0  0  0  0
  -27.4382  -29.4619   19.7733 C   0  0  0  0  0  0  0  0  0  0  0  0
  -28.2733  -12.7518   18.1745 C   0  0  0  0  0  0  0  0  0  0  0  0
  -30.3755  -12.3675   19.5278 C   0  0  0  0  0  0  0  0  0  0  0  0
  -28.2367  -12.7098   20.7034 C   0  0  0  0  0  0  0  0  0  0  0  0
  -26.4494  -28.5884   18.9917 C   0  0  1  0  0  0  0  0  0  0  0  0
  -25.6670  -25.5047   21.0682 C   0  0  1  0  0  0  0  0  0  0  0  0
  -27.5954  -13.3097   19.4404 C   0  0  2  0  0  0  0  0  0  0  0  0
  -25.2500  -18.6833   23.1152 C   0  0  0  0  0  0  0  0  0  0  0  0
  -31.2228  -17.0797   24.6235 C   0  0  0  0  0  0  0  0  0  0  0  0
  -26.5394  -24.4421   28.6914 C   0  0  0  0  0  0  0  0  0  0  0  0
  -28.7182  -27.9616   23.5206 C   0  0  0  0  0  0  0  0  0  0  0  0
  -28.9910  -27.2665   25.9103 C   0  0  0  0  0  0  0  0  0  0  0  0
  -26.9403  -28.4946   25.1967 C   0  0  0  0  0  0  0  0  0  0  0  0
  -24.8958  -22.0441   26.2370 C   0  0  0  0  0  0  0  0  0  0  0  0
  -29.6534  -17.6865   20.9838 C   0  0  0  0  0  0  0  0  0  0  0  0
  -30.7590  -18.7326   21.1417 C   0  0  0  0  0  0  0  0  0  0  0  0
  -30.3375  -14.8645   23.8090 C   0  0  0  0  0  0  0  0  0  0  0  0
  -30.2322  -20.1609   21.2195 C   0  0  0  0  0  0  0  0  0  1  0  0
  -30.4002  -16.3838   23.5190 C   0  0  1  0  0  0  0  0  0  0  0  0
  -27.2449  -26.0826   24.5029 C   0  0  1  0  0  0  0  0  0  0  0  0
  -25.8782  -24.0334   27.3843 C   0  0  2  0  0  0  0  0  0  0  0  0
  -27.9728  -27.4319   24.7619 C   0  0  0  0  0  0  0  0  0  0  0  0
  -25.6006  -12.0116   18.7937 N   0  0  0  0  0  0  0  0  0  0  0  0
  -26.9871  -17.4930   24.3147 N   0  0  0  0  0  0  0  0  0  0  0  0
  -28.2271  -16.9419   24.4066 N   0  0  0  0  0  0  0  0  0  0  0  0
  -26.0928  -13.1001   19.4093 N   0  0  0  0  0  0  0  0  0  0  0  0
  -26.4727  -25.3242   22.2775 N   0  0  0  0  0  0  0  0  0  0  0  0
  -29.6902  -12.9378   20.6902 N   0  0  0  0  0  0  0  0  0  0  0  0
  -25.4566  -15.0443   20.6035 N   0  0  0  0  0  0  0  0  0  0  0  0
  -21.5100  -13.0578   19.6688 N   0  0  0  0  0  0  0  0  0  0  0  0
  -25.8580  -27.5933   19.8604 N   0  0  0  0  0  0  0  0  0  0  0  0
  -26.5082  -25.5707   25.6534 N   0  0  0  0  0  0  0  0  0  0  0  0
  -29.7101  -14.1336   22.7306 N   0  0  0  0  0  0  0  0  0  0  0  0
  -25.5700  -22.5768   27.4489 N   0  3  0  0  0  0  0  0  0  0  0  0
  -22.4895  -14.8749   20.6674 O   0  0  0  0  0  0  0  0  0  0  0  0
  -27.5381  -25.9879   19.7116 O   0  0  0  0  0  0  0  0  0  0  0  0
  -25.3069  -26.9634   23.4565 O   0  0  0  0  0  0  0  0  0  0  0  0
  -27.6268  -23.5441   25.7905 O   0  0  0  0  0  0  0  0  0  0  0  0
  -31.6631  -13.7617   21.5885 O   0  0  0  0  0  0  0  0  0  0  0  0
  -20.8033   -8.2857   16.8824 O   0  0  0  0  0  0  0  0  0  0  0  0
  -29.5040  -20.4462   20.0259 O   0  0  0  0  0  0  0  0  0  1  0  0
  -21.7136   -6.4988   11.7461 F   0  0  0  0  0  0  0  0  0  0  0  0
  -23.1887   -7.0616   16.2085 F   0  0  0  0  0  0  0  0  0  0  0  0
  1  2  1  0  0  0  0
  1  5  2  0  0  0  0
  2  6  2  0  0  0  0
  3  8  2  0  0  0  0
  3 16  1  0  0  0  0
  4  9  1  0  0  0  0
  4 16  2  0  0  0  0
  5 18  1  0  0  0  0
  6 20  1  0  0  0  0
  7 10  2  0  0  0  0
  7 19  1  0  0  0  0
  8 23  1  0  0  0  0
  9 23  2  0  0  0  0
 10 24  1  0  0  0  0
 11 12  2  0  0  0  0
 11 25  1  0  0  0  0
 12 26  1  0  0  0  0
 13 21  1  0  0  0  0
 13 24  2  0  0  0  0
 14 22  1  0  0  0  0
 14 29  2  0  0  0  0
 15 26  2  0  0  0  0
 15 27  1  0  0  0  0
 16 28  1  0  0  0  0
 17 28  1  0  0  0  0
 17 31  2  0  0  0  0
 17 32  1  0  0  0  0
 18 20  2  0  0  0  0
 18 37  1  0  0  0  0
 19 21  2  0  0  0  0
 19 38  1  0  0  0  0
 20 46  1  0  0  0  0
 21 39  1  0  0  0  0
 22 30  2  0  0  0  0
 22 56  1  0  0  0  0
 23 81  1  0  0  0  0
 24 82  1  0  0  0  0
 25 27  2  0  0  0  0
 25 81  1  0  0  0  0
 26 83  1  0  0  0  0
 27 84  1  0  0  0  0
 28 64  2  0  0  0  0
 29 49  1  0  0  0  0
 29 65  1  0  0  0  0
 30 60  1  0  0  0  0
 30 66  1  0  0  0  0
 31 67  1  0  0  0  0
 31 70  1  0  0  0  0
 32 71  1  0  0  0  0
 32 76  2  0  0  0  0
 33 47  1  0  0  0  0
 33 72  1  0  0  0  0
 33 77  2  0  0  0  0
 34 61  1  0  0  0  0
 34 68  1  0  0  0  0
 34 78  2  0  0  0  0
 35 62  1  0  0  0  0
 35 73  1  0  0  0  0
 35 79  2  0  0  0  0
 36 69  1  0  0  0  0
 36 74  1  0  0  0  0
 36 80  2  0  0  0  0
 37 40  1  0  0  0  0
 38 47  1  0  0  0  0
 39 68  1  0  0  0  0
 40 42  1  0  0  0  0
 41 43  1  0  0  0  0
 41 44  1  0  0  0  0
 42 46  1  0  0  0  0
 43 48  1  0  0  0  0
 44 69  1  0  0  0  0
 45 48  1  0  0  0  0
 45 69  1  0  0  0  0
 46 72  1  0  0  0  0
 47 68  1  0  0  0  0
 48 67  1  0  0  0  0
 50 60  1  0  0  0  0
 51 62  1  0  0  0  0
 52 63  1  0  0  0  0
 53 63  1  0  0  0  0
 54 63  1  0  0  0  0
 55 75  1  0  0  0  0
 56 57  1  0  0  0  0
 57 59  1  0  0  0  0
 58 60  1  0  0  0  0
 58 74  1  0  0  0  0
 59 82  1  0  0  0  0
 61 63  1  0  0  0  0
 61 73  1  0  0  0  0
 62 75  1  0  0  0  0
 64 67  1  0  0  0  0
 65 66  2  0  0  0  0
M  CHG  1  75   1
M  ISO  4  36 100  59 101  74 100  82 101
M  END
> <Batch ID>
0081

> <Smiles>
CNC(C)C(=O)NC(C(=O)N1Cc2cc([101O:1][101CH2:1]CCc3cc(C)nnc3C(C)C[100NH:0][100C:0](=O)N3CCCC(n4nc(-c5ccc(Oc6ccc(F)cc6F)cc5)c(C(N)=O)c4N)C3)ccc2CC1C(=O)NC1CCCc2ccccc21)C(C)(C)C

> <Shape>
0.163

> <Color>
0.101

> <Negative vol penalty>
0.000

$$$$
