
  -OEChem-04052318493D

 84 92  0     1  0  0  0  0  0999 V2000
  -34.7208  -26.8322   30.5581 C   0  0  0  0  0  0  0  0  0  0  0  0
  -33.9284  -25.6927   30.4638 C   0  0  0  0  0  0  0  0  0  0  0  0
  -23.0990   -9.8710   19.9408 C   0  0  0  0  0  0  0  0  0  0  0  0
  -23.8568   -9.8904   22.2348 C   0  0  0  0  0  0  0  0  0  0  0  0
  -34.5250  -27.8913   29.6727 C   0  0  0  0  0  0  0  0  0  0  0  0
  -32.9388  -25.6121   29.4847 C   0  0  0  0  0  0  0  0  0  0  0  0
  -29.6514  -20.8629   25.2474 C   0  0  0  0  0  0  0  0  0  0  0  0
  -22.3667   -8.7108   20.1925 C   0  0  0  0  0  0  0  0  0  0  0  0
  -23.1245   -8.7303   22.4866 C   0  0  0  0  0  0  0  0  0  0  0  0
  -28.3708  -20.4368   24.8976 C   0  0  0  0  0  0  0  0  0  0  0  0
  -19.4255   -7.8872   21.6431 C   0  0  0  0  0  0  0  0  0  0  0  0
  -18.1196   -7.8266   21.1568 C   0  0  0  0  0  0  0  0  0  0  0  0
  -28.1756  -22.2953   23.3721 C   0  0  0  0  0  0  0  0  0  0  0  0
  -27.9982  -18.3399   21.3530 C   0  0  0  0  0  0  0  0  0  0  0  0
  -18.7002   -5.8866   19.8391 C   0  0  0  0  0  0  0  0  0  0  0  0
  -28.7235  -18.0279   19.1096 C   0  0  0  0  0  0  0  0  0  0  0  0
  -23.8441  -10.4608   20.9619 C   0  0  0  0  0  0  0  0  0  0  0  0
  -24.1603  -12.9890   20.8369 C   0  0  0  0  0  0  0  0  0  0  0  0
  -33.5390  -27.8197   28.6761 C   0  0  0  0  0  0  0  0  0  0  0  0
  -30.2003  -22.0165   24.6693 C   0  0  0  0  0  0  0  0  0  0  0  0
  -32.7287  -26.6718   28.5860 C   0  0  0  0  0  0  0  0  0  0  0  0
  -29.4644  -22.7325   23.7144 C   0  0  0  0  0  0  0  0  0  0  0  0
  -29.0420  -18.1673   20.4508 C   0  0  0  0  0  0  0  0  0  0  0  0
  -26.6864  -18.3675   20.8930 C   0  0  0  0  0  0  0  0  0  0  0  0
  -22.3794   -8.1405   21.4654 C   0  0  0  0  0  0  0  0  0  0  0  0
  -27.6316  -21.1547   23.9620 C   0  0  0  0  0  0  0  0  0  0  0  0
  -20.3688   -6.9475   21.2272 C   0  0  0  0  0  0  0  0  0  0  0  0
  -17.7569   -6.8264   20.2549 C   0  0  0  0  0  0  0  0  0  0  0  0
  -20.0061   -5.9472   20.3253 C   0  0  0  0  0  0  0  0  0  0  0  0
  -24.6012  -11.6589   20.7023 C   0  0  0  0  0  0  0  0  0  0  0  0
  -26.4734  -18.2193   19.5319 C   0  0  0  0  0  0  0  0  0  0  0  0
  -25.2450  -13.7488   20.4730 C   0  0  0  0  0  0  0  0  0  0  0  0
  -22.8842  -13.4927   21.2537 C   0  0  0  0  0  0  0  0  0  0  0  0
  -31.1952  -24.8249   25.7770 C   0  0  0  0  0  0  0  0  0  0  0  0
  -32.1590  -25.2540   22.7096 C   0  0  0  0  0  0  0  0  0  0  0  0
  -31.7943  -24.4352   19.4167 C   0  0  0  0  0  0  0  0  0  0  0  0
  -30.7179  -14.8241   20.6637 C   0  0  0  0  0  0  0  0  0  0  0  0
  -33.3329  -29.0092   27.7720 C   0  0  0  0  0  0  0  0  0  0  0  0
  -31.5935  -22.4478   25.0375 C   0  0  0  0  0  0  0  0  0  0  0  0
  -30.0163  -23.9662   23.0496 C   0  0  0  0  0  0  0  0  0  0  0  0
  -32.5132  -28.6910   26.5241 C   0  0  0  0  0  0  0  0  0  0  0  0
  -29.6067  -12.4232   18.2810 C   0  0  0  0  0  0  0  0  0  0  0  0
  -31.2745  -27.8800   26.8915 C   0  0  0  0  0  0  0  0  0  0  0  0
  -28.1720  -12.1158   18.7134 C   0  0  0  0  0  0  0  0  0  0  0  0
  -30.5205  -12.6559   19.4822 C   0  0  0  0  0  0  0  0  0  0  0  0
  -28.6103  -13.3704   20.8657 C   0  0  0  0  0  0  0  0  0  0  0  0
  -31.6615  -26.5366   27.5215 C   0  0  1  0  0  0  0  0  0  0  0  0
  -31.8521  -23.9269   24.7673 C   0  0  1  0  0  0  0  0  0  0  0  0
  -27.6389  -13.1834   19.6876 C   0  0  2  0  0  0  0  0  0  0  0  0
  -25.0851  -18.2417   18.9807 C   0  0  0  0  0  0  0  0  0  0  0  0
  -30.8898  -19.4714   21.5503 C   0  0  0  0  0  0  0  0  0  0  0  0
  -32.2962  -24.3934   16.9583 C   0  0  0  0  0  0  0  0  0  0  0  0
  -30.5868  -27.8689   22.7132 C   0  0  0  0  0  0  0  0  0  0  0  0
  -30.7282  -27.8764   20.2135 C   0  0  0  0  0  0  0  0  0  0  0  0
  -32.8125  -27.9914   21.5793 C   0  0  0  0  0  0  0  0  0  0  0  0
  -33.6568  -22.1550   19.7177 C   0  0  0  0  0  0  0  0  0  0  0  0
  -25.5496  -18.5525   21.8662 C   0  0  0  0  0  0  0  0  0  0  0  0
  -24.9532  -19.9617   21.8559 C   0  0  0  0  0  0  0  0  0  0  0  0
  -30.7608  -16.9778   21.8962 C   0  0  0  0  0  0  0  0  0  0  0  0
  -25.9392  -21.0378   22.2952 C   0  0  0  0  0  0  0  0  0  1  0  0
  -30.4560  -18.1342   20.9106 C   0  0  1  0  0  0  0  0  0  0  0  0
  -31.5276  -25.8173   21.4594 C   0  0  1  0  0  0  0  0  0  0  0  0
  -32.8114  -24.0675   18.3515 C   0  0  2  0  0  0  0  0  0  0  0  0
  -31.4023  -27.3664   21.5051 C   0  0  0  0  0  0  0  0  0  0  0  0
  -27.4616  -18.0496   18.6251 N   0  0  0  0  0  0  0  0  0  0  0  0
  -25.8673  -11.5751   20.2853 N   0  0  0  0  0  0  0  0  0  0  0  0
  -26.2312  -12.8622   20.1546 N   0  0  0  0  0  0  0  0  0  0  0  0
  -31.3804  -24.3512   23.4476 N   0  0  0  0  0  0  0  0  0  0  0  0
  -29.9588  -13.6805   20.3656 N   0  0  0  0  0  0  0  0  0  0  0  0
  -25.4419  -15.0822   20.3974 N   0  0  0  0  0  0  0  0  0  0  0  0
  -21.8813  -12.5740   21.5921 N   0  0  0  0  0  0  0  0  0  0  0  0
  -32.0807  -25.6013   26.4999 N   0  0  0  0  0  0  0  0  0  0  0  0
  -32.3177  -25.3145   20.3408 N   0  0  0  0  0  0  0  0  0  0  0  0
  -30.1086  -15.7485   21.5034 N   0  0  0  0  0  0  0  0  0  0  0  0
  -33.1190  -22.6104   18.4099 N   0  3  0  0  0  0  0  0  0  0  0  0
  -22.6354  -14.7210   21.3083 O   0  0  0  0  0  0  0  0  0  0  0  0
  -29.9751  -24.8153   25.8908 O   0  0  0  0  0  0  0  0  0  0  0  0
  -33.3037  -25.5966   23.0161 O   0  0  0  0  0  0  0  0  0  0  0  0
  -30.6487  -23.9900   19.4257 O   0  0  0  0  0  0  0  0  0  0  0  0
  -31.8524  -15.0102   20.2107 O   0  0  0  0  0  0  0  0  0  0  0  0
  -21.6648   -7.0085   21.7115 O   0  0  0  0  0  0  0  0  0  0  0  0
  -26.3812  -20.7413   23.6193 O   0  0  0  0  0  0  0  0  0  1  0  0
  -16.5023   -6.7674   19.7892 F   0  0  0  0  0  0  0  0  0  0  0  0
  -20.9077   -5.0410   19.9231 F   0  0  0  0  0  0  0  0  0  0  0  0
  1  2  1  0  0  0  0
  1  5  2  0  0  0  0
  2  6  2  0  0  0  0
  3  8  2  0  0  0  0
  3 17  1  0  0  0  0
  4  9  1  0  0  0  0
  4 17  2  0  0  0  0
  5 19  1  0  0  0  0
  6 21  1  0  0  0  0
  7 10  2  0  0  0  0
  7 20  1  0  0  0  0
  8 25  1  0  0  0  0
  9 25  2  0  0  0  0
 10 26  1  0  0  0  0
 11 12  2  0  0  0  0
 11 27  1  0  0  0  0
 12 28  1  0  0  0  0
 13 22  1  0  0  0  0
 13 26  2  0  0  0  0
 14 23  2  0  0  0  0
 14 24  1  0  0  0  0
 15 28  2  0  0  0  0
 15 29  1  0  0  0  0
 16 23  1  0  0  0  0
 16 65  2  0  0  0  0
 17 30  1  0  0  0  0
 18 30  1  0  0  0  0
 18 32  2  0  0  0  0
 18 33  1  0  0  0  0
 19 21  2  0  0  0  0
 19 38  1  0  0  0  0
 20 22  2  0  0  0  0
 20 39  1  0  0  0  0
 21 47  1  0  0  0  0
 22 40  1  0  0  0  0
 23 61  1  0  0  0  0
 24 31  2  0  0  0  0
 24 57  1  0  0  0  0
 25 81  1  0  0  0  0
 26 82  1  0  0  0  0
 27 29  2  0  0  0  0
 27 81  1  0  0  0  0
 28 83  1  0  0  0  0
 29 84  1  0  0  0  0
 30 66  2  0  0  0  0
 31 50  1  0  0  0  0
 31 65  1  0  0  0  0
 32 67  1  0  0  0  0
 32 70  1  0  0  0  0
 33 71  1  0  0  0  0
 33 76  2  0  0  0  0
 34 48  1  0  0  0  0
 34 72  1  0  0  0  0
 34 77  2  0  0  0  0
 35 62  1  0  0  0  0
 35 68  1  0  0  0  0
 35 78  2  0  0  0  0
 36 63  1  0  0  0  0
 36 73  1  0  0  0  0
 36 79  2  0  0  0  0
 37 69  1  0  0  0  0
 37 74  1  0  0  0  0
 37 80  2  0  0  0  0
 38 41  1  0  0  0  0
 39 48  1  0  0  0  0
 40 68  1  0  0  0  0
 41 43  1  0  0  0  0
 42 44  1  0  0  0  0
 42 45  1  0  0  0  0
 43 47  1  0  0  0  0
 44 49  1  0  0  0  0
 45 69  1  0  0  0  0
 46 49  1  0  0  0  0
 46 69  1  0  0  0  0
 47 72  1  0  0  0  0
 48 68  1  0  0  0  0
 49 67  1  0  0  0  0
 51 61  1  0  0  0  0
 52 63  1  0  0  0  0
 53 64  1  0  0  0  0
 54 64  1  0  0  0  0
 55 64  1  0  0  0  0
 56 75  1  0  0  0  0
 57 58  1  0  0  0  0
 58 60  1  0  0  0  0
 59 61  1  0  0  0  0
 59 74  1  0  0  0  0
 60 82  1  0  0  0  0
 62 64  1  0  0  0  0
 62 73  1  0  0  0  0
 63 75  1  0  0  0  0
 66 67  1  0  0  0  0
M  CHG  1  75   1
M  ISO  4  37 100  60 101  74 100  82 101
M  END
> <Batch ID>
0082

> <Smiles>
CNC(C)C(=O)NC(C(=O)N1Cc2cc([101O:1][101CH2:1]CCc3cc(C(C)C[100NH:0][100C:0](=O)N4CCCC(n5nc(-c6ccc(Oc7ccc(F)cc7F)cc6)c(C(N)=O)c5N)C4)cnc3C)ccc2CC1C(=O)NC1CCCc2ccccc21)C(C)(C)C

> <Shape>
0.198

> <Color>
0.196

> <Negative vol penalty>
0.000

$$$$

  -OEChem-04052318493D

 84 92  0     1  0  0  0  0  0999 V2000
  -19.4250  -30.0356   25.7442 C   0  0  0  0  0  0  0  0  0  0  0  0
  -20.7645  -29.7796   25.4690 C   0  0  0  0  0  0  0  0  0  0  0  0
  -23.8609  -13.4260   19.5067 C   0  0  0  0  0  0  0  0  0  0  0  0
  -24.9785  -13.9144   21.5922 C   0  0  0  0  0  0  0  0  0  0  0  0
  -18.4293  -29.4338   24.9759 C   0  0  0  0  0  0  0  0  0  0  0  0
  -21.1090  -28.9208   24.4258 C   0  0  0  0  0  0  0  0  0  0  0  0
  -25.9765  -29.3762   20.7372 C   0  0  0  0  0  0  0  0  0  0  0  0
  -24.8260  -12.4620   19.2153 C   0  0  0  0  0  0  0  0  0  0  0  0
  -25.9436  -12.9504   21.3008 C   0  0  0  0  0  0  0  0  0  0  0  0
  -27.2219  -28.7497   20.7460 C   0  0  0  0  0  0  0  0  0  0  0  0
  -28.7030  -12.6935   19.3642 C   0  0  0  0  0  0  0  0  0  0  0  0
  -30.0397  -13.0288   19.5797 C   0  0  0  0  0  0  0  0  0  0  0  0
  -26.4059  -27.1187   19.1670 C   0  0  0  0  0  0  0  0  0  0  0  0
  -28.8312  -22.2514   22.1480 C   0  0  0  0  0  0  0  0  0  0  0  0
  -30.2425  -11.2080   21.1547 C   0  0  0  0  0  0  0  0  0  0  0  0
  -26.7364  -21.7666   20.4681 C   0  0  0  0  0  0  0  0  0  0  0  0
  -23.9372  -14.1523   20.6952 C   0  0  0  0  0  0  0  0  0  0  0  0
  -21.7307  -14.9581   21.6899 C   0  0  0  0  0  0  0  0  0  0  0  0
  -18.7620  -28.5747   23.9167 C   0  0  0  0  0  0  0  0  0  0  0  0
  -24.9313  -28.8714   19.9502 C   0  0  0  0  0  0  0  0  0  0  0  0
  -20.1168  -28.3059   23.6435 C   0  0  0  0  0  0  0  0  0  0  0  0
  -25.1489  -27.7422   19.1480 C   0  0  0  0  0  0  0  0  0  0  0  0
  -27.7365  -21.5313   22.6130 C   0  0  0  0  0  0  0  0  0  0  0  0
  -26.6650  -21.2800   21.7634 C   0  0  0  0  0  0  0  0  0  0  0  0
  -25.8673  -12.2242   20.1123 C   0  0  0  0  0  0  0  0  0  0  0  0
  -27.4359  -27.6191   19.9631 C   0  0  0  0  0  0  0  0  0  0  0  0
  -28.1360  -11.6155   20.0440 C   0  0  0  0  0  0  0  0  0  0  0  0
  -30.8095  -12.2861   20.4749 C   0  0  0  0  0  0  0  0  0  0  0  0
  -28.9058  -10.8728   20.9392 C   0  0  0  0  0  0  0  0  0  0  0  0
  -22.9409  -15.1486   20.9965 C   0  0  0  0  0  0  0  0  0  0  0  0
  -28.8058  -22.6944   20.8354 C   0  0  0  0  0  0  0  0  0  0  0  0
  -21.1481  -16.2017   21.7119 C   0  0  0  0  0  0  0  0  0  0  0  0
  -21.1822  -13.7638   22.2631 C   0  0  0  0  0  0  0  0  0  0  0  0
  -22.0400  -27.6940   20.5484 C   0  0  0  0  0  0  0  0  0  0  0  0
  -21.7928  -27.7063   17.3140 C   0  0  0  0  0  0  0  0  0  0  0  0
  -23.4716  -21.7290   21.3090 C   0  0  0  0  0  0  0  0  0  0  0  0
  -23.3693  -27.6568   14.2876 C   0  0  0  0  0  0  0  0  0  0  0  0
  -17.6500  -27.9104   23.1442 C   0  0  0  0  0  0  0  0  0  0  0  0
  -23.6018  -29.5745   19.9314 C   0  0  0  0  0  0  0  0  0  0  0  0
  -24.0658  -27.1725   18.2700 C   0  0  0  0  0  0  0  0  0  0  0  0
  -18.1056  -27.3068   21.8181 C   0  0  0  0  0  0  0  0  0  0  0  0
  -20.9250  -20.2848   19.2428 C   0  0  0  0  0  0  0  0  0  0  0  0
  -19.3885  -26.5041   22.0098 C   0  0  0  0  0  0  0  0  0  0  0  0
  -21.0622  -18.7847   19.4997 C   0  0  0  0  0  0  0  0  0  0  0  0
  -22.2810  -20.9830   19.2743 C   0  0  0  0  0  0  0  0  0  0  0  0
  -23.1919  -19.2540   20.7917 C   0  0  0  0  0  0  0  0  0  0  0  0
  -20.5308  -27.3995   22.5045 C   0  0  1  0  0  0  0  0  0  0  0  0
  -22.4550  -28.6723   19.4861 C   0  0  1  0  0  0  0  0  0  0  0  0
  -21.8418  -18.5154   20.7989 C   0  0  2  0  0  0  0  0  0  0  0  0
  -27.7332  -21.0395   24.0225 C   0  0  0  0  0  0  0  0  0  0  0  0
  -22.9006  -27.6363   11.8224 C   0  0  0  0  0  0  0  0  0  0  0  0
  -24.6150  -22.6457   23.2740 C   0  0  0  0  0  0  0  0  0  0  0  0
  -23.2394  -20.5693   23.4852 C   0  0  0  0  0  0  0  0  0  0  0  0
  -21.0289  -24.7572   17.4862 C   0  0  0  0  0  0  0  0  0  0  0  0
  -21.5027  -24.5632   15.0355 C   0  0  0  0  0  0  0  0  0  0  0  0
  -19.6968  -26.0854   15.8382 C   0  0  0  0  0  0  0  0  0  0  0  0
  -24.7884  -30.2215   13.8788 C   0  0  0  0  0  0  0  0  0  0  0  0
  -25.4678  -20.5147   22.2099 C   0  0  0  0  0  0  0  0  0  0  0  0
  -29.9755  -23.4788   20.2968 C   0  0  0  0  0  0  0  0  0  0  0  0
  -29.8451  -24.9909   20.4914 C   0  0  0  0  0  0  0  0  0  0  0  0
  -28.6681  -25.5976   19.7365 C   0  0  0  0  0  0  0  0  0  1  0  0
  -22.1141  -26.7241   16.2135 C   0  0  1  0  0  0  0  0  0  0  0  0
  -23.1824  -28.5020   13.0406 C   0  0  2  0  0  0  0  0  0  0  0  0
  -24.1986  -21.3426   22.5725 C   0  0  0  0  0  0  0  0  0  0  0  0
  -21.1057  -25.5418   16.1613 C   0  0  0  0  0  0  0  0  0  0  0  0
  -27.7829  -22.4699   19.9804 N   0  0  0  0  0  0  0  0  0  0  0  0
  -23.1178  -16.4136   20.6060 N   0  0  0  0  0  0  0  0  0  0  0  0
  -22.0110  -17.0292   21.0555 N   0  0  0  0  0  0  0  0  0  0  0  0
  -22.7813  -27.8917   18.2909 N   0  0  0  0  0  0  0  0  0  0  0  0
  -22.9996  -20.6842   20.5143 N   0  0  0  0  0  0  0  0  0  0  0  0
  -19.9869  -16.6571   22.2283 N   0  0  0  0  0  0  0  0  0  0  0  0
  -21.9118  -12.5724   22.1502 N   0  0  0  0  0  0  0  0  0  0  0  0
  -21.0741  -28.1762   21.4109 N   0  0  0  0  0  0  0  0  0  0  0  0
  -22.1877  -27.5016   14.9812 N   0  0  0  0  0  0  0  0  0  0  0  0
  -24.4075  -29.3068   12.7719 N   0  3  0  0  0  0  0  0  0  0  0  0
  -20.0702  -13.7500   22.8433 O   0  0  0  0  0  0  0  0  0  0  0  0
  -22.5568  -26.5834   20.5821 O   0  0  0  0  0  0  0  0  0  0  0  0
  -20.7076  -28.2928   17.3033 O   0  0  0  0  0  0  0  0  0  0  0  0
  -23.3261  -22.9241   21.0397 O   0  0  0  0  0  0  0  0  0  0  0  0
  -24.4541  -27.1788   14.6119 O   0  0  0  0  0  0  0  0  0  0  0  0
  -26.8091  -11.2834   19.8284 O   0  0  0  0  0  0  0  0  0  0  0  0
  -28.6504  -27.0052   19.9703 O   0  0  0  0  0  0  0  0  0  1  0  0
  -32.0935  -12.6072   20.6806 F   0  0  0  0  0  0  0  0  0  0  0  0
  -28.3670   -9.8353   21.5944 F   0  0  0  0  0  0  0  0  0  0  0  0
  1  2  1  0  0  0  0
  1  5  2  0  0  0  0
  2  6  2  0  0  0  0
  3  8  2  0  0  0  0
  3 17  1  0  0  0  0
  4  9  1  0  0  0  0
  4 17  2  0  0  0  0
  5 19  1  0  0  0  0
  6 21  1  0  0  0  0
  7 10  2  0  0  0  0
  7 20  1  0  0  0  0
  8 25  1  0  0  0  0
  9 25  2  0  0  0  0
 10 26  1  0  0  0  0
 11 12  2  0  0  0  0
 11 27  1  0  0  0  0
 12 28  1  0  0  0  0
 13 22  1  0  0  0  0
 13 26  2  0  0  0  0
 14 23  2  0  0  0  0
 14 31  1  0  0  0  0
 15 28  2  0  0  0  0
 15 29  1  0  0  0  0
 16 24  2  0  0  0  0
 16 66  1  0  0  0  0
 17 30  1  0  0  0  0
 18 30  1  0  0  0  0
 18 32  2  0  0  0  0
 18 33  1  0  0  0  0
 19 21  2  0  0  0  0
 19 38  1  0  0  0  0
 20 22  2  0  0  0  0
 20 39  1  0  0  0  0
 21 47  1  0  0  0  0
 22 40  1  0  0  0  0
 23 24  1  0  0  0  0
 23 50  1  0  0  0  0
 24 58  1  0  0  0  0
 25 81  1  0  0  0  0
 26 82  1  0  0  0  0
 27 29  2  0  0  0  0
 27 81  1  0  0  0  0
 28 83  1  0  0  0  0
 29 84  1  0  0  0  0
 30 67  2  0  0  0  0
 31 59  1  0  0  0  0
 31 66  2  0  0  0  0
 32 68  1  0  0  0  0
 32 71  1  0  0  0  0
 33 72  1  0  0  0  0
 33 76  2  0  0  0  0
 34 48  1  0  0  0  0
 34 73  1  0  0  0  0
 34 77  2  0  0  0  0
 35 62  1  0  0  0  0
 35 69  1  0  0  0  0
 35 78  2  0  0  0  0
 36 64  1  0  0  0  0
 36 70  1  0  0  0  0
 36 79  2  0  0  0  0
 37 63  1  0  0  0  0
 37 74  1  0  0  0  0
 37 80  2  0  0  0  0
 38 41  1  0  0  0  0
 39 48  1  0  0  0  0
 40 69  1  0  0  0  0
 41 43  1  0  0  0  0
 42 44  1  0  0  0  0
 42 45  1  0  0  0  0
 43 47  1  0  0  0  0
 44 49  1  0  0  0  0
 45 70  1  0  0  0  0
 46 49  1  0  0  0  0
 46 70  1  0  0  0  0
 47 73  1  0  0  0  0
 48 69  1  0  0  0  0
 49 68  1  0  0  0  0
 51 63  1  0  0  0  0
 52 64  1  0  0  0  0
 53 64  1  0  0  0  0
 54 65  1  0  0  0  0
 55 65  1  0  0  0  0
 56 65  1  0  0  0  0
 57 75  1  0  0  0  0
 58 64  1  0  0  0  0
 59 60  1  0  0  0  0
 60 61  1  0  0  0  0
 61 82  1  0  0  0  0
 62 65  1  0  0  0  0
 62 74  1  0  0  0  0
 63 75  1  0  0  0  0
 67 68  1  0  0  0  0
M  CHG  1  75   1
M  ISO  4  36 100  61 101  64 100  82 101
M  END
> <Batch ID>
0082

> <Smiles>
CNC(C)C(=O)NC(C(=O)N1Cc2cc([101O:1][101CH2:1]CCc3cc(C)c(C[100C:0](C)(C)[100C:0](=O)N4CCCC(n5nc(-c6ccc(Oc7ccc(F)cc7F)cc6)c(C(N)=O)c5N)C4)cn3)ccc2CC1C(=O)NC1CCCc2ccccc21)C(C)(C)C

> <Shape>
0.210

> <Color>
0.098

> <Negative vol penalty>
0.000

$$$$

  -OEChem-04052318493D

 84 92  0     1  0  0  0  0  0999 V2000
  -23.6309   -8.7516   20.9909 C   0  0  0  0  0  0  0  0  0  0  0  0
  -24.7923   -9.4011   20.5851 C   0  0  0  0  0  0  0  0  0  0  0  0
  -22.3354  -25.5972   23.7186 C   0  0  0  0  0  0  0  0  0  0  0  0
  -21.5323  -26.3810   21.5791 C   0  0  0  0  0  0  0  0  0  0  0  0
  -22.4857   -9.4913   21.2828 C   0  0  0  0  0  0  0  0  0  0  0  0
  -24.8089  -10.7907   20.4700 C   0  0  0  0  0  0  0  0  0  0  0  0
  -29.1883  -16.4056   21.2509 C   0  0  0  0  0  0  0  0  0  0  0  0
  -29.1580  -23.2628   16.9423 C   0  0  0  0  0  0  0  0  0  0  0  0
  -28.5800  -22.2604   17.7213 C   0  0  0  0  0  0  0  0  0  0  0  0
  -21.1109  -25.9271   24.2992 C   0  0  0  0  0  0  0  0  0  0  0  0
  -20.3076  -26.7109   22.1597 C   0  0  0  0  0  0  0  0  0  0  0  0
  -29.6385  -17.5256   20.5533 C   0  0  0  0  0  0  0  0  0  0  0  0
  -19.0412  -29.2080   24.0547 C   0  0  0  0  0  0  0  0  0  0  0  0
  -18.4836  -30.4452   23.7324 C   0  0  0  0  0  0  0  0  0  0  0  0
  -27.6241  -18.7058   21.1604 C   0  0  0  0  0  0  0  0  0  0  0  0
  -30.7300  -23.7343   18.7153 C   0  0  0  0  0  0  0  0  0  0  0  0
  -16.5378  -29.3332   22.8300 C   0  0  0  0  0  0  0  0  0  0  0  0
  -22.5462  -25.8242   22.3586 C   0  0  0  0  0  0  0  0  0  0  0  0
  -24.1714  -24.2556   21.1729 C   0  0  0  0  0  0  0  0  0  0  0  0
  -22.4910  -10.8913   21.1806 C   0  0  0  0  0  0  0  0  0  0  0  0
  -27.9456  -16.4236   21.9005 C   0  0  0  0  0  0  0  0  0  0  0  0
  -23.6622  -11.5497   20.7596 C   0  0  0  0  0  0  0  0  0  0  0  0
  -27.1616  -17.5856   21.8677 C   0  0  0  0  0  0  0  0  0  0  0  0
  -30.2330  -23.9997   17.4392 C   0  0  0  0  0  0  0  0  0  0  0  0
  -29.0769  -21.9951   18.9973 C   0  0  0  0  0  0  0  0  0  0  0  0
  -30.1520  -22.7320   19.4943 C   0  0  0  0  0  0  0  0  0  0  0  0
  -20.0969  -26.4839   23.5197 C   0  0  0  0  0  0  0  0  0  0  0  0
  -28.8551  -18.6750   20.5055 C   0  0  0  0  0  0  0  0  0  0  0  0
  -18.3471  -28.0333   23.7646 C   0  0  0  0  0  0  0  0  0  0  0  0
  -17.2319  -30.5079   23.1201 C   0  0  0  0  0  0  0  0  0  0  0  0
  -17.0954  -28.0959   23.1523 C   0  0  0  0  0  0  0  0  0  0  0  0
  -23.8112  -25.4841   21.7584 C   0  0  0  0  0  0  0  0  0  0  0  0
  -25.4662  -24.4414   20.7540 C   0  0  0  0  0  0  0  0  0  0  0  0
  -23.4042  -23.0539   21.0212 C   0  0  0  0  0  0  0  0  0  0  0  0
  -25.2402  -14.7800   21.6127 C   0  0  0  0  0  0  0  0  0  0  0  0
  -24.3952  -16.4590   24.2564 C   0  0  0  0  0  0  0  0  0  0  0  0
  -24.8324  -19.2410   26.1842 C   0  0  0  0  0  0  0  0  0  0  0  0
  -29.3792  -27.5511   18.2714 C   0  0  0  0  0  0  0  0  0  0  0  0
  -21.2148  -11.6445   21.4612 C   0  0  0  0  0  0  0  0  0  0  0  0
  -27.4864  -15.2163   22.6711 C   0  0  0  0  0  0  0  0  0  0  0  0
  -25.8290  -17.6631   22.5654 C   0  0  0  0  0  0  0  0  0  0  0  0
  -21.4254  -13.1412   21.6754 C   0  0  0  0  0  0  0  0  0  0  0  0
  -28.7327  -28.1820   21.7154 C   0  0  0  0  0  0  0  0  0  0  0  0
  -22.3407  -13.7113   20.5964 C   0  0  0  0  0  0  0  0  0  0  0  0
  -27.4219  -27.4405   21.9833 C   0  0  0  0  0  0  0  0  0  0  0  0
  -28.7568  -28.7991   20.3187 C   0  0  0  0  0  0  0  0  0  0  0  0
  -27.1598  -27.1158   19.4883 C   0  0  0  0  0  0  0  0  0  0  0  0
  -23.7268  -13.0574   20.6468 C   0  0  1  0  0  0  0  0  0  0  0  0
  -25.9738  -15.1707   22.8645 C   0  0  1  0  0  0  0  0  0  0  0  0
  -27.1110  -26.4288   20.8638 C   0  0  2  0  0  0  0  0  0  0  0  0
  -31.4797  -24.5078   15.3152 C   0  0  0  0  0  0  0  0  0  0  0  0
  -30.5625  -23.6808   21.7932 C   0  0  0  0  0  0  0  0  0  0  0  0
  -32.1670  -21.9980   20.8191 C   0  0  0  0  0  0  0  0  0  0  0  0
  -23.9713  -20.3526   28.2627 C   0  0  0  0  0  0  0  0  0  0  0  0
  -21.8888  -17.3295   22.7496 C   0  0  0  0  0  0  0  0  0  0  0  0
  -21.5745  -19.1346   24.4557 C   0  0  0  0  0  0  0  0  0  0  0  0
  -21.5106  -16.7396   25.1503 C   0  0  0  0  0  0  0  0  0  0  0  0
  -27.4877  -19.1248   27.4861 C   0  0  0  0  0  0  0  0  0  0  0  0
  -28.4381  -20.9129   19.8171 C   0  0  0  0  0  0  0  0  0  1  0  0
  -29.8680  -26.2107   16.2407 C   0  0  0  0  0  0  0  0  0  0  0  0
  -30.8505  -25.0716   16.6063 C   0  0  1  0  0  0  0  0  0  0  0  0
  -30.7006  -22.4658   20.8577 C   0  0  0  0  0  0  0  0  0  0  0  0
  -23.7213  -17.7859   24.5101 C   0  0  1  0  0  0  0  0  0  0  0  0
  -25.0141  -19.4103   27.6818 C   0  0  2  0  0  0  0  0  0  0  0  0
  -22.1980  -17.7456   24.2015 C   0  0  0  0  0  0  0  0  0  0  0  0
  -24.7975  -26.3838   21.7171 N   0  0  0  0  0  0  0  0  0  0  0  0
  -25.7903  -25.7200   21.1008 N   0  0  0  0  0  0  0  0  0  0  0  0
  -25.4208  -16.4546   23.3004 N   0  0  0  0  0  0  0  0  0  0  0  0
  -28.4560  -27.7870   19.3034 N   0  0  0  0  0  0  0  0  0  0  0  0
  -26.3477  -23.6342   20.1266 N   0  0  0  0  0  0  0  0  0  0  0  0
  -22.0901  -23.0342   21.5081 N   0  0  0  0  0  0  0  0  0  0  0  0
  -24.5089  -13.6134   21.7301 N   0  0  0  0  0  0  0  0  0  0  0  0
  -24.0429  -18.1507   25.8856 N   0  0  0  0  0  0  0  0  0  0  0  0
  -29.0193  -26.5709   17.3547 N   0  0  0  0  0  0  0  0  0  0  0  0
  -26.3654  -19.9632   27.9805 N   0  3  0  0  0  0  0  0  0  0  0  0
  -23.8757  -22.0226   20.4849 O   0  0  0  0  0  0  0  0  0  0  0  0
  -25.3297  -15.4856   20.6148 O   0  0  0  0  0  0  0  0  0  0  0  0
  -24.0299  -15.4647   24.8885 O   0  0  0  0  0  0  0  0  0  0  0  0
  -25.3371  -20.0021   25.3618 O   0  0  0  0  0  0  0  0  0  0  0  0
  -30.4477  -28.1646   18.1773 O   0  0  0  0  0  0  0  0  0  0  0  0
  -18.9018  -26.8058   24.0859 O   0  0  0  0  0  0  0  0  0  0  0  0
  -29.2918  -19.7694   19.8248 O   0  0  0  0  0  0  0  0  0  1  0  0
  -16.6958  -31.6961   22.8121 F   0  0  0  0  0  0  0  0  0  0  0  0
  -16.4234  -26.9709   22.8722 F   0  0  0  0  0  0  0  0  0  0  0  0
  1  2  1  0  0  0  0
  1  5  2  0  0  0  0
  2  6  2  0  0  0  0
  3 10  2  0  0  0  0
  3 18  1  0  0  0  0
  4 11  1  0  0  0  0
  4 18  2  0  0  0  0
  5 20  1  0  0  0  0
  6 22  1  0  0  0  0
  7 12  2  0  0  0  0
  7 21  1  0  0  0  0
  8  9  2  0  0  0  0
  8 24  1  0  0  0  0
  9 25  1  0  0  0  0
 10 27  1  0  0  0  0
 11 27  2  0  0  0  0
 12 28  1  0  0  0  0
 13 14  2  0  0  0  0
 13 29  1  0  0  0  0
 14 30  1  0  0  0  0
 15 23  1  0  0  0  0
 15 28  2  0  0  0  0
 16 24  2  0  0  0  0
 16 26  1  0  0  0  0
 17 30  2  0  0  0  0
 17 31  1  0  0  0  0
 18 32  1  0  0  0  0
 19 32  1  0  0  0  0
 19 33  2  0  0  0  0
 19 34  1  0  0  0  0
 20 22  2  0  0  0  0
 20 39  1  0  0  0  0
 21 23  2  0  0  0  0
 21 40  1  0  0  0  0
 22 48  1  0  0  0  0
 23 41  1  0  0  0  0
 24 61  1  0  0  0  0
 25 26  2  0  0  0  0
 25 59  1  0  0  0  0
 26 62  1  0  0  0  0
 27 81  1  0  0  0  0
 28 82  1  0  0  0  0
 29 31  2  0  0  0  0
 29 81  1  0  0  0  0
 30 83  1  0  0  0  0
 31 84  1  0  0  0  0
 32 66  2  0  0  0  0
 33 67  1  0  0  0  0
 33 70  1  0  0  0  0
 34 71  1  0  0  0  0
 34 76  2  0  0  0  0
 35 49  1  0  0  0  0
 35 72  1  0  0  0  0
 35 77  2  0  0  0  0
 36 63  1  0  0  0  0
 36 68  1  0  0  0  0
 36 78  2  0  0  0  0
 37 64  1  0  0  0  0
 37 73  1  0  0  0  0
 37 79  2  0  0  0  0
 38 69  1  0  0  0  0
 38 74  1  0  0  0  0
 38 80  2  0  0  0  0
 39 42  1  0  0  0  0
 40 49  1  0  0  0  0
 41 68  1  0  0  0  0
 42 44  1  0  0  0  0
 43 45  1  0  0  0  0
 43 46  1  0  0  0  0
 44 48  1  0  0  0  0
 45 50  1  0  0  0  0
 46 69  1  0  0  0  0
 47 50  1  0  0  0  0
 47 69  1  0  0  0  0
 48 72  1  0  0  0  0
 49 68  1  0  0  0  0
 50 67  1  0  0  0  0
 51 61  1  0  0  0  0
 52 62  1  0  0  0  0
 53 62  1  0  0  0  0
 54 64  1  0  0  0  0
 55 65  1  0  0  0  0
 56 65  1  0  0  0  0
 57 65  1  0  0  0  0
 58 75  1  0  0  0  0
 59 82  1  0  0  0  0
 60 61  1  0  0  0  0
 60 74  1  0  0  0  0
 63 65  1  0  0  0  0
 63 73  1  0  0  0  0
 64 75  1  0  0  0  0
 66 67  1  0  0  0  0
M  CHG  1  75   1
M  ISO  4  38 100  59 101  74 100  82 101
M  END
> <Batch ID>
0082

> <Smiles>
CNC(C)C(=O)NC(C(=O)N1Cc2cc([101O:1][101CH2:1]c3ccc(C(C)C[100NH:0][100C:0](=O)N4CCCC(n5nc(-c6ccc(Oc7ccc(F)cc7F)cc6)c(C(N)=O)c5N)C4)cc3C(C)C)ccc2CC1C(=O)NC1CCCc2ccccc21)C(C)(C)C

> <Shape>
0.221

> <Color>
0.053

> <Negative vol penalty>
0.000

$$$$

  -OEChem-04052318493D

 84 92  0     1  0  0  0  0  0999 V2000
  -26.9394  -11.0022   18.5594 C   0  0  0  0  0  0  0  0  0  0  0  0
  -26.9733  -12.2023   17.8565 C   0  0  0  0  0  0  0  0  0  0  0  0
  -23.4482  -26.6457   22.1963 C   0  0  0  0  0  0  0  0  0  0  0  0
  -23.0396  -29.0205   22.0226 C   0  0  0  0  0  0  0  0  0  0  0  0
  -26.1881  -10.9021   19.7296 C   0  0  0  0  0  0  0  0  0  0  0  0
  -26.2551  -13.3027   18.3230 C   0  0  0  0  0  0  0  0  0  0  0  0
  -28.9440  -17.5907   18.1548 C   0  0  0  0  0  0  0  0  0  0  0  0
  -22.3048  -26.5064   22.9829 C   0  0  0  0  0  0  0  0  0  0  0  0
  -21.8961  -28.8812   22.8092 C   0  0  0  0  0  0  0  0  0  0  0  0
  -29.0752  -18.2117   16.9134 C   0  0  0  0  0  0  0  0  0  0  0  0
  -18.7043  -27.8486   22.4006 C   0  0  0  0  0  0  0  0  0  0  0  0
  -17.5480  -28.5075   21.9829 C   0  0  0  0  0  0  0  0  0  0  0  0
  -27.3295  -19.7650   17.5126 C   0  0  0  0  0  0  0  0  0  0  0  0
  -17.5118  -29.7553   24.0514 C   0  0  0  0  0  0  0  0  0  0  0  0
  -31.8715  -26.7832   17.8459 C   0  0  0  0  0  0  0  0  0  0  0  0
  -23.8157  -27.9028   21.7162 C   0  0  0  0  0  0  0  0  0  0  0  0
  -25.0805  -27.9593   19.5016 C   0  0  0  0  0  0  0  0  0  0  0  0
  -25.4680  -12.0047   20.2159 C   0  0  0  0  0  0  0  0  0  0  0  0
  -27.9954  -18.0461   19.0817 C   0  0  0  0  0  0  0  0  0  0  0  0
  -25.4924  -13.2169   19.5001 C   0  0  0  0  0  0  0  0  0  0  0  0
  -27.1900  -19.1497   18.7660 C   0  0  0  0  0  0  0  0  0  0  0  0
  -21.5287  -27.6242   23.2894 C   0  0  0  0  0  0  0  0  0  0  0  0
  -28.2659  -19.2971   16.5910 C   0  0  0  0  0  0  0  0  0  0  0  0
  -19.2643  -28.1430   23.6437 C   0  0  0  0  0  0  0  0  0  0  0  0
  -16.9518  -29.4608   22.8082 C   0  0  0  0  0  0  0  0  0  0  0  0
  -18.6681  -29.0963   24.4691 C   0  0  0  0  0  0  0  0  0  0  0  0
  -24.9970  -28.0474   20.9041 C   0  0  0  0  0  0  0  0  0  0  0  0
  -31.4899  -26.3743   19.1048 C   0  0  0  0  0  0  0  0  0  0  0  0
  -30.5625  -24.4851   18.2102 C   0  0  0  0  0  0  0  0  0  0  0  0
  -30.9439  -24.8941   16.9512 C   0  0  0  0  0  0  0  0  0  0  0  0
  -26.4090  -28.1685   19.2229 C   0  0  0  0  0  0  0  0  0  0  0  0
  -24.0493  -27.7109   18.5369 C   0  0  0  0  0  0  0  0  0  0  0  0
  -31.7842  -27.1836   20.2945 C   0  0  0  0  0  0  0  0  0  0  0  0
  -25.4373  -16.7792   20.4798 C   0  0  0  0  0  0  0  0  0  0  0  0
  -25.4553  -19.5599   22.1500 C   0  0  0  0  0  0  0  0  0  0  0  0
  -26.3811  -22.8411   22.3039 C   0  0  0  0  0  0  0  0  0  0  0  0
  -24.6323  -11.8346   21.4598 C   0  0  0  0  0  0  0  0  0  0  0  0
  -27.8846  -17.3822   20.4268 C   0  0  0  0  0  0  0  0  0  0  0  0
  -26.1703  -19.6900   19.7339 C   0  0  0  0  0  0  0  0  0  0  0  0
  -24.2004  -13.1566   22.0889 C   0  0  0  0  0  0  0  0  0  0  0  0
  -30.1935  -29.7704   22.1706 C   0  0  0  0  0  0  0  0  0  0  0  0
  -23.6648  -14.1059   21.0217 C   0  0  0  0  0  0  0  0  0  0  0  0
  -28.7043  -29.5360   21.9108 C   0  0  0  0  0  0  0  0  0  0  0  0
  -30.9655  -28.4557   22.2493 C   0  0  0  0  0  0  0  0  0  0  0  0
  -29.2940  -27.3315   20.8185 C   0  0  0  0  0  0  0  0  0  0  0  0
  -24.7465  -14.4401   19.9875 C   0  0  1  0  0  0  0  0  0  0  0  0
  -26.5311  -17.6062   21.0941 C   0  0  1  0  0  0  0  0  0  0  0  0
  -28.4878  -28.6335   20.6815 C   0  0  1  0  0  0  0  0  0  0  0  0
  -29.8298  -23.2048   18.4230 C   0  0  0  0  0  0  0  0  0  0  0  0
  -26.2207  -24.8661   23.7774 C   0  0  0  0  0  0  0  0  0  0  0  0
  -22.5469  -19.9387   21.3086 C   0  0  0  0  0  0  0  0  0  0  0  0
  -22.7398  -22.3439   21.9763 C   0  0  0  0  0  0  0  0  0  0  0  0
  -23.0337  -20.5498   23.6843 C   0  0  0  0  0  0  0  0  0  0  0  0
  -27.2737  -23.8021   13.7333 C   0  0  0  0  0  0  0  0  0  0  0  0
  -29.5926  -23.9458   12.8135 C   0  0  0  0  0  0  0  0  0  0  0  0
  -29.3227  -23.0186   22.5772 C   0  0  0  0  0  0  0  0  0  0  0  0
  -30.6376  -24.0647   15.7274 C   0  0  0  0  0  0  0  0  0  0  0  0
  -29.1696  -24.2142   15.3051 C   0  0  0  0  0  0  0  0  0  0  0  0
  -28.9241  -21.9265   14.2055 C   0  0  0  0  0  0  0  0  0  0  0  0
  -28.0872  -21.2974   15.3171 C   0  0  0  0  0  0  0  0  0  1  0  0
  -24.8423  -20.9261   21.9583 C   0  0  1  0  0  0  0  0  0  0  0  0
  -27.0505  -23.6484   23.4015 C   0  0  2  0  0  0  0  0  0  0  0  0
  -23.3085  -20.9285   22.2127 C   0  0  0  0  0  0  0  0  0  0  0  0
  -28.7527  -23.4564   14.0079 C   0  0  0  0  0  0  0  0  0  0  0  0
  -31.6054  -26.0504   16.7464 N   0  0  0  0  0  0  0  0  0  0  0  0
  -26.1786  -28.2931   21.4765 N   0  0  0  0  0  0  0  0  0  0  0  0
  -30.8286  -25.2180   19.3096 N   0  0  0  0  0  0  0  0  0  0  0  0
  -27.0170  -28.3612   20.4285 N   0  0  0  0  0  0  0  0  0  0  0  0
  -30.7107  -27.6345   21.0664 N   0  0  0  0  0  0  0  0  0  0  0  0
  -26.0955  -19.0029   21.0338 N   0  0  0  0  0  0  0  0  0  0  0  0
  -27.1049  -28.2044   18.0666 N   0  0  0  0  0  0  0  0  0  0  0  0
  -22.7387  -27.5180   18.9946 N   0  0  0  0  0  0  0  0  0  0  0  0
  -25.6707  -15.4178   20.5208 N   0  0  0  0  0  0  0  0  0  0  0  0
  -25.5922  -21.8344   22.8192 N   0  0  0  0  0  0  0  0  0  0  0  0
  -28.3940  -24.1146   22.9556 N   0  3  0  0  0  0  0  0  0  0  0  0
  -24.2859  -27.6450   17.3068 O   0  0  0  0  0  0  0  0  0  0  0  0
  -32.9722  -27.4146   20.5144 O   0  0  0  0  0  0  0  0  0  0  0  0
  -24.4536  -17.3350   20.0053 O   0  0  0  0  0  0  0  0  0  0  0  0
  -25.3755  -19.0105   23.2515 O   0  0  0  0  0  0  0  0  0  0  0  0
  -26.5391  -23.0819   21.1091 O   0  0  0  0  0  0  0  0  0  0  0  0
  -20.4127  -27.4886   24.0567 O   0  0  0  0  0  0  0  0  0  0  0  0
  -28.3915  -19.9047   15.3798 O   0  0  0  0  0  0  0  0  0  1  0  0
  -15.8423  -30.0946   22.4063 F   0  0  0  0  0  0  0  0  0  0  0  0
  -19.2021  -29.3842   25.6640 F   0  0  0  0  0  0  0  0  0  0  0  0
  1  2  1  0  0  0  0
  1  5  2  0  0  0  0
  2  6  2  0  0  0  0
  3  8  2  0  0  0  0
  3 16  1  0  0  0  0
  4  9  1  0  0  0  0
  4 16  2  0  0  0  0
  5 18  1  0  0  0  0
  6 20  1  0  0  0  0
  7 10  2  0  0  0  0
  7 19  1  0  0  0  0
  8 22  1  0  0  0  0
  9 22  2  0  0  0  0
 10 23  1  0  0  0  0
 11 12  2  0  0  0  0
 11 24  1  0  0  0  0
 12 25  1  0  0  0  0
 13 21  1  0  0  0  0
 13 23  2  0  0  0  0
 14 25  2  0  0  0  0
 14 26  1  0  0  0  0
 15 28  1  0  0  0  0
 15 65  2  0  0  0  0
 16 27  1  0  0  0  0
 17 27  1  0  0  0  0
 17 31  2  0  0  0  0
 17 32  1  0  0  0  0
 18 20  2  0  0  0  0
 18 37  1  0  0  0  0
 19 21  2  0  0  0  0
 19 38  1  0  0  0  0
 20 46  1  0  0  0  0
 21 39  1  0  0  0  0
 22 81  1  0  0  0  0
 23 82  1  0  0  0  0
 24 26  2  0  0  0  0
 24 81  1  0  0  0  0
 25 83  1  0  0  0  0
 26 84  1  0  0  0  0
 27 66  2  0  0  0  0
 28 33  1  0  0  0  0
 28 67  2  0  0  0  0
 29 30  2  0  0  0  0
 29 49  1  0  0  0  0
 29 67  1  0  0  0  0
 30 57  1  0  0  0  0
 30 65  1  0  0  0  0
 31 68  1  0  0  0  0
 31 71  1  0  0  0  0
 32 72  1  0  0  0  0
 32 76  2  0  0  0  0
 33 69  1  0  0  0  0
 33 77  2  0  0  0  0
 34 47  1  0  0  0  0
 34 73  1  0  0  0  0
 34 78  2  0  0  0  0
 35 61  1  0  0  0  0
 35 70  1  0  0  0  0
 35 79  2  0  0  0  0
 36 62  1  0  0  0  0
 36 74  1  0  0  0  0
 36 80  2  0  0  0  0
 37 40  1  0  0  0  0
 38 47  1  0  0  0  0
 39 70  1  0  0  0  0
 40 42  1  0  0  0  0
 41 43  1  0  0  0  0
 41 44  1  0  0  0  0
 42 46  1  0  0  0  0
 43 48  1  0  0  0  0
 44 69  1  0  0  0  0
 45 48  1  0  0  0  0
 45 69  1  0  0  0  0
 46 73  1  0  0  0  0
 47 70  1  0  0  0  0
 48 68  1  0  0  0  0
 50 62  1  0  0  0  0
 51 63  1  0  0  0  0
 52 63  1  0  0  0  0
 53 63  1  0  0  0  0
 54 64  1  0  0  0  0
 55 64  1  0  0  0  0
 56 75  1  0  0  0  0
 57 58  1  0  0  0  0
 58 64  1  0  0  0  0
 59 60  1  0  0  0  0
 59 64  1  0  0  0  0
 60 82  1  0  0  0  0
 61 63  1  0  0  0  0
 61 74  1  0  0  0  0
 62 75  1  0  0  0  0
 66 68  1  0  0  0  0
M  CHG  1  75   1
M  ISO  4  28 100  33 100  60 101  82 101
M  END
> <Batch ID>
0082

> <Smiles>
CNC(C)C(=O)NC(C(=O)N1Cc2cc([101O:1][101CH2:1]CC(C)(C)CCc3nc[100c:0]([100C:0](=O)N4CCCC(n5nc(-c6ccc(Oc7ccc(F)cc7F)cc6)c(C(N)=O)c5N)C4)nc3C)ccc2CC1C(=O)NC1CCCc2ccccc21)C(C)(C)C

> <Shape>
0.222

> <Color>
0.076

> <Negative vol penalty>
0.000

$$$$

  -OEChem-04052318493D

 84 92  0     1  0  0  0  0  0999 V2000
  -26.8315  -22.2939   26.6989 C   0  0  0  0  0  0  0  0  0  0  0  0
  -26.3650  -21.4229   25.7195 C   0  0  0  0  0  0  0  0  0  0  0  0
  -25.8283  -27.4713   18.9699 C   0  0  0  0  0  0  0  0  0  0  0  0
  -26.7503  -27.1099   21.1736 C   0  0  0  0  0  0  0  0  0  0  0  0
  -27.8944  -23.1515   26.4185 C   0  0  0  0  0  0  0  0  0  0  0  0
  -26.9604  -21.4100   24.4586 C   0  0  0  0  0  0  0  0  0  0  0  0
  -27.8105  -16.7157   22.7598 C   0  0  0  0  0  0  0  0  0  0  0  0
  -26.0303  -28.8442   19.1105 C   0  0  0  0  0  0  0  0  0  0  0  0
  -26.9523  -28.4828   21.3142 C   0  0  0  0  0  0  0  0  0  0  0  0
  -26.7193  -16.0180   22.2437 C   0  0  0  0  0  0  0  0  0  0  0  0
  -27.3793  -31.9253   22.3992 C   0  0  0  0  0  0  0  0  0  0  0  0
  -27.0111  -32.5142   23.6088 C   0  0  0  0  0  0  0  0  0  0  0  0
  -27.4384  -16.5606   20.0060 C   0  0  0  0  0  0  0  0  0  0  0  0
  -24.7534  -11.6147   19.6941 C   0  0  0  0  0  0  0  0  0  0  0  0
  -24.7289  -31.8016   23.2609 C   0  0  0  0  0  0  0  0  0  0  0  0
  -22.7772  -11.9673   21.5424 C   0  0  0  0  0  0  0  0  0  0  0  0
  -26.1882  -26.6041   20.0014 C   0  0  0  0  0  0  0  0  0  0  0  0
  -26.8803  -24.2435   19.3257 C   0  0  0  0  0  0  0  0  0  0  0  0
  -28.5094  -23.1423   25.1566 C   0  0  0  0  0  0  0  0  0  0  0  0
  -28.7193  -17.3513   21.9017 C   0  0  0  0  0  0  0  0  0  0  0  0
  -28.0316  -22.2693   24.1606 C   0  0  0  0  0  0  0  0  0  0  0  0
  -28.5417  -17.2635   20.5136 C   0  0  0  0  0  0  0  0  0  0  0  0
  -24.0400  -12.8081   19.7108 C   0  0  0  0  0  0  0  0  0  0  0  0
  -26.5923  -29.3500   20.2827 C   0  0  0  0  0  0  0  0  0  0  0  0
  -26.5316  -15.9427   20.8667 C   0  0  0  0  0  0  0  0  0  0  0  0
  -26.4224  -31.2746   21.6204 C   0  0  0  0  0  0  0  0  0  0  0  0
  -23.0315  -12.9957   20.6494 C   0  0  0  0  0  0  0  0  0  0  0  0
  -25.6859  -32.4524   24.0397 C   0  0  0  0  0  0  0  0  0  0  0  0
  -25.0972  -31.2127   22.0513 C   0  0  0  0  0  0  0  0  0  0  0  0
  -25.9793  -25.1858   19.8570 C   0  0  0  0  0  0  0  0  0  0  0  0
  -24.4221  -10.6482   20.6301 C   0  0  0  0  0  0  0  0  0  0  0  0
  -26.2134  -23.0457   19.4092 C   0  0  0  0  0  0  0  0  0  0  0  0
  -28.2020  -24.4340   18.8036 C   0  0  0  0  0  0  0  0  0  0  0  0
  -29.6362  -20.3589   21.4351 C   0  0  0  0  0  0  0  0  0  0  0  0
  -31.7807  -18.9833   19.4273 C   0  0  0  0  0  0  0  0  0  0  0  0
  -32.6101  -16.3260   17.4530 C   0  0  0  0  0  0  0  0  0  0  0  0
  -23.2042  -19.4649   22.2498 C   0  0  0  0  0  0  0  0  0  0  0  0
  -29.6244  -24.1210   24.8853 C   0  0  0  0  0  0  0  0  0  0  0  0
  -29.9061  -18.0774   22.4734 C   0  0  0  0  0  0  0  0  0  0  0  0
  -29.5000  -17.9114   19.5489 C   0  0  0  0  0  0  0  0  0  0  0  0
  -30.4443  -23.7812   23.6433 C   0  0  0  0  0  0  0  0  0  0  0  0
  -21.3734  -22.0374   20.4813 C   0  0  0  0  0  0  0  0  0  0  0  0
  -29.5259  -23.4394   22.4743 C   0  0  0  0  0  0  0  0  0  0  0  0
  -22.4944  -23.0124   20.1167 C   0  0  0  0  0  0  0  0  0  0  0  0
  -21.5971  -21.4296   21.8629 C   0  0  0  0  0  0  0  0  0  0  0  0
  -24.0360  -21.7260   21.6687 C   0  0  0  0  0  0  0  0  0  0  0  0
  -28.6676  -22.2082   22.7888 C   0  0  1  0  0  0  0  0  0  0  0  0
  -30.4833  -19.1209   21.5219 C   0  0  1  0  0  0  0  0  0  0  0  0
  -23.8796  -22.3575   20.2734 C   0  0  2  0  0  0  0  0  0  0  0  0
  -25.1670   -9.3547   20.6412 C   0  0  0  0  0  0  0  0  0  0  0  0
  -34.4087  -15.5062   15.9069 C   0  0  0  0  0  0  0  0  0  0  0  0
  -30.7741  -20.8764   17.2564 C   0  0  0  0  0  0  0  0  0  0  0  0
  -31.8834  -19.4079   15.5590 C   0  0  0  0  0  0  0  0  0  0  0  0
  -33.2545  -20.5593   17.2960 C   0  0  0  0  0  0  0  0  0  0  0  0
  -33.1647  -13.9719   19.1588 C   0  0  0  0  0  0  0  0  0  0  0  0
  -24.3718  -13.8852   18.7067 C   0  0  0  0  0  0  0  0  0  0  0  0
  -22.2017  -16.3720   21.5891 C   0  0  0  0  0  0  0  0  0  0  0  0
  -22.2247  -17.2592   22.8265 C   0  0  0  0  0  0  0  0  0  0  0  0
  -25.6333  -14.6565   19.0794 C   0  0  0  0  0  0  0  0  0  1  0  0
  -22.3603  -14.8924   21.9174 C   0  0  0  0  0  0  0  0  0  0  0  0
  -31.7891  -18.6105   17.9645 C   0  0  1  0  0  0  0  0  0  0  0  0
  -33.8903  -15.5185   17.3365 C   0  0  2  0  0  0  0  0  0  0  0  0
  -31.9060  -19.8529   17.0369 C   0  0  0  0  0  0  0  0  0  0  0  0
  -23.4489  -10.7942   21.5570 N   0  0  0  0  0  0  0  0  0  0  0  0
  -24.8278  -24.6341   20.2488 N   0  0  0  0  0  0  0  0  0  0  0  0
  -25.0006  -23.3322   19.9635 N   0  0  0  0  0  0  0  0  0  0  0  0
  -30.6414  -18.6151   20.1568 N   0  0  0  0  0  0  0  0  0  0  0  0
  -22.9260  -20.8065   21.9398 N   0  0  0  0  0  0  0  0  0  0  0  0
  -26.5519  -21.7859   19.0618 N   0  0  0  0  0  0  0  0  0  0  0  0
  -28.7355  -25.7300   18.7921 N   0  0  0  0  0  0  0  0  0  0  0  0
  -29.4482  -20.9980   22.6457 N   0  0  0  0  0  0  0  0  0  0  0  0
  -32.8629  -17.6370   17.7975 N   0  0  0  0  0  0  0  0  0  0  0  0
  -22.0979  -18.6622   22.5001 N   0  0  0  0  0  0  0  0  0  0  0  0
  -33.6549  -14.1101   17.7632 N   0  3  0  0  0  0  0  0  0  0  0  0
  -28.8831  -23.4856   18.3452 O   0  0  0  0  0  0  0  0  0  0  0  0
  -29.1876  -20.7092   20.3498 O   0  0  0  0  0  0  0  0  0  0  0  0
  -32.7524  -19.5729   19.9067 O   0  0  0  0  0  0  0  0  0  0  0  0
  -31.4975  -15.8431   17.2544 O   0  0  0  0  0  0  0  0  0  0  0  0
  -24.3538  -19.0139   22.2950 O   0  0  0  0  0  0  0  0  0  0  0  0
  -26.7897  -30.6897   20.4202 O   0  0  0  0  0  0  0  0  0  0  0  0
  -25.4670  -15.2629   20.3604 O   0  0  0  0  0  0  0  0  0  1  0  0
  -22.3092  -14.1436   20.7019 O   0  0  0  0  0  0  0  0  0  0  0  0
  -25.3327  -33.0167   25.2020 F   0  0  0  0  0  0  0  0  0  0  0  0
  -24.1736  -30.5879   21.3080 F   0  0  0  0  0  0  0  0  0  0  0  0
  1  2  1  0  0  0  0
  1  5  2  0  0  0  0
  2  6  2  0  0  0  0
  3  8  2  0  0  0  0
  3 17  1  0  0  0  0
  4  9  1  0  0  0  0
  4 17  2  0  0  0  0
  5 19  1  0  0  0  0
  6 21  1  0  0  0  0
  7 10  2  0  0  0  0
  7 20  1  0  0  0  0
  8 24  1  0  0  0  0
  9 24  2  0  0  0  0
 10 25  1  0  0  0  0
 11 12  2  0  0  0  0
 11 26  1  0  0  0  0
 12 28  1  0  0  0  0
 13 22  1  0  0  0  0
 13 25  2  0  0  0  0
 14 23  1  0  0  0  0
 14 31  2  0  0  0  0
 15 28  2  0  0  0  0
 15 29  1  0  0  0  0
 16 27  1  0  0  0  0
 16 64  2  0  0  0  0
 17 30  1  0  0  0  0
 18 30  1  0  0  0  0
 18 32  2  0  0  0  0
 18 33  1  0  0  0  0
 19 21  2  0  0  0  0
 19 38  1  0  0  0  0
 20 22  2  0  0  0  0
 20 39  1  0  0  0  0
 21 47  1  0  0  0  0
 22 40  1  0  0  0  0
 23 27  2  0  0  0  0
 23 56  1  0  0  0  0
 24 80  1  0  0  0  0
 25 81  1  0  0  0  0
 26 29  2  0  0  0  0
 26 80  1  0  0  0  0
 27 82  1  0  0  0  0
 28 83  1  0  0  0  0
 29 84  1  0  0  0  0
 30 65  2  0  0  0  0
 31 50  1  0  0  0  0
 31 64  1  0  0  0  0
 32 66  1  0  0  0  0
 32 69  1  0  0  0  0
 33 70  1  0  0  0  0
 33 75  2  0  0  0  0
 34 48  1  0  0  0  0
 34 71  1  0  0  0  0
 34 76  2  0  0  0  0
 35 61  1  0  0  0  0
 35 67  1  0  0  0  0
 35 77  2  0  0  0  0
 36 62  1  0  0  0  0
 36 72  1  0  0  0  0
 36 78  2  0  0  0  0
 37 68  1  0  0  0  0
 37 73  1  0  0  0  0
 37 79  2  0  0  0  0
 38 41  1  0  0  0  0
 39 48  1  0  0  0  0
 40 67  1  0  0  0  0
 41 43  1  0  0  0  0
 42 44  1  0  0  0  0
 42 45  1  0  0  0  0
 43 47  1  0  0  0  0
 44 49  1  0  0  0  0
 45 68  1  0  0  0  0
 46 49  1  0  0  0  0
 46 68  1  0  0  0  0
 47 71  1  0  0  0  0
 48 67  1  0  0  0  0
 49 66  1  0  0  0  0
 51 62  1  0  0  0  0
 52 63  1  0  0  0  0
 53 63  1  0  0  0  0
 54 63  1  0  0  0  0
 55 74  1  0  0  0  0
 56 59  1  0  0  0  0
 57 58  1  0  0  0  0
 57 60  1  0  0  0  0
 58 73  1  0  0  0  0
 59 81  1  0  0  0  0
 60 82  1  0  0  0  0
 61 63  1  0  0  0  0
 61 72  1  0  0  0  0
 62 74  1  0  0  0  0
 65 66  1  0  0  0  0
M  CHG  1  74   1
M  ISO  4  37 100  59 101  73 100  81 101
M  END
> <Batch ID>
0082

> <Smiles>
CNC(C)C(=O)NC(C(=O)N1Cc2cc([101O:1][101CH2:1]Cc3cc(C)ncc3OCCC[100NH:0][100C:0](=O)N3CCCC(n4nc(-c5ccc(Oc6ccc(F)cc6F)cc5)c(C(N)=O)c4N)C3)ccc2CC1C(=O)NC1CCCc2ccccc21)C(C)(C)C

> <Shape>
0.186

> <Color>
0.078

> <Negative vol penalty>
0.000

$$$$

  -OEChem-04052318493D

 86 94  0     1  0  0  0  0  0999 V2000
  -21.8767  -11.8131   21.6893 C   0  0  0  0  0  0  0  0  0  0  0  0
  -22.1800  -12.8731   22.5377 C   0  0  0  0  0  0  0  0  0  0  0  0
  -21.4469  -27.7633   19.3084 C   0  0  0  0  0  0  0  0  0  0  0  0
  -21.7698  -26.1288   21.0580 C   0  0  0  0  0  0  0  0  0  0  0  0
  -22.7864  -11.4263   20.7061 C   0  0  0  0  0  0  0  0  0  0  0  0
  -23.3937  -13.5464   22.4039 C   0  0  0  0  0  0  0  0  0  0  0  0
  -24.4145  -19.5140   23.3268 C   0  0  0  0  0  0  0  0  0  0  0  0
  -20.2072  -27.1983   19.0092 C   0  0  0  0  0  0  0  0  0  0  0  0
  -20.5301  -25.5638   20.7589 C   0  0  0  0  0  0  0  0  0  0  0  0
  -24.9315  -20.2204   24.4120 C   0  0  0  0  0  0  0  0  0  0  0  0
  -17.2906  -23.9146   20.6950 C   0  0  0  0  0  0  0  0  0  0  0  0
  -16.4479  -23.5967   21.7602 C   0  0  0  0  0  0  0  0  0  0  0  0
  -27.1132  -20.1921   23.3832 C   0  0  0  0  0  0  0  0  0  0  0  0
  -16.4302  -25.9156   22.4381 C   0  0  0  0  0  0  0  0  0  0  0  0
  -28.7018  -24.3330   25.3741 C   0  0  0  0  0  0  0  0  0  0  0  0
  -22.2282  -27.2286   20.3327 C   0  0  0  0  0  0  0  0  0  0  0  0
  -23.7733  -28.8457   21.5596 C   0  0  0  0  0  0  0  0  0  0  0  0
  -24.0078  -12.1014   20.5539 C   0  0  0  0  0  0  0  0  0  0  0  0
  -25.2467  -19.1313   22.2650 C   0  0  0  0  0  0  0  0  0  0  0  0
  -24.3212  -13.1675   21.4186 C   0  0  0  0  0  0  0  0  0  0  0  0
  -26.6038  -19.4832   22.2845 C   0  0  0  0  0  0  0  0  0  0  0  0
  -27.3567  -24.1205   25.5531 C   0  0  0  0  0  0  0  0  0  0  0  0
  -19.7488  -26.0985   19.7345 C   0  0  0  0  0  0  0  0  0  0  0  0
  -26.2816  -20.5570   24.4417 C   0  0  0  0  0  0  0  0  0  0  0  0
  -17.7031  -25.2330   20.5014 C   0  0  0  0  0  0  0  0  0  0  0  0
  -16.0177  -24.5972   22.6317 C   0  0  0  0  0  0  0  0  0  0  0  0
  -17.2728  -26.2335   21.3729 C   0  0  0  0  0  0  0  0  0  0  0  0
  -23.5092  -27.8114   20.6418 C   0  0  0  0  0  0  0  0  0  0  0  0
  -26.7518  -24.7391   24.4425 C   0  0  0  0  0  0  0  0  0  0  0  0
  -25.1319  -29.0326   21.4846 C   0  0  0  0  0  0  0  0  0  0  0  0
  -22.8712  -29.5725   22.4044 C   0  0  0  0  0  0  0  0  0  0  0  0
  -26.1478  -16.3533   21.0101 C   0  0  0  0  0  0  0  0  0  0  0  0
  -27.5483  -18.2560   18.7874 C   0  0  0  0  0  0  0  0  0  0  0  0
  -28.8508  -21.3088   17.9931 C   0  0  0  0  0  0  0  0  0  0  0  0
  -29.6561  -25.4598   19.8667 C   0  0  0  0  0  0  0  0  0  0  0  0
  -24.9796  -11.6168   19.5074 C   0  0  0  0  0  0  0  0  0  0  0  0
  -24.6681  -18.3929   21.0892 C   0  0  0  0  0  0  0  0  0  0  0  0
  -27.5352  -19.1136   21.1601 C   0  0  0  0  0  0  0  0  0  0  0  0
  -26.0824  -12.6228   19.1878 C   0  0  0  0  0  0  0  0  0  0  0  0
  -28.8074  -28.6142   18.4504 C   0  0  0  0  0  0  0  0  0  0  0  0
  -26.6774  -13.1889   20.4733 C   0  0  0  0  0  0  0  0  0  0  0  0
  -27.3771  -28.8595   18.9342 C   0  0  0  0  0  0  0  0  0  0  0  0
  -29.0552  -27.1383   18.1468 C   0  0  0  0  0  0  0  0  0  0  0  0
  -27.2946  -26.4607   19.7327 C   0  0  0  0  0  0  0  0  0  0  0  0
  -25.6169  -13.9385   21.2887 C   0  0  1  0  0  0  0  0  0  0  0  0
  -25.7134  -17.6066   20.3042 C   0  0  1  0  0  0  0  0  0  0  0  0
  -27.0135  -27.9265   20.1049 C   0  0  2  0  0  0  0  0  0  0  0  0
  -25.3154  -24.8178   24.1239 C   0  0  0  0  0  0  0  0  0  0  0  0
  -29.8377  -23.1183   16.5617 C   0  0  0  0  0  0  0  0  0  0  0  0
  -25.6852  -24.2456   27.5201 C   0  0  0  0  0  0  0  0  0  0  0  0
  -27.7578  -22.8864   27.7061 C   0  0  0  0  0  0  0  0  0  0  0  0
  -30.1554  -16.7700   19.3399 C   0  0  0  0  0  0  0  0  0  0  0  0
  -31.3766  -18.6261   18.1859 C   0  0  0  0  0  0  0  0  0  0  0  0
  -29.7207  -17.2514   16.9246 C   0  0  0  0  0  0  0  0  0  0  0  0
  -31.3697  -23.3174   23.7603 C   0  0  0  0  0  0  0  0  0  0  0  0
  -32.1432  -25.1612   22.2785 C   0  0  0  0  0  0  0  0  0  0  0  0
  -26.1773  -22.3113   17.2146 C   0  0  0  0  0  0  0  0  0  0  0  0
  -30.0433  -25.4982   23.6072 C   0  0  0  0  0  0  0  0  0  0  0  0
  -30.1095  -23.7992   21.6544 C   0  0  0  0  0  0  0  0  0  0  0  0
  -25.9051  -22.1372   26.1787 C   0  0  0  0  0  0  0  0  0  1  0  0
  -28.8988  -18.9148   18.6420 C   0  0  1  0  0  0  0  0  0  0  0  0
  -28.6373  -22.2138   16.7932 C   0  0  2  0  0  0  0  0  0  0  0  0
  -26.6758  -23.3715   26.7140 C   0  0  0  0  0  0  0  0  0  0  0  0
  -30.0210  -17.8960   18.2954 C   0  0  0  0  0  0  0  0  0  0  0  0
  -30.8868  -24.4456   22.8259 C   0  0  0  0  0  0  0  0  0  0  0  0
  -24.6115  -27.3722   20.0287 N   0  0  0  0  0  0  0  0  0  0  0  0
  -27.6398  -25.3025   23.6191 N   0  0  0  0  0  0  0  0  0  0  0  0
  -28.8163  -25.0388   24.2126 N   0  0  0  0  0  0  0  0  0  0  0  0
  -25.5815  -28.1342   20.5622 N   0  0  0  0  0  0  0  0  0  0  0  0
  -26.9233  -18.3865   20.0356 N   0  0  0  0  0  0  0  0  0  0  0  0
  -28.6918  -26.3079   19.2976 N   0  0  0  0  0  0  0  0  0  0  0  0
  -25.9740  -29.8763   22.1184 N   0  0  0  0  0  0  0  0  0  0  0  0
  -21.5073  -29.2531   22.3567 N   0  0  0  0  0  0  0  0  0  0  0  0
  -25.3731  -15.2466   20.7196 N   0  0  0  0  0  0  0  0  0  0  0  0
  -28.7308  -19.9771   17.6563 N   0  0  0  0  0  0  0  0  0  0  0  0
  -29.2308  -24.7122   20.9579 N   0  0  0  0  0  0  0  0  0  0  0  0
  -27.4355  -23.0709   16.9982 N   0  3  0  0  0  0  0  0  0  0  0  0
  -23.2607  -30.4894   23.1666 O   0  0  0  0  0  0  0  0  0  0  0  0
  -27.1152  -16.3875   21.7616 O   0  0  0  0  0  0  0  0  0  0  0  0
  -27.0626  -17.6540   17.8265 O   0  0  0  0  0  0  0  0  0  0  0  0
  -29.1029  -21.7399   19.1161 O   0  0  0  0  0  0  0  0  0  0  0  0
  -30.8121  -25.3791   19.4376 O   0  0  0  0  0  0  0  0  0  0  0  0
  -18.5390  -25.5470   19.4430 O   0  0  0  0  0  0  0  0  0  0  0  0
  -26.7889  -21.2459   25.4999 O   0  0  0  0  0  0  0  0  0  1  0  0
  -15.2073  -24.2921   23.6536 F   0  0  0  0  0  0  0  0  0  0  0  0
  -17.6648  -27.5020   21.1914 F   0  0  0  0  0  0  0  0  0  0  0  0
  1  2  1  0  0  0  0
  1  5  2  0  0  0  0
  2  6  2  0  0  0  0
  3  8  2  0  0  0  0
  3 16  1  0  0  0  0
  4  9  1  0  0  0  0
  4 16  2  0  0  0  0
  5 18  1  0  0  0  0
  6 20  1  0  0  0  0
  7 10  2  0  0  0  0
  7 19  1  0  0  0  0
  8 23  1  0  0  0  0
  9 23  2  0  0  0  0
 10 24  1  0  0  0  0
 11 12  2  0  0  0  0
 11 25  1  0  0  0  0
 12 26  1  0  0  0  0
 13 21  1  0  0  0  0
 13 24  2  0  0  0  0
 14 26  2  0  0  0  0
 14 27  1  0  0  0  0
 15 22  2  0  0  0  0
 15 68  1  0  0  0  0
 16 28  1  0  0  0  0
 17 28  1  0  0  0  0
 17 30  2  0  0  0  0
 17 31  1  0  0  0  0
 18 20  2  0  0  0  0
 18 36  1  0  0  0  0
 19 21  2  0  0  0  0
 19 37  1  0  0  0  0
 20 45  1  0  0  0  0
 21 38  1  0  0  0  0
 22 29  1  0  0  0  0
 22 63  1  0  0  0  0
 23 83  1  0  0  0  0
 24 84  1  0  0  0  0
 25 27  2  0  0  0  0
 25 83  1  0  0  0  0
 26 85  1  0  0  0  0
 27 86  1  0  0  0  0
 28 66  2  0  0  0  0
 29 48  1  0  0  0  0
 29 67  2  0  0  0  0
 30 69  1  0  0  0  0
 30 72  1  0  0  0  0
 31 73  1  0  0  0  0
 31 78  2  0  0  0  0
 32 46  1  0  0  0  0
 32 74  1  0  0  0  0
 32 79  2  0  0  0  0
 33 61  1  0  0  0  0
 33 70  1  0  0  0  0
 33 80  2  0  0  0  0
 34 62  1  0  0  0  0
 34 75  1  0  0  0  0
 34 81  2  0  0  0  0
 35 71  1  0  0  0  0
 35 76  1  0  0  0  0
 35 82  2  0  0  0  0
 36 39  1  0  0  0  0
 37 46  1  0  0  0  0
 38 70  1  0  0  0  0
 39 41  1  0  0  0  0
 40 42  1  0  0  0  0
 40 43  1  0  0  0  0
 41 45  1  0  0  0  0
 42 47  1  0  0  0  0
 43 71  1  0  0  0  0
 44 47  1  0  0  0  0
 44 71  1  0  0  0  0
 45 74  1  0  0  0  0
 46 70  1  0  0  0  0
 47 69  1  0  0  0  0
 49 62  1  0  0  0  0
 50 63  1  0  0  0  0
 51 63  1  0  0  0  0
 52 64  1  0  0  0  0
 53 64  1  0  0  0  0
 54 64  1  0  0  0  0
 55 65  1  0  0  0  0
 56 65  1  0  0  0  0
 57 77  1  0  0  0  0
 58 65  1  0  0  0  0
 58 68  1  0  0  0  0
 59 65  1  0  0  0  0
 59 76  1  0  0  0  0
 60 63  1  0  0  0  0
 60 84  1  0  0  0  0
 61 64  1  0  0  0  0
 61 75  1  0  0  0  0
 62 77  1  0  0  0  0
 66 69  1  0  0  0  0
 67 68  1  0  0  0  0
M  CHG  1  77   1
M  ISO  4  35 100  60 101  76 100  84 101
M  END
> <Batch ID>
0082

> <Smiles>
CNC(C)C(=O)NC(C(=O)N1Cc2cc([101O:1][101CH2:1]C(C)(C)c3cn(CC(C)(C)C[100NH:0][100C:0](=O)N4CCCC(n5nc(-c6ccc(Oc7ccc(F)cc7F)cc6)c(C(N)=O)c5N)C4)nc3C)ccc2CC1C(=O)NC1CCCc2ccccc21)C(C)(C)C

> <Shape>
0.194

> <Color>
0.081

> <Negative vol penalty>
0.000

$$$$

  -OEChem-04052318493D

 82 90  0     1  0  0  0  0  0999 V2000
  -29.3425  -30.8637   22.7229 C   0  0  0  0  0  0  0  0  0  0  0  0
  -28.8786  -29.6005   23.0757 C   0  0  0  0  0  0  0  0  0  0  0  0
  -23.0689   -9.8803   19.9282 C   0  0  0  0  0  0  0  0  0  0  0  0
  -23.8402   -9.8593   22.2176 C   0  0  0  0  0  0  0  0  0  0  0  0
  -29.5820  -31.1682   21.3835 C   0  0  0  0  0  0  0  0  0  0  0  0
  -28.6529  -28.6412   22.0891 C   0  0  0  0  0  0  0  0  0  0  0  0
  -30.4711  -24.0875   23.3549 C   0  0  0  0  0  0  0  0  0  0  0  0
  -22.3259   -8.7245   20.1678 C   0  0  0  0  0  0  0  0  0  0  0  0
  -23.0971   -8.7034   22.4573 C   0  0  0  0  0  0  0  0  0  0  0  0
  -29.7210  -23.3296   24.2532 C   0  0  0  0  0  0  0  0  0  0  0  0
  -19.8717   -7.8993   23.0662 C   0  0  0  0  0  0  0  0  0  0  0  0
  -19.1206   -7.8454   24.2403 C   0  0  0  0  0  0  0  0  0  0  0  0
  -28.8234  -22.0506   22.4153 C   0  0  0  0  0  0  0  0  0  0  0  0
  -20.3650   -5.8988   24.9470 C   0  0  0  0  0  0  0  0  0  0  0  0
  -29.8338  -18.3104   25.7295 C   0  0  0  0  0  0  0  0  0  0  0  0
  -23.8261  -10.4478   20.9531 C   0  0  0  0  0  0  0  0  0  0  0  0
  -24.1682  -12.9741   20.8619 C   0  0  0  0  0  0  0  0  0  0  0  0
  -29.3684  -30.2090   20.3810 C   0  0  0  0  0  0  0  0  0  0  0  0
  -30.3945  -23.8393   21.9769 C   0  0  0  0  0  0  0  0  0  0  0  0
  -28.8885  -28.9336   20.7349 C   0  0  0  0  0  0  0  0  0  0  0  0
  -29.5755  -22.8051   21.5019 C   0  0  0  0  0  0  0  0  0  0  0  0
  -22.3400   -8.1360   21.4324 C   0  0  0  0  0  0  0  0  0  0  0  0
  -28.8948  -22.3130   23.7832 C   0  0  0  0  0  0  0  0  0  0  0  0
  -20.8695   -6.9529   22.8325 C   0  0  0  0  0  0  0  0  0  0  0  0
  -19.3672   -6.8452   25.1807 C   0  0  0  0  0  0  0  0  0  0  0  0
  -21.1161   -5.9527   23.7729 C   0  0  0  0  0  0  0  0  0  0  0  0
  -24.5943  -11.6415   20.7060 C   0  0  0  0  0  0  0  0  0  0  0  0
  -29.7802  -17.2553   24.8630 C   0  0  0  0  0  0  0  0  0  0  0  0
  -25.2588  -13.7276   20.5024 C   0  0  0  0  0  0  0  0  0  0  0  0
  -27.7807  -18.2043   24.9087 C   0  0  0  0  0  0  0  0  0  0  0  0
  -22.9000  -13.4851   21.2934 C   0  0  0  0  0  0  0  0  0  0  0  0
  -29.4708  -25.5212   19.4428 C   0  0  0  0  0  0  0  0  0  0  0  0
  -30.5826  -22.9452   17.8148 C   0  0  0  0  0  0  0  0  0  0  0  0
  -31.3318  -19.6157   17.8221 C   0  0  0  0  0  0  0  0  0  0  0  0
  -30.7438  -14.7427   20.6758 C   0  0  0  0  0  0  0  0  0  0  0  0
  -29.5964  -30.5997   18.9422 C   0  0  0  0  0  0  0  0  0  0  0  0
  -31.2303  -24.6482   21.0232 C   0  0  0  0  0  0  0  0  0  0  0  0
  -29.4733  -22.4852   20.0337 C   0  0  0  0  0  0  0  0  0  0  0  0
  -29.6890  -29.4066   17.9944 C   0  0  0  0  0  0  0  0  0  0  0  0
  -29.5935  -12.3876   18.2660 C   0  0  0  0  0  0  0  0  0  0  0  0
  -28.5620  -28.4165   18.2708 C   0  0  0  0  0  0  0  0  0  0  0  0
  -28.1581  -12.0891   18.7024 C   0  0  0  0  0  0  0  0  0  0  0  0
  -30.5167  -12.5936   19.4649 C   0  0  0  0  0  0  0  0  0  0  0  0
  -28.6221  -13.3084   20.8697 C   0  0  0  0  0  0  0  0  0  0  0  0
  -28.6553  -27.8582   19.6960 C   0  0  1  0  0  0  0  0  0  0  0  0
  -30.6825  -24.6466   19.5994 C   0  0  1  0  0  0  0  0  0  0  0  0
  -27.6420  -13.1484   19.6949 C   0  0  2  0  0  0  0  0  0  0  0  0
  -26.3519  -18.4869   24.6234 C   0  0  0  0  0  0  0  0  0  0  0  0
  -32.1876  -17.7859   16.3332 C   0  0  0  0  0  0  0  0  0  0  0  0
  -27.8676  -22.8057   16.4296 C   0  0  0  0  0  0  0  0  0  0  0  0
  -28.4343  -20.4768   15.7062 C   0  0  0  0  0  0  0  0  0  0  0  0
  -29.8263  -22.3956   14.9297 C   0  0  0  0  0  0  0  0  0  0  0  0
  -33.6808  -19.1425   19.5591 C   0  0  0  0  0  0  0  0  0  0  0  0
  -30.8005  -16.2877   24.4515 C   0  0  0  0  0  0  0  0  0  0  0  0
  -31.6405  -16.6952   23.2110 C   0  0  0  0  0  0  0  0  0  0  0  0
  -28.1823  -20.0817   26.5578 C   0  0  0  0  0  0  0  0  0  0  0  0
  -30.8165  -16.8781   21.9383 C   0  0  0  0  0  0  0  0  0  0  0  0
  -28.7019  -21.3871   25.9653 C   0  0  0  0  0  0  0  0  0  1  0  0
  -29.9863  -21.6429   17.3379 C   0  0  1  0  0  0  0  0  0  0  0  0
  -32.5581  -18.8581   17.3461 C   0  0  2  0  0  0  0  0  0  0  0  0
  -29.0288  -21.8373   16.1284 C   0  0  0  0  0  0  0  0  0  0  0  0
  -25.8571  -11.5503   20.2803 N   0  0  0  0  0  0  0  0  0  0  0  0
  -28.5832  -18.8796   25.7379 N   0  0  0  0  0  0  0  0  0  0  0  0
  -26.2338  -12.8353   20.1656 N   0  0  0  0  0  0  0  0  0  0  0  0
  -28.4982  -17.2131   24.3702 N   0  3  0  0  0  0  0  0  0  0  0  0
  -30.3053  -23.3082   19.1404 N   0  0  0  0  0  0  0  0  0  0  0  0
  -29.9709  -13.6115   20.3660 N   0  0  0  0  0  0  0  0  0  0  0  0
  -25.4693  -15.0598   20.4444 N   0  0  0  0  0  0  0  0  0  0  0  0
  -21.8895  -12.5722   21.6247 N   0  0  0  0  0  0  0  0  0  0  0  0
  -29.6856  -26.8450   19.7755 N   0  0  0  0  0  0  0  0  0  0  0  0
  -31.1106  -20.7519   17.0728 N   0  0  0  0  0  0  0  0  0  0  0  0
  -30.1491  -15.6614   21.5320 N   0  0  0  0  0  0  0  0  0  0  0  0
  -33.2406  -18.2018   18.4969 N   0  3  0  0  0  0  0  0  0  0  0  0
  -22.6645  -14.7150   21.3668 O   0  0  0  0  0  0  0  0  0  0  0  0
  -28.4191  -25.0315   19.0478 O   0  0  0  0  0  0  0  0  0  0  0  0
  -31.2751  -23.6121   17.0420 O   0  0  0  0  0  0  0  0  0  0  0  0
  -30.6371  -19.2354   18.7620 O   0  0  0  0  0  0  0  0  0  0  0  0
  -31.8775  -14.9234   20.2187 O   0  0  0  0  0  0  0  0  0  0  0  0
  -21.6149   -7.0082   21.6667 O   0  0  0  0  0  0  0  0  0  0  0  0
  -28.1612  -21.5722   24.6578 O   0  0  0  0  0  0  0  0  0  1  0  0
  -18.6469   -6.7945   26.3088 F   0  0  0  0  0  0  0  0  0  0  0  0
  -22.0741   -5.0415   23.5544 F   0  0  0  0  0  0  0  0  0  0  0  0
  1  2  1  0  0  0  0
  1  5  2  0  0  0  0
  2  6  2  0  0  0  0
  3  8  2  0  0  0  0
  3 16  1  0  0  0  0
  4  9  1  0  0  0  0
  4 16  2  0  0  0  0
  5 18  1  0  0  0  0
  6 20  1  0  0  0  0
  7 10  2  0  0  0  0
  7 19  1  0  0  0  0
  8 22  1  0  0  0  0
  9 22  2  0  0  0  0
 10 23  1  0  0  0  0
 11 12  2  0  0  0  0
 11 24  1  0  0  0  0
 12 25  1  0  0  0  0
 13 21  1  0  0  0  0
 13 23  2  0  0  0  0
 14 25  2  0  0  0  0
 14 26  1  0  0  0  0
 15 28  2  0  0  0  0
 15 63  1  0  0  0  0
 16 27  1  0  0  0  0
 17 27  1  0  0  0  0
 17 29  2  0  0  0  0
 17 31  1  0  0  0  0
 18 20  2  0  0  0  0
 18 36  1  0  0  0  0
 19 21  2  0  0  0  0
 19 37  1  0  0  0  0
 20 45  1  0  0  0  0
 21 38  1  0  0  0  0
 22 79  1  0  0  0  0
 23 80  1  0  0  0  0
 24 26  2  0  0  0  0
 24 79  1  0  0  0  0
 25 81  1  0  0  0  0
 26 82  1  0  0  0  0
 27 62  2  0  0  0  0
 28 54  1  0  0  0  0
 28 65  1  0  0  0  0
 29 64  1  0  0  0  0
 29 68  1  0  0  0  0
 30 48  1  0  0  0  0
 30 63  1  0  0  0  0
 30 65  2  0  0  0  0
 31 69  1  0  0  0  0
 31 74  2  0  0  0  0
 32 46  1  0  0  0  0
 32 70  1  0  0  0  0
 32 75  2  0  0  0  0
 33 59  1  0  0  0  0
 33 66  1  0  0  0  0
 33 76  2  0  0  0  0
 34 60  1  0  0  0  0
 34 71  1  0  0  0  0
 34 77  2  0  0  0  0
 35 67  1  0  0  0  0
 35 72  1  0  0  0  0
 35 78  2  0  0  0  0
 36 39  1  0  0  0  0
 37 46  1  0  0  0  0
 38 66  1  0  0  0  0
 39 41  1  0  0  0  0
 40 42  1  0  0  0  0
 40 43  1  0  0  0  0
 41 45  1  0  0  0  0
 42 47  1  0  0  0  0
 43 67  1  0  0  0  0
 44 47  1  0  0  0  0
 44 67  1  0  0  0  0
 45 70  1  0  0  0  0
 46 66  1  0  0  0  0
 47 64  1  0  0  0  0
 49 60  1  0  0  0  0
 50 61  1  0  0  0  0
 51 61  1  0  0  0  0
 52 61  1  0  0  0  0
 53 73  1  0  0  0  0
 54 55  1  0  0  0  0
 55 57  1  0  0  0  0
 56 58  1  0  0  0  0
 56 63  1  0  0  0  0
 57 72  1  0  0  0  0
 58 80  1  0  0  0  0
 59 61  1  0  0  0  0
 59 71  1  0  0  0  0
 60 73  1  0  0  0  0
 62 64  1  0  0  0  0
M  CHG  2  65   1  73   1
M  ISO  4  35 100  58 101  72 100  80 101
M  END
> <Batch ID>
0082

> <Smiles>
CNC(C)C(=O)NC(C(=O)N1Cc2cc([101O:1][101CH2:1]Cn3cc(CCC[100NH:0][100C:0](=O)N4CCCC(n5nc(-c6ccc(Oc7ccc(F)cc7F)cc6)c(C(N)=O)c5N)C4)nc3C)ccc2CC1C(=O)NC1CCCc2ccccc21)C(C)(C)C

> <Shape>
0.253

> <Color>
0.193

> <Negative vol penalty>
0.000

$$$$

  -OEChem-04052318493D

 81 89  0     1  0  0  0  0  0999 V2000
  -34.2432  -15.7143   24.8538 C   0  0  0  0  0  0  0  0  0  0  0  0
  -33.3025  -16.5816   25.3999 C   0  0  0  0  0  0  0  0  0  0  0  0
  -28.1849  -28.8372   20.8677 C   0  0  0  0  0  0  0  0  0  0  0  0
  -26.7221  -27.4473   19.5391 C   0  0  0  0  0  0  0  0  0  0  0  0
  -34.0915  -15.2572   23.5454 C   0  0  0  0  0  0  0  0  0  0  0  0
  -32.2099  -16.9931   24.6374 C   0  0  0  0  0  0  0  0  0  0  0  0
  -25.3089  -18.8001   25.2913 C   0  0  0  0  0  0  0  0  0  0  0  0
  -21.2631  -24.7419   22.3944 C   0  0  0  0  0  0  0  0  0  0  0  0
  -19.4912  -23.7034   23.6668 C   0  0  0  0  0  0  0  0  0  0  0  0
  -22.1730  -23.8170   22.9066 C   0  0  0  0  0  0  0  0  0  0  0  0
  -20.4010  -22.7785   24.1790 C   0  0  0  0  0  0  0  0  0  0  0  0
  -29.2600  -28.0058   20.5538 C   0  0  0  0  0  0  0  0  0  0  0  0
  -27.7972  -26.6159   19.2251 C   0  0  0  0  0  0  0  0  0  0  0  0
  -24.4272  -19.8254   24.9519 C   0  0  0  0  0  0  0  0  0  0  0  0
  -29.5436  -24.1326   20.7131 C   0  0  0  0  0  0  0  0  0  0  0  0
  -29.3416  -22.7547   20.7910 C   0  0  0  0  0  0  0  0  0  0  0  0
  -24.2259  -18.9084   22.7298 C   0  0  0  0  0  0  0  0  0  0  0  0
  -29.8808  -22.5430   18.4455 C   0  0  0  0  0  0  0  0  0  0  0  0
  -26.9159  -28.5579   20.3604 C   0  0  0  0  0  0  0  0  0  0  0  0
  -25.3716  -30.5513   19.9739 C   0  0  0  0  0  0  0  0  0  0  0  0
  -32.9914  -15.6557   22.7698 C   0  0  0  0  0  0  0  0  0  0  0  0
  -25.6649  -17.8259   24.3476 C   0  0  0  0  0  0  0  0  0  0  0  0
  -32.0440  -16.5419   23.3169 C   0  0  0  0  0  0  0  0  0  0  0  0
  -25.1104  -17.8704   23.0605 C   0  0  0  0  0  0  0  0  0  0  0  0
  -19.9222  -24.6851   22.7746 C   0  0  0  0  0  0  0  0  0  0  0  0
  -21.7419  -22.8353   23.7988 C   0  0  0  0  0  0  0  0  0  0  0  0
  -29.0662  -26.8952   19.7325 C   0  0  0  0  0  0  0  0  0  0  0  0
  -23.8878  -19.8813   23.6701 C   0  0  0  0  0  0  0  0  0  0  0  0
  -29.9141  -24.7158   19.5013 C   0  0  0  0  0  0  0  0  0  0  0  0
  -29.5102  -21.9599   19.6573 C   0  0  0  0  0  0  0  0  0  0  0  0
  -30.0827  -23.9209   18.3675 C   0  0  0  0  0  0  0  0  0  0  0  0
  -25.8048  -29.4160   20.6848 C   0  0  0  0  0  0  0  0  0  0  0  0
  -24.2893  -31.0093   20.6848 C   0  0  0  0  0  0  0  0  0  0  0  0
  -25.9002  -31.1391   18.7777 C   0  0  0  0  0  0  0  0  0  0  0  0
  -28.3848  -16.9224   22.9731 C   0  0  0  0  0  0  0  0  0  0  0  0
  -26.5232  -14.5744   21.7306 C   0  0  0  0  0  0  0  0  0  0  0  0
  -23.4027  -13.5159   20.8422 C   0  0  0  0  0  0  0  0  0  0  0  0
  -20.4135  -28.3362   24.3840 C   0  0  0  0  0  0  0  0  0  0  0  0
  -32.8951  -15.1725   21.3443 C   0  0  0  0  0  0  0  0  0  0  0  0
  -26.5965  -16.7113   24.7375 C   0  0  0  0  0  0  0  0  0  0  0  0
  -25.4446  -16.8371   22.0169 C   0  0  0  0  0  0  0  0  0  0  0  0
  -31.5103  -15.3599   20.7299 C   0  0  0  0  0  0  0  0  0  0  0  0
  -22.5003  -31.1254   25.1206 C   0  0  0  0  0  0  0  0  0  0  0  0
  -30.9822  -16.7610   21.0212 C   0  0  0  0  0  0  0  0  0  0  0  0
  -23.5448  -31.1060   24.0032 C   0  0  0  0  0  0  0  0  0  0  0  0
  -22.1091  -29.7137   25.5520 C   0  0  0  0  0  0  0  0  0  0  0  0
  -22.7107  -28.8122   23.3386 C   0  0  0  0  0  0  0  0  0  0  0  0
  -30.8322  -16.9914   22.5298 C   0  0  1  0  0  0  0  0  0  0  0  0
  -27.2892  -16.0655   23.5415 C   0  0  1  0  0  0  0  0  0  0  0  0
  -23.0957  -30.2125   22.8313 C   0  0  2  0  0  0  0  0  0  0  0  0
  -22.2018  -11.5656   19.8170 C   0  0  0  0  0  0  0  0  0  0  0  0
  -17.8141  -27.9270   22.4761 C   0  0  0  0  0  0  0  0  0  0  0  0
  -27.5324  -15.4054   18.9736 C   0  0  0  0  0  0  0  0  0  0  0  0
  -25.6370  -14.1154   17.9678 C   0  0  0  0  0  0  0  0  0  0  0  0
  -27.3668  -12.9345   19.3228 C   0  0  0  0  0  0  0  0  0  0  0  0
  -21.7826  -13.0830   23.2808 C   0  0  0  0  0  0  0  0  0  0  0  0
  -18.9488  -25.6736   22.2275 C   0  0  0  0  0  0  0  0  0  0  0  0
  -22.7210  -21.8396   24.3479 C   0  0  0  0  0  0  0  0  0  1  0  0
  -25.6845  -14.4217   20.4847 C   0  0  1  0  0  0  0  0  0  0  0  0
  -22.6654  -12.2165   21.1109 C   0  0  2  0  0  0  0  0  0  0  0  0
  -18.8156  -26.9509   23.0853 C   0  0  1  0  0  0  0  0  0  0  0  0
  -26.5502  -14.2400   19.2061 C   0  0  0  0  0  0  0  0  0  0  0  0
  -25.0588  -29.1681   21.7646 N   0  0  0  0  0  0  0  0  0  0  0  0
  -24.1459  -30.1540   21.7375 N   0  0  0  0  0  0  0  0  0  0  0  0
  -26.3651  -15.7707   22.4445 N   0  0  0  0  0  0  0  0  0  0  0  0
  -21.6916  -28.9188   24.3945 N   0  0  0  0  0  0  0  0  0  0  0  0
  -23.4560  -32.0561   20.5059 N   0  0  0  0  0  0  0  0  0  0  0  0
  -27.0159  -30.5413   18.1761 N   0  0  0  0  0  0  0  0  0  0  0  0
  -29.6374  -16.3412   23.0241 N   0  0  0  0  0  0  0  0  0  0  0  0
  -24.7641  -13.3200   20.7448 N   0  0  0  0  0  0  0  0  0  0  0  0
  -20.0953  -27.6045   23.2464 N   0  0  0  0  0  0  0  0  0  0  0  0
  -21.4706  -12.4661   21.9658 N   0  3  0  0  0  0  0  0  0  0  0  0
  -25.4080  -32.1738   18.2670 O   0  0  0  0  0  0  0  0  0  0  0  0
  -28.1135  -18.0284   22.5203 O   0  0  0  0  0  0  0  0  0  0  0  0
  -27.2852  -13.6628   22.0621 O   0  0  0  0  0  0  0  0  0  0  0  0
  -22.8281  -14.5962   20.7265 O   0  0  0  0  0  0  0  0  0  0  0  0
  -19.6132  -28.4635   25.3168 O   0  0  0  0  0  0  0  0  0  0  0  0
  -30.1150  -26.0838   19.4257 O   0  0  0  0  0  0  0  0  0  0  0  0
  -23.0274  -20.8813   23.3360 O   0  0  0  0  0  0  0  0  0  1  0  0
  -29.3177  -20.6364   19.7326 F   0  0  0  0  0  0  0  0  0  0  0  0
  -30.4397  -24.4753   17.2009 F   0  0  0  0  0  0  0  0  0  0  0  0
  1  2  1  0  0  0  0
  1  5  2  0  0  0  0
  2  6  2  0  0  0  0
  3 12  2  0  0  0  0
  3 19  1  0  0  0  0
  4 13  1  0  0  0  0
  4 19  2  0  0  0  0
  5 21  1  0  0  0  0
  6 23  1  0  0  0  0
  7 14  2  0  0  0  0
  7 22  1  0  0  0  0
  8 10  2  0  0  0  0
  8 25  1  0  0  0  0
  9 11  1  0  0  0  0
  9 25  2  0  0  0  0
 10 26  1  0  0  0  0
 11 26  2  0  0  0  0
 12 27  1  0  0  0  0
 13 27  2  0  0  0  0
 14 28  1  0  0  0  0
 15 16  2  0  0  0  0
 15 29  1  0  0  0  0
 16 30  1  0  0  0  0
 17 24  1  0  0  0  0
 17 28  2  0  0  0  0
 18 30  2  0  0  0  0
 18 31  1  0  0  0  0
 19 32  1  0  0  0  0
 20 32  1  0  0  0  0
 20 33  2  0  0  0  0
 20 34  1  0  0  0  0
 21 23  2  0  0  0  0
 21 39  1  0  0  0  0
 22 24  2  0  0  0  0
 22 40  1  0  0  0  0
 23 48  1  0  0  0  0
 24 41  1  0  0  0  0
 25 57  1  0  0  0  0
 26 58  1  0  0  0  0
 27 78  1  0  0  0  0
 28 79  1  0  0  0  0
 29 31  2  0  0  0  0
 29 78  1  0  0  0  0
 30 80  1  0  0  0  0
 31 81  1  0  0  0  0
 32 63  2  0  0  0  0
 33 64  1  0  0  0  0
 33 67  1  0  0  0  0
 34 68  1  0  0  0  0
 34 73  2  0  0  0  0
 35 49  1  0  0  0  0
 35 69  1  0  0  0  0
 35 74  2  0  0  0  0
 36 59  1  0  0  0  0
 36 65  1  0  0  0  0
 36 75  2  0  0  0  0
 37 60  1  0  0  0  0
 37 70  1  0  0  0  0
 37 76  2  0  0  0  0
 38 66  1  0  0  0  0
 38 71  1  0  0  0  0
 38 77  2  0  0  0  0
 39 42  1  0  0  0  0
 40 49  1  0  0  0  0
 41 65  1  0  0  0  0
 42 44  1  0  0  0  0
 43 45  1  0  0  0  0
 43 46  1  0  0  0  0
 44 48  1  0  0  0  0
 45 50  1  0  0  0  0
 46 66  1  0  0  0  0
 47 50  1  0  0  0  0
 47 66  1  0  0  0  0
 48 69  1  0  0  0  0
 49 65  1  0  0  0  0
 50 64  1  0  0  0  0
 51 60  1  0  0  0  0
 52 61  1  0  0  0  0
 53 62  1  0  0  0  0
 54 62  1  0  0  0  0
 55 62  1  0  0  0  0
 56 72  1  0  0  0  0
 57 61  1  0  0  0  0
 58 79  1  0  0  0  0
 59 62  1  0  0  0  0
 59 70  1  0  0  0  0
 60 72  1  0  0  0  0
 61 71  1  0  0  0  0
 63 64  1  0  0  0  0
M  CHG  1  72   1
M  ISO  4  38 100  58 101  71 100  79 101
M  END
> <Batch ID>
0082

> <Smiles>
CNC(C)C(=O)NC(C(=O)N1Cc2cc([101O:1][101CH2:1]c3ccc(CC(C)[100NH:0][100C:0](=O)N4CCCC(n5nc(-c6ccc(Oc7ccc(F)cc7F)cc6)c(C(N)=O)c5N)C4)cc3)ccc2CC1C(=O)NC1CCCc2ccccc21)C(C)(C)C

> <Shape>
0.256

> <Color>
0.055

> <Negative vol penalty>
0.000

$$$$

  -OEChem-04052318493D

 86 94  0     1  0  0  0  0  0999 V2000
  -19.8628  -24.7847   24.3502 C   0  0  0  0  0  0  0  0  0  0  0  0
  -21.1658  -24.9312   23.8856 C   0  0  0  0  0  0  0  0  0  0  0  0
  -28.4414  -14.5045   20.5813 C   0  0  0  0  0  0  0  0  0  0  0  0
  -26.3799  -15.7524   20.7541 C   0  0  0  0  0  0  0  0  0  0  0  0
  -18.8927  -25.7269   24.0109 C   0  0  0  0  0  0  0  0  0  0  0  0
  -21.4994  -26.0196   23.0803 C   0  0  0  0  0  0  0  0  0  0  0  0
  -26.8235  -29.0450   22.9999 C   0  0  0  0  0  0  0  0  0  0  0  0
  -27.7215  -13.3103   20.6167 C   0  0  0  0  0  0  0  0  0  0  0  0
  -25.6600  -14.5583   20.7895 C   0  0  0  0  0  0  0  0  0  0  0  0
  -27.9354  -28.9649   22.1626 C   0  0  0  0  0  0  0  0  0  0  0  0
  -26.3995   -9.9390   20.2982 C   0  0  0  0  0  0  0  0  0  0  0  0
  -26.7459   -8.9454   19.3825 C   0  0  0  0  0  0  0  0  0  0  0  0
  -27.0785  -30.8048   20.8588 C   0  0  0  0  0  0  0  0  0  0  0  0
  -26.2352  -10.4470   17.5600 C   0  0  0  0  0  0  0  0  0  0  0  0
  -28.9839  -25.7619   17.6443 C   0  0  0  0  0  0  0  0  0  0  0  0
  -27.7706  -15.7256   20.6500 C   0  0  0  0  0  0  0  0  0  0  0  0
  -28.8692  -17.7048   19.4739 C   0  0  0  0  0  0  0  0  0  0  0  0
  -19.2168  -26.8326   23.2090 C   0  0  0  0  0  0  0  0  0  0  0  0
  -25.8238  -30.0002   22.7661 C   0  0  0  0  0  0  0  0  0  0  0  0
  -20.5325  -26.9768   22.7287 C   0  0  0  0  0  0  0  0  0  0  0  0
  -25.9563  -30.8967   21.6962 C   0  0  0  0  0  0  0  0  0  0  0  0
  -26.3308  -13.3372   20.7208 C   0  0  0  0  0  0  0  0  0  0  0  0
  -28.0616  -29.8429   21.0901 C   0  0  0  0  0  0  0  0  0  0  0  0
  -25.9708  -11.1865   19.8448 C   0  0  0  0  0  0  0  0  0  0  0  0
  -26.6638   -9.1995   18.0134 C   0  0  0  0  0  0  0  0  0  0  0  0
  -25.8887  -11.4406   18.4757 C   0  0  0  0  0  0  0  0  0  0  0  0
  -28.5138  -16.9595   20.6141 C   0  0  0  0  0  0  0  0  0  0  0  0
  -28.4195  -24.5564   17.9525 C   0  0  0  0  0  0  0  0  0  0  0  0
  -29.5620  -18.7820   19.9702 C   0  0  0  0  0  0  0  0  0  0  0  0
  -30.2353  -24.7983   19.1954 C   0  0  0  0  0  0  0  0  0  0  0  0
  -28.5974  -17.4466   18.0900 C   0  0  0  0  0  0  0  0  0  0  0  0
  -22.7237  -29.8792   22.0745 C   0  0  0  0  0  0  0  0  0  0  0  0
  -22.9162  -33.0974   22.4331 C   0  0  0  0  0  0  0  0  0  0  0  0
  -24.8526  -35.9071   22.3854 C   0  0  0  0  0  0  0  0  0  0  0  0
  -30.1361  -22.9067   23.6854 C   0  0  0  0  0  0  0  0  0  0  0  0
  -18.1234  -27.7996   22.8295 C   0  0  0  0  0  0  0  0  0  0  0  0
  -24.6438  -30.0911   23.6945 C   0  0  0  0  0  0  0  0  0  0  0  0
  -24.9209  -31.9535   21.4142 C   0  0  0  0  0  0  0  0  0  0  0  0
  -18.6456  -29.1248   22.2808 C   0  0  0  0  0  0  0  0  0  0  0  0
  -31.3498  -19.6909   24.6139 C   0  0  0  0  0  0  0  0  0  0  0  0
  -19.7404  -28.8803   21.2471 C   0  0  0  0  0  0  0  0  0  0  0  0
  -30.7446  -18.7550   23.5662 C   0  0  0  0  0  0  0  0  0  0  0  0
  -30.3872  -20.8155   24.9893 C   0  0  0  0  0  0  0  0  0  0  0  0
  -29.2647  -20.6584   22.8009 C   0  0  0  0  0  0  0  0  0  0  0  0
  -20.9389  -28.1572   21.8734 C   0  0  1  0  0  0  0  0  0  0  0  0
  -23.4332  -30.7667   23.0577 C   0  0  1  0  0  0  0  0  0  0  0  0
  -30.2197  -19.5403   22.3492 C   0  0  2  0  0  0  0  0  0  0  0  0
  -24.7206  -38.3958   22.6796 C   0  0  0  0  0  0  0  0  0  0  0  0
  -27.2973  -23.6338   15.8944 C   0  0  0  0  0  0  0  0  0  0  0  0
  -25.9207  -24.7388   17.6889 C   0  0  0  0  0  0  0  0  0  0  0  0
  -26.8878  -22.4782   18.0575 C   0  0  0  0  0  0  0  0  0  0  0  0
  -21.6579  -33.3554   19.6654 C   0  0  0  0  0  0  0  0  0  0  0  0
  -22.4161  -35.7411   19.6197 C   0  0  0  0  0  0  0  0  0  0  0  0
  -20.7967  -34.9820   21.3587 C   0  0  0  0  0  0  0  0  0  0  0  0
  -26.7191  -35.8513   24.6815 C   0  0  0  0  0  0  0  0  0  0  0  0
  -31.3082  -24.5273   20.1844 C   0  0  0  0  0  0  0  0  0  0  0  0
  -31.1306  -25.2430   21.5415 C   0  0  0  0  0  0  0  0  0  0  0  0
  -30.3507  -28.4025   18.7077 C   0  0  0  0  0  0  0  0  0  0  0  0
  -31.0419  -27.0675   18.4218 C   0  0  0  0  0  0  0  0  0  0  0  0
  -29.8228  -24.9120   22.2572 C   0  0  0  0  0  0  0  0  0  0  0  0
  -29.7440  -28.4818   20.1037 C   0  0  0  0  0  0  0  0  0  1  0  0
  -23.2143  -34.2593   21.5165 C   0  0  1  0  0  0  0  0  0  0  0  0
  -24.9768  -37.0617   23.3632 C   0  0  2  0  0  0  0  0  0  0  0  0
  -27.2185  -23.8908   17.4412 C   0  0  0  0  0  0  0  0  0  0  0  0
  -22.0400  -34.5634   20.5440 C   0  0  0  0  0  0  0  0  0  0  0  0
  -28.9453  -17.5159   21.7490 N   0  0  0  0  0  0  0  0  0  0  0  0
  -30.1055  -25.8857   18.4285 N   0  0  0  0  0  0  0  0  0  0  0  0
  -29.5790  -18.6224   21.3246 N   0  0  0  0  0  0  0  0  0  0  0  0
  -29.2146  -23.9817   18.9145 N   0  3  0  0  0  0  0  0  0  0  0  0
  -23.7823  -31.9982   22.3465 N   0  0  0  0  0  0  0  0  0  0  0  0
  -29.9280  -21.5216   23.7907 N   0  0  0  0  0  0  0  0  0  0  0  0
  -30.1522  -19.8407   19.3757 N   0  0  0  0  0  0  0  0  0  0  0  0
  -27.8728  -16.2946   17.7551 N   0  0  0  0  0  0  0  0  0  0  0  0
  -21.7446  -29.0841   22.6391 N   0  0  0  0  0  0  0  0  0  0  0  0
  -23.5798  -35.3770   22.3800 N   0  0  0  0  0  0  0  0  0  0  0  0
  -29.6761  -23.4967   22.5145 N   0  0  0  0  0  0  0  0  0  0  0  0
  -26.3432  -37.0927   23.9572 N   0  3  0  0  0  0  0  0  0  0  0  0
  -28.9998  -18.2062   17.1764 O   0  0  0  0  0  0  0  0  0  0  0  0
  -23.0399  -29.9144   20.8911 O   0  0  0  0  0  0  0  0  0  0  0  0
  -21.9546  -33.1656   23.2028 O   0  0  0  0  0  0  0  0  0  0  0  0
  -25.7900  -35.5172   21.6927 O   0  0  0  0  0  0  0  0  0  0  0  0
  -30.6954  -23.5676   24.5670 O   0  0  0  0  0  0  0  0  0  0  0  0
  -25.6279  -12.1721   20.7551 O   0  0  0  0  0  0  0  0  0  0  0  0
  -29.1455  -29.7665   20.2709 O   0  0  0  0  0  0  0  0  0  1  0  0
  -26.9981   -8.2458   17.1342 F   0  0  0  0  0  0  0  0  0  0  0  0
  -25.4787  -12.6375   18.0341 F   0  0  0  0  0  0  0  0  0  0  0  0
  1  2  1  0  0  0  0
  1  5  2  0  0  0  0
  2  6  2  0  0  0  0
  3  8  2  0  0  0  0
  3 16  1  0  0  0  0
  4  9  1  0  0  0  0
  4 16  2  0  0  0  0
  5 18  1  0  0  0  0
  6 20  1  0  0  0  0
  7 10  2  0  0  0  0
  7 19  1  0  0  0  0
  8 22  1  0  0  0  0
  9 22  2  0  0  0  0
 10 23  1  0  0  0  0
 11 12  2  0  0  0  0
 11 24  1  0  0  0  0
 12 25  1  0  0  0  0
 13 21  1  0  0  0  0
 13 23  2  0  0  0  0
 14 25  2  0  0  0  0
 14 26  1  0  0  0  0
 15 28  2  0  0  0  0
 15 67  1  0  0  0  0
 16 27  1  0  0  0  0
 17 27  1  0  0  0  0
 17 29  2  0  0  0  0
 17 31  1  0  0  0  0
 18 20  2  0  0  0  0
 18 36  1  0  0  0  0
 19 21  2  0  0  0  0
 19 37  1  0  0  0  0
 20 45  1  0  0  0  0
 21 38  1  0  0  0  0
 22 83  1  0  0  0  0
 23 84  1  0  0  0  0
 24 26  2  0  0  0  0
 24 83  1  0  0  0  0
 25 85  1  0  0  0  0
 26 86  1  0  0  0  0
 27 66  2  0  0  0  0
 28 64  1  0  0  0  0
 28 69  1  0  0  0  0
 29 68  1  0  0  0  0
 29 72  1  0  0  0  0
 30 56  1  0  0  0  0
 30 67  1  0  0  0  0
 30 69  2  0  0  0  0
 31 73  1  0  0  0  0
 31 78  2  0  0  0  0
 32 46  1  0  0  0  0
 32 74  1  0  0  0  0
 32 79  2  0  0  0  0
 33 62  1  0  0  0  0
 33 70  1  0  0  0  0
 33 80  2  0  0  0  0
 34 63  1  0  0  0  0
 34 75  1  0  0  0  0
 34 81  2  0  0  0  0
 35 71  1  0  0  0  0
 35 76  1  0  0  0  0
 35 82  2  0  0  0  0
 36 39  1  0  0  0  0
 37 46  1  0  0  0  0
 38 70  1  0  0  0  0
 39 41  1  0  0  0  0
 40 42  1  0  0  0  0
 40 43  1  0  0  0  0
 41 45  1  0  0  0  0
 42 47  1  0  0  0  0
 43 71  1  0  0  0  0
 44 47  1  0  0  0  0
 44 71  1  0  0  0  0
 45 74  1  0  0  0  0
 46 70  1  0  0  0  0
 47 68  1  0  0  0  0
 48 63  1  0  0  0  0
 49 64  1  0  0  0  0
 50 64  1  0  0  0  0
 51 64  1  0  0  0  0
 52 65  1  0  0  0  0
 53 65  1  0  0  0  0
 54 65  1  0  0  0  0
 55 77  1  0  0  0  0
 56 57  1  0  0  0  0
 57 60  1  0  0  0  0
 58 59  1  0  0  0  0
 58 61  1  0  0  0  0
 59 67  1  0  0  0  0
 60 76  1  0  0  0  0
 61 84  1  0  0  0  0
 62 65  1  0  0  0  0
 62 75  1  0  0  0  0
 63 77  1  0  0  0  0
 66 68  1  0  0  0  0
M  CHG  2  69   1  77   1
M  ISO  4  35 100  61 101  76 100  84 101
M  END
> <Batch ID>
0082

> <Smiles>
CNC(C)C(=O)NC(C(=O)N1Cc2cc([101O:1][101CH2:1]CCn3cc(C(C)(C)C)nc3CCC[100NH:0][100C:0](=O)N3CCCC(n4nc(-c5ccc(Oc6ccc(F)cc6F)cc5)c(C(N)=O)c4N)C3)ccc2CC1C(=O)NC1CCCc2ccccc21)C(C)(C)C

> <Shape>
0.268

> <Color>
0.090

> <Negative vol penalty>
0.000

$$$$

  -OEChem-04052318493D

 89 97  0     1  0  0  0  0  0999 V2000
  -25.9424  -28.3798   21.9297 C   0  0  0  0  0  0  0  0  0  0  0  0
  -27.1765  -27.7695   22.1295 C   0  0  0  0  0  0  0  0  0  0  0  0
  -23.1235   -9.8169   20.0402 C   0  0  0  0  0  0  0  0  0  0  0  0
  -23.8241   -9.9963   22.3454 C   0  0  0  0  0  0  0  0  0  0  0  0
  -24.9973  -27.7824   21.0967 C   0  0  0  0  0  0  0  0  0  0  0  0
  -27.4659  -26.5608   21.4972 C   0  0  0  0  0  0  0  0  0  0  0  0
  -32.1022  -26.4946   19.4614 C   0  0  0  0  0  0  0  0  0  0  0  0
  -22.3883   -8.6735   20.3526 C   0  0  0  0  0  0  0  0  0  0  0  0
  -23.0888   -8.8529   22.6578 C   0  0  0  0  0  0  0  0  0  0  0  0
  -33.1752  -26.2899   20.3278 C   0  0  0  0  0  0  0  0  0  0  0  0
  -19.8567   -8.0525   23.2353 C   0  0  0  0  0  0  0  0  0  0  0  0
  -19.0705   -8.0841   24.3870 C   0  0  0  0  0  0  0  0  0  0  0  0
  -33.2558  -23.9703   19.6702 C   0  0  0  0  0  0  0  0  0  0  0  0
  -20.3173   -6.2215   25.2890 C   0  0  0  0  0  0  0  0  0  0  0  0
  -32.5509  -20.9800   25.2099 C   0  0  0  0  0  0  0  0  0  0  0  0
  -23.8415  -10.4783   21.0366 C   0  0  0  0  0  0  0  0  0  0  0  0
  -24.1539  -12.9935   20.7468 C   0  0  0  0  0  0  0  0  0  0  0  0
  -25.2789  -26.5707   20.4462 C   0  0  0  0  0  0  0  0  0  0  0  0
  -31.5901  -25.4344   18.6997 C   0  0  0  0  0  0  0  0  0  0  0  0
  -26.5232  -25.9460   20.6557 C   0  0  0  0  0  0  0  0  0  0  0  0
  -32.1779  -24.1648   18.7930 C   0  0  0  0  0  0  0  0  0  0  0  0
  -33.5835  -21.8884   25.2869 C   0  0  0  0  0  0  0  0  0  0  0  0
  -34.4917  -21.5861   24.2425 C   0  0  0  0  0  0  0  0  0  0  0  0
  -22.3709   -8.1915   21.6614 C   0  0  0  0  0  0  0  0  0  0  0  0
  -33.7503  -25.0269   20.4345 C   0  0  0  0  0  0  0  0  0  0  0  0
  -20.8732   -7.1054   23.1104 C   0  0  0  0  0  0  0  0  0  0  0  0
  -19.3008   -7.1686   25.4139 C   0  0  0  0  0  0  0  0  0  0  0  0
  -21.1035   -6.1900   24.1373 C   0  0  0  0  0  0  0  0  0  0  0  0
  -24.6016  -11.6592   20.7144 C   0  0  0  0  0  0  0  0  0  0  0  0
  -33.9864  -20.5022   23.5589 C   0  0  0  0  0  0  0  0  0  0  0  0
  -25.2454  -13.7314   20.3585 C   0  0  0  0  0  0  0  0  0  0  0  0
  -22.8666  -13.5189   21.0967 C   0  0  0  0  0  0  0  0  0  0  0  0
  -28.7854  -23.9490   18.5233 C   0  0  0  0  0  0  0  0  0  0  0  0
  -30.1894  -22.4253   16.0274 C   0  0  0  0  0  0  0  0  0  0  0  0
  -33.0684  -21.4193   14.4957 C   0  0  0  0  0  0  0  0  0  0  0  0
  -30.7090  -14.8410   20.6099 C   0  0  0  0  0  0  0  0  0  0  0  0
  -24.2079  -25.9392   19.5924 C   0  0  0  0  0  0  0  0  0  0  0  0
  -30.4495  -25.6778   17.7499 C   0  0  0  0  0  0  0  0  0  0  0  0
  -31.6784  -22.9981   17.9820 C   0  0  0  0  0  0  0  0  0  0  0  0
  -24.7340  -24.8478   18.6638 C   0  0  0  0  0  0  0  0  0  0  0  0
  -29.6637  -12.2781   18.3703 C   0  0  0  0  0  0  0  0  0  0  0  0
  -25.6595  -23.9018   19.4224 C   0  0  0  0  0  0  0  0  0  0  0  0
  -28.2195  -11.9947   18.7872 C   0  0  0  0  0  0  0  0  0  0  0  0
  -30.5468  -12.5962   19.5748 C   0  0  0  0  0  0  0  0  0  0  0  0
  -28.6008  -13.3952   20.8589 C   0  0  0  0  0  0  0  0  0  0  0  0
  -26.8836  -24.6472   19.9677 C   0  0  1  0  0  0  0  0  0  0  0  0
  -29.6778  -24.4078   17.4049 C   0  0  1  0  0  0  0  0  0  0  0  0
  -27.6595  -13.1241   19.6728 C   0  0  2  0  0  0  0  0  0  0  0  0
  -33.7099  -22.9733   26.2805 C   0  0  0  0  0  0  0  0  0  0  0  0
  -34.5244  -19.7774   22.3882 C   0  0  0  0  0  0  0  0  0  0  0  0
  -33.8958  -20.1594   12.4893 C   0  0  0  0  0  0  0  0  0  0  0  0
  -29.4369  -19.7925   17.3734 C   0  0  0  0  0  0  0  0  0  0  0  0
  -31.0729  -18.6372   15.8710 C   0  0  0  0  0  0  0  0  0  0  0  0
  -29.1102  -19.8274   14.8942 C   0  0  0  0  0  0  0  0  0  0  0  0
  -31.0676  -20.1443   21.6200 C   0  0  0  0  0  0  0  0  0  0  0  0
  -29.7825  -20.3742   23.7344 C   0  0  0  0  0  0  0  0  0  0  0  0
  -28.5447  -18.3477   21.7588 C   0  0  0  0  0  0  0  0  0  0  0  0
  -29.4013  -17.2929   23.8415 C   0  0  0  0  0  0  0  0  0  0  0  0
  -34.5060  -23.7883   13.4563 C   0  0  0  0  0  0  0  0  0  0  0  0
  -35.7753  -22.3146   23.9339 C   0  0  0  0  0  0  0  0  0  0  0  0
  -35.5675  -23.6570   23.2294 C   0  0  0  0  0  0  0  0  0  0  0  0
  -31.9492  -19.0502   23.7499 C   0  0  0  0  0  0  0  0  0  0  0  0
  -30.7155  -17.0739   21.6929 C   0  0  0  0  0  0  0  0  0  0  0  0
  -34.9271  -23.5237   21.8526 C   0  0  0  0  0  0  0  0  0  1  0  0
  -31.0165  -21.1726   15.8680 C   0  0  1  0  0  0  0  0  0  0  0  0
  -33.5319  -21.5238   13.0539 C   0  0  2  0  0  0  0  0  0  0  0  0
  -30.1675  -19.8787   16.0185 C   0  0  0  0  0  0  0  0  0  0  0  0
  -30.6603  -19.3931   22.9137 C   0  0  0  0  0  0  0  0  0  0  0  0
  -29.8416  -18.0395   22.5550 C   0  0  0  0  0  0  0  0  0  0  0  0
  -25.8779  -11.5526   20.3353 N   0  0  0  0  0  0  0  0  0  0  0  0
  -32.8063  -20.1425   24.1556 N   0  0  0  0  0  0  0  0  0  0  0  0
  -26.2416  -12.8293   20.1259 N   0  0  0  0  0  0  0  0  0  0  0  0
  -30.5570  -23.2851   17.0722 N   0  0  0  0  0  0  0  0  0  0  0  0
  -29.9605  -13.6764   20.3720 N   0  0  0  0  0  0  0  0  0  0  0  0
  -25.4405  -15.0573   20.1968 N   0  0  0  0  0  0  0  0  0  0  0  0
  -21.8581  -12.6211   21.4722 N   0  0  0  0  0  0  0  0  0  0  0  0
  -27.8439  -24.8832   18.9110 N   0  0  0  0  0  0  0  0  0  0  0  0
  -31.6981  -21.2940   14.5838 N   0  0  0  0  0  0  0  0  0  0  0  0
  -30.0766  -15.8179   21.3691 N   0  0  0  0  0  0  0  0  0  0  0  0
  -34.7285  -22.4068   12.9571 N   0  3  0  0  0  0  0  0  0  0  0  0
  -22.6133  -14.7470   21.0610 O   0  0  0  0  0  0  0  0  0  0  0  0
  -28.9387  -22.8298   18.9982 O   0  0  0  0  0  0  0  0  0  0  0  0
  -29.2562  -22.6370   15.2490 O   0  0  0  0  0  0  0  0  0  0  0  0
  -33.8447  -21.4425   15.4482 O   0  0  0  0  0  0  0  0  0  0  0  0
  -31.8539  -15.0006   20.1732 O   0  0  0  0  0  0  0  0  0  0  0  0
  -21.6534   -7.0759   21.9666 O   0  0  0  0  0  0  0  0  0  0  0  0
  -34.7972  -24.8242   21.2799 O   0  0  0  0  0  0  0  0  0  1  0  0
  -18.5467   -7.2000   26.5205 F   0  0  0  0  0  0  0  0  0  0  0  0
  -22.0793   -5.2786   24.0235 F   0  0  0  0  0  0  0  0  0  0  0  0
  1  2  1  0  0  0  0
  1  5  2  0  0  0  0
  2  6  2  0  0  0  0
  3  8  2  0  0  0  0
  3 16  1  0  0  0  0
  4  9  1  0  0  0  0
  4 16  2  0  0  0  0
  5 18  1  0  0  0  0
  6 20  1  0  0  0  0
  7 10  2  0  0  0  0
  7 19  1  0  0  0  0
  8 24  1  0  0  0  0
  9 24  2  0  0  0  0
 10 25  1  0  0  0  0
 11 12  2  0  0  0  0
 11 26  1  0  0  0  0
 12 27  1  0  0  0  0
 13 21  1  0  0  0  0
 13 25  2  0  0  0  0
 14 27  2  0  0  0  0
 14 28  1  0  0  0  0
 15 22  2  0  0  0  0
 15 71  1  0  0  0  0
 16 29  1  0  0  0  0
 17 29  1  0  0  0  0
 17 31  2  0  0  0  0
 17 32  1  0  0  0  0
 18 20  2  0  0  0  0
 18 37  1  0  0  0  0
 19 21  2  0  0  0  0
 19 38  1  0  0  0  0
 20 46  1  0  0  0  0
 21 39  1  0  0  0  0
 22 23  1  0  0  0  0
 22 49  1  0  0  0  0
 23 30  2  0  0  0  0
 23 60  1  0  0  0  0
 24 86  1  0  0  0  0
 25 87  1  0  0  0  0
 26 28  2  0  0  0  0
 26 86  1  0  0  0  0
 27 88  1  0  0  0  0
 28 89  1  0  0  0  0
 29 70  2  0  0  0  0
 30 50  1  0  0  0  0
 30 71  1  0  0  0  0
 31 72  1  0  0  0  0
 31 75  1  0  0  0  0
 32 76  1  0  0  0  0
 32 81  2  0  0  0  0
 33 47  1  0  0  0  0
 33 77  1  0  0  0  0
 33 82  2  0  0  0  0
 34 65  1  0  0  0  0
 34 73  1  0  0  0  0
 34 83  2  0  0  0  0
 35 66  1  0  0  0  0
 35 78  1  0  0  0  0
 35 84  2  0  0  0  0
 36 74  1  0  0  0  0
 36 79  1  0  0  0  0
 36 85  2  0  0  0  0
 37 40  1  0  0  0  0
 38 47  1  0  0  0  0
 39 73  1  0  0  0  0
 40 42  1  0  0  0  0
 41 43  1  0  0  0  0
 41 44  1  0  0  0  0
 42 46  1  0  0  0  0
 43 48  1  0  0  0  0
 44 74  1  0  0  0  0
 45 48  1  0  0  0  0
 45 74  1  0  0  0  0
 46 77  1  0  0  0  0
 47 73  1  0  0  0  0
 48 72  1  0  0  0  0
 51 66  1  0  0  0  0
 52 67  1  0  0  0  0
 53 67  1  0  0  0  0
 54 67  1  0  0  0  0
 55 68  1  0  0  0  0
 56 68  1  0  0  0  0
 57 69  1  0  0  0  0
 58 69  1  0  0  0  0
 59 80  1  0  0  0  0
 60 61  1  0  0  0  0
 61 64  1  0  0  0  0
 62 68  1  0  0  0  0
 62 71  1  0  0  0  0
 63 69  1  0  0  0  0
 63 79  1  0  0  0  0
 64 87  1  0  0  0  0
 65 67  1  0  0  0  0
 65 78  1  0  0  0  0
 66 80  1  0  0  0  0
 68 69  1  0  0  0  0
 70 72  1  0  0  0  0
M  CHG  1  80   1
M  ISO  4  36 100  64 101  79 100  87 101
M  END
> <Batch ID>
0082

> <Smiles>
CNC(C)C(=O)NC(C(=O)N1Cc2cc([101O:1][101CH2:1]CCc3c(C)cn(CC(C)(C)C(C)(C)C[100NH:0][100C:0](=O)N4CCCC(n5nc(-c6ccc(Oc7ccc(F)cc7F)cc6)c(C(N)=O)c5N)C4)c3C)ccc2CC1C(=O)NC1CCCc2ccccc21)C(C)(C)C

> <Shape>
0.240

> <Color>
0.213

> <Negative vol penalty>
0.000

$$$$

  -OEChem-04052318493D

 82 90  0     1  0  0  0  0  0999 V2000
  -17.8732  -28.0858   23.0526 C   0  0  0  0  0  0  0  0  0  0  0  0
  -19.1840  -28.5424   23.1460 C   0  0  0  0  0  0  0  0  0  0  0  0
  -27.3299  -17.6566   19.9257 C   0  0  0  0  0  0  0  0  0  0  0  0
  -29.2764  -17.2682   21.3031 C   0  0  0  0  0  0  0  0  0  0  0  0
  -17.6164  -26.7991   22.5811 C   0  0  0  0  0  0  0  0  0  0  0  0
  -20.2389  -27.7121   22.7688 C   0  0  0  0  0  0  0  0  0  0  0  0
  -25.4957  -29.4091   20.1245 C   0  0  0  0  0  0  0  0  0  0  0  0
  -27.1165  -16.2809   19.8393 C   0  0  0  0  0  0  0  0  0  0  0  0
  -29.0630  -15.8925   21.2168 C   0  0  0  0  0  0  0  0  0  0  0  0
  -26.7710  -29.6427   20.6372 C   0  0  0  0  0  0  0  0  0  0  0  0
  -25.8132  -13.8359   21.7774 C   0  0  0  0  0  0  0  0  0  0  0  0
  -24.5110  -13.3694   21.9569 C   0  0  0  0  0  0  0  0  0  0  0  0
  -27.4127  -27.3928   20.0497 C   0  0  0  0  0  0  0  0  0  0  0  0
  -24.5459  -12.4175   19.7366 C   0  0  0  0  0  0  0  0  0  0  0  0
  -32.6291  -25.4741   24.0083 C   0  0  0  0  0  0  0  0  0  0  0  0
  -28.4099  -18.1503   20.6575 C   0  0  0  0  0  0  0  0  0  0  0  0
  -28.1196  -20.4520   21.7183 C   0  0  0  0  0  0  0  0  0  0  0  0
  -18.6682  -25.9560   22.1889 C   0  0  0  0  0  0  0  0  0  0  0  0
  -25.1655  -28.1599   19.5795 C   0  0  0  0  0  0  0  0  0  0  0  0
  -19.9960  -26.4124   22.2929 C   0  0  0  0  0  0  0  0  0  0  0  0
  -26.1334  -27.1467   19.5284 C   0  0  0  0  0  0  0  0  0  0  0  0
  -27.9830  -15.3988   20.4849 C   0  0  0  0  0  0  0  0  0  0  0  0
  -27.7288  -28.6335   20.6025 C   0  0  0  0  0  0  0  0  0  0  0  0
  -26.4818  -13.5933   20.5774 C   0  0  0  0  0  0  0  0  0  0  0  0
  -23.8774  -12.6602   20.9366 C   0  0  0  0  0  0  0  0  0  0  0  0
  -25.8481  -12.8840   19.5571 C   0  0  0  0  0  0  0  0  0  0  0  0
  -28.6312  -19.5713   20.7466 C   0  0  0  0  0  0  0  0  0  0  0  0
  -32.8437  -26.4515   23.0779 C   0  0  0  0  0  0  0  0  0  0  0  0
  -28.6174  -21.6819   21.3632 C   0  0  0  0  0  0  0  0  0  0  0  0
  -32.3501  -27.4339   24.9993 C   0  0  0  0  0  0  0  0  0  0  0  0
  -27.2703  -20.1825   22.8417 C   0  0  0  0  0  0  0  0  0  0  0  0
  -23.0553  -25.8907   20.2876 C   0  0  0  0  0  0  0  0  0  0  0  0
  -24.1365  -24.5687   17.5297 C   0  0  0  0  0  0  0  0  0  0  0  0
  -26.6507  -24.2963   15.2382 C   0  0  0  0  0  0  0  0  0  0  0  0
  -32.8329  -24.9197   19.6629 C   0  0  0  0  0  0  0  0  0  0  0  0
  -18.3440  -24.5563   21.7300 C   0  0  0  0  0  0  0  0  0  0  0  0
  -23.7936  -27.9325   19.0062 C   0  0  0  0  0  0  0  0  0  0  0  0
  -25.8354  -25.7946   18.9354 C   0  0  0  0  0  0  0  0  0  0  0  0
  -19.4960  -23.8734   20.9974 C   0  0  0  0  0  0  0  0  0  0  0  0
  -30.9943  -23.1820   17.1576 C   0  0  0  0  0  0  0  0  0  0  0  0
  -20.8025  -24.0645   21.7613 C   0  0  0  0  0  0  0  0  0  0  0  0
  -30.1787  -22.1569   17.9474 C   0  0  0  0  0  0  0  0  0  0  0  0
  -32.3788  -23.3918   17.7667 C   0  0  0  0  0  0  0  0  0  0  0  0
  -31.5633  -22.7113   19.9905 C   0  0  0  0  0  0  0  0  0  0  0  0
  -21.1657  -25.5503   21.8701 C   0  0  1  0  0  0  0  0  0  0  0  0
  -23.4099  -26.4574   18.9419 C   0  0  1  0  0  0  0  0  0  0  0  0
  -30.1387  -22.5073   19.4471 C   0  0  2  0  0  0  0  0  0  0  0  0
  -32.0750  -28.4572   26.0383 C   0  0  0  0  0  0  0  0  0  0  0  0
  -27.2582  -23.1100   13.1119 C   0  0  0  0  0  0  0  0  0  0  0  0
  -24.6726  -22.0147   19.1108 C   0  0  0  0  0  0  0  0  0  0  0  0
  -26.1168  -21.2313   17.2216 C   0  0  0  0  0  0  0  0  0  0  0  0
  -23.6871  -21.6493   16.8415 C   0  0  0  0  0  0  0  0  0  0  0  0
  -26.9044  -26.8436   13.7529 C   0  0  0  0  0  0  0  0  0  0  0  0
  -33.1983  -26.3514   21.6569 C   0  0  0  0  0  0  0  0  0  0  0  0
  -31.5807  -29.4336   22.2516 C   0  0  0  0  0  0  0  0  0  0  0  0
  -30.2737  -29.4038   23.0455 C   0  0  0  0  0  0  0  0  0  0  0  0
  -32.7980  -29.0153   23.0840 C   0  0  0  0  0  0  0  0  0  0  0  0
  -29.0835  -29.7906   22.1780 C   0  0  0  0  0  0  0  0  0  1  0  0
  -25.2467  -23.6126   17.1657 C   0  0  1  0  0  0  0  0  0  0  0  0
  -26.6425  -24.3598   13.7215 C   0  0  2  0  0  0  0  0  0  0  0  0
  -24.9361  -22.1517   17.5979 C   0  0  0  0  0  0  0  0  0  0  0  0
  -29.3953  -20.1891   19.8419 N   0  0  0  0  0  0  0  0  0  0  0  0
  -32.6639  -27.6538   23.7184 N   0  0  0  0  0  0  0  0  0  0  0  0
  -29.3674  -21.4713   20.2437 N   0  0  0  0  0  0  0  0  0  0  0  0
  -32.3258  -26.1105   25.1877 N   0  3  0  0  0  0  0  0  0  0  0  0
  -24.4779  -25.6190   18.3935 N   0  0  0  0  0  0  0  0  0  0  0  0
  -32.2706  -23.7227   19.1896 N   0  0  0  0  0  0  0  0  0  0  0  0
  -28.4822  -22.9121   21.9023 N   0  0  0  0  0  0  0  0  0  0  0  0
  -26.8510  -18.8633   23.0609 N   0  0  0  0  0  0  0  0  0  0  0  0
  -21.7216  -26.0274   20.6219 N   0  0  0  0  0  0  0  0  0  0  0  0
  -25.4737  -23.7768   15.7340 N   0  0  0  0  0  0  0  0  0  0  0  0
  -32.6799  -25.1597   21.0230 N   0  0  0  0  0  0  0  0  0  0  0  0
  -27.4153  -25.5431   13.2484 N   0  3  0  0  0  0  0  0  0  0  0  0
  -26.8812  -21.0875   23.6182 O   0  0  0  0  0  0  0  0  0  0  0  0
  -23.9270  -25.3667   20.9712 O   0  0  0  0  0  0  0  0  0  0  0  0
  -23.0096  -24.3942   17.0591 O   0  0  0  0  0  0  0  0  0  0  0  0
  -27.6072  -24.6669   15.9152 O   0  0  0  0  0  0  0  0  0  0  0  0
  -33.4227  -25.7182   18.9269 O   0  0  0  0  0  0  0  0  0  0  0  0
  -27.7749  -14.0564   20.4010 O   0  0  0  0  0  0  0  0  0  0  0  0
  -28.9742  -28.8587   21.1029 O   0  0  0  0  0  0  0  0  0  1  0  0
  -22.6274  -12.2109   21.1097 F   0  0  0  0  0  0  0  0  0  0  0  0
  -26.4858  -12.6468   18.4025 F   0  0  0  0  0  0  0  0  0  0  0  0
  1  2  1  0  0  0  0
  1  5  2  0  0  0  0
  2  6  2  0  0  0  0
  3  8  2  0  0  0  0
  3 16  1  0  0  0  0
  4  9  1  0  0  0  0
  4 16  2  0  0  0  0
  5 18  1  0  0  0  0
  6 20  1  0  0  0  0
  7 10  2  0  0  0  0
  7 19  1  0  0  0  0
  8 22  1  0  0  0  0
  9 22  2  0  0  0  0
 10 23  1  0  0  0  0
 11 12  2  0  0  0  0
 11 24  1  0  0  0  0
 12 25  1  0  0  0  0
 13 21  1  0  0  0  0
 13 23  2  0  0  0  0
 14 25  2  0  0  0  0
 14 26  1  0  0  0  0
 15 28  2  0  0  0  0
 15 65  1  0  0  0  0
 16 27  1  0  0  0  0
 17 27  1  0  0  0  0
 17 29  2  0  0  0  0
 17 31  1  0  0  0  0
 18 20  2  0  0  0  0
 18 36  1  0  0  0  0
 19 21  2  0  0  0  0
 19 37  1  0  0  0  0
 20 45  1  0  0  0  0
 21 38  1  0  0  0  0
 22 79  1  0  0  0  0
 23 80  1  0  0  0  0
 24 26  2  0  0  0  0
 24 79  1  0  0  0  0
 25 81  1  0  0  0  0
 26 82  1  0  0  0  0
 27 62  2  0  0  0  0
 28 54  1  0  0  0  0
 28 63  1  0  0  0  0
 29 64  1  0  0  0  0
 29 68  1  0  0  0  0
 30 48  1  0  0  0  0
 30 63  1  0  0  0  0
 30 65  2  0  0  0  0
 31 69  1  0  0  0  0
 31 74  2  0  0  0  0
 32 46  1  0  0  0  0
 32 70  1  0  0  0  0
 32 75  2  0  0  0  0
 33 59  1  0  0  0  0
 33 66  1  0  0  0  0
 33 76  2  0  0  0  0
 34 60  1  0  0  0  0
 34 71  1  0  0  0  0
 34 77  2  0  0  0  0
 35 67  1  0  0  0  0
 35 72  1  0  0  0  0
 35 78  2  0  0  0  0
 36 39  1  0  0  0  0
 37 46  1  0  0  0  0
 38 66  1  0  0  0  0
 39 41  1  0  0  0  0
 40 42  1  0  0  0  0
 40 43  1  0  0  0  0
 41 45  1  0  0  0  0
 42 47  1  0  0  0  0
 43 67  1  0  0  0  0
 44 47  1  0  0  0  0
 44 67  1  0  0  0  0
 45 70  1  0  0  0  0
 46 66  1  0  0  0  0
 47 64  1  0  0  0  0
 49 60  1  0  0  0  0
 50 61  1  0  0  0  0
 51 61  1  0  0  0  0
 52 61  1  0  0  0  0
 53 73  1  0  0  0  0
 54 72  1  0  0  0  0
 55 56  1  0  0  0  0
 55 57  1  0  0  0  0
 56 58  1  0  0  0  0
 57 63  1  0  0  0  0
 58 80  1  0  0  0  0
 59 61  1  0  0  0  0
 59 71  1  0  0  0  0
 60 73  1  0  0  0  0
 62 64  1  0  0  0  0
M  CHG  2  65   1  73   1
M  ISO  4  35 100  58 101  72 100  80 101
M  END
> <Batch ID>
0082

> <Smiles>
CNC(C)C(=O)NC(C(=O)N1Cc2cc([101O:1][101CH2:1]CCCn3c(C[100NH:0][100C:0](=O)N4CCCC(n5nc(-c6ccc(Oc7ccc(F)cc7F)cc6)c(C(N)=O)c5N)C4)cnc3C)ccc2CC1C(=O)NC1CCCc2ccccc21)C(C)(C)C

> <Shape>
0.208

> <Color>
0.062

> <Negative vol penalty>
0.000

$$$$

  -OEChem-04052318493D

 88 96  0     1  0  0  0  0  0999 V2000
  -18.3241  -27.4615   18.8876 C   0  0  0  0  0  0  0  0  0  0  0  0
  -19.5197  -28.1681   18.8057 C   0  0  0  0  0  0  0  0  0  0  0  0
  -25.7542  -14.4462   21.2668 C   0  0  0  0  0  0  0  0  0  0  0  0
  -25.5561  -14.8234   18.8887 C   0  0  0  0  0  0  0  0  0  0  0  0
  -17.8875  -26.9727   20.1181 C   0  0  0  0  0  0  0  0  0  0  0  0
  -20.2789  -28.3872   19.9546 C   0  0  0  0  0  0  0  0  0  0  0  0
  -25.2146  -27.5294   19.2147 C   0  0  0  0  0  0  0  0  0  0  0  0
  -24.7058  -13.5281   21.2085 C   0  0  0  0  0  0  0  0  0  0  0  0
  -24.5077  -13.9052   18.8304 C   0  0  0  0  0  0  0  0  0  0  0  0
  -25.9410  -28.5196   18.5546 C   0  0  0  0  0  0  0  0  0  0  0  0
  -24.2643  -10.3071   20.2793 C   0  0  0  0  0  0  0  0  0  0  0  0
  -24.4211   -9.1001   20.9605 C   0  0  0  0  0  0  0  0  0  0  0  0
  -26.7747  -29.3128   20.6747 C   0  0  0  0  0  0  0  0  0  0  0  0
  -31.1825  -29.5497   17.6732 C   0  0  0  0  0  0  0  0  0  0  0  0
  -22.4783   -9.6062   22.3046 C   0  0  0  0  0  0  0  0  0  0  0  0
  -30.4420  -31.2606   19.1500 C   0  0  0  0  0  0  0  0  0  0  0  0
  -26.1793  -15.0940   20.1069 C   0  0  0  0  0  0  0  0  0  0  0  0
  -28.6353  -15.7768   20.0097 C   0  0  0  0  0  0  0  0  0  0  0  0
  -18.6465  -27.1776   21.2811 C   0  0  0  0  0  0  0  0  0  0  0  0
  -25.2543  -27.4302   20.6129 C   0  0  0  0  0  0  0  0  0  0  0  0
  -19.8513  -27.9018   21.2021 C   0  0  0  0  0  0  0  0  0  0  0  0
  -26.0500  -28.3189   21.3499 C   0  0  0  0  0  0  0  0  0  0  0  0
  -30.2750  -30.5618   17.9653 C   0  0  0  0  0  0  0  0  0  0  0  0
  -32.2148  -29.2713   18.5622 C   0  0  0  0  0  0  0  0  0  0  0  0
  -24.0826  -13.2575   19.9903 C   0  0  0  0  0  0  0  0  0  0  0  0
  -26.7189  -29.4133   19.2848 C   0  0  0  0  0  0  0  0  0  0  0  0
  -23.2145  -11.1638   20.6108 C   0  0  0  0  0  0  0  0  0  0  0  0
  -23.5281   -8.7496   21.9731 C   0  0  0  0  0  0  0  0  0  0  0  0
  -22.3215  -10.8133   21.6234 C   0  0  0  0  0  0  0  0  0  0  0  0
  -27.2619  -16.0430   20.1665 C   0  0  0  0  0  0  0  0  0  0  0  0
  -32.2951  -30.0280   19.7201 C   0  0  0  0  0  0  0  0  0  0  0  0
  -29.2409  -17.0013   20.1526 C   0  0  0  0  0  0  0  0  0  0  0  0
  -29.3039  -14.5339   19.7573 C   0  0  0  0  0  0  0  0  0  0  0  0
  -23.1037  -27.6734   22.9408 C   0  0  0  0  0  0  0  0  0  0  0  0
  -25.5904  -26.7444   24.8051 C   0  0  0  0  0  0  0  0  0  0  0  0
  -28.9695  -26.5410   25.2375 C   0  0  0  0  0  0  0  0  0  0  0  0
  -29.1530  -22.4010   18.5905 C   0  0  0  0  0  0  0  0  0  0  0  0
  -18.1102  -26.6710   22.5966 C   0  0  0  0  0  0  0  0  0  0  0  0
  -24.4860  -26.3398   21.3079 C   0  0  0  0  0  0  0  0  0  0  0  0
  -26.1426  -28.2421   22.8512 C   0  0  0  0  0  0  0  0  0  0  0  0
  -19.1597  -26.6226   23.7041 C   0  0  0  0  0  0  0  0  0  0  0  0
  -27.4129  -21.4257   21.7548 C   0  0  0  0  0  0  0  0  0  0  0  0
  -19.9597  -27.9209   23.7386 C   0  0  0  0  0  0  0  0  0  0  0  0
  -27.2802  -19.9159   21.5611 C   0  0  0  0  0  0  0  0  0  0  0  0
  -27.4252  -22.1547   20.4166 C   0  0  0  0  0  0  0  0  0  0  0  0
  -28.3576  -20.1669   19.2783 C   0  0  0  0  0  0  0  0  0  0  0  0
  -20.7151  -28.1386   22.4220 C   0  0  1  0  0  0  0  0  0  0  0  0
  -24.1946  -26.6541   22.7720 C   0  0  1  0  0  0  0  0  0  0  0  0
  -28.3616  -19.3869   20.6036 C   0  0  2  0  0  0  0  0  0  0  0  0
  -33.3836  -29.7739   20.7111 C   0  0  0  0  0  0  0  0  0  0  0  0
  -33.4686  -28.0957   16.7348 C   0  0  0  0  0  0  0  0  0  0  0  0
  -30.7023  -25.7652   26.8785 C   0  0  0  0  0  0  0  0  0  0  0  0
  -33.9372  -25.8072   18.8874 C   0  0  0  0  0  0  0  0  0  0  0  0
  -25.0496  -29.2000   26.5334 C   0  0  0  0  0  0  0  0  0  0  0  0
  -27.3213  -28.9035   27.5431 C   0  0  0  0  0  0  0  0  0  0  0  0
  -25.5957  -27.1227   27.8142 C   0  0  0  0  0  0  0  0  0  0  0  0
  -27.8597  -24.4092   19.4235 C   0  0  0  0  0  0  0  0  0  0  0  0
  -30.0896  -24.5935   23.3109 C   0  0  0  0  0  0  0  0  0  0  0  0
  -29.1439  -30.8897   17.0211 C   0  0  0  0  0  0  0  0  0  0  0  0
  -29.7557  -24.6802   17.8684 C   0  0  0  0  0  0  0  0  0  0  0  0
  -30.8456  -25.2192   18.7761 C   0  0  0  0  0  0  0  0  0  0  0  0
  -27.8844  -30.0852   17.3236 C   0  0  0  0  0  0  0  0  0  1  0  0
  -33.1895  -28.1870   18.2562 C   0  0  2  0  0  0  0  0  0  0  0  0
  -26.6869  -27.4580   25.5584 C   0  0  1  0  0  0  0  0  0  0  0  0
  -29.8627  -25.3911   25.6669 C   0  0  2  0  0  0  0  0  0  0  0  0
  -32.7772  -26.8010   18.8480 C   0  0  1  0  0  0  0  0  0  0  0  0
  -26.1603  -28.1740   26.8341 C   0  0  0  0  0  0  0  0  0  0  0  0
  -31.4322  -31.0189   20.0381 N   0  0  0  0  0  0  0  0  0  0  0  0
  -27.0095  -17.3351   20.3920 N   0  0  0  0  0  0  0  0  0  0  0  0
  -28.2326  -17.8917   20.3779 N   0  0  0  0  0  0  0  0  0  0  0  0
  -25.3680  -27.1625   23.4854 N   0  0  0  0  0  0  0  0  0  0  0  0
  -28.4461  -21.6103   19.5115 N   0  0  0  0  0  0  0  0  0  0  0  0
  -30.5321  -17.3924   20.1063 N   0  0  0  0  0  0  0  0  0  0  0  0
  -28.5304  -13.3712   19.6381 N   0  0  0  0  0  0  0  0  0  0  0  0
  -21.8980  -27.3061   22.3743 N   0  0  0  0  0  0  0  0  0  0  0  0
  -27.7205  -26.4613   25.8161 N   0  0  0  0  0  0  0  0  0  0  0  0
  -28.8562  -23.7721   18.5657 N   0  0  0  0  0  0  0  0  0  0  0  0
  -30.7819  -25.0072   24.5585 N   0  3  0  0  0  0  0  0  0  0  0  0
  -31.6963  -26.1754   18.0258 N   0  3  0  0  0  0  0  0  0  0  0  0
  -30.5518  -14.4539   19.6573 O   0  0  0  0  0  0  0  0  0  0  0  0
  -23.3380  -28.7153   23.5419 O   0  0  0  0  0  0  0  0  0  0  0  0
  -24.9594  -25.8441   25.3645 O   0  0  0  0  0  0  0  0  0  0  0  0
  -29.3437  -27.4239   24.4687 O   0  0  0  0  0  0  0  0  0  0  0  0
  -30.0078  -21.9113   17.8413 O   0  0  0  0  0  0  0  0  0  0  0  0
  -23.0597  -12.3614   19.9331 O   0  0  0  0  0  0  0  0  0  0  0  0
  -27.4284  -30.3811   18.6430 O   0  0  0  0  0  0  0  0  0  1  0  0
  -23.6779   -7.5897   22.6261 F   0  0  0  0  0  0  0  0  0  0  0  0
  -21.3104  -11.6316   21.9455 F   0  0  0  0  0  0  0  0  0  0  0  0
  1  2  1  0  0  0  0
  1  5  2  0  0  0  0
  2  6  2  0  0  0  0
  3  8  2  0  0  0  0
  3 17  1  0  0  0  0
  4  9  1  0  0  0  0
  4 17  2  0  0  0  0
  5 19  1  0  0  0  0
  6 21  1  0  0  0  0
  7 10  2  0  0  0  0
  7 20  1  0  0  0  0
  8 25  1  0  0  0  0
  9 25  2  0  0  0  0
 10 26  1  0  0  0  0
 11 12  2  0  0  0  0
 11 27  1  0  0  0  0
 12 28  1  0  0  0  0
 13 22  1  0  0  0  0
 13 26  2  0  0  0  0
 14 23  2  0  0  0  0
 14 24  1  0  0  0  0
 15 28  2  0  0  0  0
 15 29  1  0  0  0  0
 16 23  1  0  0  0  0
 16 68  2  0  0  0  0
 17 30  1  0  0  0  0
 18 30  1  0  0  0  0
 18 32  2  0  0  0  0
 18 33  1  0  0  0  0
 19 21  2  0  0  0  0
 19 38  1  0  0  0  0
 20 22  2  0  0  0  0
 20 39  1  0  0  0  0
 21 47  1  0  0  0  0
 22 40  1  0  0  0  0
 23 59  1  0  0  0  0
 24 31  2  0  0  0  0
 24 63  1  0  0  0  0
 25 85  1  0  0  0  0
 26 86  1  0  0  0  0
 27 29  2  0  0  0  0
 27 85  1  0  0  0  0
 28 87  1  0  0  0  0
 29 88  1  0  0  0  0
 30 69  2  0  0  0  0
 31 50  1  0  0  0  0
 31 68  1  0  0  0  0
 32 70  1  0  0  0  0
 32 73  1  0  0  0  0
 33 74  1  0  0  0  0
 33 80  2  0  0  0  0
 34 48  1  0  0  0  0
 34 75  1  0  0  0  0
 34 81  2  0  0  0  0
 35 64  1  0  0  0  0
 35 71  1  0  0  0  0
 35 82  2  0  0  0  0
 36 65  1  0  0  0  0
 36 76  1  0  0  0  0
 36 83  2  0  0  0  0
 37 72  1  0  0  0  0
 37 77  1  0  0  0  0
 37 84  2  0  0  0  0
 38 41  1  0  0  0  0
 39 48  1  0  0  0  0
 40 71  1  0  0  0  0
 41 43  1  0  0  0  0
 42 44  1  0  0  0  0
 42 45  1  0  0  0  0
 43 47  1  0  0  0  0
 44 49  1  0  0  0  0
 45 72  1  0  0  0  0
 46 49  1  0  0  0  0
 46 72  1  0  0  0  0
 47 75  1  0  0  0  0
 48 71  1  0  0  0  0
 49 70  1  0  0  0  0
 51 63  1  0  0  0  0
 52 65  1  0  0  0  0
 53 66  1  0  0  0  0
 54 67  1  0  0  0  0
 55 67  1  0  0  0  0
 56 67  1  0  0  0  0
 57 77  1  0  0  0  0
 58 78  1  0  0  0  0
 59 62  1  0  0  0  0
 60 61  1  0  0  0  0
 60 77  1  0  0  0  0
 61 79  1  0  0  0  0
 62 86  1  0  0  0  0
 63 66  1  0  0  0  0
 64 67  1  0  0  0  0
 64 76  1  0  0  0  0
 65 78  1  0  0  0  0
 66 79  1  0  0  0  0
 69 70  1  0  0  0  0
M  CHG  2  78   1  79   1
M  ISO  4  37 100  62 101  77 100  86 101
M  END
> <Batch ID>
0082

> <Smiles>
CNC(C)C(=O)NC(C(=O)N1Cc2cc([101O:1][101CH2:1]Cc3cnc(C)c(C(C)C(C)NCC[100N:0](C)[100C:0](=O)N4CCCC(n5nc(-c6ccc(Oc7ccc(F)cc7F)cc6)c(C(N)=O)c5N)C4)c3)ccc2CC1C(=O)NC1CCCc2ccccc21)C(C)(C)C

> <Shape>
0.231

> <Color>
0.086

> <Negative vol penalty>
0.000

$$$$

  -OEChem-04052318493D

 85 93  0     1  0  0  0  0  0999 V2000
  -32.3475  -14.2960   21.3484 C   0  0  0  0  0  0  0  0  0  0  0  0
  -31.5538  -15.4202   21.5527 C   0  0  0  0  0  0  0  0  0  0  0  0
  -29.4124  -28.2146   20.1071 C   0  0  0  0  0  0  0  0  0  0  0  0
  -27.7613  -26.7911   19.0656 C   0  0  0  0  0  0  0  0  0  0  0  0
  -31.8250  -13.1864   20.6853 C   0  0  0  0  0  0  0  0  0  0  0  0
  -30.2375  -15.4358   21.0930 C   0  0  0  0  0  0  0  0  0  0  0  0
  -25.4425  -18.1670   23.7491 C   0  0  0  0  0  0  0  0  0  0  0  0
  -30.3613  -27.1989   19.9911 C   0  0  0  0  0  0  0  0  0  0  0  0
  -28.7103  -25.7754   18.9495 C   0  0  0  0  0  0  0  0  0  0  0  0
  -24.8107  -19.3877   23.5160 C   0  0  0  0  0  0  0  0  0  0  0  0
  -30.1170  -23.4398   20.9488 C   0  0  0  0  0  0  0  0  0  0  0  0
  -29.7303  -22.1478   21.3046 C   0  0  0  0  0  0  0  0  0  0  0  0
  -23.1783  -18.2720   22.1340 C   0  0  0  0  0  0  0  0  0  0  0  0
  -30.2129  -21.3860   19.0633 C   0  0  0  0  0  0  0  0  0  0  0  0
  -19.3871  -25.6930   22.7376 C   0  0  0  0  0  0  0  0  0  0  0  0
  -28.1124  -28.0107   19.6445 C   0  0  0  0  0  0  0  0  0  0  0  0
  -26.8499  -30.0713   18.8275 C   0  0  0  0  0  0  0  0  0  0  0  0
  -30.4986  -13.1847   20.2258 C   0  0  0  0  0  0  0  0  0  0  0  0
  -24.9525  -16.9892   23.1666 C   0  0  0  0  0  0  0  0  0  0  0  0
  -29.6972  -14.3256   20.4220 C   0  0  0  0  0  0  0  0  0  0  0  0
  -23.8042  -17.0372   22.3634 C   0  0  0  0  0  0  0  0  0  0  0  0
  -30.0103  -25.9793   19.4122 C   0  0  0  0  0  0  0  0  0  0  0  0
  -23.6801  -19.4408   22.7060 C   0  0  0  0  0  0  0  0  0  0  0  0
  -30.5517  -23.7050   19.6501 C   0  0  0  0  0  0  0  0  0  0  0  0
  -29.7782  -21.1209   20.3619 C   0  0  0  0  0  0  0  0  0  0  0  0
  -30.5996  -22.6780   18.7074 C   0  0  0  0  0  0  0  0  0  0  0  0
  -27.1315  -29.0593   19.7646 C   0  0  0  0  0  0  0  0  0  0  0  0
  -19.3520  -24.4483   22.1427 C   0  0  0  0  0  0  0  0  0  0  0  0
  -19.8251  -26.7263   21.9346 C   0  0  0  0  0  0  0  0  0  0  0  0
  -25.8469  -30.8080   19.4087 C   0  0  0  0  0  0  0  0  0  0  0  0
  -20.1227  -25.3069   20.1842 C   0  0  0  0  0  0  0  0  0  0  0  0
  -27.4419  -30.3229   17.5461 C   0  0  0  0  0  0  0  0  0  0  0  0
  -26.1063  -14.8533   21.1148 C   0  0  0  0  0  0  0  0  0  0  0  0
  -23.3554  -13.2799   21.8073 C   0  0  0  0  0  0  0  0  0  0  0  0
  -20.1292  -13.4326   22.9096 C   0  0  0  0  0  0  0  0  0  0  0  0
  -21.6795  -29.5041   23.5055 C   0  0  0  0  0  0  0  0  0  0  0  0
  -29.9928  -11.9799   19.4726 C   0  0  0  0  0  0  0  0  0  0  0  0
  -25.6299  -15.6764   23.4496 C   0  0  0  0  0  0  0  0  0  0  0  0
  -23.2264  -15.7984   21.7310 C   0  0  0  0  0  0  0  0  0  0  0  0
  -28.4721  -11.9340   19.3476 C   0  0  0  0  0  0  0  0  0  0  0  0
  -24.1333  -32.0772   23.6916 C   0  0  0  0  0  0  0  0  0  0  0  0
  -27.9304  -13.2940   18.9186 C   0  0  0  0  0  0  0  0  0  0  0  0
  -25.1546  -31.6868   22.6217 C   0  0  0  0  0  0  0  0  0  0  0  0
  -23.5579  -30.8509   24.3967 C   0  0  0  0  0  0  0  0  0  0  0  0
  -24.0098  -29.4394   22.4276 C   0  0  0  0  0  0  0  0  0  0  0  0
  -28.2568  -14.3713   19.9599 C   0  0  1  0  0  0  0  0  0  0  0  0
  -25.3462  -14.6169   22.3892 C   0  0  1  0  0  0  0  0  0  0  0  0
  -24.5768  -30.6399   21.6505 C   0  0  2  0  0  0  0  0  0  0  0  0
  -21.9148  -24.4674   18.6447 C   0  0  0  0  0  0  0  0  0  0  0  0
  -19.0023  -29.1019   21.7318 C   0  0  0  0  0  0  0  0  0  0  0  0
  -18.1208  -11.9880   23.3305 C   0  0  0  0  0  0  0  0  0  0  0  0
  -22.8143  -13.1622   18.8068 C   0  0  0  0  0  0  0  0  0  0  0  0
  -20.4325  -12.5945   19.3292 C   0  0  0  0  0  0  0  0  0  0  0  0
  -22.2647  -11.0624   20.0491 C   0  0  0  0  0  0  0  0  0  0  0  0
  -20.1082  -14.1009   25.7926 C   0  0  0  0  0  0  0  0  0  0  0  0
  -18.8866  -23.2563   22.9405 C   0  0  0  0  0  0  0  0  0  0  0  0
  -20.5279  -25.0938   18.7649 C   0  0  0  0  0  0  0  0  0  0  0  0
  -19.5305  -21.9337   22.5103 C   0  0  0  0  0  0  0  0  0  0  0  0
  -21.0456  -21.9100   22.7178 C   0  0  0  0  0  0  0  0  0  0  0  0
  -21.6544  -20.5976   22.2430 C   0  0  0  0  0  0  0  0  0  1  0  0
  -19.8955  -28.1095   22.4898 C   0  0  2  0  0  0  0  0  0  0  0  0
  -21.9566  -13.2714   21.2396 C   0  0  1  0  0  0  0  0  0  0  0  0
  -19.3741  -12.6037   23.9330 C   0  0  2  0  0  0  0  0  0  0  0  0
  -21.8788  -12.5464   19.8664 C   0  0  0  0  0  0  0  0  0  0  0  0
  -26.3692  -29.1425   20.8582 N   0  0  0  0  0  0  0  0  0  0  0  0
  -19.7140  -24.2184   20.8635 N   0  0  0  0  0  0  0  0  0  0  0  0
  -20.2022  -26.5684   20.6488 N   0  0  0  0  0  0  0  0  0  0  0  0
  -25.5987  -30.2157   20.6119 N   0  0  0  0  0  0  0  0  0  0  0  0
  -23.9281  -14.5397   22.0325 N   0  0  0  0  0  0  0  0  0  0  0  0
  -23.0250  -29.8982   23.4198 N   0  0  0  0  0  0  0  0  0  0  0  0
  -25.1620  -31.8982   19.0028 N   0  0  0  0  0  0  0  0  0  0  0  0
  -28.4601  -29.4687   17.1012 N   0  0  0  0  0  0  0  0  0  0  0  0
  -27.3588  -14.2701   21.0903 N   0  0  0  0  0  0  0  0  0  0  0  0
  -21.1013  -12.6928   22.2701 N   0  0  0  0  0  0  0  0  0  0  0  0
  -21.2537  -28.6033   22.5369 N   0  0  0  0  0  0  0  0  0  0  0  0
  -18.9714  -13.4514   25.0907 N   0  3  0  0  0  0  0  0  0  0  0  0
  -27.0901  -31.2867   16.8244 O   0  0  0  0  0  0  0  0  0  0  0  0
  -25.5937  -15.5144   20.2193 O   0  0  0  0  0  0  0  0  0  0  0  0
  -23.9165  -12.2082   22.0490 O   0  0  0  0  0  0  0  0  0  0  0  0
  -19.8790  -14.6168   22.6960 O   0  0  0  0  0  0  0  0  0  0  0  0
  -20.9130  -29.9279   24.3771 O   0  0  0  0  0  0  0  0  0  0  0  0
  -30.9361  -24.9880   19.2986 O   0  0  0  0  0  0  0  0  0  0  0  0
  -23.0618  -20.6311   22.4762 O   0  0  0  0  0  0  0  0  0  1  0  0
  -29.4082  -19.8799   20.7042 F   0  0  0  0  0  0  0  0  0  0  0  0
  -31.0175  -22.9264   17.4586 F   0  0  0  0  0  0  0  0  0  0  0  0
  1  2  1  0  0  0  0
  1  5  2  0  0  0  0
  2  6  2  0  0  0  0
  3  8  2  0  0  0  0
  3 16  1  0  0  0  0
  4  9  1  0  0  0  0
  4 16  2  0  0  0  0
  5 18  1  0  0  0  0
  6 20  1  0  0  0  0
  7 10  2  0  0  0  0
  7 19  1  0  0  0  0
  8 22  1  0  0  0  0
  9 22  2  0  0  0  0
 10 23  1  0  0  0  0
 11 12  2  0  0  0  0
 11 24  1  0  0  0  0
 12 25  1  0  0  0  0
 13 21  1  0  0  0  0
 13 23  2  0  0  0  0
 14 25  2  0  0  0  0
 14 26  1  0  0  0  0
 15 28  1  0  0  0  0
 15 29  2  0  0  0  0
 16 27  1  0  0  0  0
 17 27  1  0  0  0  0
 17 30  2  0  0  0  0
 17 32  1  0  0  0  0
 18 20  2  0  0  0  0
 18 37  1  0  0  0  0
 19 21  2  0  0  0  0
 19 38  1  0  0  0  0
 20 46  1  0  0  0  0
 21 39  1  0  0  0  0
 22 82  1  0  0  0  0
 23 83  1  0  0  0  0
 24 26  2  0  0  0  0
 24 82  1  0  0  0  0
 25 84  1  0  0  0  0
 26 85  1  0  0  0  0
 27 65  2  0  0  0  0
 28 56  1  0  0  0  0
 28 66  2  0  0  0  0
 29 61  1  0  0  0  0
 29 67  1  0  0  0  0
 30 68  1  0  0  0  0
 30 71  1  0  0  0  0
 31 57  1  0  0  0  0
 31 66  1  0  0  0  0
 31 67  2  0  0  0  0
 32 72  1  0  0  0  0
 32 77  2  0  0  0  0
 33 47  1  0  0  0  0
 33 73  1  0  0  0  0
 33 78  2  0  0  0  0
 34 62  1  0  0  0  0
 34 69  1  0  0  0  0
 34 79  2  0  0  0  0
 35 63  1  0  0  0  0
 35 74  1  0  0  0  0
 35 80  2  0  0  0  0
 36 70  1  0  0  0  0
 36 75  1  0  0  0  0
 36 81  2  0  0  0  0
 37 40  1  0  0  0  0
 38 47  1  0  0  0  0
 39 69  1  0  0  0  0
 40 42  1  0  0  0  0
 41 43  1  0  0  0  0
 41 44  1  0  0  0  0
 42 46  1  0  0  0  0
 43 48  1  0  0  0  0
 44 70  1  0  0  0  0
 45 48  1  0  0  0  0
 45 70  1  0  0  0  0
 46 73  1  0  0  0  0
 47 69  1  0  0  0  0
 48 68  1  0  0  0  0
 49 57  1  0  0  0  0
 50 61  1  0  0  0  0
 51 63  1  0  0  0  0
 52 64  1  0  0  0  0
 53 64  1  0  0  0  0
 54 64  1  0  0  0  0
 55 76  1  0  0  0  0
 56 58  1  0  0  0  0
 58 59  1  0  0  0  0
 59 60  1  0  0  0  0
 60 83  1  0  0  0  0
 61 75  1  0  0  0  0
 62 64  1  0  0  0  0
 62 74  1  0  0  0  0
 63 76  1  0  0  0  0
 65 68  1  0  0  0  0
M  CHG  1  76   1
M  ISO  4  36 100  60 101  75 100  83 101
M  END
> <Batch ID>
0082

> <Smiles>
CCc1nc(CCC[101CH2:1][101O:1]c2ccc3c(c2)CN(C(=O)C(NC(=O)C(C)NC)C(C)(C)C)C(C(=O)NC2CCCc4ccccc42)C3)cc(C(C)[100NH:0][100C:0](=O)N2CCCC(n3nc(-c4ccc(Oc5ccc(F)cc5F)cc4)c(C(N)=O)c3N)C2)n1

> <Shape>
0.272

> <Color>
0.066

> <Negative vol penalty>
0.000

$$$$

  -OEChem-04052318493D

 85 93  0     1  0  0  0  0  0999 V2000
  -15.8079  -27.4142   24.5132 C   0  0  0  0  0  0  0  0  0  0  0  0
  -16.0965  -26.1734   23.9541 C   0  0  0  0  0  0  0  0  0  0  0  0
  -23.0599   -9.8752   19.9363 C   0  0  0  0  0  0  0  0  0  0  0  0
  -23.8535   -9.8373   22.2179 C   0  0  0  0  0  0  0  0  0  0  0  0
  -16.6530  -28.4976   24.2768 C   0  0  0  0  0  0  0  0  0  0  0  0
  -17.2299  -26.0157   23.1572 C   0  0  0  0  0  0  0  0  0  0  0  0
  -22.2146  -21.1668   21.4377 C   0  0  0  0  0  0  0  0  0  0  0  0
  -22.3069   -8.7264   20.1791 C   0  0  0  0  0  0  0  0  0  0  0  0
  -23.1005   -8.6886   22.4607 C   0  0  0  0  0  0  0  0  0  0  0  0
  -22.7964  -20.5699   20.3200 C   0  0  0  0  0  0  0  0  0  0  0  0
  -19.8728   -7.9167   23.0986 C   0  0  0  0  0  0  0  0  0  0  0  0
  -19.1328   -7.8665   24.2799 C   0  0  0  0  0  0  0  0  0  0  0  0
  -24.2268  -22.4928   20.0452 C   0  0  0  0  0  0  0  0  0  0  0  0
  -28.5012  -18.7590   22.0164 C   0  0  0  0  0  0  0  0  0  0  0  0
  -28.4749  -18.2430   19.6675 C   0  0  0  0  0  0  0  0  0  0  0  0
  -20.3631   -5.9040   24.9672 C   0  0  0  0  0  0  0  0  0  0  0  0
  -23.8333  -10.4306   20.9557 C   0  0  0  0  0  0  0  0  0  0  0  0
  -24.2015  -12.9534   20.8703 C   0  0  0  0  0  0  0  0  0  0  0  0
  -17.8025  -28.3507   23.4846 C   0  0  0  0  0  0  0  0  0  0  0  0
  -22.6278  -22.4379   21.8618 C   0  0  0  0  0  0  0  0  0  0  0  0
  -18.0904  -27.0985   22.9089 C   0  0  0  0  0  0  0  0  0  0  0  0
  -23.6505  -23.1025   21.1701 C   0  0  0  0  0  0  0  0  0  0  0  0
  -29.1638  -18.3288   20.8722 C   0  0  0  0  0  0  0  0  0  0  0  0
  -22.3272   -8.1331   21.4413 C   0  0  0  0  0  0  0  0  0  0  0  0
  -23.8006  -21.2342   19.6219 C   0  0  0  0  0  0  0  0  0  0  0  0
  -20.8580   -6.9606   22.8516 C   0  0  0  0  0  0  0  0  0  0  0  0
  -19.3779   -6.8601   25.2142 C   0  0  0  0  0  0  0  0  0  0  0  0
  -21.1031   -5.9543   23.7858 C   0  0  0  0  0  0  0  0  0  0  0  0
  -24.6117  -11.6169   20.7053 C   0  0  0  0  0  0  0  0  0  0  0  0
  -27.1603  -19.0890   21.9039 C   0  0  0  0  0  0  0  0  0  0  0  0
  -27.1351  -18.5959   19.6602 C   0  0  0  0  0  0  0  0  0  0  0  0
  -25.2966  -13.6966   20.5027 C   0  0  0  0  0  0  0  0  0  0  0  0
  -22.9432  -13.4764   21.3162 C   0  0  0  0  0  0  0  0  0  0  0  0
  -21.2145  -25.2682   22.1720 C   0  0  0  0  0  0  0  0  0  0  0  0
  -24.0494  -26.1009   23.5107 C   0  0  0  0  0  0  0  0  0  0  0  0
  -27.3976  -25.5107   23.8079 C   0  0  0  0  0  0  0  0  0  0  0  0
  -30.7935  -14.6523   20.6254 C   0  0  0  0  0  0  0  0  0  0  0  0
  -18.6605  -29.5623   23.2185 C   0  0  0  0  0  0  0  0  0  0  0  0
  -22.0089  -23.0566   23.0852 C   0  0  0  0  0  0  0  0  0  0  0  0
  -24.1441  -24.4601   21.5966 C   0  0  0  0  0  0  0  0  0  0  0  0
  -20.0433  -29.2207   22.6697 C   0  0  0  0  0  0  0  0  0  0  0  0
  -29.5943  -12.3187   18.2186 C   0  0  0  0  0  0  0  0  0  0  0  0
  -19.9336  -28.1926   21.5482 C   0  0  0  0  0  0  0  0  0  0  0  0
  -28.1602  -12.0339   18.6682 C   0  0  0  0  0  0  0  0  0  0  0  0
  -30.5314  -12.5103   19.4090 C   0  0  0  0  0  0  0  0  0  0  0  0
  -28.6586  -13.2400   20.8351 C   0  0  0  0  0  0  0  0  0  0  0  0
  -19.3238  -26.8817   22.0593 C   0  0  1  0  0  0  0  0  0  0  0  0
  -22.1491  -24.5752   23.1228 C   0  0  1  0  0  0  0  0  0  0  0  0
  -27.6653  -13.0949   19.6695 C   0  0  2  0  0  0  0  0  0  0  0  0
  -26.4833  -21.0713   23.2819 C   0  0  0  0  0  0  0  0  0  0  0  0
  -31.4916  -19.1657   21.3251 C   0  0  0  0  0  0  0  0  0  0  0  0
  -29.7363  -25.7551   24.6843 C   0  0  0  0  0  0  0  0  0  0  0  0
  -24.1621  -28.4180   21.5287 C   0  0  0  0  0  0  0  0  0  0  0  0
  -26.5988  -28.6561   22.0524 C   0  0  0  0  0  0  0  0  0  0  0  0
  -24.9002  -28.9924   23.8481 C   0  0  0  0  0  0  0  0  0  0  0  0
  -26.9179  -23.5444   25.9672 C   0  0  0  0  0  0  0  0  0  0  0  0
  -26.4174  -19.5562   23.1108 C   0  0  0  0  0  0  0  0  0  0  0  0
  -26.3563  -18.5132   18.3717 C   0  0  0  0  0  0  0  0  0  0  0  0
  -26.3872  -19.8034   17.5495 C   0  0  0  0  0  0  0  0  0  0  0  0
  -30.9017  -16.7820   21.8949 C   0  0  0  0  0  0  0  0  0  0  0  0
  -25.7302  -20.9845   18.2543 C   0  0  0  0  0  0  0  0  0  1  0  0
  -30.6077  -17.9619   20.9367 C   0  0  1  0  0  0  0  0  0  0  0  0
  -25.3540  -26.6569   22.9929 C   0  0  1  0  0  0  0  0  0  0  0  0
  -28.2970  -25.4021   25.0259 C   0  0  2  0  0  0  0  0  0  0  0  0
  -25.2433  -28.1561   22.5961 C   0  0  0  0  0  0  0  0  0  0  0  0
  -25.8692  -11.5139   20.2668 N   0  0  0  0  0  0  0  0  0  0  0  0
  -26.4576  -19.0183   20.7512 N   0  0  0  0  0  0  0  0  0  0  0  0
  -26.2585  -12.7951   20.1531 N   0  0  0  0  0  0  0  0  0  0  0  0
  -23.5032  -25.0261   22.7951 N   0  0  0  0  0  0  0  0  0  0  0  0
  -30.0055  -13.5306   20.3192 N   0  0  0  0  0  0  0  0  0  0  0  0
  -25.5208  -15.0267   20.4475 N   0  0  0  0  0  0  0  0  0  0  0  0
  -21.9263  -12.5732   21.6542 N   0  0  0  0  0  0  0  0  0  0  0  0
  -20.3119  -26.1146   22.7871 N   0  0  0  0  0  0  0  0  0  0  0  0
  -26.3514  -26.3831   24.0217 N   0  0  0  0  0  0  0  0  0  0  0  0
  -30.2173  -15.5741   21.4908 N   0  0  0  0  0  0  0  0  0  0  0  0
  -28.2696  -24.0141   25.5680 N   0  3  0  0  0  0  0  0  0  0  0  0
  -22.7216  -14.7085   21.3964 O   0  0  0  0  0  0  0  0  0  0  0  0
  -21.3065  -25.0521   20.9693 O   0  0  0  0  0  0  0  0  0  0  0  0
  -23.5377  -26.5973   24.5174 O   0  0  0  0  0  0  0  0  0  0  0  0
  -27.6046  -24.8871   22.7692 O   0  0  0  0  0  0  0  0  0  0  0  0
  -31.9246  -14.8225   20.1577 O   0  0  0  0  0  0  0  0  0  0  0  0
  -21.5923   -7.0123   21.6787 O   0  0  0  0  0  0  0  0  0  0  0  0
  -24.3696  -20.6542   18.5303 O   0  0  0  0  0  0  0  0  0  1  0  0
  -18.6682   -6.8129   26.3492 F   0  0  0  0  0  0  0  0  0  0  0  0
  -22.0491   -5.0337   23.5546 F   0  0  0  0  0  0  0  0  0  0  0  0
  1  2  1  0  0  0  0
  1  5  2  0  0  0  0
  2  6  2  0  0  0  0
  3  8  2  0  0  0  0
  3 17  1  0  0  0  0
  4  9  1  0  0  0  0
  4 17  2  0  0  0  0
  5 19  1  0  0  0  0
  6 21  1  0  0  0  0
  7 10  2  0  0  0  0
  7 20  1  0  0  0  0
  8 24  1  0  0  0  0
  9 24  2  0  0  0  0
 10 25  1  0  0  0  0
 11 12  2  0  0  0  0
 11 26  1  0  0  0  0
 12 27  1  0  0  0  0
 13 22  1  0  0  0  0
 13 25  2  0  0  0  0
 14 23  2  0  0  0  0
 14 30  1  0  0  0  0
 15 23  1  0  0  0  0
 15 31  2  0  0  0  0
 16 27  2  0  0  0  0
 16 28  1  0  0  0  0
 17 29  1  0  0  0  0
 18 29  1  0  0  0  0
 18 32  2  0  0  0  0
 18 33  1  0  0  0  0
 19 21  2  0  0  0  0
 19 38  1  0  0  0  0
 20 22  2  0  0  0  0
 20 39  1  0  0  0  0
 21 47  1  0  0  0  0
 22 40  1  0  0  0  0
 23 62  1  0  0  0  0
 24 82  1  0  0  0  0
 25 83  1  0  0  0  0
 26 28  2  0  0  0  0
 26 82  1  0  0  0  0
 27 84  1  0  0  0  0
 28 85  1  0  0  0  0
 29 66  2  0  0  0  0
 30 57  1  0  0  0  0
 30 67  2  0  0  0  0
 31 58  1  0  0  0  0
 31 67  1  0  0  0  0
 32 68  1  0  0  0  0
 32 71  1  0  0  0  0
 33 72  1  0  0  0  0
 33 77  2  0  0  0  0
 34 48  1  0  0  0  0
 34 73  1  0  0  0  0
 34 78  2  0  0  0  0
 35 63  1  0  0  0  0
 35 69  1  0  0  0  0
 35 79  2  0  0  0  0
 36 64  1  0  0  0  0
 36 74  1  0  0  0  0
 36 80  2  0  0  0  0
 37 70  1  0  0  0  0
 37 75  1  0  0  0  0
 37 81  2  0  0  0  0
 38 41  1  0  0  0  0
 39 48  1  0  0  0  0
 40 69  1  0  0  0  0
 41 43  1  0  0  0  0
 42 44  1  0  0  0  0
 42 45  1  0  0  0  0
 43 47  1  0  0  0  0
 44 49  1  0  0  0  0
 45 70  1  0  0  0  0
 46 49  1  0  0  0  0
 46 70  1  0  0  0  0
 47 73  1  0  0  0  0
 48 69  1  0  0  0  0
 49 68  1  0  0  0  0
 50 57  1  0  0  0  0
 51 62  1  0  0  0  0
 52 64  1  0  0  0  0
 53 65  1  0  0  0  0
 54 65  1  0  0  0  0
 55 65  1  0  0  0  0
 56 76  1  0  0  0  0
 58 59  1  0  0  0  0
 59 61  1  0  0  0  0
 60 62  1  0  0  0  0
 60 75  1  0  0  0  0
 61 83  1  0  0  0  0
 63 65  1  0  0  0  0
 63 74  1  0  0  0  0
 64 76  1  0  0  0  0
 66 68  1  0  0  0  0
M  CHG  1  76   1
M  ISO  4  37 100  61 101  75 100  83 101
M  END
> <Batch ID>
0082

> <Smiles>
CCc1cc(C(C)C[100NH:0][100C:0](=O)N2CCCC(n3nc(-c4ccc(Oc5ccc(F)cc5F)cc4)c(C(N)=O)c3N)C2)cc(CC[101CH2:1][101O:1]c2ccc3c(c2)CN(C(=O)C(NC(=O)C(C)NC)C(C)(C)C)C(C(=O)NC2CCCc4ccccc42)C3)n1

> <Shape>
0.268

> <Color>
0.203

> <Negative vol penalty>
0.000

$$$$

  -OEChem-04052318493D

 84 92  0     1  0  0  0  0  0999 V2000
  -32.5088  -13.2587   21.1069 C   0  0  0  0  0  0  0  0  0  0  0  0
  -31.8722  -14.4633   21.3882 C   0  0  0  0  0  0  0  0  0  0  0  0
  -27.3043  -28.4551   20.3324 C   0  0  0  0  0  0  0  0  0  0  0  0
  -25.5377  -26.8354   20.0278 C   0  0  0  0  0  0  0  0  0  0  0  0
  -31.8309  -12.2595   20.4098 C   0  0  0  0  0  0  0  0  0  0  0  0
  -30.5576  -14.6698   20.9716 C   0  0  0  0  0  0  0  0  0  0  0  0
  -26.2240  -17.8537   23.9022 C   0  0  0  0  0  0  0  0  0  0  0  0
  -28.8502  -19.5699   20.6173 C   0  0  0  0  0  0  0  0  0  0  0  0
  -26.3604  -29.4819   20.3466 C   0  0  0  0  0  0  0  0  0  0  0  0
  -24.5938  -27.8623   20.0421 C   0  0  0  0  0  0  0  0  0  0  0  0
  -25.7492  -19.1552   23.7461 C   0  0  0  0  0  0  0  0  0  0  0  0
  -24.3849  -32.4959   20.8247 C   0  0  0  0  0  0  0  0  0  0  0  0
  -24.5104  -33.4785   21.8066 C   0  0  0  0  0  0  0  0  0  0  0  0
  -28.1887  -20.4576   21.4586 C   0  0  0  0  0  0  0  0  0  0  0  0
  -23.9520  -18.3276   22.3662 C   0  0  0  0  0  0  0  0  0  0  0  0
  -24.2813  -31.7932   23.5225 C   0  0  0  0  0  0  0  0  0  0  0  0
  -26.8929  -27.1318   20.1729 C   0  0  0  0  0  0  0  0  0  0  0  0
  -28.7698  -25.7302   21.1831 C   0  0  0  0  0  0  0  0  0  0  0  0
  -30.5041  -12.4501   19.9929 C   0  0  0  0  0  0  0  0  0  0  0  0
  -25.5716  -16.7788   23.2814 C   0  0  0  0  0  0  0  0  0  0  0  0
  -29.8618  -13.6727   20.2671 C   0  0  0  0  0  0  0  0  0  0  0  0
  -24.4190  -17.0131   22.5180 C   0  0  0  0  0  0  0  0  0  0  0  0
  -28.4744  -19.4751   19.2820 C   0  0  0  0  0  0  0  0  0  0  0  0
  -25.0052  -29.1856   20.2015 C   0  0  0  0  0  0  0  0  0  0  0  0
  -24.6147  -19.3927   22.9757 C   0  0  0  0  0  0  0  0  0  0  0  0
  -24.2075  -31.1619   21.1916 C   0  0  0  0  0  0  0  0  0  0  0  0
  -24.4587  -33.1272   23.1555 C   0  0  0  0  0  0  0  0  0  0  0  0
  -24.1557  -30.8105   22.5405 C   0  0  0  0  0  0  0  0  0  0  0  0
  -27.8675  -26.0706   20.1576 C   0  0  0  0  0  0  0  0  0  0  0  0
  -27.1664  -21.2221   20.9199 C   0  0  0  0  0  0  0  0  0  0  0  0
  -27.4392  -20.2834   18.8408 C   0  0  0  0  0  0  0  0  0  0  0  0
  -29.4725  -24.6620   20.6816 C   0  0  0  0  0  0  0  0  0  0  0  0
  -28.9560  -26.3262   22.4738 C   0  0  0  0  0  0  0  0  0  0  0  0
  -26.3877  -14.6187   21.0970 C   0  0  0  0  0  0  0  0  0  0  0  0
  -23.4754  -13.3764   21.8025 C   0  0  0  0  0  0  0  0  0  0  0  0
  -28.1196  -20.5864   16.4778 C   0  0  0  0  0  0  0  0  0  0  0  0
  -20.3249  -13.8840   23.0122 C   0  0  0  0  0  0  0  0  0  0  0  0
  -29.8282  -11.3590   19.2009 C   0  0  0  0  0  0  0  0  0  0  0  0
  -26.0809  -15.3777   23.4815 C   0  0  0  0  0  0  0  0  0  0  0  0
  -23.6704  -15.8914   21.8474 C   0  0  0  0  0  0  0  0  0  0  0  0
  -28.3116  -11.5138   19.1221 C   0  0  0  0  0  0  0  0  0  0  0  0
  -30.9706  -22.7553   16.5659 C   0  0  0  0  0  0  0  0  0  0  0  0
  -27.9391  -12.9515   18.7741 C   0  0  0  0  0  0  0  0  0  0  0  0
  -30.5686  -23.8360   17.5688 C   0  0  0  0  0  0  0  0  0  0  0  0
  -29.7729  -22.2757   15.7519 C   0  0  0  0  0  0  0  0  0  0  0  0
  -28.2236  -22.8740   17.5858 C   0  0  0  0  0  0  0  0  0  0  0  0
  -28.4281  -13.9248   19.8535 C   0  0  1  0  0  0  0  0  0  0  0  0
  -25.6362  -14.4177   22.3825 C   0  0  1  0  0  0  0  0  0  0  0  0
  -29.3986  -23.3645   18.4503 C   0  0  2  0  0  0  0  0  0  0  0  0
  -29.1785  -18.5250   18.3762 C   0  0  0  0  0  0  0  0  0  0  0  0
  -18.1584  -12.6882   23.4289 C   0  0  0  0  0  0  0  0  0  0  0  0
  -22.6358  -21.4959   21.1557 C   0  0  0  0  0  0  0  0  0  0  0  0
  -25.8365  -21.2260   17.1568 C   0  0  0  0  0  0  0  0  0  0  0  0
  -26.5167  -18.8367   16.9061 C   0  0  0  0  0  0  0  0  0  0  0  0
  -22.8475  -13.4793   18.8183 C   0  0  0  0  0  0  0  0  0  0  0  0
  -20.4264  -13.1946   19.3889 C   0  0  0  0  0  0  0  0  0  0  0  0
  -22.0635  -11.4072   19.9785 C   0  0  0  0  0  0  0  0  0  0  0  0
  -20.4636  -14.4041   25.9224 C   0  0  0  0  0  0  0  0  0  0  0  0
  -26.4286  -22.1965   21.8029 C   0  0  0  0  0  0  0  0  0  0  0  0
  -24.9677  -22.4246   21.3881 C   0  0  0  0  0  0  0  0  0  0  0  0
  -22.0733  -13.5749   21.2795 C   0  0  1  0  0  0  0  0  0  0  0  0
  -19.4955  -13.1080   24.0193 C   0  0  2  0  0  0  0  0  0  0  0  0
  -24.0866  -21.1734   21.4904 C   0  0  1  0  0  0  0  0  0  1  0  0
  -26.9950  -20.2265   17.4159 C   0  0  0  0  0  0  0  0  0  0  0  0
  -21.8677  -12.9356   19.8772 C   0  0  0  0  0  0  0  0  0  0  0  0
  -27.9843  -25.2827   19.0854 N   0  0  0  0  0  0  0  0  0  0  0  0
  -26.7731  -21.1577   19.6280 N   0  0  0  0  0  0  0  0  0  0  0  0
  -28.9683  -24.4365   19.4345 N   0  0  0  0  0  0  0  0  0  0  0  0
  -24.2113  -14.5400   22.0677 N   0  0  0  0  0  0  0  0  0  0  0  0
  -28.6748  -21.8577   16.6251 N   0  0  0  0  0  0  0  0  0  0  0  0
  -30.4664  -23.9030   21.1900 N   0  0  0  0  0  0  0  0  0  0  0  0
  -28.2095  -25.8318   23.5520 N   0  0  0  0  0  0  0  0  0  0  0  0
  -27.5535  -13.8825   21.0059 N   0  0  0  0  0  0  0  0  0  0  0  0
  -21.1769  -13.0592   22.3086 N   0  0  0  0  0  0  0  0  0  0  0  0
  -19.2350  -13.9409   25.2273 N   0  3  0  0  0  0  0  0  0  0  0  0
  -29.7485  -27.2802   22.6619 O   0  0  0  0  0  0  0  0  0  0  0  0
  -25.9421  -15.3839   20.2499 O   0  0  0  0  0  0  0  0  0  0  0  0
  -23.8995  -12.2311   21.9762 O   0  0  0  0  0  0  0  0  0  0  0  0
  -28.4939  -19.7600   15.6418 O   0  0  0  0  0  0  0  0  0  0  0  0
  -20.2242  -15.0996   22.8619 O   0  0  0  0  0  0  0  0  0  0  0  0
  -24.0838  -30.1873   20.2155 O   0  0  0  0  0  0  0  0  0  0  0  0
  -24.1495  -20.6622   22.8212 O   0  0  0  0  0  0  0  0  0  1  0  0
  -24.5808  -34.0707   24.0984 F   0  0  0  0  0  0  0  0  0  0  0  0
  -23.9867  -29.5304   22.8991 F   0  0  0  0  0  0  0  0  0  0  0  0
  1  2  1  0  0  0  0
  1  5  2  0  0  0  0
  2  6  2  0  0  0  0
  3  9  2  0  0  0  0
  3 17  1  0  0  0  0
  4 10  1  0  0  0  0
  4 17  2  0  0  0  0
  5 19  1  0  0  0  0
  6 21  1  0  0  0  0
  7 11  2  0  0  0  0
  7 20  1  0  0  0  0
  8 14  2  0  0  0  0
  8 23  1  0  0  0  0
  9 24  1  0  0  0  0
 10 24  2  0  0  0  0
 11 25  1  0  0  0  0
 12 13  2  0  0  0  0
 12 26  1  0  0  0  0
 13 27  1  0  0  0  0
 14 30  1  0  0  0  0
 15 22  1  0  0  0  0
 15 25  2  0  0  0  0
 16 27  2  0  0  0  0
 16 28  1  0  0  0  0
 17 29  1  0  0  0  0
 18 29  1  0  0  0  0
 18 32  2  0  0  0  0
 18 33  1  0  0  0  0
 19 21  2  0  0  0  0
 19 38  1  0  0  0  0
 20 22  2  0  0  0  0
 20 39  1  0  0  0  0
 21 47  1  0  0  0  0
 22 40  1  0  0  0  0
 23 31  2  0  0  0  0
 23 50  1  0  0  0  0
 24 81  1  0  0  0  0
 25 82  1  0  0  0  0
 26 28  2  0  0  0  0
 26 81  1  0  0  0  0
 27 83  1  0  0  0  0
 28 84  1  0  0  0  0
 29 66  2  0  0  0  0
 30 59  1  0  0  0  0
 30 67  2  0  0  0  0
 31 64  1  0  0  0  0
 31 67  1  0  0  0  0
 32 68  1  0  0  0  0
 32 71  1  0  0  0  0
 33 72  1  0  0  0  0
 33 76  2  0  0  0  0
 34 48  1  0  0  0  0
 34 73  1  0  0  0  0
 34 77  2  0  0  0  0
 35 61  1  0  0  0  0
 35 69  1  0  0  0  0
 35 78  2  0  0  0  0
 36 64  1  0  0  0  0
 36 70  1  0  0  0  0
 36 79  2  0  0  0  0
 37 62  1  0  0  0  0
 37 74  1  0  0  0  0
 37 80  2  0  0  0  0
 38 41  1  0  0  0  0
 39 48  1  0  0  0  0
 40 69  1  0  0  0  0
 41 43  1  0  0  0  0
 42 44  1  0  0  0  0
 42 45  1  0  0  0  0
 43 47  1  0  0  0  0
 44 49  1  0  0  0  0
 45 70  1  0  0  0  0
 46 49  1  0  0  0  0
 46 70  1  0  0  0  0
 47 73  1  0  0  0  0
 48 69  1  0  0  0  0
 49 68  1  0  0  0  0
 51 62  1  0  0  0  0
 52 63  1  0  0  0  0
 53 64  1  0  0  0  0
 54 64  1  0  0  0  0
 55 65  1  0  0  0  0
 56 65  1  0  0  0  0
 57 65  1  0  0  0  0
 58 75  1  0  0  0  0
 59 60  1  0  0  0  0
 60 63  1  0  0  0  0
 61 65  1  0  0  0  0
 61 74  1  0  0  0  0
 62 75  1  0  0  0  0
 63 82  1  0  0  0  0
 66 68  1  0  0  0  0
M  CHG  1  75   1
M  ISO  4  36 100  63 101  64 100  82 101
M  END
> <Batch ID>
0082

> <Smiles>
CNC(C)C(=O)NC(C(=O)N1Cc2cc([101O:1][101CH:1](C)CCc3ccc(C)c([100C:0](C)(C)[100C:0](=O)N4CCCC(n5nc(-c6ccc(Oc7ccc(F)cc7F)cc6)c(C(N)=O)c5N)C4)n3)ccc2CC1C(=O)NC1CCCc2ccccc21)C(C)(C)C

> <Shape>
0.246

> <Color>
0.060

> <Negative vol penalty>
0.000

$$$$

  -OEChem-04052318493D

 85 93  0     1  0  0  0  0  0999 V2000
  -32.0566  -25.1096   21.2682 C   0  0  0  0  0  0  0  0  0  0  0  0
  -30.8623  -24.8373   21.9277 C   0  0  0  0  0  0  0  0  0  0  0  0
  -25.2177  -31.0732   21.2937 C   0  0  0  0  0  0  0  0  0  0  0  0
  -24.4372  -29.2996   22.7368 C   0  0  0  0  0  0  0  0  0  0  0  0
  -32.3291  -24.5026   20.0430 C   0  0  0  0  0  0  0  0  0  0  0  0
  -29.9393  -23.9586   21.3618 C   0  0  0  0  0  0  0  0  0  0  0  0
  -25.0152  -19.0900   23.1967 C   0  0  0  0  0  0  0  0  0  0  0  0
  -19.9726  -18.6033   17.5045 C   0  0  0  0  0  0  0  0  0  0  0  0
  -24.5322  -32.0070   22.0705 C   0  0  0  0  0  0  0  0  0  0  0  0
  -23.7516  -30.2335   23.5137 C   0  0  0  0  0  0  0  0  0  0  0  0
  -23.6773  -18.7721   22.9675 C   0  0  0  0  0  0  0  0  0  0  0  0
  -24.9763  -33.6006   25.0194 C   0  0  0  0  0  0  0  0  0  0  0  0
  -25.6468  -34.7740   25.3646 C   0  0  0  0  0  0  0  0  0  0  0  0
  -19.7115  -18.1766   18.8018 C   0  0  0  0  0  0  0  0  0  0  0  0
  -24.2901  -17.7207   20.8847 C   0  0  0  0  0  0  0  0  0  0  0  0
  -23.9549  -36.0742   24.2314 C   0  0  0  0  0  0  0  0  0  0  0  0
  -25.1703  -29.7194   21.6268 C   0  0  0  0  0  0  0  0  0  0  0  0
  -27.2030  -28.3122   20.9982 C   0  0  0  0  0  0  0  0  0  0  0  0
  -31.4132  -23.6085   19.4664 C   0  0  0  0  0  0  0  0  0  0  0  0
  -26.0010  -18.7347   22.2648 C   0  0  0  0  0  0  0  0  0  0  0  0
  -30.1992  -23.3401   20.1271 C   0  0  0  0  0  0  0  0  0  0  0  0
  -25.6402  -18.0331   21.1056 C   0  0  0  0  0  0  0  0  0  0  0  0
  -20.5028  -19.8704   17.2888 C   0  0  0  0  0  0  0  0  0  0  0  0
  -23.7991  -31.5872   23.1805 C   0  0  0  0  0  0  0  0  0  0  0  0
  -23.3142  -18.0899   21.8100 C   0  0  0  0  0  0  0  0  0  0  0  0
  -23.7951  -33.6640   24.2802 C   0  0  0  0  0  0  0  0  0  0  0  0
  -25.1362  -36.0108   24.9706 C   0  0  0  0  0  0  0  0  0  0  0  0
  -23.2844  -34.9008   23.8862 C   0  0  0  0  0  0  0  0  0  0  0  0
  -25.8778  -28.7542   20.8244 C   0  0  0  0  0  0  0  0  0  0  0  0
  -19.9962  -19.0480   19.8407 C   0  0  0  0  0  0  0  0  0  0  0  0
  -20.7519  -20.6660   18.3954 C   0  0  0  0  0  0  0  0  0  0  0  0
  -27.3970  -27.4030   19.9871 C   0  0  0  0  0  0  0  0  0  0  0  0
  -28.1719  -28.6896   21.9853 C   0  0  0  0  0  0  0  0  0  0  0  0
  -28.0644  -20.3425   20.4590 C   0  0  0  0  0  0  0  0  0  0  0  0
  -29.1507  -17.3721   19.7389 C   0  0  0  0  0  0  0  0  0  0  0  0
  -28.5117  -14.0266   19.5242 C   0  0  0  0  0  0  0  0  0  0  0  0
  -23.6551  -23.9584   16.8274 C   0  0  0  0  0  0  0  0  0  0  0  0
  -31.7309  -23.0132   18.1176 C   0  0  0  0  0  0  0  0  0  0  0  0
  -27.4432  -19.0614   22.5396 C   0  0  0  0  0  0  0  0  0  0  0  0
  -26.6628  -17.6110   20.0836 C   0  0  0  0  0  0  0  0  0  0  0  0
  -30.8660  -21.8054   17.7659 C   0  0  0  0  0  0  0  0  0  0  0  0
  -25.9396  -26.3713   15.5484 C   0  0  0  0  0  0  0  0  0  0  0  0
  -29.3984  -22.0947   18.0647 C   0  0  0  0  0  0  0  0  0  0  0  0
  -26.3024  -27.2157   16.7712 C   0  0  0  0  0  0  0  0  0  0  0  0
  -24.4769  -25.9337   15.5786 C   0  0  0  0  0  0  0  0  0  0  0  0
  -24.4248  -26.0890   18.0376 C   0  0  0  0  0  0  0  0  0  0  0  0
  -29.1838  -22.3735   19.5572 C   0  0  1  0  0  0  0  0  0  0  0  0
  -28.2975  -19.1035   21.2763 C   0  0  1  0  0  0  0  0  0  0  0  0
  -25.9045  -26.5072   18.0800 C   0  0  2  0  0  0  0  0  0  0  0  0
  -20.7834  -20.3336   15.9011 C   0  0  0  0  0  0  0  0  0  0  0  0
  -20.8039  -23.0128   19.2976 C   0  0  0  0  0  0  0  0  0  0  0  0
  -29.5832  -11.8546   18.8674 C   0  0  0  0  0  0  0  0  0  0  0  0
  -19.1346  -17.1808   21.4061 C   0  0  0  0  0  0  0  0  0  0  0  0
  -18.6906  -19.5707   21.9244 C   0  0  0  0  0  0  0  0  0  0  0  0
  -28.8115  -18.0979   16.7947 C   0  0  0  0  0  0  0  0  0  0  0  0
  -28.9688  -15.6599   16.2475 C   0  0  0  0  0  0  0  0  0  0  0  0
  -30.8972  -16.8223   17.3211 C   0  0  0  0  0  0  0  0  0  0  0  0
  -28.1927  -12.9122   22.2473 C   0  0  0  0  0  0  0  0  0  0  0  0
  -22.8711  -22.0573   18.2168 C   0  0  0  0  0  0  0  0  0  0  0  0
  -21.0274  -18.6618   22.1254 C   0  0  0  0  0  0  0  0  0  1  0  0
  -21.3241  -22.0350   18.2244 C   0  0  1  0  0  0  0  0  0  0  0  0
  -28.8244  -16.3405   18.6861 C   0  0  1  0  0  0  0  0  0  0  0  0
  -29.2939  -12.8186   20.0074 C   0  0  2  0  0  0  0  0  0  0  0  0
  -19.7215  -18.6082   21.2911 C   0  0  0  0  0  0  0  0  0  0  0  0
  -29.3557  -16.7396   17.2805 C   0  0  0  0  0  0  0  0  0  0  0  0
  -25.2728  -28.1738   19.7846 N   0  0  0  0  0  0  0  0  0  0  0  0
  -20.5115  -20.2861   19.6704 N   0  0  0  0  0  0  0  0  0  0  0  0
  -26.2221  -27.3578   19.2959 N   0  0  0  0  0  0  0  0  0  0  0  0
  -28.0592  -17.9591   20.3944 N   0  0  0  0  0  0  0  0  0  0  0  0
  -24.1649  -25.2671   16.8452 N   0  0  0  0  0  0  0  0  0  0  0  0
  -28.4564  -26.6459   19.6308 N   0  0  0  0  0  0  0  0  0  0  0  0
  -27.8072  -29.6372   22.9514 N   0  0  0  0  0  0  0  0  0  0  0  0
  -29.1855  -21.1361   20.3079 N   0  0  0  0  0  0  0  0  0  0  0  0
  -29.3444  -15.0713   19.1832 N   0  0  0  0  0  0  0  0  0  0  0  0
  -23.3925  -23.3982   18.0716 N   0  0  0  0  0  0  0  0  0  0  0  0
  -28.5257  -12.0896   21.0559 N   0  3  0  0  0  0  0  0  0  0  0  0
  -29.3322  -28.2131   22.0000 O   0  0  0  0  0  0  0  0  0  0  0  0
  -26.9502  -20.5616   19.9982 O   0  0  0  0  0  0  0  0  0  0  0  0
  -30.3308  -17.6418   19.9760 O   0  0  0  0  0  0  0  0  0  0  0  0
  -27.2848  -14.0406   19.4527 O   0  0  0  0  0  0  0  0  0  0  0  0
  -23.4541  -23.3335   15.7805 O   0  0  0  0  0  0  0  0  0  0  0  0
  -23.1302  -32.4982   23.9389 O   0  0  0  0  0  0  0  0  0  0  0  0
  -22.0088  -17.7789   21.5835 O   0  0  0  0  0  0  0  0  0  1  0  0
  -25.7793  -37.1376   25.3035 F   0  0  0  0  0  0  0  0  0  0  0  0
  -22.1495  -34.9680   23.1769 F   0  0  0  0  0  0  0  0  0  0  0  0
  1  2  1  0  0  0  0
  1  5  2  0  0  0  0
  2  6  2  0  0  0  0
  3  9  2  0  0  0  0
  3 17  1  0  0  0  0
  4 10  1  0  0  0  0
  4 17  2  0  0  0  0
  5 19  1  0  0  0  0
  6 21  1  0  0  0  0
  7 11  2  0  0  0  0
  7 20  1  0  0  0  0
  8 14  2  0  0  0  0
  8 23  1  0  0  0  0
  9 24  1  0  0  0  0
 10 24  2  0  0  0  0
 11 25  1  0  0  0  0
 12 13  2  0  0  0  0
 12 26  1  0  0  0  0
 13 27  1  0  0  0  0
 14 30  1  0  0  0  0
 15 22  1  0  0  0  0
 15 25  2  0  0  0  0
 16 27  2  0  0  0  0
 16 28  1  0  0  0  0
 17 29  1  0  0  0  0
 18 29  1  0  0  0  0
 18 32  2  0  0  0  0
 18 33  1  0  0  0  0
 19 21  2  0  0  0  0
 19 38  1  0  0  0  0
 20 22  2  0  0  0  0
 20 39  1  0  0  0  0
 21 47  1  0  0  0  0
 22 40  1  0  0  0  0
 23 31  2  0  0  0  0
 23 50  1  0  0  0  0
 24 82  1  0  0  0  0
 25 83  1  0  0  0  0
 26 28  2  0  0  0  0
 26 82  1  0  0  0  0
 27 84  1  0  0  0  0
 28 85  1  0  0  0  0
 29 66  2  0  0  0  0
 30 64  1  0  0  0  0
 30 67  2  0  0  0  0
 31 61  1  0  0  0  0
 31 67  1  0  0  0  0
 32 68  1  0  0  0  0
 32 71  1  0  0  0  0
 33 72  1  0  0  0  0
 33 77  2  0  0  0  0
 34 48  1  0  0  0  0
 34 73  1  0  0  0  0
 34 78  2  0  0  0  0
 35 62  1  0  0  0  0
 35 69  1  0  0  0  0
 35 79  2  0  0  0  0
 36 63  1  0  0  0  0
 36 74  1  0  0  0  0
 36 80  2  0  0  0  0
 37 70  1  0  0  0  0
 37 75  1  0  0  0  0
 37 81  2  0  0  0  0
 38 41  1  0  0  0  0
 39 48  1  0  0  0  0
 40 69  1  0  0  0  0
 41 43  1  0  0  0  0
 42 44  1  0  0  0  0
 42 45  1  0  0  0  0
 43 47  1  0  0  0  0
 44 49  1  0  0  0  0
 45 70  1  0  0  0  0
 46 49  1  0  0  0  0
 46 70  1  0  0  0  0
 47 73  1  0  0  0  0
 48 69  1  0  0  0  0
 49 68  1  0  0  0  0
 51 61  1  0  0  0  0
 52 63  1  0  0  0  0
 53 64  1  0  0  0  0
 54 64  1  0  0  0  0
 55 65  1  0  0  0  0
 56 65  1  0  0  0  0
 57 65  1  0  0  0  0
 58 76  1  0  0  0  0
 59 61  1  0  0  0  0
 59 75  1  0  0  0  0
 60 64  1  0  0  0  0
 60 83  1  0  0  0  0
 62 65  1  0  0  0  0
 62 74  1  0  0  0  0
 63 76  1  0  0  0  0
 66 68  1  0  0  0  0
M  CHG  1  76   1
M  ISO  4  37 100  60 101  75 100  83 101
M  END
> <Batch ID>
0082

> <Smiles>
CNC(C)C(=O)NC(C(=O)N1Cc2cc([101O:1][101CH2:1]C(C)(C)c3ccc(C)c(C(C)C[100NH:0][100C:0](=O)N4CCCC(n5nc(-c6ccc(Oc7ccc(F)cc7F)cc6)c(C(N)=O)c5N)C4)n3)ccc2CC1C(=O)NC1CCCc2ccccc21)C(C)(C)C

> <Shape>
0.213

> <Color>
0.066

> <Negative vol penalty>
0.000

$$$$

  -OEChem-04052318493D

 85 93  0     1  0  0  0  0  0999 V2000
  -20.2842  -31.9345   18.0647 C   0  0  0  0  0  0  0  0  0  0  0  0
  -20.4043  -30.5509   18.1472 C   0  0  0  0  0  0  0  0  0  0  0  0
  -23.7165   -9.8138   21.5700 C   0  0  0  0  0  0  0  0  0  0  0  0
  -24.3309  -10.8860   23.6460 C   0  0  0  0  0  0  0  0  0  0  0  0
  -21.2597  -32.7528   18.6329 C   0  0  0  0  0  0  0  0  0  0  0  0
  -21.5005  -29.9848   18.7969 C   0  0  0  0  0  0  0  0  0  0  0  0
  -23.3202  -24.2950   22.7505 C   0  0  0  0  0  0  0  0  0  0  0  0
  -23.1669   -8.7483   22.2829 C   0  0  0  0  0  0  0  0  0  0  0  0
  -23.7812   -9.8205   24.3590 C   0  0  0  0  0  0  0  0  0  0  0  0
  -24.2658  -23.2714   22.7937 C   0  0  0  0  0  0  0  0  0  0  0  0
  -20.3189   -8.0951   23.9845 C   0  0  0  0  0  0  0  0  0  0  0  0
  -19.0692   -7.6230   23.5836 C   0  0  0  0  0  0  0  0  0  0  0  0
  -25.8483  -24.7840   23.8069 C   0  0  0  0  0  0  0  0  0  0  0  0
  -29.3471  -19.4020   22.3775 C   0  0  0  0  0  0  0  0  0  0  0  0
  -20.0268   -5.4452   23.1626 C   0  0  0  0  0  0  0  0  0  0  0  0
  -27.1584  -19.3158   24.0048 C   0  0  0  0  0  0  0  0  0  0  0  0
  -24.2986  -10.8826   22.2515 C   0  0  0  0  0  0  0  0  0  0  0  0
  -24.2116  -13.1587   21.1028 C   0  0  0  0  0  0  0  0  0  0  0  0
  -22.3635  -32.1965   19.2983 C   0  0  0  0  0  0  0  0  0  0  0  0
  -23.6358  -25.5759   23.2261 C   0  0  0  0  0  0  0  0  0  0  0  0
  -22.4924  -30.7964   19.3733 C   0  0  0  0  0  0  0  0  0  0  0  0
  -24.9042  -25.8215   23.7710 C   0  0  0  0  0  0  0  0  0  0  0  0
  -28.3191  -20.3186   22.1872 C   0  0  0  0  0  0  0  0  0  0  0  0
  -27.2004  -20.2815   23.0121 C   0  0  0  0  0  0  0  0  0  0  0  0
  -23.1992   -8.7517   23.6774 C   0  0  0  0  0  0  0  0  0  0  0  0
  -25.5310  -23.5165   23.3193 C   0  0  0  0  0  0  0  0  0  0  0  0
  -21.4227   -7.2423   23.9744 C   0  0  0  0  0  0  0  0  0  0  0  0
  -18.9231   -6.2981   23.1727 C   0  0  0  0  0  0  0  0  0  0  0  0
  -21.2767   -5.9174   23.5635 C   0  0  0  0  0  0  0  0  0  0  0  0
  -24.8671  -11.9832   21.5156 C   0  0  0  0  0  0  0  0  0  0  0  0
  -29.2091  -18.4758   23.3988 C   0  0  0  0  0  0  0  0  0  0  0  0
  -25.1791  -13.8787   20.4456 C   0  0  0  0  0  0  0  0  0  0  0  0
  -22.8498  -13.5635   21.2962 C   0  0  0  0  0  0  0  0  0  0  0  0
  -23.8075  -28.4717   21.9266 C   0  0  0  0  0  0  0  0  0  0  0  0
  -24.3020  -29.3940   24.9970 C   0  0  0  0  0  0  0  0  0  0  0  0
  -25.3409  -28.5637   28.1399 C   0  0  0  0  0  0  0  0  0  0  0  0
  -31.1561  -13.9445   20.7958 C   0  0  0  0  0  0  0  0  0  0  0  0
  -23.4166  -33.1211   19.8557 C   0  0  0  0  0  0  0  0  0  0  0  0
  -22.5958  -26.6623   23.1970 C   0  0  0  0  0  0  0  0  0  0  0  0
  -25.2861  -27.1738   24.3132 C   0  0  0  0  0  0  0  0  0  0  0  0
  -24.3547  -32.4452   20.8526 C   0  0  0  0  0  0  0  0  0  0  0  0
  -29.1883  -13.3082   17.8976 C   0  0  0  0  0  0  0  0  0  0  0  0
  -24.8323  -31.1020   20.3100 C   0  0  0  0  0  0  0  0  0  0  0  0
  -27.7985  -13.0025   18.4590 C   0  0  0  0  0  0  0  0  0  0  0  0
  -30.2936  -12.7608   18.7980 C   0  0  0  0  0  0  0  0  0  0  0  0
  -28.8198  -12.8779   20.7698 C   0  0  0  0  0  0  0  0  0  0  0  0
  -23.6542  -30.1449   20.0914 C   0  0  1  0  0  0  0  0  0  0  0  0
  -23.1954  -28.0645   23.2370 C   0  0  1  0  0  0  0  0  0  0  0  0
  -27.6731  -13.4589   19.9250 C   0  0  2  0  0  0  0  0  0  0  0  0
  -28.4368  -21.3302   21.0957 C   0  0  0  0  0  0  0  0  0  0  0  0
  -25.6654  -29.5389   30.4293 C   0  0  0  0  0  0  0  0  0  0  0  0
  -26.8276  -30.8092   24.0334 C   0  0  0  0  0  0  0  0  0  0  0  0
  -27.5834  -30.9336   26.4170 C   0  0  0  0  0  0  0  0  0  0  0  0
  -25.4893  -32.0916   25.7124 C   0  0  0  0  0  0  0  0  0  0  0  0
  -32.5225  -16.2449   25.0030 C   0  0  0  0  0  0  0  0  0  0  0  0
  -31.1218  -14.1825   25.0960 C   0  0  0  0  0  0  0  0  0  0  0  0
  -23.4072  -26.6751   29.3453 C   0  0  0  0  0  0  0  0  0  0  0  0
  -26.0626  -21.2462   22.8511 C   0  0  0  0  0  0  0  0  0  1  0  0
  -30.0958  -16.3164   24.2800 C   0  0  0  0  0  0  0  0  0  0  0  0
  -31.8739  -15.1087   22.8667 C   0  0  0  0  0  0  0  0  0  0  0  0
  -25.5149  -29.5689   25.8786 C   0  0  1  0  0  0  0  0  0  0  0  0
  -24.7142  -28.7978   29.5027 C   0  0  2  0  0  0  0  0  0  0  0  0
  -26.3475  -30.8257   25.4984 C   0  0  0  0  0  0  0  0  0  0  0  0
  -31.3929  -15.4713   24.2922 C   0  0  0  0  0  0  0  0  0  0  0  0
  -28.1374  -18.4087   24.2202 N   0  0  0  0  0  0  0  0  0  0  0  0
  -26.1517  -11.9541   21.1511 N   0  0  0  0  0  0  0  0  0  0  0  0
  -26.3112  -13.1201   20.5022 N   0  0  0  0  0  0  0  0  0  0  0  0
  -24.2368  -28.2050   24.2568 N   0  0  0  0  0  0  0  0  0  0  0  0
  -30.1175  -13.2321   20.1738 N   0  0  0  0  0  0  0  0  0  0  0  0
  -25.1634  -15.0802   19.8305 N   0  0  0  0  0  0  0  0  0  0  0  0
  -21.9899  -12.7042   21.9936 N   0  0  0  0  0  0  0  0  0  0  0  0
  -30.2649  -17.5481   23.5804 N   0  0  0  0  0  0  0  0  0  0  0  0
  -23.2195  -29.5824   21.3520 N   0  0  0  0  0  0  0  0  0  0  0  0
  -25.0241  -29.5704   27.2525 N   0  0  0  0  0  0  0  0  0  0  0  0
  -30.9048  -14.3603   22.0976 N   0  0  0  0  0  0  0  0  0  0  0  0
  -24.3563  -27.4982   30.1383 N   0  3  0  0  0  0  0  0  0  0  0  0
  -22.4044  -14.6476   20.8491 O   0  0  0  0  0  0  0  0  0  0  0  0
  -24.7448  -27.8269   21.4713 O   0  0  0  0  0  0  0  0  0  0  0  0
  -23.4404  -30.2765   24.9717 O   0  0  0  0  0  0  0  0  0  0  0  0
  -26.0443  -27.5876   27.8890 O   0  0  0  0  0  0  0  0  0  0  0  0
  -32.2258  -14.1964   20.2309 O   0  0  0  0  0  0  0  0  0  0  0  0
  -22.6627   -7.7123   24.3734 O   0  0  0  0  0  0  0  0  0  0  0  0
  -26.4560  -22.5193   23.3620 O   0  0  0  0  0  0  0  0  0  1  0  0
  -17.7225   -5.8444   22.7893 F   0  0  0  0  0  0  0  0  0  0  0  0
  -22.3332   -5.0930   23.5528 F   0  0  0  0  0  0  0  0  0  0  0  0
  1  2  1  0  0  0  0
  1  5  2  0  0  0  0
  2  6  2  0  0  0  0
  3  8  2  0  0  0  0
  3 17  1  0  0  0  0
  4  9  1  0  0  0  0
  4 17  2  0  0  0  0
  5 19  1  0  0  0  0
  6 21  1  0  0  0  0
  7 10  2  0  0  0  0
  7 20  1  0  0  0  0
  8 25  1  0  0  0  0
  9 25  2  0  0  0  0
 10 26  1  0  0  0  0
 11 12  2  0  0  0  0
 11 27  1  0  0  0  0
 12 28  1  0  0  0  0
 13 22  1  0  0  0  0
 13 26  2  0  0  0  0
 14 23  1  0  0  0  0
 14 31  2  0  0  0  0
 15 28  2  0  0  0  0
 15 29  1  0  0  0  0
 16 24  1  0  0  0  0
 16 65  2  0  0  0  0
 17 30  1  0  0  0  0
 18 30  1  0  0  0  0
 18 32  2  0  0  0  0
 18 33  1  0  0  0  0
 19 21  2  0  0  0  0
 19 38  1  0  0  0  0
 20 22  2  0  0  0  0
 20 39  1  0  0  0  0
 21 47  1  0  0  0  0
 22 40  1  0  0  0  0
 23 24  2  0  0  0  0
 23 50  1  0  0  0  0
 24 58  1  0  0  0  0
 25 82  1  0  0  0  0
 26 83  1  0  0  0  0
 27 29  2  0  0  0  0
 27 82  1  0  0  0  0
 28 84  1  0  0  0  0
 29 85  1  0  0  0  0
 30 66  2  0  0  0  0
 31 65  1  0  0  0  0
 31 72  1  0  0  0  0
 32 67  1  0  0  0  0
 32 70  1  0  0  0  0
 33 71  1  0  0  0  0
 33 77  2  0  0  0  0
 34 48  1  0  0  0  0
 34 73  1  0  0  0  0
 34 78  2  0  0  0  0
 35 61  1  0  0  0  0
 35 68  1  0  0  0  0
 35 79  2  0  0  0  0
 36 62  1  0  0  0  0
 36 74  1  0  0  0  0
 36 80  2  0  0  0  0
 37 69  1  0  0  0  0
 37 75  1  0  0  0  0
 37 81  2  0  0  0  0
 38 41  1  0  0  0  0
 39 48  1  0  0  0  0
 40 68  1  0  0  0  0
 41 43  1  0  0  0  0
 42 44  1  0  0  0  0
 42 45  1  0  0  0  0
 43 47  1  0  0  0  0
 44 49  1  0  0  0  0
 45 69  1  0  0  0  0
 46 49  1  0  0  0  0
 46 69  1  0  0  0  0
 47 73  1  0  0  0  0
 48 68  1  0  0  0  0
 49 67  1  0  0  0  0
 51 62  1  0  0  0  0
 52 63  1  0  0  0  0
 53 63  1  0  0  0  0
 54 63  1  0  0  0  0
 55 64  1  0  0  0  0
 56 64  1  0  0  0  0
 57 76  1  0  0  0  0
 58 83  1  0  0  0  0
 59 64  1  0  0  0  0
 59 72  1  0  0  0  0
 60 64  1  0  0  0  0
 60 75  1  0  0  0  0
 61 63  1  0  0  0  0
 61 74  1  0  0  0  0
 62 76  1  0  0  0  0
 66 67  1  0  0  0  0
M  CHG  1  76   1
M  ISO  4  37 100  58 101  75 100  83 101
M  END
> <Batch ID>
0082

> <Smiles>
CNC(C)C(=O)NC(C(=O)N1Cc2cc([101O:1][101CH2:1]c3cnc(NCC(C)(C)C[100NH:0][100C:0](=O)N4CCCC(n5nc(-c6ccc(Oc7ccc(F)cc7F)cc6)c(C(N)=O)c5N)C4)cc3C)ccc2CC1C(=O)NC1CCCc2ccccc21)C(C)(C)C

> <Shape>
0.226

> <Color>
0.146

> <Negative vol penalty>
0.000

$$$$

  -OEChem-04052318493D

 83 91  0     1  0  0  0  0  0999 V2000
  -23.7438   -7.8938   21.2324 C   0  0  0  0  0  0  0  0  0  0  0  0
  -24.2353   -8.9256   20.4391 C   0  0  0  0  0  0  0  0  0  0  0  0
  -23.7767  -28.6249   23.3405 C   0  0  0  0  0  0  0  0  0  0  0  0
  -25.1074  -29.7390   21.6597 C   0  0  0  0  0  0  0  0  0  0  0  0
  -22.6163   -8.1024   22.0255 C   0  0  0  0  0  0  0  0  0  0  0  0
  -23.5988  -10.1663   20.4377 C   0  0  0  0  0  0  0  0  0  0  0  0
  -26.8647  -14.0255   20.7296 C   0  0  0  0  0  0  0  0  0  0  0  0
  -23.3583  -29.8624   23.8295 C   0  0  0  0  0  0  0  0  0  0  0  0
  -24.6890  -30.9765   22.1486 C   0  0  0  0  0  0  0  0  0  0  0  0
  -27.5394  -14.3784   19.5617 C   0  0  0  0  0  0  0  0  0  0  0  0
  -24.2554  -34.4343   23.1807 C   0  0  0  0  0  0  0  0  0  0  0  0
  -25.2218  -35.4265   23.3462 C   0  0  0  0  0  0  0  0  0  0  0  0
  -25.9913  -16.1975   19.2242 C   0  0  0  0  0  0  0  0  0  0  0  0
  -26.4092  -34.0104   24.9024 C   0  0  0  0  0  0  0  0  0  0  0  0
  -31.0890  -19.2985   18.4649 C   0  0  0  0  0  0  0  0  0  0  0  0
  -24.6513  -28.5632   22.2556 C   0  0  0  0  0  0  0  0  0  0  0  0
  -24.4659  -26.5132   20.7487 C   0  0  0  0  0  0  0  0  0  0  0  0
  -21.9714   -9.3491   22.0412 C   0  0  0  0  0  0  0  0  0  0  0  0
  -25.7398  -14.7505   21.1485 C   0  0  0  0  0  0  0  0  0  0  0  0
  -22.4608  -10.3913   21.2308 C   0  0  0  0  0  0  0  0  0  0  0  0
  -25.3057  -15.8533   20.3992 C   0  0  0  0  0  0  0  0  0  0  0  0
  -23.8144  -31.0382   23.2335 C   0  0  0  0  0  0  0  0  0  0  0  0
  -27.1010  -15.4627   18.8072 C   0  0  0  0  0  0  0  0  0  0  0  0
  -24.3659  -33.2302   23.8762 C   0  0  0  0  0  0  0  0  0  0  0  0
  -26.2987  -35.2146   24.2070 C   0  0  0  0  0  0  0  0  0  0  0  0
  -25.4428  -33.0183   24.7370 C   0  0  0  0  0  0  0  0  0  0  0  0
  -25.0844  -27.2852   21.7504 C   0  0  0  0  0  0  0  0  0  0  0  0
  -30.4392  -18.0845   18.5554 C   0  0  0  0  0  0  0  0  0  0  0  0
  -31.1777  -20.0172   19.6395 C   0  0  0  0  0  0  0  0  0  0  0  0
  -25.2592  -25.3976   20.6362 C   0  0  0  0  0  0  0  0  0  0  0  0
  -30.0643  -18.3936   20.7759 C   0  0  0  0  0  0  0  0  0  0  0  0
  -23.2804  -26.7806   19.9880 C   0  0  0  0  0  0  0  0  0  0  0  0
  -22.6724  -14.0602   21.6151 C   0  0  0  0  0  0  0  0  0  0  0  0
  -22.5674  -17.0915   22.7650 C   0  0  0  0  0  0  0  0  0  0  0  0
  -23.9271  -20.2213   22.8112 C   0  0  0  0  0  0  0  0  0  0  0  0
  -30.2086  -23.1056   20.1917 C   0  0  0  0  0  0  0  0  0  0  0  0
  -20.7278   -9.5127   22.8787 C   0  0  0  0  0  0  0  0  0  0  0  0
  -25.0392  -14.3735   22.4250 C   0  0  0  0  0  0  0  0  0  0  0  0
  -24.1156  -16.6766   20.8165 C   0  0  0  0  0  0  0  0  0  0  0  0
  -20.3334  -10.9699   23.1055 C   0  0  0  0  0  0  0  0  0  0  0  0
  -29.0388  -23.7341   23.5583 C   0  0  0  0  0  0  0  0  0  0  0  0
  -20.3907  -11.7485   21.7951 C   0  0  0  0  0  0  0  0  0  0  0  0
  -27.8465  -24.6568   23.2987 C   0  0  0  0  0  0  0  0  0  0  0  0
  -30.1821  -24.0225   22.5898 C   0  0  0  0  0  0  0  0  0  0  0  0
  -28.6125  -24.8689   20.8887 C   0  0  0  0  0  0  0  0  0  0  0  0
  -21.8126  -11.7588   21.2211 C   0  0  1  0  0  0  0  0  0  0  0  0
  -23.5967  -14.8665   22.4829 C   0  0  1  0  0  0  0  0  0  0  0  0
  -27.4147  -24.6120   21.8210 C   0  0  2  0  0  0  0  0  0  0  0  0
  -29.4987  -17.8900   22.0606 C   0  0  0  0  0  0  0  0  0  0  0  0
  -33.3690  -21.2325   19.9272 C   0  0  0  0  0  0  0  0  0  0  0  0
  -23.5989  -22.4970   23.8166 C   0  0  0  0  0  0  0  0  0  0  0  0
  -20.2695  -17.6138   20.8267 C   0  0  0  0  0  0  0  0  0  0  0  0
  -20.6211  -20.0673   21.1802 C   0  0  0  0  0  0  0  0  0  0  0  0
  -19.9655  -18.6138   23.0986 C   0  0  0  0  0  0  0  0  0  0  0  0
  -26.5560  -20.1288   24.1674 C   0  0  0  0  0  0  0  0  0  0  0  0
  -30.2929  -17.2264   17.3242 C   0  0  0  0  0  0  0  0  0  0  0  0
  -29.0162  -17.5045   16.5278 C   0  0  0  0  0  0  0  0  0  0  0  0
  -27.7413  -17.1883   17.3011 C   0  0  0  0  0  0  0  0  0  1  0  0
  -31.8646  -21.3418   19.6407 C   0  0  2  0  0  0  0  0  0  0  0  0
  -22.3103  -18.4535   22.1668 C   0  0  1  0  0  0  0  0  0  0  0  0
  -24.2848  -21.1473   23.9597 C   0  0  2  0  0  0  0  0  0  0  0  0
  -20.8129  -18.6706   21.8089 C   0  0  0  0  0  0  0  0  0  0  0  0
  -26.1856  -26.7088   22.2394 N   0  0  0  0  0  0  0  0  0  0  0  0
  -29.9129  -17.5994   19.6990 N   0  0  0  0  0  0  0  0  0  0  0  0
  -30.6745  -19.5934   20.8175 N   0  0  0  0  0  0  0  0  0  0  0  0
  -26.2652  -25.5626   21.5422 N   0  0  0  0  0  0  0  0  0  0  0  0
  -23.4601  -16.2644   22.0687 N   0  0  0  0  0  0  0  0  0  0  0  0
  -29.7088  -23.9458   21.2005 N   0  0  0  0  0  0  0  0  0  0  0  0
  -25.1873  -24.3013   19.8516 N   0  0  0  0  0  0  0  0  0  0  0  0
  -22.5861  -27.9737   20.2302 N   0  0  0  0  0  0  0  0  0  0  0  0
  -22.6366  -12.7149   21.9291 N   0  0  0  0  0  0  0  0  0  0  0  0
  -22.8445  -19.4238   23.1163 N   0  0  0  0  0  0  0  0  0  0  0  0
  -31.2509  -22.2670   20.5672 N   0  0  0  0  0  0  0  0  0  0  0  0
  -25.7575  -21.3710   24.0053 N   0  3  0  0  0  0  0  0  0  0  0  0
  -22.8404  -25.9774   19.1308 O   0  0  0  0  0  0  0  0  0  0  0  0
  -22.0375  -14.6174   20.7274 O   0  0  0  0  0  0  0  0  0  0  0  0
  -22.0026  -16.7759   23.8152 O   0  0  0  0  0  0  0  0  0  0  0  0
  -24.5439  -20.2095   21.7482 O   0  0  0  0  0  0  0  0  0  0  0  0
  -29.7555  -23.0991   19.0420 O   0  0  0  0  0  0  0  0  0  0  0  0
  -23.4061  -32.2459   23.7103 O   0  0  0  0  0  0  0  0  0  0  0  0
  -27.7573  -15.8089   17.6665 O   0  0  0  0  0  0  0  0  0  1  0  0
  -27.2274  -36.1668   24.3645 F   0  0  0  0  0  0  0  0  0  0  0  0
  -25.5549  -31.8631   25.4069 F   0  0  0  0  0  0  0  0  0  0  0  0
  1  2  1  0  0  0  0
  1  5  2  0  0  0  0
  2  6  2  0  0  0  0
  3  8  2  0  0  0  0
  3 16  1  0  0  0  0
  4  9  1  0  0  0  0
  4 16  2  0  0  0  0
  5 18  1  0  0  0  0
  6 20  1  0  0  0  0
  7 10  2  0  0  0  0
  7 19  1  0  0  0  0
  8 22  1  0  0  0  0
  9 22  2  0  0  0  0
 10 23  1  0  0  0  0
 11 12  2  0  0  0  0
 11 24  1  0  0  0  0
 12 25  1  0  0  0  0
 13 21  1  0  0  0  0
 13 23  2  0  0  0  0
 14 25  2  0  0  0  0
 14 26  1  0  0  0  0
 15 28  1  0  0  0  0
 15 29  2  0  0  0  0
 16 27  1  0  0  0  0
 17 27  1  0  0  0  0
 17 30  2  0  0  0  0
 17 32  1  0  0  0  0
 18 20  2  0  0  0  0
 18 37  1  0  0  0  0
 19 21  2  0  0  0  0
 19 38  1  0  0  0  0
 20 46  1  0  0  0  0
 21 39  1  0  0  0  0
 22 80  1  0  0  0  0
 23 81  1  0  0  0  0
 24 26  2  0  0  0  0
 24 80  1  0  0  0  0
 25 82  1  0  0  0  0
 26 83  1  0  0  0  0
 27 63  2  0  0  0  0
 28 56  1  0  0  0  0
 28 64  2  0  0  0  0
 29 59  1  0  0  0  0
 29 65  1  0  0  0  0
 30 66  1  0  0  0  0
 30 69  1  0  0  0  0
 31 49  1  0  0  0  0
 31 64  1  0  0  0  0
 31 65  2  0  0  0  0
 32 70  1  0  0  0  0
 32 75  2  0  0  0  0
 33 47  1  0  0  0  0
 33 71  1  0  0  0  0
 33 76  2  0  0  0  0
 34 60  1  0  0  0  0
 34 67  1  0  0  0  0
 34 77  2  0  0  0  0
 35 61  1  0  0  0  0
 35 72  1  0  0  0  0
 35 78  2  0  0  0  0
 36 68  1  0  0  0  0
 36 73  1  0  0  0  0
 36 79  2  0  0  0  0
 37 40  1  0  0  0  0
 38 47  1  0  0  0  0
 39 67  1  0  0  0  0
 40 42  1  0  0  0  0
 41 43  1  0  0  0  0
 41 44  1  0  0  0  0
 42 46  1  0  0  0  0
 43 48  1  0  0  0  0
 44 68  1  0  0  0  0
 45 48  1  0  0  0  0
 45 68  1  0  0  0  0
 46 71  1  0  0  0  0
 47 67  1  0  0  0  0
 48 66  1  0  0  0  0
 50 59  1  0  0  0  0
 51 61  1  0  0  0  0
 52 62  1  0  0  0  0
 53 62  1  0  0  0  0
 54 62  1  0  0  0  0
 55 74  1  0  0  0  0
 56 57  1  0  0  0  0
 57 58  1  0  0  0  0
 58 81  1  0  0  0  0
 59 73  1  0  0  0  0
 60 62  1  0  0  0  0
 60 72  1  0  0  0  0
 61 74  1  0  0  0  0
 63 66  1  0  0  0  0
M  CHG  1  74   1
M  ISO  4  36 100  58 101  73 100  81 101
M  END
> <Batch ID>
0082

> <Smiles>
CNC(C)C(=O)NC(C(=O)N1Cc2cc([101O:1][101CH2:1]CCc3cc(C(C)[100NH:0][100C:0](=O)N4CCCC(n5nc(-c6ccc(Oc7ccc(F)cc7F)cc6)c(C(N)=O)c5N)C4)nc(C)n3)ccc2CC1C(=O)NC1CCCc2ccccc21)C(C)(C)C

> <Shape>
0.205

> <Color>
0.097

> <Negative vol penalty>
0.000

$$$$

  -OEChem-04052318493D

 89 97  0     1  0  0  0  0  0999 V2000
  -24.3960  -19.6146   25.6215 C   0  0  0  0  0  0  0  0  0  0  0  0
  -24.2233  -20.9472   25.9784 C   0  0  0  0  0  0  0  0  0  0  0  0
  -25.7704  -14.3023   21.0651 C   0  0  0  0  0  0  0  0  0  0  0  0
  -25.8133  -14.4945   18.6571 C   0  0  0  0  0  0  0  0  0  0  0  0
  -24.0062  -19.1797   24.3565 C   0  0  0  0  0  0  0  0  0  0  0  0
  -23.6499  -21.8426   25.0750 C   0  0  0  0  0  0  0  0  0  0  0  0
  -22.7563  -27.8560   25.4845 C   0  0  0  0  0  0  0  0  0  0  0  0
  -24.7684  -13.3365   20.9702 C   0  0  0  0  0  0  0  0  0  0  0  0
  -24.8114  -13.5287   18.5622 C   0  0  0  0  0  0  0  0  0  0  0  0
  -23.4386  -29.0233   25.1444 C   0  0  0  0  0  0  0  0  0  0  0  0
  -22.4531  -10.5592   21.3456 C   0  0  0  0  0  0  0  0  0  0  0  0
  -22.5783   -9.4153   22.1337 C   0  0  0  0  0  0  0  0  0  0  0  0
  -22.1748  -29.1574   23.0940 C   0  0  0  0  0  0  0  0  0  0  0  0
  -29.5639  -28.0035   18.3210 C   0  0  0  0  0  0  0  0  0  0  0  0
  -24.6711   -8.8941   21.0448 C   0  0  0  0  0  0  0  0  0  0  0  0
  -26.2928  -14.8813   19.9086 C   0  0  0  0  0  0  0  0  0  0  0  0
  -28.7185  -15.6640   20.0134 C   0  0  0  0  0  0  0  0  0  0  0  0
  -23.4392  -20.0736   23.4333 C   0  0  0  0  0  0  0  0  0  0  0  0
  -21.7842  -27.3238   24.6253 C   0  0  0  0  0  0  0  0  0  0  0  0
  -23.2280  -21.4177   23.8021 C   0  0  0  0  0  0  0  0  0  0  0  0
  -21.4798  -27.9847   23.4267 C   0  0  0  0  0  0  0  0  0  0  0  0
  -29.0726  -29.2145   18.7956 C   0  0  0  0  0  0  0  0  0  0  0  0
  -28.1620  -29.2251   19.8464 C   0  0  0  0  0  0  0  0  0  0  0  0
  -24.2890  -12.9497   19.7187 C   0  0  0  0  0  0  0  0  0  0  0  0
  -23.1500  -29.6726   23.9477 C   0  0  0  0  0  0  0  0  0  0  0  0
  -23.4369  -10.8706   20.4069 C   0  0  0  0  0  0  0  0  0  0  0  0
  -23.6873   -8.5827   21.9834 C   0  0  0  0  0  0  0  0  0  0  0  0
  -24.5459  -10.0380   20.2566 C   0  0  0  0  0  0  0  0  0  0  0  0
  -27.3273  -15.8795   20.0060 C   0  0  0  0  0  0  0  0  0  0  0  0
  -29.1168  -26.8402   18.9265 C   0  0  0  0  0  0  0  0  0  0  0  0
  -27.7775  -28.0071   20.3835 C   0  0  0  0  0  0  0  0  0  0  0  0
  -29.2602  -16.9214   20.1226 C   0  0  0  0  0  0  0  0  0  0  0  0
  -29.4552  -14.4369   19.9291 C   0  0  0  0  0  0  0  0  0  0  0  0
  -21.4577  -24.5989   23.0216 C   0  0  0  0  0  0  0  0  0  0  0  0
  -18.5310  -25.8121   22.3255 C   0  0  0  0  0  0  0  0  0  0  0  0
  -16.5403  -28.5638   21.9900 C   0  0  0  0  0  0  0  0  0  0  0  0
  -27.2129  -22.2350   18.5638 C   0  0  0  0  0  0  0  0  0  0  0  0
  -23.0280  -19.5476   22.0807 C   0  0  0  0  0  0  0  0  0  0  0  0
  -21.0382  -26.0785   25.0192 C   0  0  0  0  0  0  0  0  0  0  0  0
  -20.4305  -27.4654   22.4792 C   0  0  0  0  0  0  0  0  0  0  0  0
  -22.8440  -20.6515   21.0444 C   0  0  0  0  0  0  0  0  0  0  0  0
  -28.3050  -21.2709   21.8767 C   0  0  0  0  0  0  0  0  0  0  0  0
  -21.9659  -21.7565   21.6123 C   0  0  0  0  0  0  0  0  0  0  0  0
  -28.3080  -19.7453   21.7640 C   0  0  0  0  0  0  0  0  0  0  0  0
  -27.1377  -21.8799   21.1056 C   0  0  0  0  0  0  0  0  0  0  0  0
  -27.0816  -19.9665   19.5534 C   0  0  0  0  0  0  0  0  0  0  0  0
  -22.6345  -22.4164   22.8250 C   0  0  1  0  0  0  0  0  0  0  0  0
  -20.4315  -25.3434   23.8280 C   0  0  1  0  0  0  0  0  0  0  0  0
  -28.2511  -19.2920   20.2931 C   0  0  2  0  0  0  0  0  0  0  0  0
  -29.5346  -30.4842   18.1605 C   0  0  0  0  0  0  0  0  0  0  0  0
  -26.8033  -27.9544   21.5148 C   0  0  0  0  0  0  0  0  0  0  0  0
  -14.2043  -29.2417   21.3729 C   0  0  0  0  0  0  0  0  0  0  0  0
  -25.2167  -33.2272   22.7335 C   0  0  0  0  0  0  0  0  0  0  0  0
  -19.1764  -25.3458   19.3800 C   0  0  0  0  0  0  0  0  0  0  0  0
  -17.2816  -26.8741   18.7948 C   0  0  0  0  0  0  0  0  0  0  0  0
  -16.8368  -24.7593   20.0408 C   0  0  0  0  0  0  0  0  0  0  0  0
  -16.0582  -29.7566   24.6552 C   0  0  0  0  0  0  0  0  0  0  0  0
  -26.0547  -30.7202   18.4525 C   0  0  0  0  0  0  0  0  0  0  0  0
  -27.6167  -30.5165   20.3810 C   0  0  0  0  0  0  0  0  0  0  0  0
  -29.6237  -25.5221   18.4441 C   0  0  0  0  0  0  0  0  0  0  0  0
  -28.7808  -24.8877   17.3206 C   0  0  0  0  0  0  0  0  0  0  0  0
  -27.3425  -24.5647   17.7197 C   0  0  0  0  0  0  0  0  0  0  0  0
  -25.6451  -32.0302   20.5305 C   0  0  0  0  0  0  0  0  0  0  0  0
  -24.0017  -31.0699   22.2220 C   0  0  0  0  0  0  0  0  0  1  0  0
  -17.9680  -26.6833   21.2286 C   0  0  1  0  0  0  0  0  0  0  0  0
  -15.1457  -28.8672   22.5070 C   0  0  2  0  0  0  0  0  0  0  0  0
  -25.2901  -31.8759   22.0138 C   0  0  2  0  0  0  0  0  0  0  0  0
  -17.8369  -25.9246   19.8778 C   0  0  0  0  0  0  0  0  0  0  0  0
  -27.0053  -17.1721   20.1029 N   0  0  0  0  0  0  0  0  0  0  0  0
  -28.2331  -26.8106   19.9491 N   0  0  0  0  0  0  0  0  0  0  0  0
  -28.2017  -17.7802   20.1724 N   0  0  0  0  0  0  0  0  0  0  0  0
  -19.7330  -26.2411   22.9059 N   0  0  0  0  0  0  0  0  0  0  0  0
  -27.1520  -21.4233   19.7087 N   0  0  0  0  0  0  0  0  0  0  0  0
  -30.5338  -17.3652   20.1800 N   0  0  0  0  0  0  0  0  0  0  0  0
  -28.7418  -13.2353   19.8212 N   0  0  0  0  0  0  0  0  0  0  0  0
  -21.6884  -23.3084   23.4583 N   0  0  0  0  0  0  0  0  0  0  0  0
  -16.7101  -27.2189   21.7377 N   0  0  0  0  0  0  0  0  0  0  0  0
  -27.2702  -23.6035   18.7975 N   0  0  0  0  0  0  0  0  0  0  0  0
  -15.1873  -29.9984   23.4763 N   0  3  0  0  0  0  0  0  0  0  0  0
  -26.1924  -30.7788   19.9547 N   0  3  1  0  0  0  0  0  0  0  0  0
  -30.7087  -14.4055   19.9653 O   0  0  0  0  0  0  0  0  0  0  0  0
  -21.9990  -25.1537   22.0724 O   0  0  0  0  0  0  0  0  0  0  0  0
  -17.9227  -24.7924   22.6601 O   0  0  0  0  0  0  0  0  0  0  0  0
  -17.3926  -29.4334   21.8228 O   0  0  0  0  0  0  0  0  0  0  0  0
  -27.2211  -21.7739   17.4173 O   0  0  0  0  0  0  0  0  0  0  0  0
  -23.3115  -12.0071   19.6257 O   0  0  0  0  0  0  0  0  0  0  0  0
  -23.8149  -30.8118   23.6130 O   0  0  0  0  0  0  0  0  0  1  0  0
  -23.8082   -7.4850   22.7414 F   0  0  0  0  0  0  0  0  0  0  0  0
  -25.4948  -10.3326   19.3573 F   0  0  0  0  0  0  0  0  0  0  0  0
  1  2  1  0  0  0  0
  1  5  2  0  0  0  0
  2  6  2  0  0  0  0
  3  8  2  0  0  0  0
  3 16  1  0  0  0  0
  4  9  1  0  0  0  0
  4 16  2  0  0  0  0
  5 18  1  0  0  0  0
  6 20  1  0  0  0  0
  7 10  2  0  0  0  0
  7 19  1  0  0  0  0
  8 24  1  0  0  0  0
  9 24  2  0  0  0  0
 10 25  1  0  0  0  0
 11 12  2  0  0  0  0
 11 26  1  0  0  0  0
 12 27  1  0  0  0  0
 13 21  1  0  0  0  0
 13 25  2  0  0  0  0
 14 22  2  0  0  0  0
 14 30  1  0  0  0  0
 15 27  2  0  0  0  0
 15 28  1  0  0  0  0
 16 29  1  0  0  0  0
 17 29  1  0  0  0  0
 17 32  2  0  0  0  0
 17 33  1  0  0  0  0
 18 20  2  0  0  0  0
 18 38  1  0  0  0  0
 19 21  2  0  0  0  0
 19 39  1  0  0  0  0
 20 47  1  0  0  0  0
 21 40  1  0  0  0  0
 22 23  1  0  0  0  0
 22 50  1  0  0  0  0
 23 31  2  0  0  0  0
 23 59  1  0  0  0  0
 24 86  1  0  0  0  0
 25 87  1  0  0  0  0
 26 28  2  0  0  0  0
 26 86  1  0  0  0  0
 27 88  1  0  0  0  0
 28 89  1  0  0  0  0
 29 69  2  0  0  0  0
 30 60  1  0  0  0  0
 30 70  2  0  0  0  0
 31 51  1  0  0  0  0
 31 70  1  0  0  0  0
 32 71  1  0  0  0  0
 32 74  1  0  0  0  0
 33 75  1  0  0  0  0
 33 81  2  0  0  0  0
 34 48  1  0  0  0  0
 34 76  1  0  0  0  0
 34 82  2  0  0  0  0
 35 65  1  0  0  0  0
 35 72  1  0  0  0  0
 35 83  2  0  0  0  0
 36 66  1  0  0  0  0
 36 77  1  0  0  0  0
 36 84  2  0  0  0  0
 37 73  1  0  0  0  0
 37 78  1  0  0  0  0
 37 85  2  0  0  0  0
 38 41  1  0  0  0  0
 39 48  1  0  0  0  0
 40 72  1  0  0  0  0
 41 43  1  0  0  0  0
 42 44  1  0  0  0  0
 42 45  1  0  0  0  0
 43 47  1  0  0  0  0
 44 49  1  0  0  0  0
 45 73  1  0  0  0  0
 46 49  1  0  0  0  0
 46 73  1  0  0  0  0
 47 76  1  0  0  0  0
 48 72  1  0  0  0  0
 49 71  1  0  0  0  0
 52 66  1  0  0  0  0
 53 67  1  0  0  0  0
 54 68  1  0  0  0  0
 55 68  1  0  0  0  0
 56 68  1  0  0  0  0
 57 79  1  0  0  0  0
 58 80  1  0  0  0  0
 59 80  1  0  0  0  0
 60 61  1  0  0  0  0
 61 62  1  0  0  0  0
 62 78  1  0  0  0  0
 63 67  1  0  0  0  0
 63 80  1  0  0  0  0
 64 67  1  0  0  0  0
 64 87  1  0  0  0  0
 65 68  1  0  0  0  0
 65 77  1  0  0  0  0
 66 79  1  0  0  0  0
 69 71  1  0  0  0  0
M  CHG  2  79   1  80   1
M  ISO  4  37 100  64 101  78 100  87 101
M  END
> <Batch ID>
0082

> <Smiles>
CNC(C)C(=O)NC(C(=O)N1Cc2cc([101O:1][101CH2:1]C(C)CN(C)Cc3c(C)cc(CCC[100NH:0][100C:0](=O)N4CCCC(n5nc(-c6ccc(Oc7ccc(F)cc7F)cc6)c(C(N)=O)c5N)C4)nc3C)ccc2CC1C(=O)NC1CCCc2ccccc21)C(C)(C)C

> <Shape>
0.257

> <Color>
0.055

> <Negative vol penalty>
0.000

$$$$

  -OEChem-04052318493D

 85 93  0     1  0  0  0  0  0999 V2000
  -21.7799  -23.5954   21.2662 C   0  0  0  0  0  0  0  0  0  0  0  0
  -23.0055  -22.9440   21.3610 C   0  0  0  0  0  0  0  0  0  0  0  0
  -22.9852  -28.9316   21.9091 C   0  0  0  0  0  0  0  0  0  0  0  0
  -23.7262  -27.3476   23.5761 C   0  0  0  0  0  0  0  0  0  0  0  0
  -20.6149  -22.9496   21.6781 C   0  0  0  0  0  0  0  0  0  0  0  0
  -23.0669  -21.6468   21.8687 C   0  0  0  0  0  0  0  0  0  0  0  0
  -26.0405  -18.6182   19.1064 C   0  0  0  0  0  0  0  0  0  0  0  0
  -28.4194  -21.6167   23.7747 C   0  0  0  0  0  0  0  0  0  0  0  0
  -21.6767  -28.4700   22.0521 C   0  0  0  0  0  0  0  0  0  0  0  0
  -22.4178  -26.8861   23.7192 C   0  0  0  0  0  0  0  0  0  0  0  0
  -27.4177  -18.7447   19.2829 C   0  0  0  0  0  0  0  0  0  0  0  0
  -19.1163  -28.8737   24.2233 C   0  0  0  0  0  0  0  0  0  0  0  0
  -18.0999  -29.8245   24.3151 C   0  0  0  0  0  0  0  0  0  0  0  0
  -27.9023  -20.5969   24.5659 C   0  0  0  0  0  0  0  0  0  0  0  0
  -27.4056  -16.8067   20.7193 C   0  0  0  0  0  0  0  0  0  0  0  0
  -17.0645  -28.9090   22.3334 C   0  0  0  0  0  0  0  0  0  0  0  0
  -24.0100  -28.3704   22.6710 C   0  0  0  0  0  0  0  0  0  0  0  0
  -25.9791  -29.8891   23.2399 C   0  0  0  0  0  0  0  0  0  0  0  0
  -20.6608  -21.6403   22.1821 C   0  0  0  0  0  0  0  0  0  0  0  0
  -25.3326  -17.5897   19.7448 C   0  0  0  0  0  0  0  0  0  0  0  0
  -21.9016  -20.9834   22.2889 C   0  0  0  0  0  0  0  0  0  0  0  0
  -26.0199  -16.6677   20.5472 C   0  0  0  0  0  0  0  0  0  0  0  0
  -29.3335  -21.3150   22.7714 C   0  0  0  0  0  0  0  0  0  0  0  0
  -21.3930  -27.4473   22.9572 C   0  0  0  0  0  0  0  0  0  0  0  0
  -28.1000  -17.8406   20.0917 C   0  0  0  0  0  0  0  0  0  0  0  0
  -19.1069  -27.9406   23.1865 C   0  0  0  0  0  0  0  0  0  0  0  0
  -17.0740  -29.8422   23.3702 C   0  0  0  0  0  0  0  0  0  0  0  0
  -18.0810  -27.9582   22.2416 C   0  0  0  0  0  0  0  0  0  0  0  0
  -25.3619  -28.8464   22.5233 C   0  0  0  0  0  0  0  0  0  0  0  0
  -28.3280  -19.3024   24.3154 C   0  0  0  0  0  0  0  0  0  0  0  0
  -29.6953  -19.9884   22.6013 C   0  0  0  0  0  0  0  0  0  0  0  0
  -27.2534  -29.9482   22.7308 C   0  0  0  0  0  0  0  0  0  0  0  0
  -25.4481  -30.7290   24.2734 C   0  0  0  0  0  0  0  0  0  0  0  0
  -22.9925  -17.4754   21.8930 C   0  0  0  0  0  0  0  0  0  0  0  0
  -23.1136  -14.2921   21.2809 C   0  0  0  0  0  0  0  0  0  0  0  0
  -24.9292  -11.6207   20.1791 C   0  0  0  0  0  0  0  0  0  0  0  0
  -30.7539  -25.9148   20.0236 C   0  0  0  0  0  0  0  0  0  0  0  0
  -19.3809  -21.0006   22.6589 C   0  0  0  0  0  0  0  0  0  0  0  0
  -23.8515  -17.4509   19.5228 C   0  0  0  0  0  0  0  0  0  0  0  0
  -25.3095  -15.5338   21.2385 C   0  0  0  0  0  0  0  0  0  0  0  0
  -19.4851  -19.4880   22.8360 C   0  0  0  0  0  0  0  0  0  0  0  0
  -29.7332  -29.0726   18.7340 C   0  0  0  0  0  0  0  0  0  0  0  0
  -20.7607  -19.1253   23.5897 C   0  0  0  0  0  0  0  0  0  0  0  0
  -28.5529  -29.4668   19.6236 C   0  0  0  0  0  0  0  0  0  0  0  0
  -29.7626  -27.5690   18.4688 C   0  0  0  0  0  0  0  0  0  0  0  0
  -28.5524  -27.1203   20.5682 C   0  0  0  0  0  0  0  0  0  0  0  0
  -22.0059  -19.5669   22.8112 C   0  0  1  0  0  0  0  0  0  0  0  0
  -23.1513  -16.6728   20.6326 C   0  0  1  0  0  0  0  0  0  0  0  0
  -28.5125  -28.6196   20.9096 C   0  0  2  0  0  0  0  0  0  0  0  0
  -26.5228  -17.5782   24.5507 C   0  0  0  0  0  0  0  0  0  0  0  0
  -24.7714   -9.1405   19.8310 C   0  0  0  0  0  0  0  0  0  0  0  0
  -30.9833  -19.3268   19.0398 C   0  0  0  0  0  0  0  0  0  0  0  0
  -23.4209  -13.8533   24.2848 C   0  0  0  0  0  0  0  0  0  0  0  0
  -24.1988  -11.5246   23.7945 C   0  0  0  0  0  0  0  0  0  0  0  0
  -21.8966  -12.2316   23.1441 C   0  0  0  0  0  0  0  0  0  0  0  0
  -25.3922  -11.8830   17.2678 C   0  0  0  0  0  0  0  0  0  0  0  0
  -29.8919  -22.4034   21.9214 C   0  0  0  0  0  0  0  0  0  0  0  0
  -27.7920  -18.1832   25.1444 C   0  0  0  0  0  0  0  0  0  0  0  0
  -30.6818  -19.6006   21.5252 C   0  0  0  0  0  0  0  0  0  0  0  0
  -31.0264  -23.2129   22.5818 C   0  0  0  0  0  0  0  0  0  0  0  0
  -31.6286  -24.2946   21.6876 C   0  0  0  0  0  0  0  0  0  0  0  0
  -23.8784  -13.1221   21.8512 C   0  0  1  0  0  0  0  0  0  0  0  0
  -24.5954  -10.5119   19.1976 C   0  0  2  0  0  0  0  0  0  0  0  0
  -29.9918  -19.2781   20.1954 C   0  0  2  0  0  0  0  0  0  1  0  0
  -23.3620  -12.7053   23.2573 C   0  0  0  0  0  0  0  0  0  0  0  0
  -26.1769  -28.2837   21.6270 N   0  0  0  0  0  0  0  0  0  0  0  0
  -29.2143  -18.9706   23.3500 N   0  0  0  0  0  0  0  0  0  0  0  0
  -27.3193  -28.9755   21.7771 N   0  0  0  0  0  0  0  0  0  0  0  0
  -23.8602  -15.4440   20.9954 N   0  0  0  0  0  0  0  0  0  0  0  0
  -29.7238  -26.8232   19.7290 N   0  0  0  0  0  0  0  0  0  0  0  0
  -28.3127  -30.7370   23.0104 N   0  0  0  0  0  0  0  0  0  0  0  0
  -24.1202  -30.5335   24.6769 N   0  0  0  0  0  0  0  0  0  0  0  0
  -22.2776  -18.6463   21.7280 N   0  0  0  0  0  0  0  0  0  0  0  0
  -23.8090  -12.0625   20.8509 N   0  0  0  0  0  0  0  0  0  0  0  0
  -30.6436  -25.2544   21.2412 N   0  0  0  0  0  0  0  0  0  0  0  0
  -25.4811  -10.5945   18.0019 N   0  3  0  0  0  0  0  0  0  0  0  0
  -26.1258  -31.6372   24.8114 O   0  0  0  0  0  0  0  0  0  0  0  0
  -23.4812  -17.0621   22.9380 O   0  0  0  0  0  0  0  0  0  0  0  0
  -21.8998  -14.1854   21.0890 O   0  0  0  0  0  0  0  0  0  0  0  0
  -26.0702  -12.0493   20.3371 O   0  0  0  0  0  0  0  0  0  0  0  0
  -31.7045  -25.7116   19.2606 O   0  0  0  0  0  0  0  0  0  0  0  0
  -20.1163  -26.9968   23.0972 O   0  0  0  0  0  0  0  0  0  0  0  0
  -29.4441  -17.9622   20.2662 O   0  0  0  0  0  0  0  0  0  1  0  0
  -16.0971  -30.7543   23.4594 F   0  0  0  0  0  0  0  0  0  0  0  0
  -18.0659  -27.0636   21.2441 F   0  0  0  0  0  0  0  0  0  0  0  0
  1  2  1  0  0  0  0
  1  5  2  0  0  0  0
  2  6  2  0  0  0  0
  3  9  2  0  0  0  0
  3 17  1  0  0  0  0
  4 10  1  0  0  0  0
  4 17  2  0  0  0  0
  5 19  1  0  0  0  0
  6 21  1  0  0  0  0
  7 11  2  0  0  0  0
  7 20  1  0  0  0  0
  8 14  2  0  0  0  0
  8 23  1  0  0  0  0
  9 24  1  0  0  0  0
 10 24  2  0  0  0  0
 11 25  1  0  0  0  0
 12 13  2  0  0  0  0
 12 26  1  0  0  0  0
 13 27  1  0  0  0  0
 14 30  1  0  0  0  0
 15 22  1  0  0  0  0
 15 25  2  0  0  0  0
 16 27  2  0  0  0  0
 16 28  1  0  0  0  0
 17 29  1  0  0  0  0
 18 29  1  0  0  0  0
 18 32  2  0  0  0  0
 18 33  1  0  0  0  0
 19 21  2  0  0  0  0
 19 38  1  0  0  0  0
 20 22  2  0  0  0  0
 20 39  1  0  0  0  0
 21 47  1  0  0  0  0
 22 40  1  0  0  0  0
 23 31  2  0  0  0  0
 23 57  1  0  0  0  0
 24 82  1  0  0  0  0
 25 83  1  0  0  0  0
 26 28  2  0  0  0  0
 26 82  1  0  0  0  0
 27 84  1  0  0  0  0
 28 85  1  0  0  0  0
 29 66  2  0  0  0  0
 30 58  1  0  0  0  0
 30 67  2  0  0  0  0
 31 59  1  0  0  0  0
 31 67  1  0  0  0  0
 32 68  1  0  0  0  0
 32 71  1  0  0  0  0
 33 72  1  0  0  0  0
 33 77  2  0  0  0  0
 34 48  1  0  0  0  0
 34 73  1  0  0  0  0
 34 78  2  0  0  0  0
 35 62  1  0  0  0  0
 35 69  1  0  0  0  0
 35 79  2  0  0  0  0
 36 63  1  0  0  0  0
 36 74  1  0  0  0  0
 36 80  2  0  0  0  0
 37 70  1  0  0  0  0
 37 75  1  0  0  0  0
 37 81  2  0  0  0  0
 38 41  1  0  0  0  0
 39 48  1  0  0  0  0
 40 69  1  0  0  0  0
 41 43  1  0  0  0  0
 42 44  1  0  0  0  0
 42 45  1  0  0  0  0
 43 47  1  0  0  0  0
 44 49  1  0  0  0  0
 45 70  1  0  0  0  0
 46 49  1  0  0  0  0
 46 70  1  0  0  0  0
 47 73  1  0  0  0  0
 48 69  1  0  0  0  0
 49 68  1  0  0  0  0
 50 58  1  0  0  0  0
 51 63  1  0  0  0  0
 52 64  1  0  0  0  0
 53 65  1  0  0  0  0
 54 65  1  0  0  0  0
 55 65  1  0  0  0  0
 56 76  1  0  0  0  0
 57 60  1  0  0  0  0
 59 64  1  0  0  0  0
 60 61  1  0  0  0  0
 61 75  1  0  0  0  0
 62 65  1  0  0  0  0
 62 74  1  0  0  0  0
 63 76  1  0  0  0  0
 64 83  1  0  0  0  0
 66 68  1  0  0  0  0
M  CHG  1  76   1
M  ISO  4  37 100  64 101  75 100  83 101
M  END
> <Batch ID>
0082

> <Smiles>
CCc1ccc(CCC[100NH:0][100C:0](=O)N2CCCC(n3nc(-c4ccc(Oc5ccc(F)cc5F)cc4)c(C(N)=O)c3N)C2)c(C[101CH:1](C)[101O:1]c2ccc3c(c2)CN(C(=O)C(NC(=O)C(C)NC)C(C)(C)C)C(C(=O)NC2CCCc4ccccc42)C3)n1

> <Shape>
0.227

> <Color>
0.053

> <Negative vol penalty>
0.000

$$$$

  -OEChem-04052318493D

 87 95  0     1  0  0  0  0  0999 V2000
  -30.5584  -25.3551   13.9922 C   0  0  0  0  0  0  0  0  0  0  0  0
  -29.7808  -24.7285   14.9607 C   0  0  0  0  0  0  0  0  0  0  0  0
  -23.8685  -11.7196   23.9402 C   0  0  0  0  0  0  0  0  0  0  0  0
  -24.1090  -14.1235   23.9544 C   0  0  0  0  0  0  0  0  0  0  0  0
  -31.2051  -26.5544   14.2878 C   0  0  0  0  0  0  0  0  0  0  0  0
  -29.6503  -25.3002   16.2258 C   0  0  0  0  0  0  0  0  0  0  0  0
  -24.8680  -25.2621   17.8910 C   0  0  0  0  0  0  0  0  0  0  0  0
  -23.2792  -11.7711   25.2034 C   0  0  0  0  0  0  0  0  0  0  0  0
  -23.5197  -14.1751   25.2175 C   0  0  0  0  0  0  0  0  0  0  0  0
  -24.3781  -24.0571   18.3929 C   0  0  0  0  0  0  0  0  0  0  0  0
  -24.4418  -13.6146   28.4217 C   0  0  0  0  0  0  0  0  0  0  0  0
  -25.0427  -14.4253   29.3846 C   0  0  0  0  0  0  0  0  0  0  0  0
  -24.7643  -24.8435   20.6405 C   0  0  0  0  0  0  0  0  0  0  0  0
  -27.2337  -21.6312   20.3596 C   0  0  0  0  0  0  0  0  0  0  0  0
  -27.3385  -19.2301   20.4479 C   0  0  0  0  0  0  0  0  0  0  0  0
  -23.0098  -15.7184   29.5645 C   0  0  0  0  0  0  0  0  0  0  0  0
  -24.2835  -12.8958   23.3157 C   0  0  0  0  0  0  0  0  0  0  0  0
  -24.2417  -12.9158   20.7651 C   0  0  0  0  0  0  0  0  0  0  0  0
  -31.0747  -27.1462   15.5541 C   0  0  0  0  0  0  0  0  0  0  0  0
  -25.3206  -26.2642   18.7612 C   0  0  0  0  0  0  0  0  0  0  0  0
  -30.2969  -26.5079   16.5390 C   0  0  0  0  0  0  0  0  0  0  0  0
  -25.2571  -26.0612   20.1472 C   0  0  0  0  0  0  0  0  0  0  0  0
  -26.6571  -20.4143   20.7060 C   0  0  0  0  0  0  0  0  0  0  0  0
  -23.1047  -12.9988   25.8421 C   0  0  0  0  0  0  0  0  0  0  0  0
  -24.3289  -23.8465   19.7678 C   0  0  0  0  0  0  0  0  0  0  0  0
  -23.1249  -13.8558   28.0301 C   0  0  0  0  0  0  0  0  0  0  0  0
  -24.3267  -15.4772   29.9560 C   0  0  0  0  0  0  0  0  0  0  0  0
  -22.4089  -14.9077   28.6015 C   0  0  0  0  0  0  0  0  0  0  0  0
  -24.8929  -12.8432   22.0111 C   0  0  0  0  0  0  0  0  0  0  0  0
  -28.4836  -21.6100   19.7620 C   0  0  0  0  0  0  0  0  0  0  0  0
  -28.5836  -19.3163   19.8462 C   0  0  0  0  0  0  0  0  0  0  0  0
  -25.2545  -12.8208   19.8423 C   0  0  0  0  0  0  0  0  0  0  0  0
  -22.8461  -13.0568   20.4684 C   0  0  0  0  0  0  0  0  0  0  0  0
  -28.1062  -27.7116   19.2602 C   0  0  0  0  0  0  0  0  0  0  0  0
  -26.3474  -29.5503   21.2721 C   0  0  0  0  0  0  0  0  0  0  0  0
  -23.5695  -29.8621   23.2299 C   0  0  0  0  0  0  0  0  0  0  0  0
  -31.1012  -14.0939   20.0594 C   0  0  0  0  0  0  0  0  0  0  0  0
  -31.8309  -28.4189   15.8420 C   0  0  0  0  0  0  0  0  0  0  0  0
  -25.8212  -27.5688   18.2046 C   0  0  0  0  0  0  0  0  0  0  0  0
  -25.7118  -27.1132   21.1244 C   0  0  0  0  0  0  0  0  0  0  0  0
  -31.3382  -29.1518   17.0872 C   0  0  0  0  0  0  0  0  0  0  0  0
  -29.6217  -10.9570   19.2544 C   0  0  0  0  0  0  0  0  0  0  0  0
  -31.1621  -28.1759   18.2463 C   0  0  0  0  0  0  0  0  0  0  0  0
  -28.1832  -11.0913   19.7572 C   0  0  0  0  0  0  0  0  0  0  0  0
  -30.6102  -11.6686   20.1755 C   0  0  0  0  0  0  0  0  0  0  0  0
  -28.8569  -13.2179   20.9498 C   0  0  0  0  0  0  0  0  0  0  0  0
  -30.1110  -27.1097   17.9150 C   0  0  1  0  0  0  0  0  0  0  0  0
  -26.7348  -28.3187   19.1692 C   0  0  1  0  0  0  0  0  0  0  0  0
  -27.8174  -12.5639   20.0235 C   0  0  2  0  0  0  0  0  0  0  0  0
  -29.1337  -22.8971   19.3782 C   0  0  0  0  0  0  0  0  0  0  0  0
  -29.4663  -17.8119   18.0252 C   0  0  0  0  0  0  0  0  0  0  0  0
  -22.4236  -31.4665   24.7824 C   0  0  0  0  0  0  0  0  0  0  0  0
  -28.3776  -28.8878   23.4515 C   0  0  0  0  0  0  0  0  0  0  0  0
  -26.7191  -29.6946   25.1446 C   0  0  0  0  0  0  0  0  0  0  0  0
  -27.6122  -31.2685   23.4277 C   0  0  0  0  0  0  0  0  0  0  0  0
  -31.7332  -19.0209   19.9455 C   0  0  0  0  0  0  0  0  0  0  0  0
  -30.5056  -17.9693   21.8447 C   0  0  0  0  0  0  0  0  0  0  0  0
  -21.1657  -29.9918   21.5084 C   0  0  0  0  0  0  0  0  0  0  0  0
  -25.2989  -20.3791   21.3599 C   0  0  0  0  0  0  0  0  0  0  0  0
  -24.1388  -20.2914   20.3658 C   0  0  0  0  0  0  0  0  0  0  0  0
  -31.4395  -16.5515   19.9915 C   0  0  0  0  0  0  0  0  0  0  0  0
  -24.0321  -21.5079   19.4536 C   0  0  0  0  0  0  0  0  0  1  0  0
  -29.3421  -18.0651   19.5528 C   0  0  1  0  0  0  0  0  0  0  0  0
  -25.9692  -29.4774   22.7318 C   0  0  1  0  0  0  0  0  0  0  0  0
  -22.5405  -30.9718   23.3491 C   0  0  2  0  0  0  0  0  0  0  0  0
  -27.1627  -29.8113   23.6707 C   0  0  0  0  0  0  0  0  0  0  0  0
  -30.7354  -17.9010   20.3153 C   0  0  0  0  0  0  0  0  0  0  0  0
  -26.2169  -12.7119   21.8941 N   0  0  0  0  0  0  0  0  0  0  0  0
  -29.1759  -20.4798   19.4955 N   0  0  0  0  0  0  0  0  0  0  0  0
  -26.4059  -12.7012   20.5636 N   0  0  0  0  0  0  0  0  0  0  0  0
  -26.1991  -28.3694   20.5310 N   0  0  0  0  0  0  0  0  0  0  0  0
  -30.2069  -13.0611   20.3861 N   0  0  0  0  0  0  0  0  0  0  0  0
  -25.2636  -12.8285   18.4924 N   0  0  0  0  0  0  0  0  0  0  0  0
  -21.9412  -13.1403   21.5355 N   0  0  0  0  0  0  0  0  0  0  0  0
  -28.7774  -27.6545   18.0536 N   0  0  0  0  0  0  0  0  0  0  0  0
  -24.8145  -30.3534   22.8985 N   0  0  0  0  0  0  0  0  0  0  0  0
  -30.6376  -15.3844   20.2839 N   0  0  0  0  0  0  0  0  0  0  0  0
  -21.2020  -30.4865   22.9088 N   0  3  0  0  0  0  0  0  0  0  0  0
  -22.4125  -13.0907   19.2918 O   0  0  0  0  0  0  0  0  0  0  0  0
  -28.5251  -27.3250   20.3450 O   0  0  0  0  0  0  0  0  0  0  0  0
  -26.7526  -30.6177   20.8050 O   0  0  0  0  0  0  0  0  0  0  0  0
  -23.2970  -28.6782   23.4162 O   0  0  0  0  0  0  0  0  0  0  0  0
  -32.2271  -13.8818   19.5966 O   0  0  0  0  0  0  0  0  0  0  0  0
  -22.5294  -13.0495   27.0746 O   0  0  0  0  0  0  0  0  0  0  0  0
  -23.8519  -22.6711   20.2604 O   0  0  0  0  0  0  0  0  0  1  0  0
  -24.9034  -16.2547   30.8818 F   0  0  0  0  0  0  0  0  0  0  0  0
  -21.1430  -15.1436   28.2302 F   0  0  0  0  0  0  0  0  0  0  0  0
  1  2  1  0  0  0  0
  1  5  2  0  0  0  0
  2  6  2  0  0  0  0
  3  8  2  0  0  0  0
  3 17  1  0  0  0  0
  4  9  1  0  0  0  0
  4 17  2  0  0  0  0
  5 19  1  0  0  0  0
  6 21  1  0  0  0  0
  7 10  2  0  0  0  0
  7 20  1  0  0  0  0
  8 24  1  0  0  0  0
  9 24  2  0  0  0  0
 10 25  1  0  0  0  0
 11 12  2  0  0  0  0
 11 26  1  0  0  0  0
 12 27  1  0  0  0  0
 13 22  1  0  0  0  0
 13 25  2  0  0  0  0
 14 23  1  0  0  0  0
 14 30  2  0  0  0  0
 15 23  2  0  0  0  0
 15 31  1  0  0  0  0
 16 27  2  0  0  0  0
 16 28  1  0  0  0  0
 17 29  1  0  0  0  0
 18 29  1  0  0  0  0
 18 32  2  0  0  0  0
 18 33  1  0  0  0  0
 19 21  2  0  0  0  0
 19 38  1  0  0  0  0
 20 22  2  0  0  0  0
 20 39  1  0  0  0  0
 21 47  1  0  0  0  0
 22 40  1  0  0  0  0
 23 59  1  0  0  0  0
 24 84  1  0  0  0  0
 25 85  1  0  0  0  0
 26 28  2  0  0  0  0
 26 84  1  0  0  0  0
 27 86  1  0  0  0  0
 28 87  1  0  0  0  0
 29 68  2  0  0  0  0
 30 50  1  0  0  0  0
 30 69  1  0  0  0  0
 31 63  1  0  0  0  0
 31 69  2  0  0  0  0
 32 70  1  0  0  0  0
 32 73  1  0  0  0  0
 33 74  1  0  0  0  0
 33 79  2  0  0  0  0
 34 48  1  0  0  0  0
 34 75  1  0  0  0  0
 34 80  2  0  0  0  0
 35 64  1  0  0  0  0
 35 71  1  0  0  0  0
 35 81  2  0  0  0  0
 36 65  1  0  0  0  0
 36 76  1  0  0  0  0
 36 82  2  0  0  0  0
 37 72  1  0  0  0  0
 37 77  1  0  0  0  0
 37 83  2  0  0  0  0
 38 41  1  0  0  0  0
 39 48  1  0  0  0  0
 40 71  1  0  0  0  0
 41 43  1  0  0  0  0
 42 44  1  0  0  0  0
 42 45  1  0  0  0  0
 43 47  1  0  0  0  0
 44 49  1  0  0  0  0
 45 72  1  0  0  0  0
 46 49  1  0  0  0  0
 46 72  1  0  0  0  0
 47 75  1  0  0  0  0
 48 71  1  0  0  0  0
 49 70  1  0  0  0  0
 51 63  1  0  0  0  0
 52 65  1  0  0  0  0
 53 66  1  0  0  0  0
 54 66  1  0  0  0  0
 55 66  1  0  0  0  0
 56 67  1  0  0  0  0
 57 67  1  0  0  0  0
 58 78  1  0  0  0  0
 59 60  1  0  0  0  0
 60 62  1  0  0  0  0
 61 67  1  0  0  0  0
 61 77  1  0  0  0  0
 62 85  1  0  0  0  0
 63 67  1  0  0  0  0
 64 66  1  0  0  0  0
 64 76  1  0  0  0  0
 65 78  1  0  0  0  0
 68 70  1  0  0  0  0
M  CHG  1  78   1
M  ISO  4  37 100  62 101  77 100  85 101
M  END
> <Batch ID>
0082

> <Smiles>
CNC(C)C(=O)NC(C(=O)N1Cc2cc([101O:1][101CH2:1]CCc3cc(C)nc(C(C)C(C)(C)C[100NH:0][100C:0](=O)N4CCCC(n5nc(-c6ccc(Oc7ccc(F)cc7F)cc6)c(C(N)=O)c5N)C4)c3)ccc2CC1C(=O)NC1CCCc2ccccc21)C(C)(C)C

> <Shape>
0.240

> <Color>
0.103

> <Negative vol penalty>
0.000

$$$$

  -OEChem-04052318493D

 83 91  0     1  0  0  0  0  0999 V2000
  -16.6710  -25.4909   23.7075 C   0  0  0  0  0  0  0  0  0  0  0  0
  -17.5628  -24.5385   23.2248 C   0  0  0  0  0  0  0  0  0  0  0  0
  -25.0209  -15.3913   17.5867 C   0  0  0  0  0  0  0  0  0  0  0  0
  -28.5117  -20.5347   21.3194 C   0  0  0  0  0  0  0  0  0  0  0  0
  -29.8937  -19.7102   19.5174 C   0  0  0  0  0  0  0  0  0  0  0  0
  -17.0046  -26.8438   23.6603 C   0  0  0  0  0  0  0  0  0  0  0  0
  -18.7884  -24.9386   22.6935 C   0  0  0  0  0  0  0  0  0  0  0  0
  -22.6403  -22.0901   24.3350 C   0  0  0  0  0  0  0  0  0  0  0  0
  -28.3752  -21.7544   20.6567 C   0  0  0  0  0  0  0  0  0  0  0  0
  -29.7571  -20.9299   18.8546 C   0  0  0  0  0  0  0  0  0  0  0  0
  -22.8020  -20.8371   23.7454 C   0  0  0  0  0  0  0  0  0  0  0  0
  -30.0694  -23.9503   16.8572 C   0  0  0  0  0  0  0  0  0  0  0  0
  -31.2163  -24.5194   16.3037 C   0  0  0  0  0  0  0  0  0  0  0  0
  -24.0561  -14.4554   18.0343 C   0  0  0  0  0  0  0  0  0  0  0  0
  -24.5464  -21.7306   22.3391 C   0  0  0  0  0  0  0  0  0  0  0  0
  -32.2318  -24.6033   18.4944 C   0  0  0  0  0  0  0  0  0  0  0  0
  -25.1449  -16.3538   18.5642 C   0  0  0  0  0  0  0  0  0  0  0  0
  -29.2710  -19.5126   20.7498 C   0  0  0  0  0  0  0  0  0  0  0  0
  -29.9673  -18.0358   22.7099 C   0  0  0  0  0  0  0  0  0  0  0  0
  -18.2390  -27.2600   23.1370 C   0  0  0  0  0  0  0  0  0  0  0  0
  -23.4242  -23.1772   23.9226 C   0  0  0  0  0  0  0  0  0  0  0  0
  -19.1383  -26.2985   22.6380 C   0  0  0  0  0  0  0  0  0  0  0  0
  -24.3945  -22.9957   22.9268 C   0  0  0  0  0  0  0  0  0  0  0  0
  -28.9978  -21.9520   19.4243 C   0  0  0  0  0  0  0  0  0  0  0  0
  -23.7531  -20.6578   22.7453 C   0  0  0  0  0  0  0  0  0  0  0  0
  -30.0037  -23.7078   18.2293 C   0  0  0  0  0  0  0  0  0  0  0  0
  -32.2975  -24.8459   17.1223 C   0  0  0  0  0  0  0  0  0  0  0  0
  -31.0849  -24.0342   19.0478 C   0  0  0  0  0  0  0  0  0  0  0  0
  -29.4129  -18.2526   21.4342 C   0  0  0  0  0  0  0  0  0  0  0  0
  -23.6198  -14.8746   19.2718 C   0  0  0  0  0  0  0  0  0  0  0  0
  -29.8700  -16.6791   22.9006 C   0  0  0  0  0  0  0  0  0  0  0  0
  -30.5207  -18.9767   23.6395 C   0  0  0  0  0  0  0  0  0  0  0  0
  -22.8213  -26.0033   22.5985 C   0  0  0  0  0  0  0  0  0  0  0  0
  -25.9970  -26.4655   23.0708 C   0  0  0  0  0  0  0  0  0  0  0  0
  -29.0924  -25.0934   23.4983 C   0  0  0  0  0  0  0  0  0  0  0  0
  -26.2237  -12.4966   20.6505 C   0  0  0  0  0  0  0  0  0  0  0  0
  -18.5354  -28.7370   23.0636 C   0  0  0  0  0  0  0  0  0  0  0  0
  -23.2560  -24.5161   24.5872 C   0  0  0  0  0  0  0  0  0  0  0  0
  -25.2754  -24.1258   22.4625 C   0  0  0  0  0  0  0  0  0  0  0  0
  -20.0107  -29.0512   22.8287 C   0  0  0  0  0  0  0  0  0  0  0  0
  -29.7795  -12.5544   20.4780 C   0  0  0  0  0  0  0  0  0  0  0  0
  -20.5709  -28.1780   21.7104 C   0  0  0  0  0  0  0  0  0  0  0  0
  -30.1388  -14.0017   20.8186 C   0  0  0  0  0  0  0  0  0  0  0  0
  -28.4935  -12.4699   19.6587 C   0  0  0  0  0  0  0  0  0  0  0  0
  -27.6918  -14.6033   20.5966 C   0  0  0  0  0  0  0  0  0  0  0  0
  -20.4877  -26.6914   22.0769 C   0  0  1  0  0  0  0  0  0  0  0  0
  -23.7541  -25.6755   23.7299 C   0  0  1  0  0  0  0  0  0  0  0  0
  -28.9513  -14.7359   21.4698 C   0  0  2  0  0  0  0  0  0  0  0  0
  -31.4995  -25.7249   23.8217 C   0  0  0  0  0  0  0  0  0  0  0  0
  -26.2077  -27.1695   20.1094 C   0  0  0  0  0  0  0  0  0  0  0  0
  -28.6857  -26.8569   20.2829 C   0  0  0  0  0  0  0  0  0  0  0  0
  -27.5568  -28.6292   21.6272 C   0  0  0  0  0  0  0  0  0  0  0  0
  -29.2130  -23.7454   26.1302 C   0  0  0  0  0  0  0  0  0  0  0  0
  -22.8723  -17.7179   20.8554 C   0  0  0  0  0  0  0  0  0  0  0  0
  -22.9114  -12.8008   20.6019 C   0  0  0  0  0  0  0  0  0  0  0  0
  -24.1211  -16.8335   20.8483 C   0  0  0  0  0  0  0  0  0  0  0  0
  -23.9778  -12.6775   21.6908 C   0  0  0  0  0  0  0  0  0  0  0  0
  -22.7611  -18.5962   22.0962 C   0  0  0  0  0  0  0  0  0  1  0  0
  -22.6232  -14.2704   20.1797 C   0  0  2  0  0  0  0  0  0  0  0  0
  -27.2470  -26.2027   22.2661 C   0  0  1  0  0  0  0  0  0  0  0  0
  -30.1887  -25.3763   24.5095 C   0  0  2  0  0  0  0  0  0  0  0  0
  -27.4065  -27.1935   21.0786 C   0  0  0  0  0  0  0  0  0  0  0  0
  -28.9946  -17.1239   20.8552 N   0  0  0  0  0  0  0  0  0  0  0  0
  -24.2882  -16.0296   19.5836 N   0  0  0  0  0  0  0  0  0  0  0  0
  -29.2863  -16.1849   21.7713 N   0  0  0  0  0  0  0  0  0  0  0  0
  -25.0685  -25.4172   23.1384 N   0  0  0  0  0  0  0  0  0  0  0  0
  -27.4063  -13.1844   20.3321 N   0  0  0  0  0  0  0  0  0  0  0  0
  -30.2276  -15.8726   23.9224 N   0  0  0  0  0  0  0  0  0  0  0  0
  -31.8904  -19.2640   23.5639 N   0  0  0  0  0  0  0  0  0  0  0  0
  -21.5432  -26.3391   23.0024 N   0  0  0  0  0  0  0  0  0  0  0  0
  -28.3551  -26.2236   23.2148 N   0  0  0  0  0  0  0  0  0  0  0  0
  -25.2463  -13.2464   21.2935 N   0  0  0  0  0  0  0  0  0  0  0  0
  -21.2222  -14.2746   19.6061 N   0  3  0  0  0  0  0  0  0  0  0  0
  -30.4148  -24.1846   25.3754 N   0  3  0  0  0  0  0  0  0  0  0  0
  -29.8244  -19.5335   24.5220 O   0  0  0  0  0  0  0  0  0  0  0  0
  -23.2312  -25.9566   21.4446 O   0  0  0  0  0  0  0  0  0  0  0  0
  -25.8533  -27.5581   23.6251 O   0  0  0  0  0  0  0  0  0  0  0  0
  -28.9109  -23.9820   23.0061 O   0  0  0  0  0  0  0  0  0  0  0  0
  -26.0537  -11.3015   20.3866 O   0  0  0  0  0  0  0  0  0  0  0  0
  -28.8646  -23.1420   18.7772 O   0  0  0  0  0  0  0  0  0  0  0  0
  -23.9126  -19.4360   22.1678 O   0  0  0  0  0  0  0  0  0  1  0  0
  -33.3994  -25.3909   16.5904 F   0  0  0  0  0  0  0  0  0  0  0  0
  -31.0281  -23.8024   20.3665 F   0  0  0  0  0  0  0  0  0  0  0  0
  1  2  1  0  0  0  0
  1  6  2  0  0  0  0
  2  7  2  0  0  0  0
  3 14  1  0  0  0  0
  3 17  2  0  0  0  0
  4  9  2  0  0  0  0
  4 18  1  0  0  0  0
  5 10  1  0  0  0  0
  5 18  2  0  0  0  0
  6 20  1  0  0  0  0
  7 22  1  0  0  0  0
  8 11  2  0  0  0  0
  8 21  1  0  0  0  0
  9 24  1  0  0  0  0
 10 24  2  0  0  0  0
 11 25  1  0  0  0  0
 12 13  2  0  0  0  0
 12 26  1  0  0  0  0
 13 27  1  0  0  0  0
 14 30  2  0  0  0  0
 15 23  1  0  0  0  0
 15 25  2  0  0  0  0
 16 27  2  0  0  0  0
 16 28  1  0  0  0  0
 17 64  1  0  0  0  0
 18 29  1  0  0  0  0
 19 29  1  0  0  0  0
 19 31  2  0  0  0  0
 19 32  1  0  0  0  0
 20 22  2  0  0  0  0
 20 37  1  0  0  0  0
 21 23  2  0  0  0  0
 21 38  1  0  0  0  0
 22 46  1  0  0  0  0
 23 39  1  0  0  0  0
 24 80  1  0  0  0  0
 25 81  1  0  0  0  0
 26 28  2  0  0  0  0
 26 80  1  0  0  0  0
 27 82  1  0  0  0  0
 28 83  1  0  0  0  0
 29 63  2  0  0  0  0
 30 59  1  0  0  0  0
 30 64  1  0  0  0  0
 31 65  1  0  0  0  0
 31 68  1  0  0  0  0
 32 69  1  0  0  0  0
 32 75  2  0  0  0  0
 33 47  1  0  0  0  0
 33 70  1  0  0  0  0
 33 76  2  0  0  0  0
 34 60  1  0  0  0  0
 34 66  1  0  0  0  0
 34 77  2  0  0  0  0
 35 61  1  0  0  0  0
 35 71  1  0  0  0  0
 35 78  2  0  0  0  0
 36 67  1  0  0  0  0
 36 72  1  0  0  0  0
 36 79  2  0  0  0  0
 37 40  1  0  0  0  0
 38 47  1  0  0  0  0
 39 66  1  0  0  0  0
 40 42  1  0  0  0  0
 41 43  1  0  0  0  0
 41 44  1  0  0  0  0
 42 46  1  0  0  0  0
 43 48  1  0  0  0  0
 44 67  1  0  0  0  0
 45 48  1  0  0  0  0
 45 67  1  0  0  0  0
 46 70  1  0  0  0  0
 47 66  1  0  0  0  0
 48 65  1  0  0  0  0
 49 61  1  0  0  0  0
 50 62  1  0  0  0  0
 51 62  1  0  0  0  0
 52 62  1  0  0  0  0
 53 74  1  0  0  0  0
 54 56  1  0  0  0  0
 54 58  1  0  0  0  0
 55 57  1  0  0  0  0
 55 59  1  0  0  0  0
 56 64  1  0  0  0  0
 57 72  1  0  0  0  0
 58 81  1  0  0  0  0
 59 73  1  0  0  0  0
 60 62  1  0  0  0  0
 60 71  1  0  0  0  0
 61 74  1  0  0  0  0
 63 65  1  0  0  0  0
M  CHG  2  73   1  74   1
M  ISO  4  36 100  58 101  72 100  81 101
M  END
> <Batch ID>
0082

> <Smiles>
CNC(C)C(=O)NC(C(=O)N1Cc2cc([101O:1][101CH2:1]CCn3cccc3C(N)CC[100NH:0][100C:0](=O)N3CCCC(n4nc(-c5ccc(Oc6ccc(F)cc6F)cc5)c(C(N)=O)c4N)C3)ccc2CC1C(=O)NC1CCCc2ccccc21)C(C)(C)C

> <Shape>
0.227

> <Color>
0.057

> <Negative vol penalty>
0.000

$$$$

  -OEChem-04052318493D

 83 91  0     1  0  0  0  0  0999 V2000
  -32.3902  -14.4315   20.2605 C   0  0  0  0  0  0  0  0  0  0  0  0
  -31.5619  -15.5183   20.5219 C   0  0  0  0  0  0  0  0  0  0  0  0
  -27.1226  -29.1355   19.8591 C   0  0  0  0  0  0  0  0  0  0  0  0
  -25.7446  -27.4967   20.9782 C   0  0  0  0  0  0  0  0  0  0  0  0
  -31.8404  -13.2260   19.8263 C   0  0  0  0  0  0  0  0  0  0  0  0
  -30.1834  -15.4005   20.3481 C   0  0  0  0  0  0  0  0  0  0  0  0
  -25.8090  -18.0903   23.6851 C   0  0  0  0  0  0  0  0  0  0  0  0
  -26.0009  -29.9387   19.6539 C   0  0  0  0  0  0  0  0  0  0  0  0
  -24.6228  -28.2999   20.7730 C   0  0  0  0  0  0  0  0  0  0  0  0
  -25.0423  -19.2362   23.4779 C   0  0  0  0  0  0  0  0  0  0  0  0
  -21.4566  -30.0847   20.8623 C   0  0  0  0  0  0  0  0  0  0  0  0
  -20.5817  -30.2639   21.9337 C   0  0  0  0  0  0  0  0  0  0  0  0
  -23.2651  -17.8767   22.5764 C   0  0  0  0  0  0  0  0  0  0  0  0
  -22.3710  -31.2384   23.2320 C   0  0  0  0  0  0  0  0  0  0  0  0
  -25.0330  -19.3256   19.2050 C   0  0  0  0  0  0  0  0  0  0  0  0
  -24.6432  -21.1611   18.0493 C   0  0  0  0  0  0  0  0  0  0  0  0
  -26.9945  -27.9145   20.5212 C   0  0  0  0  0  0  0  0  0  0  0  0
  -29.0240  -27.1063   21.8387 C   0  0  0  0  0  0  0  0  0  0  0  0
  -30.4536  -13.0905   19.6564 C   0  0  0  0  0  0  0  0  0  0  0  0
  -25.3130  -16.8280   23.3289 C   0  0  0  0  0  0  0  0  0  0  0  0
  -29.6147  -14.1925   19.9099 C   0  0  0  0  0  0  0  0  0  0  0  0
  -24.0265  -16.7161   22.7825 C   0  0  0  0  0  0  0  0  0  0  0  0
  -24.7509  -29.5209   20.1108 C   0  0  0  0  0  0  0  0  0  0  0  0
  -23.7713  -19.1298   22.9208 C   0  0  0  0  0  0  0  0  0  0  0  0
  -22.7889  -30.4823   20.9758 C   0  0  0  0  0  0  0  0  0  0  0  0
  -21.0388  -30.8408   23.1185 C   0  0  0  0  0  0  0  0  0  0  0  0
  -23.2460  -31.0592   22.1606 C   0  0  0  0  0  0  0  0  0  0  0  0
  -28.1529  -27.0841   20.7330 C   0  0  0  0  0  0  0  0  0  0  0  0
  -26.1087  -19.6620   18.4175 C   0  0  0  0  0  0  0  0  0  0  0  0
  -29.9542  -26.1342   21.5624 C   0  0  0  0  0  0  0  0  0  0  0  0
  -28.9949  -27.9317   23.0107 C   0  0  0  0  0  0  0  0  0  0  0  0
  -26.2057  -14.5617   21.2866 C   0  0  0  0  0  0  0  0  0  0  0  0
  -23.7939  -12.8999   22.6808 C   0  0  0  0  0  0  0  0  0  0  0  0
  -20.8550  -12.9643   24.4144 C   0  0  0  0  0  0  0  0  0  0  0  0
  -29.8150  -21.2049   18.1663 C   0  0  0  0  0  0  0  0  0  0  0  0
  -29.9100  -11.7820   19.1398 C   0  0  0  0  0  0  0  0  0  0  0  0
  -26.1419  -15.5990   23.5836 C   0  0  0  0  0  0  0  0  0  0  0  0
  -23.4399  -15.3822   22.4017 C   0  0  0  0  0  0  0  0  0  0  0  0
  -28.4047  -11.6261   19.3402 C   0  0  0  0  0  0  0  0  0  0  0  0
  -32.0897  -23.9302   17.8919 C   0  0  0  0  0  0  0  0  0  0  0  0
  -27.6748  -12.8948   18.9106 C   0  0  0  0  0  0  0  0  0  0  0  0
  -31.4173  -25.0495   18.6887 C   0  0  0  0  0  0  0  0  0  0  0  0
  -31.0677  -23.0798   17.1406 C   0  0  0  0  0  0  0  0  0  0  0  0
  -29.3124  -23.6491   18.7742 C   0  0  0  0  0  0  0  0  0  0  0  0
  -28.1122  -14.0964   19.7570 C   0  0  1  0  0  0  0  0  0  0  0  0
  -25.7409  -14.4158   22.7080 C   0  0  1  0  0  0  0  0  0  0  0  0
  -30.2983  -24.4995   19.5935 C   0  0  2  0  0  0  0  0  0  0  0  0
  -19.1020  -11.4484   25.3770 C   0  0  0  0  0  0  0  0  0  0  0  0
  -28.0505  -19.2454   20.7388 C   0  0  0  0  0  0  0  0  0  0  0  0
  -23.7507  -22.5319   22.6436 C   0  0  0  0  0  0  0  0  0  0  0  0
  -22.6709  -12.4261   19.8836 C   0  0  0  0  0  0  0  0  0  0  0  0
  -20.5000  -11.7673   20.9424 C   0  0  0  0  0  0  0  0  0  0  0  0
  -22.5625  -10.4413   21.4012 C   0  0  0  0  0  0  0  0  0  0  0  0
  -21.3591  -13.9360   27.1641 C   0  0  0  0  0  0  0  0  0  0  0  0
  -27.3960  -18.9625   18.2880 C   0  0  0  0  0  0  0  0  0  0  0  0
  -22.6109  -21.4576   20.6685 C   0  0  0  0  0  0  0  0  0  0  0  0
  -22.7276  -20.3899   19.5711 C   0  0  0  0  0  0  0  0  0  0  0  0
  -22.3152  -12.7414   22.4213 C   0  0  1  0  0  0  0  0  0  0  0  0
  -20.3944  -12.2039   25.6449 C   0  0  2  0  0  0  0  0  0  0  0  0
  -28.4845  -19.4361   19.2889 C   0  0  1  0  0  0  0  0  0  0  0  0
  -23.5630  -21.2440   21.8518 C   0  0  2  0  0  0  0  0  0  1  0  0
  -22.0237  -11.8695   21.1674 C   0  0  0  0  0  0  0  0  0  0  0  0
  -25.8599  -20.8057   17.7008 N   0  0  0  0  0  0  0  0  0  0  0  0
  -28.4988  -26.1705   19.8222 N   0  0  0  0  0  0  0  0  0  0  0  0
  -24.1022  -20.2953   18.9587 N   0  0  0  0  0  0  0  0  0  0  0  0
  -29.5978  -25.6096   20.3549 N   0  0  0  0  0  0  0  0  0  0  0  0
  -24.2917  -14.2105   22.6644 N   0  0  0  0  0  0  0  0  0  0  0  0
  -30.0351  -22.5878   18.0558 N   0  0  0  0  0  0  0  0  0  0  0  0
  -31.0342  -25.6857   22.2369 N   0  0  0  0  0  0  0  0  0  0  0  0
  -27.9700  -28.8795   23.1351 N   0  0  0  0  0  0  0  0  0  0  0  0
  -27.4723  -14.0603   21.0546 N   0  0  0  0  0  0  0  0  0  0  0  0
  -21.7372  -12.2235   23.6567 N   0  0  0  0  0  0  0  0  0  0  0  0
  -28.8225  -20.8233   19.0608 N   0  0  0  0  0  0  0  0  0  0  0  0
  -20.1632  -13.1437   26.7782 N   0  3  0  0  0  0  0  0  0  0  0  0
  -29.8619  -27.8429   23.9129 O   0  0  0  0  0  0  0  0  0  0  0  0
  -25.4691  -15.0888   20.4612 O   0  0  0  0  0  0  0  0  0  0  0  0
  -24.4806  -11.8983   22.8975 O   0  0  0  0  0  0  0  0  0  0  0  0
  -20.4677  -14.1004   24.1498 O   0  0  0  0  0  0  0  0  0  0  0  0
  -30.4592  -20.3717   17.5199 O   0  0  0  0  0  0  0  0  0  0  0  0
  -23.6561  -30.3044   19.9109 O   0  0  0  0  0  0  0  0  0  0  0  0
  -23.0212  -20.2467   22.7168 O   0  0  0  0  0  0  0  0  0  1  0  0
  -20.1981  -31.0142   24.1467 F   0  0  0  0  0  0  0  0  0  0  0  0
  -24.5245  -31.4442   22.2752 F   0  0  0  0  0  0  0  0  0  0  0  0
  1  2  1  0  0  0  0
  1  5  2  0  0  0  0
  2  6  2  0  0  0  0
  3  8  2  0  0  0  0
  3 17  1  0  0  0  0
  4  9  1  0  0  0  0
  4 17  2  0  0  0  0
  5 19  1  0  0  0  0
  6 21  1  0  0  0  0
  7 10  2  0  0  0  0
  7 20  1  0  0  0  0
  8 23  1  0  0  0  0
  9 23  2  0  0  0  0
 10 24  1  0  0  0  0
 11 12  2  0  0  0  0
 11 25  1  0  0  0  0
 12 26  1  0  0  0  0
 13 22  1  0  0  0  0
 13 24  2  0  0  0  0
 14 26  2  0  0  0  0
 14 27  1  0  0  0  0
 15 29  2  0  0  0  0
 15 65  1  0  0  0  0
 16 63  2  0  0  0  0
 16 65  1  0  0  0  0
 17 28  1  0  0  0  0
 18 28  1  0  0  0  0
 18 30  2  0  0  0  0
 18 31  1  0  0  0  0
 19 21  2  0  0  0  0
 19 36  1  0  0  0  0
 20 22  2  0  0  0  0
 20 37  1  0  0  0  0
 21 45  1  0  0  0  0
 22 38  1  0  0  0  0
 23 80  1  0  0  0  0
 24 81  1  0  0  0  0
 25 27  2  0  0  0  0
 25 80  1  0  0  0  0
 26 82  1  0  0  0  0
 27 83  1  0  0  0  0
 28 64  2  0  0  0  0
 29 55  1  0  0  0  0
 29 63  1  0  0  0  0
 30 66  1  0  0  0  0
 30 69  1  0  0  0  0
 31 70  1  0  0  0  0
 31 75  2  0  0  0  0
 32 46  1  0  0  0  0
 32 71  1  0  0  0  0
 32 76  2  0  0  0  0
 33 58  1  0  0  0  0
 33 67  1  0  0  0  0
 33 77  2  0  0  0  0
 34 59  1  0  0  0  0
 34 72  1  0  0  0  0
 34 78  2  0  0  0  0
 35 68  1  0  0  0  0
 35 73  1  0  0  0  0
 35 79  2  0  0  0  0
 36 39  1  0  0  0  0
 37 46  1  0  0  0  0
 38 67  1  0  0  0  0
 39 41  1  0  0  0  0
 40 42  1  0  0  0  0
 40 43  1  0  0  0  0
 41 45  1  0  0  0  0
 42 47  1  0  0  0  0
 43 68  1  0  0  0  0
 44 47  1  0  0  0  0
 44 68  1  0  0  0  0
 45 71  1  0  0  0  0
 46 67  1  0  0  0  0
 47 66  1  0  0  0  0
 48 59  1  0  0  0  0
 49 60  1  0  0  0  0
 50 61  1  0  0  0  0
 51 62  1  0  0  0  0
 52 62  1  0  0  0  0
 53 62  1  0  0  0  0
 54 74  1  0  0  0  0
 55 60  1  0  0  0  0
 56 57  1  0  0  0  0
 56 61  1  0  0  0  0
 57 65  1  0  0  0  0
 58 62  1  0  0  0  0
 58 72  1  0  0  0  0
 59 74  1  0  0  0  0
 60 73  1  0  0  0  0
 61 81  1  0  0  0  0
 64 66  1  0  0  0  0
M  CHG  1  74   1
M  ISO  4  35 100  61 101  73 100  81 101
M  END
> <Batch ID>
0082

> <Smiles>
CNC(C)C(=O)NC(C(=O)N1Cc2cc([101O:1][101CH:1](C)CCn3cnc(CC(C)[100NH:0][100C:0](=O)N4CCCC(n5nc(-c6ccc(Oc7ccc(F)cc7F)cc6)c(C(N)=O)c5N)C4)c3)ccc2CC1C(=O)NC1CCCc2ccccc21)C(C)(C)C

> <Shape>
0.240

> <Color>
0.066

> <Negative vol penalty>
0.000

$$$$

  -OEChem-04052318493D

 83 91  0     1  0  0  0  0  0999 V2000
  -19.5948  -28.6690   26.4067 C   0  0  0  0  0  0  0  0  0  0  0  0
  -20.8983  -28.3539   26.0366 C   0  0  0  0  0  0  0  0  0  0  0  0
  -26.6162  -13.7932   21.6146 C   0  0  0  0  0  0  0  0  0  0  0  0
  -24.5179  -14.0112   20.4370 C   0  0  0  0  0  0  0  0  0  0  0  0
  -18.5601  -28.5500   25.4798 C   0  0  0  0  0  0  0  0  0  0  0  0
  -21.1677  -27.9186   24.7396 C   0  0  0  0  0  0  0  0  0  0  0  0
  -26.1997  -29.0645   21.4424 C   0  0  0  0  0  0  0  0  0  0  0  0
  -26.5730  -12.4106   21.4357 C   0  0  0  0  0  0  0  0  0  0  0  0
  -24.4748  -12.6285   20.2580 C   0  0  0  0  0  0  0  0  0  0  0  0
  -27.3491  -28.3155   21.1940 C   0  0  0  0  0  0  0  0  0  0  0  0
  -23.6771   -9.9026   22.0922 C   0  0  0  0  0  0  0  0  0  0  0  0
  -22.4669   -9.2546   22.3393 C   0  0  0  0  0  0  0  0  0  0  0  0
  -26.3884  -27.5397   19.1217 C   0  0  0  0  0  0  0  0  0  0  0  0
  -22.4188   -8.4729   20.0538 C   0  0  0  0  0  0  0  0  0  0  0  0
  -26.7160  -23.8130   21.2383 C   0  0  0  0  0  0  0  0  0  0  0  0
  -25.5886  -14.5935   21.1154 C   0  0  0  0  0  0  0  0  0  0  0  0
  -26.2134  -16.9730   20.4406 C   0  0  0  0  0  0  0  0  0  0  0  0
  -18.8184  -28.1222   24.1680 C   0  0  0  0  0  0  0  0  0  0  0  0
  -25.1298  -29.0481   20.5361 C   0  0  0  0  0  0  0  0  0  0  0  0
  -20.1353  -27.7925   23.7946 C   0  0  0  0  0  0  0  0  0  0  0  0
  -25.2276  -28.2914   19.3597 C   0  0  0  0  0  0  0  0  0  0  0  0
  -28.0454  -23.4859   21.1279 C   0  0  0  0  0  0  0  0  0  0  0  0
  -25.5024  -11.8282   20.7574 C   0  0  0  0  0  0  0  0  0  0  0  0
  -27.4424  -27.5507   20.0349 C   0  0  0  0  0  0  0  0  0  0  0  0
  -24.2581   -9.8359   20.8258 C   0  0  0  0  0  0  0  0  0  0  0  0
  -21.8378   -8.5397   21.3201 C   0  0  0  0  0  0  0  0  0  0  0  0
  -23.6290   -9.1210   19.8067 C   0  0  0  0  0  0  0  0  0  0  0  0
  -25.6323  -16.0218   21.3004 C   0  0  0  0  0  0  0  0  0  0  0  0
  -28.2912  -22.6372   22.2239 C   0  0  0  0  0  0  0  0  0  0  0  0
  -25.9897  -18.1781   21.0605 C   0  0  0  0  0  0  0  0  0  0  0  0
  -26.8945  -16.7842   19.1931 C   0  0  0  0  0  0  0  0  0  0  0  0
  -22.0852  -28.1456   20.6760 C   0  0  0  0  0  0  0  0  0  0  0  0
  -21.9748  -29.4236   17.6966 C   0  0  0  0  0  0  0  0  0  0  0  0
  -23.6535  -30.3127   14.8614 C   0  0  0  0  0  0  0  0  0  0  0  0
  -22.1539  -21.4579   23.6769 C   0  0  0  0  0  0  0  0  0  0  0  0
  -17.6604  -27.9638   23.2148 C   0  0  0  0  0  0  0  0  0  0  0  0
  -23.9078  -29.8826   20.8057 C   0  0  0  0  0  0  0  0  0  0  0  0
  -24.1152  -28.2558   18.3449 C   0  0  0  0  0  0  0  0  0  0  0  0
  -18.0856  -27.8542   21.7528 C   0  0  0  0  0  0  0  0  0  0  0  0
  -24.3276  -19.2530   25.7055 C   0  0  0  0  0  0  0  0  0  0  0  0
  -19.2410  -26.8693   21.6052 C   0  0  0  0  0  0  0  0  0  0  0  0
  -24.8467  -18.2548   24.6720 C   0  0  0  0  0  0  0  0  0  0  0  0
  -22.9571  -19.8040   25.3234 C   0  0  0  0  0  0  0  0  0  0  0  0
  -23.4262  -19.4051   22.9286 C   0  0  0  0  0  0  0  0  0  0  0  0
  -20.4712  -27.3406   22.3900 C   0  0  1  0  0  0  0  0  0  0  0  0
  -22.6702  -29.3869   20.0640 C   0  0  1  0  0  0  0  0  0  0  0  0
  -24.8259  -18.8661   23.2602 C   0  0  2  0  0  0  0  0  0  0  0  0
  -29.5602  -21.9877   22.5964 C   0  0  0  0  0  0  0  0  0  0  0  0
  -23.2878  -31.2985   12.5829 C   0  0  0  0  0  0  0  0  0  0  0  0
  -20.8181  -26.7685   16.7362 C   0  0  0  0  0  0  0  0  0  0  0  0
  -21.3620  -27.4593   14.3920 C   0  0  0  0  0  0  0  0  0  0  0  0
  -19.7438  -28.7956   15.7405 C   0  0  0  0  0  0  0  0  0  0  0  0
  -21.8167  -23.5095   22.3515 C   0  0  0  0  0  0  0  0  0  0  0  0
  -25.4176  -32.6157   15.4474 C   0  0  0  0  0  0  0  0  0  0  0  0
  -29.0139  -23.9413   20.0657 C   0  0  0  0  0  0  0  0  0  0  0  0
  -29.9785  -25.0312   20.5381 C   0  0  0  0  0  0  0  0  0  0  0  0
  -24.9206  -23.2039   22.8769 C   0  0  0  0  0  0  0  0  0  0  0  0
  -23.9547  -22.3023   22.1127 C   0  0  0  0  0  0  0  0  0  0  0  0
  -29.2800  -26.3301   20.9234 C   0  0  0  0  0  0  0  0  0  1  0  0
  -22.2072  -28.9006   16.2996 C   0  0  1  0  0  0  0  0  0  0  0  0
  -23.6324  -31.5865   14.0358 C   0  0  2  0  0  0  0  0  0  0  0  0
  -21.0531  -27.9799   15.8119 C   0  0  0  0  0  0  0  0  0  0  0  0
  -25.0810  -16.5749   22.3840 N   0  0  0  0  0  0  0  0  0  0  0  0
  -27.2051  -22.4377   22.9753 N   0  0  0  0  0  0  0  0  0  0  0  0
  -26.2640  -23.1658   22.3505 N   0  0  0  0  0  0  0  0  0  0  0  0
  -25.3148  -17.8868   22.2093 N   0  0  0  0  0  0  0  0  0  0  0  0
  -22.9383  -29.0836   18.6567 N   0  0  0  0  0  0  0  0  0  0  0  0
  -22.9543  -20.3394   23.9616 N   0  0  0  0  0  0  0  0  0  0  0  0
  -26.3066  -19.4479   20.7295 N   0  0  0  0  0  0  0  0  0  0  0  0
  -27.0365  -15.4799   18.7002 N   0  0  0  0  0  0  0  0  0  0  0  0
  -21.1577  -28.3918   21.6702 N   0  0  0  0  0  0  0  0  0  0  0  0
  -22.4343  -30.0706   15.4583 N   0  0  0  0  0  0  0  0  0  0  0  0
  -22.6061  -22.3296   22.6747 N   0  0  0  0  0  0  0  0  0  0  0  0
  -24.9639  -32.2544   14.0797 N   0  3  0  0  0  0  0  0  0  0  0  0
  -27.3775  -17.7421   18.5431 O   0  0  0  0  0  0  0  0  0  0  0  0
  -22.4474  -27.0458   20.2748 O   0  0  0  0  0  0  0  0  0  0  0  0
  -20.9789  -30.1146   17.9258 O   0  0  0  0  0  0  0  0  0  0  0  0
  -24.6507  -29.6016   14.9634 O   0  0  0  0  0  0  0  0  0  0  0  0
  -21.1004  -21.6708   24.2907 O   0  0  0  0  0  0  0  0  0  0  0  0
  -25.4601  -10.4791   20.5823 O   0  0  0  0  0  0  0  0  0  0  0  0
  -28.5629  -26.8182   19.7903 O   0  0  0  0  0  0  0  0  0  1  0  0
  -20.6764   -7.9162   21.5580 F   0  0  0  0  0  0  0  0  0  0  0  0
  -24.1830   -9.0522   18.5884 F   0  0  0  0  0  0  0  0  0  0  0  0
  1  2  1  0  0  0  0
  1  5  2  0  0  0  0
  2  6  2  0  0  0  0
  3  8  2  0  0  0  0
  3 16  1  0  0  0  0
  4  9  1  0  0  0  0
  4 16  2  0  0  0  0
  5 18  1  0  0  0  0
  6 20  1  0  0  0  0
  7 10  2  0  0  0  0
  7 19  1  0  0  0  0
  8 23  1  0  0  0  0
  9 23  2  0  0  0  0
 10 24  1  0  0  0  0
 11 12  2  0  0  0  0
 11 25  1  0  0  0  0
 12 26  1  0  0  0  0
 13 21  1  0  0  0  0
 13 24  2  0  0  0  0
 14 26  2  0  0  0  0
 14 27  1  0  0  0  0
 15 22  2  0  0  0  0
 15 65  1  0  0  0  0
 16 28  1  0  0  0  0
 17 28  1  0  0  0  0
 17 30  2  0  0  0  0
 17 31  1  0  0  0  0
 18 20  2  0  0  0  0
 18 36  1  0  0  0  0
 19 21  2  0  0  0  0
 19 37  1  0  0  0  0
 20 45  1  0  0  0  0
 21 38  1  0  0  0  0
 22 29  1  0  0  0  0
 22 55  1  0  0  0  0
 23 80  1  0  0  0  0
 24 81  1  0  0  0  0
 25 27  2  0  0  0  0
 25 80  1  0  0  0  0
 26 82  1  0  0  0  0
 27 83  1  0  0  0  0
 28 63  2  0  0  0  0
 29 48  1  0  0  0  0
 29 64  2  0  0  0  0
 30 66  1  0  0  0  0
 30 69  1  0  0  0  0
 31 70  1  0  0  0  0
 31 75  2  0  0  0  0
 32 46  1  0  0  0  0
 32 71  1  0  0  0  0
 32 76  2  0  0  0  0
 33 60  1  0  0  0  0
 33 67  1  0  0  0  0
 33 77  2  0  0  0  0
 34 61  1  0  0  0  0
 34 72  1  0  0  0  0
 34 78  2  0  0  0  0
 35 68  1  0  0  0  0
 35 73  1  0  0  0  0
 35 79  2  0  0  0  0
 36 39  1  0  0  0  0
 37 46  1  0  0  0  0
 38 67  1  0  0  0  0
 39 41  1  0  0  0  0
 40 42  1  0  0  0  0
 40 43  1  0  0  0  0
 41 45  1  0  0  0  0
 42 47  1  0  0  0  0
 43 68  1  0  0  0  0
 44 47  1  0  0  0  0
 44 68  1  0  0  0  0
 45 71  1  0  0  0  0
 46 67  1  0  0  0  0
 47 66  1  0  0  0  0
 49 61  1  0  0  0  0
 50 62  1  0  0  0  0
 51 62  1  0  0  0  0
 52 62  1  0  0  0  0
 53 73  1  0  0  0  0
 54 74  1  0  0  0  0
 55 56  1  0  0  0  0
 56 59  1  0  0  0  0
 57 58  1  0  0  0  0
 57 65  1  0  0  0  0
 58 73  1  0  0  0  0
 59 81  1  0  0  0  0
 60 62  1  0  0  0  0
 60 72  1  0  0  0  0
 61 74  1  0  0  0  0
 63 66  1  0  0  0  0
 64 65  1  0  0  0  0
M  CHG  1  74   1
M  ISO  4  35 100  59 101  73 100  81 101
M  END
> <Batch ID>
0082

> <Smiles>
CNC(C)C(=O)NC(C(=O)N1Cc2cc([101O:1][101CH2:1]CCc3cn(CC[100N:0](C)[100C:0](=O)N4CCCC(n5nc(-c6ccc(Oc7ccc(F)cc7F)cc6)c(C(N)=O)c5N)C4)nc3C)ccc2CC1C(=O)NC1CCCc2ccccc21)C(C)(C)C

> <Shape>
0.192

> <Color>
0.097

> <Negative vol penalty>
0.000

$$$$

  -OEChem-04052318493D

 83 91  0     1  0  0  0  0  0999 V2000
  -28.6455  -21.6427   15.5497 C   0  0  0  0  0  0  0  0  0  0  0  0
  -27.6054  -22.4150   16.0543 C   0  0  0  0  0  0  0  0  0  0  0  0
  -25.6407  -11.3649   21.6343 C   0  0  0  0  0  0  0  0  0  0  0  0
  -25.4722  -12.6026   23.7023 C   0  0  0  0  0  0  0  0  0  0  0  0
  -29.9233  -21.7613   16.0923 C   0  0  0  0  0  0  0  0  0  0  0  0
  -27.8452  -23.3147   17.0935 C   0  0  0  0  0  0  0  0  0  0  0  0
  -24.1497  -26.3063   18.3572 C   0  0  0  0  0  0  0  0  0  0  0  0
  -25.6951  -10.1709   22.3533 C   0  0  0  0  0  0  0  0  0  0  0  0
  -25.5265  -11.4085   24.4214 C   0  0  0  0  0  0  0  0  0  0  0  0
  -23.0155  -25.8590   19.0334 C   0  0  0  0  0  0  0  0  0  0  0  0
  -25.5150   -6.7718   23.6296 C   0  0  0  0  0  0  0  0  0  0  0  0
  -24.7319   -5.7083   23.1808 C   0  0  0  0  0  0  0  0  0  0  0  0
  -23.8667  -26.8125   21.0793 C   0  0  0  0  0  0  0  0  0  0  0  0
  -22.7427   -7.0463   23.4809 C   0  0  0  0  0  0  0  0  0  0  0  0
  -23.8032  -23.4342   23.1595 C   0  0  0  0  0  0  0  0  0  0  0  0
  -25.5293  -12.5808   22.3088 C   0  0  0  0  0  0  0  0  0  0  0  0
  -24.3223  -14.4650   21.0838 C   0  0  0  0  0  0  0  0  0  0  0  0
  -30.1753  -22.6540   17.1470 C   0  0  0  0  0  0  0  0  0  0  0  0
  -25.1577  -27.0017   19.0404 C   0  0  0  0  0  0  0  0  0  0  0  0
  -29.1331  -23.4662   17.6385 C   0  0  0  0  0  0  0  0  0  0  0  0
  -25.0115  -27.2697   20.4089 C   0  0  0  0  0  0  0  0  0  0  0  0
  -25.6380  -10.1927   23.7468 C   0  0  0  0  0  0  0  0  0  0  0  0
  -22.8752  -26.1096   20.3953 C   0  0  0  0  0  0  0  0  0  0  0  0
  -24.9119   -7.9726   24.0041 C   0  0  0  0  0  0  0  0  0  0  0  0
  -23.3458   -5.8456   23.1064 C   0  0  0  0  0  0  0  0  0  0  0  0
  -23.5258   -8.1098   23.9297 C   0  0  0  0  0  0  0  0  0  0  0  0
  -25.4736  -13.8146   21.5667 C   0  0  0  0  0  0  0  0  0  0  0  0
  -24.6282  -22.3821   22.8503 C   0  0  0  0  0  0  0  0  0  0  0  0
  -24.8010  -15.5868   20.4524 C   0  0  0  0  0  0  0  0  0  0  0  0
  -22.9433  -14.0887   21.1961 C   0  0  0  0  0  0  0  0  0  0  0  0
  -28.2367  -26.4797   19.6329 C   0  0  0  0  0  0  0  0  0  0  0  0
  -28.1032  -29.4716   20.8791 C   0  0  0  0  0  0  0  0  0  0  0  0
  -26.2099  -31.9548   22.2559 C   0  0  0  0  0  0  0  0  0  0  0  0
  -28.1950  -20.0146   20.3064 C   0  0  0  0  0  0  0  0  0  0  0  0
  -31.5789  -22.7478   17.6915 C   0  0  0  0  0  0  0  0  0  0  0  0
  -26.3625  -27.5007   18.2909 C   0  0  0  0  0  0  0  0  0  0  0  0
  -26.0555  -28.0297   21.1841 C   0  0  0  0  0  0  0  0  0  0  0  0
  -31.6392  -23.3940   19.0717 C   0  0  0  0  0  0  0  0  0  0  0  0
  -29.5240  -16.9003   19.2056 C   0  0  0  0  0  0  0  0  0  0  0  0
  -30.8480  -24.6935   19.0722 C   0  0  0  0  0  0  0  0  0  0  0  0
  -28.4973  -15.8738   19.6872 C   0  0  0  0  0  0  0  0  0  0  0  0
  -29.6912  -18.0429   20.2049 C   0  0  0  0  0  0  0  0  0  0  0  0
  -27.4107  -17.6914   21.0708 C   0  0  0  0  0  0  0  0  0  0  0  0
  -29.3637  -24.4292   18.7890 C   0  0  1  0  0  0  0  0  0  0  0  0
  -27.5665  -27.7508   19.1938 C   0  0  1  0  0  0  0  0  0  0  0  0
  -27.1666  -16.5488   20.0702 C   0  0  2  0  0  0  0  0  0  0  0  0
  -26.3879  -34.2694   23.2090 C   0  0  0  0  0  0  0  0  0  0  0  0
  -19.0678  -24.4048   21.9902 C   0  0  0  0  0  0  0  0  0  0  0  0
  -29.2934  -28.3218   23.4426 C   0  0  0  0  0  0  0  0  0  0  0  0
  -28.5713  -30.4046   24.6295 C   0  0  0  0  0  0  0  0  0  0  0  0
  -30.2231  -30.5424   22.7653 C   0  0  0  0  0  0  0  0  0  0  0  0
  -24.4028  -33.0685   20.1936 C   0  0  0  0  0  0  0  0  0  0  0  0
  -26.0899  -22.2905   22.9586 C   0  0  0  0  0  0  0  0  0  0  0  0
  -26.8750  -22.7299   21.6951 C   0  0  0  0  0  0  0  0  0  0  0  0
  -21.2427  -23.6836   23.0092 C   0  0  0  0  0  0  0  0  0  0  0  0
  -26.5760  -21.8896   20.4554 C   0  0  0  0  0  0  0  0  0  0  0  0
  -21.1470  -24.4852   20.5712 C   0  0  0  0  0  0  0  0  0  1  0  0
  -27.7995  -30.0503   22.2400 C   0  0  1  0  0  0  0  0  0  0  0  0
  -26.1289  -33.4415   21.9599 C   0  0  2  0  0  0  0  0  0  0  0  0
  -20.4209  -23.7433   21.7037 C   0  0  2  0  0  0  0  0  0  0  0  0
  -28.9529  -29.8137   23.2554 C   0  0  0  0  0  0  0  0  0  0  0  0
  -26.5991  -14.4687   21.2675 N   0  0  0  0  0  0  0  0  0  0  0  0
  -23.8817  -21.3318   22.3931 N   0  0  0  0  0  0  0  0  0  0  0  0
  -22.6056  -21.7012   22.4073 N   0  0  0  0  0  0  0  0  0  0  0  0
  -22.5607  -22.9622   22.8669 N   0  0  0  0  0  0  0  0  0  0  0  0
  -26.1572  -15.5418   20.5898 N   0  0  0  0  0  0  0  0  0  0  0  0
  -27.2183  -28.4914   20.4081 N   0  0  0  0  0  0  0  0  0  0  0  0
  -28.3928  -18.6412   20.5247 N   0  0  0  0  0  0  0  0  0  0  0  0
  -24.1900  -16.5976   19.7986 N   0  0  0  0  0  0  0  0  0  0  0  0
  -22.6270  -12.9056   21.8776 N   0  0  0  0  0  0  0  0  0  0  0  0
  -28.6887  -25.6929   18.5908 N   0  0  0  0  0  0  0  0  0  0  0  0
  -27.4738  -31.4557   22.0224 N   0  0  0  0  0  0  0  0  0  0  0  0
  -26.9338  -20.4996   20.6301 N   0  0  0  0  0  0  0  0  0  0  0  0
  -24.7790  -33.7925   21.4351 N   0  3  0  0  0  0  0  0  0  0  0  0
  -22.0203  -14.7727   20.6925 O   0  0  0  0  0  0  0  0  0  0  0  0
  -28.3376  -26.2318   20.8288 O   0  0  0  0  0  0  0  0  0  0  0  0
  -29.0853  -29.8794   20.2540 O   0  0  0  0  0  0  0  0  0  0  0  0
  -25.2490  -31.3024   22.6578 O   0  0  0  0  0  0  0  0  0  0  0  0
  -29.0753  -20.7528   19.8513 O   0  0  0  0  0  0  0  0  0  0  0  0
  -25.6908   -9.0277   24.4487 O   0  0  0  0  0  0  0  0  0  0  0  0
  -21.7694  -25.6736   21.0579 O   0  0  0  0  0  0  0  0  0  1  0  0
  -22.5941   -4.8248   22.6740 F   0  0  0  0  0  0  0  0  0  0  0  0
  -22.9409   -9.2613   24.2870 F   0  0  0  0  0  0  0  0  0  0  0  0
  1  2  1  0  0  0  0
  1  5  2  0  0  0  0
  2  6  2  0  0  0  0
  3  8  2  0  0  0  0
  3 16  1  0  0  0  0
  4  9  1  0  0  0  0
  4 16  2  0  0  0  0
  5 18  1  0  0  0  0
  6 20  1  0  0  0  0
  7 10  2  0  0  0  0
  7 19  1  0  0  0  0
  8 22  1  0  0  0  0
  9 22  2  0  0  0  0
 10 23  1  0  0  0  0
 11 12  2  0  0  0  0
 11 24  1  0  0  0  0
 12 25  1  0  0  0  0
 13 21  1  0  0  0  0
 13 23  2  0  0  0  0
 14 25  2  0  0  0  0
 14 26  1  0  0  0  0
 15 28  2  0  0  0  0
 15 65  1  0  0  0  0
 16 27  1  0  0  0  0
 17 27  1  0  0  0  0
 17 29  2  0  0  0  0
 17 30  1  0  0  0  0
 18 20  2  0  0  0  0
 18 35  1  0  0  0  0
 19 21  2  0  0  0  0
 19 36  1  0  0  0  0
 20 44  1  0  0  0  0
 21 37  1  0  0  0  0
 22 80  1  0  0  0  0
 23 81  1  0  0  0  0
 24 26  2  0  0  0  0
 24 80  1  0  0  0  0
 25 82  1  0  0  0  0
 26 83  1  0  0  0  0
 27 62  2  0  0  0  0
 28 53  1  0  0  0  0
 28 63  1  0  0  0  0
 29 66  1  0  0  0  0
 29 69  1  0  0  0  0
 30 70  1  0  0  0  0
 30 75  2  0  0  0  0
 31 45  1  0  0  0  0
 31 71  1  0  0  0  0
 31 76  2  0  0  0  0
 32 58  1  0  0  0  0
 32 67  1  0  0  0  0
 32 77  2  0  0  0  0
 33 59  1  0  0  0  0
 33 72  1  0  0  0  0
 33 78  2  0  0  0  0
 34 68  1  0  0  0  0
 34 73  1  0  0  0  0
 34 79  2  0  0  0  0
 35 38  1  0  0  0  0
 36 45  1  0  0  0  0
 37 67  1  0  0  0  0
 38 40  1  0  0  0  0
 39 41  1  0  0  0  0
 39 42  1  0  0  0  0
 40 44  1  0  0  0  0
 41 46  1  0  0  0  0
 42 68  1  0  0  0  0
 43 46  1  0  0  0  0
 43 68  1  0  0  0  0
 44 71  1  0  0  0  0
 45 67  1  0  0  0  0
 46 66  1  0  0  0  0
 47 59  1  0  0  0  0
 48 60  1  0  0  0  0
 49 61  1  0  0  0  0
 50 61  1  0  0  0  0
 51 61  1  0  0  0  0
 52 74  1  0  0  0  0
 53 54  1  0  0  0  0
 54 56  1  0  0  0  0
 55 60  1  0  0  0  0
 55 65  1  0  0  0  0
 56 73  1  0  0  0  0
 57 60  1  0  0  0  0
 57 81  1  0  0  0  0
 58 61  1  0  0  0  0
 58 72  1  0  0  0  0
 59 74  1  0  0  0  0
 62 66  1  0  0  0  0
 63 64  2  0  0  0  0
 64 65  1  0  0  0  0
M  CHG  1  74   1
M  ISO  4  34 100  57 101  73 100  81 101
M  END
> <Batch ID>
0082

> <Smiles>
CNC(C)C(=O)NC(C(=O)N1Cc2cc([101O:1][101CH2:1]C(C)Cn3cc(CCC[100NH:0][100C:0](=O)N4CCCC(n5nc(-c6ccc(Oc7ccc(F)cc7F)cc6)c(C(N)=O)c5N)C4)nn3)ccc2CC1C(=O)NC1CCCc2ccccc21)C(C)(C)C

> <Shape>
0.218

> <Color>
0.065

> <Negative vol penalty>
0.000

$$$$

  -OEChem-04052318493D

 82 90  0     1  0  0  0  0  0999 V2000
  -20.8716  -30.1778   25.3550 C   0  0  0  0  0  0  0  0  0  0  0  0
  -22.0122  -29.5407   24.8770 C   0  0  0  0  0  0  0  0  0  0  0  0
  -23.3946  -17.8952   19.7263 C   0  0  0  0  0  0  0  0  0  0  0  0
  -25.1577  -17.3004   21.2673 C   0  0  0  0  0  0  0  0  0  0  0  0
  -19.6268  -29.8866   24.7986 C   0  0  0  0  0  0  0  0  0  0  0  0
  -21.9085  -28.6111   23.8429 C   0  0  0  0  0  0  0  0  0  0  0  0
  -25.4708  -29.2415   20.2992 C   0  0  0  0  0  0  0  0  0  0  0  0
  -22.8869  -16.5985   19.8068 C   0  0  0  0  0  0  0  0  0  0  0  0
  -24.6500  -16.0037   21.3478 C   0  0  0  0  0  0  0  0  0  0  0  0
  -26.7487  -28.7655   20.5893 C   0  0  0  0  0  0  0  0  0  0  0  0
  -24.7141  -13.1831   19.4848 C   0  0  0  0  0  0  0  0  0  0  0  0
  -25.6208  -12.1261   19.4067 C   0  0  0  0  0  0  0  0  0  0  0  0
  -26.3079  -26.7952   19.2691 C   0  0  0  0  0  0  0  0  0  0  0  0
  -30.8550  -23.1892   20.5434 C   0  0  0  0  0  0  0  0  0  0  0  0
  -24.9384  -11.3787   21.6005 C   0  0  0  0  0  0  0  0  0  0  0  0
  -29.3359  -23.0397   22.3673 C   0  0  0  0  0  0  0  0  0  0  0  0
  -24.5300  -18.2461   20.4566 C   0  0  0  0  0  0  0  0  0  0  0  0
  -24.7158  -20.6835   21.1861 C   0  0  0  0  0  0  0  0  0  0  0  0
  -19.5090  -28.9600   23.7507 C   0  0  0  0  0  0  0  0  0  0  0  0
  -24.5964  -28.4915   19.4995 C   0  0  0  0  0  0  0  0  0  0  0  0
  -20.6608  -28.3061   23.2728 C   0  0  0  0  0  0  0  0  0  0  0  0
  -25.0203  -27.2651   18.9683 C   0  0  0  0  0  0  0  0  0  0  0  0
  -29.9784  -23.8197   21.4194 C   0  0  0  0  0  0  0  0  0  0  0  0
  -31.0595  -21.8173   20.6408 C   0  0  0  0  0  0  0  0  0  0  0  0
  -23.5145  -15.6528   20.6175 C   0  0  0  0  0  0  0  0  0  0  0  0
  -27.1664  -27.5409   20.0766 C   0  0  0  0  0  0  0  0  0  0  0  0
  -23.9195  -13.3380   20.6207 C   0  0  0  0  0  0  0  0  0  0  0  0
  -25.7330  -11.2239   20.4646 C   0  0  0  0  0  0  0  0  0  0  0  0
  -24.0317  -12.4358   21.6786 C   0  0  0  0  0  0  0  0  0  0  0  0
  -25.0553  -19.5853   20.3735 C   0  0  0  0  0  0  0  0  0  0  0  0
  -30.3688  -21.1270   21.6237 C   0  0  0  0  0  0  0  0  0  0  0  0
  -25.4843  -21.7160   20.7066 C   0  0  0  0  0  0  0  0  0  0  0  0
  -23.7887  -20.7633   22.2769 C   0  0  0  0  0  0  0  0  0  0  0  0
  -21.7550  -27.1375   19.9427 C   0  0  0  0  0  0  0  0  0  0  0  0
  -30.6773  -21.7845   17.6834 C   0  0  0  0  0  0  0  0  0  0  0  0
  -21.9819  -26.5324   16.7639 C   0  0  0  0  0  0  0  0  0  0  0  0
  -23.9815  -26.1022   14.0320 C   0  0  0  0  0  0  0  0  0  0  0  0
  -18.1361  -28.6428   23.2130 C   0  0  0  0  0  0  0  0  0  0  0  0
  -23.2308  -29.0314   19.1740 C   0  0  0  0  0  0  0  0  0  0  0  0
  -24.1271  -26.4311   18.0879 C   0  0  0  0  0  0  0  0  0  0  0  0
  -18.1604  -27.9228   21.8672 C   0  0  0  0  0  0  0  0  0  0  0  0
  -27.5765  -23.2958   16.7135 C   0  0  0  0  0  0  0  0  0  0  0  0
  -19.1734  -26.7826   21.8899 C   0  0  0  0  0  0  0  0  0  0  0  0
  -26.5442  -22.5951   17.5958 C   0  0  0  0  0  0  0  0  0  0  0  0
  -28.7007  -22.3475   16.3086 C   0  0  0  0  0  0  0  0  0  0  0  0
  -28.3543  -20.9871   18.3460 C   0  0  0  0  0  0  0  0  0  0  0  0
  -20.5922  -27.3100   22.1356 C   0  0  1  0  0  0  0  0  0  0  0  0
  -22.2390  -27.9444   18.7713 C   0  0  1  0  0  0  0  0  0  0  0  0
  -27.2172  -21.9181   18.8029 C   0  0  2  0  0  0  0  0  0  0  0  0
  -30.5497  -19.6519   21.7756 C   0  0  0  0  0  0  0  0  0  0  0  0
  -32.3222  -19.9662   17.4752 C   0  0  0  0  0  0  0  0  0  0  0  0
  -23.8806  -25.5815   11.5793 C   0  0  0  0  0  0  0  0  0  0  0  0
  -21.4450  -23.5993   17.4110 C   0  0  0  0  0  0  0  0  0  0  0  0
  -22.2854  -23.0136   15.1265 C   0  0  0  0  0  0  0  0  0  0  0  0
  -20.2633  -24.4524   15.3788 C   0  0  0  0  0  0  0  0  0  0  0  0
  -25.2304  -28.6873   13.3136 C   0  0  0  0  0  0  0  0  0  0  0  0
  -29.7348  -25.3072   21.3409 C   0  0  0  0  0  0  0  0  0  0  0  0
  -31.9960  -21.1352   19.7043 C   0  0  0  0  0  0  0  0  0  0  0  0
  -28.5797  -25.6573   20.4090 C   0  0  0  0  0  0  0  0  0  1  0  0
  -31.3196  -20.6312   18.4124 C   0  0  1  0  0  0  0  0  0  0  0  0
  -22.5395  -25.4065   15.9270 C   0  0  1  0  0  0  0  0  0  0  0  0
  -23.9099  -26.6803   12.6302 C   0  0  2  0  0  0  0  0  0  0  0  0
  -21.6497  -24.1325   15.9790 C   0  0  0  0  0  0  0  0  0  0  0  0
  -29.5091  -21.7048   22.4925 N   0  0  0  0  0  0  0  0  0  0  0  0
  -25.9683  -19.8914   19.4479 N   0  0  0  0  0  0  0  0  0  0  0  0
  -26.2089  -21.1938   19.6759 N   0  0  0  0  0  0  0  0  0  0  0  0
  -22.7989  -26.9988   17.8035 N   0  0  0  0  0  0  0  0  0  0  0  0
  -29.2992  -21.7076   17.4814 N   0  0  0  0  0  0  0  0  0  0  0  0
  -25.6041  -23.0105   21.0703 N   0  0  0  0  0  0  0  0  0  0  0  0
  -23.0819  -19.6084   22.6388 N   0  0  0  0  0  0  0  0  0  0  0  0
  -21.1340  -27.8866   20.9238 N   0  0  0  0  0  0  0  0  0  0  0  0
  -22.7282  -25.9493   14.5861 N   0  0  0  0  0  0  0  0  0  0  0  0
  -25.0912  -27.5503   12.3678 N   0  3  0  0  0  0  0  0  0  0  0  0
  -23.5809  -21.8312   22.9013 O   0  0  0  0  0  0  0  0  0  0  0  0
  -21.9306  -25.9247   19.9548 O   0  0  0  0  0  0  0  0  0  0  0  0
  -31.3807  -22.7261   17.3081 O   0  0  0  0  0  0  0  0  0  0  0  0
  -20.8656  -26.9863   16.5002 O   0  0  0  0  0  0  0  0  0  0  0  0
  -25.0429  -25.8115   14.5793 O   0  0  0  0  0  0  0  0  0  0  0  0
  -23.0192  -14.3875   20.6964 O   0  0  0  0  0  0  0  0  0  0  0  0
  -28.4130  -27.0736   20.3587 O   0  0  0  0  0  0  0  0  0  1  0  0
  -26.6027  -10.2080   20.3888 F   0  0  0  0  0  0  0  0  0  0  0  0
  -23.2702  -12.5788   22.7720 F   0  0  0  0  0  0  0  0  0  0  0  0
  1  2  1  0  0  0  0
  1  5  2  0  0  0  0
  2  6  2  0  0  0  0
  3  8  2  0  0  0  0
  3 17  1  0  0  0  0
  4  9  1  0  0  0  0
  4 17  2  0  0  0  0
  5 19  1  0  0  0  0
  6 21  1  0  0  0  0
  7 10  2  0  0  0  0
  7 20  1  0  0  0  0
  8 25  1  0  0  0  0
  9 25  2  0  0  0  0
 10 26  1  0  0  0  0
 11 12  2  0  0  0  0
 11 27  1  0  0  0  0
 12 28  1  0  0  0  0
 13 22  1  0  0  0  0
 13 26  2  0  0  0  0
 14 23  2  0  0  0  0
 14 24  1  0  0  0  0
 15 28  2  0  0  0  0
 15 29  1  0  0  0  0
 16 23  1  0  0  0  0
 16 64  2  0  0  0  0
 17 30  1  0  0  0  0
 18 30  1  0  0  0  0
 18 32  2  0  0  0  0
 18 33  1  0  0  0  0
 19 21  2  0  0  0  0
 19 38  1  0  0  0  0
 20 22  2  0  0  0  0
 20 39  1  0  0  0  0
 21 47  1  0  0  0  0
 22 40  1  0  0  0  0
 23 57  1  0  0  0  0
 24 31  2  0  0  0  0
 24 58  1  0  0  0  0
 25 79  1  0  0  0  0
 26 80  1  0  0  0  0
 27 29  2  0  0  0  0
 27 79  1  0  0  0  0
 28 81  1  0  0  0  0
 29 82  1  0  0  0  0
 30 65  2  0  0  0  0
 31 50  1  0  0  0  0
 31 64  1  0  0  0  0
 32 66  1  0  0  0  0
 32 69  1  0  0  0  0
 33 70  1  0  0  0  0
 33 74  2  0  0  0  0
 34 48  1  0  0  0  0
 34 71  1  0  0  0  0
 34 75  2  0  0  0  0
 35 60  1  0  0  0  0
 35 68  1  0  0  0  0
 35 76  2  0  0  0  0
 36 61  1  0  0  0  0
 36 67  1  0  0  0  0
 36 77  2  0  0  0  0
 37 62  1  0  0  0  0
 37 72  1  0  0  0  0
 37 78  2  0  0  0  0
 38 41  1  0  0  0  0
 39 48  1  0  0  0  0
 40 67  1  0  0  0  0
 41 43  1  0  0  0  0
 42 44  1  0  0  0  0
 42 45  1  0  0  0  0
 43 47  1  0  0  0  0
 44 49  1  0  0  0  0
 45 68  1  0  0  0  0
 46 49  1  0  0  0  0
 46 68  1  0  0  0  0
 47 71  1  0  0  0  0
 48 67  1  0  0  0  0
 49 66  1  0  0  0  0
 51 60  1  0  0  0  0
 52 62  1  0  0  0  0
 53 63  1  0  0  0  0
 54 63  1  0  0  0  0
 55 63  1  0  0  0  0
 56 73  1  0  0  0  0
 57 59  1  0  0  0  0
 58 60  1  0  0  0  0
 59 80  1  0  0  0  0
 61 63  1  0  0  0  0
 61 72  1  0  0  0  0
 62 73  1  0  0  0  0
 65 66  1  0  0  0  0
M  CHG  1  73   1
M  ISO  4  35 100  59 101  60 100  80 101
M  END
> <Batch ID>
0082

> <Smiles>
CNC(C)C(=O)NC(C(=O)N1Cc2cc([101O:1][101CH2:1]Cc3cnc(C)c(C[100CH:0](C)[100C:0](=O)N4CCCC(n5nc(-c6ccc(Oc7ccc(F)cc7F)cc6)c(C(N)=O)c5N)C4)c3)ccc2CC1C(=O)NC1CCCc2ccccc21)C(C)(C)C

> <Shape>
0.175

> <Color>
0.076

> <Negative vol penalty>
0.000

$$$$

  -OEChem-04052318493D

 86 94  0     1  0  0  0  0  0999 V2000
  -28.6936  -21.4924   15.2470 C   0  0  0  0  0  0  0  0  0  0  0  0
  -27.6999  -21.7818   16.1753 C   0  0  0  0  0  0  0  0  0  0  0  0
  -24.2812  -13.6883   19.6381 C   0  0  0  0  0  0  0  0  0  0  0  0
  -23.6565  -14.7629   21.7099 C   0  0  0  0  0  0  0  0  0  0  0  0
  -29.8108  -22.3189   15.1472 C   0  0  0  0  0  0  0  0  0  0  0  0
  -27.8174  -22.9042   16.9958 C   0  0  0  0  0  0  0  0  0  0  0  0
  -23.9499  -24.0192   19.8248 C   0  0  0  0  0  0  0  0  0  0  0  0
  -23.5033  -12.5814   19.9777 C   0  0  0  0  0  0  0  0  0  0  0  0
  -22.8786  -13.6560   22.0494 C   0  0  0  0  0  0  0  0  0  0  0  0
  -23.5908  -23.2657   20.9415 C   0  0  0  0  0  0  0  0  0  0  0  0
  -23.7668   -9.8731   21.9826 C   0  0  0  0  0  0  0  0  0  0  0  0
  -24.3212   -8.6081   21.7879 C   0  0  0  0  0  0  0  0  0  0  0  0
  -24.5369  -24.9562   22.3789 C   0  0  0  0  0  0  0  0  0  0  0  0
  -26.9053  -20.9025   22.7257 C   0  0  0  0  0  0  0  0  0  0  0  0
  -22.5249   -8.0545   20.2701 C   0  0  0  0  0  0  0  0  0  0  0  0
  -27.4152  -20.8905   24.9188 C   0  0  0  0  0  0  0  0  0  0  0  0
  -24.3578  -14.7791   20.5042 C   0  0  0  0  0  0  0  0  0  0  0  0
  -24.7511  -17.0634   19.4390 C   0  0  0  0  0  0  0  0  0  0  0  0
  -29.9472  -23.4448   15.9758 C   0  0  0  0  0  0  0  0  0  0  0  0
  -24.6161  -25.2437   19.9766 C   0  0  0  0  0  0  0  0  0  0  0  0
  -28.9259  -23.7640   16.8937 C   0  0  0  0  0  0  0  0  0  0  0  0
  -24.9011  -25.7246   21.2626 C   0  0  0  0  0  0  0  0  0  0  0  0
  -26.3660  -20.7959   24.0314 C   0  0  0  0  0  0  0  0  0  0  0  0
  -22.8020  -12.5653   21.1833 C   0  0  0  0  0  0  0  0  0  0  0  0
  -23.8868  -23.7328   22.2187 C   0  0  0  0  0  0  0  0  0  0  0  0
  -22.5914  -10.2288   21.3211 C   0  0  0  0  0  0  0  0  0  0  0  0
  -23.7003   -7.6988   20.9316 C   0  0  0  0  0  0  0  0  0  0  0  0
  -21.9705   -9.3195   20.4648 C   0  0  0  0  0  0  0  0  0  0  0  0
  -25.1616  -15.9225   20.1543 C   0  0  0  0  0  0  0  0  0  0  0  0
  -28.2677  -21.0587   22.8549 C   0  0  0  0  0  0  0  0  0  0  0  0
  -25.8755  -17.8493   19.3714 C   0  0  0  0  0  0  0  0  0  0  0  0
  -23.4680  -17.3842   18.8853 C   0  0  0  0  0  0  0  0  0  0  0  0
  -27.4511  -26.3794   19.0953 C   0  0  0  0  0  0  0  0  0  0  0  0
  -26.2717  -29.1582   20.2828 C   0  0  0  0  0  0  0  0  0  0  0  0
  -30.3336  -20.1131   21.8794 C   0  0  0  0  0  0  0  0  0  0  0  0
  -24.0783  -30.7102   22.3867 C   0  0  0  0  0  0  0  0  0  0  0  0
  -31.1733  -24.3094   15.8202 C   0  0  0  0  0  0  0  0  0  0  0  0
  -24.9728  -26.0572   18.7628 C   0  0  0  0  0  0  0  0  0  0  0  0
  -25.5967  -27.0426   21.4803 C   0  0  0  0  0  0  0  0  0  0  0  0
  -31.4212  -25.2119   17.0245 C   0  0  0  0  0  0  0  0  0  0  0  0
  -30.6910  -16.8257   20.4990 C   0  0  0  0  0  0  0  0  0  0  0  0
  -30.1424  -25.9487   17.3939 C   0  0  0  0  0  0  0  0  0  0  0  0
  -29.2497  -16.3799   20.2558 C   0  0  0  0  0  0  0  0  0  0  0  0
  -30.8046  -17.6890   21.7515 C   0  0  0  0  0  0  0  0  0  0  0  0
  -28.4578  -18.4347   21.5110 C   0  0  0  0  0  0  0  0  0  0  0  0
  -29.0468  -24.9623   17.8178 C   0  0  1  0  0  0  0  0  0  0  0  0
  -26.1065  -27.0457   19.0180 C   0  0  1  0  0  0  0  0  0  0  0  0
  -28.2936  -17.5857   20.2380 C   0  0  2  0  0  0  0  0  0  0  0  0
  -25.0646  -18.0531   24.3413 C   0  0  0  0  0  0  0  0  0  0  0  0
  -23.3745  -32.9890   23.1672 C   0  0  0  0  0  0  0  0  0  0  0  0
  -30.3063  -19.9357   25.5416 C   0  0  0  0  0  0  0  0  0  0  0  0
  -30.0104  -22.4480   25.6235 C   0  0  0  0  0  0  0  0  0  0  0  0
  -30.0774  -22.5592   21.9796 C   0  0  0  0  0  0  0  0  0  0  0  0
  -28.8216  -21.1664   20.3313 C   0  0  0  0  0  0  0  0  0  0  0  0
  -28.7783  -29.3369   22.0134 C   0  0  0  0  0  0  0  0  0  0  0  0
  -27.6063  -31.0516   23.4114 C   0  0  0  0  0  0  0  0  0  0  0  0
  -28.0538  -31.5052   20.9996 C   0  0  0  0  0  0  0  0  0  0  0  0
  -21.3201  -30.3294   21.3833 C   0  0  0  0  0  0  0  0  0  0  0  0
  -24.6465  -19.2834   25.1382 C   0  0  0  0  0  0  0  0  0  0  0  0
  -24.3530  -21.7934   25.2194 C   0  0  0  0  0  0  0  0  0  0  0  0
  -24.3658  -23.1208   24.4663 C   0  0  0  0  0  0  0  0  0  1  0  0
  -24.8994  -20.6115   24.3888 C   0  0  1  0  0  0  0  0  0  0  0  0
  -26.2719  -29.8282   21.6356 C   0  0  1  0  0  0  0  0  0  0  0  0
  -23.1227  -31.8696   22.1691 C   0  0  2  0  0  0  0  0  0  0  0  0
  -29.8868  -21.1865   24.7669 C   0  0  0  0  0  0  0  0  0  0  0  0
  -29.3067  -21.2156   21.8161 C   0  0  0  0  0  0  0  0  0  0  0  0
  -27.6662  -30.4047   22.0112 C   0  0  0  0  0  0  0  0  0  0  0  0
  -26.4466  -15.9749   20.5151 N   0  0  0  0  0  0  0  0  0  0  0  0
  -28.5664  -21.0497   24.1924 N   0  0  0  0  0  0  0  0  0  0  0  0
  -26.8532  -17.1581   20.0245 N   0  0  0  0  0  0  0  0  0  0  0  0
  -25.9308  -27.7983   20.2618 N   0  0  0  0  0  0  0  0  0  0  0  0
  -29.8649  -18.8106   21.7063 N   0  0  0  0  0  0  0  0  0  0  0  0
  -26.1134  -19.0572   18.8175 N   0  0  0  0  0  0  0  0  0  0  0  0
  -22.4223  -16.4649   19.0459 N   0  0  0  0  0  0  0  0  0  0  0  0
  -27.7968  -25.6764   17.9570 N   0  0  0  0  0  0  0  0  0  0  0  0
  -25.2045  -30.8220   21.5991 N   0  0  0  0  0  0  0  0  0  0  0  0
  -21.7120  -31.4135   22.3205 N   0  3  0  0  0  0  0  0  0  0  0  0
  -23.2595  -18.4468   18.2522 O   0  0  0  0  0  0  0  0  0  0  0  0
  -28.1256  -26.4959   20.1118 O   0  0  0  0  0  0  0  0  0  0  0  0
  -26.5564  -29.8188   19.2807 O   0  0  0  0  0  0  0  0  0  0  0  0
  -31.5169  -20.4030   22.0741 O   0  0  0  0  0  0  0  0  0  0  0  0
  -23.8503  -29.7988   23.1791 O   0  0  0  0  0  0  0  0  0  0  0  0
  -22.0427  -11.4854   21.5149 O   0  0  0  0  0  0  0  0  0  0  0  0
  -23.5380  -22.9990   23.3104 O   0  0  0  0  0  0  0  0  0  1  0  0
  -24.2336   -6.4845   20.7436 F   0  0  0  0  0  0  0  0  0  0  0  0
  -20.8417   -9.6560   19.8256 F   0  0  0  0  0  0  0  0  0  0  0  0
  1  2  1  0  0  0  0
  1  5  2  0  0  0  0
  2  6  2  0  0  0  0
  3  8  2  0  0  0  0
  3 17  1  0  0  0  0
  4  9  1  0  0  0  0
  4 17  2  0  0  0  0
  5 19  1  0  0  0  0
  6 21  1  0  0  0  0
  7 10  2  0  0  0  0
  7 20  1  0  0  0  0
  8 24  1  0  0  0  0
  9 24  2  0  0  0  0
 10 25  1  0  0  0  0
 11 12  2  0  0  0  0
 11 26  1  0  0  0  0
 12 27  1  0  0  0  0
 13 22  1  0  0  0  0
 13 25  2  0  0  0  0
 14 23  1  0  0  0  0
 14 30  2  0  0  0  0
 15 27  2  0  0  0  0
 15 28  1  0  0  0  0
 16 23  2  0  0  0  0
 16 69  1  0  0  0  0
 17 29  1  0  0  0  0
 18 29  1  0  0  0  0
 18 31  2  0  0  0  0
 18 32  1  0  0  0  0
 19 21  2  0  0  0  0
 19 37  1  0  0  0  0
 20 22  2  0  0  0  0
 20 38  1  0  0  0  0
 21 46  1  0  0  0  0
 22 39  1  0  0  0  0
 23 62  1  0  0  0  0
 24 83  1  0  0  0  0
 25 84  1  0  0  0  0
 26 28  2  0  0  0  0
 26 83  1  0  0  0  0
 27 85  1  0  0  0  0
 28 86  1  0  0  0  0
 29 68  2  0  0  0  0
 30 66  1  0  0  0  0
 30 69  1  0  0  0  0
 31 70  1  0  0  0  0
 31 73  1  0  0  0  0
 32 74  1  0  0  0  0
 32 78  2  0  0  0  0
 33 47  1  0  0  0  0
 33 75  1  0  0  0  0
 33 79  2  0  0  0  0
 34 63  1  0  0  0  0
 34 71  1  0  0  0  0
 34 80  2  0  0  0  0
 35 66  1  0  0  0  0
 35 72  1  0  0  0  0
 35 81  2  0  0  0  0
 36 64  1  0  0  0  0
 36 76  1  0  0  0  0
 36 82  2  0  0  0  0
 37 40  1  0  0  0  0
 38 47  1  0  0  0  0
 39 71  1  0  0  0  0
 40 42  1  0  0  0  0
 41 43  1  0  0  0  0
 41 44  1  0  0  0  0
 42 46  1  0  0  0  0
 43 48  1  0  0  0  0
 44 72  1  0  0  0  0
 45 48  1  0  0  0  0
 45 72  1  0  0  0  0
 46 75  1  0  0  0  0
 47 71  1  0  0  0  0
 48 70  1  0  0  0  0
 49 59  1  0  0  0  0
 50 64  1  0  0  0  0
 51 65  1  0  0  0  0
 52 65  1  0  0  0  0
 53 66  1  0  0  0  0
 54 66  1  0  0  0  0
 55 67  1  0  0  0  0
 56 67  1  0  0  0  0
 57 67  1  0  0  0  0
 58 77  1  0  0  0  0
 59 62  1  0  0  0  0
 60 61  1  0  0  0  0
 60 62  1  0  0  0  0
 61 84  1  0  0  0  0
 63 67  1  0  0  0  0
 63 76  1  0  0  0  0
 64 77  1  0  0  0  0
 65 69  1  0  0  0  0
 68 70  1  0  0  0  0
M  CHG  1  77   1
M  ISO  4  35 100  61 101  66 100  84 101
M  END
> <Batch ID>
0082

> <Smiles>
CCC(C[101CH2:1][101O:1]c1ccc2c(c1)CN(C(=O)C(NC(=O)C(C)NC)C(C)(C)C)C(C(=O)NC1CCCc3ccccc31)C2)c1cc([100C:0](C)(C)[100C:0](=O)N2CCCC(n3nc(-c4ccc(Oc5ccc(F)cc5F)cc4)c(C(N)=O)c3N)C2)n(C(C)C)c1

> <Shape>
0.219

> <Color>
0.044

> <Negative vol penalty>
0.000

$$$$

  -OEChem-04052318493D

 83 91  0     1  0  0  0  0  0999 V2000
  -27.4131  -28.1176   23.6486 C   0  0  0  0  0  0  0  0  0  0  0  0
  -27.6793  -26.8440   23.1562 C   0  0  0  0  0  0  0  0  0  0  0  0
  -23.4170   -9.7087   19.9075 C   0  0  0  0  0  0  0  0  0  0  0  0
  -23.9293   -9.8594   22.2638 C   0  0  0  0  0  0  0  0  0  0  0  0
  -26.9353  -29.1089   22.7925 C   0  0  0  0  0  0  0  0  0  0  0  0
  -27.4668  -26.5606   21.8075 C   0  0  0  0  0  0  0  0  0  0  0  0
  -31.2855  -23.9511   19.7454 C   0  0  0  0  0  0  0  0  0  0  0  0
  -22.8003   -8.4759   20.1204 C   0  0  0  0  0  0  0  0  0  0  0  0
  -23.3125   -8.6265   22.4767 C   0  0  0  0  0  0  0  0  0  0  0  0
  -31.3423  -22.5846   20.0162 C   0  0  0  0  0  0  0  0  0  0  0  0
  -20.7733   -5.4582   20.1017 C   0  0  0  0  0  0  0  0  0  0  0  0
  -19.5412   -5.2348   19.4874 C   0  0  0  0  0  0  0  0  0  0  0  0
  -30.3539  -22.1234   17.8646 C   0  0  0  0  0  0  0  0  0  0  0  0
  -28.1142  -16.3426   24.5434 C   0  0  0  0  0  0  0  0  0  0  0  0
  -18.6059   -7.1171   20.6788 C   0  0  0  0  0  0  0  0  0  0  0  0
  -29.6995  -15.2348   25.6964 C   0  0  0  0  0  0  0  0  0  0  0  0
  -23.9816  -10.4004   20.9792 C   0  0  0  0  0  0  0  0  0  0  0  0
  -24.0179  -12.9455   20.8094 C   0  0  0  0  0  0  0  0  0  0  0  0
  -26.7259  -28.8402   21.4306 C   0  0  0  0  0  0  0  0  0  0  0  0
  -30.7516  -24.4152   18.5347 C   0  0  0  0  0  0  0  0  0  0  0  0
  -26.9844  -27.5489   20.9327 C   0  0  0  0  0  0  0  0  0  0  0  0
  -30.2938  -23.4961   17.5798 C   0  0  0  0  0  0  0  0  0  0  0  0
  -28.4173  -15.7302   25.7845 C   0  0  0  0  0  0  0  0  0  0  0  0
  -22.7479   -7.9348   21.4050 C   0  0  0  0  0  0  0  0  0  0  0  0
  -30.8738  -21.6707   19.0769 C   0  0  0  0  0  0  0  0  0  0  0  0
  -20.9218   -6.5110   21.0047 C   0  0  0  0  0  0  0  0  0  0  0  0
  -18.4574   -6.0643   19.7759 C   0  0  0  0  0  0  0  0  0  0  0  0
  -19.8381   -7.3404   21.2932 C   0  0  0  0  0  0  0  0  0  0  0  0
  -24.6194  -11.6737   20.7598 C   0  0  0  0  0  0  0  0  0  0  0  0
  -29.2204  -16.2026   23.7347 C   0  0  0  0  0  0  0  0  0  0  0  0
  -25.0402  -13.8199   20.5321 C   0  0  0  0  0  0  0  0  0  0  0  0
  -22.6568  -13.3045   21.0819 C   0  0  0  0  0  0  0  0  0  0  0  0
  -28.2803  -26.2443   17.7277 C   0  0  0  0  0  0  0  0  0  0  0  0
  -29.5401  -25.9588   14.7522 C   0  0  0  0  0  0  0  0  0  0  0  0
  -31.4770  -24.1699   12.5854 C   0  0  0  0  0  0  0  0  0  0  0  0
  -30.9847  -13.4733   21.1590 C   0  0  0  0  0  0  0  0  0  0  0  0
  -26.1633  -29.9307   20.5537 C   0  0  0  0  0  0  0  0  0  0  0  0
  -30.7220  -25.8912   18.2467 C   0  0  0  0  0  0  0  0  0  0  0  0
  -29.7300  -23.9422   16.2563 C   0  0  0  0  0  0  0  0  0  0  0  0
  -26.3205  -29.6537   19.0608 C   0  0  0  0  0  0  0  0  0  0  0  0
  -29.1821  -14.1050   18.1543 C   0  0  0  0  0  0  0  0  0  0  0  0
  -25.9033  -28.2227   18.7365 C   0  0  0  0  0  0  0  0  0  0  0  0
  -27.7540  -13.6683   18.4858 C   0  0  0  0  0  0  0  0  0  0  0  0
  -30.2175  -13.2008   18.8194 C   0  0  0  0  0  0  0  0  0  0  0  0
  -28.6300  -12.6079   20.6088 C   0  0  0  0  0  0  0  0  0  0  0  0
  -26.7901  -27.2097   19.4707 C   0  0  1  0  0  0  0  0  0  0  0  0
  -29.6851  -26.2742   17.1954 C   0  0  1  0  0  0  0  0  0  0  0  0
  -27.5506  -13.5233   20.0060 C   0  0  2  0  0  0  0  0  0  0  0  0
  -27.5253  -15.6394   26.9561 C   0  0  0  0  0  0  0  0  0  0  0  0
  -32.2886  -24.1669   10.2108 C   0  0  0  0  0  0  0  0  0  0  0  0
  -26.7971  -25.0029   13.8184 C   0  0  0  0  0  0  0  0  0  0  0  0
  -27.8859  -24.1312   11.7393 C   0  0  0  0  0  0  0  0  0  0  0  0
  -27.9454  -26.5728   12.2465 C   0  0  0  0  0  0  0  0  0  0  0  0
  -34.3082  -24.3401   13.4307 C   0  0  0  0  0  0  0  0  0  0  0  0
  -29.4476  -16.6651   22.3175 C   0  0  0  0  0  0  0  0  0  0  0  0
  -30.0445  -18.0730   22.2139 C   0  0  0  0  0  0  0  0  0  0  0  0
  -30.1957  -18.5544   20.7702 C   0  0  0  0  0  0  0  0  0  0  0  0
  -31.4953  -15.1708   23.9670 C   0  0  0  0  0  0  0  0  0  0  0  0
  -31.6026  -13.7059   23.5514 C   0  0  0  0  0  0  0  0  0  0  0  0
  -30.8276  -19.9383   20.7056 C   0  0  0  0  0  0  0  0  0  1  0  0
  -29.3703  -24.9890   13.6079 C   0  0  1  0  0  0  0  0  0  0  0  0
  -32.5859  -24.5945   11.6397 C   0  0  2  0  0  0  0  0  0  0  0  0
  -28.0084  -25.1653   12.8787 C   0  0  0  0  0  0  0  0  0  0  0  0
  -25.9227  -11.7305   20.4733 N   0  0  0  0  0  0  0  0  0  0  0  0
  -30.1778  -15.5274   24.4459 N   0  0  0  0  0  0  0  0  0  0  0  0
  -26.1486  -13.0486   20.3404 N   0  0  0  0  0  0  0  0  0  0  0  0
  -29.7166  -25.3959   16.0241 N   0  0  0  0  0  0  0  0  0  0  0  0
  -29.9694  -13.1070   20.2601 N   0  0  0  0  0  0  0  0  0  0  0  0
  -25.0901  -15.1655   20.4360 N   0  0  0  0  0  0  0  0  0  0  0  0
  -21.7362  -12.2814   21.3467 N   0  0  0  0  0  0  0  0  0  0  0  0
  -28.0692  -27.0825   18.8058 N   0  0  0  0  0  0  0  0  0  0  0  0
  -30.5357  -25.1643   12.7479 N   0  0  0  0  0  0  0  0  0  0  0  0
  -30.6647  -13.3606   22.5065 N   0  0  0  0  0  0  0  0  0  0  0  0
  -33.8812  -23.9843   12.0530 N   0  3  0  0  0  0  0  0  0  0  0  0
  -22.2649  -14.4961   21.0742 O   0  0  0  0  0  0  0  0  0  0  0  0
  -27.4491  -25.5157   17.1986 O   0  0  0  0  0  0  0  0  0  0  0  0
  -29.5240  -27.1712   14.5249 O   0  0  0  0  0  0  0  0  0  0  0  0
  -31.4467  -23.0652   13.1232 O   0  0  0  0  0  0  0  0  0  0  0  0
  -32.0924  -13.8765   20.7882 O   0  0  0  0  0  0  0  0  0  0  0  0
  -22.1460   -6.7319   21.6132 O   0  0  0  0  0  0  0  0  0  0  0  0
  -30.9274  -20.3364   19.3389 O   0  0  0  0  0  0  0  0  0  1  0  0
  -17.2747   -5.8506   19.1847 F   0  0  0  0  0  0  0  0  0  0  0  0
  -19.9750   -8.3542   22.1589 F   0  0  0  0  0  0  0  0  0  0  0  0
  1  2  1  0  0  0  0
  1  5  2  0  0  0  0
  2  6  2  0  0  0  0
  3  8  2  0  0  0  0
  3 17  1  0  0  0  0
  4  9  1  0  0  0  0
  4 17  2  0  0  0  0
  5 19  1  0  0  0  0
  6 21  1  0  0  0  0
  7 10  2  0  0  0  0
  7 20  1  0  0  0  0
  8 24  1  0  0  0  0
  9 24  2  0  0  0  0
 10 25  1  0  0  0  0
 11 12  2  0  0  0  0
 11 26  1  0  0  0  0
 12 27  1  0  0  0  0
 13 22  1  0  0  0  0
 13 25  2  0  0  0  0
 14 23  1  0  0  0  0
 14 30  2  0  0  0  0
 15 27  2  0  0  0  0
 15 28  1  0  0  0  0
 16 23  2  0  0  0  0
 16 65  1  0  0  0  0
 17 29  1  0  0  0  0
 18 29  1  0  0  0  0
 18 31  2  0  0  0  0
 18 32  1  0  0  0  0
 19 21  2  0  0  0  0
 19 37  1  0  0  0  0
 20 22  2  0  0  0  0
 20 38  1  0  0  0  0
 21 46  1  0  0  0  0
 22 39  1  0  0  0  0
 23 49  1  0  0  0  0
 24 80  1  0  0  0  0
 25 81  1  0  0  0  0
 26 28  2  0  0  0  0
 26 80  1  0  0  0  0
 27 82  1  0  0  0  0
 28 83  1  0  0  0  0
 29 64  2  0  0  0  0
 30 55  1  0  0  0  0
 30 65  1  0  0  0  0
 31 66  1  0  0  0  0
 31 69  1  0  0  0  0
 32 70  1  0  0  0  0
 32 75  2  0  0  0  0
 33 47  1  0  0  0  0
 33 71  1  0  0  0  0
 33 76  2  0  0  0  0
 34 61  1  0  0  0  0
 34 67  1  0  0  0  0
 34 77  2  0  0  0  0
 35 62  1  0  0  0  0
 35 72  1  0  0  0  0
 35 78  2  0  0  0  0
 36 68  1  0  0  0  0
 36 73  1  0  0  0  0
 36 79  2  0  0  0  0
 37 40  1  0  0  0  0
 38 47  1  0  0  0  0
 39 67  1  0  0  0  0
 40 42  1  0  0  0  0
 41 43  1  0  0  0  0
 41 44  1  0  0  0  0
 42 46  1  0  0  0  0
 43 48  1  0  0  0  0
 44 68  1  0  0  0  0
 45 48  1  0  0  0  0
 45 68  1  0  0  0  0
 46 71  1  0  0  0  0
 47 67  1  0  0  0  0
 48 66  1  0  0  0  0
 50 62  1  0  0  0  0
 51 63  1  0  0  0  0
 52 63  1  0  0  0  0
 53 63  1  0  0  0  0
 54 74  1  0  0  0  0
 55 56  1  0  0  0  0
 56 57  1  0  0  0  0
 57 60  1  0  0  0  0
 58 59  1  0  0  0  0
 58 65  1  0  0  0  0
 59 73  1  0  0  0  0
 60 81  1  0  0  0  0
 61 63  1  0  0  0  0
 61 72  1  0  0  0  0
 62 74  1  0  0  0  0
 64 66  1  0  0  0  0
M  CHG  1  74   1
M  ISO  4  36 100  60 101  73 100  81 101
M  END
> <Batch ID>
0082

> <Smiles>
CNC(C)C(=O)NC(C(=O)N1Cc2cc([101O:1][101CH2:1]CCCc3cc(C)cn3CC[100NH:0][100C:0](=O)N3CCCC(n4nc(-c5ccc(Oc6ccc(F)cc6F)cc5)c(C(N)=O)c4N)C3)ccc2CC1C(=O)NC1CCCc2ccccc21)C(C)(C)C

> <Shape>
0.228

> <Color>
0.186

> <Negative vol penalty>
0.000

$$$$

  -OEChem-04052318493D

 88 96  0     1  0  0  0  0  0999 V2000
  -16.8854  -26.7645   22.6210 C   0  0  0  0  0  0  0  0  0  0  0  0
  -17.9870  -26.1425   23.1999 C   0  0  0  0  0  0  0  0  0  0  0  0
  -22.6944  -13.7286   21.4363 C   0  0  0  0  0  0  0  0  0  0  0  0
  -24.4820  -12.4489   20.4345 C   0  0  0  0  0  0  0  0  0  0  0  0
  -17.0701  -27.8371   21.7495 C   0  0  0  0  0  0  0  0  0  0  0  0
  -19.2740  -26.5920   22.9066 C   0  0  0  0  0  0  0  0  0  0  0  0
  -24.0847  -26.7100   26.6947 C   0  0  0  0  0  0  0  0  0  0  0  0
  -21.7871  -12.7235   21.1014 C   0  0  0  0  0  0  0  0  0  0  0  0
  -23.5748  -11.4437   20.0996 C   0  0  0  0  0  0  0  0  0  0  0  0
  -25.1681  -25.8486   26.8621 C   0  0  0  0  0  0  0  0  0  0  0  0
  -22.0107   -8.8831   21.6544 C   0  0  0  0  0  0  0  0  0  0  0  0
  -22.3864   -7.5634   21.9047 C   0  0  0  0  0  0  0  0  0  0  0  0
  -26.4992  -27.2522   25.4208 C   0  0  0  0  0  0  0  0  0  0  0  0
  -22.1697   -7.0556   19.5526 C   0  0  0  0  0  0  0  0  0  0  0  0
  -29.2659  -21.6588   21.5615 C   0  0  0  0  0  0  0  0  0  0  0  0
  -24.0419  -13.5913   21.1028 C   0  0  0  0  0  0  0  0  0  0  0  0
  -25.7253  -14.7404   22.6368 C   0  0  0  0  0  0  0  0  0  0  0  0
  -18.3595  -28.3062   21.4530 C   0  0  0  0  0  0  0  0  0  0  0  0
  -24.1973  -27.8451   25.8789 C   0  0  0  0  0  0  0  0  0  0  0  0
  -19.4761  -27.6710   22.0293 C   0  0  0  0  0  0  0  0  0  0  0  0
  -25.4165  -28.1278   25.2467 C   0  0  0  0  0  0  0  0  0  0  0  0
  -29.5864  -22.1228   20.3048 C   0  0  0  0  0  0  0  0  0  0  0  0
  -30.2786  -23.3478   20.4700 C   0  0  0  0  0  0  0  0  0  0  0  0
  -22.2273  -11.5811   20.4330 C   0  0  0  0  0  0  0  0  0  0  0  0
  -26.3746  -26.1180   26.2228 C   0  0  0  0  0  0  0  0  0  0  0  0
  -21.7144   -9.2892   20.3532 C   0  0  0  0  0  0  0  0  0  0  0  0
  -22.4659   -6.6496   20.8538 C   0  0  0  0  0  0  0  0  0  0  0  0
  -21.7939   -8.3754   19.3023 C   0  0  0  0  0  0  0  0  0  0  0  0
  -24.9795  -14.6295   21.4481 C   0  0  0  0  0  0  0  0  0  0  0  0
  -30.3602  -23.5950   21.8226 C   0  0  0  0  0  0  0  0  0  0  0  0
  -26.4592  -15.8902   22.4757 C   0  0  0  0  0  0  0  0  0  0  0  0
  -25.7524  -13.8810   23.7841 C   0  0  0  0  0  0  0  0  0  0  0  0
  -22.7683  -28.8495   23.2232 C   0  0  0  0  0  0  0  0  0  0  0  0
  -24.5021  -31.5358   23.7710 C   0  0  0  0  0  0  0  0  0  0  0  0
  -29.7297  -19.0154   19.3428 C   0  0  0  0  0  0  0  0  0  0  0  0
  -27.2378  -32.9734   25.2187 C   0  0  0  0  0  0  0  0  0  0  0  0
  -18.5115  -29.4383   20.4682 C   0  0  0  0  0  0  0  0  0  0  0  0
  -23.0275  -28.7787   25.7299 C   0  0  0  0  0  0  0  0  0  0  0  0
  -25.5953  -29.3441   24.3766 C   0  0  0  0  0  0  0  0  0  0  0  0
  -19.8896  -30.0939   20.5017 C   0  0  0  0  0  0  0  0  0  0  0  0
  -26.1477  -19.5481   19.0075 C   0  0  0  0  0  0  0  0  0  0  0  0
  -20.9855  -29.0328   20.5084 C   0  0  0  0  0  0  0  0  0  0  0  0
  -25.5880  -18.3004   19.6895 C   0  0  0  0  0  0  0  0  0  0  0  0
  -27.4424  -19.2450   18.2578 C   0  0  0  0  0  0  0  0  0  0  0  0
  -27.9399  -17.3670   19.7908 C   0  0  0  0  0  0  0  0  0  0  0  0
  -20.8867  -28.1456   21.7552 C   0  0  1  0  0  0  0  0  0  0  0  0
  -23.0985  -29.6285   24.4649 C   0  0  1  0  0  0  0  0  0  0  0  0
  -26.6500  -17.6367   20.5835 C   0  0  2  0  0  0  0  0  0  0  0  0
  -30.9743  -24.7257   22.5503 C   0  0  0  0  0  0  0  0  0  0  0  0
  -28.4082  -35.1801   25.4594 C   0  0  0  0  0  0  0  0  0  0  0  0
  -29.3961  -26.2449   19.9690 C   0  0  0  0  0  0  0  0  0  0  0  0
  -30.4556  -26.0718   17.7082 C   0  0  0  0  0  0  0  0  0  0  0  0
  -31.6262  -20.5261   18.9830 C   0  0  0  0  0  0  0  0  0  0  0  0
  -30.0859  -19.9827   17.0908 C   0  0  0  0  0  0  0  0  0  0  0  0
  -25.5668  -31.2789   20.9231 C   0  0  0  0  0  0  0  0  0  0  0  0
  -27.3872  -32.8859   21.5331 C   0  0  0  0  0  0  0  0  0  0  0  0
  -25.0028  -33.6138   21.6194 C   0  0  0  0  0  0  0  0  0  0  0  0
  -26.9140  -32.9558   28.1605 C   0  0  0  0  0  0  0  0  0  0  0  0
  -29.2621  -21.4571   19.0273 C   0  0  0  0  0  0  0  0  0  0  0  0
  -30.8150  -24.2042   19.3920 C   0  0  0  0  0  0  0  0  0  0  0  0
  -28.4772  -23.2833   24.5676 C   0  0  0  0  0  0  0  0  0  0  0  0
  -28.2818  -23.0559   26.0674 C   0  0  0  0  0  0  0  0  0  0  0  0
  -29.5957  -22.4217   23.9708 C   0  0  0  0  0  0  0  0  0  0  0  0
  -27.1409  -23.9014   26.6172 C   0  0  0  0  0  0  0  0  0  1  0  0
  -25.8765  -32.0201   23.3769 C   0  0  1  0  0  0  0  0  0  0  0  0
  -27.3895  -34.2259   26.0630 C   0  0  2  0  0  0  0  0  0  0  0  0
  -29.8295  -25.2823   18.8605 C   0  0  0  0  0  0  0  0  0  0  0  0
  -30.1631  -20.2529   18.5982 C   0  0  0  0  0  0  0  0  0  0  0  0
  -25.9547  -32.4256   21.8779 C   0  0  0  0  0  0  0  0  0  0  0  0
  -25.2175  -15.6291   20.5948 N   0  0  0  0  0  0  0  0  0  0  0  0
  -29.7415  -22.5616   22.4764 N   0  0  0  0  0  0  0  0  0  0  0  0
  -26.1212  -16.3792   21.2482 N   0  0  0  0  0  0  0  0  0  0  0  0
  -24.4204  -30.2232   24.2570 N   0  0  0  0  0  0  0  0  0  0  0  0
  -28.4176  -18.5886   19.1367 N   0  0  0  0  0  0  0  0  0  0  0  0
  -27.3542  -16.5205   23.2657 N   0  0  0  0  0  0  0  0  0  0  0  0
  -24.9362  -12.7416   23.7849 N   0  0  0  0  0  0  0  0  0  0  0  0
  -21.4226  -28.8346   22.9096 N   0  0  0  0  0  0  0  0  0  0  0  0
  -26.2124  -33.0945   24.3049 N   0  0  0  0  0  0  0  0  0  0  0  0
  -27.8357  -33.8715   27.4400 N   0  3  0  0  0  0  0  0  0  0  0  0
  -26.4666  -14.1251   24.7860 O   0  0  0  0  0  0  0  0  0  0  0  0
  -23.6681  -28.3037   22.5953 O   0  0  0  0  0  0  0  0  0  0  0  0
  -23.5376  -32.2966   23.6588 O   0  0  0  0  0  0  0  0  0  0  0  0
  -30.5338  -18.4480   20.0869 O   0  0  0  0  0  0  0  0  0  0  0  0
  -27.9594  -31.9877   25.3538 O   0  0  0  0  0  0  0  0  0  0  0  0
  -21.3423  -10.6000   20.1062 O   0  0  0  0  0  0  0  0  0  0  0  0
  -27.4335  -25.2785   26.3841 O   0  0  0  0  0  0  0  0  0  1  0  0
  -22.8282   -5.3827   21.0940 F   0  0  0  0  0  0  0  0  0  0  0  0
  -21.5116   -8.7599   18.0500 F   0  0  0  0  0  0  0  0  0  0  0  0
  1  2  1  0  0  0  0
  1  5  2  0  0  0  0
  2  6  2  0  0  0  0
  3  8  2  0  0  0  0
  3 16  1  0  0  0  0
  4  9  1  0  0  0  0
  4 16  2  0  0  0  0
  5 18  1  0  0  0  0
  6 20  1  0  0  0  0
  7 10  2  0  0  0  0
  7 19  1  0  0  0  0
  8 24  1  0  0  0  0
  9 24  2  0  0  0  0
 10 25  1  0  0  0  0
 11 12  2  0  0  0  0
 11 26  1  0  0  0  0
 12 27  1  0  0  0  0
 13 21  1  0  0  0  0
 13 25  2  0  0  0  0
 14 27  2  0  0  0  0
 14 28  1  0  0  0  0
 15 22  2  0  0  0  0
 15 71  1  0  0  0  0
 16 29  1  0  0  0  0
 17 29  1  0  0  0  0
 17 31  2  0  0  0  0
 17 32  1  0  0  0  0
 18 20  2  0  0  0  0
 18 37  1  0  0  0  0
 19 21  2  0  0  0  0
 19 38  1  0  0  0  0
 20 46  1  0  0  0  0
 21 39  1  0  0  0  0
 22 23  1  0  0  0  0
 22 59  1  0  0  0  0
 23 30  2  0  0  0  0
 23 60  1  0  0  0  0
 24 85  1  0  0  0  0
 25 86  1  0  0  0  0
 26 28  2  0  0  0  0
 26 85  1  0  0  0  0
 27 87  1  0  0  0  0
 28 88  1  0  0  0  0
 29 70  2  0  0  0  0
 30 49  1  0  0  0  0
 30 71  1  0  0  0  0
 31 72  1  0  0  0  0
 31 75  1  0  0  0  0
 32 76  1  0  0  0  0
 32 80  2  0  0  0  0
 33 47  1  0  0  0  0
 33 77  1  0  0  0  0
 33 81  2  0  0  0  0
 34 65  1  0  0  0  0
 34 73  1  0  0  0  0
 34 82  2  0  0  0  0
 35 68  1  0  0  0  0
 35 74  1  0  0  0  0
 35 83  2  0  0  0  0
 36 66  1  0  0  0  0
 36 78  1  0  0  0  0
 36 84  2  0  0  0  0
 37 40  1  0  0  0  0
 38 47  1  0  0  0  0
 39 73  1  0  0  0  0
 40 42  1  0  0  0  0
 41 43  1  0  0  0  0
 41 44  1  0  0  0  0
 42 46  1  0  0  0  0
 43 48  1  0  0  0  0
 44 74  1  0  0  0  0
 45 48  1  0  0  0  0
 45 74  1  0  0  0  0
 46 77  1  0  0  0  0
 47 73  1  0  0  0  0
 48 72  1  0  0  0  0
 50 66  1  0  0  0  0
 51 67  1  0  0  0  0
 52 67  1  0  0  0  0
 53 68  1  0  0  0  0
 54 68  1  0  0  0  0
 55 69  1  0  0  0  0
 56 69  1  0  0  0  0
 57 69  1  0  0  0  0
 58 79  1  0  0  0  0
 59 68  1  0  0  0  0
 60 67  1  0  0  0  0
 61 62  1  0  0  0  0
 61 63  1  0  0  0  0
 62 64  1  0  0  0  0
 63 71  1  0  0  0  0
 64 86  1  0  0  0  0
 65 69  1  0  0  0  0
 65 78  1  0  0  0  0
 66 79  1  0  0  0  0
 70 72  1  0  0  0  0
M  CHG  1  79   1
M  ISO  4  35 100  64 101  68 100  86 101
M  END
> <Batch ID>
0082

> <Smiles>
CNC(C)C(=O)NC(C(=O)N1Cc2cc([101O:1][101CH2:1]CCCn3cc(C[100C:0](C)(C)[100C:0](=O)N4CCCC(n5nc(-c6ccc(Oc7ccc(F)cc7F)cc6)c(C(N)=O)c5N)C4)c(CC(C)C)c3C)ccc2CC1C(=O)NC1CCCc2ccccc21)C(C)(C)C

> <Shape>
0.273

> <Color>
0.077

> <Negative vol penalty>
0.000

$$$$

  -OEChem-04052318493D

 88 96  0     1  0  0  0  0  0999 V2000
  -24.4500  -21.7052   16.4191 C   0  0  0  0  0  0  0  0  0  0  0  0
  -24.8373  -20.3702   16.4768 C   0  0  0  0  0  0  0  0  0  0  0  0
  -28.1837  -26.2247   18.0063 C   0  0  0  0  0  0  0  0  0  0  0  0
  -27.1989  -25.5699   20.1130 C   0  0  0  0  0  0  0  0  0  0  0  0
  -24.3163  -22.4424   17.5949 C   0  0  0  0  0  0  0  0  0  0  0  0
  -25.0922  -19.7720   17.7103 C   0  0  0  0  0  0  0  0  0  0  0  0
  -23.9774  -13.9593   19.2835 C   0  0  0  0  0  0  0  0  0  0  0  0
  -27.2440  -27.2483   17.8852 C   0  0  0  0  0  0  0  0  0  0  0  0
  -26.2592  -26.5936   19.9920 C   0  0  0  0  0  0  0  0  0  0  0  0
  -24.7939  -12.8308   19.3441 C   0  0  0  0  0  0  0  0  0  0  0  0
  -26.1459  -29.9375   20.4673 C   0  0  0  0  0  0  0  0  0  0  0  0
  -25.8935  -30.7200   21.5940 C   0  0  0  0  0  0  0  0  0  0  0  0
  -25.1360  -13.2124   21.7014 C   0  0  0  0  0  0  0  0  0  0  0  0
  -31.6109  -12.1464   18.2630 C   0  0  0  0  0  0  0  0  0  0  0  0
  -31.6646  -14.1870   19.5348 C   0  0  0  0  0  0  0  0  0  0  0  0
  -23.5742  -30.0452   21.5431 C   0  0  0  0  0  0  0  0  0  0  0  0
  -28.1612  -25.3854   19.1202 C   0  0  0  0  0  0  0  0  0  0  0  0
  -30.3957  -24.4019   19.8600 C   0  0  0  0  0  0  0  0  0  0  0  0
  -24.5603  -21.8503   18.8441 C   0  0  0  0  0  0  0  0  0  0  0  0
  -23.7424  -14.7303   20.4310 C   0  0  0  0  0  0  0  0  0  0  0  0
  -24.9630  -20.5024   18.9038 C   0  0  0  0  0  0  0  0  0  0  0  0
  -24.3140  -14.3487   21.6532 C   0  0  0  0  0  0  0  0  0  0  0  0
  -32.3356  -13.1544   18.8892 C   0  0  0  0  0  0  0  0  0  0  0  0
  -26.2818  -27.4328   18.8780 C   0  0  0  0  0  0  0  0  0  0  0  0
  -25.3757  -12.4589   20.5525 C   0  0  0  0  0  0  0  0  0  0  0  0
  -25.1125  -29.2088   19.8784 C   0  0  0  0  0  0  0  0  0  0  0  0
  -24.6077  -30.7738   22.1319 C   0  0  0  0  0  0  0  0  0  0  0  0
  -23.8266  -29.2626   20.4163 C   0  0  0  0  0  0  0  0  0  0  0  0
  -29.1312  -24.3274   19.2456 C   0  0  0  0  0  0  0  0  0  0  0  0
  -30.2280  -12.2163   18.3108 C   0  0  0  0  0  0  0  0  0  0  0  0
  -30.2793  -14.1657   19.5255 C   0  0  0  0  0  0  0  0  0  0  0  0
  -30.9224  -23.1417   19.7155 C   0  0  0  0  0  0  0  0  0  0  0  0
  -31.0367  -25.5110   20.5039 C   0  0  0  0  0  0  0  0  0  0  0  0
  -24.3355  -17.7374   21.2732 C   0  0  0  0  0  0  0  0  0  0  0  0
  -22.6072  -16.9328   23.8977 C   0  0  0  0  0  0  0  0  0  0  0  0
  -21.4689  -14.4768   25.9760 C   0  0  0  0  0  0  0  0  0  0  0  0
  -29.2586  -17.6985   19.8397 C   0  0  0  0  0  0  0  0  0  0  0  0
  -24.4485  -22.7005   20.0848 C   0  0  0  0  0  0  0  0  0  0  0  0
  -22.8376  -15.9294   20.3546 C   0  0  0  0  0  0  0  0  0  0  0  0
  -24.0767  -15.1310   22.9182 C   0  0  0  0  0  0  0  0  0  0  0  0
  -24.3740  -21.8883   21.3751 C   0  0  0  0  0  0  0  0  0  0  0  0
  -30.0432  -19.3212   16.7014 C   0  0  0  0  0  0  0  0  0  0  0  0
  -25.4386  -20.7958   21.3804 C   0  0  0  0  0  0  0  0  0  0  0  0
  -30.0103  -20.7963   17.1052 C   0  0  0  0  0  0  0  0  0  0  0  0
  -28.9623  -18.5252   17.4269 C   0  0  0  0  0  0  0  0  0  0  0  0
  -28.9785  -20.1052   19.3183 C   0  0  0  0  0  0  0  0  0  0  0  0
  -25.2244  -19.8112   20.2244 C   0  0  1  0  0  0  0  0  0  0  0  0
  -23.0817  -16.9345   21.4761 C   0  0  1  0  0  0  0  0  0  0  0  0
  -30.0622  -20.9596   18.6359 C   0  0  2  0  0  0  0  0  0  0  0  0
  -28.1747  -14.7932   20.7658 C   0  0  0  0  0  0  0  0  0  0  0  0
  -20.1098  -14.1304   28.0569 C   0  0  0  0  0  0  0  0  0  0  0  0
  -27.9035   -9.0024   20.5616 C   0  0  0  0  0  0  0  0  0  0  0  0
  -34.3736  -13.1660   17.4085 C   0  0  0  0  0  0  0  0  0  0  0  0
  -34.3785  -11.8335   19.5441 C   0  0  0  0  0  0  0  0  0  0  0  0
  -34.5295  -14.3143   19.6083 C   0  0  0  0  0  0  0  0  0  0  0  0
  -24.9475  -17.9213   25.5877 C   0  0  0  0  0  0  0  0  0  0  0  0
  -23.9624  -16.7018   27.5398 C   0  0  0  0  0  0  0  0  0  0  0  0
  -22.6905  -18.5555   26.4586 C   0  0  0  0  0  0  0  0  0  0  0  0
  -19.4796  -12.8211   24.5406 C   0  0  0  0  0  0  0  0  0  0  0  0
  -29.4090  -11.1396   17.6440 C   0  0  0  0  0  0  0  0  0  0  0  0
  -29.0751   -9.9530   18.5588 C   0  0  0  0  0  0  0  0  0  0  0  0
  -26.9028  -11.0177   19.4359 C   0  0  0  0  0  0  0  0  0  1  0  0
  -29.5266  -15.2592   20.2071 C   0  0  2  0  0  0  0  0  0  0  0  0
  -22.9290  -16.3469   25.2513 C   0  0  1  0  0  0  0  0  0  0  0  0
  -20.0875  -14.1927   26.5376 C   0  0  2  0  0  0  0  0  0  0  0  0
  -28.2084  -10.2936   19.7913 C   0  0  1  0  0  0  0  0  0  0  0  0
  -33.8264  -13.1275   18.8692 C   0  0  0  0  0  0  0  0  0  0  0  0
  -23.6386  -17.3675   26.1853 C   0  0  0  0  0  0  0  0  0  0  0  0
  -28.8705  -23.1158   18.7476 N   0  0  0  0  0  0  0  0  0  0  0  0
  -29.5410  -13.2035   18.9281 N   0  0  0  0  0  0  0  0  0  0  0  0
  -29.9784  -22.4173   19.0489 N   0  0  0  0  0  0  0  0  0  0  0  0
  -23.1897  -16.2991   22.7909 N   0  0  0  0  0  0  0  0  0  0  0  0
  -29.0789  -18.7089   18.8805 N   0  0  0  0  0  0  0  0  0  0  0  0
  -32.0963  -22.5936   20.0947 N   0  0  0  0  0  0  0  0  0  0  0  0
  -30.3546  -26.7339   20.5643 N   0  0  0  0  0  0  0  0  0  0  0  0
  -24.1513  -18.8916   20.5361 N   0  0  0  0  0  0  0  0  0  0  0  0
  -21.6728  -15.8264   25.7798 N   0  0  0  0  0  0  0  0  0  0  0  0
  -29.3368  -16.4031   19.3431 N   0  0  0  0  0  0  0  0  0  0  0  0
  -19.5760  -12.8916   26.0214 N   0  3  0  0  0  0  0  0  0  0  0  0
  -32.1872  -25.4248   20.9962 O   0  0  0  0  0  0  0  0  0  0  0  0
  -25.3915  -17.3400   21.7513 O   0  0  0  0  0  0  0  0  0  0  0  0
  -21.8607  -17.9120   23.8245 O   0  0  0  0  0  0  0  0  0  0  0  0
  -22.2867  -13.5906   25.7388 O   0  0  0  0  0  0  0  0  0  0  0  0
  -29.3481  -17.9337   21.0495 O   0  0  0  0  0  0  0  0  0  0  0  0
  -25.3648  -28.4317   18.7603 O   0  0  0  0  0  0  0  0  0  0  0  0
  -26.1736  -11.3583   20.6143 O   0  0  0  0  0  0  0  0  0  1  0  0
  -24.3658  -31.5241   23.2148 F   0  0  0  0  0  0  0  0  0  0  0  0
  -22.8300  -28.5639   19.8557 F   0  0  0  0  0  0  0  0  0  0  0  0
  1  2  1  0  0  0  0
  1  5  2  0  0  0  0
  2  6  2  0  0  0  0
  3  8  2  0  0  0  0
  3 17  1  0  0  0  0
  4  9  1  0  0  0  0
  4 17  2  0  0  0  0
  5 19  1  0  0  0  0
  6 21  1  0  0  0  0
  7 10  2  0  0  0  0
  7 20  1  0  0  0  0
  8 24  1  0  0  0  0
  9 24  2  0  0  0  0
 10 25  1  0  0  0  0
 11 12  2  0  0  0  0
 11 26  1  0  0  0  0
 12 27  1  0  0  0  0
 13 22  1  0  0  0  0
 13 25  2  0  0  0  0
 14 23  2  0  0  0  0
 14 30  1  0  0  0  0
 15 23  1  0  0  0  0
 15 31  2  0  0  0  0
 16 27  2  0  0  0  0
 16 28  1  0  0  0  0
 17 29  1  0  0  0  0
 18 29  1  0  0  0  0
 18 32  2  0  0  0  0
 18 33  1  0  0  0  0
 19 21  2  0  0  0  0
 19 38  1  0  0  0  0
 20 22  2  0  0  0  0
 20 39  1  0  0  0  0
 21 47  1  0  0  0  0
 22 40  1  0  0  0  0
 23 67  1  0  0  0  0
 24 85  1  0  0  0  0
 25 86  1  0  0  0  0
 26 28  2  0  0  0  0
 26 85  1  0  0  0  0
 27 87  1  0  0  0  0
 28 88  1  0  0  0  0
 29 69  2  0  0  0  0
 30 60  1  0  0  0  0
 30 70  2  0  0  0  0
 31 63  1  0  0  0  0
 31 70  1  0  0  0  0
 32 71  1  0  0  0  0
 32 74  1  0  0  0  0
 33 75  1  0  0  0  0
 33 80  2  0  0  0  0
 34 48  1  0  0  0  0
 34 76  1  0  0  0  0
 34 81  2  0  0  0  0
 35 64  1  0  0  0  0
 35 72  1  0  0  0  0
 35 82  2  0  0  0  0
 36 65  1  0  0  0  0
 36 77  1  0  0  0  0
 36 83  2  0  0  0  0
 37 73  1  0  0  0  0
 37 78  1  0  0  0  0
 37 84  2  0  0  0  0
 38 41  1  0  0  0  0
 39 48  1  0  0  0  0
 40 72  1  0  0  0  0
 41 43  1  0  0  0  0
 42 44  1  0  0  0  0
 42 45  1  0  0  0  0
 43 47  1  0  0  0  0
 44 49  1  0  0  0  0
 45 73  1  0  0  0  0
 46 49  1  0  0  0  0
 46 73  1  0  0  0  0
 47 76  1  0  0  0  0
 48 72  1  0  0  0  0
 49 71  1  0  0  0  0
 50 63  1  0  0  0  0
 51 65  1  0  0  0  0
 52 66  1  0  0  0  0
 53 67  1  0  0  0  0
 54 67  1  0  0  0  0
 55 67  1  0  0  0  0
 56 68  1  0  0  0  0
 57 68  1  0  0  0  0
 58 68  1  0  0  0  0
 59 79  1  0  0  0  0
 60 61  1  0  0  0  0
 61 66  1  0  0  0  0
 62 66  1  0  0  0  0
 62 86  1  0  0  0  0
 63 78  1  0  0  0  0
 64 68  1  0  0  0  0
 64 77  1  0  0  0  0
 65 79  1  0  0  0  0
 69 71  1  0  0  0  0
M  CHG  1  79   1
M  ISO  4  37 100  62 101  78 100  86 101
M  END
> <Batch ID>
0082

> <Smiles>
CNC(C)C(=O)NC(C(=O)N1Cc2cc([101O:1][101CH2:1]C(C)CCc3cc(C(C)(C)C)cc(C(C)[100NH:0][100C:0](=O)N4CCCC(n5nc(-c6ccc(Oc7ccc(F)cc7F)cc6)c(C(N)=O)c5N)C4)n3)ccc2CC1C(=O)NC1CCCc2ccccc21)C(C)(C)C

> <Shape>
0.209

> <Color>
0.059

> <Negative vol penalty>
0.000

$$$$

  -OEChem-04052318493D

 87 95  0     1  0  0  0  0  0999 V2000
  -20.4854  -33.9413   24.1442 C   0  0  0  0  0  0  0  0  0  0  0  0
  -21.7442  -33.5184   23.7295 C   0  0  0  0  0  0  0  0  0  0  0  0
  -27.2655  -14.2772   19.2208 C   0  0  0  0  0  0  0  0  0  0  0  0
  -25.2182  -14.9335   20.3230 C   0  0  0  0  0  0  0  0  0  0  0  0
  -19.5176  -33.0023   24.4985 C   0  0  0  0  0  0  0  0  0  0  0  0
  -22.0363  -32.1562   23.6699 C   0  0  0  0  0  0  0  0  0  0  0  0
  -25.6422  -29.3388   19.5998 C   0  0  0  0  0  0  0  0  0  0  0  0
  -27.0836  -12.9669   19.6629 C   0  0  0  0  0  0  0  0  0  0  0  0
  -25.0363  -13.6231   20.7652 C   0  0  0  0  0  0  0  0  0  0  0  0
  -26.9701  -28.9178   19.6563 C   0  0  0  0  0  0  0  0  0  0  0  0
  -23.9354  -10.6949   19.4867 C   0  0  0  0  0  0  0  0  0  0  0  0
  -22.6609  -10.1419   19.3628 C   0  0  0  0  0  0  0  0  0  0  0  0
  -26.2354  -26.7025   20.2664 C   0  0  0  0  0  0  0  0  0  0  0  0
  -22.5673   -9.8215   21.7557 C   0  0  0  0  0  0  0  0  0  0  0  0
  -26.3329  -15.2606   19.5509 C   0  0  0  0  0  0  0  0  0  0  0  0
  -26.0540  -17.1790   17.8927 C   0  0  0  0  0  0  0  0  0  0  0  0
  -19.7948  -31.6277   24.4340 C   0  0  0  0  0  0  0  0  0  0  0  0
  -24.5996  -28.4461   19.8873 C   0  0  0  0  0  0  0  0  0  0  0  0
  -21.0717  -31.1980   24.0250 C   0  0  0  0  0  0  0  0  0  0  0  0
  -24.8951  -27.1140   20.2103 C   0  0  0  0  0  0  0  0  0  0  0  0
  -25.9690  -12.6398   20.4351 C   0  0  0  0  0  0  0  0  0  0  0  0
  -27.2670  -27.6003   19.9925 C   0  0  0  0  0  0  0  0  0  0  0  0
  -24.5259  -10.8112   20.7451 C   0  0  0  0  0  0  0  0  0  0  0  0
  -21.9768   -9.7052   20.4973 C   0  0  0  0  0  0  0  0  0  0  0  0
  -23.8419  -10.3745   21.8795 C   0  0  0  0  0  0  0  0  0  0  0  0
  -26.5205  -16.6144   19.0950 C   0  0  0  0  0  0  0  0  0  0  0  0
  -32.0777  -24.8472   22.0561 C   0  0  0  0  0  0  0  0  0  0  0  0
  -32.7872  -24.5422   23.1937 C   0  0  0  0  0  0  0  0  0  0  0  0
  -26.4913  -18.4804   17.9320 C   0  0  0  0  0  0  0  0  0  0  0  0
  -30.7769  -23.6401   23.2314 C   0  0  0  0  0  0  0  0  0  0  0  0
  -25.2932  -16.5805   16.8350 C   0  0  0  0  0  0  0  0  0  0  0  0
  -22.3092  -28.3058   22.0868 C   0  0  0  0  0  0  0  0  0  0  0  0
  -21.3188  -25.7636   20.3321 C   0  0  0  0  0  0  0  0  0  0  0  0
  -22.1077  -23.2818   18.1265 C   0  0  0  0  0  0  0  0  0  0  0  0
  -27.7112  -22.1558   22.2460 C   0  0  0  0  0  0  0  0  0  0  0  0
  -18.7320  -30.6514   24.8723 C   0  0  0  0  0  0  0  0  0  0  0  0
  -23.1714  -28.9090   19.7958 C   0  0  0  0  0  0  0  0  0  0  0  0
  -23.8115  -26.1111   20.5079 C   0  0  0  0  0  0  0  0  0  0  0  0
  -18.9997  -29.2173   24.4231 C   0  0  0  0  0  0  0  0  0  0  0  0
  -29.9802  -21.2162   19.7081 C   0  0  0  0  0  0  0  0  0  0  0  0
  -20.4489  -28.8320   24.7030 C   0  0  0  0  0  0  0  0  0  0  0  0
  -29.3038  -19.9671   19.1448 C   0  0  0  0  0  0  0  0  0  0  0  0
  -29.8712  -21.2908   21.2322 C   0  0  0  0  0  0  0  0  0  0  0  0
  -27.8088  -19.9247   21.1758 C   0  0  0  0  0  0  0  0  0  0  0  0
  -21.4185  -29.7285   23.9235 C   0  0  1  0  0  0  0  0  0  0  0  0
  -22.2108  -28.0476   20.6099 C   0  0  1  0  0  0  0  0  0  0  0  0
  -27.8519  -19.8563   19.6415 C   0  0  2  0  0  0  0  0  0  0  0  0
  -34.1484  -24.9021   23.6298 C   0  0  0  0  0  0  0  0  0  0  0  0
  -26.9679  -24.2798   24.6352 C   0  0  0  0  0  0  0  0  0  0  0  0
  -21.0965  -21.3362   16.9060 C   0  0  0  0  0  0  0  0  0  0  0  0
  -32.4718  -24.2621   26.2949 C   0  0  0  0  0  0  0  0  0  0  0  0
  -33.3782  -22.1856   25.1666 C   0  0  0  0  0  0  0  0  0  0  0  0
  -21.3664  -24.1270   22.9068 C   0  0  0  0  0  0  0  0  0  0  0  0
  -21.2879  -22.0525   21.5073 C   0  0  0  0  0  0  0  0  0  0  0  0
  -19.4017  -23.6828   21.4245 C   0  0  0  0  0  0  0  0  0  0  0  0
  -22.7159  -24.4727   15.4862 C   0  0  0  0  0  0  0  0  0  0  0  0
  -32.5117  -25.6782   20.8750 C   0  0  0  0  0  0  0  0  0  0  0  0
  -29.6309  -22.8574   23.7385 C   0  0  0  0  0  0  0  0  0  0  0  0
  -31.3644  -26.4320   20.1933 C   0  0  0  0  0  0  0  0  0  0  0  0
  -30.6988  -27.4623   21.1066 C   0  0  0  0  0  0  0  0  0  0  0  0
  -27.7271  -24.3715   23.3270 C   0  0  0  0  0  0  0  0  0  0  0  0
  -29.5401  -28.1618   20.4091 C   0  0  0  0  0  0  0  0  0  1  0  0
  -21.6060  -24.2816   20.3407 C   0  0  1  0  0  0  0  0  0  0  0  0
  -21.4328  -22.8182   16.8482 C   0  0  2  0  0  0  0  0  0  0  0  0
  -32.2266  -23.1907   25.2306 C   0  0  0  0  0  0  0  0  0  0  0  0
  -20.9362  -23.5551   21.5412 C   0  0  0  0  0  0  0  0  0  0  0  0
  -27.2022  -17.4858   19.8433 N   0  0  0  0  0  0  0  0  0  0  0  0
  -30.8270  -24.2829   22.0859 N   0  0  0  0  0  0  0  0  0  0  0  0
  -31.9408  -23.7688   23.9371 N   0  0  0  0  0  0  0  0  0  0  0  0
  -27.1672  -18.6111   19.1094 N   0  0  0  0  0  0  0  0  0  0  0  0
  -22.4310  -26.6136   20.4115 N   0  0  0  0  0  0  0  0  0  0  0  0
  -28.4762  -21.1332   21.6658 N   0  0  0  0  0  0  0  0  0  0  0  0
  -26.3598  -19.5142   17.0739 N   0  0  0  0  0  0  0  0  0  0  0  0
  -24.9269  -15.2330   16.9552 N   0  0  0  0  0  0  0  0  0  0  0  0
  -21.4831  -29.3178   22.5373 N   0  0  0  0  0  0  0  0  0  0  0  0
  -21.1963  -23.7788   19.0340 N   0  0  0  0  0  0  0  0  0  0  0  0
  -28.3951  -23.1188   23.0031 N   0  0  0  0  0  0  0  0  0  0  0  0
  -22.3245  -23.0524   15.6773 N   0  3  0  0  0  0  0  0  0  0  0  0
  -24.9625  -17.2171   15.8060 O   0  0  0  0  0  0  0  0  0  0  0  0
  -23.0766  -27.6354   22.7675 O   0  0  0  0  0  0  0  0  0  0  0  0
  -20.1511  -26.1529   20.2505 O   0  0  0  0  0  0  0  0  0  0  0  0
  -23.3216  -23.2069   18.3038 O   0  0  0  0  0  0  0  0  0  0  0  0
  -26.4826  -22.2025   22.1030 O   0  0  0  0  0  0  0  0  0  0  0  0
  -25.7910  -11.3612   20.8665 O   0  0  0  0  0  0  0  0  0  0  0  0
  -28.5623  -27.1869   20.0490 O   0  0  0  0  0  0  0  0  0  1  0  0
  -20.7523   -9.1755   20.3784 F   0  0  0  0  0  0  0  0  0  0  0  0
  -24.4036  -10.4847   23.0912 F   0  0  0  0  0  0  0  0  0  0  0  0
  1  2  1  0  0  0  0
  1  5  2  0  0  0  0
  2  6  2  0  0  0  0
  3  8  2  0  0  0  0
  3 15  1  0  0  0  0
  4  9  1  0  0  0  0
  4 15  2  0  0  0  0
  5 17  1  0  0  0  0
  6 19  1  0  0  0  0
  7 10  2  0  0  0  0
  7 18  1  0  0  0  0
  8 21  1  0  0  0  0
  9 21  2  0  0  0  0
 10 22  1  0  0  0  0
 11 12  2  0  0  0  0
 11 23  1  0  0  0  0
 12 24  1  0  0  0  0
 13 20  1  0  0  0  0
 13 22  2  0  0  0  0
 14 24  2  0  0  0  0
 14 25  1  0  0  0  0
 15 26  1  0  0  0  0
 16 26  1  0  0  0  0
 16 29  2  0  0  0  0
 16 31  1  0  0  0  0
 17 19  2  0  0  0  0
 17 36  1  0  0  0  0
 18 20  2  0  0  0  0
 18 37  1  0  0  0  0
 19 45  1  0  0  0  0
 20 38  1  0  0  0  0
 21 84  1  0  0  0  0
 22 85  1  0  0  0  0
 23 25  2  0  0  0  0
 23 84  1  0  0  0  0
 24 86  1  0  0  0  0
 25 87  1  0  0  0  0
 26 67  2  0  0  0  0
 27 28  2  0  0  0  0
 27 57  1  0  0  0  0
 27 68  1  0  0  0  0
 28 48  1  0  0  0  0
 28 69  1  0  0  0  0
 29 70  1  0  0  0  0
 29 73  1  0  0  0  0
 30 58  1  0  0  0  0
 30 68  2  0  0  0  0
 30 69  1  0  0  0  0
 31 74  1  0  0  0  0
 31 79  2  0  0  0  0
 32 46  1  0  0  0  0
 32 75  1  0  0  0  0
 32 80  2  0  0  0  0
 33 63  1  0  0  0  0
 33 71  1  0  0  0  0
 33 81  2  0  0  0  0
 34 64  1  0  0  0  0
 34 76  1  0  0  0  0
 34 82  2  0  0  0  0
 35 72  1  0  0  0  0
 35 77  1  0  0  0  0
 35 83  2  0  0  0  0
 36 39  1  0  0  0  0
 37 46  1  0  0  0  0
 38 71  1  0  0  0  0
 39 41  1  0  0  0  0
 40 42  1  0  0  0  0
 40 43  1  0  0  0  0
 41 45  1  0  0  0  0
 42 47  1  0  0  0  0
 43 72  1  0  0  0  0
 44 47  1  0  0  0  0
 44 72  1  0  0  0  0
 45 75  1  0  0  0  0
 46 71  1  0  0  0  0
 47 70  1  0  0  0  0
 49 61  1  0  0  0  0
 50 64  1  0  0  0  0
 51 65  1  0  0  0  0
 52 65  1  0  0  0  0
 53 66  1  0  0  0  0
 54 66  1  0  0  0  0
 55 66  1  0  0  0  0
 56 78  1  0  0  0  0
 57 59  1  0  0  0  0
 58 77  1  0  0  0  0
 59 60  1  0  0  0  0
 60 62  1  0  0  0  0
 61 77  1  0  0  0  0
 62 85  1  0  0  0  0
 63 66  1  0  0  0  0
 63 76  1  0  0  0  0
 64 78  1  0  0  0  0
 65 69  1  0  0  0  0
 67 70  1  0  0  0  0
M  CHG  1  78   1
M  ISO  4  35 100  62 101  77 100  85 101
M  END
> <Batch ID>
0082

> <Smiles>
CC[100N:0](Cc1nc(CCC[101CH2:1][101O:1]c2ccc3c(c2)CN(C(=O)C(NC(=O)C(C)NC)C(C)(C)C)C(C(=O)NC2CCCc4ccccc42)C3)c(C)n1C(C)C)[100C:0](=O)N1CCCC(n2nc(-c3ccc(Oc4ccc(F)cc4F)cc3)c(C(N)=O)c2N)C1

> <Shape>
0.204

> <Color>
0.076

> <Negative vol penalty>
0.000

$$$$

  -OEChem-04052318493D

 84 92  0     1  0  0  0  0  0999 V2000
  -16.9688  -24.6713   22.7765 C   0  0  0  0  0  0  0  0  0  0  0  0
  -17.9079  -24.2587   21.8367 C   0  0  0  0  0  0  0  0  0  0  0  0
  -25.9240  -13.5639   21.1386 C   0  0  0  0  0  0  0  0  0  0  0  0
  -25.3995  -13.9867   18.8184 C   0  0  0  0  0  0  0  0  0  0  0  0
  -17.0411  -25.9552   23.3153 C   0  0  0  0  0  0  0  0  0  0  0  0
  -18.9193  -25.1302   21.4343 C   0  0  0  0  0  0  0  0  0  0  0  0
  -23.4570  -22.8893   21.2539 C   0  0  0  0  0  0  0  0  0  0  0  0
  -24.8276  -19.0514   16.1228 C   0  0  0  0  0  0  0  0  0  0  0  0
  -24.8452  -12.6837   21.2221 C   0  0  0  0  0  0  0  0  0  0  0  0
  -24.3207  -13.1065   18.9019 C   0  0  0  0  0  0  0  0  0  0  0  0
  -23.7244  -22.0808   20.1501 C   0  0  0  0  0  0  0  0  0  0  0  0
  -22.4464  -10.0501   21.9468 C   0  0  0  0  0  0  0  0  0  0  0  0
  -22.6540   -8.8288   22.5877 C   0  0  0  0  0  0  0  0  0  0  0  0
  -25.5976  -17.8936   16.1230 C   0  0  0  0  0  0  0  0  0  0  0  0
  -24.9830  -23.8775   19.1465 C   0  0  0  0  0  0  0  0  0  0  0  0
  -24.3640   -8.2726   20.9741 C   0  0  0  0  0  0  0  0  0  0  0  0
  -26.2012  -14.2155   19.9368 C   0  0  0  0  0  0  0  0  0  0  0  0
  -28.6410  -14.8142   19.4935 C   0  0  0  0  0  0  0  0  0  0  0  0
  -18.0596  -26.8396   22.9264 C   0  0  0  0  0  0  0  0  0  0  0  0
  -23.9422  -24.2039   21.3076 C   0  0  0  0  0  0  0  0  0  0  0  0
  -19.0045  -26.4276   21.9673 C   0  0  0  0  0  0  0  0  0  0  0  0
  -24.7225  -24.6998   20.2533 C   0  0  0  0  0  0  0  0  0  0  0  0
  -25.3635  -20.2360   15.6299 C   0  0  0  0  0  0  0  0  0  0  0  0
  -24.0435  -12.4550   20.1037 C   0  0  0  0  0  0  0  0  0  0  0  0
  -24.4851  -22.5758   19.0948 C   0  0  0  0  0  0  0  0  0  0  0  0
  -23.1976  -10.3827   20.8195 C   0  0  0  0  0  0  0  0  0  0  0  0
  -23.6128   -7.9400   22.1014 C   0  0  0  0  0  0  0  0  0  0  0  0
  -24.1564   -9.4940   20.3332 C   0  0  0  0  0  0  0  0  0  0  0  0
  -27.3151  -15.1253   19.8501 C   0  0  0  0  0  0  0  0  0  0  0  0
  -26.8876  -17.9726   15.6233 C   0  0  0  0  0  0  0  0  0  0  0  0
  -26.6639  -20.2101   15.1525 C   0  0  0  0  0  0  0  0  0  0  0  0
  -29.3053  -16.0145   19.5612 C   0  0  0  0  0  0  0  0  0  0  0  0
  -29.2202  -13.5532   19.1332 C   0  0  0  0  0  0  0  0  0  0  0  0
  -22.6057  -27.0837   21.4636 C   0  0  0  0  0  0  0  0  0  0  0  0
  -25.6794  -28.0633   21.8023 C   0  0  0  0  0  0  0  0  0  0  0  0
  -28.9936  -27.4386   21.2801 C   0  0  0  0  0  0  0  0  0  0  0  0
  -28.4743  -21.6478   18.5176 C   0  0  0  0  0  0  0  0  0  0  0  0
  -18.0689  -28.2339   23.5013 C   0  0  0  0  0  0  0  0  0  0  0  0
  -23.6675  -25.0543   22.5174 C   0  0  0  0  0  0  0  0  0  0  0  0
  -25.2838  -26.0973   20.2714 C   0  0  0  0  0  0  0  0  0  0  0  0
  -19.3929  -28.9667   23.3003 C   0  0  0  0  0  0  0  0  0  0  0  0
  -28.4794  -20.3310   21.8255 C   0  0  0  0  0  0  0  0  0  0  0  0
  -19.8772  -28.8095   21.8624 C   0  0  0  0  0  0  0  0  0  0  0  0
  -28.3029  -18.8255   21.6202 C   0  0  0  0  0  0  0  0  0  0  0  0
  -27.6770  -21.1374   20.8067 C   0  0  0  0  0  0  0  0  0  0  0  0
  -27.7539  -19.2768   19.1925 C   0  0  0  0  0  0  0  0  0  0  0  0
  -20.1311  -27.3355   21.5239 C   0  0  1  0  0  0  0  0  0  0  0  0
  -23.7794  -26.5493   22.2347 C   0  0  1  0  0  0  0  0  0  0  0  0
  -28.5882  -18.4213   20.1613 C   0  0  2  0  0  0  0  0  0  0  0  0
  -27.7414  -16.7487   15.6068 C   0  0  0  0  0  0  0  0  0  0  0  0
  -26.9605  -21.6391   13.1124 C   0  0  0  0  0  0  0  0  0  0  0  0
  -31.2668  -28.4414   21.6331 C   0  0  0  0  0  0  0  0  0  0  0  0
  -25.1958  -29.9735   19.4727 C   0  0  0  0  0  0  0  0  0  0  0  0
  -27.6771  -30.2312   19.2598 C   0  0  0  0  0  0  0  0  0  0  0  0
  -26.5264  -30.9411   21.3562 C   0  0  0  0  0  0  0  0  0  0  0  0
  -29.8492  -25.1843   22.9963 C   0  0  0  0  0  0  0  0  0  0  0  0
  -24.5329  -21.4963   15.6283 C   0  0  0  0  0  0  0  0  0  0  0  0
  -28.8321  -21.5213   14.8044 C   0  0  0  0  0  0  0  0  0  0  0  0
  -29.2635  -21.9994   16.1910 C   0  0  0  0  0  0  0  0  0  0  0  0
  -24.9156  -22.4444   16.7596 C   0  0  0  0  0  0  0  0  0  1  0  0
  -27.2904  -21.4519   14.6083 C   0  0  2  0  0  0  0  0  0  0  0  0
  -26.7805  -28.4760   20.8556 C   0  0  1  0  0  0  0  0  0  0  0  0
  -30.1936  -27.5284   22.2055 C   0  0  2  0  0  0  0  0  0  0  0  0
  -26.5329  -29.8797   20.2345 C   0  0  0  0  0  0  0  0  0  0  0  0
  -27.1454  -16.4214   20.1242 N   0  0  0  0  0  0  0  0  0  0  0  0
  -27.4425  -19.1051   15.1364 N   0  0  0  0  0  0  0  0  0  0  0  0
  -28.3734  -16.9355   19.9398 N   0  0  0  0  0  0  0  0  0  0  0  0
  -24.9823  -26.8921   21.4734 N   0  0  0  0  0  0  0  0  0  0  0  0
  -27.9952  -20.7063   19.4433 N   0  0  0  0  0  0  0  0  0  0  0  0
  -30.5899  -16.3613   19.3333 N   0  0  0  0  0  0  0  0  0  0  0  0
  -28.3954  -12.4202   19.1139 N   0  0  0  0  0  0  0  0  0  0  0  0
  -21.3884  -26.8962   22.0901 N   0  0  0  0  0  0  0  0  0  0  0  0
  -28.0267  -28.3660   21.6061 N   0  0  0  0  0  0  0  0  0  0  0  0
  -28.7574  -21.1546   17.2498 N   0  0  0  0  0  0  0  0  0  0  0  0
  -30.7883  -26.1781   22.4153 N   0  3  0  0  0  0  0  0  0  0  0  0
  -30.4369  -13.4316   18.8531 O   0  0  0  0  0  0  0  0  0  0  0  0
  -22.7910  -27.6271   20.3810 O   0  0  0  0  0  0  0  0  0  0  0  0
  -25.4512  -28.7507   22.8008 O   0  0  0  0  0  0  0  0  0  0  0  0
  -28.9228  -26.6293   20.3578 O   0  0  0  0  0  0  0  0  0  0  0  0
  -28.6428  -22.8386   18.8015 O   0  0  0  0  0  0  0  0  0  0  0  0
  -22.9909  -11.5960   20.1847 O   0  0  0  0  0  0  0  0  0  0  0  0
  -24.7470  -21.7889   18.0159 O   0  0  0  0  0  0  0  0  0  1  0  0
  -23.8131   -6.7679   22.7179 F   0  0  0  0  0  0  0  0  0  0  0  0
  -24.8819   -9.8085   19.2513 F   0  0  0  0  0  0  0  0  0  0  0  0
  1  2  1  0  0  0  0
  1  5  2  0  0  0  0
  2  6  2  0  0  0  0
  3  9  2  0  0  0  0
  3 17  1  0  0  0  0
  4 10  1  0  0  0  0
  4 17  2  0  0  0  0
  5 19  1  0  0  0  0
  6 21  1  0  0  0  0
  7 11  2  0  0  0  0
  7 20  1  0  0  0  0
  8 14  2  0  0  0  0
  8 23  1  0  0  0  0
  9 24  1  0  0  0  0
 10 24  2  0  0  0  0
 11 25  1  0  0  0  0
 12 13  2  0  0  0  0
 12 26  1  0  0  0  0
 13 27  1  0  0  0  0
 14 30  1  0  0  0  0
 15 22  1  0  0  0  0
 15 25  2  0  0  0  0
 16 27  2  0  0  0  0
 16 28  1  0  0  0  0
 17 29  1  0  0  0  0
 18 29  1  0  0  0  0
 18 32  2  0  0  0  0
 18 33  1  0  0  0  0
 19 21  2  0  0  0  0
 19 38  1  0  0  0  0
 20 22  2  0  0  0  0
 20 39  1  0  0  0  0
 21 47  1  0  0  0  0
 22 40  1  0  0  0  0
 23 31  2  0  0  0  0
 23 57  1  0  0  0  0
 24 81  1  0  0  0  0
 25 82  1  0  0  0  0
 26 28  2  0  0  0  0
 26 81  1  0  0  0  0
 27 83  1  0  0  0  0
 28 84  1  0  0  0  0
 29 65  2  0  0  0  0
 30 50  1  0  0  0  0
 30 66  2  0  0  0  0
 31 61  1  0  0  0  0
 31 66  1  0  0  0  0
 32 67  1  0  0  0  0
 32 70  1  0  0  0  0
 33 71  1  0  0  0  0
 33 76  2  0  0  0  0
 34 48  1  0  0  0  0
 34 72  1  0  0  0  0
 34 77  2  0  0  0  0
 35 62  1  0  0  0  0
 35 68  1  0  0  0  0
 35 78  2  0  0  0  0
 36 63  1  0  0  0  0
 36 73  1  0  0  0  0
 36 79  2  0  0  0  0
 37 69  1  0  0  0  0
 37 74  1  0  0  0  0
 37 80  2  0  0  0  0
 38 41  1  0  0  0  0
 39 48  1  0  0  0  0
 40 68  1  0  0  0  0
 41 43  1  0  0  0  0
 42 44  1  0  0  0  0
 42 45  1  0  0  0  0
 43 47  1  0  0  0  0
 44 49  1  0  0  0  0
 45 69  1  0  0  0  0
 46 49  1  0  0  0  0
 46 69  1  0  0  0  0
 47 72  1  0  0  0  0
 48 68  1  0  0  0  0
 49 67  1  0  0  0  0
 51 61  1  0  0  0  0
 52 63  1  0  0  0  0
 53 64  1  0  0  0  0
 54 64  1  0  0  0  0
 55 64  1  0  0  0  0
 56 75  1  0  0  0  0
 57 60  1  0  0  0  0
 58 59  1  0  0  0  0
 58 61  1  0  0  0  0
 59 74  1  0  0  0  0
 60 82  1  0  0  0  0
 62 64  1  0  0  0  0
 62 73  1  0  0  0  0
 63 75  1  0  0  0  0
 65 67  1  0  0  0  0
M  CHG  1  75   1
M  ISO  4  37 100  60 101  74 100  82 101
M  END
> <Batch ID>
0082

> <Smiles>
CNC(C)C(=O)NC(C(=O)N1Cc2cc([101O:1][101CH2:1]Cc3ccc(C)nc3C(C)CC[100NH:0][100C:0](=O)N3CCCC(n4nc(-c5ccc(Oc6ccc(F)cc6F)cc5)c(C(N)=O)c4N)C3)ccc2CC1C(=O)NC1CCCc2ccccc21)C(C)(C)C

> <Shape>
0.238

> <Color>
0.074

> <Negative vol penalty>
0.000

$$$$

  -OEChem-04052318493D

 82 90  0     1  0  0  0  0  0999 V2000
  -23.6622  -24.2580   19.1592 C   0  0  0  0  0  0  0  0  0  0  0  0
  -24.2244  -23.0775   18.6839 C   0  0  0  0  0  0  0  0  0  0  0  0
  -25.6066  -27.0480   20.7480 C   0  0  0  0  0  0  0  0  0  0  0  0
  -26.6618  -26.8388   22.9113 C   0  0  0  0  0  0  0  0  0  0  0  0
  -23.0928  -24.2948   20.4313 C   0  0  0  0  0  0  0  0  0  0  0  0
  -24.2185  -21.9334   19.4811 C   0  0  0  0  0  0  0  0  0  0  0  0
  -23.6450  -16.1353   17.5948 C   0  0  0  0  0  0  0  0  0  0  0  0
  -24.5302  -27.7111   21.3371 C   0  0  0  0  0  0  0  0  0  0  0  0
  -25.5853  -27.5020   23.5005 C   0  0  0  0  0  0  0  0  0  0  0  0
  -24.5804  -15.1288   17.3589 C   0  0  0  0  0  0  0  0  0  0  0  0
  -23.8401  -30.8196   22.4747 C   0  0  0  0  0  0  0  0  0  0  0  0
  -23.3635  -31.9692   21.8447 C   0  0  0  0  0  0  0  0  0  0  0  0
  -24.1904  -14.2555   19.5735 C   0  0  0  0  0  0  0  0  0  0  0  0
  -21.1968  -30.9312   21.5897 C   0  0  0  0  0  0  0  0  0  0  0  0
  -30.2068  -15.0367   21.7360 C   0  0  0  0  0  0  0  0  0  0  0  0
  -26.6724  -26.6117   21.5351 C   0  0  0  0  0  0  0  0  0  0  0  0
  -28.9595  -26.5038   20.4102 C   0  0  0  0  0  0  0  0  0  0  0  0
  -23.0713  -23.1480   21.2407 C   0  0  0  0  0  0  0  0  0  0  0  0
  -22.9821  -16.2161   18.8279 C   0  0  0  0  0  0  0  0  0  0  0  0
  -23.6495  -21.9553   20.7658 C   0  0  0  0  0  0  0  0  0  0  0  0
  -23.2452  -15.2625   19.8217 C   0  0  0  0  0  0  0  0  0  0  0  0
  -24.5195  -27.9381   22.7133 C   0  0  0  0  0  0  0  0  0  0  0  0
  -24.8554  -14.1904   18.3494 C   0  0  0  0  0  0  0  0  0  0  0  0
  -22.9950  -29.7257   22.6621 C   0  0  0  0  0  0  0  0  0  0  0  0
  -22.0419  -32.0250   21.4022 C   0  0  0  0  0  0  0  0  0  0  0  0
  -21.6734  -29.7816   22.2197 C   0  0  0  0  0  0  0  0  0  0  0  0
  -27.7844  -25.9261   20.9272 C   0  0  0  0  0  0  0  0  0  0  0  0
  -30.8885  -16.1774   21.3939 C   0  0  0  0  0  0  0  0  0  0  0  0
  -29.6928  -25.4374   19.9503 C   0  0  0  0  0  0  0  0  0  0  0  0
  -29.3530  -27.8813   20.3510 C   0  0  0  0  0  0  0  0  0  0  0  0
  -22.8350  -18.3727   21.1584 C   0  0  0  0  0  0  0  0  0  0  0  0
  -20.5966  -16.3534   22.3561 C   0  0  0  0  0  0  0  0  0  0  0  0
  -19.3298  -13.1877   22.4980 C   0  0  0  0  0  0  0  0  0  0  0  0
  -29.7750  -19.7484   21.5264 C   0  0  0  0  0  0  0  0  0  0  0  0
  -22.4868  -23.2490   22.6273 C   0  0  0  0  0  0  0  0  0  0  0  0
  -21.9562  -17.2919   19.0570 C   0  0  0  0  0  0  0  0  0  0  0  0
  -22.5458  -15.2933   21.1552 C   0  0  0  0  0  0  0  0  0  0  0  0
  -22.1868  -21.8935   23.2621 C   0  0  0  0  0  0  0  0  0  0  0  0
  -29.1744  -21.0168   18.1906 C   0  0  0  0  0  0  0  0  0  0  0  0
  -23.3669  -20.9448   23.0776 C   0  0  0  0  0  0  0  0  0  0  0  0
  -28.8601  -22.4864   18.4760 C   0  0  0  0  0  0  0  0  0  0  0  0
  -28.5987  -20.1081   19.2726 C   0  0  0  0  0  0  0  0  0  0  0  0
  -28.7208  -21.9146   20.9445 C   0  0  0  0  0  0  0  0  0  0  0  0
  -23.6403  -20.6868   21.5909 C   0  0  1  0  0  0  0  0  0  0  0  0
  -21.7176  -17.5850   20.5350 C   0  0  1  0  0  0  0  0  0  0  0  0
  -29.2955  -22.8866   19.8981 C   0  0  2  0  0  0  0  0  0  0  0  0
  -17.5195  -11.8375   23.5923 C   0  0  0  0  0  0  0  0  0  0  0  0
  -22.1893  -16.3317   24.9585 C   0  0  0  0  0  0  0  0  0  0  0  0
  -20.9072  -14.2937   25.6448 C   0  0  0  0  0  0  0  0  0  0  0  0
  -19.7086  -16.4463   25.2546 C   0  0  0  0  0  0  0  0  0  0  0  0
  -18.1045  -12.5037   19.8923 C   0  0  0  0  0  0  0  0  0  0  0  0
  -30.7836  -17.5248   21.9686 C   0  0  0  0  0  0  0  0  0  0  0  0
  -28.5625  -13.0593   19.0362 C   0  0  0  0  0  0  0  0  0  0  0  0
  -29.8251  -12.2738   19.3969 C   0  0  0  0  0  0  0  0  0  0  0  0
  -28.0827  -12.7199   17.6220 C   0  0  0  0  0  0  0  0  0  0  0  0
  -30.3280  -12.6429   20.7943 C   0  0  0  0  0  0  0  0  0  0  0  0
  -26.8402  -13.5101   17.2296 C   0  0  0  0  0  0  0  0  0  1  0  0
  -20.6187  -15.1585   23.2784 C   0  0  1  0  0  0  0  0  0  0  0  0
  -17.9098  -12.6646   22.3773 C   0  0  2  0  0  0  0  0  0  0  0  0
  -20.8707  -15.5578   24.7598 C   0  0  0  0  0  0  0  0  0  0  0  0
  -27.7678  -24.5960   20.8072 N   0  0  0  0  0  0  0  0  0  0  0  0
  -31.7564  -15.9053   20.3730 N   0  0  0  0  0  0  0  0  0  0  0  0
  -31.6343  -14.6186   20.0655 N   0  0  0  0  0  0  0  0  0  0  0  0
  -30.7046  -14.0997   20.8837 N   0  0  0  0  0  0  0  0  0  0  0  0
  -28.9415  -24.3290   20.2094 N   0  0  0  0  0  0  0  0  0  0  0  0
  -21.5557  -16.3682   21.3335 N   0  0  0  0  0  0  0  0  0  0  0  0
  -29.0664  -20.5315   20.6001 N   0  0  0  0  0  0  0  0  0  0  0  0
  -30.9004  -25.3491   19.3536 N   0  0  0  0  0  0  0  0  0  0  0  0
  -28.4807  -28.8482   20.8691 N   0  0  0  0  0  0  0  0  0  0  0  0
  -22.6823  -19.7423   21.0574 N   0  0  0  0  0  0  0  0  0  0  0  0
  -19.3640  -14.4481   23.0562 N   0  0  0  0  0  0  0  0  0  0  0  0
  -30.0565  -18.4480   21.1259 N   0  0  0  0  0  0  0  0  0  0  0  0
  -17.7741  -11.8101   21.1638 N   0  3  0  0  0  0  0  0  0  0  0  0
  -30.4385  -28.2453   19.8385 O   0  0  0  0  0  0  0  0  0  0  0  0
  -23.7660  -17.7816   21.6928 O   0  0  0  0  0  0  0  0  0  0  0  0
  -19.7545  -17.2376   22.5320 O   0  0  0  0  0  0  0  0  0  0  0  0
  -20.3108  -12.5413   22.1370 O   0  0  0  0  0  0  0  0  0  0  0  0
  -30.1352  -20.1782   22.6276 O   0  0  0  0  0  0  0  0  0  0  0  0
  -23.4694  -28.5854   23.2885 O   0  0  0  0  0  0  0  0  0  0  0  0
  -25.7685  -13.2074   18.1219 O   0  0  0  0  0  0  0  0  0  1  0  0
  -21.5839  -33.1296   20.7986 F   0  0  0  0  0  0  0  0  0  0  0  0
  -20.8565  -28.7343   22.3980 F   0  0  0  0  0  0  0  0  0  0  0  0
  1  2  1  0  0  0  0
  1  5  2  0  0  0  0
  2  6  2  0  0  0  0
  3  8  2  0  0  0  0
  3 16  1  0  0  0  0
  4  9  1  0  0  0  0
  4 16  2  0  0  0  0
  5 18  1  0  0  0  0
  6 20  1  0  0  0  0
  7 10  2  0  0  0  0
  7 19  1  0  0  0  0
  8 22  1  0  0  0  0
  9 22  2  0  0  0  0
 10 23  1  0  0  0  0
 11 12  2  0  0  0  0
 11 24  1  0  0  0  0
 12 25  1  0  0  0  0
 13 21  1  0  0  0  0
 13 23  2  0  0  0  0
 14 25  2  0  0  0  0
 14 26  1  0  0  0  0
 15 28  2  0  0  0  0
 15 64  1  0  0  0  0
 16 27  1  0  0  0  0
 17 27  1  0  0  0  0
 17 29  2  0  0  0  0
 17 30  1  0  0  0  0
 18 20  2  0  0  0  0
 18 35  1  0  0  0  0
 19 21  2  0  0  0  0
 19 36  1  0  0  0  0
 20 44  1  0  0  0  0
 21 37  1  0  0  0  0
 22 79  1  0  0  0  0
 23 80  1  0  0  0  0
 24 26  2  0  0  0  0
 24 79  1  0  0  0  0
 25 81  1  0  0  0  0
 26 82  1  0  0  0  0
 27 61  2  0  0  0  0
 28 52  1  0  0  0  0
 28 62  1  0  0  0  0
 29 65  1  0  0  0  0
 29 68  1  0  0  0  0
 30 69  1  0  0  0  0
 30 74  2  0  0  0  0
 31 45  1  0  0  0  0
 31 70  1  0  0  0  0
 31 75  2  0  0  0  0
 32 58  1  0  0  0  0
 32 66  1  0  0  0  0
 32 76  2  0  0  0  0
 33 59  1  0  0  0  0
 33 71  1  0  0  0  0
 33 77  2  0  0  0  0
 34 67  1  0  0  0  0
 34 72  1  0  0  0  0
 34 78  2  0  0  0  0
 35 38  1  0  0  0  0
 36 45  1  0  0  0  0
 37 66  1  0  0  0  0
 38 40  1  0  0  0  0
 39 41  1  0  0  0  0
 39 42  1  0  0  0  0
 40 44  1  0  0  0  0
 41 46  1  0  0  0  0
 42 67  1  0  0  0  0
 43 46  1  0  0  0  0
 43 67  1  0  0  0  0
 44 70  1  0  0  0  0
 45 66  1  0  0  0  0
 46 65  1  0  0  0  0
 47 59  1  0  0  0  0
 48 60  1  0  0  0  0
 49 60  1  0  0  0  0
 50 60  1  0  0  0  0
 51 73  1  0  0  0  0
 52 72  1  0  0  0  0
 53 54  1  0  0  0  0
 53 55  1  0  0  0  0
 54 56  1  0  0  0  0
 55 57  1  0  0  0  0
 56 64  1  0  0  0  0
 57 80  1  0  0  0  0
 58 60  1  0  0  0  0
 58 71  1  0  0  0  0
 59 73  1  0  0  0  0
 61 65  1  0  0  0  0
 62 63  2  0  0  0  0
 63 64  1  0  0  0  0
M  CHG  1  73   1
M  ISO  4  34 100  57 101  72 100  80 101
M  END
> <Batch ID>
0082

> <Smiles>
CNC(C)C(=O)NC(C(=O)N1Cc2cc([101O:1][101CH2:1]CCCCn3cc(C[100NH:0][100C:0](=O)N4CCCC(n5nc(-c6ccc(Oc7ccc(F)cc7F)cc6)c(C(N)=O)c5N)C4)nn3)ccc2CC1C(=O)NC1CCCc2ccccc21)C(C)(C)C

> <Shape>
0.193

> <Color>
0.058

> <Negative vol penalty>
0.000

$$$$

  -OEChem-04052318493D

 85 93  0     1  0  0  0  0  0999 V2000
  -23.8572  -32.8804   14.3329 C   0  0  0  0  0  0  0  0  0  0  0  0
  -24.7642  -32.0611   14.9974 C   0  0  0  0  0  0  0  0  0  0  0  0
  -25.1470  -13.8593   22.8922 C   0  0  0  0  0  0  0  0  0  0  0  0
  -23.2743  -15.2251   22.2106 C   0  0  0  0  0  0  0  0  0  0  0  0
  -23.2776  -33.9600   14.9981 C   0  0  0  0  0  0  0  0  0  0  0  0
  -25.0931  -32.3217   16.3272 C   0  0  0  0  0  0  0  0  0  0  0  0
  -25.1293  -28.1348   19.1757 C   0  0  0  0  0  0  0  0  0  0  0  0
  -24.3182  -12.7378   22.9221 C   0  0  0  0  0  0  0  0  0  0  0  0
  -22.4455  -14.1036   22.2404 C   0  0  0  0  0  0  0  0  0  0  0  0
  -26.2431  -27.3030   19.0708 C   0  0  0  0  0  0  0  0  0  0  0  0
  -22.7740   -9.4482   22.8282 C   0  0  0  0  0  0  0  0  0  0  0  0
  -23.2536   -8.2718   22.2523 C   0  0  0  0  0  0  0  0  0  0  0  0
  -27.1331  -28.2483   21.1039 C   0  0  0  0  0  0  0  0  0  0  0  0
  -25.9435  -20.7568   18.8077 C   0  0  0  0  0  0  0  0  0  0  0  0
  -23.4537   -9.3959   20.1231 C   0  0  0  0  0  0  0  0  0  0  0  0
  -24.6251  -15.1030   22.5365 C   0  0  0  0  0  0  0  0  0  0  0  0
  -26.2267  -16.7393   21.4118 C   0  0  0  0  0  0  0  0  0  0  0  0
  -23.5922  -34.2281   16.3397 C   0  0  0  0  0  0  0  0  0  0  0  0
  -25.0140  -29.0389   20.2414 C   0  0  0  0  0  0  0  0  0  0  0  0
  -24.5182  -33.4067   17.0105 C   0  0  0  0  0  0  0  0  0  0  0  0
  -26.0155  -29.0887   21.2215 C   0  0  0  0  0  0  0  0  0  0  0  0
  -27.1790  -21.3442   18.5589 C   0  0  0  0  0  0  0  0  0  0  0  0
  -25.2589  -21.0603   19.9793 C   0  0  0  0  0  0  0  0  0  0  0  0
  -22.9675  -12.8599   22.5962 C   0  0  0  0  0  0  0  0  0  0  0  0
  -27.2467  -27.3616   20.0334 C   0  0  0  0  0  0  0  0  0  0  0  0
  -22.6341  -10.5984   22.0516 C   0  0  0  0  0  0  0  0  0  0  0  0
  -23.5935   -8.2457   20.8997 C   0  0  0  0  0  0  0  0  0  0  0  0
  -22.9740  -10.5722   20.6990 C   0  0  0  0  0  0  0  0  0  0  0  0
  -25.4806  -16.2620   22.5060 C   0  0  0  0  0  0  0  0  0  0  0  0
  -27.6825  -22.2214   19.5059 C   0  0  0  0  0  0  0  0  0  0  0  0
  -25.8485  -21.9501   20.8627 C   0  0  0  0  0  0  0  0  0  0  0  0
  -26.8652  -17.8562   21.8927 C   0  0  0  0  0  0  0  0  0  0  0  0
  -26.3330  -16.2196   20.0798 C   0  0  0  0  0  0  0  0  0  0  0  0
  -24.8343  -32.2028   20.4896 C   0  0  0  0  0  0  0  0  0  0  0  0
  -24.3241  -31.5380   23.6233 C   0  0  0  0  0  0  0  0  0  0  0  0
  -24.7102  -29.3615   26.2234 C   0  0  0  0  0  0  0  0  0  0  0  0
  -25.5136  -22.1690   25.7211 C   0  0  0  0  0  0  0  0  0  0  0  0
  -22.9761  -35.4347   17.0026 C   0  0  0  0  0  0  0  0  0  0  0  0
  -23.7934  -29.9106   20.3547 C   0  0  0  0  0  0  0  0  0  0  0  0
  -25.9297  -30.0275   22.3961 C   0  0  0  0  0  0  0  0  0  0  0  0
  -23.0934  -35.4198   18.5245 C   0  0  0  0  0  0  0  0  0  0  0  0
  -28.0510  -19.5539   26.3729 C   0  0  0  0  0  0  0  0  0  0  0  0
  -24.5113  -35.0485   18.9470 C   0  0  0  0  0  0  0  0  0  0  0  0
  -27.6610  -18.4574   25.3832 C   0  0  0  0  0  0  0  0  0  0  0  0
  -26.8475  -20.3914   26.7947 C   0  0  0  0  0  0  0  0  0  0  0  0
  -25.7010  -19.8796   24.6645 C   0  0  0  0  0  0  0  0  0  0  0  0
  -24.8815  -33.6422   18.4606 C   0  0  1  0  0  0  0  0  0  0  0  0
  -24.0258  -31.1567   21.2035 C   0  0  1  0  0  0  0  0  0  0  0  0
  -26.8989  -19.0468   24.1836 C   0  0  2  0  0  0  0  0  0  0  0  0
  -27.9173  -21.0233   17.3056 C   0  0  0  0  0  0  0  0  0  0  0  0
  -23.9349  -20.4342   20.2519 C   0  0  0  0  0  0  0  0  0  0  0  0
  -24.4394  -28.4248   28.5357 C   0  0  0  0  0  0  0  0  0  0  0  0
  -26.6157  -33.4453   24.2720 C   0  0  0  0  0  0  0  0  0  0  0  0
  -26.7053  -32.4464   26.5660 C   0  0  0  0  0  0  0  0  0  0  0  0
  -24.6444  -33.6250   25.8004 C   0  0  0  0  0  0  0  0  0  0  0  0
  -24.8045  -24.2337   24.5749 C   0  0  0  0  0  0  0  0  0  0  0  0
  -22.2192  -27.9452   25.4834 C   0  0  0  0  0  0  0  0  0  0  0  0
  -29.0179  -22.8878   19.2913 C   0  0  0  0  0  0  0  0  0  0  0  0
  -25.1575  -22.3136   22.1362 C   0  0  0  0  0  0  0  0  0  0  0  0
  -29.1169  -24.2830   19.9120 C   0  0  0  0  0  0  0  0  0  0  0  0
  -26.1190  -22.5813   23.2992 C   0  0  0  0  0  0  0  0  0  0  0  0
  -28.1474  -25.2867   19.2989 C   0  0  0  0  0  0  0  0  0  1  0  0
  -25.2060  -31.3568   24.8351 C   0  0  1  0  0  0  0  0  0  0  0  0
  -23.7278  -28.8450   27.2591 C   0  0  2  0  0  0  0  0  0  0  0  0
  -25.7957  -32.7019   25.3453 C   0  0  0  0  0  0  0  0  0  0  0  0
  -25.6304  -17.0141   23.5996 N   0  0  0  0  0  0  0  0  0  0  0  0
  -27.0468  -22.5406   20.6555 N   0  0  0  0  0  0  0  0  0  0  0  0
  -26.4781  -17.9752   23.1951 N   0  0  0  0  0  0  0  0  0  0  0  0
  -24.7198  -30.8640   22.4592 N   0  0  0  0  0  0  0  0  0  0  0  0
  -26.1165  -20.9033   25.6351 N   0  0  0  0  0  0  0  0  0  0  0  0
  -27.7145  -18.7383   21.3244 N   0  0  0  0  0  0  0  0  0  0  0  0
  -25.6099  -15.0641   19.7538 N   0  0  0  0  0  0  0  0  0  0  0  0
  -24.2709  -32.6382   19.3053 N   0  0  0  0  0  0  0  0  0  0  0  0
  -24.4020  -30.6442   25.8221 N   0  0  0  0  0  0  0  0  0  0  0  0
  -25.4116  -22.9109   24.5346 N   0  0  0  0  0  0  0  0  0  0  0  0
  -22.9844  -27.6684   26.7263 N   0  3  0  0  0  0  0  0  0  0  0  0
  -27.0609  -16.7543   19.2093 O   0  0  0  0  0  0  0  0  0  0  0  0
  -25.8904  -32.5875   20.9777 O   0  0  0  0  0  0  0  0  0  0  0  0
  -23.3172  -32.2455   23.7084 O   0  0  0  0  0  0  0  0  0  0  0  0
  -25.6585  -28.6953   25.8143 O   0  0  0  0  0  0  0  0  0  0  0  0
  -25.0991  -22.6146   26.7989 O   0  0  0  0  0  0  0  0  0  0  0  0
  -22.1585  -11.7657   22.6250 O   0  0  0  0  0  0  0  0  0  0  0  0
  -28.3353  -26.5512   19.9330 O   0  0  0  0  0  0  0  0  0  1  0  0
  -24.0555   -7.1163   20.3472 F   0  0  0  0  0  0  0  0  0  0  0  0
  -22.8429  -11.6744   19.9481 F   0  0  0  0  0  0  0  0  0  0  0  0
  1  2  1  0  0  0  0
  1  5  2  0  0  0  0
  2  6  2  0  0  0  0
  3  8  2  0  0  0  0
  3 16  1  0  0  0  0
  4  9  1  0  0  0  0
  4 16  2  0  0  0  0
  5 18  1  0  0  0  0
  6 20  1  0  0  0  0
  7 10  2  0  0  0  0
  7 19  1  0  0  0  0
  8 24  1  0  0  0  0
  9 24  2  0  0  0  0
 10 25  1  0  0  0  0
 11 12  2  0  0  0  0
 11 26  1  0  0  0  0
 12 27  1  0  0  0  0
 13 21  1  0  0  0  0
 13 25  2  0  0  0  0
 14 22  1  0  0  0  0
 14 23  2  0  0  0  0
 15 27  2  0  0  0  0
 15 28  1  0  0  0  0
 16 29  1  0  0  0  0
 17 29  1  0  0  0  0
 17 32  2  0  0  0  0
 17 33  1  0  0  0  0
 18 20  2  0  0  0  0
 18 38  1  0  0  0  0
 19 21  2  0  0  0  0
 19 39  1  0  0  0  0
 20 47  1  0  0  0  0
 21 40  1  0  0  0  0
 22 30  2  0  0  0  0
 22 50  1  0  0  0  0
 23 31  1  0  0  0  0
 23 51  1  0  0  0  0
 24 82  1  0  0  0  0
 25 83  1  0  0  0  0
 26 28  2  0  0  0  0
 26 82  1  0  0  0  0
 27 84  1  0  0  0  0
 28 85  1  0  0  0  0
 29 66  2  0  0  0  0
 30 58  1  0  0  0  0
 30 67  1  0  0  0  0
 31 59  1  0  0  0  0
 31 67  2  0  0  0  0
 32 68  1  0  0  0  0
 32 71  1  0  0  0  0
 33 72  1  0  0  0  0
 33 77  2  0  0  0  0
 34 48  1  0  0  0  0
 34 73  1  0  0  0  0
 34 78  2  0  0  0  0
 35 63  1  0  0  0  0
 35 69  1  0  0  0  0
 35 79  2  0  0  0  0
 36 64  1  0  0  0  0
 36 74  1  0  0  0  0
 36 80  2  0  0  0  0
 37 70  1  0  0  0  0
 37 75  1  0  0  0  0
 37 81  2  0  0  0  0
 38 41  1  0  0  0  0
 39 48  1  0  0  0  0
 40 69  1  0  0  0  0
 41 43  1  0  0  0  0
 42 44  1  0  0  0  0
 42 45  1  0  0  0  0
 43 47  1  0  0  0  0
 44 49  1  0  0  0  0
 45 70  1  0  0  0  0
 46 49  1  0  0  0  0
 46 70  1  0  0  0  0
 47 73  1  0  0  0  0
 48 69  1  0  0  0  0
 49 68  1  0  0  0  0
 52 64  1  0  0  0  0
 53 65  1  0  0  0  0
 54 65  1  0  0  0  0
 55 65  1  0  0  0  0
 56 75  1  0  0  0  0
 57 76  1  0  0  0  0
 58 60  1  0  0  0  0
 59 61  1  0  0  0  0
 60 62  1  0  0  0  0
 61 75  1  0  0  0  0
 62 83  1  0  0  0  0
 63 65  1  0  0  0  0
 63 74  1  0  0  0  0
 64 76  1  0  0  0  0
 66 68  1  0  0  0  0
M  CHG  1  76   1
M  ISO  4  37 100  62 101  75 100  83 101
M  END
> <Batch ID>
0082

> <Smiles>
CNC(C)C(=O)NC(C(=O)N1Cc2cc([101O:1][101CH2:1]CCc3nc(CC[100N:0](C)[100C:0](=O)N4CCCC(n5nc(-c6ccc(Oc7ccc(F)cc7F)cc6)c(C(N)=O)c5N)C4)c(C)cc3C)ccc2CC1C(=O)NC1CCCc2ccccc21)C(C)(C)C

> <Shape>
0.189

> <Color>
0.109

> <Negative vol penalty>
0.000

$$$$

  -OEChem-04052318493D

 85 93  0     1  0  0  0  0  0999 V2000
  -23.5446  -28.8592   24.5487 C   0  0  0  0  0  0  0  0  0  0  0  0
  -23.9221  -27.6385   25.0991 C   0  0  0  0  0  0  0  0  0  0  0  0
  -23.2001   -9.8515   19.9558 C   0  0  0  0  0  0  0  0  0  0  0  0
  -23.9056   -9.9367   22.2649 C   0  0  0  0  0  0  0  0  0  0  0  0
  -22.7315  -28.8904   23.4166 C   0  0  0  0  0  0  0  0  0  0  0  0
  -23.4857  -26.4483   24.5183 C   0  0  0  0  0  0  0  0  0  0  0  0
  -26.5736  -21.1707   24.1746 C   0  0  0  0  0  0  0  0  0  0  0  0
  -22.5077   -8.6678   20.2110 C   0  0  0  0  0  0  0  0  0  0  0  0
  -23.2133   -8.7530   22.5201 C   0  0  0  0  0  0  0  0  0  0  0  0
  -26.5307  -20.0072   24.9416 C   0  0  0  0  0  0  0  0  0  0  0  0
  -19.5692   -7.7532   21.6114 C   0  0  0  0  0  0  0  0  0  0  0  0
  -18.2776   -7.6341   21.0983 C   0  0  0  0  0  0  0  0  0  0  0  0
  -25.0192  -19.0167   23.3438 C   0  0  0  0  0  0  0  0  0  0  0  0
  -29.2775  -14.8465   25.5780 C   0  0  0  0  0  0  0  0  0  0  0  0
  -18.9618   -5.6977   19.8258 C   0  0  0  0  0  0  0  0  0  0  0  0
  -23.8991  -10.4860   20.9827 C   0  0  0  0  0  0  0  0  0  0  0  0
  -24.1200  -13.0223   20.8226 C   0  0  0  0  0  0  0  0  0  0  0  0
  -22.2928  -27.6998   22.8159 C   0  0  0  0  0  0  0  0  0  0  0  0
  -25.8297  -21.2701   22.9901 C   0  0  0  0  0  0  0  0  0  0  0  0
  -22.6648  -26.4636   23.3779 C   0  0  0  0  0  0  0  0  0  0  0  0
  -25.0563  -20.1816   22.5622 C   0  0  0  0  0  0  0  0  0  0  0  0
  -28.5183  -15.5907   26.4639 C   0  0  0  0  0  0  0  0  0  0  0  0
  -22.5143   -8.1186   21.4931 C   0  0  0  0  0  0  0  0  0  0  0  0
  -25.7512  -18.9311   24.5278 C   0  0  0  0  0  0  0  0  0  0  0  0
  -20.5571   -6.8446   21.2317 C   0  0  0  0  0  0  0  0  0  0  0  0
  -17.9739   -6.6063   20.2055 C   0  0  0  0  0  0  0  0  0  0  0  0
  -20.2533   -5.8168   20.3389 C   0  0  0  0  0  0  0  0  0  0  0  0
  -24.6149  -11.7085   20.7196 C   0  0  0  0  0  0  0  0  0  0  0  0
  -30.5833  -14.5642   25.9251 C   0  0  0  0  0  0  0  0  0  0  0  0
  -29.1151  -16.0029   27.6384 C   0  0  0  0  0  0  0  0  0  0  0  0
  -25.1824  -13.8180   20.4695 C   0  0  0  0  0  0  0  0  0  0  0  0
  -22.8166  -13.4824   21.2034 C   0  0  0  0  0  0  0  0  0  0  0  0
  -23.4713  -23.1428   21.9727 C   0  0  0  0  0  0  0  0  0  0  0  0
  -23.9575  -21.5758   19.1744 C   0  0  0  0  0  0  0  0  0  0  0  0
  -24.6480  -18.6225   17.2204 C   0  0  0  0  0  0  0  0  0  0  0  0
  -30.9449  -14.0605   20.9687 C   0  0  0  0  0  0  0  0  0  0  0  0
  -21.3763  -27.7844   21.6211 C   0  0  0  0  0  0  0  0  0  0  0  0
  -25.9076  -22.5221   22.1602 C   0  0  0  0  0  0  0  0  0  0  0  0
  -24.2551  -20.2302   21.2878 C   0  0  0  0  0  0  0  0  0  0  0  0
  -21.2643  -26.4744   20.8454 C   0  0  0  0  0  0  0  0  0  0  0  0
  -29.3613  -13.1218   17.9211 C   0  0  0  0  0  0  0  0  0  0  0  0
  -21.0472  -25.3052   21.8008 C   0  0  0  0  0  0  0  0  0  0  0  0
  -27.9300  -12.7838   18.3416 C   0  0  0  0  0  0  0  0  0  0  0  0
  -30.3760  -12.6969   18.9803 C   0  0  0  0  0  0  0  0  0  0  0  0
  -28.6769  -12.8740   20.7567 C   0  0  0  0  0  0  0  0  0  0  0  0
  -22.2321  -25.1508   22.7619 C   0  0  1  0  0  0  0  0  0  0  0  0
  -24.7060  -22.7034   21.2378 C   0  0  1  0  0  0  0  0  0  0  0  0
  -27.6132  -13.3340   19.7453 C   0  0  2  0  0  0  0  0  0  0  0  0
  -28.3593  -16.8087   28.6403 C   0  0  0  0  0  0  0  0  0  0  0  0
  -24.9558  -18.3384   14.7461 C   0  0  0  0  0  0  0  0  0  0  0  0
  -26.0366  -15.3880   27.1562 C   0  0  0  0  0  0  0  0  0  0  0  0
  -26.6917  -15.3093   24.7599 C   0  0  0  0  0  0  0  0  0  0  0  0
  -20.9792  -20.9127   19.1728 C   0  0  0  0  0  0  0  0  0  0  0  0
  -21.4409  -19.1624   17.4432 C   0  0  0  0  0  0  0  0  0  0  0  0
  -21.9047  -21.5616   16.9419 C   0  0  0  0  0  0  0  0  0  0  0  0
  -27.2930  -17.3441   17.5790 C   0  0  0  0  0  0  0  0  0  0  0  0
  -31.4436  -13.7667   25.0059 C   0  0  0  0  0  0  0  0  0  0  0  0
  -32.2349  -14.6056   23.9824 C   0  0  0  0  0  0  0  0  0  0  0  0
  -31.3625  -15.4020   23.0145 C   0  0  0  0  0  0  0  0  0  0  0  0
  -26.8712  -17.4707   26.0340 C   0  0  0  0  0  0  0  0  0  1  0  0
  -23.4117  -20.3167   18.5454 C   0  0  1  0  0  0  0  0  0  0  0  0
  -25.6521  -18.4956   16.0890 C   0  0  2  0  0  0  0  0  0  0  0  0
  -27.0552  -15.9339   26.1266 C   0  0  0  0  0  0  0  0  0  0  0  0
  -21.9476  -20.4879   18.0509 C   0  0  0  0  0  0  0  0  0  0  0  0
  -25.8922  -11.6675   20.3314 N   0  0  0  0  0  0  0  0  0  0  0  0
  -31.1416  -14.9806   27.0815 N   0  0  0  0  0  0  0  0  0  0  0  0
  -30.3952  -15.7117   27.9523 N   0  0  0  0  0  0  0  0  0  0  0  0
  -26.2090  -12.9656   20.1871 N   0  0  0  0  0  0  0  0  0  0  0  0
  -24.3591  -21.4786   20.5142 N   0  0  0  0  0  0  0  0  0  0  0  0
  -30.0189  -13.2531   20.2877 N   0  0  0  0  0  0  0  0  0  0  0  0
  -25.3293  -15.1567   20.3759 N   0  0  0  0  0  0  0  0  0  0  0  0
  -21.8427  -12.5308   21.5353 N   0  0  0  0  0  0  0  0  0  0  0  0
  -23.3459  -24.5137   22.0928 N   0  0  0  0  0  0  0  0  0  0  0  0
  -24.3559  -19.9410   17.4986 N   0  0  0  0  0  0  0  0  0  0  0  0
  -30.5243  -14.5522   22.1984 N   0  0  0  0  0  0  0  0  0  0  0  0
  -26.5292  -17.3103   16.3052 N   0  3  0  0  0  0  0  0  0  0  0  0
  -22.5193  -14.7008   21.2322 O   0  0  0  0  0  0  0  0  0  0  0  0
  -22.6895  -22.3004   22.3981 O   0  0  0  0  0  0  0  0  0  0  0  0
  -24.0316  -22.6058   18.4997 O   0  0  0  0  0  0  0  0  0  0  0  0
  -24.1678  -17.6491   17.7970 O   0  0  0  0  0  0  0  0  0  0  0  0
  -32.0616  -14.3279   20.5122 O   0  0  0  0  0  0  0  0  0  0  0  0
  -21.8386   -6.9637   21.7426 O   0  0  0  0  0  0  0  0  0  0  0  0
  -25.7071  -17.7945   25.2749 O   0  0  0  0  0  0  0  0  0  1  0  0
  -16.7332   -6.4912   19.7140 F   0  0  0  0  0  0  0  0  0  0  0  0
  -21.1979   -4.9402   19.9713 F   0  0  0  0  0  0  0  0  0  0  0  0
  1  2  1  0  0  0  0
  1  5  2  0  0  0  0
  2  6  2  0  0  0  0
  3  8  2  0  0  0  0
  3 16  1  0  0  0  0
  4  9  1  0  0  0  0
  4 16  2  0  0  0  0
  5 18  1  0  0  0  0
  6 20  1  0  0  0  0
  7 10  2  0  0  0  0
  7 19  1  0  0  0  0
  8 23  1  0  0  0  0
  9 23  2  0  0  0  0
 10 24  1  0  0  0  0
 11 12  2  0  0  0  0
 11 25  1  0  0  0  0
 12 26  1  0  0  0  0
 13 21  1  0  0  0  0
 13 24  2  0  0  0  0
 14 22  1  0  0  0  0
 14 29  2  0  0  0  0
 15 26  2  0  0  0  0
 15 27  1  0  0  0  0
 16 28  1  0  0  0  0
 17 28  1  0  0  0  0
 17 31  2  0  0  0  0
 17 32  1  0  0  0  0
 18 20  2  0  0  0  0
 18 37  1  0  0  0  0
 19 21  2  0  0  0  0
 19 38  1  0  0  0  0
 20 46  1  0  0  0  0
 21 39  1  0  0  0  0
 22 30  2  0  0  0  0
 22 63  1  0  0  0  0
 23 82  1  0  0  0  0
 24 83  1  0  0  0  0
 25 27  2  0  0  0  0
 25 82  1  0  0  0  0
 26 84  1  0  0  0  0
 27 85  1  0  0  0  0
 28 65  2  0  0  0  0
 29 57  1  0  0  0  0
 29 66  1  0  0  0  0
 30 49  1  0  0  0  0
 30 67  1  0  0  0  0
 31 68  1  0  0  0  0
 31 71  1  0  0  0  0
 32 72  1  0  0  0  0
 32 77  2  0  0  0  0
 33 47  1  0  0  0  0
 33 73  1  0  0  0  0
 33 78  2  0  0  0  0
 34 61  1  0  0  0  0
 34 69  1  0  0  0  0
 34 79  2  0  0  0  0
 35 62  1  0  0  0  0
 35 74  1  0  0  0  0
 35 80  2  0  0  0  0
 36 70  1  0  0  0  0
 36 75  1  0  0  0  0
 36 81  2  0  0  0  0
 37 40  1  0  0  0  0
 38 47  1  0  0  0  0
 39 69  1  0  0  0  0
 40 42  1  0  0  0  0
 41 43  1  0  0  0  0
 41 44  1  0  0  0  0
 42 46  1  0  0  0  0
 43 48  1  0  0  0  0
 44 70  1  0  0  0  0
 45 48  1  0  0  0  0
 45 70  1  0  0  0  0
 46 73  1  0  0  0  0
 47 69  1  0  0  0  0
 48 68  1  0  0  0  0
 50 62  1  0  0  0  0
 51 63  1  0  0  0  0
 52 63  1  0  0  0  0
 53 64  1  0  0  0  0
 54 64  1  0  0  0  0
 55 64  1  0  0  0  0
 56 76  1  0  0  0  0
 57 58  1  0  0  0  0
 58 59  1  0  0  0  0
 59 75  1  0  0  0  0
 60 63  1  0  0  0  0
 60 83  1  0  0  0  0
 61 64  1  0  0  0  0
 61 74  1  0  0  0  0
 62 76  1  0  0  0  0
 65 68  1  0  0  0  0
 66 67  2  0  0  0  0
M  CHG  1  76   1
M  ISO  4  36 100  60 101  75 100  83 101
M  END
> <Batch ID>
0082

> <Smiles>
CNC(C)C(=O)NC(C(=O)N1Cc2cc([101O:1][101CH2:1]C(C)(C)c3cc(CCC[100NH:0][100C:0](=O)N4CCCC(n5nc(-c6ccc(Oc7ccc(F)cc7F)cc6)c(C(N)=O)c5N)C4)nnc3C)ccc2CC1C(=O)NC1CCCc2ccccc21)C(C)(C)C

> <Shape>
0.159

> <Color>
0.179

> <Negative vol penalty>
0.000

$$$$

  -OEChem-04052318493D

 85 93  0     1  0  0  0  0  0999 V2000
  -18.2770  -24.6772   21.4156 C   0  0  0  0  0  0  0  0  0  0  0  0
  -19.6515  -24.5006   21.2931 C   0  0  0  0  0  0  0  0  0  0  0  0
  -25.7800  -12.9890   21.4684 C   0  0  0  0  0  0  0  0  0  0  0  0
  -25.2572  -13.5900   19.1875 C   0  0  0  0  0  0  0  0  0  0  0  0
  -17.7700  -25.8879   21.8859 C   0  0  0  0  0  0  0  0  0  0  0  0
  -20.5198  -25.5351   21.6399 C   0  0  0  0  0  0  0  0  0  0  0  0
  -24.4549  -23.9278   24.3925 C   0  0  0  0  0  0  0  0  0  0  0  0
  -25.4630  -11.6593   21.1907 C   0  0  0  0  0  0  0  0  0  0  0  0
  -24.9402  -12.2603   18.9098 C   0  0  0  0  0  0  0  0  0  0  0  0
  -25.4930  -23.2948   23.7102 C   0  0  0  0  0  0  0  0  0  0  0  0
  -22.6724   -9.7807   20.8622 C   0  0  0  0  0  0  0  0  0  0  0  0
  -21.8840   -9.0964   21.7873 C   0  0  0  0  0  0  0  0  0  0  0  0
  -26.7674  -25.3424   23.7619 C   0  0  0  0  0  0  0  0  0  0  0  0
  -29.3057  -24.5166   20.0621 C   0  0  0  0  0  0  0  0  0  0  0  0
  -23.6551   -7.4839   22.1040 C   0  0  0  0  0  0  0  0  0  0  0  0
  -25.6770  -13.9544   20.4668 C   0  0  0  0  0  0  0  0  0  0  0  0
  -27.2621  -15.9466   20.6276 C   0  0  0  0  0  0  0  0  0  0  0  0
  -18.6330  -26.9343   22.2478 C   0  0  0  0  0  0  0  0  0  0  0  0
  -24.5610  -25.2781   24.7556 C   0  0  0  0  0  0  0  0  0  0  0  0
  -20.0239  -26.7614   22.1143 C   0  0  0  0  0  0  0  0  0  0  0  0
  -25.7303  -25.9895   24.4509 C   0  0  0  0  0  0  0  0  0  0  0  0
  -28.2748  -23.6102   19.8867 C   0  0  0  0  0  0  0  0  0  0  0  0
  -25.0431  -11.2950   19.9114 C   0  0  0  0  0  0  0  0  0  0  0  0
  -26.6483  -24.0029   23.3923 C   0  0  0  0  0  0  0  0  0  0  0  0
  -23.9522   -9.3166   20.5580 C   0  0  0  0  0  0  0  0  0  0  0  0
  -22.3753   -7.9480   22.4081 C   0  0  0  0  0  0  0  0  0  0  0  0
  -24.4435   -8.1683   21.1789 C   0  0  0  0  0  0  0  0  0  0  0  0
  -26.0038  -15.3281   20.7532 C   0  0  0  0  0  0  0  0  0  0  0  0
  -29.2624  -25.6920   19.3397 C   0  0  0  0  0  0  0  0  0  0  0  0
  -27.2687  -23.9396   19.0008 C   0  0  0  0  0  0  0  0  0  0  0  0
  -27.0468  -17.2456   21.0184 C   0  0  0  0  0  0  0  0  0  0  0  0
  -28.5137  -15.3962   20.1961 C   0  0  0  0  0  0  0  0  0  0  0  0
  -22.9532  -27.9257   24.0421 C   0  0  0  0  0  0  0  0  0  0  0  0
  -24.8962  -29.2428   26.2808 C   0  0  0  0  0  0  0  0  0  0  0  0
  -27.8415  -29.1113   27.9999 C   0  0  0  0  0  0  0  0  0  0  0  0
  -23.0111  -21.3868   20.7375 C   0  0  0  0  0  0  0  0  0  0  0  0
  -18.0365  -28.2414   22.7064 C   0  0  0  0  0  0  0  0  0  0  0  0
  -23.4433  -25.9390   25.5148 C   0  0  0  0  0  0  0  0  0  0  0  0
  -25.9020  -27.4353   24.8362 C   0  0  0  0  0  0  0  0  0  0  0  0
  -19.0384  -29.1555   23.4071 C   0  0  0  0  0  0  0  0  0  0  0  0
  -23.6080  -19.5452   23.7257 C   0  0  0  0  0  0  0  0  0  0  0  0
  -20.3385  -29.2308   22.6130 C   0  0  0  0  0  0  0  0  0  0  0  0
  -24.4036  -18.3275   23.2521 C   0  0  0  0  0  0  0  0  0  0  0  0
  -22.5477  -19.9575   22.7070 C   0  0  0  0  0  0  0  0  0  0  0  0
  -23.8511  -18.9631   20.8669 C   0  0  0  0  0  0  0  0  0  0  0  0
  -20.9990  -27.8511   22.5038 C   0  0  1  0  0  0  0  0  0  0  0  0
  -23.4476  -27.4588   25.3819 C   0  0  1  0  0  0  0  0  0  0  0  0
  -24.9698  -18.5438   21.8358 C   0  0  2  0  0  0  0  0  0  0  0  0
  -29.8333  -28.0430   20.0473 C   0  0  0  0  0  0  0  0  0  0  0  0
  -31.1184  -26.9418   18.1789 C   0  0  0  0  0  0  0  0  0  0  0  0
  -29.1657  -30.3475   29.7364 C   0  0  0  0  0  0  0  0  0  0  0  0
  -25.6686  -31.3353   24.1988 C   0  0  0  0  0  0  0  0  0  0  0  0
  -27.6359  -31.9304   25.6284 C   0  0  0  0  0  0  0  0  0  0  0  0
  -25.3208  -32.2374   26.5052 C   0  0  0  0  0  0  0  0  0  0  0  0
  -27.7968  -26.7992   29.8468 C   0  0  0  0  0  0  0  0  0  0  0  0
  -28.2732  -22.3097   20.6528 C   0  0  0  0  0  0  0  0  0  0  0  0
  -26.1259  -23.0119   18.7598 C   0  0  0  0  0  0  0  0  0  0  0  0
  -24.7367  -23.6346   19.0017 C   0  0  0  0  0  0  0  0  0  0  0  0
  -23.5678  -22.6976   18.7051 C   0  0  0  0  0  0  0  0  0  0  0  0
  -27.3076  -22.3329   21.8327 C   0  0  0  0  0  0  0  0  0  1  0  0
  -30.3484  -26.7012   19.4918 C   0  0  0  0  0  0  0  0  0  0  0  0
  -26.2549  -29.9005   26.2637 C   0  0  1  0  0  0  0  0  0  0  0  0
  -28.1506  -29.2444   29.4801 C   0  0  2  0  0  0  0  0  0  0  0  0
  -26.2163  -31.3242   25.6399 C   0  0  0  0  0  0  0  0  0  0  0  0
  -25.0590  -16.1653   21.1898 N   0  0  0  0  0  0  0  0  0  0  0  0
  -28.2652  -25.9881   18.4794 N   0  0  0  0  0  0  0  0  0  0  0  0
  -27.2518  -25.0975   18.3074 N   0  0  0  0  0  0  0  0  0  0  0  0
  -25.7241  -17.3231   21.3420 N   0  0  0  0  0  0  0  0  0  0  0  0
  -24.7786  -28.0389   25.5718 N   0  0  0  0  0  0  0  0  0  0  0  0
  -23.1501  -20.1482   21.3854 N   0  0  0  0  0  0  0  0  0  0  0  0
  -27.8617  -18.3177   21.1133 N   0  0  0  0  0  0  0  0  0  0  0  0
  -28.5583  -14.0440   19.8304 N   0  0  0  0  0  0  0  0  0  0  0  0
  -21.6695  -27.5125   23.7408 N   0  0  0  0  0  0  0  0  0  0  0  0
  -26.7439  -29.8632   27.6377 N   0  0  0  0  0  0  0  0  0  0  0  0
  -23.6178  -21.4852   19.4913 N   0  0  0  0  0  0  0  0  0  0  0  0
  -28.7019  -27.9658   30.0112 N   0  3  0  0  0  0  0  0  0  0  0  0
  -29.5651  -16.0790   20.1524 O   0  0  0  0  0  0  0  0  0  0  0  0
  -23.6819  -28.6114   23.3346 O   0  0  0  0  0  0  0  0  0  0  0  0
  -23.9752  -29.7738   26.9064 O   0  0  0  0  0  0  0  0  0  0  0  0
  -28.5093  -28.4132   27.2401 O   0  0  0  0  0  0  0  0  0  0  0  0
  -22.3968  -22.3364   21.2354 O   0  0  0  0  0  0  0  0  0  0  0  0
  -24.7340   -9.9976   19.6400 O   0  0  0  0  0  0  0  0  0  0  0  0
  -27.6627  -23.3876   22.7258 O   0  0  0  0  0  0  0  0  0  1  0  0
  -21.6186   -7.2919   23.2976 F   0  0  0  0  0  0  0  0  0  0  0  0
  -25.6726   -7.7182   20.8915 F   0  0  0  0  0  0  0  0  0  0  0  0
  1  2  1  0  0  0  0
  1  5  2  0  0  0  0
  2  6  2  0  0  0  0
  3  8  2  0  0  0  0
  3 16  1  0  0  0  0
  4  9  1  0  0  0  0
  4 16  2  0  0  0  0
  5 18  1  0  0  0  0
  6 20  1  0  0  0  0
  7 10  2  0  0  0  0
  7 19  1  0  0  0  0
  8 23  1  0  0  0  0
  9 23  2  0  0  0  0
 10 24  1  0  0  0  0
 11 12  2  0  0  0  0
 11 25  1  0  0  0  0
 12 26  1  0  0  0  0
 13 21  1  0  0  0  0
 13 24  2  0  0  0  0
 14 22  1  0  0  0  0
 14 29  2  0  0  0  0
 15 26  2  0  0  0  0
 15 27  1  0  0  0  0
 16 28  1  0  0  0  0
 17 28  1  0  0  0  0
 17 31  2  0  0  0  0
 17 32  1  0  0  0  0
 18 20  2  0  0  0  0
 18 37  1  0  0  0  0
 19 21  2  0  0  0  0
 19 38  1  0  0  0  0
 20 46  1  0  0  0  0
 21 39  1  0  0  0  0
 22 30  2  0  0  0  0
 22 56  1  0  0  0  0
 23 82  1  0  0  0  0
 24 83  1  0  0  0  0
 25 27  2  0  0  0  0
 25 82  1  0  0  0  0
 26 84  1  0  0  0  0
 27 85  1  0  0  0  0
 28 65  2  0  0  0  0
 29 61  1  0  0  0  0
 29 66  1  0  0  0  0
 30 57  1  0  0  0  0
 30 67  1  0  0  0  0
 31 68  1  0  0  0  0
 31 71  1  0  0  0  0
 32 72  1  0  0  0  0
 32 77  2  0  0  0  0
 33 47  1  0  0  0  0
 33 73  1  0  0  0  0
 33 78  2  0  0  0  0
 34 62  1  0  0  0  0
 34 69  1  0  0  0  0
 34 79  2  0  0  0  0
 35 63  1  0  0  0  0
 35 74  1  0  0  0  0
 35 80  2  0  0  0  0
 36 70  1  0  0  0  0
 36 75  1  0  0  0  0
 36 81  2  0  0  0  0
 37 40  1  0  0  0  0
 38 47  1  0  0  0  0
 39 69  1  0  0  0  0
 40 42  1  0  0  0  0
 41 43  1  0  0  0  0
 41 44  1  0  0  0  0
 42 46  1  0  0  0  0
 43 48  1  0  0  0  0
 44 70  1  0  0  0  0
 45 48  1  0  0  0  0
 45 70  1  0  0  0  0
 46 73  1  0  0  0  0
 47 69  1  0  0  0  0
 48 68  1  0  0  0  0
 49 61  1  0  0  0  0
 50 61  1  0  0  0  0
 51 63  1  0  0  0  0
 52 64  1  0  0  0  0
 53 64  1  0  0  0  0
 54 64  1  0  0  0  0
 55 76  1  0  0  0  0
 56 60  1  0  0  0  0
 57 58  1  0  0  0  0
 58 59  1  0  0  0  0
 59 75  1  0  0  0  0
 60 83  1  0  0  0  0
 62 64  1  0  0  0  0
 62 74  1  0  0  0  0
 63 76  1  0  0  0  0
 65 68  1  0  0  0  0
 66 67  2  0  0  0  0
M  CHG  1  76   1
M  ISO  4  36 100  60 101  75 100  83 101
M  END
> <Batch ID>
0082

> <Smiles>
CNC(C)C(=O)NC(C(=O)N1Cc2cc([101O:1][101CH2:1]Cc3cc(C(C)C)nnc3CCC[100NH:0][100C:0](=O)N3CCCC(n4nc(-c5ccc(Oc6ccc(F)cc6F)cc5)c(C(N)=O)c4N)C3)ccc2CC1C(=O)NC1CCCc2ccccc21)C(C)(C)C

> <Shape>
0.224

> <Color>
0.080

> <Negative vol penalty>
0.000

$$$$

  -OEChem-04052318493D

 83 91  0     1  0  0  0  0  0999 V2000
  -15.5458  -26.0963   24.0444 C   0  0  0  0  0  0  0  0  0  0  0  0
  -16.3152  -25.3411   23.1651 C   0  0  0  0  0  0  0  0  0  0  0  0
  -23.0015   -9.7904   21.1722 C   0  0  0  0  0  0  0  0  0  0  0  0
  -24.0497  -10.9338   23.0245 C   0  0  0  0  0  0  0  0  0  0  0  0
  -15.9011  -27.4153   24.3236 C   0  0  0  0  0  0  0  0  0  0  0  0
  -17.4398  -25.9049   22.5635 C   0  0  0  0  0  0  0  0  0  0  0  0
  -23.9688  -22.9910   23.4426 C   0  0  0  0  0  0  0  0  0  0  0  0
  -22.3656   -8.9274   22.0647 C   0  0  0  0  0  0  0  0  0  0  0  0
  -23.4138  -10.0708   23.9170 C   0  0  0  0  0  0  0  0  0  0  0  0
  -25.2182  -22.3727   23.3904 C   0  0  0  0  0  0  0  0  0  0  0  0
  -23.1659   -6.1925   23.8824 C   0  0  0  0  0  0  0  0  0  0  0  0
  -23.1716   -4.8306   23.5812 C   0  0  0  0  0  0  0  0  0  0  0  0
  -26.0884  -24.2166   22.0902 C   0  0  0  0  0  0  0  0  0  0  0  0
  -20.7560   -4.8307   23.5351 C   0  0  0  0  0  0  0  0  0  0  0  0
  -23.8436  -10.7936   21.6521 C   0  0  0  0  0  0  0  0  0  0  0  0
  -23.8907  -12.5551   19.8075 C   0  0  0  0  0  0  0  0  0  0  0  0
  -17.0362  -27.9924   23.7326 C   0  0  0  0  0  0  0  0  0  0  0  0
  -23.7783  -24.2333   22.8312 C   0  0  0  0  0  0  0  0  0  0  0  0
  -17.8099  -27.2333   22.8341 C   0  0  0  0  0  0  0  0  0  0  0  0
  -24.8425  -24.8466   22.1498 C   0  0  0  0  0  0  0  0  0  0  0  0
  -22.5718   -9.0676   23.4371 C   0  0  0  0  0  0  0  0  0  0  0  0
  -26.2753  -22.9839   22.7157 C   0  0  0  0  0  0  0  0  0  0  0  0
  -21.9553   -6.8735   24.0100 C   0  0  0  0  0  0  0  0  0  0  0  0
  -21.9667   -4.1497   23.4076 C   0  0  0  0  0  0  0  0  0  0  0  0
  -20.7504   -6.1926   23.8363 C   0  0  0  0  0  0  0  0  0  0  0  0
  -24.5011  -11.6850   20.7307 C   0  0  0  0  0  0  0  0  0  0  0  0
  -24.9401  -13.1769   19.1762 C   0  0  0  0  0  0  0  0  0  0  0  0
  -22.4995  -12.7811   19.5443 C   0  0  0  0  0  0  0  0  0  0  0  0
  -21.4210  -27.0518   22.0729 C   0  0  0  0  0  0  0  0  0  0  0  0
  -24.1311  -28.3162   22.7566 C   0  0  0  0  0  0  0  0  0  0  0  0
  -27.1538  -29.3227   23.9762 C   0  0  0  0  0  0  0  0  0  0  0  0
  -30.5960  -14.2858   20.7986 C   0  0  0  0  0  0  0  0  0  0  0  0
  -17.3535  -29.4369   24.0286 C   0  0  0  0  0  0  0  0  0  0  0  0
  -22.4333  -24.9072   22.8095 C   0  0  0  0  0  0  0  0  0  0  0  0
  -24.5821  -26.1668   21.4771 C   0  0  0  0  0  0  0  0  0  0  0  0
  -18.7732  -29.8407   23.6390 C   0  0  0  0  0  0  0  0  0  0  0  0
  -29.5066  -12.4777   17.9315 C   0  0  0  0  0  0  0  0  0  0  0  0
  -19.1078  -29.3328   22.2401 C   0  0  0  0  0  0  0  0  0  0  0  0
  -28.0451  -12.1480   18.2404 C   0  0  0  0  0  0  0  0  0  0  0  0
  -30.1825  -16.2631   23.9001 C   0  0  0  0  0  0  0  0  0  0  0  0
  -30.4610  -17.4378   21.6777 C   0  0  0  0  0  0  0  0  0  0  0  0
  -30.8502  -17.4439   24.6074 C   0  0  0  0  0  0  0  0  0  0  0  0
  -31.1290  -18.6181   22.3856 C   0  0  0  0  0  0  0  0  0  0  0  0
  -30.3758  -12.4186   19.1857 C   0  0  0  0  0  0  0  0  0  0  0  0
  -28.4336  -12.9114   20.6206 C   0  0  0  0  0  0  0  0  0  0  0  0
  -19.0510  -27.8016   22.1809 C   0  0  1  0  0  0  0  0  0  0  0  0
  -22.5259  -26.4418   22.8845 C   0  0  1  0  0  0  0  0  0  0  0  0
  -27.5075  -13.0128   19.3965 C   0  0  2  0  0  0  0  0  0  0  0  0
  -30.6584  -16.1333   22.4521 C   0  0  0  0  0  0  0  0  0  0  0  0
  -30.6861  -18.7840   23.8565 C   0  0  0  0  0  0  0  0  0  0  0  0
  -28.4818  -31.3893   24.4887 C   0  0  0  0  0  0  0  0  0  0  0  0
  -31.1411  -20.0536   25.9742 C   0  0  0  0  0  0  0  0  0  0  0  0
  -33.0376  -19.4321   24.4508 C   0  0  0  0  0  0  0  0  0  0  0  0
  -24.6800  -28.6971   19.7804 C   0  0  0  0  0  0  0  0  0  0  0  0
  -26.6729  -30.0812   20.3975 C   0  0  0  0  0  0  0  0  0  0  0  0
  -24.3868  -30.8211   21.0677 C   0  0  0  0  0  0  0  0  0  0  0  0
  -27.3310  -28.6365   26.8496 C   0  0  0  0  0  0  0  0  0  0  0  0
  -29.2264  -19.2719   23.9311 C   0  0  0  0  0  0  0  0  0  0  0  0
  -29.0484  -20.6145   23.2279 C   0  0  0  0  0  0  0  0  0  0  0  0
  -27.6161  -21.1203   23.3376 C   0  0  0  0  0  0  0  0  0  1  0  0
  -25.4448  -28.8477   22.2418 C   0  0  1  0  0  0  0  0  0  0  0  0
  -27.5228  -30.3441   25.0369 C   0  0  2  0  0  0  0  0  0  0  0  0
  -31.5750  -19.8468   24.5296 C   0  0  0  0  0  0  0  0  0  0  0  0
  -25.2935  -29.5851   20.8813 C   0  0  0  0  0  0  0  0  0  0  0  0
  -25.8349  -11.7457   20.6923 N   0  0  0  0  0  0  0  0  0  0  0  0
  -26.0712  -12.6614   19.7374 N   0  0  0  0  0  0  0  0  0  0  0  0
  -23.7693  -27.0252   22.3530 N   0  0  0  0  0  0  0  0  0  0  0  0
  -29.8119  -13.2614   20.2429 N   0  0  0  0  0  0  0  0  0  0  0  0
  -24.9964  -14.1089   18.2012 N   0  0  0  0  0  0  0  0  0  0  0  0
  -21.8351  -13.7775   20.2723 N   0  0  0  0  0  0  0  0  0  0  0  0
  -20.2417  -27.2285   22.7710 N   0  0  0  0  0  0  0  0  0  0  0  0
  -25.9982  -29.6726   23.3102 N   0  0  0  0  0  0  0  0  0  0  0  0
  -29.9831  -15.0416   21.7906 N   0  0  0  0  0  0  0  0  0  0  0  0
  -28.1724  -29.6732   26.1983 N   0  3  0  0  0  0  0  0  0  0  0  0
  -21.8605  -12.1079   18.7006 O   0  0  0  0  0  0  0  0  0  0  0  0
  -21.6229  -27.3428   20.8998 O   0  0  0  0  0  0  0  0  0  0  0  0
  -23.4397  -29.0264   23.4921 O   0  0  0  0  0  0  0  0  0  0  0  0
  -27.8256  -28.3170   23.7576 O   0  0  0  0  0  0  0  0  0  0  0  0
  -31.7544  -14.5137   20.4337 O   0  0  0  0  0  0  0  0  0  0  0  0
  -21.9513   -8.2258   24.3083 O   0  0  0  0  0  0  0  0  0  0  0  0
  -27.4936  -22.3768   22.6725 O   0  0  0  0  0  0  0  0  0  1  0  0
  -21.9724   -2.8422   23.1168 F   0  0  0  0  0  0  0  0  0  0  0  0
  -19.5842   -6.8418   23.9565 F   0  0  0  0  0  0  0  0  0  0  0  0
  1  2  1  0  0  0  0
  1  5  2  0  0  0  0
  2  6  2  0  0  0  0
  3  8  2  0  0  0  0
  3 15  1  0  0  0  0
  4  9  1  0  0  0  0
  4 15  2  0  0  0  0
  5 17  1  0  0  0  0
  6 19  1  0  0  0  0
  7 10  2  0  0  0  0
  7 18  1  0  0  0  0
  8 21  1  0  0  0  0
  9 21  2  0  0  0  0
 10 22  1  0  0  0  0
 11 12  2  0  0  0  0
 11 23  1  0  0  0  0
 12 24  1  0  0  0  0
 13 20  1  0  0  0  0
 13 22  2  0  0  0  0
 14 24  2  0  0  0  0
 14 25  1  0  0  0  0
 15 26  1  0  0  0  0
 16 26  1  0  0  0  0
 16 27  2  0  0  0  0
 16 28  1  0  0  0  0
 17 19  2  0  0  0  0
 17 33  1  0  0  0  0
 18 20  2  0  0  0  0
 18 34  1  0  0  0  0
 19 46  1  0  0  0  0
 20 35  1  0  0  0  0
 21 80  1  0  0  0  0
 22 81  1  0  0  0  0
 23 25  2  0  0  0  0
 23 80  1  0  0  0  0
 24 82  1  0  0  0  0
 25 83  1  0  0  0  0
 26 65  2  0  0  0  0
 27 66  1  0  0  0  0
 27 69  1  0  0  0  0
 28 70  1  0  0  0  0
 28 75  2  0  0  0  0
 29 47  1  0  0  0  0
 29 71  1  0  0  0  0
 29 76  2  0  0  0  0
 30 61  1  0  0  0  0
 30 67  1  0  0  0  0
 30 77  2  0  0  0  0
 31 62  1  0  0  0  0
 31 72  1  0  0  0  0
 31 78  2  0  0  0  0
 32 68  1  0  0  0  0
 32 73  1  0  0  0  0
 32 79  2  0  0  0  0
 33 36  1  0  0  0  0
 34 47  1  0  0  0  0
 35 67  1  0  0  0  0
 36 38  1  0  0  0  0
 37 39  1  0  0  0  0
 37 44  1  0  0  0  0
 38 46  1  0  0  0  0
 39 48  1  0  0  0  0
 40 42  1  0  0  0  0
 40 49  1  0  0  0  0
 41 43  1  0  0  0  0
 41 49  1  0  0  0  0
 42 50  1  0  0  0  0
 43 50  1  0  0  0  0
 44 68  1  0  0  0  0
 45 48  1  0  0  0  0
 45 68  1  0  0  0  0
 46 71  1  0  0  0  0
 47 67  1  0  0  0  0
 48 66  1  0  0  0  0
 49 73  1  0  0  0  0
 50 58  1  0  0  0  0
 50 63  1  0  0  0  0
 51 62  1  0  0  0  0
 52 63  1  0  0  0  0
 53 63  1  0  0  0  0
 54 64  1  0  0  0  0
 55 64  1  0  0  0  0
 56 64  1  0  0  0  0
 57 74  1  0  0  0  0
 58 59  1  0  0  0  0
 59 60  1  0  0  0  0
 60 81  1  0  0  0  0
 61 64  1  0  0  0  0
 61 72  1  0  0  0  0
 62 74  1  0  0  0  0
 65 66  1  0  0  0  0
M  CHG  1  74   1
M  ISO  4  32 100  60 101  73 100  81 101
M  END
> <Batch ID>
0082

> <Smiles>
CNC(C)C(=O)NC(C(=O)N1Cc2cc([101O:1][101CH2:1]CCC3(C(C)C)CCC([100NH:0][100C:0](=O)N4CCCC(n5nc(-c6ccc(Oc7ccc(F)cc7F)cc6)c(C(N)=O)c5N)C4)CC3)ccc2CC1C(=O)NC1CCCc2ccccc21)C(C)(C)C

> <Shape>
0.281

> <Color>
0.114

> <Negative vol penalty>
0.000

$$$$

  -OEChem-04052318493D

 86 94  0     1  0  0  0  0  0999 V2000
  -28.5549  -35.1815   24.5848 C   0  0  0  0  0  0  0  0  0  0  0  0
  -29.2155  -34.3051   23.7298 C   0  0  0  0  0  0  0  0  0  0  0  0
  -24.0327  -12.9244   19.4435 C   0  0  0  0  0  0  0  0  0  0  0  0
  -25.3592  -13.4516   21.3927 C   0  0  0  0  0  0  0  0  0  0  0  0
  -27.4073  -34.7647   25.2579 C   0  0  0  0  0  0  0  0  0  0  0  0
  -28.7293  -33.0108   23.5483 C   0  0  0  0  0  0  0  0  0  0  0  0
  -28.2254  -27.8833   18.5712 C   0  0  0  0  0  0  0  0  0  0  0  0
  -24.8052  -11.7836   19.2263 C   0  0  0  0  0  0  0  0  0  0  0  0
  -26.1317  -12.3107   21.1756 C   0  0  0  0  0  0  0  0  0  0  0  0
  -28.5117  -26.5317   18.3845 C   0  0  0  0  0  0  0  0  0  0  0  0
  -28.6809   -9.7318   20.9286 C   0  0  0  0  0  0  0  0  0  0  0  0
  -30.0659   -9.8565   21.0364 C   0  0  0  0  0  0  0  0  0  0  0  0
  -26.4756  -25.9472   19.5385 C   0  0  0  0  0  0  0  0  0  0  0  0
  -30.0569  -11.4932   19.2593 C   0  0  0  0  0  0  0  0  0  0  0  0
  -29.7783  -18.7151   20.7915 C   0  0  0  0  0  0  0  0  0  0  0  0
  -24.3097  -13.7585   20.5267 C   0  0  0  0  0  0  0  0  0  0  0  0
  -22.3393  -15.0360   21.5233 C   0  0  0  0  0  0  0  0  0  0  0  0
  -26.9013  -33.4678   25.0771 C   0  0  0  0  0  0  0  0  0  0  0  0
  -27.0656  -28.2776   19.2537 C   0  0  0  0  0  0  0  0  0  0  0  0
  -27.5745  -32.5758   24.2206 C   0  0  0  0  0  0  0  0  0  0  0  0
  -26.1756  -27.3045   19.7303 C   0  0  0  0  0  0  0  0  0  0  0  0
  -25.8547  -11.4767   20.0923 C   0  0  0  0  0  0  0  0  0  0  0  0
  -27.6382  -25.5633   18.8707 C   0  0  0  0  0  0  0  0  0  0  0  0
  -27.9838  -10.4877   19.9861 C   0  0  0  0  0  0  0  0  0  0  0  0
  -30.7539  -10.7372   20.2018 C   0  0  0  0  0  0  0  0  0  0  0  0
  -28.6718  -11.3684   19.1514 C   0  0  0  0  0  0  0  0  0  0  0  0
  -23.5124  -14.9375   20.7513 C   0  0  0  0  0  0  0  0  0  0  0  0
  -29.1345  -18.3275   21.9459 C   0  0  0  0  0  0  0  0  0  0  0  0
  -29.0153  -20.8511   21.0830 C   0  0  0  0  0  0  0  0  0  0  0  0
  -28.3709  -20.4634   22.2371 C   0  0  0  0  0  0  0  0  0  0  0  0
  -21.9696  -16.3547   21.4193 C   0  0  0  0  0  0  0  0  0  0  0  0
  -21.6458  -14.0259   22.2678 C   0  0  0  0  0  0  0  0  0  0  0  0
  -26.4755  -29.8983   21.9237 C   0  0  0  0  0  0  0  0  0  0  0  0
  -23.3957  -29.6364   20.9398 C   0  0  0  0  0  0  0  0  0  0  0  0
  -21.0786  -27.9451   19.0910 C   0  0  0  0  0  0  0  0  0  0  0  0
  -25.0327  -21.3698   20.2715 C   0  0  0  0  0  0  0  0  0  0  0  0
  -25.6845  -33.0472   25.8627 C   0  0  0  0  0  0  0  0  0  0  0  0
  -26.7577  -29.7400   19.4234 C   0  0  0  0  0  0  0  0  0  0  0  0
  -24.9068  -27.6758   20.4520 C   0  0  0  0  0  0  0  0  0  0  0  0
  -25.0213  -31.7809   25.3270 C   0  0  0  0  0  0  0  0  0  0  0  0
  -22.2477  -20.0988   18.4535 C   0  0  0  0  0  0  0  0  0  0  0  0
  -26.0682  -30.7071   25.0481 C   0  0  0  0  0  0  0  0  0  0  0  0
  -22.1502  -18.6408   18.9059 C   0  0  0  0  0  0  0  0  0  0  0  0
  -23.6994  -20.5607   18.3469 C   0  0  0  0  0  0  0  0  0  0  0  0
  -24.4098  -18.8913   20.0149 C   0  0  0  0  0  0  0  0  0  0  0  0
  -27.0639  -31.1720   23.9785 C   0  0  1  0  0  0  0  0  0  0  0  0
  -25.8072  -30.0198   20.5834 C   0  0  1  0  0  0  0  0  0  0  0  0
  -22.9639  -18.3968   20.1911 C   0  0  2  0  0  0  0  0  0  0  0  0
  -28.0843  -16.0527   21.8516 C   0  0  0  0  0  0  0  0  0  0  0  0
  -18.6361  -27.9458   18.5152 C   0  0  0  0  0  0  0  0  0  0  0  0
  -28.3882  -22.6569   23.6100 C   0  0  0  0  0  0  0  0  0  0  0  0
  -26.9935  -20.7308   24.3177 C   0  0  0  0  0  0  0  0  0  0  0  0
  -22.7520  -28.4574   23.6794 C   0  0  0  0  0  0  0  0  0  0  0  0
  -20.5905  -27.6196   22.7338 C   0  0  0  0  0  0  0  0  0  0  0  0
  -21.0492  -30.0704   22.8117 C   0  0  0  0  0  0  0  0  0  0  0  0
  -21.6385  -28.3452   16.2126 C   0  0  0  0  0  0  0  0  0  0  0  0
  -29.2103  -16.9171   22.4159 C   0  0  0  0  0  0  0  0  0  0  0  0
  -28.9533  -22.2739   20.5878 C   0  0  0  0  0  0  0  0  0  0  0  0
  -29.4383  -22.4463   19.1468 C   0  0  0  0  0  0  0  0  0  0  0  0
  -26.3610  -22.0292   22.2615 C   0  0  0  0  0  0  0  0  0  0  0  0
  -29.2919  -23.8716   18.6268 C   0  0  0  0  0  0  0  0  0  1  0  0
  -22.2897  -28.6296   21.1451 C   0  0  1  0  0  0  0  0  0  0  0  0
  -20.0216  -28.4282   18.1145 C   0  0  2  0  0  0  0  0  0  0  0  0
  -27.5824  -21.4326   23.0499 C   0  0  0  0  0  0  0  0  0  0  0  0
  -21.6951  -28.6869   22.5806 C   0  0  0  0  0  0  0  0  0  0  0  0
  -29.7303  -19.9838   20.3393 N   0  0  0  0  0  0  0  0  0  0  0  0
  -23.8645  -16.1008   20.1976 N   0  0  0  0  0  0  0  0  0  0  0  0
  -28.4192  -19.1947   22.6895 N   0  0  0  0  0  0  0  0  0  0  0  0
  -22.9070  -16.9429   20.6221 N   0  0  0  0  0  0  0  0  0  0  0  0
  -24.6531  -29.1186   20.5985 N   0  0  0  0  0  0  0  0  0  0  0  0
  -24.4150  -20.3026   19.5988 N   0  0  0  0  0  0  0  0  0  0  0  0
  -20.9373  -17.0569   21.9328 N   0  0  0  0  0  0  0  0  0  0  0  0
  -22.1623  -12.7229   22.2678 N   0  0  0  0  0  0  0  0  0  0  0  0
  -26.4754  -31.0673   22.6605 N   0  0  0  0  0  0  0  0  0  0  0  0
  -21.3165  -28.8704   20.0853 N   0  0  0  0  0  0  0  0  0  0  0  0
  -25.6840  -21.0394   21.4536 N   0  0  0  0  0  0  0  0  0  0  0  0
  -20.3155  -27.9259   16.7426 N   0  3  0  0  0  0  0  0  0  0  0  0
  -20.5901  -14.2677   22.9007 O   0  0  0  0  0  0  0  0  0  0  0  0
  -26.9545  -28.8231   22.2647 O   0  0  0  0  0  0  0  0  0  0  0  0
  -23.1511  -30.8384   21.0701 O   0  0  0  0  0  0  0  0  0  0  0  0
  -21.6349  -26.8543   18.9848 O   0  0  0  0  0  0  0  0  0  0  0  0
  -25.0013  -22.5319   19.8526 O   0  0  0  0  0  0  0  0  0  0  0  0
  -26.6086  -10.3634   19.8808 O   0  0  0  0  0  0  0  0  0  0  0  0
  -27.9156  -24.2433   18.6904 O   0  0  0  0  0  0  0  0  0  1  0  0
  -32.0838  -10.8580   20.3065 F   0  0  0  0  0  0  0  0  0  0  0  0
  -28.0074  -12.0982   18.2449 F   0  0  0  0  0  0  0  0  0  0  0  0
  1  2  1  0  0  0  0
  1  5  2  0  0  0  0
  2  6  2  0  0  0  0
  3  8  2  0  0  0  0
  3 16  1  0  0  0  0
  4  9  1  0  0  0  0
  4 16  2  0  0  0  0
  5 18  1  0  0  0  0
  6 20  1  0  0  0  0
  7 10  2  0  0  0  0
  7 19  1  0  0  0  0
  8 22  1  0  0  0  0
  9 22  2  0  0  0  0
 10 23  1  0  0  0  0
 11 12  2  0  0  0  0
 11 24  1  0  0  0  0
 12 25  1  0  0  0  0
 13 21  1  0  0  0  0
 13 23  2  0  0  0  0
 14 25  2  0  0  0  0
 14 26  1  0  0  0  0
 15 28  1  0  0  0  0
 15 66  2  0  0  0  0
 16 27  1  0  0  0  0
 17 27  1  0  0  0  0
 17 31  2  0  0  0  0
 17 32  1  0  0  0  0
 18 20  2  0  0  0  0
 18 37  1  0  0  0  0
 19 21  2  0  0  0  0
 19 38  1  0  0  0  0
 20 46  1  0  0  0  0
 21 39  1  0  0  0  0
 22 83  1  0  0  0  0
 23 84  1  0  0  0  0
 24 26  2  0  0  0  0
 24 83  1  0  0  0  0
 25 85  1  0  0  0  0
 26 86  1  0  0  0  0
 27 67  2  0  0  0  0
 28 57  1  0  0  0  0
 28 68  2  0  0  0  0
 29 30  2  0  0  0  0
 29 58  1  0  0  0  0
 29 66  1  0  0  0  0
 30 64  1  0  0  0  0
 30 68  1  0  0  0  0
 31 69  1  0  0  0  0
 31 72  1  0  0  0  0
 32 73  1  0  0  0  0
 32 78  2  0  0  0  0
 33 47  1  0  0  0  0
 33 74  1  0  0  0  0
 33 79  2  0  0  0  0
 34 62  1  0  0  0  0
 34 70  1  0  0  0  0
 34 80  2  0  0  0  0
 35 63  1  0  0  0  0
 35 75  1  0  0  0  0
 35 81  2  0  0  0  0
 36 71  1  0  0  0  0
 36 76  1  0  0  0  0
 36 82  2  0  0  0  0
 37 40  1  0  0  0  0
 38 47  1  0  0  0  0
 39 70  1  0  0  0  0
 40 42  1  0  0  0  0
 41 43  1  0  0  0  0
 41 44  1  0  0  0  0
 42 46  1  0  0  0  0
 43 48  1  0  0  0  0
 44 71  1  0  0  0  0
 45 48  1  0  0  0  0
 45 71  1  0  0  0  0
 46 74  1  0  0  0  0
 47 70  1  0  0  0  0
 48 69  1  0  0  0  0
 49 57  1  0  0  0  0
 50 63  1  0  0  0  0
 51 64  1  0  0  0  0
 52 64  1  0  0  0  0
 53 65  1  0  0  0  0
 54 65  1  0  0  0  0
 55 65  1  0  0  0  0
 56 77  1  0  0  0  0
 58 59  1  0  0  0  0
 59 61  1  0  0  0  0
 60 64  1  0  0  0  0
 60 76  1  0  0  0  0
 61 84  1  0  0  0  0
 62 65  1  0  0  0  0
 62 75  1  0  0  0  0
 63 77  1  0  0  0  0
 67 69  1  0  0  0  0
M  CHG  1  77   1
M  ISO  4  36 100  61 101  76 100  84 101
M  END
> <Batch ID>
0082

> <Smiles>
CCc1cnc(CC[101CH2:1][101O:1]c2ccc3c(c2)CN(C(=O)C(NC(=O)C(C)NC)C(C)(C)C)C(C(=O)NC2CCCc4ccccc42)C3)c(C(C)(C)C[100NH:0][100C:0](=O)N2CCCC(n3nc(-c4ccc(Oc5ccc(F)cc5F)cc4)c(C(N)=O)c3N)C2)n1

> <Shape>
0.266

> <Color>
0.062

> <Negative vol penalty>
0.000

$$$$

  -OEChem-04052318492D

  0  0  0     0  0  0  0  0  0999 V2000
M  END
$$$$

  -OEChem-04052318493D

 88 96  0     1  0  0  0  0  0999 V2000
  -28.8188  -35.6805   16.6774 C   0  0  0  0  0  0  0  0  0  0  0  0
  -28.8579  -34.3331   16.3330 C   0  0  0  0  0  0  0  0  0  0  0  0
  -23.8095   -9.5185   20.8100 C   0  0  0  0  0  0  0  0  0  0  0  0
  -24.4027  -10.2529   23.0339 C   0  0  0  0  0  0  0  0  0  0  0  0
  -28.9189  -36.0600   18.0152 C   0  0  0  0  0  0  0  0  0  0  0  0
  -28.9982  -33.3646   17.3263 C   0  0  0  0  0  0  0  0  0  0  0  0
  -27.0340  -26.6581   18.9016 C   0  0  0  0  0  0  0  0  0  0  0  0
  -23.3238   -8.3210   21.3350 C   0  0  0  0  0  0  0  0  0  0  0  0
  -23.9170   -9.0554   23.5590 C   0  0  0  0  0  0  0  0  0  0  0  0
  -27.5848  -25.4372   19.2884 C   0  0  0  0  0  0  0  0  0  0  0  0
  -20.5380   -7.2445   22.9204 C   0  0  0  0  0  0  0  0  0  0  0  0
  -19.3068   -6.7842   22.4537 C   0  0  0  0  0  0  0  0  0  0  0  0
  -27.6689  -26.2059   21.5734 C   0  0  0  0  0  0  0  0  0  0  0  0
  -20.3634   -4.7610   21.6616 C   0  0  0  0  0  0  0  0  0  0  0  0
  -31.0929  -18.9403   23.3920 C   0  0  0  0  0  0  0  0  0  0  0  0
  -24.3490  -10.4845   21.6595 C   0  0  0  0  0  0  0  0  0  0  0  0
  -24.1327  -12.9150   20.9155 C   0  0  0  0  0  0  0  0  0  0  0  0
  -29.0508  -35.0951   19.0263 C   0  0  0  0  0  0  0  0  0  0  0  0
  -26.8062  -27.6678   19.8477 C   0  0  0  0  0  0  0  0  0  0  0  0
  -29.1015  -33.7316   18.6788 C   0  0  0  0  0  0  0  0  0  0  0  0
  -27.1127  -27.4378   21.1965 C   0  0  0  0  0  0  0  0  0  0  0  0
  -23.3775   -8.0894   22.7095 C   0  0  0  0  0  0  0  0  0  0  0  0
  -27.9050  -25.2120   20.6240 C   0  0  0  0  0  0  0  0  0  0  0  0
  -21.6820   -6.4631   22.7576 C   0  0  0  0  0  0  0  0  0  0  0  0
  -19.2194   -5.5425   21.8244 C   0  0  0  0  0  0  0  0  0  0  0  0
  -21.5946   -5.2213   22.1283 C   0  0  0  0  0  0  0  0  0  0  0  0
  -24.8514  -11.7215   21.1177 C   0  0  0  0  0  0  0  0  0  0  0  0
  -30.5805  -17.8040   22.8057 C   0  0  0  0  0  0  0  0  0  0  0  0
  -31.6354  -19.7610   21.3277 C   0  0  0  0  0  0  0  0  0  0  0  0
  -31.1238  -18.6244   20.7413 C   0  0  0  0  0  0  0  0  0  0  0  0
  -25.0535  -13.7843   20.3837 C   0  0  0  0  0  0  0  0  0  0  0  0
  -22.7559  -13.2113   21.1844 C   0  0  0  0  0  0  0  0  0  0  0  0
  -27.8823  -30.6286   20.2717 C   0  0  0  0  0  0  0  0  0  0  0  0
  -25.6800  -30.6712   22.6529 C   0  0  0  0  0  0  0  0  0  0  0  0
  -23.7852  -28.9098   24.8787 C   0  0  0  0  0  0  0  0  0  0  0  0
  -31.0248  -14.0941   20.6985 C   0  0  0  0  0  0  0  0  0  0  0  0
  -29.2029  -35.5561   20.4542 C   0  0  0  0  0  0  0  0  0  0  0  0
  -26.1865  -28.9695   19.4186 C   0  0  0  0  0  0  0  0  0  0  0  0
  -26.8688  -28.4818   22.2543 C   0  0  0  0  0  0  0  0  0  0  0  0
  -28.9727  -34.4488   21.4795 C   0  0  0  0  0  0  0  0  0  0  0  0
  -29.0459  -13.8592   17.7480 C   0  0  0  0  0  0  0  0  0  0  0  0
  -29.7259  -33.1845   21.0781 C   0  0  0  0  0  0  0  0  0  0  0  0
  -27.6816  -13.3924   18.2588 C   0  0  0  0  0  0  0  0  0  0  0  0
  -30.1905  -13.2240   18.5344 C   0  0  0  0  0  0  0  0  0  0  0  0
  -28.7435  -12.9298   20.5076 C   0  0  0  0  0  0  0  0  0  0  0  0
  -29.2277  -32.6502   19.7298 C   0  0  1  0  0  0  0  0  0  0  0  0
  -26.4746  -30.1153   20.3838 C   0  0  1  0  0  0  0  0  0  0  0  0
  -27.5568  -13.5865   19.7820 C   0  0  2  0  0  0  0  0  0  0  0  0
  -29.7390  -18.0708   17.1802 C   0  0  0  0  0  0  0  0  0  0  0  0
  -22.1098  -29.2228   26.7206 C   0  0  0  0  0  0  0  0  0  0  0  0
  -32.7173  -13.9041   23.4657 C   0  0  0  0  0  0  0  0  0  0  0  0
  -27.9169  -31.5418   24.5365 C   0  0  0  0  0  0  0  0  0  0  0  0
  -26.4422  -30.9214   26.4622 C   0  0  0  0  0  0  0  0  0  0  0  0
  -25.7403  -32.7227   24.8858 C   0  0  0  0  0  0  0  0  0  0  0  0
  -21.7160  -27.3834   23.4134 C   0  0  0  0  0  0  0  0  0  0  0  0
  -29.9944  -16.7210   23.6421 C   0  0  0  0  0  0  0  0  0  0  0  0
  -32.2334  -20.8713   20.5009 C   0  0  0  0  0  0  0  0  0  0  0  0
  -31.1375  -18.4394   19.2623 C   0  0  0  0  0  0  0  0  0  0  0  0
  -29.7266  -18.2249   18.6928 C   0  0  0  0  0  0  0  0  0  0  0  0
  -31.0015  -15.6401   24.0907 C   0  0  0  0  0  0  0  0  0  0  0  0
  -31.1922  -21.7501   19.7988 C   0  0  0  0  0  0  0  0  0  0  0  0
  -30.2881  -22.5035   20.7754 C   0  0  0  0  0  0  0  0  0  0  0  0
  -29.2427  -23.3335   20.0428 C   0  0  0  0  0  0  0  0  0  1  0  0
  -25.6843  -30.3140   24.1197 C   0  0  1  0  0  0  0  0  0  0  0  0
  -22.3108  -28.9897   25.2313 C   0  0  2  0  0  0  0  0  0  0  0  0
  -31.7167  -14.9252   22.9323 C   0  0  2  0  0  0  0  0  0  0  0  0
  -26.4524  -31.3558   24.9810 C   0  0  0  0  0  0  0  0  0  0  0  0
  -31.6295  -19.9392   22.6635 N   0  0  0  0  0  0  0  0  0  0  0  0
  -26.1301  -11.8200   20.7446 N   0  0  0  0  0  0  0  0  0  0  0  0
  -30.5869  -17.6256   21.4698 N   0  0  0  0  0  0  0  0  0  0  0  0
  -26.2221  -13.0858   20.3025 N   0  0  0  0  0  0  0  0  0  0  0  0
  -26.2670  -29.7405   21.7840 N   0  0  0  0  0  0  0  0  0  0  0  0
  -30.0129  -13.4456   19.9715 N   0  0  0  0  0  0  0  0  0  0  0  0
  -24.9695  -15.0704   19.9821 N   0  0  0  0  0  0  0  0  0  0  0  0
  -21.9501  -12.2035   21.7313 N   0  0  0  0  0  0  0  0  0  0  0  0
  -27.9691  -31.9553   19.8954 N   0  0  0  0  0  0  0  0  0  0  0  0
  -24.2872  -30.1372   24.5008 N   0  0  0  0  0  0  0  0  0  0  0  0
  -30.7736  -14.2697   22.0538 N   0  0  0  0  0  0  0  0  0  0  0  0
  -21.6192  -27.7240   24.8562 N   0  3  0  0  0  0  0  0  0  0  0  0
  -22.2511  -14.3314   20.9314 O   0  0  0  0  0  0  0  0  0  0  0  0
  -28.8203  -29.8769   20.5105 O   0  0  0  0  0  0  0  0  0  0  0  0
  -25.1680  -31.7334   22.2907 O   0  0  0  0  0  0  0  0  0  0  0  0
  -24.4282  -27.8640   24.9366 O   0  0  0  0  0  0  0  0  0  0  0  0
  -32.0720  -14.4923   20.1772 O   0  0  0  0  0  0  0  0  0  0  0  0
  -22.9035   -6.9211   23.2222 O   0  0  0  0  0  0  0  0  0  0  0  0
  -28.4434  -24.0214   21.0042 O   0  0  0  0  0  0  0  0  0  1  0  0
  -18.0368   -5.0999   21.3777 F   0  0  0  0  0  0  0  0  0  0  0  0
  -22.6900   -4.4656   21.9701 F   0  0  0  0  0  0  0  0  0  0  0  0
  1  2  1  0  0  0  0
  1  5  2  0  0  0  0
  2  6  2  0  0  0  0
  3  8  2  0  0  0  0
  3 16  1  0  0  0  0
  4  9  1  0  0  0  0
  4 16  2  0  0  0  0
  5 18  1  0  0  0  0
  6 20  1  0  0  0  0
  7 10  2  0  0  0  0
  7 19  1  0  0  0  0
  8 22  1  0  0  0  0
  9 22  2  0  0  0  0
 10 23  1  0  0  0  0
 11 12  2  0  0  0  0
 11 24  1  0  0  0  0
 12 25  1  0  0  0  0
 13 21  1  0  0  0  0
 13 23  2  0  0  0  0
 14 25  2  0  0  0  0
 14 26  1  0  0  0  0
 15 28  1  0  0  0  0
 15 68  2  0  0  0  0
 16 27  1  0  0  0  0
 17 27  1  0  0  0  0
 17 31  2  0  0  0  0
 17 32  1  0  0  0  0
 18 20  2  0  0  0  0
 18 37  1  0  0  0  0
 19 21  2  0  0  0  0
 19 38  1  0  0  0  0
 20 46  1  0  0  0  0
 21 39  1  0  0  0  0
 22 85  1  0  0  0  0
 23 86  1  0  0  0  0
 24 26  2  0  0  0  0
 24 85  1  0  0  0  0
 25 87  1  0  0  0  0
 26 88  1  0  0  0  0
 27 69  2  0  0  0  0
 28 56  1  0  0  0  0
 28 70  2  0  0  0  0
 29 30  2  0  0  0  0
 29 57  1  0  0  0  0
 29 68  1  0  0  0  0
 30 58  1  0  0  0  0
 30 70  1  0  0  0  0
 31 71  1  0  0  0  0
 31 74  1  0  0  0  0
 32 75  1  0  0  0  0
 32 80  2  0  0  0  0
 33 47  1  0  0  0  0
 33 76  1  0  0  0  0
 33 81  2  0  0  0  0
 34 64  1  0  0  0  0
 34 72  1  0  0  0  0
 34 82  2  0  0  0  0
 35 65  1  0  0  0  0
 35 77  1  0  0  0  0
 35 83  2  0  0  0  0
 36 73  1  0  0  0  0
 36 78  1  0  0  0  0
 36 84  2  0  0  0  0
 37 40  1  0  0  0  0
 38 47  1  0  0  0  0
 39 72  1  0  0  0  0
 40 42  1  0  0  0  0
 41 43  1  0  0  0  0
 41 44  1  0  0  0  0
 42 46  1  0  0  0  0
 43 48  1  0  0  0  0
 44 73  1  0  0  0  0
 45 48  1  0  0  0  0
 45 73  1  0  0  0  0
 46 76  1  0  0  0  0
 47 72  1  0  0  0  0
 48 71  1  0  0  0  0
 49 59  1  0  0  0  0
 50 65  1  0  0  0  0
 51 66  1  0  0  0  0
 52 67  1  0  0  0  0
 53 67  1  0  0  0  0
 54 67  1  0  0  0  0
 55 79  1  0  0  0  0
 56 60  1  0  0  0  0
 57 61  1  0  0  0  0
 58 59  1  0  0  0  0
 60 66  1  0  0  0  0
 61 62  1  0  0  0  0
 62 63  1  0  0  0  0
 63 86  1  0  0  0  0
 64 67  1  0  0  0  0
 64 77  1  0  0  0  0
 65 79  1  0  0  0  0
 66 78  1  0  0  0  0
 69 71  1  0  0  0  0
M  CHG  1  79   1
M  ISO  4  36 100  63 101  78 100  86 101
M  END
> <Batch ID>
0082

> <Smiles>
CCCc1nc(CCC(C)[100NH:0][100C:0](=O)N2CCCC(n3nc(-c4ccc(Oc5ccc(F)cc5F)cc4)c(C(N)=O)c3N)C2)cnc1CCC[101CH2:1][101O:1]c1ccc2c(c1)CN(C(=O)C(NC(=O)C(C)NC)C(C)(C)C)C(C(=O)NC1CCCc3ccccc31)C2

> <Shape>
0.302

> <Color>
0.160

> <Negative vol penalty>
0.000

$$$$

  -OEChem-04052318493D

 86 94  0     1  0  0  0  0  0999 V2000
  -17.6819  -32.7288   22.5163 C   0  0  0  0  0  0  0  0  0  0  0  0
  -18.7916  -32.7176   21.6773 C   0  0  0  0  0  0  0  0  0  0  0  0
  -25.3005  -12.9172   19.5602 C   0  0  0  0  0  0  0  0  0  0  0  0
  -24.9416  -14.0824   21.6460 C   0  0  0  0  0  0  0  0  0  0  0  0
  -17.7018  -32.0027   23.7064 C   0  0  0  0  0  0  0  0  0  0  0  0
  -19.9223  -31.9810   22.0284 C   0  0  0  0  0  0  0  0  0  0  0  0
  -25.2525  -28.1974   19.0975 C   0  0  0  0  0  0  0  0  0  0  0  0
  -25.1290  -11.6964   20.2126 C   0  0  0  0  0  0  0  0  0  0  0  0
  -24.7700  -12.8615   22.2985 C   0  0  0  0  0  0  0  0  0  0  0  0
  -26.6437  -28.1076   19.1111 C   0  0  0  0  0  0  0  0  0  0  0  0
  -22.5561   -9.8144   21.3401 C   0  0  0  0  0  0  0  0  0  0  0  0
  -21.7475   -8.8587   20.7250 C   0  0  0  0  0  0  0  0  0  0  0  0
  -26.5350  -26.8276   21.1529 C   0  0  0  0  0  0  0  0  0  0  0  0
  -23.6163   -7.3295   20.6444 C   0  0  0  0  0  0  0  0  0  0  0  0
  -29.9580  -24.1024   17.1415 C   0  0  0  0  0  0  0  0  0  0  0  0
  -25.2068  -14.1102   20.2769 C   0  0  0  0  0  0  0  0  0  0  0  0
  -24.3883  -16.1574   18.9936 C   0  0  0  0  0  0  0  0  0  0  0  0
  -18.8298  -31.2491   24.0676 C   0  0  0  0  0  0  0  0  0  0  0  0
  -24.4913  -27.6114   20.1191 C   0  0  0  0  0  0  0  0  0  0  0  0
  -19.9578  -31.2451   23.2251 C   0  0  0  0  0  0  0  0  0  0  0  0
  -25.1341  -26.9092   21.1486 C   0  0  0  0  0  0  0  0  0  0  0  0
  -29.0099  -23.2997   16.5463 C   0  0  0  0  0  0  0  0  0  0  0  0
  -28.0486  -22.9758   17.5352 C   0  0  0  0  0  0  0  0  0  0  0  0
  -24.8638  -11.6685   21.5818 C   0  0  0  0  0  0  0  0  0  0  0  0
  -27.2853  -27.4250   20.1405 C   0  0  0  0  0  0  0  0  0  0  0  0
  -23.8948   -9.5277   21.6073 C   0  0  0  0  0  0  0  0  0  0  0  0
  -22.2776   -7.6162   20.3772 C   0  0  0  0  0  0  0  0  0  0  0  0
  -24.4249   -8.2853   21.2594 C   0  0  0  0  0  0  0  0  0  0  0  0
  -25.3845  -15.3717   19.6036 C   0  0  0  0  0  0  0  0  0  0  0  0
  -28.4383  -23.5905   18.7046 C   0  0  0  0  0  0  0  0  0  0  0  0
  -25.0639  -17.2474   18.5019 C   0  0  0  0  0  0  0  0  0  0  0  0
  -22.9783  -15.9228   18.8814 C   0  0  0  0  0  0  0  0  0  0  0  0
  -22.4859  -28.7032   22.3303 C   0  0  0  0  0  0  0  0  0  0  0  0
  -22.0288  -25.5458   22.9167 C   0  0  0  0  0  0  0  0  0  0  0  0
  -23.2393  -22.3601   22.7339 C   0  0  0  0  0  0  0  0  0  0  0  0
  -29.4917  -20.7330   19.8287 C   0  0  0  0  0  0  0  0  0  0  0  0
  -18.8224  -30.5181   25.3868 C   0  0  0  0  0  0  0  0  0  0  0  0
  -22.9901  -27.6944   20.0755 C   0  0  0  0  0  0  0  0  0  0  0  0
  -24.3617  -26.2451   22.2580 C   0  0  0  0  0  0  0  0  0  0  0  0
  -19.9187  -29.4624   25.5044 C   0  0  0  0  0  0  0  0  0  0  0  0
  -29.7766  -18.1958   17.3472 C   0  0  0  0  0  0  0  0  0  0  0  0
  -21.2559  -30.0269   25.0353 C   0  0  0  0  0  0  0  0  0  0  0  0
  -28.5805  -17.2819   17.6194 C   0  0  0  0  0  0  0  0  0  0  0  0
  -30.3728  -18.7455   18.6411 C   0  0  0  0  0  0  0  0  0  0  0  0
  -28.2120  -18.5063   19.8020 C   0  0  0  0  0  0  0  0  0  0  0  0
  -21.1937  -30.4384   23.5594 C   0  0  1  0  0  0  0  0  0  0  0  0
  -22.3411  -27.4998   21.4424 C   0  0  1  0  0  0  0  0  0  0  0  0
  -27.5422  -17.9719   18.5244 C   0  0  2  0  0  0  0  0  0  0  0  0
  -26.8486  -22.1341   17.3492 C   0  0  0  0  0  0  0  0  0  0  0  0
  -22.6546  -19.9935   23.3292 C   0  0  0  0  0  0  0  0  0  0  0  0
  -30.2395  -23.4265   14.3513 C   0  0  0  0  0  0  0  0  0  0  0  0
  -27.7237  -23.3471   14.3806 C   0  0  0  0  0  0  0  0  0  0  0  0
  -29.0533  -21.3109   14.8976 C   0  0  0  0  0  0  0  0  0  0  0  0
  -22.6827  -26.1222   25.8408 C   0  0  0  0  0  0  0  0  0  0  0  0
  -23.0167  -23.6640   26.1783 C   0  0  0  0  0  0  0  0  0  0  0  0
  -20.7825  -24.5346   25.4902 C   0  0  0  0  0  0  0  0  0  0  0  0
  -23.3246  -21.5042   19.9021 C   0  0  0  0  0  0  0  0  0  0  0  0
  -27.8051  -23.5883   20.0404 C   0  0  0  0  0  0  0  0  0  0  0  0
  -30.6020  -26.5411   19.0221 C   0  0  0  0  0  0  0  0  0  0  0  0
  -30.3794  -25.0896   19.4529 C   0  0  0  0  0  0  0  0  0  0  0  0
  -28.4733  -22.6385   21.0499 C   0  0  0  0  0  0  0  0  0  0  0  0
  -29.3092  -27.3384   18.8945 C   0  0  0  0  0  0  0  0  0  1  0  0
  -22.6768  -24.5206   23.8158 C   0  0  1  0  0  0  0  0  0  0  0  0
  -22.6047  -21.0675   22.2537 C   0  0  2  0  0  0  0  0  0  0  0  0
  -29.0071  -22.8633   15.1357 C   0  0  0  0  0  0  0  0  0  0  0  0
  -22.3046  -24.7244   25.3115 C   0  0  0  0  0  0  0  0  0  0  0  0
  -26.6004  -15.9163   19.5093 N   0  0  0  0  0  0  0  0  0  0  0  0
  -29.6001  -24.2727   18.4534 N   0  0  0  0  0  0  0  0  0  0  0  0
  -26.3728  -17.0557   18.8341 N   0  0  0  0  0  0  0  0  0  0  0  0
  -22.8963  -26.3597   22.1745 N   0  0  0  0  0  0  0  0  0  0  0  0
  -29.3366  -19.3884   19.4529 N   0  0  0  0  0  0  0  0  0  0  0  0
  -24.6602  -18.3416   17.8221 N   0  0  0  0  0  0  0  0  0  0  0  0
  -22.4488  -14.7529   19.4430 N   0  0  0  0  0  0  0  0  0  0  0  0
  -21.2844  -29.2732   22.7057 N   0  0  0  0  0  0  0  0  0  0  0  0
  -22.3057  -23.2153   23.2802 N   0  0  0  0  0  0  0  0  0  0  0  0
  -28.4607  -21.2669   20.5921 N   0  0  0  0  0  0  0  0  0  0  0  0
  -23.3162  -20.5580   21.0474 N   0  3  0  0  0  0  0  0  0  0  0  0
  -22.2131  -16.7189   18.2862 O   0  0  0  0  0  0  0  0  0  0  0  0
  -23.6048  -29.0854   22.6523 O   0  0  0  0  0  0  0  0  0  0  0  0
  -20.7982  -25.6168   22.8692 O   0  0  0  0  0  0  0  0  0  0  0  0
  -24.4434  -22.5870   22.6377 O   0  0  0  0  0  0  0  0  0  0  0  0
  -30.4734  -21.4091   19.5032 O   0  0  0  0  0  0  0  0  0  0  0  0
  -24.6961  -10.4773   22.2187 O   0  0  0  0  0  0  0  0  0  0  0  0
  -28.6432  -27.3364   20.1566 O   0  0  0  0  0  0  0  0  0  1  0  0
  -21.5005   -6.6980   19.7879 F   0  0  0  0  0  0  0  0  0  0  0  0
  -25.7099   -8.0037   21.5146 F   0  0  0  0  0  0  0  0  0  0  0  0
  1  2  1  0  0  0  0
  1  5  2  0  0  0  0
  2  6  2  0  0  0  0
  3  8  2  0  0  0  0
  3 16  1  0  0  0  0
  4  9  1  0  0  0  0
  4 16  2  0  0  0  0
  5 18  1  0  0  0  0
  6 20  1  0  0  0  0
  7 10  2  0  0  0  0
  7 19  1  0  0  0  0
  8 24  1  0  0  0  0
  9 24  2  0  0  0  0
 10 25  1  0  0  0  0
 11 12  2  0  0  0  0
 11 26  1  0  0  0  0
 12 27  1  0  0  0  0
 13 21  1  0  0  0  0
 13 25  2  0  0  0  0
 14 27  2  0  0  0  0
 14 28  1  0  0  0  0
 15 22  2  0  0  0  0
 15 68  1  0  0  0  0
 16 29  1  0  0  0  0
 17 29  1  0  0  0  0
 17 31  2  0  0  0  0
 17 32  1  0  0  0  0
 18 20  2  0  0  0  0
 18 37  1  0  0  0  0
 19 21  2  0  0  0  0
 19 38  1  0  0  0  0
 20 46  1  0  0  0  0
 21 39  1  0  0  0  0
 22 23  1  0  0  0  0
 22 65  1  0  0  0  0
 23 30  2  0  0  0  0
 23 49  1  0  0  0  0
 24 83  1  0  0  0  0
 25 84  1  0  0  0  0
 26 28  2  0  0  0  0
 26 83  1  0  0  0  0
 27 85  1  0  0  0  0
 28 86  1  0  0  0  0
 29 67  2  0  0  0  0
 30 58  1  0  0  0  0
 30 68  1  0  0  0  0
 31 69  1  0  0  0  0
 31 72  1  0  0  0  0
 32 73  1  0  0  0  0
 32 78  2  0  0  0  0
 33 47  1  0  0  0  0
 33 74  1  0  0  0  0
 33 79  2  0  0  0  0
 34 63  1  0  0  0  0
 34 70  1  0  0  0  0
 34 80  2  0  0  0  0
 35 64  1  0  0  0  0
 35 75  1  0  0  0  0
 35 81  2  0  0  0  0
 36 71  1  0  0  0  0
 36 76  1  0  0  0  0
 36 82  2  0  0  0  0
 37 40  1  0  0  0  0
 38 47  1  0  0  0  0
 39 70  1  0  0  0  0
 40 42  1  0  0  0  0
 41 43  1  0  0  0  0
 41 44  1  0  0  0  0
 42 46  1  0  0  0  0
 43 48  1  0  0  0  0
 44 71  1  0  0  0  0
 45 48  1  0  0  0  0
 45 71  1  0  0  0  0
 46 74  1  0  0  0  0
 47 70  1  0  0  0  0
 48 69  1  0  0  0  0
 50 64  1  0  0  0  0
 51 65  1  0  0  0  0
 52 65  1  0  0  0  0
 53 65  1  0  0  0  0
 54 66  1  0  0  0  0
 55 66  1  0  0  0  0
 56 66  1  0  0  0  0
 57 77  1  0  0  0  0
 58 61  1  0  0  0  0
 59 60  1  0  0  0  0
 59 62  1  0  0  0  0
 60 68  1  0  0  0  0
 61 76  1  0  0  0  0
 62 84  1  0  0  0  0
 63 66  1  0  0  0  0
 63 75  1  0  0  0  0
 64 77  1  0  0  0  0
 67 69  1  0  0  0  0
M  CHG  1  77   1
M  ISO  4  36 100  62 101  76 100  84 101
M  END
> <Batch ID>
0082

> <Smiles>
CNC(C)C(=O)NC(C(=O)N1Cc2cc([101O:1][101CH2:1]CCn3cc(C(C)(C)C)c(C)c3CC[100NH:0][100C:0](=O)N3CCCC(n4nc(-c5ccc(Oc6ccc(F)cc6F)cc5)c(C(N)=O)c4N)C3)ccc2CC1C(=O)NC1CCCc2ccccc21)C(C)(C)C

> <Shape>
0.230

> <Color>
0.085

> <Negative vol penalty>
0.000

$$$$

  -OEChem-04052318493D

 85 93  0     1  0  0  0  0  0999 V2000
  -32.1604  -21.9537   11.9228 C   0  0  0  0  0  0  0  0  0  0  0  0
  -31.3876  -21.4119   12.9449 C   0  0  0  0  0  0  0  0  0  0  0  0
  -22.8906  -10.1417   19.9113 C   0  0  0  0  0  0  0  0  0  0  0  0
  -23.9185   -9.6960   22.0519 C   0  0  0  0  0  0  0  0  0  0  0  0
  -32.7379  -23.2130   12.0796 C   0  0  0  0  0  0  0  0  0  0  0  0
  -31.1928  -22.1288   14.1250 C   0  0  0  0  0  0  0  0  0  0  0  0
  -26.1547  -22.1900   17.6064 C   0  0  0  0  0  0  0  0  0  0  0  0
  -22.1135   -8.9911   20.0449 C   0  0  0  0  0  0  0  0  0  0  0  0
  -23.1413   -8.5454   22.1855 C   0  0  0  0  0  0  0  0  0  0  0  0
  -25.8137  -21.5101   18.7748 C   0  0  0  0  0  0  0  0  0  0  0  0
  -19.5991   -6.3663   19.9876 C   0  0  0  0  0  0  0  0  0  0  0  0
  -18.2438   -6.4588   19.6707 C   0  0  0  0  0  0  0  0  0  0  0  0
  -26.5186  -23.4124   20.0801 C   0  0  0  0  0  0  0  0  0  0  0  0
  -17.9595   -8.1441   21.3784 C   0  0  0  0  0  0  0  0  0  0  0  0
  -29.5311  -18.3337   24.6072 C   0  0  0  0  0  0  0  0  0  0  0  0
  -23.7932  -10.4941   20.9148 C   0  0  0  0  0  0  0  0  0  0  0  0
  -24.2707  -12.9832   21.2048 C   0  0  0  0  0  0  0  0  0  0  0  0
  -32.5421  -23.9497   13.2584 C   0  0  0  0  0  0  0  0  0  0  0  0
  -26.6914  -23.4841   17.6667 C   0  0  0  0  0  0  0  0  0  0  0  0
  -31.7694  -23.3986   14.2983 C   0  0  0  0  0  0  0  0  0  0  0  0
  -26.8632  -24.1075   18.9109 C   0  0  0  0  0  0  0  0  0  0  0  0
  -28.1696  -18.4301   24.7609 C   0  0  0  0  0  0  0  0  0  0  0  0
  -22.2387   -8.1930   21.1820 C   0  0  0  0  0  0  0  0  0  0  0  0
  -25.9983  -22.1202   20.0121 C   0  0  0  0  0  0  0  0  0  0  0  0
  -20.1345   -7.1627   20.9999 C   0  0  0  0  0  0  0  0  0  0  0  0
  -17.4241   -7.3477   20.3661 C   0  0  0  0  0  0  0  0  0  0  0  0
  -19.3148   -8.0516   21.6952 C   0  0  0  0  0  0  0  0  0  0  0  0
  -24.5967  -11.6822   20.7771 C   0  0  0  0  0  0  0  0  0  0  0  0
  -27.6671  -17.2404   24.2006 C   0  0  0  0  0  0  0  0  0  0  0  0
  -25.3549  -13.7451   20.8438 C   0  0  0  0  0  0  0  0  0  0  0  0
  -23.0931  -13.4603   21.8691 C   0  0  0  0  0  0  0  0  0  0  0  0
  -29.4448  -24.8135   16.7978 C   0  0  0  0  0  0  0  0  0  0  0  0
  -27.9447  -27.5568   17.6616 C   0  0  0  0  0  0  0  0  0  0  0  0
  -25.5082  -29.0672   19.5133 C   0  0  0  0  0  0  0  0  0  0  0  0
  -30.8735  -14.5038   20.5038 C   0  0  0  0  0  0  0  0  0  0  0  0
  -33.2256  -25.2866   13.4008 C   0  0  0  0  0  0  0  0  0  0  0  0
  -27.0292  -24.2142   16.3958 C   0  0  0  0  0  0  0  0  0  0  0  0
  -27.4168  -25.5032   19.0288 C   0  0  0  0  0  0  0  0  0  0  0  0
  -32.6617  -26.1415   14.5328 C   0  0  0  0  0  0  0  0  0  0  0  0
  -29.3160  -12.6462   17.8960 C   0  0  0  0  0  0  0  0  0  0  0  0
  -32.5015  -25.3093   15.8012 C   0  0  0  0  0  0  0  0  0  0  0  0
  -27.9255  -12.3321   18.4509 C   0  0  0  0  0  0  0  0  0  0  0  0
  -30.3819  -12.6065   18.9889 C   0  0  0  0  0  0  0  0  0  0  0  0
  -28.7076  -13.1400   20.7168 C   0  0  0  0  0  0  0  0  0  0  0  0
  -31.5146  -24.1560   15.5834 C   0  0  1  0  0  0  0  0  0  0  0  0
  -28.0480  -25.3310   16.6010 C   0  0  1  0  0  0  0  0  0  0  0  0
  -27.5907  -13.2230   19.6622 C   0  0  2  0  0  0  0  0  0  0  0  0
  -26.2602  -16.8156   24.0954 C   0  0  0  0  0  0  0  0  0  0  0  0
  -24.5496  -31.3257   20.0403 C   0  0  0  0  0  0  0  0  0  0  0  0
  -31.3644  -15.3152   24.4012 C   0  0  0  0  0  0  0  0  0  0  0  0
  -30.9374  -17.6505   21.2764 C   0  0  0  0  0  0  0  0  0  0  0  0
  -30.3315  -28.1454   19.4690 C   0  0  0  0  0  0  0  0  0  0  0  0
  -28.9305  -29.8548   20.6452 C   0  0  0  0  0  0  0  0  0  0  0  0
  -29.4539  -30.1273   18.2215 C   0  0  0  0  0  0  0  0  0  0  0  0
  -22.8540  -28.3200   18.4382 C   0  0  0  0  0  0  0  0  0  0  0  0
  -27.3984  -19.5626   25.3906 C   0  0  0  0  0  0  0  0  0  0  0  0
  -27.2724  -20.7995   24.4942 C   0  0  0  0  0  0  0  0  0  0  0  0
  -26.4897  -20.5298   23.2083 C   0  0  0  0  0  0  0  0  0  0  0  0
  -26.4195  -21.7689   22.3262 C   0  0  0  0  0  0  0  0  0  1  0  0
  -27.8119  -28.3450   18.9422 C   0  0  1  0  0  0  0  0  0  0  0  0
  -24.4577  -30.0995   19.1455 C   0  0  2  0  0  0  0  0  0  0  0  0
  -31.0353  -16.5933   23.6136 C   0  0  1  0  0  0  0  0  0  0  0  0
  -31.2171  -16.3847   22.0860 C   0  0  1  0  0  0  0  0  0  0  0  0
  -29.1233  -29.0911   19.3177 C   0  0  0  0  0  0  0  0  0  0  0  0
  -25.7943  -11.6176   20.1892 N   0  0  0  0  0  0  0  0  0  0  0  0
  -28.6309  -16.4466   23.7262 N   0  0  0  0  0  0  0  0  0  0  0  0
  -29.7526  -17.1389   23.9880 N   0  0  0  0  0  0  0  0  0  0  0  0
  -26.2302  -12.8876   20.2448 N   0  0  0  0  0  0  0  0  0  0  0  0
  -27.7379  -26.1734   17.7579 N   0  0  0  0  0  0  0  0  0  0  0  0
  -30.0047  -13.4736   20.1077 N   0  0  0  0  0  0  0  0  0  0  0  0
  -25.6354  -15.0582   20.9833 N   0  0  0  0  0  0  0  0  0  0  0  0
  -22.0755  -12.5433   22.1659 N   0  0  0  0  0  0  0  0  0  0  0  0
  -30.1521  -24.6424   15.6230 N   0  0  0  0  0  0  0  0  0  0  0  0
  -26.6569  -29.2187   18.7658 N   0  0  0  0  0  0  0  0  0  0  0  0
  -30.4368  -15.2830   21.5682 N   0  0  0  0  0  0  0  0  0  0  0  0
  -23.0917  -29.5196   19.2817 N   0  3  0  0  0  0  0  0  0  0  0  0
  -22.9404  -14.6671   22.1752 O   0  0  0  0  0  0  0  0  0  0  0  0
  -29.8513  -24.5875   17.9315 O   0  0  0  0  0  0  0  0  0  0  0  0
  -28.2149  -28.1477   16.6130 O   0  0  0  0  0  0  0  0  0  0  0  0
  -25.3292  -28.2142   20.3799 O   0  0  0  0  0  0  0  0  0  0  0  0
  -31.9555  -14.7171   19.9464 O   0  0  0  0  0  0  0  0  0  0  0  0
  -21.4804   -7.0704   21.3128 O   0  0  0  0  0  0  0  0  0  0  0  0
  -25.6669  -21.4586   21.1542 O   0  0  0  0  0  0  0  0  0  1  0  0
  -16.1230   -7.4374   20.0606 F   0  0  0  0  0  0  0  0  0  0  0  0
  -19.8237   -8.8202   22.6679 F   0  0  0  0  0  0  0  0  0  0  0  0
  1  2  1  0  0  0  0
  1  5  2  0  0  0  0
  2  6  2  0  0  0  0
  3  8  2  0  0  0  0
  3 16  1  0  0  0  0
  4  9  1  0  0  0  0
  4 16  2  0  0  0  0
  5 18  1  0  0  0  0
  6 20  1  0  0  0  0
  7 10  2  0  0  0  0
  7 19  1  0  0  0  0
  8 23  1  0  0  0  0
  9 23  2  0  0  0  0
 10 24  1  0  0  0  0
 11 12  2  0  0  0  0
 11 25  1  0  0  0  0
 12 26  1  0  0  0  0
 13 21  1  0  0  0  0
 13 24  2  0  0  0  0
 14 26  2  0  0  0  0
 14 27  1  0  0  0  0
 15 22  2  0  0  0  0
 15 67  1  0  0  0  0
 16 28  1  0  0  0  0
 17 28  1  0  0  0  0
 17 30  2  0  0  0  0
 17 31  1  0  0  0  0
 18 20  2  0  0  0  0
 18 36  1  0  0  0  0
 19 21  2  0  0  0  0
 19 37  1  0  0  0  0
 20 45  1  0  0  0  0
 21 38  1  0  0  0  0
 22 29  1  0  0  0  0
 22 56  1  0  0  0  0
 23 82  1  0  0  0  0
 24 83  1  0  0  0  0
 25 27  2  0  0  0  0
 25 82  1  0  0  0  0
 26 84  1  0  0  0  0
 27 85  1  0  0  0  0
 28 65  2  0  0  0  0
 29 48  1  0  0  0  0
 29 66  2  0  0  0  0
 30 68  1  0  0  0  0
 30 71  1  0  0  0  0
 31 72  1  0  0  0  0
 31 77  2  0  0  0  0
 32 46  1  0  0  0  0
 32 73  1  0  0  0  0
 32 78  2  0  0  0  0
 33 60  1  0  0  0  0
 33 69  1  0  0  0  0
 33 79  2  0  0  0  0
 34 61  1  0  0  0  0
 34 74  1  0  0  0  0
 34 80  2  0  0  0  0
 35 70  1  0  0  0  0
 35 75  1  0  0  0  0
 35 81  2  0  0  0  0
 36 39  1  0  0  0  0
 37 46  1  0  0  0  0
 38 69  1  0  0  0  0
 39 41  1  0  0  0  0
 40 42  1  0  0  0  0
 40 43  1  0  0  0  0
 41 45  1  0  0  0  0
 42 47  1  0  0  0  0
 43 70  1  0  0  0  0
 44 47  1  0  0  0  0
 44 70  1  0  0  0  0
 45 73  1  0  0  0  0
 46 69  1  0  0  0  0
 47 68  1  0  0  0  0
 49 61  1  0  0  0  0
 50 62  1  0  0  0  0
 51 63  1  0  0  0  0
 52 64  1  0  0  0  0
 53 64  1  0  0  0  0
 54 64  1  0  0  0  0
 55 76  1  0  0  0  0
 56 57  1  0  0  0  0
 57 58  1  0  0  0  0
 58 59  1  0  0  0  0
 59 83  1  0  0  0  0
 60 64  1  0  0  0  0
 60 74  1  0  0  0  0
 61 76  1  0  0  0  0
 62 63  1  0  0  0  0
 62 67  1  0  0  0  0
 63 75  1  0  0  0  0
 65 68  1  0  0  0  0
 66 67  1  0  0  0  0
M  CHG  1  76   1
M  ISO  4  35 100  59 101  75 100  83 101
M  END
> <Batch ID>
0082

> <Smiles>
CNC(C)C(=O)NC(C(=O)N1Cc2cc([101O:1][101CH2:1]CCCc3cn(C(C)C(C)[100NH:0][100C:0](=O)N4CCCC(n5nc(-c6ccc(Oc7ccc(F)cc7F)cc6)c(C(N)=O)c5N)C4)nc3C)ccc2CC1C(=O)NC1CCCc2ccccc21)C(C)(C)C

> <Shape>
0.211

> <Color>
0.169

> <Negative vol penalty>
0.000

$$$$

  -OEChem-04052318493D

 83 91  0     1  0  0  0  0  0999 V2000
  -37.8247  -29.6193   18.4784 C   0  0  0  0  0  0  0  0  0  0  0  0
  -37.9851  -28.6895   19.5007 C   0  0  0  0  0  0  0  0  0  0  0  0
  -23.0543   -9.9126   19.8929 C   0  0  0  0  0  0  0  0  0  0  0  0
  -23.8448   -9.8082   22.1735 C   0  0  0  0  0  0  0  0  0  0  0  0
  -36.5513  -29.8956   17.9824 C   0  0  0  0  0  0  0  0  0  0  0  0
  -36.8719  -28.0361   20.0283 C   0  0  0  0  0  0  0  0  0  0  0  0
  -34.9059  -21.7551   22.8568 C   0  0  0  0  0  0  0  0  0  0  0  0
  -22.3119   -8.7496   20.0969 C   0  0  0  0  0  0  0  0  0  0  0  0
  -23.1023   -8.6451   22.3776 C   0  0  0  0  0  0  0  0  0  0  0  0
  -34.2687  -21.2326   23.9814 C   0  0  0  0  0  0  0  0  0  0  0  0
  -19.3819   -7.8871   21.5476 C   0  0  0  0  0  0  0  0  0  0  0  0
  -18.0685   -7.8658   21.0783 C   0  0  0  0  0  0  0  0  0  0  0  0
  -32.1261  -21.7317   22.9919 C   0  0  0  0  0  0  0  0  0  0  0  0
  -31.3426  -17.7982   24.3190 C   0  0  0  0  0  0  0  0  0  0  0  0
  -18.6072   -5.9881   19.6565 C   0  0  0  0  0  0  0  0  0  0  0  0
  -23.8209  -10.4419   20.9312 C   0  0  0  0  0  0  0  0  0  0  0  0
  -24.1654  -12.9695   20.9284 C   0  0  0  0  0  0  0  0  0  0  0  0
  -35.4230  -29.2382   18.4976 C   0  0  0  0  0  0  0  0  0  0  0  0
  -34.1568  -22.2807   21.7942 C   0  0  0  0  0  0  0  0  0  0  0  0
  -35.5821  -28.3048   19.5397 C   0  0  0  0  0  0  0  0  0  0  0  0
  -32.7561  -22.2579   21.8538 C   0  0  0  0  0  0  0  0  0  0  0  0
  -30.9222  -18.1376   25.5930 C   0  0  0  0  0  0  0  0  0  0  0  0
  -22.3358   -8.1158   21.3393 C   0  0  0  0  0  0  0  0  0  0  0  0
  -32.8787  -21.2234   24.0503 C   0  0  0  0  0  0  0  0  0  0  0  0
  -20.3079   -6.9590   21.0713 C   0  0  0  0  0  0  0  0  0  0  0  0
  -17.6812   -6.9163   20.1328 C   0  0  0  0  0  0  0  0  0  0  0  0
  -19.9205   -6.0095   20.1258 C   0  0  0  0  0  0  0  0  0  0  0  0
  -24.5885  -11.6430   20.7208 C   0  0  0  0  0  0  0  0  0  0  0  0
  -30.4254  -17.2107   23.4711 C   0  0  0  0  0  0  0  0  0  0  0  0
  -29.6122  -17.8674   25.9345 C   0  0  0  0  0  0  0  0  0  0  0  0
  -25.2540  -13.7344   20.5870 C   0  0  0  0  0  0  0  0  0  0  0  0
  -22.9016  -13.4659   21.3887 C   0  0  0  0  0  0  0  0  0  0  0  0
  -33.8948  -25.1414   20.4336 C   0  0  0  0  0  0  0  0  0  0  0  0
  -32.0270  -23.5352   18.3232 C   0  0  0  0  0  0  0  0  0  0  0  0
  -30.0258  -20.8446   17.6890 C   0  0  0  0  0  0  0  0  0  0  0  0
  -30.7415  -14.7372   20.7506 C   0  0  0  0  0  0  0  0  0  0  0  0
  -34.0616  -29.6046   17.9618 C   0  0  0  0  0  0  0  0  0  0  0  0
  -34.8588  -22.8163   20.5765 C   0  0  0  0  0  0  0  0  0  0  0  0
  -31.9058  -22.7916   20.7310 C   0  0  0  0  0  0  0  0  0  0  0  0
  -32.9745  -28.5940   18.3184 C   0  0  0  0  0  0  0  0  0  0  0  0
  -29.5680  -12.4718   18.2672 C   0  0  0  0  0  0  0  0  0  0  0  0
  -33.0575  -28.2192   19.7947 C   0  0  0  0  0  0  0  0  0  0  0  0
  -28.1359  -12.1591   18.7047 C   0  0  0  0  0  0  0  0  0  0  0  0
  -30.5014  -12.6335   19.4649 C   0  0  0  0  0  0  0  0  0  0  0  0
  -28.6197  -13.2989   20.9105 C   0  0  0  0  0  0  0  0  0  0  0  0
  -34.4017  -27.5572   20.1210 C   0  0  1  0  0  0  0  0  0  0  0  0
  -34.0046  -23.7947   19.7763 C   0  0  1  0  0  0  0  0  0  0  0  0
  -27.6295  -13.1824   19.7390 C   0  0  2  0  0  0  0  0  0  0  0  0
  -29.0886  -18.2044   27.2898 C   0  0  0  0  0  0  0  0  0  0  0  0
  -32.5885  -17.7361   27.4352 C   0  0  0  0  0  0  0  0  0  0  0  0
  -30.6137  -17.9533   21.0680 C   0  0  0  0  0  0  0  0  0  0  0  0
  -28.6039  -19.2627   16.3574 C   0  0  0  0  0  0  0  0  0  0  0  0
  -29.8558  -25.6117   18.8561 C   0  0  0  0  0  0  0  0  0  0  0  0
  -28.2029  -24.0504   17.8079 C   0  0  0  0  0  0  0  0  0  0  0  0
  -30.0983  -24.9480   16.4571 C   0  0  0  0  0  0  0  0  0  0  0  0
  -32.3683  -19.2134   16.9077 C   0  0  0  0  0  0  0  0  0  0  0  0
  -32.9241  -19.6680   25.8488 C   0  0  0  0  0  0  0  0  0  1  0  0
  -31.8921  -18.7878   26.5670 C   0  0  1  0  0  0  0  0  0  0  0  0
  -30.8276  -16.8256   22.0887 C   0  0  2  0  0  0  0  0  0  0  0  0
  -30.5565  -23.2064   18.2317 C   0  0  1  0  0  0  0  0  0  0  0  0
  -29.9884  -19.8687   16.5268 C   0  0  2  0  0  0  0  0  0  0  0  0
  -29.6941  -24.4458   17.8604 C   0  0  0  0  0  0  0  0  0  0  0  0
  -25.8475  -11.5660   20.2814 N   0  0  0  0  0  0  0  0  0  0  0  0
  -29.1495  -16.9579   23.8321 N   0  0  0  0  0  0  0  0  0  0  0  0
  -28.7362  -17.2918   25.0841 N   0  0  0  0  0  0  0  0  0  0  0  0
  -26.2249  -12.8539   20.2101 N   0  0  0  0  0  0  0  0  0  0  0  0
  -32.6390  -23.3105   19.5645 N   0  0  0  0  0  0  0  0  0  0  0  0
  -29.9645  -13.6187   20.4067 N   0  0  0  0  0  0  0  0  0  0  0  0
  -25.4657  -15.0677   20.5754 N   0  0  0  0  0  0  0  0  0  0  0  0
  -21.8927  -12.5427   21.6953 N   0  0  0  0  0  0  0  0  0  0  0  0
  -34.4071  -26.1793   19.6787 N   0  0  0  0  0  0  0  0  0  0  0  0
  -30.4441  -22.0968   17.2912 N   0  0  0  0  0  0  0  0  0  0  0  0
  -30.1553  -15.6250   21.6444 N   0  0  0  0  0  0  0  0  0  0  0  0
  -30.9619  -18.7623   16.7480 N   0  3  0  0  0  0  0  0  0  0  0  0
  -22.6683  -14.6926   21.5084 O   0  0  0  0  0  0  0  0  0  0  0  0
  -33.3820  -25.2324   21.5428 O   0  0  0  0  0  0  0  0  0  0  0  0
  -32.6129  -23.9686   17.3279 O   0  0  0  0  0  0  0  0  0  0  0  0
  -29.7115  -20.5287   18.8344 O   0  0  0  0  0  0  0  0  0  0  0  0
  -31.8716  -14.9331   20.2908 O   0  0  0  0  0  0  0  0  0  0  0  0
  -21.6112   -6.9811   21.5388 O   0  0  0  0  0  0  0  0  0  0  0  0
  -32.2543  -20.7146   25.1472 O   0  0  0  0  0  0  0  0  0  1  0  0
  -16.4195   -6.8949   19.6833 F   0  0  0  0  0  0  0  0  0  0  0  0
  -20.8054   -5.1146   19.6655 F   0  0  0  0  0  0  0  0  0  0  0  0
  1  2  1  0  0  0  0
  1  5  2  0  0  0  0
  2  6  2  0  0  0  0
  3  8  2  0  0  0  0
  3 16  1  0  0  0  0
  4  9  1  0  0  0  0
  4 16  2  0  0  0  0
  5 18  1  0  0  0  0
  6 20  1  0  0  0  0
  7 10  2  0  0  0  0
  7 19  1  0  0  0  0
  8 23  1  0  0  0  0
  9 23  2  0  0  0  0
 10 24  1  0  0  0  0
 11 12  2  0  0  0  0
 11 25  1  0  0  0  0
 12 26  1  0  0  0  0
 13 21  1  0  0  0  0
 13 24  2  0  0  0  0
 14 22  1  0  0  0  0
 14 29  2  0  0  0  0
 15 26  2  0  0  0  0
 15 27  1  0  0  0  0
 16 28  1  0  0  0  0
 17 28  1  0  0  0  0
 17 31  2  0  0  0  0
 17 32  1  0  0  0  0
 18 20  2  0  0  0  0
 18 37  1  0  0  0  0
 19 21  2  0  0  0  0
 19 38  1  0  0  0  0
 20 46  1  0  0  0  0
 21 39  1  0  0  0  0
 22 30  2  0  0  0  0
 22 58  1  0  0  0  0
 23 80  1  0  0  0  0
 24 81  1  0  0  0  0
 25 27  2  0  0  0  0
 25 80  1  0  0  0  0
 26 82  1  0  0  0  0
 27 83  1  0  0  0  0
 28 63  2  0  0  0  0
 29 59  1  0  0  0  0
 29 64  1  0  0  0  0
 30 49  1  0  0  0  0
 30 65  1  0  0  0  0
 31 66  1  0  0  0  0
 31 69  1  0  0  0  0
 32 70  1  0  0  0  0
 32 75  2  0  0  0  0
 33 47  1  0  0  0  0
 33 71  1  0  0  0  0
 33 76  2  0  0  0  0
 34 60  1  0  0  0  0
 34 67  1  0  0  0  0
 34 77  2  0  0  0  0
 35 61  1  0  0  0  0
 35 72  1  0  0  0  0
 35 78  2  0  0  0  0
 36 68  1  0  0  0  0
 36 73  1  0  0  0  0
 36 79  2  0  0  0  0
 37 40  1  0  0  0  0
 38 47  1  0  0  0  0
 39 67  1  0  0  0  0
 40 42  1  0  0  0  0
 41 43  1  0  0  0  0
 41 44  1  0  0  0  0
 42 46  1  0  0  0  0
 43 48  1  0  0  0  0
 44 68  1  0  0  0  0
 45 48  1  0  0  0  0
 45 68  1  0  0  0  0
 46 71  1  0  0  0  0
 47 67  1  0  0  0  0
 48 66  1  0  0  0  0
 50 58  1  0  0  0  0
 51 59  1  0  0  0  0
 52 61  1  0  0  0  0
 53 62  1  0  0  0  0
 54 62  1  0  0  0  0
 55 62  1  0  0  0  0
 56 74  1  0  0  0  0
 57 58  1  0  0  0  0
 57 81  1  0  0  0  0
 59 73  1  0  0  0  0
 60 62  1  0  0  0  0
 60 72  1  0  0  0  0
 61 74  1  0  0  0  0
 63 66  1  0  0  0  0
 64 65  2  0  0  0  0
M  CHG  1  74   1
M  ISO  4  36 100  57 101  73 100  81 101
M  END
> <Batch ID>
0082

> <Smiles>
CNC(C)C(=O)NC(C(=O)N1Cc2cc([101O:1][101CH2:1]C(C)c3cc(C(C)[100NH:0][100C:0](=O)N4CCCC(n5nc(-c6ccc(Oc7ccc(F)cc7F)cc6)c(C(N)=O)c5N)C4)nnc3C)ccc2CC1C(=O)NC1CCCc2ccccc21)C(C)(C)C

> <Shape>
0.193

> <Color>
0.190

> <Negative vol penalty>
0.000

$$$$

  -OEChem-04052318493D

 84 92  0     1  0  0  0  0  0999 V2000
  -29.0557  -27.0407   17.5822 C   0  0  0  0  0  0  0  0  0  0  0  0
  -28.9364  -25.8108   16.9431 C   0  0  0  0  0  0  0  0  0  0  0  0
  -23.0680  -25.9962   19.5052 C   0  0  0  0  0  0  0  0  0  0  0  0
  -25.2728  -25.0180   19.3672 C   0  0  0  0  0  0  0  0  0  0  0  0
  -29.4756  -27.0970   18.9105 C   0  0  0  0  0  0  0  0  0  0  0  0
  -29.2380  -24.6364   17.6318 C   0  0  0  0  0  0  0  0  0  0  0  0
  -27.2817  -17.7587   18.0638 C   0  0  0  0  0  0  0  0  0  0  0  0
  -23.5612  -26.9883   20.3526 C   0  0  0  0  0  0  0  0  0  0  0  0
  -25.7660  -26.0101   20.2146 C   0  0  0  0  0  0  0  0  0  0  0  0
  -27.8316  -16.4781   18.0264 C   0  0  0  0  0  0  0  0  0  0  0  0
  -25.3113  -29.8670   20.0640 C   0  0  0  0  0  0  0  0  0  0  0  0
  -24.9246  -31.1837   19.8146 C   0  0  0  0  0  0  0  0  0  0  0  0
  -28.4714  -16.6918   20.3425 C   0  0  0  0  0  0  0  0  0  0  0  0
  -25.7119  -13.5439   19.8238 C   0  0  0  0  0  0  0  0  0  0  0  0
  -23.9284  -31.3075   22.0122 C   0  0  0  0  0  0  0  0  0  0  0  0
  -24.7175  -11.5006   21.3345 C   0  0  0  0  0  0  0  0  0  0  0  0
  -23.9238  -25.0110   19.0125 C   0  0  0  0  0  0  0  0  0  0  0  0
  -23.3446  -24.0252   16.7321 C   0  0  0  0  0  0  0  0  0  0  0  0
  -29.7732  -25.9221   19.6188 C   0  0  0  0  0  0  0  0  0  0  0  0
  -27.3322  -18.5210   19.2397 C   0  0  0  0  0  0  0  0  0  0  0  0
  -29.6635  -24.6771   18.9704 C   0  0  0  0  0  0  0  0  0  0  0  0
  -27.9191  -17.9808   20.3929 C   0  0  0  0  0  0  0  0  0  0  0  0
  -24.5177  -13.7237   20.5130 C   0  0  0  0  0  0  0  0  0  0  0  0
  -24.0043  -12.6875   21.2851 C   0  0  0  0  0  0  0  0  0  0  0  0
  -24.9101  -26.9953   20.7073 C   0  0  0  0  0  0  0  0  0  0  0  0
  -28.4292  -15.9456   19.1650 C   0  0  0  0  0  0  0  0  0  0  0  0
  -25.0065  -29.2704   21.2876 C   0  0  0  0  0  0  0  0  0  0  0  0
  -24.2332  -31.9040   20.7886 C   0  0  0  0  0  0  0  0  0  0  0  0
  -24.3151  -29.9907   22.2616 C   0  0  0  0  0  0  0  0  0  0  0  0
  -23.4148  -23.9856   18.1375 C   0  0  0  0  0  0  0  0  0  0  0  0
  -26.3488  -12.3188   19.9389 C   0  0  0  0  0  0  0  0  0  0  0  0
  -22.7885  -22.8191   16.3820 C   0  0  0  0  0  0  0  0  0  0  0  0
  -23.7463  -25.0596   15.8242 C   0  0  0  0  0  0  0  0  0  0  0  0
  -28.6502  -21.2948   20.0597 C   0  0  0  0  0  0  0  0  0  0  0  0
  -27.0443  -20.7930   22.8331 C   0  0  0  0  0  0  0  0  0  0  0  0
  -25.5956  -18.5715   24.9809 C   0  0  0  0  0  0  0  0  0  0  0  0
  -22.7547  -17.5706   19.0853 C   0  0  0  0  0  0  0  0  0  0  0  0
  -30.2687  -26.0361   21.0387 C   0  0  0  0  0  0  0  0  0  0  0  0
  -26.7107  -19.8904   19.2712 C   0  0  0  0  0  0  0  0  0  0  0  0
  -27.9812  -18.7504   21.6860 C   0  0  0  0  0  0  0  0  0  0  0  0
  -30.2088  -24.7214   21.8122 C   0  0  0  0  0  0  0  0  0  0  0  0
  -19.8356  -19.4356   18.0372 C   0  0  0  0  0  0  0  0  0  0  0  0
  -30.7763  -23.5816   20.9722 C   0  0  0  0  0  0  0  0  0  0  0  0
  -20.4290  -20.8272   17.8105 C   0  0  0  0  0  0  0  0  0  0  0  0
  -20.4788  -18.7494   19.2388 C   0  0  0  0  0  0  0  0  0  0  0  0
  -22.5589  -20.0371   18.9415 C   0  0  0  0  0  0  0  0  0  0  0  0
  -29.9577  -23.3795   19.6914 C   0  0  1  0  0  0  0  0  0  0  0  0
  -27.2755  -20.7776   20.3763 C   0  0  1  0  0  0  0  0  0  0  0  0
  -21.9660  -20.7741   17.7268 C   0  0  2  0  0  0  0  0  0  0  0  0
  -22.7297  -12.8261   22.0428 C   0  0  0  0  0  0  0  0  0  0  0  0
  -24.3974  -18.4555   27.1828 C   0  0  0  0  0  0  0  0  0  0  0  0
  -23.4803  -14.8777   17.9022 C   0  0  0  0  0  0  0  0  0  0  0  0
  -29.6944  -21.1873   24.2932 C   0  0  0  0  0  0  0  0  0  0  0  0
  -28.6548  -20.1429   26.3172 C   0  0  0  0  0  0  0  0  0  0  0  0
  -27.7256  -22.2664   25.3950 C   0  0  0  0  0  0  0  0  0  0  0  0
  -23.1634  -17.4410   23.7297 C   0  0  0  0  0  0  0  0  0  0  0  0
  -23.8069  -15.0323   20.4102 C   0  0  0  0  0  0  0  0  0  0  0  0
  -27.6457  -12.0878   19.2052 C   0  0  0  0  0  0  0  0  0  0  0  0
  -28.8874  -12.4670   20.0149 C   0  0  0  0  0  0  0  0  0  0  0  0
  -28.9599  -13.9525   20.3490 C   0  0  0  0  0  0  0  0  0  1  0  0
  -27.3562  -20.1033   24.1393 C   0  0  1  0  0  0  0  0  0  0  0  0
  -24.2452  -18.5752   25.6744 C   0  0  2  0  0  0  0  0  0  0  0  0
  -22.7938  -15.0949   19.2471 C   0  0  1  0  0  0  0  0  0  0  0  0
  -28.3585  -20.9110   25.0114 C   0  0  0  0  0  0  0  0  0  0  0  0
  -25.8807  -11.2888   20.6790 N   0  0  0  0  0  0  0  0  0  0  0  0
  -22.9410  -22.8448   18.6456 N   0  0  0  0  0  0  0  0  0  0  0  0
  -22.5676  -22.1564   17.5534 N   0  0  0  0  0  0  0  0  0  0  0  0
  -27.3652  -20.0875   21.6647 N   0  0  0  0  0  0  0  0  0  0  0  0
  -21.9404  -18.7153   19.0880 N   0  0  0  0  0  0  0  0  0  0  0  0
  -22.4716  -22.2714   15.1895 N   0  0  0  0  0  0  0  0  0  0  0  0
  -24.2996  -26.2341   16.3521 N   0  0  0  0  0  0  0  0  0  0  0  0
  -28.7292  -22.6723   19.9831 N   0  0  0  0  0  0  0  0  0  0  0  0
  -26.0721  -19.8503   24.7840 N   0  0  0  0  0  0  0  0  0  0  0  0
  -22.0916  -16.3589   19.2362 N   0  0  0  0  0  0  0  0  0  0  0  0
  -23.4131  -17.4360   25.1941 N   0  3  0  0  0  0  0  0  0  0  0  0
  -23.6032  -24.9525   14.5826 O   0  0  0  0  0  0  0  0  0  0  0  0
  -29.5714  -20.5030   19.8985 O   0  0  0  0  0  0  0  0  0  0  0  0
  -26.5283  -21.9133   22.8489 O   0  0  0  0  0  0  0  0  0  0  0  0
  -26.1718  -17.5375   24.6505 O   0  0  0  0  0  0  0  0  0  0  0  0
  -23.9822  -17.6240   18.9528 O   0  0  0  0  0  0  0  0  0  0  0  0
  -25.3918  -27.9633   21.5340 O   0  0  0  0  0  0  0  0  0  0  0  0
  -28.9673  -14.6961   19.1311 O   0  0  0  0  0  0  0  0  0  1  0  0
  -23.8632  -33.1689   20.5495 F   0  0  0  0  0  0  0  0  0  0  0  0
  -24.0205  -29.4233   23.4394 F   0  0  0  0  0  0  0  0  0  0  0  0
  1  2  1  0  0  0  0
  1  5  2  0  0  0  0
  2  6  2  0  0  0  0
  3  8  2  0  0  0  0
  3 17  1  0  0  0  0
  4  9  1  0  0  0  0
  4 17  2  0  0  0  0
  5 19  1  0  0  0  0
  6 21  1  0  0  0  0
  7 10  2  0  0  0  0
  7 20  1  0  0  0  0
  8 25  1  0  0  0  0
  9 25  2  0  0  0  0
 10 26  1  0  0  0  0
 11 12  2  0  0  0  0
 11 27  1  0  0  0  0
 12 28  1  0  0  0  0
 13 22  1  0  0  0  0
 13 26  2  0  0  0  0
 14 23  2  0  0  0  0
 14 31  1  0  0  0  0
 15 28  2  0  0  0  0
 15 29  1  0  0  0  0
 16 24  2  0  0  0  0
 16 65  1  0  0  0  0
 17 30  1  0  0  0  0
 18 30  1  0  0  0  0
 18 32  2  0  0  0  0
 18 33  1  0  0  0  0
 19 21  2  0  0  0  0
 19 38  1  0  0  0  0
 20 22  2  0  0  0  0
 20 39  1  0  0  0  0
 21 47  1  0  0  0  0
 22 40  1  0  0  0  0
 23 24  1  0  0  0  0
 23 57  1  0  0  0  0
 24 50  1  0  0  0  0
 25 81  1  0  0  0  0
 26 82  1  0  0  0  0
 27 29  2  0  0  0  0
 27 81  1  0  0  0  0
 28 83  1  0  0  0  0
 29 84  1  0  0  0  0
 30 66  2  0  0  0  0
 31 58  1  0  0  0  0
 31 65  2  0  0  0  0
 32 67  1  0  0  0  0
 32 70  1  0  0  0  0
 33 71  1  0  0  0  0
 33 76  2  0  0  0  0
 34 48  1  0  0  0  0
 34 72  1  0  0  0  0
 34 77  2  0  0  0  0
 35 61  1  0  0  0  0
 35 68  1  0  0  0  0
 35 78  2  0  0  0  0
 36 62  1  0  0  0  0
 36 73  1  0  0  0  0
 36 79  2  0  0  0  0
 37 69  1  0  0  0  0
 37 74  1  0  0  0  0
 37 80  2  0  0  0  0
 38 41  1  0  0  0  0
 39 48  1  0  0  0  0
 40 68  1  0  0  0  0
 41 43  1  0  0  0  0
 42 44  1  0  0  0  0
 42 45  1  0  0  0  0
 43 47  1  0  0  0  0
 44 49  1  0  0  0  0
 45 69  1  0  0  0  0
 46 49  1  0  0  0  0
 46 69  1  0  0  0  0
 47 72  1  0  0  0  0
 48 68  1  0  0  0  0
 49 67  1  0  0  0  0
 51 62  1  0  0  0  0
 52 63  1  0  0  0  0
 53 64  1  0  0  0  0
 54 64  1  0  0  0  0
 55 64  1  0  0  0  0
 56 75  1  0  0  0  0
 57 63  1  0  0  0  0
 58 59  1  0  0  0  0
 59 60  1  0  0  0  0
 60 82  1  0  0  0  0
 61 64  1  0  0  0  0
 61 73  1  0  0  0  0
 62 75  1  0  0  0  0
 63 74  1  0  0  0  0
 66 67  1  0  0  0  0
M  CHG  1  75   1
M  ISO  4  37 100  60 101  74 100  82 101
M  END
> <Batch ID>
0082

> <Smiles>
CNC(C)C(=O)NC(C(=O)N1Cc2cc([101O:1][101CH2:1]CCc3cc(CC(C)[100NH:0][100C:0](=O)N4CCCC(n5nc(-c6ccc(Oc7ccc(F)cc7F)cc6)c(C(N)=O)c5N)C4)c(C)cn3)ccc2CC1C(=O)NC1CCCc2ccccc21)C(C)(C)C

> <Shape>
0.190

> <Color>
0.069

> <Negative vol penalty>
0.000

$$$$

  -OEChem-04052318493D

 83 91  0     1  0  0  0  0  0999 V2000
  -20.1474  -24.6255   10.0860 C   0  0  0  0  0  0  0  0  0  0  0  0
  -21.0894  -23.7030   10.5298 C   0  0  0  0  0  0  0  0  0  0  0  0
  -23.0709   -9.8757   19.9401 C   0  0  0  0  0  0  0  0  0  0  0  0
  -23.8385   -9.8749   22.2310 C   0  0  0  0  0  0  0  0  0  0  0  0
  -20.2705  -25.9694   10.4364 C   0  0  0  0  0  0  0  0  0  0  0  0
  -22.1558  -24.1240   11.3235 C   0  0  0  0  0  0  0  0  0  0  0  0
  -24.8301  -20.9948   15.8580 C   0  0  0  0  0  0  0  0  0  0  0  0
  -27.0837  -18.7262   19.6042 C   0  0  0  0  0  0  0  0  0  0  0  0
  -22.3269   -8.7224   20.1890 C   0  0  0  0  0  0  0  0  0  0  0  0
  -23.0944   -8.7216   22.4799 C   0  0  0  0  0  0  0  0  0  0  0  0
  -25.9931  -20.2275   15.9094 C   0  0  0  0  0  0  0  0  0  0  0  0
  -19.8675   -7.9248   23.0908 C   0  0  0  0  0  0  0  0  0  0  0  0
  -19.1145   -7.8820   24.2640 C   0  0  0  0  0  0  0  0  0  0  0  0
  -26.4369  -19.0627   20.7880 C   0  0  0  0  0  0  0  0  0  0  0  0
  -27.2062  -22.1338   16.7541 C   0  0  0  0  0  0  0  0  0  0  0  0
  -20.3566   -5.9411   24.9904 C   0  0  0  0  0  0  0  0  0  0  0  0
  -23.8268  -10.4519   20.9611 C   0  0  0  0  0  0  0  0  0  0  0  0
  -24.1705  -12.9771   20.8477 C   0  0  0  0  0  0  0  0  0  0  0  0
  -21.3336  -26.4055   11.2428 C   0  0  0  0  0  0  0  0  0  0  0  0
  -24.8490  -22.3426   16.2445 C   0  0  0  0  0  0  0  0  0  0  0  0
  -22.2940  -25.4752   11.6839 C   0  0  0  0  0  0  0  0  0  0  0  0
  -26.0416  -22.9153   16.7090 C   0  0  0  0  0  0  0  0  0  0  0  0
  -28.4321  -18.3876   19.6272 C   0  0  0  0  0  0  0  0  0  0  0  0
  -22.3385   -8.1454   21.4589 C   0  0  0  0  0  0  0  0  0  0  0  0
  -27.1820  -20.7978   16.3548 C   0  0  0  0  0  0  0  0  0  0  0  0
  -20.8651   -6.9758   22.8672 C   0  0  0  0  0  0  0  0  0  0  0  0
  -19.3590   -6.8902   25.2139 C   0  0  0  0  0  0  0  0  0  0  0  0
  -21.1096   -5.9840   23.8170 C   0  0  0  0  0  0  0  0  0  0  0  0
  -24.5961  -11.6428   20.7045 C   0  0  0  0  0  0  0  0  0  0  0  0
  -27.1772  -19.0457   21.9591 C   0  0  0  0  0  0  0  0  0  0  0  0
  -29.0832  -18.4010   20.8502 C   0  0  0  0  0  0  0  0  0  0  0  0
  -25.2621  -13.7267   20.4831 C   0  0  0  0  0  0  0  0  0  0  0  0
  -22.9019  -13.4927   21.2725 C   0  0  0  0  0  0  0  0  0  0  0  0
  -24.2786  -25.1048   14.7786 C   0  0  0  0  0  0  0  0  0  0  0  0
  -24.6518  -26.3191   17.7633 C   0  0  0  0  0  0  0  0  0  0  0  0
  -25.9732  -25.9669   20.8901 C   0  0  0  0  0  0  0  0  0  0  0  0
  -30.7474  -14.7402   20.6562 C   0  0  0  0  0  0  0  0  0  0  0  0
  -21.4511  -27.8760   11.5563 C   0  0  0  0  0  0  0  0  0  0  0  0
  -23.5800  -23.1494   16.2084 C   0  0  0  0  0  0  0  0  0  0  0  0
  -26.1103  -24.3524   17.1546 C   0  0  0  0  0  0  0  0  0  0  0  0
  -22.4027  -28.1785   12.7110 C   0  0  0  0  0  0  0  0  0  0  0  0
  -29.5996  -12.3641   18.2659 C   0  0  0  0  0  0  0  0  0  0  0  0
  -23.7050  -27.4012   12.5472 C   0  0  0  0  0  0  0  0  0  0  0  0
  -28.1634  -12.0704   18.7028 C   0  0  0  0  0  0  0  0  0  0  0  0
  -30.5210  -12.5804   19.4644 C   0  0  0  0  0  0  0  0  0  0  0  0
  -28.6246  -13.3089   20.8596 C   0  0  0  0  0  0  0  0  0  0  0  0
  -23.4511  -25.8891   12.5671 C   0  0  1  0  0  0  0  0  0  0  0  0
  -23.8296  -24.6528   16.1394 C   0  0  1  0  0  0  0  0  0  0  0  0
  -27.6463  -13.1388   19.6847 C   0  0  2  0  0  0  0  0  0  0  0  0
  -26.5142  -19.3999   23.2484 C   0  0  0  0  0  0  0  0  0  0  0  0
  -26.1402  -27.1407   23.1018 C   0  0  0  0  0  0  0  0  0  0  0  0
  -26.7309  -28.2216   16.5939 C   0  0  0  0  0  0  0  0  0  0  0  0
  -27.5224  -28.6782   18.9248 C   0  0  0  0  0  0  0  0  0  0  0  0
  -25.1884  -29.2616   18.2653 C   0  0  0  0  0  0  0  0  0  0  0  0
  -24.5903  -23.7605   22.2967 C   0  0  0  0  0  0  0  0  0  0  0  0
  -29.1395  -18.0229   18.3465 C   0  0  0  0  0  0  0  0  0  0  0  0
  -30.5308  -18.0431   20.9360 C   0  0  0  0  0  0  0  0  0  0  0  0
  -30.0401  -19.1339   17.8024 C   0  0  0  0  0  0  0  0  0  0  0  0
  -30.8193  -16.8869   21.8995 C   0  0  0  0  0  0  0  0  0  0  0  0
  -29.2755  -20.3921   17.4078 C   0  0  0  0  0  0  0  0  0  1  0  0
  -25.8198  -26.8325   18.5703 C   0  0  1  0  0  0  0  0  0  0  0  0
  -25.3594  -26.1367   22.2681 C   0  0  2  0  0  0  0  0  0  0  0  0
  -26.3149  -28.2219   18.0784 C   0  0  0  0  0  0  0  0  0  0  0  0
  -25.8595  -11.5472   20.2816 N   0  0  0  0  0  0  0  0  0  0  0  0
  -28.4884  -18.7224   22.0209 N   0  0  0  0  0  0  0  0  0  0  0  0
  -26.2371  -12.8308   20.1560 N   0  0  0  0  0  0  0  0  0  0  0  0
  -24.8444  -25.1018   17.0948 N   0  0  0  0  0  0  0  0  0  0  0  0
  -29.9743  -13.6067   20.3554 N   0  0  0  0  0  0  0  0  0  0  0  0
  -25.4735  -15.0582   20.4135 N   0  0  0  0  0  0  0  0  0  0  0  0
  -21.8903  -12.5834   21.6103 N   0  0  0  0  0  0  0  0  0  0  0  0
  -23.2429  -25.4293   13.9234 N   0  0  0  0  0  0  0  0  0  0  0  0
  -25.3936  -26.8096   19.9654 N   0  0  0  0  0  0  0  0  0  0  0  0
  -30.1519  -15.6670   21.5031 N   0  0  0  0  0  0  0  0  0  0  0  0
  -25.3446  -24.8345   22.9927 N   0  3  0  0  0  0  0  0  0  0  0  0
  -22.6670  -14.7234   21.3344 O   0  0  0  0  0  0  0  0  0  0  0  0
  -25.4762  -25.1567   14.5239 O   0  0  0  0  0  0  0  0  0  0  0  0
  -23.6047  -26.9704   17.7332 O   0  0  0  0  0  0  0  0  0  0  0  0
  -26.8790  -25.1692   20.6581 O   0  0  0  0  0  0  0  0  0  0  0  0
  -31.8820  -14.9161   20.1993 O   0  0  0  0  0  0  0  0  0  0  0  0
  -21.6124   -7.0202   21.7022 O   0  0  0  0  0  0  0  0  0  0  0  0
  -28.3187  -20.0513   16.4054 O   0  0  0  0  0  0  0  0  0  1  0  0
  -18.6368   -6.8500   26.3412 F   0  0  0  0  0  0  0  0  0  0  0  0
  -22.0674   -5.0703   23.6083 F   0  0  0  0  0  0  0  0  0  0  0  0
  1  2  1  0  0  0  0
  1  5  2  0  0  0  0
  2  6  2  0  0  0  0
  3  9  2  0  0  0  0
  3 17  1  0  0  0  0
  4 10  1  0  0  0  0
  4 17  2  0  0  0  0
  5 19  1  0  0  0  0
  6 21  1  0  0  0  0
  7 11  2  0  0  0  0
  7 20  1  0  0  0  0
  8 14  2  0  0  0  0
  8 23  1  0  0  0  0
  9 24  1  0  0  0  0
 10 24  2  0  0  0  0
 11 25  1  0  0  0  0
 12 13  2  0  0  0  0
 12 26  1  0  0  0  0
 13 27  1  0  0  0  0
 14 30  1  0  0  0  0
 15 22  1  0  0  0  0
 15 25  2  0  0  0  0
 16 27  2  0  0  0  0
 16 28  1  0  0  0  0
 17 29  1  0  0  0  0
 18 29  1  0  0  0  0
 18 32  2  0  0  0  0
 18 33  1  0  0  0  0
 19 21  2  0  0  0  0
 19 38  1  0  0  0  0
 20 22  2  0  0  0  0
 20 39  1  0  0  0  0
 21 47  1  0  0  0  0
 22 40  1  0  0  0  0
 23 31  2  0  0  0  0
 23 56  1  0  0  0  0
 24 80  1  0  0  0  0
 25 81  1  0  0  0  0
 26 28  2  0  0  0  0
 26 80  1  0  0  0  0
 27 82  1  0  0  0  0
 28 83  1  0  0  0  0
 29 64  2  0  0  0  0
 30 50  1  0  0  0  0
 30 65  2  0  0  0  0
 31 57  1  0  0  0  0
 31 65  1  0  0  0  0
 32 66  1  0  0  0  0
 32 69  1  0  0  0  0
 33 70  1  0  0  0  0
 33 75  2  0  0  0  0
 34 48  1  0  0  0  0
 34 71  1  0  0  0  0
 34 76  2  0  0  0  0
 35 61  1  0  0  0  0
 35 67  1  0  0  0  0
 35 77  2  0  0  0  0
 36 62  1  0  0  0  0
 36 72  1  0  0  0  0
 36 78  2  0  0  0  0
 37 68  1  0  0  0  0
 37 73  1  0  0  0  0
 37 79  2  0  0  0  0
 38 41  1  0  0  0  0
 39 48  1  0  0  0  0
 40 67  1  0  0  0  0
 41 43  1  0  0  0  0
 42 44  1  0  0  0  0
 42 45  1  0  0  0  0
 43 47  1  0  0  0  0
 44 49  1  0  0  0  0
 45 68  1  0  0  0  0
 46 49  1  0  0  0  0
 46 68  1  0  0  0  0
 47 71  1  0  0  0  0
 48 67  1  0  0  0  0
 49 66  1  0  0  0  0
 51 62  1  0  0  0  0
 52 63  1  0  0  0  0
 53 63  1  0  0  0  0
 54 63  1  0  0  0  0
 55 74  1  0  0  0  0
 56 58  1  0  0  0  0
 57 59  1  0  0  0  0
 58 60  1  0  0  0  0
 59 73  1  0  0  0  0
 60 81  1  0  0  0  0
 61 63  1  0  0  0  0
 61 72  1  0  0  0  0
 62 74  1  0  0  0  0
 64 66  1  0  0  0  0
M  CHG  1  74   1
M  ISO  4  37 100  60 101  73 100  81 101
M  END
> <Batch ID>
0082

> <Smiles>
CNC(C)C(=O)NC(C(=O)N1Cc2cc([101O:1][101CH2:1]CCc3ccc(C)nc3CC[100NH:0][100C:0](=O)N3CCCC(n4nc(-c5ccc(Oc6ccc(F)cc6F)cc5)c(C(N)=O)c4N)C3)ccc2CC1C(=O)NC1CCCc2ccccc21)C(C)(C)C

> <Shape>
0.223

> <Color>
0.196

> <Negative vol penalty>
0.000

$$$$

  -OEChem-04052318493D

 87 95  0     1  0  0  0  0  0999 V2000
  -31.9894  -17.6966   22.9647 C   0  0  0  0  0  0  0  0  0  0  0  0
  -30.7373  -18.3030   22.9612 C   0  0  0  0  0  0  0  0  0  0  0  0
  -28.7234  -26.3066   19.7474 C   0  0  0  0  0  0  0  0  0  0  0  0
  -26.6870  -25.4942   18.7325 C   0  0  0  0  0  0  0  0  0  0  0  0
  -32.1814  -16.4925   22.2886 C   0  0  0  0  0  0  0  0  0  0  0  0
  -29.6767  -17.7060   22.2805 C   0  0  0  0  0  0  0  0  0  0  0  0
  -25.3913  -17.7051   24.9786 C   0  0  0  0  0  0  0  0  0  0  0  0
  -29.3256  -25.0672   19.5313 C   0  0  0  0  0  0  0  0  0  0  0  0
  -27.2892  -24.2548   18.5164 C   0  0  0  0  0  0  0  0  0  0  0  0
  -24.6738  -18.8993   25.0345 C   0  0  0  0  0  0  0  0  0  0  0  0
  -28.1718  -20.7639   18.0218 C   0  0  0  0  0  0  0  0  0  0  0  0
  -27.4345  -19.6216   18.3335 C   0  0  0  0  0  0  0  0  0  0  0  0
  -23.1715  -18.0690   23.3395 C   0  0  0  0  0  0  0  0  0  0  0  0
  -27.2823  -20.3474   20.6329 C   0  0  0  0  0  0  0  0  0  0  0  0
  -20.9348  -25.7412   22.2306 C   0  0  0  0  0  0  0  0  0  0  0  0
  -27.4040  -26.5201   19.3481 C   0  0  0  0  0  0  0  0  0  0  0  0
  -26.7741  -28.9058   18.7003 C   0  0  0  0  0  0  0  0  0  0  0  0
  -31.1203  -15.8756   21.6074 C   0  0  0  0  0  0  0  0  0  0  0  0
  -25.0100  -16.6865   24.0934 C   0  0  0  0  0  0  0  0  0  0  0  0
  -29.8551  -16.4932   21.5935 C   0  0  0  0  0  0  0  0  0  0  0  0
  -23.8842  -16.8619   23.2761 C   0  0  0  0  0  0  0  0  0  0  0  0
  -19.7450  -26.2997   22.6690 C   0  0  0  0  0  0  0  0  0  0  0  0
  -19.0895  -25.6848   23.7299 C   0  0  0  0  0  0  0  0  0  0  0  0
  -19.6360  -24.5463   24.3117 C   0  0  0  0  0  0  0  0  0  0  0  0
  -28.6086  -24.0413   18.9157 C   0  0  0  0  0  0  0  0  0  0  0  0
  -23.5655  -19.0825   24.2128 C   0  0  0  0  0  0  0  0  0  0  0  0
  -28.4645  -21.6979   19.0157 C   0  0  0  0  0  0  0  0  0  0  0  0
  -26.9897  -19.4134   19.6390 C   0  0  0  0  0  0  0  0  0  0  0  0
  -28.0197  -21.4896   20.3212 C   0  0  0  0  0  0  0  0  0  0  0  0
  -26.7812  -27.8001   19.5716 C   0  0  0  0  0  0  0  0  0  0  0  0
  -20.8306  -24.0662   23.7996 C   0  0  0  0  0  0  0  0  0  0  0  0
  -26.0562  -29.8661   19.3701 C   0  0  0  0  0  0  0  0  0  0  0  0
  -27.3637  -29.0516   17.4015 C   0  0  0  0  0  0  0  0  0  0  0  0
  -26.3818  -15.2330   21.6217 C   0  0  0  0  0  0  0  0  0  0  0  0
  -23.7424  -13.3525   21.7621 C   0  0  0  0  0  0  0  0  0  0  0  0
  -20.4847  -12.9984   22.7152 C   0  0  0  0  0  0  0  0  0  0  0  0
  -21.8521  -29.5874   23.6245 C   0  0  0  0  0  0  0  0  0  0  0  0
  -31.3879  -14.5983   20.8513 C   0  0  0  0  0  0  0  0  0  0  0  0
  -25.7786  -15.3939   24.0643 C   0  0  0  0  0  0  0  0  0  0  0  0
  -23.4216  -15.7912   22.3231 C   0  0  0  0  0  0  0  0  0  0  0  0
  -30.1196  -13.8403   20.4680 C   0  0  0  0  0  0  0  0  0  0  0  0
  -24.9605  -31.3151   23.7963 C   0  0  0  0  0  0  0  0  0  0  0  0
  -29.0882  -14.7927   19.8714 C   0  0  0  0  0  0  0  0  0  0  0  0
  -25.7790  -30.7099   22.6544 C   0  0  0  0  0  0  0  0  0  0  0  0
  -24.0772  -30.2695   24.4733 C   0  0  0  0  0  0  0  0  0  0  0  0
  -24.0162  -28.9112   22.4178 C   0  0  0  0  0  0  0  0  0  0  0  0
  -28.6738  -15.8640   20.8873 C   0  0  1  0  0  0  0  0  0  0  0  0
  -25.6071  -14.6261   22.7572 C   0  0  1  0  0  0  0  0  0  0  0  0
  -24.8810  -29.9391   21.6682 C   0  0  2  0  0  0  0  0  0  0  0  0
  -18.9577  -23.8649   25.4524 C   0  0  0  0  0  0  0  0  0  0  0  0
  -15.2850  -25.9884   24.3125 C   0  0  0  0  0  0  0  0  0  0  0  0
  -18.5829  -11.3621   22.6605 C   0  0  0  0  0  0  0  0  0  0  0  0
  -19.1220  -30.0546   21.9237 C   0  0  0  0  0  0  0  0  0  0  0  0
  -23.2956  -13.9741   18.8085 C   0  0  0  0  0  0  0  0  0  0  0  0
  -20.9511  -13.1318   19.0576 C   0  0  0  0  0  0  0  0  0  0  0  0
  -22.8755  -11.5934   19.4486 C   0  0  0  0  0  0  0  0  0  0  0  0
  -20.3320  -12.8999   25.6692 C   0  0  0  0  0  0  0  0  0  0  0  0
  -19.2063  -27.5208   22.0074 C   0  0  0  0  0  0  0  0  0  0  0  0
  -17.8020  -26.2475   24.2413 C   0  0  0  0  0  0  0  0  0  0  0  0
  -21.4714  -22.8348   24.3883 C   0  0  0  0  0  0  0  0  0  0  0  0
  -16.5906  -25.4345   23.7644 C   0  0  0  0  0  0  0  0  0  0  0  0
  -22.9217  -22.6248   23.9478 C   0  0  0  0  0  0  0  0  0  0  0  0
  -23.5876  -21.4265   24.6141 C   0  0  0  0  0  0  0  0  0  1  0  0
  -22.3648  -13.3959   21.1463 C   0  0  1  0  0  0  0  0  0  0  0  0
  -19.7676  -11.8853   23.4577 C   0  0  2  0  0  0  0  0  0  0  0  0
  -19.6983  -28.8397   22.6441 C   0  0  1  0  0  0  0  0  0  0  0  0
  -22.3814  -13.0449   19.6317 C   0  0  0  0  0  0  0  0  0  0  0  0
  -21.4965  -24.6363   22.7704 N   0  0  0  0  0  0  0  0  0  0  0  0
  -26.1204  -28.0351   20.7083 N   0  0  0  0  0  0  0  0  0  0  0  0
  -25.6914  -29.2995   20.5559 N   0  0  0  0  0  0  0  0  0  0  0  0
  -24.2097  -14.5477   22.3269 N   0  0  0  0  0  0  0  0  0  0  0  0
  -23.2496  -29.5758   23.4834 N   0  0  0  0  0  0  0  0  0  0  0  0
  -25.7077  -31.1316   19.0546 N   0  0  0  0  0  0  0  0  0  0  0  0
  -28.0668  -27.9663   16.8612 N   0  0  0  0  0  0  0  0  0  0  0  0
  -27.7423  -15.3149   21.8492 N   0  0  0  0  0  0  0  0  0  0  0  0
  -21.5284  -12.5153   21.9546 N   0  0  0  0  0  0  0  0  0  0  0  0
  -21.1425  -28.9115   22.6395 N   0  0  0  0  0  0  0  0  0  0  0  0
  -19.2687  -12.3775   24.7728 N   0  3  0  0  0  0  0  0  0  0  0  0
  -27.2838  -30.1186   16.7467 O   0  0  0  0  0  0  0  0  0  0  0  0
  -25.7893  -15.5984   20.6132 O   0  0  0  0  0  0  0  0  0  0  0  0
  -24.3776  -12.2951   21.7491 O   0  0  0  0  0  0  0  0  0  0  0  0
  -20.1499  -14.1780   22.7985 O   0  0  0  0  0  0  0  0  0  0  0  0
  -21.2791  -30.1623   24.5561 O   0  0  0  0  0  0  0  0  0  0  0  0
  -29.1960  -22.8318   18.7044 O   0  0  0  0  0  0  0  0  0  0  0  0
  -22.8638  -20.2473   24.2649 O   0  0  0  0  0  0  0  0  0  1  0  0
  -26.2803  -18.3172   19.9379 F   0  0  0  0  0  0  0  0  0  0  0  0
  -28.2967  -22.3840   21.2800 F   0  0  0  0  0  0  0  0  0  0  0  0
  1  2  1  0  0  0  0
  1  5  2  0  0  0  0
  2  6  2  0  0  0  0
  3  8  2  0  0  0  0
  3 16  1  0  0  0  0
  4  9  1  0  0  0  0
  4 16  2  0  0  0  0
  5 18  1  0  0  0  0
  6 20  1  0  0  0  0
  7 10  2  0  0  0  0
  7 19  1  0  0  0  0
  8 25  1  0  0  0  0
  9 25  2  0  0  0  0
 10 26  1  0  0  0  0
 11 12  2  0  0  0  0
 11 27  1  0  0  0  0
 12 28  1  0  0  0  0
 13 21  1  0  0  0  0
 13 26  2  0  0  0  0
 14 28  2  0  0  0  0
 14 29  1  0  0  0  0
 15 22  2  0  0  0  0
 15 68  1  0  0  0  0
 16 30  1  0  0  0  0
 17 30  1  0  0  0  0
 17 32  2  0  0  0  0
 17 33  1  0  0  0  0
 18 20  2  0  0  0  0
 18 38  1  0  0  0  0
 19 21  2  0  0  0  0
 19 39  1  0  0  0  0
 20 47  1  0  0  0  0
 21 40  1  0  0  0  0
 22 23  1  0  0  0  0
 22 58  1  0  0  0  0
 23 24  2  0  0  0  0
 23 59  1  0  0  0  0
 24 31  1  0  0  0  0
 24 50  1  0  0  0  0
 25 84  1  0  0  0  0
 26 85  1  0  0  0  0
 27 29  2  0  0  0  0
 27 84  1  0  0  0  0
 28 86  1  0  0  0  0
 29 87  1  0  0  0  0
 30 69  2  0  0  0  0
 31 60  1  0  0  0  0
 31 68  2  0  0  0  0
 32 70  1  0  0  0  0
 32 73  1  0  0  0  0
 33 74  1  0  0  0  0
 33 79  2  0  0  0  0
 34 48  1  0  0  0  0
 34 75  1  0  0  0  0
 34 80  2  0  0  0  0
 35 64  1  0  0  0  0
 35 71  1  0  0  0  0
 35 81  2  0  0  0  0
 36 65  1  0  0  0  0
 36 76  1  0  0  0  0
 36 82  2  0  0  0  0
 37 72  1  0  0  0  0
 37 77  1  0  0  0  0
 37 83  2  0  0  0  0
 38 41  1  0  0  0  0
 39 48  1  0  0  0  0
 40 71  1  0  0  0  0
 41 43  1  0  0  0  0
 42 44  1  0  0  0  0
 42 45  1  0  0  0  0
 43 47  1  0  0  0  0
 44 49  1  0  0  0  0
 45 72  1  0  0  0  0
 46 49  1  0  0  0  0
 46 72  1  0  0  0  0
 47 75  1  0  0  0  0
 48 71  1  0  0  0  0
 49 70  1  0  0  0  0
 51 61  1  0  0  0  0
 52 65  1  0  0  0  0
 53 66  1  0  0  0  0
 54 67  1  0  0  0  0
 55 67  1  0  0  0  0
 56 67  1  0  0  0  0
 57 78  1  0  0  0  0
 58 66  1  0  0  0  0
 59 61  1  0  0  0  0
 60 62  1  0  0  0  0
 62 63  1  0  0  0  0
 63 85  1  0  0  0  0
 64 67  1  0  0  0  0
 64 76  1  0  0  0  0
 65 78  1  0  0  0  0
 66 77  1  0  0  0  0
 69 70  1  0  0  0  0
M  CHG  1  78   1
M  ISO  4  37 100  63 101  77 100  85 101
M  END
> <Batch ID>
0082

> <Smiles>
CCCc1c(CC(C)[100NH:0][100C:0](=O)N2CCCC(n3nc(-c4ccc(Oc5ccc(F)cc5F)cc4)c(C(N)=O)c3N)C2)cnc(CC[101CH2:1][101O:1]c2ccc3c(c2)CN(C(=O)C(NC(=O)C(C)NC)C(C)(C)C)C(C(=O)NC2CCCc4ccccc42)C3)c1C

> <Shape>
0.233

> <Color>
0.070

> <Negative vol penalty>
0.000

$$$$

  -OEChem-04052318493D

 82 90  0     1  0  0  0  0  0999 V2000
  -27.0843  -31.9100   24.6368 C   0  0  0  0  0  0  0  0  0  0  0  0
  -26.7640  -30.5566   24.6022 C   0  0  0  0  0  0  0  0  0  0  0  0
  -22.4483  -10.5333   21.4838 C   0  0  0  0  0  0  0  0  0  0  0  0
  -24.3243   -9.4056   20.4611 C   0  0  0  0  0  0  0  0  0  0  0  0
  -27.6527  -32.5194   23.5190 C   0  0  0  0  0  0  0  0  0  0  0  0
  -27.0109  -29.8121   23.4493 C   0  0  0  0  0  0  0  0  0  0  0  0
  -28.7107  -23.9359   23.1554 C   0  0  0  0  0  0  0  0  0  0  0  0
  -21.8320   -9.3027   21.7103 C   0  0  0  0  0  0  0  0  0  0  0  0
  -23.7080   -8.1749   20.6877 C   0  0  0  0  0  0  0  0  0  0  0  0
  -27.9932  -22.7621   22.9288 C   0  0  0  0  0  0  0  0  0  0  0  0
  -23.2693   -6.0502   23.2788 C   0  0  0  0  0  0  0  0  0  0  0  0
  -24.0547   -5.0189   23.7937 C   0  0  0  0  0  0  0  0  0  0  0  0
  -28.5821  -22.8606   20.5915 C   0  0  0  0  0  0  0  0  0  0  0  0
  -28.1054  -18.5527   19.7054 C   0  0  0  0  0  0  0  0  0  0  0  0
  -23.5808   -3.6817   21.8381 C   0  0  0  0  0  0  0  0  0  0  0  0
  -29.2140  -17.6640   21.6000 C   0  0  0  0  0  0  0  0  0  0  0  0
  -23.6945  -10.5847   20.8591 C   0  0  0  0  0  0  0  0  0  0  0  0
  -25.2113  -12.5377   21.4860 C   0  0  0  0  0  0  0  0  0  0  0  0
  -27.9156  -31.7798   22.3552 C   0  0  0  0  0  0  0  0  0  0  0  0
  -29.3612  -24.5878   22.0979 C   0  0  0  0  0  0  0  0  0  0  0  0
  -27.5821  -30.4125   22.3145 C   0  0  0  0  0  0  0  0  0  0  0  0
  -29.3092  -24.0411   20.8078 C   0  0  0  0  0  0  0  0  0  0  0  0
  -28.1163  -18.3098   21.0676 C   0  0  0  0  0  0  0  0  0  0  0  0
  -22.4619   -8.1235   21.3122 C   0  0  0  0  0  0  0  0  0  0  0  0
  -27.9264  -22.2258   21.6462 C   0  0  0  0  0  0  0  0  0  0  0  0
  -22.6396   -5.8973   22.0435 C   0  0  0  0  0  0  0  0  0  0  0  0
  -24.2104   -3.8346   23.0733 C   0  0  0  0  0  0  0  0  0  0  0  0
  -22.7954   -4.7130   21.3232 C   0  0  0  0  0  0  0  0  0  0  0  0
  -24.3314  -11.8557   20.6244 C   0  0  0  0  0  0  0  0  0  0  0  0
  -29.1932  -18.1340   18.9657 C   0  0  0  0  0  0  0  0  0  0  0  0
  -25.5337  -13.6876   20.8076 C   0  0  0  0  0  0  0  0  0  0  0  0
  -25.6940  -12.1650   22.7836 C   0  0  0  0  0  0  0  0  0  0  0  0
  -29.1052  -27.4440   20.7267 C   0  0  0  0  0  0  0  0  0  0  0  0
  -31.7204  -26.4563   19.0812 C   0  0  0  0  0  0  0  0  0  0  0  0
  -33.5991  -23.8563   17.9164 C   0  0  0  0  0  0  0  0  0  0  0  0
  -27.0085  -16.3159   16.1105 C   0  0  0  0  0  0  0  0  0  0  0  0
  -28.4876  -32.4930   21.1556 C   0  0  0  0  0  0  0  0  0  0  0  0
  -30.1532  -25.8386   22.3638 C   0  0  0  0  0  0  0  0  0  0  0  0
  -30.0070  -24.6914   19.6422 C   0  0  0  0  0  0  0  0  0  0  0  0
  -29.0627  -31.5490   20.1029 C   0  0  0  0  0  0  0  0  0  0  0  0
  -23.5374  -15.7114   16.6237 C   0  0  0  0  0  0  0  0  0  0  0  0
  -28.0947  -30.4026   19.8279 C   0  0  0  0  0  0  0  0  0  0  0  0
  -23.5077  -14.7064   17.7766 C   0  0  0  0  0  0  0  0  0  0  0  0
  -24.7205  -15.4645   15.6902 C   0  0  0  0  0  0  0  0  0  0  0  0
  -26.0055  -14.4096   17.5094 C   0  0  0  0  0  0  0  0  0  0  0  0
  -27.8577  -29.5658   21.0909 C   0  0  1  0  0  0  0  0  0  0  0  0
  -30.3491  -26.6978   21.1186 C   0  0  1  0  0  0  0  0  0  0  0  0
  -24.8619  -14.6531   18.5090 C   0  0  2  0  0  0  0  0  0  0  0  0
  -30.3937  -19.3034   17.0908 C   0  0  0  0  0  0  0  0  0  0  0  0
  -35.6591  -23.3618   16.5712 C   0  0  0  0  0  0  0  0  0  0  0  0
  -30.2016  -27.1146   16.5180 C   0  0  0  0  0  0  0  0  0  0  0  0
  -31.8765  -25.7464   15.2568 C   0  0  0  0  0  0  0  0  0  0  0  0
  -32.6126  -27.7788   16.5018 C   0  0  0  0  0  0  0  0  0  0  0  0
  -34.8997  -22.4876   20.1954 C   0  0  0  0  0  0  0  0  0  0  0  0
  -26.9641  -18.7374   21.9440 C   0  0  0  0  0  0  0  0  0  0  0  0
  -29.3081  -17.0692   16.6611 C   0  0  0  0  0  0  0  0  0  0  0  0
  -27.1483  -20.1461   22.4977 C   0  0  0  0  0  0  0  0  0  1  0  0
  -29.2315  -18.3717   17.4951 C   0  0  1  0  0  0  0  0  0  0  0  0
  -31.9518  -25.7070   17.7913 C   0  0  1  0  0  0  0  0  0  0  0  0
  -35.0934  -23.5926   17.9638 C   0  0  2  0  0  0  0  0  0  0  0  0
  -31.6457  -26.5753   16.5384 C   0  0  0  0  0  0  0  0  0  0  0  0
  -30.2647  -17.2653   20.8523 N   0  0  0  0  0  0  0  0  0  0  0  0
  -24.1089  -12.5173   19.4856 N   0  0  0  0  0  0  0  0  0  0  0  0
  -30.2542  -17.5044   19.5134 N   0  0  0  0  0  0  0  0  0  0  0  0
  -24.8536  -13.6270   19.6270 N   0  0  0  0  0  0  0  0  0  0  0  0
  -30.7634  -25.9159   19.9518 N   0  0  0  0  0  0  0  0  0  0  0  0
  -25.9742  -15.4269   16.4468 N   0  0  0  0  0  0  0  0  0  0  0  0
  -26.3298  -14.7345   21.1118 N   0  0  0  0  0  0  0  0  0  0  0  0
  -25.2625  -10.9502   23.3335 N   0  0  0  0  0  0  0  0  0  0  0  0
  -28.9782  -28.6813   21.3288 N   0  0  0  0  0  0  0  0  0  0  0  0
  -33.3204  -25.2051   17.8507 N   0  0  0  0  0  0  0  0  0  0  0  0
  -28.1602  -16.2181   16.8817 N   0  0  0  0  0  0  0  0  0  0  0  0
  -35.3808  -22.3884   18.7934 N   0  3  0  0  0  0  0  0  0  0  0  0
  -26.4717  -12.8956   23.4432 O   0  0  0  0  0  0  0  0  0  0  0  0
  -28.3196  -26.9355   19.9355 O   0  0  0  0  0  0  0  0  0  0  0  0
  -32.3700  -27.4794   19.3111 O   0  0  0  0  0  0  0  0  0  0  0  0
  -32.7630  -22.9557   17.9320 O   0  0  0  0  0  0  0  0  0  0  0  0
  -26.9105  -17.1395   15.1946 O   0  0  0  0  0  0  0  0  0  0  0  0
  -21.8609   -6.9224   21.5333 O   0  0  0  0  0  0  0  0  0  0  0  0
  -27.2263  -21.0806   21.4221 O   0  0  0  0  0  0  0  0  0  1  0  0
  -24.9659   -2.8449   23.5672 F   0  0  0  0  0  0  0  0  0  0  0  0
  -22.1938   -4.5607   20.1354 F   0  0  0  0  0  0  0  0  0  0  0  0
  1  2  1  0  0  0  0
  1  5  2  0  0  0  0
  2  6  2  0  0  0  0
  3  8  2  0  0  0  0
  3 17  1  0  0  0  0
  4  9  1  0  0  0  0
  4 17  2  0  0  0  0
  5 19  1  0  0  0  0
  6 21  1  0  0  0  0
  7 10  2  0  0  0  0
  7 20  1  0  0  0  0
  8 24  1  0  0  0  0
  9 24  2  0  0  0  0
 10 25  1  0  0  0  0
 11 12  2  0  0  0  0
 11 26  1  0  0  0  0
 12 27  1  0  0  0  0
 13 22  1  0  0  0  0
 13 25  2  0  0  0  0
 14 23  2  0  0  0  0
 14 30  1  0  0  0  0
 15 27  2  0  0  0  0
 15 28  1  0  0  0  0
 16 23  1  0  0  0  0
 16 62  2  0  0  0  0
 17 29  1  0  0  0  0
 18 29  1  0  0  0  0
 18 31  2  0  0  0  0
 18 32  1  0  0  0  0
 19 21  2  0  0  0  0
 19 37  1  0  0  0  0
 20 22  2  0  0  0  0
 20 38  1  0  0  0  0
 21 46  1  0  0  0  0
 22 39  1  0  0  0  0
 23 55  1  0  0  0  0
 24 79  1  0  0  0  0
 25 80  1  0  0  0  0
 26 28  2  0  0  0  0
 26 79  1  0  0  0  0
 27 81  1  0  0  0  0
 28 82  1  0  0  0  0
 29 63  2  0  0  0  0
 30 58  1  0  0  0  0
 30 64  2  0  0  0  0
 31 65  1  0  0  0  0
 31 68  1  0  0  0  0
 32 69  1  0  0  0  0
 32 74  2  0  0  0  0
 33 47  1  0  0  0  0
 33 70  1  0  0  0  0
 33 75  2  0  0  0  0
 34 59  1  0  0  0  0
 34 66  1  0  0  0  0
 34 76  2  0  0  0  0
 35 60  1  0  0  0  0
 35 71  1  0  0  0  0
 35 77  2  0  0  0  0
 36 67  1  0  0  0  0
 36 72  1  0  0  0  0
 36 78  2  0  0  0  0
 37 40  1  0  0  0  0
 38 47  1  0  0  0  0
 39 66  1  0  0  0  0
 40 42  1  0  0  0  0
 41 43  1  0  0  0  0
 41 44  1  0  0  0  0
 42 46  1  0  0  0  0
 43 48  1  0  0  0  0
 44 67  1  0  0  0  0
 45 48  1  0  0  0  0
 45 67  1  0  0  0  0
 46 70  1  0  0  0  0
 47 66  1  0  0  0  0
 48 65  1  0  0  0  0
 49 58  1  0  0  0  0
 50 60  1  0  0  0  0
 51 61  1  0  0  0  0
 52 61  1  0  0  0  0
 53 61  1  0  0  0  0
 54 73  1  0  0  0  0
 55 57  1  0  0  0  0
 56 58  1  0  0  0  0
 56 72  1  0  0  0  0
 57 80  1  0  0  0  0
 59 61  1  0  0  0  0
 59 71  1  0  0  0  0
 60 73  1  0  0  0  0
 62 64  1  0  0  0  0
 63 65  1  0  0  0  0
M  CHG  1  73   1
M  ISO  4  36 100  57 101  72 100  80 101
M  END
> <Batch ID>
0082

> <Smiles>
CNC(C)C(=O)NC(C(=O)N1Cc2cc([101O:1][101CH2:1]Cc3cnnc(C(C)C[100NH:0][100C:0](=O)N4CCCC(n5nc(-c6ccc(Oc7ccc(F)cc7F)cc6)c(C(N)=O)c5N)C4)c3)ccc2CC1C(=O)NC1CCCc2ccccc21)C(C)(C)C

> <Shape>
0.218

> <Color>
0.100

> <Negative vol penalty>
0.000

$$$$

  -OEChem-04052318493D

 86 94  0     1  0  0  0  0  0999 V2000
  -19.2897  -26.2455   23.8827 C   0  0  0  0  0  0  0  0  0  0  0  0
  -19.9828  -25.3645   23.0589 C   0  0  0  0  0  0  0  0  0  0  0  0
  -22.7998  -12.8441   22.8839 C   0  0  0  0  0  0  0  0  0  0  0  0
  -22.7228  -14.8530   21.5440 C   0  0  0  0  0  0  0  0  0  0  0  0
  -19.6001  -27.6047   23.8656 C   0  0  0  0  0  0  0  0  0  0  0  0
  -20.9862  -25.8423   22.2166 C   0  0  0  0  0  0  0  0  0  0  0  0
  -25.1404  -22.9476   22.3070 C   0  0  0  0  0  0  0  0  0  0  0  0
  -26.3964  -17.4772   20.6896 C   0  0  0  0  0  0  0  0  0  0  0  0
  -21.7926  -13.3525   23.7041 C   0  0  0  0  0  0  0  0  0  0  0  0
  -21.7155  -15.3614   22.3642 C   0  0  0  0  0  0  0  0  0  0  0  0
  -25.1045  -21.7595   21.5783 C   0  0  0  0  0  0  0  0  0  0  0  0
  -21.5290  -15.5711   26.2404 C   0  0  0  0  0  0  0  0  0  0  0  0
  -21.6936  -15.4477   27.6199 C   0  0  0  0  0  0  0  0  0  0  0  0
  -26.7073  -16.9353   21.9317 C   0  0  0  0  0  0  0  0  0  0  0  0
  -26.3334  -22.8228   19.7955 C   0  0  0  0  0  0  0  0  0  0  0  0
  -19.6587  -14.1515   27.7469 C   0  0  0  0  0  0  0  0  0  0  0  0
  -23.2650  -13.5944   21.8039 C   0  0  0  0  0  0  0  0  0  0  0  0
  -24.1447  -12.2899   19.7959 C   0  0  0  0  0  0  0  0  0  0  0  0
  -20.6144  -28.0980   23.0298 C   0  0  0  0  0  0  0  0  0  0  0  0
  -25.7646  -24.0873   21.7798 C   0  0  0  0  0  0  0  0  0  0  0  0
  -21.3096  -27.2095   22.1874 C   0  0  0  0  0  0  0  0  0  0  0  0
  -26.3780  -24.0234   20.5205 C   0  0  0  0  0  0  0  0  0  0  0  0
  -27.3576  -18.2009   19.9927 C   0  0  0  0  0  0  0  0  0  0  0  0
  -21.2505  -14.6111   23.4442 C   0  0  0  0  0  0  0  0  0  0  0  0
  -25.6985  -21.6978   20.3212 C   0  0  0  0  0  0  0  0  0  0  0  0
  -20.4291  -14.9847   25.6140 C   0  0  0  0  0  0  0  0  0  0  0  0
  -20.7586  -14.7379   28.3732 C   0  0  0  0  0  0  0  0  0  0  0  0
  -19.4941  -14.2749   26.3673 C   0  0  0  0  0  0  0  0  0  0  0  0
  -24.3058  -13.0700   20.9566 C   0  0  0  0  0  0  0  0  0  0  0  0
  -27.9836  -17.1439   22.4292 C   0  0  0  0  0  0  0  0  0  0  0  0
  -28.6047  -18.3530   20.5771 C   0  0  0  0  0  0  0  0  0  0  0  0
  -25.4259  -12.0508   19.3624 C   0  0  0  0  0  0  0  0  0  0  0  0
  -22.9443  -11.8231   19.1659 C   0  0  0  0  0  0  0  0  0  0  0  0
  -24.7978  -27.0092   20.9853 C   0  0  0  0  0  0  0  0  0  0  0  0
  -27.9665  -27.5025   20.4972 C   0  0  0  0  0  0  0  0  0  0  0  0
  -31.0343  -26.1724   19.8144 C   0  0  0  0  0  0  0  0  0  0  0  0
  -30.5967  -14.9749   20.1130 C   0  0  0  0  0  0  0  0  0  0  0  0
  -20.8821  -29.5821   23.0113 C   0  0  0  0  0  0  0  0  0  0  0  0
  -25.8179  -25.3536   22.5897 C   0  0  0  0  0  0  0  0  0  0  0  0
  -27.0786  -25.2130   19.9184 C   0  0  0  0  0  0  0  0  0  0  0  0
  -22.2140  -29.9528   22.3642 C   0  0  0  0  0  0  0  0  0  0  0  0
  -29.9036  -11.5930   20.9844 C   0  0  0  0  0  0  0  0  0  0  0  0
  -22.3957  -29.2020   21.0489 C   0  0  0  0  0  0  0  0  0  0  0  0
  -28.3758  -11.5177   20.9713 C   0  0  0  0  0  0  0  0  0  0  0  0
  -30.3978  -12.9389   21.5101 C   0  0  0  0  0  0  0  0  0  0  0  0
  -28.3078  -14.0412   20.8097 C   0  0  0  0  0  0  0  0  0  0  0  0
  -22.4214  -27.6859   21.2780 C   0  0  1  0  0  0  0  0  0  0  0  0
  -26.0330  -26.5999   21.7366 C   0  0  1  0  0  0  0  0  0  0  0  0
  -27.7612  -12.7231   20.2349 C   0  0  2  0  0  0  0  0  0  0  0  0
  -28.0578  -17.5399   24.9039 C   0  0  0  0  0  0  0  0  0  0  0  0
  -30.0349  -20.3930   20.6726 C   0  0  0  0  0  0  0  0  0  0  0  0
  -33.4270  -26.8293   19.4387 C   0  0  0  0  0  0  0  0  0  0  0  0
  -32.0722  -19.0724   18.8790 C   0  0  0  0  0  0  0  0  0  0  0  0
  -27.2547  -28.4852   17.6976 C   0  0  0  0  0  0  0  0  0  0  0  0
  -29.6629  -28.2183   17.0672 C   0  0  0  0  0  0  0  0  0  0  0  0
  -29.0155  -29.8291   18.8586 C   0  0  0  0  0  0  0  0  0  0  0  0
  -31.9555  -24.5875   22.1379 C   0  0  0  0  0  0  0  0  0  0  0  0
  -27.0257  -18.7927   18.6444 C   0  0  0  0  0  0  0  0  0  0  0  0
  -28.3520  -16.5750   23.7588 C   0  0  0  0  0  0  0  0  0  0  0  0
  -30.6330  -17.0148   18.7000 C   0  0  0  0  0  0  0  0  0  0  0  0
  -26.7538  -20.2912   18.7199 C   0  0  0  0  0  0  0  0  0  1  0  0
  -29.6772  -19.1179   19.8731 C   0  0  1  0  0  0  0  0  0  0  0  0
  -28.9046  -27.3467   19.3247 C   0  0  1  0  0  0  0  0  0  0  0  0
  -32.3913  -26.3861   20.4604 C   0  0  2  0  0  0  0  0  0  0  0  0
  -30.9560  -18.2598   19.5528 C   0  0  2  0  0  0  0  0  0  0  0  0
  -28.6946  -28.4478   18.2473 C   0  0  0  0  0  0  0  0  0  0  0  0
  -25.5881  -13.3104   21.2425 N   0  0  0  0  0  0  0  0  0  0  0  0
  -28.9437  -17.8413   21.7816 N   0  0  0  0  0  0  0  0  0  0  0  0
  -26.2445  -12.6776   20.2552 N   0  0  0  0  0  0  0  0  0  0  0  0
  -27.0984  -26.4301   20.7465 N   0  0  0  0  0  0  0  0  0  0  0  0
  -29.7785  -14.0401   20.7685 N   0  0  0  0  0  0  0  0  0  0  0  0
  -25.9207  -11.3677   18.3084 N   0  0  0  0  0  0  0  0  0  0  0  0
  -21.7124  -12.1599   19.7431 N   0  0  0  0  0  0  0  0  0  0  0  0
  -23.7094  -27.2746   21.7942 N   0  0  0  0  0  0  0  0  0  0  0  0
  -30.2520  -27.3058   19.8826 N   0  0  0  0  0  0  0  0  0  0  0  0
  -29.9290  -15.9829   19.4283 N   0  0  0  0  0  0  0  0  0  0  0  0
  -32.8673  -25.1245   21.0951 N   0  3  0  0  0  0  0  0  0  0  0  0
  -22.9642  -11.1141   18.1313 O   0  0  0  0  0  0  0  0  0  0  0  0
  -24.8303  -27.0806   19.7624 O   0  0  0  0  0  0  0  0  0  0  0  0
  -28.0076  -28.5347   21.1715 O   0  0  0  0  0  0  0  0  0  0  0  0
  -30.7029  -25.1077   19.2974 O   0  0  0  0  0  0  0  0  0  0  0  0
  -31.8307  -14.9126   20.1318 O   0  0  0  0  0  0  0  0  0  0  0  0
  -20.2675  -15.1074   24.2442 O   0  0  0  0  0  0  0  0  0  0  0  0
  -25.6644  -20.5395   19.6076 O   0  0  0  0  0  0  0  0  0  1  0  0
  -20.9176  -14.6183   29.6978 F   0  0  0  0  0  0  0  0  0  0  0  0
  -18.4361  -13.7084   25.7711 F   0  0  0  0  0  0  0  0  0  0  0  0
  1  2  1  0  0  0  0
  1  5  2  0  0  0  0
  2  6  2  0  0  0  0
  3  9  2  0  0  0  0
  3 17  1  0  0  0  0
  4 10  1  0  0  0  0
  4 17  2  0  0  0  0
  5 19  1  0  0  0  0
  6 21  1  0  0  0  0
  7 11  2  0  0  0  0
  7 20  1  0  0  0  0
  8 14  2  0  0  0  0
  8 23  1  0  0  0  0
  9 24  1  0  0  0  0
 10 24  2  0  0  0  0
 11 25  1  0  0  0  0
 12 13  2  0  0  0  0
 12 26  1  0  0  0  0
 13 27  1  0  0  0  0
 14 30  1  0  0  0  0
 15 22  1  0  0  0  0
 15 25  2  0  0  0  0
 16 27  2  0  0  0  0
 16 28  1  0  0  0  0
 17 29  1  0  0  0  0
 18 29  1  0  0  0  0
 18 32  2  0  0  0  0
 18 33  1  0  0  0  0
 19 21  2  0  0  0  0
 19 38  1  0  0  0  0
 20 22  2  0  0  0  0
 20 39  1  0  0  0  0
 21 47  1  0  0  0  0
 22 40  1  0  0  0  0
 23 31  2  0  0  0  0
 23 58  1  0  0  0  0
 24 83  1  0  0  0  0
 25 84  1  0  0  0  0
 26 28  2  0  0  0  0
 26 83  1  0  0  0  0
 27 85  1  0  0  0  0
 28 86  1  0  0  0  0
 29 67  2  0  0  0  0
 30 59  1  0  0  0  0
 30 68  2  0  0  0  0
 31 62  1  0  0  0  0
 31 68  1  0  0  0  0
 32 69  1  0  0  0  0
 32 72  1  0  0  0  0
 33 73  1  0  0  0  0
 33 78  2  0  0  0  0
 34 48  1  0  0  0  0
 34 74  1  0  0  0  0
 34 79  2  0  0  0  0
 35 63  1  0  0  0  0
 35 70  1  0  0  0  0
 35 80  2  0  0  0  0
 36 64  1  0  0  0  0
 36 75  1  0  0  0  0
 36 81  2  0  0  0  0
 37 71  1  0  0  0  0
 37 76  1  0  0  0  0
 37 82  2  0  0  0  0
 38 41  1  0  0  0  0
 39 48  1  0  0  0  0
 40 70  1  0  0  0  0
 41 43  1  0  0  0  0
 42 44  1  0  0  0  0
 42 45  1  0  0  0  0
 43 47  1  0  0  0  0
 44 49  1  0  0  0  0
 45 71  1  0  0  0  0
 46 49  1  0  0  0  0
 46 71  1  0  0  0  0
 47 74  1  0  0  0  0
 48 70  1  0  0  0  0
 49 69  1  0  0  0  0
 50 59  1  0  0  0  0
 51 62  1  0  0  0  0
 52 64  1  0  0  0  0
 53 65  1  0  0  0  0
 54 66  1  0  0  0  0
 55 66  1  0  0  0  0
 56 66  1  0  0  0  0
 57 77  1  0  0  0  0
 58 61  1  0  0  0  0
 60 65  1  0  0  0  0
 60 76  1  0  0  0  0
 61 84  1  0  0  0  0
 62 65  1  0  0  0  0
 63 66  1  0  0  0  0
 63 75  1  0  0  0  0
 64 77  1  0  0  0  0
 67 69  1  0  0  0  0
M  CHG  1  77   1
M  ISO  4  37 100  61 101  76 100  84 101
M  END
> <Batch ID>
0082

> <Smiles>
CCc1ccc(C[101CH2:1][101O:1]c2ccc3c(c2)CN(C(=O)C(NC(=O)C(C)NC)C(C)(C)C)C(C(=O)NC2CCCc4ccccc42)C3)c(C(C)C(C)C[100NH:0][100C:0](=O)N2CCCC(n3nc(-c4ccc(Oc5ccc(F)cc5F)cc4)c(C(N)=O)c3N)C2)n1

> <Shape>
0.224

> <Color>
0.058

> <Negative vol penalty>
0.000

$$$$

  -OEChem-04052318493D

 84 92  0     1  0  0  0  0  0999 V2000
  -20.8307  -34.4046   23.4711 C   0  0  0  0  0  0  0  0  0  0  0  0
  -22.0469  -33.8468   23.0904 C   0  0  0  0  0  0  0  0  0  0  0  0
  -24.7600  -14.3139   21.0908 C   0  0  0  0  0  0  0  0  0  0  0  0
  -26.9036  -13.8231   20.0901 C   0  0  0  0  0  0  0  0  0  0  0  0
  -19.8166  -33.5884   23.9705 C   0  0  0  0  0  0  0  0  0  0  0  0
  -22.2503  -32.4725   23.2099 C   0  0  0  0  0  0  0  0  0  0  0  0
  -25.5448  -28.9005   19.4826 C   0  0  0  0  0  0  0  0  0  0  0  0
  -24.2761  -13.0786   20.6601 C   0  0  0  0  0  0  0  0  0  0  0  0
  -26.4197  -12.5878   19.6594 C   0  0  0  0  0  0  0  0  0  0  0  0
  -26.8445  -28.4031   19.5669 C   0  0  0  0  0  0  0  0  0  0  0  0
  -22.5872   -9.9024   20.1362 C   0  0  0  0  0  0  0  0  0  0  0  0
  -21.8517   -9.1415   21.0448 C   0  0  0  0  0  0  0  0  0  0  0  0
  -25.9901  -26.3436   20.4878 C   0  0  0  0  0  0  0  0  0  0  0  0
  -31.6918  -27.2900   20.6605 C   0  0  0  0  0  0  0  0  0  0  0  0
  -23.7526   -9.0835   22.5350 C   0  0  0  0  0  0  0  0  0  0  0  0
  -26.0738  -14.6862   20.8058 C   0  0  0  0  0  0  0  0  0  0  0  0
  -27.2104  -16.2470   22.4730 C   0  0  0  0  0  0  0  0  0  0  0  0
  -20.0042  -32.2021   24.0872 C   0  0  0  0  0  0  0  0  0  0  0  0
  -24.4571  -28.1261   19.9111 C   0  0  0  0  0  0  0  0  0  0  0  0
  -21.2383  -31.6371   23.7126 C   0  0  0  0  0  0  0  0  0  0  0  0
  -24.6774  -26.8325   20.4055 C   0  0  0  0  0  0  0  0  0  0  0  0
  -30.6967  -26.7668   19.8537 C   0  0  0  0  0  0  0  0  0  0  0  0
  -25.1059  -12.2156   19.9444 C   0  0  0  0  0  0  0  0  0  0  0  0
  -27.0676  -27.1256   20.0722 C   0  0  0  0  0  0  0  0  0  0  0  0
  -23.9054  -10.2539   20.4269 C   0  0  0  0  0  0  0  0  0  0  0  0
  -22.4344   -8.7320   22.2442 C   0  0  0  0  0  0  0  0  0  0  0  0
  -24.4881   -9.8444   21.6263 C   0  0  0  0  0  0  0  0  0  0  0  0
  -26.5741  -15.9623   21.2499 C   0  0  0  0  0  0  0  0  0  0  0  0
  -32.8768  -26.5892   20.7614 C   0  0  0  0  0  0  0  0  0  0  0  0
  -30.9526  -25.5776   19.2010 C   0  0  0  0  0  0  0  0  0  0  0  0
  -27.4897  -17.5903   22.4102 C   0  0  0  0  0  0  0  0  0  0  0  0
  -27.5214  -15.3751   23.5678 C   0  0  0  0  0  0  0  0  0  0  0  0
  -22.2306  -28.4351   22.1585 C   0  0  0  0  0  0  0  0  0  0  0  0
  -21.0282  -25.7526   20.7870 C   0  0  0  0  0  0  0  0  0  0  0  0
  -21.5908  -22.9505   18.9220 C   0  0  0  0  0  0  0  0  0  0  0  0
  -28.3697  -21.2153   17.8341 C   0  0  0  0  0  0  0  0  0  0  0  0
  -18.8956  -31.3666   24.6768 C   0  0  0  0  0  0  0  0  0  0  0  0
  -23.0589  -28.6669   19.7887 C   0  0  0  0  0  0  0  0  0  0  0  0
  -23.5421  -25.9532   20.8598 C   0  0  0  0  0  0  0  0  0  0  0  0
  -19.0583  -29.8705   24.4208 C   0  0  0  0  0  0  0  0  0  0  0  0
  -25.9043  -21.6570   20.4464 C   0  0  0  0  0  0  0  0  0  0  0  0
  -20.4880  -29.4302   24.7188 C   0  0  0  0  0  0  0  0  0  0  0  0
  -25.8627  -20.2585   21.0650 C   0  0  0  0  0  0  0  0  0  0  0  0
  -26.0786  -21.5867   18.9322 C   0  0  0  0  0  0  0  0  0  0  0  0
  -27.2316  -19.4151   19.1017 C   0  0  0  0  0  0  0  0  0  0  0  0
  -21.4882  -30.1474   23.8040 C   0  0  1  0  0  0  0  0  0  0  0  0
  -22.0711  -27.9884   20.7328 C   0  0  1  0  0  0  0  0  0  0  0  0
  -27.0796  -19.4186   20.6336 C   0  0  2  0  0  0  0  0  0  0  0  0
  -35.0330  -27.0936   23.9239 C   0  0  0  0  0  0  0  0  0  0  0  0
  -20.4218  -20.9308   17.9992 C   0  0  0  0  0  0  0  0  0  0  0  0
  -21.0508  -24.4763   23.5584 C   0  0  0  0  0  0  0  0  0  0  0  0
  -20.7985  -22.2429   22.4555 C   0  0  0  0  0  0  0  0  0  0  0  0
  -19.0176  -23.9697   22.1931 C   0  0  0  0  0  0  0  0  0  0  0  0
  -22.1923  -23.7334   16.1320 C   0  0  0  0  0  0  0  0  0  0  0  0
  -29.3896  -27.4891   19.7087 C   0  0  0  0  0  0  0  0  0  1  0  0
  -33.9802  -27.1093   21.6176 C   0  0  0  0  0  0  0  0  0  0  0  0
  -29.9274  -24.9534   18.3157 C   0  0  0  0  0  0  0  0  0  0  0  0
  -33.8872  -26.5897   23.0608 C   0  0  0  0  0  0  0  0  0  0  0  0
  -30.4496  -23.7799   17.4635 C   0  0  0  0  0  0  0  0  0  0  0  0
  -29.3855  -23.1108   16.5962 C   0  0  0  0  0  0  0  0  0  0  0  0
  -21.2212  -24.2692   20.9905 C   0  0  1  0  0  0  0  0  0  0  0  0
  -20.8492  -22.3658   17.7335 C   0  0  2  0  0  0  0  0  0  0  0  0
  -20.5438  -23.7566   22.2927 C   0  0  0  0  0  0  0  0  0  0  0  0
  -26.4557  -17.0384   20.4675 N   0  0  0  0  0  0  0  0  0  0  0  0
  -33.0998  -25.4274   20.1112 N   0  0  0  0  0  0  0  0  0  0  0  0
  -32.1219  -24.9135   19.3180 N   0  0  0  0  0  0  0  0  0  0  0  0
  -27.0215  -18.0123   21.2007 N   0  0  0  0  0  0  0  0  0  0  0  0
  -22.1939  -26.5293   20.7261 N   0  0  0  0  0  0  0  0  0  0  0  0
  -27.2644  -20.7890   18.5891 N   0  0  0  0  0  0  0  0  0  0  0  0
  -28.0874  -18.4400   23.2723 N   0  0  0  0  0  0  0  0  0  0  0  0
  -27.1644  -14.0234   23.4678 N   0  0  0  0  0  0  0  0  0  0  0  0
  -21.4843  -29.5512   22.4853 N   0  0  0  0  0  0  0  0  0  0  0  0
  -20.7408  -23.6243   19.7733 N   0  0  0  0  0  0  0  0  0  0  0  0
  -28.3195  -22.5276   17.3803 N   0  0  0  0  0  0  0  0  0  0  0  0
  -21.7178  -22.3809   16.5225 N   0  3  0  0  0  0  0  0  0  0  0  0
  -28.0841  -15.7858   24.6110 O   0  0  0  0  0  0  0  0  0  0  0  0
  -22.9744  -27.8122   22.9071 O   0  0  0  0  0  0  0  0  0  0  0  0
  -19.8856  -26.2045   20.6788 O   0  0  0  0  0  0  0  0  0  0  0  0
  -22.8024  -22.8190   19.0815 O   0  0  0  0  0  0  0  0  0  0  0  0
  -29.3332  -20.4820   17.5871 O   0  0  0  0  0  0  0  0  0  0  0  0
  -24.6341  -11.0100   19.5242 O   0  0  0  0  0  0  0  0  0  0  0  0
  -28.3353  -26.6379   20.1562 O   0  0  0  0  0  0  0  0  0  1  0  0
  -21.7274   -8.0026   23.1173 F   0  0  0  0  0  0  0  0  0  0  0  0
  -25.7537  -10.1799   21.9117 F   0  0  0  0  0  0  0  0  0  0  0  0
  1  2  1  0  0  0  0
  1  5  2  0  0  0  0
  2  6  2  0  0  0  0
  3  8  2  0  0  0  0
  3 16  1  0  0  0  0
  4  9  1  0  0  0  0
  4 16  2  0  0  0  0
  5 18  1  0  0  0  0
  6 20  1  0  0  0  0
  7 10  2  0  0  0  0
  7 19  1  0  0  0  0
  8 23  1  0  0  0  0
  9 23  2  0  0  0  0
 10 24  1  0  0  0  0
 11 12  2  0  0  0  0
 11 25  1  0  0  0  0
 12 26  1  0  0  0  0
 13 21  1  0  0  0  0
 13 24  2  0  0  0  0
 14 22  2  0  0  0  0
 14 29  1  0  0  0  0
 15 26  2  0  0  0  0
 15 27  1  0  0  0  0
 16 28  1  0  0  0  0
 17 28  1  0  0  0  0
 17 31  2  0  0  0  0
 17 32  1  0  0  0  0
 18 20  2  0  0  0  0
 18 37  1  0  0  0  0
 19 21  2  0  0  0  0
 19 38  1  0  0  0  0
 20 46  1  0  0  0  0
 21 39  1  0  0  0  0
 22 30  1  0  0  0  0
 22 55  1  0  0  0  0
 23 81  1  0  0  0  0
 24 82  1  0  0  0  0
 25 27  2  0  0  0  0
 25 81  1  0  0  0  0
 26 83  1  0  0  0  0
 27 84  1  0  0  0  0
 28 64  2  0  0  0  0
 29 56  1  0  0  0  0
 29 65  2  0  0  0  0
 30 57  1  0  0  0  0
 30 66  2  0  0  0  0
 31 67  1  0  0  0  0
 31 70  1  0  0  0  0
 32 71  1  0  0  0  0
 32 76  2  0  0  0  0
 33 47  1  0  0  0  0
 33 72  1  0  0  0  0
 33 77  2  0  0  0  0
 34 61  1  0  0  0  0
 34 68  1  0  0  0  0
 34 78  2  0  0  0  0
 35 62  1  0  0  0  0
 35 73  1  0  0  0  0
 35 79  2  0  0  0  0
 36 69  1  0  0  0  0
 36 74  1  0  0  0  0
 36 80  2  0  0  0  0
 37 40  1  0  0  0  0
 38 47  1  0  0  0  0
 39 68  1  0  0  0  0
 40 42  1  0  0  0  0
 41 43  1  0  0  0  0
 41 44  1  0  0  0  0
 42 46  1  0  0  0  0
 43 48  1  0  0  0  0
 44 69  1  0  0  0  0
 45 48  1  0  0  0  0
 45 69  1  0  0  0  0
 46 72  1  0  0  0  0
 47 68  1  0  0  0  0
 48 67  1  0  0  0  0
 49 58  1  0  0  0  0
 50 62  1  0  0  0  0
 51 63  1  0  0  0  0
 52 63  1  0  0  0  0
 53 63  1  0  0  0  0
 54 75  1  0  0  0  0
 55 82  1  0  0  0  0
 56 58  1  0  0  0  0
 57 59  1  0  0  0  0
 59 60  1  0  0  0  0
 60 74  1  0  0  0  0
 61 63  1  0  0  0  0
 61 73  1  0  0  0  0
 62 75  1  0  0  0  0
 64 67  1  0  0  0  0
 65 66  1  0  0  0  0
M  CHG  1  75   1
M  ISO  4  36 100  55 101  74 100  82 101
M  END
> <Batch ID>
0082

> <Smiles>
CCCc1cc([101CH2:1][101O:1]c2ccc3c(c2)CN(C(=O)C(NC(=O)C(C)NC)C(C)(C)C)C(C(=O)NC2CCCc4ccccc42)C3)c(CCC[100NH:0][100C:0](=O)N2CCCC(n3nc(-c4ccc(Oc5ccc(F)cc5F)cc4)c(C(N)=O)c3N)C2)nn1

> <Shape>
0.221

> <Color>
0.081

> <Negative vol penalty>
0.000

$$$$

  -OEChem-04052318493D

 86 94  0     1  0  0  0  0  0999 V2000
  -17.4033  -32.8078   23.6511 C   0  0  0  0  0  0  0  0  0  0  0  0
  -18.7452  -33.1677   23.7228 C   0  0  0  0  0  0  0  0  0  0  0  0
  -28.0434  -17.2733   20.6507 C   0  0  0  0  0  0  0  0  0  0  0  0
  -29.9646  -17.6786   22.0585 C   0  0  0  0  0  0  0  0  0  0  0  0
  -17.0459  -31.4614   23.5937 C   0  0  0  0  0  0  0  0  0  0  0  0
  -19.7306  -32.1812   23.7383 C   0  0  0  0  0  0  0  0  0  0  0  0
  -26.4455  -30.9633   21.5605 C   0  0  0  0  0  0  0  0  0  0  0  0
  -28.2479  -15.8985   20.7675 C   0  0  0  0  0  0  0  0  0  0  0  0
  -30.1690  -16.3038   22.1753 C   0  0  0  0  0  0  0  0  0  0  0  0
  -27.6768  -30.5343   22.0542 C   0  0  0  0  0  0  0  0  0  0  0  0
  -28.4786  -12.2879   20.4020 C   0  0  0  0  0  0  0  0  0  0  0  0
  -28.3924  -11.5171   19.2427 C   0  0  0  0  0  0  0  0  0  0  0  0
  -26.9454  -28.2429   21.8707 C   0  0  0  0  0  0  0  0  0  0  0  0
  -30.1996  -12.7871   18.2638 C   0  0  0  0  0  0  0  0  0  0  0  0
  -32.0539  -25.5667   22.1107 C   0  0  0  0  0  0  0  0  0  0  0  0
  -28.9018  -18.1634   21.2962 C   0  0  0  0  0  0  0  0  0  0  0  0
  -27.9070  -20.4010   22.0112 C   0  0  0  0  0  0  0  0  0  0  0  0
  -18.0279  -30.4582   23.5987 C   0  0  0  0  0  0  0  0  0  0  0  0
  -25.4493  -30.0341   21.2280 C   0  0  0  0  0  0  0  0  0  0  0  0
  -19.3860  -30.8200   23.6822 C   0  0  0  0  0  0  0  0  0  0  0  0
  -25.7032  -28.6625   21.3706 C   0  0  0  0  0  0  0  0  0  0  0  0
  -29.3106  -15.4137   21.5298 C   0  0  0  0  0  0  0  0  0  0  0  0
  -27.9259  -29.1741   22.2120 C   0  0  0  0  0  0  0  0  0  0  0  0
  -29.4253  -13.3084   20.4922 C   0  0  0  0  0  0  0  0  0  0  0  0
  -29.2528  -11.7666   18.1736 C   0  0  0  0  0  0  0  0  0  0  0  0
  -30.2858  -13.5579   19.4232 C   0  0  0  0  0  0  0  0  0  0  0  0
  -28.6915  -19.5837   21.1755 C   0  0  0  0  0  0  0  0  0  0  0  0
  -33.3501  -25.7338   21.7121 C   0  0  0  0  0  0  0  0  0  0  0  0
  -28.0337  -21.6601   21.4772 C   0  0  0  0  0  0  0  0  0  0  0  0
  -33.3544  -25.2840   23.8797 C   0  0  0  0  0  0  0  0  0  0  0  0
  -27.1330  -20.0531   23.1668 C   0  0  0  0  0  0  0  0  0  0  0  0
  -22.5044  -29.4356   22.2638 C   0  0  0  0  0  0  0  0  0  0  0  0
  -22.4823  -27.3324   19.7943 C   0  0  0  0  0  0  0  0  0  0  0  0
  -24.2639  -25.3772   17.6379 C   0  0  0  0  0  0  0  0  0  0  0  0
  -32.2624  -24.2638   18.1321 C   0  0  0  0  0  0  0  0  0  0  0  0
  -17.5910  -29.0147   23.5828 C   0  0  0  0  0  0  0  0  0  0  0  0
  -24.1360  -30.5118   20.6715 C   0  0  0  0  0  0  0  0  0  0  0  0
  -24.6744  -27.6237   21.0090 C   0  0  0  0  0  0  0  0  0  0  0  0
  -18.7127  -28.0428   23.2257 C   0  0  0  0  0  0  0  0  0  0  0  0
  -28.8133  -23.9054   17.3249 C   0  0  0  0  0  0  0  0  0  0  0  0
  -19.9763  -28.3731   24.0138 C   0  0  0  0  0  0  0  0  0  0  0  0
  -28.3202  -22.8309   18.2956 C   0  0  0  0  0  0  0  0  0  0  0  0
  -30.2388  -23.6280   16.8526 C   0  0  0  0  0  0  0  0  0  0  0  0
  -30.7286  -22.3541   18.9048 C   0  0  0  0  0  0  0  0  0  0  0  0
  -20.4851  -29.7798   23.6762 C   0  0  1  0  0  0  0  0  0  0  0  0
  -23.0082  -29.5001   20.8497 C   0  0  1  0  0  0  0  0  0  0  0  0
  -29.3159  -22.6205   19.4521 C   0  0  2  0  0  0  0  0  0  0  0  0
  -33.8322  -25.0280   25.2613 C   0  0  0  0  0  0  0  0  0  0  0  0
  -35.2148  -26.9068   20.4993 C   0  0  0  0  0  0  0  0  0  0  0  0
  -23.9670  -23.7423   15.7574 C   0  0  0  0  0  0  0  0  0  0  0  0
  -29.2312  -25.8172   26.0381 C   0  0  0  0  0  0  0  0  0  0  0  0
  -30.1171  -28.7393   25.4197 C   0  0  0  0  0  0  0  0  0  0  0  0
  -21.6597  -25.1821   21.7967 C   0  0  0  0  0  0  0  0  0  0  0  0
  -22.2990  -23.4558   20.0999 C   0  0  0  0  0  0  0  0  0  0  0  0
  -20.4672  -25.0739   19.6011 C   0  0  0  0  0  0  0  0  0  0  0  0
  -25.7502  -27.1033   15.7484 C   0  0  0  0  0  0  0  0  0  0  0  0
  -30.8748  -25.0296   24.3181 C   0  0  0  0  0  0  0  0  0  0  0  0
  -34.2452  -24.7924   19.5279 C   0  0  0  0  0  0  0  0  0  0  0  0
  -29.1372  -27.5333   23.4353 C   0  0  0  0  0  0  0  0  0  1  0  0
  -33.9276  -26.0435   20.4017 C   0  0  1  0  0  0  0  0  0  0  0  0
  -22.8629  -25.8817   19.6221 C   0  0  1  0  0  0  0  0  0  0  0  0
  -24.1780  -25.2009   16.1326 C   0  0  2  0  0  0  0  0  0  0  0  0
  -30.4715  -26.2168   25.2265 C   0  0  1  0  0  0  0  0  0  0  0  0
  -30.2874  -27.5564   24.4527 C   0  0  2  0  0  0  0  0  0  0  0  0
  -21.8411  -24.9178   20.2887 C   0  0  0  0  0  0  0  0  0  0  0  0
  -29.2735  -20.2662   20.1857 N   0  0  0  0  0  0  0  0  0  0  0  0
  -32.0863  -25.2889   23.4560 N   0  0  0  0  0  0  0  0  0  0  0  0
  -28.8542  -21.5256   20.3961 N   0  0  0  0  0  0  0  0  0  0  0  0
  -34.1330  -25.5536   22.8268 N   0  3  0  0  0  0  0  0  0  0  0  0
  -23.4036  -28.1409   20.4749 N   0  0  0  0  0  0  0  0  0  0  0  0
  -31.1329  -23.4396   17.9976 N   0  0  0  0  0  0  0  0  0  0  0  0
  -27.5222  -22.8580   21.8317 N   0  0  0  0  0  0  0  0  0  0  0  0
  -27.1126  -18.7137   23.5789 N   0  0  0  0  0  0  0  0  0  0  0  0
  -21.1725  -29.7765   22.4026 N   0  0  0  0  0  0  0  0  0  0  0  0
  -23.0347  -25.6721   18.1886 N   0  0  0  0  0  0  0  0  0  0  0  0
  -33.0533  -24.0229   19.2489 N   0  0  0  0  0  0  0  0  0  0  0  0
  -25.4320  -25.6767   15.4829 N   0  3  0  0  0  0  0  0  0  0  0  0
  -26.4656  -20.9020   23.8052 O   0  0  0  0  0  0  0  0  0  0  0  0
  -23.2671  -29.0998   23.1622 O   0  0  0  0  0  0  0  0  0  0  0  0
  -21.4104  -27.7349   19.3354 O   0  0  0  0  0  0  0  0  0  0  0  0
  -25.3156  -25.2609   18.2632 O   0  0  0  0  0  0  0  0  0  0  0  0
  -32.5422  -25.1522   17.3201 O   0  0  0  0  0  0  0  0  0  0  0  0
  -29.5102  -14.0722   21.6442 O   0  0  0  0  0  0  0  0  0  0  0  0
  -29.1266  -28.7528   22.6943 O   0  0  0  0  0  0  0  0  0  1  0  0
  -29.1709  -11.0253   17.0610 F   0  0  0  0  0  0  0  0  0  0  0  0
  -31.1981  -14.5361   19.5044 F   0  0  0  0  0  0  0  0  0  0  0  0
  1  2  1  0  0  0  0
  1  5  2  0  0  0  0
  2  6  2  0  0  0  0
  3  8  2  0  0  0  0
  3 16  1  0  0  0  0
  4  9  1  0  0  0  0
  4 16  2  0  0  0  0
  5 18  1  0  0  0  0
  6 20  1  0  0  0  0
  7 10  2  0  0  0  0
  7 19  1  0  0  0  0
  8 22  1  0  0  0  0
  9 22  2  0  0  0  0
 10 23  1  0  0  0  0
 11 12  2  0  0  0  0
 11 24  1  0  0  0  0
 12 25  1  0  0  0  0
 13 21  1  0  0  0  0
 13 23  2  0  0  0  0
 14 25  2  0  0  0  0
 14 26  1  0  0  0  0
 15 28  2  0  0  0  0
 15 67  1  0  0  0  0
 16 27  1  0  0  0  0
 17 27  1  0  0  0  0
 17 29  2  0  0  0  0
 17 31  1  0  0  0  0
 18 20  2  0  0  0  0
 18 36  1  0  0  0  0
 19 21  2  0  0  0  0
 19 37  1  0  0  0  0
 20 45  1  0  0  0  0
 21 38  1  0  0  0  0
 22 83  1  0  0  0  0
 23 84  1  0  0  0  0
 24 26  2  0  0  0  0
 24 83  1  0  0  0  0
 25 85  1  0  0  0  0
 26 86  1  0  0  0  0
 27 66  2  0  0  0  0
 28 60  1  0  0  0  0
 28 69  1  0  0  0  0
 29 68  1  0  0  0  0
 29 72  1  0  0  0  0
 30 48  1  0  0  0  0
 30 67  1  0  0  0  0
 30 69  2  0  0  0  0
 31 73  1  0  0  0  0
 31 78  2  0  0  0  0
 32 46  1  0  0  0  0
 32 74  1  0  0  0  0
 32 79  2  0  0  0  0
 33 61  1  0  0  0  0
 33 70  1  0  0  0  0
 33 80  2  0  0  0  0
 34 62  1  0  0  0  0
 34 75  1  0  0  0  0
 34 81  2  0  0  0  0
 35 71  1  0  0  0  0
 35 76  1  0  0  0  0
 35 82  2  0  0  0  0
 36 39  1  0  0  0  0
 37 46  1  0  0  0  0
 38 70  1  0  0  0  0
 39 41  1  0  0  0  0
 40 42  1  0  0  0  0
 40 43  1  0  0  0  0
 41 45  1  0  0  0  0
 42 47  1  0  0  0  0
 43 71  1  0  0  0  0
 44 47  1  0  0  0  0
 44 71  1  0  0  0  0
 45 74  1  0  0  0  0
 46 70  1  0  0  0  0
 47 68  1  0  0  0  0
 49 60  1  0  0  0  0
 50 62  1  0  0  0  0
 51 63  1  0  0  0  0
 52 64  1  0  0  0  0
 53 65  1  0  0  0  0
 54 65  1  0  0  0  0
 55 65  1  0  0  0  0
 56 77  1  0  0  0  0
 57 63  1  0  0  0  0
 57 67  1  0  0  0  0
 58 60  1  0  0  0  0
 58 76  1  0  0  0  0
 59 64  1  0  0  0  0
 59 84  1  0  0  0  0
 61 65  1  0  0  0  0
 61 75  1  0  0  0  0
 62 77  1  0  0  0  0
 63 64  1  0  0  0  0
 66 68  1  0  0  0  0
M  CHG  2  69   1  77   1
M  ISO  4  35 100  59 101  76 100  84 101
M  END
> <Batch ID>
0082

> <Smiles>
CNC(C)C(=O)NC(C(=O)N1Cc2cc([101O:1][101CH2:1]C(C)C(C)Cn3cc(C(C)C[100NH:0][100C:0](=O)N4CCCC(n5nc(-c6ccc(Oc7ccc(F)cc7F)cc6)c(C(N)=O)c5N)C4)nc3C)ccc2CC1C(=O)NC1CCCc2ccccc21)C(C)(C)C

> <Shape>
0.243

> <Color>
0.072

> <Negative vol penalty>
0.000

$$$$

  -OEChem-04052318493D

 82 90  0     1  0  0  0  0  0999 V2000
  -28.5305  -20.2779   10.7767 C   0  0  0  0  0  0  0  0  0  0  0  0
  -28.1219  -19.9413   12.0632 C   0  0  0  0  0  0  0  0  0  0  0  0
  -23.2240  -16.2180   22.0627 C   0  0  0  0  0  0  0  0  0  0  0  0
  -22.3626  -15.6634   19.8747 C   0  0  0  0  0  0  0  0  0  0  0  0
  -29.3457  -21.3908   10.5743 C   0  0  0  0  0  0  0  0  0  0  0  0
  -28.5291  -20.7167   13.1482 C   0  0  0  0  0  0  0  0  0  0  0  0
  -25.3106  -21.9409   18.2126 C   0  0  0  0  0  0  0  0  0  0  0  0
  -22.2062  -17.1579   22.2252 C   0  0  0  0  0  0  0  0  0  0  0  0
  -21.3447  -16.6032   20.0372 C   0  0  0  0  0  0  0  0  0  0  0  0
  -25.3233  -21.3824   19.4900 C   0  0  0  0  0  0  0  0  0  0  0  0
  -21.5375  -20.3075   21.1970 C   0  0  0  0  0  0  0  0  0  0  0  0
  -21.8866  -21.5581   21.7064 C   0  0  0  0  0  0  0  0  0  0  0  0
  -26.8116  -23.1295   20.2326 C   0  0  0  0  0  0  0  0  0  0  0  0
  -20.3970  -21.2120   23.5768 C   0  0  0  0  0  0  0  0  0  0  0  0
  -29.4300  -17.8827   22.1521 C   0  0  0  0  0  0  0  0  0  0  0  0
  -23.3022  -15.4708   20.8875 C   0  0  0  0  0  0  0  0  0  0  0  0
  -24.3197  -13.1392   21.0770 C   0  0  0  0  0  0  0  0  0  0  0  0
  -29.7552  -22.1859   11.6563 C   0  0  0  0  0  0  0  0  0  0  0  0
  -26.0582  -23.0937   17.9324 C   0  0  0  0  0  0  0  0  0  0  0  0
  -29.3516  -21.8405   12.9602 C   0  0  0  0  0  0  0  0  0  0  0  0
  -26.8047  -23.7022   18.9515 C   0  0  0  0  0  0  0  0  0  0  0  0
  -21.2666  -17.3505   21.2125 C   0  0  0  0  0  0  0  0  0  0  0  0
  -26.0761  -21.9750   20.4994 C   0  0  0  0  0  0  0  0  0  0  0  0
  -20.6181  -19.5091   21.8774 C   0  0  0  0  0  0  0  0  0  0  0  0
  -21.3164  -22.0104   22.8963 C   0  0  0  0  0  0  0  0  0  0  0  0
  -20.0479  -19.9614   23.0673 C   0  0  0  0  0  0  0  0  0  0  0  0
  -24.3537  -14.5002   20.7188 C   0  0  0  0  0  0  0  0  0  0  0  0
  -28.8942  -19.1373   21.9440 C   0  0  0  0  0  0  0  0  0  0  0  0
  -30.0929  -17.3306   21.0751 C   0  0  0  0  0  0  0  0  0  0  0  0
  -25.5532  -12.6573   20.7126 C   0  0  0  0  0  0  0  0  0  0  0  0
  -29.6624  -19.1659   19.8049 C   0  0  0  0  0  0  0  0  0  0  0  0
  -23.2672  -12.3785   21.6847 C   0  0  0  0  0  0  0  0  0  0  0  0
  -28.4640  -23.7858   15.9736 C   0  0  0  0  0  0  0  0  0  0  0  0
  -27.9424  -26.8078   17.0308 C   0  0  0  0  0  0  0  0  0  0  0  0
  -26.7233  -28.8515   19.4771 C   0  0  0  0  0  0  0  0  0  0  0  0
  -30.7986  -15.1268   20.1605 C   0  0  0  0  0  0  0  0  0  0  0  0
  -30.6750  -23.3518   11.3932 C   0  0  0  0  0  0  0  0  0  0  0  0
  -26.0127  -23.6991   16.5562 C   0  0  0  0  0  0  0  0  0  0  0  0
  -27.6084  -24.9523   18.7074 C   0  0  0  0  0  0  0  0  0  0  0  0
  -30.7552  -24.3386   12.5551 C   0  0  0  0  0  0  0  0  0  0  0  0
  -29.0875  -13.3773   17.5809 C   0  0  0  0  0  0  0  0  0  0  0  0
  -30.9417  -23.5960   13.8743 C   0  0  0  0  0  0  0  0  0  0  0  0
  -27.6618  -13.3449   18.1303 C   0  0  0  0  0  0  0  0  0  0  0  0
  -29.7798  -14.7110   17.8636 C   0  0  0  0  0  0  0  0  0  0  0  0
  -28.3364  -15.0740   19.8409 C   0  0  0  0  0  0  0  0  0  0  0  0
  -29.7521  -22.6714   14.1599 C   0  0  1  0  0  0  0  0  0  0  0  0
  -27.2196  -24.5809   16.2511 C   0  0  1  0  0  0  0  0  0  0  0  0
  -27.6359  -13.7240   19.6215 C   0  0  1  0  0  0  0  0  0  0  0  0
  -29.7934  -19.8793   18.5018 C   0  0  0  0  0  0  0  0  0  0  0  0
  -26.4736  -31.2757   20.0757 C   0  0  0  0  0  0  0  0  0  0  0  0
  -30.9031  -26.9307   17.7580 C   0  0  0  0  0  0  0  0  0  0  0  0
  -30.3999  -28.9306   19.1777 C   0  0  0  0  0  0  0  0  0  0  0  0
  -29.9970  -29.0166   16.7174 C   0  0  0  0  0  0  0  0  0  0  0  0
  -31.3516  -15.7144   22.5109 C   0  0  0  0  0  0  0  0  0  0  0  0
  -23.7712  -28.6511   19.5418 C   0  0  0  0  0  0  0  0  0  0  0  0
  -28.1490  -19.8220   23.0619 C   0  0  0  0  0  0  0  0  0  0  0  0
  -26.6497  -19.5168   23.0803 C   0  0  0  0  0  0  0  0  0  0  0  0
  -25.9161  -20.0184   21.8419 C   0  0  0  0  0  0  0  0  0  1  0  0
  -28.4573  -27.6429   18.1783 C   0  0  1  0  0  0  0  0  0  0  0  0
  -25.8219  -30.0713   19.4141 C   0  0  2  0  0  0  0  0  0  0  0  0
  -29.9258  -28.1055   17.9623 C   0  0  0  0  0  0  0  0  0  0  0  0
  -25.5167  -14.8598   20.1692 N   0  0  0  0  0  0  0  0  0  0  0  0
  -28.9920  -19.8104   20.7788 N   0  0  0  0  0  0  0  0  0  0  0  0
  -30.2285  -17.9465   19.8823 N   0  0  0  0  0  0  0  0  0  0  0  0
  -26.2250  -13.7178   20.1794 N   0  0  0  0  0  0  0  0  0  0  0  0
  -27.5367  -25.5027   17.3438 N   0  0  0  0  0  0  0  0  0  0  0  0
  -29.6941  -15.0502   19.2912 N   0  0  0  0  0  0  0  0  0  0  0  0
  -26.1179  -11.4342   20.7995 N   0  0  0  0  0  0  0  0  0  0  0  0
  -22.0650  -13.0293   21.9938 N   0  0  0  0  0  0  0  0  0  0  0  0
  -28.6235  -23.4355   14.6465 N   0  0  0  0  0  0  0  0  0  0  0  0
  -27.5053  -28.7354   18.3474 N   0  0  0  0  0  0  0  0  0  0  0  0
  -30.6726  -16.0192   21.2468 N   0  0  0  0  0  0  0  0  0  0  0  0
  -24.5303  -29.7972   20.1051 N   0  3  0  0  0  0  0  0  0  0  0  0
  -23.3950  -11.1615   21.9608 O   0  0  0  0  0  0  0  0  0  0  0  0
  -29.2240  -23.5118   16.8951 O   0  0  0  0  0  0  0  0  0  0  0  0
  -27.8949  -27.2980   15.8998 O   0  0  0  0  0  0  0  0  0  0  0  0
  -26.7353  -28.0809   20.4345 O   0  0  0  0  0  0  0  0  0  0  0  0
  -31.8087  -14.4324   19.9944 O   0  0  0  0  0  0  0  0  0  0  0  0
  -20.2731  -18.2673   21.3708 O   0  0  0  0  0  0  0  0  0  0  0  0
  -26.0908  -21.4315   21.7469 O   0  0  0  0  0  0  0  0  0  1  0  0
  -21.6529  -23.2108   23.3862 F   0  0  0  0  0  0  0  0  0  0  0  0
  -19.1649  -19.1983   23.7261 F   0  0  0  0  0  0  0  0  0  0  0  0
  1  2  1  0  0  0  0
  1  5  2  0  0  0  0
  2  6  2  0  0  0  0
  3  8  2  0  0  0  0
  3 16  1  0  0  0  0
  4  9  1  0  0  0  0
  4 16  2  0  0  0  0
  5 18  1  0  0  0  0
  6 20  1  0  0  0  0
  7 10  2  0  0  0  0
  7 19  1  0  0  0  0
  8 22  1  0  0  0  0
  9 22  2  0  0  0  0
 10 23  1  0  0  0  0
 11 12  2  0  0  0  0
 11 24  1  0  0  0  0
 12 25  1  0  0  0  0
 13 21  1  0  0  0  0
 13 23  2  0  0  0  0
 14 25  2  0  0  0  0
 14 26  1  0  0  0  0
 15 28  1  0  0  0  0
 15 29  2  0  0  0  0
 16 27  1  0  0  0  0
 17 27  1  0  0  0  0
 17 30  2  0  0  0  0
 17 32  1  0  0  0  0
 18 20  2  0  0  0  0
 18 37  1  0  0  0  0
 19 21  2  0  0  0  0
 19 38  1  0  0  0  0
 20 46  1  0  0  0  0
 21 39  1  0  0  0  0
 22 79  1  0  0  0  0
 23 80  1  0  0  0  0
 24 26  2  0  0  0  0
 24 79  1  0  0  0  0
 25 81  1  0  0  0  0
 26 82  1  0  0  0  0
 27 62  2  0  0  0  0
 28 56  1  0  0  0  0
 28 63  2  0  0  0  0
 29 64  1  0  0  0  0
 29 72  1  0  0  0  0
 30 65  1  0  0  0  0
 30 68  1  0  0  0  0
 31 49  1  0  0  0  0
 31 63  1  0  0  0  0
 31 64  2  0  0  0  0
 32 69  1  0  0  0  0
 32 74  2  0  0  0  0
 33 47  1  0  0  0  0
 33 70  1  0  0  0  0
 33 75  2  0  0  0  0
 34 59  1  0  0  0  0
 34 66  1  0  0  0  0
 34 76  2  0  0  0  0
 35 60  1  0  0  0  0
 35 71  1  0  0  0  0
 35 77  2  0  0  0  0
 36 67  1  0  0  0  0
 36 72  1  0  0  0  0
 36 78  2  0  0  0  0
 37 40  1  0  0  0  0
 38 47  1  0  0  0  0
 39 66  1  0  0  0  0
 40 42  1  0  0  0  0
 41 43  1  0  0  0  0
 41 44  1  0  0  0  0
 42 46  1  0  0  0  0
 43 48  1  0  0  0  0
 44 67  1  0  0  0  0
 45 48  1  0  0  0  0
 45 67  1  0  0  0  0
 46 70  1  0  0  0  0
 47 66  1  0  0  0  0
 48 65  1  0  0  0  0
 50 60  1  0  0  0  0
 51 61  1  0  0  0  0
 52 61  1  0  0  0  0
 53 61  1  0  0  0  0
 54 72  1  0  0  0  0
 55 73  1  0  0  0  0
 56 57  1  0  0  0  0
 57 58  1  0  0  0  0
 58 80  1  0  0  0  0
 59 61  1  0  0  0  0
 59 71  1  0  0  0  0
 60 73  1  0  0  0  0
 62 65  1  0  0  0  0
M  CHG  1  73   1
M  ISO  4  36 100  58 101  72 100  80 101
M  END
> <Batch ID>
0082

> <Smiles>
CNC(C)C(=O)NC(C(=O)N1Cc2cc([101O:1][101CH2:1]CCc3cc([100N:0](C)[100C:0](=O)N4CCCC(n5nc(-c6ccc(Oc7ccc(F)cc7F)cc6)c(C(N)=O)c5N)C4)nc(C)n3)ccc2CC1C(=O)NC1CCCc2ccccc21)C(C)(C)C

> <Shape>
0.171

> <Color>
0.103

> <Negative vol penalty>
0.000

$$$$

  -OEChem-04052318493D

 86 94  0     1  0  0  0  0  0999 V2000
  -16.9010  -30.0751   23.6303 C   0  0  0  0  0  0  0  0  0  0  0  0
  -18.1842  -30.5662   23.4121 C   0  0  0  0  0  0  0  0  0  0  0  0
  -24.7677  -15.0298   21.4326 C   0  0  0  0  0  0  0  0  0  0  0  0
  -27.1221  -14.5735   21.7259 C   0  0  0  0  0  0  0  0  0  0  0  0
  -16.6739  -28.6995   23.6361 C   0  0  0  0  0  0  0  0  0  0  0  0
  -19.2413  -29.6819   23.2006 C   0  0  0  0  0  0  0  0  0  0  0  0
  -25.4061  -29.1106   19.5970 C   0  0  0  0  0  0  0  0  0  0  0  0
  -24.5740  -13.7299   20.9653 C   0  0  0  0  0  0  0  0  0  0  0  0
  -26.9283  -13.2736   21.2587 C   0  0  0  0  0  0  0  0  0  0  0  0
  -26.7515  -28.8100   19.8052 C   0  0  0  0  0  0  0  0  0  0  0  0
  -24.2691  -10.6298   22.2802 C   0  0  0  0  0  0  0  0  0  0  0  0
  -23.1751   -9.9195   22.7746 C   0  0  0  0  0  0  0  0  0  0  0  0
  -26.2266  -26.4559   19.7581 C   0  0  0  0  0  0  0  0  0  0  0  0
  -22.3001   -9.7067   20.5328 C   0  0  0  0  0  0  0  0  0  0  0  0
  -31.6131  -22.4456   21.8143 C   0  0  0  0  0  0  0  0  0  0  0  0
  -31.4743  -20.8928   23.3719 C   0  0  0  0  0  0  0  0  0  0  0  0
  -26.0418  -15.4516   21.8128 C   0  0  0  0  0  0  0  0  0  0  0  0
  -26.1631  -17.2398   23.6282 C   0  0  0  0  0  0  0  0  0  0  0  0
  -17.7271  -27.7981   23.4149 C   0  0  0  0  0  0  0  0  0  0  0  0
  -24.4576  -28.0845   19.4785 C   0  0  0  0  0  0  0  0  0  0  0  0
  -19.0284  -28.2928   23.2047 C   0  0  0  0  0  0  0  0  0  0  0  0
  -24.8702  -26.7461   19.5459 C   0  0  0  0  0  0  0  0  0  0  0  0
  -25.6542  -12.8518   20.8784 C   0  0  0  0  0  0  0  0  0  0  0  0
  -27.1615  -27.4826   19.8886 C   0  0  0  0  0  0  0  0  0  0  0  0
  -24.3785  -10.8786   20.9121 C   0  0  0  0  0  0  0  0  0  0  0  0
  -22.1907   -9.4580   21.9009 C   0  0  0  0  0  0  0  0  0  0  0  0
  -23.3940  -10.4170   20.0383 C   0  0  0  0  0  0  0  0  0  0  0  0
  -26.2427  -16.7945   22.2951 C   0  0  0  0  0  0  0  0  0  0  0  0
  -31.0802  -21.2800   21.3164 C   0  0  0  0  0  0  0  0  0  0  0  0
  -26.4334  -18.5846   23.5577 C   0  0  0  0  0  0  0  0  0  0  0  0
  -25.8711  -16.5036   24.8234 C   0  0  0  0  0  0  0  0  0  0  0  0
  -21.8830  -27.2087   21.1241 C   0  0  0  0  0  0  0  0  0  0  0  0
  -29.4631  -21.8629   19.5345 C   0  0  0  0  0  0  0  0  0  0  0  0
  -21.5299  -25.0895   18.6938 C   0  0  0  0  0  0  0  0  0  0  0  0
  -22.9817  -23.2985   16.1776 C   0  0  0  0  0  0  0  0  0  0  0  0
  -17.4414  -26.3185   23.4772 C   0  0  0  0  0  0  0  0  0  0  0  0
  -23.0142  -28.4249   19.2275 C   0  0  0  0  0  0  0  0  0  0  0  0
  -23.8945  -25.6074   19.4048 C   0  0  0  0  0  0  0  0  0  0  0  0
  -18.5482  -25.4584   22.8726 C   0  0  0  0  0  0  0  0  0  0  0  0
  -26.0804  -22.3338   20.6188 C   0  0  0  0  0  0  0  0  0  0  0  0
  -19.9145  -25.9194   23.3702 C   0  0  0  0  0  0  0  0  0  0  0  0
  -25.7219  -20.9973   21.2673 C   0  0  0  0  0  0  0  0  0  0  0  0
  -27.0088  -22.1432   19.4235 C   0  0  0  0  0  0  0  0  0  0  0  0
  -27.9001  -20.0457   20.3868 C   0  0  0  0  0  0  0  0  0  0  0  0
  -20.1965  -27.3660   22.9467 C   0  0  1  0  0  0  0  0  0  0  0  0
  -22.0574  -27.3088   19.6351 C   0  0  1  0  0  0  0  0  0  0  0  0
  -26.9881  -20.1956   21.6173 C   0  0  2  0  0  0  0  0  0  0  0  0
  -31.7343  -21.1405   18.8782 C   0  0  0  0  0  0  0  0  0  0  0  0
  -22.4441  -21.6240   14.3875 C   0  0  0  0  0  0  0  0  0  0  0  0
  -21.3793  -22.8883   20.8014 C   0  0  0  0  0  0  0  0  0  0  0  0
  -21.7998  -21.2169   18.9854 C   0  0  0  0  0  0  0  0  0  0  0  0
  -19.7533  -22.6416   18.9174 C   0  0  0  0  0  0  0  0  0  0  0  0
  -30.7699  -22.7996   26.0300 C   0  0  0  0  0  0  0  0  0  0  0  0
  -32.2156  -24.8382   26.0327 C   0  0  0  0  0  0  0  0  0  0  0  0
  -23.8430  -25.1441   14.0304 C   0  0  0  0  0  0  0  0  0  0  0  0
  -29.8215  -26.3552   22.5582 C   0  0  0  0  0  0  0  0  0  0  0  0
  -30.9581  -25.6757   23.3295 C   0  0  0  0  0  0  0  0  0  0  0  0
  -30.3614  -27.4125   21.5904 C   0  0  0  0  0  0  0  0  0  0  0  0
  -30.4083  -24.6455   24.3247 C   0  0  0  0  0  0  0  0  0  0  0  0
  -32.4578  -23.1386   24.1398 C   0  0  0  0  0  0  0  0  0  0  0  0
  -29.2462  -28.1256   20.8354 C   0  0  0  0  0  0  0  0  0  1  0  0
  -30.6285  -20.9986   19.9452 C   0  0  1  0  0  0  0  0  0  0  0  0
  -22.0045  -23.6818   18.4254 C   0  0  1  0  0  0  0  0  0  0  0  0
  -22.5873  -23.0998   14.7252 C   0  0  2  0  0  0  0  0  0  0  0  0
  -21.2526  -22.6284   19.2870 C   0  0  0  0  0  0  0  0  0  0  0  0
  -31.4717  -23.8319   25.1273 C   0  0  0  0  0  0  0  0  0  0  0  0
  -30.9961  -20.3175   22.2910 N   0  0  0  0  0  0  0  0  0  0  0  0
  -26.5401  -17.7767   21.4402 N   0  0  0  0  0  0  0  0  0  0  0  0
  -31.8602  -22.1824   23.1322 N   0  0  0  0  0  0  0  0  0  0  0  0
  -26.6497  -18.8526   22.2380 N   0  0  0  0  0  0  0  0  0  0  0  0
  -22.4933  -25.9916   19.1668 N   0  0  0  0  0  0  0  0  0  0  0  0
  -28.1883  -21.3580   19.7915 N   0  0  0  0  0  0  0  0  0  0  0  0
  -26.5047  -19.5521   24.4964 N   0  0  0  0  0  0  0  0  0  0  0  0
  -25.6173  -15.1294   24.7165 N   0  0  0  0  0  0  0  0  0  0  0  0
  -20.5865  -27.4181   21.5540 N   0  0  0  0  0  0  0  0  0  0  0  0
  -21.8793  -23.4761   16.9865 N   0  0  0  0  0  0  0  0  0  0  0  0
  -23.6164  -23.6906   13.8236 N   0  3  0  0  0  0  0  0  0  0  0  0
  -25.8201  -17.0515   25.9507 O   0  0  0  0  0  0  0  0  0  0  0  0
  -22.8526  -26.9586   21.8305 O   0  0  0  0  0  0  0  0  0  0  0  0
  -29.6812  -22.9552   19.0039 O   0  0  0  0  0  0  0  0  0  0  0  0
  -20.3494  -25.3799   18.4844 O   0  0  0  0  0  0  0  0  0  0  0  0
  -24.1507  -23.2926   16.5572 O   0  0  0  0  0  0  0  0  0  0  0  0
  -25.4655  -11.5832   20.4227 O   0  0  0  0  0  0  0  0  0  0  0  0
  -28.4840  -27.1842   20.0940 O   0  0  0  0  0  0  0  0  0  1  0  0
  -21.1410   -8.7746   22.3757 F   0  0  0  0  0  0  0  0  0  0  0  0
  -23.4942  -10.6519   18.7228 F   0  0  0  0  0  0  0  0  0  0  0  0
  1  2  1  0  0  0  0
  1  5  2  0  0  0  0
  2  6  2  0  0  0  0
  3  8  2  0  0  0  0
  3 17  1  0  0  0  0
  4  9  1  0  0  0  0
  4 17  2  0  0  0  0
  5 19  1  0  0  0  0
  6 21  1  0  0  0  0
  7 10  2  0  0  0  0
  7 20  1  0  0  0  0
  8 23  1  0  0  0  0
  9 23  2  0  0  0  0
 10 24  1  0  0  0  0
 11 12  2  0  0  0  0
 11 25  1  0  0  0  0
 12 26  1  0  0  0  0
 13 22  1  0  0  0  0
 13 24  2  0  0  0  0
 14 26  2  0  0  0  0
 14 27  1  0  0  0  0
 15 29  2  0  0  0  0
 15 69  1  0  0  0  0
 16 67  2  0  0  0  0
 16 69  1  0  0  0  0
 17 28  1  0  0  0  0
 18 28  1  0  0  0  0
 18 30  2  0  0  0  0
 18 31  1  0  0  0  0
 19 21  2  0  0  0  0
 19 36  1  0  0  0  0
 20 22  2  0  0  0  0
 20 37  1  0  0  0  0
 21 45  1  0  0  0  0
 22 38  1  0  0  0  0
 23 83  1  0  0  0  0
 24 84  1  0  0  0  0
 25 27  2  0  0  0  0
 25 83  1  0  0  0  0
 26 85  1  0  0  0  0
 27 86  1  0  0  0  0
 28 68  2  0  0  0  0
 29 62  1  0  0  0  0
 29 67  1  0  0  0  0
 30 70  1  0  0  0  0
 30 73  1  0  0  0  0
 31 74  1  0  0  0  0
 31 78  2  0  0  0  0
 32 46  1  0  0  0  0
 32 75  1  0  0  0  0
 32 79  2  0  0  0  0
 33 62  1  0  0  0  0
 33 72  1  0  0  0  0
 33 80  2  0  0  0  0
 34 63  1  0  0  0  0
 34 71  1  0  0  0  0
 34 81  2  0  0  0  0
 35 64  1  0  0  0  0
 35 76  1  0  0  0  0
 35 82  2  0  0  0  0
 36 39  1  0  0  0  0
 37 46  1  0  0  0  0
 38 71  1  0  0  0  0
 39 41  1  0  0  0  0
 40 42  1  0  0  0  0
 40 43  1  0  0  0  0
 41 45  1  0  0  0  0
 42 47  1  0  0  0  0
 43 72  1  0  0  0  0
 44 47  1  0  0  0  0
 44 72  1  0  0  0  0
 45 75  1  0  0  0  0
 46 71  1  0  0  0  0
 47 70  1  0  0  0  0
 48 62  1  0  0  0  0
 49 64  1  0  0  0  0
 50 65  1  0  0  0  0
 51 65  1  0  0  0  0
 52 65  1  0  0  0  0
 53 66  1  0  0  0  0
 54 66  1  0  0  0  0
 55 77  1  0  0  0  0
 56 57  1  0  0  0  0
 56 58  1  0  0  0  0
 57 59  1  0  0  0  0
 58 61  1  0  0  0  0
 59 66  1  0  0  0  0
 60 66  1  0  0  0  0
 60 69  1  0  0  0  0
 61 84  1  0  0  0  0
 63 65  1  0  0  0  0
 63 76  1  0  0  0  0
 64 77  1  0  0  0  0
 68 70  1  0  0  0  0
M  CHG  1  77   1
M  ISO  4  33 100  61 101  62 100  84 101
M  END
> <Batch ID>
0082

> <Smiles>
CNC(C)C(=O)NC(C(=O)N1Cc2cc([101O:1][101CH2:1]CCCCC(C)(C)Cn3cnc([100CH:0](C)[100C:0](=O)N4CCCC(n5nc(-c6ccc(Oc7ccc(F)cc7F)cc6)c(C(N)=O)c5N)C4)c3)ccc2CC1C(=O)NC1CCCc2ccccc21)C(C)(C)C

> <Shape>
0.206

> <Color>
0.084

> <Negative vol penalty>
0.000

$$$$

  -OEChem-04052318493D

 86 94  0     1  0  0  0  0  0999 V2000
  -20.5957  -21.0770   13.5679 C   0  0  0  0  0  0  0  0  0  0  0  0
  -21.1446  -19.7987   13.5756 C   0  0  0  0  0  0  0  0  0  0  0  0
  -26.1441  -28.0294   18.9512 C   0  0  0  0  0  0  0  0  0  0  0  0
  -26.4420  -27.8169   21.3394 C   0  0  0  0  0  0  0  0  0  0  0  0
  -20.9100  -21.9756   14.5866 C   0  0  0  0  0  0  0  0  0  0  0  0
  -22.0091  -19.4186   14.6016 C   0  0  0  0  0  0  0  0  0  0  0  0
  -23.9382  -13.6861   18.4401 C   0  0  0  0  0  0  0  0  0  0  0  0
  -25.1293  -28.9630   19.1609 C   0  0  0  0  0  0  0  0  0  0  0  0
  -25.4271  -28.7506   21.5490 C   0  0  0  0  0  0  0  0  0  0  0  0
  -25.0775  -12.9782   18.8202 C   0  0  0  0  0  0  0  0  0  0  0  0
  -22.0467  -28.8039   21.5230 C   0  0  0  0  0  0  0  0  0  0  0  0
  -21.0925  -28.5157   22.4987 C   0  0  0  0  0  0  0  0  0  0  0  0
  -25.4864  -14.5876   20.5700 C   0  0  0  0  0  0  0  0  0  0  0  0
  -21.7133  -30.5194   23.6976 C   0  0  0  0  0  0  0  0  0  0  0  0
  -29.5621  -15.5357   19.6009 C   0  0  0  0  0  0  0  0  0  0  0  0
  -26.8005  -27.4563   20.0405 C   0  0  0  0  0  0  0  0  0  0  0  0
  -29.2244  -26.7496   19.6761 C   0  0  0  0  0  0  0  0  0  0  0  0
  -21.7711  -21.6031   15.6308 C   0  0  0  0  0  0  0  0  0  0  0  0
  -23.5699  -14.8581   19.1162 C   0  0  0  0  0  0  0  0  0  0  0  0
  -22.3363  -20.3135   15.6345 C   0  0  0  0  0  0  0  0  0  0  0  0
  -24.3405  -15.3072   20.1981 C   0  0  0  0  0  0  0  0  0  0  0  0
  -24.7708  -29.3236   20.4598 C   0  0  0  0  0  0  0  0  0  0  0  0
  -25.8534  -13.4304   19.8835 C   0  0  0  0  0  0  0  0  0  0  0  0
  -22.8343  -29.9497   21.6346 C   0  0  0  0  0  0  0  0  0  0  0  0
  -20.9257  -29.3735   23.5860 C   0  0  0  0  0  0  0  0  0  0  0  0
  -22.6675  -30.8075   22.7219 C   0  0  0  0  0  0  0  0  0  0  0  0
  -27.8485  -26.4913   19.8246 C   0  0  0  0  0  0  0  0  0  0  0  0
  -30.8938  -15.6929   19.9161 C   0  0  0  0  0  0  0  0  0  0  0  0
  -31.1362  -13.4215   20.0248 C   0  0  0  0  0  0  0  0  0  0  0  0
  -29.8043  -13.2644   19.7104 C   0  0  0  0  0  0  0  0  0  0  0  0
  -29.7889  -25.5104   19.4963 C   0  0  0  0  0  0  0  0  0  0  0  0
  -29.9292  -27.9979   19.6989 C   0  0  0  0  0  0  0  0  0  0  0  0
  -23.2320  -17.9100   18.2942 C   0  0  0  0  0  0  0  0  0  0  0  0
  -22.0975  -18.1949   21.3197 C   0  0  0  0  0  0  0  0  0  0  0  0
  -22.0035  -16.9750   24.5056 C   0  0  0  0  0  0  0  0  0  0  0  0
  -29.2268  -20.1671   21.3791 C   0  0  0  0  0  0  0  0  0  0  0  0
  -22.1187  -22.6246   16.6845 C   0  0  0  0  0  0  0  0  0  0  0  0
  -22.3232  -15.5956   18.7109 C   0  0  0  0  0  0  0  0  0  0  0  0
  -23.9769  -16.5486   20.9696 C   0  0  0  0  0  0  0  0  0  0  0  0
  -22.7477  -22.0184   17.9364 C   0  0  0  0  0  0  0  0  0  0  0  0
  -28.1039  -21.0874   18.0641 C   0  0  0  0  0  0  0  0  0  0  0  0
  -23.8368  -21.0201   17.5567 C   0  0  0  0  0  0  0  0  0  0  0  0
  -28.0591  -22.6128   18.1707 C   0  0  0  0  0  0  0  0  0  0  0  0
  -27.6555  -20.4289   19.3654 C   0  0  0  0  0  0  0  0  0  0  0  0
  -28.3747  -22.3865   20.6785 C   0  0  0  0  0  0  0  0  0  0  0  0
  -23.2586  -19.8557   16.7435 C   0  0  1  0  0  0  0  0  0  0  0  0
  -22.3283  -17.0593   19.1411 C   0  0  1  0  0  0  0  0  0  0  0  0
  -28.8383  -23.1116   19.4020 C   0  0  2  0  0  0  0  0  0  0  0  0
  -32.0224  -12.2468   20.2624 C   0  0  0  0  0  0  0  0  0  0  0  0
  -29.7300  -11.6752   17.0457 C   0  0  0  0  0  0  0  0  0  0  0  0
  -21.0203  -17.4439   26.7663 C   0  0  0  0  0  0  0  0  0  0  0  0
  -29.2490  -11.0306   20.8924 C   0  0  0  0  0  0  0  0  0  0  0  0
  -24.1335  -20.4285   21.7393 C   0  0  0  0  0  0  0  0  0  0  0  0
  -23.7732  -20.1987   24.2062 C   0  0  0  0  0  0  0  0  0  0  0  0
  -21.8797  -20.8720   22.7283 C   0  0  0  0  0  0  0  0  0  0  0  0
  -20.5364  -14.4048   24.5289 C   0  0  0  0  0  0  0  0  0  0  0  0
  -31.4879  -17.0532   20.0284 C   0  0  0  0  0  0  0  0  0  0  0  0
  -29.8352  -11.0519   18.4349 C   0  0  0  0  0  0  0  0  0  0  0  0
  -31.4168  -17.6689   21.4410 C   0  0  0  0  0  0  0  0  0  0  0  0
  -29.9971  -17.8815   21.9621 C   0  0  0  0  0  0  0  0  0  0  0  0
  -27.6584  -12.0242   19.2352 C   0  0  0  0  0  0  0  0  0  1  0  0
  -22.7104  -18.4849   22.6685 C   0  0  1  0  0  0  0  0  0  0  0  0
  -20.8438  -16.7070   25.4478 C   0  0  2  0  0  0  0  0  0  0  0  0
  -29.1662  -11.8656   19.5892 C   0  0  2  0  0  0  0  0  0  0  0  0
  -23.1324  -19.9737   22.8200 C   0  0  0  0  0  0  0  0  0  0  0  0
  -28.9934  -14.3186   19.4925 N   0  0  0  0  0  0  0  0  0  0  0  0
  -27.5566  -25.1904   19.7457 N   0  0  0  0  0  0  0  0  0  0  0  0
  -31.7048  -14.6386   20.1336 N   0  0  0  0  0  0  0  0  0  0  0  0
  -28.7570  -24.6200   19.5457 N   0  0  0  0  0  0  0  0  0  0  0  0
  -22.7524  -17.2384   20.5311 N   0  0  0  0  0  0  0  0  0  0  0  0
  -28.4489  -20.9332   20.4952 N   0  0  0  0  0  0  0  0  0  0  0  0
  -31.0623  -25.1065   19.3022 N   0  0  0  0  0  0  0  0  0  0  0  0
  -29.1956  -29.1760   19.8945 N   0  0  0  0  0  0  0  0  0  0  0  0
  -22.5790  -18.9199   17.6136 N   0  0  0  0  0  0  0  0  0  0  0  0
  -21.7421  -18.0342   23.6623 N   0  0  0  0  0  0  0  0  0  0  0  0
  -29.2381  -18.7982   21.1408 N   0  0  0  0  0  0  0  0  0  0  0  0
  -20.7363  -15.2486   25.7352 N   0  3  0  0  0  0  0  0  0  0  0  0
  -31.1707  -28.0682   19.5338 O   0  0  0  0  0  0  0  0  0  0  0  0
  -24.4331  -17.6690   18.2618 O   0  0  0  0  0  0  0  0  0  0  0  0
  -21.0712  -18.7898   20.9814 O   0  0  0  0  0  0  0  0  0  0  0  0
  -23.0392  -16.3135   24.5190 O   0  0  0  0  0  0  0  0  0  0  0  0
  -29.8687  -20.6668   22.3094 O   0  0  0  0  0  0  0  0  0  0  0  0
  -23.7807  -30.2348   20.6647 O   0  0  0  0  0  0  0  0  0  0  0  0
  -26.9663  -12.7417   20.2562 O   0  0  0  0  0  0  0  0  0  1  0  0
  -20.0083  -29.0974   24.5221 F   0  0  0  0  0  0  0  0  0  0  0  0
  -23.4204  -31.9104   22.8339 F   0  0  0  0  0  0  0  0  0  0  0  0
  1  2  1  0  0  0  0
  1  5  2  0  0  0  0
  2  6  2  0  0  0  0
  3  8  2  0  0  0  0
  3 16  1  0  0  0  0
  4  9  1  0  0  0  0
  4 16  2  0  0  0  0
  5 18  1  0  0  0  0
  6 20  1  0  0  0  0
  7 10  2  0  0  0  0
  7 19  1  0  0  0  0
  8 22  1  0  0  0  0
  9 22  2  0  0  0  0
 10 23  1  0  0  0  0
 11 12  2  0  0  0  0
 11 24  1  0  0  0  0
 12 25  1  0  0  0  0
 13 21  1  0  0  0  0
 13 23  2  0  0  0  0
 14 25  2  0  0  0  0
 14 26  1  0  0  0  0
 15 28  1  0  0  0  0
 15 66  2  0  0  0  0
 16 27  1  0  0  0  0
 17 27  1  0  0  0  0
 17 31  2  0  0  0  0
 17 32  1  0  0  0  0
 18 20  2  0  0  0  0
 18 37  1  0  0  0  0
 19 21  2  0  0  0  0
 19 38  1  0  0  0  0
 20 46  1  0  0  0  0
 21 39  1  0  0  0  0
 22 83  1  0  0  0  0
 23 84  1  0  0  0  0
 24 26  2  0  0  0  0
 24 83  1  0  0  0  0
 25 85  1  0  0  0  0
 26 86  1  0  0  0  0
 27 67  2  0  0  0  0
 28 57  1  0  0  0  0
 28 68  2  0  0  0  0
 29 30  2  0  0  0  0
 29 49  1  0  0  0  0
 29 68  1  0  0  0  0
 30 64  1  0  0  0  0
 30 66  1  0  0  0  0
 31 69  1  0  0  0  0
 31 72  1  0  0  0  0
 32 73  1  0  0  0  0
 32 78  2  0  0  0  0
 33 47  1  0  0  0  0
 33 74  1  0  0  0  0
 33 79  2  0  0  0  0
 34 62  1  0  0  0  0
 34 70  1  0  0  0  0
 34 80  2  0  0  0  0
 35 63  1  0  0  0  0
 35 75  1  0  0  0  0
 35 81  2  0  0  0  0
 36 71  1  0  0  0  0
 36 76  1  0  0  0  0
 36 82  2  0  0  0  0
 37 40  1  0  0  0  0
 38 47  1  0  0  0  0
 39 70  1  0  0  0  0
 40 42  1  0  0  0  0
 41 43  1  0  0  0  0
 41 44  1  0  0  0  0
 42 46  1  0  0  0  0
 43 48  1  0  0  0  0
 44 71  1  0  0  0  0
 45 48  1  0  0  0  0
 45 71  1  0  0  0  0
 46 74  1  0  0  0  0
 47 70  1  0  0  0  0
 48 69  1  0  0  0  0
 50 58  1  0  0  0  0
 51 63  1  0  0  0  0
 52 64  1  0  0  0  0
 53 65  1  0  0  0  0
 54 65  1  0  0  0  0
 55 65  1  0  0  0  0
 56 77  1  0  0  0  0
 57 59  1  0  0  0  0
 58 64  1  0  0  0  0
 59 60  1  0  0  0  0
 60 76  1  0  0  0  0
 61 64  1  0  0  0  0
 61 84  1  0  0  0  0
 62 65  1  0  0  0  0
 62 75  1  0  0  0  0
 63 77  1  0  0  0  0
 67 69  1  0  0  0  0
M  CHG  1  77   1
M  ISO  4  36 100  61 101  76 100  84 101
M  END
> <Batch ID>
0082

> <Smiles>
CCC(C)(c1ncc(CCC[100NH:0][100C:0](=O)N2CCCC(n3nc(-c4ccc(Oc5ccc(F)cc5F)cc4)c(C(N)=O)c3N)C2)nc1C)[101CH2:1][101O:1]c1ccc2c(c1)CN(C(=O)C(NC(=O)C(C)NC)C(C)(C)C)C(C(=O)NC1CCCc3ccccc31)C2

> <Shape>
0.241

> <Color>
0.053

> <Negative vol penalty>
0.000

$$$$

  -OEChem-04052318493D

 85 93  0     1  0  0  0  0  0999 V2000
  -31.6515  -24.6464   17.9694 C   0  0  0  0  0  0  0  0  0  0  0  0
  -30.8320  -24.0593   18.9281 C   0  0  0  0  0  0  0  0  0  0  0  0
  -27.4222  -17.3062   19.0231 C   0  0  0  0  0  0  0  0  0  0  0  0
  -27.8564  -17.2814   21.3996 C   0  0  0  0  0  0  0  0  0  0  0  0
  -31.6718  -26.0331   17.8261 C   0  0  0  0  0  0  0  0  0  0  0  0
  -30.0331  -24.8587   19.7449 C   0  0  0  0  0  0  0  0  0  0  0  0
  -25.3189  -23.0669   20.2042 C   0  0  0  0  0  0  0  0  0  0  0  0
  -28.1019  -18.5191   18.9115 C   0  0  0  0  0  0  0  0  0  0  0  0
  -28.5362  -18.4943   21.2880 C   0  0  0  0  0  0  0  0  0  0  0  0
  -25.1268  -21.9963   21.0764 C   0  0  0  0  0  0  0  0  0  0  0  0
  -31.5849  -19.5564   20.2890 C   0  0  0  0  0  0  0  0  0  0  0  0
  -32.8042  -19.6778   20.9553 C   0  0  0  0  0  0  0  0  0  0  0  0
  -24.3155  -23.5214   22.7601 C   0  0  0  0  0  0  0  0  0  0  0  0
  -21.6649  -17.1705   25.5544 C   0  0  0  0  0  0  0  0  0  0  0  0
  -31.9195  -21.5241   22.2381 C   0  0  0  0  0  0  0  0  0  0  0  0
  -23.2095  -18.2587   26.9820 C   0  0  0  0  0  0  0  0  0  0  0  0
  -27.2994  -16.6874   20.2672 C   0  0  0  0  0  0  0  0  0  0  0  0
  -27.1409  -14.1413   20.2705 C   0  0  0  0  0  0  0  0  0  0  0  0
  -30.8656  -26.8494   18.6351 C   0  0  0  0  0  0  0  0  0  0  0  0
  -25.0205  -24.3763   20.6079 C   0  0  0  0  0  0  0  0  0  0  0  0
  -30.0437  -26.2577   19.6132 C   0  0  0  0  0  0  0  0  0  0  0  0
  -24.5022  -24.6066   21.8903 C   0  0  0  0  0  0  0  0  0  0  0  0
  -22.5550  -18.2083   25.7677 C   0  0  0  0  0  0  0  0  0  0  0  0
  -28.6589  -19.1131   20.0439 C   0  0  0  0  0  0  0  0  0  0  0  0
  -24.6278  -22.2238   22.3556 C   0  0  0  0  0  0  0  0  0  0  0  0
  -30.5328  -20.4189   20.5972 C   0  0  0  0  0  0  0  0  0  0  0  0
  -32.9716  -20.6616   21.9298 C   0  0  0  0  0  0  0  0  0  0  0  0
  -30.7001  -21.4027   21.5718 C   0  0  0  0  0  0  0  0  0  0  0  0
  -26.5968  -15.4348   20.3832 C   0  0  0  0  0  0  0  0  0  0  0  0
  -21.4885  -16.2516   26.5693 C   0  0  0  0  0  0  0  0  0  0  0  0
  -26.0708  -13.3011   20.4581 C   0  0  0  0  0  0  0  0  0  0  0  0
  -28.4929  -13.7356   20.0188 C   0  0  0  0  0  0  0  0  0  0  0  0
  -26.7029  -27.0473   20.9803 C   0  0  0  0  0  0  0  0  0  0  0  0
  -23.7834  -28.3466   21.5375 C   0  0  0  0  0  0  0  0  0  0  0  0
  -20.5465  -27.8866   22.5163 C   0  0  0  0  0  0  0  0  0  0  0  0
  -20.8394  -13.9337   23.3013 C   0  0  0  0  0  0  0  0  0  0  0  0
  -30.9568  -28.3463   18.4753 C   0  0  0  0  0  0  0  0  0  0  0  0
  -25.2081  -25.5172   19.6459 C   0  0  0  0  0  0  0  0  0  0  0  0
  -24.1470  -25.9911   22.3652 C   0  0  0  0  0  0  0  0  0  0  0  0
  -29.8001  -29.1000   19.1266 C   0  0  0  0  0  0  0  0  0  0  0  0
  -21.3264  -13.0929   19.8760 C   0  0  0  0  0  0  0  0  0  0  0  0
  -29.5426  -28.5702   20.5337 C   0  0  0  0  0  0  0  0  0  0  0  0
  -22.7815  -13.4811   19.6074 C   0  0  0  0  0  0  0  0  0  0  0  0
  -20.6496  -14.0697   20.8352 C   0  0  0  0  0  0  0  0  0  0  0  0
  -22.8185  -14.6706   21.8395 C   0  0  0  0  0  0  0  0  0  0  0  0
  -29.1442  -27.0897   20.5014 C   0  0  1  0  0  0  0  0  0  0  0  0
  -25.3550  -26.8671   20.3414 C   0  0  1  0  0  0  0  0  0  0  0  0
  -23.5596  -13.6835   20.9215 C   0  0  2  0  0  0  0  0  0  0  0  0
  -23.0141  -12.0631   26.0108 C   0  0  0  0  0  0  0  0  0  0  0  0
  -19.8566  -14.7722   27.7364 C   0  0  0  0  0  0  0  0  0  0  0  0
  -18.4095  -29.1425   22.9077 C   0  0  0  0  0  0  0  0  0  0  0  0
  -24.9077  -29.4389   24.1553 C   0  0  0  0  0  0  0  0  0  0  0  0
  -22.5565  -29.8374   24.9179 C   0  0  0  0  0  0  0  0  0  0  0  0
  -23.4332  -31.0287   22.9092 C   0  0  0  0  0  0  0  0  0  0  0  0
  -19.1121  -26.3190   20.4561 C   0  0  0  0  0  0  0  0  0  0  0  0
  -22.8021  -19.2515   24.7074 C   0  0  0  0  0  0  0  0  0  0  0  0
  -22.3527  -13.2976   26.6134 C   0  0  0  0  0  0  0  0  0  0  0  0
  -23.9400  -18.8968   23.7478 C   0  0  0  0  0  0  0  0  0  0  0  0
  -24.1260  -19.9153   22.6291 C   0  0  0  0  0  0  0  0  0  1  0  0
  -20.5419  -15.1147   26.3901 C   0  0  2  0  0  0  0  0  0  0  0  0
  -22.9225  -28.5571   22.7597 C   0  0  1  0  0  0  0  0  0  0  0  0
  -19.2348  -28.3482   21.9073 C   0  0  2  0  0  0  0  0  0  0  0  0
  -21.1883  -13.8335   25.7564 C   0  0  1  0  0  0  0  0  0  0  0  0
  -23.4634  -29.6896   23.6776 C   0  0  0  0  0  0  0  0  0  0  0  0
  -23.0174  -17.3456   27.9575 N   0  0  0  0  0  0  0  0  0  0  0  0
  -25.2830  -15.4223   20.6236 N   0  0  0  0  0  0  0  0  0  0  0  0
  -22.1428  -16.3254   27.7476 N   0  0  0  0  0  0  0  0  0  0  0  0
  -24.9926  -14.1108   20.6634 N   0  0  0  0  0  0  0  0  0  0  0  0
  -24.3542  -27.0745   21.3900 N   0  0  0  0  0  0  0  0  0  0  0  0
  -21.4370  -14.2157   22.0618 N   0  0  0  0  0  0  0  0  0  0  0  0
  -25.9562  -11.9560   20.4658 N   0  0  0  0  0  0  0  0  0  0  0  0
  -29.4679  -14.7282   19.8502 N   0  0  0  0  0  0  0  0  0  0  0  0
  -27.7617  -26.9471   20.0979 N   0  0  0  0  0  0  0  0  0  0  0  0
  -21.5666  -28.7811   22.2702 N   0  0  0  0  0  0  0  0  0  0  0  0
  -21.6576  -14.0914   24.4133 N   0  0  0  0  0  0  0  0  0  0  0  0
  -18.4305  -27.1760   21.4600 N   0  3  0  0  0  0  0  0  0  0  0  0
  -28.8234  -12.5288   19.9293 O   0  0  0  0  0  0  0  0  0  0  0  0
  -26.7769  -27.2629   22.1843 O   0  0  0  0  0  0  0  0  0  0  0  0
  -23.9376  -29.2743   20.7394 O   0  0  0  0  0  0  0  0  0  0  0  0
  -20.6545  -26.8392   23.1502 O   0  0  0  0  0  0  0  0  0  0  0  0
  -19.6654  -13.5635   23.4086 O   0  0  0  0  0  0  0  0  0  0  0  0
  -29.3225  -20.2965   19.9354 O   0  0  0  0  0  0  0  0  0  0  0  0
  -24.4399  -21.1807   23.2091 O   0  0  0  0  0  0  0  0  0  1  0  0
  -34.1421  -20.7771   22.5707 F   0  0  0  0  0  0  0  0  0  0  0  0
  -29.6926  -22.2334   21.8730 F   0  0  0  0  0  0  0  0  0  0  0  0
  1  2  1  0  0  0  0
  1  5  2  0  0  0  0
  2  6  2  0  0  0  0
  3  8  2  0  0  0  0
  3 17  1  0  0  0  0
  4  9  1  0  0  0  0
  4 17  2  0  0  0  0
  5 19  1  0  0  0  0
  6 21  1  0  0  0  0
  7 10  2  0  0  0  0
  7 20  1  0  0  0  0
  8 24  1  0  0  0  0
  9 24  2  0  0  0  0
 10 25  1  0  0  0  0
 11 12  2  0  0  0  0
 11 26  1  0  0  0  0
 12 27  1  0  0  0  0
 13 22  1  0  0  0  0
 13 25  2  0  0  0  0
 14 23  2  0  0  0  0
 14 30  1  0  0  0  0
 15 27  2  0  0  0  0
 15 28  1  0  0  0  0
 16 23  1  0  0  0  0
 16 65  2  0  0  0  0
 17 29  1  0  0  0  0
 18 29  1  0  0  0  0
 18 31  2  0  0  0  0
 18 32  1  0  0  0  0
 19 21  2  0  0  0  0
 19 37  1  0  0  0  0
 20 22  2  0  0  0  0
 20 38  1  0  0  0  0
 21 46  1  0  0  0  0
 22 39  1  0  0  0  0
 23 56  1  0  0  0  0
 24 82  1  0  0  0  0
 25 83  1  0  0  0  0
 26 28  2  0  0  0  0
 26 82  1  0  0  0  0
 27 84  1  0  0  0  0
 28 85  1  0  0  0  0
 29 66  2  0  0  0  0
 30 60  1  0  0  0  0
 30 67  2  0  0  0  0
 31 68  1  0  0  0  0
 31 71  1  0  0  0  0
 32 72  1  0  0  0  0
 32 77  2  0  0  0  0
 33 47  1  0  0  0  0
 33 73  1  0  0  0  0
 33 78  2  0  0  0  0
 34 61  1  0  0  0  0
 34 69  1  0  0  0  0
 34 79  2  0  0  0  0
 35 62  1  0  0  0  0
 35 74  1  0  0  0  0
 35 80  2  0  0  0  0
 36 70  1  0  0  0  0
 36 75  1  0  0  0  0
 36 81  2  0  0  0  0
 37 40  1  0  0  0  0
 38 47  1  0  0  0  0
 39 69  1  0  0  0  0
 40 42  1  0  0  0  0
 41 43  1  0  0  0  0
 41 44  1  0  0  0  0
 42 46  1  0  0  0  0
 43 48  1  0  0  0  0
 44 70  1  0  0  0  0
 45 48  1  0  0  0  0
 45 70  1  0  0  0  0
 46 73  1  0  0  0  0
 47 69  1  0  0  0  0
 48 68  1  0  0  0  0
 49 57  1  0  0  0  0
 50 60  1  0  0  0  0
 51 62  1  0  0  0  0
 52 64  1  0  0  0  0
 53 64  1  0  0  0  0
 54 64  1  0  0  0  0
 55 76  1  0  0  0  0
 56 58  1  0  0  0  0
 57 63  1  0  0  0  0
 58 59  1  0  0  0  0
 59 83  1  0  0  0  0
 60 63  1  0  0  0  0
 61 64  1  0  0  0  0
 61 74  1  0  0  0  0
 62 76  1  0  0  0  0
 63 75  1  0  0  0  0
 65 67  1  0  0  0  0
 66 68  1  0  0  0  0
M  CHG  1  76   1
M  ISO  4  36 100  59 101  75 100  83 101
M  END
> <Batch ID>
0082

> <Smiles>
CCC([100NH:0][100C:0](=O)N1CCCC(n2nc(-c3ccc(Oc4ccc(F)cc4F)cc3)c(C(N)=O)c2N)C1)C(C)c1cc(CC[101CH2:1][101O:1]c2ccc3c(c2)CN(C(=O)C(NC(=O)C(C)NC)C(C)(C)C)C(C(=O)NC2CCCc4ccccc42)C3)cnn1

> <Shape>
0.231

> <Color>
0.064

> <Negative vol penalty>
0.000

$$$$

  -OEChem-04052318493D

 84 92  0     1  0  0  0  0  0999 V2000
  -29.6414  -23.8590   18.2593 C   0  0  0  0  0  0  0  0  0  0  0  0
  -28.2675  -23.9369   18.4640 C   0  0  0  0  0  0  0  0  0  0  0  0
  -26.4623  -14.7912   21.6394 C   0  0  0  0  0  0  0  0  0  0  0  0
  -26.2272  -15.0303   19.2468 C   0  0  0  0  0  0  0  0  0  0  0  0
  -30.5135  -24.4982   19.1395 C   0  0  0  0  0  0  0  0  0  0  0  0
  -27.7651  -24.6531   19.5498 C   0  0  0  0  0  0  0  0  0  0  0  0
  -22.5768  -27.9018   19.7338 C   0  0  0  0  0  0  0  0  0  0  0  0
  -26.3153  -13.4096   21.5159 C   0  0  0  0  0  0  0  0  0  0  0  0
  -26.0802  -13.6487   19.1232 C   0  0  0  0  0  0  0  0  0  0  0  0
  -21.3034  -27.6088   20.2201 C   0  0  0  0  0  0  0  0  0  0  0  0
  -25.6421   -9.8535   21.8680 C   0  0  0  0  0  0  0  0  0  0  0  0
  -24.7958   -9.2067   22.7685 C   0  0  0  0  0  0  0  0  0  0  0  0
  -21.8506  -28.7066   22.2973 C   0  0  0  0  0  0  0  0  0  0  0  0
  -21.2275  -24.8694   23.7225 C   0  0  0  0  0  0  0  0  0  0  0  0
  -22.9442  -10.5521   21.9947 C   0  0  0  0  0  0  0  0  0  0  0  0
  -26.4182  -15.6015   20.5049 C   0  0  0  0  0  0  0  0  0  0  0  0
  -27.7693  -17.7638   20.5873 C   0  0  0  0  0  0  0  0  0  0  0  0
  -30.0211  -25.2306   20.2311 C   0  0  0  0  0  0  0  0  0  0  0  0
  -23.5020  -28.5910   20.5311 C   0  0  0  0  0  0  0  0  0  0  0  0
  -28.6315  -25.3016   20.4462 C   0  0  0  0  0  0  0  0  0  0  0  0
  -23.1342  -29.0093   21.8179 C   0  0  0  0  0  0  0  0  0  0  0  0
  -22.1625  -23.8470   23.6044 C   0  0  0  0  0  0  0  0  0  0  0  0
  -19.8714  -24.5636   23.7542 C   0  0  0  0  0  0  0  0  0  0  0  0
  -26.1242  -12.8384   20.2578 C   0  0  0  0  0  0  0  0  0  0  0  0
  -20.9411  -28.0087   21.5030 C   0  0  0  0  0  0  0  0  0  0  0  0
  -25.1396  -10.8496   21.0309 C   0  0  0  0  0  0  0  0  0  0  0  0
  -23.4468   -9.5560   22.8319 C   0  0  0  0  0  0  0  0  0  0  0  0
  -23.7906  -11.1989   21.0942 C   0  0  0  0  0  0  0  0  0  0  0  0
  -26.5694  -17.0288   20.6320 C   0  0  0  0  0  0  0  0  0  0  0  0
  -21.6937  -22.5458   23.5222 C   0  0  0  0  0  0  0  0  0  0  0  0
  -19.5051  -23.2303   23.6654 C   0  0  0  0  0  0  0  0  0  0  0  0
  -27.3783  -19.0697   20.7554 C   0  0  0  0  0  0  0  0  0  0  0  0
  -29.1166  -17.3070   20.4097 C   0  0  0  0  0  0  0  0  0  0  0  0
  -22.6169  -21.4113   23.3968 C   0  0  0  0  0  0  0  0  0  0  0  0
  -26.3633  -27.9159   21.7397 C   0  0  0  0  0  0  0  0  0  0  0  0
  -26.2730  -31.0228   22.6677 C   0  0  0  0  0  0  0  0  0  0  0  0
  -24.3901  -33.7637   23.4352 C   0  0  0  0  0  0  0  0  0  0  0  0
  -31.0045  -25.8651   21.1824 C   0  0  0  0  0  0  0  0  0  0  0  0
  -24.8624  -28.9227   19.9820 C   0  0  0  0  0  0  0  0  0  0  0  0
  -24.0837  -29.7695   22.7062 C   0  0  0  0  0  0  0  0  0  0  0  0
  -30.3777  -26.9162   22.0950 C   0  0  0  0  0  0  0  0  0  0  0  0
  -23.6875  -22.0097   19.9818 C   0  0  0  0  0  0  0  0  0  0  0  0
  -29.0756  -26.3946   22.6943 C   0  0  0  0  0  0  0  0  0  0  0  0
  -24.6524  -20.8448   19.7574 C   0  0  0  0  0  0  0  0  0  0  0  0
  -22.5095  -21.5948   20.8580 C   0  0  0  0  0  0  0  0  0  0  0  0
  -23.8709  -19.8450   21.9525 C   0  0  0  0  0  0  0  0  0  0  0  0
  -28.0472  -26.0896   21.5985 C   0  0  1  0  0  0  0  0  0  0  0  0
  -25.8999  -29.1790   21.0707 C   0  0  1  0  0  0  0  0  0  0  0  0
  -25.0917  -20.2199   21.0944 C   0  0  1  0  0  0  0  0  0  0  0  0
  -17.8704  -21.3443   23.9045 C   0  0  0  0  0  0  0  0  0  0  0  0
  -24.1033  -24.8440   24.8665 C   0  0  0  0  0  0  0  0  0  0  0  0
  -23.9994  -25.0384   22.3552 C   0  0  0  0  0  0  0  0  0  0  0  0
  -24.5977  -36.1462   24.1956 C   0  0  0  0  0  0  0  0  0  0  0  0
  -26.8708  -30.0636   25.5018 C   0  0  0  0  0  0  0  0  0  0  0  0
  -26.1338  -32.3044   26.3409 C   0  0  0  0  0  0  0  0  0  0  0  0
  -28.1021  -32.1303   24.8185 C   0  0  0  0  0  0  0  0  0  0  0  0
  -23.0939  -34.7829   20.9775 C   0  0  0  0  0  0  0  0  0  0  0  0
  -18.8523  -25.6676   23.8809 C   0  0  0  0  0  0  0  0  0  0  0  0
  -18.0627  -22.8430   23.6941 C   0  0  0  0  0  0  0  0  0  0  0  0
  -18.1376  -25.9997   22.5692 C   0  0  0  0  0  0  0  0  0  0  0  0
  -19.0720  -26.5382   21.4921 C   0  0  0  0  0  0  0  0  0  1  0  0
  -23.6168  -24.1697   23.5691 C   0  0  0  0  0  0  0  0  0  0  0  0
  -25.7801  -31.7598   23.8895 C   0  0  1  0  0  0  0  0  0  0  0  0
  -24.4970  -35.2137   22.9985 C   0  0  2  0  0  0  0  0  0  0  0  0
  -26.7043  -31.5485   25.1219 C   0  0  0  0  0  0  0  0  0  0  0  0
  -25.4967  -17.8034   20.8143 N   0  0  0  0  0  0  0  0  0  0  0  0
  -20.3844  -22.2099   23.5498 N   0  0  0  0  0  0  0  0  0  0  0  0
  -26.0211  -19.0387   20.8858 N   0  0  0  0  0  0  0  0  0  0  0  0
  -22.9819  -20.9973   22.1134 N   0  0  0  0  0  0  0  0  0  0  0  0
  -25.4045  -30.0644   22.1264 N   0  0  0  0  0  0  0  0  0  0  0  0
  -28.0667  -20.2301   20.8029 N   0  0  0  0  0  0  0  0  0  0  0  0
  -29.3407  -15.9326   20.2511 N   0  0  0  0  0  0  0  0  0  0  0  0
  -27.4410  -27.3134   21.1194 N   0  0  0  0  0  0  0  0  0  0  0  0
  -25.6259  -33.1545   23.4905 N   0  0  0  0  0  0  0  0  0  0  0  0
  -23.3015  -35.6032   22.1985 N   0  3  0  0  0  0  0  0  0  0  0  0
  -30.0946  -18.0926   20.4086 O   0  0  0  0  0  0  0  0  0  0  0  0
  -23.0106  -20.9132   24.4505 O   0  0  0  0  0  0  0  0  0  0  0  0
  -25.7866  -27.5183   22.7453 O   0  0  0  0  0  0  0  0  0  0  0  0
  -27.3846  -31.2928   22.2061 O   0  0  0  0  0  0  0  0  0  0  0  0
  -23.3180  -33.2264   23.7042 O   0  0  0  0  0  0  0  0  0  0  0  0
  -25.9809  -11.4903   20.1368 O   0  0  0  0  0  0  0  0  0  0  0  0
  -19.6991  -27.7234   21.9803 O   0  0  0  0  0  0  0  0  0  1  0  0
  -22.6338   -8.9337   23.6956 F   0  0  0  0  0  0  0  0  0  0  0  0
  -23.3018  -12.1543   20.2916 F   0  0  0  0  0  0  0  0  0  0  0  0
  1  2  1  0  0  0  0
  1  5  2  0  0  0  0
  2  6  2  0  0  0  0
  3  8  2  0  0  0  0
  3 16  1  0  0  0  0
  4  9  1  0  0  0  0
  4 16  2  0  0  0  0
  5 18  1  0  0  0  0
  6 20  1  0  0  0  0
  7 10  2  0  0  0  0
  7 19  1  0  0  0  0
  8 24  1  0  0  0  0
  9 24  2  0  0  0  0
 10 25  1  0  0  0  0
 11 12  2  0  0  0  0
 11 26  1  0  0  0  0
 12 27  1  0  0  0  0
 13 21  1  0  0  0  0
 13 25  2  0  0  0  0
 14 22  2  0  0  0  0
 14 23  1  0  0  0  0
 15 27  2  0  0  0  0
 15 28  1  0  0  0  0
 16 29  1  0  0  0  0
 17 29  1  0  0  0  0
 17 32  2  0  0  0  0
 17 33  1  0  0  0  0
 18 20  2  0  0  0  0
 18 38  1  0  0  0  0
 19 21  2  0  0  0  0
 19 39  1  0  0  0  0
 20 47  1  0  0  0  0
 21 40  1  0  0  0  0
 22 30  1  0  0  0  0
 22 62  1  0  0  0  0
 23 31  2  0  0  0  0
 23 58  1  0  0  0  0
 24 81  1  0  0  0  0
 25 82  1  0  0  0  0
 26 28  2  0  0  0  0
 26 81  1  0  0  0  0
 27 83  1  0  0  0  0
 28 84  1  0  0  0  0
 29 66  2  0  0  0  0
 30 34  1  0  0  0  0
 30 67  2  0  0  0  0
 31 59  1  0  0  0  0
 31 67  1  0  0  0  0
 32 68  1  0  0  0  0
 32 71  1  0  0  0  0
 33 72  1  0  0  0  0
 33 76  2  0  0  0  0
 34 69  1  0  0  0  0
 34 77  2  0  0  0  0
 35 48  1  0  0  0  0
 35 73  1  0  0  0  0
 35 78  2  0  0  0  0
 36 63  1  0  0  0  0
 36 70  1  0  0  0  0
 36 79  2  0  0  0  0
 37 64  1  0  0  0  0
 37 74  1  0  0  0  0
 37 80  2  0  0  0  0
 38 41  1  0  0  0  0
 39 48  1  0  0  0  0
 40 70  1  0  0  0  0
 41 43  1  0  0  0  0
 42 44  1  0  0  0  0
 42 45  1  0  0  0  0
 43 47  1  0  0  0  0
 44 49  1  0  0  0  0
 45 69  1  0  0  0  0
 46 49  1  0  0  0  0
 46 69  1  0  0  0  0
 47 73  1  0  0  0  0
 48 70  1  0  0  0  0
 49 68  1  0  0  0  0
 50 59  1  0  0  0  0
 51 62  1  0  0  0  0
 52 62  1  0  0  0  0
 53 64  1  0  0  0  0
 54 65  1  0  0  0  0
 55 65  1  0  0  0  0
 56 65  1  0  0  0  0
 57 75  1  0  0  0  0
 58 60  1  0  0  0  0
 60 61  1  0  0  0  0
 61 82  1  0  0  0  0
 63 65  1  0  0  0  0
 63 74  1  0  0  0  0
 64 75  1  0  0  0  0
 66 68  1  0  0  0  0
M  CHG  1  75   1
M  ISO  4  30 100  34 100  61 101  82 101
M  END
> <Batch ID>
0082

> <Smiles>
CCc1n[100c:0]([100C:0](=O)N2CCCC(n3nc(-c4ccc(Oc5ccc(F)cc5F)cc4)c(C(N)=O)c3N)C2)c(C(C)C)cc1CC[101CH2:1][101O:1]c1ccc2c(c1)CN(C(=O)C(NC(=O)C(C)NC)C(C)(C)C)C(C(=O)NC1CCCc3ccccc31)C2

> <Shape>
0.278

> <Color>
0.067

> <Negative vol penalty>
0.000

$$$$

  -OEChem-04052318493D

 83 91  0     1  0  0  0  0  0999 V2000
  -19.0488  -18.9905   25.6229 C   0  0  0  0  0  0  0  0  0  0  0  0
  -20.0756  -18.9178   24.6870 C   0  0  0  0  0  0  0  0  0  0  0  0
  -23.1901   -9.8170   19.9370 C   0  0  0  0  0  0  0  0  0  0  0  0
  -23.5755  -10.0054   22.3146 C   0  0  0  0  0  0  0  0  0  0  0  0
  -19.2547  -19.6538   26.8318 C   0  0  0  0  0  0  0  0  0  0  0  0
  -21.3086  -19.5095   24.9591 C   0  0  0  0  0  0  0  0  0  0  0  0
  -26.8253  -17.4785   23.2425 C   0  0  0  0  0  0  0  0  0  0  0  0
  -22.4257   -8.6702   20.1518 C   0  0  0  0  0  0  0  0  0  0  0  0
  -22.8111   -8.8586   22.5294 C   0  0  0  0  0  0  0  0  0  0  0  0
  -27.6672  -17.8284   22.1876 C   0  0  0  0  0  0  0  0  0  0  0  0
  -23.2149   -5.5115   22.2748 C   0  0  0  0  0  0  0  0  0  0  0  0
  -23.7170   -4.5535   23.1555 C   0  0  0  0  0  0  0  0  0  0  0  0
  -28.8726  -19.3190   23.6520 C   0  0  0  0  0  0  0  0  0  0  0  0
  -21.7645   -4.8159   24.5541 C   0  0  0  0  0  0  0  0  0  0  0  0
  -31.2457  -16.0446   22.2340 C   0  0  0  0  0  0  0  0  0  0  0  0
  -23.7651  -10.4846   21.0185 C   0  0  0  0  0  0  0  0  0  0  0  0
  -24.1003  -13.0008   20.7656 C   0  0  0  0  0  0  0  0  0  0  0  0
  -20.4940  -20.2456   27.1229 C   0  0  0  0  0  0  0  0  0  0  0  0
  -26.9943  -18.0555   24.5094 C   0  0  0  0  0  0  0  0  0  0  0  0
  -21.5308  -20.1825   26.1725 C   0  0  0  0  0  0  0  0  0  0  0  0
  -28.0332  -18.9728   24.7219 C   0  0  0  0  0  0  0  0  0  0  0  0
  -22.2361   -8.1910   21.4480 C   0  0  0  0  0  0  0  0  0  0  0  0
  -28.6892  -18.7509   22.3915 C   0  0  0  0  0  0  0  0  0  0  0  0
  -21.9876   -6.1218   22.5337 C   0  0  0  0  0  0  0  0  0  0  0  0
  -22.9918   -4.2057   24.2951 C   0  0  0  0  0  0  0  0  0  0  0  0
  -21.2624   -5.7739   23.6733 C   0  0  0  0  0  0  0  0  0  0  0  0
  -24.5553  -11.6689   20.7972 C   0  0  0  0  0  0  0  0  0  0  0  0
  -31.9753  -15.4106   23.1997 C   0  0  0  0  0  0  0  0  0  0  0  0
  -25.2300  -13.7439   20.5245 C   0  0  0  0  0  0  0  0  0  0  0  0
  -33.3803  -16.5319   21.9076 C   0  0  0  0  0  0  0  0  0  0  0  0
  -22.7751  -13.5198   20.9389 C   0  0  0  0  0  0  0  0  0  0  0  0
  -25.2067  -19.8830   26.3984 C   0  0  0  0  0  0  0  0  0  0  0  0
  -27.6306  -19.4057   28.5006 C   0  0  0  0  0  0  0  0  0  0  0  0
  -30.9188  -18.6456   29.0072 C   0  0  0  0  0  0  0  0  0  0  0  0
  -31.0490  -12.7633   21.5388 C   0  0  0  0  0  0  0  0  0  0  0  0
  -20.6541  -20.9926   28.4233 C   0  0  0  0  0  0  0  0  0  0  0  0
  -26.0946  -17.6474   25.6436 C   0  0  0  0  0  0  0  0  0  0  0  0
  -28.2695  -19.6056   26.0681 C   0  0  0  0  0  0  0  0  0  0  0  0
  -22.1095  -21.2697   28.7913 C   0  0  0  0  0  0  0  0  0  0  0  0
  -29.5112  -13.4691   18.4062 C   0  0  0  0  0  0  0  0  0  0  0  0
  -22.8712  -21.8111   27.5856 C   0  0  0  0  0  0  0  0  0  0  0  0
  -28.0256  -13.2079   18.6609 C   0  0  0  0  0  0  0  0  0  0  0  0
  -30.3959  -12.4831   19.1658 C   0  0  0  0  0  0  0  0  0  0  0  0
  -28.6479  -12.1439   20.8698 C   0  0  0  0  0  0  0  0  0  0  0  0
  -22.8904  -20.7904   26.4414 C   0  0  1  0  0  0  0  0  0  0  0  0
  -26.0354  -18.6835   26.7618 C   0  0  1  0  0  0  0  0  0  0  0  0
  -27.7173  -13.1484   20.1691 C   0  0  2  0  0  0  0  0  0  0  0  0
  -34.6377  -17.0902   21.3508 C   0  0  0  0  0  0  0  0  0  0  0  0
  -30.1821  -14.9237   24.8942 C   0  0  0  0  0  0  0  0  0  0  0  0
  -32.6179  -18.3683   30.8330 C   0  0  0  0  0  0  0  0  0  0  0  0
  -27.8058  -22.4376   28.7948 C   0  0  0  0  0  0  0  0  0  0  0  0
  -30.0607  -22.1361   29.8401 C   0  0  0  0  0  0  0  0  0  0  0  0
  -28.0402  -21.1665   30.9358 C   0  0  0  0  0  0  0  0  0  0  0  0
  -31.3915  -15.8120   28.2958 C   0  0  0  0  0  0  0  0  0  0  0  0
  -31.7675  -19.0802   20.5458 C   0  0  0  0  0  0  0  0  0  0  0  0
  -31.7752  -17.5777   20.2558 C   0  0  0  0  0  0  0  0  0  0  0  0
  -31.5464  -13.0227   23.9564 C   0  0  0  0  0  0  0  0  0  0  0  0
  -30.8479  -19.4683   21.6978 C   0  0  0  0  0  0  0  0  0  1  0  0
  -31.5679  -14.5414   24.3066 C   0  0  1  0  0  0  0  0  0  0  0  0
  -28.9270  -20.1120   28.8159 C   0  0  1  0  0  0  0  0  0  0  0  0
  -31.5926  -17.6689   29.9541 C   0  0  2  0  0  0  0  0  0  0  0  0
  -28.7030  -21.4528   29.5707 C   0  0  0  0  0  0  0  0  0  0  0  0
  -25.8713  -11.5686   20.5923 N   0  0  0  0  0  0  0  0  0  0  0  0
  -32.1403  -16.7312   21.4490 N   0  0  0  0  0  0  0  0  0  0  0  0
  -26.2530  -12.8468   20.4296 N   0  0  0  0  0  0  0  0  0  0  0  0
  -33.2926  -15.7295   22.9734 N   0  3  0  0  0  0  0  0  0  0  0  0
  -27.3593  -19.1790   27.1438 N   0  0  0  0  0  0  0  0  0  0  0  0
  -30.0537  -12.4761   20.5902 N   0  0  0  0  0  0  0  0  0  0  0  0
  -25.4381  -15.0705   20.3863 N   0  0  0  0  0  0  0  0  0  0  0  0
  -21.7301  -12.6172   21.1791 N   0  0  0  0  0  0  0  0  0  0  0  0
  -23.8655  -19.7541   26.7049 N   0  0  0  0  0  0  0  0  0  0  0  0
  -29.7508  -19.1495   29.5393 N   0  0  0  0  0  0  0  0  0  0  0  0
  -30.6389  -12.7417   22.8663 N   0  0  0  0  0  0  0  0  0  0  0  0
  -32.2858  -16.5968   29.1854 N   0  3  0  0  0  0  0  0  0  0  0  0
  -22.5224  -14.7464   20.8661 O   0  0  0  0  0  0  0  0  0  0  0  0
  -25.7446  -20.8543   25.8797 O   0  0  0  0  0  0  0  0  0  0  0  0
  -26.8894  -19.0611   29.4245 O   0  0  0  0  0  0  0  0  0  0  0  0
  -31.3842  -18.9355   27.9072 O   0  0  0  0  0  0  0  0  0  0  0  0
  -32.2153  -13.0252   21.2257 O   0  0  0  0  0  0  0  0  0  0  0  0
  -21.4901   -7.0721   21.6579 O   0  0  0  0  0  0  0  0  0  0  0  0
  -29.5119  -19.0946   21.3635 O   0  0  0  0  0  0  0  0  0  1  0  0
  -23.4734   -3.2846   25.1400 F   0  0  0  0  0  0  0  0  0  0  0  0
  -20.0822   -6.3559   23.9268 F   0  0  0  0  0  0  0  0  0  0  0  0
  1  2  1  0  0  0  0
  1  5  2  0  0  0  0
  2  6  2  0  0  0  0
  3  8  2  0  0  0  0
  3 16  1  0  0  0  0
  4  9  1  0  0  0  0
  4 16  2  0  0  0  0
  5 18  1  0  0  0  0
  6 20  1  0  0  0  0
  7 10  2  0  0  0  0
  7 19  1  0  0  0  0
  8 22  1  0  0  0  0
  9 22  2  0  0  0  0
 10 23  1  0  0  0  0
 11 12  2  0  0  0  0
 11 24  1  0  0  0  0
 12 25  1  0  0  0  0
 13 21  1  0  0  0  0
 13 23  2  0  0  0  0
 14 25  2  0  0  0  0
 14 26  1  0  0  0  0
 15 28  2  0  0  0  0
 15 64  1  0  0  0  0
 16 27  1  0  0  0  0
 17 27  1  0  0  0  0
 17 29  2  0  0  0  0
 17 31  1  0  0  0  0
 18 20  2  0  0  0  0
 18 36  1  0  0  0  0
 19 21  2  0  0  0  0
 19 37  1  0  0  0  0
 20 45  1  0  0  0  0
 21 38  1  0  0  0  0
 22 80  1  0  0  0  0
 23 81  1  0  0  0  0
 24 26  2  0  0  0  0
 24 80  1  0  0  0  0
 25 82  1  0  0  0  0
 26 83  1  0  0  0  0
 27 63  2  0  0  0  0
 28 59  1  0  0  0  0
 28 66  1  0  0  0  0
 29 65  1  0  0  0  0
 29 69  1  0  0  0  0
 30 48  1  0  0  0  0
 30 64  1  0  0  0  0
 30 66  2  0  0  0  0
 31 70  1  0  0  0  0
 31 75  2  0  0  0  0
 32 46  1  0  0  0  0
 32 71  1  0  0  0  0
 32 76  2  0  0  0  0
 33 60  1  0  0  0  0
 33 67  1  0  0  0  0
 33 77  2  0  0  0  0
 34 61  1  0  0  0  0
 34 72  1  0  0  0  0
 34 78  2  0  0  0  0
 35 68  1  0  0  0  0
 35 73  1  0  0  0  0
 35 79  2  0  0  0  0
 36 39  1  0  0  0  0
 37 46  1  0  0  0  0
 38 67  1  0  0  0  0
 39 41  1  0  0  0  0
 40 42  1  0  0  0  0
 40 43  1  0  0  0  0
 41 45  1  0  0  0  0
 42 47  1  0  0  0  0
 43 68  1  0  0  0  0
 44 47  1  0  0  0  0
 44 68  1  0  0  0  0
 45 71  1  0  0  0  0
 46 67  1  0  0  0  0
 47 65  1  0  0  0  0
 49 59  1  0  0  0  0
 50 61  1  0  0  0  0
 51 62  1  0  0  0  0
 52 62  1  0  0  0  0
 53 62  1  0  0  0  0
 54 74  1  0  0  0  0
 55 56  1  0  0  0  0
 55 58  1  0  0  0  0
 56 64  1  0  0  0  0
 57 59  1  0  0  0  0
 57 73  1  0  0  0  0
 58 81  1  0  0  0  0
 60 62  1  0  0  0  0
 60 72  1  0  0  0  0
 61 74  1  0  0  0  0
 63 65  1  0  0  0  0
M  CHG  2  66   1  74   1
M  ISO  4  35 100  58 101  73 100  81 101
M  END
> <Batch ID>
0082

> <Smiles>
CNC(C)C(=O)NC(C(=O)N1Cc2cc([101O:1][101CH2:1]CCn3cc(C(C)C[100NH:0][100C:0](=O)N4CCCC(n5nc(-c6ccc(Oc7ccc(F)cc7F)cc6)c(C(N)=O)c5N)C4)nc3C)ccc2CC1C(=O)NC1CCCc2ccccc21)C(C)(C)C

> <Shape>
0.169

> <Color>
0.179

> <Negative vol penalty>
0.000

$$$$

  -OEChem-04052318493D

 85 93  0     1  0  0  0  0  0999 V2000
  -23.2390  -23.8885   21.4278 C   0  0  0  0  0  0  0  0  0  0  0  0
  -24.1758  -23.0996   20.7678 C   0  0  0  0  0  0  0  0  0  0  0  0
  -24.2289  -28.1786   19.1771 C   0  0  0  0  0  0  0  0  0  0  0  0
  -24.4434  -28.1992   21.5835 C   0  0  0  0  0  0  0  0  0  0  0  0
  -22.5906  -23.3982   22.5605 C   0  0  0  0  0  0  0  0  0  0  0  0
  -24.4655  -21.8202   21.2409 C   0  0  0  0  0  0  0  0  0  0  0  0
  -25.8737  -16.8887   17.8938 C   0  0  0  0  0  0  0  0  0  0  0  0
  -22.8772  -28.5018   19.2948 C   0  0  0  0  0  0  0  0  0  0  0  0
  -23.0916  -28.5225   21.7012 C   0  0  0  0  0  0  0  0  0  0  0  0
  -27.0914  -16.2943   17.5657 C   0  0  0  0  0  0  0  0  0  0  0  0
  -20.1218  -26.9157   21.5307 C   0  0  0  0  0  0  0  0  0  0  0  0
  -19.3699  -26.2226   22.4793 C   0  0  0  0  0  0  0  0  0  0  0  0
  -26.8241  -14.7490   19.3987 C   0  0  0  0  0  0  0  0  0  0  0  0
  -18.8610  -28.3035   23.5964 C   0  0  0  0  0  0  0  0  0  0  0  0
  -25.0121  -28.0272   20.3215 C   0  0  0  0  0  0  0  0  0  0  0  0
  -27.4907  -28.5869   20.0966 C   0  0  0  0  0  0  0  0  0  0  0  0
  -22.8654  -22.1085   23.0421 C   0  0  0  0  0  0  0  0  0  0  0  0
  -25.1260  -16.4240   18.9854 C   0  0  0  0  0  0  0  0  0  0  0  0
  -23.8211  -21.3127   22.3819 C   0  0  0  0  0  0  0  0  0  0  0  0
  -25.5960  -15.3376   19.7370 C   0  0  0  0  0  0  0  0  0  0  0  0
  -22.3085  -28.6738   20.5568 C   0  0  0  0  0  0  0  0  0  0  0  0
  -27.5682  -15.2261   18.3199 C   0  0  0  0  0  0  0  0  0  0  0  0
  -20.2434  -28.3027   21.6150 C   0  0  0  0  0  0  0  0  0  0  0  0
  -18.7395  -26.9165   23.5121 C   0  0  0  0  0  0  0  0  0  0  0  0
  -19.6130  -28.9966   22.6478 C   0  0  0  0  0  0  0  0  0  0  0  0
  -26.4083  -27.6928   20.2006 C   0  0  0  0  0  0  0  0  0  0  0  0
  -31.4683  -16.9156   21.9778 C   0  0  0  0  0  0  0  0  0  0  0  0
  -30.7050  -18.0454   21.8323 C   0  0  0  0  0  0  0  0  0  0  0  0
  -28.5969  -27.7778   20.0058 C   0  0  0  0  0  0  0  0  0  0  0  0
  -31.2029  -16.4912   19.7758 C   0  0  0  0  0  0  0  0  0  0  0  0
  -27.4958  -30.0205   20.0834 C   0  0  0  0  0  0  0  0  0  0  0  0
  -24.1358  -17.6898   21.7278 C   0  0  0  0  0  0  0  0  0  0  0  0
  -22.5530  -14.8721   22.0068 C   0  0  0  0  0  0  0  0  0  0  0  0
  -22.3287  -11.5774   21.1455 C   0  0  0  0  0  0  0  0  0  0  0  0
  -29.6183  -22.2834   21.9096 C   0  0  0  0  0  0  0  0  0  0  0  0
  -22.1738  -21.6399   24.2978 C   0  0  0  0  0  0  0  0  0  0  0  0
  -23.8016  -17.0587   19.3099 C   0  0  0  0  0  0  0  0  0  0  0  0
  -24.8216  -14.7879   20.9061 C   0  0  0  0  0  0  0  0  0  0  0  0
  -22.2633  -20.1317   24.5158 C   0  0  0  0  0  0  0  0  0  0  0  0
  -29.9517  -23.4423   18.4974 C   0  0  0  0  0  0  0  0  0  0  0  0
  -23.6908  -19.6435   24.2904 C   0  0  0  0  0  0  0  0  0  0  0  0
  -29.1752  -24.7594   18.5462 C   0  0  0  0  0  0  0  0  0  0  0  0
  -29.2882  -22.3769   19.3650 C   0  0  0  0  0  0  0  0  0  0  0  0
  -28.3093  -24.0941   20.8370 C   0  0  0  0  0  0  0  0  0  0  0  0
  -24.1442  -19.9104   22.8500 C   0  0  1  0  0  0  0  0  0  0  0  0
  -23.3708  -16.8361   20.7564 C   0  0  1  0  0  0  0  0  0  0  0  0
  -28.9421  -25.2189   19.9977 C   0  0  2  0  0  0  0  0  0  0  0  0
  -32.0407  -16.5287   23.2983 C   0  0  0  0  0  0  0  0  0  0  0  0
  -28.8976  -18.9781   23.3431 C   0  0  0  0  0  0  0  0  0  0  0  0
  -20.9508   -9.5219   21.5621 C   0  0  0  0  0  0  0  0  0  0  0  0
  -32.4769  -20.4485   22.7358 C   0  0  0  0  0  0  0  0  0  0  0  0
  -23.8684  -14.5473   24.7406 C   0  0  0  0  0  0  0  0  0  0  0  0
  -23.2365  -12.1255   24.6795 C   0  0  0  0  0  0  0  0  0  0  0  0
  -21.4605  -13.8771   24.6553 C   0  0  0  0  0  0  0  0  0  0  0  0
  -21.5814  -11.3586   18.2903 C   0  0  0  0  0  0  0  0  0  0  0  0
  -31.4719  -15.6180   18.5763 C   0  0  0  0  0  0  0  0  0  0  0  0
  -30.9897  -14.1754   18.7440 C   0  0  0  0  0  0  0  0  0  0  0  0
  -29.5050  -14.0694   19.0726 C   0  0  0  0  0  0  0  0  0  1  0  0
  -30.4031  -18.9488   22.9760 C   0  0  2  0  0  0  0  0  0  0  0  0
  -22.8755  -13.5180   22.5911 C   0  0  1  0  0  0  0  0  0  0  0  0
  -21.1561  -10.7377   20.6719 C   0  0  2  0  0  0  0  0  0  0  0  0
  -30.9525  -20.4095   22.8399 C   0  0  2  0  0  0  0  0  0  0  0  0
  -22.8760  -13.5284   24.1459 C   0  0  0  0  0  0  0  0  0  0  0  0
  -26.7921  -26.4136   20.1779 N   0  0  0  0  0  0  0  0  0  0  0  0
  -31.7377  -16.1046   20.9435 N   0  0  0  0  0  0  0  0  0  0  0  0
  -30.1942  -18.3828   20.6343 N   0  0  0  0  0  0  0  0  0  0  0  0
  -30.4465  -17.5880   19.5736 N   0  0  0  0  0  0  0  0  0  0  0  0
  -28.1281  -26.4981   20.0585 N   0  0  0  0  0  0  0  0  0  0  0  0
  -23.5353  -15.4464   21.1876 N   0  0  0  0  0  0  0  0  0  0  0  0
  -29.1120  -22.8705   20.7381 N   0  0  0  0  0  0  0  0  0  0  0  0
  -29.9151  -28.0432   19.8868 N   0  0  0  0  0  0  0  0  0  0  0  0
  -26.2710  -30.6940   20.1860 N   0  0  0  0  0  0  0  0  0  0  0  0
  -23.5722  -18.9316   21.9505 N   0  0  0  0  0  0  0  0  0  0  0  0
  -21.9255  -12.5817   22.0001 N   0  0  0  0  0  0  0  0  0  0  0  0
  -30.3620  -21.1235   21.7297 N   0  0  0  0  0  0  0  0  0  0  0  0
  -21.3869  -10.2655   19.2774 N   0  3  0  0  0  0  0  0  0  0  0  0
  -28.5537  -30.6846   19.9670 O   0  0  0  0  0  0  0  0  0  0  0  0
  -25.1607  -17.2535   22.2386 O   0  0  0  0  0  0  0  0  0  0  0  0
  -21.4665  -15.3976   22.2618 O   0  0  0  0  0  0  0  0  0  0  0  0
  -23.4869  -11.3617   20.7956 O   0  0  0  0  0  0  0  0  0  0  0  0
  -29.4264  -22.7608   23.0332 O   0  0  0  0  0  0  0  0  0  0  0  0
  -20.9896  -28.9895   20.6720 O   0  0  0  0  0  0  0  0  0  0  0  0
  -28.7567  -14.6446   18.0022 O   0  0  0  0  0  0  0  0  0  1  0  0
  -18.0162  -26.2509   24.4221 F   0  0  0  0  0  0  0  0  0  0  0  0
  -19.7251  -30.3292   22.7333 F   0  0  0  0  0  0  0  0  0  0  0  0
  1  2  1  0  0  0  0
  1  5  2  0  0  0  0
  2  6  2  0  0  0  0
  3  8  2  0  0  0  0
  3 15  1  0  0  0  0
  4  9  1  0  0  0  0
  4 15  2  0  0  0  0
  5 17  1  0  0  0  0
  6 19  1  0  0  0  0
  7 10  2  0  0  0  0
  7 18  1  0  0  0  0
  8 21  1  0  0  0  0
  9 21  2  0  0  0  0
 10 22  1  0  0  0  0
 11 12  2  0  0  0  0
 11 23  1  0  0  0  0
 12 24  1  0  0  0  0
 13 20  1  0  0  0  0
 13 22  2  0  0  0  0
 14 24  2  0  0  0  0
 14 25  1  0  0  0  0
 15 26  1  0  0  0  0
 16 26  1  0  0  0  0
 16 29  2  0  0  0  0
 16 31  1  0  0  0  0
 17 19  2  0  0  0  0
 17 36  1  0  0  0  0
 18 20  2  0  0  0  0
 18 37  1  0  0  0  0
 19 45  1  0  0  0  0
 20 38  1  0  0  0  0
 21 82  1  0  0  0  0
 22 83  1  0  0  0  0
 23 25  2  0  0  0  0
 23 82  1  0  0  0  0
 24 84  1  0  0  0  0
 25 85  1  0  0  0  0
 26 64  2  0  0  0  0
 27 28  2  0  0  0  0
 27 48  1  0  0  0  0
 27 65  1  0  0  0  0
 28 59  1  0  0  0  0
 28 66  1  0  0  0  0
 29 68  1  0  0  0  0
 29 71  1  0  0  0  0
 30 56  1  0  0  0  0
 30 65  2  0  0  0  0
 30 67  1  0  0  0  0
 31 72  1  0  0  0  0
 31 77  2  0  0  0  0
 32 46  1  0  0  0  0
 32 73  1  0  0  0  0
 32 78  2  0  0  0  0
 33 60  1  0  0  0  0
 33 69  1  0  0  0  0
 33 79  2  0  0  0  0
 34 61  1  0  0  0  0
 34 74  1  0  0  0  0
 34 80  2  0  0  0  0
 35 70  1  0  0  0  0
 35 75  1  0  0  0  0
 35 81  2  0  0  0  0
 36 39  1  0  0  0  0
 37 46  1  0  0  0  0
 38 69  1  0  0  0  0
 39 41  1  0  0  0  0
 40 42  1  0  0  0  0
 40 43  1  0  0  0  0
 41 45  1  0  0  0  0
 42 47  1  0  0  0  0
 43 70  1  0  0  0  0
 44 47  1  0  0  0  0
 44 70  1  0  0  0  0
 45 73  1  0  0  0  0
 46 69  1  0  0  0  0
 47 68  1  0  0  0  0
 49 59  1  0  0  0  0
 50 61  1  0  0  0  0
 51 62  1  0  0  0  0
 52 63  1  0  0  0  0
 53 63  1  0  0  0  0
 54 63  1  0  0  0  0
 55 76  1  0  0  0  0
 56 57  1  0  0  0  0
 57 58  1  0  0  0  0
 58 83  1  0  0  0  0
 59 62  1  0  0  0  0
 60 63  1  0  0  0  0
 60 74  1  0  0  0  0
 61 76  1  0  0  0  0
 62 75  1  0  0  0  0
 64 68  1  0  0  0  0
 66 67  2  0  0  0  0
M  CHG  1  76   1
M  ISO  4  35 100  58 101  75 100  83 101
M  END
> <Batch ID>
0082

> <Smiles>
CNC(C)C(=O)NC(C(=O)N1Cc2cc([101O:1][101CH2:1]CCc3nnc(C(C)C(C)[100NH:0][100C:0](=O)N4CCCC(n5nc(-c6ccc(Oc7ccc(F)cc7F)cc6)c(C(N)=O)c5N)C4)c(C)n3)ccc2CC1C(=O)NC1CCCc2ccccc21)C(C)(C)C

> <Shape>
0.237

> <Color>
0.062

> <Negative vol penalty>
0.000

$$$$

  -OEChem-04052318493D

 83 91  0     1  0  0  0  0  0999 V2000
  -19.1455  -32.9908   19.8697 C   0  0  0  0  0  0  0  0  0  0  0  0
  -20.4246  -32.5376   19.5633 C   0  0  0  0  0  0  0  0  0  0  0  0
  -22.8974  -13.4261   21.8023 C   0  0  0  0  0  0  0  0  0  0  0  0
  -24.7570  -12.0922   21.0280 C   0  0  0  0  0  0  0  0  0  0  0  0
  -18.5766  -32.6861   21.1056 C   0  0  0  0  0  0  0  0  0  0  0  0
  -21.1361  -31.7803   20.4932 C   0  0  0  0  0  0  0  0  0  0  0  0
  -25.0309  -27.2053   19.3078 C   0  0  0  0  0  0  0  0  0  0  0  0
  -22.0553  -12.3203   21.6851 C   0  0  0  0  0  0  0  0  0  0  0  0
  -23.9150  -10.9864   20.9108 C   0  0  0  0  0  0  0  0  0  0  0  0
  -26.4220  -27.1537   19.2316 C   0  0  0  0  0  0  0  0  0  0  0  0
  -22.5349   -8.6803   22.9597 C   0  0  0  0  0  0  0  0  0  0  0  0
  -22.9984   -7.4598   23.4506 C   0  0  0  0  0  0  0  0  0  0  0  0
  -26.5132  -26.3959   21.5200 C   0  0  0  0  0  0  0  0  0  0  0  0
  -22.7965   -6.4957   21.2445 C   0  0  0  0  0  0  0  0  0  0  0  0
  -24.2482  -13.3121   21.4738 C   0  0  0  0  0  0  0  0  0  0  0  0
  -25.8650  -14.8388   22.7240 C   0  0  0  0  0  0  0  0  0  0  0  0
  -19.2776  -31.9165   22.0473 C   0  0  0  0  0  0  0  0  0  0  0  0
  -24.3699  -26.8624   20.4961 C   0  0  0  0  0  0  0  0  0  0  0  0
  -20.5766  -31.4661   21.7434 C   0  0  0  0  0  0  0  0  0  0  0  0
  -25.1135  -26.4415   21.6079 C   0  0  0  0  0  0  0  0  0  0  0  0
  -22.5641  -11.1005   21.2393 C   0  0  0  0  0  0  0  0  0  0  0  0
  -27.1636  -26.7518   20.3387 C   0  0  0  0  0  0  0  0  0  0  0  0
  -22.2021   -8.8085   21.6111 C   0  0  0  0  0  0  0  0  0  0  0  0
  -23.1292   -6.3675   22.5931 C   0  0  0  0  0  0  0  0  0  0  0  0
  -22.3329   -7.7162   20.7536 C   0  0  0  0  0  0  0  0  0  0  0  0
  -25.1184  -14.4542   21.5941 C   0  0  0  0  0  0  0  0  0  0  0  0
  -26.5205  -15.9797   22.3303 C   0  0  0  0  0  0  0  0  0  0  0  0
  -25.9577  -14.2199   24.0140 C   0  0  0  0  0  0  0  0  0  0  0  0
  -22.4844  -28.4035   22.5390 C   0  0  0  0  0  0  0  0  0  0  0  0
  -22.2022  -25.4675   23.8892 C   0  0  0  0  0  0  0  0  0  0  0  0
  -23.5279  -22.3595   24.3684 C   0  0  0  0  0  0  0  0  0  0  0  0
  -29.5259  -18.7142   18.6646 C   0  0  0  0  0  0  0  0  0  0  0  0
  -18.6400  -31.6526   23.3884 C   0  0  0  0  0  0  0  0  0  0  0  0
  -22.8673  -26.8976   20.5536 C   0  0  0  0  0  0  0  0  0  0  0  0
  -24.4508  -26.0436   22.9005 C   0  0  0  0  0  0  0  0  0  0  0  0
  -19.3126  -30.5283   24.1719 C   0  0  0  0  0  0  0  0  0  0  0  0
  -25.9382  -18.8593   18.2120 C   0  0  0  0  0  0  0  0  0  0  0  0
  -20.8288  -30.6945   24.1490 C   0  0  0  0  0  0  0  0  0  0  0  0
  -25.4678  -17.7489   19.1532 C   0  0  0  0  0  0  0  0  0  0  0  0
  -29.8975  -22.6512   18.3105 C   0  0  0  0  0  0  0  0  0  0  0  0
  -32.3406  -22.3866   18.8642 C   0  0  0  0  0  0  0  0  0  0  0  0
  -27.2416  -18.4787   17.5160 C   0  0  0  0  0  0  0  0  0  0  0  0
  -27.8827  -17.0038   19.3834 C   0  0  0  0  0  0  0  0  0  0  0  0
  -29.8378  -23.8891   19.1950 C   0  0  0  0  0  0  0  0  0  0  0  0
  -32.2683  -23.6257   19.7460 C   0  0  0  0  0  0  0  0  0  0  0  0
  -21.3702  -30.6211   22.7161 C   0  0  1  0  0  0  0  0  0  0  0  0
  -22.3265  -27.0198   21.9749 C   0  0  1  0  0  0  0  0  0  0  0  0
  -30.9858  -21.6749   18.7721 C   0  0  0  0  0  0  0  0  0  0  0  0
  -26.5810  -17.3373   20.1348 C   0  0  2  0  0  0  0  0  0  0  0  0
  -23.0862  -20.1903   25.5504 C   0  0  0  0  0  0  0  0  0  0  0  0
  -23.0395  -26.7404   26.5328 C   0  0  0  0  0  0  0  0  0  0  0  0
  -23.4987  -24.4423   27.4138 C   0  0  0  0  0  0  0  0  0  0  0  0
  -21.1867  -25.0711   26.7193 C   0  0  0  0  0  0  0  0  0  0  0  0
  -31.2414  -26.9483   17.6964 C   0  0  0  0  0  0  0  0  0  0  0  0
  -31.1695  -28.3258   19.7796 C   0  0  0  0  0  0  0  0  0  0  0  0
  -23.4455  -20.8545   21.8214 C   0  0  0  0  0  0  0  0  0  0  0  0
  -31.0678  -20.4722   17.8346 C   0  0  0  0  0  0  0  0  0  0  0  0
  -31.1622  -25.8468   19.9875 C   0  0  0  0  0  0  0  0  0  0  0  0
  -29.1211  -27.0737   19.0270 C   0  0  0  0  0  0  0  0  0  1  0  0
  -22.9550  -24.7020   24.9504 C   0  0  1  0  0  0  0  0  0  0  0  0
  -22.9147  -20.9751   24.2591 C   0  0  2  0  0  0  0  0  0  0  0  0
  -22.6829  -25.2482   26.3805 C   0  0  0  0  0  0  0  0  0  0  0  0
  -30.6623  -27.0252   19.1211 C   0  0  0  0  0  0  0  0  0  0  0  0
  -25.2835  -15.2836   20.5603 N   0  0  0  0  0  0  0  0  0  0  0  0
  -26.1413  -16.2007   21.0390 N   0  0  0  0  0  0  0  0  0  0  0  0
  -22.9797  -26.1007   22.9091 N   0  0  0  0  0  0  0  0  0  0  0  0
  -28.2648  -18.1157   18.5066 N   0  0  0  0  0  0  0  0  0  0  0  0
  -27.3785  -16.8054   22.9662 N   0  0  0  0  0  0  0  0  0  0  0  0
  -25.2180  -13.0531   24.2500 N   0  0  0  0  0  0  0  0  0  0  0  0
  -21.4243  -29.2467   22.2661 N   0  0  0  0  0  0  0  0  0  0  0  0
  -22.6011  -23.2983   24.7696 N   0  0  0  0  0  0  0  0  0  0  0  0
  -29.8128  -19.7553   17.7903 N   0  0  0  0  0  0  0  0  0  0  0  0
  -31.1944  -24.5503   19.2261 N   0  3  0  0  0  0  0  0  0  0  0  0
  -23.5586  -20.2091   23.1547 N   0  3  0  0  0  0  0  0  0  0  0  0
  -26.6624  -14.6970   24.9356 O   0  0  0  0  0  0  0  0  0  0  0  0
  -23.4928  -28.6848   23.1761 O   0  0  0  0  0  0  0  0  0  0  0  0
  -20.9695  -25.4964   23.9242 O   0  0  0  0  0  0  0  0  0  0  0  0
  -24.7115  -22.5848   24.1259 O   0  0  0  0  0  0  0  0  0  0  0  0
  -30.3349  -18.3510   19.5253 O   0  0  0  0  0  0  0  0  0  0  0  0
  -21.7428  -10.0211   21.1250 O   0  0  0  0  0  0  0  0  0  0  0  0
  -28.5216  -26.7012   20.2673 O   0  0  0  0  0  0  0  0  0  1  0  0
  -23.5758   -5.1959   23.0644 F   0  0  0  0  0  0  0  0  0  0  0  0
  -22.0159   -7.8337   19.4568 F   0  0  0  0  0  0  0  0  0  0  0  0
  1  2  1  0  0  0  0
  1  5  2  0  0  0  0
  2  6  2  0  0  0  0
  3  8  2  0  0  0  0
  3 15  1  0  0  0  0
  4  9  1  0  0  0  0
  4 15  2  0  0  0  0
  5 17  1  0  0  0  0
  6 19  1  0  0  0  0
  7 10  2  0  0  0  0
  7 18  1  0  0  0  0
  8 21  1  0  0  0  0
  9 21  2  0  0  0  0
 10 22  1  0  0  0  0
 11 12  2  0  0  0  0
 11 23  1  0  0  0  0
 12 24  1  0  0  0  0
 13 20  1  0  0  0  0
 13 22  2  0  0  0  0
 14 24  2  0  0  0  0
 14 25  1  0  0  0  0
 15 26  1  0  0  0  0
 16 26  1  0  0  0  0
 16 27  2  0  0  0  0
 16 28  1  0  0  0  0
 17 19  2  0  0  0  0
 17 33  1  0  0  0  0
 18 20  2  0  0  0  0
 18 34  1  0  0  0  0
 19 46  1  0  0  0  0
 20 35  1  0  0  0  0
 21 80  1  0  0  0  0
 22 81  1  0  0  0  0
 23 25  2  0  0  0  0
 23 80  1  0  0  0  0
 24 82  1  0  0  0  0
 25 83  1  0  0  0  0
 26 64  2  0  0  0  0
 27 65  1  0  0  0  0
 27 68  1  0  0  0  0
 28 69  1  0  0  0  0
 28 75  2  0  0  0  0
 29 47  1  0  0  0  0
 29 70  1  0  0  0  0
 29 76  2  0  0  0  0
 30 60  1  0  0  0  0
 30 66  1  0  0  0  0
 30 77  2  0  0  0  0
 31 61  1  0  0  0  0
 31 71  1  0  0  0  0
 31 78  2  0  0  0  0
 32 67  1  0  0  0  0
 32 72  1  0  0  0  0
 32 79  2  0  0  0  0
 33 36  1  0  0  0  0
 34 47  1  0  0  0  0
 35 66  1  0  0  0  0
 36 38  1  0  0  0  0
 37 39  1  0  0  0  0
 37 42  1  0  0  0  0
 38 46  1  0  0  0  0
 39 49  1  0  0  0  0
 40 44  1  0  0  0  0
 40 48  1  0  0  0  0
 41 45  1  0  0  0  0
 41 48  1  0  0  0  0
 42 67  1  0  0  0  0
 43 49  1  0  0  0  0
 43 67  1  0  0  0  0
 44 73  1  0  0  0  0
 45 73  1  0  0  0  0
 46 70  1  0  0  0  0
 47 66  1  0  0  0  0
 48 57  1  0  0  0  0
 49 65  1  0  0  0  0
 50 61  1  0  0  0  0
 51 62  1  0  0  0  0
 52 62  1  0  0  0  0
 53 62  1  0  0  0  0
 54 63  1  0  0  0  0
 55 63  1  0  0  0  0
 56 74  1  0  0  0  0
 57 72  1  0  0  0  0
 58 63  1  0  0  0  0
 58 73  1  0  0  0  0
 59 63  1  0  0  0  0
 59 81  1  0  0  0  0
 60 62  1  0  0  0  0
 60 71  1  0  0  0  0
 61 74  1  0  0  0  0
 64 65  1  0  0  0  0
M  CHG  2  73   1  74   1
M  ISO  4  32 100  59 101  72 100  81 101
M  END
> <Batch ID>
0082

> <Smiles>
CNC(C)C(=O)NC(C(=O)N1Cc2cc([101O:1][101CH2:1]C(C)(C)CN3CCC(C[100NH:0][100C:0](=O)N4CCCC(n5nc(-c6ccc(Oc7ccc(F)cc7F)cc6)c(C(N)=O)c5N)C4)CC3)ccc2CC1C(=O)NC1CCCc2ccccc21)C(C)(C)C

> <Shape>
0.206

> <Color>
0.086

> <Negative vol penalty>
0.000

$$$$

  -OEChem-04052318493D

 79 87  0     1  0  0  0  0  0999 V2000
  -27.8289  -31.4405   20.0932 C   0  0  0  0  0  0  0  0  0  0  0  0
  -28.0089  -30.0611   20.1099 C   0  0  0  0  0  0  0  0  0  0  0  0
  -23.0957   -9.8792   19.9387 C   0  0  0  0  0  0  0  0  0  0  0  0
  -23.8665   -9.8887   22.2284 C   0  0  0  0  0  0  0  0  0  0  0  0
  -27.1722  -32.0437   19.0214 C   0  0  0  0  0  0  0  0  0  0  0  0
  -27.5313  -29.2840   19.0552 C   0  0  0  0  0  0  0  0  0  0  0  0
  -30.8910  -25.8212   17.5167 C   0  0  0  0  0  0  0  0  0  0  0  0
  -22.3685   -8.7154   20.1883 C   0  0  0  0  0  0  0  0  0  0  0  0
  -23.1393   -8.7249   22.4781 C   0  0  0  0  0  0  0  0  0  0  0  0
  -31.0222  -24.6718   18.2947 C   0  0  0  0  0  0  0  0  0  0  0  0
  -19.9250   -7.8821   23.0933 C   0  0  0  0  0  0  0  0  0  0  0  0
  -19.1743   -7.8282   24.2677 C   0  0  0  0  0  0  0  0  0  0  0  0
  -29.6247  -23.4675   16.7404 C   0  0  0  0  0  0  0  0  0  0  0  0
  -20.4450   -5.9051   24.9917 C   0  0  0  0  0  0  0  0  0  0  0  0
  -29.2979  -18.7527   20.8765 C   0  0  0  0  0  0  0  0  0  0  0  0
  -31.2847  -19.4405   19.2313 C   0  0  0  0  0  0  0  0  0  0  0  0
  -23.8448  -10.4659   20.9588 C   0  0  0  0  0  0  0  0  0  0  0  0
  -24.1523  -12.9957   20.8456 C   0  0  0  0  0  0  0  0  0  0  0  0
  -26.6949  -31.2747   17.9484 C   0  0  0  0  0  0  0  0  0  0  0  0
  -30.1154  -25.8053   16.3486 C   0  0  0  0  0  0  0  0  0  0  0  0
  -26.8664  -29.8773   17.9687 C   0  0  0  0  0  0  0  0  0  0  0  0
  -29.4873  -24.6174   15.9480 C   0  0  0  0  0  0  0  0  0  0  0  0
  -22.3903   -8.1383   21.4580 C   0  0  0  0  0  0  0  0  0  0  0  0
  -30.3867  -23.4954   17.9082 C   0  0  0  0  0  0  0  0  0  0  0  0
  -20.9357   -6.9474   22.8681 C   0  0  0  0  0  0  0  0  0  0  0  0
  -19.4343   -6.8397   25.2169 C   0  0  0  0  0  0  0  0  0  0  0  0
  -21.1957   -5.9590   23.8172 C   0  0  0  0  0  0  0  0  0  0  0  0
  -24.5967  -11.6677   20.7014 C   0  0  0  0  0  0  0  0  0  0  0  0
  -30.5125  -18.1043   20.9189 C   0  0  0  0  0  0  0  0  0  0  0  0
  -30.0698  -20.0884   19.1883 C   0  0  0  0  0  0  0  0  0  0  0  0
  -25.2326  -13.7609   20.4797 C   0  0  0  0  0  0  0  0  0  0  0  0
  -22.8771  -13.4931   21.2723 C   0  0  0  0  0  0  0  0  0  0  0  0
  -27.5043  -27.3305   15.3688 C   0  0  0  0  0  0  0  0  0  0  0  0
  -28.1379  -25.8106   12.5740 C   0  0  0  0  0  0  0  0  0  0  0  0
  -29.6215  -23.1858   10.9751 C   0  0  0  0  0  0  0  0  0  0  0  0
  -30.7031  -14.8525   20.6452 C   0  0  0  0  0  0  0  0  0  0  0  0
  -25.9495  -31.9664   16.8346 C   0  0  0  0  0  0  0  0  0  0  0  0
  -30.0056  -27.0466   15.5061 C   0  0  0  0  0  0  0  0  0  0  0  0
  -28.6598  -24.5425   14.6918 C   0  0  0  0  0  0  0  0  0  0  0  0
  -25.8045  -31.1132   15.5771 C   0  0  0  0  0  0  0  0  0  0  0  0
  -29.5859  -12.4609   18.2559 C   0  0  0  0  0  0  0  0  0  0  0  0
  -25.3519  -29.7021   15.9386 C   0  0  0  0  0  0  0  0  0  0  0  0
  -28.1546  -12.1466   18.6947 C   0  0  0  0  0  0  0  0  0  0  0  0
  -30.5058  -12.6900   19.4531 C   0  0  0  0  0  0  0  0  0  0  0  0
  -28.6012  -13.3910   20.8513 C   0  0  0  0  0  0  0  0  0  0  0  0
  -26.3845  -29.0032   16.8312 C   0  0  1  0  0  0  0  0  0  0  0  0
  -28.7711  -27.0531   14.6099 C   0  0  1  0  0  0  0  0  0  0  0  0
  -27.6238  -13.2073   19.6777 C   0  0  2  0  0  0  0  0  0  0  0  0
  -29.9341  -22.1920    8.6921 C   0  0  0  0  0  0  0  0  0  0  0  0
  -25.2773  -24.7516   12.6460 C   0  0  0  0  0  0  0  0  0  0  0  0
  -25.9344  -23.0593   10.9218 C   0  0  0  0  0  0  0  0  0  0  0  0
  -26.0587  -25.4931   10.3890 C   0  0  0  0  0  0  0  0  0  0  0  0
  -32.5624  -23.4838   11.1210 C   0  0  0  0  0  0  0  0  0  0  0  0
  -30.7463  -16.9996   21.8891 C   0  0  0  0  0  0  0  0  0  0  0  0
  -29.8344  -21.2021   18.2108 C   0  0  0  0  0  0  0  0  0  1  0  0
  -27.7541  -24.4820   11.9686 C   0  0  1  0  0  0  0  0  0  0  0  0
  -30.5087  -23.1271    9.7447 C   0  0  2  0  0  0  0  0  0  0  0  0
  -26.2700  -24.4481   11.5061 C   0  0  0  0  0  0  0  0  0  0  0  0
  -31.5278  -18.4368   20.0973 N   0  0  0  0  0  0  0  0  0  0  0  0
  -29.0546  -19.7562   20.0103 N   0  0  0  0  0  0  0  0  0  0  0  0
  -25.8607  -11.5902   20.2767 N   0  0  0  0  0  0  0  0  0  0  0  0
  -26.2198  -12.8791   20.1509 N   0  0  0  0  0  0  0  0  0  0  0  0
  -28.5775  -25.7842   13.9051 N   0  0  0  0  0  0  0  0  0  0  0  0
  -29.9459  -13.7081   20.3452 N   0  0  0  0  0  0  0  0  0  0  0  0
  -25.4249  -15.0953   20.4101 N   0  0  0  0  0  0  0  0  0  0  0  0
  -21.8791  -12.5694   21.6114 N   0  0  0  0  0  0  0  0  0  0  0  0
  -27.5038  -28.5380   16.0405 N   0  0  0  0  0  0  0  0  0  0  0  0
  -28.7178  -24.2248   10.9040 N   0  0  0  0  0  0  0  0  0  0  0  0
  -30.0957  -15.7704   21.4933 N   0  0  0  0  0  0  0  0  0  0  0  0
  -31.8700  -22.6433   10.1104 N   0  3  0  0  0  0  0  0  0  0  0  0
  -22.6247  -14.7203   21.3350 O   0  0  0  0  0  0  0  0  0  0  0  0
  -26.5941  -26.5103   15.3454 O   0  0  0  0  0  0  0  0  0  0  0  0
  -28.0577  -26.8331   11.8887 O   0  0  0  0  0  0  0  0  0  0  0  0
  -29.7178  -22.3874   11.9044 O   0  0  0  0  0  0  0  0  0  0  0  0
  -31.8344  -15.0446   20.1868 O   0  0  0  0  0  0  0  0  0  0  0  0
  -21.6806   -7.0028   21.7020 O   0  0  0  0  0  0  0  0  0  0  0  0
  -30.5126  -22.3722   18.6661 O   0  0  0  0  0  0  0  0  0  1  0  0
  -18.7144   -6.7890   26.3453 F   0  0  0  0  0  0  0  0  0  0  0  0
  -22.1661   -5.0590   23.6070 F   0  0  0  0  0  0  0  0  0  0  0  0
  1  2  1  0  0  0  0
  1  5  2  0  0  0  0
  2  6  2  0  0  0  0
  3  8  2  0  0  0  0
  3 17  1  0  0  0  0
  4  9  1  0  0  0  0
  4 17  2  0  0  0  0
  5 19  1  0  0  0  0
  6 21  1  0  0  0  0
  7 10  2  0  0  0  0
  7 20  1  0  0  0  0
  8 23  1  0  0  0  0
  9 23  2  0  0  0  0
 10 24  1  0  0  0  0
 11 12  2  0  0  0  0
 11 25  1  0  0  0  0
 12 26  1  0  0  0  0
 13 22  1  0  0  0  0
 13 24  2  0  0  0  0
 14 26  2  0  0  0  0
 14 27  1  0  0  0  0
 15 29  2  0  0  0  0
 15 60  1  0  0  0  0
 16 30  1  0  0  0  0
 16 59  2  0  0  0  0
 17 28  1  0  0  0  0
 18 28  1  0  0  0  0
 18 31  2  0  0  0  0
 18 32  1  0  0  0  0
 19 21  2  0  0  0  0
 19 37  1  0  0  0  0
 20 22  2  0  0  0  0
 20 38  1  0  0  0  0
 21 46  1  0  0  0  0
 22 39  1  0  0  0  0
 23 76  1  0  0  0  0
 24 77  1  0  0  0  0
 25 27  2  0  0  0  0
 25 76  1  0  0  0  0
 26 78  1  0  0  0  0
 27 79  1  0  0  0  0
 28 61  2  0  0  0  0
 29 54  1  0  0  0  0
 29 59  1  0  0  0  0
 30 55  1  0  0  0  0
 30 60  2  0  0  0  0
 31 62  1  0  0  0  0
 31 65  1  0  0  0  0
 32 66  1  0  0  0  0
 32 71  2  0  0  0  0
 33 47  1  0  0  0  0
 33 67  1  0  0  0  0
 33 72  2  0  0  0  0
 34 56  1  0  0  0  0
 34 63  1  0  0  0  0
 34 73  2  0  0  0  0
 35 57  1  0  0  0  0
 35 68  1  0  0  0  0
 35 74  2  0  0  0  0
 36 64  1  0  0  0  0
 36 69  1  0  0  0  0
 36 75  2  0  0  0  0
 37 40  1  0  0  0  0
 38 47  1  0  0  0  0
 39 63  1  0  0  0  0
 40 42  1  0  0  0  0
 41 43  1  0  0  0  0
 41 44  1  0  0  0  0
 42 46  1  0  0  0  0
 43 48  1  0  0  0  0
 44 64  1  0  0  0  0
 45 48  1  0  0  0  0
 45 64  1  0  0  0  0
 46 67  1  0  0  0  0
 47 63  1  0  0  0  0
 48 62  1  0  0  0  0
 49 57  1  0  0  0  0
 50 58  1  0  0  0  0
 51 58  1  0  0  0  0
 52 58  1  0  0  0  0
 53 70  1  0  0  0  0
 54 69  1  0  0  0  0
 55 77  1  0  0  0  0
 56 58  1  0  0  0  0
 56 68  1  0  0  0  0
 57 70  1  0  0  0  0
 61 62  1  0  0  0  0
M  CHG  1  70   1
M  ISO  4  36 100  55 101  69 100  77 101
M  END
> <Batch ID>
0082

> <Smiles>
CNC(C)C(=O)NC(C(=O)N1Cc2cc([101O:1][101CH2:1]c3cnc(C[100NH:0][100C:0](=O)N4CCCC(n5nc(-c6ccc(Oc7ccc(F)cc7F)cc6)c(C(N)=O)c5N)C4)cn3)ccc2CC1C(=O)NC1CCCc2ccccc21)C(C)(C)C

> <Shape>
0.233

> <Color>
0.211

> <Negative vol penalty>
0.000

$$$$

  -OEChem-04052318493D

 83 91  0     1  0  0  0  0  0999 V2000
  -26.8894  -26.9111    9.8257 C   0  0  0  0  0  0  0  0  0  0  0  0
  -27.3182  -25.9612   10.7472 C   0  0  0  0  0  0  0  0  0  0  0  0
  -23.0741   -9.8714   19.9413 C   0  0  0  0  0  0  0  0  0  0  0  0
  -23.8384   -9.8759   22.2332 C   0  0  0  0  0  0  0  0  0  0  0  0
  -26.5454  -28.1921   10.2555 C   0  0  0  0  0  0  0  0  0  0  0  0
  -27.4043  -26.2920   12.0991 C   0  0  0  0  0  0  0  0  0  0  0  0
  -25.4778  -22.7003   15.1046 C   0  0  0  0  0  0  0  0  0  0  0  0
  -22.3308   -8.7179   20.1914 C   0  0  0  0  0  0  0  0  0  0  0  0
  -23.0951   -8.7224   22.4833 C   0  0  0  0  0  0  0  0  0  0  0  0
  -26.2664  -21.5744   15.3374 C   0  0  0  0  0  0  0  0  0  0  0  0
  -21.1131   -5.9835   23.8206 C   0  0  0  0  0  0  0  0  0  0  0  0
  -20.3590   -5.9385   24.9932 C   0  0  0  0  0  0  0  0  0  0  0  0
  -26.9272  -22.4858   17.4709 C   0  0  0  0  0  0  0  0  0  0  0  0
  -19.1128   -7.8764   24.2662 C   0  0  0  0  0  0  0  0  0  0  0  0
  -27.0538  -18.8109   20.0477 C   0  0  0  0  0  0  0  0  0  0  0  0
  -23.8279  -10.4504   20.9622 C   0  0  0  0  0  0  0  0  0  0  0  0
  -24.1692  -12.9758   20.8444 C   0  0  0  0  0  0  0  0  0  0  0  0
  -26.6181  -28.5359   11.6146 C   0  0  0  0  0  0  0  0  0  0  0  0
  -25.4165  -23.7342   16.0500 C   0  0  0  0  0  0  0  0  0  0  0  0
  -27.0622  -27.5792   12.5473 C   0  0  0  0  0  0  0  0  0  0  0  0
  -26.1351  -23.6226   17.2488 C   0  0  0  0  0  0  0  0  0  0  0  0
  -22.3413   -8.1434   21.4624 C   0  0  0  0  0  0  0  0  0  0  0  0
  -26.9935  -21.4683   16.5194 C   0  0  0  0  0  0  0  0  0  0  0  0
  -20.8670   -6.9750   22.8708 C   0  0  0  0  0  0  0  0  0  0  0  0
  -19.3589   -6.8849   25.2160 C   0  0  0  0  0  0  0  0  0  0  0  0
  -19.8669   -7.9214   23.0936 C   0  0  0  0  0  0  0  0  0  0  0  0
  -24.5963  -11.6417   20.7044 C   0  0  0  0  0  0  0  0  0  0  0  0
  -27.0334  -19.0189   21.3980 C   0  0  0  0  0  0  0  0  0  0  0  0
  -25.2605  -13.7258   20.4799 C   0  0  0  0  0  0  0  0  0  0  0  0
  -29.0837  -18.4055   20.8321 C   0  0  0  0  0  0  0  0  0  0  0  0
  -22.8994  -13.4909   21.2664 C   0  0  0  0  0  0  0  0  0  0  0  0
  -26.1916  -26.8168   16.0564 C   0  0  0  0  0  0  0  0  0  0  0  0
  -24.8066  -26.7587   18.9891 C   0  0  0  0  0  0  0  0  0  0  0  0
  -23.8920  -24.9360   21.7256 C   0  0  0  0  0  0  0  0  0  0  0  0
  -30.7445  -14.7454   20.6590 C   0  0  0  0  0  0  0  0  0  0  0  0
  -26.2810  -29.9474   12.0254 C   0  0  0  0  0  0  0  0  0  0  0  0
  -24.5401  -24.9299   15.7957 C   0  0  0  0  0  0  0  0  0  0  0  0
  -26.0874  -24.6955   18.3048 C   0  0  0  0  0  0  0  0  0  0  0  0
  -26.0420  -30.1048   13.5248 C   0  0  0  0  0  0  0  0  0  0  0  0
  -29.6026  -12.3634   18.2717 C   0  0  0  0  0  0  0  0  0  0  0  0
  -27.1373  -29.3980   14.3171 C   0  0  0  0  0  0  0  0  0  0  0  0
  -28.1660  -12.0690   18.7070 C   0  0  0  0  0  0  0  0  0  0  0  0
  -30.5220  -12.5830   19.4710 C   0  0  0  0  0  0  0  0  0  0  0  0
  -28.6228  -13.3122   20.8621 C   0  0  0  0  0  0  0  0  0  0  0  0
  -27.1451  -27.8926   14.0255 C   0  0  1  0  0  0  0  0  0  0  0  0
  -24.9559  -26.1574   16.6004 C   0  0  1  0  0  0  0  0  0  0  0  0
  -27.6464  -13.1389   19.6861 C   0  0  2  0  0  0  0  0  0  0  0  0
  -25.9533  -19.4324   22.2975 C   0  0  0  0  0  0  0  0  0  0  0  0
  -22.8123  -25.1720   23.9786 C   0  0  0  0  0  0  0  0  0  0  0  0
  -29.8218  -21.5977   16.8969 C   0  0  0  0  0  0  0  0  0  0  0  0
  -27.3743  -27.9869   20.0882 C   0  0  0  0  0  0  0  0  0  0  0  0
  -26.6261  -27.3246   22.3838 C   0  0  0  0  0  0  0  0  0  0  0  0
  -25.2694  -28.9366   21.0484 C   0  0  0  0  0  0  0  0  0  0  0  0
  -21.6889  -23.1016   20.9907 C   0  0  0  0  0  0  0  0  0  0  0  0
  -30.5214  -18.0495   20.9278 C   0  0  0  0  0  0  0  0  0  0  0  0
  -29.6609  -19.2109   17.6916 C   0  0  0  0  0  0  0  0  0  0  0  0
  -28.8167  -18.1014   18.3352 C   0  0  0  0  0  0  0  0  0  0  0  0
  -30.8124  -16.8945   21.8982 C   0  0  0  0  0  0  0  0  0  0  0  0
  -25.2900  -26.4944   20.3946 C   0  0  1  0  0  0  0  0  0  0  0  0
  -22.5904  -24.8722   22.5043 C   0  0  2  0  0  0  0  0  0  0  0  0
  -28.9294  -20.5518   17.5530 C   0  0  2  0  0  0  0  0  0  1  0  0
  -26.1426  -27.6661   20.9582 C   0  0  0  0  0  0  0  0  0  0  0  0
  -25.8604  -11.5465   20.2836 N   0  0  0  0  0  0  0  0  0  0  0  0
  -28.3348  -18.4328   19.7249 N   0  0  0  0  0  0  0  0  0  0  0  0
  -26.2369  -12.8303   20.1560 N   0  0  0  0  0  0  0  0  0  0  0  0
  -28.3024  -18.7604   21.8572 N   0  3  0  0  0  0  0  0  0  0  0  0
  -25.2211  -25.8480   18.0069 N   0  0  0  0  0  0  0  0  0  0  0  0
  -29.9730  -13.6104   20.3592 N   0  0  0  0  0  0  0  0  0  0  0  0
  -25.4706  -15.0574   20.4080 N   0  0  0  0  0  0  0  0  0  0  0  0
  -21.8883  -12.5812   21.6045 N   0  0  0  0  0  0  0  0  0  0  0  0
  -26.0757  -27.2331   14.7439 N   0  0  0  0  0  0  0  0  0  0  0  0
  -24.1021  -26.1864   21.1837 N   0  0  0  0  0  0  0  0  0  0  0  0
  -30.1468  -15.6732   21.5032 N   0  0  0  0  0  0  0  0  0  0  0  0
  -21.9824  -23.5167   22.3866 N   0  3  0  0  0  0  0  0  0  0  0  0
  -22.6631  -14.7214   21.3256 O   0  0  0  0  0  0  0  0  0  0  0  0
  -27.1767  -26.9402   16.7748 O   0  0  0  0  0  0  0  0  0  0  0  0
  -24.0819  -27.7330   18.7720 O   0  0  0  0  0  0  0  0  0  0  0  0
  -24.6485  -23.9740   21.6127 O   0  0  0  0  0  0  0  0  0  0  0  0
  -31.8795  -14.9215   20.2034 O   0  0  0  0  0  0  0  0  0  0  0  0
  -21.6160   -7.0179   21.7068 O   0  0  0  0  0  0  0  0  0  0  0  0
  -27.7646  -20.3707   16.7488 O   0  0  0  0  0  0  0  0  0  1  0  0
  -18.6339   -6.8406   26.3414 F   0  0  0  0  0  0  0  0  0  0  0  0
  -19.6251   -8.8756   22.1843 F   0  0  0  0  0  0  0  0  0  0  0  0
  1  2  1  0  0  0  0
  1  5  2  0  0  0  0
  2  6  2  0  0  0  0
  3  8  2  0  0  0  0
  3 16  1  0  0  0  0
  4  9  1  0  0  0  0
  4 16  2  0  0  0  0
  5 18  1  0  0  0  0
  6 20  1  0  0  0  0
  7 10  2  0  0  0  0
  7 19  1  0  0  0  0
  8 22  1  0  0  0  0
  9 22  2  0  0  0  0
 10 23  1  0  0  0  0
 11 12  2  0  0  0  0
 11 24  1  0  0  0  0
 12 25  1  0  0  0  0
 13 21  1  0  0  0  0
 13 23  2  0  0  0  0
 14 25  2  0  0  0  0
 14 26  1  0  0  0  0
 15 28  2  0  0  0  0
 15 64  1  0  0  0  0
 16 27  1  0  0  0  0
 17 27  1  0  0  0  0
 17 29  2  0  0  0  0
 17 31  1  0  0  0  0
 18 20  2  0  0  0  0
 18 36  1  0  0  0  0
 19 21  2  0  0  0  0
 19 37  1  0  0  0  0
 20 45  1  0  0  0  0
 21 38  1  0  0  0  0
 22 80  1  0  0  0  0
 23 81  1  0  0  0  0
 24 26  2  0  0  0  0
 24 80  1  0  0  0  0
 25 82  1  0  0  0  0
 26 83  1  0  0  0  0
 27 63  2  0  0  0  0
 28 48  1  0  0  0  0
 28 66  1  0  0  0  0
 29 65  1  0  0  0  0
 29 69  1  0  0  0  0
 30 55  1  0  0  0  0
 30 64  1  0  0  0  0
 30 66  2  0  0  0  0
 31 70  1  0  0  0  0
 31 75  2  0  0  0  0
 32 46  1  0  0  0  0
 32 71  1  0  0  0  0
 32 76  2  0  0  0  0
 33 59  1  0  0  0  0
 33 67  1  0  0  0  0
 33 77  2  0  0  0  0
 34 60  1  0  0  0  0
 34 72  1  0  0  0  0
 34 78  2  0  0  0  0
 35 68  1  0  0  0  0
 35 73  1  0  0  0  0
 35 79  2  0  0  0  0
 36 39  1  0  0  0  0
 37 46  1  0  0  0  0
 38 67  1  0  0  0  0
 39 41  1  0  0  0  0
 40 42  1  0  0  0  0
 40 43  1  0  0  0  0
 41 45  1  0  0  0  0
 42 47  1  0  0  0  0
 43 68  1  0  0  0  0
 44 47  1  0  0  0  0
 44 68  1  0  0  0  0
 45 71  1  0  0  0  0
 46 67  1  0  0  0  0
 47 65  1  0  0  0  0
 49 60  1  0  0  0  0
 50 61  1  0  0  0  0
 51 62  1  0  0  0  0
 52 62  1  0  0  0  0
 53 62  1  0  0  0  0
 54 74  1  0  0  0  0
 55 58  1  0  0  0  0
 56 57  1  0  0  0  0
 56 61  1  0  0  0  0
 57 64  1  0  0  0  0
 58 73  1  0  0  0  0
 59 62  1  0  0  0  0
 59 72  1  0  0  0  0
 60 74  1  0  0  0  0
 61 81  1  0  0  0  0
 63 65  1  0  0  0  0
M  CHG  2  66   1  74   1
M  ISO  4  35 100  61 101  73 100  81 101
M  END
> <Batch ID>
0082

> <Smiles>
CNC(C)C(=O)NC(C(=O)N1Cc2cc([101O:1][101CH:1](C)CCn3cc(C)nc3CC[100NH:0][100C:0](=O)N3CCCC(n4nc(-c5ccc(Oc6ccc(F)cc6F)cc5)c(C(N)=O)c4N)C3)ccc2CC1C(=O)NC1CCCc2ccccc21)C(C)(C)C

> <Shape>
0.232

> <Color>
0.191

> <Negative vol penalty>
0.000

$$$$

  -OEChem-04052318493D

 86 94  0     1  0  0  0  0  0999 V2000
  -29.1645  -15.1756   39.5987 C   0  0  0  0  0  0  0  0  0  0  0  0
  -28.9110  -14.3831   38.4837 C   0  0  0  0  0  0  0  0  0  0  0  0
  -23.2051   -9.8519   19.9516 C   0  0  0  0  0  0  0  0  0  0  0  0
  -23.9149   -9.9310   22.2596 C   0  0  0  0  0  0  0  0  0  0  0  0
  -28.4704  -16.3719   39.7746 C   0  0  0  0  0  0  0  0  0  0  0  0
  -27.9624  -14.7861   37.5445 C   0  0  0  0  0  0  0  0  0  0  0  0
  -29.5806  -14.2137   32.7802 C   0  0  0  0  0  0  0  0  0  0  0  0
  -22.5142   -8.6669   20.2047 C   0  0  0  0  0  0  0  0  0  0  0  0
  -23.2240   -8.7461   22.5127 C   0  0  0  0  0  0  0  0  0  0  0  0
  -29.5499  -12.9255   32.2478 C   0  0  0  0  0  0  0  0  0  0  0  0
  -20.0273   -7.7972   23.0618 C   0  0  0  0  0  0  0  0  0  0  0  0
  -19.2486   -7.7370   24.2175 C   0  0  0  0  0  0  0  0  0  0  0  0
  -27.4984  -13.4572   31.0955 C   0  0  0  0  0  0  0  0  0  0  0  0
  -29.1863  -11.5887   26.2041 C   0  0  0  0  0  0  0  0  0  0  0  0
  -20.5687   -5.8752   25.0100 C   0  0  0  0  0  0  0  0  0  0  0  0
  -23.9055  -10.4840   20.9790 C   0  0  0  0  0  0  0  0  0  0  0  0
  -24.1242  -13.0209   20.8257 C   0  0  0  0  0  0  0  0  0  0  0  0
  -27.5198  -16.7945   38.8322 C   0  0  0  0  0  0  0  0  0  0  0  0
  -28.5629  -15.1313   32.4824 C   0  0  0  0  0  0  0  0  0  0  0  0
  -27.2540  -15.9886   37.7087 C   0  0  0  0  0  0  0  0  0  0  0  0
  -27.5198  -14.7572   31.6233 C   0  0  0  0  0  0  0  0  0  0  0  0
  -28.0070  -10.9016   26.5841 C   0  0  0  0  0  0  0  0  0  0  0  0
  -22.5236   -8.1140   21.4852 C   0  0  0  0  0  0  0  0  0  0  0  0
  -28.5072  -12.5462   31.4076 C   0  0  0  0  0  0  0  0  0  0  0  0
  -21.0766   -6.8963   22.8801 C   0  0  0  0  0  0  0  0  0  0  0  0
  -19.5193   -6.7760   25.1916 C   0  0  0  0  0  0  0  0  0  0  0  0
  -21.3473   -5.9353   23.8542 C   0  0  0  0  0  0  0  0  0  0  0  0
  -24.6199  -11.7077   20.7181 C   0  0  0  0  0  0  0  0  0  0  0  0
  -28.8119  -12.6163   25.3667 C   0  0  0  0  0  0  0  0  0  0  0  0
  -26.9479  -11.5301   25.9671 C   0  0  0  0  0  0  0  0  0  0  0  0
  -25.1853  -13.8185   20.4730 C   0  0  0  0  0  0  0  0  0  0  0  0
  -22.8211  -13.4789   21.2103 C   0  0  0  0  0  0  0  0  0  0  0  0
  -26.3849  -16.6970   34.1879 C   0  0  0  0  0  0  0  0  0  0  0  0
  -25.7762  -18.1505   31.3526 C   0  0  0  0  0  0  0  0  0  0  0  0
  -30.9674  -13.9592   21.0161 C   0  0  0  0  0  0  0  0  0  0  0  0
  -25.9169  -18.0280   27.9449 C   0  0  0  0  0  0  0  0  0  0  0  0
  -26.7607  -18.0721   39.0895 C   0  0  0  0  0  0  0  0  0  0  0  0
  -28.6247  -16.5256   33.0434 C   0  0  0  0  0  0  0  0  0  0  0  0
  -26.4137  -15.7113   31.2564 C   0  0  0  0  0  0  0  0  0  0  0  0
  -26.0410  -18.6119   37.8562 C   0  0  0  0  0  0  0  0  0  0  0  0
  -29.3558  -13.1561   17.9180 C   0  0  0  0  0  0  0  0  0  0  0  0
  -25.2875  -17.4923   37.1452 C   0  0  0  0  0  0  0  0  0  0  0  0
  -27.9307  -12.7974   18.3371 C   0  0  0  0  0  0  0  0  0  0  0  0
  -30.3738  -12.7133   18.9643 C   0  0  0  0  0  0  0  0  0  0  0  0
  -28.6777  -12.8813   20.7579 C   0  0  0  0  0  0  0  0  0  0  0  0
  -26.2502  -16.4040   36.6551 C   0  0  1  0  0  0  0  0  0  0  0  0
  -27.2639  -17.2140   33.0844 C   0  0  1  0  0  0  0  0  0  0  0  0
  -27.6152  -13.3385   19.7428 C   0  0  2  0  0  0  0  0  0  0  0  0
  -25.5012  -11.2288   26.0167 C   0  0  0  0  0  0  0  0  0  0  0  0
  -25.3078  -19.3479   25.8995 C   0  0  0  0  0  0  0  0  0  0  0  0
  -31.2996  -12.2127   23.4018 C   0  0  0  0  0  0  0  0  0  0  0  0
  -31.7501  -15.2205   22.9304 C   0  0  0  0  0  0  0  0  0  0  0  0
  -29.3766  -15.4476   22.1688 C   0  0  0  0  0  0  0  0  0  0  0  0
  -22.8498  -17.3700   31.7233 C   0  0  0  0  0  0  0  0  0  0  0  0
  -22.4869  -17.8476   29.2926 C   0  0  0  0  0  0  0  0  0  0  0  0
  -23.2087  -19.6771   30.8271 C   0  0  0  0  0  0  0  0  0  0  0  0
  -26.6603  -13.4829   24.4281 C   0  0  0  0  0  0  0  0  0  0  0  0
  -28.7399  -18.1992   27.0730 C   0  0  0  0  0  0  0  0  0  0  0  0
  -27.9335   -9.7038   27.4970 C   0  0  0  0  0  0  0  0  0  0  0  0
  -29.6405  -13.6345   24.6888 C   0  0  0  0  0  0  0  0  0  0  0  0
  -28.5088   -9.9566   28.8922 C   0  0  0  0  0  0  0  0  0  0  0  0
  -27.8545  -11.1304   29.6116 C   0  0  0  0  0  0  0  0  0  1  0  0
  -24.8607  -17.8743   30.1844 C   0  0  1  0  0  0  0  0  0  0  0  0
  -26.3932  -19.0408   26.9194 C   0  0  2  0  0  0  0  0  0  0  0  0
  -30.1540  -13.2305   23.2640 C   0  0  1  0  0  0  0  0  0  0  0  0
  -30.5352  -14.4607   22.3710 C   0  0  0  0  0  0  0  0  0  0  0  0
  -23.3712  -18.1734   30.5151 C   0  0  0  0  0  0  0  0  0  0  0  0
  -25.8965  -11.6689   20.3273 N   0  0  0  0  0  0  0  0  0  0  0  0
  -27.4490  -12.5708   25.2295 N   0  0  0  0  0  0  0  0  0  0  0  0
  -26.2120  -12.9676   20.1863 N   0  0  0  0  0  0  0  0  0  0  0  0
  -26.5153  -17.0612   31.8352 N   0  0  0  0  0  0  0  0  0  0  0  0
  -30.0264  -13.2291   20.2897 N   0  0  0  0  0  0  0  0  0  0  0  0
  -25.3309  -15.1576   20.3830 N   0  0  0  0  0  0  0  0  0  0  0  0
  -21.8486  -12.5255   21.5413 N   0  0  0  0  0  0  0  0  0  0  0  0
  -26.9283  -16.8340   35.4510 N   0  0  0  0  0  0  0  0  0  0  0  0
  -25.3891  -18.6412   29.0614 N   0  0  0  0  0  0  0  0  0  0  0  0
  -27.5866  -18.5211   26.1936 N   0  3  0  0  0  0  0  0  0  0  0  0
  -22.5230  -14.6969   21.2432 O   0  0  0  0  0  0  0  0  0  0  0  0
  -25.2937  -16.2113   33.9138 O   0  0  0  0  0  0  0  0  0  0  0  0
  -25.8387  -19.2924   31.8151 O   0  0  0  0  0  0  0  0  0  0  0  0
  -32.1066  -14.2124   20.6157 O   0  0  0  0  0  0  0  0  0  0  0  0
  -26.0010  -16.8142   27.7712 O   0  0  0  0  0  0  0  0  0  0  0  0
  -21.8493   -6.9579   21.7326 O   0  0  0  0  0  0  0  0  0  0  0  0
  -28.4744  -11.2892   30.8871 O   0  0  0  0  0  0  0  0  0  1  0  0
  -18.7724   -6.7194   26.3020 F   0  0  0  0  0  0  0  0  0  0  0  0
  -22.3548   -5.0679   23.6859 F   0  0  0  0  0  0  0  0  0  0  0  0
  1  2  1  0  0  0  0
  1  5  2  0  0  0  0
  2  6  2  0  0  0  0
  3  8  2  0  0  0  0
  3 16  1  0  0  0  0
  4  9  1  0  0  0  0
  4 16  2  0  0  0  0
  5 18  1  0  0  0  0
  6 20  1  0  0  0  0
  7 10  2  0  0  0  0
  7 19  1  0  0  0  0
  8 23  1  0  0  0  0
  9 23  2  0  0  0  0
 10 24  1  0  0  0  0
 11 12  2  0  0  0  0
 11 25  1  0  0  0  0
 12 26  1  0  0  0  0
 13 21  1  0  0  0  0
 13 24  2  0  0  0  0
 14 22  1  0  0  0  0
 14 29  2  0  0  0  0
 15 26  2  0  0  0  0
 15 27  1  0  0  0  0
 16 28  1  0  0  0  0
 17 28  1  0  0  0  0
 17 31  2  0  0  0  0
 17 32  1  0  0  0  0
 18 20  2  0  0  0  0
 18 37  1  0  0  0  0
 19 21  2  0  0  0  0
 19 38  1  0  0  0  0
 20 46  1  0  0  0  0
 21 39  1  0  0  0  0
 22 30  2  0  0  0  0
 22 59  1  0  0  0  0
 23 83  1  0  0  0  0
 24 84  1  0  0  0  0
 25 27  2  0  0  0  0
 25 83  1  0  0  0  0
 26 85  1  0  0  0  0
 27 86  1  0  0  0  0
 28 68  2  0  0  0  0
 29 60  1  0  0  0  0
 29 69  1  0  0  0  0
 30 49  1  0  0  0  0
 30 69  1  0  0  0  0
 31 70  1  0  0  0  0
 31 73  1  0  0  0  0
 32 74  1  0  0  0  0
 32 78  2  0  0  0  0
 33 47  1  0  0  0  0
 33 75  1  0  0  0  0
 33 79  2  0  0  0  0
 34 63  1  0  0  0  0
 34 71  1  0  0  0  0
 34 80  2  0  0  0  0
 35 66  1  0  0  0  0
 35 72  1  0  0  0  0
 35 81  2  0  0  0  0
 36 64  1  0  0  0  0
 36 76  1  0  0  0  0
 36 82  2  0  0  0  0
 37 40  1  0  0  0  0
 38 47  1  0  0  0  0
 39 71  1  0  0  0  0
 40 42  1  0  0  0  0
 41 43  1  0  0  0  0
 41 44  1  0  0  0  0
 42 46  1  0  0  0  0
 43 48  1  0  0  0  0
 44 72  1  0  0  0  0
 45 48  1  0  0  0  0
 45 72  1  0  0  0  0
 46 75  1  0  0  0  0
 47 71  1  0  0  0  0
 48 70  1  0  0  0  0
 50 64  1  0  0  0  0
 51 65  1  0  0  0  0
 52 66  1  0  0  0  0
 53 66  1  0  0  0  0
 54 67  1  0  0  0  0
 55 67  1  0  0  0  0
 56 67  1  0  0  0  0
 57 69  1  0  0  0  0
 58 77  1  0  0  0  0
 59 61  1  0  0  0  0
 60 65  1  0  0  0  0
 61 62  1  0  0  0  0
 62 84  1  0  0  0  0
 63 67  1  0  0  0  0
 63 76  1  0  0  0  0
 64 77  1  0  0  0  0
 65 66  1  0  0  0  0
 68 70  1  0  0  0  0
M  CHG  1  77   1
M  ISO  4  35 100  62 101  66 100  84 101
M  END
> <Batch ID>
0082

> <Smiles>
CNC(C)C(=O)NC(C(=O)N1Cc2cc([101O:1][101CH2:1]CCc3cc(CC(C)[100C:0](C)(C)[100C:0](=O)N4CCCC(n5nc(-c6ccc(Oc7ccc(F)cc7F)cc6)c(C(N)=O)c5N)C4)n(C)c3C)ccc2CC1C(=O)NC1CCCc2ccccc21)C(C)(C)C

> <Shape>
0.153

> <Color>
0.185

> <Negative vol penalty>
0.000

$$$$

  -OEChem-04052318493D

 87 95  0     1  0  0  0  0  0999 V2000
  -16.3960  -21.2909   17.8054 C   0  0  0  0  0  0  0  0  0  0  0  0
  -17.7691  -21.4087   17.9953 C   0  0  0  0  0  0  0  0  0  0  0  0
  -23.3034   -9.8199   19.8769 C   0  0  0  0  0  0  0  0  0  0  0  0
  -23.6916   -9.9352   22.2588 C   0  0  0  0  0  0  0  0  0  0  0  0
  -15.8474  -20.0640   17.4345 C   0  0  0  0  0  0  0  0  0  0  0  0
  -18.5944  -20.2992   17.8154 C   0  0  0  0  0  0  0  0  0  0  0  0
  -24.3047  -20.2785   15.6024 C   0  0  0  0  0  0  0  0  0  0  0  0
  -22.5579   -8.6545   20.0548 C   0  0  0  0  0  0  0  0  0  0  0  0
  -22.9460   -8.7697   22.4367 C   0  0  0  0  0  0  0  0  0  0  0  0
  -25.5517  -20.2417   16.2248 C   0  0  0  0  0  0  0  0  0  0  0  0
  -23.1584   -5.3682   20.5690 C   0  0  0  0  0  0  0  0  0  0  0  0
  -23.3977   -4.3071   19.6959 C   0  0  0  0  0  0  0  0  0  0  0  0
  -25.6224  -17.8488   15.9283 C   0  0  0  0  0  0  0  0  0  0  0  0
  -30.4375  -18.4007   17.1694 C   0  0  0  0  0  0  0  0  0  0  0  0
  -21.0952   -4.3864   18.9684 C   0  0  0  0  0  0  0  0  0  0  0  0
  -30.5702  -17.6272   19.7828 C   0  0  0  0  0  0  0  0  0  0  0  0
  -23.8703  -10.4602   20.9789 C   0  0  0  0  0  0  0  0  0  0  0  0
  -24.1647  -12.9885   20.8094 C   0  0  0  0  0  0  0  0  0  0  0  0
  -16.6674  -18.9412   17.2406 C   0  0  0  0  0  0  0  0  0  0  0  0
  -23.7013  -19.0973   15.1473 C   0  0  0  0  0  0  0  0  0  0  0  0
  -18.0561  -19.0557   17.4429 C   0  0  0  0  0  0  0  0  0  0  0  0
  -24.3689  -17.8736   15.2982 C   0  0  0  0  0  0  0  0  0  0  0  0
  -31.6358  -18.5376   17.8613 C   0  0  0  0  0  0  0  0  0  0  0  0
  -31.7117  -18.1459   19.1932 C   0  0  0  0  0  0  0  0  0  0  0  0
  -22.3792   -8.1294   21.3347 C   0  0  0  0  0  0  0  0  0  0  0  0
  -26.2095  -19.0264   16.3904 C   0  0  0  0  0  0  0  0  0  0  0  0
  -21.8874   -5.9384   20.6419 C   0  0  0  0  0  0  0  0  0  0  0  0
  -22.3661   -3.8162   18.8956 C   0  0  0  0  0  0  0  0  0  0  0  0
  -20.8559   -5.4475   19.8416 C   0  0  0  0  0  0  0  0  0  0  0  0
  -24.6410  -11.6638   20.7957 C   0  0  0  0  0  0  0  0  0  0  0  0
  -29.3530  -17.8704   17.8495 C   0  0  0  0  0  0  0  0  0  0  0  0
  -25.2818  -13.7572   20.5910 C   0  0  0  0  0  0  0  0  0  0  0  0
  -22.8318  -13.4802   21.0024 C   0  0  0  0  0  0  0  0  0  0  0  0
  -21.0186  -17.5386   15.8382 C   0  0  0  0  0  0  0  0  0  0  0  0
  -21.9280  -15.6634   13.3525 C   0  0  0  0  0  0  0  0  0  0  0  0
  -24.4549  -14.4892   11.3820 C   0  0  0  0  0  0  0  0  0  0  0  0
  -30.9270  -12.9968   21.6682 C   0  0  0  0  0  0  0  0  0  0  0  0
  -16.0233  -17.6244   16.8859 C   0  0  0  0  0  0  0  0  0  0  0  0
  -22.3678  -19.1572   14.4541 C   0  0  0  0  0  0  0  0  0  0  0  0
  -23.7731  -16.5796   14.8090 C   0  0  0  0  0  0  0  0  0  0  0  0
  -17.0089  -16.5889   16.3505 C   0  0  0  0  0  0  0  0  0  0  0  0
  -29.5624  -13.6430   18.4757 C   0  0  0  0  0  0  0  0  0  0  0  0
  -18.2548  -16.5337   17.2289 C   0  0  0  0  0  0  0  0  0  0  0  0
  -28.0857  -13.3268   18.7082 C   0  0  0  0  0  0  0  0  0  0  0  0
  -30.4819  -12.6531   19.1933 C   0  0  0  0  0  0  0  0  0  0  0  0
  -28.7221  -12.1986   20.8724 C   0  0  0  0  0  0  0  0  0  0  0  0
  -18.9869  -17.8811   17.2332 C   0  0  1  0  0  0  0  0  0  0  0  0
  -21.6153  -17.8306   14.4905 C   0  0  1  0  0  0  0  0  0  0  0  0
  -27.7772  -13.2139   20.2113 C   0  0  2  0  0  0  0  0  0  0  0  0
  -32.8232  -19.1053   17.1569 C   0  0  0  0  0  0  0  0  0  0  0  0
  -24.8946  -12.9403    9.4572 C   0  0  0  0  0  0  0  0  0  0  0  0
  -21.6454  -13.2668   15.2197 C   0  0  0  0  0  0  0  0  0  0  0  0
  -22.9769  -11.9215   13.5811 C   0  0  0  0  0  0  0  0  0  0  0  0
  -20.7812  -12.8919   12.9030 C   0  0  0  0  0  0  0  0  0  0  0  0
  -34.2983  -16.4390   18.7963 C   0  0  0  0  0  0  0  0  0  0  0  0
  -35.1236  -17.3732   20.9483 C   0  0  0  0  0  0  0  0  0  0  0  0
  -33.0103  -12.0250   20.6098 C   0  0  0  0  0  0  0  0  0  0  0  0
  -25.4875  -16.6910    9.6953 C   0  0  0  0  0  0  0  0  0  0  0  0
  -32.9694  -18.2711   19.9810 C   0  0  0  0  0  0  0  0  0  0  0  0
  -28.0438  -17.7083   17.1347 C   0  0  0  0  0  0  0  0  0  1  0  0
  -33.9870  -14.8109   21.6260 C   0  0  0  0  0  0  0  0  0  0  0  0
  -33.0977  -15.8413   20.9133 C   0  0  0  0  0  0  0  0  0  0  0  0
  -33.1683  -13.7529   22.3634 C   0  0  0  0  0  0  0  0  0  0  0  0
  -22.7722  -14.4208   13.2036 C   0  0  1  0  0  0  0  0  0  0  0  0
  -24.5838  -14.3694    9.8742 C   0  0  2  0  0  0  0  0  0  0  0  0
  -22.0546  -13.1492   13.7379 C   0  0  0  0  0  0  0  0  0  0  0  0
  -33.8475  -16.9838   20.1696 C   0  0  0  0  0  0  0  0  0  0  0  0
  -29.3886  -17.4788   19.1430 N   0  0  0  0  0  0  0  0  0  0  0  0
  -25.9579  -11.5914   20.5851 N   0  0  0  0  0  0  0  0  0  0  0  0
  -26.3188  -12.8804   20.4644 N   0  0  0  0  0  0  0  0  0  0  0  0
  -22.4646  -16.6894   14.1433 N   0  0  0  0  0  0  0  0  0  0  0  0
  -30.1230  -12.5400   20.6136 N   0  0  0  0  0  0  0  0  0  0  0  0
  -25.4684  -15.0909   20.4968 N   0  0  0  0  0  0  0  0  0  0  0  0
  -21.8020  -12.5535   21.2143 N   0  0  0  0  0  0  0  0  0  0  0  0
  -19.7459  -18.0479   16.0122 N   0  0  0  0  0  0  0  0  0  0  0  0
  -23.1471  -14.3483   11.7956 N   0  0  0  0  0  0  0  0  0  0  0  0
  -32.3159  -12.9806   21.4706 N   0  0  0  0  0  0  0  0  0  0  0  0
  -25.6759  -15.2524    9.3758 N   0  3  0  0  0  0  0  0  0  0  0  0
  -22.5594  -14.7042   20.9710 O   0  0  0  0  0  0  0  0  0  0  0  0
  -21.6644  -16.8975   16.6589 O   0  0  0  0  0  0  0  0  0  0  0  0
  -20.8359  -15.7245   12.7821 O   0  0  0  0  0  0  0  0  0  0  0  0
  -25.4185  -14.6844   12.1194 O   0  0  0  0  0  0  0  0  0  0  0  0
  -30.4326  -13.3905   22.7325 O   0  0  0  0  0  0  0  0  0  0  0  0
  -21.6516   -6.9923   21.5086 O   0  0  0  0  0  0  0  0  0  0  0  0
  -27.4265  -18.9876   16.9982 O   0  0  0  0  0  0  0  0  0  1  0  0
  -22.5965   -2.7982   18.0560 F   0  0  0  0  0  0  0  0  0  0  0  0
  -19.6331   -5.9920   19.9063 F   0  0  0  0  0  0  0  0  0  0  0  0
  1  2  1  0  0  0  0
  1  5  2  0  0  0  0
  2  6  2  0  0  0  0
  3  8  2  0  0  0  0
  3 17  1  0  0  0  0
  4  9  1  0  0  0  0
  4 17  2  0  0  0  0
  5 19  1  0  0  0  0
  6 21  1  0  0  0  0
  7 10  2  0  0  0  0
  7 20  1  0  0  0  0
  8 25  1  0  0  0  0
  9 25  2  0  0  0  0
 10 26  1  0  0  0  0
 11 12  2  0  0  0  0
 11 27  1  0  0  0  0
 12 28  1  0  0  0  0
 13 22  1  0  0  0  0
 13 26  2  0  0  0  0
 14 23  2  0  0  0  0
 14 31  1  0  0  0  0
 15 28  2  0  0  0  0
 15 29  1  0  0  0  0
 16 24  2  0  0  0  0
 16 68  1  0  0  0  0
 17 30  1  0  0  0  0
 18 30  1  0  0  0  0
 18 32  2  0  0  0  0
 18 33  1  0  0  0  0
 19 21  2  0  0  0  0
 19 38  1  0  0  0  0
 20 22  2  0  0  0  0
 20 39  1  0  0  0  0
 21 47  1  0  0  0  0
 22 40  1  0  0  0  0
 23 24  1  0  0  0  0
 23 50  1  0  0  0  0
 24 59  1  0  0  0  0
 25 84  1  0  0  0  0
 26 85  1  0  0  0  0
 27 29  2  0  0  0  0
 27 84  1  0  0  0  0
 28 86  1  0  0  0  0
 29 87  1  0  0  0  0
 30 69  2  0  0  0  0
 31 60  1  0  0  0  0
 31 68  2  0  0  0  0
 32 70  1  0  0  0  0
 32 73  1  0  0  0  0
 33 74  1  0  0  0  0
 33 79  2  0  0  0  0
 34 48  1  0  0  0  0
 34 75  1  0  0  0  0
 34 80  2  0  0  0  0
 35 64  1  0  0  0  0
 35 71  1  0  0  0  0
 35 81  2  0  0  0  0
 36 65  1  0  0  0  0
 36 76  1  0  0  0  0
 36 82  2  0  0  0  0
 37 72  1  0  0  0  0
 37 77  1  0  0  0  0
 37 83  2  0  0  0  0
 38 41  1  0  0  0  0
 39 48  1  0  0  0  0
 40 71  1  0  0  0  0
 41 43  1  0  0  0  0
 42 44  1  0  0  0  0
 42 45  1  0  0  0  0
 43 47  1  0  0  0  0
 44 49  1  0  0  0  0
 45 72  1  0  0  0  0
 46 49  1  0  0  0  0
 46 72  1  0  0  0  0
 47 75  1  0  0  0  0
 48 71  1  0  0  0  0
 49 70  1  0  0  0  0
 51 65  1  0  0  0  0
 52 66  1  0  0  0  0
 53 66  1  0  0  0  0
 54 66  1  0  0  0  0
 55 67  1  0  0  0  0
 56 67  1  0  0  0  0
 57 77  1  0  0  0  0
 58 78  1  0  0  0  0
 59 67  1  0  0  0  0
 60 85  1  0  0  0  0
 61 62  1  0  0  0  0
 61 63  1  0  0  0  0
 62 67  1  0  0  0  0
 63 77  1  0  0  0  0
 64 66  1  0  0  0  0
 64 76  1  0  0  0  0
 65 78  1  0  0  0  0
 69 70  1  0  0  0  0
M  CHG  1  78   1
M  ISO  4  37 100  60 101  77 100  85 101
M  END
> <Batch ID>
0082

> <Smiles>
CNC(C)C(=O)NC(C(=O)N1Cc2cc([101O:1][101CH2:1]c3cc(C)c(CC(C)(C)CCC[100N:0](C)[100C:0](=O)N4CCCC(n5nc(-c6ccc(Oc7ccc(F)cc7F)cc6)c(C(N)=O)c5N)C4)cn3)ccc2CC1C(=O)NC1CCCc2ccccc21)C(C)(C)C

> <Shape>
0.140

> <Color>
0.175

> <Negative vol penalty>
0.000

$$$$

  -OEChem-04052318493D

 89 97  0     1  0  0  0  0  0999 V2000
  -24.5231  -17.2014   24.8771 C   0  0  0  0  0  0  0  0  0  0  0  0
  -25.2104  -18.3488   24.4941 C   0  0  0  0  0  0  0  0  0  0  0  0
  -24.9025  -13.1318   21.7893 C   0  0  0  0  0  0  0  0  0  0  0  0
  -26.7306  -12.6114   20.2980 C   0  0  0  0  0  0  0  0  0  0  0  0
  -23.2323  -16.9723   24.4024 C   0  0  0  0  0  0  0  0  0  0  0  0
  -24.6076  -19.2672   23.6353 C   0  0  0  0  0  0  0  0  0  0  0  0
  -25.2752  -25.3546   23.6992 C   0  0  0  0  0  0  0  0  0  0  0  0
  -24.6256  -11.7715   21.9247 C   0  0  0  0  0  0  0  0  0  0  0  0
  -26.4538  -11.2510   20.4334 C   0  0  0  0  0  0  0  0  0  0  0  0
  -26.0716  -26.2188   22.9491 C   0  0  0  0  0  0  0  0  0  0  0  0
  -23.0731   -9.3565   20.1409 C   0  0  0  0  0  0  0  0  0  0  0  0
  -21.7394   -8.9561   20.0599 C   0  0  0  0  0  0  0  0  0  0  0  0
  -24.2196  -26.6198   21.4562 C   0  0  0  0  0  0  0  0  0  0  0  0
  -21.8749   -8.0523   22.2964 C   0  0  0  0  0  0  0  0  0  0  0  0
  -28.4934  -26.1166   18.1966 C   0  0  0  0  0  0  0  0  0  0  0  0
  -25.9550  -13.5518   20.9759 C   0  0  0  0  0  0  0  0  0  0  0  0
  -27.1089  -15.7313   21.6284 C   0  0  0  0  0  0  0  0  0  0  0  0
  -22.6098  -17.8932   23.5451 C   0  0  0  0  0  0  0  0  0  0  0  0
  -23.9461  -25.1076   23.3266 C   0  0  0  0  0  0  0  0  0  0  0  0
  -23.3078  -19.0495   23.1476 C   0  0  0  0  0  0  0  0  0  0  0  0
  -23.4077  -25.7540   22.2048 C   0  0  0  0  0  0  0  0  0  0  0  0
  -25.4012  -10.8310   21.2467 C   0  0  0  0  0  0  0  0  0  0  0  0
  -25.5447  -26.8493   21.8257 C   0  0  0  0  0  0  0  0  0  0  0  0
  -23.8077   -9.1047   21.2996 C   0  0  0  0  0  0  0  0  0  0  0  0
  -21.1403   -8.3041   21.1377 C   0  0  0  0  0  0  0  0  0  0  0  0
  -23.2086   -8.4527   22.3774 C   0  0  0  0  0  0  0  0  0  0  0  0
  -26.2411  -14.9569   20.8352 C   0  0  0  0  0  0  0  0  0  0  0  0
  -28.3994  -27.1603   19.0944 C   0  0  0  0  0  0  0  0  0  0  0  0
  -29.5296  -25.2320   18.4158 C   0  0  0  0  0  0  0  0  0  0  0  0
  -27.0309  -16.9930   21.0912 C   0  0  0  0  0  0  0  0  0  0  0  0
  -30.2143  -26.4071   20.2372 C   0  0  0  0  0  0  0  0  0  0  0  0
  -27.9135  -15.3448   22.7503 C   0  0  0  0  0  0  0  0  0  0  0  0
  -22.3081  -22.5342   22.4331 C   0  0  0  0  0  0  0  0  0  0  0  0
  -19.7879  -24.5723   22.5644 C   0  0  0  0  0  0  0  0  0  0  0  0
  -18.6536  -27.7887   22.4423 C   0  0  0  0  0  0  0  0  0  0  0  0
  -26.9195  -20.4042   16.6756 C   0  0  0  0  0  0  0  0  0  0  0  0
  -21.2311  -17.5791   23.0202 C   0  0  0  0  0  0  0  0  0  0  0  0
  -23.0922  -24.1934   24.1618 C   0  0  0  0  0  0  0  0  0  0  0  0
  -21.9806  -25.5384   21.7743 C   0  0  0  0  0  0  0  0  0  0  0  0
  -20.5213  -18.7861   22.4121 C   0  0  0  0  0  0  0  0  0  0  0  0
  -23.8389  -18.9259   17.6764 C   0  0  0  0  0  0  0  0  0  0  0  0
  -21.4601  -19.5425   21.4776 C   0  0  0  0  0  0  0  0  0  0  0  0
  -24.2613  -17.8221   18.6474 C   0  0  0  0  0  0  0  0  0  0  0  0
  -24.8329  -19.0773   16.5270 C   0  0  0  0  0  0  0  0  0  0  0  0
  -26.6570  -18.1690   17.9132 C   0  0  0  0  0  0  0  0  0  0  0  0
  -22.6783  -20.0816   22.2373 C   0  0  1  0  0  0  0  0  0  0  0  0
  -21.9064  -23.6169   23.3944 C   0  0  1  0  0  0  0  0  0  0  0  0
  -25.7147  -18.0165   19.1196 C   0  0  2  0  0  0  0  0  0  0  0  0
  -31.2162  -23.7623   17.3153 C   0  0  0  0  0  0  0  0  0  0  0  0
  -16.5395  -29.1370   22.5413 C   0  0  0  0  0  0  0  0  0  0  0  0
  -31.2598  -23.7286   22.4603 C   0  0  0  0  0  0  0  0  0  0  0  0
  -29.4146  -24.2788   24.0581 C   0  0  0  0  0  0  0  0  0  0  0  0
  -29.2720  -22.3051   19.3485 C   0  0  0  0  0  0  0  0  0  0  0  0
  -19.1257  -23.7392   19.7047 C   0  0  0  0  0  0  0  0  0  0  0  0
  -17.6472  -25.7525   19.5347 C   0  0  0  0  0  0  0  0  0  0  0  0
  -17.1416  -23.9738   21.2090 C   0  0  0  0  0  0  0  0  0  0  0  0
  -19.5544  -29.2389   24.8599 C   0  0  0  0  0  0  0  0  0  0  0  0
  -27.2973  -28.1796   18.9373 C   0  0  0  0  0  0  0  0  0  0  0  0
  -31.1682  -26.5658   21.3725 C   0  0  0  0  0  0  0  0  0  0  0  0
  -30.5494  -26.1254   22.7124 C   0  0  0  0  0  0  0  0  0  0  0  0
  -29.0648  -21.6249   16.9337 C   0  0  0  0  0  0  0  0  0  0  0  0
  -26.0339  -27.7893   19.6967 C   0  0  0  0  0  0  0  0  0  1  0  0
  -29.7107  -24.0699   17.4976 C   0  0  1  0  0  0  0  0  0  0  0  0
  -19.1165  -25.5065   21.5869 C   0  0  1  0  0  0  0  0  0  0  0  0
  -17.6961  -28.5538   23.3380 C   0  0  2  0  0  0  0  0  0  0  0  0
  -30.0761  -24.6601   22.7330 C   0  0  0  0  0  0  0  0  0  0  0  0
  -28.9099  -22.7882   17.9358 C   0  0  2  0  0  0  0  0  0  0  0  0
  -18.2853  -24.7458   20.5156 C   0  0  0  0  0  0  0  0  0  0  0  0
  -25.6549  -15.6673   19.8679 N   0  0  0  0  0  0  0  0  0  0  0  0
  -29.2459  -27.3367   20.1301 N   0  0  0  0  0  0  0  0  0  0  0  0
  -30.4120  -25.3475   19.4299 N   0  0  0  0  0  0  0  0  0  0  0  0
  -26.1551  -16.9013   20.0497 N   0  0  0  0  0  0  0  0  0  0  0  0
  -21.1877  -24.6306   22.6197 N   0  0  0  0  0  0  0  0  0  0  0  0
  -26.1919  -19.2600   17.0424 N   0  0  0  0  0  0  0  0  0  0  0  0
  -27.6268  -18.1609   21.4129 N   0  0  0  0  0  0  0  0  0  0  0  0
  -27.8753  -14.0084   23.1711 N   0  0  0  0  0  0  0  0  0  0  0  0
  -22.3227  -21.2679   22.9860 N   0  0  0  0  0  0  0  0  0  0  0  0
  -18.3407  -26.4469   22.3883 N   0  0  0  0  0  0  0  0  0  0  0  0
  -28.1970  -20.5026   17.2133 N   0  0  0  0  0  0  0  0  0  0  0  0
  -18.4069  -29.6713   24.0213 N   0  3  0  0  0  0  0  0  0  0  0  0
  -28.6321  -16.1638   23.3719 O   0  0  0  0  0  0  0  0  0  0  0  0
  -22.5830  -22.8259   21.2751 O   0  0  0  0  0  0  0  0  0  0  0  0
  -19.0956  -23.8237   23.2585 O   0  0  0  0  0  0  0  0  0  0  0  0
  -19.5838  -28.3281   21.8470 O   0  0  0  0  0  0  0  0  0  0  0  0
  -26.4623  -21.2762   15.9289 O   0  0  0  0  0  0  0  0  0  0  0  0
  -25.1315   -9.5035   21.3788 O   0  0  0  0  0  0  0  0  0  0  0  0
  -26.3200  -27.6928   21.0914 O   0  0  0  0  0  0  0  0  0  1  0  0
  -19.8591   -7.9210   21.0603 F   0  0  0  0  0  0  0  0  0  0  0  0
  -23.9090   -8.2091   23.4936 F   0  0  0  0  0  0  0  0  0  0  0  0
  1  2  1  0  0  0  0
  1  5  2  0  0  0  0
  2  6  2  0  0  0  0
  3  8  2  0  0  0  0
  3 16  1  0  0  0  0
  4  9  1  0  0  0  0
  4 16  2  0  0  0  0
  5 18  1  0  0  0  0
  6 20  1  0  0  0  0
  7 10  2  0  0  0  0
  7 19  1  0  0  0  0
  8 22  1  0  0  0  0
  9 22  2  0  0  0  0
 10 23  1  0  0  0  0
 11 12  2  0  0  0  0
 11 24  1  0  0  0  0
 12 25  1  0  0  0  0
 13 21  1  0  0  0  0
 13 23  2  0  0  0  0
 14 25  2  0  0  0  0
 14 26  1  0  0  0  0
 15 28  1  0  0  0  0
 15 29  2  0  0  0  0
 16 27  1  0  0  0  0
 17 27  1  0  0  0  0
 17 30  2  0  0  0  0
 17 32  1  0  0  0  0
 18 20  2  0  0  0  0
 18 37  1  0  0  0  0
 19 21  2  0  0  0  0
 19 38  1  0  0  0  0
 20 46  1  0  0  0  0
 21 39  1  0  0  0  0
 22 86  1  0  0  0  0
 23 87  1  0  0  0  0
 24 26  2  0  0  0  0
 24 86  1  0  0  0  0
 25 88  1  0  0  0  0
 26 89  1  0  0  0  0
 27 69  2  0  0  0  0
 28 58  1  0  0  0  0
 28 70  2  0  0  0  0
 29 63  1  0  0  0  0
 29 71  1  0  0  0  0
 30 72  1  0  0  0  0
 30 75  1  0  0  0  0
 31 59  1  0  0  0  0
 31 70  1  0  0  0  0
 31 71  2  0  0  0  0
 32 76  1  0  0  0  0
 32 81  2  0  0  0  0
 33 47  1  0  0  0  0
 33 77  1  0  0  0  0
 33 82  2  0  0  0  0
 34 64  1  0  0  0  0
 34 73  1  0  0  0  0
 34 83  2  0  0  0  0
 35 65  1  0  0  0  0
 35 78  1  0  0  0  0
 35 84  2  0  0  0  0
 36 74  1  0  0  0  0
 36 79  1  0  0  0  0
 36 85  2  0  0  0  0
 37 40  1  0  0  0  0
 38 47  1  0  0  0  0
 39 73  1  0  0  0  0
 40 42  1  0  0  0  0
 41 43  1  0  0  0  0
 41 44  1  0  0  0  0
 42 46  1  0  0  0  0
 43 48  1  0  0  0  0
 44 74  1  0  0  0  0
 45 48  1  0  0  0  0
 45 74  1  0  0  0  0
 46 77  1  0  0  0  0
 47 73  1  0  0  0  0
 48 72  1  0  0  0  0
 49 63  1  0  0  0  0
 50 65  1  0  0  0  0
 51 66  1  0  0  0  0
 52 66  1  0  0  0  0
 53 67  1  0  0  0  0
 54 68  1  0  0  0  0
 55 68  1  0  0  0  0
 56 68  1  0  0  0  0
 57 80  1  0  0  0  0
 58 62  1  0  0  0  0
 59 60  1  0  0  0  0
 60 66  1  0  0  0  0
 61 67  1  0  0  0  0
 61 79  1  0  0  0  0
 62 87  1  0  0  0  0
 63 67  1  0  0  0  0
 64 68  1  0  0  0  0
 64 78  1  0  0  0  0
 65 80  1  0  0  0  0
 69 72  1  0  0  0  0
M  CHG  1  80   1
M  ISO  4  36 100  62 101  79 100  87 101
M  END
> <Batch ID>
0082

> <Smiles>
CNC(C)C(=O)NC(C(=O)N1Cc2cc([101O:1][101CH2:1]Cc3cc(C(C)C(C)C[100NH:0][100C:0](=O)N4CCCC(n5nc(-c6ccc(Oc7ccc(F)cc7F)cc6)c(C(N)=O)c5N)C4)nc(CCC(C)C)n3)ccc2CC1C(=O)NC1CCCc2ccccc21)C(C)(C)C

> <Shape>
0.201

> <Color>
0.050

> <Negative vol penalty>
0.000

$$$$

  -OEChem-04052318493D

 83 91  0     1  0  0  0  0  0999 V2000
  -23.4081  -21.0257   27.1572 C   0  0  0  0  0  0  0  0  0  0  0  0
  -24.5059  -21.1567   26.3128 C   0  0  0  0  0  0  0  0  0  0  0  0
  -26.9559  -13.5876   21.3773 C   0  0  0  0  0  0  0  0  0  0  0  0
  -26.8153  -13.9438   18.9918 C   0  0  0  0  0  0  0  0  0  0  0  0
  -22.2274  -21.7115   26.8752 C   0  0  0  0  0  0  0  0  0  0  0  0
  -24.4232  -21.9728   25.1851 C   0  0  0  0  0  0  0  0  0  0  0  0
  -28.9087  -25.3626   22.7571 C   0  0  0  0  0  0  0  0  0  0  0  0
  -26.1208  -12.4764   21.2606 C   0  0  0  0  0  0  0  0  0  0  0  0
  -25.9802  -12.8326   18.8751 C   0  0  0  0  0  0  0  0  0  0  0  0
  -29.7745  -25.1445   21.6863 C   0  0  0  0  0  0  0  0  0  0  0  0
  -22.8135  -11.8724   20.9131 C   0  0  0  0  0  0  0  0  0  0  0  0
  -21.7782  -11.7406   21.8386 C   0  0  0  0  0  0  0  0  0  0  0  0
  -28.2975  -26.3941   20.2454 C   0  0  0  0  0  0  0  0  0  0  0  0
  -22.6975   -9.6281   22.5661 C   0  0  0  0  0  0  0  0  0  0  0  0
  -30.8605  -20.5384   15.8863 C   0  0  0  0  0  0  0  0  0  0  0  0
  -29.9097  -20.1535   14.9836 C   0  0  0  0  0  0  0  0  0  0  0  0
  -27.3031  -14.3213   20.2429 C   0  0  0  0  0  0  0  0  0  0  0  0
  -29.5706  -15.4894   20.2827 C   0  0  0  0  0  0  0  0  0  0  0  0
  -22.1333  -22.5440   25.7488 C   0  0  0  0  0  0  0  0  0  0  0  0
  -27.7234  -26.0900   22.5772 C   0  0  0  0  0  0  0  0  0  0  0  0
  -23.2397  -22.6693   24.8870 C   0  0  0  0  0  0  0  0  0  0  0  0
  -27.4196  -26.6222   21.3160 C   0  0  0  0  0  0  0  0  0  0  0  0
  -25.6330  -12.0989   20.0095 C   0  0  0  0  0  0  0  0  0  0  0  0
  -29.4676  -25.6579   20.4295 C   0  0  0  0  0  0  0  0  0  0  0  0
  -23.7907  -10.8820   20.8141 C   0  0  0  0  0  0  0  0  0  0  0  0
  -21.7203  -10.6185   22.6651 C   0  0  0  0  0  0  0  0  0  0  0  0
  -23.7328   -9.7599   21.6406 C   0  0  0  0  0  0  0  0  0  0  0  0
  -28.1652  -15.4695   20.3628 C   0  0  0  0  0  0  0  0  0  0  0  0
  -29.9059  -16.8096   20.4593 C   0  0  0  0  0  0  0  0  0  0  0  0
  -29.1069  -21.8667   16.1329 C   0  0  0  0  0  0  0  0  0  0  0  0
  -30.4907  -14.4110   20.0679 C   0  0  0  0  0  0  0  0  0  0  0  0
  -24.6260  -25.4405   22.8741 C   0  0  0  0  0  0  0  0  0  0  0  0
  -24.3027  -28.6144   22.2877 C   0  0  0  0  0  0  0  0  0  0  0  0
  -25.6134  -31.4582   20.9307 C   0  0  0  0  0  0  0  0  0  0  0  0
  -26.9443  -21.9288   19.5245 C   0  0  0  0  0  0  0  0  0  0  0  0
  -20.8207  -23.2280   25.4592 C   0  0  0  0  0  0  0  0  0  0  0  0
  -26.8132  -26.3392   23.7485 C   0  0  0  0  0  0  0  0  0  0  0  0
  -26.1697  -27.4272   21.0751 C   0  0  0  0  0  0  0  0  0  0  0  0
  -20.9371  -24.3667   24.4492 C   0  0  0  0  0  0  0  0  0  0  0  0
  -28.3718  -20.8101   22.5884 C   0  0  0  0  0  0  0  0  0  0  0  0
  -21.7686  -23.9310   23.2469 C   0  0  0  0  0  0  0  0  0  0  0  0
  -28.6075  -19.3164   22.3582 C   0  0  0  0  0  0  0  0  0  0  0  0
  -27.0886  -21.2896   21.9134 C   0  0  0  0  0  0  0  0  0  0  0  0
  -27.2253  -19.4799   20.2460 C   0  0  0  0  0  0  0  0  0  0  0  0
  -23.1970  -23.5645   23.6677 C   0  0  1  0  0  0  0  0  0  0  0  0
  -25.3795  -26.6562   23.3343 C   0  0  1  0  0  0  0  0  0  0  0  0
  -28.5368  -18.9617   20.8607 C   0  0  2  0  0  0  0  0  0  0  0  0
  -25.1003  -33.8886   20.5744 C   0  0  0  0  0  0  0  0  0  0  0  0
  -32.7336  -25.8818   17.8084 C   0  0  0  0  0  0  0  0  0  0  0  0
  -22.3749  -27.8755   20.0410 C   0  0  0  0  0  0  0  0  0  0  0  0
  -22.6437  -30.1963   19.1412 C   0  0  0  0  0  0  0  0  0  0  0  0
  -21.6728  -29.8456   21.4121 C   0  0  0  0  0  0  0  0  0  0  0  0
  -27.9659  -32.3063   22.5136 C   0  0  0  0  0  0  0  0  0  0  0  0
  -28.1935  -22.9328   16.6141 C   0  0  0  0  0  0  0  0  0  0  0  0
  -31.5837  -23.7222   17.2600 C   0  0  0  0  0  0  0  0  0  0  0  0
  -31.0453  -22.3490   17.6850 C   0  0  0  0  0  0  0  0  0  0  0  0
  -26.8294  -22.4131   17.0932 C   0  0  0  0  0  0  0  0  0  0  0  0
  -31.4920  -24.6890   19.6428 C   0  0  0  0  0  0  0  0  0  1  0  0
  -24.1452  -29.4620   21.0484 C   0  0  1  0  0  0  0  0  0  0  0  0
  -25.7594  -32.8640   21.4846 C   0  0  2  0  0  0  0  0  0  0  0  0
  -32.3210  -24.5125   18.3635 C   0  0  2  0  0  0  0  0  0  0  0  0
  -22.7319  -29.3281   20.4145 C   0  0  0  0  0  0  0  0  0  0  0  0
  -27.6436  -16.6808   20.5740 N   0  0  0  0  0  0  0  0  0  0  0  0
  -30.3372  -21.6005   16.5835 N   0  0  0  0  0  0  0  0  0  0  0  0
  -28.7269  -17.4743   20.6281 N   0  0  0  0  0  0  0  0  0  0  0  0
  -28.8355  -20.9923   15.1587 N   0  3  0  0  0  0  0  0  0  0  0  0
  -25.3084  -27.6382   22.2504 N   0  0  0  0  0  0  0  0  0  0  0  0
  -27.0851  -20.9232   20.4951 N   0  0  0  0  0  0  0  0  0  0  0  0
  -31.0912  -17.4552   20.4851 N   0  0  0  0  0  0  0  0  0  0  0  0
  -29.9773  -13.1170   19.9057 N   0  0  0  0  0  0  0  0  0  0  0  0
  -23.9810  -24.7606   23.8896 N   0  0  0  0  0  0  0  0  0  0  0  0
  -24.4993  -30.8229   21.4370 N   0  0  0  0  0  0  0  0  0  0  0  0
  -26.9576  -21.4964   18.2041 N   0  0  0  0  0  0  0  0  0  0  0  0
  -27.2001  -33.2183   21.6255 N   0  3  0  0  0  0  0  0  0  0  0  0
  -31.7323  -14.5871   20.0375 O   0  0  0  0  0  0  0  0  0  0  0  0
  -24.6283  -25.1422   21.6856 O   0  0  0  0  0  0  0  0  0  0  0  0
  -23.5653  -28.8159   23.2558 O   0  0  0  0  0  0  0  0  0  0  0  0
  -26.4063  -30.9736   20.1264 O   0  0  0  0  0  0  0  0  0  0  0  0
  -26.8214  -23.1240   19.8132 O   0  0  0  0  0  0  0  0  0  0  0  0
  -24.8183  -11.0146   19.8953 O   0  0  0  0  0  0  0  0  0  0  0  0
  -30.3106  -25.4459   19.3825 O   0  0  0  0  0  0  0  0  0  1  0  0
  -20.7269  -10.4929   23.5549 F   0  0  0  0  0  0  0  0  0  0  0  0
  -24.6694   -8.8057   21.5509 F   0  0  0  0  0  0  0  0  0  0  0  0
  1  2  1  0  0  0  0
  1  5  2  0  0  0  0
  2  6  2  0  0  0  0
  3  8  2  0  0  0  0
  3 17  1  0  0  0  0
  4  9  1  0  0  0  0
  4 17  2  0  0  0  0
  5 19  1  0  0  0  0
  6 21  1  0  0  0  0
  7 10  2  0  0  0  0
  7 20  1  0  0  0  0
  8 23  1  0  0  0  0
  9 23  2  0  0  0  0
 10 24  1  0  0  0  0
 11 12  2  0  0  0  0
 11 25  1  0  0  0  0
 12 26  1  0  0  0  0
 13 22  1  0  0  0  0
 13 24  2  0  0  0  0
 14 26  2  0  0  0  0
 14 27  1  0  0  0  0
 15 16  2  0  0  0  0
 15 64  1  0  0  0  0
 16 66  1  0  0  0  0
 17 28  1  0  0  0  0
 18 28  1  0  0  0  0
 18 29  2  0  0  0  0
 18 31  1  0  0  0  0
 19 21  2  0  0  0  0
 19 36  1  0  0  0  0
 20 22  2  0  0  0  0
 20 37  1  0  0  0  0
 21 45  1  0  0  0  0
 22 38  1  0  0  0  0
 23 80  1  0  0  0  0
 24 81  1  0  0  0  0
 25 27  2  0  0  0  0
 25 80  1  0  0  0  0
 26 82  1  0  0  0  0
 27 83  1  0  0  0  0
 28 63  2  0  0  0  0
 29 65  1  0  0  0  0
 29 69  1  0  0  0  0
 30 54  1  0  0  0  0
 30 64  1  0  0  0  0
 30 66  2  0  0  0  0
 31 70  1  0  0  0  0
 31 75  2  0  0  0  0
 32 46  1  0  0  0  0
 32 71  1  0  0  0  0
 32 76  2  0  0  0  0
 33 59  1  0  0  0  0
 33 67  1  0  0  0  0
 33 77  2  0  0  0  0
 34 60  1  0  0  0  0
 34 72  1  0  0  0  0
 34 78  2  0  0  0  0
 35 68  1  0  0  0  0
 35 73  1  0  0  0  0
 35 79  2  0  0  0  0
 36 39  1  0  0  0  0
 37 46  1  0  0  0  0
 38 67  1  0  0  0  0
 39 41  1  0  0  0  0
 40 42  1  0  0  0  0
 40 43  1  0  0  0  0
 41 45  1  0  0  0  0
 42 47  1  0  0  0  0
 43 68  1  0  0  0  0
 44 47  1  0  0  0  0
 44 68  1  0  0  0  0
 45 71  1  0  0  0  0
 46 67  1  0  0  0  0
 47 65  1  0  0  0  0
 48 60  1  0  0  0  0
 49 61  1  0  0  0  0
 50 62  1  0  0  0  0
 51 62  1  0  0  0  0
 52 62  1  0  0  0  0
 53 74  1  0  0  0  0
 54 57  1  0  0  0  0
 55 56  1  0  0  0  0
 55 61  1  0  0  0  0
 56 64  1  0  0  0  0
 57 73  1  0  0  0  0
 58 61  1  0  0  0  0
 58 81  1  0  0  0  0
 59 62  1  0  0  0  0
 59 72  1  0  0  0  0
 60 74  1  0  0  0  0
 63 65  1  0  0  0  0
M  CHG  2  66   1  74   1
M  ISO  4  35 100  58 101  73 100  81 101
M  END
> <Batch ID>
0082

> <Smiles>
CNC(C)C(=O)NC(C(=O)N1Cc2cc([101O:1][101CH2:1]C(C)CCn3ccnc3CC[100NH:0][100C:0](=O)N3CCCC(n4nc(-c5ccc(Oc6ccc(F)cc6F)cc5)c(C(N)=O)c4N)C3)ccc2CC1C(=O)NC1CCCc2ccccc21)C(C)(C)C

> <Shape>
0.211

> <Color>
0.065

> <Negative vol penalty>
0.000

$$$$

  -OEChem-04052318493D

 85 93  0     1  0  0  0  0  0999 V2000
  -20.3509  -28.3252   18.8966 C   0  0  0  0  0  0  0  0  0  0  0  0
  -21.0598  -27.1283   18.9066 C   0  0  0  0  0  0  0  0  0  0  0  0
  -28.1130  -23.8600   20.6606 C   0  0  0  0  0  0  0  0  0  0  0  0
  -26.7852  -22.6961   19.0116 C   0  0  0  0  0  0  0  0  0  0  0  0
  -19.7159  -28.7677   20.0563 C   0  0  0  0  0  0  0  0  0  0  0  0
  -21.1351  -26.3736   20.0767 C   0  0  0  0  0  0  0  0  0  0  0  0
  -21.2827  -20.2670   20.5159 C   0  0  0  0  0  0  0  0  0  0  0  0
  -27.7852  -25.0779   20.0650 C   0  0  0  0  0  0  0  0  0  0  0  0
  -26.4573  -23.9140   18.4160 C   0  0  0  0  0  0  0  0  0  0  0  0
  -22.3313  -19.3638   20.6846 C   0  0  0  0  0  0  0  0  0  0  0  0
  -25.1560  -27.2036   20.0253 C   0  0  0  0  0  0  0  0  0  0  0  0
  -24.7814  -28.2546   20.8624 C   0  0  0  0  0  0  0  0  0  0  0  0
  -21.9231  -19.3432   23.0620 C   0  0  0  0  0  0  0  0  0  0  0  0
  -24.2042  -12.6731   21.6748 C   0  0  0  0  0  0  0  0  0  0  0  0
  -25.6300  -14.0482   20.3108 C   0  0  0  0  0  0  0  0  0  0  0  0
  -26.6286  -29.5730   20.0336 C   0  0  0  0  0  0  0  0  0  0  0  0
  -27.6131  -22.6691   20.1339 C   0  0  0  0  0  0  0  0  0  0  0  0
  -27.2524  -20.7512   21.7768 C   0  0  0  0  0  0  0  0  0  0  0  0
  -19.7754  -28.0133   21.2386 C   0  0  0  0  0  0  0  0  0  0  0  0
  -20.5523  -20.7242   21.6221 C   0  0  0  0  0  0  0  0  0  0  0  0
  -20.5015  -26.8071   21.2537 C   0  0  0  0  0  0  0  0  0  0  0  0
  -20.8641  -20.2502   22.9044 C   0  0  0  0  0  0  0  0  0  0  0  0
  -24.5557  -13.9260   21.1851 C   0  0  0  0  0  0  0  0  0  0  0  0
  -26.9573  -25.1049   18.9427 C   0  0  0  0  0  0  0  0  0  0  0  0
  -22.6535  -18.9040   21.9581 C   0  0  0  0  0  0  0  0  0  0  0  0
  -26.2669  -27.3373   19.1924 C   0  0  0  0  0  0  0  0  0  0  0  0
  -25.5177  -29.4393   20.8666 C   0  0  0  0  0  0  0  0  0  0  0  0
  -27.0032  -28.5220   19.1966 C   0  0  0  0  0  0  0  0  0  0  0  0
  -27.9519  -21.4106   20.7484 C   0  0  0  0  0  0  0  0  0  0  0  0
  -24.9528  -11.5823   21.2629 C   0  0  0  0  0  0  0  0  0  0  0  0
  -26.3149  -12.8960   19.9601 C   0  0  0  0  0  0  0  0  0  0  0  0
  -27.9746  -19.6050   22.0031 C   0  0  0  0  0  0  0  0  0  0  0  0
  -26.0567  -21.1399   22.4659 C   0  0  0  0  0  0  0  0  0  0  0  0
  -20.0554  -23.5624   22.9643 C   0  0  0  0  0  0  0  0  0  0  0  0
  -17.9868  -21.8883   24.8191 C   0  0  0  0  0  0  0  0  0  0  0  0
  -17.0600  -18.8797   26.1368 C   0  0  0  0  0  0  0  0  0  0  0  0
  -30.7578  -15.1532   20.1108 C   0  0  0  0  0  0  0  0  0  0  0  0
  -19.1126  -28.5559   22.4800 C   0  0  0  0  0  0  0  0  0  0  0  0
  -19.4068  -21.6779   21.4202 C   0  0  0  0  0  0  0  0  0  0  0  0
  -20.0975  -20.6947   24.1223 C   0  0  0  0  0  0  0  0  0  0  0  0
  -18.9268  -27.5111   23.5774 C   0  0  0  0  0  0  0  0  0  0  0  0
  -32.5519  -18.2188   20.3561 C   0  0  0  0  0  0  0  0  0  0  0  0
  -20.2096  -26.7093   23.7738 C   0  0  0  0  0  0  0  0  0  0  0  0
  -31.4573  -19.2680   20.5584 C   0  0  0  0  0  0  0  0  0  0  0  0
  -32.1027  -17.1106   19.4063 C   0  0  0  0  0  0  0  0  0  0  0  0
  -29.7379  -17.5065   19.9759 C   0  0  0  0  0  0  0  0  0  0  0  0
  -20.5853  -25.9481   22.4968 C   0  0  1  0  0  0  0  0  0  0  0  0
  -19.0622  -22.4723   22.6763 C   0  0  1  0  0  0  0  0  0  0  0  0
  -30.1240  -18.6152   20.9699 C   0  0  2  0  0  0  0  0  0  0  0  0
  -24.6033  -10.2220   21.7668 C   0  0  0  0  0  0  0  0  0  0  0  0
  -27.2011  -12.2298   17.7100 C   0  0  0  0  0  0  0  0  0  0  0  0
  -15.3504  -17.8330   27.6464 C   0  0  0  0  0  0  0  0  0  0  0  0
  -19.4362  -23.0309   27.2489 C   0  0  0  0  0  0  0  0  0  0  0  0
  -18.3456  -21.2614   28.6444 C   0  0  0  0  0  0  0  0  0  0  0  0
  -16.9456  -22.9532   27.4611 C   0  0  0  0  0  0  0  0  0  0  0  0
  -16.0510  -17.1303   23.9733 C   0  0  0  0  0  0  0  0  0  0  0  0
  -23.7744  -15.1472   21.5996 C   0  0  0  0  0  0  0  0  0  0  0  0
  -24.3193  -15.8297   22.8562 C   0  0  0  0  0  0  0  0  0  0  0  0
  -28.8194  -12.4951   19.6310 C   0  0  0  0  0  0  0  0  0  0  0  0
  -29.2870  -13.2949   20.8472 C   0  0  0  0  0  0  0  0  0  0  0  0
  -23.5761  -17.1103   23.2181 C   0  0  0  0  0  0  0  0  0  1  0  0
  -27.4742  -12.9904   19.0253 C   0  0  2  0  0  0  0  0  0  0  0  0
  -18.0889  -21.1370   26.1246 C   0  0  1  0  0  0  0  0  0  0  0  0
  -15.7122  -18.1852   26.2119 C   0  0  2  0  0  0  0  0  0  0  0  0
  -18.2200  -22.0886   27.3472 C   0  0  0  0  0  0  0  0  0  0  0  0
  -29.0353  -20.7393   20.3490 N   0  0  0  0  0  0  0  0  0  0  0  0
  -26.0028  -11.6618   20.4151 N   0  0  0  0  0  0  0  0  0  0  0  0
  -29.0221  -19.6461   21.1306 N   0  0  0  0  0  0  0  0  0  0  0  0
  -18.9904  -21.6329   23.8739 N   0  0  0  0  0  0  0  0  0  0  0  0
  -30.8335  -16.5321   19.8538 N   0  0  0  0  0  0  0  0  0  0  0  0
  -27.8094  -18.5761   22.8613 N   0  0  0  0  0  0  0  0  0  0  0  0
  -25.4425  -22.3480   22.1088 N   0  0  0  0  0  0  0  0  0  0  0  0
  -19.7626  -24.7663   22.3523 N   0  0  0  0  0  0  0  0  0  0  0  0
  -16.9305  -20.2518   26.1778 N   0  0  0  0  0  0  0  0  0  0  0  0
  -29.5199  -14.6879   20.5372 N   0  0  0  0  0  0  0  0  0  0  0  0
  -15.7314  -16.9291   25.4101 N   0  3  0  0  0  0  0  0  0  0  0  0
  -25.5571  -20.4447   23.3828 O   0  0  0  0  0  0  0  0  0  0  0  0
  -21.0154  -23.3291   23.6893 O   0  0  0  0  0  0  0  0  0  0  0  0
  -17.0471  -22.6675   24.6418 O   0  0  0  0  0  0  0  0  0  0  0  0
  -18.1218  -18.2662   26.0540 O   0  0  0  0  0  0  0  0  0  0  0  0
  -31.7234  -14.3941   19.9758 O   0  0  0  0  0  0  0  0  0  0  0  0
  -26.6370  -26.2932   18.3613 O   0  0  0  0  0  0  0  0  0  0  0  0
  -23.6770  -18.0229   22.1257 O   0  0  0  0  0  0  0  0  0  1  0  0
  -25.1570  -30.4490   21.6694 F   0  0  0  0  0  0  0  0  0  0  0  0
  -28.0707  -28.6567   18.3977 F   0  0  0  0  0  0  0  0  0  0  0  0
  1  2  1  0  0  0  0
  1  5  2  0  0  0  0
  2  6  2  0  0  0  0
  3  8  2  0  0  0  0
  3 17  1  0  0  0  0
  4  9  1  0  0  0  0
  4 17  2  0  0  0  0
  5 19  1  0  0  0  0
  6 21  1  0  0  0  0
  7 10  2  0  0  0  0
  7 20  1  0  0  0  0
  8 24  1  0  0  0  0
  9 24  2  0  0  0  0
 10 25  1  0  0  0  0
 11 12  2  0  0  0  0
 11 26  1  0  0  0  0
 12 27  1  0  0  0  0
 13 22  1  0  0  0  0
 13 25  2  0  0  0  0
 14 23  1  0  0  0  0
 14 30  2  0  0  0  0
 15 23  2  0  0  0  0
 15 31  1  0  0  0  0
 16 27  2  0  0  0  0
 16 28  1  0  0  0  0
 17 29  1  0  0  0  0
 18 29  1  0  0  0  0
 18 32  2  0  0  0  0
 18 33  1  0  0  0  0
 19 21  2  0  0  0  0
 19 38  1  0  0  0  0
 20 22  2  0  0  0  0
 20 39  1  0  0  0  0
 21 47  1  0  0  0  0
 22 40  1  0  0  0  0
 23 57  1  0  0  0  0
 24 82  1  0  0  0  0
 25 83  1  0  0  0  0
 26 28  2  0  0  0  0
 26 82  1  0  0  0  0
 27 84  1  0  0  0  0
 28 85  1  0  0  0  0
 29 66  2  0  0  0  0
 30 50  1  0  0  0  0
 30 67  1  0  0  0  0
 31 62  1  0  0  0  0
 31 67  2  0  0  0  0
 32 68  1  0  0  0  0
 32 71  1  0  0  0  0
 33 72  1  0  0  0  0
 33 77  2  0  0  0  0
 34 48  1  0  0  0  0
 34 73  1  0  0  0  0
 34 78  2  0  0  0  0
 35 63  1  0  0  0  0
 35 69  1  0  0  0  0
 35 79  2  0  0  0  0
 36 64  1  0  0  0  0
 36 74  1  0  0  0  0
 36 80  2  0  0  0  0
 37 70  1  0  0  0  0
 37 75  1  0  0  0  0
 37 81  2  0  0  0  0
 38 41  1  0  0  0  0
 39 48  1  0  0  0  0
 40 69  1  0  0  0  0
 41 43  1  0  0  0  0
 42 44  1  0  0  0  0
 42 45  1  0  0  0  0
 43 47  1  0  0  0  0
 44 49  1  0  0  0  0
 45 70  1  0  0  0  0
 46 49  1  0  0  0  0
 46 70  1  0  0  0  0
 47 73  1  0  0  0  0
 48 69  1  0  0  0  0
 49 68  1  0  0  0  0
 51 62  1  0  0  0  0
 52 64  1  0  0  0  0
 53 65  1  0  0  0  0
 54 65  1  0  0  0  0
 55 65  1  0  0  0  0
 56 76  1  0  0  0  0
 57 58  1  0  0  0  0
 58 61  1  0  0  0  0
 59 60  1  0  0  0  0
 59 62  1  0  0  0  0
 60 75  1  0  0  0  0
 61 83  1  0  0  0  0
 63 65  1  0  0  0  0
 63 74  1  0  0  0  0
 64 76  1  0  0  0  0
 66 68  1  0  0  0  0
M  CHG  1  76   1
M  ISO  4  37 100  61 101  75 100  83 101
M  END
> <Batch ID>
0082

> <Smiles>
CNC(C)C(=O)NC(C(=O)N1Cc2cc([101O:1][101CH2:1]CCc3cc(C)nc(C(C)CC[100NH:0][100C:0](=O)N4CCCC(n5nc(-c6ccc(Oc7ccc(F)cc7F)cc6)c(C(N)=O)c5N)C4)c3)ccc2CC1C(=O)NC1CCCc2ccccc21)C(C)(C)C

> <Shape>
0.197

> <Color>
0.101

> <Negative vol penalty>
0.000

$$$$

  -OEChem-04052318493D

 85 93  0     1  0  0  0  0  0999 V2000
  -34.8697  -31.8627   20.4545 C   0  0  0  0  0  0  0  0  0  0  0  0
  -34.8345  -30.7203   21.2476 C   0  0  0  0  0  0  0  0  0  0  0  0
  -33.9046  -14.6486   24.8057 C   0  0  0  0  0  0  0  0  0  0  0  0
  -23.0603   -9.7819   19.9977 C   0  0  0  0  0  0  0  0  0  0  0  0
  -23.7642   -9.9119   22.3053 C   0  0  0  0  0  0  0  0  0  0  0  0
  -34.0572  -31.9509   19.3249 C   0  0  0  0  0  0  0  0  0  0  0  0
  -33.9860  -29.6658   20.9122 C   0  0  0  0  0  0  0  0  0  0  0  0
  -35.0536  -23.6873   21.7015 C   0  0  0  0  0  0  0  0  0  0  0  0
  -34.2167  -15.9492   24.4259 C   0  0  0  0  0  0  0  0  0  0  0  0
  -22.3298   -8.6290   20.2854 C   0  0  0  0  0  0  0  0  0  0  0  0
  -23.0336   -8.7590   22.5930 C   0  0  0  0  0  0  0  0  0  0  0  0
  -34.6554  -22.7855   22.6875 C   0  0  0  0  0  0  0  0  0  0  0  0
  -23.3930   -5.4198   22.2032 C   0  0  0  0  0  0  0  0  0  0  0  0
  -24.0078   -4.4410   22.9840 C   0  0  0  0  0  0  0  0  0  0  0  0
  -32.8127  -22.0872   21.2961 C   0  0  0  0  0  0  0  0  0  0  0  0
  -22.2629   -4.6658   24.6398 C   0  0  0  0  0  0  0  0  0  0  0  0
  -32.5886  -14.2342   24.6793 C   0  0  0  0  0  0  0  0  0  0  0  0
  -23.7775  -10.4233   21.0076 C   0  0  0  0  0  0  0  0  0  0  0  0
  -24.0803  -12.9455   20.7742 C   0  0  0  0  0  0  0  0  0  0  0  0
  -33.2054  -30.8930   18.9700 C   0  0  0  0  0  0  0  0  0  0  0  0
  -34.3267  -23.8037   20.5080 C   0  0  0  0  0  0  0  0  0  0  0  0
  -33.1604  -29.7405   19.7775 C   0  0  0  0  0  0  0  0  0  0  0  0
  -33.2052  -22.9894   20.2955 C   0  0  0  0  0  0  0  0  0  0  0  0
  -33.2174  -16.7839   23.9382 C   0  0  0  0  0  0  0  0  0  0  0  0
  -22.3164   -8.1176   21.5831 C   0  0  0  0  0  0  0  0  0  0  0  0
  -33.5331  -21.9874   22.4861 C   0  0  0  0  0  0  0  0  0  0  0  0
  -22.2131   -6.0217   22.6408 C   0  0  0  0  0  0  0  0  0  0  0  0
  -23.4427   -4.0640   24.2022 C   0  0  0  0  0  0  0  0  0  0  0  0
  -21.6481   -5.6446   23.8591 C   0  0  0  0  0  0  0  0  0  0  0  0
  -24.5328  -11.6140   20.7109 C   0  0  0  0  0  0  0  0  0  0  0  0
  -31.9321  -16.2738   23.8504 C   0  0  0  0  0  0  0  0  0  0  0  0
  -25.1683  -13.6960   20.4009 C   0  0  0  0  0  0  0  0  0  0  0  0
  -22.7916  -13.4582   21.1379 C   0  0  0  0  0  0  0  0  0  0  0  0
  -32.7028  -26.1391   19.0894 C   0  0  0  0  0  0  0  0  0  0  0  0
  -32.4717  -23.9840   16.6760 C   0  0  0  0  0  0  0  0  0  0  0  0
  -32.5106  -20.7148   15.6975 C   0  0  0  0  0  0  0  0  0  0  0  0
  -30.6283  -14.8199   20.6684 C   0  0  0  0  0  0  0  0  0  0  0  0
  -32.3110  -31.0537   17.7663 C   0  0  0  0  0  0  0  0  0  0  0  0
  -34.7848  -24.7622   19.4432 C   0  0  0  0  0  0  0  0  0  0  0  0
  -32.4024  -23.0615   19.0233 C   0  0  0  0  0  0  0  0  0  0  0  0
  -31.7153  -29.7387   17.2702 C   0  0  0  0  0  0  0  0  0  0  0  0
  -29.5885  -12.3044   18.3732 C   0  0  0  0  0  0  0  0  0  0  0  0
  -31.1618  -28.9291   18.4385 C   0  0  0  0  0  0  0  0  0  0  0  0
  -28.1461  -12.0063   18.7860 C   0  0  0  0  0  0  0  0  0  0  0  0
  -30.4725  -12.5985   19.5832 C   0  0  0  0  0  0  0  0  0  0  0  0
  -28.5258  -13.3612   20.8881 C   0  0  0  0  0  0  0  0  0  0  0  0
  -32.2714  -28.5654   19.4325 C   0  0  1  0  0  0  0  0  0  0  0  0
  -33.6708  -25.1639   18.4815 C   0  0  1  0  0  0  0  0  0  0  0  0
  -27.5835  -13.1133   19.6977 C   0  0  2  0  0  0  0  0  0  0  0  0
  -32.2563  -19.2634   13.6663 C   0  0  0  0  0  0  0  0  0  0  0  0
  -29.7020  -18.1190   19.6954 C   0  0  0  0  0  0  0  0  0  0  0  0
  -28.4963  -18.4777   21.8633 C   0  0  0  0  0  0  0  0  0  0  0  0
  -29.4511  -24.4078   16.7544 C   0  0  0  0  0  0  0  0  0  0  0  0
  -29.1914  -22.3028   15.4241 C   0  0  0  0  0  0  0  0  0  0  0  0
  -30.4223  -24.2443   14.4556 C   0  0  0  0  0  0  0  0  0  0  0  0
  -35.2531  -19.6388   15.9802 C   0  0  0  0  0  0  0  0  0  0  0  0
  -33.5495  -18.1953   23.5245 C   0  0  0  0  0  0  0  0  0  0  0  0
  -30.8188  -17.1258   23.3346 C   0  0  0  0  0  0  0  0  0  0  0  0
  -33.7441  -19.1527   24.7022 C   0  0  0  0  0  0  0  0  0  0  0  0
  -34.1632  -20.5553   24.2772 C   0  0  0  0  0  0  0  0  0  1  0  0
  -31.4944  -22.8948   16.3053 C   0  0  1  0  0  0  0  0  0  0  0  0
  -33.2315  -20.0119   14.5615 C   0  0  2  0  0  0  0  0  0  0  0  0
  -29.8639  -18.2423   21.2149 C   0  0  0  0  0  0  0  0  0  0  0  0
  -30.6284  -17.0279   21.8015 C   0  0  2  0  0  0  0  0  0  0  0  0
  -30.1536  -23.4622   15.7597 C   0  0  0  0  0  0  0  0  0  0  0  0
  -31.5907  -15.0160   24.2097 N   0  0  0  0  0  0  0  0  0  0  0  0
  -25.8088  -11.5207   20.3275 N   0  0  0  0  0  0  0  0  0  0  0  0
  -26.1674  -12.8032   20.1464 N   0  0  0  0  0  0  0  0  0  0  0  0
  -32.8866  -24.0186   18.0148 N   0  0  0  0  0  0  0  0  0  0  0  0
  -29.8836  -13.6583   20.4055 N   0  0  0  0  0  0  0  0  0  0  0  0
  -25.3583  -15.0260   20.2688 N   0  0  0  0  0  0  0  0  0  0  0  0
  -21.7870  -12.5483   21.4948 N   0  0  0  0  0  0  0  0  0  0  0  0
  -33.0618  -27.4636   18.9268 N   0  0  0  0  0  0  0  0  0  0  0  0
  -32.1950  -22.0174   15.3738 N   0  0  0  0  0  0  0  0  0  0  0  0
  -29.9935  -15.7771   21.4504 N   0  0  0  0  0  0  0  0  0  0  0  0
  -34.2193  -19.0349   15.1007 N   0  3  0  0  0  0  0  0  0  0  0  0
  -22.5337  -14.6857   21.1304 O   0  0  0  0  0  0  0  0  0  0  0  0
  -31.7034  -25.7210   19.6622 O   0  0  0  0  0  0  0  0  0  0  0  0
  -32.8584  -24.7706   15.8080 O   0  0  0  0  0  0  0  0  0  0  0  0
  -32.2499  -20.1623   16.7640 O   0  0  0  0  0  0  0  0  0  0  0  0
  -31.7718  -14.9936   20.2335 O   0  0  0  0  0  0  0  0  0  0  0  0
  -21.6035   -6.9927   21.8642 O   0  0  0  0  0  0  0  0  0  0  0  0
  -33.1419  -21.1068   23.4471 O   0  0  0  0  0  0  0  0  0  1  0  0
  -24.0324   -3.1229   24.9511 F   0  0  0  0  0  0  0  0  0  0  0  0
  -20.5141   -6.2184   24.2842 F   0  0  0  0  0  0  0  0  0  0  0  0
  1  2  1  0  0  0  0
  1  6  2  0  0  0  0
  2  7  2  0  0  0  0
  3  9  2  0  0  0  0
  3 17  1  0  0  0  0
  4 10  2  0  0  0  0
  4 18  1  0  0  0  0
  5 11  1  0  0  0  0
  5 18  2  0  0  0  0
  6 20  1  0  0  0  0
  7 22  1  0  0  0  0
  8 12  2  0  0  0  0
  8 21  1  0  0  0  0
  9 24  1  0  0  0  0
 10 25  1  0  0  0  0
 11 25  2  0  0  0  0
 12 26  1  0  0  0  0
 13 14  2  0  0  0  0
 13 27  1  0  0  0  0
 14 28  1  0  0  0  0
 15 23  1  0  0  0  0
 15 26  2  0  0  0  0
 16 28  2  0  0  0  0
 16 29  1  0  0  0  0
 17 66  2  0  0  0  0
 18 30  1  0  0  0  0
 19 30  1  0  0  0  0
 19 32  2  0  0  0  0
 19 33  1  0  0  0  0
 20 22  2  0  0  0  0
 20 38  1  0  0  0  0
 21 23  2  0  0  0  0
 21 39  1  0  0  0  0
 22 47  1  0  0  0  0
 23 40  1  0  0  0  0
 24 31  2  0  0  0  0
 24 57  1  0  0  0  0
 25 82  1  0  0  0  0
 26 83  1  0  0  0  0
 27 29  2  0  0  0  0
 27 82  1  0  0  0  0
 28 84  1  0  0  0  0
 29 85  1  0  0  0  0
 30 67  2  0  0  0  0
 31 58  1  0  0  0  0
 31 66  1  0  0  0  0
 32 68  1  0  0  0  0
 32 71  1  0  0  0  0
 33 72  1  0  0  0  0
 33 77  2  0  0  0  0
 34 48  1  0  0  0  0
 34 73  1  0  0  0  0
 34 78  2  0  0  0  0
 35 61  1  0  0  0  0
 35 69  1  0  0  0  0
 35 79  2  0  0  0  0
 36 62  1  0  0  0  0
 36 74  1  0  0  0  0
 36 80  2  0  0  0  0
 37 70  1  0  0  0  0
 37 75  1  0  0  0  0
 37 81  2  0  0  0  0
 38 41  1  0  0  0  0
 39 48  1  0  0  0  0
 40 69  1  0  0  0  0
 41 43  1  0  0  0  0
 42 44  1  0  0  0  0
 42 45  1  0  0  0  0
 43 47  1  0  0  0  0
 44 49  1  0  0  0  0
 45 70  1  0  0  0  0
 46 49  1  0  0  0  0
 46 70  1  0  0  0  0
 47 73  1  0  0  0  0
 48 69  1  0  0  0  0
 49 68  1  0  0  0  0
 50 62  1  0  0  0  0
 51 63  1  0  0  0  0
 52 63  1  0  0  0  0
 53 65  1  0  0  0  0
 54 65  1  0  0  0  0
 55 65  1  0  0  0  0
 56 76  1  0  0  0  0
 57 59  1  0  0  0  0
 58 64  1  0  0  0  0
 59 60  1  0  0  0  0
 60 83  1  0  0  0  0
 61 65  1  0  0  0  0
 61 74  1  0  0  0  0
 62 76  1  0  0  0  0
 63 64  1  0  0  0  0
 64 75  1  0  0  0  0
 67 68  1  0  0  0  0
M  CHG  1  76   1
M  ISO  4  37 100  60 101  75 100  83 101
M  END
> <Batch ID>
0082

> <Smiles>
CNC(C)C(=O)NC(C(=O)N1Cc2cc([101O:1][101CH2:1]CCc3cccnc3CC([100NH:0][100C:0](=O)N3CCCC(n4nc(-c5ccc(Oc6ccc(F)cc6F)cc5)c(C(N)=O)c4N)C3)C(C)C)ccc2CC1C(=O)NC1CCCc2ccccc21)C(C)(C)C

> <Shape>
0.205

> <Color>
0.202

> <Negative vol penalty>
0.000

$$$$

  -OEChem-04052318493D

 84 92  0     1  0  0  0  0  0999 V2000
  -25.2359  -11.8560   16.9355 C   0  0  0  0  0  0  0  0  0  0  0  0
  -24.9999  -13.2178   16.7766 C   0  0  0  0  0  0  0  0  0  0  0  0
  -28.6988  -27.9397   19.5906 C   0  0  0  0  0  0  0  0  0  0  0  0
  -27.2653  -26.0383   19.9993 C   0  0  0  0  0  0  0  0  0  0  0  0
  -25.3036  -11.3060   18.2149 C   0  0  0  0  0  0  0  0  0  0  0  0
  -24.8304  -14.0302   17.8971 C   0  0  0  0  0  0  0  0  0  0  0  0
  -26.6055  -19.8582   18.5213 C   0  0  0  0  0  0  0  0  0  0  0  0
  -29.7982  -27.0880   19.4838 C   0  0  0  0  0  0  0  0  0  0  0  0
  -28.3647  -25.1865   19.8924 C   0  0  0  0  0  0  0  0  0  0  0  0
  -25.9201  -21.0660   18.3968 C   0  0  0  0  0  0  0  0  0  0  0  0
  -30.2244  -23.8203   17.4235 C   0  0  0  0  0  0  0  0  0  0  0  0
  -30.0728  -22.6613   16.6623 C   0  0  0  0  0  0  0  0  0  0  0  0
  -25.5713  -21.1069   20.7834 C   0  0  0  0  0  0  0  0  0  0  0  0
  -30.5810  -21.3186   18.6055 C   0  0  0  0  0  0  0  0  0  0  0  0
  -19.5497  -27.8628   21.5441 C   0  0  0  0  0  0  0  0  0  0  0  0
  -19.3396  -26.5097   23.2646 C   0  0  0  0  0  0  0  0  0  0  0  0
  -27.4323  -27.4149   19.8484 C   0  0  0  0  0  0  0  0  0  0  0  0
  -25.4424  -28.7150   18.9223 C   0  0  0  0  0  0  0  0  0  0  0  0
  -25.1445  -12.1138   19.3519 C   0  0  0  0  0  0  0  0  0  0  0  0
  -26.7697  -19.2593   19.7785 C   0  0  0  0  0  0  0  0  0  0  0  0
  -24.8948  -13.4903   19.1929 C   0  0  0  0  0  0  0  0  0  0  0  0
  -26.2613  -19.8929   20.9214 C   0  0  0  0  0  0  0  0  0  0  0  0
  -19.3358  -26.5154   21.8911 C   0  0  0  0  0  0  0  0  0  0  0  0
  -29.6312  -25.7114   19.6347 C   0  0  0  0  0  0  0  0  0  0  0  0
  -25.4004  -21.6890   19.5277 C   0  0  0  0  0  0  0  0  0  0  0  0
  -30.5543  -23.7284   18.7757 C   0  0  0  0  0  0  0  0  0  0  0  0
  -30.2510  -21.4105   17.2533 C   0  0  0  0  0  0  0  0  0  0  0  0
  -30.7326  -22.4776   19.3667 C   0  0  0  0  0  0  0  0  0  0  0  0
  -26.2964  -28.2943   19.9594 C   0  0  0  0  0  0  0  0  0  0  0  0
  -24.5298  -29.5347   19.5402 C   0  0  0  0  0  0  0  0  0  0  0  0
  -25.4714  -28.3934   17.5254 C   0  0  0  0  0  0  0  0  0  0  0  0
  -25.8587  -16.5110   21.0902 C   0  0  0  0  0  0  0  0  0  0  0  0
  -27.7025  -17.5266   23.5582 C   0  0  0  0  0  0  0  0  0  0  0  0
  -29.1356  -20.1405   25.2197 C   0  0  0  0  0  0  0  0  0  0  0  0
  -22.5344  -29.8990   25.1737 C   0  0  0  0  0  0  0  0  0  0  0  0
  -25.1789  -11.4658   20.7133 C   0  0  0  0  0  0  0  0  0  0  0  0
  -27.5347  -17.9699   19.8991 C   0  0  0  0  0  0  0  0  0  0  0  0
  -26.4282  -19.3014   22.2965 C   0  0  0  0  0  0  0  0  0  0  0  0
  -25.3613  -12.4605   21.8569 C   0  0  0  0  0  0  0  0  0  0  0  0
  -24.0768  -32.4876   23.2773 C   0  0  0  0  0  0  0  0  0  0  0  0
  -24.4247  -13.6518   21.6826 C   0  0  0  0  0  0  0  0  0  0  0  0
  -24.7435  -31.7444   22.1183 C   0  0  0  0  0  0  0  0  0  0  0  0
  -24.1429  -31.6851   24.5748 C   0  0  0  0  0  0  0  0  0  0  0  0
  -24.2827  -29.5676   23.3216 C   0  0  0  0  0  0  0  0  0  0  0  0
  -24.7304  -14.4086   20.3845 C   0  0  1  0  0  0  0  0  0  0  0  0
  -27.1965  -17.1907   21.1664 C   0  0  1  0  0  0  0  0  0  0  0  0
  -24.1919  -30.3128   21.9790 C   0  0  2  0  0  0  0  0  0  0  0  0
  -17.8642  -25.5090   20.1275 C   0  0  0  0  0  0  0  0  0  0  0  0
  -30.5540  -20.6611   27.2233 C   0  0  0  0  0  0  0  0  0  0  0  0
  -25.2912  -17.0890   25.3759 C   0  0  0  0  0  0  0  0  0  0  0  0
  -26.4330  -18.4871   27.1107 C   0  0  0  0  0  0  0  0  0  0  0  0
  -27.4759  -16.3540   26.3460 C   0  0  0  0  0  0  0  0  0  0  0  0
  -31.2758  -21.3125   23.5449 C   0  0  0  0  0  0  0  0  0  0  0  0
  -21.4617  -24.2663   20.7083 C   0  0  0  0  0  0  0  0  0  0  0  0
  -22.5991  -23.9635   19.7271 C   0  0  0  0  0  0  0  0  0  0  0  0
  -20.3518  -25.0826   20.0338 C   0  0  0  0  0  0  0  0  0  0  0  0
  -19.6306  -28.2979   24.9955 C   0  0  0  0  0  0  0  0  0  0  0  0
  -20.9821  -28.0218   25.6492 C   0  0  0  0  0  0  0  0  0  0  0  0
  -23.7042  -23.1305   20.3651 C   0  0  0  0  0  0  0  0  0  1  0  0
  -19.1412  -25.3323   20.9584 C   0  0  1  0  0  0  0  0  0  0  0  0
  -27.4669  -18.3536   24.7990 C   0  0  1  0  0  0  0  0  0  0  0  0
  -30.5478  -20.3546   25.7338 C   0  0  2  0  0  0  0  0  0  0  0  0
  -26.6618  -17.5813   25.8819 C   0  0  0  0  0  0  0  0  0  0  0  0
  -19.6798  -28.6556   22.6112 N   0  0  0  0  0  0  0  0  0  0  0  0
  -25.9567  -28.8048   21.1461 N   0  0  0  0  0  0  0  0  0  0  0  0
  -19.5472  -27.8037   23.6421 N   0  0  0  0  0  0  0  0  0  0  0  0
  -24.8792  -29.5547   20.8584 N   0  0  0  0  0  0  0  0  0  0  0  0
  -27.1783  -18.0363   22.3618 N   0  0  0  0  0  0  0  0  0  0  0  0
  -23.6032  -30.3380   24.3750 N   0  0  0  0  0  0  0  0  0  0  0  0
  -23.4706  -30.2332   19.0790 N   0  0  0  0  0  0  0  0  0  0  0  0
  -26.4767  -27.5360   17.0579 N   0  0  0  0  0  0  0  0  0  0  0  0
  -25.9032  -15.2405   20.5486 N   0  0  0  0  0  0  0  0  0  0  0  0
  -28.7804  -18.8083   25.2419 N   0  0  0  0  0  0  0  0  0  0  0  0
  -22.0791  -28.6119   24.9148 N   0  0  0  0  0  0  0  0  0  0  0  0
  -31.1931  -21.4909   25.0174 N   0  3  0  0  0  0  0  0  0  0  0  0
  -24.6406  -28.8659   16.7129 O   0  0  0  0  0  0  0  0  0  0  0  0
  -24.8602  -17.0953   21.4942 O   0  0  0  0  0  0  0  0  0  0  0  0
  -28.3346  -16.4710   23.6460 O   0  0  0  0  0  0  0  0  0  0  0  0
  -28.4179  -21.0632   24.8402 O   0  0  0  0  0  0  0  0  0  0  0  0
  -22.0202  -30.6038   26.0488 O   0  0  0  0  0  0  0  0  0  0  0  0
  -30.7037  -24.8799   19.5303 O   0  0  0  0  0  0  0  0  0  0  0  0
  -24.7304  -22.8676   19.4089 O   0  0  0  0  0  0  0  0  0  1  0  0
  -30.1039  -20.2976   16.5226 F   0  0  0  0  0  0  0  0  0  0  0  0
  -31.0485  -22.3830   20.6656 F   0  0  0  0  0  0  0  0  0  0  0  0
  1  2  1  0  0  0  0
  1  5  2  0  0  0  0
  2  6  2  0  0  0  0
  3  8  2  0  0  0  0
  3 17  1  0  0  0  0
  4  9  1  0  0  0  0
  4 17  2  0  0  0  0
  5 19  1  0  0  0  0
  6 21  1  0  0  0  0
  7 10  2  0  0  0  0
  7 20  1  0  0  0  0
  8 24  1  0  0  0  0
  9 24  2  0  0  0  0
 10 25  1  0  0  0  0
 11 12  2  0  0  0  0
 11 26  1  0  0  0  0
 12 27  1  0  0  0  0
 13 22  1  0  0  0  0
 13 25  2  0  0  0  0
 14 27  2  0  0  0  0
 14 28  1  0  0  0  0
 15 23  1  0  0  0  0
 15 64  2  0  0  0  0
 16 23  2  0  0  0  0
 16 66  1  0  0  0  0
 17 29  1  0  0  0  0
 18 29  1  0  0  0  0
 18 30  2  0  0  0  0
 18 31  1  0  0  0  0
 19 21  2  0  0  0  0
 19 36  1  0  0  0  0
 20 22  2  0  0  0  0
 20 37  1  0  0  0  0
 21 45  1  0  0  0  0
 22 38  1  0  0  0  0
 23 60  1  0  0  0  0
 24 81  1  0  0  0  0
 25 82  1  0  0  0  0
 26 28  2  0  0  0  0
 26 81  1  0  0  0  0
 27 83  1  0  0  0  0
 28 84  1  0  0  0  0
 29 65  2  0  0  0  0
 30 67  1  0  0  0  0
 30 70  1  0  0  0  0
 31 71  1  0  0  0  0
 31 76  2  0  0  0  0
 32 46  1  0  0  0  0
 32 72  1  0  0  0  0
 32 77  2  0  0  0  0
 33 61  1  0  0  0  0
 33 68  1  0  0  0  0
 33 78  2  0  0  0  0
 34 62  1  0  0  0  0
 34 73  1  0  0  0  0
 34 79  2  0  0  0  0
 35 69  1  0  0  0  0
 35 74  1  0  0  0  0
 35 80  2  0  0  0  0
 36 39  1  0  0  0  0
 37 46  1  0  0  0  0
 38 68  1  0  0  0  0
 39 41  1  0  0  0  0
 40 42  1  0  0  0  0
 40 43  1  0  0  0  0
 41 45  1  0  0  0  0
 42 47  1  0  0  0  0
 43 69  1  0  0  0  0
 44 47  1  0  0  0  0
 44 69  1  0  0  0  0
 45 72  1  0  0  0  0
 46 68  1  0  0  0  0
 47 67  1  0  0  0  0
 48 60  1  0  0  0  0
 49 62  1  0  0  0  0
 50 63  1  0  0  0  0
 51 63  1  0  0  0  0
 52 63  1  0  0  0  0
 53 75  1  0  0  0  0
 54 55  1  0  0  0  0
 54 56  1  0  0  0  0
 55 59  1  0  0  0  0
 56 60  1  0  0  0  0
 57 58  1  0  0  0  0
 57 66  1  0  0  0  0
 58 74  1  0  0  0  0
 59 82  1  0  0  0  0
 61 63  1  0  0  0  0
 61 73  1  0  0  0  0
 62 75  1  0  0  0  0
 64 66  1  0  0  0  0
 65 67  1  0  0  0  0
M  CHG  1  75   1
M  ISO  4  35 100  59 101  74 100  82 101
M  END
> <Batch ID>
0082

> <Smiles>
CNC(C)C(=O)NC(C(=O)N1Cc2cc([101O:1][101CH2:1]CCCC(C)c3cnn(CC[100NH:0][100C:0](=O)N4CCCC(n5nc(-c6ccc(Oc7ccc(F)cc7F)cc6)c(C(N)=O)c5N)C4)c3)ccc2CC1C(=O)NC1CCCc2ccccc21)C(C)(C)C

> <Shape>
0.201

> <Color>
0.072

> <Negative vol penalty>
0.000

$$$$

  -OEChem-04052318493D

 85 93  0     1  0  0  0  0  0999 V2000
  -27.4095  -31.7440   26.8227 C   0  0  0  0  0  0  0  0  0  0  0  0
  -27.0395  -30.4754   27.2577 C   0  0  0  0  0  0  0  0  0  0  0  0
  -23.1952   -9.8821   21.4216 C   0  0  0  0  0  0  0  0  0  0  0  0
  -23.9543  -10.7569   23.5419 C   0  0  0  0  0  0  0  0  0  0  0  0
  -26.9193  -32.2356   25.6136 C   0  0  0  0  0  0  0  0  0  0  0  0
  -26.1780  -29.6981   26.4844 C   0  0  0  0  0  0  0  0  0  0  0  0
  -26.2768  -23.6068   25.8588 C   0  0  0  0  0  0  0  0  0  0  0  0
  -22.5085   -8.8663   22.0866 C   0  0  0  0  0  0  0  0  0  0  0  0
  -23.2675   -9.7411   24.2069 C   0  0  0  0  0  0  0  0  0  0  0  0
  -25.5396  -22.5897   26.4636 C   0  0  0  0  0  0  0  0  0  0  0  0
  -20.8499   -5.8310   23.2089 C   0  0  0  0  0  0  0  0  0  0  0  0
  -20.9631   -4.5341   22.7082 C   0  0  0  0  0  0  0  0  0  0  0  0
  -24.0277  -22.5761   24.5839 C   0  0  0  0  0  0  0  0  0  0  0  0
  -23.3534   -4.6103   23.0513 C   0  0  0  0  0  0  0  0  0  0  0  0
  -26.9246  -18.4633   24.1218 C   0  0  0  0  0  0  0  0  0  0  0  0
  -23.9182  -10.8274   22.1493 C   0  0  0  0  0  0  0  0  0  0  0  0
  -24.1367  -13.1487   21.1144 C   0  0  0  0  0  0  0  0  0  0  0  0
  -26.0590  -31.4601   24.8204 C   0  0  0  0  0  0  0  0  0  0  0  0
  -25.8881  -24.1246   24.6149 C   0  0  0  0  0  0  0  0  0  0  0  0
  -25.6747  -30.1803   25.2642 C   0  0  0  0  0  0  0  0  0  0  0  0
  -24.7632  -23.5979   23.9643 C   0  0  0  0  0  0  0  0  0  0  0  0
  -22.5446   -8.7958   23.4792 C   0  0  0  0  0  0  0  0  0  0  0  0
  -24.4132  -22.0761   25.8275 C   0  0  0  0  0  0  0  0  0  0  0  0
  -21.9885   -6.5177   23.6308 C   0  0  0  0  0  0  0  0  0  0  0  0
  -22.2149   -3.9237   22.6295 C   0  0  0  0  0  0  0  0  0  0  0  0
  -23.2402   -5.9073   23.5520 C   0  0  0  0  0  0  0  0  0  0  0  0
  -24.6284  -11.8765   21.4630 C   0  0  0  0  0  0  0  0  0  0  0  0
  -26.6940  -17.3535   23.3391 C   0  0  0  0  0  0  0  0  0  0  0  0
  -24.9097  -16.7953   24.6562 C   0  0  0  0  0  0  0  0  0  0  0  0
  -25.1409  -17.9048   25.4393 C   0  0  0  0  0  0  0  0  0  0  0  0
  -25.1909  -13.7635   20.4843 C   0  0  0  0  0  0  0  0  0  0  0  0
  -22.8426  -13.7234   21.3400 C   0  0  0  0  0  0  0  0  0  0  0  0
  -24.9645  -26.9782   23.5627 C   0  0  0  0  0  0  0  0  0  0  0  0
  -25.0764  -25.5152   20.6697 C   0  0  0  0  0  0  0  0  0  0  0  0
  -24.9559  -22.6077   18.8869 C   0  0  0  0  0  0  0  0  0  0  0  0
  -31.0794  -13.7472   21.1241 C   0  0  0  0  0  0  0  0  0  0  0  0
  -25.5172  -32.0529   23.5438 C   0  0  0  0  0  0  0  0  0  0  0  0
  -26.7094  -25.2032   23.9635 C   0  0  0  0  0  0  0  0  0  0  0  0
  -24.3155  -24.1053   22.6187 C   0  0  0  0  0  0  0  0  0  0  0  0
  -24.9065  -31.0176   22.6027 C   0  0  0  0  0  0  0  0  0  0  0  0
  -29.3136  -12.2236   18.2498 C   0  0  0  0  0  0  0  0  0  0  0  0
  -23.9862  -30.0747   23.3712 C   0  0  0  0  0  0  0  0  0  0  0  0
  -27.8972  -12.0355   18.7906 C   0  0  0  0  0  0  0  0  0  0  0  0
  -30.3564  -12.1771   19.3624 C   0  0  0  0  0  0  0  0  0  0  0  0
  -28.6828  -12.9496   21.0105 C   0  0  0  0  0  0  0  0  0  0  0  0
  -24.7619  -29.2972   24.4413 C   0  0  1  0  0  0  0  0  0  0  0  0
  -25.9261  -26.0105   22.9329 C   0  0  1  0  0  0  0  0  0  0  0  0
  -27.6039  -13.0377   19.9206 C   0  0  2  0  0  0  0  0  0  0  0  0
  -23.7868  -15.8592   24.9469 C   0  0  0  0  0  0  0  0  0  0  0  0
  -25.0370  -21.7336   16.5359 C   0  0  0  0  0  0  0  0  0  0  0  0
  -22.2057  -26.4494   20.2261 C   0  0  0  0  0  0  0  0  0  0  0  0
  -22.0280  -24.7900   18.3597 C   0  0  0  0  0  0  0  0  0  0  0  0
  -23.6885  -26.6464   18.2218 C   0  0  0  0  0  0  0  0  0  0  0  0
  -31.8824  -15.7357   22.3410 C   0  0  0  0  0  0  0  0  0  0  0  0
  -27.3900  -21.0171   19.4387 C   0  0  0  0  0  0  0  0  0  0  0  0
  -27.5686  -17.0578   22.1714 C   0  0  0  0  0  0  0  0  0  0  0  0
  -24.2689  -18.2241   26.6273 C   0  0  0  0  0  0  0  0  0  0  0  0
  -28.7908  -16.1733   22.4938 C   0  0  0  0  0  0  0  0  0  0  0  0
  -22.9109  -18.8210   26.2517 C   0  0  0  0  0  0  0  0  0  0  0  0
  -29.6563  -15.8335   21.2824 C   0  0  0  0  0  0  0  0  0  0  0  0
  -23.0174  -20.1705   25.5511 C   0  0  0  0  0  0  0  0  0  1  0  0
  -24.0956  -24.7361   19.8270 C   0  0  1  0  0  0  0  0  0  0  0  0
  -25.8442  -22.0666   17.7811 C   0  0  2  0  0  0  0  0  0  0  0  0
  -23.0115  -25.6470   19.1849 C   0  0  0  0  0  0  0  0  0  0  0  0
  -26.1522  -18.7588   25.1860 N   0  0  0  0  0  0  0  0  0  0  0  0
  -25.8963  -11.6926   21.0855 N   0  0  0  0  0  0  0  0  0  0  0  0
  -25.6824  -16.4996   23.5922 N   0  0  0  0  0  0  0  0  0  0  0  0
  -26.2102  -12.8573   20.4931 N   0  0  0  0  0  0  0  0  0  0  0  0
  -25.1478  -25.1649   22.0254 N   0  0  0  0  0  0  0  0  0  0  0  0
  -30.0303  -13.1080   20.4433 N   0  0  0  0  0  0  0  0  0  0  0  0
  -25.3363  -14.9853   19.9290 N   0  0  0  0  0  0  0  0  0  0  0  0
  -21.8763  -12.9543   22.0025 N   0  0  0  0  0  0  0  0  0  0  0  0
  -25.5119  -28.2170   23.8371 N   0  0  0  0  0  0  0  0  0  0  0  0
  -24.8923  -23.9848   18.8631 N   0  0  0  0  0  0  0  0  0  0  0  0
  -30.8225  -15.0276   21.6372 N   0  0  0  0  0  0  0  0  0  0  0  0
  -26.5404  -20.8295   18.2345 N   0  3  0  0  0  0  0  0  0  0  0  0
  -22.5467  -14.8786   20.9508 O   0  0  0  0  0  0  0  0  0  0  0  0
  -23.8110  -26.6275   23.7820 O   0  0  0  0  0  0  0  0  0  0  0  0
  -25.7592  -26.3971   20.1429 O   0  0  0  0  0  0  0  0  0  0  0  0
  -24.3736  -21.8811   19.6891 O   0  0  0  0  0  0  0  0  0  0  0  0
  -32.1857  -13.2083   21.2570 O   0  0  0  0  0  0  0  0  0  0  0  0
  -21.8743   -7.8049   24.1284 O   0  0  0  0  0  0  0  0  0  0  0  0
  -23.6915  -21.0838   26.4159 O   0  0  0  0  0  0  0  0  0  1  0  0
  -22.3232   -2.6777   22.1501 F   0  0  0  0  0  0  0  0  0  0  0  0
  -24.3375   -6.5615   23.9569 F   0  0  0  0  0  0  0  0  0  0  0  0
  1  2  1  0  0  0  0
  1  5  2  0  0  0  0
  2  6  2  0  0  0  0
  3  8  2  0  0  0  0
  3 16  1  0  0  0  0
  4  9  1  0  0  0  0
  4 16  2  0  0  0  0
  5 18  1  0  0  0  0
  6 20  1  0  0  0  0
  7 10  2  0  0  0  0
  7 19  1  0  0  0  0
  8 22  1  0  0  0  0
  9 22  2  0  0  0  0
 10 23  1  0  0  0  0
 11 12  2  0  0  0  0
 11 24  1  0  0  0  0
 12 25  1  0  0  0  0
 13 21  1  0  0  0  0
 13 23  2  0  0  0  0
 14 25  2  0  0  0  0
 14 26  1  0  0  0  0
 15 28  1  0  0  0  0
 15 65  2  0  0  0  0
 16 27  1  0  0  0  0
 17 27  1  0  0  0  0
 17 31  2  0  0  0  0
 17 32  1  0  0  0  0
 18 20  2  0  0  0  0
 18 37  1  0  0  0  0
 19 21  2  0  0  0  0
 19 38  1  0  0  0  0
 20 46  1  0  0  0  0
 21 39  1  0  0  0  0
 22 82  1  0  0  0  0
 23 83  1  0  0  0  0
 24 26  2  0  0  0  0
 24 82  1  0  0  0  0
 25 84  1  0  0  0  0
 26 85  1  0  0  0  0
 27 66  2  0  0  0  0
 28 56  1  0  0  0  0
 28 67  2  0  0  0  0
 29 30  2  0  0  0  0
 29 49  1  0  0  0  0
 29 67  1  0  0  0  0
 30 57  1  0  0  0  0
 30 65  1  0  0  0  0
 31 68  1  0  0  0  0
 31 71  1  0  0  0  0
 32 72  1  0  0  0  0
 32 77  2  0  0  0  0
 33 47  1  0  0  0  0
 33 73  1  0  0  0  0
 33 78  2  0  0  0  0
 34 62  1  0  0  0  0
 34 69  1  0  0  0  0
 34 79  2  0  0  0  0
 35 63  1  0  0  0  0
 35 74  1  0  0  0  0
 35 80  2  0  0  0  0
 36 70  1  0  0  0  0
 36 75  1  0  0  0  0
 36 81  2  0  0  0  0
 37 40  1  0  0  0  0
 38 47  1  0  0  0  0
 39 69  1  0  0  0  0
 40 42  1  0  0  0  0
 41 43  1  0  0  0  0
 41 44  1  0  0  0  0
 42 46  1  0  0  0  0
 43 48  1  0  0  0  0
 44 70  1  0  0  0  0
 45 48  1  0  0  0  0
 45 70  1  0  0  0  0
 46 73  1  0  0  0  0
 47 69  1  0  0  0  0
 48 68  1  0  0  0  0
 50 63  1  0  0  0  0
 51 64  1  0  0  0  0
 52 64  1  0  0  0  0
 53 64  1  0  0  0  0
 54 75  1  0  0  0  0
 55 76  1  0  0  0  0
 56 58  1  0  0  0  0
 57 59  1  0  0  0  0
 58 60  1  0  0  0  0
 59 61  1  0  0  0  0
 60 75  1  0  0  0  0
 61 83  1  0  0  0  0
 62 64  1  0  0  0  0
 62 74  1  0  0  0  0
 63 76  1  0  0  0  0
 66 68  1  0  0  0  0
M  CHG  1  76   1
M  ISO  4  36 100  61 101  75 100  83 101
M  END
> <Batch ID>
0082

> <Smiles>
CNC(C)C(=O)NC(C(=O)N1Cc2cc([101O:1][101CH2:1]CCc3ncc(CCC[100N:0](C)[100C:0](=O)N4CCCC(n5nc(-c6ccc(Oc7ccc(F)cc7F)cc6)c(C(N)=O)c5N)C4)nc3C)ccc2CC1C(=O)NC1CCCc2ccccc21)C(C)(C)C

> <Shape>
0.221

> <Color>
0.138

> <Negative vol penalty>
0.000

$$$$

  -OEChem-04052318493D

 84 92  0     1  0  0  0  0  0999 V2000
  -27.9319  -23.6765   17.7813 C   0  0  0  0  0  0  0  0  0  0  0  0
  -26.7501  -23.9858   18.4470 C   0  0  0  0  0  0  0  0  0  0  0  0
  -26.6849  -17.8188   18.2203 C   0  0  0  0  0  0  0  0  0  0  0  0
  -26.6318  -18.7162   20.4629 C   0  0  0  0  0  0  0  0  0  0  0  0
  -29.1387  -24.2237   18.2150 C   0  0  0  0  0  0  0  0  0  0  0  0
  -26.7747  -24.8416   19.5477 C   0  0  0  0  0  0  0  0  0  0  0  0
  -23.0679  -28.2892   19.4109 C   0  0  0  0  0  0  0  0  0  0  0  0
  -27.9416  -18.3903   18.0214 C   0  0  0  0  0  0  0  0  0  0  0  0
  -27.8886  -19.2877   20.2639 C   0  0  0  0  0  0  0  0  0  0  0  0
  -21.7910  -27.8661   19.7774 C   0  0  0  0  0  0  0  0  0  0  0  0
  -31.1124  -18.2741   20.2657 C   0  0  0  0  0  0  0  0  0  0  0  0
  -32.0547  -18.1346   21.2846 C   0  0  0  0  0  0  0  0  0  0  0  0
  -22.1055  -28.8323   21.9653 C   0  0  0  0  0  0  0  0  0  0  0  0
  -21.6894  -24.8587   23.0518 C   0  0  0  0  0  0  0  0  0  0  0  0
  -32.1843  -20.5381   21.4936 C   0  0  0  0  0  0  0  0  0  0  0  0
  -26.0299  -17.9818   19.4411 C   0  0  0  0  0  0  0  0  0  0  0  0
  -24.4512  -16.1092   20.1541 C   0  0  0  0  0  0  0  0  0  0  0  0
  -29.1767  -25.0943   19.3156 C   0  0  0  0  0  0  0  0  0  0  0  0
  -23.8787  -28.9786   20.3239 C   0  0  0  0  0  0  0  0  0  0  0  0
  -27.9833  -25.3999   19.9974 C   0  0  0  0  0  0  0  0  0  0  0  0
  -23.3913  -29.2652   21.6070 C   0  0  0  0  0  0  0  0  0  0  0  0
  -22.7078  -23.9200   22.9295 C   0  0  0  0  0  0  0  0  0  0  0  0
  -20.3627  -24.4529   22.9592 C   0  0  0  0  0  0  0  0  0  0  0  0
  -28.5435  -19.1247   19.0431 C   0  0  0  0  0  0  0  0  0  0  0  0
  -21.3107  -28.1351   21.0557 C   0  0  0  0  0  0  0  0  0  0  0  0
  -30.7061  -19.5455   19.8606 C   0  0  0  0  0  0  0  0  0  0  0  0
  -32.5907  -19.2666   21.8986 C   0  0  0  0  0  0  0  0  0  0  0  0
  -31.2421  -20.6775   20.4746 C   0  0  0  0  0  0  0  0  0  0  0  0
  -24.7315  -17.3922   19.6470 C   0  0  0  0  0  0  0  0  0  0  0  0
  -22.3497  -22.5985   22.7170 C   0  0  0  0  0  0  0  0  0  0  0  0
  -20.1096  -23.1076   22.7452 C   0  0  0  0  0  0  0  0  0  0  0  0
  -23.0798  -16.0318   20.1535 C   0  0  0  0  0  0  0  0  0  0  0  0
  -25.3500  -15.0794   20.5869 C   0  0  0  0  0  0  0  0  0  0  0  0
  -26.6940  -28.4207   21.6901 C   0  0  0  0  0  0  0  0  0  0  0  0
  -26.2957  -31.4291   22.8361 C   0  0  0  0  0  0  0  0  0  0  0  0
  -24.1545  -33.9551   23.6614 C   0  0  0  0  0  0  0  0  0  0  0  0
  -18.7622  -20.1736   20.3871 C   0  0  0  0  0  0  0  0  0  0  0  0
  -30.5115  -25.6238   19.7766 C   0  0  0  0  0  0  0  0  0  0  0  0
  -25.2435  -29.4516   19.9043 C   0  0  0  0  0  0  0  0  0  0  0  0
  -24.2144  -30.0198   22.6177 C   0  0  0  0  0  0  0  0  0  0  0  0
  -30.3999  -26.8180   20.7208 C   0  0  0  0  0  0  0  0  0  0  0  0
  -19.2355  -17.7149   17.8558 C   0  0  0  0  0  0  0  0  0  0  0  0
  -29.3537  -26.5508   21.7982 C   0  0  0  0  0  0  0  0  0  0  0  0
  -20.6724  -17.2376   18.0736 C   0  0  0  0  0  0  0  0  0  0  0  0
  -19.0901  -19.2104   18.1285 C   0  0  0  0  0  0  0  0  0  0  0  0
  -21.0150  -19.1721   19.6671 C   0  0  0  0  0  0  0  0  0  0  0  0
  -27.9657  -26.3438   21.1801 C   0  0  1  0  0  0  0  0  0  0  0  0
  -26.1800  -29.6957   21.0836 C   0  0  1  0  0  0  0  0  0  0  0  0
  -21.1995  -17.6593   19.4584 C   0  0  2  0  0  0  0  0  0  0  0  0
  -24.1312  -24.3483   23.0279 C   0  0  0  0  0  0  0  0  0  0  0  0
  -23.4007  -21.5464   22.5767 C   0  0  0  0  0  0  0  0  0  0  0  0
  -24.1210  -36.2784   24.6095 C   0  0  0  0  0  0  0  0  0  0  0  0
  -26.7702  -30.2938   25.6283 C   0  0  0  0  0  0  0  0  0  0  0  0
  -25.8030  -32.4008   26.5734 C   0  0  0  0  0  0  0  0  0  0  0  0
  -27.8793  -32.4929   25.1939 C   0  0  0  0  0  0  0  0  0  0  0  0
  -22.9547  -35.0689   21.1958 C   0  0  0  0  0  0  0  0  0  0  0  0
  -19.2535  -25.4658   23.0907 C   0  0  0  0  0  0  0  0  0  0  0  0
  -18.7034  -22.6151   22.6387 C   0  0  0  0  0  0  0  0  0  0  0  0
  -18.6071  -25.8480   21.7574 C   0  0  0  0  0  0  0  0  0  0  0  0
  -18.5845  -21.0881   22.6874 C   0  0  0  0  0  0  0  0  0  0  0  0
  -19.5684  -26.5374   20.7961 C   0  0  0  0  0  0  0  0  0  1  0  0
  -25.6632  -32.0285   24.0689 C   0  0  1  0  0  0  0  0  0  0  0  0
  -24.1769  -35.4391   23.3424 C   0  0  2  0  0  0  0  0  0  0  0  0
  -26.5139  -31.7880   25.3479 C   0  0  0  0  0  0  0  0  0  0  0  0
  -23.6270  -18.0804   19.3461 N   0  0  0  0  0  0  0  0  0  0  0  0
  -21.0723  -22.1665   22.6213 N   0  0  0  0  0  0  0  0  0  0  0  0
  -22.6393  -17.2266   19.6648 N   0  0  0  0  0  0  0  0  0  0  0  0
  -25.5447  -30.4557   22.1619 N   0  0  0  0  0  0  0  0  0  0  0  0
  -19.6068  -19.5439   19.4581 N   0  0  0  0  0  0  0  0  0  0  0  0
  -22.2199  -15.0591   20.5232 N   0  0  0  0  0  0  0  0  0  0  0  0
  -26.7283  -15.3244   20.5207 N   0  0  0  0  0  0  0  0  0  0  0  0
  -27.3848  -27.6151   20.8050 N   0  0  0  0  0  0  0  0  0  0  0  0
  -25.4276  -33.4355   23.7637 N   0  0  0  0  0  0  0  0  0  0  0  0
  -19.3291  -20.4488   21.6255 N   0  0  0  0  0  0  0  0  0  0  0  0
  -23.0124  -35.8025   22.4863 N   0  3  0  0  0  0  0  0  0  0  0  0
  -24.9432  -13.9686   21.0043 O   0  0  0  0  0  0  0  0  0  0  0  0
  -26.4811  -28.1859   22.8738 O   0  0  0  0  0  0  0  0  0  0  0  0
  -27.4118  -31.8155   22.4803 O   0  0  0  0  0  0  0  0  0  0  0  0
  -23.1120  -33.3211   23.8089 O   0  0  0  0  0  0  0  0  0  0  0  0
  -17.5881  -20.4640   20.1336 O   0  0  0  0  0  0  0  0  0  0  0  0
  -29.7700  -19.6823   18.8494 O   0  0  0  0  0  0  0  0  0  0  0  0
  -20.0650  -27.7227   21.4163 O   0  0  0  0  0  0  0  0  0  1  0  0
  -33.4944  -19.1325   22.8781 F   0  0  0  0  0  0  0  0  0  0  0  0
  -30.8547  -21.9016   20.0906 F   0  0  0  0  0  0  0  0  0  0  0  0
  1  2  1  0  0  0  0
  1  5  2  0  0  0  0
  2  6  2  0  0  0  0
  3  8  2  0  0  0  0
  3 16  1  0  0  0  0
  4  9  1  0  0  0  0
  4 16  2  0  0  0  0
  5 18  1  0  0  0  0
  6 20  1  0  0  0  0
  7 10  2  0  0  0  0
  7 19  1  0  0  0  0
  8 24  1  0  0  0  0
  9 24  2  0  0  0  0
 10 25  1  0  0  0  0
 11 12  2  0  0  0  0
 11 26  1  0  0  0  0
 12 27  1  0  0  0  0
 13 21  1  0  0  0  0
 13 25  2  0  0  0  0
 14 22  2  0  0  0  0
 14 23  1  0  0  0  0
 15 27  2  0  0  0  0
 15 28  1  0  0  0  0
 16 29  1  0  0  0  0
 17 29  1  0  0  0  0
 17 32  2  0  0  0  0
 17 33  1  0  0  0  0
 18 20  2  0  0  0  0
 18 38  1  0  0  0  0
 19 21  2  0  0  0  0
 19 39  1  0  0  0  0
 20 47  1  0  0  0  0
 21 40  1  0  0  0  0
 22 30  1  0  0  0  0
 22 50  1  0  0  0  0
 23 31  2  0  0  0  0
 23 57  1  0  0  0  0
 24 81  1  0  0  0  0
 25 82  1  0  0  0  0
 26 28  2  0  0  0  0
 26 81  1  0  0  0  0
 27 83  1  0  0  0  0
 28 84  1  0  0  0  0
 29 65  2  0  0  0  0
 30 51  1  0  0  0  0
 30 66  2  0  0  0  0
 31 58  1  0  0  0  0
 31 66  1  0  0  0  0
 32 67  1  0  0  0  0
 32 70  1  0  0  0  0
 33 71  1  0  0  0  0
 33 76  2  0  0  0  0
 34 48  1  0  0  0  0
 34 72  1  0  0  0  0
 34 77  2  0  0  0  0
 35 62  1  0  0  0  0
 35 68  1  0  0  0  0
 35 78  2  0  0  0  0
 36 63  1  0  0  0  0
 36 73  1  0  0  0  0
 36 79  2  0  0  0  0
 37 69  1  0  0  0  0
 37 74  1  0  0  0  0
 37 80  2  0  0  0  0
 38 41  1  0  0  0  0
 39 48  1  0  0  0  0
 40 68  1  0  0  0  0
 41 43  1  0  0  0  0
 42 44  1  0  0  0  0
 42 45  1  0  0  0  0
 43 47  1  0  0  0  0
 44 49  1  0  0  0  0
 45 69  1  0  0  0  0
 46 49  1  0  0  0  0
 46 69  1  0  0  0  0
 47 72  1  0  0  0  0
 48 68  1  0  0  0  0
 49 67  1  0  0  0  0
 52 63  1  0  0  0  0
 53 64  1  0  0  0  0
 54 64  1  0  0  0  0
 55 64  1  0  0  0  0
 56 75  1  0  0  0  0
 57 59  1  0  0  0  0
 58 60  1  0  0  0  0
 59 61  1  0  0  0  0
 60 74  1  0  0  0  0
 61 82  1  0  0  0  0
 62 64  1  0  0  0  0
 62 73  1  0  0  0  0
 63 75  1  0  0  0  0
 65 67  1  0  0  0  0
M  CHG  1  75   1
M  ISO  4  37 100  61 101  74 100  82 101
M  END
> <Batch ID>
0082

> <Smiles>
CNC(C)C(=O)NC(C(=O)N1Cc2cc([101O:1][101CH2:1]CCc3cc(C)c(C)nc3CC[100NH:0][100C:0](=O)N3CCCC(n4nc(-c5ccc(Oc6ccc(F)cc6F)cc5)c(C(N)=O)c4N)C3)ccc2CC1C(=O)NC1CCCc2ccccc21)C(C)(C)C

> <Shape>
0.243

> <Color>
0.070

> <Negative vol penalty>
0.000

$$$$

  -OEChem-04052318493D

 83 91  0     1  0  0  0  0  0999 V2000
  -16.9364  -32.5995   22.6995 C   0  0  0  0  0  0  0  0  0  0  0  0
  -18.2587  -33.0318   22.6984 C   0  0  0  0  0  0  0  0  0  0  0  0
  -26.3668  -12.5538   20.7958 C   0  0  0  0  0  0  0  0  0  0  0  0
  -24.6763  -13.8504   19.6565 C   0  0  0  0  0  0  0  0  0  0  0  0
  -16.6397  -31.2680   22.9875 C   0  0  0  0  0  0  0  0  0  0  0  0
  -19.2851  -32.1329   22.9865 C   0  0  0  0  0  0  0  0  0  0  0  0
  -26.1080  -30.7278   21.3163 C   0  0  0  0  0  0  0  0  0  0  0  0
  -25.3766  -11.7218   21.3182 C   0  0  0  0  0  0  0  0  0  0  0  0
  -23.6861  -13.0184   20.1789 C   0  0  0  0  0  0  0  0  0  0  0  0
  -27.3416  -30.5027   21.9256 C   0  0  0  0  0  0  0  0  0  0  0  0
  -23.4748   -9.1383   20.2498 C   0  0  0  0  0  0  0  0  0  0  0  0
  -23.6949   -7.7617   20.2052 C   0  0  0  0  0  0  0  0  0  0  0  0
  -26.7161  -28.2084   22.3307 C   0  0  0  0  0  0  0  0  0  0  0  0
  -23.5431   -7.6594   22.6143 C   0  0  0  0  0  0  0  0  0  0  0  0
  -31.9070  -25.7814   20.4584 C   0  0  0  0  0  0  0  0  0  0  0  0
  -26.0167  -13.6182   19.9650 C   0  0  0  0  0  0  0  0  0  0  0  0
  -27.7327  -14.3163   18.2113 C   0  0  0  0  0  0  0  0  0  0  0  0
  -17.6636  -30.3502   23.2698 C   0  0  0  0  0  0  0  0  0  0  0  0
  -25.1633  -29.6961   21.2192 C   0  0  0  0  0  0  0  0  0  0  0  0
  -19.0017  -30.7882   23.2799 C   0  0  0  0  0  0  0  0  0  0  0  0
  -25.4722  -28.4223   21.7175 C   0  0  0  0  0  0  0  0  0  0  0  0
  -24.0363  -11.9541   21.0097 C   0  0  0  0  0  0  0  0  0  0  0  0
  -27.6447  -29.2437   22.4355 C   0  0  0  0  0  0  0  0  0  0  0  0
  -23.2890   -9.7756   21.4766 C   0  0  0  0  0  0  0  0  0  0  0  0
  -23.7290   -7.0222   21.3874 C   0  0  0  0  0  0  0  0  0  0  0  0
  -23.3231   -9.0361   22.6588 C   0  0  0  0  0  0  0  0  0  0  0  0
  -27.0390  -14.4783   19.4255 C   0  0  0  0  0  0  0  0  0  0  0  0
  -31.1969  -25.6443   21.6307 C   0  0  0  0  0  0  0  0  0  0  0  0
  -30.5185  -24.2759   19.4411 C   0  0  0  0  0  0  0  0  0  0  0  0
  -29.8087  -24.1381   20.6136 C   0  0  0  0  0  0  0  0  0  0  0  0
  -28.5891  -15.3888   18.1594 C   0  0  0  0  0  0  0  0  0  0  0  0
  -27.6135  -13.2882   17.2190 C   0  0  0  0  0  0  0  0  0  0  0  0
  -22.2178  -29.2404   22.3238 C   0  0  0  0  0  0  0  0  0  0  0  0
  -22.3601  -26.5718   20.4852 C   0  0  0  0  0  0  0  0  0  0  0  0
  -24.2878  -24.2164   18.9416 C   0  0  0  0  0  0  0  0  0  0  0  0
  -28.3098  -20.7662   20.5804 C   0  0  0  0  0  0  0  0  0  0  0  0
  -17.2905  -28.9318   23.6217 C   0  0  0  0  0  0  0  0  0  0  0  0
  -23.8476  -29.9479   20.5352 C   0  0  0  0  0  0  0  0  0  0  0  0
  -24.5005  -27.2756   21.6202 C   0  0  0  0  0  0  0  0  0  0  0  0
  -18.4634  -27.9575   23.5487 C   0  0  0  0  0  0  0  0  0  0  0  0
  -31.0079  -18.3904   20.9963 C   0  0  0  0  0  0  0  0  0  0  0  0
  -19.6876  -28.5426   24.2456 C   0  0  0  0  0  0  0  0  0  0  0  0
  -30.3487  -17.0950   20.5191 C   0  0  0  0  0  0  0  0  0  0  0  0
  -30.0201  -19.2623   21.7659 C   0  0  0  0  0  0  0  0  0  0  0  0
  -28.1133  -18.2959   20.5396 C   0  0  0  0  0  0  0  0  0  0  0  0
  -20.1446  -29.8376   23.5632 C   0  0  1  0  0  0  0  0  0  0  0  0
  -22.7599  -28.9620   20.9504 C   0  0  1  0  0  0  0  0  0  0  0  0
  -29.0542  -17.3808   19.7351 C   0  0  2  0  0  0  0  0  0  0  0  0
  -30.1471  -23.5158   18.2137 C   0  0  0  0  0  0  0  0  0  0  0  0
  -27.5821  -23.7053   21.7165 C   0  0  0  0  0  0  0  0  0  0  0  0
  -24.1179  -22.1383   17.5452 C   0  0  0  0  0  0  0  0  0  0  0  0
  -21.5727  -24.9744   22.9627 C   0  0  0  0  0  0  0  0  0  0  0  0
  -22.3363  -22.9019   21.7837 C   0  0  0  0  0  0  0  0  0  0  0  0
  -20.4515  -24.2432   20.8502 C   0  0  0  0  0  0  0  0  0  0  0  0
  -25.7530  -25.4668   16.6947 C   0  0  0  0  0  0  0  0  0  0  0  0
  -31.5908  -26.4242   22.8595 C   0  0  0  0  0  0  0  0  0  0  0  0
  -30.9045  -27.7875   22.9700 C   0  0  0  0  0  0  0  0  0  0  0  0
  -29.3830  -27.7016   22.9419 C   0  0  0  0  0  0  0  0  0  1  0  0
  -28.6364  -23.2226   20.7093 C   0  0  2  0  0  0  0  0  0  0  0  0
  -22.8082  -25.1467   20.7022 C   0  0  1  0  0  0  0  0  0  0  0  0
  -24.2541  -23.6529   17.5324 C   0  0  2  0  0  0  0  0  0  0  0  0
  -21.8099  -24.3385   21.5784 C   0  0  0  0  0  0  0  0  0  0  0  0
  -31.5806  -25.0997   19.3425 N   0  0  0  0  0  0  0  0  0  0  0  0
  -27.4217  -15.5679   20.0966 N   0  0  0  0  0  0  0  0  0  0  0  0
  -30.1350  -24.8201   21.7293 N   0  0  0  0  0  0  0  0  0  0  0  0
  -28.3653  -16.1002   19.3014 N   0  0  0  0  0  0  0  0  0  0  0  0
  -23.2249  -27.5735   20.9483 N   0  0  0  0  0  0  0  0  0  0  0  0
  -28.8186  -19.5122   20.9572 N   0  0  0  0  0  0  0  0  0  0  0  0
  -29.5044  -15.7833   17.2488 N   0  0  0  0  0  0  0  0  0  0  0  0
  -26.6842  -12.2605   17.4300 N   0  0  0  0  0  0  0  0  0  0  0  0
  -20.8688  -29.5392   22.3463 N   0  0  0  0  0  0  0  0  0  0  0  0
  -23.0312  -24.5824   19.3755 N   0  0  0  0  0  0  0  0  0  0  0  0
  -29.0327  -21.8675   21.0222 N   0  0  0  0  0  0  0  0  0  0  0  0
  -25.5050  -24.0061   16.8033 N   0  3  0  0  0  0  0  0  0  0  0  0
  -28.3221  -13.2723   16.1841 O   0  0  0  0  0  0  0  0  0  0  0  0
  -22.9675  -29.1866   23.2917 O   0  0  0  0  0  0  0  0  0  0  0  0
  -21.2857  -26.7884   19.9190 O   0  0  0  0  0  0  0  0  0  0  0  0
  -25.3246  -24.3181   19.5937 O   0  0  0  0  0  0  0  0  0  0  0  0
  -27.2890  -20.8949   19.8958 O   0  0  0  0  0  0  0  0  0  0  0  0
  -23.0698  -11.1423   21.5191 O   0  0  0  0  0  0  0  0  0  0  0  0
  -28.8478  -29.0214   23.0313 O   0  0  0  0  0  0  0  0  0  1  0  0
  -23.9388   -5.7000   21.3444 F   0  0  0  0  0  0  0  0  0  0  0  0
  -23.1441   -9.6426   23.8403 F   0  0  0  0  0  0  0  0  0  0  0  0
  1  2  1  0  0  0  0
  1  5  2  0  0  0  0
  2  6  2  0  0  0  0
  3  8  2  0  0  0  0
  3 16  1  0  0  0  0
  4  9  1  0  0  0  0
  4 16  2  0  0  0  0
  5 18  1  0  0  0  0
  6 20  1  0  0  0  0
  7 10  2  0  0  0  0
  7 19  1  0  0  0  0
  8 22  1  0  0  0  0
  9 22  2  0  0  0  0
 10 23  1  0  0  0  0
 11 12  2  0  0  0  0
 11 24  1  0  0  0  0
 12 25  1  0  0  0  0
 13 21  1  0  0  0  0
 13 23  2  0  0  0  0
 14 25  2  0  0  0  0
 14 26  1  0  0  0  0
 15 28  1  0  0  0  0
 15 63  2  0  0  0  0
 16 27  1  0  0  0  0
 17 27  1  0  0  0  0
 17 31  2  0  0  0  0
 17 32  1  0  0  0  0
 18 20  2  0  0  0  0
 18 37  1  0  0  0  0
 19 21  2  0  0  0  0
 19 38  1  0  0  0  0
 20 46  1  0  0  0  0
 21 39  1  0  0  0  0
 22 80  1  0  0  0  0
 23 81  1  0  0  0  0
 24 26  2  0  0  0  0
 24 80  1  0  0  0  0
 25 82  1  0  0  0  0
 26 83  1  0  0  0  0
 27 64  2  0  0  0  0
 28 56  1  0  0  0  0
 28 65  2  0  0  0  0
 29 30  2  0  0  0  0
 29 49  1  0  0  0  0
 29 63  1  0  0  0  0
 30 59  1  0  0  0  0
 30 65  1  0  0  0  0
 31 66  1  0  0  0  0
 31 69  1  0  0  0  0
 32 70  1  0  0  0  0
 32 75  2  0  0  0  0
 33 47  1  0  0  0  0
 33 71  1  0  0  0  0
 33 76  2  0  0  0  0
 34 60  1  0  0  0  0
 34 67  1  0  0  0  0
 34 77  2  0  0  0  0
 35 61  1  0  0  0  0
 35 72  1  0  0  0  0
 35 78  2  0  0  0  0
 36 68  1  0  0  0  0
 36 73  1  0  0  0  0
 36 79  2  0  0  0  0
 37 40  1  0  0  0  0
 38 47  1  0  0  0  0
 39 67  1  0  0  0  0
 40 42  1  0  0  0  0
 41 43  1  0  0  0  0
 41 44  1  0  0  0  0
 42 46  1  0  0  0  0
 43 48  1  0  0  0  0
 44 68  1  0  0  0  0
 45 48  1  0  0  0  0
 45 68  1  0  0  0  0
 46 71  1  0  0  0  0
 47 67  1  0  0  0  0
 48 66  1  0  0  0  0
 50 59  1  0  0  0  0
 51 61  1  0  0  0  0
 52 62  1  0  0  0  0
 53 62  1  0  0  0  0
 54 62  1  0  0  0  0
 55 74  1  0  0  0  0
 56 57  1  0  0  0  0
 57 58  1  0  0  0  0
 58 81  1  0  0  0  0
 59 73  1  0  0  0  0
 60 62  1  0  0  0  0
 60 72  1  0  0  0  0
 61 74  1  0  0  0  0
 64 66  1  0  0  0  0
M  CHG  1  74   1
M  ISO  4  36 100  58 101  73 100  81 101
M  END
> <Batch ID>
0082

> <Smiles>
CNC(C)C(=O)NC(C(=O)N1Cc2cc([101O:1][101CH2:1]CCc3cnc(C)c(C(C)[100NH:0][100C:0](=O)N4CCCC(n5nc(-c6ccc(Oc7ccc(F)cc7F)cc6)c(C(N)=O)c5N)C4)n3)ccc2CC1C(=O)NC1CCCc2ccccc21)C(C)(C)C

> <Shape>
0.269

> <Color>
0.074

> <Negative vol penalty>
0.000

$$$$

  -OEChem-04052318493D

 86 94  0     1  0  0  0  0  0999 V2000
  -29.0687  -21.7746   13.9479 C   0  0  0  0  0  0  0  0  0  0  0  0
  -28.6108  -21.7226   15.2606 C   0  0  0  0  0  0  0  0  0  0  0  0
  -23.0734   -9.9140   19.9630 C   0  0  0  0  0  0  0  0  0  0  0  0
  -23.8185   -9.9494   22.2610 C   0  0  0  0  0  0  0  0  0  0  0  0
  -30.3570  -22.2342   13.6779 C   0  0  0  0  0  0  0  0  0  0  0  0
  -29.4415  -22.1292   16.3041 C   0  0  0  0  0  0  0  0  0  0  0  0
  -27.0449  -25.0636   19.6643 C   0  0  0  0  0  0  0  0  0  0  0  0
  -22.3296   -8.7628   20.2219 C   0  0  0  0  0  0  0  0  0  0  0  0
  -23.0746   -8.7981   22.5199 C   0  0  0  0  0  0  0  0  0  0  0  0
  -26.2120  -24.4285   20.5844 C   0  0  0  0  0  0  0  0  0  0  0  0
  -23.3738   -5.4702   22.0040 C   0  0  0  0  0  0  0  0  0  0  0  0
  -23.9862   -4.4544   22.7380 C   0  0  0  0  0  0  0  0  0  0  0  0
  -27.9502  -24.5760   22.2506 C   0  0  0  0  0  0  0  0  0  0  0  0
  -28.2450  -17.3682   21.4947 C   0  0  0  0  0  0  0  0  0  0  0  0
  -22.2735   -4.6457   24.4314 C   0  0  0  0  0  0  0  0  0  0  0  0
  -23.8179  -10.5073   20.9826 C   0  0  0  0  0  0  0  0  0  0  0  0
  -24.1569  -13.0313   20.8348 C   0  0  0  0  0  0  0  0  0  0  0  0
  -31.2004  -22.6558   14.7178 C   0  0  0  0  0  0  0  0  0  0  0  0
  -28.3428  -25.4505   20.0278 C   0  0  0  0  0  0  0  0  0  0  0  0
  -30.7428  -22.5937   16.0479 C   0  0  0  0  0  0  0  0  0  0  0  0
  -28.7967  -25.2182   21.3340 C   0  0  0  0  0  0  0  0  0  0  0  0
  -27.5958  -18.3588   20.7663 C   0  0  0  0  0  0  0  0  0  0  0  0
  -28.1078  -18.7585   19.5369 C   0  0  0  0  0  0  0  0  0  0  0  0
  -22.3301   -8.2049   21.5003 C   0  0  0  0  0  0  0  0  0  0  0  0
  -26.6656  -24.1820   21.8770 C   0  0  0  0  0  0  0  0  0  0  0  0
  -22.2114   -6.0738   22.4836 C   0  0  0  0  0  0  0  0  0  0  0  0
  -23.4360   -4.0422   23.9517 C   0  0  0  0  0  0  0  0  0  0  0  0
  -21.6612   -5.6616   23.6973 C   0  0  0  0  0  0  0  0  0  0  0  0
  -24.5869  -11.6962   20.7157 C   0  0  0  0  0  0  0  0  0  0  0  0
  -29.3937  -16.8132   20.9540 C   0  0  0  0  0  0  0  0  0  0  0  0
  -29.2628  -18.1414   19.0840 C   0  0  0  0  0  0  0  0  0  0  0  0
  -25.2503  -13.7781   20.4696 C   0  0  0  0  0  0  0  0  0  0  0  0
  -22.8830  -13.5502   21.2393 C   0  0  0  0  0  0  0  0  0  0  0  0
  -31.2684  -24.6899   19.0450 C   0  0  0  0  0  0  0  0  0  0  0  0
  -30.7516  -14.7423   20.7791 C   0  0  0  0  0  0  0  0  0  0  0  0
  -32.1475  -27.0465   21.0934 C   0  0  0  0  0  0  0  0  0  0  0  0
  -31.4027  -28.9170   23.8490 C   0  0  0  0  0  0  0  0  0  0  0  0
  -32.6017  -23.1004   14.3809 C   0  0  0  0  0  0  0  0  0  0  0  0
  -29.2194  -26.1586   19.0315 C   0  0  0  0  0  0  0  0  0  0  0  0
  -30.1744  -25.6321   21.7803 C   0  0  0  0  0  0  0  0  0  0  0  0
  -33.2860  -23.8658   15.5106 C   0  0  0  0  0  0  0  0  0  0  0  0
  -29.6061  -12.4145   18.3074 C   0  0  0  0  0  0  0  0  0  0  0  0
  -33.0918  -23.1427   16.8396 C   0  0  0  0  0  0  0  0  0  0  0  0
  -28.1734  -12.1068   18.7407 C   0  0  0  0  0  0  0  0  0  0  0  0
  -30.5186  -12.6328   19.5102 C   0  0  0  0  0  0  0  0  0  0  0  0
  -28.6052  -13.3812   20.8888 C   0  0  0  0  0  0  0  0  0  0  0  0
  -31.6053  -23.0494   17.2048 C   0  0  1  0  0  0  0  0  0  0  0  0
  -30.7055  -26.0474   19.3579 C   0  0  1  0  0  0  0  0  0  0  0  0
  -27.6436  -13.1842   19.7035 C   0  0  2  0  0  0  0  0  0  0  0  0
  -27.4314  -19.8170   18.7324 C   0  0  0  0  0  0  0  0  0  0  0  0
  -29.8596  -18.5272   17.7700 C   0  0  0  0  0  0  0  0  0  0  0  0
  -31.1855  -16.2958   22.6611 C   0  0  0  0  0  0  0  0  0  0  0  0
  -32.3324  -30.7383   25.3036 C   0  0  0  0  0  0  0  0  0  0  0  0
  -24.2285  -22.1178   24.7001 C   0  0  0  0  0  0  0  0  0  0  0  0
  -34.0394  -25.0376   22.3952 C   0  0  0  0  0  0  0  0  0  0  0  0
  -34.2093  -26.5775   24.3619 C   0  0  0  0  0  0  0  0  0  0  0  0
  -34.9880  -27.3347   22.1163 C   0  0  0  0  0  0  0  0  0  0  0  0
  -29.1454  -30.7266   23.2254 C   0  0  0  0  0  0  0  0  0  0  0  0
  -26.3447  -18.9831   21.3312 C   0  0  0  0  0  0  0  0  0  0  0  0
  -26.6114  -19.9955   22.4523 C   0  0  0  0  0  0  0  0  0  0  0  0
  -25.3266  -20.6275   23.0032 C   0  0  0  0  0  0  0  0  0  0  0  0
  -26.4861  -22.7664   23.7795 C   0  0  0  0  0  0  0  0  0  1  0  0
  -30.1160  -15.7466   21.7073 C   0  0  1  0  0  0  0  0  0  0  0  0
  -32.5088  -27.1104   22.5578 C   0  0  1  0  0  0  0  0  0  0  0  0
  -31.4648  -30.4132   24.0976 C   0  0  2  0  0  0  0  0  0  0  0  0
  -25.5731  -21.5985   24.1742 C   0  0  1  0  0  0  0  0  0  0  0  0
  -33.9111  -26.5054   22.8491 C   0  0  0  0  0  0  0  0  0  0  0  0
  -25.8546  -11.5973   20.3067 N   0  0  0  0  0  0  0  0  0  0  0  0
  -29.9212  -17.1756   19.7632 N   0  0  0  0  0  0  0  0  0  0  0  0
  -26.2305  -12.8798   20.1656 N   0  0  0  0  0  0  0  0  0  0  0  0
  -30.9961  -26.3155   20.7678 N   0  0  0  0  0  0  0  0  0  0  0  0
  -29.9694  -13.6471   20.4118 N   0  0  0  0  0  0  0  0  0  0  0  0
  -25.4593  -15.1089   20.3822 N   0  0  0  0  0  0  0  0  0  0  0  0
  -21.8702  -12.6435   21.5809 N   0  0  0  0  0  0  0  0  0  0  0  0
  -31.1316  -24.3154   17.7219 N   0  0  0  0  0  0  0  0  0  0  0  0
  -32.3671  -28.5077   22.9525 N   0  0  0  0  0  0  0  0  0  0  0  0
  -30.0982  -30.9549   24.3421 N   0  3  0  0  0  0  0  0  0  0  0  0
  -22.6446  -14.7810   21.2805 O   0  0  0  0  0  0  0  0  0  0  0  0
  -31.7897  -24.0316   19.9375 O   0  0  0  0  0  0  0  0  0  0  0  0
  -31.9077  -14.9289   20.3908 O   0  0  0  0  0  0  0  0  0  0  0  0
  -32.8565  -27.6297   20.2696 O   0  0  0  0  0  0  0  0  0  0  0  0
  -30.5832  -28.1840   24.3982 O   0  0  0  0  0  0  0  0  0  0  0  0
  -21.6042   -7.0816   21.7533 O   0  0  0  0  0  0  0  0  0  0  0  0
  -25.8549  -23.5616   22.7768 O   0  0  0  0  0  0  0  0  0  1  0  0
  -24.0232   -3.0656   24.6557 F   0  0  0  0  0  0  0  0  0  0  0  0
  -20.5440   -6.2369   24.1627 F   0  0  0  0  0  0  0  0  0  0  0  0
  1  2  1  0  0  0  0
  1  5  2  0  0  0  0
  2  6  2  0  0  0  0
  3  8  2  0  0  0  0
  3 16  1  0  0  0  0
  4  9  1  0  0  0  0
  4 16  2  0  0  0  0
  5 18  1  0  0  0  0
  6 20  1  0  0  0  0
  7 10  2  0  0  0  0
  7 19  1  0  0  0  0
  8 24  1  0  0  0  0
  9 24  2  0  0  0  0
 10 25  1  0  0  0  0
 11 12  2  0  0  0  0
 11 26  1  0  0  0  0
 12 27  1  0  0  0  0
 13 21  1  0  0  0  0
 13 25  2  0  0  0  0
 14 22  1  0  0  0  0
 14 30  2  0  0  0  0
 15 27  2  0  0  0  0
 15 28  1  0  0  0  0
 16 29  1  0  0  0  0
 17 29  1  0  0  0  0
 17 32  2  0  0  0  0
 17 33  1  0  0  0  0
 18 20  2  0  0  0  0
 18 38  1  0  0  0  0
 19 21  2  0  0  0  0
 19 39  1  0  0  0  0
 20 47  1  0  0  0  0
 21 40  1  0  0  0  0
 22 23  2  0  0  0  0
 22 59  1  0  0  0  0
 23 31  1  0  0  0  0
 23 50  1  0  0  0  0
 24 83  1  0  0  0  0
 25 84  1  0  0  0  0
 26 28  2  0  0  0  0
 26 83  1  0  0  0  0
 27 85  1  0  0  0  0
 28 86  1  0  0  0  0
 29 68  2  0  0  0  0
 30 63  1  0  0  0  0
 30 69  1  0  0  0  0
 31 51  1  0  0  0  0
 31 69  2  0  0  0  0
 32 70  1  0  0  0  0
 32 73  1  0  0  0  0
 33 74  1  0  0  0  0
 33 78  2  0  0  0  0
 34 48  1  0  0  0  0
 34 75  1  0  0  0  0
 34 79  2  0  0  0  0
 35 63  1  0  0  0  0
 35 72  1  0  0  0  0
 35 80  2  0  0  0  0
 36 64  1  0  0  0  0
 36 71  1  0  0  0  0
 36 81  2  0  0  0  0
 37 65  1  0  0  0  0
 37 76  1  0  0  0  0
 37 82  2  0  0  0  0
 38 41  1  0  0  0  0
 39 48  1  0  0  0  0
 40 71  1  0  0  0  0
 41 43  1  0  0  0  0
 42 44  1  0  0  0  0
 42 45  1  0  0  0  0
 43 47  1  0  0  0  0
 44 49  1  0  0  0  0
 45 72  1  0  0  0  0
 46 49  1  0  0  0  0
 46 72  1  0  0  0  0
 47 75  1  0  0  0  0
 48 71  1  0  0  0  0
 49 70  1  0  0  0  0
 52 63  1  0  0  0  0
 53 65  1  0  0  0  0
 54 66  1  0  0  0  0
 55 67  1  0  0  0  0
 56 67  1  0  0  0  0
 57 67  1  0  0  0  0
 58 77  1  0  0  0  0
 59 60  1  0  0  0  0
 60 61  1  0  0  0  0
 61 66  1  0  0  0  0
 62 66  1  0  0  0  0
 62 84  1  0  0  0  0
 64 67  1  0  0  0  0
 64 76  1  0  0  0  0
 65 77  1  0  0  0  0
 68 70  1  0  0  0  0
M  CHG  1  77   1
M  ISO  4  35 100  62 101  63 100  84 101
M  END
> <Batch ID>
0082

> <Smiles>
CNC(C)C(=O)NC(C(=O)N1Cc2cc([101O:1][101CH2:1]C(C)CCCc3cc([100CH:0](C)[100C:0](=O)N4CCCC(n5nc(-c6ccc(Oc7ccc(F)cc7F)cc6)c(C(N)=O)c5N)C4)nc(C)c3C)ccc2CC1C(=O)NC1CCCc2ccccc21)C(C)(C)C

> <Shape>
0.264

> <Color>
0.207

> <Negative vol penalty>
0.000

$$$$

  -OEChem-04052318493D

 86 94  0     1  0  0  0  0  0999 V2000
  -28.8265  -23.0458   11.6848 C   0  0  0  0  0  0  0  0  0  0  0  0
  -28.5446  -22.5606   12.9578 C   0  0  0  0  0  0  0  0  0  0  0  0
  -23.2155   -9.7603   19.9355 C   0  0  0  0  0  0  0  0  0  0  0  0
  -23.8559   -9.9007   22.2608 C   0  0  0  0  0  0  0  0  0  0  0  0
  -29.2967  -24.3486   11.5249 C   0  0  0  0  0  0  0  0  0  0  0  0
  -28.7337  -23.3777   14.0718 C   0  0  0  0  0  0  0  0  0  0  0  0
  -24.8664  -23.1424   17.3327 C   0  0  0  0  0  0  0  0  0  0  0  0
  -22.5284   -8.5747   20.1963 C   0  0  0  0  0  0  0  0  0  0  0  0
  -23.1688   -8.7151   22.5216 C   0  0  0  0  0  0  0  0  0  0  0  0
  -24.8056  -22.0286   18.1691 C   0  0  0  0  0  0  0  0  0  0  0  0
  -20.9065   -5.3201   20.1796 C   0  0  0  0  0  0  0  0  0  0  0  0
  -21.0775   -4.2603   19.2890 C   0  0  0  0  0  0  0  0  0  0  0  0
  -25.7566  -23.3312   19.9630 C   0  0  0  0  0  0  0  0  0  0  0  0
  -23.4474   -4.2477   19.7589 C   0  0  0  0  0  0  0  0  0  0  0  0
  -29.5606  -20.2168   19.9362 C   0  0  0  0  0  0  0  0  0  0  0  0
  -23.8793  -10.4232   20.9678 C   0  0  0  0  0  0  0  0  0  0  0  0
  -24.0789  -12.9580   20.7606 C   0  0  0  0  0  0  0  0  0  0  0  0
  -29.4824  -25.1853   12.6366 C   0  0  0  0  0  0  0  0  0  0  0  0
  -25.3837  -24.3581   17.8028 C   0  0  0  0  0  0  0  0  0  0  0  0
  -29.2081  -24.6925   13.9267 C   0  0  0  0  0  0  0  0  0  0  0  0
  -25.8205  -24.4597   19.1314 C   0  0  0  0  0  0  0  0  0  0  0  0
  -22.5051   -8.0522   21.4893 C   0  0  0  0  0  0  0  0  0  0  0  0
  -25.2534  -22.1221   19.4835 C   0  0  0  0  0  0  0  0  0  0  0  0
  -22.0060   -5.8438   20.8598 C   0  0  0  0  0  0  0  0  0  0  0  0
  -22.3479   -3.7241   19.0787 C   0  0  0  0  0  0  0  0  0  0  0  0
  -23.2764   -5.3076   20.6495 C   0  0  0  0  0  0  0  0  0  0  0  0
  -24.5898  -11.6476   20.6989 C   0  0  0  0  0  0  0  0  0  0  0  0
  -30.2327  -19.4472   19.0291 C   0  0  0  0  0  0  0  0  0  0  0  0
  -25.1426  -13.7575   20.4203 C   0  0  0  0  0  0  0  0  0  0  0  0
  -30.1971  -18.3579   20.9559 C   0  0  0  0  0  0  0  0  0  0  0  0
  -22.7608  -13.4118   21.0958 C   0  0  0  0  0  0  0  0  0  0  0  0
  -27.8529  -26.1989   17.0166 C   0  0  0  0  0  0  0  0  0  0  0  0
  -26.5438  -28.2149   19.1948 C   0  0  0  0  0  0  0  0  0  0  0  0
  -24.5614  -28.6199   21.9430 C   0  0  0  0  0  0  0  0  0  0  0  0
  -30.5408  -15.1119   20.8326 C   0  0  0  0  0  0  0  0  0  0  0  0
  -30.0376  -26.5705   12.4180 C   0  0  0  0  0  0  0  0  0  0  0  0
  -25.4177  -25.5577   16.8960 C   0  0  0  0  0  0  0  0  0  0  0  0
  -26.3656  -25.7475   19.6906 C   0  0  0  0  0  0  0  0  0  0  0  0
  -29.8547  -27.4963   13.6178 C   0  0  0  0  0  0  0  0  0  0  0  0
  -29.6673  -12.5737   18.4936 C   0  0  0  0  0  0  0  0  0  0  0  0
  -30.2579  -26.7863   14.9063 C   0  0  0  0  0  0  0  0  0  0  0  0
  -28.2292  -12.2106   18.8679 C   0  0  0  0  0  0  0  0  0  0  0  0
  -30.5076  -12.8952   19.7275 C   0  0  0  0  0  0  0  0  0  0  0  0
  -28.4983  -13.5627   20.9888 C   0  0  0  0  0  0  0  0  0  0  0  0
  -29.3768  -25.5567   15.1575 C   0  0  1  0  0  0  0  0  0  0  0  0
  -26.4400  -26.6044   17.3279 C   0  0  1  0  0  0  0  0  0  0  0  0
  -27.5972  -13.2848   19.7735 C   0  0  2  0  0  0  0  0  0  0  0  0
  -23.7118  -30.3801   23.5169 C   0  0  0  0  0  0  0  0  0  0  0  0
  -25.1943  -18.7892   22.1716 C   0  0  0  0  0  0  0  0  0  0  0  0
  -31.4253  -20.9592   17.4050 C   0  0  0  0  0  0  0  0  0  0  0  0
  -29.2626  -19.8561   16.7403 C   0  0  0  0  0  0  0  0  0  0  0  0
  -31.3582  -18.5270   16.8931 C   0  0  0  0  0  0  0  0  0  0  0  0
  -29.2655  -28.2941   20.5716 C   0  0  0  0  0  0  0  0  0  0  0  0
  -28.1382  -29.2525   22.5912 C   0  0  0  0  0  0  0  0  0  0  0  0
  -28.1017  -30.5033   20.4333 C   0  0  0  0  0  0  0  0  0  0  0  0
  -21.7453  -28.0816   21.2092 C   0  0  0  0  0  0  0  0  0  0  0  0
  -30.4180  -17.3083   21.9817 C   0  0  0  0  0  0  0  0  0  0  0  0
  -27.5851  -19.2994   22.7292 C   0  0  0  0  0  0  0  0  0  0  0  0
  -28.9157  -19.9912   22.4019 C   0  0  0  0  0  0  0  0  0  0  0  0
  -26.1870  -20.9399   21.3239 C   0  0  0  0  0  0  0  0  0  1  0  0
  -26.6892  -28.4214   20.6831 C   0  0  1  0  0  0  0  0  0  0  0  0
  -23.4401  -29.5989   22.2407 C   0  0  2  0  0  0  0  0  0  0  0  0
  -26.4732  -19.4728   21.6711 C   0  0  2  0  0  0  0  0  0  0  0  0
  -30.5520  -19.6719   17.6169 C   0  0  0  0  0  0  0  0  0  0  0  0
  -28.0403  -29.0929   21.0590 C   0  0  0  0  0  0  0  0  0  0  0  0
  -25.8777  -11.6123   20.3468 N   0  0  0  0  0  0  0  0  0  0  0  0
  -29.5532  -19.5182   21.1194 N   0  0  0  0  0  0  0  0  0  0  0  0
  -26.1851  -12.9105   20.1842 N   0  0  0  0  0  0  0  0  0  0  0  0
  -30.6154  -18.3034   19.6873 N   0  3  0  0  0  0  0  0  0  0  0  0
  -26.3842  -26.8905   18.7629 N   0  0  0  0  0  0  0  0  0  0  0  0
  -29.8536  -13.9217   20.5426 N   0  0  0  0  0  0  0  0  0  0  0  0
  -25.2784  -15.0955   20.3028 N   0  0  0  0  0  0  0  0  0  0  0  0
  -21.7878  -12.4568   21.4206 N   0  0  0  0  0  0  0  0  0  0  0  0
  -28.0864  -25.9569   15.6763 N   0  0  0  0  0  0  0  0  0  0  0  0
  -25.5113  -29.1698   21.1084 N   0  0  0  0  0  0  0  0  0  0  0  0
  -29.8464  -16.0344   21.6056 N   0  0  0  0  0  0  0  0  0  0  0  0
  -22.1479  -28.8737   22.3997 N   0  3  0  0  0  0  0  0  0  0  0  0
  -22.4506  -14.6272   21.0909 O   0  0  0  0  0  0  0  0  0  0  0  0
  -28.6710  -26.1135   17.9249 O   0  0  0  0  0  0  0  0  0  0  0  0
  -26.5636  -29.1932   18.4437 O   0  0  0  0  0  0  0  0  0  0  0  0
  -24.5935  -27.4825   22.4076 O   0  0  0  0  0  0  0  0  0  0  0  0
  -31.6862  -15.3382   20.4279 O   0  0  0  0  0  0  0  0  0  0  0  0
  -21.8345   -6.8955   21.7442 O   0  0  0  0  0  0  0  0  0  0  0  0
  -25.1958  -21.0363   20.3018 O   0  0  0  0  0  0  0  0  0  1  0  0
  -22.5117   -2.7053   18.2246 F   0  0  0  0  0  0  0  0  0  0  0  0
  -24.3362   -5.8058   21.3010 F   0  0  0  0  0  0  0  0  0  0  0  0
  1  2  1  0  0  0  0
  1  5  2  0  0  0  0
  2  6  2  0  0  0  0
  3  8  2  0  0  0  0
  3 16  1  0  0  0  0
  4  9  1  0  0  0  0
  4 16  2  0  0  0  0
  5 18  1  0  0  0  0
  6 20  1  0  0  0  0
  7 10  2  0  0  0  0
  7 19  1  0  0  0  0
  8 22  1  0  0  0  0
  9 22  2  0  0  0  0
 10 23  1  0  0  0  0
 11 12  2  0  0  0  0
 11 24  1  0  0  0  0
 12 25  1  0  0  0  0
 13 21  1  0  0  0  0
 13 23  2  0  0  0  0
 14 25  2  0  0  0  0
 14 26  1  0  0  0  0
 15 28  2  0  0  0  0
 15 67  1  0  0  0  0
 16 27  1  0  0  0  0
 17 27  1  0  0  0  0
 17 29  2  0  0  0  0
 17 31  1  0  0  0  0
 18 20  2  0  0  0  0
 18 36  1  0  0  0  0
 19 21  2  0  0  0  0
 19 37  1  0  0  0  0
 20 45  1  0  0  0  0
 21 38  1  0  0  0  0
 22 83  1  0  0  0  0
 23 84  1  0  0  0  0
 24 26  2  0  0  0  0
 24 83  1  0  0  0  0
 25 85  1  0  0  0  0
 26 86  1  0  0  0  0
 27 66  2  0  0  0  0
 28 64  1  0  0  0  0
 28 69  1  0  0  0  0
 29 68  1  0  0  0  0
 29 72  1  0  0  0  0
 30 57  1  0  0  0  0
 30 67  1  0  0  0  0
 30 69  2  0  0  0  0
 31 73  1  0  0  0  0
 31 78  2  0  0  0  0
 32 46  1  0  0  0  0
 32 74  1  0  0  0  0
 32 79  2  0  0  0  0
 33 61  1  0  0  0  0
 33 70  1  0  0  0  0
 33 80  2  0  0  0  0
 34 62  1  0  0  0  0
 34 75  1  0  0  0  0
 34 81  2  0  0  0  0
 35 71  1  0  0  0  0
 35 76  1  0  0  0  0
 35 82  2  0  0  0  0
 36 39  1  0  0  0  0
 37 46  1  0  0  0  0
 38 70  1  0  0  0  0
 39 41  1  0  0  0  0
 40 42  1  0  0  0  0
 40 43  1  0  0  0  0
 41 45  1  0  0  0  0
 42 47  1  0  0  0  0
 43 71  1  0  0  0  0
 44 47  1  0  0  0  0
 44 71  1  0  0  0  0
 45 74  1  0  0  0  0
 46 70  1  0  0  0  0
 47 68  1  0  0  0  0
 48 62  1  0  0  0  0
 49 63  1  0  0  0  0
 50 64  1  0  0  0  0
 51 64  1  0  0  0  0
 52 64  1  0  0  0  0
 53 65  1  0  0  0  0
 54 65  1  0  0  0  0
 55 65  1  0  0  0  0
 56 77  1  0  0  0  0
 57 76  1  0  0  0  0
 58 59  1  0  0  0  0
 58 63  1  0  0  0  0
 59 67  1  0  0  0  0
 60 63  1  0  0  0  0
 60 84  1  0  0  0  0
 61 65  1  0  0  0  0
 61 75  1  0  0  0  0
 62 77  1  0  0  0  0
 66 68  1  0  0  0  0
M  CHG  2  69   1  77   1
M  ISO  4  35 100  60 101  76 100  84 101
M  END
> <Batch ID>
0082

> <Smiles>
CNC(C)C(=O)NC(C(=O)N1Cc2cc([101O:1][101CH2:1]C(C)CCn3cc(C(C)(C)C)nc3C[100NH:0][100C:0](=O)N3CCCC(n4nc(-c5ccc(Oc6ccc(F)cc6F)cc5)c(C(N)=O)c4N)C3)ccc2CC1C(=O)NC1CCCc2ccccc21)C(C)(C)C

> <Shape>
0.253

> <Color>
0.185

> <Negative vol penalty>
0.000

$$$$

  -OEChem-04052318493D

 88 96  0     1  0  0  0  0  0999 V2000
  -31.1547  -25.0208   12.6907 C   0  0  0  0  0  0  0  0  0  0  0  0
  -30.8714  -24.2826   13.8354 C   0  0  0  0  0  0  0  0  0  0  0  0
  -23.0730   -9.8542   19.9664 C   0  0  0  0  0  0  0  0  0  0  0  0
  -23.8312   -9.8967   22.2599 C   0  0  0  0  0  0  0  0  0  0  0  0
  -30.5270  -26.2480   12.4810 C   0  0  0  0  0  0  0  0  0  0  0  0
  -29.9610  -24.7717   14.7715 C   0  0  0  0  0  0  0  0  0  0  0  0
  -26.7131  -21.2257   16.3595 C   0  0  0  0  0  0  0  0  0  0  0  0
  -22.3272   -8.7063   20.2341 C   0  0  0  0  0  0  0  0  0  0  0  0
  -23.0853   -8.7488   22.5277 C   0  0  0  0  0  0  0  0  0  0  0  0
  -27.1801  -20.3109   17.3023 C   0  0  0  0  0  0  0  0  0  0  0  0
  -19.8555   -7.9655   23.1404 C   0  0  0  0  0  0  0  0  0  0  0  0
  -19.0977   -7.9454   24.3112 C   0  0  0  0  0  0  0  0  0  0  0  0
  -26.0904  -21.5658   19.0508 C   0  0  0  0  0  0  0  0  0  0  0  0
  -30.1833  -21.4043   19.1123 C   0  0  0  0  0  0  0  0  0  0  0  0
  -20.3356   -6.0181   25.0794 C   0  0  0  0  0  0  0  0  0  0  0  0
  -23.8250  -10.4494   20.9793 C   0  0  0  0  0  0  0  0  0  0  0  0
  -24.1707  -12.9718   20.8192 C   0  0  0  0  0  0  0  0  0  0  0  0
  -29.6013  -26.7479   13.4104 C   0  0  0  0  0  0  0  0  0  0  0  0
  -25.9391  -22.3253   16.7573 C   0  0  0  0  0  0  0  0  0  0  0  0
  -29.3214  -26.0074   14.5747 C   0  0  0  0  0  0  0  0  0  0  0  0
  -25.6127  -22.4917   18.1108 C   0  0  0  0  0  0  0  0  0  0  0  0
  -30.6999  -22.6415   19.4549 C   0  0  0  0  0  0  0  0  0  0  0  0
  -22.3334   -8.1536   21.5148 C   0  0  0  0  0  0  0  0  0  0  0  0
  -26.8712  -20.4824   18.6485 C   0  0  0  0  0  0  0  0  0  0  0  0
  -20.8534   -7.0118   22.9390 C   0  0  0  0  0  0  0  0  0  0  0  0
  -19.3377   -6.9717   25.2807 C   0  0  0  0  0  0  0  0  0  0  0  0
  -21.0935   -6.0382   23.9085 C   0  0  0  0  0  0  0  0  0  0  0  0
  -24.5961  -11.6349   20.7032 C   0  0  0  0  0  0  0  0  0  0  0  0
  -29.3318  -20.7892   20.0079 C   0  0  0  0  0  0  0  0  0  0  0  0
  -30.3305  -23.1818   20.6703 C   0  0  0  0  0  0  0  0  0  0  0  0
  -25.2643  -13.7138   20.4449 C   0  0  0  0  0  0  0  0  0  0  0  0
  -22.9007  -13.4961   21.2289 C   0  0  0  0  0  0  0  0  0  0  0  0
  -26.2869  -25.4817   16.6163 C   0  0  0  0  0  0  0  0  0  0  0  0
  -23.2481  -25.4762   17.7512 C   0  0  0  0  0  0  0  0  0  0  0  0
  -20.7931  -23.8235   19.4508 C   0  0  0  0  0  0  0  0  0  0  0  0
  -30.7494  -14.7275   20.6213 C   0  0  0  0  0  0  0  0  0  0  0  0
  -28.9836  -28.1015   13.1635 C   0  0  0  0  0  0  0  0  0  0  0  0
  -25.4207  -23.2884   15.7248 C   0  0  0  0  0  0  0  0  0  0  0  0
  -24.7682  -23.6442   18.5870 C   0  0  0  0  0  0  0  0  0  0  0  0
  -27.7503  -28.3738   14.0209 C   0  0  0  0  0  0  0  0  0  0  0  0
  -29.6101  -12.3069   18.2719 C   0  0  0  0  0  0  0  0  0  0  0  0
  -28.0145  -27.9899   15.4734 C   0  0  0  0  0  0  0  0  0  0  0  0
  -28.1718  -12.0223   18.7084 C   0  0  0  0  0  0  0  0  0  0  0  0
  -30.5266  -12.5455   19.4699 C   0  0  0  0  0  0  0  0  0  0  0  0
  -28.6249  -13.3015   20.8431 C   0  0  0  0  0  0  0  0  0  0  0  0
  -28.3211  -26.4929   15.6013 C   0  0  1  0  0  0  0  0  0  0  0  0
  -25.0712  -24.6554   16.3049 C   0  0  1  0  0  0  0  0  0  0  0  0
  -27.6514  -13.1096   19.6677 C   0  0  2  0  0  0  0  0  0  0  0  0
  -33.9740  -23.4591   17.5796 C   0  0  0  0  0  0  0  0  0  0  0  0
  -18.4296  -24.0895   20.2510 C   0  0  0  0  0  0  0  0  0  0  0  0
  -28.5539  -25.6134   21.2529 C   0  0  0  0  0  0  0  0  0  0  0  0
  -30.6145  -27.0281   21.1240 C   0  0  0  0  0  0  0  0  0  0  0  0
  -24.2161  -27.3022   19.9959 C   0  0  0  0  0  0  0  0  0  0  0  0
  -22.1149  -26.7636   21.2460 C   0  0  0  0  0  0  0  0  0  0  0  0
  -21.9894  -27.9173   19.0378 C   0  0  0  0  0  0  0  0  0  0  0  0
  -19.8660  -21.5196   17.8410 C   0  0  0  0  0  0  0  0  0  0  0  0
  -31.6230  -23.3483   18.5238 C   0  0  0  0  0  0  0  0  0  0  0  0
  -30.8481  -24.5106   21.1072 C   0  0  0  0  0  0  0  0  0  0  0  0
  -33.0421  -22.7590   18.5560 C   0  0  0  0  0  0  0  0  0  0  0  0
  -30.5405  -18.0365   20.8468 C   0  0  0  0  0  0  0  0  0  0  0  0
  -29.0458  -18.3562   20.7316 C   0  0  0  0  0  0  0  0  0  0  0  0
  -30.8176  -16.8974   21.8237 C   0  0  0  0  0  0  0  0  0  0  0  0
  -28.7405  -19.4374   19.6826 C   0  0  1  0  0  0  0  0  0  1  0  0
  -22.6195  -25.4703   19.1237 C   0  0  1  0  0  0  0  0  0  0  0  0
  -19.3278  -23.5902   19.1300 C   0  0  2  0  0  0  0  0  0  0  0  0
  -29.9700  -25.7125   20.6800 C   0  0  0  0  0  0  0  0  0  0  0  0
  -22.7525  -26.8426   19.8424 C   0  0  0  0  0  0  0  0  0  0  0  0
  -25.8611  -11.5305   20.2874 N   0  0  0  0  0  0  0  0  0  0  0  0
  -28.9875  -21.3414   21.1906 N   0  0  0  0  0  0  0  0  0  0  0  0
  -29.4950  -22.5575   21.5271 N   0  0  0  0  0  0  0  0  0  0  0  0
  -26.2401  -12.8113   20.1390 N   0  0  0  0  0  0  0  0  0  0  0  0
  -24.2902  -24.5624   17.5400 N   0  0  0  0  0  0  0  0  0  0  0  0
  -29.9769  -13.5889   20.3389 N   0  0  0  0  0  0  0  0  0  0  0  0
  -25.4768  -15.0436   20.3508 N   0  0  0  0  0  0  0  0  0  0  0  0
  -21.8872  -12.5940   21.5798 N   0  0  0  0  0  0  0  0  0  0  0  0
  -27.1008  -25.7187   15.5250 N   0  0  0  0  0  0  0  0  0  0  0  0
  -21.2430  -25.0228   18.9404 N   0  0  0  0  0  0  0  0  0  0  0  0
  -30.1510  -15.6706   21.4479 N   0  0  0  0  0  0  0  0  0  0  0  0
  -19.0663  -22.1367   18.9303 N   0  3  0  0  0  0  0  0  0  0  0  0
  -22.6663  -14.7278   21.2664 O   0  0  0  0  0  0  0  0  0  0  0  0
  -26.4720  -25.8764   17.7616 O   0  0  0  0  0  0  0  0  0  0  0  0
  -22.8251  -26.2578   16.8957 O   0  0  0  0  0  0  0  0  0  0  0  0
  -21.4699  -23.0237   20.0933 O   0  0  0  0  0  0  0  0  0  0  0  0
  -31.8860  -14.8940   20.1658 O   0  0  0  0  0  0  0  0  0  0  0  0
  -21.6055   -7.0336   21.7765 O   0  0  0  0  0  0  0  0  0  0  0  0
  -27.3263  -19.5913   19.5709 O   0  0  0  0  0  0  0  0  0  1  0  0
  -18.6108   -6.9534   26.4056 F   0  0  0  0  0  0  0  0  0  0  0  0
  -22.0516   -5.1201   23.7213 F   0  0  0  0  0  0  0  0  0  0  0  0
  1  2  1  0  0  0  0
  1  5  2  0  0  0  0
  2  6  2  0  0  0  0
  3  8  2  0  0  0  0
  3 16  1  0  0  0  0
  4  9  1  0  0  0  0
  4 16  2  0  0  0  0
  5 18  1  0  0  0  0
  6 20  1  0  0  0  0
  7 10  2  0  0  0  0
  7 19  1  0  0  0  0
  8 23  1  0  0  0  0
  9 23  2  0  0  0  0
 10 24  1  0  0  0  0
 11 12  2  0  0  0  0
 11 25  1  0  0  0  0
 12 26  1  0  0  0  0
 13 21  1  0  0  0  0
 13 24  2  0  0  0  0
 14 22  1  0  0  0  0
 14 29  2  0  0  0  0
 15 26  2  0  0  0  0
 15 27  1  0  0  0  0
 16 28  1  0  0  0  0
 17 28  1  0  0  0  0
 17 31  2  0  0  0  0
 17 32  1  0  0  0  0
 18 20  2  0  0  0  0
 18 37  1  0  0  0  0
 19 21  2  0  0  0  0
 19 38  1  0  0  0  0
 20 46  1  0  0  0  0
 21 39  1  0  0  0  0
 22 30  2  0  0  0  0
 22 57  1  0  0  0  0
 23 85  1  0  0  0  0
 24 86  1  0  0  0  0
 25 27  2  0  0  0  0
 25 85  1  0  0  0  0
 26 87  1  0  0  0  0
 27 88  1  0  0  0  0
 28 68  2  0  0  0  0
 29 63  1  0  0  0  0
 29 69  1  0  0  0  0
 30 58  1  0  0  0  0
 30 70  1  0  0  0  0
 31 71  1  0  0  0  0
 31 74  1  0  0  0  0
 32 75  1  0  0  0  0
 32 80  2  0  0  0  0
 33 47  1  0  0  0  0
 33 76  1  0  0  0  0
 33 81  2  0  0  0  0
 34 64  1  0  0  0  0
 34 72  1  0  0  0  0
 34 82  2  0  0  0  0
 35 65  1  0  0  0  0
 35 77  1  0  0  0  0
 35 83  2  0  0  0  0
 36 73  1  0  0  0  0
 36 78  1  0  0  0  0
 36 84  2  0  0  0  0
 37 40  1  0  0  0  0
 38 47  1  0  0  0  0
 39 72  1  0  0  0  0
 40 42  1  0  0  0  0
 41 43  1  0  0  0  0
 41 44  1  0  0  0  0
 42 46  1  0  0  0  0
 43 48  1  0  0  0  0
 44 73  1  0  0  0  0
 45 48  1  0  0  0  0
 45 73  1  0  0  0  0
 46 76  1  0  0  0  0
 47 72  1  0  0  0  0
 48 71  1  0  0  0  0
 49 59  1  0  0  0  0
 50 65  1  0  0  0  0
 51 66  1  0  0  0  0
 52 66  1  0  0  0  0
 53 67  1  0  0  0  0
 54 67  1  0  0  0  0
 55 67  1  0  0  0  0
 56 79  1  0  0  0  0
 57 59  1  0  0  0  0
 58 66  1  0  0  0  0
 60 61  1  0  0  0  0
 60 62  1  0  0  0  0
 61 63  1  0  0  0  0
 62 78  1  0  0  0  0
 63 86  1  0  0  0  0
 64 67  1  0  0  0  0
 64 77  1  0  0  0  0
 65 79  1  0  0  0  0
 68 71  1  0  0  0  0
 69 70  2  0  0  0  0
M  CHG  1  79   1
M  ISO  4  36 100  63 101  78 100  86 101
M  END
> <Batch ID>
0082

> <Smiles>
CCCc1cc([101CH:1](CCC[100NH:0][100C:0](=O)N2CCCC(n3nc(-c4ccc(Oc5ccc(F)cc5F)cc4)c(C(N)=O)c3N)C2)[101O:1]c2ccc3c(c2)CN(C(=O)C(NC(=O)C(C)NC)C(C)(C)C)C(C(=O)NC2CCCc4ccccc42)C3)nnc1CC(C)C

> <Shape>
0.253

> <Color>
0.184

> <Negative vol penalty>
0.000

$$$$

  -OEChem-04052318493D

 86 94  0     1  0  0  0  0  0999 V2000
  -21.5881  -28.7376   20.5457 C   0  0  0  0  0  0  0  0  0  0  0  0
  -22.1212  -27.4996   20.2015 C   0  0  0  0  0  0  0  0  0  0  0  0
  -20.4391  -17.5072   22.1408 C   0  0  0  0  0  0  0  0  0  0  0  0
  -21.9929  -18.8995   23.3591 C   0  0  0  0  0  0  0  0  0  0  0  0
  -22.4371  -29.8100   20.8163 C   0  0  0  0  0  0  0  0  0  0  0  0
  -23.5036  -27.3334   20.1266 C   0  0  0  0  0  0  0  0  0  0  0  0
  -26.6918  -22.3102   21.5788 C   0  0  0  0  0  0  0  0  0  0  0  0
  -19.3954  -18.3622   22.4948 C   0  0  0  0  0  0  0  0  0  0  0  0
  -20.9492  -19.7545   23.7131 C   0  0  0  0  0  0  0  0  0  0  0  0
  -27.2187  -21.2773   20.8047 C   0  0  0  0  0  0  0  0  0  0  0  0
  -19.1652  -22.2353   22.2696 C   0  0  0  0  0  0  0  0  0  0  0  0
  -19.3855  -23.6076   22.1521 C   0  0  0  0  0  0  0  0  0  0  0  0
  -29.3531  -22.4008   20.7690 C   0  0  0  0  0  0  0  0  0  0  0  0
  -28.8821  -13.5325   18.5377 C   0  0  0  0  0  0  0  0  0  0  0  0
  -18.9755  -23.8759   24.5179 C   0  0  0  0  0  0  0  0  0  0  0  0
  -21.7379  -17.7758   22.5730 C   0  0  0  0  0  0  0  0  0  0  0  0
  -23.6355  -16.9778   21.0664 C   0  0  0  0  0  0  0  0  0  0  0  0
  -23.8309  -29.6543   20.7542 C   0  0  0  0  0  0  0  0  0  0  0  0
  -27.4900  -23.4034   21.9452 C   0  0  0  0  0  0  0  0  0  0  0  0
  -24.3721  -28.4050   20.3953 C   0  0  0  0  0  0  0  0  0  0  0  0
  -28.8347  -23.4451   21.5499 C   0  0  0  0  0  0  0  0  0  0  0  0
  -28.4016  -12.2306   18.6227 C   0  0  0  0  0  0  0  0  0  0  0  0
  -29.6083  -14.0701   19.5946 C   0  0  0  0  0  0  0  0  0  0  0  0
  -19.6505  -19.4858   23.2809 C   0  0  0  0  0  0  0  0  0  0  0  0
  -28.5487  -21.3239   20.3972 C   0  0  0  0  0  0  0  0  0  0  0  0
  -18.8500  -21.6832   23.5112 C   0  0  0  0  0  0  0  0  0  0  0  0
  -19.2907  -24.4279   23.2763 C   0  0  0  0  0  0  0  0  0  0  0  0
  -18.7552  -22.5035   24.6354 C   0  0  0  0  0  0  0  0  0  0  0  0
  -22.8163  -16.8927   22.2081 C   0  0  0  0  0  0  0  0  0  0  0  0
  -28.6721  -11.5135   19.7770 C   0  0  0  0  0  0  0  0  0  0  0  0
  -29.8247  -13.2707   20.7055 C   0  0  0  0  0  0  0  0  0  0  0  0
  -24.4978  -15.9151   21.1826 C   0  0  0  0  0  0  0  0  0  0  0  0
  -23.6184  -17.9321   19.9965 C   0  0  0  0  0  0  0  0  0  0  0  0
  -27.3961  -26.5331   21.3972 C   0  0  0  0  0  0  0  0  0  0  0  0
  -29.8853  -26.5775   23.4767 C   0  0  0  0  0  0  0  0  0  0  0  0
  -32.4694  -24.8948   24.9388 C   0  0  0  0  0  0  0  0  0  0  0  0
  -27.9174  -12.7340   24.2375 C   0  0  0  0  0  0  0  0  0  0  0  0
  -24.7075  -30.8549   21.0090 C   0  0  0  0  0  0  0  0  0  0  0  0
  -26.9140  -24.4965   22.8030 C   0  0  0  0  0  0  0  0  0  0  0  0
  -29.7391  -24.5866   21.9339 C   0  0  0  0  0  0  0  0  0  0  0  0
  -26.1679  -30.4976   21.2732 C   0  0  0  0  0  0  0  0  0  0  0  0
  -24.4434  -11.9605   24.3361 C   0  0  0  0  0  0  0  0  0  0  0  0
  -26.6644  -29.4859   20.2452 C   0  0  0  0  0  0  0  0  0  0  0  0
  -23.7782  -13.1839   23.7031 C   0  0  0  0  0  0  0  0  0  0  0  0
  -25.6575  -12.3499   25.1765 C   0  0  0  0  0  0  0  0  0  0  0  0
  -25.9966  -14.3917   23.8387 C   0  0  0  0  0  0  0  0  0  0  0  0
  -25.8668  -28.1788   20.3278 C   0  0  1  0  0  0  0  0  0  0  0  0
  -27.6765  -25.8126   22.6856 C   0  0  1  0  0  0  0  0  0  0  0  0
  -24.8005  -14.0441   22.9361 C   0  0  2  0  0  0  0  0  0  0  0  0
  -28.1804  -10.1109   19.9252 C   0  0  0  0  0  0  0  0  0  0  0  0
  -26.1846  -12.1603   17.4537 C   0  0  0  0  0  0  0  0  0  0  0  0
  -34.3512  -25.2064   26.5695 C   0  0  0  0  0  0  0  0  0  0  0  0
  -31.4656  -28.1020   21.3580 C   0  0  0  0  0  0  0  0  0  0  0  0
  -33.5558  -27.5529   22.6220 C   0  0  0  0  0  0  0  0  0  0  0  0
  -31.7789  -28.9366   23.6947 C   0  0  0  0  0  0  0  0  0  0  0  0
  -31.3883  -22.8271   26.7594 C   0  0  0  0  0  0  0  0  0  0  0  0
  -27.6230  -11.6489   17.4938 C   0  0  0  0  0  0  0  0  0  0  0  0
  -30.1321  -15.4815   19.5088 C   0  0  0  0  0  0  0  0  0  0  0  0
  -30.5993  -13.7958   21.8697 C   0  0  0  0  0  0  0  0  0  0  0  0
  -29.0597  -16.5543   19.7289 C   0  0  0  0  0  0  0  0  0  0  0  0
  -29.5936  -17.9776   19.5620 C   0  0  0  0  0  0  0  0  0  0  0  0
  -30.1212  -13.2495   23.2193 C   0  0  0  0  0  0  0  0  0  0  0  0
  -28.5113  -19.0154   19.8268 C   0  0  0  0  0  0  0  0  0  1  0  0
  -31.3853  -26.4629   23.3512 C   0  0  1  0  0  0  0  0  0  0  0  0
  -32.9032  -24.7781   26.3889 C   0  0  2  0  0  0  0  0  0  0  0  0
  -32.0291  -27.7429   22.7475 C   0  0  0  0  0  0  0  0  0  0  0  0
  -23.1300  -15.8576   22.9918 N   0  0  0  0  0  0  0  0  0  0  0  0
  -29.3738  -12.0018   20.8243 N   0  0  0  0  0  0  0  0  0  0  0  0
  -24.1559  -15.2825   22.3415 N   0  0  0  0  0  0  0  0  0  0  0  0
  -29.1276  -25.6343   22.7680 N   0  0  0  0  0  0  0  0  0  0  0  0
  -26.5886  -13.1628   24.3903 N   0  0  0  0  0  0  0  0  0  0  0  0
  -25.5077  -15.4694   20.4054 N   0  0  0  0  0  0  0  0  0  0  0  0
  -22.6668  -18.9605   20.0336 N   0  0  0  0  0  0  0  0  0  0  0  0
  -26.3107  -27.3863   21.4545 N   0  0  0  0  0  0  0  0  0  0  0  0
  -31.8805  -26.1141   24.6785 N   0  0  0  0  0  0  0  0  0  0  0  0
  -28.7317  -13.5597   23.4720 N   0  0  0  0  0  0  0  0  0  0  0  0
  -32.7675  -23.3702   26.8584 N   0  3  0  0  0  0  0  0  0  0  0  0
  -24.4126  -17.8652   19.0278 O   0  0  0  0  0  0  0  0  0  0  0  0
  -28.1124  -26.3310   20.4237 O   0  0  0  0  0  0  0  0  0  0  0  0
  -29.4038  -27.4666   24.1833 O   0  0  0  0  0  0  0  0  0  0  0  0
  -32.6395  -23.9958   24.1182 O   0  0  0  0  0  0  0  0  0  0  0  0
  -28.3450  -11.6897   24.7411 O   0  0  0  0  0  0  0  0  0  0  0  0
  -18.6323  -20.3205   23.6264 O   0  0  0  0  0  0  0  0  0  0  0  0
  -29.0653  -20.3173   19.6411 O   0  0  0  0  0  0  0  0  0  1  0  0
  -19.5038  -25.7455   23.1636 F   0  0  0  0  0  0  0  0  0  0  0  0
  -18.4539  -21.9788   25.8311 F   0  0  0  0  0  0  0  0  0  0  0  0
  1  2  1  0  0  0  0
  1  5  2  0  0  0  0
  2  6  2  0  0  0  0
  3  8  2  0  0  0  0
  3 16  1  0  0  0  0
  4  9  1  0  0  0  0
  4 16  2  0  0  0  0
  5 18  1  0  0  0  0
  6 20  1  0  0  0  0
  7 10  2  0  0  0  0
  7 19  1  0  0  0  0
  8 24  1  0  0  0  0
  9 24  2  0  0  0  0
 10 25  1  0  0  0  0
 11 12  2  0  0  0  0
 11 26  1  0  0  0  0
 12 27  1  0  0  0  0
 13 21  1  0  0  0  0
 13 25  2  0  0  0  0
 14 22  1  0  0  0  0
 14 23  2  0  0  0  0
 15 27  2  0  0  0  0
 15 28  1  0  0  0  0
 16 29  1  0  0  0  0
 17 29  1  0  0  0  0
 17 32  2  0  0  0  0
 17 33  1  0  0  0  0
 18 20  2  0  0  0  0
 18 38  1  0  0  0  0
 19 21  2  0  0  0  0
 19 39  1  0  0  0  0
 20 47  1  0  0  0  0
 21 40  1  0  0  0  0
 22 30  2  0  0  0  0
 22 57  1  0  0  0  0
 23 31  1  0  0  0  0
 23 58  1  0  0  0  0
 24 83  1  0  0  0  0
 25 84  1  0  0  0  0
 26 28  2  0  0  0  0
 26 83  1  0  0  0  0
 27 85  1  0  0  0  0
 28 86  1  0  0  0  0
 29 67  2  0  0  0  0
 30 50  1  0  0  0  0
 30 68  1  0  0  0  0
 31 59  1  0  0  0  0
 31 68  2  0  0  0  0
 32 69  1  0  0  0  0
 32 72  1  0  0  0  0
 33 73  1  0  0  0  0
 33 78  2  0  0  0  0
 34 48  1  0  0  0  0
 34 74  1  0  0  0  0
 34 79  2  0  0  0  0
 35 64  1  0  0  0  0
 35 70  1  0  0  0  0
 35 80  2  0  0  0  0
 36 65  1  0  0  0  0
 36 75  1  0  0  0  0
 36 81  2  0  0  0  0
 37 71  1  0  0  0  0
 37 76  1  0  0  0  0
 37 82  2  0  0  0  0
 38 41  1  0  0  0  0
 39 48  1  0  0  0  0
 40 70  1  0  0  0  0
 41 43  1  0  0  0  0
 42 44  1  0  0  0  0
 42 45  1  0  0  0  0
 43 47  1  0  0  0  0
 44 49  1  0  0  0  0
 45 71  1  0  0  0  0
 46 49  1  0  0  0  0
 46 71  1  0  0  0  0
 47 74  1  0  0  0  0
 48 70  1  0  0  0  0
 49 69  1  0  0  0  0
 51 57  1  0  0  0  0
 52 65  1  0  0  0  0
 53 66  1  0  0  0  0
 54 66  1  0  0  0  0
 55 66  1  0  0  0  0
 56 77  1  0  0  0  0
 58 60  1  0  0  0  0
 59 62  1  0  0  0  0
 60 61  1  0  0  0  0
 61 63  1  0  0  0  0
 62 76  1  0  0  0  0
 63 84  1  0  0  0  0
 64 66  1  0  0  0  0
 64 75  1  0  0  0  0
 65 77  1  0  0  0  0
 67 69  1  0  0  0  0
M  CHG  1  77   1
M  ISO  4  37 100  63 101  76 100  84 101
M  END
> <Batch ID>
0082

> <Smiles>
CCc1cc(CCC[101CH2:1][101O:1]c2ccc3c(c2)CN(C(=O)C(NC(=O)C(C)NC)C(C)(C)C)C(C(=O)NC2CCCc4ccccc42)C3)c(CC[100NH:0][100C:0](=O)N2CCCC(n3nc(-c4ccc(Oc5ccc(F)cc5F)cc4)c(C(N)=O)c3N)C2)nc1C

> <Shape>
0.166

> <Color>
0.095

> <Negative vol penalty>
0.000

$$$$

  -OEChem-04052318493D

 88 96  0     1  0  0  0  0  0999 V2000
  -35.2176  -12.6523   18.7961 C   0  0  0  0  0  0  0  0  0  0  0  0
  -34.4022  -13.7748   18.6921 C   0  0  0  0  0  0  0  0  0  0  0  0
  -24.7851  -30.0569   19.6938 C   0  0  0  0  0  0  0  0  0  0  0  0
  -24.5900  -29.1541   21.9263 C   0  0  0  0  0  0  0  0  0  0  0  0
  -34.6769  -11.3801   18.6144 C   0  0  0  0  0  0  0  0  0  0  0  0
  -33.0458  -13.6256   18.4051 C   0  0  0  0  0  0  0  0  0  0  0  0
  -30.1098  -16.5356   21.3304 C   0  0  0  0  0  0  0  0  0  0  0  0
  -24.5327  -31.3361   20.1890 C   0  0  0  0  0  0  0  0  0  0  0  0
  -24.3376  -30.4334   22.4215 C   0  0  0  0  0  0  0  0  0  0  0  0
  -30.0235  -17.8876   21.0010 C   0  0  0  0  0  0  0  0  0  0  0  0
  -23.9989  -33.5120   24.3257 C   0  0  0  0  0  0  0  0  0  0  0  0
  -24.6656  -33.9018   25.4871 C   0  0  0  0  0  0  0  0  0  0  0  0
  -27.9067  -17.4822   19.9175 C   0  0  0  0  0  0  0  0  0  0  0  0
  -23.4821  -21.0973   23.7725 C   0  0  0  0  0  0  0  0  0  0  0  0
  -26.7872  -33.5853   24.3755 C   0  0  0  0  0  0  0  0  0  0  0  0
  -24.4777  -20.4505   21.8593 C   0  0  0  0  0  0  0  0  0  0  0  0
  -24.8137  -28.9658   20.5624 C   0  0  0  0  0  0  0  0  0  0  0  0
  -26.3273  -27.0192   19.9085 C   0  0  0  0  0  0  0  0  0  0  0  0
  -33.3112  -11.2148   18.3346 C   0  0  0  0  0  0  0  0  0  0  0  0
  -29.0988  -15.6433   20.9456 C   0  0  0  0  0  0  0  0  0  0  0  0
  -32.4866  -12.3501   18.2181 C   0  0  0  0  0  0  0  0  0  0  0  0
  -27.9813  -16.1199   20.2454 C   0  0  0  0  0  0  0  0  0  0  0  0
  -23.2565  -20.5390   22.4901 C   0  0  0  0  0  0  0  0  0  0  0  0
  -24.3090  -31.5245   21.5528 C   0  0  0  0  0  0  0  0  0  0  0  0
  -28.9232  -18.3606   20.2920 C   0  0  0  0  0  0  0  0  0  0  0  0
  -24.7263  -33.1587   23.1891 C   0  0  0  0  0  0  0  0  0  0  0  0
  -26.0598  -33.9385   25.5121 C   0  0  0  0  0  0  0  0  0  0  0  0
  -26.1204  -33.1954   23.2140 C   0  0  0  0  0  0  0  0  0  0  0  0
  -25.0739  -27.6440   20.0514 C   0  0  0  0  0  0  0  0  0  0  0  0
  -24.8344  -21.3332   23.8862 C   0  0  0  0  0  0  0  0  0  0  0  0
  -26.0372  -25.7833   19.3843 C   0  0  0  0  0  0  0  0  0  0  0  0
  -27.6368  -27.5120   20.2217 C   0  0  0  0  0  0  0  0  0  0  0  0
  -28.9677  -13.0682   19.0868 C   0  0  0  0  0  0  0  0  0  0  0  0
  -25.9289  -12.8927   20.2081 C   0  0  0  0  0  0  0  0  0  0  0  0
  -23.2413  -14.5054   21.5581 C   0  0  0  0  0  0  0  0  0  0  0  0
  -21.1535  -22.3236   19.5607 C   0  0  0  0  0  0  0  0  0  0  0  0
  -32.7818   -9.8223   18.0994 C   0  0  0  0  0  0  0  0  0  0  0  0
  -29.1940  -14.1927   21.3318 C   0  0  0  0  0  0  0  0  0  0  0  0
  -26.8592  -15.2067   19.8266 C   0  0  0  0  0  0  0  0  0  0  0  0
  -31.2596   -9.7296   18.1687 C   0  0  0  0  0  0  0  0  0  0  0  0
  -22.8138  -23.5367   16.6541 C   0  0  0  0  0  0  0  0  0  0  0  0
  -30.6191  -10.8568   17.3649 C   0  0  0  0  0  0  0  0  0  0  0  0
  -23.6944  -24.6705   17.1823 C   0  0  0  0  0  0  0  0  0  0  0  0
  -21.4769  -23.4711   17.3893 C   0  0  0  0  0  0  0  0  0  0  0  0
  -22.4619  -24.5269   19.3866 C   0  0  0  0  0  0  0  0  0  0  0  0
  -31.0055  -12.2278   17.9326 C   0  0  1  0  0  0  0  0  0  0  0  0
  -28.3546  -13.2812   20.4419 C   0  0  1  0  0  0  0  0  0  0  0  0
  -23.8434  -24.5978   18.7139 C   0  0  2  0  0  0  0  0  0  0  0  0
  -21.3026  -18.9751   22.7368 C   0  0  0  0  0  0  0  0  0  0  0  0
  -20.8874  -14.1048   22.3303 C   0  0  0  0  0  0  0  0  0  0  0  0
  -29.4154  -22.9470   21.7833 C   0  0  0  0  0  0  0  0  0  0  0  0
  -24.6830  -22.2700   26.2197 C   0  0  0  0  0  0  0  0  0  0  0  0
  -26.3582  -23.2107   24.5934 C   0  0  0  0  0  0  0  0  0  0  0  0
  -26.7179  -20.9742   25.6181 C   0  0  0  0  0  0  0  0  0  0  0  0
  -24.9965  -12.7900   17.3046 C   0  0  0  0  0  0  0  0  0  0  0  0
  -22.6884  -13.3465   18.0991 C   0  0  0  0  0  0  0  0  0  0  0  0
  -23.7867  -11.2344   18.8445 C   0  0  0  0  0  0  0  0  0  0  0  0
  -23.8842  -15.3366   24.3249 C   0  0  0  0  0  0  0  0  0  0  0  0
  -27.2357  -21.8681   21.1736 C   0  0  0  0  0  0  0  0  0  0  0  0
  -26.9032  -21.0142   22.4051 C   0  0  0  0  0  0  0  0  0  0  0  0
  -20.9265  -21.2866   21.8040 C   0  0  0  0  0  0  0  0  0  0  0  0
  -29.4568  -20.6082   20.8573 C   0  0  0  0  0  0  0  0  0  1  0  0
  -21.9542  -20.1273   21.9322 C   0  0  1  0  0  0  0  0  0  0  0  0
  -24.5940  -13.4446   19.7695 C   0  0  1  0  0  0  0  0  0  0  0  0
  -22.3509  -14.1643   22.7394 C   0  0  2  0  0  0  0  0  0  0  0  0
  -28.7368  -21.9629   20.8219 C   0  0  2  0  0  0  0  0  0  0  0  0
  -25.6062  -21.9026   25.0102 C   0  0  0  0  0  0  0  0  0  0  0  0
  -24.0383  -12.7210   18.5105 C   0  0  0  0  0  0  0  0  0  0  0  0
  -24.0627  -26.8689   19.6501 N   0  0  0  0  0  0  0  0  0  0  0  0
  -25.4296  -20.9365   22.7173 N   0  0  0  0  0  0  0  0  0  0  0  0
  -24.6805  -25.7445   19.2499 N   0  0  0  0  0  0  0  0  0  0  0  0
  -27.0014  -13.7957   20.2222 N   0  0  0  0  0  0  0  0  0  0  0  0
  -21.6885  -23.4022   18.8372 N   0  0  0  0  0  0  0  0  0  0  0  0
  -26.8128  -24.7368   19.0297 N   0  0  0  0  0  0  0  0  0  0  0  0
  -27.7552  -28.8034   20.7534 N   0  0  0  0  0  0  0  0  0  0  0  0
  -30.2346  -12.5176   19.1227 N   0  0  0  0  0  0  0  0  0  0  0  0
  -23.7195  -13.3722   20.9350 N   0  0  0  0  0  0  0  0  0  0  0  0
  -21.4057  -22.3317   20.9271 N   0  0  0  0  0  0  0  0  0  0  0  0
  -22.4979  -15.1888   23.8117 N   0  3  0  0  0  0  0  0  0  0  0  0
  -28.6726  -26.8337   20.0203 O   0  0  0  0  0  0  0  0  0  0  0  0
  -28.3374  -13.3789   18.0829 O   0  0  0  0  0  0  0  0  0  0  0  0
  -26.0154  -11.7059   20.5332 O   0  0  0  0  0  0  0  0  0  0  0  0
  -23.4850  -15.6615   21.2196 O   0  0  0  0  0  0  0  0  0  0  0  0
  -20.5039  -21.4176   19.0276 O   0  0  0  0  0  0  0  0  0  0  0  0
  -24.0628  -32.7727   22.0365 O   0  0  0  0  0  0  0  0  0  0  0  0
  -28.8367  -19.6796   19.9687 O   0  0  0  0  0  0  0  0  0  1  0  0
  -26.6999  -34.3143   26.6270 F   0  0  0  0  0  0  0  0  0  0  0  0
  -26.8246  -32.8583   22.1248 F   0  0  0  0  0  0  0  0  0  0  0  0
  1  2  1  0  0  0  0
  1  5  2  0  0  0  0
  2  6  2  0  0  0  0
  3  8  2  0  0  0  0
  3 17  1  0  0  0  0
  4  9  1  0  0  0  0
  4 17  2  0  0  0  0
  5 19  1  0  0  0  0
  6 21  1  0  0  0  0
  7 10  2  0  0  0  0
  7 20  1  0  0  0  0
  8 24  1  0  0  0  0
  9 24  2  0  0  0  0
 10 25  1  0  0  0  0
 11 12  2  0  0  0  0
 11 26  1  0  0  0  0
 12 27  1  0  0  0  0
 13 22  1  0  0  0  0
 13 25  2  0  0  0  0
 14 23  1  0  0  0  0
 14 30  2  0  0  0  0
 15 27  2  0  0  0  0
 15 28  1  0  0  0  0
 16 23  2  0  0  0  0
 16 70  1  0  0  0  0
 17 29  1  0  0  0  0
 18 29  1  0  0  0  0
 18 31  2  0  0  0  0
 18 32  1  0  0  0  0
 19 21  2  0  0  0  0
 19 37  1  0  0  0  0
 20 22  2  0  0  0  0
 20 38  1  0  0  0  0
 21 46  1  0  0  0  0
 22 39  1  0  0  0  0
 23 63  1  0  0  0  0
 24 85  1  0  0  0  0
 25 86  1  0  0  0  0
 26 28  2  0  0  0  0
 26 85  1  0  0  0  0
 27 87  1  0  0  0  0
 28 88  1  0  0  0  0
 29 69  2  0  0  0  0
 30 67  1  0  0  0  0
 30 70  1  0  0  0  0
 31 71  1  0  0  0  0
 31 74  1  0  0  0  0
 32 75  1  0  0  0  0
 32 80  2  0  0  0  0
 33 47  1  0  0  0  0
 33 76  1  0  0  0  0
 33 81  2  0  0  0  0
 34 64  1  0  0  0  0
 34 72  1  0  0  0  0
 34 82  2  0  0  0  0
 35 65  1  0  0  0  0
 35 77  1  0  0  0  0
 35 83  2  0  0  0  0
 36 73  1  0  0  0  0
 36 78  1  0  0  0  0
 36 84  2  0  0  0  0
 37 40  1  0  0  0  0
 38 47  1  0  0  0  0
 39 72  1  0  0  0  0
 40 42  1  0  0  0  0
 41 43  1  0  0  0  0
 41 44  1  0  0  0  0
 42 46  1  0  0  0  0
 43 48  1  0  0  0  0
 44 73  1  0  0  0  0
 45 48  1  0  0  0  0
 45 73  1  0  0  0  0
 46 76  1  0  0  0  0
 47 72  1  0  0  0  0
 48 71  1  0  0  0  0
 49 63  1  0  0  0  0
 50 65  1  0  0  0  0
 51 66  1  0  0  0  0
 52 67  1  0  0  0  0
 53 67  1  0  0  0  0
 54 67  1  0  0  0  0
 55 68  1  0  0  0  0
 56 68  1  0  0  0  0
 57 68  1  0  0  0  0
 58 79  1  0  0  0  0
 59 60  1  0  0  0  0
 59 66  1  0  0  0  0
 60 70  1  0  0  0  0
 61 63  1  0  0  0  0
 61 78  1  0  0  0  0
 62 66  1  0  0  0  0
 62 86  1  0  0  0  0
 64 68  1  0  0  0  0
 64 77  1  0  0  0  0
 65 79  1  0  0  0  0
 69 71  1  0  0  0  0
M  CHG  1  79   1
M  ISO  4  36 100  62 101  78 100  86 101
M  END
> <Batch ID>
0082

> <Smiles>
CNC(C)C(=O)NC(C(=O)N1Cc2cc([101O:1][101CH2:1]C(C)CCn3cc(C(C)C[100NH:0][100C:0](=O)N4CCCC(n5nc(-c6ccc(Oc7ccc(F)cc7F)cc6)c(C(N)=O)c5N)C4)cc3C(C)(C)C)ccc2CC1C(=O)NC1CCCc2ccccc21)C(C)(C)C

> <Shape>
0.240

> <Color>
0.064

> <Negative vol penalty>
0.000

$$$$

  -OEChem-04052318493D

 86 94  0     1  0  0  0  0  0999 V2000
  -20.9512  -19.5582   18.0096 C   0  0  0  0  0  0  0  0  0  0  0  0
  -21.4461  -18.4076   17.4040 C   0  0  0  0  0  0  0  0  0  0  0  0
  -26.1999  -28.5279   18.9834 C   0  0  0  0  0  0  0  0  0  0  0  0
  -26.1255  -27.8231   21.2931 C   0  0  0  0  0  0  0  0  0  0  0  0
  -21.5428  -20.0399   19.1766 C   0  0  0  0  0  0  0  0  0  0  0  0
  -22.5336  -17.7387   17.9645 C   0  0  0  0  0  0  0  0  0  0  0  0
  -25.2158  -11.1467   18.7824 C   0  0  0  0  0  0  0  0  0  0  0  0
  -25.1733  -29.4398   19.2285 C   0  0  0  0  0  0  0  0  0  0  0  0
  -25.0988  -28.7349   21.5383 C   0  0  0  0  0  0  0  0  0  0  0  0
  -26.3933  -10.4297   18.5750 C   0  0  0  0  0  0  0  0  0  0  0  0
  -21.7631  -28.9289   21.0222 C   0  0  0  0  0  0  0  0  0  0  0  0
  -20.6678  -28.4875   21.7645 C   0  0  0  0  0  0  0  0  0  0  0  0
  -27.2849  -11.3093   20.6366 C   0  0  0  0  0  0  0  0  0  0  0  0
  -21.1149  -30.1792   23.4304 C   0  0  0  0  0  0  0  0  0  0  0  0
  -30.2436  -15.0123   18.3781 C   0  0  0  0  0  0  0  0  0  0  0  0
  -26.6760  -27.7195   20.0156 C   0  0  0  0  0  0  0  0  0  0  0  0
  -29.1208  -27.0042   19.8770 C   0  0  0  0  0  0  0  0  0  0  0  0
  -22.6321  -19.3711   19.7570 C   0  0  0  0  0  0  0  0  0  0  0  0
  -25.0680  -11.9604   19.9149 C   0  0  0  0  0  0  0  0  0  0  0  0
  -23.1413  -18.2127   19.1396 C   0  0  0  0  0  0  0  0  0  0  0  0
  -26.1035  -12.0337   20.8574 C   0  0  0  0  0  0  0  0  0  0  0  0
  -24.6227  -29.5433   20.5060 C   0  0  0  0  0  0  0  0  0  0  0  0
  -27.4292  -10.5131   19.5007 C   0  0  0  0  0  0  0  0  0  0  0  0
  -22.5344  -29.9955   21.4841 C   0  0  0  0  0  0  0  0  0  0  0  0
  -20.3437  -29.1126   22.9686 C   0  0  0  0  0  0  0  0  0  0  0  0
  -22.2103  -30.6206   22.6881 C   0  0  0  0  0  0  0  0  0  0  0  0
  -27.7361  -26.7770   19.7629 C   0  0  0  0  0  0  0  0  0  0  0  0
  -31.0447  -14.0958   19.0229 C   0  0  0  0  0  0  0  0  0  0  0  0
  -31.8302  -15.7479   20.3953 C   0  0  0  0  0  0  0  0  0  0  0  0
  -31.0297  -16.6645   19.7499 C   0  0  0  0  0  0  0  0  0  0  0  0
  -29.6951  -25.8056   19.5306 C   0  0  0  0  0  0  0  0  0  0  0  0
  -29.8248  -28.1924   20.2619 C   0  0  0  0  0  0  0  0  0  0  0  0
  -24.6197  -15.0697   20.4000 C   0  0  0  0  0  0  0  0  0  0  0  0
  -29.8756  -20.3282   20.0235 C   0  0  0  0  0  0  0  0  0  0  0  0
  -24.3094  -14.1453   23.4938 C   0  0  0  0  0  0  0  0  0  0  0  0
  -25.0016  -11.8384   25.9116 C   0  0  0  0  0  0  0  0  0  0  0  0
  -23.2685  -19.9564   20.9928 C   0  0  0  0  0  0  0  0  0  0  0  0
  -23.7811  -12.7066   20.1375 C   0  0  0  0  0  0  0  0  0  0  0  0
  -25.9868  -12.8770   22.0998 C   0  0  0  0  0  0  0  0  0  0  0  0
  -24.1800  -18.9786   21.7298 C   0  0  0  0  0  0  0  0  0  0  0  0
  -27.6942  -21.6668   17.4396 C   0  0  0  0  0  0  0  0  0  0  0  0
  -25.1053  -18.2674   20.7475 C   0  0  0  0  0  0  0  0  0  0  0  0
  -27.6034  -23.1366   17.8475 C   0  0  0  0  0  0  0  0  0  0  0  0
  -27.7737  -20.7501   18.6576 C   0  0  0  0  0  0  0  0  0  0  0  0
  -28.8002  -22.5562   20.0025 C   0  0  0  0  0  0  0  0  0  0  0  0
  -24.3037  -17.4453   19.7311 C   0  0  1  0  0  0  0  0  0  0  0  0
  -23.9394  -13.9070   21.0656 C   0  0  1  0  0  0  0  0  0  0  0  0
  -28.7489  -23.5162   18.8022 C   0  0  2  0  0  0  0  0  0  0  0  0
  -32.7186  -16.1497   21.5227 C   0  0  0  0  0  0  0  0  0  0  0  0
  -30.4376   -8.1299   17.8278 C   0  0  0  0  0  0  0  0  0  0  0  0
  -24.6464  -11.3758   28.3524 C   0  0  0  0  0  0  0  0  0  0  0  0
  -30.4689  -11.4849   20.7817 C   0  0  0  0  0  0  0  0  0  0  0  0
  -26.4493  -16.2049   24.1930 C   0  0  0  0  0  0  0  0  0  0  0  0
  -26.7284  -15.0618   26.4029 C   0  0  0  0  0  0  0  0  0  0  0  0
  -24.5393  -16.0970   25.8038 C   0  0  0  0  0  0  0  0  0  0  0  0
  -29.0318  -10.7959   17.1863 C   0  0  0  0  0  0  0  0  0  0  0  0
  -23.5152   -9.3435   25.3413 C   0  0  0  0  0  0  0  0  0  0  0  0
  -31.0437  -12.6445   18.5998 C   0  0  0  0  0  0  0  0  0  0  0  0
  -31.0146  -18.1006   20.1492 C   0  0  0  0  0  0  0  0  0  0  0  0
  -29.8425  -18.8944   19.5576 C   0  0  0  0  0  0  0  0  0  0  0  0
  -30.7963   -9.4737   18.4576 C   0  0  0  0  0  0  0  0  0  0  0  0
  -25.2566  -13.9621   24.6549 C   0  0  1  0  0  0  0  0  0  0  0  0
  -24.1156  -11.1636   26.9431 C   0  0  2  0  0  0  0  0  0  0  0  0
  -29.9987  -11.7776   19.3439 C   0  0  1  0  0  0  0  0  0  0  0  0
  -25.7466  -15.3170   25.2394 C   0  0  0  0  0  0  0  0  0  0  0  0
  -29.6171  -10.4678   18.5697 C   0  0  1  0  0  0  0  0  0  1  0  0
  -30.2218  -16.3132   18.7300 N   0  0  0  0  0  0  0  0  0  0  0  0
  -27.4482  -25.5320   19.3742 N   0  0  0  0  0  0  0  0  0  0  0  0
  -31.8523  -14.4471   20.0431 N   0  0  0  0  0  0  0  0  0  0  0  0
  -28.6599  -24.9662   19.2410 N   0  0  0  0  0  0  0  0  0  0  0  0
  -24.7115  -13.5927   22.2695 N   0  0  0  0  0  0  0  0  0  0  0  0
  -28.8595  -21.1616   19.5554 N   0  0  0  0  0  0  0  0  0  0  0  0
  -30.9796  -25.3984   19.4485 N   0  0  0  0  0  0  0  0  0  0  0  0
  -29.0803  -29.3349   20.5858 N   0  0  0  0  0  0  0  0  0  0  0  0
  -23.8435  -16.2108   20.3300 N   0  0  0  0  0  0  0  0  0  0  0  0
  -24.5634  -13.1122   25.6170 N   0  0  0  0  0  0  0  0  0  0  0  0
  -24.0429   -9.6978   26.6841 N   0  3  0  0  0  0  0  0  0  0  0  0
  -31.0775  -28.2445   20.3011 O   0  0  0  0  0  0  0  0  0  0  0  0
  -25.7645  -14.9414   19.9822 O   0  0  0  0  0  0  0  0  0  0  0  0
  -30.7797  -20.6951   20.7785 O   0  0  0  0  0  0  0  0  0  0  0  0
  -23.2485  -14.7500   23.6683 O   0  0  0  0  0  0  0  0  0  0  0  0
  -25.9862  -11.2918   25.4194 O   0  0  0  0  0  0  0  0  0  0  0  0
  -23.6211  -30.4331   20.7456 O   0  0  0  0  0  0  0  0  0  0  0  0
  -28.5799   -9.8148   19.3004 O   0  0  0  0  0  0  0  0  0  1  0  0
  -19.2909  -28.6895   23.6805 F   0  0  0  0  0  0  0  0  0  0  0  0
  -22.9468  -31.6465   23.1364 F   0  0  0  0  0  0  0  0  0  0  0  0
  1  2  1  0  0  0  0
  1  5  2  0  0  0  0
  2  6  2  0  0  0  0
  3  8  2  0  0  0  0
  3 16  1  0  0  0  0
  4  9  1  0  0  0  0
  4 16  2  0  0  0  0
  5 18  1  0  0  0  0
  6 20  1  0  0  0  0
  7 10  2  0  0  0  0
  7 19  1  0  0  0  0
  8 22  1  0  0  0  0
  9 22  2  0  0  0  0
 10 23  1  0  0  0  0
 11 12  2  0  0  0  0
 11 24  1  0  0  0  0
 12 25  1  0  0  0  0
 13 21  1  0  0  0  0
 13 23  2  0  0  0  0
 14 25  2  0  0  0  0
 14 26  1  0  0  0  0
 15 28  1  0  0  0  0
 15 67  2  0  0  0  0
 16 27  1  0  0  0  0
 17 27  1  0  0  0  0
 17 31  2  0  0  0  0
 17 32  1  0  0  0  0
 18 20  2  0  0  0  0
 18 37  1  0  0  0  0
 19 21  2  0  0  0  0
 19 38  1  0  0  0  0
 20 46  1  0  0  0  0
 21 39  1  0  0  0  0
 22 83  1  0  0  0  0
 23 84  1  0  0  0  0
 24 26  2  0  0  0  0
 24 83  1  0  0  0  0
 25 85  1  0  0  0  0
 26 86  1  0  0  0  0
 27 68  2  0  0  0  0
 28 58  1  0  0  0  0
 28 69  2  0  0  0  0
 29 30  2  0  0  0  0
 29 49  1  0  0  0  0
 29 69  1  0  0  0  0
 30 59  1  0  0  0  0
 30 67  1  0  0  0  0
 31 70  1  0  0  0  0
 31 73  1  0  0  0  0
 32 74  1  0  0  0  0
 32 78  2  0  0  0  0
 33 47  1  0  0  0  0
 33 75  1  0  0  0  0
 33 79  2  0  0  0  0
 34 60  1  0  0  0  0
 34 72  1  0  0  0  0
 34 80  2  0  0  0  0
 35 62  1  0  0  0  0
 35 71  1  0  0  0  0
 35 81  2  0  0  0  0
 36 63  1  0  0  0  0
 36 76  1  0  0  0  0
 36 82  2  0  0  0  0
 37 40  1  0  0  0  0
 38 47  1  0  0  0  0
 39 71  1  0  0  0  0
 40 42  1  0  0  0  0
 41 43  1  0  0  0  0
 41 44  1  0  0  0  0
 42 46  1  0  0  0  0
 43 48  1  0  0  0  0
 44 72  1  0  0  0  0
 45 48  1  0  0  0  0
 45 72  1  0  0  0  0
 46 75  1  0  0  0  0
 47 71  1  0  0  0  0
 48 70  1  0  0  0  0
 50 61  1  0  0  0  0
 51 63  1  0  0  0  0
 52 64  1  0  0  0  0
 53 65  1  0  0  0  0
 54 65  1  0  0  0  0
 55 65  1  0  0  0  0
 56 66  1  0  0  0  0
 57 77  1  0  0  0  0
 58 64  1  0  0  0  0
 59 60  1  0  0  0  0
 61 66  1  0  0  0  0
 62 65  1  0  0  0  0
 62 76  1  0  0  0  0
 63 77  1  0  0  0  0
 64 66  1  0  0  0  0
 66 84  1  0  0  0  0
 68 70  1  0  0  0  0
M  CHG  1  77   1
M  ISO  4  34 100  60 100  66 101  84 101
M  END
> <Batch ID>
0082

> <Smiles>
CC[101C:1](C)(C(C)Cc1cnc(C[100CH2:0][100C:0](=O)N2CCCC(n3nc(-c4ccc(Oc5ccc(F)cc5F)cc4)c(C(N)=O)c3N)C2)c(C)n1)[101O:1]c1ccc2c(c1)CN(C(=O)C(NC(=O)C(C)NC)C(C)(C)C)C(C(=O)NC1CCCc3ccccc31)C2

> <Shape>
0.235

> <Color>
0.081

> <Negative vol penalty>
0.000

$$$$

  -OEChem-04052318493D

 86 94  0     1  0  0  0  0  0999 V2000
  -18.7291  -26.5785   23.0952 C   0  0  0  0  0  0  0  0  0  0  0  0
  -18.9517  -26.6421   21.7244 C   0  0  0  0  0  0  0  0  0  0  0  0
  -26.2325  -18.7323   20.5209 C   0  0  0  0  0  0  0  0  0  0  0  0
  -28.1612  -17.2772   20.5276 C   0  0  0  0  0  0  0  0  0  0  0  0
  -19.3688  -27.4794   23.9439 C   0  0  0  0  0  0  0  0  0  0  0  0
  -19.8232  -27.5989   21.2029 C   0  0  0  0  0  0  0  0  0  0  0  0
  -27.3604  -28.9687   20.4471 C   0  0  0  0  0  0  0  0  0  0  0  0
  -25.4206  -17.6545   20.1676 C   0  0  0  0  0  0  0  0  0  0  0  0
  -27.3493  -16.1994   20.1744 C   0  0  0  0  0  0  0  0  0  0  0  0
  -28.4021  -28.6241   21.3072 C   0  0  0  0  0  0  0  0  0  0  0  0
  -25.1978  -14.0949   21.7115 C   0  0  0  0  0  0  0  0  0  0  0  0
  -25.3833  -12.8939   22.3963 C   0  0  0  0  0  0  0  0  0  0  0  0
  -27.4188  -26.4428   21.6144 C   0  0  0  0  0  0  0  0  0  0  0  0
  -31.8537  -25.3524   23.6834 C   0  0  0  0  0  0  0  0  0  0  0  0
  -25.9147  -11.7890   20.3145 C   0  0  0  0  0  0  0  0  0  0  0  0
  -27.6029  -18.5436   20.7008 C   0  0  0  0  0  0  0  0  0  0  0  0
  -28.7640  -20.0887   22.3658 C   0  0  0  0  0  0  0  0  0  0  0  0
  -20.2388  -28.4554   23.4306 C   0  0  0  0  0  0  0  0  0  0  0  0
  -26.3325  -28.0553   20.1722 C   0  0  0  0  0  0  0  0  0  0  0  0
  -20.4968  -28.5017   22.0454 C   0  0  0  0  0  0  0  0  0  0  0  0
  -26.3665  -26.7774   20.7484 C   0  0  0  0  0  0  0  0  0  0  0  0
  -30.5892  -25.5434   24.2121 C   0  0  0  0  0  0  0  0  0  0  0  0
  -25.9789  -16.3881   19.9944 C   0  0  0  0  0  0  0  0  0  0  0  0
  -28.4299  -27.3620   21.8932 C   0  0  0  0  0  0  0  0  0  0  0  0
  -25.3707  -14.1429   20.3282 C   0  0  0  0  0  0  0  0  0  0  0  0
  -25.7418  -11.7410   21.6978 C   0  0  0  0  0  0  0  0  0  0  0  0
  -25.7292  -12.9900   19.6297 C   0  0  0  0  0  0  0  0  0  0  0  0
  -28.4422  -19.6566   21.0652 C   0  0  0  0  0  0  0  0  0  0  0  0
  -32.9059  -25.2004   24.5639 C   0  0  0  0  0  0  0  0  0  0  0  0
  -30.4606  -25.5695   25.5863 C   0  0  0  0  0  0  0  0  0  0  0  0
  -29.5842  -21.1736   22.1741 C   0  0  0  0  0  0  0  0  0  0  0  0
  -28.3578  -19.5570   23.6338 C   0  0  0  0  0  0  0  0  0  0  0  0
  -23.1886  -28.0091   20.6386 C   0  0  0  0  0  0  0  0  0  0  0  0
  -23.3669  -25.2624   18.9221 C   0  0  0  0  0  0  0  0  0  0  0  0
  -25.2559  -22.6241   17.8650 C   0  0  0  0  0  0  0  0  0  0  0  0
  -33.8490  -23.6489   19.5606 C   0  0  0  0  0  0  0  0  0  0  0  0
  -20.9107  -29.4005   24.3952 C   0  0  0  0  0  0  0  0  0  0  0  0
  -25.2300  -28.4330   19.2213 C   0  0  0  0  0  0  0  0  0  0  0  0
  -25.2979  -25.7532   20.4699 C   0  0  0  0  0  0  0  0  0  0  0  0
  -21.4623  -30.6500   23.7164 C   0  0  0  0  0  0  0  0  0  0  0  0
  -30.6624  -23.7852   17.9784 C   0  0  0  0  0  0  0  0  0  0  0  0
  -22.2879  -30.2591   22.4998 C   0  0  0  0  0  0  0  0  0  0  0  0
  -29.8298  -22.7549   18.7434 C   0  0  0  0  0  0  0  0  0  0  0  0
  -32.1130  -23.3345   17.8217 C   0  0  0  0  0  0  0  0  0  0  0  0
  -31.9547  -21.9382   19.8463 C   0  0  0  0  0  0  0  0  0  0  0  0
  -21.4169  -29.5535   21.4526 C   0  0  1  0  0  0  0  0  0  0  0  0
  -23.9633  -27.6054   19.4161 C   0  0  1  0  0  0  0  0  0  0  0  0
  -30.4977  -22.3737   20.0782 C   0  0  2  0  0  0  0  0  0  0  0  0
  -29.1294  -25.7719   26.2275 C   0  0  0  0  0  0  0  0  0  0  0  0
  -25.1152  -20.5207   16.5036 C   0  0  0  0  0  0  0  0  0  0  0  0
  -34.9504  -22.8376   25.1928 C   0  0  0  0  0  0  0  0  0  0  0  0
  -21.8864  -23.8854   21.2073 C   0  0  0  0  0  0  0  0  0  0  0  0
  -22.6069  -21.6847   20.2553 C   0  0  0  0  0  0  0  0  0  0  0  0
  -21.1430  -23.2002   18.9199 C   0  0  0  0  0  0  0  0  0  0  0  0
  -37.1486  -23.9981   23.3182 C   0  0  0  0  0  0  0  0  0  0  0  0
  -36.2015  -21.7869   22.6836 C   0  0  0  0  0  0  0  0  0  0  0  0
  -27.3019  -23.5855   15.9548 C   0  0  0  0  0  0  0  0  0  0  0  0
  -29.4108  -25.7135   23.2990 C   0  0  0  0  0  0  0  0  0  1  0  0
  -34.2878  -24.9925   24.0459 C   0  0  0  0  0  0  0  0  0  0  0  0
  -35.5055  -23.8587   21.3967 C   0  0  0  0  0  0  0  0  0  0  0  0
  -23.5748  -23.8048   19.2557 C   0  0  1  0  0  0  0  0  0  0  0  0
  -25.4432  -22.0056   16.4913 C   0  0  2  0  0  0  0  0  0  0  0  0
  -34.6863  -23.4978   23.8254 C   0  0  1  0  0  0  0  0  0  0  0  0
  -22.3221  -23.1635   19.9165 C   0  0  0  0  0  0  0  0  0  0  0  0
  -35.8722  -23.2962   22.7949 C   0  0  0  0  0  0  0  0  0  0  0  0
  -29.0115  -20.4060   20.1173 N   0  0  0  0  0  0  0  0  0  0  0  0
  -32.7509  -25.2302   25.9045 N   0  0  0  0  0  0  0  0  0  0  0  0
  -31.5080  -25.4176   26.4241 N   0  0  0  0  0  0  0  0  0  0  0  0
  -29.6991  -21.3199   20.8229 N   0  0  0  0  0  0  0  0  0  0  0  0
  -24.2377  -26.1722   19.5383 N   0  0  0  0  0  0  0  0  0  0  0  0
  -32.6883  -22.9892   19.1239 N   0  0  0  0  0  0  0  0  0  0  0  0
  -30.2110  -22.0072   23.0311 N   0  0  0  0  0  0  0  0  0  0  0  0
  -27.5131  -18.4387   23.6497 N   0  0  0  0  0  0  0  0  0  0  0  0
  -22.2688  -29.0157   20.4149 N   0  0  0  0  0  0  0  0  0  0  0  0
  -23.9939  -23.1583   18.0168 N   0  0  0  0  0  0  0  0  0  0  0  0
  -34.3246  -23.2663   20.8089 N   0  0  0  0  0  0  0  0  0  0  0  0
  -26.8525  -22.1718   16.0361 N   0  3  0  0  0  0  0  0  0  0  0  0
  -28.7196  -20.0686   24.7205 O   0  0  0  0  0  0  0  0  0  0  0  0
  -23.4080  -27.4477   21.7056 O   0  0  0  0  0  0  0  0  0  0  0  0
  -22.4696  -25.5813   18.1380 O   0  0  0  0  0  0  0  0  0  0  0  0
  -26.1395  -22.6292   18.7192 O   0  0  0  0  0  0  0  0  0  0  0  0
  -34.4161  -24.5183   18.8903 O   0  0  0  0  0  0  0  0  0  0  0  0
  -25.1869  -15.3361   19.6499 O   0  0  0  0  0  0  0  0  0  0  0  0
  -29.4452  -27.0233   22.7336 O   0  0  0  0  0  0  0  0  0  1  0  0
  -25.9214  -10.5882   22.3557 F   0  0  0  0  0  0  0  0  0  0  0  0
  -25.8978  -13.0302   18.3009 F   0  0  0  0  0  0  0  0  0  0  0  0
  1  2  1  0  0  0  0
  1  5  2  0  0  0  0
  2  6  2  0  0  0  0
  3  8  2  0  0  0  0
  3 16  1  0  0  0  0
  4  9  1  0  0  0  0
  4 16  2  0  0  0  0
  5 18  1  0  0  0  0
  6 20  1  0  0  0  0
  7 10  2  0  0  0  0
  7 19  1  0  0  0  0
  8 23  1  0  0  0  0
  9 23  2  0  0  0  0
 10 24  1  0  0  0  0
 11 12  2  0  0  0  0
 11 25  1  0  0  0  0
 12 26  1  0  0  0  0
 13 21  1  0  0  0  0
 13 24  2  0  0  0  0
 14 22  1  0  0  0  0
 14 29  2  0  0  0  0
 15 26  2  0  0  0  0
 15 27  1  0  0  0  0
 16 28  1  0  0  0  0
 17 28  1  0  0  0  0
 17 31  2  0  0  0  0
 17 32  1  0  0  0  0
 18 20  2  0  0  0  0
 18 37  1  0  0  0  0
 19 21  2  0  0  0  0
 19 38  1  0  0  0  0
 20 46  1  0  0  0  0
 21 39  1  0  0  0  0
 22 30  2  0  0  0  0
 22 58  1  0  0  0  0
 23 83  1  0  0  0  0
 24 84  1  0  0  0  0
 25 27  2  0  0  0  0
 25 83  1  0  0  0  0
 26 85  1  0  0  0  0
 27 86  1  0  0  0  0
 28 66  2  0  0  0  0
 29 59  1  0  0  0  0
 29 67  1  0  0  0  0
 30 49  1  0  0  0  0
 30 68  1  0  0  0  0
 31 69  1  0  0  0  0
 31 72  1  0  0  0  0
 32 73  1  0  0  0  0
 32 78  2  0  0  0  0
 33 47  1  0  0  0  0
 33 74  1  0  0  0  0
 33 79  2  0  0  0  0
 34 61  1  0  0  0  0
 34 70  1  0  0  0  0
 34 80  2  0  0  0  0
 35 62  1  0  0  0  0
 35 75  1  0  0  0  0
 35 81  2  0  0  0  0
 36 71  1  0  0  0  0
 36 76  1  0  0  0  0
 36 82  2  0  0  0  0
 37 40  1  0  0  0  0
 38 47  1  0  0  0  0
 39 70  1  0  0  0  0
 40 42  1  0  0  0  0
 41 43  1  0  0  0  0
 41 44  1  0  0  0  0
 42 46  1  0  0  0  0
 43 48  1  0  0  0  0
 44 71  1  0  0  0  0
 45 48  1  0  0  0  0
 45 71  1  0  0  0  0
 46 74  1  0  0  0  0
 47 70  1  0  0  0  0
 48 69  1  0  0  0  0
 50 62  1  0  0  0  0
 51 63  1  0  0  0  0
 52 64  1  0  0  0  0
 53 64  1  0  0  0  0
 54 64  1  0  0  0  0
 55 65  1  0  0  0  0
 56 65  1  0  0  0  0
 57 77  1  0  0  0  0
 58 84  1  0  0  0  0
 59 63  1  0  0  0  0
 60 65  1  0  0  0  0
 60 76  1  0  0  0  0
 61 64  1  0  0  0  0
 61 75  1  0  0  0  0
 62 77  1  0  0  0  0
 63 65  1  0  0  0  0
 66 69  1  0  0  0  0
 67 68  2  0  0  0  0
M  CHG  1  77   1
M  ISO  4  36 100  58 101  76 100  84 101
M  END
> <Batch ID>
0082

> <Smiles>
CNC(C)C(=O)NC(C(=O)N1Cc2cc([101O:1][101CH2:1]c3cc(CC(C)C(C)(C)C[100NH:0][100C:0](=O)N4CCCC(n5nc(-c6ccc(Oc7ccc(F)cc7F)cc6)c(C(N)=O)c5N)C4)nnc3C)ccc2CC1C(=O)NC1CCCc2ccccc21)C(C)(C)C

> <Shape>
0.182

> <Color>
0.060

> <Negative vol penalty>
0.000

$$$$

  -OEChem-04052318493D

 84 92  0     1  0  0  0  0  0999 V2000
  -32.5200  -29.7456   15.9992 C   0  0  0  0  0  0  0  0  0  0  0  0
  -31.4828  -28.9377   16.4542 C   0  0  0  0  0  0  0  0  0  0  0  0
  -26.4566  -12.6469   21.6072 C   0  0  0  0  0  0  0  0  0  0  0  0
  -25.9889  -13.5432   19.4129 C   0  0  0  0  0  0  0  0  0  0  0  0
  -33.0543  -30.7275   16.8326 C   0  0  0  0  0  0  0  0  0  0  0  0
  -30.9800  -29.1106   17.7433 C   0  0  0  0  0  0  0  0  0  0  0  0
  -25.9180  -29.0559   17.8775 C   0  0  0  0  0  0  0  0  0  0  0  0
  -25.1881  -12.0678   21.6411 C   0  0  0  0  0  0  0  0  0  0  0  0
  -24.7204  -12.9641   19.4467 C   0  0  0  0  0  0  0  0  0  0  0  0
  -25.2926  -27.8118   17.8081 C   0  0  0  0  0  0  0  0  0  0  0  0
  -23.6613   -9.3374   20.3579 C   0  0  0  0  0  0  0  0  0  0  0  0
  -23.5625   -8.0181   20.8000 C   0  0  0  0  0  0  0  0  0  0  0  0
  -24.9872  -27.8387   20.2009 C   0  0  0  0  0  0  0  0  0  0  0  0
  -22.1087   -8.7282   22.5942 C   0  0  0  0  0  0  0  0  0  0  0  0
  -27.4494  -22.3158   18.9728 C   0  0  0  0  0  0  0  0  0  0  0  0
  -26.8570  -13.3846   20.4931 C   0  0  0  0  0  0  0  0  0  0  0  0
  -29.3534  -13.4049   19.9684 C   0  0  0  0  0  0  0  0  0  0  0  0
  -32.5512  -30.9189   18.1291 C   0  0  0  0  0  0  0  0  0  0  0  0
  -26.0927  -29.6969   19.1124 C   0  0  0  0  0  0  0  0  0  0  0  0
  -31.5089  -30.0951   18.5952 C   0  0  0  0  0  0  0  0  0  0  0  0
  -25.6128  -29.0921   20.2829 C   0  0  0  0  0  0  0  0  0  0  0  0
  -24.3200  -12.2264   20.5608 C   0  0  0  0  0  0  0  0  0  0  0  0
  -24.8297  -27.2016   18.9703 C   0  0  0  0  0  0  0  0  0  0  0  0
  -22.9838  -10.3521   21.0340 C   0  0  0  0  0  0  0  0  0  0  0  0
  -22.7862   -7.7136   21.9181 C   0  0  0  0  0  0  0  0  0  0  0  0
  -22.2075  -10.0475   22.1521 C   0  0  0  0  0  0  0  0  0  0  0  0
  -28.1671  -13.9835   20.4578 C   0  0  0  0  0  0  0  0  0  0  0  0
  -26.7465  -23.4290   19.3865 C   0  0  0  0  0  0  0  0  0  0  0  0
  -28.8099  -22.4909   18.8218 C   0  0  0  0  0  0  0  0  0  0  0  0
  -30.3106  -14.3714   20.1582 C   0  0  0  0  0  0  0  0  0  0  0  0
  -28.6506  -24.6688   19.4528 C   0  0  0  0  0  0  0  0  0  0  0  0
  -29.5707  -12.1095   19.3934 C   0  0  0  0  0  0  0  0  0  0  0  0
  -28.6062  -30.6356   20.8167 C   0  0  0  0  0  0  0  0  0  0  0  0
  -26.3329  -31.9487   22.7220 C   0  0  0  0  0  0  0  0  0  0  0  0
  -23.0956  -31.9341   23.8021 C   0  0  0  0  0  0  0  0  0  0  0  0
  -30.0483  -20.3359   20.6134 C   0  0  0  0  0  0  0  0  0  0  0  0
  -33.1927  -31.9616   19.0100 C   0  0  0  0  0  0  0  0  0  0  0  0
  -26.7454  -31.0509   19.1672 C   0  0  0  0  0  0  0  0  0  0  0  0
  -25.7575  -29.7478   21.6311 C   0  0  0  0  0  0  0  0  0  0  0  0
  -32.3514  -32.3298   20.2294 C   0  0  0  0  0  0  0  0  0  0  0  0
  -31.3912  -18.0635   23.0028 C   0  0  0  0  0  0  0  0  0  0  0  0
  -31.8282  -31.0724   20.9165 C   0  0  0  0  0  0  0  0  0  0  0  0
  -30.8242  -16.7080   22.5774 C   0  0  0  0  0  0  0  0  0  0  0  0
  -30.3840  -19.1903   22.7839 C   0  0  0  0  0  0  0  0  0  0  0  0
  -29.2684  -17.9183   20.9920 C   0  0  0  0  0  0  0  0  0  0  0  0
  -30.9199  -30.2685   19.9784 C   0  0  1  0  0  0  0  0  0  0  0  0
  -27.3296  -31.3776   20.5380 C   0  0  1  0  0  0  0  0  0  0  0  0
  -30.2678  -16.7585   21.1417 C   0  0  2  0  0  0  0  0  0  0  0  0
  -29.3188  -25.9744   19.7226 C   0  0  0  0  0  0  0  0  0  0  0  0
  -21.5440  -33.1018   25.3915 C   0  0  0  0  0  0  0  0  0  0  0  0
  -31.1768  -21.6390   18.2382 C   0  0  0  0  0  0  0  0  0  0  0  0
  -29.1799  -20.8198   16.9939 C   0  0  0  0  0  0  0  0  0  0  0  0
  -27.6071  -30.4564   25.0585 C   0  0  0  0  0  0  0  0  0  0  0  0
  -25.5197  -30.8775   26.3752 C   0  0  0  0  0  0  0  0  0  0  0  0
  -26.8983  -32.7977   25.5782 C   0  0  0  0  0  0  0  0  0  0  0  0
  -21.3240  -32.8209   21.6035 C   0  0  0  0  0  0  0  0  0  0  0  0
  -25.2541  -23.3356   19.5805 C   0  0  0  0  0  0  0  0  0  0  0  0
  -24.4476  -23.6705   18.3239 C   0  0  0  0  0  0  0  0  0  0  0  0
  -24.6280  -25.1100   17.8565 C   0  0  0  0  0  0  0  0  0  1  0  0
  -25.5315  -31.4768   23.9111 C   0  0  1  0  0  0  0  0  0  0  0  0
  -22.0850  -33.0542   23.9710 C   0  0  2  0  0  0  0  0  0  0  0  0
  -29.6540  -21.3428   18.3795 C   0  0  0  0  0  0  0  0  0  0  0  0
  -26.3880  -31.3886   25.2058 C   0  0  0  0  0  0  0  0  0  0  0  0
  -28.3513  -15.2217   20.9237 N   0  0  0  0  0  0  0  0  0  0  0  0
  -27.3172  -24.6257   19.6365 N   0  0  0  0  0  0  0  0  0  0  0  0
  -29.4458  -23.6580   19.0537 N   0  0  0  0  0  0  0  0  0  0  0  0
  -29.6646  -15.4289   20.7280 N   0  0  0  0  0  0  0  0  0  0  0  0
  -26.4083  -31.0684   21.6334 N   0  0  0  0  0  0  0  0  0  0  0  0
  -29.8965  -19.1839   21.4026 N   0  0  0  0  0  0  0  0  0  0  0  0
  -31.6334  -14.4114   19.8918 N   0  0  0  0  0  0  0  0  0  0  0  0
  -28.4778  -11.2405   19.2722 N   0  0  0  0  0  0  0  0  0  0  0  0
  -29.6098  -30.8781   19.8983 N   0  0  0  0  0  0  0  0  0  0  0  0
  -24.3854  -32.3737   24.0129 N   0  0  0  0  0  0  0  0  0  0  0  0
  -29.5647  -20.2430   19.3141 N   0  0  0  0  0  0  0  0  0  0  0  0
  -20.9390  -32.8630   23.0378 N   0  3  0  0  0  0  0  0  0  0  0  0
  -30.7037  -11.7277   19.0140 O   0  0  0  0  0  0  0  0  0  0  0  0
  -28.6760  -29.8990   21.7935 O   0  0  0  0  0  0  0  0  0  0  0  0
  -26.8662  -33.0605   22.7550 O   0  0  0  0  0  0  0  0  0  0  0  0
  -22.7728  -30.7833   23.5157 O   0  0  0  0  0  0  0  0  0  0  0  0
  -30.5806  -21.3688   21.0337 O   0  0  0  0  0  0  0  0  0  0  0  0
  -23.0822  -11.6612   20.5934 O   0  0  0  0  0  0  0  0  0  0  0  0
  -24.2195  -25.9870   18.9055 O   0  0  0  0  0  0  0  0  0  1  0  0
  -22.6902   -6.4464   22.3416 F   0  0  0  0  0  0  0  0  0  0  0  0
  -21.5534  -11.0179   22.8050 F   0  0  0  0  0  0  0  0  0  0  0  0
  1  2  1  0  0  0  0
  1  5  2  0  0  0  0
  2  6  2  0  0  0  0
  3  8  2  0  0  0  0
  3 16  1  0  0  0  0
  4  9  1  0  0  0  0
  4 16  2  0  0  0  0
  5 18  1  0  0  0  0
  6 20  1  0  0  0  0
  7 10  2  0  0  0  0
  7 19  1  0  0  0  0
  8 22  1  0  0  0  0
  9 22  2  0  0  0  0
 10 23  1  0  0  0  0
 11 12  2  0  0  0  0
 11 24  1  0  0  0  0
 12 25  1  0  0  0  0
 13 21  1  0  0  0  0
 13 23  2  0  0  0  0
 14 25  2  0  0  0  0
 14 26  1  0  0  0  0
 15 28  1  0  0  0  0
 15 29  2  0  0  0  0
 16 27  1  0  0  0  0
 17 27  1  0  0  0  0
 17 30  2  0  0  0  0
 17 32  1  0  0  0  0
 18 20  2  0  0  0  0
 18 37  1  0  0  0  0
 19 21  2  0  0  0  0
 19 38  1  0  0  0  0
 20 46  1  0  0  0  0
 21 39  1  0  0  0  0
 22 81  1  0  0  0  0
 23 82  1  0  0  0  0
 24 26  2  0  0  0  0
 24 81  1  0  0  0  0
 25 83  1  0  0  0  0
 26 84  1  0  0  0  0
 27 64  2  0  0  0  0
 28 57  1  0  0  0  0
 28 65  2  0  0  0  0
 29 62  1  0  0  0  0
 29 66  1  0  0  0  0
 30 67  1  0  0  0  0
 30 70  1  0  0  0  0
 31 49  1  0  0  0  0
 31 65  1  0  0  0  0
 31 66  2  0  0  0  0
 32 71  1  0  0  0  0
 32 76  2  0  0  0  0
 33 47  1  0  0  0  0
 33 72  1  0  0  0  0
 33 77  2  0  0  0  0
 34 60  1  0  0  0  0
 34 68  1  0  0  0  0
 34 78  2  0  0  0  0
 35 61  1  0  0  0  0
 35 73  1  0  0  0  0
 35 79  2  0  0  0  0
 36 69  1  0  0  0  0
 36 74  1  0  0  0  0
 36 80  2  0  0  0  0
 37 40  1  0  0  0  0
 38 47  1  0  0  0  0
 39 68  1  0  0  0  0
 40 42  1  0  0  0  0
 41 43  1  0  0  0  0
 41 44  1  0  0  0  0
 42 46  1  0  0  0  0
 43 48  1  0  0  0  0
 44 69  1  0  0  0  0
 45 48  1  0  0  0  0
 45 69  1  0  0  0  0
 46 72  1  0  0  0  0
 47 68  1  0  0  0  0
 48 67  1  0  0  0  0
 50 61  1  0  0  0  0
 51 62  1  0  0  0  0
 52 62  1  0  0  0  0
 53 63  1  0  0  0  0
 54 63  1  0  0  0  0
 55 63  1  0  0  0  0
 56 75  1  0  0  0  0
 57 58  1  0  0  0  0
 58 59  1  0  0  0  0
 59 82  1  0  0  0  0
 60 63  1  0  0  0  0
 60 73  1  0  0  0  0
 61 75  1  0  0  0  0
 62 74  1  0  0  0  0
 64 67  1  0  0  0  0
M  CHG  1  75   1
M  ISO  4  36 100  59 101  74 100  82 101
M  END
> <Batch ID>
0082

> <Smiles>
CNC(C)C(=O)NC(C(=O)N1Cc2cc([101O:1][101CH2:1]CCc3cc(C(C)(C)[100NH:0][100C:0](=O)N4CCCC(n5nc(-c6ccc(Oc7ccc(F)cc7F)cc6)c(C(N)=O)c5N)C4)nc(C)n3)ccc2CC1C(=O)NC1CCCc2ccccc21)C(C)(C)C

> <Shape>
0.288

> <Color>
0.086

> <Negative vol penalty>
0.000

$$$$

  -OEChem-04052318493D

 86 94  0     1  0  0  0  0  0999 V2000
  -31.7612  -15.7490   20.0261 C   0  0  0  0  0  0  0  0  0  0  0  0
  -31.1320  -16.7168   20.8026 C   0  0  0  0  0  0  0  0  0  0  0  0
  -28.6187  -25.2371   18.9570 C   0  0  0  0  0  0  0  0  0  0  0  0
  -27.6919  -24.8714   21.1580 C   0  0  0  0  0  0  0  0  0  0  0  0
  -31.0232  -15.0096   19.1027 C   0  0  0  0  0  0  0  0  0  0  0  0
  -29.7645  -16.9465   20.6553 C   0  0  0  0  0  0  0  0  0  0  0  0
  -23.9853  -18.8543   24.4338 C   0  0  0  0  0  0  0  0  0  0  0  0
  -29.6685  -24.3684   19.2547 C   0  0  0  0  0  0  0  0  0  0  0  0
  -28.7418  -24.0026   21.4557 C   0  0  0  0  0  0  0  0  0  0  0  0
  -22.9404  -19.7771   24.4117 C   0  0  0  0  0  0  0  0  0  0  0  0
  -32.3974  -21.9672   19.3064 C   0  0  0  0  0  0  0  0  0  0  0  0
  -32.7542  -21.0262   18.3405 C   0  0  0  0  0  0  0  0  0  0  0  0
  -21.7517  -18.3844   22.8412 C   0  0  0  0  0  0  0  0  0  0  0  0
  -30.5305  -20.0864   18.4347 C   0  0  0  0  0  0  0  0  0  0  0  0
  -19.9260  -27.2967   23.8271 C   0  0  0  0  0  0  0  0  0  0  0  0
  -27.6304  -25.4887   19.9087 C   0  0  0  0  0  0  0  0  0  0  0  0
  -25.6010  -26.2558   18.5668 C   0  0  0  0  0  0  0  0  0  0  0  0
  -29.6442  -15.2237   18.9509 C   0  0  0  0  0  0  0  0  0  0  0  0
  -23.9260  -17.6930   23.6501 C   0  0  0  0  0  0  0  0  0  0  0  0
  -29.0077  -16.2102   19.7281 C   0  0  0  0  0  0  0  0  0  0  0  0
  -22.7960  -17.4472   22.8571 C   0  0  0  0  0  0  0  0  0  0  0  0
  -19.7740  -26.5612   22.6772 C   0  0  0  0  0  0  0  0  0  0  0  0
  -29.7301  -23.7511   20.5040 C   0  0  0  0  0  0  0  0  0  0  0  0
  -21.8247  -19.5436   23.6132 C   0  0  0  0  0  0  0  0  0  0  0  0
  -31.1072  -21.9677   19.8365 C   0  0  0  0  0  0  0  0  0  0  0  0
  -31.8207  -20.0859   17.9047 C   0  0  0  0  0  0  0  0  0  0  0  0
  -30.1737  -21.0273   19.4006 C   0  0  0  0  0  0  0  0  0  0  0  0
  -26.5459  -26.3865   19.6020 C   0  0  0  0  0  0  0  0  0  0  0  0
  -19.9983  -27.4833   21.6374 C   0  0  0  0  0  0  0  0  0  0  0  0
  -24.7910  -27.3570   18.7001 C   0  0  0  0  0  0  0  0  0  0  0  0
  -25.4672  -25.2305   17.5735 C   0  0  0  0  0  0  0  0  0  0  0  0
  -25.6614  -16.5037   21.2673 C   0  0  0  0  0  0  0  0  0  0  0  0
  -23.7155  -13.9367   21.6492 C   0  0  0  0  0  0  0  0  0  0  0  0
  -20.7221  -12.7057   22.7316 C   0  0  0  0  0  0  0  0  0  0  0  0
  -23.4300  -30.8788   23.3472 C   0  0  0  0  0  0  0  0  0  0  0  0
  -28.8974  -14.4326   17.9063 C   0  0  0  0  0  0  0  0  0  0  0  0
  -25.0494  -16.6944   23.7056 C   0  0  0  0  0  0  0  0  0  0  0  0
  -22.6744  -16.2059   22.0128 C   0  0  0  0  0  0  0  0  0  0  0  0
  -27.3811  -14.4772   18.0771 C   0  0  0  0  0  0  0  0  0  0  0  0
  -24.8523  -31.8856   20.2424 C   0  0  0  0  0  0  0  0  0  0  0  0
  -26.9137  -15.9080   18.3247 C   0  0  0  0  0  0  0  0  0  0  0  0
  -25.3624  -30.5786   19.6328 C   0  0  0  0  0  0  0  0  0  0  0  0
  -25.0287  -31.9075   21.7591 C   0  0  0  0  0  0  0  0  0  0  0  0
  -24.9548  -29.4461   21.8577 C   0  0  0  0  0  0  0  0  0  0  0  0
  -27.5214  -16.4714   19.6149 C   0  0  1  0  0  0  0  0  0  0  0  0
  -25.1121  -15.7965   22.4738 C   0  0  1  0  0  0  0  0  0  0  0  0
  -24.7470  -29.3540   20.3363 C   0  0  2  0  0  0  0  0  0  0  0  0
  -19.4044  -10.5749   22.8753 C   0  0  0  0  0  0  0  0  0  0  0  0
  -18.5578  -26.7173   19.7180 C   0  0  0  0  0  0  0  0  0  0  0  0
  -21.0113  -26.1556   19.7512 C   0  0  0  0  0  0  0  0  0  0  0  0
  -20.2576  -28.4745   19.2655 C   0  0  0  0  0  0  0  0  0  0  0  0
  -23.0873  -14.1270   18.6694 C   0  0  0  0  0  0  0  0  0  0  0  0
  -21.1089  -12.6441   19.0628 C   0  0  0  0  0  0  0  0  0  0  0  0
  -23.4103  -11.7978   19.5207 C   0  0  0  0  0  0  0  0  0  0  0  0
  -20.6206  -12.8316   25.6867 C   0  0  0  0  0  0  0  0  0  0  0  0
  -19.4409  -25.0946   22.5671 C   0  0  0  0  0  0  0  0  0  0  0  0
  -20.4508  -24.1763   23.2643 C   0  0  0  0  0  0  0  0  0  0  0  0
  -20.1384  -22.6910   23.0764 C   0  0  0  0  0  0  0  0  0  0  0  0
  -20.4674  -29.7017   24.2769 C   0  0  0  0  0  0  0  0  0  0  0  0
  -21.8705  -29.7022   24.8779 C   0  0  0  0  0  0  0  0  0  0  0  0
  -21.1385  -21.8117   23.8148 C   0  0  0  0  0  0  0  0  0  1  0  0
  -22.3863  -13.5080   21.0759 C   0  0  1  0  0  0  0  0  0  0  0  0
  -20.3791  -11.4998   23.5875 C   0  0  2  0  0  0  0  0  0  0  0  0
  -19.9611  -27.2342   20.1857 C   0  0  0  0  0  0  0  0  0  0  0  0
  -22.5011  -13.0437   19.5965 C   0  0  0  0  0  0  0  0  0  0  0  0
  -26.3553  -27.4843   20.3386 N   0  0  0  0  0  0  0  0  0  0  0  0
  -20.2718  -28.7110   22.0870 N   0  0  0  0  0  0  0  0  0  0  0  0
  -20.2203  -28.5653   23.4220 N   0  0  0  0  0  0  0  0  0  0  0  0
  -25.2812  -28.0534   19.7654 N   0  0  0  0  0  0  0  0  0  0  0  0
  -23.8018  -15.2628   22.0962 N   0  0  0  0  0  0  0  0  0  0  0  0
  -24.4217  -30.7201   22.3652 N   0  0  0  0  0  0  0  0  0  0  0  0
  -23.7145  -27.7878   18.0088 N   0  0  0  0  0  0  0  0  0  0  0  0
  -24.6661  -24.1181   17.8651 N   0  0  0  0  0  0  0  0  0  0  0  0
  -26.8257  -15.9488   20.7714 N   0  0  0  0  0  0  0  0  0  0  0  0
  -21.8595  -12.4929   21.9816 N   0  0  0  0  0  0  0  0  0  0  0  0
  -22.9027  -29.7022   23.8652 N   0  0  0  0  0  0  0  0  0  0  0  0
  -19.7609  -11.9351   24.8717 N   0  3  0  0  0  0  0  0  0  0  0  0
  -26.0543  -25.2910   16.4666 O   0  0  0  0  0  0  0  0  0  0  0  0
  -25.0717  -17.4797   20.8185 O   0  0  0  0  0  0  0  0  0  0  0  0
  -24.6407  -13.1228   21.7050 O   0  0  0  0  0  0  0  0  0  0  0  0
  -20.0465  -13.7324   22.7259 O   0  0  0  0  0  0  0  0  0  0  0  0
  -23.0394  -31.9869   23.7299 O   0  0  0  0  0  0  0  0  0  0  0  0
  -30.7542  -22.9031   20.7947 O   0  0  0  0  0  0  0  0  0  0  0  0
  -20.8037  -20.4430   23.5892 O   0  0  0  0  0  0  0  0  0  1  0  0
  -32.1631  -19.1833   16.9760 F   0  0  0  0  0  0  0  0  0  0  0  0
  -28.9323  -21.0237   19.9053 F   0  0  0  0  0  0  0  0  0  0  0  0
  1  2  1  0  0  0  0
  1  5  2  0  0  0  0
  2  6  2  0  0  0  0
  3  8  2  0  0  0  0
  3 16  1  0  0  0  0
  4  9  1  0  0  0  0
  4 16  2  0  0  0  0
  5 18  1  0  0  0  0
  6 20  1  0  0  0  0
  7 10  2  0  0  0  0
  7 19  1  0  0  0  0
  8 23  1  0  0  0  0
  9 23  2  0  0  0  0
 10 24  1  0  0  0  0
 11 12  2  0  0  0  0
 11 25  1  0  0  0  0
 12 26  1  0  0  0  0
 13 21  1  0  0  0  0
 13 24  2  0  0  0  0
 14 26  2  0  0  0  0
 14 27  1  0  0  0  0
 15 22  2  0  0  0  0
 15 68  1  0  0  0  0
 16 28  1  0  0  0  0
 17 28  1  0  0  0  0
 17 30  2  0  0  0  0
 17 31  1  0  0  0  0
 18 20  2  0  0  0  0
 18 36  1  0  0  0  0
 19 21  2  0  0  0  0
 19 37  1  0  0  0  0
 20 45  1  0  0  0  0
 21 38  1  0  0  0  0
 22 29  1  0  0  0  0
 22 56  1  0  0  0  0
 23 83  1  0  0  0  0
 24 84  1  0  0  0  0
 25 27  2  0  0  0  0
 25 83  1  0  0  0  0
 26 85  1  0  0  0  0
 27 86  1  0  0  0  0
 28 66  2  0  0  0  0
 29 64  1  0  0  0  0
 29 67  2  0  0  0  0
 30 69  1  0  0  0  0
 30 72  1  0  0  0  0
 31 73  1  0  0  0  0
 31 78  2  0  0  0  0
 32 46  1  0  0  0  0
 32 74  1  0  0  0  0
 32 79  2  0  0  0  0
 33 62  1  0  0  0  0
 33 70  1  0  0  0  0
 33 80  2  0  0  0  0
 34 63  1  0  0  0  0
 34 75  1  0  0  0  0
 34 81  2  0  0  0  0
 35 71  1  0  0  0  0
 35 76  1  0  0  0  0
 35 82  2  0  0  0  0
 36 39  1  0  0  0  0
 37 46  1  0  0  0  0
 38 70  1  0  0  0  0
 39 41  1  0  0  0  0
 40 42  1  0  0  0  0
 40 43  1  0  0  0  0
 41 45  1  0  0  0  0
 42 47  1  0  0  0  0
 43 71  1  0  0  0  0
 44 47  1  0  0  0  0
 44 71  1  0  0  0  0
 45 74  1  0  0  0  0
 46 70  1  0  0  0  0
 47 69  1  0  0  0  0
 48 63  1  0  0  0  0
 49 64  1  0  0  0  0
 50 64  1  0  0  0  0
 51 64  1  0  0  0  0
 52 65  1  0  0  0  0
 53 65  1  0  0  0  0
 54 65  1  0  0  0  0
 55 77  1  0  0  0  0
 56 57  1  0  0  0  0
 57 58  1  0  0  0  0
 58 61  1  0  0  0  0
 59 60  1  0  0  0  0
 59 68  1  0  0  0  0
 60 76  1  0  0  0  0
 61 84  1  0  0  0  0
 62 65  1  0  0  0  0
 62 75  1  0  0  0  0
 63 77  1  0  0  0  0
 66 69  1  0  0  0  0
 67 68  1  0  0  0  0
M  CHG  1  77   1
M  ISO  4  35 100  61 101  76 100  84 101
M  END
> <Batch ID>
0082

> <Smiles>
CNC(C)C(=O)NC(C(=O)N1Cc2cc([101O:1][101CH2:1]CCCc3cn(CC[100NH:0][100C:0](=O)N4CCCC(n5nc(-c6ccc(Oc7ccc(F)cc7F)cc6)c(C(N)=O)c5N)C4)nc3C(C)(C)C)ccc2CC1C(=O)NC1CCCc2ccccc21)C(C)(C)C

> <Shape>
0.214

> <Color>
0.061

> <Negative vol penalty>
0.000

$$$$

  -OEChem-04052318493D

 81 89  0     1  0  0  0  0  0999 V2000
  -17.4894  -27.6803   20.0337 C   0  0  0  0  0  0  0  0  0  0  0  0
  -18.7956  -27.5582   19.5706 C   0  0  0  0  0  0  0  0  0  0  0  0
  -26.2678  -12.5619   21.6665 C   0  0  0  0  0  0  0  0  0  0  0  0
  -25.7832  -13.6183   19.5484 C   0  0  0  0  0  0  0  0  0  0  0  0
  -17.2081  -28.5219   21.1092 C   0  0  0  0  0  0  0  0  0  0  0  0
  -19.8211  -28.2786   20.1820 C   0  0  0  0  0  0  0  0  0  0  0  0
  -23.9499  -25.4639   21.0040 C   0  0  0  0  0  0  0  0  0  0  0  0
  -25.0684  -11.8541   21.5879 C   0  0  0  0  0  0  0  0  0  0  0  0
  -24.5838  -12.9105   19.4698 C   0  0  0  0  0  0  0  0  0  0  0  0
  -24.7819  -25.2200   19.9122 C   0  0  0  0  0  0  0  0  0  0  0  0
  -23.8894   -9.1212   19.9835 C   0  0  0  0  0  0  0  0  0  0  0  0
  -23.9176   -7.7615   20.2932 C   0  0  0  0  0  0  0  0  0  0  0  0
  -26.2712  -26.9617   20.6657 C   0  0  0  0  0  0  0  0  0  0  0  0
  -28.9709  -22.9671   19.4437 C   0  0  0  0  0  0  0  0  0  0  0  0
  -22.3343   -8.1356   22.0794 C   0  0  0  0  0  0  0  0  0  0  0  0
  -28.2865  -22.6722   17.3190 C   0  0  0  0  0  0  0  0  0  0  0  0
  -26.6251  -13.4441   20.6468 C   0  0  0  0  0  0  0  0  0  0  0  0
  -29.1216  -13.7747   20.2395 C   0  0  0  0  0  0  0  0  0  0  0  0
  -18.2322  -29.2455   21.7402 C   0  0  0  0  0  0  0  0  0  0  0  0
  -24.2671  -26.4676   21.9305 C   0  0  0  0  0  0  0  0  0  0  0  0
  -19.5530  -29.1317   21.2660 C   0  0  0  0  0  0  0  0  0  0  0  0
  -25.4428  -27.2146   21.7698 C   0  0  0  0  0  0  0  0  0  0  0  0
  -28.7534  -23.6184   18.2045 C   0  0  0  0  0  0  0  0  0  0  0  0
  -24.2265  -12.0284   20.4895 C   0  0  0  0  0  0  0  0  0  0  0  0
  -25.9412  -25.9708   19.7414 C   0  0  0  0  0  0  0  0  0  0  0  0
  -23.0837   -9.9882   20.7217 C   0  0  0  0  0  0  0  0  0  0  0  0
  -23.1401   -7.2687   21.3412 C   0  0  0  0  0  0  0  0  0  0  0  0
  -22.3061   -9.4953   21.7696 C   0  0  0  0  0  0  0  0  0  0  0  0
  -27.8637  -14.1759   20.7277 C   0  0  0  0  0  0  0  0  0  0  0  0
  -28.6304  -21.6428   19.2777 C   0  0  0  0  0  0  0  0  0  0  0  0
  -29.9622  -14.8115   20.5634 C   0  0  0  0  0  0  0  0  0  0  0  0
  -29.4967  -12.5723   19.5545 C   0  0  0  0  0  0  0  0  0  0  0  0
  -22.8743  -29.1606   22.8851 C   0  0  0  0  0  0  0  0  0  0  0  0
  -25.2982  -29.1920   25.0405 C   0  0  0  0  0  0  0  0  0  0  0  0
  -28.4534  -28.1878   25.8670 C   0  0  0  0  0  0  0  0  0  0  0  0
  -29.0680  -20.6373   21.5457 C   0  0  0  0  0  0  0  0  0  0  0  0
  -17.8722  -30.1789   22.8689 C   0  0  0  0  0  0  0  0  0  0  0  0
  -23.3730  -26.7003   23.1174 C   0  0  0  0  0  0  0  0  0  0  0  0
  -25.8389  -28.2899   22.7472 C   0  0  0  0  0  0  0  0  0  0  0  0
  -19.0735  -30.6201   23.7011 C   0  0  0  0  0  0  0  0  0  0  0  0
  -30.5344  -18.2990   23.7950 C   0  0  0  0  0  0  0  0  0  0  0  0
  -20.2241  -31.0449   22.7941 C   0  0  0  0  0  0  0  0  0  0  0  0
  -30.1355  -16.9398   23.2159 C   0  0  0  0  0  0  0  0  0  0  0  0
  -29.4223  -19.3336   23.6314 C   0  0  0  0  0  0  0  0  0  0  0  0
  -28.5160  -18.1290   21.6829 C   0  0  0  0  0  0  0  0  0  0  0  0
  -20.6964  -29.8777   21.9189 C   0  0  1  0  0  0  0  0  0  0  0  0
  -23.5277  -28.0942   23.7178 C   0  0  1  0  0  0  0  0  0  0  0  0
  -29.6290  -17.0716   21.7662 C   0  0  2  0  0  0  0  0  0  0  0  0
  -30.1787  -28.4033   27.6765 C   0  0  0  0  0  0  0  0  0  0  0  0
  -28.6574  -25.5087   16.4448 C   0  0  0  0  0  0  0  0  0  0  0  0
  -30.4887  -25.4354   18.1237 C   0  0  0  0  0  0  0  0  0  0  0  0
  -25.9472  -32.0151   24.0820 C   0  0  0  0  0  0  0  0  0  0  0  0
  -28.1788  -31.8058   25.1975 C   0  0  0  0  0  0  0  0  0  0  0  0
  -26.0911  -31.6952   26.5582 C   0  0  0  0  0  0  0  0  0  0  0  0
  -27.7688  -20.2351   17.3858 C   0  0  0  0  0  0  0  0  0  0  0  0
  -28.4535  -25.2721   26.3747 C   0  0  0  0  0  0  0  0  0  0  0  0
  -28.1470  -25.9942   18.8525 C   0  0  0  0  0  0  0  0  0  1  0  0
  -26.7010  -29.7493   25.0638 C   0  0  1  0  0  0  0  0  0  0  0  0
  -29.0167  -27.5820   27.1399 C   0  0  2  0  0  0  0  0  0  0  0  0
  -28.9938  -25.1093   17.9017 C   0  0  0  0  0  0  0  0  0  0  0  0
  -26.7213  -31.2975   25.2057 C   0  0  0  0  0  0  0  0  0  0  0  0
  -27.8975  -15.3741   21.3170 N   0  0  0  0  0  0  0  0  0  0  0  0
  -28.2160  -21.4750   17.9822 N   0  0  0  0  0  0  0  0  0  0  0  0
  -29.1870  -15.7346   21.2013 N   0  0  0  0  0  0  0  0  0  0  0  0
  -24.9288  -28.4840   23.8881 N   0  0  0  0  0  0  0  0  0  0  0  0
  -28.9961  -19.4067   22.2321 N   0  0  0  0  0  0  0  0  0  0  0  0
  -31.2816  -15.0144   20.3619 N   0  0  0  0  0  0  0  0  0  0  0  0
  -28.5085  -11.6111   19.3020 N   0  0  0  0  0  0  0  0  0  0  0  0
  -28.6669  -20.5777   20.2115 N   0  0  0  0  0  0  0  0  0  0  0  0
  -21.5199  -28.9698   22.6884 N   0  0  0  0  0  0  0  0  0  0  0  0
  -27.4035  -29.0423   26.1292 N   0  0  0  0  0  0  0  0  0  0  0  0
  -29.4997  -26.1956   26.8842 N   0  3  0  0  0  0  0  0  0  0  0  0
  -30.6768  -12.3494   19.1919 O   0  0  0  0  0  0  0  0  0  0  0  0
  -23.5487  -30.0886   22.4543 O   0  0  0  0  0  0  0  0  0  0  0  0
  -24.5598  -29.3718   26.0122 O   0  0  0  0  0  0  0  0  0  0  0  0
  -28.9025  -27.9316   24.7520 O   0  0  0  0  0  0  0  0  0  0  0  0
  -29.4826  -21.6624   22.0930 O   0  0  0  0  0  0  0  0  0  0  0  0
  -23.0562  -11.3377   20.4124 O   0  0  0  0  0  0  0  0  0  0  0  0
  -26.7548  -25.7353   18.6762 O   0  0  0  0  0  0  0  0  0  1  0  0
  -23.1661   -5.9627   21.6375 F   0  0  0  0  0  0  0  0  0  0  0  0
  -21.5292  -10.3231   22.4816 F   0  0  0  0  0  0  0  0  0  0  0  0
  1  2  1  0  0  0  0
  1  5  2  0  0  0  0
  2  6  2  0  0  0  0
  3  8  2  0  0  0  0
  3 17  1  0  0  0  0
  4  9  1  0  0  0  0
  4 17  2  0  0  0  0
  5 19  1  0  0  0  0
  6 21  1  0  0  0  0
  7 10  2  0  0  0  0
  7 20  1  0  0  0  0
  8 24  1  0  0  0  0
  9 24  2  0  0  0  0
 10 25  1  0  0  0  0
 11 12  2  0  0  0  0
 11 26  1  0  0  0  0
 12 27  1  0  0  0  0
 13 22  1  0  0  0  0
 13 25  2  0  0  0  0
 14 23  1  0  0  0  0
 14 30  2  0  0  0  0
 15 27  2  0  0  0  0
 15 28  1  0  0  0  0
 16 23  2  0  0  0  0
 16 63  1  0  0  0  0
 17 29  1  0  0  0  0
 18 29  1  0  0  0  0
 18 31  2  0  0  0  0
 18 32  1  0  0  0  0
 19 21  2  0  0  0  0
 19 37  1  0  0  0  0
 20 22  2  0  0  0  0
 20 38  1  0  0  0  0
 21 46  1  0  0  0  0
 22 39  1  0  0  0  0
 23 60  1  0  0  0  0
 24 78  1  0  0  0  0
 25 79  1  0  0  0  0
 26 28  2  0  0  0  0
 26 78  1  0  0  0  0
 27 80  1  0  0  0  0
 28 81  1  0  0  0  0
 29 62  2  0  0  0  0
 30 63  1  0  0  0  0
 30 69  1  0  0  0  0
 31 64  1  0  0  0  0
 31 67  1  0  0  0  0
 32 68  1  0  0  0  0
 32 73  2  0  0  0  0
 33 47  1  0  0  0  0
 33 70  1  0  0  0  0
 33 74  2  0  0  0  0
 34 58  1  0  0  0  0
 34 65  1  0  0  0  0
 34 75  2  0  0  0  0
 35 59  1  0  0  0  0
 35 71  1  0  0  0  0
 35 76  2  0  0  0  0
 36 66  1  0  0  0  0
 36 69  1  0  0  0  0
 36 77  2  0  0  0  0
 37 40  1  0  0  0  0
 38 47  1  0  0  0  0
 39 65  1  0  0  0  0
 40 42  1  0  0  0  0
 41 43  1  0  0  0  0
 41 44  1  0  0  0  0
 42 46  1  0  0  0  0
 43 48  1  0  0  0  0
 44 66  1  0  0  0  0
 45 48  1  0  0  0  0
 45 66  1  0  0  0  0
 46 70  1  0  0  0  0
 47 65  1  0  0  0  0
 48 64  1  0  0  0  0
 49 59  1  0  0  0  0
 50 60  1  0  0  0  0
 51 60  1  0  0  0  0
 52 61  1  0  0  0  0
 53 61  1  0  0  0  0
 54 61  1  0  0  0  0
 55 63  1  0  0  0  0
 56 72  1  0  0  0  0
 57 60  1  0  0  0  0
 57 79  1  0  0  0  0
 58 61  1  0  0  0  0
 58 71  1  0  0  0  0
 59 72  1  0  0  0  0
 62 64  1  0  0  0  0
M  CHG  1  72   1
M  ISO  4  36 100  57 101  69 100  79 101
M  END
> <Batch ID>
0082

> <Smiles>
CNC(C)C(=O)NC(C(=O)N1Cc2cc([101O:1][101CH2:1]C(C)(C)c3cc([100NH:0][100C:0](=O)N4CCCC(n5nc(-c6ccc(Oc7ccc(F)cc7F)cc6)c(C(N)=O)c5N)C4)n(C)c3)ccc2CC1C(=O)NC1CCCc2ccccc21)C(C)(C)C

> <Shape>
0.295

> <Color>
0.080

> <Negative vol penalty>
0.000

$$$$

  -OEChem-04052318493D

 86 94  0     1  0  0  0  0  0999 V2000
  -33.8866  -30.5721   24.5009 C   0  0  0  0  0  0  0  0  0  0  0  0
  -33.5779  -29.2176   24.4282 C   0  0  0  0  0  0  0  0  0  0  0  0
  -23.0033   -9.8880   19.9849 C   0  0  0  0  0  0  0  0  0  0  0  0
  -23.7258   -9.9518   22.2894 C   0  0  0  0  0  0  0  0  0  0  0  0
  -32.8754  -31.5053   24.7257 C   0  0  0  0  0  0  0  0  0  0  0  0
  -32.2579  -28.7952   24.5814 C   0  0  0  0  0  0  0  0  0  0  0  0
  -29.5467  -24.0881   21.7534 C   0  0  0  0  0  0  0  0  0  0  0  0
  -22.2388   -8.7533   20.2559 C   0  0  0  0  0  0  0  0  0  0  0  0
  -22.9613   -8.8170   22.5605 C   0  0  0  0  0  0  0  0  0  0  0  0
  -29.2865  -22.7778   22.1525 C   0  0  0  0  0  0  0  0  0  0  0  0
  -23.2130   -5.4764   22.1052 C   0  0  0  0  0  0  0  0  0  0  0  0
  -23.8018   -4.4641   22.8630 C   0  0  0  0  0  0  0  0  0  0  0  0
  -27.0594  -23.4278   22.8135 C   0  0  0  0  0  0  0  0  0  0  0  0
  -27.0227  -17.5229   25.1710 C   0  0  0  0  0  0  0  0  0  0  0  0
  -22.0756   -4.7116   24.5351 C   0  0  0  0  0  0  0  0  0  0  0  0
  -23.7469  -10.4873   21.0016 C   0  0  0  0  0  0  0  0  0  0  0  0
  -24.1272  -13.0028   20.8137 C   0  0  0  0  0  0  0  0  0  0  0  0
  -31.5409  -31.0950   24.8721 C   0  0  0  0  0  0  0  0  0  0  0  0
  -28.5672  -25.0821   21.8917 C   0  0  0  0  0  0  0  0  0  0  0  0
  -31.2280  -29.7237   24.8098 C   0  0  0  0  0  0  0  0  0  0  0  0
  -27.3088  -24.7493   22.4130 C   0  0  0  0  0  0  0  0  0  0  0  0
  -27.4699  -18.8094   24.8910 C   0  0  0  0  0  0  0  0  0  0  0  0
  -28.3920  -19.0121   23.8703 C   0  0  0  0  0  0  0  0  0  0  0  0
  -22.2178   -8.2178   21.5437 C   0  0  0  0  0  0  0  0  0  0  0  0
  -28.0437  -22.4481   22.6853 C   0  0  0  0  0  0  0  0  0  0  0  0
  -22.0555   -6.1064   22.5624 C   0  0  0  0  0  0  0  0  0  0  0  0
  -23.2331   -4.0817   24.0779 C   0  0  0  0  0  0  0  0  0  0  0  0
  -21.4868   -5.7240   23.7773 C   0  0  0  0  0  0  0  0  0  0  0  0
  -24.5372  -11.6592   20.7221 C   0  0  0  0  0  0  0  0  0  0  0  0
  -27.5243  -16.4814   24.4072 C   0  0  0  0  0  0  0  0  0  0  0  0
  -28.8325  -17.9039   23.1649 C   0  0  0  0  0  0  0  0  0  0  0  0
  -25.2359  -13.7258   20.4470 C   0  0  0  0  0  0  0  0  0  0  0  0
  -22.8577  -13.5485   21.1961 C   0  0  0  0  0  0  0  0  0  0  0  0
  -28.3469  -27.8030   23.5200 C   0  0  0  0  0  0  0  0  0  0  0  0
  -25.5725  -28.1134   21.8681 C   0  0  0  0  0  0  0  0  0  0  0  0
  -23.0245  -26.6017   20.1744 C   0  0  0  0  0  0  0  0  0  0  0  0
  -30.7301  -14.6730   20.6970 C   0  0  0  0  0  0  0  0  0  0  0  0
  -30.4888  -32.1364   25.1608 C   0  0  0  0  0  0  0  0  0  0  0  0
  -28.8545  -26.4850   21.4317 C   0  0  0  0  0  0  0  0  0  0  0  0
  -26.2163  -25.7752   22.5635 C   0  0  0  0  0  0  0  0  0  0  0  0
  -29.0626  -31.6392   24.9389 C   0  0  0  0  0  0  0  0  0  0  0  0
  -29.5970  -12.2355   18.3622 C   0  0  0  0  0  0  0  0  0  0  0  0
  -28.8700  -30.2675   25.5778 C   0  0  0  0  0  0  0  0  0  0  0  0
  -28.1486  -11.9748   18.7795 C   0  0  0  0  0  0  0  0  0  0  0  0
  -30.4975  -12.4787   19.5713 C   0  0  0  0  0  0  0  0  0  0  0  0
  -28.5843  -13.2768   20.9040 C   0  0  0  0  0  0  0  0  0  0  0  0
  -29.8045  -29.2286   24.9462 C   0  0  1  0  0  0  0  0  0  0  0  0
  -27.9587  -27.5266   22.0951 C   0  0  1  0  0  0  0  0  0  0  0  0
  -27.6270  -13.0813   19.7159 C   0  0  2  0  0  0  0  0  0  0  0  0
  -26.9485  -19.9510   25.6997 C   0  0  0  0  0  0  0  0  0  0  0  0
  -27.0658  -15.0875   24.6786 C   0  0  0  0  0  0  0  0  0  0  0  0
  -30.7957  -20.4276   25.2454 C   0  0  0  0  0  0  0  0  0  0  0  0
  -29.1576  -18.4219   20.7063 C   0  0  0  0  0  0  0  0  0  0  0  0
  -20.8822  -27.1130   18.9716 C   0  0  0  0  0  0  0  0  0  0  0  0
  -31.6761  -16.6225   23.1067 C   0  0  0  0  0  0  0  0  0  0  0  0
  -24.1693  -28.5226   24.5464 C   0  0  0  0  0  0  0  0  0  0  0  0
  -21.9915  -28.0775   23.3944 C   0  0  0  0  0  0  0  0  0  0  0  0
  -23.3829  -30.0334   22.7152 C   0  0  0  0  0  0  0  0  0  0  0  0
  -24.0560  -25.5014   17.6280 C   0  0  0  0  0  0  0  0  0  0  0  0
  -29.5432  -21.1212   24.7309 C   0  0  0  0  0  0  0  0  0  0  0  0
  -28.8941  -20.3989   23.5417 C   0  0  2  0  0  0  0  0  0  1  0  0
  -29.8217  -18.0586   22.0562 C   0  0  2  0  0  0  0  0  0  0  0  0
  -24.1389  -27.7008   22.0991 C   0  0  1  0  0  0  0  0  0  0  0  0
  -22.3831  -26.9108   18.8337 C   0  0  2  0  0  0  0  0  0  0  0  0
  -30.8070  -16.8579   21.8716 C   0  0  2  0  0  0  0  0  0  0  0  0
  -23.4417  -28.5644   23.1879 C   0  0  0  0  0  0  0  0  0  0  0  0
  -25.8072  -11.5333   20.3280 N   0  0  0  0  0  0  0  0  0  0  0  0
  -28.4209  -16.6393   23.4078 N   0  0  0  0  0  0  0  0  0  0  0  0
  -26.2048  -12.8072   20.1686 N   0  0  0  0  0  0  0  0  0  0  0  0
  -26.5478  -27.1345   22.1053 N   0  0  0  0  0  0  0  0  0  0  0  0
  -29.9476  -13.5404   20.4176 N   0  0  0  0  0  0  0  0  0  0  0  0
  -25.4668  -15.0515   20.3387 N   0  0  0  0  0  0  0  0  0  0  0  0
  -21.8273  -12.6639   21.5428 N   0  0  0  0  0  0  0  0  0  0  0  0
  -29.2913  -28.8017   23.6621 N   0  0  0  0  0  0  0  0  0  0  0  0
  -23.4868  -27.7430   20.7947 N   0  0  0  0  0  0  0  0  0  0  0  0
  -30.1308  -15.6345   21.5015 N   0  0  0  0  0  0  0  0  0  0  0  0
  -22.6208  -25.7940   17.8760 N   0  3  0  0  0  0  0  0  0  0  0  0
  -22.6384  -14.7834   21.2136 O   0  0  0  0  0  0  0  0  0  0  0  0
  -27.8270  -27.1591   24.4237 O   0  0  0  0  0  0  0  0  0  0  0  0
  -25.8175  -29.2598   21.4843 O   0  0  0  0  0  0  0  0  0  0  0  0
  -23.1038  -25.4621   20.6279 O   0  0  0  0  0  0  0  0  0  0  0  0
  -31.8757  -14.8191   20.2575 O   0  0  0  0  0  0  0  0  0  0  0  0
  -21.4717   -7.1107   21.8086 O   0  0  0  0  0  0  0  0  0  0  0  0
  -27.7873  -21.1701   23.0762 O   0  0  0  0  0  0  0  0  0  1  0  0
  -23.7977   -3.1085   24.8047 F   0  0  0  0  0  0  0  0  0  0  0  0
  -20.3742   -6.3247   24.2212 F   0  0  0  0  0  0  0  0  0  0  0  0
  1  2  1  0  0  0  0
  1  5  2  0  0  0  0
  2  6  2  0  0  0  0
  3  8  2  0  0  0  0
  3 16  1  0  0  0  0
  4  9  1  0  0  0  0
  4 16  2  0  0  0  0
  5 18  1  0  0  0  0
  6 20  1  0  0  0  0
  7 10  2  0  0  0  0
  7 19  1  0  0  0  0
  8 24  1  0  0  0  0
  9 24  2  0  0  0  0
 10 25  1  0  0  0  0
 11 12  2  0  0  0  0
 11 26  1  0  0  0  0
 12 27  1  0  0  0  0
 13 21  1  0  0  0  0
 13 25  2  0  0  0  0
 14 22  2  0  0  0  0
 14 30  1  0  0  0  0
 15 27  2  0  0  0  0
 15 28  1  0  0  0  0
 16 29  1  0  0  0  0
 17 29  1  0  0  0  0
 17 32  2  0  0  0  0
 17 33  1  0  0  0  0
 18 20  2  0  0  0  0
 18 38  1  0  0  0  0
 19 21  2  0  0  0  0
 19 39  1  0  0  0  0
 20 47  1  0  0  0  0
 21 40  1  0  0  0  0
 22 23  1  0  0  0  0
 22 50  1  0  0  0  0
 23 31  2  0  0  0  0
 23 61  1  0  0  0  0
 24 83  1  0  0  0  0
 25 84  1  0  0  0  0
 26 28  2  0  0  0  0
 26 83  1  0  0  0  0
 27 85  1  0  0  0  0
 28 86  1  0  0  0  0
 29 67  2  0  0  0  0
 30 51  1  0  0  0  0
 30 68  2  0  0  0  0
 31 62  1  0  0  0  0
 31 68  1  0  0  0  0
 32 69  1  0  0  0  0
 32 72  1  0  0  0  0
 33 73  1  0  0  0  0
 33 78  2  0  0  0  0
 34 48  1  0  0  0  0
 34 74  1  0  0  0  0
 34 79  2  0  0  0  0
 35 63  1  0  0  0  0
 35 70  1  0  0  0  0
 35 80  2  0  0  0  0
 36 64  1  0  0  0  0
 36 75  1  0  0  0  0
 36 81  2  0  0  0  0
 37 71  1  0  0  0  0
 37 76  1  0  0  0  0
 37 82  2  0  0  0  0
 38 41  1  0  0  0  0
 39 48  1  0  0  0  0
 40 70  1  0  0  0  0
 41 43  1  0  0  0  0
 42 44  1  0  0  0  0
 42 45  1  0  0  0  0
 43 47  1  0  0  0  0
 44 49  1  0  0  0  0
 45 71  1  0  0  0  0
 46 49  1  0  0  0  0
 46 71  1  0  0  0  0
 47 74  1  0  0  0  0
 48 70  1  0  0  0  0
 49 69  1  0  0  0  0
 52 60  1  0  0  0  0
 53 62  1  0  0  0  0
 54 64  1  0  0  0  0
 55 65  1  0  0  0  0
 56 66  1  0  0  0  0
 57 66  1  0  0  0  0
 58 66  1  0  0  0  0
 59 77  1  0  0  0  0
 60 61  1  0  0  0  0
 61 84  1  0  0  0  0
 62 65  1  0  0  0  0
 63 66  1  0  0  0  0
 63 75  1  0  0  0  0
 64 77  1  0  0  0  0
 65 76  1  0  0  0  0
 67 69  1  0  0  0  0
M  CHG  1  77   1
M  ISO  4  37 100  61 101  76 100  84 101
M  END
> <Batch ID>
0082

> <Smiles>
CC[101CH:1](c1c(C)cc(C)nc1C(C)C(C)[100NH:0][100C:0](=O)N1CCCC(n2nc(-c3ccc(Oc4ccc(F)cc4F)cc3)c(C(N)=O)c2N)C1)[101O:1]c1ccc2c(c1)CN(C(=O)C(NC(=O)C(C)NC)C(C)(C)C)C(C(=O)NC1CCCc3ccccc31)C2

> <Shape>
0.244

> <Color>
0.193

> <Negative vol penalty>
0.000

$$$$

  -OEChem-04052318493D

 89 97  0     1  0  0  0  0  0999 V2000
  -28.6219  -37.4050   23.8017 C   0  0  0  0  0  0  0  0  0  0  0  0
  -29.0452  -36.2549   23.1435 C   0  0  0  0  0  0  0  0  0  0  0  0
  -26.5165  -13.2060   21.2005 C   0  0  0  0  0  0  0  0  0  0  0  0
  -27.7716  -12.5228   19.2524 C   0  0  0  0  0  0  0  0  0  0  0  0
  -27.6183  -37.3254   24.7663 C   0  0  0  0  0  0  0  0  0  0  0  0
  -28.4659  -35.0241   23.4503 C   0  0  0  0  0  0  0  0  0  0  0  0
  -27.4001  -30.3920   19.5885 C   0  0  0  0  0  0  0  0  0  0  0  0
  -26.0383  -11.9041   21.3490 C   0  0  0  0  0  0  0  0  0  0  0  0
  -27.2933  -11.2209   19.4009 C   0  0  0  0  0  0  0  0  0  0  0  0
  -28.0996  -29.2168   19.3175 C   0  0  0  0  0  0  0  0  0  0  0  0
  -23.6622   -9.9492   19.9500 C   0  0  0  0  0  0  0  0  0  0  0  0
  -22.3025   -9.7853   20.2141 C   0  0  0  0  0  0  0  0  0  0  0  0
  -26.6766  -28.0221   20.8560 C   0  0  0  0  0  0  0  0  0  0  0  0
  -22.8397   -8.6768   22.2925 C   0  0  0  0  0  0  0  0  0  0  0  0
  -27.3831  -13.5153   20.1522 C   0  0  0  0  0  0  0  0  0  0  0  0
  -29.0468  -15.4058   20.5599 C   0  0  0  0  0  0  0  0  0  0  0  0
  -27.0197  -36.0945   25.0782 C   0  0  0  0  0  0  0  0  0  0  0  0
  -26.3388  -30.3933   20.5051 C   0  0  0  0  0  0  0  0  0  0  0  0
  -27.4544  -34.9277   24.4209 C   0  0  0  0  0  0  0  0  0  0  0  0
  -25.9636  -29.1981   21.1350 C   0  0  0  0  0  0  0  0  0  0  0  0
  -26.4267  -10.9116   20.4492 C   0  0  0  0  0  0  0  0  0  0  0  0
  -27.7398  -28.0323   19.9535 C   0  0  0  0  0  0  0  0  0  0  0  0
  -24.6108   -9.4769   20.8571 C   0  0  0  0  0  0  0  0  0  0  0  0
  -21.8912   -9.1491   21.3853 C   0  0  0  0  0  0  0  0  0  0  0  0
  -24.1995   -8.8407   22.0284 C   0  0  0  0  0  0  0  0  0  0  0  0
  -27.8770  -14.8601   19.9980 C   0  0  0  0  0  0  0  0  0  0  0  0
  -31.3232  -25.4299   17.9777 C   0  0  0  0  0  0  0  0  0  0  0  0
  -29.9267  -23.3410   18.8798 C   0  0  0  0  0  0  0  0  0  0  0  0
  -30.0961  -25.6017   18.5797 C   0  0  0  0  0  0  0  0  0  0  0  0
  -31.1534  -23.1690   18.2771 C   0  0  0  0  0  0  0  0  0  0  0  0
  -29.0669  -16.7054   20.1161 C   0  0  0  0  0  0  0  0  0  0  0  0
  -30.0275  -14.7926   21.4073 C   0  0  0  0  0  0  0  0  0  0  0  0
  -25.7676  -31.8470   23.2735 C   0  0  0  0  0  0  0  0  0  0  0  0
  -22.8460  -30.4765   22.9445 C   0  0  0  0  0  0  0  0  0  0  0  0
  -20.9502  -27.9879   21.5808 C   0  0  0  0  0  0  0  0  0  0  0  0
  -28.4536  -20.4655   16.0380 C   0  0  0  0  0  0  0  0  0  0  0  0
  -25.9716  -36.0509   26.1619 C   0  0  0  0  0  0  0  0  0  0  0  0
  -25.5771  -31.6637   20.7663 C   0  0  0  0  0  0  0  0  0  0  0  0
  -24.8187  -29.1420   22.1119 C   0  0  0  0  0  0  0  0  0  0  0  0
  -25.1476  -34.7659   26.1609 C   0  0  0  0  0  0  0  0  0  0  0  0
  -25.5164  -19.4380   17.7681 C   0  0  0  0  0  0  0  0  0  0  0  0
  -26.0574  -33.5484   26.0309 C   0  0  0  0  0  0  0  0  0  0  0  0
  -25.9636  -18.1974   18.5434 C   0  0  0  0  0  0  0  0  0  0  0  0
  -26.1917  -19.5231   16.4011 C   0  0  0  0  0  0  0  0  0  0  0  0
  -28.1114  -18.2044   17.2071 C   0  0  0  0  0  0  0  0  0  0  0  0
  -26.8330  -33.5781   24.7083 C   0  0  1  0  0  0  0  0  0  0  0  0
  -24.8437  -31.6564   22.1040 C   0  0  1  0  0  0  0  0  0  0  0  0
  -27.4997  -18.1045   18.6150 C   0  0  2  0  0  0  0  0  0  0  0  0
  -27.6983  -22.5577   19.7205 C   0  0  0  0  0  0  0  0  0  0  0  0
  -34.0925  -28.1180   17.8756 C   0  0  0  0  0  0  0  0  0  0  0  0
  -18.6011  -27.1069   21.5244 C   0  0  0  0  0  0  0  0  0  0  0  0
  -23.2247  -29.2951   25.7322 C   0  0  0  0  0  0  0  0  0  0  0  0
  -21.3528  -27.7076   25.2377 C   0  0  0  0  0  0  0  0  0  0  0  0
  -20.9257  -30.1651   25.2713 C   0  0  0  0  0  0  0  0  0  0  0  0
  -32.7373  -19.9474   16.6041 C   0  0  0  0  0  0  0  0  0  0  0  0
  -33.0466  -22.3128   15.8975 C   0  0  0  0  0  0  0  0  0  0  0  0
  -20.7409  -28.4037   18.6581 C   0  0  0  0  0  0  0  0  0  0  0  0
  -29.1397  -22.1811   19.3862 C   0  0  0  0  0  0  0  0  0  0  0  0
  -32.1101  -26.5902   17.4717 C   0  0  0  0  0  0  0  0  0  0  0  0
  -29.4942  -26.9650   18.7538 C   0  0  0  0  0  0  0  0  0  1  0  0
  -33.2701  -26.9563   18.4106 C   0  0  0  0  0  0  0  0  0  0  0  0
  -30.7799  -21.2843   15.7601 C   0  0  0  0  0  0  0  0  0  0  0  0
  -31.7506  -21.8146   18.1030 C   0  0  1  0  0  0  0  0  0  0  0  0
  -22.2305  -29.1600   23.3532 C   0  0  1  0  0  0  0  0  0  0  0  0
  -19.6171  -28.0196   20.8554 C   0  0  2  0  0  0  0  0  0  0  0  0
  -21.9563  -29.0831   24.8817 C   0  0  0  0  0  0  0  0  0  0  0  0
  -32.0758  -21.3495   16.6171 C   0  0  0  0  0  0  0  0  0  0  0  0
  -27.2029  -15.7411   19.2541 N   0  0  0  0  0  0  0  0  0  0  0  0
  -29.3760  -24.5604   19.0418 N   0  0  0  0  0  0  0  0  0  0  0  0
  -31.8737  -24.2104   17.8153 N   0  0  0  0  0  0  0  0  0  0  0  0
  -27.9513  -16.8535   19.3456 N   0  0  0  0  0  0  0  0  0  0  0  0
  -24.1088  -30.4118   22.3388 N   0  0  0  0  0  0  0  0  0  0  0  0
  -27.6471  -19.4305   16.5393 N   0  0  0  0  0  0  0  0  0  0  0  0
  -29.9299  -17.7246   20.3138 N   0  0  0  0  0  0  0  0  0  0  0  0
  -29.8534  -13.4493   21.7672 N   0  0  0  0  0  0  0  0  0  0  0  0
  -25.9801  -33.1695   23.6129 N   0  0  0  0  0  0  0  0  0  0  0  0
  -21.0425  -28.9898   22.5237 N   0  0  0  0  0  0  0  0  0  0  0  0
  -29.8219  -20.3019   16.2160 N   0  0  0  0  0  0  0  0  0  0  0  0
  -32.9754  -21.6089   18.9717 N   0  3  0  0  0  0  0  0  0  0  0  0
  -19.7859  -27.5788   19.4419 N   0  3  0  0  0  0  0  0  0  0  0  0
  -31.0198  -15.4222   21.8460 O   0  0  0  0  0  0  0  0  0  0  0  0
  -26.2507  -30.8667   23.8279 O   0  0  0  0  0  0  0  0  0  0  0  0
  -22.2259  -31.5231   23.1485 O   0  0  0  0  0  0  0  0  0  0  0  0
  -21.8209  -27.1552   21.3381 O   0  0  0  0  0  0  0  0  0  0  0  0
  -27.9884  -21.4642   15.4784 O   0  0  0  0  0  0  0  0  0  0  0  0
  -25.9604   -9.6411   20.5939 O   0  0  0  0  0  0  0  0  0  0  0  0
  -28.4214  -26.8840   19.6913 O   0  0  0  0  0  0  0  0  0  1  0  0
  -20.5854   -8.9931   21.6395 F   0  0  0  0  0  0  0  0  0  0  0  0
  -25.1061   -8.3859   22.9042 F   0  0  0  0  0  0  0  0  0  0  0  0
  1  2  1  0  0  0  0
  1  5  2  0  0  0  0
  2  6  2  0  0  0  0
  3  8  2  0  0  0  0
  3 15  1  0  0  0  0
  4  9  1  0  0  0  0
  4 15  2  0  0  0  0
  5 17  1  0  0  0  0
  6 19  1  0  0  0  0
  7 10  2  0  0  0  0
  7 18  1  0  0  0  0
  8 21  1  0  0  0  0
  9 21  2  0  0  0  0
 10 22  1  0  0  0  0
 11 12  2  0  0  0  0
 11 23  1  0  0  0  0
 12 24  1  0  0  0  0
 13 20  1  0  0  0  0
 13 22  2  0  0  0  0
 14 24  2  0  0  0  0
 14 25  1  0  0  0  0
 15 26  1  0  0  0  0
 16 26  1  0  0  0  0
 16 31  2  0  0  0  0
 16 32  1  0  0  0  0
 17 19  2  0  0  0  0
 17 37  1  0  0  0  0
 18 20  2  0  0  0  0
 18 38  1  0  0  0  0
 19 46  1  0  0  0  0
 20 39  1  0  0  0  0
 21 86  1  0  0  0  0
 22 87  1  0  0  0  0
 23 25  2  0  0  0  0
 23 86  1  0  0  0  0
 24 88  1  0  0  0  0
 25 89  1  0  0  0  0
 26 68  2  0  0  0  0
 27 29  2  0  0  0  0
 27 59  1  0  0  0  0
 27 70  1  0  0  0  0
 28 30  1  0  0  0  0
 28 58  1  0  0  0  0
 28 69  2  0  0  0  0
 29 60  1  0  0  0  0
 29 69  1  0  0  0  0
 30 63  1  0  0  0  0
 30 70  2  0  0  0  0
 31 71  1  0  0  0  0
 31 74  1  0  0  0  0
 32 75  1  0  0  0  0
 32 81  2  0  0  0  0
 33 47  1  0  0  0  0
 33 76  1  0  0  0  0
 33 82  2  0  0  0  0
 34 64  1  0  0  0  0
 34 72  1  0  0  0  0
 34 83  2  0  0  0  0
 35 65  1  0  0  0  0
 35 77  1  0  0  0  0
 35 84  2  0  0  0  0
 36 73  1  0  0  0  0
 36 78  1  0  0  0  0
 36 85  2  0  0  0  0
 37 40  1  0  0  0  0
 38 47  1  0  0  0  0
 39 72  1  0  0  0  0
 40 42  1  0  0  0  0
 41 43  1  0  0  0  0
 41 44  1  0  0  0  0
 42 46  1  0  0  0  0
 43 48  1  0  0  0  0
 44 73  1  0  0  0  0
 45 48  1  0  0  0  0
 45 73  1  0  0  0  0
 46 76  1  0  0  0  0
 47 72  1  0  0  0  0
 48 71  1  0  0  0  0
 49 58  1  0  0  0  0
 50 61  1  0  0  0  0
 51 65  1  0  0  0  0
 52 66  1  0  0  0  0
 53 66  1  0  0  0  0
 54 66  1  0  0  0  0
 55 67  1  0  0  0  0
 56 67  1  0  0  0  0
 57 80  1  0  0  0  0
 59 61  1  0  0  0  0
 60 87  1  0  0  0  0
 62 67  1  0  0  0  0
 62 78  1  0  0  0  0
 63 67  1  0  0  0  0
 63 79  1  0  0  0  0
 64 66  1  0  0  0  0
 64 77  1  0  0  0  0
 65 80  1  0  0  0  0
 68 71  1  0  0  0  0
M  CHG  2  79   1  80   1
M  ISO  4  36 100  60 101  78 100  87 101
M  END
> <Batch ID>
0082

> <Smiles>
CCCc1nc(C(N)C(C)(C)C[100NH:0][100C:0](=O)N2CCCC(n3nc(-c4ccc(Oc5ccc(F)cc5F)cc4)c(C(N)=O)c3N)C2)c(CC)nc1[101CH2:1][101O:1]c1ccc2c(c1)CN(C(=O)C(NC(=O)C(C)NC)C(C)(C)C)C(C(=O)NC1CCCc3ccccc31)C2

> <Shape>
0.319

> <Color>
0.084

> <Negative vol penalty>
0.000

$$$$

  -OEChem-04052318493D

 85 93  0     1  0  0  0  0  0999 V2000
  -27.0692  -20.0168   15.2650 C   0  0  0  0  0  0  0  0  0  0  0  0
  -27.7675  -19.7379   16.4355 C   0  0  0  0  0  0  0  0  0  0  0  0
  -27.7847  -12.2433   18.6856 C   0  0  0  0  0  0  0  0  0  0  0  0
  -27.5941  -12.2667   21.0940 C   0  0  0  0  0  0  0  0  0  0  0  0
  -27.1818  -21.2725   14.6698 C   0  0  0  0  0  0  0  0  0  0  0  0
  -28.5798  -20.7144   17.0109 C   0  0  0  0  0  0  0  0  0  0  0  0
  -29.5574  -21.6377   22.9856 C   0  0  0  0  0  0  0  0  0  0  0  0
  -26.9583  -11.1210   18.6311 C   0  0  0  0  0  0  0  0  0  0  0  0
  -26.7677  -11.1443   21.0395 C   0  0  0  0  0  0  0  0  0  0  0  0
  -30.5935  -21.2555   23.8366 C   0  0  0  0  0  0  0  0  0  0  0  0
  -23.5307  -10.4682   20.3427 C   0  0  0  0  0  0  0  0  0  0  0  0
  -22.3776  -10.4756   21.1274 C   0  0  0  0  0  0  0  0  0  0  0  0
  -31.6397  -23.4058   23.5188 C   0  0  0  0  0  0  0  0  0  0  0  0
  -23.1599   -8.5109   22.2957 C   0  0  0  0  0  0  0  0  0  0  0  0
  -33.7755  -21.0482   21.0214 C   0  0  0  0  0  0  0  0  0  0  0  0
  -28.1027  -12.8161   19.9171 C   0  0  0  0  0  0  0  0  0  0  0  0
  -28.5614  -15.3255   19.9300 C   0  0  0  0  0  0  0  0  0  0  0  0
  -27.9882  -22.2681   15.2435 C   0  0  0  0  0  0  0  0  0  0  0  0
  -29.5603  -22.9050   22.3852 C   0  0  0  0  0  0  0  0  0  0  0  0
  -28.7043  -21.9843   16.4221 C   0  0  0  0  0  0  0  0  0  0  0  0
  -30.6011  -23.8026   22.6626 C   0  0  0  0  0  0  0  0  0  0  0  0
  -26.4498  -10.5715   19.8080 C   0  0  0  0  0  0  0  0  0  0  0  0
  -31.6364  -22.1385   24.1010 C   0  0  0  0  0  0  0  0  0  0  0  0
  -24.4985   -9.4820   20.5344 C   0  0  0  0  0  0  0  0  0  0  0  0
  -22.1922   -9.4970   22.1039 C   0  0  0  0  0  0  0  0  0  0  0  0
  -24.3131   -8.5034   21.5110 C   0  0  0  0  0  0  0  0  0  0  0  0
  -28.9568  -13.9752   19.9742 C   0  0  0  0  0  0  0  0  0  0  0  0
  -33.8566  -20.0888   20.0519 C   0  0  0  0  0  0  0  0  0  0  0  0
  -29.7369  -16.0306   20.0170 C   0  0  0  0  0  0  0  0  0  0  0  0
  -35.6049  -19.8575   21.3900 C   0  0  0  0  0  0  0  0  0  0  0  0
  -27.2488  -15.8920   19.8202 C   0  0  0  0  0  0  0  0  0  0  0  0
  -29.6532  -23.9684   19.3912 C   0  0  0  0  0  0  0  0  0  0  0  0
  -29.2161  -26.8508   20.8136 C   0  0  0  0  0  0  0  0  0  0  0  0
  -29.5251  -28.7759   23.6145 C   0  0  0  0  0  0  0  0  0  0  0  0
  -34.5960  -16.9039   22.3778 C   0  0  0  0  0  0  0  0  0  0  0  0
  -28.1156  -23.5950   14.5379 C   0  0  0  0  0  0  0  0  0  0  0  0
  -28.4215  -23.3120   21.4907 C   0  0  0  0  0  0  0  0  0  0  0  0
  -30.6406  -25.1821   22.0592 C   0  0  0  0  0  0  0  0  0  0  0  0
  -28.7031  -24.6974   15.4153 C   0  0  0  0  0  0  0  0  0  0  0  0
  -34.5409  -14.4791   19.6918 C   0  0  0  0  0  0  0  0  0  0  0  0
  -29.9348  -24.1892   16.1579 C   0  0  0  0  0  0  0  0  0  0  0  0
  -33.0385  -14.2448   19.5243 C   0  0  0  0  0  0  0  0  0  0  0  0
  -34.9110  -14.6654   21.1603 C   0  0  0  0  0  0  0  0  0  0  0  0
  -32.6600  -15.5202   21.6853 C   0  0  0  0  0  0  0  0  0  0  0  0
  -29.5760  -23.0256   17.0899 C   0  0  1  0  0  0  0  0  0  0  0  0
  -28.7902  -24.4369   20.5285 C   0  0  1  0  0  0  0  0  0  0  0  0
  -32.2185  -15.3470   20.2207 C   0  0  2  0  0  0  0  0  0  0  0  0
  -32.9797  -19.7804   18.9194 C   0  0  0  0  0  0  0  0  0  0  0  0
  -29.1171  -31.1031   24.4602 C   0  0  0  0  0  0  0  0  0  0  0  0
  -33.2639  -19.5545   25.6259 C   0  0  0  0  0  0  0  0  0  0  0  0
  -37.7575  -20.4063   22.7174 C   0  0  0  0  0  0  0  0  0  0  0  0
  -37.7985  -18.7585   20.8630 C   0  0  0  0  0  0  0  0  0  0  0  0
  -31.6819  -27.8286   19.3056 C   0  0  0  0  0  0  0  0  0  0  0  0
  -31.7807  -29.7790   20.8723 C   0  0  0  0  0  0  0  0  0  0  0  0
  -29.7953  -29.4678   19.3945 C   0  0  0  0  0  0  0  0  0  0  0  0
  -27.6301  -27.8190   25.6765 C   0  0  0  0  0  0  0  0  0  0  0  0
  -34.8823  -21.0323   24.3804 C   0  0  0  0  0  0  0  0  0  0  0  0
  -35.1874  -21.7249   23.0444 C   0  0  0  0  0  0  0  0  0  0  0  0
  -36.6289  -18.1785   23.0100 C   0  0  0  0  0  0  0  0  0  0  0  0
  -30.1280  -27.9199   21.3655 C   0  0  1  0  0  0  0  0  0  0  0  0
  -28.5458  -29.7013   24.3139 C   0  0  2  0  0  0  0  0  0  0  0  0
  -33.4138  -20.6241   24.5515 C   0  0  2  0  0  0  0  0  0  1  0  0
  -36.8667  -19.3430   21.9782 C   0  0  0  0  0  0  0  0  0  0  0  0
  -30.8470  -28.7222   20.2445 C   0  0  0  0  0  0  0  0  0  0  0  0
  -30.2801  -13.8286   20.0808 N   0  0  0  0  0  0  0  0  0  0  0  0
  -34.8696  -20.8813   21.8357 N   0  0  0  0  0  0  0  0  0  0  0  0
  -30.7264  -15.0960   20.1043 N   0  0  0  0  0  0  0  0  0  0  0  0
  -34.9982  -19.3669   20.3044 N   0  3  0  0  0  0  0  0  0  0  0  0
  -29.5076  -25.5310   21.1863 N   0  0  0  0  0  0  0  0  0  0  0  0
  -34.1081  -15.7410   21.7589 N   0  0  0  0  0  0  0  0  0  0  0  0
  -30.0103  -17.3525   20.0266 N   0  0  0  0  0  0  0  0  0  0  0  0
  -26.1511  -15.0242   19.7409 N   0  0  0  0  0  0  0  0  0  0  0  0
  -28.9431  -23.5192   18.2942 N   0  0  0  0  0  0  0  0  0  0  0  0
  -29.3082  -28.7372   22.2534 N   0  0  0  0  0  0  0  0  0  0  0  0
  -35.9790  -17.0336   22.4120 N   0  0  0  0  0  0  0  0  0  0  0  0
  -28.2219  -29.1816   25.6725 N   0  3  0  0  0  0  0  0  0  0  0  0
  -27.0565  -17.1308   19.7766 O   0  0  0  0  0  0  0  0  0  0  0  0
  -30.8729  -24.0127   19.5003 O   0  0  0  0  0  0  0  0  0  0  0  0
  -28.2755  -27.1755   20.0846 O   0  0  0  0  0  0  0  0  0  0  0  0
  -30.3978  -28.1529   24.2151 O   0  0  0  0  0  0  0  0  0  0  0  0
  -33.8536  -17.7663   22.8598 O   0  0  0  0  0  0  0  0  0  0  0  0
  -25.6431   -9.4765   19.7551 O   0  0  0  0  0  0  0  0  0  0  0  0
  -32.6493  -21.7677   24.9307 O   0  0  0  0  0  0  0  0  0  1  0  0
  -21.0855   -9.5052   22.8585 F   0  0  0  0  0  0  0  0  0  0  0  0
  -25.2398   -7.5542   21.7006 F   0  0  0  0  0  0  0  0  0  0  0  0
  1  2  1  0  0  0  0
  1  5  2  0  0  0  0
  2  6  2  0  0  0  0
  3  8  2  0  0  0  0
  3 16  1  0  0  0  0
  4  9  1  0  0  0  0
  4 16  2  0  0  0  0
  5 18  1  0  0  0  0
  6 20  1  0  0  0  0
  7 10  2  0  0  0  0
  7 19  1  0  0  0  0
  8 22  1  0  0  0  0
  9 22  2  0  0  0  0
 10 23  1  0  0  0  0
 11 12  2  0  0  0  0
 11 24  1  0  0  0  0
 12 25  1  0  0  0  0
 13 21  1  0  0  0  0
 13 23  2  0  0  0  0
 14 25  2  0  0  0  0
 14 26  1  0  0  0  0
 15 28  2  0  0  0  0
 15 66  1  0  0  0  0
 16 27  1  0  0  0  0
 17 27  1  0  0  0  0
 17 29  2  0  0  0  0
 17 31  1  0  0  0  0
 18 20  2  0  0  0  0
 18 36  1  0  0  0  0
 19 21  2  0  0  0  0
 19 37  1  0  0  0  0
 20 45  1  0  0  0  0
 21 38  1  0  0  0  0
 22 82  1  0  0  0  0
 23 83  1  0  0  0  0
 24 26  2  0  0  0  0
 24 82  1  0  0  0  0
 25 84  1  0  0  0  0
 26 85  1  0  0  0  0
 27 65  2  0  0  0  0
 28 48  1  0  0  0  0
 28 68  1  0  0  0  0
 29 67  1  0  0  0  0
 29 71  1  0  0  0  0
 30 63  1  0  0  0  0
 30 66  1  0  0  0  0
 30 68  2  0  0  0  0
 31 72  1  0  0  0  0
 31 77  2  0  0  0  0
 32 46  1  0  0  0  0
 32 73  1  0  0  0  0
 32 78  2  0  0  0  0
 33 60  1  0  0  0  0
 33 69  1  0  0  0  0
 33 79  2  0  0  0  0
 34 61  1  0  0  0  0
 34 74  1  0  0  0  0
 34 80  2  0  0  0  0
 35 70  1  0  0  0  0
 35 75  1  0  0  0  0
 35 81  2  0  0  0  0
 36 39  1  0  0  0  0
 37 46  1  0  0  0  0
 38 69  1  0  0  0  0
 39 41  1  0  0  0  0
 40 42  1  0  0  0  0
 40 43  1  0  0  0  0
 41 45  1  0  0  0  0
 42 47  1  0  0  0  0
 43 70  1  0  0  0  0
 44 47  1  0  0  0  0
 44 70  1  0  0  0  0
 45 73  1  0  0  0  0
 46 69  1  0  0  0  0
 47 67  1  0  0  0  0
 49 61  1  0  0  0  0
 50 62  1  0  0  0  0
 51 63  1  0  0  0  0
 52 63  1  0  0  0  0
 53 64  1  0  0  0  0
 54 64  1  0  0  0  0
 55 64  1  0  0  0  0
 56 76  1  0  0  0  0
 57 58  1  0  0  0  0
 57 62  1  0  0  0  0
 58 66  1  0  0  0  0
 59 63  1  0  0  0  0
 59 75  1  0  0  0  0
 60 64  1  0  0  0  0
 60 74  1  0  0  0  0
 61 76  1  0  0  0  0
 62 83  1  0  0  0  0
 65 67  1  0  0  0  0
M  CHG  2  68   1  76   1
M  ISO  4  35 100  62 101  75 100  83 101
M  END
> <Batch ID>
0082

> <Smiles>
CNC(C)C(=O)NC(C(=O)N1Cc2cc([101O:1][101CH:1](C)CCn3cc(C)nc3C(C)(C)C[100NH:0][100C:0](=O)N3CCCC(n4nc(-c5ccc(Oc6ccc(F)cc6F)cc5)c(C(N)=O)c4N)C3)ccc2CC1C(=O)NC1CCCc2ccccc21)C(C)(C)C

> <Shape>
0.162

> <Color>
0.058

> <Negative vol penalty>
0.000

$$$$

  -OEChem-04052318493D

 88 96  0     1  0  0  0  0  0999 V2000
  -29.4239  -31.1533   30.3557 C   0  0  0  0  0  0  0  0  0  0  0  0
  -29.4939  -30.0327   29.5342 C   0  0  0  0  0  0  0  0  0  0  0  0
  -23.0006   -9.8933   19.9822 C   0  0  0  0  0  0  0  0  0  0  0  0
  -23.7310   -9.9426   22.2846 C   0  0  0  0  0  0  0  0  0  0  0  0
  -30.2747  -32.2349   30.1313 C   0  0  0  0  0  0  0  0  0  0  0  0
  -30.4140  -29.9935   28.4872 C   0  0  0  0  0  0  0  0  0  0  0  0
  -32.8588  -25.5670   28.2144 C   0  0  0  0  0  0  0  0  0  0  0  0
  -30.6014  -19.9691   26.0529 C   0  0  0  0  0  0  0  0  0  0  0  0
  -22.2358   -8.7577   20.2491 C   0  0  0  0  0  0  0  0  0  0  0  0
  -22.9662   -8.8070   22.5515 C   0  0  0  0  0  0  0  0  0  0  0  0
  -32.1738  -24.4955   27.6431 C   0  0  0  0  0  0  0  0  0  0  0  0
  -23.2129   -5.4688   22.0755 C   0  0  0  0  0  0  0  0  0  0  0  0
  -23.8032   -4.4514   22.8252 C   0  0  0  0  0  0  0  0  0  0  0  0
  -30.0381  -18.9281   25.3234 C   0  0  0  0  0  0  0  0  0  0  0  0
  -33.3546  -24.8538   25.5702 C   0  0  0  0  0  0  0  0  0  0  0  0
  -22.0829   -4.6908   24.5046 C   0  0  0  0  0  0  0  0  0  0  0  0
  -23.7482  -10.4857   21.0000 C   0  0  0  0  0  0  0  0  0  0  0  0
  -24.1305  -13.0019   20.8258 C   0  0  0  0  0  0  0  0  0  0  0  0
  -31.2124  -32.2049   29.0870 C   0  0  0  0  0  0  0  0  0  0  0  0
  -33.7904  -26.2981   27.4634 C   0  0  0  0  0  0  0  0  0  0  0  0
  -31.2773  -31.0762   28.2479 C   0  0  0  0  0  0  0  0  0  0  0  0
  -34.0519  -25.9326   26.1352 C   0  0  0  0  0  0  0  0  0  0  0  0
  -30.2082  -21.2789   25.8019 C   0  0  0  0  0  0  0  0  0  0  0  0
  -22.2186   -8.2146   21.5337 C   0  0  0  0  0  0  0  0  0  0  0  0
  -32.4195  -24.1406   26.3199 C   0  0  0  0  0  0  0  0  0  0  0  0
  -22.0576   -6.0973   22.5404 C   0  0  0  0  0  0  0  0  0  0  0  0
  -23.2382   -4.0624   24.0397 C   0  0  0  0  0  0  0  0  0  0  0  0
  -21.4926   -5.7082   23.7549 C   0  0  0  0  0  0  0  0  0  0  0  0
  -24.5388  -11.6584   20.7248 C   0  0  0  0  0  0  0  0  0  0  0  0
  -29.0931  -19.2472   24.3616 C   0  0  0  0  0  0  0  0  0  0  0  0
  -29.2558  -21.4929   24.8185 C   0  0  0  0  0  0  0  0  0  0  0  0
  -25.2387  -13.7260   20.4596 C   0  0  0  0  0  0  0  0  0  0  0  0
  -22.8629  -13.5466   21.2158 C   0  0  0  0  0  0  0  0  0  0  0  0
  -34.0269  -29.3217   26.5117 C   0  0  0  0  0  0  0  0  0  0  0  0
  -36.9338  -28.3515   25.4485 C   0  0  0  0  0  0  0  0  0  0  0  0
  -38.9341  -25.7846   24.4204 C   0  0  0  0  0  0  0  0  0  0  0  0
  -30.7346  -14.6661   20.6966 C   0  0  0  0  0  0  0  0  0  0  0  0
  -32.0786  -33.4174   28.8542 C   0  0  0  0  0  0  0  0  0  0  0  0
  -34.5404  -27.4344   28.1025 C   0  0  0  0  0  0  0  0  0  0  0  0
  -35.0571  -26.6725   25.2923 C   0  0  0  0  0  0  0  0  0  0  0  0
  -33.2818  -33.1428   27.9557 C   0  0  0  0  0  0  0  0  0  0  0  0
  -29.5911  -12.2437   18.3511 C   0  0  0  0  0  0  0  0  0  0  0  0
  -32.8580  -32.3500   26.7234 C   0  0  0  0  0  0  0  0  0  0  0  0
  -28.1438  -11.9820   18.7718 C   0  0  0  0  0  0  0  0  0  0  0  0
  -30.4960  -12.4787   19.5585 C   0  0  0  0  0  0  0  0  0  0  0  0
  -28.5881  -13.2708   20.9025 C   0  0  0  0  0  0  0  0  0  0  0  0
  -32.2791  -30.9858   27.1173 C   0  0  1  0  0  0  0  0  0  0  0  0
  -35.0916  -28.4319   27.0883 C   0  0  1  0  0  0  0  0  0  0  0  0
  -27.6266  -13.0834   19.7165 C   0  0  2  0  0  0  0  0  0  0  0  0
  -26.9554  -18.0712   23.8778 C   0  0  0  0  0  0  0  0  0  0  0  0
  -27.2906  -23.0709   24.7835 C   0  0  0  0  0  0  0  0  0  0  0  0
  -29.1186  -23.2958   23.0622 C   0  0  0  0  0  0  0  0  0  0  0  0
  -41.2491  -25.3069   23.5781 C   0  0  0  0  0  0  0  0  0  0  0  0
  -36.1653  -29.4635   22.7130 C   0  0  0  0  0  0  0  0  0  0  0  0
  -38.0486  -28.1428   21.7244 C   0  0  0  0  0  0  0  0  0  0  0  0
  -38.5244  -29.9265   23.4021 C   0  0  0  0  0  0  0  0  0  0  0  0
  -29.9640  -18.1268   19.8847 C   0  0  0  0  0  0  0  0  0  0  0  0
  -30.9645  -19.3386   21.8052 C   0  0  0  0  0  0  0  0  0  0  0  0
  -39.5346  -24.0259   26.7238 C   0  0  0  0  0  0  0  0  0  0  0  0
  -30.8135  -22.4067   26.5850 C   0  0  0  0  0  0  0  0  0  1  0  0
  -28.6466  -18.2529   22.0134 C   0  0  0  0  0  0  0  0  0  0  0  0
  -30.8178  -16.8438   21.8839 C   0  0  0  0  0  0  0  0  0  0  0  0
  -28.4667  -18.1544   23.5613 C   0  0  1  0  0  0  0  0  0  0  0  0
  -28.7931  -22.8786   24.5080 C   0  0  0  0  0  0  0  0  0  0  0  0
  -37.4597  -27.7628   24.1616 C   0  0  1  0  0  0  0  0  0  0  0  0
  -40.3512  -25.3968   24.8022 C   0  0  2  0  0  0  0  0  0  0  0  0
  -37.5291  -28.8110   23.0153 C   0  0  0  0  0  0  0  0  0  0  0  0
  -30.0889  -18.1288   21.4276 C   0  0  0  0  0  0  0  0  0  0  0  0
  -25.8073  -11.5337   20.3256 N   0  0  0  0  0  0  0  0  0  0  0  0
  -28.6860  -20.5073   24.0894 N   0  0  0  0  0  0  0  0  0  0  0  0
  -26.2056  -12.8080   20.1724 N   0  0  0  0  0  0  0  0  0  0  0  0
  -35.7603  -27.7801   25.9604 N   0  0  0  0  0  0  0  0  0  0  0  0
  -29.9501  -13.5360   20.4130 N   0  0  0  0  0  0  0  0  0  0  0  0
  -25.4705  -15.0521   20.3584 N   0  0  0  0  0  0  0  0  0  0  0  0
  -21.8328  -12.6610   21.5607 N   0  0  0  0  0  0  0  0  0  0  0  0
  -33.3424  -30.0640   27.4550 N   0  0  0  0  0  0  0  0  0  0  0  0
  -38.7420  -27.1483   24.4878 N   0  0  0  0  0  0  0  0  0  0  0  0
  -30.1391  -15.6233   21.5088 N   0  0  0  0  0  0  0  0  0  0  0  0
  -40.3592  -24.0742   25.4890 N   0  3  0  0  0  0  0  0  0  0  0  0
  -22.6449  -14.7816   21.2414 O   0  0  0  0  0  0  0  0  0  0  0  0
  -33.8411  -29.3348   25.3005 O   0  0  0  0  0  0  0  0  0  0  0  0
  -37.5459  -29.2792   25.9836 O   0  0  0  0  0  0  0  0  0  0  0  0
  -38.0836  -24.9605   24.0915 O   0  0  0  0  0  0  0  0  0  0  0  0
  -31.8789  -14.8136   20.2540 O   0  0  0  0  0  0  0  0  0  0  0  0
  -21.4723   -7.1067   21.7946 O   0  0  0  0  0  0  0  0  0  0  0  0
  -31.7519  -23.0955   25.7595 O   0  0  0  0  0  0  0  0  0  1  0  0
  -23.8043   -3.0843   24.7588 F   0  0  0  0  0  0  0  0  0  0  0  0
  -20.3821   -6.3075   24.2061 F   0  0  0  0  0  0  0  0  0  0  0  0
  1  2  1  0  0  0  0
  1  5  2  0  0  0  0
  2  6  2  0  0  0  0
  3  9  2  0  0  0  0
  3 17  1  0  0  0  0
  4 10  1  0  0  0  0
  4 17  2  0  0  0  0
  5 19  1  0  0  0  0
  6 21  1  0  0  0  0
  7 11  2  0  0  0  0
  7 20  1  0  0  0  0
  8 14  2  0  0  0  0
  8 23  1  0  0  0  0
  9 24  1  0  0  0  0
 10 24  2  0  0  0  0
 11 25  1  0  0  0  0
 12 13  2  0  0  0  0
 12 26  1  0  0  0  0
 13 27  1  0  0  0  0
 14 30  1  0  0  0  0
 15 22  1  0  0  0  0
 15 25  2  0  0  0  0
 16 27  2  0  0  0  0
 16 28  1  0  0  0  0
 17 29  1  0  0  0  0
 18 29  1  0  0  0  0
 18 32  2  0  0  0  0
 18 33  1  0  0  0  0
 19 21  2  0  0  0  0
 19 38  1  0  0  0  0
 20 22  2  0  0  0  0
 20 39  1  0  0  0  0
 21 47  1  0  0  0  0
 22 40  1  0  0  0  0
 23 31  2  0  0  0  0
 23 60  1  0  0  0  0
 24 85  1  0  0  0  0
 25 86  1  0  0  0  0
 26 28  2  0  0  0  0
 26 85  1  0  0  0  0
 27 87  1  0  0  0  0
 28 88  1  0  0  0  0
 29 69  2  0  0  0  0
 30 63  1  0  0  0  0
 30 70  2  0  0  0  0
 31 64  1  0  0  0  0
 31 70  1  0  0  0  0
 32 71  1  0  0  0  0
 32 74  1  0  0  0  0
 33 75  1  0  0  0  0
 33 80  2  0  0  0  0
 34 48  1  0  0  0  0
 34 76  1  0  0  0  0
 34 81  2  0  0  0  0
 35 65  1  0  0  0  0
 35 72  1  0  0  0  0
 35 82  2  0  0  0  0
 36 66  1  0  0  0  0
 36 77  1  0  0  0  0
 36 83  2  0  0  0  0
 37 73  1  0  0  0  0
 37 78  1  0  0  0  0
 37 84  2  0  0  0  0
 38 41  1  0  0  0  0
 39 48  1  0  0  0  0
 40 72  1  0  0  0  0
 41 43  1  0  0  0  0
 42 44  1  0  0  0  0
 42 45  1  0  0  0  0
 43 47  1  0  0  0  0
 44 49  1  0  0  0  0
 45 73  1  0  0  0  0
 46 49  1  0  0  0  0
 46 73  1  0  0  0  0
 47 76  1  0  0  0  0
 48 72  1  0  0  0  0
 49 71  1  0  0  0  0
 50 63  1  0  0  0  0
 51 64  1  0  0  0  0
 52 64  1  0  0  0  0
 53 66  1  0  0  0  0
 54 67  1  0  0  0  0
 55 67  1  0  0  0  0
 56 67  1  0  0  0  0
 57 68  1  0  0  0  0
 58 68  1  0  0  0  0
 59 79  1  0  0  0  0
 60 86  1  0  0  0  0
 61 63  1  0  0  0  0
 61 68  1  0  0  0  0
 62 68  1  0  0  0  0
 62 78  1  0  0  0  0
 65 67  1  0  0  0  0
 65 77  1  0  0  0  0
 66 79  1  0  0  0  0
 69 71  1  0  0  0  0
M  CHG  1  79   1
M  ISO  4  37 100  60 101  78 100  86 101
M  END
> <Batch ID>
0082

> <Smiles>
CNC(C)C(=O)NC(C(=O)N1Cc2cc([101O:1][101CH2:1]c3ccc(C(C)CC(C)(C)C[100NH:0][100C:0](=O)N4CCCC(n5nc(-c6ccc(Oc7ccc(F)cc7F)cc6)c(C(N)=O)c5N)C4)nc3C(C)C)ccc2CC1C(=O)NC1CCCc2ccccc21)C(C)(C)C

> <Shape>
0.181

> <Color>
0.189

> <Negative vol penalty>
0.000

$$$$

  -OEChem-04052318493D

 87 95  0     1  0  0  0  0  0999 V2000
  -26.1000  -31.8656   18.0406 C   0  0  0  0  0  0  0  0  0  0  0  0
  -26.5266  -30.5483   17.9056 C   0  0  0  0  0  0  0  0  0  0  0  0
  -30.1861  -23.3846   19.6826 C   0  0  0  0  0  0  0  0  0  0  0  0
  -31.6147  -22.3141   18.0547 C   0  0  0  0  0  0  0  0  0  0  0  0
  -25.2767  -32.2247   19.1069 C   0  0  0  0  0  0  0  0  0  0  0  0
  -26.1309  -29.5896   18.8376 C   0  0  0  0  0  0  0  0  0  0  0  0
  -24.5225  -22.6274   19.3454 C   0  0  0  0  0  0  0  0  0  0  0  0
  -30.9629  -24.5404   19.6043 C   0  0  0  0  0  0  0  0  0  0  0  0
  -32.3916  -23.4700   17.9764 C   0  0  0  0  0  0  0  0  0  0  0  0
  -24.8577  -21.4959   20.0878 C   0  0  0  0  0  0  0  0  0  0  0  0
  -32.3572  -27.8975   19.5646 C   0  0  0  0  0  0  0  0  0  0  0  0
  -31.6927  -29.1206   19.4748 C   0  0  0  0  0  0  0  0  0  0  0  0
  -23.3694  -22.2151   21.8447 C   0  0  0  0  0  0  0  0  0  0  0  0
  -26.1368  -13.3703   21.8581 C   0  0  0  0  0  0  0  0  0  0  0  0
  -24.0752  -13.3260   20.6204 C   0  0  0  0  0  0  0  0  0  0  0  0
  -30.6417  -28.3989   17.4226 C   0  0  0  0  0  0  0  0  0  0  0  0
  -30.5120  -22.2714   18.9078 C   0  0  0  0  0  0  0  0  0  0  0  0
  -28.5824  -20.7558   18.2098 C   0  0  0  0  0  0  0  0  0  0  0  0
  -24.8628  -31.2679   20.0470 C   0  0  0  0  0  0  0  0  0  0  0  0
  -23.6149  -23.5684   19.8527 C   0  0  0  0  0  0  0  0  0  0  0  0
  -25.3023  -29.9365   19.9183 C   0  0  0  0  0  0  0  0  0  0  0  0
  -23.0224  -23.3564   21.1057 C   0  0  0  0  0  0  0  0  0  0  0  0
  -24.9113  -13.9460   21.5422 C   0  0  0  0  0  0  0  0  0  0  0  0
  -32.0656  -24.5832   18.7512 C   0  0  0  0  0  0  0  0  0  0  0  0
  -24.2833  -21.2910   21.3389 C   0  0  0  0  0  0  0  0  0  0  0  0
  -32.1640  -26.9250   18.5834 C   0  0  0  0  0  0  0  0  0  0  0  0
  -30.8349  -29.3713   18.4038 C   0  0  0  0  0  0  0  0  0  0  0  0
  -31.3062  -27.1758   17.5124 C   0  0  0  0  0  0  0  0  0  0  0  0
  -29.7102  -21.0769   18.9887 C   0  0  0  0  0  0  0  0  0  0  0  0
  -26.4770  -12.1833   21.2295 C   0  0  0  0  0  0  0  0  0  0  0  0
  -24.5077  -12.1411   20.0470 C   0  0  0  0  0  0  0  0  0  0  0  0
  -28.1862  -19.5241   18.6708 C   0  0  0  0  0  0  0  0  0  0  0  0
  -27.9496  -21.5039   17.1631 C   0  0  0  0  0  0  0  0  0  0  0  0
  -23.7734  -26.6477   20.6249 C   0  0  0  0  0  0  0  0  0  0  0  0
  -20.5795  -26.2991   21.0722 C   0  0  0  0  0  0  0  0  0  0  0  0
  -17.9570  -24.2185   21.7358 C   0  0  0  0  0  0  0  0  0  0  0  0
  -29.3747  -14.3920   20.1525 C   0  0  0  0  0  0  0  0  0  0  0  0
  -24.0111  -31.7133   21.2093 C   0  0  0  0  0  0  0  0  0  0  0  0
  -23.2435  -24.7702   19.0280 C   0  0  0  0  0  0  0  0  0  0  0  0
  -22.0271  -24.3262   21.6866 C   0  0  0  0  0  0  0  0  0  0  0  0
  -23.3314  -30.5603   21.9434 C   0  0  0  0  0  0  0  0  0  0  0  0
  -29.6489  -16.9039   22.7433 C   0  0  0  0  0  0  0  0  0  0  0  0
  -24.3268  -29.4351   22.2080 C   0  0  0  0  0  0  0  0  0  0  0  0
  -29.5952  -18.1940   21.9231 C   0  0  0  0  0  0  0  0  0  0  0  0
  -30.4286  -15.8155   22.0114 C   0  0  0  0  0  0  0  0  0  0  0  0
  -29.8689  -16.7979   19.8216 C   0  0  0  0  0  0  0  0  0  0  0  0
  -24.8742  -28.8627   20.8949 C   0  0  1  0  0  0  0  0  0  0  0  0
  -22.6985  -25.9236   19.8646 C   0  0  1  0  0  0  0  0  0  0  0  0
  -29.0748  -17.9304   20.4976 C   0  0  2  0  0  0  0  0  0  0  0  0
  -23.2004  -10.0501   19.5251 C   0  0  0  0  0  0  0  0  0  0  0  0
  -24.2940  -11.3507   17.6630 C   0  0  0  0  0  0  0  0  0  0  0  0
  -15.4710  -24.2298   22.0774 C   0  0  0  0  0  0  0  0  0  0  0  0
  -30.0932  -10.9994   20.6494 C   0  0  0  0  0  0  0  0  0  0  0  0
  -20.9714  -27.4561   23.8682 C   0  0  0  0  0  0  0  0  0  0  0  0
  -18.7083  -26.5738   24.4748 C   0  0  0  0  0  0  0  0  0  0  0  0
  -18.9366  -28.2834   22.6726 C   0  0  0  0  0  0  0  0  0  0  0  0
  -17.5140  -22.4293   19.4203 C   0  0  0  0  0  0  0  0  0  0  0  0
  -24.4901  -15.2372   22.1975 C   0  0  0  0  0  0  0  0  0  0  0  0
  -27.7839  -11.5359   21.5452 C   0  0  0  0  0  0  0  0  0  0  0  0
  -24.9233  -16.4912   21.4300 C   0  0  0  0  0  0  0  0  0  0  0  0
  -24.5548  -17.7900   22.1485 C   0  0  0  0  0  0  0  0  0  0  0  0
  -24.9647  -19.0125   21.3386 C   0  0  0  0  0  0  0  0  0  1  0  0
  -23.6367  -11.4495   19.0522 C   0  0  0  0  0  0  0  0  0  0  0  0
  -19.6989  -25.9127   22.2358 C   0  0  1  0  0  0  0  0  0  0  0  0
  -16.6003  -24.0647   21.0724 C   0  0  2  0  0  0  0  0  0  0  0  0
  -28.9387  -11.9963   20.6296 C   0  0  1  0  0  0  0  0  0  0  0  0
  -19.5990  -27.0390   23.3030 C   0  0  0  0  0  0  0  0  0  0  0  0
  -30.0110  -20.1261   19.8772 N   0  0  0  0  0  0  0  0  0  0  0  0
  -25.6913  -11.5516   20.3289 N   0  0  0  0  0  0  0  0  0  0  0  0
  -29.0663  -19.1954   19.6595 N   0  0  0  0  0  0  0  0  0  0  0  0
  -21.7011  -25.4891   20.8446 N   0  0  0  0  0  0  0  0  0  0  0  0
  -29.8712  -15.6005   20.6686 N   0  0  0  0  0  0  0  0  0  0  0  0
  -27.1743  -18.7011   18.3228 N   0  0  0  0  0  0  0  0  0  0  0  0
  -28.4860  -22.7510   16.8149 N   0  0  0  0  0  0  0  0  0  0  0  0
  -23.9028  -27.9806   20.2842 N   0  0  0  0  0  0  0  0  0  0  0  0
  -18.4167  -25.5164   21.6635 N   0  0  0  0  0  0  0  0  0  0  0  0
  -29.4190  -13.3043   21.0161 N   0  0  0  0  0  0  0  0  0  0  0  0
  -16.4794  -22.7176   20.4467 N   0  3  0  0  0  0  0  0  0  0  0  0
  -26.9285  -21.0864   16.5659 O   0  0  0  0  0  0  0  0  0  0  0  0
  -24.4352  -26.0423   21.4598 O   0  0  0  0  0  0  0  0  0  0  0  0
  -20.2793  -27.2792   20.3859 O   0  0  0  0  0  0  0  0  0  0  0  0
  -18.5481  -23.2817   22.2684 O   0  0  0  0  0  0  0  0  0  0  0  0
  -28.9201  -14.2907   19.0078 O   0  0  0  0  0  0  0  0  0  0  0  0
  -32.8238  -25.7109   18.6744 O   0  0  0  0  0  0  0  0  0  0  0  0
  -24.6093  -20.1878   22.0658 O   0  0  0  0  0  0  0  0  0  1  0  0
  -30.1957  -30.5453   18.3185 F   0  0  0  0  0  0  0  0  0  0  0  0
  -31.1156  -26.2450   16.5673 F   0  0  0  0  0  0  0  0  0  0  0  0
  1  2  1  0  0  0  0
  1  5  2  0  0  0  0
  2  6  2  0  0  0  0
  3  8  2  0  0  0  0
  3 17  1  0  0  0  0
  4  9  1  0  0  0  0
  4 17  2  0  0  0  0
  5 19  1  0  0  0  0
  6 21  1  0  0  0  0
  7 10  2  0  0  0  0
  7 20  1  0  0  0  0
  8 24  1  0  0  0  0
  9 24  2  0  0  0  0
 10 25  1  0  0  0  0
 11 12  2  0  0  0  0
 11 26  1  0  0  0  0
 12 27  1  0  0  0  0
 13 22  1  0  0  0  0
 13 25  2  0  0  0  0
 14 23  1  0  0  0  0
 14 30  2  0  0  0  0
 15 23  2  0  0  0  0
 15 31  1  0  0  0  0
 16 27  2  0  0  0  0
 16 28  1  0  0  0  0
 17 29  1  0  0  0  0
 18 29  1  0  0  0  0
 18 32  2  0  0  0  0
 18 33  1  0  0  0  0
 19 21  2  0  0  0  0
 19 38  1  0  0  0  0
 20 22  2  0  0  0  0
 20 39  1  0  0  0  0
 21 47  1  0  0  0  0
 22 40  1  0  0  0  0
 23 58  1  0  0  0  0
 24 84  1  0  0  0  0
 25 85  1  0  0  0  0
 26 28  2  0  0  0  0
 26 84  1  0  0  0  0
 27 86  1  0  0  0  0
 28 87  1  0  0  0  0
 29 68  2  0  0  0  0
 30 59  1  0  0  0  0
 30 69  1  0  0  0  0
 31 63  1  0  0  0  0
 31 69  2  0  0  0  0
 32 70  1  0  0  0  0
 32 73  1  0  0  0  0
 33 74  1  0  0  0  0
 33 79  2  0  0  0  0
 34 48  1  0  0  0  0
 34 75  1  0  0  0  0
 34 80  2  0  0  0  0
 35 64  1  0  0  0  0
 35 71  1  0  0  0  0
 35 81  2  0  0  0  0
 36 65  1  0  0  0  0
 36 76  1  0  0  0  0
 36 82  2  0  0  0  0
 37 72  1  0  0  0  0
 37 77  1  0  0  0  0
 37 83  2  0  0  0  0
 38 41  1  0  0  0  0
 39 48  1  0  0  0  0
 40 71  1  0  0  0  0
 41 43  1  0  0  0  0
 42 44  1  0  0  0  0
 42 45  1  0  0  0  0
 43 47  1  0  0  0  0
 44 49  1  0  0  0  0
 45 72  1  0  0  0  0
 46 49  1  0  0  0  0
 46 72  1  0  0  0  0
 47 75  1  0  0  0  0
 48 71  1  0  0  0  0
 49 70  1  0  0  0  0
 50 63  1  0  0  0  0
 51 63  1  0  0  0  0
 52 65  1  0  0  0  0
 53 66  1  0  0  0  0
 54 67  1  0  0  0  0
 55 67  1  0  0  0  0
 56 67  1  0  0  0  0
 57 78  1  0  0  0  0
 58 60  1  0  0  0  0
 59 66  1  0  0  0  0
 60 61  1  0  0  0  0
 61 62  1  0  0  0  0
 62 85  1  0  0  0  0
 64 67  1  0  0  0  0
 64 76  1  0  0  0  0
 65 78  1  0  0  0  0
 66 77  1  0  0  0  0
 68 70  1  0  0  0  0
M  CHG  1  78   1
M  ISO  4  37 100  62 101  77 100  85 101
M  END
> <Batch ID>
0082

> <Smiles>
CNC(C)C(=O)NC(C(=O)N1Cc2cc([101O:1][101CH2:1]CCCc3cc(CC(C)[100NH:0][100C:0](=O)N4CCCC(n5nc(-c6ccc(Oc7ccc(F)cc7F)cc6)c(C(N)=O)c5N)C4)nc(C(C)C)c3)ccc2CC1C(=O)NC1CCCc2ccccc21)C(C)(C)C

> <Shape>
0.228

> <Color>
0.062

> <Negative vol penalty>
0.000

$$$$

  -OEChem-04052318493D

 86 94  0     1  0  0  0  0  0999 V2000
  -17.1878  -30.3341   24.0930 C   0  0  0  0  0  0  0  0  0  0  0  0
  -17.8278  -29.3846   24.8831 C   0  0  0  0  0  0  0  0  0  0  0  0
  -24.1030  -14.4952   20.0752 C   0  0  0  0  0  0  0  0  0  0  0  0
  -26.2902  -14.7642   21.0656 C   0  0  0  0  0  0  0  0  0  0  0  0
  -17.4010  -30.3512   22.7153 C   0  0  0  0  0  0  0  0  0  0  0  0
  -18.6806  -28.4508   24.2956 C   0  0  0  0  0  0  0  0  0  0  0  0
  -24.6506  -24.7245   25.6339 C   0  0  0  0  0  0  0  0  0  0  0  0
  -24.2924  -13.1140   20.0320 C   0  0  0  0  0  0  0  0  0  0  0  0
  -26.4796  -13.3829   21.0224 C   0  0  0  0  0  0  0  0  0  0  0  0
  -25.1309  -23.4158   25.6128 C   0  0  0  0  0  0  0  0  0  0  0  0
  -24.0533   -9.4868   19.9931 C   0  0  0  0  0  0  0  0  0  0  0  0
  -22.9989   -8.6743   20.4096 C   0  0  0  0  0  0  0  0  0  0  0  0
  -25.4852  -23.5907   23.2331 C   0  0  0  0  0  0  0  0  0  0  0  0
  -23.0765   -9.6952   22.5980 C   0  0  0  0  0  0  0  0  0  0  0  0
  -29.2357  -22.3898   21.5809 C   0  0  0  0  0  0  0  0  0  0  0  0
  -31.2391  -22.3917   22.4990 C   0  0  0  0  0  0  0  0  0  0  0  0
  -25.1019  -15.3204   20.5919 C   0  0  0  0  0  0  0  0  0  0  0  0
  -24.3402  -17.4957   21.6853 C   0  0  0  0  0  0  0  0  0  0  0  0
  -18.2644  -29.4232   22.1119 C   0  0  0  0  0  0  0  0  0  0  0  0
  -24.5737  -25.4737   24.4510 C   0  0  0  0  0  0  0  0  0  0  0  0
  -18.9046  -28.4546   22.9083 C   0  0  0  0  0  0  0  0  0  0  0  0
  -25.0060  -24.9095   23.2423 C   0  0  0  0  0  0  0  0  0  0  0  0
  -25.4807  -12.5578   20.5056 C   0  0  0  0  0  0  0  0  0  0  0  0
  -25.5456  -22.8477   24.4118 C   0  0  0  0  0  0  0  0  0  0  0  0
  -24.6195  -10.4035   20.8791 C   0  0  0  0  0  0  0  0  0  0  0  0
  -22.5104   -8.7785   21.7120 C   0  0  0  0  0  0  0  0  0  0  0  0
  -24.1311  -10.5077   22.1815 C   0  0  0  0  0  0  0  0  0  0  0  0
  -24.9071  -16.7473   20.6363 C   0  0  0  0  0  0  0  0  0  0  0  0
  -30.1972  -22.8025   20.6889 C   0  0  0  0  0  0  0  0  0  0  0  0
  -24.3822  -18.7949   21.2419 C   0  0  0  0  0  0  0  0  0  0  0  0
  -23.8222  -17.0557   22.9478 C   0  0  0  0  0  0  0  0  0  0  0  0
  -22.2160  -26.8190   22.7972 C   0  0  0  0  0  0  0  0  0  0  0  0
  -24.6599  -28.0075   21.0261 C   0  0  0  0  0  0  0  0  0  0  0  0
  -27.8961  -27.7083   19.9846 C   0  0  0  0  0  0  0  0  0  0  0  0
  -27.8642  -21.6446   17.2915 C   0  0  0  0  0  0  0  0  0  0  0  0
  -18.4267  -29.4509   20.6127 C   0  0  0  0  0  0  0  0  0  0  0  0
  -24.0782  -26.8932   24.4950 C   0  0  0  0  0  0  0  0  0  0  0  0
  -24.9627  -25.6786   21.9480 C   0  0  0  0  0  0  0  0  0  0  0  0
  -19.6369  -28.6639   20.1164 C   0  0  0  0  0  0  0  0  0  0  0  0
  -24.3143  -21.3820   17.2178 C   0  0  0  0  0  0  0  0  0  0  0  0
  -19.6992  -27.2980   20.7925 C   0  0  0  0  0  0  0  0  0  0  0  0
  -24.0125  -20.2320   18.1802 C   0  0  0  0  0  0  0  0  0  0  0  0
  -25.5985  -21.1357   16.4291 C   0  0  0  0  0  0  0  0  0  0  0  0
  -26.4824  -19.6871   18.2162 C   0  0  0  0  0  0  0  0  0  0  0  0
  -19.8563  -27.4408   22.3112 C   0  0  1  0  0  0  0  0  0  0  0  0
  -23.5619  -27.3878   23.1473 C   0  0  1  0  0  0  0  0  0  0  0  0
  -25.2265  -19.9159   19.0744 C   0  0  2  0  0  0  0  0  0  0  0  0
  -31.0258  -24.3115   18.8559 C   0  0  0  0  0  0  0  0  0  0  0  0
  -29.6005  -28.8105   18.5090 C   0  0  0  0  0  0  0  0  0  0  0  0
  -29.4564  -19.1889   23.4781 C   0  0  0  0  0  0  0  0  0  0  0  0
  -23.2733  -26.8522   18.5658 C   0  0  0  0  0  0  0  0  0  0  0  0
  -25.4207  -27.1333   17.3097 C   0  0  0  0  0  0  0  0  0  0  0  0
  -24.2507  -29.1309   18.2388 C   0  0  0  0  0  0  0  0  0  0  0  0
  -26.8937  -18.6719   25.0125 C   0  0  0  0  0  0  0  0  0  0  0  0
  -28.6043  -19.7905   26.4512 C   0  0  0  0  0  0  0  0  0  0  0  0
  -29.7117  -28.2178   22.2656 C   0  0  0  0  0  0  0  0  0  0  0  0
  -29.3222  -21.6480   24.0397 C   0  0  0  0  0  0  0  0  0  0  0  0
  -30.1122  -22.0371   18.2671 C   0  0  0  0  0  0  0  0  0  0  0  0
  -26.6675  -21.0964   25.5651 C   0  0  0  0  0  0  0  0  0  1  0  0
  -30.0230  -23.2098   19.2864 C   0  0  1  0  0  0  0  0  0  0  0  0
  -25.4270  -27.5400   19.8128 C   0  0  1  0  0  0  0  0  0  0  0  0
  -29.0292  -28.7161   19.9152 C   0  0  2  0  0  0  0  0  0  0  0  0
  -28.5141  -20.3271   23.9175 C   0  0  2  0  0  0  0  0  0  0  0  0
  -24.5921  -27.6487   18.5057 C   0  0  0  0  0  0  0  0  0  0  0  0
  -27.6921  -19.9812   25.2234 C   0  0  0  0  0  0  0  0  0  0  0  0
  -31.4423  -22.8012   21.2665 N   0  0  0  0  0  0  0  0  0  0  0  0
  -25.2815  -17.5078   19.6041 N   0  0  0  0  0  0  0  0  0  0  0  0
  -29.9183  -22.1298   22.7358 N   0  0  0  0  0  0  0  0  0  0  0  0
  -24.9492  -18.7476   20.0024 N   0  0  0  0  0  0  0  0  0  0  0  0
  -24.4644  -27.0607   22.0416 N   0  0  0  0  0  0  0  0  0  0  0  0
  -26.7114  -20.8433   17.3357 N   0  0  0  0  0  0  0  0  0  0  0  0
  -23.9889  -19.9618   21.7952 N   0  0  0  0  0  0  0  0  0  0  0  0
  -23.8560  -15.6861   23.2432 N   0  0  0  0  0  0  0  0  0  0  0  0
  -21.2245  -27.7700   22.6491 N   0  0  0  0  0  0  0  0  0  0  0  0
  -26.6683  -28.3062   19.7944 N   0  0  0  0  0  0  0  0  0  0  0  0
  -28.8689  -21.3030   18.1885 N   0  0  0  0  0  0  0  0  0  0  0  0
  -30.1276  -28.3254   20.8435 N   0  3  0  0  0  0  0  0  0  0  0  0
  -23.3284  -17.8517   23.7821 O   0  0  0  0  0  0  0  0  0  0  0  0
  -22.0869  -25.6071   22.6693 O   0  0  0  0  0  0  0  0  0  0  0  0
  -24.2555  -29.1718   21.0742 O   0  0  0  0  0  0  0  0  0  0  0  0
  -28.0819  -26.5098   20.1838 O   0  0  0  0  0  0  0  0  0  0  0  0
  -27.9868  -22.5973   16.5141 O   0  0  0  0  0  0  0  0  0  0  0  0
  -25.6658  -11.2100   20.4638 O   0  0  0  0  0  0  0  0  0  0  0  0
  -26.0142  -21.5703   24.3883 O   0  0  0  0  0  0  0  0  0  1  0  0
  -21.4968   -7.9992   22.1114 F   0  0  0  0  0  0  0  0  0  0  0  0
  -24.6701  -11.3874   23.0367 F   0  0  0  0  0  0  0  0  0  0  0  0
  1  2  1  0  0  0  0
  1  5  2  0  0  0  0
  2  6  2  0  0  0  0
  3  8  2  0  0  0  0
  3 17  1  0  0  0  0
  4  9  1  0  0  0  0
  4 17  2  0  0  0  0
  5 19  1  0  0  0  0
  6 21  1  0  0  0  0
  7 10  2  0  0  0  0
  7 20  1  0  0  0  0
  8 23  1  0  0  0  0
  9 23  2  0  0  0  0
 10 24  1  0  0  0  0
 11 12  2  0  0  0  0
 11 25  1  0  0  0  0
 12 26  1  0  0  0  0
 13 22  1  0  0  0  0
 13 24  2  0  0  0  0
 14 26  2  0  0  0  0
 14 27  1  0  0  0  0
 15 29  2  0  0  0  0
 15 68  1  0  0  0  0
 16 66  2  0  0  0  0
 16 68  1  0  0  0  0
 17 28  1  0  0  0  0
 18 28  1  0  0  0  0
 18 30  2  0  0  0  0
 18 31  1  0  0  0  0
 19 21  2  0  0  0  0
 19 36  1  0  0  0  0
 20 22  2  0  0  0  0
 20 37  1  0  0  0  0
 21 45  1  0  0  0  0
 22 38  1  0  0  0  0
 23 83  1  0  0  0  0
 24 84  1  0  0  0  0
 25 27  2  0  0  0  0
 25 83  1  0  0  0  0
 26 85  1  0  0  0  0
 27 86  1  0  0  0  0
 28 67  2  0  0  0  0
 29 60  1  0  0  0  0
 29 66  1  0  0  0  0
 30 69  1  0  0  0  0
 30 72  1  0  0  0  0
 31 73  1  0  0  0  0
 31 78  2  0  0  0  0
 32 46  1  0  0  0  0
 32 74  1  0  0  0  0
 32 79  2  0  0  0  0
 33 61  1  0  0  0  0
 33 70  1  0  0  0  0
 33 80  2  0  0  0  0
 34 62  1  0  0  0  0
 34 75  1  0  0  0  0
 34 81  2  0  0  0  0
 35 71  1  0  0  0  0
 35 76  1  0  0  0  0
 35 82  2  0  0  0  0
 36 39  1  0  0  0  0
 37 46  1  0  0  0  0
 38 70  1  0  0  0  0
 39 41  1  0  0  0  0
 40 42  1  0  0  0  0
 40 43  1  0  0  0  0
 41 45  1  0  0  0  0
 42 47  1  0  0  0  0
 43 71  1  0  0  0  0
 44 47  1  0  0  0  0
 44 71  1  0  0  0  0
 45 74  1  0  0  0  0
 46 70  1  0  0  0  0
 47 69  1  0  0  0  0
 48 60  1  0  0  0  0
 49 62  1  0  0  0  0
 50 63  1  0  0  0  0
 51 64  1  0  0  0  0
 52 64  1  0  0  0  0
 53 64  1  0  0  0  0
 54 65  1  0  0  0  0
 55 65  1  0  0  0  0
 56 77  1  0  0  0  0
 57 63  1  0  0  0  0
 57 68  1  0  0  0  0
 58 60  1  0  0  0  0
 58 76  1  0  0  0  0
 59 65  1  0  0  0  0
 59 84  1  0  0  0  0
 61 64  1  0  0  0  0
 61 75  1  0  0  0  0
 62 77  1  0  0  0  0
 63 65  1  0  0  0  0
 67 69  1  0  0  0  0
M  CHG  1  77   1
M  ISO  4  35 100  59 101  76 100  84 101
M  END
> <Batch ID>
0082

> <Smiles>
CNC(C)C(=O)NC(C(=O)N1Cc2cc([101O:1][101CH2:1]C(C)(C)C(C)Cn3cnc(C(C)C[100NH:0][100C:0](=O)N4CCCC(n5nc(-c6ccc(Oc7ccc(F)cc7F)cc6)c(C(N)=O)c5N)C4)c3)ccc2CC1C(=O)NC1CCCc2ccccc21)C(C)(C)C

> <Shape>
0.200

> <Color>
0.067

> <Negative vol penalty>
0.000

$$$$

  -OEChem-04052318493D

 77 84  0     1  0  0  0  0  0999 V2000
  -27.8763  -18.4899   14.9946 C   0  0  0  0  0  0  0  0  0  0  0  0
  -28.4992  -17.8119   16.0375 C   0  0  0  0  0  0  0  0  0  0  0  0
  -27.7460  -24.0291   21.4787 C   0  0  0  0  0  0  0  0  0  0  0  0
  -28.4159  -23.4860   19.2218 C   0  0  0  0  0  0  0  0  0  0  0  0
  -26.4890  -18.6281   14.9846 C   0  0  0  0  0  0  0  0  0  0  0  0
  -27.7350  -17.2726   17.0718 C   0  0  0  0  0  0  0  0  0  0  0  0
  -29.1654  -12.5717   18.2967 C   0  0  0  0  0  0  0  0  0  0  0  0
  -27.8202  -25.3882   21.1736 C   0  0  0  0  0  0  0  0  0  0  0  0
  -28.4900  -24.8451   18.9168 C   0  0  0  0  0  0  0  0  0  0  0  0
  -30.3095  -12.4387   19.0823 C   0  0  0  0  0  0  0  0  0  0  0  0
  -27.4835  -28.9964   20.8864 C   0  0  0  0  0  0  0  0  0  0  0  0
  -26.4390  -29.8153   21.3153 C   0  0  0  0  0  0  0  0  0  0  0  0
  -28.9260  -12.1294   21.0341 C   0  0  0  0  0  0  0  0  0  0  0  0
  -24.8802  -28.5108   20.0092 C   0  0  0  0  0  0  0  0  0  0  0  0
  -28.0439  -23.0780   20.5028 C   0  0  0  0  0  0  0  0  0  0  0  0
  -26.8467  -20.8329   20.6868 C   0  0  0  0  0  0  0  0  0  0  0  0
  -25.7066  -18.0818   16.0143 C   0  0  0  0  0  0  0  0  0  0  0  0
  -27.8910  -12.4954   18.8767 C   0  0  0  0  0  0  0  0  0  0  0  0
  -26.3360  -17.4048   17.0763 C   0  0  0  0  0  0  0  0  0  0  0  0
  -27.7673  -12.2592   20.2533 C   0  0  0  0  0  0  0  0  0  0  0  0
  -28.1922  -25.7962   19.8927 C   0  0  0  0  0  0  0  0  0  0  0  0
  -30.1900  -12.2203   20.4517 C   0  0  0  0  0  0  0  0  0  0  0  0
  -27.2264  -27.9348   20.0189 C   0  0  0  0  0  0  0  0  0  0  0  0
  -25.1373  -29.5725   20.8767 C   0  0  0  0  0  0  0  0  0  0  0  0
  -25.9248  -27.6920   19.5803 C   0  0  0  0  0  0  0  0  0  0  0  0
  -27.9681  -21.6740   20.8175 C   0  0  0  0  0  0  0  0  0  0  0  0
  -27.2879  -19.6039   21.1127 C   0  0  0  0  0  0  0  0  0  0  0  0
  -25.5246  -21.1355   20.2221 C   0  0  0  0  0  0  0  0  0  0  0  0
  -25.4315  -14.4892   19.1582 C   0  0  0  0  0  0  0  0  0  0  0  0
  -23.9646  -11.8833   20.4150 C   0  0  0  0  0  0  0  0  0  0  0  0
  -24.2608   -8.8635   21.9770 C   0  0  0  0  0  0  0  0  0  0  0  0
  -32.6684  -17.1759   21.2173 C   0  0  0  0  0  0  0  0  0  0  0  0
  -24.2143  -18.2977   15.9846 C   0  0  0  0  0  0  0  0  0  0  0  0
  -26.6665  -12.6143   18.0112 C   0  0  0  0  0  0  0  0  0  0  0  0
  -26.4219  -12.1490   20.9213 C   0  0  0  0  0  0  0  0  0  0  0  0
  -23.4462  -17.3727   16.9252 C   0  0  0  0  0  0  0  0  0  0  0  0
  -30.4693  -17.5831   24.0627 C   0  0  0  0  0  0  0  0  0  0  0  0
  -24.1112  -17.3350   18.2975 C   0  0  0  0  0  0  0  0  0  0  0  0
  -29.4669  -18.6076   23.5282 C   0  0  0  0  0  0  0  0  0  0  0  0
  -31.8797  -17.8747   23.5588 C   0  0  0  0  0  0  0  0  0  0  0  0
  -30.9988  -18.9790   21.5394 C   0  0  0  0  0  0  0  0  0  0  0  0
  -25.5394  -16.7844   18.2035 C   0  0  1  0  0  0  0  0  0  0  0  0
  -25.4230  -13.0326   18.7897 C   0  0  1  0  0  0  0  0  0  0  0  0
  -29.5501  -18.7258   21.9948 C   0  0  2  0  0  0  0  0  0  0  0  0
  -22.8834   -6.9849   22.9103 C   0  0  0  0  0  0  0  0  0  0  0  0
  -23.2797  -13.5962   22.8455 C   0  0  0  0  0  0  0  0  0  0  0  0
  -22.7757  -11.4896   24.1010 C   0  0  0  0  0  0  0  0  0  0  0  0
  -21.4386  -12.0860   22.0813 C   0  0  0  0  0  0  0  0  0  0  0  0
  -35.5117  -13.1561   20.8036 C   0  0  0  0  0  0  0  0  0  0  0  0
  -35.3418  -14.1959   23.0633 C   0  0  0  0  0  0  0  0  0  0  0  0
  -25.4544   -6.9047   20.1068 C   0  0  0  0  0  0  0  0  0  0  0  0
  -33.2850  -13.2139   22.0201 C   0  0  0  0  0  0  0  0  0  0  0  0
  -34.3459  -15.3550   21.0520 C   0  0  0  0  0  0  0  0  0  0  0  0
  -32.4717  -12.7950   20.7974 C   0  0  0  0  0  0  0  0  0  1  0  0
  -23.8248  -11.2993   21.8001 C   0  0  1  0  0  0  0  0  0  0  0  0
  -23.6236   -7.5154   21.6923 C   0  0  2  0  0  0  0  0  0  0  0  0
  -22.8552  -12.1217   22.6950 C   0  0  0  0  0  0  0  0  0  0  0  0
  -34.5983  -13.9869   21.7265 C   0  0  0  0  0  0  0  0  0  0  0  0
  -29.0409  -21.0334   21.2895 N   0  0  0  0  0  0  0  0  0  0  0  0
  -28.5956  -19.7768   21.4593 N   0  0  0  0  0  0  0  0  0  0  0  0
  -25.2546  -12.2785   20.0335 N   0  0  0  0  0  0  0  0  0  0  0  0
  -31.8933  -17.9561   22.0914 N   0  0  0  0  0  0  0  0  0  0  0  0
  -26.6809  -18.4029   21.2208 N   0  0  0  0  0  0  0  0  0  0  0  0
  -25.2410  -22.4487   19.8227 N   0  0  0  0  0  0  0  0  0  0  0  0
  -25.5179  -15.3430   18.0751 N   0  0  0  0  0  0  0  0  0  0  0  0
  -23.4328   -9.9059   21.6178 N   0  0  0  0  0  0  0  0  0  0  0  0
  -33.4940  -16.2351   21.8206 N   0  0  0  0  0  0  0  0  0  0  0  0
  -24.6646   -6.5217   21.3053 N   0  3  0  0  0  0  0  0  0  0  0  0
  -24.6168  -20.2709   20.1782 O   0  0  0  0  0  0  0  0  0  0  0  0
  -25.3631  -14.8145   20.3377 O   0  0  0  0  0  0  0  0  0  0  0  0
  -22.9672  -11.9786   19.6954 O   0  0  0  0  0  0  0  0  0  0  0  0
  -25.3797   -8.9801   22.4721 O   0  0  0  0  0  0  0  0  0  0  0  0
  -32.6239  -17.3043   19.9891 O   0  0  0  0  0  0  0  0  0  0  0  0
  -28.2644  -27.1222   19.5946 O   0  0  0  0  0  0  0  0  0  0  0  0
  -31.3050  -12.0907   21.2209 O   0  0  0  0  0  0  0  0  0  1  0  0
  -24.1341  -30.3580   21.2899 F   0  0  0  0  0  0  0  0  0  0  0  0
  -25.6714  -26.6729   18.7478 F   0  0  0  0  0  0  0  0  0  0  0  0
  1  2  1  0  0  0  0
  1  5  2  0  0  0  0
  2  6  2  0  0  0  0
  3  8  2  0  0  0  0
  3 15  1  0  0  0  0
  4  9  1  0  0  0  0
  4 15  2  0  0  0  0
  5 17  1  0  0  0  0
  6 19  1  0  0  0  0
  7 10  2  0  0  0  0
  7 18  1  0  0  0  0
  8 21  1  0  0  0  0
  9 21  2  0  0  0  0
 10 22  1  0  0  0  0
 11 12  2  0  0  0  0
 11 23  1  0  0  0  0
 12 24  1  0  0  0  0
 13 20  1  0  0  0  0
 13 22  2  0  0  0  0
 14 24  2  0  0  0  0
 14 25  1  0  0  0  0
 15 26  1  0  0  0  0
 16 26  1  0  0  0  0
 16 27  2  0  0  0  0
 16 28  1  0  0  0  0
 17 19  2  0  0  0  0
 17 33  1  0  0  0  0
 18 20  2  0  0  0  0
 18 34  1  0  0  0  0
 19 42  1  0  0  0  0
 20 35  1  0  0  0  0
 21 74  1  0  0  0  0
 22 75  1  0  0  0  0
 23 25  2  0  0  0  0
 23 74  1  0  0  0  0
 24 76  1  0  0  0  0
 25 77  1  0  0  0  0
 26 59  2  0  0  0  0
 27 60  1  0  0  0  0
 27 63  1  0  0  0  0
 28 64  1  0  0  0  0
 28 69  2  0  0  0  0
 29 43  1  0  0  0  0
 29 65  1  0  0  0  0
 29 70  2  0  0  0  0
 30 55  1  0  0  0  0
 30 61  1  0  0  0  0
 30 71  2  0  0  0  0
 31 56  1  0  0  0  0
 31 66  1  0  0  0  0
 31 72  2  0  0  0  0
 32 62  1  0  0  0  0
 32 67  1  0  0  0  0
 32 73  2  0  0  0  0
 33 36  1  0  0  0  0
 34 43  1  0  0  0  0
 35 61  1  0  0  0  0
 36 38  1  0  0  0  0
 37 39  1  0  0  0  0
 37 40  1  0  0  0  0
 38 42  1  0  0  0  0
 39 44  1  0  0  0  0
 40 62  1  0  0  0  0
 41 44  1  0  0  0  0
 41 62  1  0  0  0  0
 42 65  1  0  0  0  0
 43 61  1  0  0  0  0
 44 60  1  0  0  0  0
 45 56  1  0  0  0  0
 46 57  1  0  0  0  0
 47 57  1  0  0  0  0
 48 57  1  0  0  0  0
 49 58  1  0  0  0  0
 50 58  1  0  0  0  0
 51 68  1  0  0  0  0
 52 54  1  0  0  0  0
 52 58  1  0  0  0  0
 53 58  1  0  0  0  0
 53 67  1  0  0  0  0
 54 75  1  0  0  0  0
 55 57  1  0  0  0  0
 55 66  1  0  0  0  0
 56 68  1  0  0  0  0
 59 60  1  0  0  0  0
M  CHG  1  68   1
M  ISO  4  32 100  54 101  67 100  75 101
M  END
> <Batch ID>
0082

> <Smiles>
CNC(C)C(=O)NC(C(=O)N1Cc2cc([101O:1][101CH2:1]CC(C)(C)C[100NH:0][100C:0](=O)N3CCCC(n4nc(-c5ccc(Oc6ccc(F)cc6F)cc5)c(C(N)=O)c4N)C3)ccc2CC1C(=O)NC1CCCc2ccccc21)C(C)(C)C

> <Shape>
0.229

> <Color>
0.065

> <Negative vol penalty>
0.000

$$$$

  -OEChem-04052318493D

 83 91  0     1  0  0  0  0  0999 V2000
  -27.7674  -23.1793   10.9310 C   0  0  0  0  0  0  0  0  0  0  0  0
  -27.4184  -24.1807   11.8315 C   0  0  0  0  0  0  0  0  0  0  0  0
  -29.6526  -17.9621   20.1505 C   0  0  0  0  0  0  0  0  0  0  0  0
  -27.3298  -18.6202   20.2418 C   0  0  0  0  0  0  0  0  0  0  0  0
  -26.9680  -22.0435   10.8091 C   0  0  0  0  0  0  0  0  0  0  0  0
  -26.2692  -24.0473   12.6099 C   0  0  0  0  0  0  0  0  0  0  0  0
  -25.4663  -26.0092   18.3555 C   0  0  0  0  0  0  0  0  0  0  0  0
  -29.3009  -16.6675   20.5324 C   0  0  0  0  0  0  0  0  0  0  0  0
  -26.9780  -17.3256   20.6238 C   0  0  0  0  0  0  0  0  0  0  0  0
  -24.8569  -27.1475   18.8815 C   0  0  0  0  0  0  0  0  0  0  0  0
  -27.9961  -13.9087   19.0767 C   0  0  0  0  0  0  0  0  0  0  0  0
  -28.5748  -12.8477   18.3804 C   0  0  0  0  0  0  0  0  0  0  0  0
  -22.8225  -25.8956   19.2177 C   0  0  0  0  0  0  0  0  0  0  0  0
  -29.5533  -12.0339   20.4341 C   0  0  0  0  0  0  0  0  0  0  0  0
  -24.0861  -30.3529   22.5386 C   0  0  0  0  0  0  0  0  0  0  0  0
  -28.6671  -18.9385   20.0052 C   0  0  0  0  0  0  0  0  0  0  0  0
  -29.1211  -20.7810   18.3003 C   0  0  0  0  0  0  0  0  0  0  0  0
  -25.8137  -21.8917   11.5934 C   0  0  0  0  0  0  0  0  0  0  0  0
  -24.7538  -24.8064   18.2464 C   0  0  0  0  0  0  0  0  0  0  0  0
  -25.4529  -22.9090   12.4974 C   0  0  0  0  0  0  0  0  0  0  0  0
  -23.4260  -24.7428   18.6924 C   0  0  0  0  0  0  0  0  0  0  0  0
  -27.9636  -16.3493   20.7690 C   0  0  0  0  0  0  0  0  0  0  0  0
  -23.5339  -27.0916   19.3100 C   0  0  0  0  0  0  0  0  0  0  0  0
  -28.1959  -14.0325   20.4516 C   0  0  0  0  0  0  0  0  0  0  0  0
  -29.3534  -11.9102   19.0592 C   0  0  0  0  0  0  0  0  0  0  0  0
  -28.9745  -13.0950   21.1303 C   0  0  0  0  0  0  0  0  0  0  0  0
  -29.0299  -20.2762   19.6113 C   0  0  0  0  0  0  0  0  0  0  0  0
  -25.1373  -29.9350   23.3153 C   0  0  0  0  0  0  0  0  0  0  0  0
  -29.4980  -22.0918   18.4626 C   0  0  0  0  0  0  0  0  0  0  0  0
  -28.8861  -20.1239   17.0478 C   0  0  0  0  0  0  0  0  0  0  0  0
  -23.8672  -22.9352   15.8348 C   0  0  0  0  0  0  0  0  0  0  0  0
  -22.8606  -20.9889   18.2266 C   0  0  0  0  0  0  0  0  0  0  0  0
  -21.8351  -20.6718   21.4661 C   0  0  0  0  0  0  0  0  0  0  0  0
  -28.9108  -26.9389   20.9339 C   0  0  0  0  0  0  0  0  0  0  0  0
  -24.9553  -20.6680   11.3925 C   0  0  0  0  0  0  0  0  0  0  0  0
  -25.4339  -23.5804   17.7016 C   0  0  0  0  0  0  0  0  0  0  0  0
  -22.6237  -23.4704   18.6157 C   0  0  0  0  0  0  0  0  0  0  0  0
  -23.9573  -20.4317   12.5232 C   0  0  0  0  0  0  0  0  0  0  0  0
  -31.1093  -24.5726   22.5663 C   0  0  0  0  0  0  0  0  0  0  0  0
  -23.2380  -21.7286   12.8800 C   0  0  0  0  0  0  0  0  0  0  0  0
  -30.7662  -23.2784   21.8265 C   0  0  0  0  0  0  0  0  0  0  0  0
  -29.8674  -25.4329   22.7803 C   0  0  0  0  0  0  0  0  0  0  0  0
  -28.7781  -24.4682   20.7912 C   0  0  0  0  0  0  0  0  0  0  0  0
  -24.2274  -22.7895   13.3771 C   0  0  1  0  0  0  0  0  0  0  0  0
  -24.4537  -22.5436   17.1615 C   0  0  1  0  0  0  0  0  0  0  0  0
  -29.9957  -23.5648   20.5240 C   0  0  2  0  0  0  0  0  0  0  0  0
  -26.4318  -30.8818   25.2423 C   0  0  0  0  0  0  0  0  0  0  0  0
  -21.0436  -18.9617   23.1234 C   0  0  0  0  0  0  0  0  0  0  0  0
  -20.1283  -20.9418   16.8695 C   0  0  0  0  0  0  0  0  0  0  0  0
  -19.1632  -20.0472   18.9994 C   0  0  0  0  0  0  0  0  0  0  0  0
  -20.8867  -18.7331   17.7644 C   0  0  0  0  0  0  0  0  0  0  0  0
  -24.1187  -21.1971   23.2739 C   0  0  0  0  0  0  0  0  0  0  0  0
  -27.7867  -29.9723   21.6936 C   0  0  0  0  0  0  0  0  0  0  0  0
  -27.6909  -30.0304   23.2250 C   0  0  0  0  0  0  0  0  0  0  0  0
  -21.9313  -29.1436   21.8065 C   0  0  0  0  0  0  0  0  0  0  0  0
  -29.1164  -29.3956   21.2158 C   0  0  0  0  0  0  0  0  0  0  0  0
  -21.9177  -27.9971   20.8013 C   0  0  0  0  0  0  0  0  0  1  0  0
  -26.3469  -30.6699   23.7073 C   0  0  1  0  0  0  0  0  0  0  0  0
  -21.5766  -20.8260   19.0037 C   0  0  1  0  0  0  0  0  0  0  0  0
  -22.2457  -19.7056   22.5627 C   0  0  2  0  0  0  0  0  0  0  0  0
  -20.4530  -20.1617   18.1590 C   0  0  0  0  0  0  0  0  0  0  0  0
  -29.3251  -21.1915   20.5380 N   0  0  0  0  0  0  0  0  0  0  0  0
  -24.9218  -28.6490   23.7267 N   0  0  0  0  0  0  0  0  0  0  0  0
  -23.7585  -28.2493   23.2247 N   0  0  0  0  0  0  0  0  0  0  0  0
  -23.2591  -29.2724   22.5125 N   0  0  0  0  0  0  0  0  0  0  0  0
  -29.6057  -22.2847   19.8085 N   0  0  0  0  0  0  0  0  0  0  0  0
  -23.3310  -22.3003   18.0696 N   0  0  0  0  0  0  0  0  0  0  0  0
  -29.1908  -25.6841   21.5000 N   0  0  0  0  0  0  0  0  0  0  0  0
  -29.7445  -23.0865   17.5839 N   0  0  0  0  0  0  0  0  0  0  0  0
  -28.5054  -18.7751   17.0621 N   0  0  0  0  0  0  0  0  0  0  0  0
  -24.6110  -22.5207   14.7465 N   0  0  0  0  0  0  0  0  0  0  0  0
  -21.9238  -20.0944   20.2171 N   0  0  0  0  0  0  0  0  0  0  0  0
  -29.3284  -28.0398   21.6717 N   0  0  0  0  0  0  0  0  0  0  0  0
  -22.9068  -20.4393   23.6787 N   0  3  0  0  0  0  0  0  0  0  0  0
  -29.0261  -20.7107   15.9480 O   0  0  0  0  0  0  0  0  0  0  0  0
  -22.8168  -23.5654   15.8009 O   0  0  0  0  0  0  0  0  0  0  0  0
  -23.4292  -19.9887   17.7817 O   0  0  0  0  0  0  0  0  0  0  0  0
  -21.4685  -21.8223   21.6950 O   0  0  0  0  0  0  0  0  0  0  0  0
  -28.3355  -27.0688   19.8479 O   0  0  0  0  0  0  0  0  0  0  0  0
  -27.6200  -15.0860   21.1415 O   0  0  0  0  0  0  0  0  0  0  0  0
  -22.9364  -28.2014   19.8231 O   0  0  0  0  0  0  0  0  0  1  0  0
  -29.9079  -10.8904   18.3907 F   0  0  0  0  0  0  0  0  0  0  0  0
  -29.1691  -13.2079   22.4514 F   0  0  0  0  0  0  0  0  0  0  0  0
  1  2  1  0  0  0  0
  1  5  2  0  0  0  0
  2  6  2  0  0  0  0
  3  8  2  0  0  0  0
  3 16  1  0  0  0  0
  4  9  1  0  0  0  0
  4 16  2  0  0  0  0
  5 18  1  0  0  0  0
  6 20  1  0  0  0  0
  7 10  2  0  0  0  0
  7 19  1  0  0  0  0
  8 22  1  0  0  0  0
  9 22  2  0  0  0  0
 10 23  1  0  0  0  0
 11 12  2  0  0  0  0
 11 24  1  0  0  0  0
 12 25  1  0  0  0  0
 13 21  1  0  0  0  0
 13 23  2  0  0  0  0
 14 25  2  0  0  0  0
 14 26  1  0  0  0  0
 15 28  2  0  0  0  0
 15 65  1  0  0  0  0
 16 27  1  0  0  0  0
 17 27  1  0  0  0  0
 17 29  2  0  0  0  0
 17 30  1  0  0  0  0
 18 20  2  0  0  0  0
 18 35  1  0  0  0  0
 19 21  2  0  0  0  0
 19 36  1  0  0  0  0
 20 44  1  0  0  0  0
 21 37  1  0  0  0  0
 22 80  1  0  0  0  0
 23 81  1  0  0  0  0
 24 26  2  0  0  0  0
 24 80  1  0  0  0  0
 25 82  1  0  0  0  0
 26 83  1  0  0  0  0
 27 62  2  0  0  0  0
 28 58  1  0  0  0  0
 28 63  1  0  0  0  0
 29 66  1  0  0  0  0
 29 69  1  0  0  0  0
 30 70  1  0  0  0  0
 30 75  2  0  0  0  0
 31 45  1  0  0  0  0
 31 71  1  0  0  0  0
 31 76  2  0  0  0  0
 32 59  1  0  0  0  0
 32 67  1  0  0  0  0
 32 77  2  0  0  0  0
 33 60  1  0  0  0  0
 33 72  1  0  0  0  0
 33 78  2  0  0  0  0
 34 68  1  0  0  0  0
 34 73  1  0  0  0  0
 34 79  2  0  0  0  0
 35 38  1  0  0  0  0
 36 45  1  0  0  0  0
 37 67  1  0  0  0  0
 38 40  1  0  0  0  0
 39 41  1  0  0  0  0
 39 42  1  0  0  0  0
 40 44  1  0  0  0  0
 41 46  1  0  0  0  0
 42 68  1  0  0  0  0
 43 46  1  0  0  0  0
 43 68  1  0  0  0  0
 44 71  1  0  0  0  0
 45 67  1  0  0  0  0
 46 66  1  0  0  0  0
 47 58  1  0  0  0  0
 48 60  1  0  0  0  0
 49 61  1  0  0  0  0
 50 61  1  0  0  0  0
 51 61  1  0  0  0  0
 52 74  1  0  0  0  0
 53 54  1  0  0  0  0
 53 56  1  0  0  0  0
 54 58  1  0  0  0  0
 55 57  1  0  0  0  0
 55 65  1  0  0  0  0
 56 73  1  0  0  0  0
 57 81  1  0  0  0  0
 59 61  1  0  0  0  0
 59 72  1  0  0  0  0
 60 74  1  0  0  0  0
 62 66  1  0  0  0  0
 63 64  2  0  0  0  0
 64 65  1  0  0  0  0
M  CHG  1  74   1
M  ISO  4  34 100  57 101  73 100  81 101
M  END
> <Batch ID>
0082

> <Smiles>
CNC(C)C(=O)NC(C(=O)N1Cc2cc([101O:1][101CH2:1]Cn3cc(C(C)CCC[100NH:0][100C:0](=O)N4CCCC(n5nc(-c6ccc(Oc7ccc(F)cc7F)cc6)c(C(N)=O)c5N)C4)nn3)ccc2CC1C(=O)NC1CCCc2ccccc21)C(C)(C)C

> <Shape>
0.196

> <Color>
0.069

> <Negative vol penalty>
0.000

$$$$

  -OEChem-04052318493D

 85 93  0     1  0  0  0  0  0999 V2000
  -23.2002  -19.8636   23.5957 C   0  0  0  0  0  0  0  0  0  0  0  0
  -23.9574  -20.7118   22.7941 C   0  0  0  0  0  0  0  0  0  0  0  0
  -25.9074  -13.4982   21.9373 C   0  0  0  0  0  0  0  0  0  0  0  0
  -25.4489  -14.4377   19.7592 C   0  0  0  0  0  0  0  0  0  0  0  0
  -21.9225  -20.2464   24.0016 C   0  0  0  0  0  0  0  0  0  0  0  0
  -23.4369  -21.9430   22.3971 C   0  0  0  0  0  0  0  0  0  0  0  0
  -26.7867  -25.7116   22.8682 C   0  0  0  0  0  0  0  0  0  0  0  0
  -24.8012  -12.6585   21.8080 C   0  0  0  0  0  0  0  0  0  0  0  0
  -24.3427  -13.5979   19.6298 C   0  0  0  0  0  0  0  0  0  0  0  0
  -27.7685  -25.8175   21.8840 C   0  0  0  0  0  0  0  0  0  0  0  0
  -24.0386   -9.7694   20.2255 C   0  0  0  0  0  0  0  0  0  0  0  0
  -24.1963   -8.4300   20.5816 C   0  0  0  0  0  0  0  0  0  0  0  0
  -26.5018  -27.5718   20.8176 C   0  0  0  0  0  0  0  0  0  0  0  0
  -30.3351  -24.5184   17.8290 C   0  0  0  0  0  0  0  0  0  0  0  0
  -27.9977  -24.4625   17.2650 C   0  0  0  0  0  0  0  0  0  0  0  0
  -22.4678   -8.6707   22.2524 C   0  0  0  0  0  0  0  0  0  0  0  0
  -26.2312  -14.3879   20.9129 C   0  0  0  0  0  0  0  0  0  0  0  0
  -28.6972  -14.9859   20.6508 C   0  0  0  0  0  0  0  0  0  0  0  0
  -21.3898  -21.4870   23.6174 C   0  0  0  0  0  0  0  0  0  0  0  0
  -25.6478  -26.5288   22.8283 C   0  0  0  0  0  0  0  0  0  0  0  0
  -22.1503  -22.3422   22.7972 C   0  0  0  0  0  0  0  0  0  0  0  0
  -25.5082  -27.4761   21.8039 C   0  0  0  0  0  0  0  0  0  0  0  0
  -29.1505  -25.1882   17.5438 C   0  0  0  0  0  0  0  0  0  0  0  0
  -24.0189  -12.7083   20.6542 C   0  0  0  0  0  0  0  0  0  0  0  0
  -27.6247  -26.7457   20.8569 C   0  0  0  0  0  0  0  0  0  0  0  0
  -23.0955  -10.5595   20.8828 C   0  0  0  0  0  0  0  0  0  0  0  0
  -23.4109   -7.8807   21.5950 C   0  0  0  0  0  0  0  0  0  0  0  0
  -22.3101  -10.0101   21.8963 C   0  0  0  0  0  0  0  0  0  0  0  0
  -27.3734  -15.2560   21.0462 C   0  0  0  0  0  0  0  0  0  0  0  0
  -30.3144  -23.1330   17.8227 C   0  0  0  0  0  0  0  0  0  0  0  0
  -28.0817  -23.0796   17.2837 C   0  0  0  0  0  0  0  0  0  0  0  0
  -29.3953  -16.1186   20.9915 C   0  0  0  0  0  0  0  0  0  0  0  0
  -29.2468  -13.8157   20.0309 C   0  0  0  0  0  0  0  0  0  0  0  0
  -22.5233  -26.0106   22.5595 C   0  0  0  0  0  0  0  0  0  0  0  0
  -22.3436  -29.2083   23.0740 C   0  0  0  0  0  0  0  0  0  0  0  0
  -23.8703  -32.2570   22.9256 C   0  0  0  0  0  0  0  0  0  0  0  0
  -29.8615  -21.6769   21.1759 C   0  0  0  0  0  0  0  0  0  0  0  0
  -19.9855  -21.8369   24.0418 C   0  0  0  0  0  0  0  0  0  0  0  0
  -24.6107  -26.4207   23.9124 C   0  0  0  0  0  0  0  0  0  0  0  0
  -24.3143  -28.3910   21.7272 C   0  0  0  0  0  0  0  0  0  0  0  0
  -19.6539  -23.3190   23.8875 C   0  0  0  0  0  0  0  0  0  0  0  0
  -28.0388  -20.1024   23.7980 C   0  0  0  0  0  0  0  0  0  0  0  0
  -20.1105  -23.8290   22.5243 C   0  0  0  0  0  0  0  0  0  0  0  0
  -27.8073  -18.6816   23.2806 C   0  0  0  0  0  0  0  0  0  0  0  0
  -27.9644  -21.1320   22.6727 C   0  0  0  0  0  0  0  0  0  0  0  0
  -28.6156  -19.4374   21.0059 C   0  0  0  0  0  0  0  0  0  0  0  0
  -21.6300  -23.6964   22.3663 C   0  0  1  0  0  0  0  0  0  0  0  0
  -23.2440  -26.9481   23.4865 C   0  0  1  0  0  0  0  0  0  0  0  0
  -28.7366  -18.3581   22.0953 C   0  0  2  0  0  0  0  0  0  0  0  0
  -28.7596  -27.2457   16.1490 C   0  0  0  0  0  0  0  0  0  0  0  0
  -26.4367  -21.3928   18.1794 C   0  0  0  0  0  0  0  0  0  0  0  0
  -27.0311  -21.3959   15.7295 C   0  0  0  0  0  0  0  0  0  0  0  0
  -23.4582  -34.6906   23.3785 C   0  0  0  0  0  0  0  0  0  0  0  0
  -20.6804  -29.3989   20.5231 C   0  0  0  0  0  0  0  0  0  0  0  0
  -21.1066  -31.8660   20.5125 C   0  0  0  0  0  0  0  0  0  0  0  0
  -19.8650  -30.8246   22.4090 C   0  0  0  0  0  0  0  0  0  0  0  0
  -26.0365  -32.3683   24.9391 C   0  0  0  0  0  0  0  0  0  0  0  0
  -31.5668  -22.3806   18.1259 C   0  0  0  0  0  0  0  0  0  0  0  0
  -31.7511  -22.0713   19.6161 C   0  0  0  0  0  0  0  0  0  0  0  0
  -28.1548  -27.2652   18.5975 C   0  0  0  0  0  0  0  0  0  1  0  0
  -29.1156  -26.7085   17.5380 C   0  0  1  0  0  0  0  0  0  0  0  0
  -26.8644  -22.2691   16.9872 C   0  0  0  0  0  0  0  0  0  0  0  0
  -22.3538  -30.4350   22.1941 C   0  0  1  0  0  0  0  0  0  0  0  0
  -23.9811  -33.3786   23.9425 C   0  0  2  0  0  0  0  0  0  0  0  0
  -21.0232  -30.6127   21.4098 C   0  0  0  0  0  0  0  0  0  0  0  0
  -27.2362  -16.4655   21.5961 N   0  0  0  0  0  0  0  0  0  0  0  0
  -29.2143  -22.3937   17.5565 N   0  0  0  0  0  0  0  0  0  0  0  0
  -28.4828  -16.9653   21.5489 N   0  0  0  0  0  0  0  0  0  0  0  0
  -23.3244  -28.2427   22.8069 N   0  0  0  0  0  0  0  0  0  0  0  0
  -28.8704  -20.7676   21.5808 N   0  0  0  0  0  0  0  0  0  0  0  0
  -30.6945  -16.4630   20.8658 N   0  0  0  0  0  0  0  0  0  0  0  0
  -28.3893  -12.7433   19.7497 N   0  0  0  0  0  0  0  0  0  0  0  0
  -22.3073  -24.7523   23.0881 N   0  0  0  0  0  0  0  0  0  0  0  0
  -22.6898  -31.5578   23.0629 N   0  0  0  0  0  0  0  0  0  0  0  0
  -30.6818  -21.2502   20.1387 N   0  0  0  0  0  0  0  0  0  0  0  0
  -25.4024  -33.5737   24.3458 N   0  3  0  0  0  0  0  0  0  0  0  0
  -30.4654  -13.7172   19.7501 O   0  0  0  0  0  0  0  0  0  0  0  0
  -22.1867  -26.4005   21.4476 O   0  0  0  0  0  0  0  0  0  0  0  0
  -21.5012  -29.1138   23.9701 O   0  0  0  0  0  0  0  0  0  0  0  0
  -24.7420  -32.0266   22.0904 O   0  0  0  0  0  0  0  0  0  0  0  0
  -30.0082  -22.7846   21.7036 O   0  0  0  0  0  0  0  0  0  0  0  0
  -22.9395  -11.8888   20.5276 O   0  0  0  0  0  0  0  0  0  0  0  0
  -28.5813  -26.8507   19.8947 O   0  0  0  0  0  0  0  0  0  1  0  0
  -23.5614   -6.5941   21.9359 F   0  0  0  0  0  0  0  0  0  0  0  0
  -21.4016  -10.7639   22.5306 F   0  0  0  0  0  0  0  0  0  0  0  0
  1  2  1  0  0  0  0
  1  5  2  0  0  0  0
  2  6  2  0  0  0  0
  3  8  2  0  0  0  0
  3 17  1  0  0  0  0
  4  9  1  0  0  0  0
  4 17  2  0  0  0  0
  5 19  1  0  0  0  0
  6 21  1  0  0  0  0
  7 10  2  0  0  0  0
  7 20  1  0  0  0  0
  8 24  1  0  0  0  0
  9 24  2  0  0  0  0
 10 25  1  0  0  0  0
 11 12  2  0  0  0  0
 11 26  1  0  0  0  0
 12 27  1  0  0  0  0
 13 22  1  0  0  0  0
 13 25  2  0  0  0  0
 14 23  1  0  0  0  0
 14 30  2  0  0  0  0
 15 23  2  0  0  0  0
 15 31  1  0  0  0  0
 16 27  2  0  0  0  0
 16 28  1  0  0  0  0
 17 29  1  0  0  0  0
 18 29  1  0  0  0  0
 18 32  2  0  0  0  0
 18 33  1  0  0  0  0
 19 21  2  0  0  0  0
 19 38  1  0  0  0  0
 20 22  2  0  0  0  0
 20 39  1  0  0  0  0
 21 47  1  0  0  0  0
 22 40  1  0  0  0  0
 23 61  1  0  0  0  0
 24 82  1  0  0  0  0
 25 83  1  0  0  0  0
 26 28  2  0  0  0  0
 26 82  1  0  0  0  0
 27 84  1  0  0  0  0
 28 85  1  0  0  0  0
 29 66  2  0  0  0  0
 30 58  1  0  0  0  0
 30 67  1  0  0  0  0
 31 62  1  0  0  0  0
 31 67  2  0  0  0  0
 32 68  1  0  0  0  0
 32 71  1  0  0  0  0
 33 72  1  0  0  0  0
 33 77  2  0  0  0  0
 34 48  1  0  0  0  0
 34 73  1  0  0  0  0
 34 78  2  0  0  0  0
 35 63  1  0  0  0  0
 35 69  1  0  0  0  0
 35 79  2  0  0  0  0
 36 64  1  0  0  0  0
 36 74  1  0  0  0  0
 36 80  2  0  0  0  0
 37 70  1  0  0  0  0
 37 75  1  0  0  0  0
 37 81  2  0  0  0  0
 38 41  1  0  0  0  0
 39 48  1  0  0  0  0
 40 69  1  0  0  0  0
 41 43  1  0  0  0  0
 42 44  1  0  0  0  0
 42 45  1  0  0  0  0
 43 47  1  0  0  0  0
 44 49  1  0  0  0  0
 45 70  1  0  0  0  0
 46 49  1  0  0  0  0
 46 70  1  0  0  0  0
 47 73  1  0  0  0  0
 48 69  1  0  0  0  0
 49 68  1  0  0  0  0
 50 61  1  0  0  0  0
 51 62  1  0  0  0  0
 52 62  1  0  0  0  0
 53 64  1  0  0  0  0
 54 65  1  0  0  0  0
 55 65  1  0  0  0  0
 56 65  1  0  0  0  0
 57 76  1  0  0  0  0
 58 59  1  0  0  0  0
 59 75  1  0  0  0  0
 60 61  1  0  0  0  0
 60 83  1  0  0  0  0
 63 65  1  0  0  0  0
 63 74  1  0  0  0  0
 64 76  1  0  0  0  0
 66 68  1  0  0  0  0
M  CHG  1  76   1
M  ISO  4  37 100  60 101  75 100  83 101
M  END
> <Batch ID>
0082

> <Smiles>
CNC(C)C(=O)NC(C(=O)N1Cc2cc([101O:1][101CH2:1]C(C)c3cc(CC[100NH:0][100C:0](=O)N4CCCC(n5nc(-c6ccc(Oc7ccc(F)cc7F)cc6)c(C(N)=O)c5N)C4)nc(C(C)C)c3)ccc2CC1C(=O)NC1CCCc2ccccc21)C(C)(C)C

> <Shape>
0.247

> <Color>
0.066

> <Negative vol penalty>
0.000

$$$$

  -OEChem-04052318493D

 91 99  0     1  0  0  0  0  0999 V2000
  -16.8572  -13.6020   21.7061 C   0  0  0  0  0  0  0  0  0  0  0  0
  -17.8126  -14.5741   21.9850 C   0  0  0  0  0  0  0  0  0  0  0  0
  -28.7559  -26.7490   19.6372 C   0  0  0  0  0  0  0  0  0  0  0  0
  -26.7609  -25.7075   18.7585 C   0  0  0  0  0  0  0  0  0  0  0  0
  -17.1793  -12.2518   21.8374 C   0  0  0  0  0  0  0  0  0  0  0  0
  -19.0903  -14.1965   22.3965 C   0  0  0  0  0  0  0  0  0  0  0  0
  -22.7389  -16.7972   20.0366 C   0  0  0  0  0  0  0  0  0  0  0  0
  -29.4761  -25.5811   19.3864 C   0  0  0  0  0  0  0  0  0  0  0  0
  -27.4811  -24.5395   18.5077 C   0  0  0  0  0  0  0  0  0  0  0  0
  -22.9864  -18.0946   20.4829 C   0  0  0  0  0  0  0  0  0  0  0  0
  -28.7100  -21.1619   17.9679 C   0  0  0  0  0  0  0  0  0  0  0  0
  -28.1245  -19.9488   18.3301 C   0  0  0  0  0  0  0  0  0  0  0  0
  -24.8825  -17.2937   21.7410 C   0  0  0  0  0  0  0  0  0  0  0  0
  -21.2338  -25.7383   24.1258 C   0  0  0  0  0  0  0  0  0  0  0  0
  -28.0403  -20.6768   20.6323 C   0  0  0  0  0  0  0  0  0  0  0  0
  -27.3982  -26.8122   19.3233 C   0  0  0  0  0  0  0  0  0  0  0  0
  -26.4689  -29.1074   18.7101 C   0  0  0  0  0  0  0  0  0  0  0  0
  -18.4645  -11.8573   22.2413 C   0  0  0  0  0  0  0  0  0  0  0  0
  -23.5561  -15.7347   20.4486 C   0  0  0  0  0  0  0  0  0  0  0  0
  -19.4294  -12.8398   22.5345 C   0  0  0  0  0  0  0  0  0  0  0  0
  -24.6447  -15.9841   21.2965 C   0  0  0  0  0  0  0  0  0  0  0  0
  -21.3771  -24.4006   24.5699 C   0  0  0  0  0  0  0  0  0  0  0  0
  -28.8387  -24.4764   18.8216 C   0  0  0  0  0  0  0  0  0  0  0  0
  -24.0566  -18.3426   21.3375 C   0  0  0  0  0  0  0  0  0  0  0  0
  -28.9607  -22.1325   18.9379 C   0  0  0  0  0  0  0  0  0  0  0  0
  -27.7897  -19.7063   19.6623 C   0  0  0  0  0  0  0  0  0  0  0  0
  -28.6258  -21.8899   20.2701 C   0  0  0  0  0  0  0  0  0  0  0  0
  -26.6536  -28.0181   19.5826 C   0  0  0  0  0  0  0  0  0  0  0  0
  -20.0215  -26.1983   24.5906 C   0  0  0  0  0  0  0  0  0  0  0  0
  -20.2480  -24.0839   25.2925 C   0  0  0  0  0  0  0  0  0  0  0  0
  -25.6937  -29.9899   19.4220 C   0  0  0  0  0  0  0  0  0  0  0  0
  -26.9547  -29.3040   17.3756 C   0  0  0  0  0  0  0  0  0  0  0  0
  -23.0917  -13.0547   22.0935 C   0  0  0  0  0  0  0  0  0  0  0  0
  -26.1787  -12.4806   21.2793 C   0  0  0  0  0  0  0  0  0  0  0  0
  -29.2117  -13.7385   20.3491 C   0  0  0  0  0  0  0  0  0  0  0  0
  -21.8264  -29.2943   23.9399 C   0  0  0  0  0  0  0  0  0  0  0  0
  -18.7515  -10.3868   22.4146 C   0  0  0  0  0  0  0  0  0  0  0  0
  -23.2918  -14.3452   19.9369 C   0  0  0  0  0  0  0  0  0  0  0  0
  -25.5641  -14.8815   21.7518 C   0  0  0  0  0  0  0  0  0  0  0  0
  -20.2410  -10.0623   22.4945 C   0  0  0  0  0  0  0  0  0  0  0  0
  -24.7298  -31.3547   23.9052 C   0  0  0  0  0  0  0  0  0  0  0  0
  -20.9457  -11.0206   23.4495 C   0  0  0  0  0  0  0  0  0  0  0  0
  -25.5354  -30.8315   22.7147 C   0  0  0  0  0  0  0  0  0  0  0  0
  -24.0122  -30.2253   24.6411 C   0  0  0  0  0  0  0  0  0  0  0  0
  -23.9703  -28.8477   22.5980 C   0  0  0  0  0  0  0  0  0  0  0  0
  -20.8338  -12.4693   22.9595 C   0  0  1  0  0  0  0  0  0  0  0  0
  -23.8800  -13.2575   20.8305 C   0  0  1  0  0  0  0  0  0  0  0  0
  -24.6668  -29.9567   21.7909 C   0  0  2  0  0  0  0  0  0  0  0  0
  -31.5528  -13.0266   19.7923 C   0  0  0  0  0  0  0  0  0  0  0  0
  -18.2971  -21.2690   28.1485 C   0  0  0  0  0  0  0  0  0  0  0  0
  -20.0688  -21.8293   29.8183 C   0  0  0  0  0  0  0  0  0  0  0  0
  -20.6283  -20.4375   27.8089 C   0  0  0  0  0  0  0  0  0  0  0  0
  -26.7486  -12.0438   24.2449 C   0  0  0  0  0  0  0  0  0  0  0  0
  -29.1890  -12.2838   23.7398 C   0  0  0  0  0  0  0  0  0  0  0  0
  -27.8822  -10.4225   22.7149 C   0  0  0  0  0  0  0  0  0  0  0  0
  -18.9758  -29.6531   23.0630 C   0  0  0  0  0  0  0  0  0  0  0  0
  -19.2763  -27.4736   21.8835 C   0  0  0  0  0  0  0  0  0  0  0  0
  -18.1412  -25.2636   25.9515 C   0  0  0  0  0  0  0  0  0  0  0  0
  -29.0185  -14.8390   17.6086 C   0  0  0  0  0  0  0  0  0  0  0  0
  -22.5532  -23.4969   24.2978 C   0  0  0  0  0  0  0  0  0  0  0  0
  -19.3810  -27.5184   24.4182 C   0  0  0  0  0  0  0  0  0  0  0  0
  -19.8770  -22.8276   25.9781 C   0  0  0  0  0  0  0  0  0  0  0  0
  -22.2858  -22.4402   23.2202 C   0  0  0  0  0  0  0  0  0  0  0  0
  -20.0792  -22.9090   27.5088 C   0  0  0  0  0  0  0  0  0  0  0  0
  -23.4623  -21.4854   23.0131 C   0  0  0  0  0  0  0  0  0  0  0  0
  -23.1757  -20.4764   21.9093 C   0  0  0  0  0  0  0  0  0  1  0  0
  -27.5219  -12.7873   21.8964 C   0  0  1  0  0  0  0  0  0  0  0  0
  -30.1705  -13.3405   19.2415 C   0  0  2  0  0  0  0  0  0  0  0  0
  -19.7884  -21.6190   28.3213 C   0  0  0  0  0  0  0  0  0  0  0  0
  -27.8171  -11.9050   23.1422 C   0  0  0  0  0  0  0  0  0  0  0  0
  -19.7100  -28.3046   23.1029 C   0  0  0  0  0  0  0  0  0  0  0  0
  -26.0448  -28.1907   20.7589 N   0  0  0  0  0  0  0  0  0  0  0  0
  -19.4309  -25.1841   25.2982 N   0  0  0  0  0  0  0  0  0  0  0  0
  -25.4701  -29.3987   20.6306 N   0  0  0  0  0  0  0  0  0  0  0  0
  -25.2605  -13.5389   21.2293 N   0  0  0  0  0  0  0  0  0  0  0  0
  -23.2047  -29.4349   23.7088 N   0  0  0  0  0  0  0  0  0  0  0  0
  -25.1883  -31.2061   19.1258 N   0  0  0  0  0  0  0  0  0  0  0  0
  -27.7373  -28.2970   16.7943 N   0  0  0  0  0  0  0  0  0  0  0  0
  -21.7696  -12.7123   21.8827 N   0  0  0  0  0  0  0  0  0  0  0  0
  -28.5031  -12.6556   20.8248 N   0  0  0  0  0  0  0  0  0  0  0  0
  -21.1342  -28.5345   23.0048 N   0  0  0  0  0  0  0  0  0  0  0  0
  -30.3000  -14.4433   18.2475 N   0  3  0  0  0  0  0  0  0  0  0  0
  -26.7159  -30.3489   16.7240 O   0  0  0  0  0  0  0  0  0  0  0  0
  -23.6425  -13.1969   23.1789 O   0  0  0  0  0  0  0  0  0  0  0  0
  -25.9551  -11.3457   20.8508 O   0  0  0  0  0  0  0  0  0  0  0  0
  -29.1050  -14.8938   20.7546 O   0  0  0  0  0  0  0  0  0  0  0  0
  -21.2540  -29.8122   24.9048 O   0  0  0  0  0  0  0  0  0  0  0  0
  -29.5412  -23.3367   18.5766 O   0  0  0  0  0  0  0  0  0  0  0  0
  -24.3001  -19.6079   21.7751 O   0  0  0  0  0  0  0  0  0  1  0  0
  -27.2261  -18.5419   20.0097 F   0  0  0  0  0  0  0  0  0  0  0  0
  -28.8631  -22.8190   21.2062 F   0  0  0  0  0  0  0  0  0  0  0  0
  1  2  1  0  0  0  0
  1  5  2  0  0  0  0
  2  6  2  0  0  0  0
  3  8  2  0  0  0  0
  3 16  1  0  0  0  0
  4  9  1  0  0  0  0
  4 16  2  0  0  0  0
  5 18  1  0  0  0  0
  6 20  1  0  0  0  0
  7 10  2  0  0  0  0
  7 19  1  0  0  0  0
  8 23  1  0  0  0  0
  9 23  2  0  0  0  0
 10 24  1  0  0  0  0
 11 12  2  0  0  0  0
 11 25  1  0  0  0  0
 12 26  1  0  0  0  0
 13 21  1  0  0  0  0
 13 24  2  0  0  0  0
 14 22  1  0  0  0  0
 14 29  2  0  0  0  0
 15 26  2  0  0  0  0
 15 27  1  0  0  0  0
 16 28  1  0  0  0  0
 17 28  1  0  0  0  0
 17 31  2  0  0  0  0
 17 32  1  0  0  0  0
 18 20  2  0  0  0  0
 18 37  1  0  0  0  0
 19 21  2  0  0  0  0
 19 38  1  0  0  0  0
 20 46  1  0  0  0  0
 21 39  1  0  0  0  0
 22 30  2  0  0  0  0
 22 60  1  0  0  0  0
 23 88  1  0  0  0  0
 24 89  1  0  0  0  0
 25 27  2  0  0  0  0
 25 88  1  0  0  0  0
 26 90  1  0  0  0  0
 27 91  1  0  0  0  0
 28 72  2  0  0  0  0
 29 61  1  0  0  0  0
 29 73  1  0  0  0  0
 30 62  1  0  0  0  0
 30 73  1  0  0  0  0
 31 74  1  0  0  0  0
 31 77  1  0  0  0  0
 32 78  1  0  0  0  0
 32 83  2  0  0  0  0
 33 47  1  0  0  0  0
 33 79  1  0  0  0  0
 33 84  2  0  0  0  0
 34 67  1  0  0  0  0
 34 75  1  0  0  0  0
 34 85  2  0  0  0  0
 35 68  1  0  0  0  0
 35 80  1  0  0  0  0
 35 86  2  0  0  0  0
 36 76  1  0  0  0  0
 36 81  1  0  0  0  0
 36 87  2  0  0  0  0
 37 40  1  0  0  0  0
 38 47  1  0  0  0  0
 39 75  1  0  0  0  0
 40 42  1  0  0  0  0
 41 43  1  0  0  0  0
 41 44  1  0  0  0  0
 42 46  1  0  0  0  0
 43 48  1  0  0  0  0
 44 76  1  0  0  0  0
 45 48  1  0  0  0  0
 45 76  1  0  0  0  0
 46 79  1  0  0  0  0
 47 75  1  0  0  0  0
 48 74  1  0  0  0  0
 49 68  1  0  0  0  0
 50 69  1  0  0  0  0
 51 69  1  0  0  0  0
 52 69  1  0  0  0  0
 53 70  1  0  0  0  0
 54 70  1  0  0  0  0
 55 70  1  0  0  0  0
 56 71  1  0  0  0  0
 57 71  1  0  0  0  0
 58 73  1  0  0  0  0
 59 82  1  0  0  0  0
 60 63  1  0  0  0  0
 61 71  1  0  0  0  0
 62 64  1  0  0  0  0
 63 65  1  0  0  0  0
 64 69  1  0  0  0  0
 65 66  1  0  0  0  0
 66 89  1  0  0  0  0
 67 70  1  0  0  0  0
 67 80  1  0  0  0  0
 68 82  1  0  0  0  0
 71 81  1  0  0  0  0
 72 74  1  0  0  0  0
M  CHG  1  82   1
M  ISO  4  36 100  66 101  81 100  89 101
M  END
> <Batch ID>
0082

> <Smiles>
CNC(C)C(=O)NC(C(=O)N1Cc2cc([101O:1][101CH2:1]CCCc3cc(CC(C)(C)[100NH:0][100C:0](=O)N4CCCC(n5nc(-c6ccc(Oc7ccc(F)cc7F)cc6)c(C(N)=O)c5N)C4)n(C)c3CCC(C)(C)C)ccc2CC1C(=O)NC1CCCc2ccccc21)C(C)(C)C

> <Shape>
0.237

> <Color>
0.061

> <Negative vol penalty>
0.000

$$$$

  -OEChem-04052318493D

 85 93  0     1  0  0  0  0  0999 V2000
  -34.3249  -26.1551   10.3437 C   0  0  0  0  0  0  0  0  0  0  0  0
  -33.8115  -24.9172   10.7170 C   0  0  0  0  0  0  0  0  0  0  0  0
  -23.0696   -9.8728   19.9383 C   0  0  0  0  0  0  0  0  0  0  0  0
  -23.8337   -9.8725   22.2303 C   0  0  0  0  0  0  0  0  0  0  0  0
  -34.3371  -27.2078   11.2578 C   0  0  0  0  0  0  0  0  0  0  0  0
  -33.3109  -24.7309   12.0051 C   0  0  0  0  0  0  0  0  0  0  0  0
  -28.5903  -21.1903   13.6440 C   0  0  0  0  0  0  0  0  0  0  0  0
  -22.3265   -8.7187   20.1858 C   0  0  0  0  0  0  0  0  0  0  0  0
  -23.0905   -8.7183   22.4778 C   0  0  0  0  0  0  0  0  0  0  0  0
  -28.5233  -19.9032   14.1756 C   0  0  0  0  0  0  0  0  0  0  0  0
  -19.3811   -7.9166   21.6398 C   0  0  0  0  0  0  0  0  0  0  0  0
  -18.0734   -7.8717   21.1568 C   0  0  0  0  0  0  0  0  0  0  0  0
  -28.3601  -20.8348   16.3948 C   0  0  0  0  0  0  0  0  0  0  0  0
  -30.0649  -17.2485   18.6347 C   0  0  0  0  0  0  0  0  0  0  0  0
  -18.6311   -5.9331   19.8271 C   0  0  0  0  0  0  0  0  0  0  0  0
  -23.8233  -10.4497   20.9605 C   0  0  0  0  0  0  0  0  0  0  0  0
  -24.1643  -12.9753   20.8482 C   0  0  0  0  0  0  0  0  0  0  0  0
  -33.8276  -27.0371   12.5547 C   0  0  0  0  0  0  0  0  0  0  0  0
  -28.5535  -22.3110   14.4861 C   0  0  0  0  0  0  0  0  0  0  0  0
  -33.3175  -25.7820   12.9378 C   0  0  0  0  0  0  0  0  0  0  0  0
  -28.4242  -22.1351   15.8712 C   0  0  0  0  0  0  0  0  0  0  0  0
  -30.5118  -16.9929   17.3431 C   0  0  0  0  0  0  0  0  0  0  0  0
  -31.8247  -17.2913   16.9959 C   0  0  0  0  0  0  0  0  0  0  0  0
  -22.3369   -8.1414   21.4555 C   0  0  0  0  0  0  0  0  0  0  0  0
  -28.4111  -19.7252   15.5514 C   0  0  0  0  0  0  0  0  0  0  0  0
  -20.3139   -6.9698   21.2164 C   0  0  0  0  0  0  0  0  0  0  0  0
  -17.6983   -6.8799   20.2505 C   0  0  0  0  0  0  0  0  0  0  0  0
  -19.9389   -5.9781   20.3101 C   0  0  0  0  0  0  0  0  0  0  0  0
  -24.5916  -11.6416   20.7053 C   0  0  0  0  0  0  0  0  0  0  0  0
  -30.9631  -17.7988   19.5348 C   0  0  0  0  0  0  0  0  0  0  0  0
  -32.6441  -17.8399   17.9693 C   0  0  0  0  0  0  0  0  0  0  0  0
  -25.2556  -13.7263   20.4854 C   0  0  0  0  0  0  0  0  0  0  0  0
  -22.8945  -13.4894   21.2711 C   0  0  0  0  0  0  0  0  0  0  0  0
  -30.5526  -24.6956   15.1351 C   0  0  0  0  0  0  0  0  0  0  0  0
  -28.0455  -25.8085   16.8667 C   0  0  0  0  0  0  0  0  0  0  0  0
  -25.1570  -25.1255   18.5509 C   0  0  0  0  0  0  0  0  0  0  0  0
  -30.7394  -14.7461   20.6671 C   0  0  0  0  0  0  0  0  0  0  0  0
  -33.9054  -28.1909   13.5229 C   0  0  0  0  0  0  0  0  0  0  0  0
  -28.5999  -23.6933   13.8949 C   0  0  0  0  0  0  0  0  0  0  0  0
  -28.3601  -23.3057   16.8167 C   0  0  0  0  0  0  0  0  0  0  0  0
  -33.0130  -28.0182   14.7493 C   0  0  0  0  0  0  0  0  0  0  0  0
  -29.5981  -12.3691   18.2746 C   0  0  0  0  0  0  0  0  0  0  0  0
  -33.1703  -26.6169   15.3310 C   0  0  0  0  0  0  0  0  0  0  0  0
  -28.1615  -12.0736   18.7092 C   0  0  0  0  0  0  0  0  0  0  0  0
  -30.5173  -12.5862   19.4745 C   0  0  0  0  0  0  0  0  0  0  0  0
  -28.6179  -13.3123   20.8670 C   0  0  0  0  0  0  0  0  0  0  0  0
  -32.7428  -25.5479   14.3181 C   0  0  1  0  0  0  0  0  0  0  0  0
  -29.0718  -24.7520   14.8868 C   0  0  1  0  0  0  0  0  0  0  0  0
  -27.6417  -13.1413   19.6905 C   0  0  2  0  0  0  0  0  0  0  0  0
  -32.3326  -17.0258   15.6186 C   0  0  0  0  0  0  0  0  0  0  0  0
  -34.0647  -18.1803   17.6566 C   0  0  0  0  0  0  0  0  0  0  0  0
  -23.3504  -26.2345   19.8939 C   0  0  0  0  0  0  0  0  0  0  0  0
  -28.9995  -18.4379   21.0943 C   0  0  0  0  0  0  0  0  0  0  0  0
  -31.2802  -19.3261   21.5006 C   0  0  0  0  0  0  0  0  0  0  0  0
  -29.9385  -25.9978   19.2523 C   0  0  0  0  0  0  0  0  0  0  0  0
  -27.9332  -26.1805   20.7402 C   0  0  0  0  0  0  0  0  0  0  0  0
  -28.3657  -27.9275   19.0128 C   0  0  0  0  0  0  0  0  0  0  0  0
  -23.0645  -24.3153   16.6212 C   0  0  0  0  0  0  0  0  0  0  0  0
  -29.5546  -16.3962   16.3401 C   0  0  0  0  0  0  0  0  0  0  0  0
  -30.8070  -16.8925   21.9110 C   0  0  0  0  0  0  0  0  0  0  0  0
  -29.0207  -17.4345   15.3593 C   0  0  0  0  0  0  0  0  0  1  0  0
  -27.5698  -25.6394   18.2894 C   0  0  1  0  0  0  0  0  0  0  0  0
  -23.7882  -25.7806   18.5101 C   0  0  2  0  0  0  0  0  0  0  0  0
  -30.5188  -18.0852   20.9303 C   0  0  0  0  0  0  0  0  0  0  0  0
  -28.4549  -26.4140   19.3063 C   0  0  0  0  0  0  0  0  0  0  0  0
  -25.8557  -11.5475   20.2844 N   0  0  0  0  0  0  0  0  0  0  0  0
  -32.2458  -18.1022   19.2343 N   0  0  0  0  0  0  0  0  0  0  0  0
  -26.2321  -12.8316   20.1596 N   0  0  0  0  0  0  0  0  0  0  0  0
  -28.4155  -24.6372   16.1908 N   0  0  0  0  0  0  0  0  0  0  0  0
  -29.9681  -13.6117   20.3649 N   0  0  0  0  0  0  0  0  0  0  0  0
  -25.4656  -15.0580   20.4164 N   0  0  0  0  0  0  0  0  0  0  0  0
  -21.8834  -12.5789   21.6072 N   0  0  0  0  0  0  0  0  0  0  0  0
  -31.2996  -25.4577   14.2573 N   0  0  0  0  0  0  0  0  0  0  0  0
  -26.1648  -26.0322   18.2995 N   0  0  0  0  0  0  0  0  0  0  0  0
  -30.1416  -15.6719   21.5133 N   0  0  0  0  0  0  0  0  0  0  0  0
  -22.7720  -24.8249   17.9856 N   0  3  0  0  0  0  0  0  0  0  0  0
  -22.6580  -14.7198   21.3329 O   0  0  0  0  0  0  0  0  0  0  0  0
  -30.9853  -24.0126   16.0560 O   0  0  0  0  0  0  0  0  0  0  0  0
  -28.0805  -26.9375   16.3710 O   0  0  0  0  0  0  0  0  0  0  0  0
  -25.3164  -23.9298   18.7863 O   0  0  0  0  0  0  0  0  0  0  0  0
  -31.8745  -14.9233   20.2120 O   0  0  0  0  0  0  0  0  0  0  0  0
  -21.6117   -7.0154   21.6975 O   0  0  0  0  0  0  0  0  0  0  0  0
  -28.3463  -18.4700   16.0730 O   0  0  0  0  0  0  0  0  0  1  0  0
  -16.4421   -6.8359   19.7879 F   0  0  0  0  0  0  0  0  0  0  0  0
  -20.8303   -5.0651   19.9007 F   0  0  0  0  0  0  0  0  0  0  0  0
  1  2  1  0  0  0  0
  1  5  2  0  0  0  0
  2  6  2  0  0  0  0
  3  8  2  0  0  0  0
  3 16  1  0  0  0  0
  4  9  1  0  0  0  0
  4 16  2  0  0  0  0
  5 18  1  0  0  0  0
  6 20  1  0  0  0  0
  7 10  2  0  0  0  0
  7 19  1  0  0  0  0
  8 24  1  0  0  0  0
  9 24  2  0  0  0  0
 10 25  1  0  0  0  0
 11 12  2  0  0  0  0
 11 26  1  0  0  0  0
 12 27  1  0  0  0  0
 13 21  1  0  0  0  0
 13 25  2  0  0  0  0
 14 22  1  0  0  0  0
 14 30  2  0  0  0  0
 15 27  2  0  0  0  0
 15 28  1  0  0  0  0
 16 29  1  0  0  0  0
 17 29  1  0  0  0  0
 17 32  2  0  0  0  0
 17 33  1  0  0  0  0
 18 20  2  0  0  0  0
 18 38  1  0  0  0  0
 19 21  2  0  0  0  0
 19 39  1  0  0  0  0
 20 47  1  0  0  0  0
 21 40  1  0  0  0  0
 22 23  2  0  0  0  0
 22 59  1  0  0  0  0
 23 31  1  0  0  0  0
 23 50  1  0  0  0  0
 24 82  1  0  0  0  0
 25 83  1  0  0  0  0
 26 28  2  0  0  0  0
 26 82  1  0  0  0  0
 27 84  1  0  0  0  0
 28 85  1  0  0  0  0
 29 66  2  0  0  0  0
 30 64  1  0  0  0  0
 30 67  1  0  0  0  0
 31 51  1  0  0  0  0
 31 67  2  0  0  0  0
 32 68  1  0  0  0  0
 32 71  1  0  0  0  0
 33 72  1  0  0  0  0
 33 77  2  0  0  0  0
 34 48  1  0  0  0  0
 34 73  1  0  0  0  0
 34 78  2  0  0  0  0
 35 62  1  0  0  0  0
 35 69  1  0  0  0  0
 35 79  2  0  0  0  0
 36 63  1  0  0  0  0
 36 74  1  0  0  0  0
 36 80  2  0  0  0  0
 37 70  1  0  0  0  0
 37 75  1  0  0  0  0
 37 81  2  0  0  0  0
 38 41  1  0  0  0  0
 39 48  1  0  0  0  0
 40 69  1  0  0  0  0
 41 43  1  0  0  0  0
 42 44  1  0  0  0  0
 42 45  1  0  0  0  0
 43 47  1  0  0  0  0
 44 49  1  0  0  0  0
 45 70  1  0  0  0  0
 46 49  1  0  0  0  0
 46 70  1  0  0  0  0
 47 73  1  0  0  0  0
 48 69  1  0  0  0  0
 49 68  1  0  0  0  0
 52 63  1  0  0  0  0
 53 64  1  0  0  0  0
 54 64  1  0  0  0  0
 55 65  1  0  0  0  0
 56 65  1  0  0  0  0
 57 65  1  0  0  0  0
 58 76  1  0  0  0  0
 59 61  1  0  0  0  0
 60 64  1  0  0  0  0
 60 75  1  0  0  0  0
 61 83  1  0  0  0  0
 62 65  1  0  0  0  0
 62 74  1  0  0  0  0
 63 76  1  0  0  0  0
 66 68  1  0  0  0  0
M  CHG  1  76   1
M  ISO  4  37 100  61 101  75 100  83 101
M  END
> <Batch ID>
0082

> <Smiles>
CNC(C)C(=O)NC(C(=O)N1Cc2cc([101O:1][101CH2:1]Cc3cc(C(C)(C)C[100NH:0][100C:0](=O)N4CCCC(n5nc(-c6ccc(Oc7ccc(F)cc7F)cc6)c(C(N)=O)c5N)C4)nc(C)c3C)ccc2CC1C(=O)NC1CCCc2ccccc21)C(C)(C)C

> <Shape>
0.198

> <Color>
0.192

> <Negative vol penalty>
0.000

$$$$

  -OEChem-04052318493D

 85 93  0     1  0  0  0  0  0999 V2000
  -25.4940  -28.0081   24.6445 C   0  0  0  0  0  0  0  0  0  0  0  0
  -25.7205  -26.6538   24.8681 C   0  0  0  0  0  0  0  0  0  0  0  0
  -20.7522  -22.6222   20.9021 C   0  0  0  0  0  0  0  0  0  0  0  0
  -22.8495  -22.4732   22.0920 C   0  0  0  0  0  0  0  0  0  0  0  0
  -25.5281  -28.5142   23.3458 C   0  0  0  0  0  0  0  0  0  0  0  0
  -25.9803  -25.8046   23.7930 C   0  0  0  0  0  0  0  0  0  0  0  0
  -29.7160  -19.9339   22.0916 C   0  0  0  0  0  0  0  0  0  0  0  0
  -20.3582  -23.6748   21.7281 C   0  0  0  0  0  0  0  0  0  0  0  0
  -22.4556  -23.5259   22.9181 C   0  0  0  0  0  0  0  0  0  0  0  0
  -29.5431  -18.6772   21.5132 C   0  0  0  0  0  0  0  0  0  0  0  0
  -20.9589  -26.9916   21.9942 C   0  0  0  0  0  0  0  0  0  0  0  0
  -20.3762  -28.1060   21.3909 C   0  0  0  0  0  0  0  0  0  0  0  0
  -29.6558  -19.6774   19.3209 C   0  0  0  0  0  0  0  0  0  0  0  0
  -18.3669  -27.7566   22.6862 C   0  0  0  0  0  0  0  0  0  0  0  0
  -28.6052  -13.8043   20.2432 C   0  0  0  0  0  0  0  0  0  0  0  0
  -21.9978  -22.0213   21.0840 C   0  0  0  0  0  0  0  0  0  0  0  0
  -23.1033  -21.0245   19.0124 C   0  0  0  0  0  0  0  0  0  0  0  0
  -25.7980  -27.6726   22.2552 C   0  0  0  0  0  0  0  0  0  0  0  0
  -29.8495  -21.0751   21.2878 C   0  0  0  0  0  0  0  0  0  0  0  0
  -26.0167  -26.2998   22.4784 C   0  0  0  0  0  0  0  0  0  0  0  0
  -29.8329  -20.9471   19.8916 C   0  0  0  0  0  0  0  0  0  0  0  0
  -21.2099  -24.1266   22.7361 C   0  0  0  0  0  0  0  0  0  0  0  0
  -29.5100  -18.5492   20.1277 C   0  0  0  0  0  0  0  0  0  0  0  0
  -20.2457  -26.2596   22.9435 C   0  0  0  0  0  0  0  0  0  0  0  0
  -19.0802  -28.4885   21.7369 C   0  0  0  0  0  0  0  0  0  0  0  0
  -18.9497  -26.6421   23.2896 C   0  0  0  0  0  0  0  0  0  0  0  0
  -22.4051  -20.9336   20.2314 C   0  0  0  0  0  0  0  0  0  0  0  0
  -29.0568  -14.9577   19.6348 C   0  0  0  0  0  0  0  0  0  0  0  0
  -28.5016  -12.6986   19.4241 C   0  0  0  0  0  0  0  0  0  0  0  0
  -23.2456  -19.7220   18.6002 C   0  0  0  0  0  0  0  0  0  0  0  0
  -29.2410  -13.8913   17.6358 C   0  0  0  0  0  0  0  0  0  0  0  0
  -23.5807  -22.1827   18.3150 C   0  0  0  0  0  0  0  0  0  0  0  0
  -28.1845  -23.7554   20.9036 C   0  0  0  0  0  0  0  0  0  0  0  0
  -30.6745  -24.5674   18.9897 C   0  0  0  0  0  0  0  0  0  0  0  0
  -33.2738  -23.5467   17.0280 C   0  0  0  0  0  0  0  0  0  0  0  0
  -24.2457  -14.5602   20.7838 C   0  0  0  0  0  0  0  0  0  0  0  0
  -25.7777  -28.2569   20.8649 C   0  0  0  0  0  0  0  0  0  0  0  0
  -30.0622  -22.4200   21.9269 C   0  0  0  0  0  0  0  0  0  0  0  0
  -29.9920  -22.1385   18.9840 C   0  0  0  0  0  0  0  0  0  0  0  0
  -26.4304  -27.3588   19.8172 C   0  0  0  0  0  0  0  0  0  0  0  0
  -20.9395  -15.4697   19.6266 C   0  0  0  0  0  0  0  0  0  0  0  0
  -25.9442  -25.9210   19.9690 C   0  0  0  0  0  0  0  0  0  0  0  0
  -21.0538  -16.9931   19.5461 C   0  0  0  0  0  0  0  0  0  0  0  0
  -21.7039  -14.9207   20.8276 C   0  0  0  0  0  0  0  0  0  0  0  0
  -23.2578  -16.8332   20.7937 C   0  0  0  0  0  0  0  0  0  0  0  0
  -26.3263  -25.3513   21.3405 C   0  0  1  0  0  0  0  0  0  0  0  0
  -29.6726  -23.5818   21.0181 C   0  0  1  0  0  0  0  0  0  0  0  0
  -22.5248  -17.4476   19.5873 C   0  0  2  0  0  0  0  0  0  0  0  0
  -29.5975  -13.9379   16.1885 C   0  0  0  0  0  0  0  0  0  0  0  0
  -29.1256  -10.3253   19.9238 C   0  0  0  0  0  0  0  0  0  0  0  0
  -35.1063  -24.4397   15.5644 C   0  0  0  0  0  0  0  0  0  0  0  0
  -24.3415  -11.1791   18.6040 C   0  0  0  0  0  0  0  0  0  0  0  0
  -28.6361  -25.1443   16.7938 C   0  0  0  0  0  0  0  0  0  0  0  0
  -30.5124  -25.0996   15.1368 C   0  0  0  0  0  0  0  0  0  0  0  0
  -30.4961  -26.8084   16.9540 C   0  0  0  0  0  0  0  0  0  0  0  0
  -35.3766  -22.3483   18.7313 C   0  0  0  0  0  0  0  0  0  0  0  0
  -29.2032  -16.2122   20.4448 C   0  0  0  0  0  0  0  0  0  1  0  0
  -26.7298  -10.8520   19.3267 C   0  0  0  0  0  0  0  0  0  0  0  0
  -25.0880  -12.2262   20.7780 C   0  0  0  0  0  0  0  0  0  0  0  0
  -28.0236  -11.4047   19.9930 C   0  0  2  0  0  0  0  0  0  0  0  0
  -30.9969  -24.3969   17.5248 C   0  0  1  0  0  0  0  0  0  0  0  0
  -34.7242  -23.9908   16.9663 C   0  0  2  0  0  0  0  0  0  0  0  0
  -25.5163  -11.8099   19.3625 C   0  0  2  0  0  0  0  0  0  0  0  0
  -30.1554  -25.3399   16.6192 C   0  0  0  0  0  0  0  0  0  0  0  0
  -22.1232  -19.6730   20.5714 N   0  0  0  0  0  0  0  0  0  0  0  0
  -29.3850  -15.0371   18.3285 N   0  0  0  0  0  0  0  0  0  0  0  0
  -28.8120  -12.7065   18.1111 N   0  0  0  0  0  0  0  0  0  0  0  0
  -22.6469  -18.9599   19.5599 N   0  0  0  0  0  0  0  0  0  0  0  0
  -30.1911  -23.4329   19.6567 N   0  0  0  0  0  0  0  0  0  0  0  0
  -23.1013  -15.3749   20.7972 N   0  0  0  0  0  0  0  0  0  0  0  0
  -23.8231  -19.1658   17.5142 N   0  0  0  0  0  0  0  0  0  0  0  0
  -23.3495  -23.4447   18.8790 N   0  0  0  0  0  0  0  0  0  0  0  0
  -27.7237  -24.9755   21.3602 N   0  0  0  0  0  0  0  0  0  0  0  0
  -32.4390  -24.5790   17.4003 N   0  0  0  0  0  0  0  0  0  0  0  0
  -24.0108  -13.1908   20.7954 N   0  0  0  0  0  0  0  0  0  0  0  0
  -35.6256  -22.8726   17.3638 N   0  3  0  0  0  0  0  0  0  0  0  0
  -24.1798  -22.1019   17.2158 O   0  0  0  0  0  0  0  0  0  0  0  0
  -27.5049  -22.8501   20.4344 O   0  0  0  0  0  0  0  0  0  0  0  0
  -30.8521  -25.6648   19.5243 O   0  0  0  0  0  0  0  0  0  0  0  0
  -32.9168  -22.3997   16.7681 O   0  0  0  0  0  0  0  0  0  0  0  0
  -25.3927  -15.0194   20.7580 O   0  0  0  0  0  0  0  0  0  0  0  0
  -20.8260  -25.1539   23.5422 O   0  0  0  0  0  0  0  0  0  0  0  0
  -29.3406  -17.3238   19.5605 O   0  0  0  0  0  0  0  0  0  1  0  0
  -18.5212  -29.5596   21.1585 F   0  0  0  0  0  0  0  0  0  0  0  0
  -18.2600  -25.9436   24.2018 F   0  0  0  0  0  0  0  0  0  0  0  0
  1  2  1  0  0  0  0
  1  5  2  0  0  0  0
  2  6  2  0  0  0  0
  3  8  2  0  0  0  0
  3 16  1  0  0  0  0
  4  9  1  0  0  0  0
  4 16  2  0  0  0  0
  5 18  1  0  0  0  0
  6 20  1  0  0  0  0
  7 10  2  0  0  0  0
  7 19  1  0  0  0  0
  8 22  1  0  0  0  0
  9 22  2  0  0  0  0
 10 23  1  0  0  0  0
 11 12  2  0  0  0  0
 11 24  1  0  0  0  0
 12 25  1  0  0  0  0
 13 21  1  0  0  0  0
 13 23  2  0  0  0  0
 14 25  2  0  0  0  0
 14 26  1  0  0  0  0
 15 28  1  0  0  0  0
 15 29  2  0  0  0  0
 16 27  1  0  0  0  0
 17 27  1  0  0  0  0
 17 30  2  0  0  0  0
 17 32  1  0  0  0  0
 18 20  2  0  0  0  0
 18 37  1  0  0  0  0
 19 21  2  0  0  0  0
 19 38  1  0  0  0  0
 20 46  1  0  0  0  0
 21 39  1  0  0  0  0
 22 82  1  0  0  0  0
 23 83  1  0  0  0  0
 24 26  2  0  0  0  0
 24 82  1  0  0  0  0
 25 84  1  0  0  0  0
 26 85  1  0  0  0  0
 27 65  2  0  0  0  0
 28 57  1  0  0  0  0
 28 66  2  0  0  0  0
 29 60  1  0  0  0  0
 29 67  1  0  0  0  0
 30 68  1  0  0  0  0
 30 71  1  0  0  0  0
 31 49  1  0  0  0  0
 31 66  1  0  0  0  0
 31 67  2  0  0  0  0
 32 72  1  0  0  0  0
 32 77  2  0  0  0  0
 33 47  1  0  0  0  0
 33 73  1  0  0  0  0
 33 78  2  0  0  0  0
 34 61  1  0  0  0  0
 34 69  1  0  0  0  0
 34 79  2  0  0  0  0
 35 62  1  0  0  0  0
 35 74  1  0  0  0  0
 35 80  2  0  0  0  0
 36 70  1  0  0  0  0
 36 75  1  0  0  0  0
 36 81  2  0  0  0  0
 37 40  1  0  0  0  0
 38 47  1  0  0  0  0
 39 69  1  0  0  0  0
 40 42  1  0  0  0  0
 41 43  1  0  0  0  0
 41 44  1  0  0  0  0
 42 46  1  0  0  0  0
 43 48  1  0  0  0  0
 44 70  1  0  0  0  0
 45 48  1  0  0  0  0
 45 70  1  0  0  0  0
 46 73  1  0  0  0  0
 47 69  1  0  0  0  0
 48 68  1  0  0  0  0
 50 60  1  0  0  0  0
 51 62  1  0  0  0  0
 52 63  1  0  0  0  0
 53 64  1  0  0  0  0
 54 64  1  0  0  0  0
 55 64  1  0  0  0  0
 56 76  1  0  0  0  0
 57 83  1  0  0  0  0
 58 60  1  0  0  0  0
 58 63  1  0  0  0  0
 59 63  1  0  0  0  0
 59 75  1  0  0  0  0
 61 64  1  0  0  0  0
 61 74  1  0  0  0  0
 62 76  1  0  0  0  0
 65 68  1  0  0  0  0
M  CHG  1  76   1
M  ISO  4  36 100  57 101  75 100  83 101
M  END
> <Batch ID>
0082

> <Smiles>
CNC(C)C(=O)NC(C(=O)N1Cc2cc([101O:1][101CH2:1]c3cc(C(C)CC(C)C[100NH:0][100C:0](=O)N4CCCC(n5nc(-c6ccc(Oc7ccc(F)cc7F)cc6)c(C(N)=O)c5N)C4)nc(C)n3)ccc2CC1C(=O)NC1CCCc2ccccc21)C(C)(C)C

> <Shape>
0.209

> <Color>
0.056

> <Negative vol penalty>
0.000

$$$$

  -OEChem-04052318493D

 82 90  0     1  0  0  0  0  0999 V2000
  -16.5255  -29.3431   23.0263 C   0  0  0  0  0  0  0  0  0  0  0  0
  -17.4727  -29.2611   22.0108 C   0  0  0  0  0  0  0  0  0  0  0  0
  -25.6857  -14.4900   21.1243 C   0  0  0  0  0  0  0  0  0  0  0  0
  -25.6081  -14.5527   18.7104 C   0  0  0  0  0  0  0  0  0  0  0  0
  -16.9341  -29.3612   24.3593 C   0  0  0  0  0  0  0  0  0  0  0  0
  -18.8293  -29.1983   22.3275 C   0  0  0  0  0  0  0  0  0  0  0  0
  -24.9784  -26.3499   20.0056 C   0  0  0  0  0  0  0  0  0  0  0  0
  -24.6708  -13.5332   21.1321 C   0  0  0  0  0  0  0  0  0  0  0  0
  -24.5933  -13.5958   18.7182 C   0  0  0  0  0  0  0  0  0  0  0  0
  -26.2830  -26.7208   19.6826 C   0  0  0  0  0  0  0  0  0  0  0  0
  -24.3806  -10.2056   20.6066 C   0  0  0  0  0  0  0  0  0  0  0  0
  -24.5365   -9.1022   21.4455 C   0  0  0  0  0  0  0  0  0  0  0  0
  -26.8676  -26.6796   22.0226 C   0  0  0  0  0  0  0  0  0  0  0  0
  -22.5076   -9.7024   22.6119 C   0  0  0  0  0  0  0  0  0  0  0  0
  -29.6813  -24.8071   16.3512 C   0  0  0  0  0  0  0  0  0  0  0  0
  -26.1543  -14.9999   19.9135 C   0  0  0  0  0  0  0  0  0  0  0  0
  -28.5898  -15.7566   19.8540 C   0  0  0  0  0  0  0  0  0  0  0  0
  -18.2957  -29.2889   24.6928 C   0  0  0  0  0  0  0  0  0  0  0  0
  -24.6052  -26.1514   21.3426 C   0  0  0  0  0  0  0  0  0  0  0  0
  -19.2565  -29.2168   23.6661 C   0  0  0  0  0  0  0  0  0  0  0  0
  -25.5583  -26.3037   22.3597 C   0  0  0  0  0  0  0  0  0  0  0  0
  -24.1247  -13.0860   19.9291 C   0  0  0  0  0  0  0  0  0  0  0  0
  -27.2271  -26.8885   20.6914 C   0  0  0  0  0  0  0  0  0  0  0  0
  -23.2883  -11.0575   20.7704 C   0  0  0  0  0  0  0  0  0  0  0  0
  -23.6000   -8.8505   22.4481 C   0  0  0  0  0  0  0  0  0  0  0  0
  -22.3518  -10.8058   21.7731 C   0  0  0  0  0  0  0  0  0  0  0  0
  -27.2022  -15.9888   19.9048 C   0  0  0  0  0  0  0  0  0  0  0  0
  -29.4120  -23.4787   16.1788 C   0  0  0  0  0  0  0  0  0  0  0  0
  -29.1485  -17.0112   19.8678 C   0  0  0  0  0  0  0  0  0  0  0  0
  -30.8694  -23.6712   17.8340 C   0  0  0  0  0  0  0  0  0  0  0  0
  -29.3092  -14.5176   19.7991 C   0  0  0  0  0  0  0  0  0  0  0  0
  -22.5157  -27.5120   23.3140 C   0  0  0  0  0  0  0  0  0  0  0  0
  -23.4254  -25.1178   25.3046 C   0  0  0  0  0  0  0  0  0  0  0  0
  -25.8030  -22.8380   26.1973 C   0  0  0  0  0  0  0  0  0  0  0  0
  -27.1174  -22.3977   18.2212 C   0  0  0  0  0  0  0  0  0  0  0  0
  -18.6918  -29.3595   26.1464 C   0  0  0  0  0  0  0  0  0  0  0  0
  -23.2008  -25.7255   21.6724 C   0  0  0  0  0  0  0  0  0  0  0  0
  -25.2136  -26.0828   23.8091 C   0  0  0  0  0  0  0  0  0  0  0  0
  -20.1273  -28.9115   26.4090 C   0  0  0  0  0  0  0  0  0  0  0  0
  -28.3307  -21.4575   21.4338 C   0  0  0  0  0  0  0  0  0  0  0  0
  -21.0786  -29.5506   25.4023 C   0  0  0  0  0  0  0  0  0  0  0  0
  -28.3042  -19.9284   21.4016 C   0  0  0  0  0  0  0  0  0  0  0  0
  -27.1496  -22.0584   20.6749 C   0  0  0  0  0  0  0  0  0  0  0  0
  -26.9706  -20.0515   19.2557 C   0  0  0  0  0  0  0  0  0  0  0  0
  -20.7359  -29.1220   23.9704 C   0  0  1  0  0  0  0  0  0  0  0  0
  -22.7992  -26.0509   23.1077 C   0  0  1  0  0  0  0  0  0  0  0  0
  -28.1727  -19.4000   19.9605 C   0  0  2  0  0  0  0  0  0  0  0  0
  -31.7978  -23.3203   18.9375 C   0  0  0  0  0  0  0  0  0  0  0  0
  -26.8361  -20.9136   27.4329 C   0  0  0  0  0  0  0  0  0  0  0  0
  -24.0244  -27.2550   27.3983 C   0  0  0  0  0  0  0  0  0  0  0  0
  -25.3512  -25.5477   28.6604 C   0  0  0  0  0  0  0  0  0  0  0  0
  -22.9082  -25.2032   28.2919 C   0  0  0  0  0  0  0  0  0  0  0  0
  -24.7213  -20.8694   24.2703 C   0  0  0  0  0  0  0  0  0  0  0  0
  -28.5302  -22.7840   15.2373 C   0  0  0  0  0  0  0  0  0  0  0  0
  -30.5151  -26.6553   19.2193 C   0  0  0  0  0  0  0  0  0  0  0  0
  -31.1650  -26.1820   17.9173 C   0  0  0  0  0  0  0  0  0  0  0  0
  -27.0874  -22.5751   15.7460 C   0  0  0  0  0  0  0  0  0  0  0  0
  -29.0045  -26.8283   19.1124 C   0  0  0  0  0  0  0  0  0  1  0  0
  -24.5035  -24.9459   26.3474 C   0  0  1  0  0  0  0  0  0  0  0  0
  -25.7095  -21.3559   26.5121 C   0  0  2  0  0  0  0  0  0  0  0  0
  -24.2031  -25.7441   27.6474 C   0  0  0  0  0  0  0  0  0  0  0  0
  -26.8981  -17.2887   19.9478 N   0  0  0  0  0  0  0  0  0  0  0  0
  -30.5855  -24.8970   17.3819 N   0  0  0  0  0  0  0  0  0  0  0  0
  -28.1025  -17.8846   19.9242 N   0  0  0  0  0  0  0  0  0  0  0  0
  -30.1608  -22.7993   17.1093 N   0  3  0  0  0  0  0  0  0  0  0  0
  -23.8258  -25.6735   24.0813 N   0  0  0  0  0  0  0  0  0  0  0  0
  -27.0824  -21.5174   19.3152 N   0  0  0  0  0  0  0  0  0  0  0  0
  -30.4277  -17.4415   19.8371 N   0  0  0  0  0  0  0  0  0  0  0  0
  -28.5795  -13.3210   19.7923 N   0  0  0  0  0  0  0  0  0  0  0  0
  -21.2210  -27.7829   23.7138 N   0  0  0  0  0  0  0  0  0  0  0  0
  -24.6507  -23.5086   26.5492 N   0  0  0  0  0  0  0  0  0  0  0  0
  -27.0554  -21.8019   16.9675 N   0  0  0  0  0  0  0  0  0  0  0  0
  -25.7853  -20.5543   25.2580 N   0  3  0  0  0  0  0  0  0  0  0  0
  -30.5626  -14.4725   19.7740 O   0  0  0  0  0  0  0  0  0  0  0  0
  -23.4061  -28.3327   23.1259 O   0  0  0  0  0  0  0  0  0  0  0  0
  -22.2720  -24.7652   25.5635 O   0  0  0  0  0  0  0  0  0  0  0  0
  -26.8000  -23.3504   25.6933 O   0  0  0  0  0  0  0  0  0  0  0  0
  -27.2034  -23.6235   18.3520 O   0  0  0  0  0  0  0  0  0  0  0  0
  -23.1345  -12.1521   19.9363 O   0  0  0  0  0  0  0  0  0  0  0  0
  -28.5010  -27.2511   20.3789 O   0  0  0  0  0  0  0  0  0  1  0  0
  -23.7490   -7.7900   23.2526 F   0  0  0  0  0  0  0  0  0  0  0  0
  -21.2997  -11.6200   21.9345 F   0  0  0  0  0  0  0  0  0  0  0  0
  1  2  1  0  0  0  0
  1  5  2  0  0  0  0
  2  6  2  0  0  0  0
  3  8  2  0  0  0  0
  3 16  1  0  0  0  0
  4  9  1  0  0  0  0
  4 16  2  0  0  0  0
  5 18  1  0  0  0  0
  6 20  1  0  0  0  0
  7 10  2  0  0  0  0
  7 19  1  0  0  0  0
  8 22  1  0  0  0  0
  9 22  2  0  0  0  0
 10 23  1  0  0  0  0
 11 12  2  0  0  0  0
 11 24  1  0  0  0  0
 12 25  1  0  0  0  0
 13 21  1  0  0  0  0
 13 23  2  0  0  0  0
 14 25  2  0  0  0  0
 14 26  1  0  0  0  0
 15 28  2  0  0  0  0
 15 63  1  0  0  0  0
 16 27  1  0  0  0  0
 17 27  1  0  0  0  0
 17 29  2  0  0  0  0
 17 31  1  0  0  0  0
 18 20  2  0  0  0  0
 18 36  1  0  0  0  0
 19 21  2  0  0  0  0
 19 37  1  0  0  0  0
 20 45  1  0  0  0  0
 21 38  1  0  0  0  0
 22 79  1  0  0  0  0
 23 80  1  0  0  0  0
 24 26  2  0  0  0  0
 24 79  1  0  0  0  0
 25 81  1  0  0  0  0
 26 82  1  0  0  0  0
 27 62  2  0  0  0  0
 28 54  1  0  0  0  0
 28 65  1  0  0  0  0
 29 64  1  0  0  0  0
 29 68  1  0  0  0  0
 30 48  1  0  0  0  0
 30 63  1  0  0  0  0
 30 65  2  0  0  0  0
 31 69  1  0  0  0  0
 31 74  2  0  0  0  0
 32 46  1  0  0  0  0
 32 70  1  0  0  0  0
 32 75  2  0  0  0  0
 33 59  1  0  0  0  0
 33 66  1  0  0  0  0
 33 76  2  0  0  0  0
 34 60  1  0  0  0  0
 34 71  1  0  0  0  0
 34 77  2  0  0  0  0
 35 67  1  0  0  0  0
 35 72  1  0  0  0  0
 35 78  2  0  0  0  0
 36 39  1  0  0  0  0
 37 46  1  0  0  0  0
 38 66  1  0  0  0  0
 39 41  1  0  0  0  0
 40 42  1  0  0  0  0
 40 43  1  0  0  0  0
 41 45  1  0  0  0  0
 42 47  1  0  0  0  0
 43 67  1  0  0  0  0
 44 47  1  0  0  0  0
 44 67  1  0  0  0  0
 45 70  1  0  0  0  0
 46 66  1  0  0  0  0
 47 64  1  0  0  0  0
 49 60  1  0  0  0  0
 50 61  1  0  0  0  0
 51 61  1  0  0  0  0
 52 61  1  0  0  0  0
 53 73  1  0  0  0  0
 54 57  1  0  0  0  0
 55 56  1  0  0  0  0
 55 58  1  0  0  0  0
 56 63  1  0  0  0  0
 57 72  1  0  0  0  0
 58 80  1  0  0  0  0
 59 61  1  0  0  0  0
 59 71  1  0  0  0  0
 60 73  1  0  0  0  0
 62 64  1  0  0  0  0
M  CHG  2  65   1  73   1
M  ISO  4  35 100  58 101  72 100  80 101
M  END
> <Batch ID>
0082

> <Smiles>
CNC(C)C(=O)NC(C(=O)N1Cc2cc([101O:1][101CH2:1]CCn3cc(CC[100NH:0][100C:0](=O)N4CCCC(n5nc(-c6ccc(Oc7ccc(F)cc7F)cc6)c(C(N)=O)c5N)C4)nc3C)ccc2CC1C(=O)NC1CCCc2ccccc21)C(C)(C)C

> <Shape>
0.227

> <Color>
0.080

> <Negative vol penalty>
0.000

$$$$

  -OEChem-04052318493D

 81 89  0     1  0  0  0  0  0999 V2000
  -23.0517   -9.7704   20.1116 C   0  0  0  0  0  0  0  0  0  0  0  0
  -22.2160  -10.8286   20.4541 C   0  0  0  0  0  0  0  0  0  0  0  0
  -27.3775  -25.7574   20.3776 C   0  0  0  0  0  0  0  0  0  0  0  0
  -28.5413  -27.8608   20.6188 C   0  0  0  0  0  0  0  0  0  0  0  0
  -24.4337   -9.9536   20.0908 C   0  0  0  0  0  0  0  0  0  0  0  0
  -22.7620  -12.0703   20.7771 C   0  0  0  0  0  0  0  0  0  0  0  0
  -20.3599  -17.5737   19.5733 C   0  0  0  0  0  0  0  0  0  0  0  0
  -28.5497  -25.1623   19.9112 C   0  0  0  0  0  0  0  0  0  0  0  0
  -29.7136  -27.2657   20.1525 C   0  0  0  0  0  0  0  0  0  0  0  0
  -19.6239  -18.4664   20.3512 C   0  0  0  0  0  0  0  0  0  0  0  0
  -31.3259  -23.0001   18.9988 C   0  0  0  0  0  0  0  0  0  0  0  0
  -31.6664  -21.7486   19.5120 C   0  0  0  0  0  0  0  0  0  0  0  0
  -21.6487  -19.6670   20.8784 C   0  0  0  0  0  0  0  0  0  0  0  0
  -18.8796  -27.1945   21.2597 C   0  0  0  0  0  0  0  0  0  0  0  0
  -31.7562  -22.6855   21.7372 C   0  0  0  0  0  0  0  0  0  0  0  0
  -19.1299  -28.5619   23.6076 C   0  0  0  0  0  0  0  0  0  0  0  0
  -27.3733  -27.1067   20.7313 C   0  0  0  0  0  0  0  0  0  0  0  0
  -25.7267  -27.8104   22.5482 C   0  0  0  0  0  0  0  0  0  0  0  0
  -24.9964  -11.2008   20.4044 C   0  0  0  0  0  0  0  0  0  0  0  0
  -21.7497  -17.7148   19.4508 C   0  0  0  0  0  0  0  0  0  0  0  0
  -24.1529  -12.2700   20.7619 C   0  0  0  0  0  0  0  0  0  0  0  0
  -22.3997  -18.7763   20.0963 C   0  0  0  0  0  0  0  0  0  0  0  0
  -18.6106  -26.5449   22.4593 C   0  0  0  0  0  0  0  0  0  0  0  0
  -18.7364  -27.2344   23.6602 C   0  0  0  0  0  0  0  0  0  0  0  0
  -29.7177  -25.9164   19.7987 C   0  0  0  0  0  0  0  0  0  0  0  0
  -20.2686  -19.5115   21.0062 C   0  0  0  0  0  0  0  0  0  0  0  0
  -31.2006  -24.0943   19.8548 C   0  0  0  0  0  0  0  0  0  0  0  0
  -31.8815  -21.5913   20.8812 C   0  0  0  0  0  0  0  0  0  0  0  0
  -31.4157  -23.9370   21.2240 C   0  0  0  0  0  0  0  0  0  0  0  0
  -26.1627  -27.7221   21.2126 C   0  0  0  0  0  0  0  0  0  0  0  0
  -19.2676  -28.5235   21.3145 C   0  0  0  0  0  0  0  0  0  0  0  0
  -24.5306  -28.4815   22.4754 C   0  0  0  0  0  0  0  0  0  0  0  0
  -26.3476  -27.3288   23.7476 C   0  0  0  0  0  0  0  0  0  0  0  0
  -19.5646  -29.2592   20.0786 C   0  0  0  0  0  0  0  0  0  0  0  0
  -24.2621  -15.9221   20.2111 C   0  0  0  0  0  0  0  0  0  0  0  0
  -25.9015  -18.2468   18.6522 C   0  0  0  0  0  0  0  0  0  0  0  0
  -26.0244  -21.4851   17.5820 C   0  0  0  0  0  0  0  0  0  0  0  0
  -26.4983  -11.3378   20.4143 C   0  0  0  0  0  0  0  0  0  0  0  0
  -22.5257  -16.7592   18.5863 C   0  0  0  0  0  0  0  0  0  0  0  0
  -23.8870  -18.9835   19.9805 C   0  0  0  0  0  0  0  0  0  0  0  0
  -26.9778  -12.7870   20.4055 C   0  0  0  0  0  0  0  0  0  0  0  0
  -22.3556  -30.9549   18.6376 C   0  0  0  0  0  0  0  0  0  0  0  0
  -26.2025  -13.6121   21.4278 C   0  0  0  0  0  0  0  0  0  0  0  0
  -23.5619  -30.2609   19.2725 C   0  0  0  0  0  0  0  0  0  0  0  0
  -21.2125  -29.9760   18.3815 C   0  0  0  0  0  0  0  0  0  0  0  0
  -21.9966  -28.5065   20.2065 C   0  0  0  0  0  0  0  0  0  0  0  0
  -24.7060  -13.6388   21.0945 C   0  0  1  0  0  0  0  0  0  0  0  0
  -24.0064  -16.6941   18.9477 C   0  0  1  0  0  0  0  0  0  0  0  0
  -23.1525  -29.4681   20.5280 C   0  0  1  0  0  0  0  0  0  0  0  0
  -18.4610  -26.5881   24.9732 C   0  0  0  0  0  0  0  0  0  0  0  0
  -27.5089  -23.1034   16.3676 C   0  0  0  0  0  0  0  0  0  0  0  0
  -27.6419  -18.5164   21.1438 C   0  0  0  0  0  0  0  0  0  0  0  0
  -28.4424  -20.7184   20.2614 C   0  0  0  0  0  0  0  0  0  0  0  0
  -28.8926  -18.6255   18.9809 C   0  0  0  0  0  0  0  0  0  0  0  0
  -24.0272  -21.8851   15.4349 C   0  0  0  0  0  0  0  0  0  0  0  0
  -18.1858  -25.0982   22.4350 C   0  0  0  0  0  0  0  0  0  0  0  0
  -19.3366  -24.1192   22.1778 C   0  0  0  0  0  0  0  0  0  0  0  0
  -18.8746  -22.6646   22.0801 C   0  0  0  0  0  0  0  0  0  0  0  0
  -20.0481  -21.7186   21.8643 C   0  0  0  0  0  0  0  0  0  1  0  0
  -26.5422  -19.5542   19.0511 C   0  0  1  0  0  0  0  0  0  0  0  0
  -26.3842  -22.0882   16.2362 C   0  0  2  0  0  0  0  0  0  0  0  0
  -27.8520  -19.3489   19.8632 C   0  0  0  0  0  0  0  0  0  0  0  0
  -19.3999  -29.2266   22.4617 N   0  0  0  0  0  0  0  0  0  0  0  0
  -25.3125  -28.2915   20.3540 N   0  0  0  0  0  0  0  0  0  0  0  0
  -24.3304  -28.7439   21.1521 N   0  0  0  0  0  0  0  0  0  0  0  0
  -20.8772  -29.2416   19.6009 N   0  0  0  0  0  0  0  0  0  0  0  0
  -24.6027  -18.0192   19.1289 N   0  0  0  0  0  0  0  0  0  0  0  0
  -23.6410  -28.8668   23.4149 N   0  0  0  0  0  0  0  0  0  0  0  0
  -27.5752  -26.6608   23.6426 N   0  0  0  0  0  0  0  0  0  0  0  0
  -24.4452  -14.5666   20.0148 N   0  0  0  0  0  0  0  0  0  0  0  0
  -26.7162  -20.3161   17.8191 N   0  0  0  0  0  0  0  0  0  0  0  0
  -25.2008  -22.7721   15.6420 N   0  3  0  0  0  0  0  0  0  0  0  0
  -25.8211  -27.4718   24.8771 O   0  0  0  0  0  0  0  0  0  0  0  0
  -18.6206  -29.8528   19.5594 O   0  0  0  0  0  0  0  0  0  0  0  0
  -24.2925  -16.5127   21.2844 O   0  0  0  0  0  0  0  0  0  0  0  0
  -26.5274  -17.4597   17.9378 O   0  0  0  0  0  0  0  0  0  0  0  0
  -25.2138  -22.0014   18.3480 O   0  0  0  0  0  0  0  0  0  0  0  0
  -30.8618  -25.3360   19.3439 O   0  0  0  0  0  0  0  0  0  0  0  0
  -19.5527  -20.3839   21.7667 O   0  0  0  0  0  0  0  0  0  1  0  0
  -32.2070  -20.3890   21.3741 F   0  0  0  0  0  0  0  0  0  0  0  0
  -31.2956  -24.9843   22.0514 F   0  0  0  0  0  0  0  0  0  0  0  0
  1  2  1  0  0  0  0
  1  5  2  0  0  0  0
  2  6  2  0  0  0  0
  3  8  2  0  0  0  0
  3 17  1  0  0  0  0
  4  9  1  0  0  0  0
  4 17  2  0  0  0  0
  5 19  1  0  0  0  0
  6 21  1  0  0  0  0
  7 10  2  0  0  0  0
  7 20  1  0  0  0  0
  8 25  1  0  0  0  0
  9 25  2  0  0  0  0
 10 26  1  0  0  0  0
 11 12  2  0  0  0  0
 11 27  1  0  0  0  0
 12 28  1  0  0  0  0
 13 22  1  0  0  0  0
 13 26  2  0  0  0  0
 14 23  1  0  0  0  0
 14 31  2  0  0  0  0
 15 28  2  0  0  0  0
 15 29  1  0  0  0  0
 16 24  1  0  0  0  0
 16 63  2  0  0  0  0
 17 30  1  0  0  0  0
 18 30  1  0  0  0  0
 18 32  2  0  0  0  0
 18 33  1  0  0  0  0
 19 21  2  0  0  0  0
 19 38  1  0  0  0  0
 20 22  2  0  0  0  0
 20 39  1  0  0  0  0
 21 47  1  0  0  0  0
 22 40  1  0  0  0  0
 23 24  2  0  0  0  0
 23 56  1  0  0  0  0
 24 50  1  0  0  0  0
 25 78  1  0  0  0  0
 26 79  1  0  0  0  0
 27 29  2  0  0  0  0
 27 78  1  0  0  0  0
 28 80  1  0  0  0  0
 29 81  1  0  0  0  0
 30 64  2  0  0  0  0
 31 34  1  0  0  0  0
 31 63  1  0  0  0  0
 32 65  1  0  0  0  0
 32 68  1  0  0  0  0
 33 69  1  0  0  0  0
 33 73  2  0  0  0  0
 34 66  1  0  0  0  0
 34 74  2  0  0  0  0
 35 48  1  0  0  0  0
 35 70  1  0  0  0  0
 35 75  2  0  0  0  0
 36 60  1  0  0  0  0
 36 67  1  0  0  0  0
 36 76  2  0  0  0  0
 37 61  1  0  0  0  0
 37 71  1  0  0  0  0
 37 77  2  0  0  0  0
 38 41  1  0  0  0  0
 39 48  1  0  0  0  0
 40 67  1  0  0  0  0
 41 43  1  0  0  0  0
 42 44  1  0  0  0  0
 42 45  1  0  0  0  0
 43 47  1  0  0  0  0
 44 49  1  0  0  0  0
 45 66  1  0  0  0  0
 46 49  1  0  0  0  0
 46 66  1  0  0  0  0
 47 70  1  0  0  0  0
 48 67  1  0  0  0  0
 49 65  1  0  0  0  0
 51 61  1  0  0  0  0
 52 62  1  0  0  0  0
 53 62  1  0  0  0  0
 54 62  1  0  0  0  0
 55 72  1  0  0  0  0
 56 57  1  0  0  0  0
 57 58  1  0  0  0  0
 58 59  1  0  0  0  0
 59 79  1  0  0  0  0
 60 62  1  0  0  0  0
 60 71  1  0  0  0  0
 61 72  1  0  0  0  0
 64 65  1  0  0  0  0
M  CHG  1  72   1
M  ISO  4  31 100  34 100  59 101  79 101
M  END
> <Batch ID>
0082

> <Smiles>
CNC(C)C(=O)NC(C(=O)N1Cc2cc([101O:1][101CH2:1]CCCc3c[100c:0]([100C:0](=O)N4CCCC(n5nc(-c6ccc(Oc7ccc(F)cc7F)cc6)c(C(N)=O)c5N)C4)ncc3C)ccc2CC1C(=O)NC1CCCc2ccccc21)C(C)(C)C

> <Shape>
0.201

> <Color>
0.079

> <Negative vol penalty>
0.000

$$$$

  -OEChem-04052318493D

 84 92  0     1  0  0  0  0  0999 V2000
  -25.7027  -33.5069   25.4913 C   0  0  0  0  0  0  0  0  0  0  0  0
  -26.3372  -32.2894   25.2665 C   0  0  0  0  0  0  0  0  0  0  0  0
  -25.5616  -13.9523   21.5316 C   0  0  0  0  0  0  0  0  0  0  0  0
  -26.5568  -13.8542   19.3323 C   0  0  0  0  0  0  0  0  0  0  0  0
  -24.3834  -33.6907   25.0793 C   0  0  0  0  0  0  0  0  0  0  0  0
  -25.6524  -31.2546   24.6305 C   0  0  0  0  0  0  0  0  0  0  0  0
  -28.4482  -28.9683   21.0807 C   0  0  0  0  0  0  0  0  0  0  0  0
  -31.7211  -21.9808   19.3173 C   0  0  0  0  0  0  0  0  0  0  0  0
  -24.6281  -12.9878   21.1522 C   0  0  0  0  0  0  0  0  0  0  0  0
  -25.6233  -12.8896   18.9529 C   0  0  0  0  0  0  0  0  0  0  0  0
  -29.4082  -28.0558   21.5161 C   0  0  0  0  0  0  0  0  0  0  0  0
  -24.5323   -9.6299   20.7665 C   0  0  0  0  0  0  0  0  0  0  0  0
  -24.2804   -8.5861   21.6567 C   0  0  0  0  0  0  0  0  0  0  0  0
  -32.0737  -22.7085   20.4483 C   0  0  0  0  0  0  0  0  0  0  0  0
  -27.9136  -26.2387   20.9837 C   0  0  0  0  0  0  0  0  0  0  0  0
  -21.9577   -9.2416   21.7680 C   0  0  0  0  0  0  0  0  0  0  0  0
  -26.5259  -14.3855   20.6216 C   0  0  0  0  0  0  0  0  0  0  0  0
  -28.7531  -15.1613   21.5938 C   0  0  0  0  0  0  0  0  0  0  0  0
  -23.6852  -32.6608   24.4293 C   0  0  0  0  0  0  0  0  0  0  0  0
  -27.2075  -28.5226   20.6028 C   0  0  0  0  0  0  0  0  0  0  0  0
  -24.3221  -31.4243   24.2106 C   0  0  0  0  0  0  0  0  0  0  0  0
  -26.9406  -27.1474   20.5404 C   0  0  0  0  0  0  0  0  0  0  0  0
  -31.2461  -22.6436   18.1911 C   0  0  0  0  0  0  0  0  0  0  0  0
  -24.6590  -12.4564   19.8629 C   0  0  0  0  0  0  0  0  0  0  0  0
  -29.1398  -26.6909   21.4704 C   0  0  0  0  0  0  0  0  0  0  0  0
  -23.4969  -10.4797   20.3770 C   0  0  0  0  0  0  0  0  0  0  0  0
  -22.9931   -8.3919   22.1575 C   0  0  0  0  0  0  0  0  0  0  0  0
  -22.2096  -10.2855   20.8778 C   0  0  0  0  0  0  0  0  0  0  0  0
  -27.4901  -15.3823   21.0127 C   0  0  0  0  0  0  0  0  0  0  0  0
  -31.9338  -24.0862   20.4028 C   0  0  0  0  0  0  0  0  0  0  0  0
  -31.1430  -24.0242   18.2466 C   0  0  0  0  0  0  0  0  0  0  0  0
  -29.2738  -16.4197   21.7724 C   0  0  0  0  0  0  0  0  0  0  0  0
  -29.3981  -13.9288   21.9411 C   0  0  0  0  0  0  0  0  0  0  0  0
  -24.1851  -28.9075   21.5088 C   0  0  0  0  0  0  0  0  0  0  0  0
  -23.5642  -27.3156   18.7515 C   0  0  0  0  0  0  0  0  0  0  0  0
  -24.6553  -25.1577   16.3432 C   0  0  0  0  0  0  0  0  0  0  0  0
  -28.2847  -21.6645   19.0585 C   0  0  0  0  0  0  0  0  0  0  0  0
  -22.2451  -32.8904   24.0446 C   0  0  0  0  0  0  0  0  0  0  0  0
  -26.1929  -29.5185   20.1119 C   0  0  0  0  0  0  0  0  0  0  0  0
  -25.6319  -26.6166   20.0170 C   0  0  0  0  0  0  0  0  0  0  0  0
  -21.7123  -31.8698   23.0422 C   0  0  0  0  0  0  0  0  0  0  0  0
  -27.9392  -20.9514   22.5297 C   0  0  0  0  0  0  0  0  0  0  0  0
  -22.0970  -30.4555   23.4647 C   0  0  0  0  0  0  0  0  0  0  0  0
  -27.8989  -19.4233   22.5869 C   0  0  0  0  0  0  0  0  0  0  0  0
  -27.2257  -21.4888   21.2910 C   0  0  0  0  0  0  0  0  0  0  0  0
  -27.6499  -19.3905   20.0699 C   0  0  0  0  0  0  0  0  0  0  0  0
  -23.6207  -30.2860   23.5017 C   0  0  1  0  0  0  0  0  0  0  0  0
  -24.7674  -28.9753   20.1253 C   0  0  1  0  0  0  0  0  0  0  0  0
  -28.4052  -18.7994   21.2725 C   0  0  2  0  0  0  0  0  0  0  0  0
  -30.8961  -26.2880   17.1975 C   0  0  0  0  0  0  0  0  0  0  0  0
  -33.7980  -25.2809   21.5982 C   0  0  0  0  0  0  0  0  0  0  0  0
  -23.9099  -24.0174   14.2358 C   0  0  0  0  0  0  0  0  0  0  0  0
  -21.8963  -25.3640   20.4004 C   0  0  0  0  0  0  0  0  0  0  0  0
  -21.9775  -23.7720   18.4699 C   0  0  0  0  0  0  0  0  0  0  0  0
  -20.8875  -25.9997   18.2021 C   0  0  0  0  0  0  0  0  0  0  0  0
  -26.7809  -26.4608   14.7486 C   0  0  0  0  0  0  0  0  0  0  0  0
  -30.8656  -21.8693   16.9768 C   0  0  0  0  0  0  0  0  0  0  0  0
  -30.6420  -24.7894   17.0658 C   0  0  0  0  0  0  0  0  0  0  0  0
  -29.3518  -21.6772   16.8179 C   0  0  0  0  0  0  0  0  0  0  0  0
  -31.4440  -26.1734   21.7514 C   0  0  0  0  0  0  0  0  0  1  0  0
  -32.3115  -24.9141   21.6211 C   0  0  1  0  0  0  0  0  0  0  0  0
  -23.4067  -25.8643   18.3671 C   0  0  1  0  0  0  0  0  0  0  0  0
  -24.6078  -25.2320   14.8277 C   0  0  2  0  0  0  0  0  0  0  0  0
  -22.0660  -25.2597   18.8716 C   0  0  0  0  0  0  0  0  0  0  0  0
  -27.2244  -16.6790   20.8341 N   0  0  0  0  0  0  0  0  0  0  0  0
  -31.4759  -24.7653   19.3272 N   0  0  0  0  0  0  0  0  0  0  0  0
  -28.3277  -17.2842   21.3058 N   0  0  0  0  0  0  0  0  0  0  0  0
  -24.6696  -27.6304   19.5545 N   0  0  0  0  0  0  0  0  0  0  0  0
  -27.7535  -20.8582   20.0787 N   0  0  0  0  0  0  0  0  0  0  0  0
  -30.4440  -16.8600   22.2815 N   0  0  0  0  0  0  0  0  0  0  0  0
  -28.7222  -12.7270   21.6897 N   0  0  0  0  0  0  0  0  0  0  0  0
  -24.1439  -30.1244   22.1621 N   0  0  0  0  0  0  0  0  0  0  0  0
  -23.5825  -25.8038   16.9201 N   0  0  0  0  0  0  0  0  0  0  0  0
  -28.7694  -20.9864   17.9468 N   0  0  0  0  0  0  0  0  0  0  0  0
  -25.9876  -25.2999   14.2689 N   0  3  0  0  0  0  0  0  0  0  0  0
  -30.5331  -13.8949   22.4742 O   0  0  0  0  0  0  0  0  0  0  0  0
  -23.8003  -27.8310   21.9503 O   0  0  0  0  0  0  0  0  0  0  0  0
  -22.7409  -28.1409   18.3480 O   0  0  0  0  0  0  0  0  0  0  0  0
  -25.5523  -24.5809   16.9540 O   0  0  0  0  0  0  0  0  0  0  0  0
  -28.3288  -22.8970   19.1352 O   0  0  0  0  0  0  0  0  0  0  0  0
  -23.7484  -11.5150   19.4925 O   0  0  0  0  0  0  0  0  0  0  0  0
  -30.0748  -25.7981   21.8954 O   0  0  0  0  0  0  0  0  0  1  0  0
  -22.7510   -7.3886   23.0112 F   0  0  0  0  0  0  0  0  0  0  0  0
  -21.2106  -11.0978   20.5064 F   0  0  0  0  0  0  0  0  0  0  0  0
  1  2  1  0  0  0  0
  1  5  2  0  0  0  0
  2  6  2  0  0  0  0
  3  9  2  0  0  0  0
  3 17  1  0  0  0  0
  4 10  1  0  0  0  0
  4 17  2  0  0  0  0
  5 19  1  0  0  0  0
  6 21  1  0  0  0  0
  7 11  2  0  0  0  0
  7 20  1  0  0  0  0
  8 14  2  0  0  0  0
  8 23  1  0  0  0  0
  9 24  1  0  0  0  0
 10 24  2  0  0  0  0
 11 25  1  0  0  0  0
 12 13  2  0  0  0  0
 12 26  1  0  0  0  0
 13 27  1  0  0  0  0
 14 30  1  0  0  0  0
 15 22  1  0  0  0  0
 15 25  2  0  0  0  0
 16 27  2  0  0  0  0
 16 28  1  0  0  0  0
 17 29  1  0  0  0  0
 18 29  1  0  0  0  0
 18 32  2  0  0  0  0
 18 33  1  0  0  0  0
 19 21  2  0  0  0  0
 19 38  1  0  0  0  0
 20 22  2  0  0  0  0
 20 39  1  0  0  0  0
 21 47  1  0  0  0  0
 22 40  1  0  0  0  0
 23 31  2  0  0  0  0
 23 57  1  0  0  0  0
 24 81  1  0  0  0  0
 25 82  1  0  0  0  0
 26 28  2  0  0  0  0
 26 81  1  0  0  0  0
 27 83  1  0  0  0  0
 28 84  1  0  0  0  0
 29 65  2  0  0  0  0
 30 61  1  0  0  0  0
 30 66  2  0  0  0  0
 31 58  1  0  0  0  0
 31 66  1  0  0  0  0
 32 67  1  0  0  0  0
 32 70  1  0  0  0  0
 33 71  1  0  0  0  0
 33 76  2  0  0  0  0
 34 48  1  0  0  0  0
 34 72  1  0  0  0  0
 34 77  2  0  0  0  0
 35 62  1  0  0  0  0
 35 68  1  0  0  0  0
 35 78  2  0  0  0  0
 36 63  1  0  0  0  0
 36 73  1  0  0  0  0
 36 79  2  0  0  0  0
 37 69  1  0  0  0  0
 37 74  1  0  0  0  0
 37 80  2  0  0  0  0
 38 41  1  0  0  0  0
 39 48  1  0  0  0  0
 40 68  1  0  0  0  0
 41 43  1  0  0  0  0
 42 44  1  0  0  0  0
 42 45  1  0  0  0  0
 43 47  1  0  0  0  0
 44 49  1  0  0  0  0
 45 69  1  0  0  0  0
 46 49  1  0  0  0  0
 46 69  1  0  0  0  0
 47 72  1  0  0  0  0
 48 68  1  0  0  0  0
 49 67  1  0  0  0  0
 50 58  1  0  0  0  0
 51 61  1  0  0  0  0
 52 63  1  0  0  0  0
 53 64  1  0  0  0  0
 54 64  1  0  0  0  0
 55 64  1  0  0  0  0
 56 75  1  0  0  0  0
 57 59  1  0  0  0  0
 59 74  1  0  0  0  0
 60 61  1  0  0  0  0
 60 82  1  0  0  0  0
 62 64  1  0  0  0  0
 62 73  1  0  0  0  0
 63 75  1  0  0  0  0
 65 67  1  0  0  0  0
M  CHG  1  75   1
M  ISO  4  37 100  60 101  74 100  82 101
M  END
> <Batch ID>
0082

> <Smiles>
CCc1nc(C(C)[101CH2:1][101O:1]c2ccc3c(c2)CN(C(=O)C(NC(=O)C(C)NC)C(C)(C)C)C(C(=O)NC2CCCc4ccccc42)C3)ccc1CC[100NH:0][100C:0](=O)N1CCCC(n2nc(-c3ccc(Oc4ccc(F)cc4F)cc3)c(C(N)=O)c2N)C1

> <Shape>
0.278

> <Color>
0.064

> <Negative vol penalty>
0.000

$$$$

  -OEChem-04052318493D

 86 94  0     1  0  0  0  0  0999 V2000
  -18.7732  -26.7773   23.6317 C   0  0  0  0  0  0  0  0  0  0  0  0
  -19.9606  -26.0641   23.5022 C   0  0  0  0  0  0  0  0  0  0  0  0
  -23.9423   -9.8443   21.9454 C   0  0  0  0  0  0  0  0  0  0  0  0
  -22.0221  -10.5552   20.6630 C   0  0  0  0  0  0  0  0  0  0  0  0
  -18.3805  -27.6630   22.6291 C   0  0  0  0  0  0  0  0  0  0  0  0
  -20.7555  -26.2353   22.3693 C   0  0  0  0  0  0  0  0  0  0  0  0
  -26.8715  -26.0643   22.1030 C   0  0  0  0  0  0  0  0  0  0  0  0
  -23.4550   -8.5374   21.9507 C   0  0  0  0  0  0  0  0  0  0  0  0
  -21.5348   -9.2482   20.6683 C   0  0  0  0  0  0  0  0  0  0  0  0
  -27.7666  -25.0612   21.7338 C   0  0  0  0  0  0  0  0  0  0  0  0
  -21.1178   -6.7578   23.6225 C   0  0  0  0  0  0  0  0  0  0  0  0
  -21.1515   -6.0592   24.8293 C   0  0  0  0  0  0  0  0  0  0  0  0
  -27.8770  -25.9870   19.5090 C   0  0  0  0  0  0  0  0  0  0  0  0
  -22.5685   -4.3831   23.8195 C   0  0  0  0  0  0  0  0  0  0  0  0
  -27.8621  -19.8566   20.9419 C   0  0  0  0  0  0  0  0  0  0  0  0
  -23.2259  -10.8532   21.3016 C   0  0  0  0  0  0  0  0  0  0  0  0
  -24.5821  -12.7892   20.3423 C   0  0  0  0  0  0  0  0  0  0  0  0
  -19.1757  -27.8524   21.4879 C   0  0  0  0  0  0  0  0  0  0  0  0
  -26.4633  -27.0315   21.1733 C   0  0  0  0  0  0  0  0  0  0  0  0
  -20.3723  -27.1233   21.3499 C   0  0  0  0  0  0  0  0  0  0  0  0
  -26.9786  -27.0028   19.8696 C   0  0  0  0  0  0  0  0  0  0  0  0
  -22.2513   -8.2393   21.3121 C   0  0  0  0  0  0  0  0  0  0  0  0
  -28.2673  -25.0207   20.4358 C   0  0  0  0  0  0  0  0  0  0  0  0
  -21.8094   -6.2690   22.5141 C   0  0  0  0  0  0  0  0  0  0  0  0
  -21.8769   -4.8719   24.9278 C   0  0  0  0  0  0  0  0  0  0  0  0
  -22.5348   -5.0816   22.6126 C   0  0  0  0  0  0  0  0  0  0  0  0
  -23.7285  -12.2036   21.2963 C   0  0  0  0  0  0  0  0  0  0  0  0
  -26.8555  -20.3321   20.0803 C   0  0  0  0  0  0  0  0  0  0  0  0
  -29.0078  -20.4766   20.5066 C   0  0  0  0  0  0  0  0  0  0  0  0
  -24.7613  -14.0766   20.7861 C   0  0  0  0  0  0  0  0  0  0  0  0
  -25.1613  -12.2203   19.1605 C   0  0  0  0  0  0  0  0  0  0  0  0
  -23.6812  -27.8720   19.8859 C   0  0  0  0  0  0  0  0  0  0  0  0
  -25.4467  -30.2664   18.5927 C   0  0  0  0  0  0  0  0  0  0  0  0
  -28.5119  -31.4012   17.6111 C   0  0  0  0  0  0  0  0  0  0  0  0
  -22.7221  -18.8297   22.8824 C   0  0  0  0  0  0  0  0  0  0  0  0
  -18.6862  -28.7853   20.4087 C   0  0  0  0  0  0  0  0  0  0  0  0
  -25.5177  -28.1227   21.5948 C   0  0  0  0  0  0  0  0  0  0  0  0
  -26.5876  -28.0297   18.8395 C   0  0  0  0  0  0  0  0  0  0  0  0
  -19.7716  -29.1889   19.4140 C   0  0  0  0  0  0  0  0  0  0  0  0
  -23.5328  -16.2418   25.1894 C   0  0  0  0  0  0  0  0  0  0  0  0
  -20.5634  -27.9658   18.9625 C   0  0  0  0  0  0  0  0  0  0  0  0
  -23.7200  -15.0083   24.3044 C   0  0  0  0  0  0  0  0  0  0  0  0
  -22.4148  -17.1438   24.6712 C   0  0  0  0  0  0  0  0  0  0  0  0
  -22.7354  -16.3124   22.3734 C   0  0  0  0  0  0  0  0  0  0  0  0
  -21.2738  -27.3003   20.1473 C   0  0  1  0  0  0  0  0  0  0  0  0
  -24.7731  -28.7539   20.4224 C   0  0  1  0  0  0  0  0  0  0  0  0
  -23.8894  -15.4006   22.8243 C   0  0  2  0  0  0  0  0  0  0  0  0
  -30.3972  -20.3961   20.9933 C   0  0  0  0  0  0  0  0  0  0  0  0
  -29.6335  -33.3818   16.5544 C   0  0  0  0  0  0  0  0  0  0  0  0
  -23.7937  -23.3072   21.5058 C   0  0  0  0  0  0  0  0  0  0  0  0
  -24.2429  -22.6864   19.1224 C   0  0  0  0  0  0  0  0  0  0  0  0
  -29.5568  -21.6901   17.1525 C   0  0  0  0  0  0  0  0  0  0  0  0
  -24.3728  -29.4167   15.8660 C   0  0  0  0  0  0  0  0  0  0  0  0
  -26.2047  -30.7538   14.8055 C   0  0  0  0  0  0  0  0  0  0  0  0
  -24.4899  -31.8901   16.2164 C   0  0  0  0  0  0  0  0  0  0  0  0
  -30.1960  -31.8684   19.9996 C   0  0  0  0  0  0  0  0  0  0  0  0
  -25.4240  -19.9870   20.0961 C   0  0  0  0  0  0  0  0  0  0  0  0
  -23.0569  -20.3957   20.9864 C   0  0  0  0  0  0  0  0  0  0  0  0
  -29.1198  -23.6271   18.7075 C   0  0  0  0  0  0  0  0  0  1  0  0
  -26.2426  -30.4416   17.3219 C   0  0  1  0  0  0  0  0  0  0  0  0
  -29.2259  -32.7175   17.8603 C   0  0  2  0  0  0  0  0  0  0  0  0
  -24.6215  -22.4072   20.5796 C   0  0  0  0  0  0  0  0  0  0  0  0
  -24.5132  -20.9043   20.9853 C   0  0  2  0  0  0  0  0  0  0  0  0
  -29.5298  -22.1512   18.6124 C   0  0  1  0  0  0  0  0  0  0  0  0
  -25.3336  -30.6049   16.0711 C   0  0  0  0  0  0  0  0  0  0  0  0
  -23.3890  -13.0495   22.2726 N   0  0  0  0  0  0  0  0  0  0  0  0
  -27.3208  -21.1882   19.1668 N   0  0  0  0  0  0  0  0  0  0  0  0
  -28.6323  -21.2557   19.4520 N   0  0  0  0  0  0  0  0  0  0  0  0
  -24.0326  -14.1797   21.9345 N   0  0  0  0  0  0  0  0  0  0  0  0
  -25.6555  -29.0729   19.2982 N   0  0  0  0  0  0  0  0  0  0  0  0
  -22.6360  -17.4803   23.2627 N   0  0  0  0  0  0  0  0  0  0  0  0
  -25.4694  -15.1191   20.3023 N   0  0  0  0  0  0  0  0  0  0  0  0
  -24.8734  -10.8837   18.8522 N   0  0  0  0  0  0  0  0  0  0  0  0
  -22.4602  -28.0460   20.5090 N   0  0  0  0  0  0  0  0  0  0  0  0
  -27.1439  -31.5646   17.5563 N   0  0  0  0  0  0  0  0  0  0  0  0
  -22.9392  -19.0608   21.5296 N   0  0  0  0  0  0  0  0  0  0  0  0
  -30.4523  -32.4951   18.6772 N   0  3  0  0  0  0  0  0  0  0  0  0
  -25.9252  -12.8728   18.4093 O   0  0  0  0  0  0  0  0  0  0  0  0
  -23.9279  -27.0926   18.9730 O   0  0  0  0  0  0  0  0  0  0  0  0
  -24.6737  -31.1589   18.9500 O   0  0  0  0  0  0  0  0  0  0  0  0
  -29.1084  -30.3353   17.4748 O   0  0  0  0  0  0  0  0  0  0  0  0
  -22.6188  -19.7596   23.6896 O   0  0  0  0  0  0  0  0  0  0  0  0
  -21.7755   -6.9641   21.3169 O   0  0  0  0  0  0  0  0  0  0  0  0
  -29.1406  -24.0423   20.0727 O   0  0  0  0  0  0  0  0  0  1  0  0
  -21.9105   -4.2019   26.0872 F   0  0  0  0  0  0  0  0  0  0  0  0
  -23.2021   -4.6077   21.5515 F   0  0  0  0  0  0  0  0  0  0  0  0
  1  2  1  0  0  0  0
  1  5  2  0  0  0  0
  2  6  2  0  0  0  0
  3  8  2  0  0  0  0
  3 16  1  0  0  0  0
  4  9  1  0  0  0  0
  4 16  2  0  0  0  0
  5 18  1  0  0  0  0
  6 20  1  0  0  0  0
  7 10  2  0  0  0  0
  7 19  1  0  0  0  0
  8 22  1  0  0  0  0
  9 22  2  0  0  0  0
 10 23  1  0  0  0  0
 11 12  2  0  0  0  0
 11 24  1  0  0  0  0
 12 25  1  0  0  0  0
 13 21  1  0  0  0  0
 13 23  2  0  0  0  0
 14 25  2  0  0  0  0
 14 26  1  0  0  0  0
 15 28  1  0  0  0  0
 15 29  2  0  0  0  0
 16 27  1  0  0  0  0
 17 27  1  0  0  0  0
 17 30  2  0  0  0  0
 17 31  1  0  0  0  0
 18 20  2  0  0  0  0
 18 36  1  0  0  0  0
 19 21  2  0  0  0  0
 19 37  1  0  0  0  0
 20 45  1  0  0  0  0
 21 38  1  0  0  0  0
 22 83  1  0  0  0  0
 23 84  1  0  0  0  0
 24 26  2  0  0  0  0
 24 83  1  0  0  0  0
 25 85  1  0  0  0  0
 26 86  1  0  0  0  0
 27 66  2  0  0  0  0
 28 57  1  0  0  0  0
 28 67  2  0  0  0  0
 29 48  1  0  0  0  0
 29 68  1  0  0  0  0
 30 69  1  0  0  0  0
 30 72  1  0  0  0  0
 31 73  1  0  0  0  0
 31 78  2  0  0  0  0
 32 46  1  0  0  0  0
 32 74  1  0  0  0  0
 32 79  2  0  0  0  0
 33 60  1  0  0  0  0
 33 70  1  0  0  0  0
 33 80  2  0  0  0  0
 34 61  1  0  0  0  0
 34 75  1  0  0  0  0
 34 81  2  0  0  0  0
 35 71  1  0  0  0  0
 35 76  1  0  0  0  0
 35 82  2  0  0  0  0
 36 39  1  0  0  0  0
 37 46  1  0  0  0  0
 38 70  1  0  0  0  0
 39 41  1  0  0  0  0
 40 42  1  0  0  0  0
 40 43  1  0  0  0  0
 41 45  1  0  0  0  0
 42 47  1  0  0  0  0
 43 71  1  0  0  0  0
 44 47  1  0  0  0  0
 44 71  1  0  0  0  0
 45 74  1  0  0  0  0
 46 70  1  0  0  0  0
 47 69  1  0  0  0  0
 49 61  1  0  0  0  0
 50 62  1  0  0  0  0
 51 62  1  0  0  0  0
 52 64  1  0  0  0  0
 53 65  1  0  0  0  0
 54 65  1  0  0  0  0
 55 65  1  0  0  0  0
 56 77  1  0  0  0  0
 57 63  1  0  0  0  0
 58 63  1  0  0  0  0
 58 76  1  0  0  0  0
 59 64  1  0  0  0  0
 59 84  1  0  0  0  0
 60 65  1  0  0  0  0
 60 75  1  0  0  0  0
 61 77  1  0  0  0  0
 62 63  1  0  0  0  0
 64 68  1  0  0  0  0
 66 69  1  0  0  0  0
 67 68  1  0  0  0  0
M  CHG  1  77   1
M  ISO  4  35 100  59 101  76 100  84 101
M  END
> <Batch ID>
0082

> <Smiles>
CNC(C)C(=O)NC(C(=O)N1Cc2cc([101O:1][101CH2:1]C(C)n3nc(CC(C[100NH:0][100C:0](=O)N4CCCC(n5nc(-c6ccc(Oc7ccc(F)cc7F)cc6)c(C(N)=O)c5N)C4)C(C)C)cc3C)ccc2CC1C(=O)NC1CCCc2ccccc21)C(C)(C)C

> <Shape>
0.228

> <Color>
0.125

> <Negative vol penalty>
0.000

$$$$

  -OEChem-04052318493D

 84 92  0     1  0  0  0  0  0999 V2000
  -30.8013  -29.9963   21.6672 C   0  0  0  0  0  0  0  0  0  0  0  0
  -30.7345  -28.6227   21.4568 C   0  0  0  0  0  0  0  0  0  0  0  0
  -23.0740   -9.8671   19.9376 C   0  0  0  0  0  0  0  0  0  0  0  0
  -23.8395   -9.8666   22.2292 C   0  0  0  0  0  0  0  0  0  0  0  0
  -29.7599  -30.8176   21.2374 C   0  0  0  0  0  0  0  0  0  0  0  0
  -29.6255  -28.0695   20.8176 C   0  0  0  0  0  0  0  0  0  0  0  0
  -29.5782  -23.2494   17.0401 C   0  0  0  0  0  0  0  0  0  0  0  0
  -22.3328   -8.7117   20.1850 C   0  0  0  0  0  0  0  0  0  0  0  0
  -23.0982   -8.7112   22.4766 C   0  0  0  0  0  0  0  0  0  0  0  0
  -29.2703  -21.9043   17.2396 C   0  0  0  0  0  0  0  0  0  0  0  0
  -22.9115   -5.3931   20.4619 C   0  0  0  0  0  0  0  0  0  0  0  0
  -22.9779   -4.3673   19.5192 C   0  0  0  0  0  0  0  0  0  0  0  0
  -27.0243  -22.3088   16.4579 C   0  0  0  0  0  0  0  0  0  0  0  0
  -26.4091  -19.0591   20.7401 C   0  0  0  0  0  0  0  0  0  0  0  0
  -28.4020  -18.2937   19.6324 C   0  0  0  0  0  0  0  0  0  0  0  0
  -20.5922   -4.5302   19.1739 C   0  0  0  0  0  0  0  0  0  0  0  0
  -23.8275  -10.4445   20.9597 C   0  0  0  0  0  0  0  0  0  0  0  0
  -24.1646  -12.9707   20.8485 C   0  0  0  0  0  0  0  0  0  0  0  0
  -28.6420  -30.2754   20.5840 C   0  0  0  0  0  0  0  0  0  0  0  0
  -28.6066  -24.1380   16.5575 C   0  0  0  0  0  0  0  0  0  0  0  0
  -28.5675  -28.8843   20.3799 C   0  0  0  0  0  0  0  0  0  0  0  0
  -27.3231  -23.6641   16.2508 C   0  0  0  0  0  0  0  0  0  0  0  0
  -27.0528  -18.6270   19.5859 C   0  0  0  0  0  0  0  0  0  0  0  0
  -22.3448   -8.1338   21.4545 C   0  0  0  0  0  0  0  0  0  0  0  0
  -27.9923  -21.4344   16.9512 C   0  0  0  0  0  0  0  0  0  0  0  0
  -21.6855   -5.9876   20.7607 C   0  0  0  0  0  0  0  0  0  0  0  0
  -21.8183   -3.9358   18.8751 C   0  0  0  0  0  0  0  0  0  0  0  0
  -20.5259   -5.5561   20.1167 C   0  0  0  0  0  0  0  0  0  0  0  0
  -24.5939  -11.6377   20.7047 C   0  0  0  0  0  0  0  0  0  0  0  0
  -27.1531  -19.1401   21.9061 C   0  0  0  0  0  0  0  0  0  0  0  0
  -29.0569  -18.4092   20.8479 C   0  0  0  0  0  0  0  0  0  0  0  0
  -25.2546  -13.7235   20.4854 C   0  0  0  0  0  0  0  0  0  0  0  0
  -22.8943  -13.4827   21.2725 C   0  0  0  0  0  0  0  0  0  0  0  0
  -27.1985  -26.7531   17.6898 C   0  0  0  0  0  0  0  0  0  0  0  0
  -25.8976  -26.8663   14.7204 C   0  0  0  0  0  0  0  0  0  0  0  0
  -24.9906  -25.1910   11.8889 C   0  0  0  0  0  0  0  0  0  0  0  0
  -30.7370  -14.7513   20.6643 C   0  0  0  0  0  0  0  0  0  0  0  0
  -27.5193  -31.1977   20.1797 C   0  0  0  0  0  0  0  0  0  0  0  0
  -28.9624  -25.5804   16.3225 C   0  0  0  0  0  0  0  0  0  0  0  0
  -26.2501  -24.5730   15.7113 C   0  0  0  0  0  0  0  0  0  0  0  0
  -26.5517  -30.5760   19.1760 C   0  0  0  0  0  0  0  0  0  0  0  0
  -29.5977  -12.3739   18.2712 C   0  0  0  0  0  0  0  0  0  0  0  0
  -26.1644  -29.1661   19.6108 C   0  0  0  0  0  0  0  0  0  0  0  0
  -28.1619  -12.0761   18.7066 C   0  0  0  0  0  0  0  0  0  0  0  0
  -30.5174  -12.5918   19.4707 C   0  0  0  0  0  0  0  0  0  0  0  0
  -28.6178  -13.3143   20.8647 C   0  0  0  0  0  0  0  0  0  0  0  0
  -27.3925  -28.2496   19.6681 C   0  0  1  0  0  0  0  0  0  0  0  0
  -27.7466  -26.5019   16.3135 C   0  0  1  0  0  0  0  0  0  0  0  0
  -27.6411  -13.1425   19.6888 C   0  0  2  0  0  0  0  0  0  0  0  0
  -25.8989  -18.4414   23.9616 C   0  0  0  0  0  0  0  0  0  0  0  0
  -31.3681  -19.2816   21.3183 C   0  0  0  0  0  0  0  0  0  0  0  0
  -23.9156  -25.5455    9.6492 C   0  0  0  0  0  0  0  0  0  0  0  0
  -23.1614  -27.0241   16.0614 C   0  0  0  0  0  0  0  0  0  0  0  0
  -22.1265  -26.4218   13.8626 C   0  0  0  0  0  0  0  0  0  0  0  0
  -23.4425  -28.5294   14.0841 C   0  0  0  0  0  0  0  0  0  0  0  0
  -27.4216  -24.3047   10.4523 C   0  0  0  0  0  0  0  0  0  0  0  0
  -26.2899  -18.5190   18.2880 C   0  0  0  0  0  0  0  0  0  0  0  0
  -26.4949  -19.5983   23.1644 C   0  0  0  0  0  0  0  0  0  0  0  0
  -30.8022  -16.8972   21.9093 C   0  0  0  0  0  0  0  0  0  0  0  0
  -26.3368  -19.8106   17.4787 C   0  0  0  0  0  0  0  0  0  1  0  0
  -30.5055  -18.0617   20.9338 C   0  0  1  0  0  0  0  0  0  0  0  0
  -24.6508  -26.3086   14.0775 C   0  0  1  0  0  0  0  0  0  0  0  0
  -25.2255  -25.4943   10.4201 C   0  0  2  0  0  0  0  0  0  0  0  0
  -23.3647  -27.0540   14.5334 C   0  0  0  0  0  0  0  0  0  0  0  0
  -25.8579  -11.5457   20.2829 N   0  0  0  0  0  0  0  0  0  0  0  0
  -28.4651  -18.8251   21.9901 N   0  0  0  0  0  0  0  0  0  0  0  0
  -26.2322  -12.8304   20.1586 N   0  0  0  0  0  0  0  0  0  0  0  0
  -26.6450  -25.9762   15.5046 N   0  0  0  0  0  0  0  0  0  0  0  0
  -29.9672  -13.6160   20.3620 N   0  0  0  0  0  0  0  0  0  0  0  0
  -25.4625  -15.0556   20.4170 N   0  0  0  0  0  0  0  0  0  0  0  0
  -21.8848  -12.5705   21.6087 N   0  0  0  0  0  0  0  0  0  0  0  0
  -27.7732  -27.8308   18.3361 N   0  0  0  0  0  0  0  0  0  0  0  0
  -24.8832  -26.3438   12.6376 N   0  0  0  0  0  0  0  0  0  0  0  0
  -30.1383  -15.6759   21.5114 N   0  0  0  0  0  0  0  0  0  0  0  0
  -26.0911  -24.4474    9.8070 N   0  3  0  0  0  0  0  0  0  0  0  0
  -22.6561  -14.7127   21.3351 O   0  0  0  0  0  0  0  0  0  0  0  0
  -26.3183  -26.0241   18.1319 O   0  0  0  0  0  0  0  0  0  0  0  0
  -26.2012  -28.0463   14.5279 O   0  0  0  0  0  0  0  0  0  0  0  0
  -24.9067  -24.0459   12.3275 O   0  0  0  0  0  0  0  0  0  0  0  0
  -31.8716  -14.9305   20.2086 O   0  0  0  0  0  0  0  0  0  0  0  0
  -21.6214   -7.0065   21.6963 O   0  0  0  0  0  0  0  0  0  0  0  0
  -27.6890  -20.1221   17.1456 O   0  0  0  0  0  0  0  0  0  1  0  0
  -21.8824   -2.9517   17.9687 F   0  0  0  0  0  0  0  0  0  0  0  0
  -19.3454   -6.1242   20.3987 F   0  0  0  0  0  0  0  0  0  0  0  0
  1  2  1  0  0  0  0
  1  5  2  0  0  0  0
  2  6  2  0  0  0  0
  3  8  2  0  0  0  0
  3 17  1  0  0  0  0
  4  9  1  0  0  0  0
  4 17  2  0  0  0  0
  5 19  1  0  0  0  0
  6 21  1  0  0  0  0
  7 10  2  0  0  0  0
  7 20  1  0  0  0  0
  8 24  1  0  0  0  0
  9 24  2  0  0  0  0
 10 25  1  0  0  0  0
 11 12  2  0  0  0  0
 11 26  1  0  0  0  0
 12 27  1  0  0  0  0
 13 22  1  0  0  0  0
 13 25  2  0  0  0  0
 14 23  2  0  0  0  0
 14 30  1  0  0  0  0
 15 23  1  0  0  0  0
 15 31  2  0  0  0  0
 16 27  2  0  0  0  0
 16 28  1  0  0  0  0
 17 29  1  0  0  0  0
 18 29  1  0  0  0  0
 18 32  2  0  0  0  0
 18 33  1  0  0  0  0
 19 21  2  0  0  0  0
 19 38  1  0  0  0  0
 20 22  2  0  0  0  0
 20 39  1  0  0  0  0
 21 47  1  0  0  0  0
 22 40  1  0  0  0  0
 23 57  1  0  0  0  0
 24 81  1  0  0  0  0
 25 82  1  0  0  0  0
 26 28  2  0  0  0  0
 26 81  1  0  0  0  0
 27 83  1  0  0  0  0
 28 84  1  0  0  0  0
 29 65  2  0  0  0  0
 30 58  1  0  0  0  0
 30 66  2  0  0  0  0
 31 61  1  0  0  0  0
 31 66  1  0  0  0  0
 32 67  1  0  0  0  0
 32 70  1  0  0  0  0
 33 71  1  0  0  0  0
 33 76  2  0  0  0  0
 34 48  1  0  0  0  0
 34 72  1  0  0  0  0
 34 77  2  0  0  0  0
 35 62  1  0  0  0  0
 35 68  1  0  0  0  0
 35 78  2  0  0  0  0
 36 63  1  0  0  0  0
 36 73  1  0  0  0  0
 36 79  2  0  0  0  0
 37 69  1  0  0  0  0
 37 74  1  0  0  0  0
 37 80  2  0  0  0  0
 38 41  1  0  0  0  0
 39 48  1  0  0  0  0
 40 68  1  0  0  0  0
 41 43  1  0  0  0  0
 42 44  1  0  0  0  0
 42 45  1  0  0  0  0
 43 47  1  0  0  0  0
 44 49  1  0  0  0  0
 45 69  1  0  0  0  0
 46 49  1  0  0  0  0
 46 69  1  0  0  0  0
 47 72  1  0  0  0  0
 48 68  1  0  0  0  0
 49 67  1  0  0  0  0
 50 58  1  0  0  0  0
 51 61  1  0  0  0  0
 52 63  1  0  0  0  0
 53 64  1  0  0  0  0
 54 64  1  0  0  0  0
 55 64  1  0  0  0  0
 56 75  1  0  0  0  0
 57 60  1  0  0  0  0
 59 61  1  0  0  0  0
 59 74  1  0  0  0  0
 60 82  1  0  0  0  0
 62 64  1  0  0  0  0
 62 73  1  0  0  0  0
 63 75  1  0  0  0  0
 65 67  1  0  0  0  0
M  CHG  1  75   1
M  ISO  4  37 100  60 101  74 100  82 101
M  END
> <Batch ID>
0082

> <Smiles>
CCc1cc(C[101CH2:1][101O:1]c2ccc3c(c2)CN(C(=O)C(NC(=O)C(C)NC)C(C)(C)C)C(C(=O)NC2CCCc4ccccc42)C3)cc(C(C)C[100NH:0][100C:0](=O)N2CCCC(n3nc(-c4ccc(Oc5ccc(F)cc5F)cc4)c(C(N)=O)c3N)C2)n1

> <Shape>
0.223

> <Color>
0.188

> <Negative vol penalty>
0.000

$$$$

  -OEChem-04052318493D

 88 96  0     1  0  0  0  0  0999 V2000
  -19.2578  -28.0455   14.4708 C   0  0  0  0  0  0  0  0  0  0  0  0
  -20.1381  -26.9682   14.4601 C   0  0  0  0  0  0  0  0  0  0  0  0
  -22.9984   -9.8975   19.9825 C   0  0  0  0  0  0  0  0  0  0  0  0
  -23.7284   -9.9472   22.2851 C   0  0  0  0  0  0  0  0  0  0  0  0
  -19.6403  -29.2510   15.0576 C   0  0  0  0  0  0  0  0  0  0  0  0
  -21.4019  -27.0963   15.0354 C   0  0  0  0  0  0  0  0  0  0  0  0
  -22.6439  -23.1113   17.9028 C   0  0  0  0  0  0  0  0  0  0  0  0
  -22.2322   -8.7630   20.2499 C   0  0  0  0  0  0  0  0  0  0  0  0
  -22.9622   -8.8127   22.5525 C   0  0  0  0  0  0  0  0  0  0  0  0
  -23.0692  -21.9595   17.2424 C   0  0  0  0  0  0  0  0  0  0  0  0
  -23.2050   -5.4740   22.0783 C   0  0  0  0  0  0  0  0  0  0  0  0
  -23.7940   -4.4563   22.8287 C   0  0  0  0  0  0  0  0  0  0  0  0
  -25.3620  -22.5440   17.7122 C   0  0  0  0  0  0  0  0  0  0  0  0
  -28.8966  -17.8664   19.0324 C   0  0  0  0  0  0  0  0  0  0  0  0
  -22.0737   -4.6986   24.5076 C   0  0  0  0  0  0  0  0  0  0  0  0
  -23.7465  -10.4896   21.0001 C   0  0  0  0  0  0  0  0  0  0  0  0
  -24.1318  -13.0052   20.8246 C   0  0  0  0  0  0  0  0  0  0  0  0
  -20.9058  -29.3909   15.6489 C   0  0  0  0  0  0  0  0  0  0  0  0
  -23.5766  -23.9952   18.4644 C   0  0  0  0  0  0  0  0  0  0  0  0
  -21.8021  -28.3052   15.6295 C   0  0  0  0  0  0  0  0  0  0  0  0
  -24.9459  -23.7050   18.3814 C   0  0  0  0  0  0  0  0  0  0  0  0
  -29.1571  -18.0545   20.3852 C   0  0  0  0  0  0  0  0  0  0  0  0
  -28.1049  -18.2825   21.2650 C   0  0  0  0  0  0  0  0  0  0  0  0
  -22.2141   -8.2206   21.5348 C   0  0  0  0  0  0  0  0  0  0  0  0
  -24.4285  -21.6771   17.1444 C   0  0  0  0  0  0  0  0  0  0  0  0
  -22.0504   -6.1041   22.5426 C   0  0  0  0  0  0  0  0  0  0  0  0
  -23.2283   -4.0686   24.0433 C   0  0  0  0  0  0  0  0  0  0  0  0
  -21.4847   -5.7163   23.7573 C   0  0  0  0  0  0  0  0  0  0  0  0
  -24.5386  -11.6613   20.7244 C   0  0  0  0  0  0  0  0  0  0  0  0
  -27.5769  -17.9153   18.6132 C   0  0  0  0  0  0  0  0  0  0  0  0
  -26.8206  -18.3130   20.7458 C   0  0  0  0  0  0  0  0  0  0  0  0
  -25.2409  -13.7279   20.4583 C   0  0  0  0  0  0  0  0  0  0  0  0
  -22.8647  -13.5516   21.2141 C   0  0  0  0  0  0  0  0  0  0  0  0
  -24.3539  -27.0395   17.9831 C   0  0  0  0  0  0  0  0  0  0  0  0
  -26.2538  -26.5577   20.5677 C   0  0  0  0  0  0  0  0  0  0  0  0
  -27.9706  -24.3571   22.5316 C   0  0  0  0  0  0  0  0  0  0  0  0
  -30.7379  -14.6615   20.6958 C   0  0  0  0  0  0  0  0  0  0  0  0
  -21.2921  -30.7283   16.2292 C   0  0  0  0  0  0  0  0  0  0  0  0
  -23.1005  -25.2197   19.1968 C   0  0  0  0  0  0  0  0  0  0  0  0
  -25.9866  -24.6112   18.9850 C   0  0  0  0  0  0  0  0  0  0  0  0
  -22.5088  -30.6647   17.1488 C   0  0  0  0  0  0  0  0  0  0  0  0
  -29.5920  -12.2392   18.3514 C   0  0  0  0  0  0  0  0  0  0  0  0
  -23.6219  -29.8437   16.5055 C   0  0  0  0  0  0  0  0  0  0  0  0
  -28.1443  -11.9795   18.7719 C   0  0  0  0  0  0  0  0  0  0  0  0
  -30.4969  -12.4739   19.5589 C   0  0  0  0  0  0  0  0  0  0  0  0
  -28.5897  -13.2690   20.9021 C   0  0  0  0  0  0  0  0  0  0  0  0
  -23.1723  -28.3974   16.2653 C   0  0  1  0  0  0  0  0  0  0  0  0
  -24.1604  -26.3135   19.2842 C   0  0  1  0  0  0  0  0  0  0  0  0
  -27.6282  -13.0821   19.7160 C   0  0  2  0  0  0  0  0  0  0  0  0
  -28.3539  -18.4853   22.7218 C   0  0  0  0  0  0  0  0  0  0  0  0
  -23.3145  -19.5152   21.8261 C   0  0  0  0  0  0  0  0  0  0  0  0
  -29.4599  -24.2646   24.5492 C   0  0  0  0  0  0  0  0  0  0  0  0
  -31.0878  -19.3190   21.5558 C   0  0  0  0  0  0  0  0  0  0  0  0
  -31.5453  -17.7784   19.6655 C   0  0  0  0  0  0  0  0  0  0  0  0
  -28.5827  -27.5982   18.8934 C   0  0  0  0  0  0  0  0  0  0  0  0
  -30.1463  -26.6092   20.5802 C   0  0  0  0  0  0  0  0  0  0  0  0
  -28.5560  -28.4068   21.2598 C   0  0  0  0  0  0  0  0  0  0  0  0
  -26.0509  -22.6616   24.0146 C   0  0  0  0  0  0  0  0  0  0  0  0
  -27.2564  -17.7144   17.1536 C   0  0  0  0  0  0  0  0  0  0  0  0
  -25.6493  -18.5522   21.6417 C   0  0  0  0  0  0  0  0  0  0  0  0
  -24.5189  -19.3023   20.9228 C   0  0  0  0  0  0  0  0  0  0  0  0
  -26.0038  -18.4609   16.6896 C   0  0  0  0  0  0  0  0  0  0  0  0
  -30.8234  -16.8398   21.8819 C   0  0  0  0  0  0  0  0  0  0  0  0
  -26.0640  -19.9615   16.9501 C   0  0  0  0  0  0  0  0  0  1  0  0
  -27.6726  -26.0872   20.7788 C   0  0  1  0  0  0  0  0  0  0  0  0
  -28.0295  -24.1859   24.0388 C   0  0  2  0  0  0  0  0  0  0  0  0
  -30.5702  -18.0099   20.8653 C   0  0  0  0  0  0  0  0  0  0  0  0
  -28.7201  -27.1591   20.3649 C   0  0  0  0  0  0  0  0  0  0  0  0
  -25.8070  -11.5348   20.3255 N   0  0  0  0  0  0  0  0  0  0  0  0
  -26.5284  -18.1345   19.4380 N   0  0  0  0  0  0  0  0  0  0  0  0
  -26.2068  -12.8086   20.1718 N   0  0  0  0  0  0  0  0  0  0  0  0
  -25.4714  -25.7993   19.6854 N   0  0  0  0  0  0  0  0  0  0  0  0
  -29.9521  -13.5322   20.4127 N   0  0  0  0  0  0  0  0  0  0  0  0
  -25.4744  -15.0536   20.3564 N   0  0  0  0  0  0  0  0  0  0  0  0
  -21.8335  -12.6675   21.5593 N   0  0  0  0  0  0  0  0  0  0  0  0
  -23.2091  -27.6448   17.5009 N   0  0  0  0  0  0  0  0  0  0  0  0
  -27.7617  -25.6725   22.1747 N   0  0  0  0  0  0  0  0  0  0  0  0
  -30.1434  -15.6200   21.5074 N   0  0  0  0  0  0  0  0  0  0  0  0
  -27.4618  -22.8655   24.4328 N   0  3  0  0  0  0  0  0  0  0  0  0
  -22.6483  -14.7870   21.2389 O   0  0  0  0  0  0  0  0  0  0  0  0
  -25.4603  -27.0510   17.4564 O   0  0  0  0  0  0  0  0  0  0  0  0
  -25.8522  -27.5570   21.1692 O   0  0  0  0  0  0  0  0  0  0  0  0
  -28.1009  -23.4184   21.7490 O   0  0  0  0  0  0  0  0  0  0  0  0
  -31.8824  -14.8075   20.2534 O   0  0  0  0  0  0  0  0  0  0  0  0
  -21.4664   -7.1137   21.7962 O   0  0  0  0  0  0  0  0  0  0  0  0
  -24.8464  -20.5539   16.4998 O   0  0  0  0  0  0  0  0  0  1  0  0
  -23.7931   -3.0902   24.7630 F   0  0  0  0  0  0  0  0  0  0  0  0
  -20.3749   -6.3171   24.2079 F   0  0  0  0  0  0  0  0  0  0  0  0
  1  2  1  0  0  0  0
  1  5  2  0  0  0  0
  2  6  2  0  0  0  0
  3  8  2  0  0  0  0
  3 16  1  0  0  0  0
  4  9  1  0  0  0  0
  4 16  2  0  0  0  0
  5 18  1  0  0  0  0
  6 20  1  0  0  0  0
  7 10  2  0  0  0  0
  7 19  1  0  0  0  0
  8 24  1  0  0  0  0
  9 24  2  0  0  0  0
 10 25  1  0  0  0  0
 11 12  2  0  0  0  0
 11 26  1  0  0  0  0
 12 27  1  0  0  0  0
 13 21  1  0  0  0  0
 13 25  2  0  0  0  0
 14 22  2  0  0  0  0
 14 30  1  0  0  0  0
 15 27  2  0  0  0  0
 15 28  1  0  0  0  0
 16 29  1  0  0  0  0
 17 29  1  0  0  0  0
 17 32  2  0  0  0  0
 17 33  1  0  0  0  0
 18 20  2  0  0  0  0
 18 38  1  0  0  0  0
 19 21  2  0  0  0  0
 19 39  1  0  0  0  0
 20 47  1  0  0  0  0
 21 40  1  0  0  0  0
 22 23  1  0  0  0  0
 22 67  1  0  0  0  0
 23 31  2  0  0  0  0
 23 50  1  0  0  0  0
 24 85  1  0  0  0  0
 25 86  1  0  0  0  0
 26 28  2  0  0  0  0
 26 85  1  0  0  0  0
 27 87  1  0  0  0  0
 28 88  1  0  0  0  0
 29 69  2  0  0  0  0
 30 59  1  0  0  0  0
 30 70  2  0  0  0  0
 31 60  1  0  0  0  0
 31 70  1  0  0  0  0
 32 71  1  0  0  0  0
 32 74  1  0  0  0  0
 33 75  1  0  0  0  0
 33 80  2  0  0  0  0
 34 48  1  0  0  0  0
 34 76  1  0  0  0  0
 34 81  2  0  0  0  0
 35 65  1  0  0  0  0
 35 72  1  0  0  0  0
 35 82  2  0  0  0  0
 36 66  1  0  0  0  0
 36 77  1  0  0  0  0
 36 83  2  0  0  0  0
 37 73  1  0  0  0  0
 37 78  1  0  0  0  0
 37 84  2  0  0  0  0
 38 41  1  0  0  0  0
 39 48  1  0  0  0  0
 40 72  1  0  0  0  0
 41 43  1  0  0  0  0
 42 44  1  0  0  0  0
 42 45  1  0  0  0  0
 43 47  1  0  0  0  0
 44 49  1  0  0  0  0
 45 73  1  0  0  0  0
 46 49  1  0  0  0  0
 46 73  1  0  0  0  0
 47 76  1  0  0  0  0
 48 72  1  0  0  0  0
 49 71  1  0  0  0  0
 51 61  1  0  0  0  0
 52 66  1  0  0  0  0
 53 67  1  0  0  0  0
 54 67  1  0  0  0  0
 55 68  1  0  0  0  0
 56 68  1  0  0  0  0
 57 68  1  0  0  0  0
 58 79  1  0  0  0  0
 59 62  1  0  0  0  0
 60 61  1  0  0  0  0
 62 64  1  0  0  0  0
 63 67  1  0  0  0  0
 63 78  1  0  0  0  0
 64 86  1  0  0  0  0
 65 68  1  0  0  0  0
 65 77  1  0  0  0  0
 66 79  1  0  0  0  0
 69 71  1  0  0  0  0
M  CHG  1  79   1
M  ISO  4  37 100  64 101  78 100  86 101
M  END
> <Batch ID>
0082

> <Smiles>
CCCc1nc(CC[101CH2:1][101O:1]c2ccc3c(c2)CN(C(=O)C(NC(=O)C(C)NC)C(C)(C)C)C(C(=O)NC2CCCc4ccccc42)C3)cc(C(C)(C)C[100NH:0][100C:0](=O)N2CCCC(n3nc(-c4ccc(Oc5ccc(F)cc5F)cc4)c(C(N)=O)c3N)C2)c1C

> <Shape>
0.252

> <Color>
0.193

> <Negative vol penalty>
0.000

$$$$

  -OEChem-04052318493D

 78 85  0     1  0  0  0  0  0999 V2000
  -16.7448  -28.5612   23.8147 C   0  0  0  0  0  0  0  0  0  0  0  0
  -17.3222  -28.1010   22.6357 C   0  0  0  0  0  0  0  0  0  0  0  0
  -24.2041  -13.7159   20.4626 C   0  0  0  0  0  0  0  0  0  0  0  0
  -26.4502  -13.5572   21.3384 C   0  0  0  0  0  0  0  0  0  0  0  0
  -17.3207  -29.6297   24.5008 C   0  0  0  0  0  0  0  0  0  0  0  0
  -18.4752  -28.7097   22.1414 C   0  0  0  0  0  0  0  0  0  0  0  0
  -24.5151  -24.9229   21.1062 C   0  0  0  0  0  0  0  0  0  0  0  0
  -24.1945  -12.3394   20.2376 C   0  0  0  0  0  0  0  0  0  0  0  0
  -26.4406  -12.1806   21.1134 C   0  0  0  0  0  0  0  0  0  0  0  0
  -25.6457  -24.2242   20.6823 C   0  0  0  0  0  0  0  0  0  0  0  0
  -23.4445   -8.8136   19.7673 C   0  0  0  0  0  0  0  0  0  0  0  0
  -22.3060   -8.1024   20.1463 C   0  0  0  0  0  0  0  0  0  0  0  0
  -26.6982  -26.3015   20.0303 C   0  0  0  0  0  0  0  0  0  0  0  0
  -22.6265   -8.8086   22.4344 C   0  0  0  0  0  0  0  0  0  0  0  0
  -25.3319  -14.3249   21.0129 C   0  0  0  0  0  0  0  0  0  0  0  0
  -24.9354  -16.4208   22.4120 C   0  0  0  0  0  0  0  0  0  0  0  0
  -18.4868  -30.2456   24.0198 C   0  0  0  0  0  0  0  0  0  0  0  0
  -24.4778  -26.3166   21.0078 C   0  0  0  0  0  0  0  0  0  0  0  0
  -19.0665  -29.7883   22.8209 C   0  0  0  0  0  0  0  0  0  0  0  0
  -25.5734  -27.0078   20.4648 C   0  0  0  0  0  0  0  0  0  0  0  0
  -25.3128  -11.5717   20.5631 C   0  0  0  0  0  0  0  0  0  0  0  0
  -26.7344  -24.9118   20.1455 C   0  0  0  0  0  0  0  0  0  0  0  0
  -24.1741   -9.5222   20.7219 C   0  0  0  0  0  0  0  0  0  0  0  0
  -21.8970   -8.0999   21.4798 C   0  0  0  0  0  0  0  0  0  0  0  0
  -23.7651   -9.5198   22.0554 C   0  0  0  0  0  0  0  0  0  0  0  0
  -25.3426  -15.7469   21.2451 C   0  0  0  0  0  0  0  0  0  0  0  0
  -25.1400  -17.7494   22.1303 C   0  0  0  0  0  0  0  0  0  0  0  0
  -24.4185  -15.8930   23.6408 C   0  0  0  0  0  0  0  0  0  0  0  0
  -22.5415  -29.4741   21.6050 C   0  0  0  0  0  0  0  0  0  0  0  0
  -25.4575  -30.0617   22.3548 C   0  0  0  0  0  0  0  0  0  0  0  0
  -28.6794  -30.1756   23.4699 C   0  0  0  0  0  0  0  0  0  0  0  0
  -28.8912  -20.2248   17.9662 C   0  0  0  0  0  0  0  0  0  0  0  0
  -19.0461  -31.4278   24.7709 C   0  0  0  0  0  0  0  0  0  0  0  0
  -23.2564  -27.1052   21.3950 C   0  0  0  0  0  0  0  0  0  0  0  0
  -25.4750  -28.5042   20.3462 C   0  0  0  0  0  0  0  0  0  0  0  0
  -20.4800  -31.7754   24.3791 C   0  0  0  0  0  0  0  0  0  0  0  0
  -25.2783  -20.8388   18.4873 C   0  0  0  0  0  0  0  0  0  0  0  0
  -20.6306  -31.7876   22.8612 C   0  0  0  0  0  0  0  0  0  0  0  0
  -24.8456  -19.6158   19.2941 C   0  0  0  0  0  0  0  0  0  0  0  0
  -26.4717  -20.5316   17.5877 C   0  0  0  0  0  0  0  0  0  0  0  0
  -27.2055  -18.7326   19.1172 C   0  0  0  0  0  0  0  0  0  0  0  0
  -20.3314  -30.4065   22.2660 C   0  0  1  0  0  0  0  0  0  0  0  0
  -23.5925  -28.4794   22.0015 C   0  0  1  0  0  0  0  0  0  0  0  0
  -26.0344  -19.0208   20.0686 C   0  0  2  0  0  0  0  0  0  0  0  0
  -30.3469  -31.7300   24.5190 C   0  0  0  0  0  0  0  0  0  0  0  0
  -29.6370  -21.4501   22.6130 C   0  0  0  0  0  0  0  0  0  0  0  0
  -30.0523  -18.9069   21.0371 C   0  0  0  0  0  0  0  0  0  0  0  0
  -25.8455  -31.4527   19.6681 C   0  0  0  0  0  0  0  0  0  0  0  0
  -28.0689  -32.2607   20.4878 C   0  0  0  0  0  0  0  0  0  0  0  0
  -25.9800  -32.9651   21.6553 C   0  0  0  0  0  0  0  0  0  0  0  0
  -31.2413  -20.5377   18.6437 C   0  0  0  0  0  0  0  0  0  0  0  0
  -28.9517  -28.4553   25.8626 C   0  0  0  0  0  0  0  0  0  0  0  0
  -29.6435  -22.7848   20.4451 C   0  0  0  0  0  0  0  0  0  0  0  0
  -28.1334  -23.0085   20.4243 C   0  0  0  0  0  0  0  0  0  1  0  0
  -26.7980  -30.5860   21.9058 C   0  0  1  0  0  0  0  0  0  0  0  0
  -29.2780  -30.6781   24.7713 C   0  0  2  0  0  0  0  0  0  0  0  0
  -30.0681  -21.4737   21.1393 C   0  0  2  0  0  0  0  0  0  0  0  0
  -29.5505  -20.2058   20.4091 C   0  0  1  0  0  0  0  0  0  0  0  0
  -26.6671  -31.7884   20.9288 C   0  0  0  0  0  0  0  0  0  0  0  0
  -25.7732  -16.5787   20.2929 N   0  0  0  0  0  0  0  0  0  0  0  0
  -25.6376  -17.7890   20.8610 N   0  0  0  0  0  0  0  0  0  0  0  0
  -24.8707  -29.0660   21.5644 N   0  0  0  0  0  0  0  0  0  0  0  0
  -27.5708  -19.9274   18.3414 N   0  0  0  0  0  0  0  0  0  0  0  0
  -24.9410  -18.8760   22.8469 N   0  0  0  0  0  0  0  0  0  0  0  0
  -24.2722  -14.5045   23.7625 N   0  0  0  0  0  0  0  0  0  0  0  0
  -21.4570  -29.5178   22.4602 N   0  0  0  0  0  0  0  0  0  0  0  0
  -27.5481  -30.8828   23.1214 N   0  0  0  0  0  0  0  0  0  0  0  0
  -29.8601  -20.2240   18.9811 N   0  0  0  0  0  0  0  0  0  0  0  0
  -29.8960  -29.5516   25.5262 N   0  3  0  0  0  0  0  0  0  0  0  0
  -24.0805  -16.6320   24.5964 O   0  0  0  0  0  0  0  0  0  0  0  0
  -22.7022  -30.1538   20.5981 O   0  0  0  0  0  0  0  0  0  0  0  0
  -24.9397  -30.5247   23.3750 O   0  0  0  0  0  0  0  0  0  0  0  0
  -29.1687  -29.2509   22.8249 O   0  0  0  0  0  0  0  0  0  0  0  0
  -29.1856  -20.4861   16.7928 O   0  0  0  0  0  0  0  0  0  0  0  0
  -25.3037  -10.2284   20.3439 O   0  0  0  0  0  0  0  0  0  0  0  0
  -27.8369  -24.2239   19.7379 O   0  0  0  0  0  0  0  0  0  1  0  0
  -20.8028   -7.4182   21.8434 F   0  0  0  0  0  0  0  0  0  0  0  0
  -24.4613  -10.1997   22.9768 F   0  0  0  0  0  0  0  0  0  0  0  0
  1  2  1  0  0  0  0
  1  5  2  0  0  0  0
  2  6  2  0  0  0  0
  3  8  2  0  0  0  0
  3 15  1  0  0  0  0
  4  9  1  0  0  0  0
  4 15  2  0  0  0  0
  5 17  1  0  0  0  0
  6 19  1  0  0  0  0
  7 10  2  0  0  0  0
  7 18  1  0  0  0  0
  8 21  1  0  0  0  0
  9 21  2  0  0  0  0
 10 22  1  0  0  0  0
 11 12  2  0  0  0  0
 11 23  1  0  0  0  0
 12 24  1  0  0  0  0
 13 20  1  0  0  0  0
 13 22  2  0  0  0  0
 14 24  2  0  0  0  0
 14 25  1  0  0  0  0
 15 26  1  0  0  0  0
 16 26  1  0  0  0  0
 16 27  2  0  0  0  0
 16 28  1  0  0  0  0
 17 19  2  0  0  0  0
 17 33  1  0  0  0  0
 18 20  2  0  0  0  0
 18 34  1  0  0  0  0
 19 42  1  0  0  0  0
 20 35  1  0  0  0  0
 21 75  1  0  0  0  0
 22 76  1  0  0  0  0
 23 25  2  0  0  0  0
 23 75  1  0  0  0  0
 24 77  1  0  0  0  0
 25 78  1  0  0  0  0
 26 60  2  0  0  0  0
 27 61  1  0  0  0  0
 27 64  1  0  0  0  0
 28 65  1  0  0  0  0
 28 70  2  0  0  0  0
 29 43  1  0  0  0  0
 29 66  1  0  0  0  0
 29 71  2  0  0  0  0
 30 55  1  0  0  0  0
 30 62  1  0  0  0  0
 30 72  2  0  0  0  0
 31 56  1  0  0  0  0
 31 67  1  0  0  0  0
 31 73  2  0  0  0  0
 32 63  1  0  0  0  0
 32 68  1  0  0  0  0
 32 74  2  0  0  0  0
 33 36  1  0  0  0  0
 34 43  1  0  0  0  0
 35 62  1  0  0  0  0
 36 38  1  0  0  0  0
 37 39  1  0  0  0  0
 37 40  1  0  0  0  0
 38 42  1  0  0  0  0
 39 44  1  0  0  0  0
 40 63  1  0  0  0  0
 41 44  1  0  0  0  0
 41 63  1  0  0  0  0
 42 66  1  0  0  0  0
 43 62  1  0  0  0  0
 44 61  1  0  0  0  0
 45 56  1  0  0  0  0
 46 57  1  0  0  0  0
 47 58  1  0  0  0  0
 48 59  1  0  0  0  0
 49 59  1  0  0  0  0
 50 59  1  0  0  0  0
 51 68  1  0  0  0  0
 52 69  1  0  0  0  0
 53 54  1  0  0  0  0
 53 57  1  0  0  0  0
 54 76  1  0  0  0  0
 55 59  1  0  0  0  0
 55 67  1  0  0  0  0
 56 69  1  0  0  0  0
 57 58  1  0  0  0  0
 58 68  1  0  0  0  0
 60 61  1  0  0  0  0
M  CHG  1  69   1
M  ISO  4  32 100  54 101  68 100  76 101
M  END
> <Batch ID>
0082

> <Smiles>
CNC(C)C(=O)NC(C(=O)N1Cc2cc([101O:1][101CH2:1]CC(C)C(C)[100N:0](C)[100C:0](=O)N3CCCC(n4nc(-c5ccc(Oc6ccc(F)cc6F)cc5)c(C(N)=O)c4N)C3)ccc2CC1C(=O)NC1CCCc2ccccc21)C(C)(C)C

> <Shape>
0.245

> <Color>
0.079

> <Negative vol penalty>
0.000

$$$$
