
  -OEChem-04052318513D

 84 92  0     1  0  0  0  0  0999 V2000
  -32.1477  -14.9366   18.9515 C   0  0  0  0  0  0  0  0  0  0  0  0
  -31.1713  -15.9014   18.7254 C   0  0  0  0  0  0  0  0  0  0  0  0
  -29.2246  -25.7427   20.8647 C   0  0  0  0  0  0  0  0  0  0  0  0
  -27.3426  -24.3300   21.4123 C   0  0  0  0  0  0  0  0  0  0  0  0
  -31.7808  -13.6634   19.3855 C   0  0  0  0  0  0  0  0  0  0  0  0
  -29.8271  -15.5932   18.9323 C   0  0  0  0  0  0  0  0  0  0  0  0
  -25.4655  -19.3554   21.0127 C   0  0  0  0  0  0  0  0  0  0  0  0
  -30.0781  -24.8645   21.5324 C   0  0  0  0  0  0  0  0  0  0  0  0
  -28.1962  -23.4518   22.0801 C   0  0  0  0  0  0  0  0  0  0  0  0
  -24.4821  -20.1009   20.3639 C   0  0  0  0  0  0  0  0  0  0  0  0
  -29.9293  -20.6513   23.6201 C   0  0  0  0  0  0  0  0  0  0  0  0
  -29.7656  -19.2855   23.3893 C   0  0  0  0  0  0  0  0  0  0  0  0
  -22.8899  -18.3320   20.7579 C   0  0  0  0  0  0  0  0  0  0  0  0
  -19.7919  -28.1673   19.4005 C   0  0  0  0  0  0  0  0  0  0  0  0
  -30.2107  -19.6293   21.0396 C   0  0  0  0  0  0  0  0  0  0  0  0
  -19.3380  -26.6653   21.0153 C   0  0  0  0  0  0  0  0  0  0  0  0
  -27.8568  -25.4755   20.8047 C   0  0  0  0  0  0  0  0  0  0  0  0
  -26.6078  -26.3440   18.7569 C   0  0  0  0  0  0  0  0  0  0  0  0
  -30.4323  -13.3424   19.6071 C   0  0  0  0  0  0  0  0  0  0  0  0
  -25.1708  -18.0859   21.5302 C   0  0  0  0  0  0  0  0  0  0  0  0
  -29.4417  -14.3142   19.3684 C   0  0  0  0  0  0  0  0  0  0  0  0
  -23.8707  -17.5735   21.4150 C   0  0  0  0  0  0  0  0  0  0  0  0
  -19.4485  -28.0155   20.7665 C   0  0  0  0  0  0  0  0  0  0  0  0
  -29.5639  -23.7191   22.1401 C   0  0  0  0  0  0  0  0  0  0  0  0
  -23.1948  -19.5880   20.2339 C   0  0  0  0  0  0  0  0  0  0  0  0
  -30.2336  -21.5062   22.5607 C   0  0  0  0  0  0  0  0  0  0  0  0
  -29.9063  -18.7744   22.0991 C   0  0  0  0  0  0  0  0  0  0  0  0
  -30.3743  -20.9951   21.2705 C   0  0  0  0  0  0  0  0  0  0  0  0
  -26.9745  -26.3825   20.1155 C   0  0  0  0  0  0  0  0  0  0  0  0
  -19.8807  -26.9052   18.8560 C   0  0  0  0  0  0  0  0  0  0  0  0
  -25.7591  -27.4124   18.5999 C   0  0  0  0  0  0  0  0  0  0  0  0
  -26.9994  -25.4246   17.7287 C   0  0  0  0  0  0  0  0  0  0  0  0
  -26.2132  -15.1364   20.9664 C   0  0  0  0  0  0  0  0  0  0  0  0
  -24.3329  -14.4048   23.5064 C   0  0  0  0  0  0  0  0  0  0  0  0
  -21.6619  -15.2257   25.4655 C   0  0  0  0  0  0  0  0  0  0  0  0
  -22.2364  -30.4139   22.3988 C   0  0  0  0  0  0  0  0  0  0  0  0
  -30.0804  -11.9384   20.0309 C   0  0  0  0  0  0  0  0  0  0  0  0
  -26.2360  -17.3057   22.2508 C   0  0  0  0  0  0  0  0  0  0  0  0
  -23.4978  -16.2244   21.9711 C   0  0  0  0  0  0  0  0  0  0  0  0
  -28.6646  -11.8065   20.5861 C   0  0  0  0  0  0  0  0  0  0  0  0
  -24.8413  -31.7583   20.3780 C   0  0  0  0  0  0  0  0  0  0  0  0
  -27.6677  -12.5253   19.6824 C   0  0  0  0  0  0  0  0  0  0  0  0
  -25.6503  -30.5295   19.9590 C   0  0  0  0  0  0  0  0  0  0  0  0
  -24.3132  -31.6266   21.8048 C   0  0  0  0  0  0  0  0  0  0  0  0
  -24.3535  -29.1672   21.6505 C   0  0  0  0  0  0  0  0  0  0  0  0
  -27.9752  -14.0256   19.6053 C   0  0  1  0  0  0  0  0  0  0  0  0
  -25.9571  -15.8063   22.2867 C   0  0  1  0  0  0  0  0  0  0  0  0
  -24.8600  -29.2292   20.1993 C   0  0  2  0  0  0  0  0  0  0  0  0
  -20.2070  -26.4887   17.4764 C   0  0  0  0  0  0  0  0  0  0  0  0
  -17.7975  -29.1464   22.2895 C   0  0  0  0  0  0  0  0  0  0  0  0
  -20.3458  -14.4149   27.4424 C   0  0  0  0  0  0  0  0  0  0  0  0
  -22.9888  -12.3050   21.7473 C   0  0  0  0  0  0  0  0  0  0  0  0
  -21.1189  -12.2104   23.4095 C   0  0  0  0  0  0  0  0  0  0  0  0
  -23.4299  -11.5703   24.0968 C   0  0  0  0  0  0  0  0  0  0  0  0
  -22.3051  -17.6509   27.0351 C   0  0  0  0  0  0  0  0  0  0  0  0
  -20.9796  -23.8615   19.6947 C   0  0  0  0  0  0  0  0  0  0  0  0
  -20.9383  -22.3337   19.6354 C   0  0  0  0  0  0  0  0  0  0  0  0
  -19.5860  -24.4999   19.6936 C   0  0  0  0  0  0  0  0  0  0  0  0
  -20.2295  -29.0609   22.9473 C   0  0  0  0  0  0  0  0  0  0  0  0
  -22.3377  -21.7345   19.6737 C   0  0  0  0  0  0  0  0  0  1  0  0
  -19.2466  -29.1022   21.7437 C   0  0  1  0  0  0  0  0  0  0  0  0
  -22.8883  -14.0057   23.6873 C   0  0  1  0  0  0  0  0  0  0  0  0
  -21.5000  -15.2872   26.9737 C   0  0  2  0  0  0  0  0  0  0  0  0
  -22.6137  -12.5475   23.2230 C   0  0  0  0  0  0  0  0  0  0  0  0
  -26.4055  -27.3953   20.7747 N   0  0  0  0  0  0  0  0  0  0  0  0
  -19.6025  -26.0000   19.8466 N   0  0  0  0  0  0  0  0  0  0  0  0
  -25.6727  -28.0031   19.8262 N   0  0  0  0  0  0  0  0  0  0  0  0
  -24.5757  -15.4971   22.6615 N   0  0  0  0  0  0  0  0  0  0  0  0
  -23.5720  -30.3733   21.9658 N   0  0  0  0  0  0  0  0  0  0  0  0
  -25.0859  -27.8948   17.5339 N   0  0  0  0  0  0  0  0  0  0  0  0
  -27.8779  -24.3845   18.0616 N   0  0  0  0  0  0  0  0  0  0  0  0
  -27.5132  -14.6983   20.8006 N   0  0  0  0  0  0  0  0  0  0  0  0
  -22.5678  -14.2571   25.0882 N   0  0  0  0  0  0  0  0  0  0  0  0
  -21.6052  -29.1819   22.5188 N   0  0  0  0  0  0  0  0  0  0  0  0
  -21.2376  -16.6879   27.4097 N   0  3  0  0  0  0  0  0  0  0  0  0
  -26.5954  -25.5322   16.5460 O   0  0  0  0  0  0  0  0  0  0  0  0
  -25.2987  -15.0240   20.1585 O   0  0  0  0  0  0  0  0  0  0  0  0
  -25.2130  -13.7752   24.0986 O   0  0  0  0  0  0  0  0  0  0  0  0
  -21.0435  -15.9606   24.6987 O   0  0  0  0  0  0  0  0  0  0  0  0
  -21.6482  -31.4703   22.6542 O   0  0  0  0  0  0  0  0  0  0  0  0
  -30.3965  -22.8618   22.7916 O   0  0  0  0  0  0  0  0  0  0  0  0
  -22.2331  -20.3133   19.6006 O   0  0  0  0  0  0  0  0  0  1  0  0
  -29.7506  -17.4626   21.8778 F   0  0  0  0  0  0  0  0  0  0  0  0
  -30.6677  -21.8113   20.2489 F   0  0  0  0  0  0  0  0  0  0  0  0
  1  2  1  0  0  0  0
  1  5  2  0  0  0  0
  2  6  2  0  0  0  0
  3  8  2  0  0  0  0
  3 17  1  0  0  0  0
  4  9  1  0  0  0  0
  4 17  2  0  0  0  0
  5 19  1  0  0  0  0
  6 21  1  0  0  0  0
  7 10  2  0  0  0  0
  7 20  1  0  0  0  0
  8 24  1  0  0  0  0
  9 24  2  0  0  0  0
 10 25  1  0  0  0  0
 11 12  2  0  0  0  0
 11 26  1  0  0  0  0
 12 27  1  0  0  0  0
 13 22  1  0  0  0  0
 13 25  2  0  0  0  0
 14 23  1  0  0  0  0
 14 30  2  0  0  0  0
 15 27  2  0  0  0  0
 15 28  1  0  0  0  0
 16 23  2  0  0  0  0
 16 66  1  0  0  0  0
 17 29  1  0  0  0  0
 18 29  1  0  0  0  0
 18 31  2  0  0  0  0
 18 32  1  0  0  0  0
 19 21  2  0  0  0  0
 19 37  1  0  0  0  0
 20 22  2  0  0  0  0
 20 38  1  0  0  0  0
 21 46  1  0  0  0  0
 22 39  1  0  0  0  0
 23 61  1  0  0  0  0
 24 81  1  0  0  0  0
 25 82  1  0  0  0  0
 26 28  2  0  0  0  0
 26 81  1  0  0  0  0
 27 83  1  0  0  0  0
 28 84  1  0  0  0  0
 29 65  2  0  0  0  0
 30 49  1  0  0  0  0
 30 66  1  0  0  0  0
 31 67  1  0  0  0  0
 31 70  1  0  0  0  0
 32 71  1  0  0  0  0
 32 76  2  0  0  0  0
 33 47  1  0  0  0  0
 33 72  1  0  0  0  0
 33 77  2  0  0  0  0
 34 62  1  0  0  0  0
 34 68  1  0  0  0  0
 34 78  2  0  0  0  0
 35 63  1  0  0  0  0
 35 73  1  0  0  0  0
 35 79  2  0  0  0  0
 36 69  1  0  0  0  0
 36 74  1  0  0  0  0
 36 80  2  0  0  0  0
 37 40  1  0  0  0  0
 38 47  1  0  0  0  0
 39 68  1  0  0  0  0
 40 42  1  0  0  0  0
 41 43  1  0  0  0  0
 41 44  1  0  0  0  0
 42 46  1  0  0  0  0
 43 48  1  0  0  0  0
 44 69  1  0  0  0  0
 45 48  1  0  0  0  0
 45 69  1  0  0  0  0
 46 72  1  0  0  0  0
 47 68  1  0  0  0  0
 48 67  1  0  0  0  0
 50 61  1  0  0  0  0
 51 63  1  0  0  0  0
 52 64  1  0  0  0  0
 53 64  1  0  0  0  0
 54 64  1  0  0  0  0
 55 75  1  0  0  0  0
 56 57  1  0  0  0  0
 56 58  1  0  0  0  0
 57 60  1  0  0  0  0
 58 66  1  0  0  0  0
 59 61  1  0  0  0  0
 59 74  1  0  0  0  0
 60 82  1  0  0  0  0
 62 64  1  0  0  0  0
 62 73  1  0  0  0  0
 63 75  1  0  0  0  0
 65 67  1  0  0  0  0
M  CHG  1  75   1
M  ISO  4  36 100  60 101  74 100  82 101
M  END
> <Batch ID>
0083

> <Smiles>
CNC(C)C(=O)NC(C(=O)N1Cc2cc([101O:1][101CH2:1]CCCn3cc(C(C)C[100NH:0][100C:0](=O)N4CCCC(n5nc(-c6ccc(Oc7ccc(F)cc7F)cc6)c(C(N)=O)c5N)C4)cc3C)ccc2CC1C(=O)NC1CCCc2ccccc21)C(C)(C)C

> <Shape>
0.201

> <Color>
0.075

> <Negative vol penalty>
0.000

$$$$

  -OEChem-04052318513D

 86 94  0     1  0  0  0  0  0999 V2000
  -38.8329  -24.6433   13.9150 C   0  0  0  0  0  0  0  0  0  0  0  0
  -38.9440  -23.8634   15.0617 C   0  0  0  0  0  0  0  0  0  0  0  0
  -23.0792   -9.8720   19.9676 C   0  0  0  0  0  0  0  0  0  0  0  0
  -23.8286   -9.9225   22.2638 C   0  0  0  0  0  0  0  0  0  0  0  0
  -37.8040  -25.5779   13.8060 C   0  0  0  0  0  0  0  0  0  0  0  0
  -38.0268  -24.0185   16.1006 C   0  0  0  0  0  0  0  0  0  0  0  0
  -34.6927  -20.2655   21.2109 C   0  0  0  0  0  0  0  0  0  0  0  0
  -22.3311   -8.7260   20.2369 C   0  0  0  0  0  0  0  0  0  0  0  0
  -23.0805   -8.7765   22.5332 C   0  0  0  0  0  0  0  0  0  0  0  0
  -34.4608  -20.2874   22.5855 C   0  0  0  0  0  0  0  0  0  0  0  0
  -19.3741   -7.9659   21.6900 C   0  0  0  0  0  0  0  0  0  0  0  0
  -18.0694   -7.9135   21.1997 C   0  0  0  0  0  0  0  0  0  0  0  0
  -32.6776  -21.8777   22.2532 C   0  0  0  0  0  0  0  0  0  0  0  0
  -31.3157  -18.0338   23.9907 C   0  0  0  0  0  0  0  0  0  0  0  0
  -18.6299   -5.9431   19.9188 C   0  0  0  0  0  0  0  0  0  0  0  0
  -23.8280  -10.4703   20.9810 C   0  0  0  0  0  0  0  0  0  0  0  0
  -24.1771  -12.9917   20.8126 C   0  0  0  0  0  0  0  0  0  0  0  0
  -36.8681  -25.7377   14.8400 C   0  0  0  0  0  0  0  0  0  0  0  0
  -33.9247  -21.0591   20.3468 C   0  0  0  0  0  0  0  0  0  0  0  0
  -36.9852  -24.9570   16.0058 C   0  0  0  0  0  0  0  0  0  0  0  0
  -32.9001  -21.8621   20.8678 C   0  0  0  0  0  0  0  0  0  0  0  0
  -30.8862  -18.4639   25.2412 C   0  0  0  0  0  0  0  0  0  0  0  0
  -29.5710  -18.2404   25.6332 C   0  0  0  0  0  0  0  0  0  0  0  0
  -22.3317   -8.1782   21.5197 C   0  0  0  0  0  0  0  0  0  0  0  0
  -33.4551  -21.0958   23.1072 C   0  0  0  0  0  0  0  0  0  0  0  0
  -20.3069   -7.0071   21.2947 C   0  0  0  0  0  0  0  0  0  0  0  0
  -17.6972   -6.9021   20.3142 C   0  0  0  0  0  0  0  0  0  0  0  0
  -19.9347   -5.9956   20.4091 C   0  0  0  0  0  0  0  0  0  0  0  0
  -24.6014  -11.6538   20.7033 C   0  0  0  0  0  0  0  0  0  0  0  0
  -30.3983  -17.3903   23.1758 C   0  0  0  0  0  0  0  0  0  0  0  0
  -28.7316  -17.5878   24.7447 C   0  0  0  0  0  0  0  0  0  0  0  0
  -25.2729  -13.7310   20.4396 C   0  0  0  0  0  0  0  0  0  0  0  0
  -22.9061  -13.5190   21.2153 C   0  0  0  0  0  0  0  0  0  0  0  0
  -34.5517  -23.4393   18.3354 C   0  0  0  0  0  0  0  0  0  0  0  0
  -31.4205  -23.0923   17.5624 C   0  0  0  0  0  0  0  0  0  0  0  0
  -28.3076  -22.0413   18.4856 C   0  0  0  0  0  0  0  0  0  0  0  0
  -30.7584  -14.7394   20.6330 C   0  0  0  0  0  0  0  0  0  0  0  0
  -35.8012  -26.7941   14.6965 C   0  0  0  0  0  0  0  0  0  0  0  0
  -34.1697  -21.0039   18.8638 C   0  0  0  0  0  0  0  0  0  0  0  0
  -32.0341  -22.7174   19.9807 C   0  0  0  0  0  0  0  0  0  0  0  0
  -34.6485  -26.6337   15.6844 C   0  0  0  0  0  0  0  0  0  0  0  0
  -29.6254  -12.3110   18.2888 C   0  0  0  0  0  0  0  0  0  0  0  0
  -35.1821  -26.3777   17.0903 C   0  0  0  0  0  0  0  0  0  0  0  0
  -28.1852  -12.0296   18.7208 C   0  0  0  0  0  0  0  0  0  0  0  0
  -30.5376  -12.5532   19.4893 C   0  0  0  0  0  0  0  0  0  0  0  0
  -28.6315  -13.3165   20.8523 C   0  0  0  0  0  0  0  0  0  0  0  0
  -35.9951  -25.0786   17.1438 C   0  0  1  0  0  0  0  0  0  0  0  0
  -33.6670  -22.2425   18.1286 C   0  0  1  0  0  0  0  0  0  0  0  0
  -27.6623  -13.1211   19.6739 C   0  0  2  0  0  0  0  0  0  0  0  0
  -29.0828  -18.6883   26.9697 C   0  0  0  0  0  0  0  0  0  0  0  0
  -25.2092  -16.0205   24.5414 C   0  0  0  0  0  0  0  0  0  0  0  0
  -30.6283  -17.9720   20.7324 C   0  0  0  0  0  0  0  0  0  0  0  0
  -25.8673  -21.5042   18.2534 C   0  0  0  0  0  0  0  0  0  0  0  0
  -31.0836  -26.0748   18.1111 C   0  0  0  0  0  0  0  0  0  0  0  0
  -28.6087  -25.7076   18.2015 C   0  0  0  0  0  0  0  0  0  0  0  0
  -29.8611  -25.2404   16.0953 C   0  0  0  0  0  0  0  0  0  0  0  0
  -28.8831  -19.3030   17.5214 C   0  0  0  0  0  0  0  0  0  0  0  0
  -31.8619  -19.1697   26.1486 C   0  0  0  0  0  0  0  0  0  0  0  0
  -27.3085  -17.3177   25.1099 C   0  0  0  0  0  0  0  0  0  0  0  0
  -26.6472  -16.3198   24.1486 C   0  0  0  0  0  0  0  0  0  0  0  0
  -31.6589  -20.6851   26.2116 C   0  0  0  0  0  0  0  0  0  0  0  0
  -31.8909  -21.3814   24.8757 C   0  0  0  0  0  0  0  0  0  1  0  0
  -30.8244  -16.9139   21.8274 C   0  0  2  0  0  0  0  0  0  0  0  0
  -30.1236  -23.6785   18.0660 C   0  0  1  0  0  0  0  0  0  0  0  0
  -27.2735  -21.1977   17.7620 C   0  0  2  0  0  0  0  0  0  0  0  0
  -29.9367  -25.1608   17.6357 C   0  0  0  0  0  0  0  0  0  0  0  0
  -25.8679  -11.5465   20.2928 N   0  0  0  0  0  0  0  0  0  0  0  0
  -29.1127  -17.1553   23.5218 N   0  0  0  0  0  0  0  0  0  0  0  0
  -26.2488  -12.8263   20.1408 N   0  0  0  0  0  0  0  0  0  0  0  0
  -32.3167  -22.6338   18.5383 N   0  0  0  0  0  0  0  0  0  0  0  0
  -29.9858  -13.6005   20.3521 N   0  0  0  0  0  0  0  0  0  0  0  0
  -25.4872  -15.0602   20.3412 N   0  0  0  0  0  0  0  0  0  0  0  0
  -21.8902  -12.6193   21.5658 N   0  0  0  0  0  0  0  0  0  0  0  0
  -35.1133  -23.9314   17.1727 N   0  0  0  0  0  0  0  0  0  0  0  0
  -29.0660  -22.7849   17.6063 N   0  0  0  0  0  0  0  0  0  0  0  0
  -30.1579  -15.6863   21.4537 N   0  0  0  0  0  0  0  0  0  0  0  0
  -27.5423  -19.7483   17.9808 N   0  3  0  0  0  0  0  0  0  0  0  0
  -22.6729  -14.7511   21.2472 O   0  0  0  0  0  0  0  0  0  0  0  0
  -34.7116  -23.8842   19.4660 O   0  0  0  0  0  0  0  0  0  0  0  0
  -31.6275  -23.0365   16.3476 O   0  0  0  0  0  0  0  0  0  0  0  0
  -28.4279  -22.0434   19.7087 O   0  0  0  0  0  0  0  0  0  0  0  0
  -31.8969  -14.9029   20.1813 O   0  0  0  0  0  0  0  0  0  0  0  0
  -21.6016   -7.0601   21.7829 O   0  0  0  0  0  0  0  0  0  0  0  0
  -33.2271  -21.1196   24.4486 O   0  0  0  0  0  0  0  0  0  1  0  0
  -16.4438   -6.8509   19.8447 F   0  0  0  0  0  0  0  0  0  0  0  0
  -20.8260   -5.0710   20.0266 F   0  0  0  0  0  0  0  0  0  0  0  0
  1  2  1  0  0  0  0
  1  5  2  0  0  0  0
  2  6  2  0  0  0  0
  3  8  2  0  0  0  0
  3 16  1  0  0  0  0
  4  9  1  0  0  0  0
  4 16  2  0  0  0  0
  5 18  1  0  0  0  0
  6 20  1  0  0  0  0
  7 10  2  0  0  0  0
  7 19  1  0  0  0  0
  8 24  1  0  0  0  0
  9 24  2  0  0  0  0
 10 25  1  0  0  0  0
 11 12  2  0  0  0  0
 11 26  1  0  0  0  0
 12 27  1  0  0  0  0
 13 21  1  0  0  0  0
 13 25  2  0  0  0  0
 14 22  2  0  0  0  0
 14 30  1  0  0  0  0
 15 27  2  0  0  0  0
 15 28  1  0  0  0  0
 16 29  1  0  0  0  0
 17 29  1  0  0  0  0
 17 32  2  0  0  0  0
 17 33  1  0  0  0  0
 18 20  2  0  0  0  0
 18 38  1  0  0  0  0
 19 21  2  0  0  0  0
 19 39  1  0  0  0  0
 20 47  1  0  0  0  0
 21 40  1  0  0  0  0
 22 23  1  0  0  0  0
 22 58  1  0  0  0  0
 23 31  2  0  0  0  0
 23 50  1  0  0  0  0
 24 83  1  0  0  0  0
 25 84  1  0  0  0  0
 26 28  2  0  0  0  0
 26 83  1  0  0  0  0
 27 85  1  0  0  0  0
 28 86  1  0  0  0  0
 29 67  2  0  0  0  0
 30 63  1  0  0  0  0
 30 68  2  0  0  0  0
 31 59  1  0  0  0  0
 31 68  1  0  0  0  0
 32 69  1  0  0  0  0
 32 72  1  0  0  0  0
 33 73  1  0  0  0  0
 33 78  2  0  0  0  0
 34 48  1  0  0  0  0
 34 74  1  0  0  0  0
 34 79  2  0  0  0  0
 35 64  1  0  0  0  0
 35 70  1  0  0  0  0
 35 80  2  0  0  0  0
 36 65  1  0  0  0  0
 36 75  1  0  0  0  0
 36 81  2  0  0  0  0
 37 71  1  0  0  0  0
 37 76  1  0  0  0  0
 37 82  2  0  0  0  0
 38 41  1  0  0  0  0
 39 48  1  0  0  0  0
 40 70  1  0  0  0  0
 41 43  1  0  0  0  0
 42 44  1  0  0  0  0
 42 45  1  0  0  0  0
 43 47  1  0  0  0  0
 44 49  1  0  0  0  0
 45 71  1  0  0  0  0
 46 49  1  0  0  0  0
 46 71  1  0  0  0  0
 47 74  1  0  0  0  0
 48 70  1  0  0  0  0
 49 69  1  0  0  0  0
 51 60  1  0  0  0  0
 52 63  1  0  0  0  0
 53 65  1  0  0  0  0
 54 66  1  0  0  0  0
 55 66  1  0  0  0  0
 56 66  1  0  0  0  0
 57 77  1  0  0  0  0
 58 61  1  0  0  0  0
 59 60  1  0  0  0  0
 61 62  1  0  0  0  0
 62 84  1  0  0  0  0
 63 76  1  0  0  0  0
 64 66  1  0  0  0  0
 64 75  1  0  0  0  0
 65 77  1  0  0  0  0
 67 69  1  0  0  0  0
M  CHG  1  77   1
M  ISO  4  37 100  62 101  76 100  84 101
M  END
> <Batch ID>
0083

> <Smiles>
CCCc1nc(C(C)[100NH:0][100C:0](=O)N2CCCC(n3nc(-c4ccc(Oc5ccc(F)cc5F)cc4)c(C(N)=O)c3N)C2)cc(CC[101CH2:1][101O:1]c2ccc3c(c2)CN(C(=O)C(NC(=O)C(C)NC)C(C)(C)C)C(C(=O)NC2CCCc4ccccc42)C3)c1C

> <Shape>
0.202

> <Color>
0.195

> <Negative vol penalty>
0.000

$$$$

  -OEChem-04052318513D

 87 95  0     1  0  0  0  0  0999 V2000
  -29.6423  -29.5527   21.1267 C   0  0  0  0  0  0  0  0  0  0  0  0
  -28.3906  -29.0504   21.4677 C   0  0  0  0  0  0  0  0  0  0  0  0
  -23.2959   -9.7785   19.9623 C   0  0  0  0  0  0  0  0  0  0  0  0
  -23.7670   -9.9696   22.3242 C   0  0  0  0  0  0  0  0  0  0  0  0
  -30.3679  -28.9681   20.0895 C   0  0  0  0  0  0  0  0  0  0  0  0
  -27.8632  -27.9638   20.7709 C   0  0  0  0  0  0  0  0  0  0  0  0
  -25.3527  -21.0600   23.4283 C   0  0  0  0  0  0  0  0  0  0  0  0
  -22.5723   -8.6102   20.2011 C   0  0  0  0  0  0  0  0  0  0  0  0
  -23.0433   -8.8013   22.5630 C   0  0  0  0  0  0  0  0  0  0  0  0
  -25.0270  -19.7448   23.7604 C   0  0  0  0  0  0  0  0  0  0  0  0
  -20.9029   -5.3801   20.1457 C   0  0  0  0  0  0  0  0  0  0  0  0
  -21.1211   -4.2953   19.2965 C   0  0  0  0  0  0  0  0  0  0  0  0
  -25.6302  -19.0217   21.5330 C   0  0  0  0  0  0  0  0  0  0  0  0
  -23.4498   -4.2605   19.9394 C   0  0  0  0  0  0  0  0  0  0  0  0
  -28.7136  -14.0539   24.7642 C   0  0  0  0  0  0  0  0  0  0  0  0
  -23.8933  -10.4582   21.0239 C   0  0  0  0  0  0  0  0  0  0  0  0
  -24.1490  -12.9836   20.7695 C   0  0  0  0  0  0  0  0  0  0  0  0
  -29.8533  -27.8677   19.3861 C   0  0  0  0  0  0  0  0  0  0  0  0
  -25.8336  -21.3590   22.1505 C   0  0  0  0  0  0  0  0  0  0  0  0
  -28.5820  -27.3647   19.7225 C   0  0  0  0  0  0  0  0  0  0  0  0
  -25.9699  -20.3353   21.1985 C   0  0  0  0  0  0  0  0  0  0  0  0
  -22.4460   -8.1216   21.5014 C   0  0  0  0  0  0  0  0  0  0  0  0
  -25.1652  -18.7282   22.8150 C   0  0  0  0  0  0  0  0  0  0  0  0
  -21.9581   -5.9052   20.8917 C   0  0  0  0  0  0  0  0  0  0  0  0
  -22.3945   -3.7355   19.1933 C   0  0  0  0  0  0  0  0  0  0  0  0
  -23.2316   -5.3454   20.7885 C   0  0  0  0  0  0  0  0  0  0  0  0
  -24.6415  -11.6648   20.7777 C   0  0  0  0  0  0  0  0  0  0  0  0
  -30.0020  -14.2716   25.2882 C   0  0  0  0  0  0  0  0  0  0  0  0
  -27.9032  -13.9687   25.8699 C   0  0  0  0  0  0  0  0  0  0  0  0
  -25.2476  -13.7586   20.4885 C   0  0  0  0  0  0  0  0  0  0  0  0
  -22.8176  -13.4650   20.9956 C   0  0  0  0  0  0  0  0  0  0  0  0
  -27.0915  -23.9843   19.7838 C   0  0  0  0  0  0  0  0  0  0  0  0
  -28.8300  -21.4931   19.3570 C   0  0  0  0  0  0  0  0  0  0  0  0
  -30.7766  -18.6949   19.4904 C   0  0  0  0  0  0  0  0  0  0  0  0
  -31.1261  -12.9367   21.2752 C   0  0  0  0  0  0  0  0  0  0  0  0
  -30.6539  -27.2990   18.2414 C   0  0  0  0  0  0  0  0  0  0  0  0
  -26.1384  -22.7710   21.7296 C   0  0  0  0  0  0  0  0  0  0  0  0
  -26.4581  -20.7090   19.8256 C   0  0  0  0  0  0  0  0  0  0  0  0
  -30.1867  -25.9145   17.7999 C   0  0  0  0  0  0  0  0  0  0  0  0
  -29.4503  -13.6099   18.2068 C   0  0  0  0  0  0  0  0  0  0  0  0
  -28.6678  -25.8820   17.6634 C   0  0  0  0  0  0  0  0  0  0  0  0
  -27.9834  -13.3067   18.5170 C   0  0  0  0  0  0  0  0  0  0  0  0
  -30.3904  -12.6463   18.9277 C   0  0  0  0  0  0  0  0  0  0  0  0
  -28.7192  -12.2530   20.6958 C   0  0  0  0  0  0  0  0  0  0  0  0
  -27.9869  -26.1717   19.0065 C   0  0  1  0  0  0  0  0  0  0  0  0
  -27.3280  -22.8674   20.7576 C   0  0  1  0  0  0  0  0  0  0  0  0
  -27.7349  -13.2337   20.0356 C   0  0  2  0  0  0  0  0  0  0  0  0
  -28.6927  -12.8175   29.0253 C   0  0  0  0  0  0  0  0  0  0  0  0
  -31.2977  -15.7228   23.6652 C   0  0  0  0  0  0  0  0  0  0  0  0
  -32.7196  -17.1845   18.9994 C   0  0  0  0  0  0  0  0  0  0  0  0
  -24.2324  -14.7651   26.6785 C   0  0  0  0  0  0  0  0  0  0  0  0
  -31.9525  -11.9589   24.5286 C   0  0  0  0  0  0  0  0  0  0  0  0
  -27.2007  -20.8083   16.8709 C   0  0  0  0  0  0  0  0  0  0  0  0
  -28.8891  -19.0379   16.3388 C   0  0  0  0  0  0  0  0  0  0  0  0
  -29.5798  -21.4335   16.4199 C   0  0  0  0  0  0  0  0  0  0  0  0
  -32.3760  -19.8415   21.7009 C   0  0  0  0  0  0  0  0  0  0  0  0
  -26.4155  -13.7434   25.9941 C   0  0  0  0  0  0  0  0  0  0  0  0
  -25.3859  -15.5868   24.5659 C   0  0  0  0  0  0  0  0  0  0  0  0
  -28.3398  -14.1262   28.3395 C   0  0  0  0  0  0  0  0  0  0  0  0
  -25.0254  -17.0674   24.5120 C   0  0  0  0  0  0  0  0  0  1  0  0
  -31.2592  -14.4360   24.5392 C   0  0  2  0  0  0  0  0  0  0  0  0
  -29.0497  -20.2227   18.5751 C   0  0  1  0  0  0  0  0  0  0  0  0
  -32.2814  -18.5179   19.5848 C   0  0  2  0  0  0  0  0  0  0  0  0
  -25.5767  -15.0420   25.9957 C   0  0  1  0  0  0  0  0  0  0  0  0
  -31.7085  -13.2018   23.6731 C   0  0  2  0  0  0  0  0  0  0  0  0
  -28.6662  -20.3756   17.0762 C   0  0  0  0  0  0  0  0  0  0  0  0
  -25.9509  -11.6017   20.5222 N   0  0  0  0  0  0  0  0  0  0  0  0
  -30.0141  -14.3218   26.6228 N   0  0  0  0  0  0  0  0  0  0  0  0
  -28.7234  -14.1345   26.9469 N   0  0  0  0  0  0  0  0  0  0  0  0
  -26.2906  -12.8906   20.3506 N   0  0  0  0  0  0  0  0  0  0  0  0
  -27.5655  -21.6719   19.9310 N   0  0  0  0  0  0  0  0  0  0  0  0
  -30.1035  -12.6251   20.3641 N   0  0  0  0  0  0  0  0  0  0  0  0
  -25.4135  -15.0909   20.3484 N   0  0  0  0  0  0  0  0  0  0  0  0
  -21.8079  -12.5330   21.2716 N   0  0  0  0  0  0  0  0  0  0  0  0
  -28.0252  -25.0004   19.8556 N   0  0  0  0  0  0  0  0  0  0  0  0
  -30.4394  -19.8400   18.8003 N   0  0  0  0  0  0  0  0  0  0  0  0
  -30.7680  -12.8993   22.6173 N   0  0  0  0  0  0  0  0  0  0  0  0
  -32.7213  -18.5738   21.0076 N   0  3  0  0  0  0  0  0  0  0  0  0
  -22.5284  -14.6843   20.9379 O   0  0  0  0  0  0  0  0  0  0  0  0
  -26.1336  -23.9286   19.0216 O   0  0  0  0  0  0  0  0  0  0  0  0
  -29.7510  -22.3091   19.4529 O   0  0  0  0  0  0  0  0  0  0  0  0
  -29.9801  -17.8952   19.9768 O   0  0  0  0  0  0  0  0  0  0  0  0
  -32.2719  -13.2319   20.9189 O   0  0  0  0  0  0  0  0  0  0  0  0
  -21.7397   -6.9818   21.7349 O   0  0  0  0  0  0  0  0  0  0  0  0
  -24.8498  -17.4457   23.1473 O   0  0  0  0  0  0  0  0  0  1  0  0
  -22.6036   -2.6927   18.3790 F   0  0  0  0  0  0  0  0  0  0  0  0
  -24.2490   -5.8447   21.5036 F   0  0  0  0  0  0  0  0  0  0  0  0
  1  2  1  0  0  0  0
  1  5  2  0  0  0  0
  2  6  2  0  0  0  0
  3  8  2  0  0  0  0
  3 16  1  0  0  0  0
  4  9  1  0  0  0  0
  4 16  2  0  0  0  0
  5 18  1  0  0  0  0
  6 20  1  0  0  0  0
  7 10  2  0  0  0  0
  7 19  1  0  0  0  0
  8 22  1  0  0  0  0
  9 22  2  0  0  0  0
 10 23  1  0  0  0  0
 11 12  2  0  0  0  0
 11 24  1  0  0  0  0
 12 25  1  0  0  0  0
 13 21  1  0  0  0  0
 13 23  2  0  0  0  0
 14 25  2  0  0  0  0
 14 26  1  0  0  0  0
 15 28  1  0  0  0  0
 15 29  2  0  0  0  0
 16 27  1  0  0  0  0
 17 27  1  0  0  0  0
 17 30  2  0  0  0  0
 17 31  1  0  0  0  0
 18 20  2  0  0  0  0
 18 36  1  0  0  0  0
 19 21  2  0  0  0  0
 19 37  1  0  0  0  0
 20 45  1  0  0  0  0
 21 38  1  0  0  0  0
 22 84  1  0  0  0  0
 23 85  1  0  0  0  0
 24 26  2  0  0  0  0
 24 84  1  0  0  0  0
 25 86  1  0  0  0  0
 26 87  1  0  0  0  0
 27 67  2  0  0  0  0
 28 61  1  0  0  0  0
 28 68  2  0  0  0  0
 29 57  1  0  0  0  0
 29 69  1  0  0  0  0
 30 70  1  0  0  0  0
 30 73  1  0  0  0  0
 31 74  1  0  0  0  0
 31 79  2  0  0  0  0
 32 46  1  0  0  0  0
 32 75  1  0  0  0  0
 32 80  2  0  0  0  0
 33 62  1  0  0  0  0
 33 71  1  0  0  0  0
 33 81  2  0  0  0  0
 34 63  1  0  0  0  0
 34 76  1  0  0  0  0
 34 82  2  0  0  0  0
 35 72  1  0  0  0  0
 35 77  1  0  0  0  0
 35 83  2  0  0  0  0
 36 39  1  0  0  0  0
 37 46  1  0  0  0  0
 38 71  1  0  0  0  0
 39 41  1  0  0  0  0
 40 42  1  0  0  0  0
 40 43  1  0  0  0  0
 41 45  1  0  0  0  0
 42 47  1  0  0  0  0
 43 72  1  0  0  0  0
 44 47  1  0  0  0  0
 44 72  1  0  0  0  0
 45 75  1  0  0  0  0
 46 71  1  0  0  0  0
 47 70  1  0  0  0  0
 48 59  1  0  0  0  0
 49 61  1  0  0  0  0
 50 63  1  0  0  0  0
 51 64  1  0  0  0  0
 52 65  1  0  0  0  0
 53 66  1  0  0  0  0
 54 66  1  0  0  0  0
 55 66  1  0  0  0  0
 56 78  1  0  0  0  0
 57 64  1  0  0  0  0
 58 60  1  0  0  0  0
 58 64  1  0  0  0  0
 59 69  1  0  0  0  0
 60 85  1  0  0  0  0
 61 65  1  0  0  0  0
 62 66  1  0  0  0  0
 62 76  1  0  0  0  0
 63 78  1  0  0  0  0
 65 77  1  0  0  0  0
 67 70  1  0  0  0  0
 68 69  1  0  0  0  0
M  CHG  1  78   1
M  ISO  4  35 100  60 101  77 100  85 101
M  END
> <Batch ID>
0083

> <Smiles>
CCn1nc(C(C)C(C)[100NH:0][100C:0](=O)N2CCCC(n3nc(-c4ccc(Oc5ccc(F)cc5F)cc4)c(C(N)=O)c3N)C2)cc1CC(C)C[101CH2:1][101O:1]c1ccc2c(c1)CN(C(=O)C(NC(=O)C(C)NC)C(C)(C)C)C(C(=O)NC1CCCc3ccccc31)C2

> <Shape>
0.213

> <Color>
0.196

> <Negative vol penalty>
0.000

$$$$

  -OEChem-04052318513D

 86 94  0     1  0  0  0  0  0999 V2000
  -22.0485  -27.1888   25.9509 C   0  0  0  0  0  0  0  0  0  0  0  0
  -22.9334  -26.1822   25.5778 C   0  0  0  0  0  0  0  0  0  0  0  0
  -23.0760   -9.8377   19.9551 C   0  0  0  0  0  0  0  0  0  0  0  0
  -23.8291   -9.8749   22.2505 C   0  0  0  0  0  0  0  0  0  0  0  0
  -21.6513  -28.1469   25.0191 C   0  0  0  0  0  0  0  0  0  0  0  0
  -23.4208  -26.1326   24.2723 C   0  0  0  0  0  0  0  0  0  0  0  0
  -28.9928  -24.3218   22.4893 C   0  0  0  0  0  0  0  0  0  0  0  0
  -22.3362   -8.6845   20.2165 C   0  0  0  0  0  0  0  0  0  0  0  0
  -23.0893   -8.7216   22.5119 C   0  0  0  0  0  0  0  0  0  0  0  0
  -29.4681  -23.1146   21.9789 C   0  0  0  0  0  0  0  0  0  0  0  0
  -19.8627   -7.9173   23.1144 C   0  0  0  0  0  0  0  0  0  0  0  0
  -19.1025   -7.8879   24.2835 C   0  0  0  0  0  0  0  0  0  0  0  0
  -29.2298  -23.9752   19.7379 C   0  0  0  0  0  0  0  0  0  0  0  0
  -27.2324  -19.5331   19.7157 C   0  0  0  0  0  0  0  0  0  0  0  0
  -20.3499   -5.9645   25.0463 C   0  0  0  0  0  0  0  0  0  0  0  0
  -23.8224  -10.4329   20.9721 C   0  0  0  0  0  0  0  0  0  0  0  0
  -24.1540  -12.9579   20.8234 C   0  0  0  0  0  0  0  0  0  0  0  0
  -22.1416  -28.1146   23.7042 C   0  0  0  0  0  0  0  0  0  0  0  0
  -28.6215  -25.3626   21.6260 C   0  0  0  0  0  0  0  0  0  0  0  0
  -23.0287  -27.0903   23.3217 C   0  0  0  0  0  0  0  0  0  0  0  0
  -28.7524  -25.1955   20.2400 C   0  0  0  0  0  0  0  0  0  0  0  0
  -26.3756  -18.9899   20.6665 C   0  0  0  0  0  0  0  0  0  0  0  0
  -28.5909  -19.2408   19.7644 C   0  0  0  0  0  0  0  0  0  0  0  0
  -22.3428   -8.1264   21.4948 C   0  0  0  0  0  0  0  0  0  0  0  0
  -29.5839  -22.9401   20.6030 C   0  0  0  0  0  0  0  0  0  0  0  0
  -20.8665   -6.9702   22.9112 C   0  0  0  0  0  0  0  0  0  0  0  0
  -19.3461   -6.9116   25.2494 C   0  0  0  0  0  0  0  0  0  0  0  0
  -21.1101   -5.9939   23.8771 C   0  0  0  0  0  0  0  0  0  0  0  0
  -24.5873  -11.6239   20.7026 C   0  0  0  0  0  0  0  0  0  0  0  0
  -26.9226  -18.1669   21.6377 C   0  0  0  0  0  0  0  0  0  0  0  0
  -29.0388  -18.4067   20.7761 C   0  0  0  0  0  0  0  0  0  0  0  0
  -25.2441  -13.7077   20.4545 C   0  0  0  0  0  0  0  0  0  0  0  0
  -22.8801  -13.4732   21.2325 C   0  0  0  0  0  0  0  0  0  0  0  0
  -25.9169  -26.9200   21.0233 C   0  0  0  0  0  0  0  0  0  0  0  0
  -27.8419  -28.7502   19.1613 C   0  0  0  0  0  0  0  0  0  0  0  0
  -30.7297  -29.0176   17.3626 C   0  0  0  0  0  0  0  0  0  0  0  0
  -30.7229  -14.7521   20.6467 C   0  0  0  0  0  0  0  0  0  0  0  0
  -21.6467  -29.1442   22.7194 C   0  0  0  0  0  0  0  0  0  0  0  0
  -28.1358  -26.6683   22.1933 C   0  0  0  0  0  0  0  0  0  0  0  0
  -28.3864  -26.2891   19.2712 C   0  0  0  0  0  0  0  0  0  0  0  0
  -22.5007  -29.2402   21.4578 C   0  0  0  0  0  0  0  0  0  0  0  0
  -29.6024  -12.3349   18.2849 C   0  0  0  0  0  0  0  0  0  0  0  0
  -22.8013  -27.8488   20.9095 C   0  0  0  0  0  0  0  0  0  0  0  0
  -28.1649  -12.0402   18.7171 C   0  0  0  0  0  0  0  0  0  0  0  0
  -30.5150  -12.5737   19.4857 C   0  0  0  0  0  0  0  0  0  0  0  0
  -28.6061  -13.3130   20.8581 C   0  0  0  0  0  0  0  0  0  0  0  0
  -23.5986  -27.0174   21.9217 C   0  0  1  0  0  0  0  0  0  0  0  0
  -27.3010  -27.4759   21.2041 C   0  0  1  0  0  0  0  0  0  0  0  0
  -27.6362  -13.1204   19.6798 C   0  0  2  0  0  0  0  0  0  0  0  0
  -26.0510  -17.5559   22.6856 C   0  0  0  0  0  0  0  0  0  0  0  0
  -24.6024  -20.6942   21.1544 C   0  0  0  0  0  0  0  0  0  0  0  0
  -29.2213  -17.8808   17.0992 C   0  0  0  0  0  0  0  0  0  0  0  0
  -32.0106  -30.6227   15.9201 C   0  0  0  0  0  0  0  0  0  0  0  0
  -25.9105  -28.2191   16.8597 C   0  0  0  0  0  0  0  0  0  0  0  0
  -27.6836  -29.0132   15.2806 C   0  0  0  0  0  0  0  0  0  0  0  0
  -26.7530  -30.5700   16.9932 C   0  0  0  0  0  0  0  0  0  0  0  0
  -33.0407  -29.0158   19.2114 C   0  0  0  0  0  0  0  0  0  0  0  0
  -24.9191  -19.2992   20.6197 C   0  0  0  0  0  0  0  0  0  0  0  0
  -30.4877  -18.0576   20.8760 C   0  0  0  0  0  0  0  0  0  0  0  0
  -29.1858  -19.3926   17.2892 C   0  0  0  0  0  0  0  0  0  0  0  0
  -30.7761  -16.9173   21.8584 C   0  0  0  0  0  0  0  0  0  0  0  0
  -29.5632  -21.3674   18.8191 C   0  0  0  0  0  0  0  0  0  1  0  0
  -29.5346  -19.8325   18.7266 C   0  0  1  0  0  0  0  0  0  0  0  0
  -28.2953  -28.7040   17.7221 C   0  0  1  0  0  0  0  0  0  0  0  0
  -31.8003  -30.0934   17.3302 C   0  0  2  0  0  0  0  0  0  0  0  0
  -27.1658  -29.1051   16.7318 C   0  0  0  0  0  0  0  0  0  0  0  0
  -25.8537  -11.5286   20.2891 N   0  0  0  0  0  0  0  0  0  0  0  0
  -28.2368  -17.8601   21.7173 N   0  0  0  0  0  0  0  0  0  0  0  0
  -26.2256  -12.8121   20.1468 N   0  0  0  0  0  0  0  0  0  0  0  0
  -27.9105  -27.5450   19.8745 N   0  0  0  0  0  0  0  0  0  0  0  0
  -29.9575  -13.6102   20.3579 N   0  0  0  0  0  0  0  0  0  0  0  0
  -25.4491  -15.0391   20.3664 N   0  0  0  0  0  0  0  0  0  0  0  0
  -21.8711  -12.5638   21.5775 N   0  0  0  0  0  0  0  0  0  0  0  0
  -24.9897  -27.4165   21.9196 N   0  0  0  0  0  0  0  0  0  0  0  0
  -29.4860  -29.5431   17.6421 N   0  0  0  0  0  0  0  0  0  0  0  0
  -30.1174  -15.6882   21.4760 N   0  0  0  0  0  0  0  0  0  0  0  0
  -33.0962  -29.5496   17.8261 N   0  3  0  0  0  0  0  0  0  0  0  0
  -22.6386  -14.7034   21.2747 O   0  0  0  0  0  0  0  0  0  0  0  0
  -25.7053  -26.1024   20.1354 O   0  0  0  0  0  0  0  0  0  0  0  0
  -27.4483  -29.8180   19.6374 O   0  0  0  0  0  0  0  0  0  0  0  0
  -30.9719  -27.8304   17.1565 O   0  0  0  0  0  0  0  0  0  0  0  0
  -31.8594  -14.9270   20.1943 O   0  0  0  0  0  0  0  0  0  0  0  0
  -21.6209   -7.0012   21.7503 O   0  0  0  0  0  0  0  0  0  0  0  0
  -30.0470  -21.7625   20.1021 O   0  0  0  0  0  0  0  0  0  1  0  0
  -18.6170   -6.8844   26.3728 F   0  0  0  0  0  0  0  0  0  0  0  0
  -22.0738   -5.0821   23.6880 F   0  0  0  0  0  0  0  0  0  0  0  0
  1  2  1  0  0  0  0
  1  5  2  0  0  0  0
  2  6  2  0  0  0  0
  3  8  2  0  0  0  0
  3 16  1  0  0  0  0
  4  9  1  0  0  0  0
  4 16  2  0  0  0  0
  5 18  1  0  0  0  0
  6 20  1  0  0  0  0
  7 10  2  0  0  0  0
  7 19  1  0  0  0  0
  8 24  1  0  0  0  0
  9 24  2  0  0  0  0
 10 25  1  0  0  0  0
 11 12  2  0  0  0  0
 11 26  1  0  0  0  0
 12 27  1  0  0  0  0
 13 21  1  0  0  0  0
 13 25  2  0  0  0  0
 14 22  1  0  0  0  0
 14 23  2  0  0  0  0
 15 27  2  0  0  0  0
 15 28  1  0  0  0  0
 16 29  1  0  0  0  0
 17 29  1  0  0  0  0
 17 32  2  0  0  0  0
 17 33  1  0  0  0  0
 18 20  2  0  0  0  0
 18 38  1  0  0  0  0
 19 21  2  0  0  0  0
 19 39  1  0  0  0  0
 20 47  1  0  0  0  0
 21 40  1  0  0  0  0
 22 30  2  0  0  0  0
 22 58  1  0  0  0  0
 23 31  1  0  0  0  0
 23 63  1  0  0  0  0
 24 83  1  0  0  0  0
 25 84  1  0  0  0  0
 26 28  2  0  0  0  0
 26 83  1  0  0  0  0
 27 85  1  0  0  0  0
 28 86  1  0  0  0  0
 29 67  2  0  0  0  0
 30 50  1  0  0  0  0
 30 68  1  0  0  0  0
 31 59  1  0  0  0  0
 31 68  2  0  0  0  0
 32 69  1  0  0  0  0
 32 72  1  0  0  0  0
 33 73  1  0  0  0  0
 33 78  2  0  0  0  0
 34 48  1  0  0  0  0
 34 74  1  0  0  0  0
 34 79  2  0  0  0  0
 35 64  1  0  0  0  0
 35 70  1  0  0  0  0
 35 80  2  0  0  0  0
 36 65  1  0  0  0  0
 36 75  1  0  0  0  0
 36 81  2  0  0  0  0
 37 71  1  0  0  0  0
 37 76  1  0  0  0  0
 37 82  2  0  0  0  0
 38 41  1  0  0  0  0
 39 48  1  0  0  0  0
 40 70  1  0  0  0  0
 41 43  1  0  0  0  0
 42 44  1  0  0  0  0
 42 45  1  0  0  0  0
 43 47  1  0  0  0  0
 44 49  1  0  0  0  0
 45 71  1  0  0  0  0
 46 49  1  0  0  0  0
 46 71  1  0  0  0  0
 47 74  1  0  0  0  0
 48 70  1  0  0  0  0
 49 69  1  0  0  0  0
 51 58  1  0  0  0  0
 52 60  1  0  0  0  0
 53 65  1  0  0  0  0
 54 66  1  0  0  0  0
 55 66  1  0  0  0  0
 56 66  1  0  0  0  0
 57 77  1  0  0  0  0
 59 61  1  0  0  0  0
 60 63  1  0  0  0  0
 61 76  1  0  0  0  0
 62 63  1  0  0  0  0
 62 84  1  0  0  0  0
 64 66  1  0  0  0  0
 64 75  1  0  0  0  0
 65 77  1  0  0  0  0
 67 69  1  0  0  0  0
M  CHG  1  77   1
M  ISO  4  37 100  62 101  76 100  84 101
M  END
> <Batch ID>
0083

> <Smiles>
CCc1cc(C(CC)[101CH2:1][101O:1]c2ccc3c(c2)CN(C(=O)C(NC(=O)C(C)NC)C(C)(C)C)C(C(=O)NC2CCCc4ccccc42)C3)c(CC[100NH:0][100C:0](=O)N2CCCC(n3nc(-c4ccc(Oc5ccc(F)cc5F)cc4)c(C(N)=O)c3N)C2)nc1C

> <Shape>
0.298

> <Color>
0.190

> <Negative vol penalty>
0.000

$$$$

  -OEChem-04052318513D

 84 92  0     1  0  0  0  0  0999 V2000
  -16.4621  -28.6910   23.4889 C   0  0  0  0  0  0  0  0  0  0  0  0
  -17.3709  -28.0623   22.6437 C   0  0  0  0  0  0  0  0  0  0  0  0
  -25.0343  -13.4514   19.7182 C   0  0  0  0  0  0  0  0  0  0  0  0
  -27.2681  -12.8806   20.4405 C   0  0  0  0  0  0  0  0  0  0  0  0
  -16.8703  -29.7718   24.2693 C   0  0  0  0  0  0  0  0  0  0  0  0
  -18.6882  -28.5148   22.5776 C   0  0  0  0  0  0  0  0  0  0  0  0
  -23.7107  -25.1147   21.7296 C   0  0  0  0  0  0  0  0  0  0  0  0
  -24.6680  -12.1074   19.7888 C   0  0  0  0  0  0  0  0  0  0  0  0
  -26.9018  -11.5366   20.5111 C   0  0  0  0  0  0  0  0  0  0  0  0
  -24.4762  -24.8383   20.5976 C   0  0  0  0  0  0  0  0  0  0  0  0
  -23.0442   -8.8725   20.1261 C   0  0  0  0  0  0  0  0  0  0  0  0
  -21.8247   -8.5635   20.7286 C   0  0  0  0  0  0  0  0  0  0  0  0
  -25.9982  -26.6097   21.2016 C   0  0  0  0  0  0  0  0  0  0  0  0
  -27.8900  -22.5995   21.1460 C   0  0  0  0  0  0  0  0  0  0  0  0
  -22.5862   -9.5727   22.7874 C   0  0  0  0  0  0  0  0  0  0  0  0
  -30.5531  -22.2112   21.5962 C   0  0  0  0  0  0  0  0  0  0  0  0
  -26.3344  -13.8381   20.0440 C   0  0  0  0  0  0  0  0  0  0  0  0
  -26.6273  -16.1863   20.9968 C   0  0  0  0  0  0  0  0  0  0  0  0
  -18.1957  -30.2317   24.2200 C   0  0  0  0  0  0  0  0  0  0  0  0
  -24.0779  -26.1497   22.6017 C   0  0  0  0  0  0  0  0  0  0  0  0
  -19.1142  -29.6037   23.3571 C   0  0  0  0  0  0  0  0  0  0  0  0
  -25.2371  -26.8956   22.3453 C   0  0  0  0  0  0  0  0  0  0  0  0
  -28.7900  -22.7649   20.0991 C   0  0  0  0  0  0  0  0  0  0  0  0
  -30.1487  -22.5690   20.3201 C   0  0  0  0  0  0  0  0  0  0  0  0
  -25.6017  -11.1500   20.1853 C   0  0  0  0  0  0  0  0  0  0  0  0
  -25.6185  -25.5877   20.3319 C   0  0  0  0  0  0  0  0  0  0  0  0
  -24.0347   -9.5316   20.8543 C   0  0  0  0  0  0  0  0  0  0  0  0
  -21.5957   -8.9136   22.0592 C   0  0  0  0  0  0  0  0  0  0  0  0
  -23.8057   -9.8817   22.1849 C   0  0  0  0  0  0  0  0  0  0  0  0
  -26.7135  -15.2262   19.9708 C   0  0  0  0  0  0  0  0  0  0  0  0
  -28.3956  -22.2402   22.3850 C   0  0  0  0  0  0  0  0  0  0  0  0
  -27.1071  -17.3407   20.4279 C   0  0  0  0  0  0  0  0  0  0  0  0
  -26.1557  -16.0470   22.3436 C   0  0  0  0  0  0  0  0  0  0  0  0
  -22.7298  -28.8671   23.5513 C   0  0  0  0  0  0  0  0  0  0  0  0
  -25.2802  -28.9790   25.5525 C   0  0  0  0  0  0  0  0  0  0  0  0
  -28.4858  -28.0150   26.2171 C   0  0  0  0  0  0  0  0  0  0  0  0
  -30.8674  -20.0259   17.2981 C   0  0  0  0  0  0  0  0  0  0  0  0
  -18.5784  -31.4335   25.0470 C   0  0  0  0  0  0  0  0  0  0  0  0
  -23.2563  -26.4178   23.8328 C   0  0  0  0  0  0  0  0  0  0  0  0
  -25.6857  -28.0040   23.2611 C   0  0  0  0  0  0  0  0  0  0  0  0
  -20.0867  -31.6139   25.1978 C   0  0  0  0  0  0  0  0  0  0  0  0
  -28.1649  -18.4419   15.6056 C   0  0  0  0  0  0  0  0  0  0  0  0
  -20.7809  -31.4547   23.8489 C   0  0  0  0  0  0  0  0  0  0  0  0
  -27.5437  -17.5392   16.6729 C   0  0  0  0  0  0  0  0  0  0  0  0
  -29.6849  -18.5084   15.7376 C   0  0  0  0  0  0  0  0  0  0  0  0
  -29.5530  -17.9874   18.1428 C   0  0  0  0  0  0  0  0  0  0  0  0
  -20.5580  -30.0497   23.2762 C   0  0  1  0  0  0  0  0  0  0  0  0
  -23.4390  -27.8313   24.3769 C   0  0  1  0  0  0  0  0  0  0  0  0
  -28.0168  -17.9331   18.0851 C   0  0  2  0  0  0  0  0  0  0  0  0
  -27.4589  -22.0542   23.5317 C   0  0  0  0  0  0  0  0  0  0  0  0
  -30.3168  -28.2968   27.9099 C   0  0  0  0  0  0  0  0  0  0  0  0
  -25.8529  -31.7716   24.4646 C   0  0  0  0  0  0  0  0  0  0  0  0
  -28.1495  -31.6079   25.4479 C   0  0  0  0  0  0  0  0  0  0  0  0
  -26.1492  -31.5340   26.9365 C   0  0  0  0  0  0  0  0  0  0  0  0
  -28.5341  -25.1176   26.8187 C   0  0  0  0  0  0  0  0  0  0  0  0
  -28.2720  -23.1553   18.7379 C   0  0  0  0  0  0  0  0  0  0  0  0
  -28.5053  -24.6268   18.3888 C   0  0  0  0  0  0  0  0  0  0  0  0
  -31.9876  -21.4607   18.9850 C   0  0  0  0  0  0  0  0  0  0  0  0
  -27.7658  -25.5904   19.3097 C   0  0  0  0  0  0  0  0  0  1  0  0
  -31.1554  -22.7333   19.2350 C   0  0  2  0  0  0  0  0  0  0  0  0
  -26.6785  -29.5423   25.4719 C   0  0  1  0  0  0  0  0  0  0  0  0
  -29.1292  -27.4537   27.4723 C   0  0  2  0  0  0  0  0  0  0  0  0
  -26.6983  -31.0944   25.5617 C   0  0  0  0  0  0  0  0  0  0  0  0
  -29.7086  -22.0412   22.6380 N   0  0  0  0  0  0  0  0  0  0  0  0
  -27.2090  -15.7272   18.8361 N   0  0  0  0  0  0  0  0  0  0  0  0
  -27.4383  -17.0147   19.1457 N   0  0  0  0  0  0  0  0  0  0  0  0
  -24.8456  -28.2320   24.4485 N   0  0  0  0  0  0  0  0  0  0  0  0
  -30.0672  -18.8886   17.0997 N   0  0  0  0  0  0  0  0  0  0  0  0
  -27.2737  -18.5927   20.9045 N   0  0  0  0  0  0  0  0  0  0  0  0
  -25.6978  -14.7911   22.7646 N   0  0  0  0  0  0  0  0  0  0  0  0
  -21.4214  -29.0928   23.9344 N   0  0  0  0  0  0  0  0  0  0  0  0
  -27.4488  -28.8735   26.5149 N   0  0  0  0  0  0  0  0  0  0  0  0
  -31.1784  -20.3192   18.6202 N   0  0  0  0  0  0  0  0  0  0  0  0
  -32.1153  -23.8668   19.4877 N   0  3  0  0  0  0  0  0  0  0  0  0
  -29.6039  -26.0615   27.2329 N   0  3  0  0  0  0  0  0  0  0  0  0
  -26.1255  -17.0117   23.1448 O   0  0  0  0  0  0  0  0  0  0  0  0
  -23.3259  -29.4217   22.6354 O   0  0  0  0  0  0  0  0  0  0  0  0
  -24.6014  -29.1879   26.5610 O   0  0  0  0  0  0  0  0  0  0  0  0
  -28.8677  -27.7240   25.0857 O   0  0  0  0  0  0  0  0  0  0  0  0
  -31.2700  -20.7309   16.3666 O   0  0  0  0  0  0  0  0  0  0  0  0
  -25.2446   -9.8384   20.2545 O   0  0  0  0  0  0  0  0  0  0  0  0
  -26.3670  -25.3203   19.2273 O   0  0  0  0  0  0  0  0  0  1  0  0
  -20.4240   -8.6181   22.6372 F   0  0  0  0  0  0  0  0  0  0  0  0
  -24.7530  -10.5160   22.8892 F   0  0  0  0  0  0  0  0  0  0  0  0
  1  2  1  0  0  0  0
  1  5  2  0  0  0  0
  2  6  2  0  0  0  0
  3  8  2  0  0  0  0
  3 17  1  0  0  0  0
  4  9  1  0  0  0  0
  4 17  2  0  0  0  0
  5 19  1  0  0  0  0
  6 21  1  0  0  0  0
  7 10  2  0  0  0  0
  7 20  1  0  0  0  0
  8 25  1  0  0  0  0
  9 25  2  0  0  0  0
 10 26  1  0  0  0  0
 11 12  2  0  0  0  0
 11 27  1  0  0  0  0
 12 28  1  0  0  0  0
 13 22  1  0  0  0  0
 13 26  2  0  0  0  0
 14 23  1  0  0  0  0
 14 31  2  0  0  0  0
 15 28  2  0  0  0  0
 15 29  1  0  0  0  0
 16 24  1  0  0  0  0
 16 64  2  0  0  0  0
 17 30  1  0  0  0  0
 18 30  1  0  0  0  0
 18 32  2  0  0  0  0
 18 33  1  0  0  0  0
 19 21  2  0  0  0  0
 19 38  1  0  0  0  0
 20 22  2  0  0  0  0
 20 39  1  0  0  0  0
 21 47  1  0  0  0  0
 22 40  1  0  0  0  0
 23 24  2  0  0  0  0
 23 56  1  0  0  0  0
 24 60  1  0  0  0  0
 25 81  1  0  0  0  0
 26 82  1  0  0  0  0
 27 29  2  0  0  0  0
 27 81  1  0  0  0  0
 28 83  1  0  0  0  0
 29 84  1  0  0  0  0
 30 65  2  0  0  0  0
 31 50  1  0  0  0  0
 31 64  1  0  0  0  0
 32 66  1  0  0  0  0
 32 69  1  0  0  0  0
 33 70  1  0  0  0  0
 33 76  2  0  0  0  0
 34 48  1  0  0  0  0
 34 71  1  0  0  0  0
 34 77  2  0  0  0  0
 35 61  1  0  0  0  0
 35 67  1  0  0  0  0
 35 78  2  0  0  0  0
 36 62  1  0  0  0  0
 36 72  1  0  0  0  0
 36 79  2  0  0  0  0
 37 68  1  0  0  0  0
 37 73  1  0  0  0  0
 37 80  2  0  0  0  0
 38 41  1  0  0  0  0
 39 48  1  0  0  0  0
 40 67  1  0  0  0  0
 41 43  1  0  0  0  0
 42 44  1  0  0  0  0
 42 45  1  0  0  0  0
 43 47  1  0  0  0  0
 44 49  1  0  0  0  0
 45 68  1  0  0  0  0
 46 49  1  0  0  0  0
 46 68  1  0  0  0  0
 47 71  1  0  0  0  0
 48 67  1  0  0  0  0
 49 66  1  0  0  0  0
 51 62  1  0  0  0  0
 52 63  1  0  0  0  0
 53 63  1  0  0  0  0
 54 63  1  0  0  0  0
 55 75  1  0  0  0  0
 56 57  1  0  0  0  0
 57 59  1  0  0  0  0
 58 60  1  0  0  0  0
 58 73  1  0  0  0  0
 59 82  1  0  0  0  0
 60 74  1  0  0  0  0
 61 63  1  0  0  0  0
 61 72  1  0  0  0  0
 62 75  1  0  0  0  0
 65 66  1  0  0  0  0
M  CHG  2  74   1  75   1
M  ISO  4  37 100  59 101  73 100  82 101
M  END
> <Batch ID>
0083

> <Smiles>
CNC(C)C(=O)NC(C(=O)N1Cc2cc([101O:1][101CH2:1]CCc3cc(C)ncc3C(N)C[100NH:0][100C:0](=O)N3CCCC(n4nc(-c5ccc(Oc6ccc(F)cc6F)cc5)c(C(N)=O)c4N)C3)ccc2CC1C(=O)NC1CCCc2ccccc21)C(C)(C)C

> <Shape>
0.229

> <Color>
0.069

> <Negative vol penalty>
0.000

$$$$

  -OEChem-04052318513D

 84 92  0     1  0  0  0  0  0999 V2000
  -28.7987  -30.3248   27.8619 C   0  0  0  0  0  0  0  0  0  0  0  0
  -28.6573  -29.1546   27.1230 C   0  0  0  0  0  0  0  0  0  0  0  0
  -23.2161   -9.6727   20.1144 C   0  0  0  0  0  0  0  0  0  0  0  0
  -23.8336   -9.9965   22.4277 C   0  0  0  0  0  0  0  0  0  0  0  0
  -27.9087  -31.3808   27.6702 C   0  0  0  0  0  0  0  0  0  0  0  0
  -27.6250  -29.0392   26.1927 C   0  0  0  0  0  0  0  0  0  0  0  0
  -27.8016  -26.0525   20.8491 C   0  0  0  0  0  0  0  0  0  0  0  0
  -22.5147   -8.5186   20.4632 C   0  0  0  0  0  0  0  0  0  0  0  0
  -23.1320   -8.8425   22.7765 C   0  0  0  0  0  0  0  0  0  0  0  0
  -27.3594  -24.7867   20.4669 C   0  0  0  0  0  0  0  0  0  0  0  0
  -19.9152   -7.9461   23.2951 C   0  0  0  0  0  0  0  0  0  0  0  0
  -19.0910   -8.0053   24.4188 C   0  0  0  0  0  0  0  0  0  0  0  0
  -25.3078  -25.7569   19.6493 C   0  0  0  0  0  0  0  0  0  0  0  0
  -20.3768   -6.2415   25.4547 C   0  0  0  0  0  0  0  0  0  0  0  0
  -23.8757  -10.4116   21.0967 C   0  0  0  0  0  0  0  0  0  0  0  0
  -24.1026  -12.9191   20.6860 C   0  0  0  0  0  0  0  0  0  0  0  0
  -26.8708  -31.2820   26.7301 C   0  0  0  0  0  0  0  0  0  0  0  0
  -26.9942  -27.1805   20.6437 C   0  0  0  0  0  0  0  0  0  0  0  0
  -26.7194  -30.0943   25.9892 C   0  0  0  0  0  0  0  0  0  0  0  0
  -25.7431  -27.0362   20.0273 C   0  0  0  0  0  0  0  0  0  0  0  0
  -26.7570  -18.4073   19.3670 C   0  0  0  0  0  0  0  0  0  0  0  0
  -26.6940  -19.2449   20.5079 C   0  0  0  0  0  0  0  0  0  0  0  0
  -22.4726   -8.1035   21.7942 C   0  0  0  0  0  0  0  0  0  0  0  0
  -26.1111  -24.6384   19.8696 C   0  0  0  0  0  0  0  0  0  0  0  0
  -20.9701   -7.0346   23.2510 C   0  0  0  0  0  0  0  0  0  0  0  0
  -19.3218   -7.1530   25.4986 C   0  0  0  0  0  0  0  0  0  0  0  0
  -21.2009   -6.1823   24.3308 C   0  0  0  0  0  0  0  0  0  0  0  0
  -24.6010  -11.6035   20.7369 C   0  0  0  0  0  0  0  0  0  0  0  0
  -28.0582  -17.9714   19.2481 C   0  0  0  0  0  0  0  0  0  0  0  0
  -27.9587  -19.2954   21.0514 C   0  0  0  0  0  0  0  0  0  0  0  0
  -25.1776  -13.6786   20.2936 C   0  0  0  0  0  0  0  0  0  0  0  0
  -22.7856  -13.4107   20.9682 C   0  0  0  0  0  0  0  0  0  0  0  0
  -25.6353  -29.3413   22.5380 C   0  0  0  0  0  0  0  0  0  0  0  0
  -24.8420  -30.7406   19.7211 C   0  0  0  0  0  0  0  0  0  0  0  0
  -24.2714  -30.3957   16.3742 C   0  0  0  0  0  0  0  0  0  0  0  0
  -30.5844  -15.0133   20.6548 C   0  0  0  0  0  0  0  0  0  0  0  0
  -25.9048  -32.4319   26.5918 C   0  0  0  0  0  0  0  0  0  0  0  0
  -27.4970  -28.5424   21.0373 C   0  0  0  0  0  0  0  0  0  0  0  0
  -24.8467  -28.2180   19.7662 C   0  0  0  0  0  0  0  0  0  0  0  0
  -25.0647  -32.3719   25.3186 C   0  0  0  0  0  0  0  0  0  0  0  0
  -29.7102  -12.3007   18.5207 C   0  0  0  0  0  0  0  0  0  0  0  0
  -24.5015  -30.9688   25.1163 C   0  0  0  0  0  0  0  0  0  0  0  0
  -28.2648  -11.9824   18.9072 C   0  0  0  0  0  0  0  0  0  0  0  0
  -30.5408  -12.7142   19.7337 C   0  0  0  0  0  0  0  0  0  0  0  0
  -28.5251  -13.5005   20.9138 C   0  0  0  0  0  0  0  0  0  0  0  0
  -25.6274  -29.9406   24.9529 C   0  0  1  0  0  0  0  0  0  0  0  0
  -26.3758  -29.5552   21.2482 C   0  0  1  0  0  0  0  0  0  0  0  0
  -27.6341  -13.1325   19.7150 C   0  0  2  0  0  0  0  0  0  0  0  0
  -25.6354  -18.0622   18.4693 C   0  0  0  0  0  0  0  0  0  0  0  0
  -28.6765  -17.0809   18.2428 C   0  0  0  0  0  0  0  0  0  0  0  0
  -28.4570  -20.0197   22.2403 C   0  0  0  0  0  0  0  0  0  0  0  0
  -23.6022  -31.7105   14.3442 C   0  0  0  0  0  0  0  0  0  0  0  0
  -21.9471  -30.7515   20.6854 C   0  0  0  0  0  0  0  0  0  0  0  0
  -21.2345  -31.1687   18.3219 C   0  0  0  0  0  0  0  0  0  0  0  0
  -22.6615  -32.8376   19.5056 C   0  0  0  0  0  0  0  0  0  0  0  0
  -26.8232  -29.7948   15.0009 C   0  0  0  0  0  0  0  0  0  0  0  0
  -25.4706  -19.9543   21.0311 C   0  0  0  0  0  0  0  0  0  0  0  0
  -25.0854  -21.1952   20.2228 C   0  0  0  0  0  0  0  0  0  0  0  0
  -30.1933  -18.3077   20.5100 C   0  0  0  0  0  0  0  0  0  0  0  0
  -30.4713  -17.2971   21.6196 C   0  0  0  0  0  0  0  0  0  0  0  0
  -26.1423  -22.2928   20.2612 C   0  0  0  0  0  0  0  0  0  1  0  0
  -23.6743  -30.6412   18.7695 C   0  0  1  0  0  0  0  0  0  0  0  0
  -24.7628  -31.1952   15.1809 C   0  0  2  0  0  0  0  0  0  0  0  0
  -22.3952  -31.3270   19.3271 C   0  0  0  0  0  0  0  0  0  0  0  0
  -25.8921  -11.5280   20.4034 N   0  0  0  0  0  0  0  0  0  0  0  0
  -28.7797  -18.5178   20.2772 N   0  0  0  0  0  0  0  0  0  0  0  0
  -26.2141  -12.8057   20.1390 N   0  0  0  0  0  0  0  0  0  0  0  0
  -25.3802  -29.5280   20.1747 N   0  0  0  0  0  0  0  0  0  0  0  0
  -29.8885  -13.8097   20.4550 N   0  0  0  0  0  0  0  0  0  0  0  0
  -25.3279  -15.0013   20.0690 N   0  0  0  0  0  0  0  0  0  0  0  0
  -21.7998  -12.4942   21.3588 N   0  0  0  0  0  0  0  0  0  0  0  0
  -26.1827  -30.0071   23.6181 N   0  0  0  0  0  0  0  0  0  0  0  0
  -24.1372  -31.1845   17.4971 N   0  0  0  0  0  0  0  0  0  0  0  0
  -29.8911  -16.0020   21.3422 N   0  0  0  0  0  0  0  0  0  0  0  0
  -25.6295  -30.3494   14.3122 N   0  3  0  0  0  0  0  0  0  0  0  0
  -22.4875  -14.6244   20.8608 O   0  0  0  0  0  0  0  0  0  0  0  0
  -24.6402  -28.6263   22.5520 O   0  0  0  0  0  0  0  0  0  0  0  0
  -25.2656  -31.8531   20.0444 O   0  0  0  0  0  0  0  0  0  0  0  0
  -24.0271  -29.1926   16.3149 O   0  0  0  0  0  0  0  0  0  0  0  0
  -31.7361  -15.1954   20.2459 O   0  0  0  0  0  0  0  0  0  0  0  0
  -21.7879   -6.9776   22.1350 O   0  0  0  0  0  0  0  0  0  0  0  0
  -25.6769  -23.4039   19.4962 O   0  0  0  0  0  0  0  0  0  1  0  0
  -18.5313   -7.2111   26.5784 F   0  0  0  0  0  0  0  0  0  0  0  0
  -22.2136   -5.3054   24.2948 F   0  0  0  0  0  0  0  0  0  0  0  0
  1  2  1  0  0  0  0
  1  5  2  0  0  0  0
  2  6  2  0  0  0  0
  3  8  2  0  0  0  0
  3 15  1  0  0  0  0
  4  9  1  0  0  0  0
  4 15  2  0  0  0  0
  5 17  1  0  0  0  0
  6 19  1  0  0  0  0
  7 10  2  0  0  0  0
  7 18  1  0  0  0  0
  8 23  1  0  0  0  0
  9 23  2  0  0  0  0
 10 24  1  0  0  0  0
 11 12  2  0  0  0  0
 11 25  1  0  0  0  0
 12 26  1  0  0  0  0
 13 20  1  0  0  0  0
 13 24  2  0  0  0  0
 14 26  2  0  0  0  0
 14 27  1  0  0  0  0
 15 28  1  0  0  0  0
 16 28  1  0  0  0  0
 16 31  2  0  0  0  0
 16 32  1  0  0  0  0
 17 19  2  0  0  0  0
 17 37  1  0  0  0  0
 18 20  2  0  0  0  0
 18 38  1  0  0  0  0
 19 46  1  0  0  0  0
 20 39  1  0  0  0  0
 21 22  1  0  0  0  0
 21 29  2  0  0  0  0
 21 49  1  0  0  0  0
 22 30  2  0  0  0  0
 22 57  1  0  0  0  0
 23 81  1  0  0  0  0
 24 82  1  0  0  0  0
 25 27  2  0  0  0  0
 25 81  1  0  0  0  0
 26 83  1  0  0  0  0
 27 84  1  0  0  0  0
 28 65  2  0  0  0  0
 29 50  1  0  0  0  0
 29 66  1  0  0  0  0
 30 51  1  0  0  0  0
 30 66  1  0  0  0  0
 31 67  1  0  0  0  0
 31 70  1  0  0  0  0
 32 71  1  0  0  0  0
 32 76  2  0  0  0  0
 33 47  1  0  0  0  0
 33 72  1  0  0  0  0
 33 77  2  0  0  0  0
 34 62  1  0  0  0  0
 34 68  1  0  0  0  0
 34 78  2  0  0  0  0
 35 63  1  0  0  0  0
 35 73  1  0  0  0  0
 35 79  2  0  0  0  0
 36 69  1  0  0  0  0
 36 74  1  0  0  0  0
 36 80  2  0  0  0  0
 37 40  1  0  0  0  0
 38 47  1  0  0  0  0
 39 68  1  0  0  0  0
 40 42  1  0  0  0  0
 41 43  1  0  0  0  0
 41 44  1  0  0  0  0
 42 46  1  0  0  0  0
 43 48  1  0  0  0  0
 44 69  1  0  0  0  0
 45 48  1  0  0  0  0
 45 69  1  0  0  0  0
 46 72  1  0  0  0  0
 47 68  1  0  0  0  0
 48 67  1  0  0  0  0
 52 63  1  0  0  0  0
 53 64  1  0  0  0  0
 54 64  1  0  0  0  0
 55 64  1  0  0  0  0
 56 75  1  0  0  0  0
 57 58  1  0  0  0  0
 58 61  1  0  0  0  0
 59 60  1  0  0  0  0
 59 66  1  0  0  0  0
 60 74  1  0  0  0  0
 61 82  1  0  0  0  0
 62 64  1  0  0  0  0
 62 73  1  0  0  0  0
 63 75  1  0  0  0  0
 65 67  1  0  0  0  0
M  CHG  1  75   1
M  ISO  4  36 100  61 101  74 100  82 101
M  END
> <Batch ID>
0083

> <Smiles>
CNC(C)C(=O)NC(C(=O)N1Cc2cc([101O:1][101CH2:1]CCc3c(C)c(C)n(CC[100NH:0][100C:0](=O)N4CCCC(n5nc(-c6ccc(Oc7ccc(F)cc7F)cc6)c(C(N)=O)c5N)C4)c3C)ccc2CC1C(=O)NC1CCCc2ccccc21)C(C)(C)C

> <Shape>
0.321

> <Color>
0.209

> <Negative vol penalty>
0.000

$$$$

  -OEChem-04052318513D

 85 93  0     1  0  0  0  0  0999 V2000
  -33.5197  -28.6450   17.1306 C   0  0  0  0  0  0  0  0  0  0  0  0
  -32.4282  -28.0350   17.7405 C   0  0  0  0  0  0  0  0  0  0  0  0
  -23.1471   -9.8260   19.8482 C   0  0  0  0  0  0  0  0  0  0  0  0
  -24.3549   -9.5580   21.9234 C   0  0  0  0  0  0  0  0  0  0  0  0
  -34.0944  -29.7781   17.7047 C   0  0  0  0  0  0  0  0  0  0  0  0
  -31.9114  -28.5572   18.9257 C   0  0  0  0  0  0  0  0  0  0  0  0
  -26.8533  -28.8009   18.8984 C   0  0  0  0  0  0  0  0  0  0  0  0
  -22.5802   -8.5625   20.0149 C   0  0  0  0  0  0  0  0  0  0  0  0
  -23.7879   -8.2945   22.0901 C   0  0  0  0  0  0  0  0  0  0  0  0
  -26.1574  -27.6145   19.1262 C   0  0  0  0  0  0  0  0  0  0  0  0
  -20.8389   -7.0058   23.1212 C   0  0  0  0  0  0  0  0  0  0  0  0
  -20.3438   -6.6809   24.3841 C   0  0  0  0  0  0  0  0  0  0  0  0
  -25.8076  -28.2676   21.4219 C   0  0  0  0  0  0  0  0  0  0  0  0
  -24.7536  -19.3369   19.0444 C   0  0  0  0  0  0  0  0  0  0  0  0
  -26.8895  -19.4885   20.1397 C   0  0  0  0  0  0  0  0  0  0  0  0
  -21.8838   -4.8235   24.5099 C   0  0  0  0  0  0  0  0  0  0  0  0
  -24.0345  -10.3237   20.8024 C   0  0  0  0  0  0  0  0  0  0  0  0
  -24.1087  -12.8577   21.0874 C   0  0  0  0  0  0  0  0  0  0  0  0
  -33.5783  -30.3202   18.8924 C   0  0  0  0  0  0  0  0  0  0  0  0
  -27.0413  -29.7262   19.9352 C   0  0  0  0  0  0  0  0  0  0  0  0
  -32.4806  -29.6979   19.5170 C   0  0  0  0  0  0  0  0  0  0  0  0
  -26.5040  -29.4662   21.2040 C   0  0  0  0  0  0  0  0  0  0  0  0
  -25.6111  -19.9904   19.9225 C   0  0  0  0  0  0  0  0  0  0  0  0
  -22.9006   -7.7968   21.1359 C   0  0  0  0  0  0  0  0  0  0  0  0
  -25.6370  -27.3463   20.3889 C   0  0  0  0  0  0  0  0  0  0  0  0
  -21.8564   -6.2396   22.5526 C   0  0  0  0  0  0  0  0  0  0  0  0
  -20.8662   -5.5898   25.0785 C   0  0  0  0  0  0  0  0  0  0  0  0
  -22.3788   -5.1484   23.2470 C   0  0  0  0  0  0  0  0  0  0  0  0
  -24.6209  -11.6286   20.6304 C   0  0  0  0  0  0  0  0  0  0  0  0
  -25.2188  -18.1944   18.4134 C   0  0  0  0  0  0  0  0  0  0  0  0
  -27.2589  -18.3391   19.4598 C   0  0  0  0  0  0  0  0  0  0  0  0
  -25.0294  -13.7888   20.6728 C   0  0  0  0  0  0  0  0  0  0  0  0
  -22.9081  -13.1331   21.8212 C   0  0  0  0  0  0  0  0  0  0  0  0
  -29.5720  -30.9377   21.4290 C   0  0  0  0  0  0  0  0  0  0  0  0
  -27.3430  -32.8099   22.8605 C   0  0  0  0  0  0  0  0  0  0  0  0
  -24.0901  -33.2394   23.7989 C   0  0  0  0  0  0  0  0  0  0  0  0
  -30.5527  -15.0988   20.3655 C   0  0  0  0  0  0  0  0  0  0  0  0
  -34.2626  -31.5186   19.5008 C   0  0  0  0  0  0  0  0  0  0  0  0
  -27.7712  -31.0136   19.6662 C   0  0  0  0  0  0  0  0  0  0  0  0
  -26.6608  -30.4361   22.3455 C   0  0  0  0  0  0  0  0  0  0  0  0
  -33.4209  -32.2293   20.5575 C   0  0  0  0  0  0  0  0  0  0  0  0
  -28.9400  -13.3933   17.5033 C   0  0  0  0  0  0  0  0  0  0  0  0
  -32.8115  -31.2180   21.5234 C   0  0  0  0  0  0  0  0  0  0  0  0
  -27.6664  -12.8262   18.1280 C   0  0  0  0  0  0  0  0  0  0  0  0
  -30.0633  -13.5264   18.5271 C   0  0  0  0  0  0  0  0  0  0  0  0
  -28.4155  -13.7476   20.3574 C   0  0  0  0  0  0  0  0  0  0  0  0
  -31.8760  -30.2492   20.7900 C   0  0  1  0  0  0  0  0  0  0  0  0
  -28.3468  -31.6489   20.9281 C   0  0  1  0  0  0  0  0  0  0  0  0
  -27.2497  -13.6444   19.3626 C   0  0  2  0  0  0  0  0  0  0  0  0
  -24.3266  -17.4680   17.4632 C   0  0  0  0  0  0  0  0  0  0  0  0
  -22.5791  -34.8532   24.9863 C   0  0  0  0  0  0  0  0  0  0  0  0
  -28.4818  -31.9000   25.5411 C   0  0  0  0  0  0  0  0  0  0  0  0
  -26.3975  -32.7512   26.6364 C   0  0  0  0  0  0  0  0  0  0  0  0
  -27.9016  -34.3299   25.4248 C   0  0  0  0  0  0  0  0  0  0  0  0
  -30.9686  -17.1334   21.6947 C   0  0  0  0  0  0  0  0  0  0  0  0
  -22.4167  -33.6257   21.3887 C   0  0  0  0  0  0  0  0  0  0  0  0
  -25.1568  -21.2390   20.6356 C   0  0  0  0  0  0  0  0  0  0  0  0
  -28.6229  -17.7716   19.6704 C   0  0  0  0  0  0  0  0  0  0  0  0
  -25.4567  -22.5328   19.8705 C   0  0  0  0  0  0  0  0  0  0  0  0
  -25.0588  -23.7912   20.6431 C   0  0  0  0  0  0  0  0  0  0  0  0
  -28.6944  -16.7559   20.8166 C   0  0  0  0  0  0  0  0  0  0  0  0
  -25.3346  -25.0530   19.8366 C   0  0  0  0  0  0  0  0  0  1  0  0
  -26.4923  -32.6996   24.1027 C   0  0  1  0  0  0  0  0  0  0  0  0
  -23.1439  -34.4163   23.6436 C   0  0  2  0  0  0  0  0  0  0  0  0
  -27.3169  -32.9008   25.4054 C   0  0  0  0  0  0  0  0  0  0  0  0
  -25.7771  -11.7633   19.9754 N   0  0  0  0  0  0  0  0  0  0  0  0
  -26.4537  -17.6768   18.5992 N   0  0  0  0  0  0  0  0  0  0  0  0
  -25.9991  -13.0881   20.0178 N   0  0  0  0  0  0  0  0  0  0  0  0
  -27.3878  -31.6780   22.0343 N   0  0  0  0  0  0  0  0  0  0  0  0
  -29.6272  -14.2710   19.7089 N   0  0  0  0  0  0  0  0  0  0  0  0
  -25.0959  -15.1303   20.8081 N   0  0  0  0  0  0  0  0  0  0  0  0
  -22.0752  -12.0601   22.1666 N   0  0  0  0  0  0  0  0  0  0  0  0
  -30.6057  -30.8852   20.5136 N   0  0  0  0  0  0  0  0  0  0  0  0
  -25.3991  -33.6509   23.9346 N   0  0  0  0  0  0  0  0  0  0  0  0
  -30.0471  -16.2380   21.0100 N   0  0  0  0  0  0  0  0  0  0  0  0
  -22.0070  -34.0526   22.7513 N   0  3  0  0  0  0  0  0  0  0  0  0
  -22.5754  -14.2980   22.1464 O   0  0  0  0  0  0  0  0  0  0  0  0
  -29.5794  -30.4724   22.5627 O   0  0  0  0  0  0  0  0  0  0  0  0
  -27.9400  -33.8640   22.6280 O   0  0  0  0  0  0  0  0  0  0  0  0
  -23.7059  -32.0719   23.8035 O   0  0  0  0  0  0  0  0  0  0  0  0
  -31.7630  -14.8398   20.3670 O   0  0  0  0  0  0  0  0  0  0  0  0
  -22.3474   -6.5639   21.2991 O   0  0  0  0  0  0  0  0  0  0  0  0
  -24.9579  -26.1887   20.6141 O   0  0  0  0  0  0  0  0  0  1  0  0
  -20.3918   -5.2788   26.2919 F   0  0  0  0  0  0  0  0  0  0  0  0
  -23.3572   -4.4093   22.7063 F   0  0  0  0  0  0  0  0  0  0  0  0
  1  2  1  0  0  0  0
  1  5  2  0  0  0  0
  2  6  2  0  0  0  0
  3  8  2  0  0  0  0
  3 17  1  0  0  0  0
  4  9  1  0  0  0  0
  4 17  2  0  0  0  0
  5 19  1  0  0  0  0
  6 21  1  0  0  0  0
  7 10  2  0  0  0  0
  7 20  1  0  0  0  0
  8 24  1  0  0  0  0
  9 24  2  0  0  0  0
 10 25  1  0  0  0  0
 11 12  2  0  0  0  0
 11 26  1  0  0  0  0
 12 27  1  0  0  0  0
 13 22  1  0  0  0  0
 13 25  2  0  0  0  0
 14 23  1  0  0  0  0
 14 30  2  0  0  0  0
 15 23  2  0  0  0  0
 15 31  1  0  0  0  0
 16 27  2  0  0  0  0
 16 28  1  0  0  0  0
 17 29  1  0  0  0  0
 18 29  1  0  0  0  0
 18 32  2  0  0  0  0
 18 33  1  0  0  0  0
 19 21  2  0  0  0  0
 19 38  1  0  0  0  0
 20 22  2  0  0  0  0
 20 39  1  0  0  0  0
 21 47  1  0  0  0  0
 22 40  1  0  0  0  0
 23 57  1  0  0  0  0
 24 82  1  0  0  0  0
 25 83  1  0  0  0  0
 26 28  2  0  0  0  0
 26 82  1  0  0  0  0
 27 84  1  0  0  0  0
 28 85  1  0  0  0  0
 29 66  2  0  0  0  0
 30 50  1  0  0  0  0
 30 67  1  0  0  0  0
 31 58  1  0  0  0  0
 31 67  2  0  0  0  0
 32 68  1  0  0  0  0
 32 71  1  0  0  0  0
 33 72  1  0  0  0  0
 33 77  2  0  0  0  0
 34 48  1  0  0  0  0
 34 73  1  0  0  0  0
 34 78  2  0  0  0  0
 35 63  1  0  0  0  0
 35 69  1  0  0  0  0
 35 79  2  0  0  0  0
 36 64  1  0  0  0  0
 36 74  1  0  0  0  0
 36 80  2  0  0  0  0
 37 70  1  0  0  0  0
 37 75  1  0  0  0  0
 37 81  2  0  0  0  0
 38 41  1  0  0  0  0
 39 48  1  0  0  0  0
 40 69  1  0  0  0  0
 41 43  1  0  0  0  0
 42 44  1  0  0  0  0
 42 45  1  0  0  0  0
 43 47  1  0  0  0  0
 44 49  1  0  0  0  0
 45 70  1  0  0  0  0
 46 49  1  0  0  0  0
 46 70  1  0  0  0  0
 47 73  1  0  0  0  0
 48 69  1  0  0  0  0
 49 68  1  0  0  0  0
 51 64  1  0  0  0  0
 52 65  1  0  0  0  0
 53 65  1  0  0  0  0
 54 65  1  0  0  0  0
 55 75  1  0  0  0  0
 56 76  1  0  0  0  0
 57 59  1  0  0  0  0
 58 61  1  0  0  0  0
 59 60  1  0  0  0  0
 60 62  1  0  0  0  0
 61 75  1  0  0  0  0
 62 83  1  0  0  0  0
 63 65  1  0  0  0  0
 63 74  1  0  0  0  0
 64 76  1  0  0  0  0
 66 68  1  0  0  0  0
M  CHG  1  76   1
M  ISO  4  37 100  62 101  75 100  83 101
M  END
> <Batch ID>
0083

> <Smiles>
CNC(C)C(=O)NC(C(=O)N1Cc2cc([101O:1][101CH2:1]CCCc3cc(C)nc(CC[100N:0](C)[100C:0](=O)N4CCCC(n5nc(-c6ccc(Oc7ccc(F)cc7F)cc6)c(C(N)=O)c5N)C4)c3)ccc2CC1C(=O)NC1CCCc2ccccc21)C(C)(C)C

> <Shape>
0.287

> <Color>
0.218

> <Negative vol penalty>
0.000

$$$$

  -OEChem-04052318513D

 83 91  0     1  0  0  0  0  0999 V2000
  -15.7908  -26.7659   23.3056 C   0  0  0  0  0  0  0  0  0  0  0  0
  -17.0548  -26.3622   22.8876 C   0  0  0  0  0  0  0  0  0  0  0  0
  -24.6398   -9.0974   21.5943 C   0  0  0  0  0  0  0  0  0  0  0  0
  -24.0351  -10.7125   23.2863 C   0  0  0  0  0  0  0  0  0  0  0  0
  -15.5731  -28.0896   23.6855 C   0  0  0  0  0  0  0  0  0  0  0  0
  -18.1017  -27.2824   22.8482 C   0  0  0  0  0  0  0  0  0  0  0  0
  -22.3918  -25.4288   24.7986 C   0  0  0  0  0  0  0  0  0  0  0  0
  -24.2094   -8.0642   22.4266 C   0  0  0  0  0  0  0  0  0  0  0  0
  -23.6046   -9.6792   24.1187 C   0  0  0  0  0  0  0  0  0  0  0  0
  -23.1332  -24.5619   23.9970 C   0  0  0  0  0  0  0  0  0  0  0  0
  -21.2709   -6.6683   23.3485 C   0  0  0  0  0  0  0  0  0  0  0  0
  -20.4863   -5.6638   22.7820 C   0  0  0  0  0  0  0  0  0  0  0  0
  -24.6151  -26.3749   23.4173 C   0  0  0  0  0  0  0  0  0  0  0  0
  -26.4970  -19.3447   19.2766 C   0  0  0  0  0  0  0  0  0  0  0  0
  -22.1474   -4.0203   23.3957 C   0  0  0  0  0  0  0  0  0  0  0  0
  -24.5527  -10.4216   22.0242 C   0  0  0  0  0  0  0  0  0  0  0  0
  -24.2308  -12.1943   20.2183 C   0  0  0  0  0  0  0  0  0  0  0  0
  -16.6203  -29.0242   23.6600 C   0  0  0  0  0  0  0  0  0  0  0  0
  -22.7507  -26.7801   24.9071 C   0  0  0  0  0  0  0  0  0  0  0  0
  -17.8976  -28.6202   23.2269 C   0  0  0  0  0  0  0  0  0  0  0  0
  -23.8781  -27.2563   24.2229 C   0  0  0  0  0  0  0  0  0  0  0  0
  -26.3287  -20.6348   18.7862 C   0  0  0  0  0  0  0  0  0  0  0  0
  -27.4436  -21.4080   18.4823 C   0  0  0  0  0  0  0  0  0  0  0  0
  -23.6917   -8.3551   23.6888 C   0  0  0  0  0  0  0  0  0  0  0  0
  -24.2433  -25.0355   23.3039 C   0  0  0  0  0  0  0  0  0  0  0  0
  -22.4938   -6.3488   23.9385 C   0  0  0  0  0  0  0  0  0  0  0  0
  -20.9245   -4.3398   22.8056 C   0  0  0  0  0  0  0  0  0  0  0  0
  -22.9321   -5.0248   23.9621 C   0  0  0  0  0  0  0  0  0  0  0  0
  -24.9978  -11.4893   21.1651 C   0  0  0  0  0  0  0  0  0  0  0  0
  -28.6952  -20.8492   18.6850 C   0  0  0  0  0  0  0  0  0  0  0  0
  -27.7909  -18.8781   19.4435 C   0  0  0  0  0  0  0  0  0  0  0  0
  -25.1080  -13.0981   19.6703 C   0  0  0  0  0  0  0  0  0  0  0  0
  -22.8491  -12.0456   19.8657 C   0  0  0  0  0  0  0  0  0  0  0  0
  -21.3449  -29.5389   24.1885 C   0  0  0  0  0  0  0  0  0  0  0  0
  -23.9462  -30.8002   25.6598 C   0  0  0  0  0  0  0  0  0  0  0  0
  -27.1982  -30.4209   26.6230 C   0  0  0  0  0  0  0  0  0  0  0  0
  -29.1499  -16.8924   20.1893 C   0  0  0  0  0  0  0  0  0  0  0  0
  -16.3255  -30.4550   24.0349 C   0  0  0  0  0  0  0  0  0  0  0  0
  -21.9563  -27.6963   25.7969 C   0  0  0  0  0  0  0  0  0  0  0  0
  -24.3172  -28.6937   24.3218 C   0  0  0  0  0  0  0  0  0  0  0  0
  -17.5776  -31.2799   24.3217 C   0  0  0  0  0  0  0  0  0  0  0  0
  -30.1387  -13.4735   20.0857 C   0  0  0  0  0  0  0  0  0  0  0  0
  -18.6267  -31.0521   23.2380 C   0  0  0  0  0  0  0  0  0  0  0  0
  -28.8263  -12.7105   20.2794 C   0  0  0  0  0  0  0  0  0  0  0  0
  -30.1798  -14.7523   20.9204 C   0  0  0  0  0  0  0  0  0  0  0  0
  -27.7199  -14.8873   20.9311 C   0  0  0  0  0  0  0  0  0  0  0  0
  -19.0646  -29.5831   23.1941 C   0  0  1  0  0  0  0  0  0  0  0  0
  -22.1096  -29.1686   25.4278 C   0  0  1  0  0  0  0  0  0  0  0  0
  -27.6051  -13.6251   20.0607 C   0  0  2  0  0  0  0  0  0  0  0  0
  -27.2942  -22.7950   17.9538 C   0  0  0  0  0  0  0  0  0  0  0  0
  -29.9294  -21.6331   18.3774 C   0  0  0  0  0  0  0  0  0  0  0  0
  -29.0666  -31.6382   27.7739 C   0  0  0  0  0  0  0  0  0  0  0  0
  -24.3995  -32.4736   23.1489 C   0  0  0  0  0  0  0  0  0  0  0  0
  -26.7270  -32.9242   23.9537 C   0  0  0  0  0  0  0  0  0  0  0  0
  -24.7730  -33.6958   25.2986 C   0  0  0  0  0  0  0  0  0  0  0  0
  -27.3549  -28.3893   28.7694 C   0  0  0  0  0  0  0  0  0  0  0  0
  -24.9325  -21.1711   18.5941 C   0  0  0  0  0  0  0  0  0  0  0  0
  -24.2450  -21.5896   19.8985 C   0  0  0  0  0  0  0  0  0  0  0  0
  -24.9568  -22.7428   20.6072 C   0  0  0  0  0  0  0  0  0  0  0  0
  -24.2691  -23.1039   21.9168 C   0  0  0  0  0  0  0  0  0  1  0  0
  -25.3232  -31.2296   25.2141 C   0  0  1  0  0  0  0  0  0  0  0  0
  -27.8942  -30.6849   27.9460 C   0  0  2  0  0  0  0  0  0  0  0  0
  -25.2965  -32.5541   24.4002 C   0  0  0  0  0  0  0  0  0  0  0  0
  -26.2647  -11.9090   21.2180 N   0  0  0  0  0  0  0  0  0  0  0  0
  -28.8983  -19.5997   19.1595 N   0  0  0  0  0  0  0  0  0  0  0  0
  -26.3006  -12.8875   20.2975 N   0  0  0  0  0  0  0  0  0  0  0  0
  -23.5043  -29.5518   25.1995 N   0  0  0  0  0  0  0  0  0  0  0  0
  -28.9939  -15.5706   20.6578 N   0  0  0  0  0  0  0  0  0  0  0  0
  -24.9677  -14.0445   18.7179 N   0  0  0  0  0  0  0  0  0  0  0  0
  -22.0923  -11.0686   20.5267 N   0  0  0  0  0  0  0  0  0  0  0  0
  -27.9517  -17.5623   19.9440 N   0  0  0  0  0  0  0  0  0  0  0  0
  -19.9868  -29.2983   24.2724 N   0  0  0  0  0  0  0  0  0  0  0  0
  -26.1434  -31.2853   26.4194 N   0  0  0  0  0  0  0  0  0  0  0  0
  -28.4057  -29.4107   28.5255 N   0  3  0  0  0  0  0  0  0  0  0  0
  -22.3059  -12.7470   18.9788 O   0  0  0  0  0  0  0  0  0  0  0  0
  -21.9426  -30.0096   23.2279 O   0  0  0  0  0  0  0  0  0  0  0  0
  -23.2900  -31.5419   26.3951 O   0  0  0  0  0  0  0  0  0  0  0  0
  -27.5568  -29.5387   25.8461 O   0  0  0  0  0  0  0  0  0  0  0  0
  -30.2642  -17.3839   19.9924 O   0  0  0  0  0  0  0  0  0  0  0  0
  -23.2713   -7.3472   24.5011 O   0  0  0  0  0  0  0  0  0  0  0  0
  -24.9684  -24.1916   22.5204 O   0  0  0  0  0  0  0  0  0  1  0  0
  -20.1702   -3.3750   22.2630 F   0  0  0  0  0  0  0  0  0  0  0  0
  -24.1055   -4.7116   24.5285 F   0  0  0  0  0  0  0  0  0  0  0  0
  1  2  1  0  0  0  0
  1  5  2  0  0  0  0
  2  6  2  0  0  0  0
  3  8  2  0  0  0  0
  3 16  1  0  0  0  0
  4  9  1  0  0  0  0
  4 16  2  0  0  0  0
  5 18  1  0  0  0  0
  6 20  1  0  0  0  0
  7 10  2  0  0  0  0
  7 19  1  0  0  0  0
  8 24  1  0  0  0  0
  9 24  2  0  0  0  0
 10 25  1  0  0  0  0
 11 12  2  0  0  0  0
 11 26  1  0  0  0  0
 12 27  1  0  0  0  0
 13 21  1  0  0  0  0
 13 25  2  0  0  0  0
 14 22  1  0  0  0  0
 14 31  2  0  0  0  0
 15 27  2  0  0  0  0
 15 28  1  0  0  0  0
 16 29  1  0  0  0  0
 17 29  1  0  0  0  0
 17 32  2  0  0  0  0
 17 33  1  0  0  0  0
 18 20  2  0  0  0  0
 18 38  1  0  0  0  0
 19 21  2  0  0  0  0
 19 39  1  0  0  0  0
 20 47  1  0  0  0  0
 21 40  1  0  0  0  0
 22 23  2  0  0  0  0
 22 57  1  0  0  0  0
 23 30  1  0  0  0  0
 23 50  1  0  0  0  0
 24 80  1  0  0  0  0
 25 81  1  0  0  0  0
 26 28  2  0  0  0  0
 26 80  1  0  0  0  0
 27 82  1  0  0  0  0
 28 83  1  0  0  0  0
 29 64  2  0  0  0  0
 30 51  1  0  0  0  0
 30 65  2  0  0  0  0
 31 65  1  0  0  0  0
 31 71  1  0  0  0  0
 32 66  1  0  0  0  0
 32 69  1  0  0  0  0
 33 70  1  0  0  0  0
 33 75  2  0  0  0  0
 34 48  1  0  0  0  0
 34 72  1  0  0  0  0
 34 76  2  0  0  0  0
 35 61  1  0  0  0  0
 35 67  1  0  0  0  0
 35 77  2  0  0  0  0
 36 62  1  0  0  0  0
 36 73  1  0  0  0  0
 36 78  2  0  0  0  0
 37 68  1  0  0  0  0
 37 71  1  0  0  0  0
 37 79  2  0  0  0  0
 38 41  1  0  0  0  0
 39 48  1  0  0  0  0
 40 67  1  0  0  0  0
 41 43  1  0  0  0  0
 42 44  1  0  0  0  0
 42 45  1  0  0  0  0
 43 47  1  0  0  0  0
 44 49  1  0  0  0  0
 45 68  1  0  0  0  0
 46 49  1  0  0  0  0
 46 68  1  0  0  0  0
 47 72  1  0  0  0  0
 48 67  1  0  0  0  0
 49 66  1  0  0  0  0
 52 62  1  0  0  0  0
 53 63  1  0  0  0  0
 54 63  1  0  0  0  0
 55 63  1  0  0  0  0
 56 74  1  0  0  0  0
 57 58  1  0  0  0  0
 58 59  1  0  0  0  0
 59 60  1  0  0  0  0
 60 81  1  0  0  0  0
 61 63  1  0  0  0  0
 61 73  1  0  0  0  0
 62 74  1  0  0  0  0
 64 66  1  0  0  0  0
M  CHG  1  74   1
M  ISO  4  37 100  60 101  71 100  81 101
M  END
> <Batch ID>
0083

> <Smiles>
CNC(C)C(=O)NC(C(=O)N1Cc2cc([101O:1][101CH2:1]CCCc3cc([100NH:0][100C:0](=O)N4CCCC(n5nc(-c6ccc(Oc7ccc(F)cc7F)cc6)c(C(N)=O)c5N)C4)nc(C)c3C)ccc2CC1C(=O)NC1CCCc2ccccc21)C(C)(C)C

> <Shape>
0.273

> <Color>
0.085

> <Negative vol penalty>
0.000

$$$$

  -OEChem-04052318513D

 86 94  0     1  0  0  0  0  0999 V2000
  -16.8649  -29.6028   24.3299 C   0  0  0  0  0  0  0  0  0  0  0  0
  -17.2842  -28.4422   23.6875 C   0  0  0  0  0  0  0  0  0  0  0  0
  -24.4032  -14.1779   23.8684 C   0  0  0  0  0  0  0  0  0  0  0  0
  -23.4204  -15.4509   22.0655 C   0  0  0  0  0  0  0  0  0  0  0  0
  -17.5071  -30.8128   24.0702 C   0  0  0  0  0  0  0  0  0  0  0  0
  -18.3453  -28.4912   22.7841 C   0  0  0  0  0  0  0  0  0  0  0  0
  -22.5626  -24.1563   21.8201 C   0  0  0  0  0  0  0  0  0  0  0  0
  -26.4569  -19.5275   16.1256 C   0  0  0  0  0  0  0  0  0  0  0  0
  -23.8345  -15.0514   24.7952 C   0  0  0  0  0  0  0  0  0  0  0  0
  -22.8516  -16.3244   22.9923 C   0  0  0  0  0  0  0  0  0  0  0  0
  -22.6832  -23.1647   20.8475 C   0  0  0  0  0  0  0  0  0  0  0  0
  -23.8499  -18.9369   24.8921 C   0  0  0  0  0  0  0  0  0  0  0  0
  -23.9458  -20.3049   24.6370 C   0  0  0  0  0  0  0  0  0  0  0  0
  -27.2633  -18.6887   15.3643 C   0  0  0  0  0  0  0  0  0  0  0  0
  -24.1342  -24.6051   19.5674 C   0  0  0  0  0  0  0  0  0  0  0  0
  -21.5355  -20.4693   24.6127 C   0  0  0  0  0  0  0  0  0  0  0  0
  -24.1963  -14.3777   22.5034 C   0  0  0  0  0  0  0  0  0  0  0  0
  -24.2138  -12.2989   21.0249 C   0  0  0  0  0  0  0  0  0  0  0  0
  -18.5829  -30.8748   23.1705 C   0  0  0  0  0  0  0  0  0  0  0  0
  -23.2193  -25.3859   21.6682 C   0  0  0  0  0  0  0  0  0  0  0  0
  -19.0017  -29.7034   22.5111 C   0  0  0  0  0  0  0  0  0  0  0  0
  -24.0225  -25.6097   20.5408 C   0  0  0  0  0  0  0  0  0  0  0  0
  -26.7018  -19.6708   17.4867 C   0  0  0  0  0  0  0  0  0  0  0  0
  -23.0586  -16.1246   24.3573 C   0  0  0  0  0  0  0  0  0  0  0  0
  -23.4667  -23.3901   19.7196 C   0  0  0  0  0  0  0  0  0  0  0  0
  -22.5968  -18.3351   25.0074 C   0  0  0  0  0  0  0  0  0  0  0  0
  -22.7886  -21.0711   24.4974 C   0  0  0  0  0  0  0  0  0  0  0  0
  -21.4396  -19.1013   24.8678 C   0  0  0  0  0  0  0  0  0  0  0  0
  -24.7840  -13.4761   21.5455 C   0  0  0  0  0  0  0  0  0  0  0  0
  -28.2933  -18.0208   16.0067 C   0  0  0  0  0  0  0  0  0  0  0  0
  -27.7569  -18.9588   18.0342 C   0  0  0  0  0  0  0  0  0  0  0  0
  -25.1633  -11.8103   20.1611 C   0  0  0  0  0  0  0  0  0  0  0  0
  -22.9396  -11.7007   21.2977 C   0  0  0  0  0  0  0  0  0  0  0  0
  -22.2823  -28.4119   21.4055 C   0  0  0  0  0  0  0  0  0  0  0  0
  -25.4684  -29.0033   21.5512 C   0  0  0  0  0  0  0  0  0  0  0  0
  -28.6511  -27.8631   21.0849 C   0  0  0  0  0  0  0  0  0  0  0  0
  -29.6030  -14.4025   17.0918 C   0  0  0  0  0  0  0  0  0  0  0  0
  -19.2152  -32.2143   22.8863 C   0  0  0  0  0  0  0  0  0  0  0  0
  -23.1006  -26.4352   22.7393 C   0  0  0  0  0  0  0  0  0  0  0  0
  -24.7643  -26.9050   20.3401 C   0  0  0  0  0  0  0  0  0  0  0  0
  -20.5740  -32.1126   22.1980 C   0  0  0  0  0  0  0  0  0  0  0  0
  -29.8932  -11.7450   19.4435 C   0  0  0  0  0  0  0  0  0  0  0  0
  -20.5142  -31.1183   21.0428 C   0  0  0  0  0  0  0  0  0  0  0  0
  -28.5652  -11.7811   20.2019 C   0  0  0  0  0  0  0  0  0  0  0  0
  -30.3758  -13.1484   19.0835 C   0  0  0  0  0  0  0  0  0  0  0  0
  -28.0664  -14.0086   19.1118 C   0  0  0  0  0  0  0  0  0  0  0  0
  -20.1650  -29.7115   21.5433 C   0  0  1  0  0  0  0  0  0  0  0  0
  -23.4001  -27.8427   22.2327 C   0  0  1  0  0  0  0  0  0  0  0  0
  -27.5112  -12.6139   19.4477 C   0  0  2  0  0  0  0  0  0  0  0  0
  -31.0476  -28.5883   21.2519 C   0  0  0  0  0  0  0  0  0  0  0  0
  -26.8585  -18.6244   20.3637 C   0  0  0  0  0  0  0  0  0  0  0  0
  -28.4070  -20.5484   19.8774 C   0  0  0  0  0  0  0  0  0  0  0  0
  -29.2830  -18.2241   19.9853 C   0  0  0  0  0  0  0  0  0  0  0  0
  -25.1641  -30.5961   18.9665 C   0  0  0  0  0  0  0  0  0  0  0  0
  -27.6490  -30.4794   18.6840 C   0  0  0  0  0  0  0  0  0  0  0  0
  -26.6739  -31.6413   20.6643 C   0  0  0  0  0  0  0  0  0  0  0  0
  -29.2577  -25.7920   23.1101 C   0  0  0  0  0  0  0  0  0  0  0  0
  -25.8300  -20.5780   18.3178 C   0  0  0  0  0  0  0  0  0  0  0  0
  -29.1794  -17.1137   15.2198 C   0  0  0  0  0  0  0  0  0  0  0  0
  -24.3476  -20.1993   18.2937 C   0  0  0  0  0  0  0  0  0  0  0  0
  -28.6805  -15.6652   15.1648 C   0  0  0  0  0  0  0  0  0  0  0  0
  -23.4875  -21.0686   19.2034 C   0  0  0  0  0  0  0  0  0  1  0  0
  -26.5819  -29.1178   20.5383 C   0  0  1  0  0  0  0  0  0  0  0  0
  -29.8829  -27.9246   21.9699 C   0  0  2  0  0  0  0  0  0  0  0  0
  -28.0687  -19.0761   19.4902 C   0  0  0  0  0  0  0  0  0  0  0  0
  -26.5018  -30.4349   19.7158 C   0  0  0  0  0  0  0  0  0  0  0  0
  -26.0015  -13.7204   21.0536 N   0  0  0  0  0  0  0  0  0  0  0  0
  -28.5619  -18.1347   17.3268 N   0  0  0  0  0  0  0  0  0  0  0  0
  -26.2042  -12.6900   20.2150 N   0  0  0  0  0  0  0  0  0  0  0  0
  -24.6115  -27.9023   21.4123 N   0  0  0  0  0  0  0  0  0  0  0  0
  -29.3303  -13.8847   18.3688 N   0  0  0  0  0  0  0  0  0  0  0  0
  -25.2011  -10.7183   19.3684 N   0  0  0  0  0  0  0  0  0  0  0  0
  -22.0860  -12.3340   22.2112 N   0  0  0  0  0  0  0  0  0  0  0  0
  -21.3250  -29.0850   22.1403 N   0  0  0  0  0  0  0  0  0  0  0  0
  -27.8271  -28.9514   21.2800 N   0  0  0  0  0  0  0  0  0  0  0  0
  -28.5554  -15.0814   16.4817 N   0  0  0  0  0  0  0  0  0  0  0  0
  -30.3000  -26.5519   22.3732 N   0  3  0  0  0  0  0  0  0  0  0  0
  -22.5758  -10.6274   20.7600 O   0  0  0  0  0  0  0  0  0  0  0  0
  -22.2887  -28.2535   20.1904 O   0  0  0  0  0  0  0  0  0  0  0  0
  -25.3671  -29.8554   22.4374 O   0  0  0  0  0  0  0  0  0  0  0  0
  -28.4426  -26.9437   20.2964 O   0  0  0  0  0  0  0  0  0  0  0  0
  -30.6973  -14.2650   16.5344 O   0  0  0  0  0  0  0  0  0  0  0  0
  -22.5033  -16.9770   25.2614 O   0  0  0  0  0  0  0  0  0  0  0  0
  -23.5856  -22.4242   18.7684 O   0  0  0  0  0  0  0  0  0  1  0  0
  -22.8808  -22.3850   24.2540 F   0  0  0  0  0  0  0  0  0  0  0  0
  -20.2330  -18.5290   24.9787 F   0  0  0  0  0  0  0  0  0  0  0  0
  1  2  1  0  0  0  0
  1  5  2  0  0  0  0
  2  6  2  0  0  0  0
  3  9  2  0  0  0  0
  3 17  1  0  0  0  0
  4 10  1  0  0  0  0
  4 17  2  0  0  0  0
  5 19  1  0  0  0  0
  6 21  1  0  0  0  0
  7 11  2  0  0  0  0
  7 20  1  0  0  0  0
  8 14  2  0  0  0  0
  8 23  1  0  0  0  0
  9 24  1  0  0  0  0
 10 24  2  0  0  0  0
 11 25  1  0  0  0  0
 12 13  2  0  0  0  0
 12 26  1  0  0  0  0
 13 27  1  0  0  0  0
 14 30  1  0  0  0  0
 15 22  1  0  0  0  0
 15 25  2  0  0  0  0
 16 27  2  0  0  0  0
 16 28  1  0  0  0  0
 17 29  1  0  0  0  0
 18 29  1  0  0  0  0
 18 32  2  0  0  0  0
 18 33  1  0  0  0  0
 19 21  2  0  0  0  0
 19 38  1  0  0  0  0
 20 22  2  0  0  0  0
 20 39  1  0  0  0  0
 21 47  1  0  0  0  0
 22 40  1  0  0  0  0
 23 31  2  0  0  0  0
 23 58  1  0  0  0  0
 24 83  1  0  0  0  0
 25 84  1  0  0  0  0
 26 28  2  0  0  0  0
 26 83  1  0  0  0  0
 27 85  1  0  0  0  0
 28 86  1  0  0  0  0
 29 67  2  0  0  0  0
 30 59  1  0  0  0  0
 30 68  2  0  0  0  0
 31 65  1  0  0  0  0
 31 68  1  0  0  0  0
 32 69  1  0  0  0  0
 32 72  1  0  0  0  0
 33 73  1  0  0  0  0
 33 78  2  0  0  0  0
 34 48  1  0  0  0  0
 34 74  1  0  0  0  0
 34 79  2  0  0  0  0
 35 63  1  0  0  0  0
 35 70  1  0  0  0  0
 35 80  2  0  0  0  0
 36 64  1  0  0  0  0
 36 75  1  0  0  0  0
 36 81  2  0  0  0  0
 37 71  1  0  0  0  0
 37 76  1  0  0  0  0
 37 82  2  0  0  0  0
 38 41  1  0  0  0  0
 39 48  1  0  0  0  0
 40 70  1  0  0  0  0
 41 43  1  0  0  0  0
 42 44  1  0  0  0  0
 42 45  1  0  0  0  0
 43 47  1  0  0  0  0
 44 49  1  0  0  0  0
 45 71  1  0  0  0  0
 46 49  1  0  0  0  0
 46 71  1  0  0  0  0
 47 74  1  0  0  0  0
 48 70  1  0  0  0  0
 49 69  1  0  0  0  0
 50 64  1  0  0  0  0
 51 65  1  0  0  0  0
 52 65  1  0  0  0  0
 53 65  1  0  0  0  0
 54 66  1  0  0  0  0
 55 66  1  0  0  0  0
 56 66  1  0  0  0  0
 57 77  1  0  0  0  0
 58 60  1  0  0  0  0
 59 61  1  0  0  0  0
 60 62  1  0  0  0  0
 61 76  1  0  0  0  0
 62 84  1  0  0  0  0
 63 66  1  0  0  0  0
 63 75  1  0  0  0  0
 64 77  1  0  0  0  0
 67 69  1  0  0  0  0
M  CHG  1  77   1
M  ISO  4  37 100  62 101  76 100  84 101
M  END
> <Batch ID>
0083

> <Smiles>
CNC(C)C(=O)NC(C(=O)N1Cc2cc([101O:1][101CH2:1]CCc3ccc(CC[100NH:0][100C:0](=O)N4CCCC(n5nc(-c6ccc(Oc7ccc(F)cc7F)cc6)c(C(N)=O)c5N)C4)nc3C(C)(C)C)ccc2CC1C(=O)NC1CCCc2ccccc21)C(C)(C)C

> <Shape>
0.215

> <Color>
0.107

> <Negative vol penalty>
0.000

$$$$

  -OEChem-04052318513D

 83 91  0     1  0  0  0  0  0999 V2000
  -17.1460  -24.4690   20.8672 C   0  0  0  0  0  0  0  0  0  0  0  0
  -17.4624  -23.1527   20.5466 C   0  0  0  0  0  0  0  0  0  0  0  0
  -27.5459  -26.2766   18.7830 C   0  0  0  0  0  0  0  0  0  0  0  0
  -29.0626  -25.9813   20.6403 C   0  0  0  0  0  0  0  0  0  0  0  0
  -18.1449  -25.3383   21.3036 C   0  0  0  0  0  0  0  0  0  0  0  0
  -18.7781  -22.7054   20.6611 C   0  0  0  0  0  0  0  0  0  0  0  0
  -20.6329  -17.1103   22.3226 C   0  0  0  0  0  0  0  0  0  0  0  0
  -27.2333  -27.5562   19.2417 C   0  0  0  0  0  0  0  0  0  0  0  0
  -28.7500  -27.2609   21.0990 C   0  0  0  0  0  0  0  0  0  0  0  0
  -21.0484  -16.0024   21.5853 C   0  0  0  0  0  0  0  0  0  0  0  0
  -25.2848  -28.9374   21.6335 C   0  0  0  0  0  0  0  0  0  0  0  0
  -23.9400  -29.3068   21.6549 C   0  0  0  0  0  0  0  0  0  0  0  0
  -23.3473  -16.6606   21.9033 C   0  0  0  0  0  0  0  0  0  0  0  0
  -28.6689  -13.2615   18.7000 C   0  0  0  0  0  0  0  0  0  0  0  0
  -27.3150  -13.4708   20.6768 C   0  0  0  0  0  0  0  0  0  0  0  0
  -24.4173  -31.1324   20.1461 C   0  0  0  0  0  0  0  0  0  0  0  0
  -28.4605  -25.4891   19.4823 C   0  0  0  0  0  0  0  0  0  0  0  0
  -29.8104  -23.8116   18.1143 C   0  0  0  0  0  0  0  0  0  0  0  0
  -19.4718  -24.8988   21.4327 C   0  0  0  0  0  0  0  0  0  0  0  0
  -21.5725  -18.0091   22.8474 C   0  0  0  0  0  0  0  0  0  0  0  0
  -19.7959  -23.5700   21.0983 C   0  0  0  0  0  0  0  0  0  0  0  0
  -22.9412  -17.7777   22.6491 C   0  0  0  0  0  0  0  0  0  0  0  0
  -28.3931  -13.8938   19.9072 C   0  0  0  0  0  0  0  0  0  0  0  0
  -27.8353  -28.0484   20.3997 C   0  0  0  0  0  0  0  0  0  0  0  0
  -22.4057  -15.7790   21.3730 C   0  0  0  0  0  0  0  0  0  0  0  0
  -26.1960  -29.6656   20.8684 C   0  0  0  0  0  0  0  0  0  0  0  0
  -23.5062  -30.4042   20.9112 C   0  0  0  0  0  0  0  0  0  0  0  0
  -25.7622  -30.7630   20.1247 C   0  0  0  0  0  0  0  0  0  0  0  0
  -28.7834  -24.1670   19.0092 C   0  0  0  0  0  0  0  0  0  0  0  0
  -27.8430  -12.2196   18.3100 C   0  0  0  0  0  0  0  0  0  0  0  0
  -26.5496  -12.4196   20.1982 C   0  0  0  0  0  0  0  0  0  0  0  0
  -29.6999  -22.4483   17.9889 C   0  0  0  0  0  0  0  0  0  0  0  0
  -30.7778  -24.6397   17.4554 C   0  0  0  0  0  0  0  0  0  0  0  0
  -22.1962  -21.0984   22.4334 C   0  0  0  0  0  0  0  0  0  0  0  0
  -24.3071  -20.5959   24.8446 C   0  0  0  0  0  0  0  0  0  0  0  0
  -26.2516  -18.3935   26.5810 C   0  0  0  0  0  0  0  0  0  0  0  0
  -29.1261  -17.4950   20.2433 C   0  0  0  0  0  0  0  0  0  0  0  0
  -20.5256  -25.8881   21.8632 C   0  0  0  0  0  0  0  0  0  0  0  0
  -21.1092  -19.1848   23.6633 C   0  0  0  0  0  0  0  0  0  0  0  0
  -23.9909  -18.7016   23.2085 C   0  0  0  0  0  0  0  0  0  0  0  0
  -21.8280  -25.2326   22.3154 C   0  0  0  0  0  0  0  0  0  0  0  0
  -26.0635  -19.2827   19.5208 C   0  0  0  0  0  0  0  0  0  0  0  0
  -22.2560  -24.1556   21.3236 C   0  0  0  0  0  0  0  0  0  0  0  0
  -26.5913  -20.6924   19.2481 C   0  0  0  0  0  0  0  0  0  0  0  0
  -26.8463  -18.6068   20.6426 C   0  0  0  0  0  0  0  0  0  0  0  0
  -28.8479  -19.9558   20.1452 C   0  0  0  0  0  0  0  0  0  0  0  0
  -21.2072  -23.0406   21.2332 C   0  0  1  0  0  0  0  0  0  0  0  0
  -22.1311  -20.3163   23.7147 C   0  0  1  0  0  0  0  0  0  0  0  0
  -28.1123  -20.6841   19.0057 C   0  0  2  0  0  0  0  0  0  0  0  0
  -28.1099  -11.5167   17.0211 C   0  0  0  0  0  0  0  0  0  0  0  0
  -29.9314  -14.7326   21.7215 C   0  0  0  0  0  0  0  0  0  0  0  0
  -27.8950  -18.2847   28.4743 C   0  0  0  0  0  0  0  0  0  0  0  0
  -26.4590  -21.7922   23.0423 C   0  0  0  0  0  0  0  0  0  0  0  0
  -28.1843  -20.8038   24.5638 C   0  0  0  0  0  0  0  0  0  0  0  0
  -26.5853  -22.5088   25.4350 C   0  0  0  0  0  0  0  0  0  0  0  0
  -24.5170  -16.5671   28.1348 C   0  0  0  0  0  0  0  0  0  0  0  0
  -25.3716  -11.9360   21.0057 C   0  0  0  0  0  0  0  0  0  0  0  0
  -24.0599  -12.6484   20.6690 C   0  0  0  0  0  0  0  0  0  0  0  0
  -24.0841  -14.1393   20.9852 C   0  0  0  0  0  0  0  0  0  1  0  0
  -29.2507  -15.0203   20.3753 C   0  0  2  0  0  0  0  0  0  0  0  0
  -25.7545  -20.1754   24.9281 C   0  0  1  0  0  0  0  0  0  0  0  0
  -26.4333  -18.1679   28.0711 C   0  0  2  0  0  0  0  0  0  0  0  0
  -26.7262  -21.3035   24.4800 C   0  0  0  0  0  0  0  0  0  0  0  0
  -28.0728  -23.1144   19.4229 N   0  0  0  0  0  0  0  0  0  0  0  0
  -26.7866  -11.7808   19.0306 N   0  0  0  0  0  0  0  0  0  0  0  0
  -28.6540  -22.0842   18.7850 N   0  0  0  0  0  0  0  0  0  0  0  0
  -23.4876  -19.8406   23.9939 N   0  0  0  0  0  0  0  0  0  0  0  0
  -28.2849  -18.6158   20.3415 N   0  0  0  0  0  0  0  0  0  0  0  0
  -30.3963  -21.5374   17.2763 N   0  0  0  0  0  0  0  0  0  0  0  0
  -30.7504  -26.0201   17.6963 N   0  0  0  0  0  0  0  0  0  0  0  0
  -21.3097  -22.1567   22.3745 N   0  0  0  0  0  0  0  0  0  0  0  0
  -25.9668  -19.7120   26.2950 N   0  0  0  0  0  0  0  0  0  0  0  0
  -28.5162  -16.2637   20.4496 N   0  0  0  0  0  0  0  0  0  0  0  0
  -25.9474  -16.8117   28.4527 N   0  3  0  0  0  0  0  0  0  0  0  0
  -31.6304  -24.1714   16.6634 O   0  0  0  0  0  0  0  0  0  0  0  0
  -22.9928  -20.7671   21.5631 O   0  0  0  0  0  0  0  0  0  0  0  0
  -23.9162  -21.5547   25.5152 O   0  0  0  0  0  0  0  0  0  0  0  0
  -26.3558  -17.4911   25.7531 O   0  0  0  0  0  0  0  0  0  0  0  0
  -30.3313  -17.5845   19.9854 O   0  0  0  0  0  0  0  0  0  0  0  0
  -27.5307  -29.2971   20.8475 O   0  0  0  0  0  0  0  0  0  0  0  0
  -22.8140  -14.6987   20.6532 O   0  0  0  0  0  0  0  0  0  1  0  0
  -22.2144  -30.7579   20.9307 F   0  0  0  0  0  0  0  0  0  0  0  0
  -26.6327  -31.4657   19.3869 F   0  0  0  0  0  0  0  0  0  0  0  0
  1  2  1  0  0  0  0
  1  5  2  0  0  0  0
  2  6  2  0  0  0  0
  3  8  2  0  0  0  0
  3 17  1  0  0  0  0
  4  9  1  0  0  0  0
  4 17  2  0  0  0  0
  5 19  1  0  0  0  0
  6 21  1  0  0  0  0
  7 10  2  0  0  0  0
  7 20  1  0  0  0  0
  8 24  1  0  0  0  0
  9 24  2  0  0  0  0
 10 25  1  0  0  0  0
 11 12  2  0  0  0  0
 11 26  1  0  0  0  0
 12 27  1  0  0  0  0
 13 22  1  0  0  0  0
 13 25  2  0  0  0  0
 14 23  1  0  0  0  0
 14 30  2  0  0  0  0
 15 23  2  0  0  0  0
 15 31  1  0  0  0  0
 16 27  2  0  0  0  0
 16 28  1  0  0  0  0
 17 29  1  0  0  0  0
 18 29  1  0  0  0  0
 18 32  2  0  0  0  0
 18 33  1  0  0  0  0
 19 21  2  0  0  0  0
 19 38  1  0  0  0  0
 20 22  2  0  0  0  0
 20 39  1  0  0  0  0
 21 47  1  0  0  0  0
 22 40  1  0  0  0  0
 23 60  1  0  0  0  0
 24 80  1  0  0  0  0
 25 81  1  0  0  0  0
 26 28  2  0  0  0  0
 26 80  1  0  0  0  0
 27 82  1  0  0  0  0
 28 83  1  0  0  0  0
 29 64  2  0  0  0  0
 30 50  1  0  0  0  0
 30 65  1  0  0  0  0
 31 57  1  0  0  0  0
 31 65  2  0  0  0  0
 32 66  1  0  0  0  0
 32 69  1  0  0  0  0
 33 70  1  0  0  0  0
 33 75  2  0  0  0  0
 34 48  1  0  0  0  0
 34 71  1  0  0  0  0
 34 76  2  0  0  0  0
 35 61  1  0  0  0  0
 35 67  1  0  0  0  0
 35 77  2  0  0  0  0
 36 62  1  0  0  0  0
 36 72  1  0  0  0  0
 36 78  2  0  0  0  0
 37 68  1  0  0  0  0
 37 73  1  0  0  0  0
 37 79  2  0  0  0  0
 38 41  1  0  0  0  0
 39 48  1  0  0  0  0
 40 67  1  0  0  0  0
 41 43  1  0  0  0  0
 42 44  1  0  0  0  0
 42 45  1  0  0  0  0
 43 47  1  0  0  0  0
 44 49  1  0  0  0  0
 45 68  1  0  0  0  0
 46 49  1  0  0  0  0
 46 68  1  0  0  0  0
 47 71  1  0  0  0  0
 48 67  1  0  0  0  0
 49 66  1  0  0  0  0
 51 60  1  0  0  0  0
 52 62  1  0  0  0  0
 53 63  1  0  0  0  0
 54 63  1  0  0  0  0
 55 63  1  0  0  0  0
 56 74  1  0  0  0  0
 57 58  1  0  0  0  0
 58 59  1  0  0  0  0
 59 81  1  0  0  0  0
 60 73  1  0  0  0  0
 61 63  1  0  0  0  0
 61 72  1  0  0  0  0
 62 74  1  0  0  0  0
 64 66  1  0  0  0  0
M  CHG  1  74   1
M  ISO  4  37 100  59 101  73 100  81 101
M  END
> <Batch ID>
0083

> <Smiles>
CNC(C)C(=O)NC(C(=O)N1Cc2cc([101O:1][101CH2:1]CCc3cc(C(C)[100NH:0][100C:0](=O)N4CCCC(n5nc(-c6ccc(Oc7ccc(F)cc7F)cc6)c(C(N)=O)c5N)C4)cc(C)n3)ccc2CC1C(=O)NC1CCCc2ccccc21)C(C)(C)C

> <Shape>
0.223

> <Color>
0.063

> <Negative vol penalty>
0.000

$$$$

  -OEChem-04052318513D

 87 95  0     1  0  0  0  0  0999 V2000
  -21.0562  -24.6082   17.1903 C   0  0  0  0  0  0  0  0  0  0  0  0
  -21.1443  -23.2212   17.1292 C   0  0  0  0  0  0  0  0  0  0  0  0
  -28.4000  -26.4109   18.8602 C   0  0  0  0  0  0  0  0  0  0  0  0
  -29.3290  -25.6108   20.9419 C   0  0  0  0  0  0  0  0  0  0  0  0
  -21.9517  -25.3283   17.9799 C   0  0  0  0  0  0  0  0  0  0  0  0
  -22.1288  -22.5535   17.8568 C   0  0  0  0  0  0  0  0  0  0  0  0
  -21.6506  -17.0574   20.5158 C   0  0  0  0  0  0  0  0  0  0  0  0
  -27.8935  -27.5323   19.5171 C   0  0  0  0  0  0  0  0  0  0  0  0
  -28.8225  -26.7322   21.5989 C   0  0  0  0  0  0  0  0  0  0  0  0
  -22.0548  -15.7841   20.1170 C   0  0  0  0  0  0  0  0  0  0  0  0
  -25.2588  -28.2793   21.4983 C   0  0  0  0  0  0  0  0  0  0  0  0
  -23.9460  -28.6568   21.2162 C   0  0  0  0  0  0  0  0  0  0  0  0
  -24.0791  -16.0297   21.4058 C   0  0  0  0  0  0  0  0  0  0  0  0
  -28.3887  -13.1435   21.0438 C   0  0  0  0  0  0  0  0  0  0  0  0
  -24.7316  -30.8032   20.4333 C   0  0  0  0  0  0  0  0  0  0  0  0
  -29.1177  -25.4501   19.5725 C   0  0  0  0  0  0  0  0  0  0  0  0
  -30.9016  -24.1616   18.2822 C   0  0  0  0  0  0  0  0  0  0  0  0
  -22.9415  -24.6684   18.7251 C   0  0  0  0  0  0  0  0  0  0  0  0
  -22.4640  -17.8320   21.3553 C   0  0  0  0  0  0  0  0  0  0  0  0
  -23.0392  -23.2655   18.6560 C   0  0  0  0  0  0  0  0  0  0  0  0
  -23.6817  -17.3115   21.8159 C   0  0  0  0  0  0  0  0  0  0  0  0
  -27.7264  -12.3311   20.1302 C   0  0  0  0  0  0  0  0  0  0  0  0
  -28.1932  -12.2393   18.8237 C   0  0  0  0  0  0  0  0  0  0  0  0
  -28.1048  -27.6929   20.8865 C   0  0  0  0  0  0  0  0  0  0  0  0
  -23.2706  -15.2712   20.5596 C   0  0  0  0  0  0  0  0  0  0  0  0
  -26.3080  -29.1637   21.2480 C   0  0  0  0  0  0  0  0  0  0  0  0
  -23.6824  -29.9188   20.6837 C   0  0  0  0  0  0  0  0  0  0  0  0
  -26.0444  -30.4257   20.7155 C   0  0  0  0  0  0  0  0  0  0  0  0
  -29.6406  -24.2913   18.8945 C   0  0  0  0  0  0  0  0  0  0  0  0
  -29.5043  -13.8380   20.6045 C   0  0  0  0  0  0  0  0  0  0  0  0
  -29.3175  -12.9744   18.4838 C   0  0  0  0  0  0  0  0  0  0  0  0
  -30.9123  -22.8809   17.7861 C   0  0  0  0  0  0  0  0  0  0  0  0
  -31.9679  -25.1137   18.1718 C   0  0  0  0  0  0  0  0  0  0  0  0
  -23.9447  -20.6316   21.0841 C   0  0  0  0  0  0  0  0  0  0  0  0
  -24.6226  -20.1357   24.2173 C   0  0  0  0  0  0  0  0  0  0  0  0
  -25.0263  -17.9163   26.7782 C   0  0  0  0  0  0  0  0  0  0  0  0
  -27.9841  -17.8890   19.3215 C   0  0  0  0  0  0  0  0  0  0  0  0
  -23.9169  -25.4930   19.5272 C   0  0  0  0  0  0  0  0  0  0  0  0
  -22.0013  -19.1930   21.7979 C   0  0  0  0  0  0  0  0  0  0  0  0
  -24.5822  -18.0948   22.7346 C   0  0  0  0  0  0  0  0  0  0  0  0
  -24.6938  -24.6822   20.5613 C   0  0  0  0  0  0  0  0  0  0  0  0
  -27.9796  -19.4798   16.1362 C   0  0  0  0  0  0  0  0  0  0  0  0
  -25.2255  -23.3945   19.9403 C   0  0  0  0  0  0  0  0  0  0  0  0
  -28.5185  -20.8816   16.4267 C   0  0  0  0  0  0  0  0  0  0  0  0
  -27.0995  -18.9666   17.2738 C   0  0  0  0  0  0  0  0  0  0  0  0
  -28.2662  -20.4065   18.8984 C   0  0  0  0  0  0  0  0  0  0  0  0
  -24.0778  -22.5034   19.4502 C   0  0  1  0  0  0  0  0  0  0  0  0
  -23.1464  -20.0989   22.2402 C   0  0  1  0  0  0  0  0  0  0  0  0
  -29.2047  -20.9441   17.8045 C   0  0  2  0  0  0  0  0  0  0  0  0
  -27.5045  -11.3739   17.8227 C   0  0  0  0  0  0  0  0  0  0  0  0
  -29.8670  -12.9155   17.0959 C   0  0  0  0  0  0  0  0  0  0  0  0
  -31.6677  -14.1697   21.7985 C   0  0  0  0  0  0  0  0  0  0  0  0
  -25.6167  -17.8060   29.2147 C   0  0  0  0  0  0  0  0  0  0  0  0
  -31.4300  -17.0158   21.7589 C   0  0  0  0  0  0  0  0  0  0  0  0
  -27.5603  -20.5807   23.5231 C   0  0  0  0  0  0  0  0  0  0  0  0
  -28.1646  -19.5425   25.7197 C   0  0  0  0  0  0  0  0  0  0  0  0
  -26.8214  -21.6438   25.6627 C   0  0  0  0  0  0  0  0  0  0  0  0
  -22.4026  -16.7403   27.4798 C   0  0  0  0  0  0  0  0  0  0  0  0
  -26.5075  -11.5654   20.5792 C   0  0  0  0  0  0  0  0  0  0  0  0
  -25.1873  -12.1735   20.1007 C   0  0  0  0  0  0  0  0  0  0  0  0
  -28.9374  -16.9529   21.4129 C   0  0  0  0  0  0  0  0  0  0  0  0
  -24.9251  -13.5659   20.6626 C   0  0  0  0  0  0  0  0  0  1  0  0
  -30.2410  -14.7184   21.5579 C   0  0  1  0  0  0  0  0  0  0  0  0
  -25.7415  -19.4635   24.9756 C   0  0  1  0  0  0  0  0  0  0  0  0
  -24.4901  -17.9086   28.1983 C   0  0  2  0  0  0  0  0  0  0  0  0
  -30.2709  -16.2311   21.1257 C   0  0  2  0  0  0  0  0  0  0  0  0
  -27.0561  -20.2934   24.9514 C   0  0  0  0  0  0  0  0  0  0  0  0
  -28.9037  -23.1816   18.7975 N   0  0  0  0  0  0  0  0  0  0  0  0
  -29.9875  -13.7741   19.3435 N   0  0  0  0  0  0  0  0  0  0  0  0
  -29.7041  -22.3424   18.1183 N   0  0  0  0  0  0  0  0  0  0  0  0
  -24.0887  -19.4230   23.1343 N   0  0  0  0  0  0  0  0  0  0  0  0
  -27.8096  -19.0513   18.5523 N   0  0  0  0  0  0  0  0  0  0  0  0
  -31.8373  -22.1741   17.1025 N   0  0  0  0  0  0  0  0  0  0  0  0
  -31.7911  -26.3836   18.7379 N   0  0  0  0  0  0  0  0  0  0  0  0
  -23.4600  -21.8167   20.5643 N   0  0  0  0  0  0  0  0  0  0  0  0
  -25.2261  -19.1995   26.3147 N   0  0  0  0  0  0  0  0  0  0  0  0
  -28.6734  -18.0562   20.5163 N   0  0  0  0  0  0  0  0  0  0  0  0
  -23.5701  -16.7534   28.3984 N   0  3  0  0  0  0  0  0  0  0  0  0
  -33.0392  -24.8518   17.5740 O   0  0  0  0  0  0  0  0  0  0  0  0
  -24.9285  -20.0141   20.6936 O   0  0  0  0  0  0  0  0  0  0  0  0
  -24.2317  -21.2490   24.5771 O   0  0  0  0  0  0  0  0  0  0  0  0
  -25.2493  -16.8870   26.1448 O   0  0  0  0  0  0  0  0  0  0  0  0
  -27.5618  -16.7831   18.9669 O   0  0  0  0  0  0  0  0  0  0  0  0
  -27.6109  -28.7871   21.5279 O   0  0  0  0  0  0  0  0  0  0  0  0
  -23.6678  -14.0289   20.1713 O   0  0  0  0  0  0  0  0  0  1  0  0
  -22.4218  -30.2806   20.4114 F   0  0  0  0  0  0  0  0  0  0  0  0
  -27.0483  -31.2792   20.4718 F   0  0  0  0  0  0  0  0  0  0  0  0
  1  2  1  0  0  0  0
  1  5  2  0  0  0  0
  2  6  2  0  0  0  0
  3  8  2  0  0  0  0
  3 16  1  0  0  0  0
  4  9  1  0  0  0  0
  4 16  2  0  0  0  0
  5 18  1  0  0  0  0
  6 20  1  0  0  0  0
  7 10  2  0  0  0  0
  7 19  1  0  0  0  0
  8 24  1  0  0  0  0
  9 24  2  0  0  0  0
 10 25  1  0  0  0  0
 11 12  2  0  0  0  0
 11 26  1  0  0  0  0
 12 27  1  0  0  0  0
 13 21  1  0  0  0  0
 13 25  2  0  0  0  0
 14 22  1  0  0  0  0
 14 30  2  0  0  0  0
 15 27  2  0  0  0  0
 15 28  1  0  0  0  0
 16 29  1  0  0  0  0
 17 29  1  0  0  0  0
 17 32  2  0  0  0  0
 17 33  1  0  0  0  0
 18 20  2  0  0  0  0
 18 38  1  0  0  0  0
 19 21  2  0  0  0  0
 19 39  1  0  0  0  0
 20 47  1  0  0  0  0
 21 40  1  0  0  0  0
 22 23  2  0  0  0  0
 22 59  1  0  0  0  0
 23 31  1  0  0  0  0
 23 50  1  0  0  0  0
 24 84  1  0  0  0  0
 25 85  1  0  0  0  0
 26 28  2  0  0  0  0
 26 84  1  0  0  0  0
 27 86  1  0  0  0  0
 28 87  1  0  0  0  0
 29 68  2  0  0  0  0
 30 63  1  0  0  0  0
 30 69  1  0  0  0  0
 31 51  1  0  0  0  0
 31 69  2  0  0  0  0
 32 70  1  0  0  0  0
 32 73  1  0  0  0  0
 33 74  1  0  0  0  0
 33 79  2  0  0  0  0
 34 48  1  0  0  0  0
 34 75  1  0  0  0  0
 34 80  2  0  0  0  0
 35 64  1  0  0  0  0
 35 71  1  0  0  0  0
 35 81  2  0  0  0  0
 36 65  1  0  0  0  0
 36 76  1  0  0  0  0
 36 82  2  0  0  0  0
 37 72  1  0  0  0  0
 37 77  1  0  0  0  0
 37 83  2  0  0  0  0
 38 41  1  0  0  0  0
 39 48  1  0  0  0  0
 40 71  1  0  0  0  0
 41 43  1  0  0  0  0
 42 44  1  0  0  0  0
 42 45  1  0  0  0  0
 43 47  1  0  0  0  0
 44 49  1  0  0  0  0
 45 72  1  0  0  0  0
 46 49  1  0  0  0  0
 46 72  1  0  0  0  0
 47 75  1  0  0  0  0
 48 71  1  0  0  0  0
 49 70  1  0  0  0  0
 52 63  1  0  0  0  0
 53 65  1  0  0  0  0
 54 66  1  0  0  0  0
 55 67  1  0  0  0  0
 56 67  1  0  0  0  0
 57 67  1  0  0  0  0
 58 78  1  0  0  0  0
 59 60  1  0  0  0  0
 60 62  1  0  0  0  0
 61 66  1  0  0  0  0
 61 77  1  0  0  0  0
 62 85  1  0  0  0  0
 63 66  1  0  0  0  0
 64 67  1  0  0  0  0
 64 76  1  0  0  0  0
 65 78  1  0  0  0  0
 68 70  1  0  0  0  0
M  CHG  1  78   1
M  ISO  4  37 100  62 101  77 100  85 101
M  END
> <Batch ID>
0083

> <Smiles>
CNC(C)C(=O)NC(C(=O)N1Cc2cc([101O:1][101CH2:1]CCc3cc(C(C)C(C)C[100NH:0][100C:0](=O)N4CCCC(n5nc(-c6ccc(Oc7ccc(F)cc7F)cc6)c(C(N)=O)c5N)C4)nc(C)c3C)ccc2CC1C(=O)NC1CCCc2ccccc21)C(C)(C)C

> <Shape>
0.222

> <Color>
0.049

> <Negative vol penalty>
0.000

$$$$

  -OEChem-04052318513D

 85 93  0     1  0  0  0  0  0999 V2000
  -17.2543  -30.5458   24.7671 C   0  0  0  0  0  0  0  0  0  0  0  0
  -17.7517  -29.2466   24.7589 C   0  0  0  0  0  0  0  0  0  0  0  0
  -26.2530  -12.7672   19.7016 C   0  0  0  0  0  0  0  0  0  0  0  0
  -26.1878  -13.9103   21.8291 C   0  0  0  0  0  0  0  0  0  0  0  0
  -17.6170  -31.4364   23.7575 C   0  0  0  0  0  0  0  0  0  0  0  0
  -18.6113  -28.8369   23.7403 C   0  0  0  0  0  0  0  0  0  0  0  0
  -23.2897  -24.9149   24.2266 C   0  0  0  0  0  0  0  0  0  0  0  0
  -25.7905  -11.6021   20.3134 C   0  0  0  0  0  0  0  0  0  0  0  0
  -25.7253  -12.7452   22.4409 C   0  0  0  0  0  0  0  0  0  0  0  0
  -23.4098  -23.5571   23.9336 C   0  0  0  0  0  0  0  0  0  0  0  0
  -22.8381  -10.3615   21.3983 C   0  0  0  0  0  0  0  0  0  0  0  0
  -21.8217   -9.6527   20.7580 C   0  0  0  0  0  0  0  0  0  0  0  0
  -24.3353  -24.1107   21.7758 C   0  0  0  0  0  0  0  0  0  0  0  0
  -23.2636   -7.7199   20.6088 C   0  0  0  0  0  0  0  0  0  0  0  0
  -29.8983  -20.6894   23.1474 C   0  0  0  0  0  0  0  0  0  0  0  0
  -26.4517  -13.9213   20.4595 C   0  0  0  0  0  0  0  0  0  0  0  0
  -26.1540  -16.1497   19.2540 C   0  0  0  0  0  0  0  0  0  0  0  0
  -18.4892  -31.0402   22.7314 C   0  0  0  0  0  0  0  0  0  0  0  0
  -23.6821  -25.8824   23.2904 C   0  0  0  0  0  0  0  0  0  0  0  0
  -18.9850  -29.7226   22.7153 C   0  0  0  0  0  0  0  0  0  0  0  0
  -24.2216  -25.4801   22.0603 C   0  0  0  0  0  0  0  0  0  0  0  0
  -25.5266  -11.5911   21.6831 C   0  0  0  0  0  0  0  0  0  0  0  0
  -23.9299  -23.1548   22.7070 C   0  0  0  0  0  0  0  0  0  0  0  0
  -24.0673   -9.7496   21.6438 C   0  0  0  0  0  0  0  0  0  0  0  0
  -22.0344   -8.3319   20.3633 C   0  0  0  0  0  0  0  0  0  0  0  0
  -24.2800   -8.4288   21.2491 C   0  0  0  0  0  0  0  0  0  0  0  0
  -26.9299  -15.1249   19.8282 C   0  0  0  0  0  0  0  0  0  0  0  0
  -30.8564  -21.2862   22.3774 C   0  0  0  0  0  0  0  0  0  0  0  0
  -27.0738  -17.0601   18.7940 C   0  0  0  0  0  0  0  0  0  0  0  0
  -28.9201  -22.2660   21.9401 C   0  0  0  0  0  0  0  0  0  0  0  0
  -24.7292  -16.2681   19.1463 C   0  0  0  0  0  0  0  0  0  0  0  0
  -22.1948  -28.1988   21.7011 C   0  0  0  0  0  0  0  0  0  0  0  0
  -25.2016  -28.9283   20.7269 C   0  0  0  0  0  0  0  0  0  0  0  0
  -28.4026  -27.8810   20.1754 C   0  0  0  0  0  0  0  0  0  0  0  0
  -32.7049  -18.3271   20.3868 C   0  0  0  0  0  0  0  0  0  0  0  0
  -18.8152  -32.0240   21.6356 C   0  0  0  0  0  0  0  0  0  0  0  0
  -23.5710  -27.3430   23.6323 C   0  0  0  0  0  0  0  0  0  0  0  0
  -24.6762  -26.4792   21.0290 C   0  0  0  0  0  0  0  0  0  0  0  0
  -20.0276  -31.6239   20.7988 C   0  0  0  0  0  0  0  0  0  0  0  0
  -31.5612  -17.3497   17.1599 C   0  0  0  0  0  0  0  0  0  0  0  0
  -19.9414  -30.1532   20.4032 C   0  0  0  0  0  0  0  0  0  0  0  0
  -30.1745  -16.7611   17.4260 C   0  0  0  0  0  0  0  0  0  0  0  0
  -32.5385  -17.0235   18.2870 C   0  0  0  0  0  0  0  0  0  0  0  0
  -30.6893  -16.8109   19.9021 C   0  0  0  0  0  0  0  0  0  0  0  0
  -19.9395  -29.2481   21.6410 C   0  0  1  0  0  0  0  0  0  0  0  0
  -23.5235  -28.2428   22.4013 C   0  0  1  0  0  0  0  0  0  0  0  0
  -29.6538  -17.1608   18.8197 C   0  0  2  0  0  0  0  0  0  0  0  0
  -27.9063  -23.1753   21.3500 C   0  0  0  0  0  0  0  0  0  0  0  0
  -30.6250  -28.6941   19.3406 C   0  0  0  0  0  0  0  0  0  0  0  0
  -24.1703  -28.7947   17.8584 C   0  0  0  0  0  0  0  0  0  0  0  0
  -26.5474  -28.6639   17.0836 C   0  0  0  0  0  0  0  0  0  0  0  0
  -25.7475  -30.6816   18.3131 C   0  0  0  0  0  0  0  0  0  0  0  0
  -24.3769  -18.9695   21.9593 C   0  0  0  0  0  0  0  0  0  0  0  0
  -25.2753  -18.7809   24.2821 C   0  0  0  0  0  0  0  0  0  0  0  0
  -29.7123  -27.3214   22.7697 C   0  0  0  0  0  0  0  0  0  0  0  0
  -32.2963  -21.0415   22.2615 C   0  0  0  0  0  0  0  0  0  0  0  0
  -26.5066  -20.1525   22.5237 C   0  0  0  0  0  0  0  0  0  0  0  0
  -27.3769  -20.9794   23.4794 C   0  0  0  0  0  0  0  0  0  0  0  0
  -32.7212  -19.5812   22.5284 C   0  0  0  0  0  0  0  0  0  0  0  0
  -24.2684  -20.9436   23.5144 C   0  0  0  0  0  0  0  0  0  1  0  0
  -26.0812  -28.5145   19.5719 C   0  0  1  0  0  0  0  0  0  0  0  0
  -29.7407  -28.4859   20.5602 C   0  0  2  0  0  0  0  0  0  0  0  0
  -25.6263  -29.1446   18.2252 C   0  0  0  0  0  0  0  0  0  0  0  0
  -25.1179  -19.7297   23.0806 C   0  0  0  0  0  0  0  0  0  0  0  0
  -28.2416  -15.3614   19.7419 N   0  0  0  0  0  0  0  0  0  0  0  0
  -28.7103  -21.3157   22.8568 N   0  0  0  0  0  0  0  0  0  0  0  0
  -28.2971  -16.5452   19.1081 N   0  0  0  0  0  0  0  0  0  0  0  0
  -30.2230  -22.2576   21.6404 N   0  3  0  0  0  0  0  0  0  0  0  0
  -24.5415  -27.8955   21.4076 N   0  0  0  0  0  0  0  0  0  0  0  0
  -31.9854  -17.4289   19.5814 N   0  0  0  0  0  0  0  0  0  0  0  0
  -26.9475  -18.2428   18.1555 N   0  0  0  0  0  0  0  0  0  0  0  0
  -23.9318  -15.2425   19.6721 N   0  0  0  0  0  0  0  0  0  0  0  0
  -21.2786  -29.1186   22.1744 N   0  0  0  0  0  0  0  0  0  0  0  0
  -27.4472  -28.8512   19.9579 N   0  0  0  0  0  0  0  0  0  0  0  0
  -32.1065  -18.6639   21.5948 N   0  0  0  0  0  0  0  0  0  0  0  0
  -30.4578  -27.5928   21.5137 N   0  3  0  0  0  0  0  0  0  0  0  0
  -24.1799  -17.2464   18.5853 O   0  0  0  0  0  0  0  0  0  0  0  0
  -22.0146  -27.3912   20.7972 O   0  0  0  0  0  0  0  0  0  0  0  0
  -25.1096  -30.1232   21.0191 O   0  0  0  0  0  0  0  0  0  0  0  0
  -28.2238  -26.6693   20.0741 O   0  0  0  0  0  0  0  0  0  0  0  0
  -33.7969  -18.7983   20.0517 O   0  0  0  0  0  0  0  0  0  0  0  0
  -25.0751  -10.4544   22.2803 O   0  0  0  0  0  0  0  0  0  0  0  0
  -24.0476  -21.8302   22.4182 O   0  0  0  0  0  0  0  0  0  1  0  0
  -21.0577   -7.6508   19.7498 F   0  0  0  0  0  0  0  0  0  0  0  0
  -25.4584   -7.8352   21.4833 F   0  0  0  0  0  0  0  0  0  0  0  0
  1  2  1  0  0  0  0
  1  5  2  0  0  0  0
  2  6  2  0  0  0  0
  3  8  2  0  0  0  0
  3 16  1  0  0  0  0
  4  9  1  0  0  0  0
  4 16  2  0  0  0  0
  5 18  1  0  0  0  0
  6 20  1  0  0  0  0
  7 10  2  0  0  0  0
  7 19  1  0  0  0  0
  8 22  1  0  0  0  0
  9 22  2  0  0  0  0
 10 23  1  0  0  0  0
 11 12  2  0  0  0  0
 11 24  1  0  0  0  0
 12 25  1  0  0  0  0
 13 21  1  0  0  0  0
 13 23  2  0  0  0  0
 14 25  2  0  0  0  0
 14 26  1  0  0  0  0
 15 28  2  0  0  0  0
 15 66  1  0  0  0  0
 16 27  1  0  0  0  0
 17 27  1  0  0  0  0
 17 29  2  0  0  0  0
 17 31  1  0  0  0  0
 18 20  2  0  0  0  0
 18 36  1  0  0  0  0
 19 21  2  0  0  0  0
 19 37  1  0  0  0  0
 20 45  1  0  0  0  0
 21 38  1  0  0  0  0
 22 82  1  0  0  0  0
 23 83  1  0  0  0  0
 24 26  2  0  0  0  0
 24 82  1  0  0  0  0
 25 84  1  0  0  0  0
 26 85  1  0  0  0  0
 27 65  2  0  0  0  0
 28 56  1  0  0  0  0
 28 68  1  0  0  0  0
 29 67  1  0  0  0  0
 29 71  1  0  0  0  0
 30 48  1  0  0  0  0
 30 66  1  0  0  0  0
 30 68  2  0  0  0  0
 31 72  1  0  0  0  0
 31 77  2  0  0  0  0
 32 46  1  0  0  0  0
 32 73  1  0  0  0  0
 32 78  2  0  0  0  0
 33 61  1  0  0  0  0
 33 69  1  0  0  0  0
 33 79  2  0  0  0  0
 34 62  1  0  0  0  0
 34 74  1  0  0  0  0
 34 80  2  0  0  0  0
 35 70  1  0  0  0  0
 35 75  1  0  0  0  0
 35 81  2  0  0  0  0
 36 39  1  0  0  0  0
 37 46  1  0  0  0  0
 38 69  1  0  0  0  0
 39 41  1  0  0  0  0
 40 42  1  0  0  0  0
 40 43  1  0  0  0  0
 41 45  1  0  0  0  0
 42 47  1  0  0  0  0
 43 70  1  0  0  0  0
 44 47  1  0  0  0  0
 44 70  1  0  0  0  0
 45 73  1  0  0  0  0
 46 69  1  0  0  0  0
 47 67  1  0  0  0  0
 49 62  1  0  0  0  0
 50 63  1  0  0  0  0
 51 63  1  0  0  0  0
 52 63  1  0  0  0  0
 53 64  1  0  0  0  0
 54 64  1  0  0  0  0
 55 76  1  0  0  0  0
 56 59  1  0  0  0  0
 57 58  1  0  0  0  0
 57 64  1  0  0  0  0
 58 66  1  0  0  0  0
 59 75  1  0  0  0  0
 60 64  1  0  0  0  0
 60 83  1  0  0  0  0
 61 63  1  0  0  0  0
 61 74  1  0  0  0  0
 62 76  1  0  0  0  0
 65 67  1  0  0  0  0
M  CHG  2  68   1  76   1
M  ISO  4  35 100  60 101  75 100  83 101
M  END
> <Batch ID>
0083

> <Smiles>
CNC(C)C(=O)NC(C(=O)N1Cc2cc([101O:1][101CH2:1]C(C)(C)CCn3cc(CC[100NH:0][100C:0](=O)N4CCCC(n5nc(-c6ccc(Oc7ccc(F)cc7F)cc6)c(C(N)=O)c5N)C4)nc3C)ccc2CC1C(=O)NC1CCCc2ccccc21)C(C)(C)C

> <Shape>
0.198

> <Color>
0.072

> <Negative vol penalty>
0.000

$$$$

  -OEChem-04052318513D

 82 89  0     1  0  0  0  0  0999 V2000
  -24.7624  -11.1448   20.4547 C   0  0  0  0  0  0  0  0  0  0  0  0
  -25.1682  -11.9789   19.4178 C   0  0  0  0  0  0  0  0  0  0  0  0
  -23.8484  -29.1332   21.0795 C   0  0  0  0  0  0  0  0  0  0  0  0
  -25.7883  -30.5652   20.9261 C   0  0  0  0  0  0  0  0  0  0  0  0
  -24.5678  -11.6673   21.7326 C   0  0  0  0  0  0  0  0  0  0  0  0
  -25.3786  -13.3362   19.6580 C   0  0  0  0  0  0  0  0  0  0  0  0
  -29.5929  -16.9281   17.0419 C   0  0  0  0  0  0  0  0  0  0  0  0
  -23.3386  -29.9333   22.1020 C   0  0  0  0  0  0  0  0  0  0  0  0
  -25.2785  -31.3653   21.9486 C   0  0  0  0  0  0  0  0  0  0  0  0
  -29.5281  -17.8315   15.9820 C   0  0  0  0  0  0  0  0  0  0  0  0
  -24.3166  -33.9913   24.2718 C   0  0  0  0  0  0  0  0  0  0  0  0
  -24.3702  -35.3747   24.1017 C   0  0  0  0  0  0  0  0  0  0  0  0
  -29.2234  -19.6395   17.5496 C   0  0  0  0  0  0  0  0  0  0  0  0
  -23.0091  -35.1830   22.1148 C   0  0  0  0  0  0  0  0  0  0  0  0
  -25.0733  -29.4491   20.4916 C   0  0  0  0  0  0  0  0  0  0  0  0
  -25.3835  -28.7690   18.0526 C   0  0  0  0  0  0  0  0  0  0  0  0
  -24.7852  -13.0299   21.9908 C   0  0  0  0  0  0  0  0  0  0  0  0
  -29.4624  -17.3730   18.3653 C   0  0  0  0  0  0  0  0  0  0  0  0
  -25.1854  -13.8777   20.9403 C   0  0  0  0  0  0  0  0  0  0  0  0
  -29.2895  -18.7401   18.6246 C   0  0  0  0  0  0  0  0  0  0  0  0
  -24.0536  -31.0494   22.5366 C   0  0  0  0  0  0  0  0  0  0  0  0
  -29.3404  -19.1870   16.2356 C   0  0  0  0  0  0  0  0  0  0  0  0
  -23.6093  -33.2037   23.3634 C   0  0  0  0  0  0  0  0  0  0  0  0
  -23.7164  -35.9706   23.0232 C   0  0  0  0  0  0  0  0  0  0  0  0
  -22.9555  -33.7996   22.2849 C   0  0  0  0  0  0  0  0  0  0  0  0
  -25.6007  -28.6226   19.4357 C   0  0  0  0  0  0  0  0  0  0  0  0
  -26.0968  -27.7431   17.4825 C   0  0  0  0  0  0  0  0  0  0  0  0
  -24.6065  -29.7452   17.3462 C   0  0  0  0  0  0  0  0  0  0  0  0
  -27.4009  -16.8268   20.7224 C   0  0  0  0  0  0  0  0  0  0  0  0
  -29.4923  -18.6134   22.4419 C   0  0  0  0  0  0  0  0  0  0  0  0
  -31.9437  -20.9877   22.4589 C   0  0  0  0  0  0  0  0  0  0  0  0
  -30.8548  -24.7669   19.3155 C   0  0  0  0  0  0  0  0  0  0  0  0
  -24.5162  -13.5579   23.3777 C   0  0  0  0  0  0  0  0  0  0  0  0
  -29.5613  -16.3892   19.4988 C   0  0  0  0  0  0  0  0  0  0  0  0
  -29.1641  -19.2713   20.0284 C   0  0  0  0  0  0  0  0  0  0  0  0
  -25.1227  -14.9353   23.6333 C   0  0  0  0  0  0  0  0  0  0  0  0
  -27.6695  -23.3158   18.3957 C   0  0  0  0  0  0  0  0  0  0  0  0
  -24.8265  -15.8737   22.4678 C   0  0  0  0  0  0  0  0  0  0  0  0
  -26.7557  -24.5422   18.4290 C   0  0  0  0  0  0  0  0  0  0  0  0
  -28.7089  -23.3706   19.5114 C   0  0  0  0  0  0  0  0  0  0  0  0
  -28.6300  -25.8335   19.5511 C   0  0  0  0  0  0  0  0  0  0  0  0
  -25.4478  -15.3508   21.1669 C   0  0  1  0  0  0  0  0  0  0  0  0
  -28.9011  -16.8867   20.7811 C   0  0  1  0  0  0  0  0  0  0  0  0
  -27.5712  -25.8488   18.4337 C   0  0  2  0  0  0  0  0  0  0  0  0
  -33.4341  -22.2691   24.0190 C   0  0  0  0  0  0  0  0  0  0  0  0
  -34.8229  -21.7921   15.3022 C   0  0  0  0  0  0  0  0  0  0  0  0
  -27.1344  -20.3769   23.2421 C   0  0  0  0  0  0  0  0  0  0  0  0
  -28.7761  -22.1191   23.9755 C   0  0  0  0  0  0  0  0  0  0  0  0
  -28.7461  -19.8880   25.0908 C   0  0  0  0  0  0  0  0  0  0  0  0
  -31.2035  -20.6219   11.9982 C   0  0  0  0  0  0  0  0  0  0  0  0
  -29.1515  -21.7837   12.8240 C   0  0  0  0  0  0  0  0  0  0  0  0
  -34.3909  -19.8799   21.2168 C   0  0  0  0  0  0  0  0  0  0  0  0
  -33.4495  -23.5643   17.6247 C   0  0  0  0  0  0  0  0  0  0  0  0
  -32.9010  -22.3639   16.8417 C   0  0  0  0  0  0  0  0  0  0  0  0
  -33.0100  -23.5588   19.0863 C   0  0  0  0  0  0  0  0  0  0  0  0
  -31.2535  -21.9966   14.1376 C   0  0  0  0  0  0  0  0  0  0  0  0
  -30.0160  -19.7494   14.0258 C   0  0  0  0  0  0  0  0  0  1  0  0
  -29.6497  -20.0854   22.7378 C   0  0  1  0  0  0  0  0  0  0  0  0
  -33.2975  -21.0328   23.1440 C   0  0  2  0  0  0  0  0  0  0  0  0
  -33.3920  -22.3069   15.3903 C   0  0  2  0  0  0  0  0  0  0  0  0
  -28.5769  -20.6074   23.7349 C   0  0  0  0  0  0  0  0  0  0  0  0
  -30.4244  -21.0289   13.2626 C   0  0  0  0  0  0  0  0  0  0  0  0
  -26.3901  -27.5852   19.7267 N   0  0  0  0  0  0  0  0  0  0  0  0
  -26.6751  -27.0704   18.5185 N   0  0  0  0  0  0  0  0  0  0  0  0
  -29.2611  -18.2692   21.1025 N   0  0  0  0  0  0  0  0  0  0  0  0
  -29.4629  -24.6306   19.4483 N   0  0  0  0  0  0  0  0  0  0  0  0
  -26.2794  -27.3596   16.2011 N   0  0  0  0  0  0  0  0  0  0  0  0
  -23.9375  -30.7296   18.0864 N   0  0  0  0  0  0  0  0  0  0  0  0
  -26.8692  -15.6220   21.1410 N   0  0  0  0  0  0  0  0  0  0  0  0
  -31.0247  -20.2659   23.1908 N   0  0  0  0  0  0  0  0  0  0  0  0
  -31.5714  -23.5794   19.2315 N   0  0  0  0  0  0  0  0  0  0  0  0
  -34.3904  -21.0509   22.1310 N   0  3  0  0  0  0  0  0  0  0  0  0
  -32.5273  -21.3912   14.5968 N   0  3  0  0  0  0  0  0  0  0  0  0
  -24.4950  -29.7348   16.0968 O   0  0  0  0  0  0  0  0  0  0  0  0
  -26.7723  -17.8020   20.3281 O   0  0  0  0  0  0  0  0  0  0  0  0
  -29.5786  -17.7986   23.3639 O   0  0  0  0  0  0  0  0  0  0  0  0
  -31.7224  -21.5409   21.3839 O   0  0  0  0  0  0  0  0  0  0  0  0
  -31.4172  -25.8663   19.2696 O   0  0  0  0  0  0  0  0  0  0  0  0
  -23.5564  -31.8305   23.5341 O   0  0  0  0  0  0  0  0  0  0  0  0
  -29.2761  -20.0709   15.2028 O   0  0  0  0  0  0  0  0  0  1  0  0
  -23.7667  -37.2992   22.8608 F   0  0  0  0  0  0  0  0  0  0  0  0
  -22.2734  -33.0484   21.4096 F   0  0  0  0  0  0  0  0  0  0  0  0
  1  2  1  0  0  0  0
  1  5  2  0  0  0  0
  2  6  2  0  0  0  0
  3  8  2  0  0  0  0
  3 15  1  0  0  0  0
  4  9  1  0  0  0  0
  4 15  2  0  0  0  0
  5 17  1  0  0  0  0
  6 19  1  0  0  0  0
  7 10  2  0  0  0  0
  7 18  1  0  0  0  0
  8 21  1  0  0  0  0
  9 21  2  0  0  0  0
 10 22  1  0  0  0  0
 11 12  2  0  0  0  0
 11 23  1  0  0  0  0
 12 24  1  0  0  0  0
 13 20  1  0  0  0  0
 13 22  2  0  0  0  0
 14 24  2  0  0  0  0
 14 25  1  0  0  0  0
 15 26  1  0  0  0  0
 16 26  1  0  0  0  0
 16 27  2  0  0  0  0
 16 28  1  0  0  0  0
 17 19  2  0  0  0  0
 17 33  1  0  0  0  0
 18 20  2  0  0  0  0
 18 34  1  0  0  0  0
 19 42  1  0  0  0  0
 20 35  1  0  0  0  0
 21 79  1  0  0  0  0
 22 80  1  0  0  0  0
 23 25  2  0  0  0  0
 23 79  1  0  0  0  0
 24 81  1  0  0  0  0
 25 82  1  0  0  0  0
 26 63  2  0  0  0  0
 27 64  1  0  0  0  0
 27 67  1  0  0  0  0
 28 68  1  0  0  0  0
 28 74  2  0  0  0  0
 29 43  1  0  0  0  0
 29 69  1  0  0  0  0
 29 75  2  0  0  0  0
 30 58  1  0  0  0  0
 30 65  1  0  0  0  0
 30 76  2  0  0  0  0
 31 59  1  0  0  0  0
 31 70  1  0  0  0  0
 31 77  2  0  0  0  0
 32 66  1  0  0  0  0
 32 71  1  0  0  0  0
 32 78  2  0  0  0  0
 33 36  1  0  0  0  0
 34 43  1  0  0  0  0
 35 65  1  0  0  0  0
 36 38  1  0  0  0  0
 37 39  1  0  0  0  0
 37 40  1  0  0  0  0
 38 42  1  0  0  0  0
 39 44  1  0  0  0  0
 40 66  1  0  0  0  0
 41 44  1  0  0  0  0
 41 66  1  0  0  0  0
 42 69  1  0  0  0  0
 43 65  1  0  0  0  0
 44 64  1  0  0  0  0
 45 59  1  0  0  0  0
 46 60  1  0  0  0  0
 47 61  1  0  0  0  0
 48 61  1  0  0  0  0
 49 61  1  0  0  0  0
 50 62  1  0  0  0  0
 51 62  1  0  0  0  0
 52 72  1  0  0  0  0
 53 54  1  0  0  0  0
 53 55  1  0  0  0  0
 54 60  1  0  0  0  0
 55 71  1  0  0  0  0
 56 62  1  0  0  0  0
 56 73  1  0  0  0  0
 57 62  1  0  0  0  0
 57 80  1  0  0  0  0
 58 61  1  0  0  0  0
 58 70  1  0  0  0  0
 59 72  1  0  0  0  0
 60 73  1  0  0  0  0
 63 64  1  0  0  0  0
M  CHG  2  72   1  73   1
M  ISO  4  32 100  57 101  71 100  80 101
M  END
> <Batch ID>
0083

> <Smiles>
CNC(C)C(=O)NC(C(=O)N1Cc2cc([101O:1][101CH2:1]C(C)(C)CNC(C)CCC[100NH:0][100C:0](=O)N3CCCC(n4nc(-c5ccc(Oc6ccc(F)cc6F)cc5)c(C(N)=O)c4N)C3)ccc2CC1C(=O)NC1CCCc2ccccc21)C(C)(C)C

> <Shape>
0.195

> <Color>
0.060

> <Negative vol penalty>
0.000

$$$$

  -OEChem-04052318513D

 84 92  0     1  0  0  0  0  0999 V2000
  -18.8143  -22.4036   21.6549 C   0  0  0  0  0  0  0  0  0  0  0  0
  -20.1056  -22.2030   22.1320 C   0  0  0  0  0  0  0  0  0  0  0  0
  -26.1762  -13.2575   20.7675 C   0  0  0  0  0  0  0  0  0  0  0  0
  -24.4053  -14.7512   20.0821 C   0  0  0  0  0  0  0  0  0  0  0  0
  -18.5662  -23.4069   20.7190 C   0  0  0  0  0  0  0  0  0  0  0  0
  -21.1498  -23.0049   21.6726 C   0  0  0  0  0  0  0  0  0  0  0  0
  -27.3177  -25.9272   23.8482 C   0  0  0  0  0  0  0  0  0  0  0  0
  -25.2328  -12.3954   21.3264 C   0  0  0  0  0  0  0  0  0  0  0  0
  -23.4619  -13.8891   20.6410 C   0  0  0  0  0  0  0  0  0  0  0  0
  -28.6576  -26.0182   23.4738 C   0  0  0  0  0  0  0  0  0  0  0  0
  -23.0573  -10.0441   20.2439 C   0  0  0  0  0  0  0  0  0  0  0  0
  -23.1946   -8.6797   19.9888 C   0  0  0  0  0  0  0  0  0  0  0  0
  -28.0969  -27.7725   21.9159 C   0  0  0  0  0  0  0  0  0  0  0  0
  -31.4934  -23.7687   18.6593 C   0  0  0  0  0  0  0  0  0  0  0  0
  -29.5038  -24.8232   19.5042 C   0  0  0  0  0  0  0  0  0  0  0  0
  -23.4010   -8.2574   22.3586 C   0  0  0  0  0  0  0  0  0  0  0  0
  -25.7625  -14.4354   20.1454 C   0  0  0  0  0  0  0  0  0  0  0  0
  -27.2305  -15.3078   18.2503 C   0  0  0  0  0  0  0  0  0  0  0  0
  -19.6062  -24.2278   20.2552 C   0  0  0  0  0  0  0  0  0  0  0  0
  -26.3541  -26.7521   23.2504 C   0  0  0  0  0  0  0  0  0  0  0  0
  -20.9156  -24.0192   20.7287 C   0  0  0  0  0  0  0  0  0  0  0  0
  -26.7459  -27.6918   22.2863 C   0  0  0  0  0  0  0  0  0  0  0  0
  -30.8773  -24.8442   19.2895 C   0  0  0  0  0  0  0  0  0  0  0  0
  -23.8757  -12.7111   21.2631 C   0  0  0  0  0  0  0  0  0  0  0  0
  -29.0470  -26.9389   22.5054 C   0  0  0  0  0  0  0  0  0  0  0  0
  -23.0920  -10.5152   21.5564 C   0  0  0  0  0  0  0  0  0  0  0  0
  -23.3664   -7.7863   21.0461 C   0  0  0  0  0  0  0  0  0  0  0  0
  -23.2638   -9.6218   22.6138 C   0  0  0  0  0  0  0  0  0  0  0  0
  -26.7366  -15.3267   19.5684 C   0  0  0  0  0  0  0  0  0  0  0  0
  -30.6976  -22.7048   18.2661 C   0  0  0  0  0  0  0  0  0  0  0  0
  -28.7970  -23.7121   19.0731 C   0  0  0  0  0  0  0  0  0  0  0  0
  -28.1253  -16.3488   18.2040 C   0  0  0  0  0  0  0  0  0  0  0  0
  -26.9092  -14.4280   17.1647 C   0  0  0  0  0  0  0  0  0  0  0  0
  -23.7606  -26.2536   21.4815 C   0  0  0  0  0  0  0  0  0  0  0  0
  -23.3835  -29.4566   21.8294 C   0  0  0  0  0  0  0  0  0  0  0  0
  -24.8166  -32.4931   22.4397 C   0  0  0  0  0  0  0  0  0  0  0  0
  -28.6546  -21.4137   21.3532 C   0  0  0  0  0  0  0  0  0  0  0  0
  -19.2976  -25.2684   19.2080 C   0  0  0  0  0  0  0  0  0  0  0  0
  -24.9169  -26.6601   23.6846 C   0  0  0  0  0  0  0  0  0  0  0  0
  -25.7533  -28.6144   21.6289 C   0  0  0  0  0  0  0  0  0  0  0  0
  -20.3933  -26.3200   19.0529 C   0  0  0  0  0  0  0  0  0  0  0  0
  -31.1024  -18.8540   20.9881 C   0  0  0  0  0  0  0  0  0  0  0  0
  -21.7647  -25.6558   18.9833 C   0  0  0  0  0  0  0  0  0  0  0  0
  -30.3056  -17.6581   20.4640 C   0  0  0  0  0  0  0  0  0  0  0  0
  -30.2958  -19.6724   21.9940 C   0  0  0  0  0  0  0  0  0  0  0  0
  -28.1755  -18.9166   20.9906 C   0  0  0  0  0  0  0  0  0  0  0  0
  -22.0703  -24.8848   20.2731 C   0  0  1  0  0  0  0  0  0  0  0  0
  -23.9417  -27.1935   22.6397 C   0  0  1  0  0  0  0  0  0  0  0  0
  -28.9271  -18.0928   19.9310 C   0  0  2  0  0  0  0  0  0  0  0  0
  -31.3246  -21.5325   17.5884 C   0  0  0  0  0  0  0  0  0  0  0  0
  -26.6041  -22.8985   18.1494 C   0  0  0  0  0  0  0  0  0  0  0  0
  -24.2597  -34.9332   22.6224 C   0  0  0  0  0  0  0  0  0  0  0  0
  -23.1919  -29.6379   18.7896 C   0  0  0  0  0  0  0  0  0  0  0  0
  -23.5931  -32.1017   18.9809 C   0  0  0  0  0  0  0  0  0  0  0  0
  -21.5689  -31.0847   20.0254 C   0  0  0  0  0  0  0  0  0  0  0  0
  -25.7136  -32.6058   25.2578 C   0  0  0  0  0  0  0  0  0  0  0  0
  -31.6958  -26.0280   19.7391 C   0  0  0  0  0  0  0  0  0  0  0  0
  -32.2338  -25.8987   21.1658 C   0  0  0  0  0  0  0  0  0  0  0  0
  -26.9180  -23.0398   20.6466 C   0  0  0  0  0  0  0  0  0  0  0  0
  -31.1363  -25.8388   22.2219 C   0  0  0  0  0  0  0  0  0  1  0  0
  -27.3210  -23.6568   19.2856 C   0  0  1  0  0  0  0  0  0  0  0  0
  -23.8375  -30.6759   21.0637 C   0  0  1  0  0  0  0  0  0  0  0  0
  -24.4243  -33.6222   23.3755 C   0  0  2  0  0  0  0  0  0  0  0  0
  -23.0665  -30.8565   19.7257 C   0  0  0  0  0  0  0  0  0  0  0  0
  -27.2732  -16.3022   20.3062 N   0  0  0  0  0  0  0  0  0  0  0  0
  -29.3605  -22.6486   18.4575 N   0  0  0  0  0  0  0  0  0  0  0  0
  -28.1137  -16.9060   19.4488 N   0  0  0  0  0  0  0  0  0  0  0  0
  -24.3591  -28.4819   22.0827 N   0  0  0  0  0  0  0  0  0  0  0  0
  -29.0005  -20.0543   21.4262 N   0  0  0  0  0  0  0  0  0  0  0  0
  -28.9132  -16.8326   17.2203 N   0  0  0  0  0  0  0  0  0  0  0  0
  -25.9686  -13.4123   17.3839 N   0  0  0  0  0  0  0  0  0  0  0  0
  -22.4660  -25.7964   21.3252 N   0  0  0  0  0  0  0  0  0  0  0  0
  -23.7142  -31.8034   21.9813 N   0  0  0  0  0  0  0  0  0  0  0  0
  -27.4120  -21.6891   20.7957 N   0  0  0  0  0  0  0  0  0  0  0  0
  -25.4655  -33.8107   24.4250 N   0  3  0  0  0  0  0  0  0  0  0  0
  -27.4524  -14.5290   16.0386 O   0  0  0  0  0  0  0  0  0  0  0  0
  -24.7237  -25.9656   20.7807 O   0  0  0  0  0  0  0  0  0  0  0  0
  -22.2084  -29.3753   22.1956 O   0  0  0  0  0  0  0  0  0  0  0  0
  -25.9840  -32.2498   22.1421 O   0  0  0  0  0  0  0  0  0  0  0  0
  -29.4003  -22.3155   21.7501 O   0  0  0  0  0  0  0  0  0  0  0  0
  -22.9548  -11.8700   21.8081 O   0  0  0  0  0  0  0  0  0  0  0  0
  -30.3541  -27.0293   22.1376 O   0  0  0  0  0  0  0  0  0  1  0  0
  -23.4966   -6.4759   20.8011 F   0  0  0  0  0  0  0  0  0  0  0  0
  -23.2967  -10.0683   23.8768 F   0  0  0  0  0  0  0  0  0  0  0  0
  1  2  1  0  0  0  0
  1  5  2  0  0  0  0
  2  6  2  0  0  0  0
  3  8  2  0  0  0  0
  3 17  1  0  0  0  0
  4  9  1  0  0  0  0
  4 17  2  0  0  0  0
  5 19  1  0  0  0  0
  6 21  1  0  0  0  0
  7 10  2  0  0  0  0
  7 20  1  0  0  0  0
  8 24  1  0  0  0  0
  9 24  2  0  0  0  0
 10 25  1  0  0  0  0
 11 12  2  0  0  0  0
 11 26  1  0  0  0  0
 12 27  1  0  0  0  0
 13 22  1  0  0  0  0
 13 25  2  0  0  0  0
 14 23  1  0  0  0  0
 14 30  2  0  0  0  0
 15 23  2  0  0  0  0
 15 31  1  0  0  0  0
 16 27  2  0  0  0  0
 16 28  1  0  0  0  0
 17 29  1  0  0  0  0
 18 29  1  0  0  0  0
 18 32  2  0  0  0  0
 18 33  1  0  0  0  0
 19 21  2  0  0  0  0
 19 38  1  0  0  0  0
 20 22  2  0  0  0  0
 20 39  1  0  0  0  0
 21 47  1  0  0  0  0
 22 40  1  0  0  0  0
 23 57  1  0  0  0  0
 24 81  1  0  0  0  0
 25 82  1  0  0  0  0
 26 28  2  0  0  0  0
 26 81  1  0  0  0  0
 27 83  1  0  0  0  0
 28 84  1  0  0  0  0
 29 65  2  0  0  0  0
 30 50  1  0  0  0  0
 30 66  1  0  0  0  0
 31 61  1  0  0  0  0
 31 66  2  0  0  0  0
 32 67  1  0  0  0  0
 32 70  1  0  0  0  0
 33 71  1  0  0  0  0
 33 76  2  0  0  0  0
 34 48  1  0  0  0  0
 34 72  1  0  0  0  0
 34 77  2  0  0  0  0
 35 62  1  0  0  0  0
 35 68  1  0  0  0  0
 35 78  2  0  0  0  0
 36 63  1  0  0  0  0
 36 73  1  0  0  0  0
 36 79  2  0  0  0  0
 37 69  1  0  0  0  0
 37 74  1  0  0  0  0
 37 80  2  0  0  0  0
 38 41  1  0  0  0  0
 39 48  1  0  0  0  0
 40 68  1  0  0  0  0
 41 43  1  0  0  0  0
 42 44  1  0  0  0  0
 42 45  1  0  0  0  0
 43 47  1  0  0  0  0
 44 49  1  0  0  0  0
 45 69  1  0  0  0  0
 46 49  1  0  0  0  0
 46 69  1  0  0  0  0
 47 72  1  0  0  0  0
 48 68  1  0  0  0  0
 49 67  1  0  0  0  0
 51 61  1  0  0  0  0
 52 63  1  0  0  0  0
 53 64  1  0  0  0  0
 54 64  1  0  0  0  0
 55 64  1  0  0  0  0
 56 75  1  0  0  0  0
 57 58  1  0  0  0  0
 58 60  1  0  0  0  0
 59 61  1  0  0  0  0
 59 74  1  0  0  0  0
 60 82  1  0  0  0  0
 62 64  1  0  0  0  0
 62 73  1  0  0  0  0
 63 75  1  0  0  0  0
 65 67  1  0  0  0  0
M  CHG  1  75   1
M  ISO  4  37 100  60 101  74 100  82 101
M  END
> <Batch ID>
0083

> <Smiles>
CNC(C)C(=O)NC(C(=O)N1Cc2cc([101O:1][101CH2:1]CCc3cc(C)nc(C(C)C[100NH:0][100C:0](=O)N4CCCC(n5nc(-c6ccc(Oc7ccc(F)cc7F)cc6)c(C(N)=O)c5N)C4)c3)ccc2CC1C(=O)NC1CCCc2ccccc21)C(C)(C)C

> <Shape>
0.251

> <Color>
0.056

> <Negative vol penalty>
0.000

$$$$

  -OEChem-04052318513D

 85 93  0     1  0  0  0  0  0999 V2000
  -27.9571  -33.3763   25.9256 C   0  0  0  0  0  0  0  0  0  0  0  0
  -27.8626  -31.9928   26.0367 C   0  0  0  0  0  0  0  0  0  0  0  0
  -24.3899   -9.6566   21.4194 C   0  0  0  0  0  0  0  0  0  0  0  0
  -24.8239  -10.7081   23.5508 C   0  0  0  0  0  0  0  0  0  0  0  0
  -26.9422  -34.0948   25.2951 C   0  0  0  0  0  0  0  0  0  0  0  0
  -26.7524  -31.3271   25.5183 C   0  0  0  0  0  0  0  0  0  0  0  0
  -28.0181  -27.1618   22.9312 C   0  0  0  0  0  0  0  0  0  0  0  0
  -24.0344   -8.4771   22.0736 C   0  0  0  0  0  0  0  0  0  0  0  0
  -24.4684   -9.5286   24.2051 C   0  0  0  0  0  0  0  0  0  0  0  0
  -28.3439  -26.0265   23.6720 C   0  0  0  0  0  0  0  0  0  0  0  0
  -21.3497   -7.2588   23.7292 C   0  0  0  0  0  0  0  0  0  0  0  0
  -20.1967   -6.6016   23.3000 C   0  0  0  0  0  0  0  0  0  0  0  0
  -26.1314  -25.1466   23.2851 C   0  0  0  0  0  0  0  0  0  0  0  0
  -27.0642  -21.1155   23.7662 C   0  0  0  0  0  0  0  0  0  0  0  0
  -21.5100   -4.6446   22.7684 C   0  0  0  0  0  0  0  0  0  0  0  0
  -24.7847  -10.7721   22.1580 C   0  0  0  0  0  0  0  0  0  0  0  0
  -24.3034  -13.0567   21.1300 C   0  0  0  0  0  0  0  0  0  0  0  0
  -25.8237  -33.4366   24.7602 C   0  0  0  0  0  0  0  0  0  0  0  0
  -26.7408  -27.3032   22.3700 C   0  0  0  0  0  0  0  0  0  0  0  0
  -25.7209  -32.0376   24.8812 C   0  0  0  0  0  0  0  0  0  0  0  0
  -25.7927  -26.2834   22.5355 C   0  0  0  0  0  0  0  0  0  0  0  0
  -28.4516  -21.2010   23.7340 C   0  0  0  0  0  0  0  0  0  0  0  0
  -29.1589  -20.5581   22.7242 C   0  0  0  0  0  0  0  0  0  0  0  0
  -24.0736   -8.4131   23.4664 C   0  0  0  0  0  0  0  0  0  0  0  0
  -27.3995  -25.0200   23.8515 C   0  0  0  0  0  0  0  0  0  0  0  0
  -22.5829   -6.6089   23.6780 C   0  0  0  0  0  0  0  0  0  0  0  0
  -20.2768   -5.2945   22.8196 C   0  0  0  0  0  0  0  0  0  0  0  0
  -22.6630   -5.3018   23.1976 C   0  0  0  0  0  0  0  0  0  0  0  0
  -25.1525  -11.9907   21.4828 C   0  0  0  0  0  0  0  0  0  0  0  0
  -26.4365  -20.3807   22.7733 C   0  0  0  0  0  0  0  0  0  0  0  0
  -28.4375  -19.8481   21.7781 C   0  0  0  0  0  0  0  0  0  0  0  0
  -25.1300  -13.9648   20.5146 C   0  0  0  0  0  0  0  0  0  0  0  0
  -22.8937  -13.2122   21.3398 C   0  0  0  0  0  0  0  0  0  0  0  0
  -24.3500  -29.3673   22.7265 C   0  0  0  0  0  0  0  0  0  0  0  0
  -23.0550  -27.6942   20.2677 C   0  0  0  0  0  0  0  0  0  0  0  0
  -22.9096  -24.7723   18.5103 C   0  0  0  0  0  0  0  0  0  0  0  0
  -29.9244  -16.8127   20.2945 C   0  0  0  0  0  0  0  0  0  0  0  0
  -24.7293  -34.2607   24.1293 C   0  0  0  0  0  0  0  0  0  0  0  0
  -26.4138  -28.5217   21.5511 C   0  0  0  0  0  0  0  0  0  0  0  0
  -24.4140  -26.3776   21.9365 C   0  0  0  0  0  0  0  0  0  0  0  0
  -23.7652  -33.4414   23.2753 C   0  0  0  0  0  0  0  0  0  0  0  0
  -29.9160  -13.5204   18.9389 C   0  0  0  0  0  0  0  0  0  0  0  0
  -23.3384  -32.1776   24.0153 C   0  0  0  0  0  0  0  0  0  0  0  0
  -28.6096  -12.9153   19.4558 C   0  0  0  0  0  0  0  0  0  0  0  0
  -30.5603  -14.4401   19.9738 C   0  0  0  0  0  0  0  0  0  0  0  0
  -28.3717  -14.8963   21.0108 C   0  0  0  0  0  0  0  0  0  0  0  0
  -24.5441  -31.2770   24.3096 C   0  0  1  0  0  0  0  0  0  0  0  0
  -24.9157  -28.7945   21.4578 C   0  0  1  0  0  0  0  0  0  0  0  0
  -27.6560  -14.0053   19.9810 C   0  0  2  0  0  0  0  0  0  0  0  0
  -31.3150  -19.3545   23.1590 C   0  0  0  0  0  0  0  0  0  0  0  0
  -24.2815  -21.3841   21.9759 C   0  0  0  0  0  0  0  0  0  0  0  0
  -28.7278  -19.6464   19.2807 C   0  0  0  0  0  0  0  0  0  0  0  0
  -21.7295  -23.6935   16.5761 C   0  0  0  0  0  0  0  0  0  0  0  0
  -20.5693  -27.3185   21.9969 C   0  0  0  0  0  0  0  0  0  0  0  0
  -19.8504  -25.4909   20.4439 C   0  0  0  0  0  0  0  0  0  0  0  0
  -20.1010  -27.8222   19.5924 C   0  0  0  0  0  0  0  0  0  0  0  0
  -25.4422  -24.3927   17.0269 C   0  0  0  0  0  0  0  0  0  0  0  0
  -29.1630  -21.9924   24.8044 C   0  0  0  0  0  0  0  0  0  0  0  0
  -30.6475  -20.6344   22.6629 C   0  0  0  0  0  0  0  0  0  0  0  0
  -24.9484  -20.2683   22.7755 C   0  0  0  0  0  0  0  0  0  0  0  0
  -29.0800  -23.4961   24.5655 C   0  0  0  0  0  0  0  0  0  1  0  0
  -29.1415  -19.1378   20.6683 C   0  0  2  0  0  0  0  0  0  0  0  0
  -22.1680  -26.4781   20.1519 C   0  0  1  0  0  0  0  0  0  0  0  0
  -22.9464  -24.4909   17.0190 C   0  0  2  0  0  0  0  0  0  0  0  0
  -20.6975  -26.7762   20.5593 C   0  0  0  0  0  0  0  0  0  0  0  0
  -26.4211  -12.2006   21.1214 N   0  0  0  0  0  0  0  0  0  0  0  0
  -27.0897  -19.7425   21.7765 N   0  0  0  0  0  0  0  0  0  0  0  0
  -26.3753  -13.4090   20.5351 N   0  0  0  0  0  0  0  0  0  0  0  0
  -24.1402  -27.5913   21.1495 N   0  0  0  0  0  0  0  0  0  0  0  0
  -29.6041  -15.4517   20.4298 N   0  0  0  0  0  0  0  0  0  0  0  0
  -24.9057  -15.1765   19.9634 N   0  0  0  0  0  0  0  0  0  0  0  0
  -22.1972  -12.1833   21.9884 N   0  0  0  0  0  0  0  0  0  0  0  0
  -24.9380  -30.5546   23.1190 N   0  0  0  0  0  0  0  0  0  0  0  0
  -22.3222  -25.9889   18.7861 N   0  0  0  0  0  0  0  0  0  0  0  0
  -28.9601  -17.7054   20.7459 N   0  0  0  0  0  0  0  0  0  0  0  0
  -24.1697  -23.7152   16.6684 N   0  3  0  0  0  0  0  0  0  0  0  0
  -22.2671  -14.2261   20.9487 O   0  0  0  0  0  0  0  0  0  0  0  0
  -23.4459  -28.7765   23.3056 O   0  0  0  0  0  0  0  0  0  0  0  0
  -22.7987  -28.6959   19.5949 O   0  0  0  0  0  0  0  0  0  0  0  0
  -23.3538  -23.9894   19.3471 O   0  0  0  0  0  0  0  0  0  0  0  0
  -30.9886  -17.2032   19.8027 O   0  0  0  0  0  0  0  0  0  0  0  0
  -23.7266   -7.2624   24.1052 O   0  0  0  0  0  0  0  0  0  0  0  0
  -27.7147  -23.9112   24.5747 O   0  0  0  0  0  0  0  0  0  1  0  0
  -19.1692   -4.6630   22.4089 F   0  0  0  0  0  0  0  0  0  0  0  0
  -23.8447   -4.6719   23.1472 F   0  0  0  0  0  0  0  0  0  0  0  0
  1  2  1  0  0  0  0
  1  5  2  0  0  0  0
  2  6  2  0  0  0  0
  3  8  2  0  0  0  0
  3 16  1  0  0  0  0
  4  9  1  0  0  0  0
  4 16  2  0  0  0  0
  5 18  1  0  0  0  0
  6 20  1  0  0  0  0
  7 10  2  0  0  0  0
  7 19  1  0  0  0  0
  8 24  1  0  0  0  0
  9 24  2  0  0  0  0
 10 25  1  0  0  0  0
 11 12  2  0  0  0  0
 11 26  1  0  0  0  0
 12 27  1  0  0  0  0
 13 21  1  0  0  0  0
 13 25  2  0  0  0  0
 14 22  2  0  0  0  0
 14 30  1  0  0  0  0
 15 27  2  0  0  0  0
 15 28  1  0  0  0  0
 16 29  1  0  0  0  0
 17 29  1  0  0  0  0
 17 32  2  0  0  0  0
 17 33  1  0  0  0  0
 18 20  2  0  0  0  0
 18 38  1  0  0  0  0
 19 21  2  0  0  0  0
 19 39  1  0  0  0  0
 20 47  1  0  0  0  0
 21 40  1  0  0  0  0
 22 23  1  0  0  0  0
 22 58  1  0  0  0  0
 23 31  2  0  0  0  0
 23 59  1  0  0  0  0
 24 82  1  0  0  0  0
 25 83  1  0  0  0  0
 26 28  2  0  0  0  0
 26 82  1  0  0  0  0
 27 84  1  0  0  0  0
 28 85  1  0  0  0  0
 29 66  2  0  0  0  0
 30 60  1  0  0  0  0
 30 67  2  0  0  0  0
 31 62  1  0  0  0  0
 31 67  1  0  0  0  0
 32 68  1  0  0  0  0
 32 71  1  0  0  0  0
 33 72  1  0  0  0  0
 33 77  2  0  0  0  0
 34 48  1  0  0  0  0
 34 73  1  0  0  0  0
 34 78  2  0  0  0  0
 35 63  1  0  0  0  0
 35 69  1  0  0  0  0
 35 79  2  0  0  0  0
 36 64  1  0  0  0  0
 36 74  1  0  0  0  0
 36 80  2  0  0  0  0
 37 70  1  0  0  0  0
 37 75  1  0  0  0  0
 37 81  2  0  0  0  0
 38 41  1  0  0  0  0
 39 48  1  0  0  0  0
 40 69  1  0  0  0  0
 41 43  1  0  0  0  0
 42 44  1  0  0  0  0
 42 45  1  0  0  0  0
 43 47  1  0  0  0  0
 44 49  1  0  0  0  0
 45 70  1  0  0  0  0
 46 49  1  0  0  0  0
 46 70  1  0  0  0  0
 47 73  1  0  0  0  0
 48 69  1  0  0  0  0
 49 68  1  0  0  0  0
 50 59  1  0  0  0  0
 51 60  1  0  0  0  0
 52 62  1  0  0  0  0
 53 64  1  0  0  0  0
 54 65  1  0  0  0  0
 55 65  1  0  0  0  0
 56 65  1  0  0  0  0
 57 76  1  0  0  0  0
 58 61  1  0  0  0  0
 61 83  1  0  0  0  0
 62 75  1  0  0  0  0
 63 65  1  0  0  0  0
 63 74  1  0  0  0  0
 64 76  1  0  0  0  0
 66 68  1  0  0  0  0
M  CHG  1  76   1
M  ISO  4  37 100  61 101  75 100  83 101
M  END
> <Batch ID>
0083

> <Smiles>
CCc1cc(C[101CH2:1][101O:1]c2ccc3c(c2)CN(C(=O)C(NC(=O)C(C)NC)C(C)(C)C)C(C(=O)NC2CCCc4ccccc42)C3)c(CC)c(C(C)[100NH:0][100C:0](=O)N2CCCC(n3nc(-c4ccc(Oc5ccc(F)cc5F)cc4)c(C(N)=O)c3N)C2)n1

> <Shape>
0.264

> <Color>
0.120

> <Negative vol penalty>
0.000

$$$$

  -OEChem-04052318513D

 86 94  0     1  0  0  0  0  0999 V2000
  -18.2760  -24.6762   21.4184 C   0  0  0  0  0  0  0  0  0  0  0  0
  -19.6504  -24.4998   21.2952 C   0  0  0  0  0  0  0  0  0  0  0  0
  -25.7815  -12.9895   21.4675 C   0  0  0  0  0  0  0  0  0  0  0  0
  -25.2573  -13.5904   19.1869 C   0  0  0  0  0  0  0  0  0  0  0  0
  -17.7690  -25.8867   21.8890 C   0  0  0  0  0  0  0  0  0  0  0  0
  -20.5188  -25.5345   21.6415 C   0  0  0  0  0  0  0  0  0  0  0  0
  -24.4558  -23.9282   24.3919 C   0  0  0  0  0  0  0  0  0  0  0  0
  -25.4647  -11.6598   21.1900 C   0  0  0  0  0  0  0  0  0  0  0  0
  -24.9405  -12.2606   18.9094 C   0  0  0  0  0  0  0  0  0  0  0  0
  -25.4936  -23.2954   23.7091 C   0  0  0  0  0  0  0  0  0  0  0  0
  -22.6743   -9.7806   20.8632 C   0  0  0  0  0  0  0  0  0  0  0  0
  -21.8865   -9.0961   21.7887 C   0  0  0  0  0  0  0  0  0  0  0  0
  -26.7676  -25.3432   23.7599 C   0  0  0  0  0  0  0  0  0  0  0  0
  -29.3039  -24.5178   20.0588 C   0  0  0  0  0  0  0  0  0  0  0  0
  -23.6582   -7.4841   22.1045 C   0  0  0  0  0  0  0  0  0  0  0  0
  -25.6778  -13.9548   20.4659 C   0  0  0  0  0  0  0  0  0  0  0  0
  -27.2626  -15.9475   20.6257 C   0  0  0  0  0  0  0  0  0  0  0  0
  -18.6320  -26.9334   22.2503 C   0  0  0  0  0  0  0  0  0  0  0  0
  -24.5617  -25.2785   24.7548 C   0  0  0  0  0  0  0  0  0  0  0  0
  -20.0228  -26.7607   22.1160 C   0  0  0  0  0  0  0  0  0  0  0  0
  -25.7307  -25.9901   24.4495 C   0  0  0  0  0  0  0  0  0  0  0  0
  -28.2731  -23.6113   19.8840 C   0  0  0  0  0  0  0  0  0  0  0  0
  -25.0442  -11.2953   19.9110 C   0  0  0  0  0  0  0  0  0  0  0  0
  -26.6485  -24.0037   23.3904 C   0  0  0  0  0  0  0  0  0  0  0  0
  -23.9540   -9.3167   20.5583 C   0  0  0  0  0  0  0  0  0  0  0  0
  -22.3785   -7.9479   22.4094 C   0  0  0  0  0  0  0  0  0  0  0  0
  -24.4459   -8.1685   21.1789 C   0  0  0  0  0  0  0  0  0  0  0  0
  -26.0044  -15.3287   20.7521 C   0  0  0  0  0  0  0  0  0  0  0  0
  -29.2600  -25.6932   19.3363 C   0  0  0  0  0  0  0  0  0  0  0  0
  -27.2665  -23.9403   18.9986 C   0  0  0  0  0  0  0  0  0  0  0  0
  -27.0472  -17.2465   21.0166 C   0  0  0  0  0  0  0  0  0  0  0  0
  -28.5141  -15.3973   20.1936 C   0  0  0  0  0  0  0  0  0  0  0  0
  -22.9530  -27.9257   24.0421 C   0  0  0  0  0  0  0  0  0  0  0  0
  -24.8970  -29.2434   26.2797 C   0  0  0  0  0  0  0  0  0  0  0  0
  -27.8433  -29.1125   27.9971 C   0  0  0  0  0  0  0  0  0  0  0  0
  -23.0105  -21.3867   20.7378 C   0  0  0  0  0  0  0  0  0  0  0  0
  -18.0355  -28.2404   22.7092 C   0  0  0  0  0  0  0  0  0  0  0  0
  -23.4443  -25.9392   25.5146 C   0  0  0  0  0  0  0  0  0  0  0  0
  -25.9023  -27.4360   24.8346 C   0  0  0  0  0  0  0  0  0  0  0  0
  -19.0375  -29.1547   23.4093 C   0  0  0  0  0  0  0  0  0  0  0  0
  -23.6094  -19.5453   23.7257 C   0  0  0  0  0  0  0  0  0  0  0  0
  -20.3373  -29.2302   22.6144 C   0  0  0  0  0  0  0  0  0  0  0  0
  -24.4050  -18.3278   23.2517 C   0  0  0  0  0  0  0  0  0  0  0  0
  -22.5484  -19.9574   22.7076 C   0  0  0  0  0  0  0  0  0  0  0  0
  -23.8510  -18.9632   20.8668 C   0  0  0  0  0  0  0  0  0  0  0  0
  -20.9979  -27.8507   22.5050 C   0  0  1  0  0  0  0  0  0  0  0  0
  -23.4482  -27.4590   25.3817 C   0  0  1  0  0  0  0  0  0  0  0  0
  -24.9704  -18.5442   21.8351 C   0  0  2  0  0  0  0  0  0  0  0  0
  -29.1682  -30.3491   29.7329 C   0  0  0  0  0  0  0  0  0  0  0  0
  -31.7331  -26.1062   19.0936 C   0  0  0  0  0  0  0  0  0  0  0  0
  -30.4522  -27.2044   20.9617 C   0  0  0  0  0  0  0  0  0  0  0  0
  -30.1880  -27.9955   18.6195 C   0  0  0  0  0  0  0  0  0  0  0  0
  -25.6678  -31.3359   24.1972 C   0  0  0  0  0  0  0  0  0  0  0  0
  -27.6357  -31.9316   25.6257 C   0  0  0  0  0  0  0  0  0  0  0  0
  -25.3211  -32.2381   26.5037 C   0  0  0  0  0  0  0  0  0  0  0  0
  -27.8002  -26.8006   29.8442 C   0  0  0  0  0  0  0  0  0  0  0  0
  -28.2723  -22.3107   20.6501 C   0  0  0  0  0  0  0  0  0  0  0  0
  -26.1238  -23.0124   18.7583 C   0  0  0  0  0  0  0  0  0  0  0  0
  -24.7346  -23.6349   19.0009 C   0  0  0  0  0  0  0  0  0  0  0  0
  -23.5657  -22.6976   18.7050 C   0  0  0  0  0  0  0  0  0  0  0  0
  -27.3073  -22.3338   21.8305 C   0  0  0  0  0  0  0  0  0  1  0  0
  -26.2556  -29.9014   26.2618 C   0  0  1  0  0  0  0  0  0  0  0  0
  -28.1532  -29.2458   29.4772 C   0  0  2  0  0  0  0  0  0  0  0  0
  -30.3459  -26.7027   19.4877 C   0  0  0  0  0  0  0  0  0  0  0  0
  -26.2163  -31.3250   25.6380 C   0  0  0  0  0  0  0  0  0  0  0  0
  -25.0598  -16.1657   21.1892 N   0  0  0  0  0  0  0  0  0  0  0  0
  -28.2623  -25.9891   18.4766 N   0  0  0  0  0  0  0  0  0  0  0  0
  -27.2490  -25.0982   18.3051 N   0  0  0  0  0  0  0  0  0  0  0  0
  -25.7247  -17.3237   21.3410 N   0  0  0  0  0  0  0  0  0  0  0  0
  -24.7792  -28.0394   25.5709 N   0  0  0  0  0  0  0  0  0  0  0  0
  -23.1501  -20.1482   21.3857 N   0  0  0  0  0  0  0  0  0  0  0  0
  -27.8619  -18.3187   21.1110 N   0  0  0  0  0  0  0  0  0  0  0  0
  -28.5587  -14.0450   19.8279 N   0  0  0  0  0  0  0  0  0  0  0  0
  -21.6692  -27.5122   23.7416 N   0  0  0  0  0  0  0  0  0  0  0  0
  -26.7453  -29.8642   27.6355 N   0  0  0  0  0  0  0  0  0  0  0  0
  -23.6164  -21.4852   19.4913 N   0  0  0  0  0  0  0  0  0  0  0  0
  -28.7051  -27.9673   30.0080 N   0  3  0  0  0  0  0  0  0  0  0  0
  -29.5653  -16.0803   20.1492 O   0  0  0  0  0  0  0  0  0  0  0  0
  -23.6812  -28.6115   23.3342 O   0  0  0  0  0  0  0  0  0  0  0  0
  -23.9762  -29.7742   26.9058 O   0  0  0  0  0  0  0  0  0  0  0  0
  -28.5108  -28.4146   27.2370 O   0  0  0  0  0  0  0  0  0  0  0  0
  -22.3963  -22.3362   21.2360 O   0  0  0  0  0  0  0  0  0  0  0  0
  -24.7352   -9.9978   19.6398 O   0  0  0  0  0  0  0  0  0  0  0  0
  -27.6628  -23.3886   22.7234 O   0  0  0  0  0  0  0  0  0  1  0  0
  -21.6225   -7.2916   23.2992 F   0  0  0  0  0  0  0  0  0  0  0  0
  -25.6750   -7.7188   20.8909 F   0  0  0  0  0  0  0  0  0  0  0  0
  1  2  1  0  0  0  0
  1  5  2  0  0  0  0
  2  6  2  0  0  0  0
  3  8  2  0  0  0  0
  3 16  1  0  0  0  0
  4  9  1  0  0  0  0
  4 16  2  0  0  0  0
  5 18  1  0  0  0  0
  6 20  1  0  0  0  0
  7 10  2  0  0  0  0
  7 19  1  0  0  0  0
  8 23  1  0  0  0  0
  9 23  2  0  0  0  0
 10 24  1  0  0  0  0
 11 12  2  0  0  0  0
 11 25  1  0  0  0  0
 12 26  1  0  0  0  0
 13 21  1  0  0  0  0
 13 24  2  0  0  0  0
 14 22  1  0  0  0  0
 14 29  2  0  0  0  0
 15 26  2  0  0  0  0
 15 27  1  0  0  0  0
 16 28  1  0  0  0  0
 17 28  1  0  0  0  0
 17 31  2  0  0  0  0
 17 32  1  0  0  0  0
 18 20  2  0  0  0  0
 18 37  1  0  0  0  0
 19 21  2  0  0  0  0
 19 38  1  0  0  0  0
 20 46  1  0  0  0  0
 21 39  1  0  0  0  0
 22 30  2  0  0  0  0
 22 57  1  0  0  0  0
 23 83  1  0  0  0  0
 24 84  1  0  0  0  0
 25 27  2  0  0  0  0
 25 83  1  0  0  0  0
 26 85  1  0  0  0  0
 27 86  1  0  0  0  0
 28 66  2  0  0  0  0
 29 64  1  0  0  0  0
 29 67  1  0  0  0  0
 30 58  1  0  0  0  0
 30 68  1  0  0  0  0
 31 69  1  0  0  0  0
 31 72  1  0  0  0  0
 32 73  1  0  0  0  0
 32 78  2  0  0  0  0
 33 47  1  0  0  0  0
 33 74  1  0  0  0  0
 33 79  2  0  0  0  0
 34 62  1  0  0  0  0
 34 70  1  0  0  0  0
 34 80  2  0  0  0  0
 35 63  1  0  0  0  0
 35 75  1  0  0  0  0
 35 81  2  0  0  0  0
 36 71  1  0  0  0  0
 36 76  1  0  0  0  0
 36 82  2  0  0  0  0
 37 40  1  0  0  0  0
 38 47  1  0  0  0  0
 39 70  1  0  0  0  0
 40 42  1  0  0  0  0
 41 43  1  0  0  0  0
 41 44  1  0  0  0  0
 42 46  1  0  0  0  0
 43 48  1  0  0  0  0
 44 71  1  0  0  0  0
 45 48  1  0  0  0  0
 45 71  1  0  0  0  0
 46 74  1  0  0  0  0
 47 70  1  0  0  0  0
 48 69  1  0  0  0  0
 49 63  1  0  0  0  0
 50 64  1  0  0  0  0
 51 64  1  0  0  0  0
 52 64  1  0  0  0  0
 53 65  1  0  0  0  0
 54 65  1  0  0  0  0
 55 65  1  0  0  0  0
 56 77  1  0  0  0  0
 57 61  1  0  0  0  0
 58 59  1  0  0  0  0
 59 60  1  0  0  0  0
 60 76  1  0  0  0  0
 61 84  1  0  0  0  0
 62 65  1  0  0  0  0
 62 75  1  0  0  0  0
 63 77  1  0  0  0  0
 66 69  1  0  0  0  0
 67 68  2  0  0  0  0
M  CHG  1  77   1
M  ISO  4  36 100  61 101  76 100  84 101
M  END
> <Batch ID>
0083

> <Smiles>
CNC(C)C(=O)NC(C(=O)N1Cc2cc([101O:1][101CH2:1]Cc3cc(C(C)(C)C)nnc3CCC[100NH:0][100C:0](=O)N3CCCC(n4nc(-c5ccc(Oc6ccc(F)cc6F)cc5)c(C(N)=O)c4N)C3)ccc2CC1C(=O)NC1CCCc2ccccc21)C(C)(C)C

> <Shape>
0.228

> <Color>
0.080

> <Negative vol penalty>
0.000

$$$$

  -OEChem-04052318513D

 83 91  0     1  0  0  0  0  0999 V2000
  -16.6350  -30.3514   23.3002 C   0  0  0  0  0  0  0  0  0  0  0  0
  -17.7414  -30.6294   22.5039 C   0  0  0  0  0  0  0  0  0  0  0  0
  -26.4400  -15.5431   20.8179 C   0  0  0  0  0  0  0  0  0  0  0  0
  -28.0110  -14.6748   19.2008 C   0  0  0  0  0  0  0  0  0  0  0  0
  -16.7177  -29.3717   24.2889 C   0  0  0  0  0  0  0  0  0  0  0  0
  -18.9314  -29.9286   22.6965 C   0  0  0  0  0  0  0  0  0  0  0  0
  -24.5672  -27.3946   19.0725 C   0  0  0  0  0  0  0  0  0  0  0  0
  -25.9316  -14.2590   21.0135 C   0  0  0  0  0  0  0  0  0  0  0  0
  -27.5026  -13.3907   19.3964 C   0  0  0  0  0  0  0  0  0  0  0  0
  -25.9610  -27.4209   19.0926 C   0  0  0  0  0  0  0  0  0  0  0  0
  -23.8203  -12.1484   19.4286 C   0  0  0  0  0  0  0  0  0  0  0  0
  -22.4339  -11.9998   19.4657 C   0  0  0  0  0  0  0  0  0  0  0  0
  -25.9634  -25.6951   20.7780 C   0  0  0  0  0  0  0  0  0  0  0  0
  -33.2316  -23.1569   18.2633 C   0  0  0  0  0  0  0  0  0  0  0  0
  -22.5887  -11.1162   21.7090 C   0  0  0  0  0  0  0  0  0  0  0  0
  -31.8510  -23.5433   19.9995 C   0  0  0  0  0  0  0  0  0  0  0  0
  -27.4797  -15.7510   19.9115 C   0  0  0  0  0  0  0  0  0  0  0  0
  -29.0628  -17.6889   20.4077 C   0  0  0  0  0  0  0  0  0  0  0  0
  -17.9064  -28.6518   24.4873 C   0  0  0  0  0  0  0  0  0  0  0  0
  -23.8596  -26.5245   19.9144 C   0  0  0  0  0  0  0  0  0  0  0  0
  -19.0305  -28.9393   23.6896 C   0  0  0  0  0  0  0  0  0  0  0  0
  -24.5607  -25.6578   20.7649 C   0  0  0  0  0  0  0  0  0  0  0  0
  -33.0651  -22.9883   19.6601 C   0  0  0  0  0  0  0  0  0  0  0  0
  -26.4629  -13.1828   20.3028 C   0  0  0  0  0  0  0  0  0  0  0  0
  -26.6593  -26.5732   19.9475 C   0  0  0  0  0  0  0  0  0  0  0  0
  -24.5910  -11.7808   20.5317 C   0  0  0  0  0  0  0  0  0  0  0  0
  -21.8181  -11.4837   20.6059 C   0  0  0  0  0  0  0  0  0  0  0  0
  -23.9752  -11.2647   21.6719 C   0  0  0  0  0  0  0  0  0  0  0  0
  -28.0049  -17.0773   19.7086 C   0  0  0  0  0  0  0  0  0  0  0  0
  -32.1142  -23.8100   17.7918 C   0  0  0  0  0  0  0  0  0  0  0  0
  -29.1720  -18.9361   19.8429 C   0  0  0  0  0  0  0  0  0  0  0  0
  -29.8743  -17.1754   21.4724 C   0  0  0  0  0  0  0  0  0  0  0  0
  -21.7679  -26.8977   22.2785 C   0  0  0  0  0  0  0  0  0  0  0  0
  -21.5848  -23.6637   22.1051 C   0  0  0  0  0  0  0  0  0  0  0  0
  -23.0652  -20.7219   21.2103 C   0  0  0  0  0  0  0  0  0  0  0  0
  -29.3165  -22.2506   15.3553 C   0  0  0  0  0  0  0  0  0  0  0  0
  -17.9623  -27.6351   25.5998 C   0  0  0  0  0  0  0  0  0  0  0  0
  -22.3568  -26.4892   19.8614 C   0  0  0  0  0  0  0  0  0  0  0  0
  -23.8486  -24.6906   21.6737 C   0  0  0  0  0  0  0  0  0  0  0  0
  -19.1455  -26.6769   25.4904 C   0  0  0  0  0  0  0  0  0  0  0  0
  -26.1124  -21.3792   16.6403 C   0  0  0  0  0  0  0  0  0  0  0  0
  -20.4290  -27.4453   25.1922 C   0  0  0  0  0  0  0  0  0  0  0  0
  -26.4058  -20.2292   17.6054 C   0  0  0  0  0  0  0  0  0  0  0  0
  -27.0176  -21.3294   15.4114 C   0  0  0  0  0  0  0  0  0  0  0  0
  -28.7546  -20.1187   16.6728 C   0  0  0  0  0  0  0  0  0  0  0  0
  -20.3314  -28.1833   23.8516 C   0  0  1  0  0  0  0  0  0  0  0  0
  -21.7272  -25.9271   21.1323 C   0  0  1  0  0  0  0  0  0  0  0  0
  -27.9046  -20.1586   17.9543 C   0  0  2  0  0  0  0  0  0  0  0  0
  -34.0156  -22.3380   20.5821 C   0  0  0  0  0  0  0  0  0  0  0  0
  -32.7663  -25.2791   15.8577 C   0  0  0  0  0  0  0  0  0  0  0  0
  -23.2863  -18.2553   20.8050 C   0  0  0  0  0  0  0  0  0  0  0  0
  -22.1872  -23.5943   25.0954 C   0  0  0  0  0  0  0  0  0  0  0  0
  -22.7318  -21.1621   24.8584 C   0  0  0  0  0  0  0  0  0  0  0  0
  -20.4308  -21.9788   24.3473 C   0  0  0  0  0  0  0  0  0  0  0  0
  -22.0106  -20.9623   18.4555 C   0  0  0  0  0  0  0  0  0  0  0  0
  -30.0395  -26.2560   18.7205 C   0  0  0  0  0  0  0  0  0  0  0  0
  -29.9429  -24.7307   18.7972 C   0  0  0  0  0  0  0  0  0  0  0  0
  -31.6626  -23.0582   15.4065 C   0  0  0  0  0  0  0  0  0  0  0  0
  -28.6828  -26.9498   18.7561 C   0  0  0  0  0  0  0  0  0  1  0  0
  -31.7724  -24.2325   16.4178 C   0  0  1  0  0  0  0  0  0  0  0  0
  -22.3189  -22.5150   22.7536 C   0  0  1  0  0  0  0  0  0  0  0  0
  -22.5442  -19.5286   20.4299 C   0  0  2  0  0  0  0  0  0  0  0  0
  -21.9308  -22.3320   24.2481 C   0  0  0  0  0  0  0  0  0  0  0  0
  -27.4795  -17.8707   18.7714 N   0  0  0  0  0  0  0  0  0  0  0  0
  -31.2820  -24.0400   18.8560 N   0  0  0  0  0  0  0  0  0  0  0  0
  -28.2101  -18.9937   18.8777 N   0  0  0  0  0  0  0  0  0  0  0  0
  -22.3788  -24.6982   21.5900 N   0  0  0  0  0  0  0  0  0  0  0  0
  -28.4254  -21.2652   15.8113 N   0  0  0  0  0  0  0  0  0  0  0  0
  -29.9960  -19.9782   20.0827 N   0  0  0  0  0  0  0  0  0  0  0  0
  -29.6280  -15.8747   21.9326 N   0  0  0  0  0  0  0  0  0  0  0  0
  -20.5219  -27.2616   22.7522 N   0  0  0  0  0  0  0  0  0  0  0  0
  -22.0615  -21.3445   21.9218 N   0  0  0  0  0  0  0  0  0  0  0  0
  -30.6309  -22.1189   15.7862 N   0  0  0  0  0  0  0  0  0  0  0  0
  -22.7092  -19.7548   18.9661 N   0  3  0  0  0  0  0  0  0  0  0  0
  -30.7799  -17.8560   22.0111 O   0  0  0  0  0  0  0  0  0  0  0  0
  -22.8498  -27.2866   22.7028 O   0  0  0  0  0  0  0  0  0  0  0  0
  -20.3527  -23.6405   22.0509 O   0  0  0  0  0  0  0  0  0  0  0  0
  -24.2453  -21.0650   21.1935 O   0  0  0  0  0  0  0  0  0  0  0  0
  -28.9655  -23.1820   14.6230 O   0  0  0  0  0  0  0  0  0  0  0  0
  -25.9672  -11.9297   20.4935 O   0  0  0  0  0  0  0  0  0  0  0  0
  -28.0197  -26.5974   19.9696 O   0  0  0  0  0  0  0  0  0  1  0  0
  -20.4866  -11.3425   20.6420 F   0  0  0  0  0  0  0  0  0  0  0  0
  -24.7101  -10.9110   22.7351 F   0  0  0  0  0  0  0  0  0  0  0  0
  1  2  1  0  0  0  0
  1  5  2  0  0  0  0
  2  6  2  0  0  0  0
  3  8  2  0  0  0  0
  3 17  1  0  0  0  0
  4  9  1  0  0  0  0
  4 17  2  0  0  0  0
  5 19  1  0  0  0  0
  6 21  1  0  0  0  0
  7 10  2  0  0  0  0
  7 20  1  0  0  0  0
  8 24  1  0  0  0  0
  9 24  2  0  0  0  0
 10 25  1  0  0  0  0
 11 12  2  0  0  0  0
 11 26  1  0  0  0  0
 12 27  1  0  0  0  0
 13 22  1  0  0  0  0
 13 25  2  0  0  0  0
 14 23  1  0  0  0  0
 14 30  2  0  0  0  0
 15 27  2  0  0  0  0
 15 28  1  0  0  0  0
 16 23  2  0  0  0  0
 16 65  1  0  0  0  0
 17 29  1  0  0  0  0
 18 29  1  0  0  0  0
 18 31  2  0  0  0  0
 18 32  1  0  0  0  0
 19 21  2  0  0  0  0
 19 37  1  0  0  0  0
 20 22  2  0  0  0  0
 20 38  1  0  0  0  0
 21 46  1  0  0  0  0
 22 39  1  0  0  0  0
 23 49  1  0  0  0  0
 24 80  1  0  0  0  0
 25 81  1  0  0  0  0
 26 28  2  0  0  0  0
 26 80  1  0  0  0  0
 27 82  1  0  0  0  0
 28 83  1  0  0  0  0
 29 64  2  0  0  0  0
 30 60  1  0  0  0  0
 30 65  1  0  0  0  0
 31 66  1  0  0  0  0
 31 69  1  0  0  0  0
 32 70  1  0  0  0  0
 32 75  2  0  0  0  0
 33 47  1  0  0  0  0
 33 71  1  0  0  0  0
 33 76  2  0  0  0  0
 34 61  1  0  0  0  0
 34 67  1  0  0  0  0
 34 77  2  0  0  0  0
 35 62  1  0  0  0  0
 35 72  1  0  0  0  0
 35 78  2  0  0  0  0
 36 68  1  0  0  0  0
 36 73  1  0  0  0  0
 36 79  2  0  0  0  0
 37 40  1  0  0  0  0
 38 47  1  0  0  0  0
 39 67  1  0  0  0  0
 40 42  1  0  0  0  0
 41 43  1  0  0  0  0
 41 44  1  0  0  0  0
 42 46  1  0  0  0  0
 43 48  1  0  0  0  0
 44 68  1  0  0  0  0
 45 48  1  0  0  0  0
 45 68  1  0  0  0  0
 46 71  1  0  0  0  0
 47 67  1  0  0  0  0
 48 66  1  0  0  0  0
 50 60  1  0  0  0  0
 51 62  1  0  0  0  0
 52 63  1  0  0  0  0
 53 63  1  0  0  0  0
 54 63  1  0  0  0  0
 55 74  1  0  0  0  0
 56 57  1  0  0  0  0
 56 59  1  0  0  0  0
 57 65  1  0  0  0  0
 58 60  1  0  0  0  0
 58 73  1  0  0  0  0
 59 81  1  0  0  0  0
 61 63  1  0  0  0  0
 61 72  1  0  0  0  0
 62 74  1  0  0  0  0
 64 66  1  0  0  0  0
M  CHG  1  74   1
M  ISO  4  36 100  59 101  73 100  81 101
M  END
> <Batch ID>
0083

> <Smiles>
CNC(C)C(=O)NC(C(=O)N1Cc2cc([101O:1][101CH2:1]CCn3cc(C)cc3C(C)C[100NH:0][100C:0](=O)N3CCCC(n4nc(-c5ccc(Oc6ccc(F)cc6F)cc5)c(C(N)=O)c4N)C3)ccc2CC1C(=O)NC1CCCc2ccccc21)C(C)(C)C

> <Shape>
0.208

> <Color>
0.065

> <Negative vol penalty>
0.000

$$$$

  -OEChem-04052318513D

 85 93  0     1  0  0  0  0  0999 V2000
  -32.4666  -12.9061   20.3230 C   0  0  0  0  0  0  0  0  0  0  0  0
  -31.8449  -14.0732   20.7551 C   0  0  0  0  0  0  0  0  0  0  0  0
  -22.4585  -31.0947   20.5357 C   0  0  0  0  0  0  0  0  0  0  0  0
  -22.5491  -29.7988   22.5728 C   0  0  0  0  0  0  0  0  0  0  0  0
  -31.7198  -11.9126   19.6912 C   0  0  0  0  0  0  0  0  0  0  0  0
  -30.4761  -14.2481   20.5545 C   0  0  0  0  0  0  0  0  0  0  0  0
  -28.1284  -16.0679   24.6559 C   0  0  0  0  0  0  0  0  0  0  0  0
  -21.2024  -31.5796   20.9000 C   0  0  0  0  0  0  0  0  0  0  0  0
  -21.2930  -30.2838   22.9371 C   0  0  0  0  0  0  0  0  0  0  0  0
  -28.2580  -17.4324   24.9108 C   0  0  0  0  0  0  0  0  0  0  0  0
  -18.0618  -29.6658   22.1575 C   0  0  0  0  0  0  0  0  0  0  0  0
  -17.1320  -28.7507   22.6511 C   0  0  0  0  0  0  0  0  0  0  0  0
  -26.0786  -17.8129   23.9493 C   0  0  0  0  0  0  0  0  0  0  0  0
  -28.3675  -20.0063   21.2857 C   0  0  0  0  0  0  0  0  0  0  0  0
  -17.0217  -29.9824   24.7267 C   0  0  0  0  0  0  0  0  0  0  0  0
  -30.2574  -20.0906   19.8443 C   0  0  0  0  0  0  0  0  0  0  0  0
  -23.1318  -30.2043   21.3721 C   0  0  0  0  0  0  0  0  0  0  0  0
  -25.6810  -30.2695   21.3011 C   0  0  0  0  0  0  0  0  0  0  0  0
  -30.3394  -12.0712   19.4914 C   0  0  0  0  0  0  0  0  0  0  0  0
  -26.9756  -15.5662   24.0348 C   0  0  0  0  0  0  0  0  0  0  0  0
  -29.7104  -13.2564   19.9181 C   0  0  0  0  0  0  0  0  0  0  0  0
  -25.9357  -16.4413   23.6899 C   0  0  0  0  0  0  0  0  0  0  0  0
  -29.1104  -19.4335   20.2595 C   0  0  0  0  0  0  0  0  0  0  0  0
  -28.7882  -21.2020   21.8573 C   0  0  0  0  0  0  0  0  0  0  0  0
  -20.6197  -31.1742   22.1007 C   0  0  0  0  0  0  0  0  0  0  0  0
  -27.2343  -18.3056   24.5548 C   0  0  0  0  0  0  0  0  0  0  0  0
  -18.4716  -30.7392   22.9485 C   0  0  0  0  0  0  0  0  0  0  0  0
  -16.6119  -28.9090   23.9357 C   0  0  0  0  0  0  0  0  0  0  0  0
  -17.9515  -30.8975   24.2331 C   0  0  0  0  0  0  0  0  0  0  0  0
  -24.4291  -29.7026   20.9960 C   0  0  0  0  0  0  0  0  0  0  0  0
  -29.9497  -21.7799   21.3707 C   0  0  0  0  0  0  0  0  0  0  0  0
  -26.5926  -29.4210   20.7218 C   0  0  0  0  0  0  0  0  0  0  0  0
  -25.9921  -31.4569   22.0421 C   0  0  0  0  0  0  0  0  0  0  0  0
  -26.3790  -14.0368   21.3129 C   0  0  0  0  0  0  0  0  0  0  0  0
  -23.3799  -13.8416   22.5334 C   0  0  0  0  0  0  0  0  0  0  0  0
  -21.0267  -15.1111   24.6541 C   0  0  0  0  0  0  0  0  0  0  0  0
  -28.4299  -24.2672   19.6228 C   0  0  0  0  0  0  0  0  0  0  0  0
  -29.5827  -10.9901   18.7611 C   0  0  0  0  0  0  0  0  0  0  0  0
  -26.8398  -14.0882   23.7910 C   0  0  0  0  0  0  0  0  0  0  0  0
  -24.6691  -15.9504   23.0394 C   0  0  0  0  0  0  0  0  0  0  0  0
  -28.0681  -11.0917   18.9224 C   0  0  0  0  0  0  0  0  0  0  0  0
  -25.9334  -25.6063   17.4661 C   0  0  0  0  0  0  0  0  0  0  0  0
  -27.6031  -12.5279   18.7039 C   0  0  0  0  0  0  0  0  0  0  0  0
  -25.4189  -26.8338   18.2200 C   0  0  0  0  0  0  0  0  0  0  0  0
  -26.2744  -24.4615   18.4176 C   0  0  0  0  0  0  0  0  0  0  0  0
  -26.6890  -26.0446   20.2603 C   0  0  0  0  0  0  0  0  0  0  0  0
  -28.2231  -13.4723   19.7408 C   0  0  1  0  0  0  0  0  0  0  0  0
  -25.8412  -13.7540   22.6871 C   0  0  1  0  0  0  0  0  0  0  0  0
  -26.3847  -27.2449   19.3476 C   0  0  2  0  0  0  0  0  0  0  0  0
  -27.7655  -18.3718   18.4290 C   0  0  0  0  0  0  0  0  0  0  0  0
  -18.6577  -14.7616   25.4047 C   0  0  0  0  0  0  0  0  0  0  0  0
  -31.4862  -25.3087   21.3961 C   0  0  0  0  0  0  0  0  0  0  0  0
  -22.3755  -15.0808   19.9323 C   0  0  0  0  0  0  0  0  0  0  0  0
  -20.2097  -15.5767   21.0863 C   0  0  0  0  0  0  0  0  0  0  0  0
  -20.9626  -13.2143   20.8124 C   0  0  0  0  0  0  0  0  0  0  0  0
  -21.8622  -14.6242   27.4512 C   0  0  0  0  0  0  0  0  0  0  0  0
  -28.6880  -18.1550   19.6278 C   0  0  0  0  0  0  0  0  0  0  0  0
  -27.9863  -21.8296   22.9693 C   0  0  0  0  0  0  0  0  0  0  0  0
  -30.4500  -23.0640   21.9472 C   0  0  0  0  0  0  0  0  0  0  0  0
  -28.6035  -21.6400   24.3566 C   0  0  0  0  0  0  0  0  0  0  0  0
  -28.6783  -20.1805   24.7898 C   0  0  0  0  0  0  0  0  0  1  0  0
  -22.1441  -14.7067   22.4764 C   0  0  1  0  0  0  0  0  0  0  0  0
  -20.1202  -14.4406   25.6706 C   0  0  2  0  0  0  0  0  0  0  0  0
  -30.5482  -24.2065   20.9143 C   0  0  1  0  0  0  0  0  0  0  0  0
  -21.4475  -14.6545   21.0873 C   0  0  0  0  0  0  0  0  0  0  0  0
  -30.6977  -21.2533   20.3753 N   0  0  0  0  0  0  0  0  0  0  0  0
  -24.5323  -28.5808   20.2784 N   0  0  0  0  0  0  0  0  0  0  0  0
  -25.8598  -28.4360   20.1277 N   0  0  0  0  0  0  0  0  0  0  0  0
  -24.5864  -14.4976   22.8160 N   0  0  0  0  0  0  0  0  0  0  0  0
  -27.1950  -24.9171   19.4620 N   0  0  0  0  0  0  0  0  0  0  0  0
  -27.9415  -29.4290   20.6677 N   0  0  0  0  0  0  0  0  0  0  0  0
  -24.9352  -32.2120   22.5686 N   0  0  0  0  0  0  0  0  0  0  0  0
  -27.5385  -13.3490   21.0099 N   0  0  0  0  0  0  0  0  0  0  0  0
  -21.2971  -14.2822   23.5859 N   0  0  0  0  0  0  0  0  0  0  0  0
  -29.2452  -24.7659   20.6314 N   0  0  0  0  0  0  0  0  0  0  0  0
  -20.4589  -14.8981   27.0479 N   0  3  0  0  0  0  0  0  0  0  0  0
  -27.1717  -31.8459   22.2177 O   0  0  0  0  0  0  0  0  0  0  0  0
  -25.7850  -14.8200   20.5811 O   0  0  0  0  0  0  0  0  0  0  0  0
  -23.2774  -12.6274   22.3415 O   0  0  0  0  0  0  0  0  0  0  0  0
  -21.4493  -16.2569   24.7920 O   0  0  0  0  0  0  0  0  0  0  0  0
  -28.7820  -23.3167   18.9161 O   0  0  0  0  0  0  0  0  0  0  0  0
  -19.3941  -31.6473   22.4567 O   0  0  0  0  0  0  0  0  0  0  0  0
  -27.3585  -19.6380   24.8019 O   0  0  0  0  0  0  0  0  0  1  0  0
  -15.7179  -28.0310   24.4090 F   0  0  0  0  0  0  0  0  0  0  0  0
  -18.3405  -31.9273   24.9972 F   0  0  0  0  0  0  0  0  0  0  0  0
  1  2  1  0  0  0  0
  1  5  2  0  0  0  0
  2  6  2  0  0  0  0
  3  8  2  0  0  0  0
  3 17  1  0  0  0  0
  4  9  1  0  0  0  0
  4 17  2  0  0  0  0
  5 19  1  0  0  0  0
  6 21  1  0  0  0  0
  7 10  2  0  0  0  0
  7 20  1  0  0  0  0
  8 25  1  0  0  0  0
  9 25  2  0  0  0  0
 10 26  1  0  0  0  0
 11 12  2  0  0  0  0
 11 27  1  0  0  0  0
 12 28  1  0  0  0  0
 13 22  1  0  0  0  0
 13 26  2  0  0  0  0
 14 23  2  0  0  0  0
 14 24  1  0  0  0  0
 15 28  2  0  0  0  0
 15 29  1  0  0  0  0
 16 23  1  0  0  0  0
 16 66  2  0  0  0  0
 17 30  1  0  0  0  0
 18 30  1  0  0  0  0
 18 32  2  0  0  0  0
 18 33  1  0  0  0  0
 19 21  2  0  0  0  0
 19 38  1  0  0  0  0
 20 22  2  0  0  0  0
 20 39  1  0  0  0  0
 21 47  1  0  0  0  0
 22 40  1  0  0  0  0
 23 57  1  0  0  0  0
 24 31  2  0  0  0  0
 24 58  1  0  0  0  0
 25 82  1  0  0  0  0
 26 83  1  0  0  0  0
 27 29  2  0  0  0  0
 27 82  1  0  0  0  0
 28 84  1  0  0  0  0
 29 85  1  0  0  0  0
 30 67  2  0  0  0  0
 31 59  1  0  0  0  0
 31 66  1  0  0  0  0
 32 68  1  0  0  0  0
 32 71  1  0  0  0  0
 33 72  1  0  0  0  0
 33 77  2  0  0  0  0
 34 48  1  0  0  0  0
 34 73  1  0  0  0  0
 34 78  2  0  0  0  0
 35 62  1  0  0  0  0
 35 69  1  0  0  0  0
 35 79  2  0  0  0  0
 36 63  1  0  0  0  0
 36 74  1  0  0  0  0
 36 80  2  0  0  0  0
 37 70  1  0  0  0  0
 37 75  1  0  0  0  0
 37 81  2  0  0  0  0
 38 41  1  0  0  0  0
 39 48  1  0  0  0  0
 40 69  1  0  0  0  0
 41 43  1  0  0  0  0
 42 44  1  0  0  0  0
 42 45  1  0  0  0  0
 43 47  1  0  0  0  0
 44 49  1  0  0  0  0
 45 70  1  0  0  0  0
 46 49  1  0  0  0  0
 46 70  1  0  0  0  0
 47 73  1  0  0  0  0
 48 69  1  0  0  0  0
 49 68  1  0  0  0  0
 50 57  1  0  0  0  0
 51 63  1  0  0  0  0
 52 64  1  0  0  0  0
 53 65  1  0  0  0  0
 54 65  1  0  0  0  0
 55 65  1  0  0  0  0
 56 76  1  0  0  0  0
 58 60  1  0  0  0  0
 59 64  1  0  0  0  0
 60 61  1  0  0  0  0
 61 83  1  0  0  0  0
 62 65  1  0  0  0  0
 62 74  1  0  0  0  0
 63 76  1  0  0  0  0
 64 75  1  0  0  0  0
 67 68  1  0  0  0  0
M  CHG  1  76   1
M  ISO  4  37 100  61 101  75 100  83 101
M  END
> <Batch ID>
0083

> <Smiles>
CCc1cnc(CC(C)[100NH:0][100C:0](=O)N2CCCC(n3nc(-c4ccc(Oc5ccc(F)cc5F)cc4)c(C(N)=O)c3N)C2)c(CC[101CH2:1][101O:1]c2ccc3c(c2)CN(C(=O)C(NC(=O)C(C)NC)C(C)(C)C)C(C(=O)NC2CCCc4ccccc42)C3)c1

> <Shape>
0.266

> <Color>
0.068

> <Negative vol penalty>
0.000

$$$$

  -OEChem-04052318513D

 87 95  0     1  0  0  0  0  0999 V2000
  -22.8357  -30.6881   19.2195 C   0  0  0  0  0  0  0  0  0  0  0  0
  -23.1250  -29.3413   19.0250 C   0  0  0  0  0  0  0  0  0  0  0  0
  -22.9483  -10.0532   19.8831 C   0  0  0  0  0  0  0  0  0  0  0  0
  -23.9434   -9.6094   22.0394 C   0  0  0  0  0  0  0  0  0  0  0  0
  -23.8704  -31.5992   19.4274 C   0  0  0  0  0  0  0  0  0  0  0  0
  -24.4493  -28.9050   19.0371 C   0  0  0  0  0  0  0  0  0  0  0  0
  -26.5399  -23.5433   21.1317 C   0  0  0  0  0  0  0  0  0  0  0  0
  -22.1918   -8.8865   19.9920 C   0  0  0  0  0  0  0  0  0  0  0  0
  -23.1868   -8.4427   22.1484 C   0  0  0  0  0  0  0  0  0  0  0  0
  -26.8768  -22.3525   20.4897 C   0  0  0  0  0  0  0  0  0  0  0  0
  -19.3835   -7.8781   21.5824 C   0  0  0  0  0  0  0  0  0  0  0  0
  -18.0322   -7.9477   21.2435 C   0  0  0  0  0  0  0  0  0  0  0  0
  -29.1907  -23.0336   20.4535 C   0  0  0  0  0  0  0  0  0  0  0  0
  -28.4814  -19.3493   22.8358 C   0  0  0  0  0  0  0  0  0  0  0  0
  -18.3772   -6.2833   19.5265 C   0  0  0  0  0  0  0  0  0  0  0  0
  -23.8242  -10.4147   20.9067 C   0  0  0  0  0  0  0  0  0  0  0  0
  -24.2464  -12.9101   21.2265 C   0  0  0  0  0  0  0  0  0  0  0  0
  -25.2075  -31.1723   19.4517 C   0  0  0  0  0  0  0  0  0  0  0  0
  -27.5259  -24.4946   21.4302 C   0  0  0  0  0  0  0  0  0  0  0  0
  -25.5030  -29.8115   19.2442 C   0  0  0  0  0  0  0  0  0  0  0  0
  -28.8640  -24.2346   21.1017 C   0  0  0  0  0  0  0  0  0  0  0  0
  -28.8215  -19.5212   24.1730 C   0  0  0  0  0  0  0  0  0  0  0  0
  -29.1767  -18.4282   22.0603 C   0  0  0  0  0  0  0  0  0  0  0  0
  -22.3110   -8.0812   21.1247 C   0  0  0  0  0  0  0  0  0  0  0  0
  -28.2019  -22.0987   20.1479 C   0  0  0  0  0  0  0  0  0  0  0  0
  -20.2316   -7.0112   20.8933 C   0  0  0  0  0  0  0  0  0  0  0  0
  -17.5291   -7.1503   20.2156 C   0  0  0  0  0  0  0  0  0  0  0  0
  -19.7285   -6.2138   19.8654 C   0  0  0  0  0  0  0  0  0  0  0  0
  -24.6064  -11.6195   20.7945 C   0  0  0  0  0  0  0  0  0  0  0  0
  -29.8562  -18.7537   24.6829 C   0  0  0  0  0  0  0  0  0  0  0  0
  -30.1957  -17.7098   22.6647 C   0  0  0  0  0  0  0  0  0  0  0  0
  -25.3221  -13.6964   20.8929 C   0  0  0  0  0  0  0  0  0  0  0  0
  -23.0470  -13.3582   21.8717 C   0  0  0  0  0  0  0  0  0  0  0  0
  -28.0669  -27.5082   20.5762 C   0  0  0  0  0  0  0  0  0  0  0  0
  -30.8583  -14.4827   20.7462 C   0  0  0  0  0  0  0  0  0  0  0  0
  -30.4506  -27.2912   22.7655 C   0  0  0  0  0  0  0  0  0  0  0  0
  -32.6064  -25.3059   24.5141 C   0  0  0  0  0  0  0  0  0  0  0  0
  -26.2949  -32.2016   19.6328 C   0  0  0  0  0  0  0  0  0  0  0  0
  -27.1501  -25.7624   22.1470 C   0  0  0  0  0  0  0  0  0  0  0  0
  -29.9632  -25.2144   21.4183 C   0  0  0  0  0  0  0  0  0  0  0  0
  -27.6476  -31.5996   20.0046 C   0  0  0  0  0  0  0  0  0  0  0  0
  -29.3539  -12.7241   18.0106 C   0  0  0  0  0  0  0  0  0  0  0  0
  -27.9668  -30.4086   19.1065 C   0  0  0  0  0  0  0  0  0  0  0  0
  -27.9665  -12.3598   18.5375 C   0  0  0  0  0  0  0  0  0  0  0  0
  -30.4016  -12.6784   19.1183 C   0  0  0  0  0  0  0  0  0  0  0  0
  -28.6840  -13.1649   20.8314 C   0  0  0  0  0  0  0  0  0  0  0  0
  -26.9253  -29.2957   19.2752 C   0  0  1  0  0  0  0  0  0  0  0  0
  -28.1600  -26.8871   21.9412 C   0  0  1  0  0  0  0  0  0  0  0  0
  -27.5902  -13.2288   19.7507 C   0  0  2  0  0  0  0  0  0  0  0  0
  -28.0804  -20.5063   25.0093 C   0  0  0  0  0  0  0  0  0  0  0  0
  -30.7557  -14.5555   23.2037 C   0  0  0  0  0  0  0  0  0  0  0  0
  -34.3580  -24.6932   26.2035 C   0  0  0  0  0  0  0  0  0  0  0  0
  -29.0847  -18.5618   27.0733 C   0  0  0  0  0  0  0  0  0  0  0  0
  -30.7306  -20.3519   26.4230 C   0  0  0  0  0  0  0  0  0  0  0  0
  -31.4467  -17.9753   26.5645 C   0  0  0  0  0  0  0  0  0  0  0  0
  -32.3648  -28.2508   20.5918 C   0  0  0  0  0  0  0  0  0  0  0  0
  -34.2660  -27.4457   22.0080 C   0  0  0  0  0  0  0  0  0  0  0  0
  -32.7638  -29.2509   22.8490 C   0  0  0  0  0  0  0  0  0  0  0  0
  -30.5810  -24.8689   26.6274 C   0  0  0  0  0  0  0  0  0  0  0  0
  -28.8132  -18.2372   20.6095 C   0  0  0  0  0  0  0  0  0  0  0  0
  -30.9752  -16.7059   21.8799 C   0  0  0  0  0  0  0  0  0  0  0  0
  -29.7923  -18.8984   19.6370 C   0  0  0  0  0  0  0  0  0  0  0  0
  -29.8390  -20.4164   19.7661 C   0  0  0  0  0  0  0  0  0  1  0  0
  -30.3702  -15.2889   21.9234 C   0  0  1  0  0  0  0  0  0  0  0  0
  -31.9019  -26.8772   22.7283 C   0  0  1  0  0  0  0  0  0  0  0  0
  -32.9637  -25.2612   25.9888 C   0  0  2  0  0  0  0  0  0  0  0  0
  -30.2663  -18.8960   26.1121 C   0  0  0  0  0  0  0  0  0  0  0  0
  -32.8034  -27.9383   22.0364 C   0  0  0  0  0  0  0  0  0  0  0  0
  -25.8162  -11.5837   20.2294 N   0  0  0  0  0  0  0  0  0  0  0  0
  -30.5546  -17.8492   23.9607 N   0  0  0  0  0  0  0  0  0  0  0  0
  -26.2256  -12.8615   20.3040 N   0  0  0  0  0  0  0  0  0  0  0  0
  -29.5444  -26.4423   22.1143 N   0  0  0  0  0  0  0  0  0  0  0  0
  -29.9968  -13.4984   20.2616 N   0  0  0  0  0  0  0  0  0  0  0  0
  -25.5737  -15.0135   21.0486 N   0  0  0  0  0  0  0  0  0  0  0  0
  -22.0424  -12.4188   22.1411 N   0  0  0  0  0  0  0  0  0  0  0  0
  -27.1694  -28.5558   20.4948 N   0  0  0  0  0  0  0  0  0  0  0  0
  -32.2774  -26.5814   24.1067 N   0  0  0  0  0  0  0  0  0  0  0  0
  -31.9906  -24.4117   26.7321 N   0  3  0  0  0  0  0  0  0  0  0  0
  -22.8645  -14.5591   22.1848 O   0  0  0  0  0  0  0  0  0  0  0  0
  -28.7592  -27.0705   19.6647 O   0  0  0  0  0  0  0  0  0  0  0  0
  -31.9710  -14.7241   20.2711 O   0  0  0  0  0  0  0  0  0  0  0  0
  -30.1319  -28.3258   23.3568 O   0  0  0  0  0  0  0  0  0  0  0  0
  -32.6216  -24.3096   23.7946 O   0  0  0  0  0  0  0  0  0  0  0  0
  -21.5728   -6.9427   21.2315 O   0  0  0  0  0  0  0  0  0  0  0  0
  -28.5334  -20.9375   19.5206 O   0  0  0  0  0  0  0  0  0  1  0  0
  -16.2311   -7.2160   19.8913 F   0  0  0  0  0  0  0  0  0  0  0  0
  -20.5382   -5.3782   19.2006 F   0  0  0  0  0  0  0  0  0  0  0  0
  1  2  1  0  0  0  0
  1  5  2  0  0  0  0
  2  6  2  0  0  0  0
  3  8  2  0  0  0  0
  3 16  1  0  0  0  0
  4  9  1  0  0  0  0
  4 16  2  0  0  0  0
  5 18  1  0  0  0  0
  6 20  1  0  0  0  0
  7 10  2  0  0  0  0
  7 19  1  0  0  0  0
  8 24  1  0  0  0  0
  9 24  2  0  0  0  0
 10 25  1  0  0  0  0
 11 12  2  0  0  0  0
 11 26  1  0  0  0  0
 12 27  1  0  0  0  0
 13 21  1  0  0  0  0
 13 25  2  0  0  0  0
 14 22  2  0  0  0  0
 14 23  1  0  0  0  0
 15 27  2  0  0  0  0
 15 28  1  0  0  0  0
 16 29  1  0  0  0  0
 17 29  1  0  0  0  0
 17 32  2  0  0  0  0
 17 33  1  0  0  0  0
 18 20  2  0  0  0  0
 18 38  1  0  0  0  0
 19 21  2  0  0  0  0
 19 39  1  0  0  0  0
 20 47  1  0  0  0  0
 21 40  1  0  0  0  0
 22 30  1  0  0  0  0
 22 50  1  0  0  0  0
 23 31  2  0  0  0  0
 23 60  1  0  0  0  0
 24 84  1  0  0  0  0
 25 85  1  0  0  0  0
 26 28  2  0  0  0  0
 26 84  1  0  0  0  0
 27 86  1  0  0  0  0
 28 87  1  0  0  0  0
 29 69  2  0  0  0  0
 30 67  1  0  0  0  0
 30 70  2  0  0  0  0
 31 61  1  0  0  0  0
 31 70  1  0  0  0  0
 32 71  1  0  0  0  0
 32 74  1  0  0  0  0
 33 75  1  0  0  0  0
 33 79  2  0  0  0  0
 34 48  1  0  0  0  0
 34 76  1  0  0  0  0
 34 80  2  0  0  0  0
 35 64  1  0  0  0  0
 35 73  1  0  0  0  0
 35 81  2  0  0  0  0
 36 65  1  0  0  0  0
 36 72  1  0  0  0  0
 36 82  2  0  0  0  0
 37 66  1  0  0  0  0
 37 77  1  0  0  0  0
 37 83  2  0  0  0  0
 38 41  1  0  0  0  0
 39 48  1  0  0  0  0
 40 72  1  0  0  0  0
 41 43  1  0  0  0  0
 42 44  1  0  0  0  0
 42 45  1  0  0  0  0
 43 47  1  0  0  0  0
 44 49  1  0  0  0  0
 45 73  1  0  0  0  0
 46 49  1  0  0  0  0
 46 73  1  0  0  0  0
 47 76  1  0  0  0  0
 48 72  1  0  0  0  0
 49 71  1  0  0  0  0
 51 64  1  0  0  0  0
 52 66  1  0  0  0  0
 53 67  1  0  0  0  0
 54 67  1  0  0  0  0
 55 67  1  0  0  0  0
 56 68  1  0  0  0  0
 57 68  1  0  0  0  0
 58 68  1  0  0  0  0
 59 78  1  0  0  0  0
 60 62  1  0  0  0  0
 61 64  1  0  0  0  0
 62 63  1  0  0  0  0
 63 85  1  0  0  0  0
 65 68  1  0  0  0  0
 65 77  1  0  0  0  0
 66 78  1  0  0  0  0
 69 71  1  0  0  0  0
M  CHG  1  78   1
M  ISO  4  35 100  63 101  64 100  85 101
M  END
> <Batch ID>
0083

> <Smiles>
CNC(C)C(=O)NC(C(=O)N1Cc2cc([101O:1][101CH2:1]CCc3cc(C)c(C(C)(C)C)nc3C[100CH:0](C)[100C:0](=O)N3CCCC(n4nc(-c5ccc(Oc6ccc(F)cc6F)cc5)c(C(N)=O)c4N)C3)ccc2CC1C(=O)NC1CCCc2ccccc21)C(C)(C)C

> <Shape>
0.257

> <Color>
0.188

> <Negative vol penalty>
0.000

$$$$

  -OEChem-04052318513D

 84 92  0     1  0  0  0  0  0999 V2000
  -27.6826  -23.5914   17.8430 C   0  0  0  0  0  0  0  0  0  0  0  0
  -26.4865  -23.9695   18.4445 C   0  0  0  0  0  0  0  0  0  0  0  0
  -28.3887  -15.2253   20.7811 C   0  0  0  0  0  0  0  0  0  0  0  0
  -26.2816  -15.3583   19.6066 C   0  0  0  0  0  0  0  0  0  0  0  0
  -28.8934  -24.0757   18.3365 C   0  0  0  0  0  0  0  0  0  0  0  0
  -26.5006  -24.8312   19.5407 C   0  0  0  0  0  0  0  0  0  0  0  0
  -22.9996  -28.4737   19.1933 C   0  0  0  0  0  0  0  0  0  0  0  0
  -28.1643  -13.8714   21.0304 C   0  0  0  0  0  0  0  0  0  0  0  0
  -26.0572  -14.0043   19.8558 C   0  0  0  0  0  0  0  0  0  0  0  0
  -21.6842  -28.1234   19.4947 C   0  0  0  0  0  0  0  0  0  0  0  0
  -25.0108  -12.0860   22.4357 C   0  0  0  0  0  0  0  0  0  0  0  0
  -23.7418  -11.7096   22.8757 C   0  0  0  0  0  0  0  0  0  0  0  0
  -21.9370  -29.0881   21.6912 C   0  0  0  0  0  0  0  0  0  0  0  0
  -23.4896  -10.2923   20.9354 C   0  0  0  0  0  0  0  0  0  0  0  0
  -19.7245  -24.6158   21.9990 C   0  0  0  0  0  0  0  0  0  0  0  0
  -27.4473  -15.9688   20.0693 C   0  0  0  0  0  0  0  0  0  0  0  0
  -28.3331  -17.9307   18.7004 C   0  0  0  0  0  0  0  0  0  0  0  0
  -28.9216  -24.9515   19.4332 C   0  0  0  0  0  0  0  0  0  0  0  0
  -23.7983  -29.1252   20.1440 C   0  0  0  0  0  0  0  0  0  0  0  0
  -27.7129  -25.3266   20.0502 C   0  0  0  0  0  0  0  0  0  0  0  0
  -23.2613  -29.4479   21.3985 C   0  0  0  0  0  0  0  0  0  0  0  0
  -20.0299  -23.3287   21.6152 C   0  0  0  0  0  0  0  0  0  0  0  0
  -18.9013  -22.8118   20.9324 C   0  0  0  0  0  0  0  0  0  0  0  0
  -26.9987  -13.2609   20.5677 C   0  0  0  0  0  0  0  0  0  0  0  0
  -21.1536  -28.4280   20.7448 C   0  0  0  0  0  0  0  0  0  0  0  0
  -25.5192  -11.5656   21.2456 C   0  0  0  0  0  0  0  0  0  0  0  0
  -22.9812  -10.8127   22.1255 C   0  0  0  0  0  0  0  0  0  0  0  0
  -24.7586  -10.6687   20.4954 C   0  0  0  0  0  0  0  0  0  0  0  0
  -27.6782  -17.3676   19.8120 C   0  0  0  0  0  0  0  0  0  0  0  0
  -17.9407  -23.7989   20.9195 C   0  0  0  0  0  0  0  0  0  0  0  0
  -28.2914  -19.2847   18.9268 C   0  0  0  0  0  0  0  0  0  0  0  0
  -28.9262  -17.2873   17.5646 C   0  0  0  0  0  0  0  0  0  0  0  0
  -26.5043  -28.4261   21.6582 C   0  0  0  0  0  0  0  0  0  0  0  0
  -26.2118  -31.4604   22.7669 C   0  0  0  0  0  0  0  0  0  0  0  0
  -24.1717  -34.1053   23.4666 C   0  0  0  0  0  0  0  0  0  0  0  0
  -24.6142  -22.7744   22.1129 C   0  0  0  0  0  0  0  0  0  0  0  0
  -30.2576  -25.4113   19.9608 C   0  0  0  0  0  0  0  0  0  0  0  0
  -25.2068  -29.5202   19.7939 C   0  0  0  0  0  0  0  0  0  0  0  0
  -24.0708  -30.1646   22.4470 C   0  0  0  0  0  0  0  0  0  0  0  0
  -30.1625  -26.6172   20.8919 C   0  0  0  0  0  0  0  0  0  0  0  0
  -28.1436  -22.4839   22.4813 C   0  0  0  0  0  0  0  0  0  0  0  0
  -29.0487  -26.4155   21.9145 C   0  0  0  0  0  0  0  0  0  0  0  0
  -28.4836  -21.1905   21.7387 C   0  0  0  0  0  0  0  0  0  0  0  0
  -26.8028  -22.3832   23.2053 C   0  0  0  0  0  0  0  0  0  0  0  0
  -26.0099  -20.6770   21.6134 C   0  0  0  0  0  0  0  0  0  0  0  0
  -27.6855  -26.2793   21.2257 C   0  0  1  0  0  0  0  0  0  0  0  0
  -26.0928  -29.7223   21.0193 C   0  0  1  0  0  0  0  0  0  0  0  0
  -27.3268  -20.7497   20.8218 C   0  0  2  0  0  0  0  0  0  0  0  0
  -16.5794  -23.7977   20.3432 C   0  0  0  0  0  0  0  0  0  0  0  0
  -17.9271  -20.5168   21.1972 C   0  0  0  0  0  0  0  0  0  0  0  0
  -24.2159  -36.4342   24.4001 C   0  0  0  0  0  0  0  0  0  0  0  0
  -26.4781  -30.3229   25.5856 C   0  0  0  0  0  0  0  0  0  0  0  0
  -25.5795  -32.4866   26.4685 C   0  0  0  0  0  0  0  0  0  0  0  0
  -27.7265  -32.4551   25.1989 C   0  0  0  0  0  0  0  0  0  0  0  0
  -23.1642  -35.2633   20.9362 C   0  0  0  0  0  0  0  0  0  0  0  0
  -21.3030  -22.6269   21.8742 C   0  0  0  0  0  0  0  0  0  0  0  0
  -18.7753  -21.4632   20.3420 C   0  0  0  0  0  0  0  0  0  0  0  0
  -17.7306  -27.1126   20.5622 C   0  0  0  0  0  0  0  0  0  0  0  0
  -17.7405  -26.2018   21.7919 C   0  0  0  0  0  0  0  0  0  0  0  0
  -22.4483  -23.0324   20.9290 C   0  0  0  0  0  0  0  0  0  0  0  0
  -19.1242  -27.4180   20.0255 C   0  0  0  0  0  0  0  0  0  1  0  0
  -25.5499  -32.1029   23.9620 C   0  0  1  0  0  0  0  0  0  0  0  0
  -24.2916  -35.5834   23.1419 C   0  0  2  0  0  0  0  0  0  0  0  0
  -26.3186  -31.8266   25.2849 C   0  0  0  0  0  0  0  0  0  0  0  0
  -27.2517  -18.2886   20.6803 N   0  0  0  0  0  0  0  0  0  0  0  0
  -18.4522  -24.8911   21.5705 N   0  0  0  0  0  0  0  0  0  0  0  0
  -27.6396  -19.4441   20.1143 N   0  0  0  0  0  0  0  0  0  0  0  0
  -25.4448  -30.5241   22.0592 N   0  0  0  0  0  0  0  0  0  0  0  0
  -25.7482  -21.9625   22.2797 N   0  0  0  0  0  0  0  0  0  0  0  0
  -28.7490  -20.3426   18.2241 N   0  0  0  0  0  0  0  0  0  0  0  0
  -28.8805  -15.8885   17.4897 N   0  0  0  0  0  0  0  0  0  0  0  0
  -27.1950  -27.5773   20.8144 N   0  0  0  0  0  0  0  0  0  0  0  0
  -25.4075  -33.5182   23.6379 N   0  0  0  0  0  0  0  0  0  0  0  0
  -23.6657  -22.3054   21.2123 N   0  0  0  0  0  0  0  0  0  0  0  0
  -23.1947  -36.0027   22.2243 N   0  3  0  0  0  0  0  0  0  0  0  0
  -29.4946  -17.9327   16.6514 O   0  0  0  0  0  0  0  0  0  0  0  0
  -26.2177  -28.2124   22.8303 O   0  0  0  0  0  0  0  0  0  0  0  0
  -27.3643  -31.7830   22.4680 O   0  0  0  0  0  0  0  0  0  0  0  0
  -23.0899  -33.5300   23.5626 O   0  0  0  0  0  0  0  0  0  0  0  0
  -24.4609  -23.8411   22.7177 O   0  0  0  0  0  0  0  0  0  0  0  0
  -26.7795  -11.9397   20.8105 O   0  0  0  0  0  0  0  0  0  0  0  0
  -19.8702  -28.0866   21.0418 O   0  0  0  0  0  0  0  0  0  1  0  0
  -21.7632  -10.4502   22.5489 F   0  0  0  0  0  0  0  0  0  0  0  0
  -25.2421  -10.1645   19.3518 F   0  0  0  0  0  0  0  0  0  0  0  0
  1  2  1  0  0  0  0
  1  5  2  0  0  0  0
  2  6  2  0  0  0  0
  3  8  2  0  0  0  0
  3 16  1  0  0  0  0
  4  9  1  0  0  0  0
  4 16  2  0  0  0  0
  5 18  1  0  0  0  0
  6 20  1  0  0  0  0
  7 10  2  0  0  0  0
  7 19  1  0  0  0  0
  8 24  1  0  0  0  0
  9 24  2  0  0  0  0
 10 25  1  0  0  0  0
 11 12  2  0  0  0  0
 11 26  1  0  0  0  0
 12 27  1  0  0  0  0
 13 21  1  0  0  0  0
 13 25  2  0  0  0  0
 14 27  2  0  0  0  0
 14 28  1  0  0  0  0
 15 22  2  0  0  0  0
 15 66  1  0  0  0  0
 16 29  1  0  0  0  0
 17 29  1  0  0  0  0
 17 31  2  0  0  0  0
 17 32  1  0  0  0  0
 18 20  2  0  0  0  0
 18 37  1  0  0  0  0
 19 21  2  0  0  0  0
 19 38  1  0  0  0  0
 20 46  1  0  0  0  0
 21 39  1  0  0  0  0
 22 23  1  0  0  0  0
 22 56  1  0  0  0  0
 23 30  2  0  0  0  0
 23 57  1  0  0  0  0
 24 81  1  0  0  0  0
 25 82  1  0  0  0  0
 26 28  2  0  0  0  0
 26 81  1  0  0  0  0
 27 83  1  0  0  0  0
 28 84  1  0  0  0  0
 29 65  2  0  0  0  0
 30 49  1  0  0  0  0
 30 66  1  0  0  0  0
 31 67  1  0  0  0  0
 31 70  1  0  0  0  0
 32 71  1  0  0  0  0
 32 76  2  0  0  0  0
 33 47  1  0  0  0  0
 33 72  1  0  0  0  0
 33 77  2  0  0  0  0
 34 62  1  0  0  0  0
 34 68  1  0  0  0  0
 34 78  2  0  0  0  0
 35 63  1  0  0  0  0
 35 73  1  0  0  0  0
 35 79  2  0  0  0  0
 36 69  1  0  0  0  0
 36 74  1  0  0  0  0
 36 80  2  0  0  0  0
 37 40  1  0  0  0  0
 38 47  1  0  0  0  0
 39 68  1  0  0  0  0
 40 42  1  0  0  0  0
 41 43  1  0  0  0  0
 41 44  1  0  0  0  0
 42 46  1  0  0  0  0
 43 48  1  0  0  0  0
 44 69  1  0  0  0  0
 45 48  1  0  0  0  0
 45 69  1  0  0  0  0
 46 72  1  0  0  0  0
 47 68  1  0  0  0  0
 48 67  1  0  0  0  0
 50 57  1  0  0  0  0
 51 63  1  0  0  0  0
 52 64  1  0  0  0  0
 53 64  1  0  0  0  0
 54 64  1  0  0  0  0
 55 75  1  0  0  0  0
 56 60  1  0  0  0  0
 58 59  1  0  0  0  0
 58 61  1  0  0  0  0
 59 66  1  0  0  0  0
 60 74  1  0  0  0  0
 61 82  1  0  0  0  0
 62 64  1  0  0  0  0
 62 73  1  0  0  0  0
 63 75  1  0  0  0  0
 65 67  1  0  0  0  0
M  CHG  1  75   1
M  ISO  4  36 100  61 101  74 100  82 101
M  END
> <Batch ID>
0083

> <Smiles>
CCc1c(CC[100NH:0][100C:0](=O)N2CCCC(n3nc(-c4ccc(Oc5ccc(F)cc5F)cc4)c(C(N)=O)c3N)C2)cn(CC[101CH2:1][101O:1]c2ccc3c(c2)CN(C(=O)C(NC(=O)C(C)NC)C(C)(C)C)C(C(=O)NC2CCCc4ccccc42)C3)c1C

> <Shape>
0.285

> <Color>
0.055

> <Negative vol penalty>
0.000

$$$$

  -OEChem-04052318513D

 88 96  0     1  0  0  0  0  0999 V2000
  -27.6625  -24.0624   17.3138 C   0  0  0  0  0  0  0  0  0  0  0  0
  -26.4913  -24.3771   17.9954 C   0  0  0  0  0  0  0  0  0  0  0  0
  -26.9909  -12.9995   19.8929 C   0  0  0  0  0  0  0  0  0  0  0  0
  -24.7084  -13.7265   20.2077 C   0  0  0  0  0  0  0  0  0  0  0  0
  -28.8877  -24.5379   17.7792 C   0  0  0  0  0  0  0  0  0  0  0  0
  -26.5448  -25.1667   19.1435 C   0  0  0  0  0  0  0  0  0  0  0  0
  -22.9704  -28.7536   19.2026 C   0  0  0  0  0  0  0  0  0  0  0  0
  -26.7220  -11.8402   20.6205 C   0  0  0  0  0  0  0  0  0  0  0  0
  -24.4395  -12.5671   20.9352 C   0  0  0  0  0  0  0  0  0  0  0  0
  -21.6775  -28.3586   19.5432 C   0  0  0  0  0  0  0  0  0  0  0  0
  -23.0550   -9.6287   22.5682 C   0  0  0  0  0  0  0  0  0  0  0  0
  -21.8731   -8.9442   22.2853 C   0  0  0  0  0  0  0  0  0  0  0  0
  -22.0218  -29.1849   21.7833 C   0  0  0  0  0  0  0  0  0  0  0  0
  -22.6016   -8.6293   20.0034 C   0  0  0  0  0  0  0  0  0  0  0  0
  -20.9004  -23.0621   21.2764 C   0  0  0  0  0  0  0  0  0  0  0  0
  -25.9841  -13.9427   19.6866 C   0  0  0  0  0  0  0  0  0  0  0  0
  -26.1277  -15.3231   17.5461 C   0  0  0  0  0  0  0  0  0  0  0  0
  -28.9552  -25.3418   18.9280 C   0  0  0  0  0  0  0  0  0  0  0  0
  -23.8040  -29.3584   20.1543 C   0  0  0  0  0  0  0  0  0  0  0  0
  -27.7722  -25.6524   19.6254 C   0  0  0  0  0  0  0  0  0  0  0  0
  -23.3240  -29.5890   21.4515 C   0  0  0  0  0  0  0  0  0  0  0  0
  -22.0031  -22.9025   22.1000 C   0  0  0  0  0  0  0  0  0  0  0  0
  -22.1375  -23.7651   23.1822 C   0  0  0  0  0  0  0  0  0  0  0  0
  -21.1786  -24.7472   23.4046 C   0  0  0  0  0  0  0  0  0  0  0  0
  -25.4463  -11.6240   21.1416 C   0  0  0  0  0  0  0  0  0  0  0  0
  -21.2040  -28.5715   20.8346 C   0  0  0  0  0  0  0  0  0  0  0  0
  -24.0102   -9.8136   21.5687 C   0  0  0  0  0  0  0  0  0  0  0  0
  -21.6464   -8.4444   21.0029 C   0  0  0  0  0  0  0  0  0  0  0  0
  -23.7836   -9.3139   20.2863 C   0  0  0  0  0  0  0  0  0  0  0  0
  -26.2614  -15.1407   18.9356 C   0  0  0  0  0  0  0  0  0  0  0  0
  -20.1129  -24.8244   22.5224 C   0  0  0  0  0  0  0  0  0  0  0  0
  -26.5117  -16.6243   17.3321 C   0  0  0  0  0  0  0  0  0  0  0  0
  -25.6950  -14.3990   16.5390 C   0  0  0  0  0  0  0  0  0  0  0  0
  -26.5924  -28.6173   21.4881 C   0  0  0  0  0  0  0  0  0  0  0  0
  -26.3040  -31.5678   22.8050 C   0  0  0  0  0  0  0  0  0  0  0  0
  -24.2568  -34.1211   23.7727 C   0  0  0  0  0  0  0  0  0  0  0  0
  -26.5832  -21.4826   20.8312 C   0  0  0  0  0  0  0  0  0  0  0  0
  -30.3077  -25.7932   19.4197 C   0  0  0  0  0  0  0  0  0  0  0  0
  -25.1867  -29.8030   19.7636 C   0  0  0  0  0  0  0  0  0  0  0  0
  -24.1719  -30.2528   22.5045 C   0  0  0  0  0  0  0  0  0  0  0  0
  -30.2383  -26.9346   20.4310 C   0  0  0  0  0  0  0  0  0  0  0  0
  -29.3509  -20.0334   19.1234 C   0  0  0  0  0  0  0  0  0  0  0  0
  -29.1797  -26.6455   21.4904 C   0  0  0  0  0  0  0  0  0  0  0  0
  -28.8609  -18.6316   18.7562 C   0  0  0  0  0  0  0  0  0  0  0  0
  -28.8209  -20.4779   20.4848 C   0  0  0  0  0  0  0  0  0  0  0  0
  -26.8662  -18.9924   20.2695 C   0  0  0  0  0  0  0  0  0  0  0  0
  -27.7867  -26.5267   20.8604 C   0  0  1  0  0  0  0  0  0  0  0  0
  -26.1284  -29.9435   20.9556 C   0  0  1  0  0  0  0  0  0  0  0  0
  -27.3291  -18.5228   18.8797 C   0  0  2  0  0  0  0  0  0  0  0  0
  -23.3094  -23.6353   24.1017 C   0  0  0  0  0  0  0  0  0  0  0  0
  -24.3079  -36.3856   24.8529 C   0  0  0  0  0  0  0  0  0  0  0  0
  -19.4547  -25.7753   28.0113 C   0  0  0  0  0  0  0  0  0  0  0  0
  -21.8557  -26.2747   27.5152 C   0  0  0  0  0  0  0  0  0  0  0  0
  -26.7276  -30.2569   25.5276 C   0  0  0  0  0  0  0  0  0  0  0  0
  -25.8374  -32.3410   26.5917 C   0  0  0  0  0  0  0  0  0  0  0  0
  -27.9197  -32.4339   25.2212 C   0  0  0  0  0  0  0  0  0  0  0  0
  -23.1068  -35.4190   21.3745 C   0  0  0  0  0  0  0  0  0  0  0  0
  -22.9991  -21.8325   21.8131 C   0  0  0  0  0  0  0  0  0  0  0  0
  -21.2936  -25.6866   24.5578 C   0  0  0  0  0  0  0  0  0  0  0  0
  -19.0422  -25.8691   22.7112 C   0  0  0  0  0  0  0  0  0  0  0  0
  -20.3377  -25.3111   25.7052 C   0  0  0  0  0  0  0  0  0  0  0  0
  -18.4145  -26.3513   21.4016 C   0  0  0  0  0  0  0  0  0  0  0  0
  -24.2762  -22.3454   21.1356 C   0  0  0  0  0  0  0  0  0  0  0  0
  -19.4036  -27.0581   20.4822 C   0  0  0  0  0  0  0  0  0  1  0  0
  -25.6910  -32.1187   24.0698 C   0  0  1  0  0  0  0  0  0  0  0  0
  -24.3358  -35.6190   23.5397 C   0  0  2  0  0  0  0  0  0  0  0  0
  -20.4415  -26.2331   26.9344 C   0  0  0  0  0  0  0  0  0  0  0  0
  -26.5284  -31.7734   25.3335 C   0  0  0  0  0  0  0  0  0  0  0  0
  -19.9484  -24.0042   21.4604 N   0  0  0  0  0  0  0  0  0  0  0  0
  -26.6966  -16.2382   19.5602 N   0  0  0  0  0  0  0  0  0  0  0  0
  -26.8397  -17.1227   18.5586 N   0  0  0  0  0  0  0  0  0  0  0  0
  -25.5190  -30.6638   22.0755 N   0  0  0  0  0  0  0  0  0  0  0  0
  -27.3623  -20.3518   20.5356 N   0  0  0  0  0  0  0  0  0  0  0  0
  -26.5976  -17.3794   16.2163 N   0  0  0  0  0  0  0  0  0  0  0  0
  -25.3368  -13.1021   16.9317 N   0  0  0  0  0  0  0  0  0  0  0  0
  -27.2549  -27.8385   20.5587 N   0  0  0  0  0  0  0  0  0  0  0  0
  -25.5092  -33.5488   23.8459 N   0  0  0  0  0  0  0  0  0  0  0  0
  -25.2091  -21.2774   20.8530 N   0  0  0  0  0  0  0  0  0  0  0  0
  -23.1883  -36.0746   22.7051 N   0  3  0  0  0  0  0  0  0  0  0  0
  -25.6435  -14.7089   15.3246 O   0  0  0  0  0  0  0  0  0  0  0  0
  -26.3674  -28.3231   22.6563 O   0  0  0  0  0  0  0  0  0  0  0  0
  -27.4349  -31.9317   22.4728 O   0  0  0  0  0  0  0  0  0  0  0  0
  -23.1908  -33.5194   23.8828 O   0  0  0  0  0  0  0  0  0  0  0  0
  -27.0754  -22.5940   21.0534 O   0  0  0  0  0  0  0  0  0  0  0  0
  -25.1835  -10.4927   21.8513 O   0  0  0  0  0  0  0  0  0  0  0  0
  -19.9427  -28.1863   21.1699 O   0  0  0  0  0  0  0  0  0  1  0  0
  -20.5120   -7.7857   20.7318 F   0  0  0  0  0  0  0  0  0  0  0  0
  -24.6981   -9.4874   19.3223 F   0  0  0  0  0  0  0  0  0  0  0  0
  1  2  1  0  0  0  0
  1  5  2  0  0  0  0
  2  6  2  0  0  0  0
  3  8  2  0  0  0  0
  3 16  1  0  0  0  0
  4  9  1  0  0  0  0
  4 16  2  0  0  0  0
  5 18  1  0  0  0  0
  6 20  1  0  0  0  0
  7 10  2  0  0  0  0
  7 19  1  0  0  0  0
  8 25  1  0  0  0  0
  9 25  2  0  0  0  0
 10 26  1  0  0  0  0
 11 12  2  0  0  0  0
 11 27  1  0  0  0  0
 12 28  1  0  0  0  0
 13 21  1  0  0  0  0
 13 26  2  0  0  0  0
 14 28  2  0  0  0  0
 14 29  1  0  0  0  0
 15 22  1  0  0  0  0
 15 69  2  0  0  0  0
 16 30  1  0  0  0  0
 17 30  1  0  0  0  0
 17 32  2  0  0  0  0
 17 33  1  0  0  0  0
 18 20  2  0  0  0  0
 18 38  1  0  0  0  0
 19 21  2  0  0  0  0
 19 39  1  0  0  0  0
 20 47  1  0  0  0  0
 21 40  1  0  0  0  0
 22 23  2  0  0  0  0
 22 58  1  0  0  0  0
 23 24  1  0  0  0  0
 23 50  1  0  0  0  0
 24 31  2  0  0  0  0
 24 59  1  0  0  0  0
 25 85  1  0  0  0  0
 26 86  1  0  0  0  0
 27 29  2  0  0  0  0
 27 85  1  0  0  0  0
 28 87  1  0  0  0  0
 29 88  1  0  0  0  0
 30 70  2  0  0  0  0
 31 60  1  0  0  0  0
 31 69  1  0  0  0  0
 32 71  1  0  0  0  0
 32 74  1  0  0  0  0
 33 75  1  0  0  0  0
 33 80  2  0  0  0  0
 34 48  1  0  0  0  0
 34 76  1  0  0  0  0
 34 81  2  0  0  0  0
 35 65  1  0  0  0  0
 35 72  1  0  0  0  0
 35 82  2  0  0  0  0
 36 66  1  0  0  0  0
 36 77  1  0  0  0  0
 36 83  2  0  0  0  0
 37 73  1  0  0  0  0
 37 78  1  0  0  0  0
 37 84  2  0  0  0  0
 38 41  1  0  0  0  0
 39 48  1  0  0  0  0
 40 72  1  0  0  0  0
 41 43  1  0  0  0  0
 42 44  1  0  0  0  0
 42 45  1  0  0  0  0
 43 47  1  0  0  0  0
 44 49  1  0  0  0  0
 45 73  1  0  0  0  0
 46 49  1  0  0  0  0
 46 73  1  0  0  0  0
 47 76  1  0  0  0  0
 48 72  1  0  0  0  0
 49 71  1  0  0  0  0
 51 66  1  0  0  0  0
 52 67  1  0  0  0  0
 53 67  1  0  0  0  0
 54 68  1  0  0  0  0
 55 68  1  0  0  0  0
 56 68  1  0  0  0  0
 57 79  1  0  0  0  0
 58 63  1  0  0  0  0
 59 61  1  0  0  0  0
 60 62  1  0  0  0  0
 61 67  1  0  0  0  0
 62 64  1  0  0  0  0
 63 78  1  0  0  0  0
 64 86  1  0  0  0  0
 65 68  1  0  0  0  0
 65 77  1  0  0  0  0
 66 79  1  0  0  0  0
 70 71  1  0  0  0  0
M  CHG  1  79   1
M  ISO  4  37 100  64 101  78 100  86 101
M  END
> <Batch ID>
0083

> <Smiles>
CNC(C)C(=O)NC(C(=O)N1Cc2cc([101O:1][101CH2:1]CCc3ncc(CC[100NH:0][100C:0](=O)N4CCCC(n5nc(-c6ccc(Oc7ccc(F)cc7F)cc6)c(C(N)=O)c5N)C4)c(C)c3CCC(C)C)ccc2CC1C(=O)NC1CCCc2ccccc21)C(C)(C)C

> <Shape>
0.310

> <Color>
0.085

> <Negative vol penalty>
0.000

$$$$

  -OEChem-04052318513D

 85 93  0     1  0  0  0  0  0999 V2000
  -28.6766  -16.9683   18.4643 C   0  0  0  0  0  0  0  0  0  0  0  0
  -27.8609  -18.0486   18.1471 C   0  0  0  0  0  0  0  0  0  0  0  0
  -23.9612  -18.1791   22.3425 C   0  0  0  0  0  0  0  0  0  0  0  0
  -23.0474  -18.3993   20.1168 C   0  0  0  0  0  0  0  0  0  0  0  0
  -29.5986  -17.0775   19.5031 C   0  0  0  0  0  0  0  0  0  0  0  0
  -27.9752  -19.2422   18.8606 C   0  0  0  0  0  0  0  0  0  0  0  0
  -24.7258  -24.3856   18.5233 C   0  0  0  0  0  0  0  0  0  0  0  0
  -24.6263  -17.0162   21.9543 C   0  0  0  0  0  0  0  0  0  0  0  0
  -23.7126  -17.2363   19.7286 C   0  0  0  0  0  0  0  0  0  0  0  0
  -23.5991  -24.9330   19.1353 C   0  0  0  0  0  0  0  0  0  0  0  0
  -23.8668  -13.7600   21.4593 C   0  0  0  0  0  0  0  0  0  0  0  0
  -23.8119  -12.6646   22.3210 C   0  0  0  0  0  0  0  0  0  0  0  0
  -25.0231  -26.1457   20.6588 C   0  0  0  0  0  0  0  0  0  0  0  0
  -20.4422  -26.9251   23.1565 C   0  0  0  0  0  0  0  0  0  0  0  0
  -26.2202  -12.6934   22.5111 C   0  0  0  0  0  0  0  0  0  0  0  0
  -19.0039  -27.7204   21.6174 C   0  0  0  0  0  0  0  0  0  0  0  0
  -23.1717  -18.8707   21.4237 C   0  0  0  0  0  0  0  0  0  0  0  0
  -22.9682  -21.3918   21.7557 C   0  0  0  0  0  0  0  0  0  0  0  0
  -29.7150  -18.2692   20.2374 C   0  0  0  0  0  0  0  0  0  0  0  0
  -26.0115  -24.7062   18.9823 C   0  0  0  0  0  0  0  0  0  0  0  0
  -28.9164  -19.3799   19.8969 C   0  0  0  0  0  0  0  0  0  0  0  0
  -26.1646  -25.6030   20.0493 C   0  0  0  0  0  0  0  0  0  0  0  0
  -20.3322  -27.7095   21.9819 C   0  0  0  0  0  0  0  0  0  0  0  0
  -24.5021  -16.5448   20.6474 C   0  0  0  0  0  0  0  0  0  0  0  0
  -23.7475  -25.8109   20.2051 C   0  0  0  0  0  0  0  0  0  0  0  0
  -25.0984  -14.3221   21.1234 C   0  0  0  0  0  0  0  0  0  0  0  0
  -24.9886  -12.1313   22.8470 C   0  0  0  0  0  0  0  0  0  0  0  0
  -26.2751  -13.7888   21.6493 C   0  0  0  0  0  0  0  0  0  0  0  0
  -22.4838  -20.0718   21.8242 C   0  0  0  0  0  0  0  0  0  0  0  0
  -19.1778  -26.4803   23.4740 C   0  0  0  0  0  0  0  0  0  0  0  0
  -21.9432  -22.1598   22.2516 C   0  0  0  0  0  0  0  0  0  0  0  0
  -24.2317  -21.8801   21.2858 C   0  0  0  0  0  0  0  0  0  0  0  0
  -28.4241  -23.0554   20.2306 C   0  0  0  0  0  0  0  0  0  0  0  0
  -29.9779  -25.8928   19.9912 C   0  0  0  0  0  0  0  0  0  0  0  0
  -29.7850  -29.2952   19.8084 C   0  0  0  0  0  0  0  0  0  0  0  0
  -16.5186  -23.4399   22.5358 C   0  0  0  0  0  0  0  0  0  0  0  0
  -30.7351  -18.3352   21.3466 C   0  0  0  0  0  0  0  0  0  0  0  0
  -27.2176  -24.1281   18.2941 C   0  0  0  0  0  0  0  0  0  0  0  0
  -27.5236  -25.9952   20.5668 C   0  0  0  0  0  0  0  0  0  0  0  0
  -30.4760  -19.4757   22.3255 C   0  0  0  0  0  0  0  0  0  0  0  0
  -17.6937  -20.8273   24.6501 C   0  0  0  0  0  0  0  0  0  0  0  0
  -30.2512  -20.7734   21.5639 C   0  0  0  0  0  0  0  0  0  0  0  0
  -19.0813  -20.5029   24.0939 C   0  0  0  0  0  0  0  0  0  0  0  0
  -16.7090  -21.1826   23.5383 C   0  0  0  0  0  0  0  0  0  0  0  0
  -18.5462  -21.9318   22.0764 C   0  0  0  0  0  0  0  0  0  0  0  0
  -29.0018  -20.6780   20.6792 C   0  0  1  0  0  0  0  0  0  0  0  0
  -28.4633  -24.1239   19.1749 C   0  0  1  0  0  0  0  0  0  0  0  0
  -19.5885  -21.6217   23.1644 C   0  0  2  0  0  0  0  0  0  0  0  0
  -21.6314  -29.8518   21.7492 C   0  0  0  0  0  0  0  0  0  0  0  0
  -31.2254  -31.3447   19.6588 C   0  0  0  0  0  0  0  0  0  0  0  0
  -17.8628  -25.4553   26.9904 C   0  0  0  0  0  0  0  0  0  0  0  0
  -19.4754  -27.2709   26.3847 C   0  0  0  0  0  0  0  0  0  0  0  0
  -30.6604  -25.6264   22.9532 C   0  0  0  0  0  0  0  0  0  0  0  0
  -31.2390  -28.0622   22.9674 C   0  0  0  0  0  0  0  0  0  0  0  0
  -32.5260  -26.4848   21.5259 C   0  0  0  0  0  0  0  0  0  0  0  0
  -28.6099  -30.0726   17.2058 C   0  0  0  0  0  0  0  0  0  0  0  0
  -18.7253  -25.6313   24.5954 C   0  0  0  0  0  0  0  0  0  0  0  0
  -16.8839  -26.7401   22.4919 C   0  0  0  0  0  0  0  0  0  0  0  0
  -16.4781  -25.6810   21.4704 C   0  0  0  0  0  0  0  0  0  0  0  0
  -22.7923  -27.6428   21.3831 C   0  0  0  0  0  0  0  0  0  1  0  0
  -21.4696  -28.4111   21.2564 C   0  0  1  0  0  0  0  0  0  0  0  0
  -30.1561  -27.0932   20.8892 C   0  0  1  0  0  0  0  0  0  0  0  0
  -30.4514  -30.2933   18.8788 C   0  0  2  0  0  0  0  0  0  0  0  0
  -18.3178  -26.4058   25.8801 C   0  0  0  0  0  0  0  0  0  0  0  0
  -31.1196  -26.8079   22.0756 C   0  0  0  0  0  0  0  0  0  0  0  0
  -21.2473  -20.0015   22.3243 N   0  0  0  0  0  0  0  0  0  0  0  0
  -18.3116  -26.9697   22.5314 N   0  0  0  0  0  0  0  0  0  0  0  0
  -20.9461  -21.2871   22.5747 N   0  0  0  0  0  0  0  0  0  0  0  0
  -28.6719  -25.3985   19.8649 N   0  0  0  0  0  0  0  0  0  0  0  0
  -17.2494  -22.2508   22.6939 N   0  0  0  0  0  0  0  0  0  0  0  0
  -21.8065  -23.4898   22.4385 N   0  0  0  0  0  0  0  0  0  0  0  0
  -25.1704  -20.9546   20.8096 N   0  0  0  0  0  0  0  0  0  0  0  0
  -28.9409  -21.8409   19.8214 N   0  0  0  0  0  0  0  0  0  0  0  0
  -30.5801  -28.1897   20.0254 N   0  0  0  0  0  0  0  0  0  0  0  0
  -17.1053  -24.4031   21.7242 N   0  0  0  0  0  0  0  0  0  0  0  0
  -29.4294  -30.9855   18.0436 N   0  3  0  0  0  0  0  0  0  0  0  0
  -24.5260  -23.0993   21.3033 O   0  0  0  0  0  0  0  0  0  0  0  0
  -27.9607  -23.3141   21.3351 O   0  0  0  0  0  0  0  0  0  0  0  0
  -30.9601  -25.4158   19.4173 O   0  0  0  0  0  0  0  0  0  0  0  0
  -28.6722  -29.4795   20.2964 O   0  0  0  0  0  0  0  0  0  0  0  0
  -15.4268  -23.6312   23.0820 O   0  0  0  0  0  0  0  0  0  0  0  0
  -25.1512  -15.4101   20.2683 O   0  0  0  0  0  0  0  0  0  0  0  0
  -22.6493  -26.3461   20.8046 O   0  0  0  0  0  0  0  0  0  1  0  0
  -24.9356  -11.0804   23.6758 F   0  0  0  0  0  0  0  0  0  0  0  0
  -27.4612  -14.3253   21.3312 F   0  0  0  0  0  0  0  0  0  0  0  0
  1  2  1  0  0  0  0
  1  5  2  0  0  0  0
  2  6  2  0  0  0  0
  3  8  2  0  0  0  0
  3 17  1  0  0  0  0
  4  9  1  0  0  0  0
  4 17  2  0  0  0  0
  5 19  1  0  0  0  0
  6 21  1  0  0  0  0
  7 10  2  0  0  0  0
  7 20  1  0  0  0  0
  8 24  1  0  0  0  0
  9 24  2  0  0  0  0
 10 25  1  0  0  0  0
 11 12  2  0  0  0  0
 11 26  1  0  0  0  0
 12 27  1  0  0  0  0
 13 22  1  0  0  0  0
 13 25  2  0  0  0  0
 14 23  1  0  0  0  0
 14 30  2  0  0  0  0
 15 27  2  0  0  0  0
 15 28  1  0  0  0  0
 16 23  2  0  0  0  0
 16 67  1  0  0  0  0
 17 29  1  0  0  0  0
 18 29  1  0  0  0  0
 18 31  2  0  0  0  0
 18 32  1  0  0  0  0
 19 21  2  0  0  0  0
 19 37  1  0  0  0  0
 20 22  2  0  0  0  0
 20 38  1  0  0  0  0
 21 46  1  0  0  0  0
 22 39  1  0  0  0  0
 23 61  1  0  0  0  0
 24 82  1  0  0  0  0
 25 83  1  0  0  0  0
 26 28  2  0  0  0  0
 26 82  1  0  0  0  0
 27 84  1  0  0  0  0
 28 85  1  0  0  0  0
 29 66  2  0  0  0  0
 30 57  1  0  0  0  0
 30 67  1  0  0  0  0
 31 68  1  0  0  0  0
 31 71  1  0  0  0  0
 32 72  1  0  0  0  0
 32 77  2  0  0  0  0
 33 47  1  0  0  0  0
 33 73  1  0  0  0  0
 33 78  2  0  0  0  0
 34 62  1  0  0  0  0
 34 69  1  0  0  0  0
 34 79  2  0  0  0  0
 35 63  1  0  0  0  0
 35 74  1  0  0  0  0
 35 80  2  0  0  0  0
 36 70  1  0  0  0  0
 36 75  1  0  0  0  0
 36 81  2  0  0  0  0
 37 40  1  0  0  0  0
 38 47  1  0  0  0  0
 39 69  1  0  0  0  0
 40 42  1  0  0  0  0
 41 43  1  0  0  0  0
 41 44  1  0  0  0  0
 42 46  1  0  0  0  0
 43 48  1  0  0  0  0
 44 70  1  0  0  0  0
 45 48  1  0  0  0  0
 45 70  1  0  0  0  0
 46 73  1  0  0  0  0
 47 69  1  0  0  0  0
 48 68  1  0  0  0  0
 49 61  1  0  0  0  0
 50 63  1  0  0  0  0
 51 64  1  0  0  0  0
 52 64  1  0  0  0  0
 53 65  1  0  0  0  0
 54 65  1  0  0  0  0
 55 65  1  0  0  0  0
 56 76  1  0  0  0  0
 57 64  1  0  0  0  0
 58 59  1  0  0  0  0
 58 67  1  0  0  0  0
 59 75  1  0  0  0  0
 60 61  1  0  0  0  0
 60 83  1  0  0  0  0
 62 65  1  0  0  0  0
 62 74  1  0  0  0  0
 63 76  1  0  0  0  0
 66 68  1  0  0  0  0
M  CHG  1  76   1
M  ISO  4  36 100  60 101  75 100  83 101
M  END
> <Batch ID>
0083

> <Smiles>
CNC(C)C(=O)NC(C(=O)N1Cc2cc([101O:1][101CH2:1]C(C)c3cc(CC(C)C)n(CC[100NH:0][100C:0](=O)N4CCCC(n5nc(-c6ccc(Oc7ccc(F)cc7F)cc6)c(C(N)=O)c5N)C4)c3)ccc2CC1C(=O)NC1CCCc2ccccc21)C(C)(C)C

> <Shape>
0.184

> <Color>
0.051

> <Negative vol penalty>
0.000

$$$$

  -OEChem-04052318513D

 86 94  0     1  0  0  0  0  0999 V2000
  -24.3987  -23.4427   19.6179 C   0  0  0  0  0  0  0  0  0  0  0  0
  -25.5825  -22.7170   19.5308 C   0  0  0  0  0  0  0  0  0  0  0  0
  -26.6978  -28.9154   19.2625 C   0  0  0  0  0  0  0  0  0  0  0  0
  -26.2066  -27.3326   21.0204 C   0  0  0  0  0  0  0  0  0  0  0  0
  -23.3494  -22.9706   20.4053 C   0  0  0  0  0  0  0  0  0  0  0  0
  -25.7180  -21.5193   20.2319 C   0  0  0  0  0  0  0  0  0  0  0  0
  -28.7993  -16.5368   18.4468 C   0  0  0  0  0  0  0  0  0  0  0  0
  -25.5046  -29.5855   19.5324 C   0  0  0  0  0  0  0  0  0  0  0  0
  -25.0134  -28.0027   21.2904 C   0  0  0  0  0  0  0  0  0  0  0  0
  -30.0732  -16.0614   18.7548 C   0  0  0  0  0  0  0  0  0  0  0  0
  -21.9054  -28.1856   19.9722 C   0  0  0  0  0  0  0  0  0  0  0  0
  -20.7571  -27.4156   20.1566 C   0  0  0  0  0  0  0  0  0  0  0  0
  -29.1248  -14.6417   20.4590 C   0  0  0  0  0  0  0  0  0  0  0  0
  -33.5883  -16.6895   22.7302 C   0  0  0  0  0  0  0  0  0  0  0  0
  -34.1589  -16.3023   20.4147 C   0  0  0  0  0  0  0  0  0  0  0  0
  -20.5146  -28.3117   22.3872 C   0  0  0  0  0  0  0  0  0  0  0  0
  -27.0487  -27.7889   20.0064 C   0  0  0  0  0  0  0  0  0  0  0  0
  -29.5428  -27.3412   20.3014 C   0  0  0  0  0  0  0  0  0  0  0  0
  -23.4685  -21.7616   21.1087 C   0  0  0  0  0  0  0  0  0  0  0  0
  -27.6779  -16.0756   19.1512 C   0  0  0  0  0  0  0  0  0  0  0  0
  -24.6697  -21.0313   21.0305 C   0  0  0  0  0  0  0  0  0  0  0  0
  -27.8374  -15.1109   20.1563 C   0  0  0  0  0  0  0  0  0  0  0  0
  -33.6575  -15.8353   21.6297 C   0  0  0  0  0  0  0  0  0  0  0  0
  -34.0204  -18.0108   22.6158 C   0  0  0  0  0  0  0  0  0  0  0  0
  -34.5911  -17.6237   20.3003 C   0  0  0  0  0  0  0  0  0  0  0  0
  -34.5219  -18.4779   21.4009 C   0  0  0  0  0  0  0  0  0  0  0  0
  -24.6624  -29.1292   20.5464 C   0  0  0  0  0  0  0  0  0  0  0  0
  -30.2364  -15.1158   19.7629 C   0  0  0  0  0  0  0  0  0  0  0  0
  -22.3584  -29.0186   20.9952 C   0  0  0  0  0  0  0  0  0  0  0  0
  -20.0616  -27.4787   21.3641 C   0  0  0  0  0  0  0  0  0  0  0  0
  -21.6630  -29.0816   22.2027 C   0  0  0  0  0  0  0  0  0  0  0  0
  -28.2809  -27.0959   19.7276 C   0  0  0  0  0  0  0  0  0  0  0  0
  -30.3741  -26.4229   19.7080 C   0  0  0  0  0  0  0  0  0  0  0  0
  -29.9289  -28.3123   21.2830 C   0  0  0  0  0  0  0  0  0  0  0  0
  -25.4882  -17.4281   21.0165 C   0  0  0  0  0  0  0  0  0  0  0  0
  -24.1422  -14.4785   20.9136 C   0  0  0  0  0  0  0  0  0  0  0  0
  -24.5489  -11.1232   20.4411 C   0  0  0  0  0  0  0  0  0  0  0  0
  -31.4248  -21.2322   17.9480 C   0  0  0  0  0  0  0  0  0  0  0  0
  -22.3246  -21.3155   21.9845 C   0  0  0  0  0  0  0  0  0  0  0  0
  -26.3074  -16.5785   18.7888 C   0  0  0  0  0  0  0  0  0  0  0  0
  -26.6635  -14.5685   20.9283 C   0  0  0  0  0  0  0  0  0  0  0  0
  -22.4102  -19.8486   22.3982 C   0  0  0  0  0  0  0  0  0  0  0  0
  -29.6128  -23.3674   15.7494 C   0  0  0  0  0  0  0  0  0  0  0  0
  -23.8186  -19.5102   22.8765 C   0  0  0  0  0  0  0  0  0  0  0  0
  -29.2039  -24.5442   16.6369 C   0  0  0  0  0  0  0  0  0  0  0  0
  -29.5767  -22.0454   16.5129 C   0  0  0  0  0  0  0  0  0  0  0  0
  -29.9453  -23.2094   18.6537 C   0  0  0  0  0  0  0  0  0  0  0  0
  -24.8457  -19.7152   21.7564 C   0  0  1  0  0  0  0  0  0  0  0  0
  -25.2948  -16.4205   19.9188 C   0  0  1  0  0  0  0  0  0  0  0  0
  -30.0202  -24.5717   17.9431 C   0  0  2  0  0  0  0  0  0  0  0  0
  -33.9368  -18.9048   23.8097 C   0  0  0  0  0  0  0  0  0  0  0  0
  -36.5473  -17.6133   18.7319 C   0  0  0  0  0  0  0  0  0  0  0  0
  -23.2729   -8.9624   20.4591 C   0  0  0  0  0  0  0  0  0  0  0  0
  -34.4413  -22.3219   20.8293 C   0  0  0  0  0  0  0  0  0  0  0  0
  -24.1239  -14.5175   23.9645 C   0  0  0  0  0  0  0  0  0  0  0  0
  -23.7514  -12.0420   23.9245 C   0  0  0  0  0  0  0  0  0  0  0  0
  -22.0568  -13.5729   22.9209 C   0  0  0  0  0  0  0  0  0  0  0  0
  -25.1656  -10.6011   17.5940 C   0  0  0  0  0  0  0  0  0  0  0  0
  -33.1892  -14.4057   21.7533 C   0  0  0  0  0  0  0  0  0  0  0  0
  -35.1241  -18.0993   18.9882 C   0  0  0  0  0  0  0  0  0  0  0  0
  -34.9856  -19.8945   21.2786 C   0  0  0  0  0  0  0  0  0  0  0  0
  -33.2460  -20.5425   19.4865 C   0  0  0  0  0  0  0  0  0  0  0  0
  -31.7106  -14.2487   21.4155 C   0  0  0  0  0  0  0  0  0  1  0  0
  -24.2626  -13.2191   21.7372 C   0  0  1  0  0  0  0  0  0  0  0  0
  -23.7692  -10.1214   19.6087 C   0  0  2  0  0  0  0  0  0  0  0  0
  -33.8851  -20.8933   20.8407 C   0  0  2  0  0  0  0  0  0  0  0  0
  -23.5712  -13.3493   23.1237 C   0  0  0  0  0  0  0  0  0  0  0  0
  -28.3038  -26.0999   18.8379 N   0  0  0  0  0  0  0  0  0  0  0  0
  -29.5902  -25.7114   18.8481 N   0  0  0  0  0  0  0  0  0  0  0  0
  -25.3446  -15.0960   20.5413 N   0  0  0  0  0  0  0  0  0  0  0  0
  -30.3714  -22.1378   17.7400 N   0  0  0  0  0  0  0  0  0  0  0  0
  -31.6919  -26.1629   19.8430 N   0  0  0  0  0  0  0  0  0  0  0  0
  -28.9492  -29.1781   21.7878 N   0  0  0  0  0  0  0  0  0  0  0  0
  -24.8013  -18.6112   20.8217 N   0  0  0  0  0  0  0  0  0  0  0  0
  -23.7406  -12.1379   20.9084 N   0  0  0  0  0  0  0  0  0  0  0  0
  -32.1313  -21.3933   19.1336 N   0  0  0  0  0  0  0  0  0  0  0  0
  -24.6274   -9.5725   18.5210 N   0  3  0  0  0  0  0  0  0  0  0  0
  -31.1112  -28.4202   21.6880 O   0  0  0  0  0  0  0  0  0  0  0  0
  -26.2062  -17.1520   21.9704 O   0  0  0  0  0  0  0  0  0  0  0  0
  -23.0226  -14.8950   20.6057 O   0  0  0  0  0  0  0  0  0  0  0  0
  -25.7536  -11.0143   20.6585 O   0  0  0  0  0  0  0  0  0  0  0  0
  -31.7177  -20.3492   17.1347 O   0  0  0  0  0  0  0  0  0  0  0  0
  -23.4982  -29.7830   20.8103 O   0  0  0  0  0  0  0  0  0  0  0  0
  -31.4788  -14.6506   20.0660 O   0  0  0  0  0  0  0  0  0  1  0  0
  -18.9580  -26.7403   21.5406 F   0  0  0  0  0  0  0  0  0  0  0  0
  -22.0926  -29.8809   23.1888 F   0  0  0  0  0  0  0  0  0  0  0  0
  1  2  1  0  0  0  0
  1  5  2  0  0  0  0
  2  6  2  0  0  0  0
  3  8  2  0  0  0  0
  3 17  1  0  0  0  0
  4  9  1  0  0  0  0
  4 17  2  0  0  0  0
  5 19  1  0  0  0  0
  6 21  1  0  0  0  0
  7 10  2  0  0  0  0
  7 20  1  0  0  0  0
  8 27  1  0  0  0  0
  9 27  2  0  0  0  0
 10 28  1  0  0  0  0
 11 12  2  0  0  0  0
 11 29  1  0  0  0  0
 12 30  1  0  0  0  0
 13 22  1  0  0  0  0
 13 28  2  0  0  0  0
 14 23  1  0  0  0  0
 14 24  2  0  0  0  0
 15 23  2  0  0  0  0
 15 25  1  0  0  0  0
 16 30  2  0  0  0  0
 16 31  1  0  0  0  0
 17 32  1  0  0  0  0
 18 32  1  0  0  0  0
 18 33  2  0  0  0  0
 18 34  1  0  0  0  0
 19 21  2  0  0  0  0
 19 39  1  0  0  0  0
 20 22  2  0  0  0  0
 20 40  1  0  0  0  0
 21 48  1  0  0  0  0
 22 41  1  0  0  0  0
 23 59  1  0  0  0  0
 24 26  1  0  0  0  0
 24 51  1  0  0  0  0
 25 26  2  0  0  0  0
 25 60  1  0  0  0  0
 26 61  1  0  0  0  0
 27 83  1  0  0  0  0
 28 84  1  0  0  0  0
 29 31  2  0  0  0  0
 29 83  1  0  0  0  0
 30 85  1  0  0  0  0
 31 86  1  0  0  0  0
 32 68  2  0  0  0  0
 33 69  1  0  0  0  0
 33 72  1  0  0  0  0
 34 73  1  0  0  0  0
 34 78  2  0  0  0  0
 35 49  1  0  0  0  0
 35 74  1  0  0  0  0
 35 79  2  0  0  0  0
 36 64  1  0  0  0  0
 36 70  1  0  0  0  0
 36 80  2  0  0  0  0
 37 65  1  0  0  0  0
 37 75  1  0  0  0  0
 37 81  2  0  0  0  0
 38 71  1  0  0  0  0
 38 76  1  0  0  0  0
 38 82  2  0  0  0  0
 39 42  1  0  0  0  0
 40 49  1  0  0  0  0
 41 70  1  0  0  0  0
 42 44  1  0  0  0  0
 43 45  1  0  0  0  0
 43 46  1  0  0  0  0
 44 48  1  0  0  0  0
 45 50  1  0  0  0  0
 46 71  1  0  0  0  0
 47 50  1  0  0  0  0
 47 71  1  0  0  0  0
 48 74  1  0  0  0  0
 49 70  1  0  0  0  0
 50 69  1  0  0  0  0
 52 60  1  0  0  0  0
 53 65  1  0  0  0  0
 54 66  1  0  0  0  0
 55 67  1  0  0  0  0
 56 67  1  0  0  0  0
 57 67  1  0  0  0  0
 58 77  1  0  0  0  0
 59 63  1  0  0  0  0
 61 66  1  0  0  0  0
 62 66  1  0  0  0  0
 62 76  1  0  0  0  0
 63 84  1  0  0  0  0
 64 67  1  0  0  0  0
 64 75  1  0  0  0  0
 65 77  1  0  0  0  0
 68 69  1  0  0  0  0
M  CHG  1  77   1
M  ISO  4  38 100  63 101  76 100  84 101
M  END
> <Batch ID>
0083

> <Smiles>
CCc1cc(C[101CH2:1][101O:1]c2ccc3c(c2)CN(C(=O)C(NC(=O)C(C)NC)C(C)(C)C)C(C(=O)NC2CCCc4ccccc42)C3)cc(C)c1CC(C)C[100NH:0][100C:0](=O)N1CCCC(n2nc(-c3ccc(Oc4ccc(F)cc4F)cc3)c(C(N)=O)c2N)C1

> <Shape>
0.217

> <Color>
0.065

> <Negative vol penalty>
0.000

$$$$

  -OEChem-04052318513D

 85 93  0     1  0  0  0  0  0999 V2000
  -17.1929  -24.9988   22.0416 C   0  0  0  0  0  0  0  0  0  0  0  0
  -18.0647  -24.8922   20.9627 C   0  0  0  0  0  0  0  0  0  0  0  0
  -25.1152  -13.4303   21.7349 C   0  0  0  0  0  0  0  0  0  0  0  0
  -26.5485  -13.2977   19.7946 C   0  0  0  0  0  0  0  0  0  0  0  0
  -17.2992  -26.0777   22.9183 C   0  0  0  0  0  0  0  0  0  0  0  0
  -19.0426  -25.8652   20.7592 C   0  0  0  0  0  0  0  0  0  0  0  0
  -24.6789  -25.0085   18.5221 C   0  0  0  0  0  0  0  0  0  0  0  0
  -24.3322  -12.3935   21.2275 C   0  0  0  0  0  0  0  0  0  0  0  0
  -25.7656  -12.2607   19.2871 C   0  0  0  0  0  0  0  0  0  0  0  0
  -25.2194  -25.1835   17.2489 C   0  0  0  0  0  0  0  0  0  0  0  0
  -24.4937   -9.0225   21.0194 C   0  0  0  0  0  0  0  0  0  0  0  0
  -24.1174   -8.0053   21.8965 C   0  0  0  0  0  0  0  0  0  0  0  0
  -26.0032  -27.3732   17.8894 C   0  0  0  0  0  0  0  0  0  0  0  0
  -21.7912   -8.5184   21.4936 C   0  0  0  0  0  0  0  0  0  0  0  0
  -30.3843  -24.2058   15.4343 C   0  0  0  0  0  0  0  0  0  0  0  0
  -26.2233  -13.8825   21.0184 C   0  0  0  0  0  0  0  0  0  0  0  0
  -28.1570  -14.8384   22.3804 C   0  0  0  0  0  0  0  0  0  0  0  0
  -18.2851  -27.0593   22.7309 C   0  0  0  0  0  0  0  0  0  0  0  0
  -24.7872  -26.0205   19.4867 C   0  0  0  0  0  0  0  0  0  0  0  0
  -19.1613  -26.9590   21.6334 C   0  0  0  0  0  0  0  0  0  0  0  0
  -25.4655  -27.2075   19.1749 C   0  0  0  0  0  0  0  0  0  0  0  0
  -24.6575  -11.8087   20.0036 C   0  0  0  0  0  0  0  0  0  0  0  0
  -25.8791  -26.3672   16.9315 C   0  0  0  0  0  0  0  0  0  0  0  0
  -23.5187   -9.7877   20.3794 C   0  0  0  0  0  0  0  0  0  0  0  0
  -22.7662   -7.7532   22.1336 C   0  0  0  0  0  0  0  0  0  0  0  0
  -22.1674   -9.5356   20.6165 C   0  0  0  0  0  0  0  0  0  0  0  0
  -27.0321  -14.9539   21.5418 C   0  0  0  0  0  0  0  0  0  0  0  0
  -30.9054  -23.6787   16.5822 C   0  0  0  0  0  0  0  0  0  0  0  0
  -28.5629  -16.1335   22.5907 C   0  0  0  0  0  0  0  0  0  0  0  0
  -30.0601  -25.6668   17.0655 C   0  0  0  0  0  0  0  0  0  0  0  0
  -28.7792  -13.6652   22.9209 C   0  0  0  0  0  0  0  0  0  0  0  0
  -22.7161  -27.8136   21.0989 C   0  0  0  0  0  0  0  0  0  0  0  0
  -25.3858  -28.8222   22.6411 C   0  0  0  0  0  0  0  0  0  0  0  0
  -28.7704  -29.2566   22.5920 C   0  0  0  0  0  0  0  0  0  0  0  0
  -27.8860  -21.1810   19.4418 C   0  0  0  0  0  0  0  0  0  0  0  0
  -18.3308  -28.2323   23.6779 C   0  0  0  0  0  0  0  0  0  0  0  0
  -24.2221  -25.8054   20.8639 C   0  0  0  0  0  0  0  0  0  0  0  0
  -25.6267  -28.3165   20.1811 C   0  0  0  0  0  0  0  0  0  0  0  0
  -19.6351  -29.0222   23.6066 C   0  0  0  0  0  0  0  0  0  0  0  0
  -26.8659  -20.6018   22.8035 C   0  0  0  0  0  0  0  0  0  0  0  0
  -20.0174  -29.2916   22.1547 C   0  0  0  0  0  0  0  0  0  0  0  0
  -26.8944  -19.0783   22.9370 C   0  0  0  0  0  0  0  0  0  0  0  0
  -26.3978  -21.0382   21.4169 C   0  0  0  0  0  0  0  0  0  0  0  0
  -27.1748  -18.9188   20.4281 C   0  0  0  0  0  0  0  0  0  0  0  0
  -20.2512  -27.9811   21.3935 C   0  0  1  0  0  0  0  0  0  0  0  0
  -23.9428  -27.1091   21.6055 C   0  0  1  0  0  0  0  0  0  0  0  0
  -27.6940  -18.4298   21.7910 C   0  0  2  0  0  0  0  0  0  0  0  0
  -29.6551  -26.8749   17.8265 C   0  0  0  0  0  0  0  0  0  0  0  0
  -33.0618  -22.6296   17.2642 C   0  0  0  0  0  0  0  0  0  0  0  0
  -30.6635  -30.1398   23.9825 C   0  0  0  0  0  0  0  0  0  0  0  0
  -31.5867  -20.1622   18.1931 C   0  0  0  0  0  0  0  0  0  0  0  0
  -24.5430  -31.6771   21.9707 C   0  0  0  0  0  0  0  0  0  0  0  0
  -26.8706  -32.4187   22.5188 C   0  0  0  0  0  0  0  0  0  0  0  0
  -25.4493  -31.3723   24.2816 C   0  0  0  0  0  0  0  0  0  0  0  0
  -30.0998  -26.6136   22.6695 C   0  0  0  0  0  0  0  0  0  0  0  0
  -27.9946  -25.7557   14.0708 C   0  0  0  0  0  0  0  0  0  0  0  0
  -29.1888  -26.3764   14.7993 C   0  0  0  0  0  0  0  0  0  0  0  0
  -29.3925  -21.1616   17.4696 C   0  0  0  0  0  0  0  0  0  0  0  0
  -26.8516  -25.3714   15.0031 C   0  0  0  0  0  0  0  0  0  1  0  0
  -31.5798  -22.4045   16.8432 C   0  0  1  0  0  0  0  0  0  0  0  0
  -26.3885  -29.9306   22.4291 C   0  0  1  0  0  0  0  0  0  0  0  0
  -29.8447  -28.9141   23.6083 C   0  0  2  0  0  0  0  0  0  0  0  0
  -30.8437  -21.4728   17.8924 C   0  0  2  0  0  0  0  0  0  0  0  0
  -25.8083  -31.3298   22.7803 C   0  0  0  0  0  0  0  0  0  0  0  0
  -26.7420  -16.2223   21.2402 N   0  0  0  0  0  0  0  0  0  0  0  0
  -29.8676  -25.4359   15.7627 N   0  0  0  0  0  0  0  0  0  0  0  0
  -27.6904  -16.9157   21.8928 N   0  0  0  0  0  0  0  0  0  0  0  0
  -30.6911  -24.6040   17.5751 N   0  3  0  0  0  0  0  0  0  0  0  0
  -25.0513  -28.0612   21.5120 N   0  0  0  0  0  0  0  0  0  0  0  0
  -27.1977  -20.3890   20.3755 N   0  0  0  0  0  0  0  0  0  0  0  0
  -29.5776  -16.6683   23.3028 N   0  0  0  0  0  0  0  0  0  0  0  0
  -28.2338  -12.4135   22.6044 N   0  0  0  0  0  0  0  0  0  0  0  0
  -21.5466  -27.4278   21.7256 N   0  0  0  0  0  0  0  0  0  0  0  0
  -27.5715  -29.5638   23.1999 N   0  0  0  0  0  0  0  0  0  0  0  0
  -28.6254  -20.4862   18.4925 N   0  0  0  0  0  0  0  0  0  0  0  0
  -30.7683  -27.8821   23.0579 N   0  3  0  0  0  0  0  0  0  0  0  0
  -29.7792  -13.7260   23.6758 O   0  0  0  0  0  0  0  0  0  0  0  0
  -22.8231  -28.6467   20.2066 O   0  0  0  0  0  0  0  0  0  0  0  0
  -24.9219  -28.6338   23.7684 O   0  0  0  0  0  0  0  0  0  0  0  0
  -28.9753  -29.2556   21.3801 O   0  0  0  0  0  0  0  0  0  0  0  0
  -27.8490  -22.4161   19.4566 O   0  0  0  0  0  0  0  0  0  0  0  0
  -23.8938  -10.7967   19.5083 O   0  0  0  0  0  0  0  0  0  0  0  0
  -26.4070  -26.5409   15.6893 O   0  0  0  0  0  0  0  0  0  1  0  0
  -22.4050   -6.7754   22.9748 F   0  0  0  0  0  0  0  0  0  0  0  0
  -21.2262  -10.2666   20.0037 F   0  0  0  0  0  0  0  0  0  0  0  0
  1  2  1  0  0  0  0
  1  5  2  0  0  0  0
  2  6  2  0  0  0  0
  3  8  2  0  0  0  0
  3 16  1  0  0  0  0
  4  9  1  0  0  0  0
  4 16  2  0  0  0  0
  5 18  1  0  0  0  0
  6 20  1  0  0  0  0
  7 10  2  0  0  0  0
  7 19  1  0  0  0  0
  8 22  1  0  0  0  0
  9 22  2  0  0  0  0
 10 23  1  0  0  0  0
 11 12  2  0  0  0  0
 11 24  1  0  0  0  0
 12 25  1  0  0  0  0
 13 21  1  0  0  0  0
 13 23  2  0  0  0  0
 14 25  2  0  0  0  0
 14 26  1  0  0  0  0
 15 28  2  0  0  0  0
 15 66  1  0  0  0  0
 16 27  1  0  0  0  0
 17 27  1  0  0  0  0
 17 29  2  0  0  0  0
 17 31  1  0  0  0  0
 18 20  2  0  0  0  0
 18 36  1  0  0  0  0
 19 21  2  0  0  0  0
 19 37  1  0  0  0  0
 20 45  1  0  0  0  0
 21 38  1  0  0  0  0
 22 82  1  0  0  0  0
 23 83  1  0  0  0  0
 24 26  2  0  0  0  0
 24 82  1  0  0  0  0
 25 84  1  0  0  0  0
 26 85  1  0  0  0  0
 27 65  2  0  0  0  0
 28 60  1  0  0  0  0
 28 68  1  0  0  0  0
 29 67  1  0  0  0  0
 29 71  1  0  0  0  0
 30 48  1  0  0  0  0
 30 66  1  0  0  0  0
 30 68  2  0  0  0  0
 31 72  1  0  0  0  0
 31 77  2  0  0  0  0
 32 46  1  0  0  0  0
 32 73  1  0  0  0  0
 32 78  2  0  0  0  0
 33 61  1  0  0  0  0
 33 69  1  0  0  0  0
 33 79  2  0  0  0  0
 34 62  1  0  0  0  0
 34 74  1  0  0  0  0
 34 80  2  0  0  0  0
 35 70  1  0  0  0  0
 35 75  1  0  0  0  0
 35 81  2  0  0  0  0
 36 39  1  0  0  0  0
 37 46  1  0  0  0  0
 38 69  1  0  0  0  0
 39 41  1  0  0  0  0
 40 42  1  0  0  0  0
 40 43  1  0  0  0  0
 41 45  1  0  0  0  0
 42 47  1  0  0  0  0
 43 70  1  0  0  0  0
 44 47  1  0  0  0  0
 44 70  1  0  0  0  0
 45 73  1  0  0  0  0
 46 69  1  0  0  0  0
 47 67  1  0  0  0  0
 49 60  1  0  0  0  0
 50 62  1  0  0  0  0
 51 63  1  0  0  0  0
 52 64  1  0  0  0  0
 53 64  1  0  0  0  0
 54 64  1  0  0  0  0
 55 76  1  0  0  0  0
 56 57  1  0  0  0  0
 56 59  1  0  0  0  0
 57 66  1  0  0  0  0
 58 63  1  0  0  0  0
 58 75  1  0  0  0  0
 59 83  1  0  0  0  0
 60 63  1  0  0  0  0
 61 64  1  0  0  0  0
 61 74  1  0  0  0  0
 62 76  1  0  0  0  0
 65 67  1  0  0  0  0
M  CHG  2  68   1  76   1
M  ISO  4  35 100  59 101  75 100  83 101
M  END
> <Batch ID>
0083

> <Smiles>
CNC(C)C(=O)NC(C(=O)N1Cc2cc([101O:1][101CH2:1]CCn3cc(C(C)C(C)C[100NH:0][100C:0](=O)N4CCCC(n5nc(-c6ccc(Oc7ccc(F)cc7F)cc6)c(C(N)=O)c5N)C4)nc3C)ccc2CC1C(=O)NC1CCCc2ccccc21)C(C)(C)C

> <Shape>
0.259

> <Color>
0.052

> <Negative vol penalty>
0.000

$$$$

  -OEChem-04052318513D

 87 95  0     1  0  0  0  0  0999 V2000
  -23.4969  -27.8717   16.7511 C   0  0  0  0  0  0  0  0  0  0  0  0
  -24.4430  -26.9837   17.2527 C   0  0  0  0  0  0  0  0  0  0  0  0
  -23.0002   -9.8962   19.9809 C   0  0  0  0  0  0  0  0  0  0  0  0
  -23.7329   -9.9420   22.2826 C   0  0  0  0  0  0  0  0  0  0  0  0
  -22.1761  -27.8042   17.1926 C   0  0  0  0  0  0  0  0  0  0  0  0
  -24.0691  -26.0282   18.1969 C   0  0  0  0  0  0  0  0  0  0  0  0
  -25.5871  -19.3440   20.2786 C   0  0  0  0  0  0  0  0  0  0  0  0
  -22.2355   -8.7604   20.2469 C   0  0  0  0  0  0  0  0  0  0  0  0
  -22.9682   -8.8062   22.5487 C   0  0  0  0  0  0  0  0  0  0  0  0
  -25.9239  -18.6226   21.4231 C   0  0  0  0  0  0  0  0  0  0  0  0
  -23.2137   -5.4686   22.0675 C   0  0  0  0  0  0  0  0  0  0  0  0
  -23.8046   -4.4500   22.8151 C   0  0  0  0  0  0  0  0  0  0  0  0
  -23.5966  -18.5478   22.0535 C   0  0  0  0  0  0  0  0  0  0  0  0
  -29.0906  -15.6244   26.4601 C   0  0  0  0  0  0  0  0  0  0  0  0
  -29.7370  -17.1810   24.7293 C   0  0  0  0  0  0  0  0  0  0  0  0
  -22.0860   -4.6873   24.4966 C   0  0  0  0  0  0  0  0  0  0  0  0
  -23.7489  -10.4870   20.9988 C   0  0  0  0  0  0  0  0  0  0  0  0
  -24.1316  -13.0033   20.8278 C   0  0  0  0  0  0  0  0  0  0  0  0
  -21.7837  -26.8411   18.1355 C   0  0  0  0  0  0  0  0  0  0  0  0
  -24.2515  -19.6827   20.0180 C   0  0  0  0  0  0  0  0  0  0  0  0
  -22.7421  -25.9485   18.6524 C   0  0  0  0  0  0  0  0  0  0  0  0
  -23.2452  -19.2713   20.9036 C   0  0  0  0  0  0  0  0  0  0  0  0
  -28.9026  -16.8342   25.7919 C   0  0  0  0  0  0  0  0  0  0  0  0
  -30.1131  -14.7614   26.0658 C   0  0  0  0  0  0  0  0  0  0  0  0
  -30.7595  -16.3180   24.3349 C   0  0  0  0  0  0  0  0  0  0  0  0
  -30.9475  -15.1082   25.0032 C   0  0  0  0  0  0  0  0  0  0  0  0
  -22.2194   -8.2154   21.5307 C   0  0  0  0  0  0  0  0  0  0  0  0
  -24.9289  -18.2269   22.3123 C   0  0  0  0  0  0  0  0  0  0  0  0
  -22.0590   -6.0966   22.5345 C   0  0  0  0  0  0  0  0  0  0  0  0
  -23.2408   -4.0593   24.0296 C   0  0  0  0  0  0  0  0  0  0  0  0
  -21.4952   -5.7059   23.7490 C   0  0  0  0  0  0  0  0  0  0  0  0
  -24.5395  -11.6599   20.7245 C   0  0  0  0  0  0  0  0  0  0  0  0
  -25.2395  -13.7278   20.4616 C   0  0  0  0  0  0  0  0  0  0  0  0
  -22.8644  -13.5477   21.2199 C   0  0  0  0  0  0  0  0  0  0  0  0
  -22.6478  -22.4099   19.7117 C   0  0  0  0  0  0  0  0  0  0  0  0
  -20.2139  -20.4329   18.8812 C   0  0  0  0  0  0  0  0  0  0  0  0
  -18.8239  -17.3205   19.0479 C   0  0  0  0  0  0  0  0  0  0  0  0
  -30.7359  -14.6664   20.6945 C   0  0  0  0  0  0  0  0  0  0  0  0
  -20.3547  -26.8374   18.6178 C   0  0  0  0  0  0  0  0  0  0  0  0
  -23.9017  -20.4381   18.7653 C   0  0  0  0  0  0  0  0  0  0  0  0
  -21.7941  -19.5922   20.6593 C   0  0  0  0  0  0  0  0  0  0  0  0
  -19.9594  -25.5527   19.3413 C   0  0  0  0  0  0  0  0  0  0  0  0
  -29.5895  -12.2477   18.3466 C   0  0  0  0  0  0  0  0  0  0  0  0
  -21.0306  -25.1586   20.3532 C   0  0  0  0  0  0  0  0  0  0  0  0
  -28.1426  -11.9857   18.7683 C   0  0  0  0  0  0  0  0  0  0  0  0
  -30.4957  -12.4808   19.5535 C   0  0  0  0  0  0  0  0  0  0  0  0
  -28.5893  -13.2713   20.9005 C   0  0  0  0  0  0  0  0  0  0  0  0
  -22.3698  -24.8819   19.6593 C   0  0  1  0  0  0  0  0  0  0  0  0
  -22.5681  -21.1725   18.8632 C   0  0  1  0  0  0  0  0  0  0  0  0
  -27.6266  -13.0858   19.7152 C   0  0  2  0  0  0  0  0  0  0  0  0
  -30.2925  -13.4712   26.7972 C   0  0  0  0  0  0  0  0  0  0  0  0
  -32.0434  -14.1824   24.5804 C   0  0  0  0  0  0  0  0  0  0  0  0
  -16.8124  -16.0189   18.3016 C   0  0  0  0  0  0  0  0  0  0  0  0
  -18.5329  -21.8059   21.0257 C   0  0  0  0  0  0  0  0  0  0  0  0
  -16.9262  -19.8903   20.8940 C   0  0  0  0  0  0  0  0  0  0  0  0
  -17.3163  -21.3284   18.8934 C   0  0  0  0  0  0  0  0  0  0  0  0
  -34.1299  -19.0445   24.9695 C   0  0  0  0  0  0  0  0  0  0  0  0
  -20.4832  -15.4209   17.4996 C   0  0  0  0  0  0  0  0  0  0  0  0
  -27.7978  -17.7674   26.2185 C   0  0  0  0  0  0  0  0  0  0  0  0
  -26.4701  -17.5196   25.4993 C   0  0  0  0  0  0  0  0  0  0  0  0
  -30.8207  -16.8424   21.8848 C   0  0  0  0  0  0  0  0  0  0  0  0
  -32.4332  -18.0182   23.4506 C   0  0  0  0  0  0  0  0  0  0  0  0
  -26.5428  -17.7633   23.9964 C   0  0  0  0  0  0  0  0  0  1  0  0
  -31.6393  -16.7127   23.1939 C   0  0  1  0  0  0  0  0  0  0  0  0
  -19.1174  -19.7142   19.6297 C   0  0  1  0  0  0  0  0  0  0  0  0
  -18.2429  -16.4180   17.9744 C   0  0  2  0  0  0  0  0  0  0  0  0
  -18.0007  -20.6802   20.1166 C   0  0  0  0  0  0  0  0  0  0  0  0
  -25.8076  -11.5355   20.3238 N   0  0  0  0  0  0  0  0  0  0  0  0
  -26.2060  -12.8100   20.1721 N   0  0  0  0  0  0  0  0  0  0  0  0
  -21.5032  -20.3382   19.4238 N   0  0  0  0  0  0  0  0  0  0  0  0
  -29.9508  -13.5369   20.4100 N   0  0  0  0  0  0  0  0  0  0  0  0
  -25.4715  -15.0539   20.3621 N   0  0  0  0  0  0  0  0  0  0  0  0
  -21.8345  -12.6618   21.5646 N   0  0  0  0  0  0  0  0  0  0  0  0
  -22.3545  -23.5773   19.0330 N   0  0  0  0  0  0  0  0  0  0  0  0
  -18.6465  -18.6539   18.7451 N   0  0  0  0  0  0  0  0  0  0  0  0
  -30.1414  -15.6226   21.5087 N   0  0  0  0  0  0  0  0  0  0  0  0
  -33.3465  -17.8329   24.6085 N   0  3  0  0  0  0  0  0  0  0  0  0
  -19.0585  -15.1776   17.8432 N   0  3  0  0  0  0  0  0  0  0  0  0
  -22.6467  -14.7827   21.2475 O   0  0  0  0  0  0  0  0  0  0  0  0
  -22.9513  -22.3126   20.8950 O   0  0  0  0  0  0  0  0  0  0  0  0
  -19.9378  -21.0494   17.8491 O   0  0  0  0  0  0  0  0  0  0  0  0
  -19.3763  -16.8860   20.0561 O   0  0  0  0  0  0  0  0  0  0  0  0
  -31.8797  -14.8144   20.2510 O   0  0  0  0  0  0  0  0  0  0  0  0
  -21.4732   -7.1072   21.7907 O   0  0  0  0  0  0  0  0  0  0  0  0
  -25.2550  -17.5233   23.4305 O   0  0  0  0  0  0  0  0  0  1  0  0
  -23.8074   -3.0801   24.7467 F   0  0  0  0  0  0  0  0  0  0  0  0
  -20.3853   -6.3047   24.2022 F   0  0  0  0  0  0  0  0  0  0  0  0
  1  2  1  0  0  0  0
  1  5  2  0  0  0  0
  2  6  2  0  0  0  0
  3  8  2  0  0  0  0
  3 17  1  0  0  0  0
  4  9  1  0  0  0  0
  4 17  2  0  0  0  0
  5 19  1  0  0  0  0
  6 21  1  0  0  0  0
  7 10  2  0  0  0  0
  7 20  1  0  0  0  0
  8 27  1  0  0  0  0
  9 27  2  0  0  0  0
 10 28  1  0  0  0  0
 11 12  2  0  0  0  0
 11 29  1  0  0  0  0
 12 30  1  0  0  0  0
 13 22  1  0  0  0  0
 13 28  2  0  0  0  0
 14 23  1  0  0  0  0
 14 24  2  0  0  0  0
 15 23  2  0  0  0  0
 15 25  1  0  0  0  0
 16 30  2  0  0  0  0
 16 31  1  0  0  0  0
 17 32  1  0  0  0  0
 18 32  1  0  0  0  0
 18 33  2  0  0  0  0
 18 34  1  0  0  0  0
 19 21  2  0  0  0  0
 19 39  1  0  0  0  0
 20 22  2  0  0  0  0
 20 40  1  0  0  0  0
 21 48  1  0  0  0  0
 22 41  1  0  0  0  0
 23 59  1  0  0  0  0
 24 26  1  0  0  0  0
 24 51  1  0  0  0  0
 25 26  2  0  0  0  0
 25 64  1  0  0  0  0
 26 52  1  0  0  0  0
 27 84  1  0  0  0  0
 28 85  1  0  0  0  0
 29 31  2  0  0  0  0
 29 84  1  0  0  0  0
 30 86  1  0  0  0  0
 31 87  1  0  0  0  0
 32 68  2  0  0  0  0
 33 69  1  0  0  0  0
 33 72  1  0  0  0  0
 34 73  1  0  0  0  0
 34 79  2  0  0  0  0
 35 49  1  0  0  0  0
 35 74  1  0  0  0  0
 35 80  2  0  0  0  0
 36 65  1  0  0  0  0
 36 70  1  0  0  0  0
 36 81  2  0  0  0  0
 37 66  1  0  0  0  0
 37 75  1  0  0  0  0
 37 82  2  0  0  0  0
 38 71  1  0  0  0  0
 38 76  1  0  0  0  0
 38 83  2  0  0  0  0
 39 42  1  0  0  0  0
 40 49  1  0  0  0  0
 41 70  1  0  0  0  0
 42 44  1  0  0  0  0
 43 45  1  0  0  0  0
 43 46  1  0  0  0  0
 44 48  1  0  0  0  0
 45 50  1  0  0  0  0
 46 71  1  0  0  0  0
 47 50  1  0  0  0  0
 47 71  1  0  0  0  0
 48 74  1  0  0  0  0
 49 70  1  0  0  0  0
 50 69  1  0  0  0  0
 53 66  1  0  0  0  0
 54 67  1  0  0  0  0
 55 67  1  0  0  0  0
 56 67  1  0  0  0  0
 57 77  1  0  0  0  0
 58 78  1  0  0  0  0
 59 60  1  0  0  0  0
 60 63  1  0  0  0  0
 61 64  1  0  0  0  0
 61 76  1  0  0  0  0
 62 64  1  0  0  0  0
 62 77  1  0  0  0  0
 63 85  1  0  0  0  0
 65 67  1  0  0  0  0
 65 75  1  0  0  0  0
 66 78  1  0  0  0  0
 68 69  1  0  0  0  0
M  CHG  2  77   1  78   1
M  ISO  4  38 100  63 101  76 100  85 101
M  END
> <Batch ID>
0083

> <Smiles>
CNCC(C[100NH:0][100C:0](=O)N1CCCC(n2nc(-c3ccc(Oc4ccc(F)cc4F)cc3)c(C(N)=O)c2N)C1)c1cc(CC[101CH2:1][101O:1]c2ccc3c(c2)CN(C(=O)C(NC(=O)C(C)NC)C(C)(C)C)C(C(=O)NC2CCCc4ccccc42)C3)cc(C)c1C

> <Shape>
0.175

> <Color>
0.197

> <Negative vol penalty>
0.000

$$$$

  -OEChem-04052318513D

 84 92  0     1  0  0  0  0  0999 V2000
  -34.1317  -33.8406   19.9238 C   0  0  0  0  0  0  0  0  0  0  0  0
  -33.9075  -32.5205   19.5463 C   0  0  0  0  0  0  0  0  0  0  0  0
  -24.5757  -10.3482   23.2159 C   0  0  0  0  0  0  0  0  0  0  0  0
  -24.1627  -12.0457   24.8846 C   0  0  0  0  0  0  0  0  0  0  0  0
  -33.6031  -34.3214   21.1210 C   0  0  0  0  0  0  0  0  0  0  0  0
  -33.1553  -31.6801   20.3664 C   0  0  0  0  0  0  0  0  0  0  0  0
  -28.5792  -26.1793   20.0255 C   0  0  0  0  0  0  0  0  0  0  0  0
  -24.0835   -9.3743   24.0847 C   0  0  0  0  0  0  0  0  0  0  0  0
  -23.6704  -11.0718   25.7535 C   0  0  0  0  0  0  0  0  0  0  0  0
  -28.3917  -24.9003   20.5477 C   0  0  0  0  0  0  0  0  0  0  0  0
  -21.0653   -8.2576   25.1223 C   0  0  0  0  0  0  0  0  0  0  0  0
  -20.1809   -7.3125   24.6025 C   0  0  0  0  0  0  0  0  0  0  0  0
  -27.4616  -25.8626   22.5547 C   0  0  0  0  0  0  0  0  0  0  0  0
  -28.5568  -20.7231   23.2926 C   0  0  0  0  0  0  0  0  0  0  0  0
  -21.7128   -5.5454   25.2089 C   0  0  0  0  0  0  0  0  0  0  0  0
  -24.6154  -11.6839   23.6159 C   0  0  0  0  0  0  0  0  0  0  0  0
  -24.3924  -13.4382   21.7773 C   0  0  0  0  0  0  0  0  0  0  0  0
  -32.8361  -33.4893   21.9515 C   0  0  0  0  0  0  0  0  0  0  0  0
  -28.2187  -27.3118   20.7697 C   0  0  0  0  0  0  0  0  0  0  0  0
  -32.6171  -32.1500   21.5765 C   0  0  0  0  0  0  0  0  0  0  0  0
  -27.6431  -27.1548   22.0386 C   0  0  0  0  0  0  0  0  0  0  0  0
  -27.7444  -21.1139   22.2340 C   0  0  0  0  0  0  0  0  0  0  0  0
  -26.6674  -20.3176   21.8607 C   0  0  0  0  0  0  0  0  0  0  0  0
  -23.6309   -9.7361   25.3535 C   0  0  0  0  0  0  0  0  0  0  0  0
  -27.8355  -24.7418   21.8136 C   0  0  0  0  0  0  0  0  0  0  0  0
  -22.2736   -7.8466   25.6852 C   0  0  0  0  0  0  0  0  0  0  0  0
  -20.5046   -5.9564   24.6459 C   0  0  0  0  0  0  0  0  0  0  0  0
  -22.5973   -6.4906   25.7286 C   0  0  0  0  0  0  0  0  0  0  0  0
  -25.1242  -12.6903   22.7190 C   0  0  0  0  0  0  0  0  0  0  0  0
  -28.2521  -19.5367   23.9403 C   0  0  0  0  0  0  0  0  0  0  0  0
  -26.4474  -19.1493   22.5723 C   0  0  0  0  0  0  0  0  0  0  0  0
  -25.3268  -14.2508   21.1832 C   0  0  0  0  0  0  0  0  0  0  0  0
  -22.9930  -13.4018   21.4674 C   0  0  0  0  0  0  0  0  0  0  0  0
  -29.7889  -29.8040   21.9644 C   0  0  0  0  0  0  0  0  0  0  0  0
  -26.8053  -30.8223   22.7285 C   0  0  0  0  0  0  0  0  0  0  0  0
  -23.5514  -30.0274   23.3818 C   0  0  0  0  0  0  0  0  0  0  0  0
  -30.6177  -16.3861   22.9993 C   0  0  0  0  0  0  0  0  0  0  0  0
  -32.3251  -34.0406   23.2590 C   0  0  0  0  0  0  0  0  0  0  0  0
  -28.4027  -28.6838   20.1813 C   0  0  0  0  0  0  0  0  0  0  0  0
  -27.2204  -28.3377   22.8696 C   0  0  0  0  0  0  0  0  0  0  0  0
  -31.2244  -33.1915   23.8896 C   0  0  0  0  0  0  0  0  0  0  0  0
  -29.9820  -14.4296   20.0933 C   0  0  0  0  0  0  0  0  0  0  0  0
  -31.6091  -31.7155   23.8658 C   0  0  0  0  0  0  0  0  0  0  0  0
  -28.5989  -13.8295   20.3517 C   0  0  0  0  0  0  0  0  0  0  0  0
  -30.8049  -14.5241   21.3762 C   0  0  0  0  0  0  0  0  0  0  0  0
  -28.7585  -14.6325   22.7451 C   0  0  0  0  0  0  0  0  0  0  0  0
  -31.7856  -31.2146   22.4272 C   0  0  1  0  0  0  0  0  0  0  0  0
  -28.4741  -29.7823   21.2375 C   0  0  1  0  0  0  0  0  0  0  0  0
  -27.8708  -14.5687   21.4904 C   0  0  2  0  0  0  0  0  0  0  0  0
  -24.7951  -21.8131   21.1230 C   0  0  0  0  0  0  0  0  0  0  0  0
  -25.0392  -17.2044   23.2941 C   0  0  0  0  0  0  0  0  0  0  0  0
  -21.3573  -31.0695   24.0119 C   0  0  0  0  0  0  0  0  0  0  0  0
  -27.7873  -31.1483   25.5990 C   0  0  0  0  0  0  0  0  0  0  0  0
  -25.3956  -31.2582   26.3309 C   0  0  0  0  0  0  0  0  0  0  0  0
  -26.3066  -32.9930   24.7871 C   0  0  0  0  0  0  0  0  0  0  0  0
  -22.2551  -29.0796   20.8958 C   0  0  0  0  0  0  0  0  0  0  0  0
  -25.7774  -20.7128   20.7306 C   0  0  0  0  0  0  0  0  0  0  0  0
  -28.0520  -22.3928   21.5121 C   0  0  0  0  0  0  0  0  0  1  0  0
  -29.1014  -19.0866   25.0818 C   0  0  0  0  0  0  0  0  0  0  0  0
  -25.3053  -18.2536   22.2190 C   0  0  0  0  0  0  0  0  0  0  0  0
  -30.2785  -18.2004   24.6583 C   0  0  0  0  0  0  0  0  0  0  0  0
  -25.8907  -30.6555   23.9179 C   0  0  1  0  0  0  0  0  0  0  0  0
  -22.2487  -30.6129   22.8675 C   0  0  2  0  0  0  0  0  0  0  0  0
  -26.3547  -31.4913   25.1441 C   0  0  0  0  0  0  0  0  0  0  0  0
  -26.4234  -13.0001   22.7262 N   0  0  0  0  0  0  0  0  0  0  0  0
  -27.2146  -18.7369   23.6062 N   0  0  0  0  0  0  0  0  0  0  0  0
  -26.5153  -13.9516   21.7816 N   0  0  0  0  0  0  0  0  0  0  0  0
  -27.4266  -29.6587   22.2532 N   0  0  0  0  0  0  0  0  0  0  0  0
  -30.0584  -15.2375   22.4153 N   0  0  0  0  0  0  0  0  0  0  0  0
  -25.2396  -15.1849   20.2125 N   0  0  0  0  0  0  0  0  0  0  0  0
  -22.1754  -12.5083   22.1728 N   0  0  0  0  0  0  0  0  0  0  0  0
  -30.4968  -30.9808   21.8117 N   0  0  0  0  0  0  0  0  0  0  0  0
  -24.5476  -30.9783   23.4485 N   0  0  0  0  0  0  0  0  0  0  0  0
  -29.8416  -17.0055   23.9713 N   0  0  0  0  0  0  0  0  0  0  0  0
  -21.5048  -29.5987   22.0682 N   0  3  0  0  0  0  0  0  0  0  0  0
  -22.4855  -14.1280   20.5794 O   0  0  0  0  0  0  0  0  0  0  0  0
  -30.1348  -28.8260   22.6168 O   0  0  0  0  0  0  0  0  0  0  0  0
  -26.9573  -31.9425   22.2349 O   0  0  0  0  0  0  0  0  0  0  0  0
  -23.6721  -28.8455   23.6966 O   0  0  0  0  0  0  0  0  0  0  0  0
  -31.7243  -16.8300   22.6745 O   0  0  0  0  0  0  0  0  0  0  0  0
  -23.1503   -8.7861   26.2015 O   0  0  0  0  0  0  0  0  0  0  0  0
  -27.6520  -23.4945   22.3260 O   0  0  0  0  0  0  0  0  0  1  0  0
  -19.6544   -5.0489   24.1482 F   0  0  0  0  0  0  0  0  0  0  0  0
  -23.7560   -6.0896   26.2693 F   0  0  0  0  0  0  0  0  0  0  0  0
  1  2  1  0  0  0  0
  1  5  2  0  0  0  0
  2  6  2  0  0  0  0
  3  8  2  0  0  0  0
  3 16  1  0  0  0  0
  4  9  1  0  0  0  0
  4 16  2  0  0  0  0
  5 18  1  0  0  0  0
  6 20  1  0  0  0  0
  7 10  2  0  0  0  0
  7 19  1  0  0  0  0
  8 24  1  0  0  0  0
  9 24  2  0  0  0  0
 10 25  1  0  0  0  0
 11 12  2  0  0  0  0
 11 26  1  0  0  0  0
 12 27  1  0  0  0  0
 13 21  1  0  0  0  0
 13 25  2  0  0  0  0
 14 22  2  0  0  0  0
 14 30  1  0  0  0  0
 15 27  2  0  0  0  0
 15 28  1  0  0  0  0
 16 29  1  0  0  0  0
 17 29  1  0  0  0  0
 17 32  2  0  0  0  0
 17 33  1  0  0  0  0
 18 20  2  0  0  0  0
 18 38  1  0  0  0  0
 19 21  2  0  0  0  0
 19 39  1  0  0  0  0
 20 47  1  0  0  0  0
 21 40  1  0  0  0  0
 22 23  1  0  0  0  0
 22 58  1  0  0  0  0
 23 31  2  0  0  0  0
 23 57  1  0  0  0  0
 24 81  1  0  0  0  0
 25 82  1  0  0  0  0
 26 28  2  0  0  0  0
 26 81  1  0  0  0  0
 27 83  1  0  0  0  0
 28 84  1  0  0  0  0
 29 65  2  0  0  0  0
 30 59  1  0  0  0  0
 30 66  2  0  0  0  0
 31 60  1  0  0  0  0
 31 66  1  0  0  0  0
 32 67  1  0  0  0  0
 32 70  1  0  0  0  0
 33 71  1  0  0  0  0
 33 76  2  0  0  0  0
 34 48  1  0  0  0  0
 34 72  1  0  0  0  0
 34 77  2  0  0  0  0
 35 62  1  0  0  0  0
 35 68  1  0  0  0  0
 35 78  2  0  0  0  0
 36 63  1  0  0  0  0
 36 73  1  0  0  0  0
 36 79  2  0  0  0  0
 37 69  1  0  0  0  0
 37 74  1  0  0  0  0
 37 80  2  0  0  0  0
 38 41  1  0  0  0  0
 39 48  1  0  0  0  0
 40 68  1  0  0  0  0
 41 43  1  0  0  0  0
 42 44  1  0  0  0  0
 42 45  1  0  0  0  0
 43 47  1  0  0  0  0
 44 49  1  0  0  0  0
 45 69  1  0  0  0  0
 46 49  1  0  0  0  0
 46 69  1  0  0  0  0
 47 72  1  0  0  0  0
 48 68  1  0  0  0  0
 49 67  1  0  0  0  0
 50 57  1  0  0  0  0
 51 60  1  0  0  0  0
 52 63  1  0  0  0  0
 53 64  1  0  0  0  0
 54 64  1  0  0  0  0
 55 64  1  0  0  0  0
 56 75  1  0  0  0  0
 58 82  1  0  0  0  0
 59 61  1  0  0  0  0
 61 74  1  0  0  0  0
 62 64  1  0  0  0  0
 62 73  1  0  0  0  0
 63 75  1  0  0  0  0
 65 67  1  0  0  0  0
M  CHG  1  75   1
M  ISO  4  37 100  58 101  74 100  82 101
M  END
> <Batch ID>
0083

> <Smiles>
CCc1nc(CC[100NH:0][100C:0](=O)N2CCCC(n3nc(-c4ccc(Oc5ccc(F)cc5F)cc4)c(C(N)=O)c3N)C2)cc([101CH2:1][101O:1]c2ccc3c(c2)CN(C(=O)C(NC(=O)C(C)NC)C(C)(C)C)C(C(=O)NC2CCCc4ccccc42)C3)c1CC

> <Shape>
0.199

> <Color>
0.122

> <Negative vol penalty>
0.000

$$$$

  -OEChem-04052318513D

 85 93  0     1  0  0  0  0  0999 V2000
  -24.9831  -28.7996   19.9940 C   0  0  0  0  0  0  0  0  0  0  0  0
  -24.8508  -27.6619   19.2044 C   0  0  0  0  0  0  0  0  0  0  0  0
  -20.3308  -23.1140   21.3204 C   0  0  0  0  0  0  0  0  0  0  0  0
  -22.5000  -23.6482   20.4006 C   0  0  0  0  0  0  0  0  0  0  0  0
  -26.1903  -29.0614   20.6407 C   0  0  0  0  0  0  0  0  0  0  0  0
  -25.9259  -26.7858   19.0601 C   0  0  0  0  0  0  0  0  0  0  0  0
  -25.6597  -20.6943   18.4865 C   0  0  0  0  0  0  0  0  0  0  0  0
  -20.3626  -24.2859   22.0761 C   0  0  0  0  0  0  0  0  0  0  0  0
  -22.5319  -24.8202   21.1563 C   0  0  0  0  0  0  0  0  0  0  0  0
  -25.7165  -19.8534   17.3759 C   0  0  0  0  0  0  0  0  0  0  0  0
  -19.8360  -27.5881   21.5752 C   0  0  0  0  0  0  0  0  0  0  0  0
  -18.6834  -28.3732   21.6028 C   0  0  0  0  0  0  0  0  0  0  0  0
  -29.9679  -12.7878   17.3011 C   0  0  0  0  0  0  0  0  0  0  0  0
  -28.7732  -12.4420   17.9794 C   0  0  0  0  0  0  0  0  0  0  0  0
  -28.0785  -19.5331   17.7466 C   0  0  0  0  0  0  0  0  0  0  0  0
  -18.5580  -28.1049   24.0006 C   0  0  0  0  0  0  0  0  0  0  0  0
  -21.3995  -22.7952   20.4826 C   0  0  0  0  0  0  0  0  0  0  0  0
  -20.8550  -21.4254   18.4006 C   0  0  0  0  0  0  0  0  0  0  0  0
  -27.2777  -28.1830   20.5120 C   0  0  0  0  0  0  0  0  0  0  0  0
  -26.8161  -20.9701   19.2303 C   0  0  0  0  0  0  0  0  0  0  0  0
  -27.1492  -27.0367   19.7046 C   0  0  0  0  0  0  0  0  0  0  0  0
  -28.0333  -20.3759   18.8677 C   0  0  0  0  0  0  0  0  0  0  0  0
  -21.4631  -25.1390   21.9941 C   0  0  0  0  0  0  0  0  0  0  0  0
  -26.9265  -19.2749   17.0041 C   0  0  0  0  0  0  0  0  0  0  0  0
  -20.3496  -27.0614   22.7603 C   0  0  0  0  0  0  0  0  0  0  0  0
  -18.0444  -28.6316   22.8154 C   0  0  0  0  0  0  0  0  0  0  0  0
  -19.7106  -27.3198   23.9729 C   0  0  0  0  0  0  0  0  0  0  0  0
  -21.3675  -21.5844   19.7021 C   0  0  0  0  0  0  0  0  0  0  0  0
  -29.8421  -14.0955   16.8872 C   0  0  0  0  0  0  0  0  0  0  0  0
  -27.9536  -13.5489   17.9593 C   0  0  0  0  0  0  0  0  0  0  0  0
  -21.0598  -20.0985   18.1107 C   0  0  0  0  0  0  0  0  0  0  0  0
  -20.2482  -22.3907   17.5313 C   0  0  0  0  0  0  0  0  0  0  0  0
  -28.4787  -23.5948   19.9012 C   0  0  0  0  0  0  0  0  0  0  0  0
  -30.1431  -21.5793   21.8222 C   0  0  0  0  0  0  0  0  0  0  0  0
  -31.1127  -18.3825   22.5203 C   0  0  0  0  0  0  0  0  0  0  0  0
  -25.0242  -16.2036   20.1028 C   0  0  0  0  0  0  0  0  0  0  0  0
  -28.5777  -28.5326   21.1921 C   0  0  0  0  0  0  0  0  0  0  0  0
  -26.7329  -21.8581   20.4414 C   0  0  0  0  0  0  0  0  0  0  0  0
  -29.2994  -20.6237   19.6449 C   0  0  0  0  0  0  0  0  0  0  0  0
  -29.5491  -27.3590   21.2894 C   0  0  0  0  0  0  0  0  0  0  0  0
  -21.4276  -15.8180   20.2201 C   0  0  0  0  0  0  0  0  0  0  0  0
  -29.6433  -26.6318   19.9518 C   0  0  0  0  0  0  0  0  0  0  0  0
  -20.9597  -17.2535   19.9738 C   0  0  0  0  0  0  0  0  0  0  0  0
  -22.6870  -15.7872   21.0811 C   0  0  0  0  0  0  0  0  0  0  0  0
  -23.3554  -18.0258   20.2963 C   0  0  0  0  0  0  0  0  0  0  0  0
  -28.2848  -26.0494   19.5435 C   0  0  1  0  0  0  0  0  0  0  0  0
  -28.0742  -22.4778   20.8212 C   0  0  1  0  0  0  0  0  0  0  0  0
  -22.0985  -18.1257   19.4130 C   0  0  2  0  0  0  0  0  0  0  0  0
  -30.7906  -14.9475   16.1406 C   0  0  0  0  0  0  0  0  0  0  0  0
  -25.7582  -12.4350   18.4725 C   0  0  0  0  0  0  0  0  0  0  0  0
  -32.5036  -17.0533   24.1315 C   0  0  0  0  0  0  0  0  0  0  0  0
  -27.8583  -15.9509   14.5516 C   0  0  0  0  0  0  0  0  0  0  0  0
  -25.1426  -17.3652   14.8295 C   0  0  0  0  0  0  0  0  0  0  0  0
  -32.6780  -22.5358   20.4189 C   0  0  0  0  0  0  0  0  0  0  0  0
  -33.8685  -20.5466   21.3646 C   0  0  0  0  0  0  0  0  0  0  0  0
  -32.8969  -22.2603   22.8950 C   0  0  0  0  0  0  0  0  0  0  0  0
  -28.7695  -16.8252   23.4385 C   0  0  0  0  0  0  0  0  0  0  0  0
  -28.0707  -15.9342   17.0431 C   0  0  0  0  0  0  0  0  0  0  0  0
  -26.5887  -14.2819   19.9737 C   0  0  0  0  0  0  0  0  0  0  0  0
  -26.5993  -13.7340   18.5199 C   0  0  1  0  0  0  0  0  0  0  0  0
  -31.3528  -20.6930   21.6494 C   0  0  1  0  0  0  0  0  0  0  0  0
  -31.1167  -17.5914   23.8159 C   0  0  2  0  0  0  0  0  0  0  0  0
  -27.0676  -16.0185   15.8663 C   0  0  1  0  0  0  0  0  0  0  0  0
  -26.1742  -17.2802   15.9500 C   0  0  1  0  0  0  0  0  0  1  0  0
  -32.6758  -21.5056   21.5660 C   0  0  0  0  0  0  0  0  0  0  0  0
  -21.8605  -20.4493   20.2044 N   0  0  0  0  0  0  0  0  0  0  0  0
  -28.6136  -14.5479   17.2925 N   0  0  0  0  0  0  0  0  0  0  0  0
  -21.6588  -19.5642   19.2134 N   0  0  0  0  0  0  0  0  0  0  0  0
  -29.1680  -21.5043   20.8175 N   0  0  0  0  0  0  0  0  0  0  0  0
  -23.7380  -16.6221   20.4823 N   0  0  0  0  0  0  0  0  0  0  0  0
  -20.7840  -19.3484   17.0228 N   0  0  0  0  0  0  0  0  0  0  0  0
  -20.1156  -23.7096   17.9865 N   0  0  0  0  0  0  0  0  0  0  0  0
  -28.0111  -24.8372   20.2851 N   0  0  0  0  0  0  0  0  0  0  0  0
  -31.3119  -19.7286   22.7433 N   0  0  0  0  0  0  0  0  0  0  0  0
  -25.3093  -14.8609   20.3186 N   0  0  0  0  0  0  0  0  0  0  0  0
  -30.1758  -16.4394   23.7223 N   0  3  0  0  0  0  0  0  0  0  0  0
  -19.8209  -22.0889   16.3912 O   0  0  0  0  0  0  0  0  0  0  0  0
  -29.1656  -23.3480   18.9168 O   0  0  0  0  0  0  0  0  0  0  0  0
  -30.0627  -22.3060   22.8157 O   0  0  0  0  0  0  0  0  0  0  0  0
  -30.9527  -17.8584   21.4202 O   0  0  0  0  0  0  0  0  0  0  0  0
  -25.8558  -16.9691   19.6033 O   0  0  0  0  0  0  0  0  0  0  0  0
  -21.4944  -26.2828   22.7313 O   0  0  0  0  0  0  0  0  0  0  0  0
  -26.9848  -18.4543   15.9201 O   0  0  0  0  0  0  0  0  0  1  0  0
  -16.9385  -29.3868   22.8420 F   0  0  0  0  0  0  0  0  0  0  0  0
  -20.2000  -26.8175   25.1148 F   0  0  0  0  0  0  0  0  0  0  0  0
  1  2  1  0  0  0  0
  1  5  2  0  0  0  0
  2  6  2  0  0  0  0
  3  8  2  0  0  0  0
  3 17  1  0  0  0  0
  4  9  1  0  0  0  0
  4 17  2  0  0  0  0
  5 19  1  0  0  0  0
  6 21  1  0  0  0  0
  7 10  2  0  0  0  0
  7 20  1  0  0  0  0
  8 23  1  0  0  0  0
  9 23  2  0  0  0  0
 10 24  1  0  0  0  0
 11 12  2  0  0  0  0
 11 25  1  0  0  0  0
 12 26  1  0  0  0  0
 13 14  1  0  0  0  0
 13 29  2  0  0  0  0
 14 30  2  0  0  0  0
 15 22  1  0  0  0  0
 15 24  2  0  0  0  0
 16 26  2  0  0  0  0
 16 27  1  0  0  0  0
 17 28  1  0  0  0  0
 18 28  1  0  0  0  0
 18 31  2  0  0  0  0
 18 32  1  0  0  0  0
 19 21  2  0  0  0  0
 19 37  1  0  0  0  0
 20 22  2  0  0  0  0
 20 38  1  0  0  0  0
 21 46  1  0  0  0  0
 22 39  1  0  0  0  0
 23 82  1  0  0  0  0
 24 83  1  0  0  0  0
 25 27  2  0  0  0  0
 25 82  1  0  0  0  0
 26 84  1  0  0  0  0
 27 85  1  0  0  0  0
 28 66  2  0  0  0  0
 29 49  1  0  0  0  0
 29 67  1  0  0  0  0
 30 60  1  0  0  0  0
 30 67  1  0  0  0  0
 31 68  1  0  0  0  0
 31 71  1  0  0  0  0
 32 72  1  0  0  0  0
 32 77  2  0  0  0  0
 33 47  1  0  0  0  0
 33 73  1  0  0  0  0
 33 78  2  0  0  0  0
 34 61  1  0  0  0  0
 34 69  1  0  0  0  0
 34 79  2  0  0  0  0
 35 62  1  0  0  0  0
 35 74  1  0  0  0  0
 35 80  2  0  0  0  0
 36 70  1  0  0  0  0
 36 75  1  0  0  0  0
 36 81  2  0  0  0  0
 37 40  1  0  0  0  0
 38 47  1  0  0  0  0
 39 69  1  0  0  0  0
 40 42  1  0  0  0  0
 41 43  1  0  0  0  0
 41 44  1  0  0  0  0
 42 46  1  0  0  0  0
 43 48  1  0  0  0  0
 44 70  1  0  0  0  0
 45 48  1  0  0  0  0
 45 70  1  0  0  0  0
 46 73  1  0  0  0  0
 47 69  1  0  0  0  0
 48 68  1  0  0  0  0
 50 60  1  0  0  0  0
 51 62  1  0  0  0  0
 52 63  1  0  0  0  0
 53 64  1  0  0  0  0
 54 65  1  0  0  0  0
 55 65  1  0  0  0  0
 56 65  1  0  0  0  0
 57 76  1  0  0  0  0
 58 63  1  0  0  0  0
 58 67  1  0  0  0  0
 59 60  1  0  0  0  0
 59 75  1  0  0  0  0
 61 65  1  0  0  0  0
 61 74  1  0  0  0  0
 62 76  1  0  0  0  0
 63 64  1  0  0  0  0
 64 83  1  0  0  0  0
 66 68  1  0  0  0  0
M  CHG  1  76   1
M  ISO  4  36 100  64 101  75 100  83 101
M  END
> <Batch ID>
0083

> <Smiles>
CNC(C)C(=O)NC(C(=O)N1Cc2cc([101O:1][101CH:1](C)C(C)Cn3c(C)ccc3C(C)C[100NH:0][100C:0](=O)N3CCCC(n4nc(-c5ccc(Oc6ccc(F)cc6F)cc5)c(C(N)=O)c4N)C3)ccc2CC1C(=O)NC1CCCc2ccccc21)C(C)(C)C

> <Shape>
0.198

> <Color>
0.068

> <Negative vol penalty>
0.000

$$$$

  -OEChem-04052318513D

 85 93  0     1  0  0  0  0  0999 V2000
  -27.0149  -23.9459   16.9005 C   0  0  0  0  0  0  0  0  0  0  0  0
  -25.8705  -24.3313   17.5914 C   0  0  0  0  0  0  0  0  0  0  0  0
  -27.0855  -13.5857   20.2368 C   0  0  0  0  0  0  0  0  0  0  0  0
  -24.7522  -14.1882   20.4084 C   0  0  0  0  0  0  0  0  0  0  0  0
  -28.2734  -24.2912   17.3911 C   0  0  0  0  0  0  0  0  0  0  0  0
  -25.9841  -25.0613   18.7740 C   0  0  0  0  0  0  0  0  0  0  0  0
  -22.7362  -28.9411   18.9817 C   0  0  0  0  0  0  0  0  0  0  0  0
  -26.8243  -12.3855   20.8978 C   0  0  0  0  0  0  0  0  0  0  0  0
  -24.4909  -12.9881   21.0694 C   0  0  0  0  0  0  0  0  0  0  0  0
  -21.4112  -28.6460   19.2996 C   0  0  0  0  0  0  0  0  0  0  0  0
  -24.0530   -9.7389   20.2497 C   0  0  0  0  0  0  0  0  0  0  0  0
  -22.9317   -9.0118   19.8505 C   0  0  0  0  0  0  0  0  0  0  0  0
  -21.8095  -29.3384   21.5758 C   0  0  0  0  0  0  0  0  0  0  0  0
  -19.0712  -23.8303   22.0424 C   0  0  0  0  0  0  0  0  0  0  0  0
  -22.0202   -9.1930   22.0807 C   0  0  0  0  0  0  0  0  0  0  0  0
  -26.0495  -14.4871   19.9921 C   0  0  0  0  0  0  0  0  0  0  0  0
  -26.2768  -15.9606   17.9222 C   0  0  0  0  0  0  0  0  0  0  0  0
  -28.4022  -25.0341   18.5752 C   0  0  0  0  0  0  0  0  0  0  0  0
  -23.6122  -29.4277   19.9627 C   0  0  0  0  0  0  0  0  0  0  0  0
  -27.2456  -25.4157   19.2816 C   0  0  0  0  0  0  0  0  0  0  0  0
  -23.1444  -29.6414   21.2671 C   0  0  0  0  0  0  0  0  0  0  0  0
  -20.0057  -22.8322   21.8287 C   0  0  0  0  0  0  0  0  0  0  0  0
  -25.5270  -12.0867   21.3141 C   0  0  0  0  0  0  0  0  0  0  0  0
  -20.9484  -28.8419   20.5975 C   0  0  0  0  0  0  0  0  0  0  0  0
  -24.1581  -10.1931   21.5644 C   0  0  0  0  0  0  0  0  0  0  0  0
  -21.9152   -8.7388   20.7660 C   0  0  0  0  0  0  0  0  0  0  0  0
  -23.1416   -9.9202   22.4799 C   0  0  0  0  0  0  0  0  0  0  0  0
  -26.3189  -15.7272   19.3098 C   0  0  0  0  0  0  0  0  0  0  0  0
  -19.5218  -25.1332   22.1112 C   0  0  0  0  0  0  0  0  0  0  0  0
  -21.3288  -23.2033   21.6977 C   0  0  0  0  0  0  0  0  0  0  0  0
  -26.6084  -17.2866   17.7868 C   0  0  0  0  0  0  0  0  0  0  0  0
  -25.9658  -15.0594   16.8513 C   0  0  0  0  0  0  0  0  0  0  0  0
  -26.3152  -28.3867   21.2717 C   0  0  0  0  0  0  0  0  0  0  0  0
  -26.2756  -31.2895   22.7190 C   0  0  0  0  0  0  0  0  0  0  0  0
  -24.4519  -33.9666   23.7933 C   0  0  0  0  0  0  0  0  0  0  0  0
  -26.1786  -21.9930   21.4632 C   0  0  0  0  0  0  0  0  0  0  0  0
  -29.7852  -25.3431   19.0915 C   0  0  0  0  0  0  0  0  0  0  0  0
  -25.0313  -29.7665   19.5972 C   0  0  0  0  0  0  0  0  0  0  0  0
  -24.0392  -30.1809   22.3520 C   0  0  0  0  0  0  0  0  0  0  0  0
  -29.8081  -26.4400   20.1529 C   0  0  0  0  0  0  0  0  0  0  0  0
  -29.1328  -20.7509   19.9120 C   0  0  0  0  0  0  0  0  0  0  0  0
  -28.7204  -26.1978   21.1945 C   0  0  0  0  0  0  0  0  0  0  0  0
  -28.7429  -19.3436   19.4566 C   0  0  0  0  0  0  0  0  0  0  0  0
  -28.4838  -21.1124   21.2462 C   0  0  0  0  0  0  0  0  0  0  0  0
  -26.6282  -19.5448   20.8300 C   0  0  0  0  0  0  0  0  0  0  0  0
  -27.3271  -26.2296   20.5548 C   0  0  1  0  0  0  0  0  0  0  0  0
  -25.9727  -29.7708   20.7977 C   0  0  1  0  0  0  0  0  0  0  0  0
  -27.2138  -19.1562   19.4617 C   0  0  2  0  0  0  0  0  0  0  0  0
  -18.6162  -21.1515   20.5646 C   0  0  0  0  0  0  0  0  0  0  0  0
  -18.9289  -20.9107   23.0544 C   0  0  0  0  0  0  0  0  0  0  0  0
  -24.6923  -36.1676   24.9744 C   0  0  0  0  0  0  0  0  0  0  0  0
  -26.5627  -29.8267   25.3813 C   0  0  0  0  0  0  0  0  0  0  0  0
  -25.8499  -31.9313   26.5350 C   0  0  0  0  0  0  0  0  0  0  0  0
  -27.9425  -31.9025   25.1774 C   0  0  0  0  0  0  0  0  0  0  0  0
  -23.4376  -35.4657   21.4518 C   0  0  0  0  0  0  0  0  0  0  0  0
  -18.5450  -26.2582   22.3429 C   0  0  0  0  0  0  0  0  0  0  0  0
  -22.3915  -22.1826   21.4666 C   0  0  0  0  0  0  0  0  0  0  0  0
  -17.9716  -26.8513   21.0541 C   0  0  0  0  0  0  0  0  0  0  0  0
  -23.8146  -22.7304   21.6279 C   0  0  0  0  0  0  0  0  0  0  0  0
  -19.0255  -27.5090   20.1710 C   0  0  0  0  0  0  0  0  0  1  0  0
  -19.5720  -21.4097   21.7457 C   0  0  0  0  0  0  0  0  0  0  0  0
  -25.7035  -31.8352   24.0051 C   0  0  1  0  0  0  0  0  0  0  0  0
  -24.6631  -35.4608   23.6282 C   0  0  2  0  0  0  0  0  0  0  0  0
  -26.4981  -31.3619   25.2549 C   0  0  0  0  0  0  0  0  0  0  0  0
  -26.6511  -16.8175   20.0062 N   0  0  0  0  0  0  0  0  0  0  0  0
  -20.8231  -25.4674   21.9794 N   0  0  0  0  0  0  0  0  0  0  0  0
  -21.7414  -24.4865   21.7691 N   0  0  0  0  0  0  0  0  0  0  0  0
  -26.8210  -17.7487   19.0522 N   0  0  0  0  0  0  0  0  0  0  0  0
  -25.4201  -30.4911   21.9467 N   0  0  0  0  0  0  0  0  0  0  0  0
  -27.0337  -20.9142   21.1837 N   0  0  0  0  0  0  0  0  0  0  0  0
  -26.7361  -18.0906   16.7099 N   0  0  0  0  0  0  0  0  0  0  0  0
  -25.6469  -13.7316   17.1668 N   0  0  0  0  0  0  0  0  0  0  0  0
  -26.9142  -27.5950   20.3105 N   0  0  0  0  0  0  0  0  0  0  0  0
  -25.6490  -33.2842   23.8451 N   0  0  0  0  0  0  0  0  0  0  0  0
  -24.8188  -21.7211   21.3751 N   0  0  0  0  0  0  0  0  0  0  0  0
  -23.5660  -36.0518   22.8108 N   0  3  0  0  0  0  0  0  0  0  0  0
  -25.9865  -15.4167   15.6491 O   0  0  0  0  0  0  0  0  0  0  0  0
  -26.0566  -28.0616   22.4246 O   0  0  0  0  0  0  0  0  0  0  0  0
  -27.4364  -31.5675   22.4075 O   0  0  0  0  0  0  0  0  0  0  0  0
  -23.3366  -33.4562   23.8724 O   0  0  0  0  0  0  0  0  0  0  0  0
  -26.5961  -23.1166   21.7634 O   0  0  0  0  0  0  0  0  0  0  0  0
  -25.2716  -10.9156   21.9590 O   0  0  0  0  0  0  0  0  0  0  0  0
  -19.6558  -28.5540   20.9107 O   0  0  0  0  0  0  0  0  0  1  0  0
  -20.8377   -8.0419   20.3821 F   0  0  0  0  0  0  0  0  0  0  0  0
  -23.2364  -10.3549   23.7439 F   0  0  0  0  0  0  0  0  0  0  0  0
  1  2  1  0  0  0  0
  1  5  2  0  0  0  0
  2  6  2  0  0  0  0
  3  8  2  0  0  0  0
  3 16  1  0  0  0  0
  4  9  1  0  0  0  0
  4 16  2  0  0  0  0
  5 18  1  0  0  0  0
  6 20  1  0  0  0  0
  7 10  2  0  0  0  0
  7 19  1  0  0  0  0
  8 23  1  0  0  0  0
  9 23  2  0  0  0  0
 10 24  1  0  0  0  0
 11 12  2  0  0  0  0
 11 25  1  0  0  0  0
 12 26  1  0  0  0  0
 13 21  1  0  0  0  0
 13 24  2  0  0  0  0
 14 22  2  0  0  0  0
 14 29  1  0  0  0  0
 15 26  2  0  0  0  0
 15 27  1  0  0  0  0
 16 28  1  0  0  0  0
 17 28  1  0  0  0  0
 17 31  2  0  0  0  0
 17 32  1  0  0  0  0
 18 20  2  0  0  0  0
 18 37  1  0  0  0  0
 19 21  2  0  0  0  0
 19 38  1  0  0  0  0
 20 46  1  0  0  0  0
 21 39  1  0  0  0  0
 22 30  1  0  0  0  0
 22 61  1  0  0  0  0
 23 82  1  0  0  0  0
 24 83  1  0  0  0  0
 25 27  2  0  0  0  0
 25 82  1  0  0  0  0
 26 84  1  0  0  0  0
 27 85  1  0  0  0  0
 28 65  2  0  0  0  0
 29 56  1  0  0  0  0
 29 66  2  0  0  0  0
 30 57  1  0  0  0  0
 30 67  2  0  0  0  0
 31 68  1  0  0  0  0
 31 71  1  0  0  0  0
 32 72  1  0  0  0  0
 32 77  2  0  0  0  0
 33 47  1  0  0  0  0
 33 73  1  0  0  0  0
 33 78  2  0  0  0  0
 34 62  1  0  0  0  0
 34 69  1  0  0  0  0
 34 79  2  0  0  0  0
 35 63  1  0  0  0  0
 35 74  1  0  0  0  0
 35 80  2  0  0  0  0
 36 70  1  0  0  0  0
 36 75  1  0  0  0  0
 36 81  2  0  0  0  0
 37 40  1  0  0  0  0
 38 47  1  0  0  0  0
 39 69  1  0  0  0  0
 40 42  1  0  0  0  0
 41 43  1  0  0  0  0
 41 44  1  0  0  0  0
 42 46  1  0  0  0  0
 43 48  1  0  0  0  0
 44 70  1  0  0  0  0
 45 48  1  0  0  0  0
 45 70  1  0  0  0  0
 46 73  1  0  0  0  0
 47 69  1  0  0  0  0
 48 68  1  0  0  0  0
 49 61  1  0  0  0  0
 50 61  1  0  0  0  0
 51 63  1  0  0  0  0
 52 64  1  0  0  0  0
 53 64  1  0  0  0  0
 54 64  1  0  0  0  0
 55 76  1  0  0  0  0
 56 58  1  0  0  0  0
 57 59  1  0  0  0  0
 58 60  1  0  0  0  0
 59 75  1  0  0  0  0
 60 83  1  0  0  0  0
 62 64  1  0  0  0  0
 62 74  1  0  0  0  0
 63 76  1  0  0  0  0
 65 68  1  0  0  0  0
 66 67  1  0  0  0  0
M  CHG  1  76   1
M  ISO  4  36 100  60 101  75 100  83 101
M  END
> <Batch ID>
0083

> <Smiles>
CNC(C)C(=O)NC(C(=O)N1Cc2cc([101O:1][101CH2:1]CCc3cc(C(C)C)c(CC[100NH:0][100C:0](=O)N4CCCC(n5nc(-c6ccc(Oc7ccc(F)cc7F)cc6)c(C(N)=O)c5N)C4)nn3)ccc2CC1C(=O)NC1CCCc2ccccc21)C(C)(C)C

> <Shape>
0.303

> <Color>
0.077

> <Negative vol penalty>
0.000

$$$$

  -OEChem-04052318513D

 81 88  0     1  0  0  0  0  0999 V2000
  -28.1307  -32.8904   22.4653 C   0  0  0  0  0  0  0  0  0  0  0  0
  -29.1623  -31.9584   22.5160 C   0  0  0  0  0  0  0  0  0  0  0  0
  -23.2301   -9.7415   19.9660 C   0  0  0  0  0  0  0  0  0  0  0  0
  -23.9022   -9.8996   22.2813 C   0  0  0  0  0  0  0  0  0  0  0  0
  -26.8810  -32.5192   21.9710 C   0  0  0  0  0  0  0  0  0  0  0  0
  -28.9444  -30.6541   22.0733 C   0  0  0  0  0  0  0  0  0  0  0  0
  -32.3292  -25.1977   18.8973 C   0  0  0  0  0  0  0  0  0  0  0  0
  -22.5535   -8.5537   20.2436 C   0  0  0  0  0  0  0  0  0  0  0  0
  -23.2256   -8.7118   22.5588 C   0  0  0  0  0  0  0  0  0  0  0  0
  -32.5776  -23.8368   19.0707 C   0  0  0  0  0  0  0  0  0  0  0  0
  -20.0356   -7.7293   23.0869 C   0  0  0  0  0  0  0  0  0  0  0  0
  -19.2398   -7.6908   24.2318 C   0  0  0  0  0  0  0  0  0  0  0  0
  -30.4007  -23.3302   18.1630 C   0  0  0  0  0  0  0  0  0  0  0  0
  -20.5756   -5.8741   25.0992 C   0  0  0  0  0  0  0  0  0  0  0  0
  -23.9045  -10.4144   20.9849 C   0  0  0  0  0  0  0  0  0  0  0  0
  -24.0867  -12.9490   20.7598 C   0  0  0  0  0  0  0  0  0  0  0  0
  -26.6505  -31.2123   21.5131 C   0  0  0  0  0  0  0  0  0  0  0  0
  -31.1084  -25.6363   18.3647 C   0  0  0  0  0  0  0  0  0  0  0  0
  -27.6901  -30.2647   21.5736 C   0  0  0  0  0  0  0  0  0  0  0  0
  -30.1404  -24.6971   17.9815 C   0  0  0  0  0  0  0  0  0  0  0  0
  -22.5512   -8.0389   21.5399 C   0  0  0  0  0  0  0  0  0  0  0  0
  -31.6121  -22.9029   18.7062 C   0  0  0  0  0  0  0  0  0  0  0  0
  -21.1013   -6.8401   22.9481 C   0  0  0  0  0  0  0  0  0  0  0  0
  -19.5098   -6.7633   25.2380 C   0  0  0  0  0  0  0  0  0  0  0  0
  -21.3713   -5.9125   23.9542 C   0  0  0  0  0  0  0  0  0  0  0  0
  -24.6041  -11.6411   20.6987 C   0  0  0  0  0  0  0  0  0  0  0  0
  -25.1409  -13.7524   20.3998 C   0  0  0  0  0  0  0  0  0  0  0  0
  -22.7708  -13.3974   21.1107 C   0  0  0  0  0  0  0  0  0  0  0  0
  -28.7136  -27.4351   19.4293 C   0  0  0  0  0  0  0  0  0  0  0  0
  -27.6286  -27.1028   16.3904 C   0  0  0  0  0  0  0  0  0  0  0  0
  -27.6148  -25.2863   13.5014 C   0  0  0  0  0  0  0  0  0  0  0  0
  -30.5365  -15.1396   20.7281 C   0  0  0  0  0  0  0  0  0  0  0  0
  -25.2693  -30.8450   21.0313 C   0  0  0  0  0  0  0  0  0  0  0  0
  -30.8666  -27.1066   18.1592 C   0  0  0  0  0  0  0  0  0  0  0  0
  -28.8215  -25.1153   17.3864 C   0  0  0  0  0  0  0  0  0  0  0  0
  -25.2285  -29.5443   20.2334 C   0  0  0  0  0  0  0  0  0  0  0  0
  -29.6448  -12.5824   18.4168 C   0  0  0  0  0  0  0  0  0  0  0  0
  -26.0232  -28.4552   20.9469 C   0  0  0  0  0  0  0  0  0  0  0  0
  -28.2142  -12.2135   18.8135 C   0  0  0  0  0  0  0  0  0  0  0  0
  -30.5005  -12.9161   19.6368 C   0  0  0  0  0  0  0  0  0  0  0  0
  -28.5053  -13.5799   20.9223 C   0  0  0  0  0  0  0  0  0  0  0  0
  -27.4998  -28.8470   21.0797 C   0  0  1  0  0  0  0  0  0  0  0  0
  -29.3853  -27.4639   18.0855 C   0  0  1  0  0  0  0  0  0  0  0  0
  -27.5889  -13.2895   19.7214 C   0  0  2  0  0  0  0  0  0  0  0  0
  -31.2733  -21.7492   22.7343 C   0  0  0  0  0  0  0  0  0  0  0  0
  -26.6026  -25.2446   11.2055 C   0  0  0  0  0  0  0  0  0  0  0  0
  -28.5672  -18.6168   20.6987 C   0  0  0  0  0  0  0  0  0  0  0  0
  -24.9952  -26.1131   17.5720 C   0  0  0  0  0  0  0  0  0  0  0  0
  -24.4017  -25.2100   15.3136 C   0  0  0  0  0  0  0  0  0  0  0  0
  -24.7479  -27.6609   15.6233 C   0  0  0  0  0  0  0  0  0  0  0  0
  -33.3257  -19.4898   21.6836 C   0  0  0  0  0  0  0  0  0  0  0  0
  -32.5146  -18.7604   19.4318 C   0  0  0  0  0  0  0  0  0  0  0  0
  -30.2662  -25.4892   12.2024 C   0  0  0  0  0  0  0  0  0  0  0  0
  -30.6558  -20.3752   22.5027 C   0  0  0  0  0  0  0  0  0  0  0  0
  -30.4173  -17.3421   21.8656 C   0  0  0  0  0  0  0  0  0  0  0  0
  -32.7123  -21.2026   19.9529 C   0  0  0  0  0  0  0  0  0  1  0  0
  -26.7447  -26.1111   15.6733 C   0  0  1  0  0  0  0  0  0  0  0  0
  -27.7821  -25.7002   12.0504 C   0  0  2  0  0  0  0  0  0  0  0  0
  -30.0892  -18.4319   20.8285 C   0  0  2  0  0  0  0  0  0  0  0  0
  -30.8137  -19.8141   21.0596 C   0  0  2  0  0  0  0  0  0  0  0  0
  -25.2464  -26.2657   16.0585 C   0  0  0  0  0  0  0  0  0  0  0  0
  -32.3310  -19.8178   20.5536 C   0  0  0  0  0  0  0  0  0  0  0  0
  -25.8871  -11.6110   20.3288 N   0  0  0  0  0  0  0  0  0  0  0  0
  -26.1848  -12.9098   20.1542 N   0  0  0  0  0  0  0  0  0  0  0  0
  -28.6297  -26.5644   17.2112 N   0  0  0  0  0  0  0  0  0  0  0  0
  -29.8521  -13.9438   20.4549 N   0  0  0  0  0  0  0  0  0  0  0  0
  -25.2674  -15.0904   20.2724 N   0  0  0  0  0  0  0  0  0  0  0  0
  -21.8079  -12.4390   21.4550 N   0  0  0  0  0  0  0  0  0  0  0  0
  -28.1896  -28.6517   19.8225 N   0  0  0  0  0  0  0  0  0  0  0  0
  -27.0159  -26.2777   14.2495 N   0  0  0  0  0  0  0  0  0  0  0  0
  -29.8478  -16.0629   21.5053 N   0  0  0  0  0  0  0  0  0  0  0  0
  -29.0248  -25.1056   11.4822 N   0  3  0  0  0  0  0  0  0  0  0  0
  -22.4536  -14.6110   21.1029 O   0  0  0  0  0  0  0  0  0  0  0  0
  -28.6726  -26.3863   20.0618 O   0  0  0  0  0  0  0  0  0  0  0  0
  -27.4422  -28.3106   16.2229 O   0  0  0  0  0  0  0  0  0  0  0  0
  -27.9756  -24.1914   13.9276 O   0  0  0  0  0  0  0  0  0  0  0  0
  -31.6748  -15.3698   20.3059 O   0  0  0  0  0  0  0  0  0  0  0  0
  -21.8909   -6.8800   21.8111 O   0  0  0  0  0  0  0  0  0  0  0  0
  -31.8531  -21.5660   18.8760 O   0  0  0  0  0  0  0  0  0  1  0  0
  -18.7465   -6.7275   26.3381 F   0  0  0  0  0  0  0  0  0  0  0  0
  -22.3945   -5.0566   23.8271 F   0  0  0  0  0  0  0  0  0  0  0  0
  1  2  1  0  0  0  0
  1  5  2  0  0  0  0
  2  6  2  0  0  0  0
  3  8  2  0  0  0  0
  3 15  1  0  0  0  0
  4  9  1  0  0  0  0
  4 15  2  0  0  0  0
  5 17  1  0  0  0  0
  6 19  1  0  0  0  0
  7 10  2  0  0  0  0
  7 18  1  0  0  0  0
  8 21  1  0  0  0  0
  9 21  2  0  0  0  0
 10 22  1  0  0  0  0
 11 12  2  0  0  0  0
 11 23  1  0  0  0  0
 12 24  1  0  0  0  0
 13 20  1  0  0  0  0
 13 22  2  0  0  0  0
 14 24  2  0  0  0  0
 14 25  1  0  0  0  0
 15 26  1  0  0  0  0
 16 26  1  0  0  0  0
 16 27  2  0  0  0  0
 16 28  1  0  0  0  0
 17 19  2  0  0  0  0
 17 33  1  0  0  0  0
 18 20  2  0  0  0  0
 18 34  1  0  0  0  0
 19 42  1  0  0  0  0
 20 35  1  0  0  0  0
 21 78  1  0  0  0  0
 22 79  1  0  0  0  0
 23 25  2  0  0  0  0
 23 78  1  0  0  0  0
 24 80  1  0  0  0  0
 25 81  1  0  0  0  0
 26 63  2  0  0  0  0
 27 64  1  0  0  0  0
 27 67  1  0  0  0  0
 28 68  1  0  0  0  0
 28 73  2  0  0  0  0
 29 43  1  0  0  0  0
 29 69  1  0  0  0  0
 29 74  2  0  0  0  0
 30 57  1  0  0  0  0
 30 65  1  0  0  0  0
 30 75  2  0  0  0  0
 31 58  1  0  0  0  0
 31 70  1  0  0  0  0
 31 76  2  0  0  0  0
 32 66  1  0  0  0  0
 32 71  1  0  0  0  0
 32 77  2  0  0  0  0
 33 36  1  0  0  0  0
 34 43  1  0  0  0  0
 35 65  1  0  0  0  0
 36 38  1  0  0  0  0
 37 39  1  0  0  0  0
 37 40  1  0  0  0  0
 38 42  1  0  0  0  0
 39 44  1  0  0  0  0
 40 66  1  0  0  0  0
 41 44  1  0  0  0  0
 41 66  1  0  0  0  0
 42 69  1  0  0  0  0
 43 65  1  0  0  0  0
 44 64  1  0  0  0  0
 45 54  1  0  0  0  0
 46 58  1  0  0  0  0
 47 59  1  0  0  0  0
 48 61  1  0  0  0  0
 49 61  1  0  0  0  0
 50 61  1  0  0  0  0
 51 62  1  0  0  0  0
 52 62  1  0  0  0  0
 53 72  1  0  0  0  0
 54 60  1  0  0  0  0
 55 59  1  0  0  0  0
 55 71  1  0  0  0  0
 56 62  1  0  0  0  0
 56 79  1  0  0  0  0
 57 61  1  0  0  0  0
 57 70  1  0  0  0  0
 58 72  1  0  0  0  0
 59 60  1  0  0  0  0
 60 62  1  0  0  0  0
 63 64  1  0  0  0  0
M  CHG  1  72   1
M  ISO  4  32 100  56 101  71 100  79 101
M  END
> <Batch ID>
0083

> <Smiles>
CCC(C(C)C[100NH:0][100C:0](=O)N1CCCC(n2nc(-c3ccc(Oc4ccc(F)cc4F)cc3)c(C(N)=O)c2N)C1)C(C)(C)[101CH2:1][101O:1]c1ccc2c(c1)CN(C(=O)C(NC(=O)C(C)NC)C(C)(C)C)C(C(=O)NC1CCCc3ccccc31)C2

> <Shape>
0.288

> <Color>
0.198

> <Negative vol penalty>
0.000

$$$$

  -OEChem-04052318513D

 88 96  0     1  0  0  0  0  0999 V2000
  -21.1767  -28.8009   19.5833 C   0  0  0  0  0  0  0  0  0  0  0  0
  -21.8161  -27.5949   19.3149 C   0  0  0  0  0  0  0  0  0  0  0  0
  -23.0987  -10.0241   20.0001 C   0  0  0  0  0  0  0  0  0  0  0  0
  -23.8575  -10.0477   22.2937 C   0  0  0  0  0  0  0  0  0  0  0  0
  -21.8866  -29.8507   20.1646 C   0  0  0  0  0  0  0  0  0  0  0  0
  -23.1661  -27.4382   19.6267 C   0  0  0  0  0  0  0  0  0  0  0  0
  -25.9304  -22.3241   21.5528 C   0  0  0  0  0  0  0  0  0  0  0  0
  -22.3319   -8.8896   20.2654 C   0  0  0  0  0  0  0  0  0  0  0  0
  -23.0906   -8.9132   22.5591 C   0  0  0  0  0  0  0  0  0  0  0  0
  -26.6814  -21.3562   20.8874 C   0  0  0  0  0  0  0  0  0  0  0  0
  -19.3676   -8.1721   21.7254 C   0  0  0  0  0  0  0  0  0  0  0  0
  -18.0603   -8.1452   21.2399 C   0  0  0  0  0  0  0  0  0  0  0  0
  -28.7090  -22.4839   21.5477 C   0  0  0  0  0  0  0  0  0  0  0  0
  -28.3526  -18.3822   23.1832 C   0  0  0  0  0  0  0  0  0  0  0  0
  -29.3051  -17.7959   25.3246 C   0  0  0  0  0  0  0  0  0  0  0  0
  -18.5818   -6.1732   19.9451 C   0  0  0  0  0  0  0  0  0  0  0  0
  -23.8616  -10.6031   21.0142 C   0  0  0  0  0  0  0  0  0  0  0  0
  -24.2538  -13.1191   20.8594 C   0  0  0  0  0  0  0  0  0  0  0  0
  -23.2436  -29.7036   20.4925 C   0  0  0  0  0  0  0  0  0  0  0  0
  -26.5638  -23.3871   22.2127 C   0  0  0  0  0  0  0  0  0  0  0  0
  -23.8952  -28.4875   20.2117 C   0  0  0  0  0  0  0  0  0  0  0  0
  -27.9639  -23.4627   22.2230 C   0  0  0  0  0  0  0  0  0  0  0  0
  -28.2942  -18.3995   24.5767 C   0  0  0  0  0  0  0  0  0  0  0  0
  -29.4218  -17.7612   22.5376 C   0  0  0  0  0  0  0  0  0  0  0  0
  -30.3744  -17.1749   24.6790 C   0  0  0  0  0  0  0  0  0  0  0  0
  -30.4327  -17.1576   23.2855 C   0  0  0  0  0  0  0  0  0  0  0  0
  -22.3278   -8.3341   21.5449 C   0  0  0  0  0  0  0  0  0  0  0  0
  -28.0708  -21.4376   20.8823 C   0  0  0  0  0  0  0  0  0  0  0  0
  -20.2821   -7.1996   21.3207 C   0  0  0  0  0  0  0  0  0  0  0  0
  -17.6673   -7.1458   20.3497 C   0  0  0  0  0  0  0  0  0  0  0  0
  -19.8891   -6.2002   20.4306 C   0  0  0  0  0  0  0  0  0  0  0  0
  -24.6544  -11.7748   20.7406 C   0  0  0  0  0  0  0  0  0  0  0  0
  -25.3608  -13.8415   20.4866 C   0  0  0  0  0  0  0  0  0  0  0  0
  -22.9936  -13.6659   21.2702 C   0  0  0  0  0  0  0  0  0  0  0  0
  -26.5531  -26.5498   21.8951 C   0  0  0  0  0  0  0  0  0  0  0  0
  -28.3441  -26.4370   24.5973 C   0  0  0  0  0  0  0  0  0  0  0  0
  -30.4445  -24.6509   26.6085 C   0  0  0  0  0  0  0  0  0  0  0  0
  -31.1356  -13.6831   20.8621 C   0  0  0  0  0  0  0  0  0  0  0  0
  -23.9813  -30.8825   21.0762 C   0  0  0  0  0  0  0  0  0  0  0  0
  -25.7404  -24.4083   22.9485 C   0  0  0  0  0  0  0  0  0  0  0  0
  -28.6929  -24.5726   22.9336 C   0  0  0  0  0  0  0  0  0  0  0  0
  -25.3141  -30.5091   21.7200 C   0  0  0  0  0  0  0  0  0  0  0  0
  -29.4264  -12.8727   17.8457 C   0  0  0  0  0  0  0  0  0  0  0  0
  -26.1078  -29.5821   20.8048 C   0  0  0  0  0  0  0  0  0  0  0  0
  -27.9844  -12.6319   18.2957 C   0  0  0  0  0  0  0  0  0  0  0  0
  -30.4316  -12.3730   18.8810 C   0  0  0  0  0  0  0  0  0  0  0  0
  -28.7871  -12.6571   20.6945 C   0  0  0  0  0  0  0  0  0  0  0  0
  -25.3523  -28.2707   20.5582 C   0  0  1  0  0  0  0  0  0  0  0  0
  -26.4721  -25.7313   23.1526 C   0  0  1  0  0  0  0  0  0  0  0  0
  -27.7363  -13.1950   19.7081 C   0  0  2  0  0  0  0  0  0  0  0  0
  -27.4207  -20.5382   25.5512 C   0  0  0  0  0  0  0  0  0  0  0  0
  -30.9079  -15.3786   26.3649 C   0  0  0  0  0  0  0  0  0  0  0  0
  -32.1859  -17.5514   26.3910 C   0  0  0  0  0  0  0  0  0  0  0  0
  -32.9200  -17.1807   22.9159 C   0  0  0  0  0  0  0  0  0  0  0  0
  -31.8500  -24.1171   28.6178 C   0  0  0  0  0  0  0  0  0  0  0  0
  -30.4249  -28.1263   23.1391 C   0  0  0  0  0  0  0  0  0  0  0  0
  -32.0807  -27.4848   24.9040 C   0  0  0  0  0  0  0  0  0  0  0  0
  -30.0382  -28.7761   25.5230 C   0  0  0  0  0  0  0  0  0  0  0  0
  -28.1482  -23.4535   28.0411 C   0  0  0  0  0  0  0  0  0  0  0  0
  -27.1507  -19.0628   25.2670 C   0  0  0  0  0  0  0  0  0  0  0  0
  -29.4615  -17.7576   21.0302 C   0  0  0  0  0  0  0  0  0  0  0  0
  -30.4528  -18.7615   20.4378 C   0  0  0  0  0  0  0  0  0  0  0  0
  -31.6884  -14.9814   22.9037 C   0  0  0  0  0  0  0  0  0  0  0  0
  -30.1046  -20.2116   20.7530 C   0  0  0  0  0  0  0  0  0  1  0  0
  -31.4443  -16.5359   25.5029 C   0  0  0  0  0  0  0  0  0  0  0  0
  -31.5792  -16.4923   22.5930 C   0  0  1  0  0  0  0  0  0  0  0  0
  -29.8200  -26.3360   24.8983 C   0  0  1  0  0  0  0  0  0  0  0  0
  -30.4496  -24.4220   28.1092 C   0  0  2  0  0  0  0  0  0  0  0  0
  -30.5774  -27.6608   24.6010 C   0  0  0  0  0  0  0  0  0  0  0  0
  -25.9173  -11.6479   20.3246 N   0  0  0  0  0  0  0  0  0  0  0  0
  -26.3198  -12.9218   20.1788 N   0  0  0  0  0  0  0  0  0  0  0  0
  -27.8434  -25.5505   23.6334 N   0  0  0  0  0  0  0  0  0  0  0  0
  -30.1418  -12.9454   20.1980 N   0  0  0  0  0  0  0  0  0  0  0  0
  -25.5978  -15.1674   20.3953 N   0  0  0  0  0  0  0  0  0  0  0  0
  -21.9636  -12.7818   21.6193 N   0  0  0  0  0  0  0  0  0  0  0  0
  -25.4757  -27.3934   21.7026 N   0  0  0  0  0  0  0  0  0  0  0  0
  -29.9245  -25.8855   26.2819 N   0  0  0  0  0  0  0  0  0  0  0  0
  -30.7763  -14.1959   22.1025 N   0  0  0  0  0  0  0  0  0  0  0  0
  -29.5622  -23.2777   28.4616 N   0  3  0  0  0  0  0  0  0  0  0  0
  -22.7819  -14.9016   21.3104 O   0  0  0  0  0  0  0  0  0  0  0  0
  -27.5220  -26.4262   21.1551 O   0  0  0  0  0  0  0  0  0  0  0  0
  -27.6593  -27.2669   25.2006 O   0  0  0  0  0  0  0  0  0  0  0  0
  -30.8637  -23.8193   25.8064 O   0  0  0  0  0  0  0  0  0  0  0  0
  -32.2581  -13.8754   20.3825 O   0  0  0  0  0  0  0  0  0  0  0  0
  -21.5794   -7.2272   21.8043 O   0  0  0  0  0  0  0  0  0  0  0  0
  -28.8062  -20.4945   20.2329 O   0  0  0  0  0  0  0  0  0  1  0  0
  -16.4115   -7.1192   19.8848 F   0  0  0  0  0  0  0  0  0  0  0  0
  -20.7628   -5.2625   20.0392 F   0  0  0  0  0  0  0  0  0  0  0  0
  1  2  1  0  0  0  0
  1  5  2  0  0  0  0
  2  6  2  0  0  0  0
  3  8  2  0  0  0  0
  3 17  1  0  0  0  0
  4  9  1  0  0  0  0
  4 17  2  0  0  0  0
  5 19  1  0  0  0  0
  6 21  1  0  0  0  0
  7 10  2  0  0  0  0
  7 20  1  0  0  0  0
  8 27  1  0  0  0  0
  9 27  2  0  0  0  0
 10 28  1  0  0  0  0
 11 12  2  0  0  0  0
 11 29  1  0  0  0  0
 12 30  1  0  0  0  0
 13 22  1  0  0  0  0
 13 28  2  0  0  0  0
 14 23  1  0  0  0  0
 14 24  2  0  0  0  0
 15 23  2  0  0  0  0
 15 25  1  0  0  0  0
 16 30  2  0  0  0  0
 16 31  1  0  0  0  0
 17 32  1  0  0  0  0
 18 32  1  0  0  0  0
 18 33  2  0  0  0  0
 18 34  1  0  0  0  0
 19 21  2  0  0  0  0
 19 39  1  0  0  0  0
 20 22  2  0  0  0  0
 20 40  1  0  0  0  0
 21 48  1  0  0  0  0
 22 41  1  0  0  0  0
 23 60  1  0  0  0  0
 24 26  1  0  0  0  0
 24 61  1  0  0  0  0
 25 26  2  0  0  0  0
 25 65  1  0  0  0  0
 26 66  1  0  0  0  0
 27 85  1  0  0  0  0
 28 86  1  0  0  0  0
 29 31  2  0  0  0  0
 29 85  1  0  0  0  0
 30 87  1  0  0  0  0
 31 88  1  0  0  0  0
 32 70  2  0  0  0  0
 33 71  1  0  0  0  0
 33 74  1  0  0  0  0
 34 75  1  0  0  0  0
 34 80  2  0  0  0  0
 35 49  1  0  0  0  0
 35 76  1  0  0  0  0
 35 81  2  0  0  0  0
 36 67  1  0  0  0  0
 36 72  1  0  0  0  0
 36 82  2  0  0  0  0
 37 68  1  0  0  0  0
 37 77  1  0  0  0  0
 37 83  2  0  0  0  0
 38 73  1  0  0  0  0
 38 78  1  0  0  0  0
 38 84  2  0  0  0  0
 39 42  1  0  0  0  0
 40 49  1  0  0  0  0
 41 72  1  0  0  0  0
 42 44  1  0  0  0  0
 43 45  1  0  0  0  0
 43 46  1  0  0  0  0
 44 48  1  0  0  0  0
 45 50  1  0  0  0  0
 46 73  1  0  0  0  0
 47 50  1  0  0  0  0
 47 73  1  0  0  0  0
 48 76  1  0  0  0  0
 49 72  1  0  0  0  0
 50 71  1  0  0  0  0
 51 60  1  0  0  0  0
 52 65  1  0  0  0  0
 53 65  1  0  0  0  0
 54 66  1  0  0  0  0
 55 68  1  0  0  0  0
 56 69  1  0  0  0  0
 57 69  1  0  0  0  0
 58 69  1  0  0  0  0
 59 79  1  0  0  0  0
 61 62  1  0  0  0  0
 62 64  1  0  0  0  0
 63 66  1  0  0  0  0
 63 78  1  0  0  0  0
 64 86  1  0  0  0  0
 67 69  1  0  0  0  0
 67 77  1  0  0  0  0
 68 79  1  0  0  0  0
 70 71  1  0  0  0  0
M  CHG  1  79   1
M  ISO  4  38 100  64 101  78 100  86 101
M  END
> <Batch ID>
0083

> <Smiles>
CCc1cc(CC[101CH2:1][101O:1]c2ccc3c(c2)CN(C(=O)C(NC(=O)C(C)NC)C(C)(C)C)C(C(=O)NC2CCCc4ccccc42)C3)c(C(C)C[100NH:0][100C:0](=O)N2CCCC(n3nc(-c4ccc(Oc5ccc(F)cc5F)cc4)c(C(N)=O)c3N)C2)c(C(C)C)c1

> <Shape>
0.240

> <Color>
0.205

> <Negative vol penalty>
0.000

$$$$

  -OEChem-04052318513D

 83 91  0     1  0  0  0  0  0999 V2000
  -18.9514  -31.0201   24.7371 C   0  0  0  0  0  0  0  0  0  0  0  0
  -20.3241  -30.8621   24.5755 C   0  0  0  0  0  0  0  0  0  0  0  0
  -25.8979  -12.4074   21.5590 C   0  0  0  0  0  0  0  0  0  0  0  0
  -24.9993  -13.3276   19.5138 C   0  0  0  0  0  0  0  0  0  0  0  0
  -18.0738  -30.0886   24.1838 C   0  0  0  0  0  0  0  0  0  0  0  0
  -20.8201  -29.7719   23.8614 C   0  0  0  0  0  0  0  0  0  0  0  0
  -25.7915  -29.6665   20.2865 C   0  0  0  0  0  0  0  0  0  0  0  0
  -25.4703  -11.1365   21.1751 C   0  0  0  0  0  0  0  0  0  0  0  0
  -24.5717  -12.0565   19.1299 C   0  0  0  0  0  0  0  0  0  0  0  0
  -27.0986  -29.2360   20.5100 C   0  0  0  0  0  0  0  0  0  0  0  0
  -22.5771   -9.3895   21.1329 C   0  0  0  0  0  0  0  0  0  0  0  0
  -21.9373   -8.6046   22.0921 C   0  0  0  0  0  0  0  0  0  0  0  0
  -26.5608  -27.1055   19.5147 C   0  0  0  0  0  0  0  0  0  0  0  0
  -28.5274  -22.8863   21.8529 C   0  0  0  0  0  0  0  0  0  0  0  0
  -23.6545   -6.9210   21.8600 C   0  0  0  0  0  0  0  0  0  0  0  0
  -25.6623  -13.5030   20.7284 C   0  0  0  0  0  0  0  0  0  0  0  0
  -27.3468  -15.4151   20.8474 C   0  0  0  0  0  0  0  0  0  0  0  0
  -18.5590  -28.9916   23.4544 C   0  0  0  0  0  0  0  0  0  0  0  0
  -24.8547  -28.8143   19.6843 C   0  0  0  0  0  0  0  0  0  0  0  0
  -19.9483  -28.8242   23.2990 C   0  0  0  0  0  0  0  0  0  0  0  0
  -25.2431  -27.5284   19.2823 C   0  0  0  0  0  0  0  0  0  0  0  0
  -29.3625  -23.7598   22.5270 C   0  0  0  0  0  0  0  0  0  0  0  0
  -24.8073  -10.9610   19.9606 C   0  0  0  0  0  0  0  0  0  0  0  0
  -27.4827  -27.9544   20.1267 C   0  0  0  0  0  0  0  0  0  0  0  0
  -23.7556   -8.9401   20.5371 C   0  0  0  0  0  0  0  0  0  0  0  0
  -22.4760   -7.3704   22.4557 C   0  0  0  0  0  0  0  0  0  0  0  0
  -24.2943   -7.7059   20.9007 C   0  0  0  0  0  0  0  0  0  0  0  0
  -26.1033  -14.8163   21.1247 C   0  0  0  0  0  0  0  0  0  0  0  0
  -27.5364  -22.2527   22.5754 C   0  0  0  0  0  0  0  0  0  0  0  0
  -29.1511  -23.9421   23.8789 C   0  0  0  0  0  0  0  0  0  0  0  0
  -27.2707  -16.6533   21.4370 C   0  0  0  0  0  0  0  0  0  0  0  0
  -28.4703  -14.8983   20.1218 C   0  0  0  0  0  0  0  0  0  0  0  0
  -22.0906  -27.5270   20.5824 C   0  0  0  0  0  0  0  0  0  0  0  0
  -22.0156  -26.5007   17.5061 C   0  0  0  0  0  0  0  0  0  0  0  0
  -23.7456  -25.7109   14.6723 C   0  0  0  0  0  0  0  0  0  0  0  0
  -24.0932  -21.3128   22.1511 C   0  0  0  0  0  0  0  0  0  0  0  0
  -17.5734  -27.9853   22.9152 C   0  0  0  0  0  0  0  0  0  0  0  0
  -23.4559  -29.3031   19.4258 C   0  0  0  0  0  0  0  0  0  0  0  0
  -24.2810  -26.5820   18.6136 C   0  0  0  0  0  0  0  0  0  0  0  0
  -18.1653  -27.0615   21.8538 C   0  0  0  0  0  0  0  0  0  0  0  0
  -23.8886  -18.5882   24.6483 C   0  0  0  0  0  0  0  0  0  0  0  0
  -19.5201  -26.5268   22.3069 C   0  0  0  0  0  0  0  0  0  0  0  0
  -24.4862  -17.4007   23.8954 C   0  0  0  0  0  0  0  0  0  0  0  0
  -23.2391  -19.5920   23.7005 C   0  0  0  0  0  0  0  0  0  0  0  0
  -24.7408  -18.8852   21.8676 C   0  0  0  0  0  0  0  0  0  0  0  0
  -20.5238  -27.6682   22.5100 C   0  0  1  0  0  0  0  0  0  0  0  0
  -22.4459  -28.1701   19.2717 C   0  0  1  0  0  0  0  0  0  0  0  0
  -25.4439  -17.8779   22.7898 C   0  0  2  0  0  0  0  0  0  0  0  0
  -30.0120  -24.8672   24.6711 C   0  0  0  0  0  0  0  0  0  0  0  0
  -23.4138  -24.8653   12.3331 C   0  0  0  0  0  0  0  0  0  0  0  0
  -21.5885  -23.6802   18.5888 C   0  0  0  0  0  0  0  0  0  0  0  0
  -22.2108  -22.7945   16.3313 C   0  0  0  0  0  0  0  0  0  0  0  0
  -20.2015  -24.2505   16.5874 C   0  0  0  0  0  0  0  0  0  0  0  0
  -25.2733  -23.2447   21.1739 C   0  0  0  0  0  0  0  0  0  0  0  0
  -24.8794  -28.1784   13.4955 C   0  0  0  0  0  0  0  0  0  0  0  0
  -30.4610  -24.4784   21.7851 C   0  0  0  0  0  0  0  0  0  0  0  0
  -26.6107  -21.3020   21.8968 C   0  0  0  0  0  0  0  0  0  0  0  0
  -30.1472  -25.9469   21.4910 C   0  0  0  0  0  0  0  0  0  0  0  0
  -28.9498  -26.1351   20.5667 C   0  0  0  0  0  0  0  0  0  1  0  0
  -22.5058  -25.2736   16.7762 C   0  0  1  0  0  0  0  0  0  0  0  0
  -23.5290  -26.0954   13.2198 C   0  0  2  0  0  0  0  0  0  0  0  0
  -21.6445  -24.0166   17.0853 C   0  0  0  0  0  0  0  0  0  0  0  0
  -25.2963  -15.6087   21.8352 N   0  0  0  0  0  0  0  0  0  0  0  0
  -27.3525  -22.4501   23.8980 N   0  0  0  0  0  0  0  0  0  0  0  0
  -28.1731  -23.3089   24.5604 N   0  0  0  0  0  0  0  0  0  0  0  0
  -26.0345  -16.7182   22.0095 N   0  0  0  0  0  0  0  0  0  0  0  0
  -22.9229  -27.1041   18.3884 N   0  0  0  0  0  0  0  0  0  0  0  0
  -24.1569  -19.9957   22.6347 N   0  0  0  0  0  0  0  0  0  0  0  0
  -28.1413  -17.6820   21.5164 N   0  0  0  0  0  0  0  0  0  0  0  0
  -28.3806  -13.6082   19.5817 N   0  0  0  0  0  0  0  0  0  0  0  0
  -21.0312  -28.1279   21.2350 N   0  0  0  0  0  0  0  0  0  0  0  0
  -22.5546  -25.6317   15.3627 N   0  0  0  0  0  0  0  0  0  0  0  0
  -25.2861  -21.8777   21.6750 N   0  0  0  0  0  0  0  0  0  0  0  0
  -24.6657  -26.9243   12.7283 N   0  3  0  0  0  0  0  0  0  0  0  0
  -29.5286  -15.5547   19.9714 O   0  0  0  0  0  0  0  0  0  0  0  0
  -22.7294  -26.5564   20.9719 O   0  0  0  0  0  0  0  0  0  0  0  0
  -20.8722  -26.9131   17.2956 O   0  0  0  0  0  0  0  0  0  0  0  0
  -24.8595  -25.4983   15.1461 O   0  0  0  0  0  0  0  0  0  0  0  0
  -23.0327  -21.9509   22.1539 O   0  0  0  0  0  0  0  0  0  0  0  0
  -24.3901   -9.7209   19.5855 O   0  0  0  0  0  0  0  0  0  0  0  0
  -28.7577  -27.5315   20.3443 O   0  0  0  0  0  0  0  0  0  1  0  0
  -21.8623   -6.6174   23.3780 F   0  0  0  0  0  0  0  0  0  0  0  0
  -25.4269   -7.2694   20.3327 F   0  0  0  0  0  0  0  0  0  0  0  0
  1  2  1  0  0  0  0
  1  5  2  0  0  0  0
  2  6  2  0  0  0  0
  3  8  2  0  0  0  0
  3 16  1  0  0  0  0
  4  9  1  0  0  0  0
  4 16  2  0  0  0  0
  5 18  1  0  0  0  0
  6 20  1  0  0  0  0
  7 10  2  0  0  0  0
  7 19  1  0  0  0  0
  8 23  1  0  0  0  0
  9 23  2  0  0  0  0
 10 24  1  0  0  0  0
 11 12  2  0  0  0  0
 11 25  1  0  0  0  0
 12 26  1  0  0  0  0
 13 21  1  0  0  0  0
 13 24  2  0  0  0  0
 14 22  1  0  0  0  0
 14 29  2  0  0  0  0
 15 26  2  0  0  0  0
 15 27  1  0  0  0  0
 16 28  1  0  0  0  0
 17 28  1  0  0  0  0
 17 31  2  0  0  0  0
 17 32  1  0  0  0  0
 18 20  2  0  0  0  0
 18 37  1  0  0  0  0
 19 21  2  0  0  0  0
 19 38  1  0  0  0  0
 20 46  1  0  0  0  0
 21 39  1  0  0  0  0
 22 30  2  0  0  0  0
 22 56  1  0  0  0  0
 23 80  1  0  0  0  0
 24 81  1  0  0  0  0
 25 27  2  0  0  0  0
 25 80  1  0  0  0  0
 26 82  1  0  0  0  0
 27 83  1  0  0  0  0
 28 63  2  0  0  0  0
 29 57  1  0  0  0  0
 29 64  1  0  0  0  0
 30 49  1  0  0  0  0
 30 65  1  0  0  0  0
 31 66  1  0  0  0  0
 31 69  1  0  0  0  0
 32 70  1  0  0  0  0
 32 75  2  0  0  0  0
 33 47  1  0  0  0  0
 33 71  1  0  0  0  0
 33 76  2  0  0  0  0
 34 60  1  0  0  0  0
 34 67  1  0  0  0  0
 34 77  2  0  0  0  0
 35 61  1  0  0  0  0
 35 72  1  0  0  0  0
 35 78  2  0  0  0  0
 36 68  1  0  0  0  0
 36 73  1  0  0  0  0
 36 79  2  0  0  0  0
 37 40  1  0  0  0  0
 38 47  1  0  0  0  0
 39 67  1  0  0  0  0
 40 42  1  0  0  0  0
 41 43  1  0  0  0  0
 41 44  1  0  0  0  0
 42 46  1  0  0  0  0
 43 48  1  0  0  0  0
 44 68  1  0  0  0  0
 45 48  1  0  0  0  0
 45 68  1  0  0  0  0
 46 71  1  0  0  0  0
 47 67  1  0  0  0  0
 48 66  1  0  0  0  0
 50 61  1  0  0  0  0
 51 62  1  0  0  0  0
 52 62  1  0  0  0  0
 53 62  1  0  0  0  0
 54 73  1  0  0  0  0
 55 74  1  0  0  0  0
 56 58  1  0  0  0  0
 57 73  1  0  0  0  0
 58 59  1  0  0  0  0
 59 81  1  0  0  0  0
 60 62  1  0  0  0  0
 60 72  1  0  0  0  0
 61 74  1  0  0  0  0
 63 66  1  0  0  0  0
 64 65  2  0  0  0  0
M  CHG  1  74   1
M  ISO  4  36 100  59 101  73 100  81 101
M  END
> <Batch ID>
0083

> <Smiles>
CNC(C)C(=O)NC(C(=O)N1Cc2cc([101O:1][101CH2:1]CCc3cc(C[100N:0](C)[100C:0](=O)N4CCCC(n5nc(-c6ccc(Oc7ccc(F)cc7F)cc6)c(C(N)=O)c5N)C4)nnc3C)ccc2CC1C(=O)NC1CCCc2ccccc21)C(C)(C)C

> <Shape>
0.213

> <Color>
0.067

> <Negative vol penalty>
0.000

$$$$

  -OEChem-04052318513D

 85 93  0     1  0  0  0  0  0999 V2000
  -20.9412  -21.0934   30.0067 C   0  0  0  0  0  0  0  0  0  0  0  0
  -22.0555  -21.1877   29.1791 C   0  0  0  0  0  0  0  0  0  0  0  0
  -23.1139   -9.8075   19.9611 C   0  0  0  0  0  0  0  0  0  0  0  0
  -23.6808  -10.0086   22.3010 C   0  0  0  0  0  0  0  0  0  0  0  0
  -19.6801  -20.8746   29.4536 C   0  0  0  0  0  0  0  0  0  0  0  0
  -21.9095  -21.0621   27.7981 C   0  0  0  0  0  0  0  0  0  0  0  0
  -25.1096  -23.9926   23.4763 C   0  0  0  0  0  0  0  0  0  0  0  0
  -22.3455   -8.6784   20.2443 C   0  0  0  0  0  0  0  0  0  0  0  0
  -22.9124   -8.8795   22.5843 C   0  0  0  0  0  0  0  0  0  0  0  0
  -26.2050  -23.6138   22.7014 C   0  0  0  0  0  0  0  0  0  0  0  0
  -19.6410   -8.1304   22.9810 C   0  0  0  0  0  0  0  0  0  0  0  0
  -18.7892   -8.1880   24.0841 C   0  0  0  0  0  0  0  0  0  0  0  0
  -24.7140  -22.9832   20.9130 C   0  0  0  0  0  0  0  0  0  0  0  0
  -26.3917  -19.2799   21.7143 C   0  0  0  0  0  0  0  0  0  0  0  0
  -19.9545   -6.3213   25.0814 C   0  0  0  0  0  0  0  0  0  0  0  0
  -23.7816  -10.4726   20.9895 C   0  0  0  0  0  0  0  0  0  0  0  0
  -24.1461  -12.9792   20.6866 C   0  0  0  0  0  0  0  0  0  0  0  0
  -19.5173  -20.7559   28.0644 C   0  0  0  0  0  0  0  0  0  0  0  0
  -23.8054  -23.8590   22.9787 C   0  0  0  0  0  0  0  0  0  0  0  0
  -20.6453  -20.8402   27.2260 C   0  0  0  0  0  0  0  0  0  0  0  0
  -23.6039  -23.3633   21.6827 C   0  0  0  0  0  0  0  0  0  0  0  0
  -27.6842  -19.2038   21.2259 C   0  0  0  0  0  0  0  0  0  0  0  0
  -22.2447   -8.2144   21.5559 C   0  0  0  0  0  0  0  0  0  0  0  0
  -26.0071  -23.1063   21.4206 C   0  0  0  0  0  0  0  0  0  0  0  0
  -20.6495   -7.1681   22.9281 C   0  0  0  0  0  0  0  0  0  0  0  0
  -18.9460   -7.2835   25.1343 C   0  0  0  0  0  0  0  0  0  0  0  0
  -20.8062   -6.2636   23.9782 C   0  0  0  0  0  0  0  0  0  0  0  0
  -24.5760  -11.6387   20.6975 C   0  0  0  0  0  0  0  0  0  0  0  0
  -26.0564  -18.4729   22.7828 C   0  0  0  0  0  0  0  0  0  0  0  0
  -28.5559  -18.3260   21.8386 C   0  0  0  0  0  0  0  0  0  0  0  0
  -25.2688  -13.6971   20.3538 C   0  0  0  0  0  0  0  0  0  0  0  0
  -22.8481  -13.5265   20.9536 C   0  0  0  0  0  0  0  0  0  0  0  0
  -21.2339  -22.2020   23.8420 C   0  0  0  0  0  0  0  0  0  0  0  0
  -19.8230  -23.8971   21.4633 C   0  0  0  0  0  0  0  0  0  0  0  0
  -20.1703  -25.6521   18.5571 C   0  0  0  0  0  0  0  0  0  0  0  0
  -30.7235  -14.7366   20.9114 C   0  0  0  0  0  0  0  0  0  0  0  0
  -18.1410  -20.4727   27.5164 C   0  0  0  0  0  0  0  0  0  0  0  0
  -22.6360  -24.2971   23.8171 C   0  0  0  0  0  0  0  0  0  0  0  0
  -22.2250  -23.2191   21.0943 C   0  0  0  0  0  0  0  0  0  0  0  0
  -18.0192  -20.7249   26.0158 C   0  0  0  0  0  0  0  0  0  0  0  0
  -29.7748  -12.1580   18.6470 C   0  0  0  0  0  0  0  0  0  0  0  0
  -19.1990  -20.1059   25.2729 C   0  0  0  0  0  0  0  0  0  0  0  0
  -28.3048  -11.8996   18.9820 C   0  0  0  0  0  0  0  0  0  0  0  0
  -30.5903  -12.4804   19.8973 C   0  0  0  0  0  0  0  0  0  0  0  0
  -28.5841  -13.3228   21.0545 C   0  0  0  0  0  0  0  0  0  0  0  0
  -20.5241  -20.7340   25.7213 C   0  0  1  0  0  0  0  0  0  0  0  0
  -21.3242  -23.6366   23.4044 C   0  0  1  0  0  0  0  0  0  0  0  0
  -27.7101  -13.0482   19.8188 C   0  0  2  0  0  0  0  0  0  0  0  0
  -24.6541  -18.9849   24.8139 C   0  0  0  0  0  0  0  0  0  0  0  0
  -23.9448  -17.1668   23.2181 C   0  0  0  0  0  0  0  0  0  0  0  0
  -18.8326  -26.8850   16.8285 C   0  0  0  0  0  0  0  0  0  0  0  0
  -18.8932  -21.2383   20.2900 C   0  0  0  0  0  0  0  0  0  0  0  0
  -18.4164  -22.4326   18.1419 C   0  0  0  0  0  0  0  0  0  0  0  0
  -17.1860  -23.0644   20.2179 C   0  0  0  0  0  0  0  0  0  0  0  0
  -21.5828  -28.1937   19.1088 C   0  0  0  0  0  0  0  0  0  0  0  0
  -28.1029  -20.0640   20.0604 C   0  0  0  0  0  0  0  0  0  0  0  0
  -29.9639  -18.1895   21.3662 C   0  0  0  0  0  0  0  0  0  0  0  0
  -28.9608  -21.2667   20.4594 C   0  0  0  0  0  0  0  0  0  0  0  0
  -30.6983  -16.9837   21.9645 C   0  0  0  0  0  0  0  0  0  0  0  0
  -28.2288  -22.2603   21.3540 C   0  0  0  0  0  0  0  0  0  1  0  0
  -24.6773  -18.5164   23.3462 C   0  0  0  0  0  0  0  0  0  0  0  0
  -19.6226  -23.6956   19.9806 C   0  0  1  0  0  0  0  0  0  0  0  0
  -19.6229  -26.9998   18.1227 C   0  0  2  0  0  0  0  0  0  0  0  0
  -18.5556  -22.6085   19.6691 C   0  0  0  0  0  0  0  0  0  0  0  0
  -25.8707  -11.5099   20.3954 N   0  0  0  0  0  0  0  0  0  0  0  0
  -26.9300  -17.6230   23.3629 N   0  0  0  0  0  0  0  0  0  0  0  0
  -28.2004  -17.5485   22.8831 N   0  0  0  0  0  0  0  0  0  0  0  0
  -26.2640  -12.7787   20.1915 N   0  0  0  0  0  0  0  0  0  0  0  0
  -21.1133  -23.6551   21.9555 N   0  0  0  0  0  0  0  0  0  0  0  0
  -29.9738  -13.5791   20.6448 N   0  0  0  0  0  0  0  0  0  0  0  0
  -25.4919  -15.0180   20.1870 N   0  0  0  0  0  0  0  0  0  0  0  0
  -21.8067  -12.6475   21.2807 N   0  0  0  0  0  0  0  0  0  0  0  0
  -20.7021  -22.0317   25.1060 N   0  0  0  0  0  0  0  0  0  0  0  0
  -19.3153  -25.0103   19.4279 N   0  0  0  0  0  0  0  0  0  0  0  0
  -30.0616  -15.7321   21.6197 N   0  0  0  0  0  0  0  0  0  0  0  0
  -20.7367  -27.9667   17.9090 N   0  3  0  0  0  0  0  0  0  0  0  0
  -22.6147  -14.7573   20.8875 O   0  0  0  0  0  0  0  0  0  0  0  0
  -21.6169  -21.3151   23.0880 O   0  0  0  0  0  0  0  0  0  0  0  0
  -18.8715  -24.2628   22.1579 O   0  0  0  0  0  0  0  0  0  0  0  0
  -21.2467  -25.2112   18.1605 O   0  0  0  0  0  0  0  0  0  0  0  0
  -31.8941  -14.8750   20.5407 O   0  0  0  0  0  0  0  0  0  0  0  0
  -21.4948   -7.1127   21.8326 O   0  0  0  0  0  0  0  0  0  0  0  0
  -27.0744  -22.7353   20.6624 O   0  0  0  0  0  0  0  0  0  1  0  0
  -18.1290   -7.3399   26.1942 F   0  0  0  0  0  0  0  0  0  0  0  0
  -21.7740   -5.3378   23.9336 F   0  0  0  0  0  0  0  0  0  0  0  0
  1  2  1  0  0  0  0
  1  5  2  0  0  0  0
  2  6  2  0  0  0  0
  3  8  2  0  0  0  0
  3 16  1  0  0  0  0
  4  9  1  0  0  0  0
  4 16  2  0  0  0  0
  5 18  1  0  0  0  0
  6 20  1  0  0  0  0
  7 10  2  0  0  0  0
  7 19  1  0  0  0  0
  8 23  1  0  0  0  0
  9 23  2  0  0  0  0
 10 24  1  0  0  0  0
 11 12  2  0  0  0  0
 11 25  1  0  0  0  0
 12 26  1  0  0  0  0
 13 21  1  0  0  0  0
 13 24  2  0  0  0  0
 14 22  1  0  0  0  0
 14 29  2  0  0  0  0
 15 26  2  0  0  0  0
 15 27  1  0  0  0  0
 16 28  1  0  0  0  0
 17 28  1  0  0  0  0
 17 31  2  0  0  0  0
 17 32  1  0  0  0  0
 18 20  2  0  0  0  0
 18 37  1  0  0  0  0
 19 21  2  0  0  0  0
 19 38  1  0  0  0  0
 20 46  1  0  0  0  0
 21 39  1  0  0  0  0
 22 30  2  0  0  0  0
 22 56  1  0  0  0  0
 23 82  1  0  0  0  0
 24 83  1  0  0  0  0
 25 27  2  0  0  0  0
 25 82  1  0  0  0  0
 26 84  1  0  0  0  0
 27 85  1  0  0  0  0
 28 65  2  0  0  0  0
 29 61  1  0  0  0  0
 29 66  1  0  0  0  0
 30 57  1  0  0  0  0
 30 67  1  0  0  0  0
 31 68  1  0  0  0  0
 31 71  1  0  0  0  0
 32 72  1  0  0  0  0
 32 77  2  0  0  0  0
 33 47  1  0  0  0  0
 33 73  1  0  0  0  0
 33 78  2  0  0  0  0
 34 62  1  0  0  0  0
 34 69  1  0  0  0  0
 34 79  2  0  0  0  0
 35 63  1  0  0  0  0
 35 74  1  0  0  0  0
 35 80  2  0  0  0  0
 36 70  1  0  0  0  0
 36 75  1  0  0  0  0
 36 81  2  0  0  0  0
 37 40  1  0  0  0  0
 38 47  1  0  0  0  0
 39 69  1  0  0  0  0
 40 42  1  0  0  0  0
 41 43  1  0  0  0  0
 41 44  1  0  0  0  0
 42 46  1  0  0  0  0
 43 48  1  0  0  0  0
 44 70  1  0  0  0  0
 45 48  1  0  0  0  0
 45 70  1  0  0  0  0
 46 73  1  0  0  0  0
 47 69  1  0  0  0  0
 48 68  1  0  0  0  0
 49 61  1  0  0  0  0
 50 61  1  0  0  0  0
 51 63  1  0  0  0  0
 52 64  1  0  0  0  0
 53 64  1  0  0  0  0
 54 64  1  0  0  0  0
 55 76  1  0  0  0  0
 56 58  1  0  0  0  0
 57 59  1  0  0  0  0
 58 60  1  0  0  0  0
 59 75  1  0  0  0  0
 60 83  1  0  0  0  0
 62 64  1  0  0  0  0
 62 74  1  0  0  0  0
 63 76  1  0  0  0  0
 65 68  1  0  0  0  0
 66 67  2  0  0  0  0
M  CHG  1  76   1
M  ISO  4  36 100  60 101  75 100  83 101
M  END
> <Batch ID>
0083

> <Smiles>
CNC(C)C(=O)NC(C(=O)N1Cc2cc([101O:1][101CH2:1]CCc3cc(C(C)C)nnc3CC[100NH:0][100C:0](=O)N3CCCC(n4nc(-c5ccc(Oc6ccc(F)cc6F)cc5)c(C(N)=O)c4N)C3)ccc2CC1C(=O)NC1CCCc2ccccc21)C(C)(C)C

> <Shape>
0.194

> <Color>
0.176

> <Negative vol penalty>
0.000

$$$$

  -OEChem-04052318513D

 85 93  0     1  0  0  0  0  0999 V2000
  -28.8542  -10.8563   16.3879 C   0  0  0  0  0  0  0  0  0  0  0  0
  -27.6890  -11.6096   16.2862 C   0  0  0  0  0  0  0  0  0  0  0  0
  -24.6017  -29.5162   19.9339 C   0  0  0  0  0  0  0  0  0  0  0  0
  -24.9446  -29.8362   22.3040 C   0  0  0  0  0  0  0  0  0  0  0  0
  -29.6454  -10.9493   17.5322 C   0  0  0  0  0  0  0  0  0  0  0  0
  -27.3138  -12.4555   17.3293 C   0  0  0  0  0  0  0  0  0  0  0  0
  -24.0223  -18.7013   18.5431 C   0  0  0  0  0  0  0  0  0  0  0  0
  -25.4544  -30.5870   19.6660 C   0  0  0  0  0  0  0  0  0  0  0  0
  -25.7974  -30.9070   22.0360 C   0  0  0  0  0  0  0  0  0  0  0  0
  -22.9907  -19.2443   19.3077 C   0  0  0  0  0  0  0  0  0  0  0  0
  -25.5119  -34.1657   21.1815 C   0  0  0  0  0  0  0  0  0  0  0  0
  -25.3510  -35.3271   21.9370 C   0  0  0  0  0  0  0  0  0  0  0  0
  -24.4767  -19.3836   21.2029 C   0  0  0  0  0  0  0  0  0  0  0  0
  -27.6186  -35.1166   22.7437 C   0  0  0  0  0  0  0  0  0  0  0  0
  -24.3468  -29.1408   21.2530 C   0  0  0  0  0  0  0  0  0  0  0  0
  -23.8190  -26.6789   21.6626 C   0  0  0  0  0  0  0  0  0  0  0  0
  -29.2846  -11.8040   18.5857 C   0  0  0  0  0  0  0  0  0  0  0  0
  -25.2879  -18.4848   19.1067 C   0  0  0  0  0  0  0  0  0  0  0  0
  -28.1001  -12.5590   18.4893 C   0  0  0  0  0  0  0  0  0  0  0  0
  -25.5234  -18.8400   20.4426 C   0  0  0  0  0  0  0  0  0  0  0  0
  -26.0523  -31.2824   20.7170 C   0  0  0  0  0  0  0  0  0  0  0  0
  -23.2169  -19.5829   20.6386 C   0  0  0  0  0  0  0  0  0  0  0  0
  -26.7262  -33.4797   21.2071 C   0  0  0  0  0  0  0  0  0  0  0  0
  -26.4043  -35.8026   22.7181 C   0  0  0  0  0  0  0  0  0  0  0  0
  -27.7795  -33.9551   21.9882 C   0  0  0  0  0  0  0  0  0  0  0  0
  -23.4656  -28.0351   21.5304 C   0  0  0  0  0  0  0  0  0  0  0  0
  -19.0102  -21.2603   23.3649 C   0  0  0  0  0  0  0  0  0  0  0  0
  -21.2788  -20.9757   23.4046 C   0  0  0  0  0  0  0  0  0  0  0  0
  -19.0729  -21.9291   24.5675 C   0  0  0  0  0  0  0  0  0  0  0  0
  -21.3418  -21.6451   24.6069 C   0  0  0  0  0  0  0  0  0  0  0  0
  -22.6319  -26.0384   21.9217 C   0  0  0  0  0  0  0  0  0  0  0  0
  -25.1053  -26.0539   21.5605 C   0  0  0  0  0  0  0  0  0  0  0  0
  -27.1019  -15.9280   19.6322 C   0  0  0  0  0  0  0  0  0  0  0  0
  -29.2832  -18.1467   20.5494 C   0  0  0  0  0  0  0  0  0  0  0  0
  -29.8995  -21.2926   21.7203 C   0  0  0  0  0  0  0  0  0  0  0  0
  -17.7519  -25.7349   24.6122 C   0  0  0  0  0  0  0  0  0  0  0  0
  -30.1468  -11.8354   19.8228 C   0  0  0  0  0  0  0  0  0  0  0  0
  -26.3977  -17.9229   18.2610 C   0  0  0  0  0  0  0  0  0  0  0  0
  -26.8698  -18.6464   21.0892 C   0  0  0  0  0  0  0  0  0  0  0  0
  -29.8755  -13.0372   20.7241 C   0  0  0  0  0  0  0  0  0  0  0  0
  -17.8638  -27.7051   21.6487 C   0  0  0  0  0  0  0  0  0  0  0  0
  -28.3751  -13.2271   20.9231 C   0  0  0  0  0  0  0  0  0  0  0  0
  -19.3597  -27.8597   21.3685 C   0  0  0  0  0  0  0  0  0  0  0  0
  -17.5653  -27.7230   23.1462 C   0  0  0  0  0  0  0  0  0  0  0  0
  -19.8319  -26.9048   23.6629 C   0  0  0  0  0  0  0  0  0  0  0  0
  -27.6726  -13.5066   19.5890 C   0  0  1  0  0  0  0  0  0  0  0  0
  -27.5030  -17.2681   19.0837 C   0  0  1  0  0  0  0  0  0  0  0  0
  -20.1886  -26.8365   22.1681 C   0  0  2  0  0  0  0  0  0  0  0  0
  -17.7132  -21.0404   22.6642 C   0  0  0  0  0  0  0  0  0  0  0  0
  -22.6888  -21.1787   26.6858 C   0  0  0  0  0  0  0  0  0  0  0  0
  -22.9830  -23.3596   25.4560 C   0  0  0  0  0  0  0  0  0  0  0  0
  -17.1624  -21.4066   26.1170 C   0  0  0  0  0  0  0  0  0  0  0  0
  -31.7800  -22.8052   22.4080 C   0  0  0  0  0  0  0  0  0  0  0  0
  -29.5521  -16.6149   23.1746 C   0  0  0  0  0  0  0  0  0  0  0  0
  -30.6701  -18.6293   24.1548 C   0  0  0  0  0  0  0  0  0  0  0  0
  -31.7120  -17.4426   22.2238 C   0  0  0  0  0  0  0  0  0  0  0  0
  -29.2318  -23.2689   19.6209 C   0  0  0  0  0  0  0  0  0  0  0  0
  -22.5133  -20.4364   22.7439 C   0  0  0  0  0  0  0  0  0  1  0  0
  -18.1001  -23.7457   26.0547 C   0  0  0  0  0  0  0  0  0  0  0  0
  -22.6390  -21.8651   25.3072 C   0  0  0  0  0  0  0  0  0  0  0  0
  -17.8464  -22.4636   25.2244 C   0  0  1  0  0  0  0  0  0  0  0  0
  -29.6315  -18.8297   21.8499 C   0  0  1  0  0  0  0  0  0  0  0  0
  -30.8767  -22.3624   21.2675 C   0  0  2  0  0  0  0  0  0  0  0  0
  -30.3654  -17.8811   22.8394 C   0  0  0  0  0  0  0  0  0  0  0  0
  -22.1564  -28.2450   21.6920 N   0  0  0  0  0  0  0  0  0  0  0  0
  -20.1120  -20.7716   22.7618 N   0  0  0  0  0  0  0  0  0  0  0  0
  -20.2399  -22.1335   25.2101 N   0  0  0  0  0  0  0  0  0  0  0  0
  -21.6768  -27.0120   21.9283 N   0  0  0  0  0  0  0  0  0  0  0  0
  -27.9210  -18.0879   20.2228 N   0  0  0  0  0  0  0  0  0  0  0  0
  -18.3826  -26.7289   23.8460 N   0  0  0  0  0  0  0  0  0  0  0  0
  -22.3223  -24.7430   22.1421 N   0  0  0  0  0  0  0  0  0  0  0  0
  -26.2198  -26.8593   21.2897 N   0  0  0  0  0  0  0  0  0  0  0  0
  -27.8835  -14.8800   19.1847 N   0  0  0  0  0  0  0  0  0  0  0  0
  -30.3899  -20.0240   21.4935 N   0  0  0  0  0  0  0  0  0  0  0  0
  -18.5997  -24.8287   25.2373 N   0  0  0  0  0  0  0  0  0  0  0  0
  -30.1408  -23.5550   20.7606 N   0  3  0  0  0  0  0  0  0  0  0  0
  -25.2593  -24.8156   21.6887 O   0  0  0  0  0  0  0  0  0  0  0  0
  -26.1544  -15.8507   20.4055 O   0  0  0  0  0  0  0  0  0  0  0  0
  -30.1870  -17.6888   19.8458 O   0  0  0  0  0  0  0  0  0  0  0  0
  -28.8116  -21.5559   22.2280 O   0  0  0  0  0  0  0  0  0  0  0  0
  -16.5239  -25.6573   24.7261 O   0  0  0  0  0  0  0  0  0  0  0  0
  -26.8846  -32.3272   20.4559 O   0  0  0  0  0  0  0  0  0  0  0  0
  -22.2115  -20.1125   21.3873 O   0  0  0  0  0  0  0  0  0  1  0  0
  -26.2501  -36.9187   23.4424 F   0  0  0  0  0  0  0  0  0  0  0  0
  -28.9488  -33.3010   22.0159 F   0  0  0  0  0  0  0  0  0  0  0  0
  1  2  1  0  0  0  0
  1  5  2  0  0  0  0
  2  6  2  0  0  0  0
  3  8  2  0  0  0  0
  3 15  1  0  0  0  0
  4  9  1  0  0  0  0
  4 15  2  0  0  0  0
  5 17  1  0  0  0  0
  6 19  1  0  0  0  0
  7 10  2  0  0  0  0
  7 18  1  0  0  0  0
  8 21  1  0  0  0  0
  9 21  2  0  0  0  0
 10 22  1  0  0  0  0
 11 12  2  0  0  0  0
 11 23  1  0  0  0  0
 12 24  1  0  0  0  0
 13 20  1  0  0  0  0
 13 22  2  0  0  0  0
 14 24  2  0  0  0  0
 14 25  1  0  0  0  0
 15 26  1  0  0  0  0
 16 26  1  0  0  0  0
 16 31  2  0  0  0  0
 16 32  1  0  0  0  0
 17 19  2  0  0  0  0
 17 37  1  0  0  0  0
 18 20  2  0  0  0  0
 18 38  1  0  0  0  0
 19 46  1  0  0  0  0
 20 39  1  0  0  0  0
 21 82  1  0  0  0  0
 22 83  1  0  0  0  0
 23 25  2  0  0  0  0
 23 82  1  0  0  0  0
 24 84  1  0  0  0  0
 25 85  1  0  0  0  0
 26 65  2  0  0  0  0
 27 29  1  0  0  0  0
 27 49  1  0  0  0  0
 27 66  2  0  0  0  0
 28 30  2  0  0  0  0
 28 58  1  0  0  0  0
 28 66  1  0  0  0  0
 29 61  1  0  0  0  0
 29 67  2  0  0  0  0
 30 60  1  0  0  0  0
 30 67  1  0  0  0  0
 31 68  1  0  0  0  0
 31 71  1  0  0  0  0
 32 72  1  0  0  0  0
 32 77  2  0  0  0  0
 33 47  1  0  0  0  0
 33 73  1  0  0  0  0
 33 78  2  0  0  0  0
 34 62  1  0  0  0  0
 34 69  1  0  0  0  0
 34 79  2  0  0  0  0
 35 63  1  0  0  0  0
 35 74  1  0  0  0  0
 35 80  2  0  0  0  0
 36 70  1  0  0  0  0
 36 75  1  0  0  0  0
 36 81  2  0  0  0  0
 37 40  1  0  0  0  0
 38 47  1  0  0  0  0
 39 69  1  0  0  0  0
 40 42  1  0  0  0  0
 41 43  1  0  0  0  0
 41 44  1  0  0  0  0
 42 46  1  0  0  0  0
 43 48  1  0  0  0  0
 44 70  1  0  0  0  0
 45 48  1  0  0  0  0
 45 70  1  0  0  0  0
 46 73  1  0  0  0  0
 47 69  1  0  0  0  0
 48 68  1  0  0  0  0
 50 60  1  0  0  0  0
 51 60  1  0  0  0  0
 52 61  1  0  0  0  0
 53 63  1  0  0  0  0
 54 64  1  0  0  0  0
 55 64  1  0  0  0  0
 56 64  1  0  0  0  0
 57 76  1  0  0  0  0
 58 83  1  0  0  0  0
 59 61  1  0  0  0  0
 59 75  1  0  0  0  0
 62 64  1  0  0  0  0
 62 74  1  0  0  0  0
 63 76  1  0  0  0  0
 65 68  1  0  0  0  0
M  CHG  1  76   1
M  ISO  4  36 100  58 101  75 100  83 101
M  END
> <Batch ID>
0083

> <Smiles>
CNC(C)C(=O)NC(C(=O)N1Cc2cc([101O:1][101CH2:1]c3nc(C)c(C(C)C[100NH:0][100C:0](=O)N4CCCC(n5nc(-c6ccc(Oc7ccc(F)cc7F)cc6)c(C(N)=O)c5N)C4)nc3C(C)C)ccc2CC1C(=O)NC1CCCc2ccccc21)C(C)(C)C

> <Shape>
0.215

> <Color>
0.070

> <Negative vol penalty>
0.000

$$$$

  -OEChem-04052318513D

 80 87  0     1  0  0  0  0  0999 V2000
  -29.8437  -35.6967   22.1432 C   0  0  0  0  0  0  0  0  0  0  0  0
  -29.8348  -34.3123   22.0064 C   0  0  0  0  0  0  0  0  0  0  0  0
  -26.0851  -13.3667   22.4429 C   0  0  0  0  0  0  0  0  0  0  0  0
  -26.7470  -13.9250   20.1874 C   0  0  0  0  0  0  0  0  0  0  0  0
  -28.8261  -36.3325   22.8533 C   0  0  0  0  0  0  0  0  0  0  0  0
  -28.8088  -33.5627   22.5806 C   0  0  0  0  0  0  0  0  0  0  0  0
  -27.0070  -30.0154   19.4476 C   0  0  0  0  0  0  0  0  0  0  0  0
  -25.7065  -12.0937   22.0168 C   0  0  0  0  0  0  0  0  0  0  0  0
  -26.3684  -12.6520   19.7612 C   0  0  0  0  0  0  0  0  0  0  0  0
  -27.7631  -28.8535   19.2991 C   0  0  0  0  0  0  0  0  0  0  0  0
  -23.0850  -10.6797   20.4191 C   0  0  0  0  0  0  0  0  0  0  0  0
  -21.8634  -10.1820   20.8724 C   0  0  0  0  0  0  0  0  0  0  0  0
  -26.2989  -27.7113   20.8389 C   0  0  0  0  0  0  0  0  0  0  0  0
  -23.0055   -8.3216   21.9076 C   0  0  0  0  0  0  0  0  0  0  0  0
  -26.6054  -14.2824   21.5283 C   0  0  0  0  0  0  0  0  0  0  0  0
  -28.2621  -15.9959   22.4376 C   0  0  0  0  0  0  0  0  0  0  0  0
  -27.7819  -35.5911   23.4282 C   0  0  0  0  0  0  0  0  0  0  0  0
  -25.8958  -30.0372   20.3026 C   0  0  0  0  0  0  0  0  0  0  0  0
  -27.7769  -34.1890   23.3001 C   0  0  0  0  0  0  0  0  0  0  0  0
  -25.5289  -28.8740   20.9944 C   0  0  0  0  0  0  0  0  0  0  0  0
  -25.8481  -11.7363   20.6759 C   0  0  0  0  0  0  0  0  0  0  0  0
  -27.4108  -27.7020   19.9971 C   0  0  0  0  0  0  0  0  0  0  0  0
  -24.2669   -9.9983   20.7099 C   0  0  0  0  0  0  0  0  0  0  0  0
  -21.8236   -9.0029   21.6167 C   0  0  0  0  0  0  0  0  0  0  0  0
  -24.2271   -8.8193   21.4542 C   0  0  0  0  0  0  0  0  0  0  0  0
  -26.9962  -15.5978   21.9678 C   0  0  0  0  0  0  0  0  0  0  0  0
  -28.1174  -17.3312   22.7248 C   0  0  0  0  0  0  0  0  0  0  0  0
  -29.4616  -15.2274   22.5999 C   0  0  0  0  0  0  0  0  0  0  0  0
  -25.1150  -31.6538   22.9256 C   0  0  0  0  0  0  0  0  0  0  0  0
  -22.2686  -30.1475   22.5363 C   0  0  0  0  0  0  0  0  0  0  0  0
  -20.5454  -27.4968   21.2515 C   0  0  0  0  0  0  0  0  0  0  0  0
  -24.3930  -21.5579   20.6962 C   0  0  0  0  0  0  0  0  0  0  0  0
  -26.7293  -36.3184   24.2268 C   0  0  0  0  0  0  0  0  0  0  0  0
  -25.0748  -31.2909   20.4311 C   0  0  0  0  0  0  0  0  0  0  0  0
  -24.3328  -28.8394   21.9091 C   0  0  0  0  0  0  0  0  0  0  0  0
  -25.4770  -35.4848   24.4859 C   0  0  0  0  0  0  0  0  0  0  0  0
  -24.8326  -20.5357   24.0783 C   0  0  0  0  0  0  0  0  0  0  0  0
  -25.8560  -34.0843   24.9569 C   0  0  0  0  0  0  0  0  0  0  0  0
  -25.5511  -19.1902   23.9633 C   0  0  0  0  0  0  0  0  0  0  0  0
  -23.8135  -20.7289   22.9575 C   0  0  0  0  0  0  0  0  0  0  0  0
  -25.0691  -19.2074   21.4802 C   0  0  0  0  0  0  0  0  0  0  0  0
  -26.6677  -33.3435   23.8874 C   0  0  1  0  0  0  0  0  0  0  0  0
  -24.2669  -31.3462   21.7241 C   0  0  1  0  0  0  0  0  0  0  0  0
  -26.1465  -18.9909   22.5565 C   0  0  2  0  0  0  0  0  0  0  0  0
  -18.2370  -26.5202   21.1300 C   0  0  0  0  0  0  0  0  0  0  0  0
  -23.7870  -22.1102   17.5711 C   0  0  0  0  0  0  0  0  0  0  0  0
  -22.5302  -29.1771   25.4172 C   0  0  0  0  0  0  0  0  0  0  0  0
  -20.7485  -27.4854   24.9356 C   0  0  0  0  0  0  0  0  0  0  0  0
  -20.2312  -29.9201   24.7714 C   0  0  0  0  0  0  0  0  0  0  0  0
  -28.7385  -22.2497   16.9936 C   0  0  0  0  0  0  0  0  0  0  0  0
  -28.0695  -21.8939   19.3689 C   0  0  0  0  0  0  0  0  0  0  0  0
  -20.4885  -27.7016   18.2996 C   0  0  0  0  0  0  0  0  0  0  0  0
  -28.9623  -24.8710   18.3275 C   0  0  0  0  0  0  0  0  0  0  0  0
  -27.6097  -24.1422   18.2715 C   0  0  0  0  0  0  0  0  0  0  0  0
  -26.3053  -22.0760   17.5188 C   0  0  0  0  0  0  0  0  0  0  0  0
  -28.7951  -26.3631   18.6018 C   0  0  0  0  0  0  0  0  0  1  0  0
  -21.6791  -28.8386   23.0033 C   0  0  1  0  0  0  0  0  0  0  0  0
  -19.2556  -27.4248   20.4542 C   0  0  2  0  0  0  0  0  0  0  0  0
  -25.0583  -22.2506   18.4079 C   0  0  2  0  0  0  0  0  0  0  0  0
  -21.3210  -28.8562   24.5162 C   0  0  0  0  0  0  0  0  0  0  0  0
  -27.6764  -22.6018   18.0602 C   0  0  0  0  0  0  0  0  0  0  0  0
  -26.1123  -16.5992   21.9558 N   0  0  0  0  0  0  0  0  0  0  0  0
  -26.8239  -17.6397   22.4217 N   0  0  0  0  0  0  0  0  0  0  0  0
  -23.5655  -30.0921   22.0063 N   0  0  0  0  0  0  0  0  0  0  0  0
  -24.4422  -20.5277   21.6498 N   0  0  0  0  0  0  0  0  0  0  0  0
  -28.9717  -18.2599   23.2046 N   0  0  0  0  0  0  0  0  0  0  0  0
  -29.4361  -13.8687   22.2569 N   0  0  0  0  0  0  0  0  0  0  0  0
  -25.7965  -32.8530   22.8411 N   0  0  0  0  0  0  0  0  0  0  0  0
  -20.5474  -28.5641   22.1245 N   0  0  0  0  0  0  0  0  0  0  0  0
  -25.0190  -21.2874   19.4856 N   0  0  0  0  0  0  0  0  0  0  0  0
  -19.5208  -26.8948   19.0868 N   0  3  0  0  0  0  0  0  0  0  0  0
  -30.5199  -15.7268   23.0516 O   0  0  0  0  0  0  0  0  0  0  0  0
  -25.1475  -30.8626   23.8608 O   0  0  0  0  0  0  0  0  0  0  0  0
  -21.6003  -31.1800   22.6314 O   0  0  0  0  0  0  0  0  0  0  0  0
  -21.4583  -26.6850   21.1163 O   0  0  0  0  0  0  0  0  0  0  0  0
  -23.8373  -22.6407   20.9100 O   0  0  0  0  0  0  0  0  0  0  0  0
  -25.4790  -10.4941   20.2597 O   0  0  0  0  0  0  0  0  0  0  0  0
  -28.1531  -26.5581   19.8534 O   0  0  0  0  0  0  0  0  0  1  0  0
  -20.6506   -8.5259   22.0533 F   0  0  0  0  0  0  0  0  0  0  0  0
  -25.3594   -8.1609   21.7377 F   0  0  0  0  0  0  0  0  0  0  0  0
  1  2  1  0  0  0  0
  1  5  2  0  0  0  0
  2  6  2  0  0  0  0
  3  8  2  0  0  0  0
  3 15  1  0  0  0  0
  4  9  1  0  0  0  0
  4 15  2  0  0  0  0
  5 17  1  0  0  0  0
  6 19  1  0  0  0  0
  7 10  2  0  0  0  0
  7 18  1  0  0  0  0
  8 21  1  0  0  0  0
  9 21  2  0  0  0  0
 10 22  1  0  0  0  0
 11 12  2  0  0  0  0
 11 23  1  0  0  0  0
 12 24  1  0  0  0  0
 13 20  1  0  0  0  0
 13 22  2  0  0  0  0
 14 24  2  0  0  0  0
 14 25  1  0  0  0  0
 15 26  1  0  0  0  0
 16 26  1  0  0  0  0
 16 27  2  0  0  0  0
 16 28  1  0  0  0  0
 17 19  2  0  0  0  0
 17 33  1  0  0  0  0
 18 20  2  0  0  0  0
 18 34  1  0  0  0  0
 19 42  1  0  0  0  0
 20 35  1  0  0  0  0
 21 77  1  0  0  0  0
 22 78  1  0  0  0  0
 23 25  2  0  0  0  0
 23 77  1  0  0  0  0
 24 79  1  0  0  0  0
 25 80  1  0  0  0  0
 26 62  2  0  0  0  0
 27 63  1  0  0  0  0
 27 66  1  0  0  0  0
 28 67  1  0  0  0  0
 28 72  2  0  0  0  0
 29 43  1  0  0  0  0
 29 68  1  0  0  0  0
 29 73  2  0  0  0  0
 30 57  1  0  0  0  0
 30 64  1  0  0  0  0
 30 74  2  0  0  0  0
 31 58  1  0  0  0  0
 31 69  1  0  0  0  0
 31 75  2  0  0  0  0
 32 65  1  0  0  0  0
 32 70  1  0  0  0  0
 32 76  2  0  0  0  0
 33 36  1  0  0  0  0
 34 43  1  0  0  0  0
 35 64  1  0  0  0  0
 36 38  1  0  0  0  0
 37 39  1  0  0  0  0
 37 40  1  0  0  0  0
 38 42  1  0  0  0  0
 39 44  1  0  0  0  0
 40 65  1  0  0  0  0
 41 44  1  0  0  0  0
 41 65  1  0  0  0  0
 42 68  1  0  0  0  0
 43 64  1  0  0  0  0
 44 63  1  0  0  0  0
 45 58  1  0  0  0  0
 46 59  1  0  0  0  0
 47 60  1  0  0  0  0
 48 60  1  0  0  0  0
 49 60  1  0  0  0  0
 50 61  1  0  0  0  0
 51 61  1  0  0  0  0
 52 71  1  0  0  0  0
 53 54  1  0  0  0  0
 53 56  1  0  0  0  0
 54 61  1  0  0  0  0
 55 59  1  0  0  0  0
 55 61  1  0  0  0  0
 56 78  1  0  0  0  0
 57 60  1  0  0  0  0
 57 69  1  0  0  0  0
 58 71  1  0  0  0  0
 59 70  1  0  0  0  0
 62 63  1  0  0  0  0
M  CHG  1  71   1
M  ISO  4  32 100  56 101  70 100  78 101
M  END
> <Batch ID>
0083

> <Smiles>
CNC(C)C(=O)NC(C(=O)N1Cc2cc([101O:1][101CH2:1]CCC(C)(C)CC(C)[100NH:0][100C:0](=O)N3CCCC(n4nc(-c5ccc(Oc6ccc(F)cc6F)cc5)c(C(N)=O)c4N)C3)ccc2CC1C(=O)NC1CCCc2ccccc21)C(C)(C)C

> <Shape>
0.251

> <Color>
0.078

> <Negative vol penalty>
0.000

$$$$

  -OEChem-04052318513D

 84 92  0     1  0  0  0  0  0999 V2000
  -31.1310  -16.5434   23.9821 C   0  0  0  0  0  0  0  0  0  0  0  0
  -30.1679  -17.3585   23.3960 C   0  0  0  0  0  0  0  0  0  0  0  0
  -28.6756  -26.4102   19.4643 C   0  0  0  0  0  0  0  0  0  0  0  0
  -26.5889  -25.4353   18.7348 C   0  0  0  0  0  0  0  0  0  0  0  0
  -31.1032  -15.1665   23.7649 C   0  0  0  0  0  0  0  0  0  0  0  0
  -29.1771  -16.7971   22.5914 C   0  0  0  0  0  0  0  0  0  0  0  0
  -24.5742  -18.6532   23.5982 C   0  0  0  0  0  0  0  0  0  0  0  0
  -29.2869  -25.1588   19.3884 C   0  0  0  0  0  0  0  0  0  0  0  0
  -27.2002  -24.1838   18.6588 C   0  0  0  0  0  0  0  0  0  0  0  0
  -24.2688  -19.9123   23.0834 C   0  0  0  0  0  0  0  0  0  0  0  0
  -28.1189  -20.6675   18.6184 C   0  0  0  0  0  0  0  0  0  0  0  0
  -19.5599  -24.7328   22.0801 C   0  0  0  0  0  0  0  0  0  0  0  0
  -27.4306  -19.5765   19.1488 C   0  0  0  0  0  0  0  0  0  0  0  0
  -19.0859  -25.9967   22.4134 C   0  0  0  0  0  0  0  0  0  0  0  0
  -23.0497  -18.8727   21.2800 C   0  0  0  0  0  0  0  0  0  0  0  0
  -27.4296  -20.6333   21.3214 C   0  0  0  0  0  0  0  0  0  0  0  0
  -27.3265  -26.5485   19.1376 C   0  0  0  0  0  0  0  0  0  0  0  0
  -26.6007  -28.8051   18.1950 C   0  0  0  0  0  0  0  0  0  0  0  0
  -30.1058  -14.5868   22.9651 C   0  0  0  0  0  0  0  0  0  0  0  0
  -24.1281  -17.4921   22.9506 C   0  0  0  0  0  0  0  0  0  0  0  0
  -29.1366  -15.4113   22.3622 C   0  0  0  0  0  0  0  0  0  0  0  0
  -23.3487  -17.6000   21.7900 C   0  0  0  0  0  0  0  0  0  0  0  0
  -28.5492  -24.0456   18.9856 C   0  0  0  0  0  0  0  0  0  0  0  0
  -23.5089  -20.0222   21.9225 C   0  0  0  0  0  0  0  0  0  0  0  0
  -28.4627  -21.7415   19.4394 C   0  0  0  0  0  0  0  0  0  0  0  0
  -20.7933  -24.3094   22.5628 C   0  0  0  0  0  0  0  0  0  0  0  0
  -27.0859  -19.5594   20.5002 C   0  0  0  0  0  0  0  0  0  0  0  0
  -28.1180  -21.7244   20.7909 C   0  0  0  0  0  0  0  0  0  0  0  0
  -26.6944  -27.8409   19.2164 C   0  0  0  0  0  0  0  0  0  0  0  0
  -19.8771  -26.7927   23.2259 C   0  0  0  0  0  0  0  0  0  0  0  0
  -21.5081  -25.1810   23.3685 C   0  0  0  0  0  0  0  0  0  0  0  0
  -25.9127  -29.8466   18.7680 C   0  0  0  0  0  0  0  0  0  0  0  0
  -27.0916  -28.7630   16.8485 C   0  0  0  0  0  0  0  0  0  0  0  0
  -25.5496  -15.0044   21.5743 C   0  0  0  0  0  0  0  0  0  0  0  0
  -22.5104  -13.8962   21.3350 C   0  0  0  0  0  0  0  0  0  0  0  0
  -19.1728  -14.5968   21.2061 C   0  0  0  0  0  0  0  0  0  0  0  0
  -22.0342  -30.1577   23.3190 C   0  0  0  0  0  0  0  0  0  0  0  0
  -30.1445  -13.0991   22.7208 C   0  0  0  0  0  0  0  0  0  0  0  0
  -24.4435  -16.1419   23.5335 C   0  0  0  0  0  0  0  0  0  0  0  0
  -22.8284  -16.3847   21.0683 C   0  0  0  0  0  0  0  0  0  0  0  0
  -28.8399  -12.5398   22.1592 C   0  0  0  0  0  0  0  0  0  0  0  0
  -25.1094  -31.9240   23.0024 C   0  0  0  0  0  0  0  0  0  0  0  0
  -28.3321  -13.4140   21.0170 C   0  0  0  0  0  0  0  0  0  0  0  0
  -25.8558  -31.1649   21.9040 C   0  0  0  0  0  0  0  0  0  0  0  0
  -24.2997  -30.9812   23.8898 C   0  0  0  0  0  0  0  0  0  0  0  0
  -24.1193  -29.3327   22.0667 C   0  0  0  0  0  0  0  0  0  0  0  0
  -28.0311  -14.8369   21.5031 C   0  0  1  0  0  0  0  0  0  0  0  0
  -24.3713  -15.0160   22.5066 C   0  0  1  0  0  0  0  0  0  0  0  0
  -24.9056  -30.2471   21.1116 C   0  0  2  0  0  0  0  0  0  0  0  0
  -22.7135  -23.8121   25.0889 C   0  0  0  0  0  0  0  0  0  0  0  0
  -16.9347  -13.4867   20.9700 C   0  0  0  0  0  0  0  0  0  0  0  0
  -23.0183  -13.5124   18.3510 C   0  0  0  0  0  0  0  0  0  0  0  0
  -20.5430  -13.3266   18.0245 C   0  0  0  0  0  0  0  0  0  0  0  0
  -21.7415  -11.6575   19.4389 C   0  0  0  0  0  0  0  0  0  0  0  0
  -18.2750  -15.5838   23.8478 C   0  0  0  0  0  0  0  0  0  0  0  0
  -19.3994  -28.1549   23.6039 C   0  0  0  0  0  0  0  0  0  0  0  0
  -22.8388  -24.7749   23.9120 C   0  0  0  0  0  0  0  0  0  0  0  0
  -19.8316  -29.2507   22.6227 C   0  0  0  0  0  0  0  0  0  0  0  0
  -21.9822  -21.3763   20.7012 C   0  0  0  0  0  0  0  0  0  1  0  0
  -21.4608  -22.7916   20.8579 C   0  0  0  0  0  0  0  0  0  0  0  0
  -21.4093  -14.0082   20.3083 C   0  0  1  0  0  0  0  0  0  0  0  0
  -17.9883  -13.9959   21.9412 C   0  0  2  0  0  0  0  0  0  0  0  0
  -21.6893  -13.1492   19.0430 C   0  0  0  0  0  0  0  0  0  0  0  0
  -26.1126  -28.2348   20.3523 N   0  0  0  0  0  0  0  0  0  0  0  0
  -21.0803  -26.4160   23.7138 N   0  0  0  0  0  0  0  0  0  0  0  0
  -25.6468  -29.4582   20.0481 N   0  0  0  0  0  0  0  0  0  0  0  0
  -23.1688  -15.0867   21.6739 N   0  0  0  0  0  0  0  0  0  0  0  0
  -23.4178  -30.1399   23.0772 N   0  0  0  0  0  0  0  0  0  0  0  0
  -25.5155  -31.0477   18.2968 N   0  0  0  0  0  0  0  0  0  0  0  0
  -27.7768  -27.6170   16.4227 N   0  0  0  0  0  0  0  0  0  0  0  0
  -26.7692  -14.8729   22.2107 N   0  0  0  0  0  0  0  0  0  0  0  0
  -20.1705  -13.6677   20.9996 N   0  0  0  0  0  0  0  0  0  0  0  0
  -21.2698  -29.3359   22.4998 N   0  0  0  0  0  0  0  0  0  0  0  0
  -17.3576  -15.0147   22.8273 N   0  3  0  0  0  0  0  0  0  0  0  0
  -26.9418  -29.7203   16.0518 O   0  0  0  0  0  0  0  0  0  0  0  0
  -25.3659  -15.1056   20.3670 O   0  0  0  0  0  0  0  0  0  0  0  0
  -22.7717  -12.7941   21.8238 O   0  0  0  0  0  0  0  0  0  0  0  0
  -19.2079  -15.7718   20.8475 O   0  0  0  0  0  0  0  0  0  0  0  0
  -21.5179  -30.8584   24.1961 O   0  0  0  0  0  0  0  0  0  0  0  0
  -29.1454  -22.8243   18.9112 O   0  0  0  0  0  0  0  0  0  0  0  0
  -23.2099  -21.2500   21.4176 O   0  0  0  0  0  0  0  0  0  1  0  0
  -21.2694  -23.0658   22.2405 O   0  0  0  0  0  0  0  0  0  0  0  0
  -26.4235  -18.5123   21.0091 F   0  0  0  0  0  0  0  0  0  0  0  0
  -28.4445  -22.7537   21.5844 F   0  0  0  0  0  0  0  0  0  0  0  0
  1  2  1  0  0  0  0
  1  5  2  0  0  0  0
  2  6  2  0  0  0  0
  3  8  2  0  0  0  0
  3 17  1  0  0  0  0
  4  9  1  0  0  0  0
  4 17  2  0  0  0  0
  5 19  1  0  0  0  0
  6 21  1  0  0  0  0
  7 10  2  0  0  0  0
  7 20  1  0  0  0  0
  8 23  1  0  0  0  0
  9 23  2  0  0  0  0
 10 24  1  0  0  0  0
 11 13  2  0  0  0  0
 11 25  1  0  0  0  0
 12 14  2  0  0  0  0
 12 26  1  0  0  0  0
 13 27  1  0  0  0  0
 14 30  1  0  0  0  0
 15 22  1  0  0  0  0
 15 24  2  0  0  0  0
 16 27  2  0  0  0  0
 16 28  1  0  0  0  0
 17 29  1  0  0  0  0
 18 29  1  0  0  0  0
 18 32  2  0  0  0  0
 18 33  1  0  0  0  0
 19 21  2  0  0  0  0
 19 38  1  0  0  0  0
 20 22  2  0  0  0  0
 20 39  1  0  0  0  0
 21 47  1  0  0  0  0
 22 40  1  0  0  0  0
 23 80  1  0  0  0  0
 24 81  1  0  0  0  0
 25 28  2  0  0  0  0
 25 80  1  0  0  0  0
 26 31  2  0  0  0  0
 26 82  1  0  0  0  0
 27 83  1  0  0  0  0
 28 84  1  0  0  0  0
 29 64  2  0  0  0  0
 30 56  1  0  0  0  0
 30 65  2  0  0  0  0
 31 57  1  0  0  0  0
 31 65  1  0  0  0  0
 32 66  1  0  0  0  0
 32 69  1  0  0  0  0
 33 70  1  0  0  0  0
 33 75  2  0  0  0  0
 34 48  1  0  0  0  0
 34 71  1  0  0  0  0
 34 76  2  0  0  0  0
 35 61  1  0  0  0  0
 35 67  1  0  0  0  0
 35 77  2  0  0  0  0
 36 62  1  0  0  0  0
 36 72  1  0  0  0  0
 36 78  2  0  0  0  0
 37 68  1  0  0  0  0
 37 73  1  0  0  0  0
 37 79  2  0  0  0  0
 38 41  1  0  0  0  0
 39 48  1  0  0  0  0
 40 67  1  0  0  0  0
 41 43  1  0  0  0  0
 42 44  1  0  0  0  0
 42 45  1  0  0  0  0
 43 47  1  0  0  0  0
 44 49  1  0  0  0  0
 45 68  1  0  0  0  0
 46 49  1  0  0  0  0
 46 68  1  0  0  0  0
 47 71  1  0  0  0  0
 48 67  1  0  0  0  0
 49 66  1  0  0  0  0
 50 57  1  0  0  0  0
 51 62  1  0  0  0  0
 52 63  1  0  0  0  0
 53 63  1  0  0  0  0
 54 63  1  0  0  0  0
 55 74  1  0  0  0  0
 56 58  1  0  0  0  0
 58 73  1  0  0  0  0
 59 60  1  0  0  0  0
 59 81  1  0  0  0  0
 60 82  1  0  0  0  0
 61 63  1  0  0  0  0
 61 72  1  0  0  0  0
 62 74  1  0  0  0  0
 64 66  1  0  0  0  0
M  CHG  1  74   1
M  ISO  4  37 100  59 101  73 100  81 101
M  END
> <Batch ID>
0083

> <Smiles>
CCc1nc(CC[100NH:0][100C:0](=O)N2CCCC(n3nc(-c4ccc(Oc5ccc(F)cc5F)cc4)c(C(N)=O)c3N)C2)ccc1OC[101CH2:1][101O:1]c1ccc2c(c1)CN(C(=O)C(NC(=O)C(C)NC)C(C)(C)C)C(C(=O)NC1CCCc3ccccc31)C2

> <Shape>
0.211

> <Color>
0.063

> <Negative vol penalty>
0.000

$$$$

  -OEChem-04052318513D

 83 91  0     1  0  0  0  0  0999 V2000
  -22.6245  -26.8559   15.0722 C   0  0  0  0  0  0  0  0  0  0  0  0
  -23.2817  -25.8482   15.7709 C   0  0  0  0  0  0  0  0  0  0  0  0
  -23.0011   -9.8848   19.9824 C   0  0  0  0  0  0  0  0  0  0  0  0
  -23.7305   -9.9378   22.2851 C   0  0  0  0  0  0  0  0  0  0  0  0
  -23.3593  -27.7960   14.3510 C   0  0  0  0  0  0  0  0  0  0  0  0
  -24.6742  -25.7795   15.7479 C   0  0  0  0  0  0  0  0  0  0  0  0
  -28.3466  -23.9710   20.3030 C   0  0  0  0  0  0  0  0  0  0  0  0
  -22.2387   -8.7479   20.2501 C   0  0  0  0  0  0  0  0  0  0  0  0
  -22.9680   -8.8009   22.5528 C   0  0  0  0  0  0  0  0  0  0  0  0
  -28.9791  -22.7582   20.5726 C   0  0  0  0  0  0  0  0  0  0  0  0
  -23.2220   -5.4628   22.0800 C   0  0  0  0  0  0  0  0  0  0  0  0
  -23.8142   -4.4474   22.8309 C   0  0  0  0  0  0  0  0  0  0  0  0
  -30.9891  -23.5797   19.5219 C   0  0  0  0  0  0  0  0  0  0  0  0
  -28.8124  -17.6864   19.1653 C   0  0  0  0  0  0  0  0  0  0  0  0
  -22.0928   -4.6847   24.5094 C   0  0  0  0  0  0  0  0  0  0  0  0
  -30.3117  -18.6829   17.8129 C   0  0  0  0  0  0  0  0  0  0  0  0
  -23.7471  -10.4798   20.9999 C   0  0  0  0  0  0  0  0  0  0  0  0
  -24.1241  -12.9966   20.8235 C   0  0  0  0  0  0  0  0  0  0  0  0
  -24.7620  -27.7445   14.3270 C   0  0  0  0  0  0  0  0  0  0  0  0
  -29.0283  -24.9951   19.6300 C   0  0  0  0  0  0  0  0  0  0  0  0
  -25.4285  -26.7190   15.0246 C   0  0  0  0  0  0  0  0  0  0  0  0
  -30.3638  -24.8056   19.2472 C   0  0  0  0  0  0  0  0  0  0  0  0
  -29.1086  -18.0122   17.8187 C   0  0  0  0  0  0  0  0  0  0  0  0
  -22.2221   -8.2059   21.5353 C   0  0  0  0  0  0  0  0  0  0  0  0
  -30.2996  -22.5613   20.1795 C   0  0  0  0  0  0  0  0  0  0  0  0
  -22.0652   -6.0892   22.5439 C   0  0  0  0  0  0  0  0  0  0  0  0
  -23.2496   -4.0583   24.0456 C   0  0  0  0  0  0  0  0  0  0  0  0
  -21.5006   -5.7001   23.7586 C   0  0  0  0  0  0  0  0  0  0  0  0
  -24.5353  -11.6539   20.7239 C   0  0  0  0  0  0  0  0  0  0  0  0
  -29.8434  -18.1681   19.9414 C   0  0  0  0  0  0  0  0  0  0  0  0
  -25.2308  -13.7227   20.4570 C   0  0  0  0  0  0  0  0  0  0  0  0
  -22.8551  -13.5390   21.2125 C   0  0  0  0  0  0  0  0  0  0  0  0
  -28.6212  -26.5268   16.8746 C   0  0  0  0  0  0  0  0  0  0  0  0
  -31.0826  -28.3365   17.9649 C   0  0  0  0  0  0  0  0  0  0  0  0
  -33.8162  -28.5903   19.9922 C   0  0  0  0  0  0  0  0  0  0  0  0
  -30.7247  -14.6747   20.6952 C   0  0  0  0  0  0  0  0  0  0  0  0
  -25.5114  -28.7546   13.4948 C   0  0  0  0  0  0  0  0  0  0  0  0
  -28.3404  -26.3073   19.3704 C   0  0  0  0  0  0  0  0  0  0  0  0
  -31.1463  -25.8807   18.5399 C   0  0  0  0  0  0  0  0  0  0  0  0
  -26.9991  -28.8344   13.8274 C   0  0  0  0  0  0  0  0  0  0  0  0
  -29.5872  -12.2477   18.3516 C   0  0  0  0  0  0  0  0  0  0  0  0
  -27.6005  -27.4358   13.9227 C   0  0  0  0  0  0  0  0  0  0  0  0
  -28.1403  -11.9833   18.7719 C   0  0  0  0  0  0  0  0  0  0  0  0
  -30.4912  -12.4858   19.5591 C   0  0  0  0  0  0  0  0  0  0  0  0
  -28.5811  -13.2751   20.9016 C   0  0  0  0  0  0  0  0  0  0  0  0
  -26.9388  -26.6259   15.0442 C   0  0  1  0  0  0  0  0  0  0  0  0
  -28.9665  -27.0934   18.2227 C   0  0  1  0  0  0  0  0  0  0  0  0
  -27.6204  -13.0846   19.7155 C   0  0  2  0  0  0  0  0  0  0  0  0
  -26.8883  -18.3616   16.6777 C   0  0  0  0  0  0  0  0  0  0  0  0
  -28.1092  -16.1716   16.4161 C   0  0  0  0  0  0  0  0  0  0  0  0
  -35.6486  -30.1782   20.6388 C   0  0  0  0  0  0  0  0  0  0  0  0
  -32.5113  -27.7561   15.3321 C   0  0  0  0  0  0  0  0  0  0  0  0
  -34.6400  -28.5337   16.3961 C   0  0  0  0  0  0  0  0  0  0  0  0
  -32.7268  -30.1136   16.1382 C   0  0  0  0  0  0  0  0  0  0  0  0
  -32.9405  -28.6325   22.8189 C   0  0  0  0  0  0  0  0  0  0  0  0
  -30.0393  -18.1024   21.4044 C   0  0  0  0  0  0  0  0  0  0  0  0
  -32.0350  -19.4377   19.5345 C   0  0  0  0  0  0  0  0  0  0  0  0
  -30.8027  -16.8538   21.8804 C   0  0  0  0  0  0  0  0  0  0  0  0
  -31.9311  -20.9590   19.5261 C   0  0  0  0  0  0  0  0  0  1  0  0
  -28.2822  -17.6923   16.6393 C   0  0  0  0  0  0  0  0  0  0  0  0
  -32.5872  -28.2688   17.8614 C   0  0  1  0  0  0  0  0  0  0  0  0
  -34.2523  -29.6714   20.9646 C   0  0  2  0  0  0  0  0  0  0  0  0
  -33.1012  -28.6469   16.4435 C   0  0  0  0  0  0  0  0  0  0  0  0
  -25.8042  -11.5315   20.3253 N   0  0  0  0  0  0  0  0  0  0  0  0
  -30.7489  -18.7722   19.1087 N   0  0  0  0  0  0  0  0  0  0  0  0
  -26.1998  -12.8065   20.1711 N   0  0  0  0  0  0  0  0  0  0  0  0
  -30.4278  -27.1438   18.3031 N   0  0  0  0  0  0  0  0  0  0  0  0
  -29.9426  -13.5427   20.4124 N   0  0  0  0  0  0  0  0  0  0  0  0
  -25.4599  -15.0492   20.3547 N   0  0  0  0  0  0  0  0  0  0  0  0
  -21.8268  -12.6515   21.5579 N   0  0  0  0  0  0  0  0  0  0  0  0
  -27.4548  -27.0329   16.3336 N   0  0  0  0  0  0  0  0  0  0  0  0
  -33.1084  -29.1133   18.9308 N   0  0  0  0  0  0  0  0  0  0  0  0
  -30.1268  -15.6315   21.5063 N   0  0  0  0  0  0  0  0  0  0  0  0
  -34.2572  -29.1434   22.3582 N   0  3  0  0  0  0  0  0  0  0  0  0
  -22.6345  -14.7736   21.2368 O   0  0  0  0  0  0  0  0  0  0  0  0
  -29.3592  -25.6932   16.3625 O   0  0  0  0  0  0  0  0  0  0  0  0
  -30.5101  -29.4098   17.7604 O   0  0  0  0  0  0  0  0  0  0  0  0
  -34.0805  -27.4012   20.1559 O   0  0  0  0  0  0  0  0  0  0  0  0
  -31.8688  -14.8243   20.2529 O   0  0  0  0  0  0  0  0  0  0  0  0
  -21.4781   -7.0966   21.7969 O   0  0  0  0  0  0  0  0  0  0  0  0
  -30.9192  -21.3782   20.4408 O   0  0  0  0  0  0  0  0  0  1  0  0
  -23.8175   -3.0821   24.7658 F   0  0  0  0  0  0  0  0  0  0  0  0
  -20.3887   -6.2974   24.2088 F   0  0  0  0  0  0  0  0  0  0  0  0
  1  2  1  0  0  0  0
  1  5  2  0  0  0  0
  2  6  2  0  0  0  0
  3  8  2  0  0  0  0
  3 17  1  0  0  0  0
  4  9  1  0  0  0  0
  4 17  2  0  0  0  0
  5 19  1  0  0  0  0
  6 21  1  0  0  0  0
  7 10  2  0  0  0  0
  7 20  1  0  0  0  0
  8 24  1  0  0  0  0
  9 24  2  0  0  0  0
 10 25  1  0  0  0  0
 11 12  2  0  0  0  0
 11 26  1  0  0  0  0
 12 27  1  0  0  0  0
 13 22  1  0  0  0  0
 13 25  2  0  0  0  0
 14 23  1  0  0  0  0
 14 30  2  0  0  0  0
 15 27  2  0  0  0  0
 15 28  1  0  0  0  0
 16 23  2  0  0  0  0
 16 65  1  0  0  0  0
 17 29  1  0  0  0  0
 18 29  1  0  0  0  0
 18 31  2  0  0  0  0
 18 32  1  0  0  0  0
 19 21  2  0  0  0  0
 19 37  1  0  0  0  0
 20 22  2  0  0  0  0
 20 38  1  0  0  0  0
 21 46  1  0  0  0  0
 22 39  1  0  0  0  0
 23 60  1  0  0  0  0
 24 80  1  0  0  0  0
 25 81  1  0  0  0  0
 26 28  2  0  0  0  0
 26 80  1  0  0  0  0
 27 82  1  0  0  0  0
 28 83  1  0  0  0  0
 29 64  2  0  0  0  0
 30 56  1  0  0  0  0
 30 65  1  0  0  0  0
 31 66  1  0  0  0  0
 31 69  1  0  0  0  0
 32 70  1  0  0  0  0
 32 75  2  0  0  0  0
 33 47  1  0  0  0  0
 33 71  1  0  0  0  0
 33 76  2  0  0  0  0
 34 61  1  0  0  0  0
 34 67  1  0  0  0  0
 34 77  2  0  0  0  0
 35 62  1  0  0  0  0
 35 72  1  0  0  0  0
 35 78  2  0  0  0  0
 36 68  1  0  0  0  0
 36 73  1  0  0  0  0
 36 79  2  0  0  0  0
 37 40  1  0  0  0  0
 38 47  1  0  0  0  0
 39 67  1  0  0  0  0
 40 42  1  0  0  0  0
 41 43  1  0  0  0  0
 41 44  1  0  0  0  0
 42 46  1  0  0  0  0
 43 48  1  0  0  0  0
 44 68  1  0  0  0  0
 45 48  1  0  0  0  0
 45 68  1  0  0  0  0
 46 71  1  0  0  0  0
 47 67  1  0  0  0  0
 48 66  1  0  0  0  0
 49 60  1  0  0  0  0
 50 60  1  0  0  0  0
 51 62  1  0  0  0  0
 52 63  1  0  0  0  0
 53 63  1  0  0  0  0
 54 63  1  0  0  0  0
 55 74  1  0  0  0  0
 56 58  1  0  0  0  0
 57 59  1  0  0  0  0
 57 65  1  0  0  0  0
 58 73  1  0  0  0  0
 59 81  1  0  0  0  0
 61 63  1  0  0  0  0
 61 72  1  0  0  0  0
 62 74  1  0  0  0  0
 64 66  1  0  0  0  0
M  CHG  1  74   1
M  ISO  4  36 100  59 101  73 100  81 101
M  END
> <Batch ID>
0083

> <Smiles>
CNC(C)C(=O)NC(C(=O)N1Cc2cc([101O:1][101CH2:1]Cn3cc(C(C)C)cc3CC[100NH:0][100C:0](=O)N3CCCC(n4nc(-c5ccc(Oc6ccc(F)cc6F)cc5)c(C(N)=O)c4N)C3)ccc2CC1C(=O)NC1CCCc2ccccc21)C(C)(C)C

> <Shape>
0.261

> <Color>
0.202

> <Negative vol penalty>
0.000

$$$$

  -OEChem-04052318513D

 81 89  0     1  0  0  0  0  0999 V2000
  -29.6391  -11.9753   20.2677 C   0  0  0  0  0  0  0  0  0  0  0  0
  -29.6009  -13.1269   21.0473 C   0  0  0  0  0  0  0  0  0  0  0  0
  -28.4703  -26.3244   19.1109 C   0  0  0  0  0  0  0  0  0  0  0  0
  -26.5078  -25.0486   19.7091 C   0  0  0  0  0  0  0  0  0  0  0  0
  -28.7898  -11.8502   19.1691 C   0  0  0  0  0  0  0  0  0  0  0  0
  -28.7140  -14.1545   20.7281 C   0  0  0  0  0  0  0  0  0  0  0  0
  -24.7251  -19.2448   23.8094 C   0  0  0  0  0  0  0  0  0  0  0  0
  -29.1048  -25.1537   18.6955 C   0  0  0  0  0  0  0  0  0  0  0  0
  -27.1423  -23.8779   19.2937 C   0  0  0  0  0  0  0  0  0  0  0  0
  -24.4864  -20.6165   23.7383 C   0  0  0  0  0  0  0  0  0  0  0  0
  -28.3761  -20.5065   18.7266 C   0  0  0  0  0  0  0  0  0  0  0  0
  -28.2788  -19.3878   19.5540 C   0  0  0  0  0  0  0  0  0  0  0  0
  -23.0107  -20.2564   21.8643 C   0  0  0  0  0  0  0  0  0  0  0  0
  -29.3579  -20.6116   21.3358 C   0  0  0  0  0  0  0  0  0  0  0  0
  -20.7229  -27.2888   27.3386 C   0  0  0  0  0  0  0  0  0  0  0  0
  -22.2884  -28.8271   27.7830 C   0  0  0  0  0  0  0  0  0  0  0  0
  -27.1718  -26.2718   19.6178 C   0  0  0  0  0  0  0  0  0  0  0  0
  -25.7195  -28.3395   19.2666 C   0  0  0  0  0  0  0  0  0  0  0  0
  -27.8853  -12.8727   18.8420 C   0  0  0  0  0  0  0  0  0  0  0  0
  -24.1159  -18.3682   22.9001 C   0  0  0  0  0  0  0  0  0  0  0  0
  -27.8528  -14.0435   19.6233 C   0  0  0  0  0  0  0  0  0  0  0  0
  -23.2413  -18.8737   21.9277 C   0  0  0  0  0  0  0  0  0  0  0  0
  -21.6190  -27.2778   26.2925 C   0  0  0  0  0  0  0  0  0  0  0  0
  -22.6094  -28.2511   26.5736 C   0  0  0  0  0  0  0  0  0  0  0  0
  -28.4408  -23.9305   18.7869 C   0  0  0  0  0  0  0  0  0  0  0  0
  -23.6314  -21.1228   22.7638 C   0  0  0  0  0  0  0  0  0  0  0  0
  -28.9643  -21.6778   19.2038 C   0  0  0  0  0  0  0  0  0  0  0  0
  -28.7697  -19.4403   20.8586 C   0  0  0  0  0  0  0  0  0  0  0  0
  -29.4552  -21.7304   20.5084 C   0  0  0  0  0  0  0  0  0  0  0  0
  -26.5161  -27.4807   20.0475 C   0  0  0  0  0  0  0  0  0  0  0  0
  -25.3359  -29.3341   20.1327 C   0  0  0  0  0  0  0  0  0  0  0  0
  -25.3586  -28.2464   17.8822 C   0  0  0  0  0  0  0  0  0  0  0  0
  -25.1683  -16.3526   20.6789 C   0  0  0  0  0  0  0  0  0  0  0  0
  -22.0326  -15.5458   20.4810 C   0  0  0  0  0  0  0  0  0  0  0  0
  -18.7750  -16.4387   20.9683 C   0  0  0  0  0  0  0  0  0  0  0  0
  -24.7039  -29.5572   26.0704 C   0  0  0  0  0  0  0  0  0  0  0  0
  -27.0201  -12.7121   17.6171 C   0  0  0  0  0  0  0  0  0  0  0  0
  -24.3629  -16.8883   23.0071 C   0  0  0  0  0  0  0  0  0  0  0  0
  -22.5466  -17.9727   20.9407 C   0  0  0  0  0  0  0  0  0  0  0  0
  -25.8470  -13.6876   17.5678 C   0  0  0  0  0  0  0  0  0  0  0  0
  -26.7913  -31.6368   24.0715 C   0  0  0  0  0  0  0  0  0  0  0  0
  -26.3133  -15.1007   17.9034 C   0  0  0  0  0  0  0  0  0  0  0  0
  -26.8801  -30.8882   22.7397 C   0  0  0  0  0  0  0  0  0  0  0  0
  -26.7687  -30.6780   25.2606 C   0  0  0  0  0  0  0  0  0  0  0  0
  -25.8327  -28.8799   23.8607 C   0  0  0  0  0  0  0  0  0  0  0  0
  -26.8872  -15.1696   19.3237 C   0  0  1  0  0  0  0  0  0  0  0  0
  -24.0910  -16.1415   21.7048 C   0  0  1  0  0  0  0  0  0  0  0  0
  -25.7928  -29.8012   22.6305 C   0  0  2  0  0  0  0  0  0  0  0  0
  -16.4335  -15.5842   20.6773 C   0  0  0  0  0  0  0  0  0  0  0  0
  -22.2143  -16.0764   17.4818 C   0  0  0  0  0  0  0  0  0  0  0  0
  -19.7125  -16.1405   17.4122 C   0  0  0  0  0  0  0  0  0  0  0  0
  -20.8861  -14.0509   18.1043 C   0  0  0  0  0  0  0  0  0  0  0  0
  -20.4710  -28.5566   29.4782 C   0  0  0  0  0  0  0  0  0  0  0  0
  -18.2282  -16.6086   23.8719 C   0  0  0  0  0  0  0  0  0  0  0  0
  -21.5456  -26.3887   25.0768 C   0  0  0  0  0  0  0  0  0  0  0  0
  -22.5350  -25.2184   25.1049 C   0  0  0  0  0  0  0  0  0  0  0  0
  -22.4995  -24.3736   23.8306 C   0  0  0  0  0  0  0  0  0  0  0  0
  -23.4654  -23.1993   23.9112 C   0  0  0  0  0  0  0  0  0  1  0  0
  -20.8525  -16.0319   19.6748 C   0  0  1  0  0  0  0  0  0  0  0  0
  -17.6174  -15.7076   21.6238 C   0  0  2  0  0  0  0  0  0  0  0  0
  -20.9308  -15.5924   18.1855 C   0  0  0  0  0  0  0  0  0  0  0  0
  -26.6326  -27.8937   21.3124 N   0  0  0  0  0  0  0  0  0  0  0  0
  -21.1401  -28.2342   28.2388 N   0  0  0  0  0  0  0  0  0  0  0  0
  -25.9042  -29.0229   21.3329 N   0  0  0  0  0  0  0  0  0  0  0  0
  -22.8253  -16.5340   21.0819 N   0  0  0  0  0  0  0  0  0  0  0  0
  -25.7113  -29.6792   25.0900 N   0  0  0  0  0  0  0  0  0  0  0  0
  -24.5714  -30.4358   19.9771 N   0  0  0  0  0  0  0  0  0  0  0  0
  -25.8388  -27.1602   17.1380 N   0  0  0  0  0  0  0  0  0  0  0  0
  -23.7342  -28.5967   25.7843 N   0  0  0  0  0  0  0  0  0  0  0  0
  -25.8190  -15.1940   20.2998 N   0  0  0  0  0  0  0  0  0  0  0  0
  -19.6603  -15.5645   20.3739 N   0  0  0  0  0  0  0  0  0  0  0  0
  -17.1693  -16.4359   22.8444 N   0  3  0  0  0  0  0  0  0  0  0  0
  -24.6451  -29.1099   17.3175 O   0  0  0  0  0  0  0  0  0  0  0  0
  -25.3915  -17.4828   20.2610 O   0  0  0  0  0  0  0  0  0  0  0  0
  -22.2393  -14.3338   20.5801 O   0  0  0  0  0  0  0  0  0  0  0  0
  -18.8812  -17.6631   20.9789 O   0  0  0  0  0  0  0  0  0  0  0  0
  -24.6866  -30.2724   27.0755 O   0  0  0  0  0  0  0  0  0  0  0  0
  -29.0595  -22.7879   18.3815 O   0  0  0  0  0  0  0  0  0  0  0  0
  -23.3971  -22.4614   22.6917 O   0  0  0  0  0  0  0  0  0  1  0  0
  -28.6748  -18.3664   21.6535 F   0  0  0  0  0  0  0  0  0  0  0  0
  -30.0203  -22.8532   20.9728 F   0  0  0  0  0  0  0  0  0  0  0  0
  1  2  1  0  0  0  0
  1  5  2  0  0  0  0
  2  6  2  0  0  0  0
  3  8  2  0  0  0  0
  3 17  1  0  0  0  0
  4  9  1  0  0  0  0
  4 17  2  0  0  0  0
  5 19  1  0  0  0  0
  6 21  1  0  0  0  0
  7 10  2  0  0  0  0
  7 20  1  0  0  0  0
  8 25  1  0  0  0  0
  9 25  2  0  0  0  0
 10 26  1  0  0  0  0
 11 12  2  0  0  0  0
 11 27  1  0  0  0  0
 12 28  1  0  0  0  0
 13 22  1  0  0  0  0
 13 26  2  0  0  0  0
 14 28  2  0  0  0  0
 14 29  1  0  0  0  0
 15 23  2  0  0  0  0
 15 63  1  0  0  0  0
 16 24  2  0  0  0  0
 16 63  1  0  0  0  0
 17 30  1  0  0  0  0
 18 30  1  0  0  0  0
 18 31  2  0  0  0  0
 18 32  1  0  0  0  0
 19 21  2  0  0  0  0
 19 37  1  0  0  0  0
 20 22  2  0  0  0  0
 20 38  1  0  0  0  0
 21 46  1  0  0  0  0
 22 39  1  0  0  0  0
 23 24  1  0  0  0  0
 23 55  1  0  0  0  0
 24 69  1  0  0  0  0
 25 78  1  0  0  0  0
 26 79  1  0  0  0  0
 27 29  2  0  0  0  0
 27 78  1  0  0  0  0
 28 80  1  0  0  0  0
 29 81  1  0  0  0  0
 30 62  2  0  0  0  0
 31 64  1  0  0  0  0
 31 67  1  0  0  0  0
 32 68  1  0  0  0  0
 32 73  2  0  0  0  0
 33 47  1  0  0  0  0
 33 70  1  0  0  0  0
 33 74  2  0  0  0  0
 34 59  1  0  0  0  0
 34 65  1  0  0  0  0
 34 75  2  0  0  0  0
 35 60  1  0  0  0  0
 35 71  1  0  0  0  0
 35 76  2  0  0  0  0
 36 66  1  0  0  0  0
 36 69  1  0  0  0  0
 36 77  2  0  0  0  0
 37 40  1  0  0  0  0
 38 47  1  0  0  0  0
 39 65  1  0  0  0  0
 40 42  1  0  0  0  0
 41 43  1  0  0  0  0
 41 44  1  0  0  0  0
 42 46  1  0  0  0  0
 43 48  1  0  0  0  0
 44 66  1  0  0  0  0
 45 48  1  0  0  0  0
 45 66  1  0  0  0  0
 46 70  1  0  0  0  0
 47 65  1  0  0  0  0
 48 64  1  0  0  0  0
 49 60  1  0  0  0  0
 50 61  1  0  0  0  0
 51 61  1  0  0  0  0
 52 61  1  0  0  0  0
 53 63  1  0  0  0  0
 54 72  1  0  0  0  0
 55 56  1  0  0  0  0
 56 57  1  0  0  0  0
 57 58  1  0  0  0  0
 58 79  1  0  0  0  0
 59 61  1  0  0  0  0
 59 71  1  0  0  0  0
 60 72  1  0  0  0  0
 62 64  1  0  0  0  0
M  CHG  1  72   1
M  ISO  4  36 100  58 101  69 100  79 101
M  END
> <Batch ID>
0083

> <Smiles>
CNC(C)C(=O)NC(C(=O)N1Cc2cc([101O:1][101CH2:1]CCCc3cn(C)cc3[100NH:0][100C:0](=O)N3CCCC(n4nc(-c5ccc(Oc6ccc(F)cc6F)cc5)c(C(N)=O)c4N)C3)ccc2CC1C(=O)NC1CCCc2ccccc21)C(C)(C)C

> <Shape>
0.194

> <Color>
0.084

> <Negative vol penalty>
0.000

$$$$

  -OEChem-04052318513D

 86 94  0     1  0  0  0  0  0999 V2000
  -16.9023  -29.5027   24.6856 C   0  0  0  0  0  0  0  0  0  0  0  0
  -17.5799  -28.3231   24.3945 C   0  0  0  0  0  0  0  0  0  0  0  0
  -30.5344  -17.8893   17.6166 C   0  0  0  0  0  0  0  0  0  0  0  0
  -28.5399  -17.7041   18.9675 C   0  0  0  0  0  0  0  0  0  0  0  0
  -17.1708  -30.6584   23.9535 C   0  0  0  0  0  0  0  0  0  0  0  0
  -18.5257  -28.2982   23.3702 C   0  0  0  0  0  0  0  0  0  0  0  0
  -22.7638  -25.8649   24.6981 C   0  0  0  0  0  0  0  0  0  0  0  0
  -30.4680  -16.5255   17.3317 C   0  0  0  0  0  0  0  0  0  0  0  0
  -28.4735  -16.3403   18.6825 C   0  0  0  0  0  0  0  0  0  0  0  0
  -22.7274  -24.4712   24.6885 C   0  0  0  0  0  0  0  0  0  0  0  0
  -27.9820  -12.7400   18.6039 C   0  0  0  0  0  0  0  0  0  0  0  0
  -27.7193  -11.8688   19.6610 C   0  0  0  0  0  0  0  0  0  0  0  0
  -23.8345  -24.4631   22.5452 C   0  0  0  0  0  0  0  0  0  0  0  0
  -29.7194  -12.6281   20.7837 C   0  0  0  0  0  0  0  0  0  0  0  0
  -26.6061  -22.0482   26.4788 C   0  0  0  0  0  0  0  0  0  0  0  0
  -29.5703  -18.4786   18.4346 C   0  0  0  0  0  0  0  0  0  0  0  0
  -29.0482  -20.9379   18.0023 C   0  0  0  0  0  0  0  0  0  0  0  0
  -18.1274  -30.6502   22.9261 C   0  0  0  0  0  0  0  0  0  0  0  0
  -23.3269  -26.5696   23.6245 C   0  0  0  0  0  0  0  0  0  0  0  0
  -18.8064  -29.4546   22.6228 C   0  0  0  0  0  0  0  0  0  0  0  0
  -23.8791  -25.8656   22.5448 C   0  0  0  0  0  0  0  0  0  0  0  0
  -29.4376  -15.7510   17.8646 C   0  0  0  0  0  0  0  0  0  0  0  0
  -23.2602  -23.7702   23.6106 C   0  0  0  0  0  0  0  0  0  0  0  0
  -29.1134  -13.5552   18.6365 C   0  0  0  0  0  0  0  0  0  0  0  0
  -28.5880  -11.8129   20.7509 C   0  0  0  0  0  0  0  0  0  0  0  0
  -29.9821  -13.4993   19.7264 C   0  0  0  0  0  0  0  0  0  0  0  0
  -29.6387  -19.8873   18.7298 C   0  0  0  0  0  0  0  0  0  0  0  0
  -27.9502  -21.9757   26.2447 C   0  0  0  0  0  0  0  0  0  0  0  0
  -29.4058  -22.0733   18.6874 C   0  0  0  0  0  0  0  0  0  0  0  0
  -27.2484  -19.9585   26.8266 C   0  0  0  0  0  0  0  0  0  0  0  0
  -28.2479  -20.8916   16.8135 C   0  0  0  0  0  0  0  0  0  0  0  0
  -22.2355  -28.6635   21.4965 C   0  0  0  0  0  0  0  0  0  0  0  0
  -25.3601  -28.8347   20.6423 C   0  0  0  0  0  0  0  0  0  0  0  0
  -28.4287  -27.3432   20.5661 C   0  0  0  0  0  0  0  0  0  0  0  0
  -30.9318  -23.0853   24.3881 C   0  0  0  0  0  0  0  0  0  0  0  0
  -18.3496  -31.9123   22.1309 C   0  0  0  0  0  0  0  0  0  0  0  0
  -23.3824  -28.0723   23.6624 C   0  0  0  0  0  0  0  0  0  0  0  0
  -24.5133  -26.5745   21.3770 C   0  0  0  0  0  0  0  0  0  0  0  0
  -19.6363  -31.8963   21.3098 C   0  0  0  0  0  0  0  0  0  0  0  0
  -32.8663  -23.8212   21.4911 C   0  0  0  0  0  0  0  0  0  0  0  0
  -19.7752  -30.5748   20.5606 C   0  0  0  0  0  0  0  0  0  0  0  0
  -32.2052  -22.9912   20.3893 C   0  0  0  0  0  0  0  0  0  0  0  0
  -32.8584  -23.0888   22.8310 C   0  0  0  0  0  0  0  0  0  0  0  0
  -30.8705  -21.7902   22.1710 C   0  0  0  0  0  0  0  0  0  0  0  0
  -19.8573  -29.3940   21.5356 C   0  0  1  0  0  0  0  0  0  0  0  0
  -23.5179  -28.7003   22.2787 C   0  0  1  0  0  0  0  0  0  0  0  0
  -30.8044  -22.5104   20.8134 C   0  0  2  0  0  0  0  0  0  0  0  0
  -28.2997  -24.4015   25.6488 C   0  0  0  0  0  0  0  0  0  0  0  0
  -28.1205  -18.1722   28.3764 C   0  0  0  0  0  0  0  0  0  0  0  0
  -27.6709  -17.6310   25.9557 C   0  0  0  0  0  0  0  0  0  0  0  0
  -30.8966  -27.1129   20.1740 C   0  0  0  0  0  0  0  0  0  0  0  0
  -23.1196  -19.4928   23.7561 C   0  0  0  0  0  0  0  0  0  0  0  0
  -24.4820  -28.2331   17.7828 C   0  0  0  0  0  0  0  0  0  0  0  0
  -26.8630  -27.6796   17.2421 C   0  0  0  0  0  0  0  0  0  0  0  0
  -26.2572  -29.9833   17.9826 C   0  0  0  0  0  0  0  0  0  0  0  0
  -29.0721  -28.3977   23.2556 C   0  0  0  0  0  0  0  0  0  0  0  0
  -24.0579  -19.6210   26.0777 C   0  0  0  0  0  0  0  0  0  0  0  0
  -24.7829  -20.3980   27.1854 C   0  0  0  0  0  0  0  0  0  0  0  0
  -23.2707  -21.7476   24.8617 C   0  0  0  0  0  0  0  0  0  1  0  0
  -28.9181  -22.9970   25.8360 C   0  0  2  0  0  0  0  0  0  0  0  0
  -27.2459  -18.5101   27.1507 C   0  0  0  0  0  0  0  0  0  0  0  0
  -26.2434  -28.0967   19.6656 C   0  0  1  0  0  0  0  0  0  0  0  0
  -29.8090  -27.8595   20.9305 C   0  0  2  0  0  0  0  0  0  0  0  0
  -23.9222  -20.3643   24.7305 C   0  0  2  0  0  0  0  0  0  0  0  0
  -25.9478  -28.4846   18.1892 C   0  0  0  0  0  0  0  0  0  0  0  0
  -30.3199  -20.3170   19.7953 N   0  0  0  0  0  0  0  0  0  0  0  0
  -26.1981  -20.7858   26.8366 N   0  0  0  0  0  0  0  0  0  0  0  0
  -30.1597  -21.6503   19.7423 N   0  0  0  0  0  0  0  0  0  0  0  0
  -28.3208  -20.6715   26.4677 N   0  3  0  0  0  0  0  0  0  0  0  0
  -24.5377  -28.0444   21.4577 N   0  0  0  0  0  0  0  0  0  0  0  0
  -31.5005  -22.6609   23.1759 N   0  0  0  0  0  0  0  0  0  0  0  0
  -29.1459  -23.3824   18.4843 N   0  0  0  0  0  0  0  0  0  0  0  0
  -27.9760  -19.6423   16.2394 N   0  0  0  0  0  0  0  0  0  0  0  0
  -21.1809  -29.3078   22.1146 N   0  0  0  0  0  0  0  0  0  0  0  0
  -27.6173  -28.3494   20.0861 N   0  0  0  0  0  0  0  0  0  0  0  0
  -29.6389  -22.6396   24.6346 N   0  0  0  0  0  0  0  0  0  0  0  0
  -30.0548  -27.6948   22.3911 N   0  3  0  0  0  0  0  0  0  0  0  0
  -27.8013  -21.9287   16.2671 O   0  0  0  0  0  0  0  0  0  0  0  0
  -22.2055  -28.0941   20.4118 O   0  0  0  0  0  0  0  0  0  0  0  0
  -25.4037  -30.0667   20.6854 O   0  0  0  0  0  0  0  0  0  0  0  0
  -28.1041  -26.1644   20.6911 O   0  0  0  0  0  0  0  0  0  0  0  0
  -31.5297  -23.8121   25.1888 O   0  0  0  0  0  0  0  0  0  0  0  0
  -29.3723  -14.4202   17.5865 O   0  0  0  0  0  0  0  0  0  0  0  0
  -23.2254  -22.4098   23.5984 O   0  0  0  0  0  0  0  0  0  1  0  0
  -28.3348  -10.9774   21.7668 F   0  0  0  0  0  0  0  0  0  0  0  0
  -31.0699  -14.2809   19.7640 F   0  0  0  0  0  0  0  0  0  0  0  0
  1  2  1  0  0  0  0
  1  5  2  0  0  0  0
  2  6  2  0  0  0  0
  3  8  2  0  0  0  0
  3 16  1  0  0  0  0
  4  9  1  0  0  0  0
  4 16  2  0  0  0  0
  5 18  1  0  0  0  0
  6 20  1  0  0  0  0
  7 10  2  0  0  0  0
  7 19  1  0  0  0  0
  8 22  1  0  0  0  0
  9 22  2  0  0  0  0
 10 23  1  0  0  0  0
 11 12  2  0  0  0  0
 11 24  1  0  0  0  0
 12 25  1  0  0  0  0
 13 21  1  0  0  0  0
 13 23  2  0  0  0  0
 14 25  2  0  0  0  0
 14 26  1  0  0  0  0
 15 28  2  0  0  0  0
 15 67  1  0  0  0  0
 16 27  1  0  0  0  0
 17 27  1  0  0  0  0
 17 29  2  0  0  0  0
 17 31  1  0  0  0  0
 18 20  2  0  0  0  0
 18 36  1  0  0  0  0
 19 21  2  0  0  0  0
 19 37  1  0  0  0  0
 20 45  1  0  0  0  0
 21 38  1  0  0  0  0
 22 83  1  0  0  0  0
 23 84  1  0  0  0  0
 24 26  2  0  0  0  0
 24 83  1  0  0  0  0
 25 85  1  0  0  0  0
 26 86  1  0  0  0  0
 27 66  2  0  0  0  0
 28 60  1  0  0  0  0
 28 69  1  0  0  0  0
 29 68  1  0  0  0  0
 29 72  1  0  0  0  0
 30 61  1  0  0  0  0
 30 67  1  0  0  0  0
 30 69  2  0  0  0  0
 31 73  1  0  0  0  0
 31 78  2  0  0  0  0
 32 46  1  0  0  0  0
 32 74  1  0  0  0  0
 32 79  2  0  0  0  0
 33 62  1  0  0  0  0
 33 70  1  0  0  0  0
 33 80  2  0  0  0  0
 34 63  1  0  0  0  0
 34 75  1  0  0  0  0
 34 81  2  0  0  0  0
 35 71  1  0  0  0  0
 35 76  1  0  0  0  0
 35 82  2  0  0  0  0
 36 39  1  0  0  0  0
 37 46  1  0  0  0  0
 38 70  1  0  0  0  0
 39 41  1  0  0  0  0
 40 42  1  0  0  0  0
 40 43  1  0  0  0  0
 41 45  1  0  0  0  0
 42 47  1  0  0  0  0
 43 71  1  0  0  0  0
 44 47  1  0  0  0  0
 44 71  1  0  0  0  0
 45 74  1  0  0  0  0
 46 70  1  0  0  0  0
 47 68  1  0  0  0  0
 48 60  1  0  0  0  0
 49 61  1  0  0  0  0
 50 61  1  0  0  0  0
 51 63  1  0  0  0  0
 52 64  1  0  0  0  0
 53 65  1  0  0  0  0
 54 65  1  0  0  0  0
 55 65  1  0  0  0  0
 56 77  1  0  0  0  0
 57 58  1  0  0  0  0
 57 64  1  0  0  0  0
 58 67  1  0  0  0  0
 59 64  1  0  0  0  0
 59 84  1  0  0  0  0
 60 76  1  0  0  0  0
 62 65  1  0  0  0  0
 62 75  1  0  0  0  0
 63 77  1  0  0  0  0
 66 68  1  0  0  0  0
M  CHG  2  69   1  77   1
M  ISO  4  35 100  59 101  76 100  84 101
M  END
> <Batch ID>
0083

> <Smiles>
CNC(C)C(=O)NC(C(=O)N1Cc2cc([101O:1][101CH2:1]C(C)CCn3cc(C(C)[100NH:0][100C:0](=O)N4CCCC(n5nc(-c6ccc(Oc7ccc(F)cc7F)cc6)c(C(N)=O)c5N)C4)nc3C(C)C)ccc2CC1C(=O)NC1CCCc2ccccc21)C(C)(C)C

> <Shape>
0.189

> <Color>
0.080

> <Negative vol penalty>
0.000

$$$$

  -OEChem-04052318513D

 84 92  0     1  0  0  0  0  0999 V2000
  -20.9943  -30.6774   21.7479 C   0  0  0  0  0  0  0  0  0  0  0  0
  -21.0761  -29.4143   22.3251 C   0  0  0  0  0  0  0  0  0  0  0  0
  -23.0030   -9.8475   20.0650 C   0  0  0  0  0  0  0  0  0  0  0  0
  -23.6257  -10.1067   22.3849 C   0  0  0  0  0  0  0  0  0  0  0  0
  -22.1343  -31.2705   21.2069 C   0  0  0  0  0  0  0  0  0  0  0  0
  -22.2978  -28.7430   22.3607 C   0  0  0  0  0  0  0  0  0  0  0  0
  -26.0417  -24.1747   26.4141 C   0  0  0  0  0  0  0  0  0  0  0  0
  -22.2214   -8.7414   20.3983 C   0  0  0  0  0  0  0  0  0  0  0  0
  -22.8441   -9.0006   22.7183 C   0  0  0  0  0  0  0  0  0  0  0  0
  -26.7241  -22.9625   26.3211 C   0  0  0  0  0  0  0  0  0  0  0  0
  -23.0972   -5.6328   22.5609 C   0  0  0  0  0  0  0  0  0  0  0  0
  -23.6473   -4.6879   23.4271 C   0  0  0  0  0  0  0  0  0  0  0  0
  -28.6433  -24.1184   25.4267 C   0  0  0  0  0  0  0  0  0  0  0  0
  -29.6677  -17.8621   22.3399 C   0  0  0  0  0  0  0  0  0  0  0  0
  -21.8518   -5.0803   24.9954 C   0  0  0  0  0  0  0  0  0  0  0  0
  -23.7052  -10.5302   21.0583 C   0  0  0  0  0  0  0  0  0  0  0  0
  -24.1068  -13.0198   20.6733 C   0  0  0  0  0  0  0  0  0  0  0  0
  -23.3725  -30.6103   21.2446 C   0  0  0  0  0  0  0  0  0  0  0  0
  -26.6521  -25.3684   26.0032 C   0  0  0  0  0  0  0  0  0  0  0  0
  -23.4552  -29.3273   21.8186 C   0  0  0  0  0  0  0  0  0  0  0  0
  -27.9674  -25.3447   25.5179 C   0  0  0  0  0  0  0  0  0  0  0  0
  -30.1421  -19.1305   22.6553 C   0  0  0  0  0  0  0  0  0  0  0  0
  -31.4349  -19.4929   22.2938 C   0  0  0  0  0  0  0  0  0  0  0  0
  -22.1419   -8.3179   21.7250 C   0  0  0  0  0  0  0  0  0  0  0  0
  -28.0240  -22.9338   25.8246 C   0  0  0  0  0  0  0  0  0  0  0  0
  -21.9245   -6.3015   22.9120 C   0  0  0  0  0  0  0  0  0  0  0  0
  -23.0246   -4.4117   24.6443 C   0  0  0  0  0  0  0  0  0  0  0  0
  -21.3018   -6.0252   24.1292 C   0  0  0  0  0  0  0  0  0  0  0  0
  -24.5132  -11.6726   20.7145 C   0  0  0  0  0  0  0  0  0  0  0  0
  -32.2071  -18.5579   21.6235 C   0  0  0  0  0  0  0  0  0  0  0  0
  -30.5190  -17.0002   21.6674 C   0  0  0  0  0  0  0  0  0  0  0  0
  -25.2341  -13.7071   20.2948 C   0  0  0  0  0  0  0  0  0  0  0  0
  -22.8249  -13.5983   20.9522 C   0  0  0  0  0  0  0  0  0  0  0  0
  -26.0373  -27.5510   23.7756 C   0  0  0  0  0  0  0  0  0  0  0  0
  -28.5057  -29.1165   25.1823 C   0  0  0  0  0  0  0  0  0  0  0  0
  -31.3467  -28.9479   27.0657 C   0  0  0  0  0  0  0  0  0  0  0  0
  -30.7012  -14.6880   20.6841 C   0  0  0  0  0  0  0  0  0  0  0  0
  -24.5675  -31.2716   20.6047 C   0  0  0  0  0  0  0  0  0  0  0  0
  -25.9121  -26.6713   26.1350 C   0  0  0  0  0  0  0  0  0  0  0  0
  -28.6748  -26.6011   25.0826 C   0  0  0  0  0  0  0  0  0  0  0  0
  -25.9002  -30.6523   21.0179 C   0  0  0  0  0  0  0  0  0  0  0  0
  -29.6783  -12.0345   18.5417 C   0  0  0  0  0  0  0  0  0  0  0  0
  -25.8288  -29.1306   20.9395 C   0  0  0  0  0  0  0  0  0  0  0  0
  -28.2099  -11.8147   18.9126 C   0  0  0  0  0  0  0  0  0  0  0  0
  -30.5253  -12.3866   19.7633 C   0  0  0  0  0  0  0  0  0  0  0  0
  -28.5556  -13.2918   20.9339 C   0  0  0  0  0  0  0  0  0  0  0  0
  -24.7675  -28.5779   21.8985 C   0  0  1  0  0  0  0  0  0  0  0  0
  -26.4457  -27.7580   25.2067 C   0  0  1  0  0  0  0  0  0  0  0  0
  -27.6508  -12.9984   19.7260 C   0  0  2  0  0  0  0  0  0  0  0  0
  -33.6041  -18.8905   21.2110 C   0  0  0  0  0  0  0  0  0  0  0  0
  -32.0375  -21.1060   24.1346 C   0  0  0  0  0  0  0  0  0  0  0  0
  -31.1779  -21.9739   21.9293 C   0  0  0  0  0  0  0  0  0  0  0  0
  -33.1674  -30.3887   28.0176 C   0  0  0  0  0  0  0  0  0  0  0  0
  -29.7913  -29.3113   22.4220 C   0  0  0  0  0  0  0  0  0  0  0  0
  -31.9561  -29.8744   23.5466 C   0  0  0  0  0  0  0  0  0  0  0  0
  -29.9859  -31.3813   23.8119 C   0  0  0  0  0  0  0  0  0  0  0  0
  -30.6400  -28.2075   29.8427 C   0  0  0  0  0  0  0  0  0  0  0  0
  -29.2394  -20.0911   23.3874 C   0  0  0  0  0  0  0  0  0  0  0  0
  -28.7512  -19.5681   24.7401 C   0  0  0  0  0  0  0  0  0  0  0  0
  -27.9098  -20.5792   25.5103 C   0  0  0  0  0  0  0  0  0  1  0  0
  -31.9708  -20.8468   22.6177 C   0  0  0  0  0  0  0  0  0  0  0  0
  -30.0028  -29.1442   24.9897 C   0  0  1  0  0  0  0  0  0  0  0  0
  -31.8083  -29.7535   28.2667 C   0  0  2  0  0  0  0  0  0  0  0  0
  -30.4203  -29.9037   23.6989 C   0  0  0  0  0  0  0  0  0  0  0  0
  -25.7983  -11.5115   20.3881 N   0  0  0  0  0  0  0  0  0  0  0  0
  -31.7809  -17.3164   21.2999 N   0  0  0  0  0  0  0  0  0  0  0  0
  -26.2092  -12.7663   20.1381 N   0  0  0  0  0  0  0  0  0  0  0  0
  -27.9071  -27.8493   25.2248 N   0  0  0  0  0  0  0  0  0  0  0  0
  -29.9372  -13.5191   20.4820 N   0  0  0  0  0  0  0  0  0  0  0  0
  -25.4766  -15.0182   20.0840 N   0  0  0  0  0  0  0  0  0  0  0  0
  -21.7758  -12.7483   21.3280 N   0  0  0  0  0  0  0  0  0  0  0  0
  -30.0262  -15.7099   21.3509 N   0  0  0  0  0  0  0  0  0  0  0  0
  -25.2667  -28.5739   23.2569 N   0  0  0  0  0  0  0  0  0  0  0  0
  -30.5620  -29.7000   26.2173 N   0  0  0  0  0  0  0  0  0  0  0  0
  -31.9116  -28.8786   29.4687 N   0  3  0  0  0  0  0  0  0  0  0  0
  -22.6117  -14.8306   20.8548 O   0  0  0  0  0  0  0  0  0  0  0  0
  -26.3961  -26.5388   23.1853 O   0  0  0  0  0  0  0  0  0  0  0  0
  -27.8911  -30.1797   25.2981 O   0  0  0  0  0  0  0  0  0  0  0  0
  -31.6546  -27.7703   26.8953 O   0  0  0  0  0  0  0  0  0  0  0  0
  -31.8594  -14.7859   20.2704 O   0  0  0  0  0  0  0  0  0  0  0  0
  -21.3792   -7.2387   22.0506 O   0  0  0  0  0  0  0  0  0  0  0  0
  -28.6921  -21.7519   25.7322 O   0  0  0  0  0  0  0  0  0  1  0  0
  -23.5521   -3.5032   25.4753 F   0  0  0  0  0  0  0  0  0  0  0  0
  -20.1743   -6.6636   24.4714 F   0  0  0  0  0  0  0  0  0  0  0  0
  1  2  1  0  0  0  0
  1  5  2  0  0  0  0
  2  6  2  0  0  0  0
  3  8  2  0  0  0  0
  3 16  1  0  0  0  0
  4  9  1  0  0  0  0
  4 16  2  0  0  0  0
  5 18  1  0  0  0  0
  6 20  1  0  0  0  0
  7 10  2  0  0  0  0
  7 19  1  0  0  0  0
  8 24  1  0  0  0  0
  9 24  2  0  0  0  0
 10 25  1  0  0  0  0
 11 12  2  0  0  0  0
 11 26  1  0  0  0  0
 12 27  1  0  0  0  0
 13 21  1  0  0  0  0
 13 25  2  0  0  0  0
 14 22  1  0  0  0  0
 14 31  2  0  0  0  0
 15 27  2  0  0  0  0
 15 28  1  0  0  0  0
 16 29  1  0  0  0  0
 17 29  1  0  0  0  0
 17 32  2  0  0  0  0
 17 33  1  0  0  0  0
 18 20  2  0  0  0  0
 18 38  1  0  0  0  0
 19 21  2  0  0  0  0
 19 39  1  0  0  0  0
 20 47  1  0  0  0  0
 21 40  1  0  0  0  0
 22 23  2  0  0  0  0
 22 58  1  0  0  0  0
 23 30  1  0  0  0  0
 23 61  1  0  0  0  0
 24 81  1  0  0  0  0
 25 82  1  0  0  0  0
 26 28  2  0  0  0  0
 26 81  1  0  0  0  0
 27 83  1  0  0  0  0
 28 84  1  0  0  0  0
 29 65  2  0  0  0  0
 30 50  1  0  0  0  0
 30 66  2  0  0  0  0
 31 66  1  0  0  0  0
 31 72  1  0  0  0  0
 32 67  1  0  0  0  0
 32 70  1  0  0  0  0
 33 71  1  0  0  0  0
 33 76  2  0  0  0  0
 34 48  1  0  0  0  0
 34 73  1  0  0  0  0
 34 77  2  0  0  0  0
 35 62  1  0  0  0  0
 35 68  1  0  0  0  0
 35 78  2  0  0  0  0
 36 63  1  0  0  0  0
 36 74  1  0  0  0  0
 36 79  2  0  0  0  0
 37 69  1  0  0  0  0
 37 72  1  0  0  0  0
 37 80  2  0  0  0  0
 38 41  1  0  0  0  0
 39 48  1  0  0  0  0
 40 68  1  0  0  0  0
 41 43  1  0  0  0  0
 42 44  1  0  0  0  0
 42 45  1  0  0  0  0
 43 47  1  0  0  0  0
 44 49  1  0  0  0  0
 45 69  1  0  0  0  0
 46 49  1  0  0  0  0
 46 69  1  0  0  0  0
 47 73  1  0  0  0  0
 48 68  1  0  0  0  0
 49 67  1  0  0  0  0
 51 61  1  0  0  0  0
 52 61  1  0  0  0  0
 53 63  1  0  0  0  0
 54 64  1  0  0  0  0
 55 64  1  0  0  0  0
 56 64  1  0  0  0  0
 57 75  1  0  0  0  0
 58 59  1  0  0  0  0
 59 60  1  0  0  0  0
 60 82  1  0  0  0  0
 62 64  1  0  0  0  0
 62 74  1  0  0  0  0
 63 75  1  0  0  0  0
 65 67  1  0  0  0  0
M  CHG  1  75   1
M  ISO  4  37 100  60 101  72 100  82 101
M  END
> <Batch ID>
0083

> <Smiles>
CNC(C)C(=O)NC(C(=O)N1Cc2cc([101O:1][101CH2:1]CCc3cc([100NH:0][100C:0](=O)N4CCCC(n5nc(-c6ccc(Oc7ccc(F)cc7F)cc6)c(C(N)=O)c5N)C4)nc(C)c3C(C)C)ccc2CC1C(=O)NC1CCCc2ccccc21)C(C)(C)C

> <Shape>
0.251

> <Color>
0.211

> <Negative vol penalty>
0.000

$$$$

  -OEChem-04052318513D

 86 94  0     1  0  0  0  0  0999 V2000
  -24.5908  -31.0736   14.4373 C   0  0  0  0  0  0  0  0  0  0  0  0
  -24.6385  -29.8050   15.0064 C   0  0  0  0  0  0  0  0  0  0  0  0
  -23.0764   -9.8626   19.9465 C   0  0  0  0  0  0  0  0  0  0  0  0
  -23.8343   -9.8801   22.2404 C   0  0  0  0  0  0  0  0  0  0  0  0
  -25.7374  -31.8662   14.4068 C   0  0  0  0  0  0  0  0  0  0  0  0
  -25.8333  -29.3279   15.5444 C   0  0  0  0  0  0  0  0  0  0  0  0
  -26.4788  -25.6980   20.4344 C   0  0  0  0  0  0  0  0  0  0  0  0
  -22.3327   -8.7103   20.2010 C   0  0  0  0  0  0  0  0  0  0  0  0
  -23.0906   -8.7279   22.4950 C   0  0  0  0  0  0  0  0  0  0  0  0
  -26.6738  -24.3235   20.5631 C   0  0  0  0  0  0  0  0  0  0  0  0
  -19.8622   -7.9316   23.0983 C   0  0  0  0  0  0  0  0  0  0  0  0
  -19.1043   -7.8967   24.2687 C   0  0  0  0  0  0  0  0  0  0  0  0
  -29.0522  -24.6840   20.7436 C   0  0  0  0  0  0  0  0  0  0  0  0
  -29.7475  -17.7198   22.6971 C   0  0  0  0  0  0  0  0  0  0  0  0
  -20.3457   -5.9630   25.0150 C   0  0  0  0  0  0  0  0  0  0  0  0
  -23.8273  -10.4475   20.9662 C   0  0  0  0  0  0  0  0  0  0  0  0
  -24.1683  -12.9722   20.8351 C   0  0  0  0  0  0  0  0  0  0  0  0
  -26.9444  -31.4024   14.9533 C   0  0  0  0  0  0  0  0  0  0  0  0
  -27.5718  -26.5764   20.4484 C   0  0  0  0  0  0  0  0  0  0  0  0
  -26.9974  -30.1146   15.5199 C   0  0  0  0  0  0  0  0  0  0  0  0
  -28.8682  -26.0694   20.6175 C   0  0  0  0  0  0  0  0  0  0  0  0
  -30.2204  -18.9562   23.1226 C   0  0  0  0  0  0  0  0  0  0  0  0
  -31.4833  -19.3843   22.7286 C   0  0  0  0  0  0  0  0  0  0  0  0
  -22.3398   -8.1429   21.4752 C   0  0  0  0  0  0  0  0  0  0  0  0
  -27.9609  -23.8161   20.7148 C   0  0  0  0  0  0  0  0  0  0  0  0
  -20.8619   -6.9822   22.8861 C   0  0  0  0  0  0  0  0  0  0  0  0
  -19.3460   -6.9124   25.2271 C   0  0  0  0  0  0  0  0  0  0  0  0
  -21.1036   -5.9979   23.8445 C   0  0  0  0  0  0  0  0  0  0  0  0
  -24.5961  -11.6374   20.7037 C   0  0  0  0  0  0  0  0  0  0  0  0
  -30.5698  -16.9554   21.8852 C   0  0  0  0  0  0  0  0  0  0  0  0
  -32.2279  -18.5453   21.9154 C   0  0  0  0  0  0  0  0  0  0  0  0
  -25.2605  -13.7204   20.4694 C   0  0  0  0  0  0  0  0  0  0  0  0
  -22.8973  -13.4894   21.2506 C   0  0  0  0  0  0  0  0  0  0  0  0
  -28.8189  -28.6387   18.3759 C   0  0  0  0  0  0  0  0  0  0  0  0
  -30.7379  -29.3957   20.8792 C   0  0  0  0  0  0  0  0  0  0  0  0
  -32.1606  -28.4422   23.8311 C   0  0  0  0  0  0  0  0  0  0  0  0
  -30.7262  -14.7687   20.6440 C   0  0  0  0  0  0  0  0  0  0  0  0
  -28.1693  -32.2768   14.8545 C   0  0  0  0  0  0  0  0  0  0  0  0
  -27.3423  -28.0586   20.3353 C   0  0  0  0  0  0  0  0  0  0  0  0
  -30.0734  -26.9717   20.6593 C   0  0  0  0  0  0  0  0  0  0  0  0
  -29.3023  -31.8448   15.7819 C   0  0  0  0  0  0  0  0  0  0  0  0
  -29.6146  -12.3439   18.2857 C   0  0  0  0  0  0  0  0  0  0  0  0
  -29.5206  -30.3378   15.6921 C   0  0  0  0  0  0  0  0  0  0  0  0
  -28.1747  -12.0537   18.7154 C   0  0  0  0  0  0  0  0  0  0  0  0
  -30.5286  -12.5784   19.4871 C   0  0  0  0  0  0  0  0  0  0  0  0
  -28.6202  -13.3084   20.8635 C   0  0  0  0  0  0  0  0  0  0  0  0
  -28.2686  -29.5716   16.1359 C   0  0  1  0  0  0  0  0  0  0  0  0
  -28.5721  -28.8181   19.8471 C   0  0  1  0  0  0  0  0  0  0  0  0
  -27.6485  -13.1295   19.6856 C   0  0  2  0  0  0  0  0  0  0  0  0
  -32.2895  -21.6533   21.9834 C   0  0  0  0  0  0  0  0  0  0  0  0
  -33.2943  -20.5661   24.0239 C   0  0  0  0  0  0  0  0  0  0  0  0
  -33.7117  -29.2615   25.6256 C   0  0  0  0  0  0  0  0  0  0  0  0
  -33.1215  -28.9082   19.0379 C   0  0  0  0  0  0  0  0  0  0  0  0
  -34.5808  -28.8035   21.0696 C   0  0  0  0  0  0  0  0  0  0  0  0
  -33.3464  -30.9029   20.5297 C   0  0  0  0  0  0  0  0  0  0  0  0
  -30.0618  -28.2245   25.9064 C   0  0  0  0  0  0  0  0  0  0  0  0
  -34.1863  -18.0204   20.6725 C   0  0  0  0  0  0  0  0  0  0  0  0
  -29.3491  -19.8113   24.0077 C   0  0  0  0  0  0  0  0  0  0  0  0
  -28.6843  -20.9828   23.2763 C   0  0  0  0  0  0  0  0  0  0  0  0
  -27.7168  -20.5330   22.1806 C   0  0  0  0  0  0  0  0  0  0  0  0
  -27.1069  -21.7220   21.4507 C   0  0  0  0  0  0  0  0  0  1  0  0
  -32.0218  -20.7043   23.1669 C   0  0  0  0  0  0  0  0  0  0  0  0
  -32.0676  -28.9008   21.3949 C   0  0  1  0  0  0  0  0  0  0  0  0
  -32.2647  -29.1452   25.1726 C   0  0  2  0  0  0  0  0  0  0  0  0
  -33.2568  -29.3614   20.5053 C   0  0  0  0  0  0  0  0  0  0  0  0
  -25.8614  -11.5402   20.2870 N   0  0  0  0  0  0  0  0  0  0  0  0
  -31.8022  -17.3376   21.4819 N   0  0  0  0  0  0  0  0  0  0  0  0
  -26.2379  -12.8233   20.1532 N   0  0  0  0  0  0  0  0  0  0  0  0
  -29.7978  -28.4129   20.5382 N   0  0  0  0  0  0  0  0  0  0  0  0
  -29.9685  -13.6130   20.3594 N   0  0  0  0  0  0  0  0  0  0  0  0
  -25.4705  -15.0516   20.3905 N   0  0  0  0  0  0  0  0  0  0  0  0
  -21.8854  -12.5814   21.5911 N   0  0  0  0  0  0  0  0  0  0  0  0
  -30.0778  -15.6972   21.4577 N   0  0  0  0  0  0  0  0  0  0  0  0
  -28.1676  -29.5612   17.5795 N   0  0  0  0  0  0  0  0  0  0  0  0
  -32.1556  -29.3389   22.7837 N   0  0  0  0  0  0  0  0  0  0  0  0
  -31.5059  -28.3932   26.2117 N   0  3  0  0  0  0  0  0  0  0  0  0
  -22.6605  -14.7202   21.3022 O   0  0  0  0  0  0  0  0  0  0  0  0
  -29.5475  -27.7313   17.9917 O   0  0  0  0  0  0  0  0  0  0  0  0
  -30.5379  -30.6096   20.7893 O   0  0  0  0  0  0  0  0  0  0  0  0
  -32.0944  -27.2197   23.7231 O   0  0  0  0  0  0  0  0  0  0  0  0
  -31.8556  -14.9357   20.1766 O   0  0  0  0  0  0  0  0  0  0  0  0
  -21.6140   -7.0187   21.7240 O   0  0  0  0  0  0  0  0  0  0  0  0
  -28.1541  -22.4749   20.8400 O   0  0  0  0  0  0  0  0  0  1  0  0
  -33.4782  -18.9302   21.5055 O   0  0  0  0  0  0  0  0  0  0  0  0
  -18.6191   -6.8799   26.3517 F   0  0  0  0  0  0  0  0  0  0  0  0
  -22.0634   -5.0839   23.6468 F   0  0  0  0  0  0  0  0  0  0  0  0
  1  2  1  0  0  0  0
  1  5  2  0  0  0  0
  2  6  2  0  0  0  0
  3  8  2  0  0  0  0
  3 16  1  0  0  0  0
  4  9  1  0  0  0  0
  4 16  2  0  0  0  0
  5 18  1  0  0  0  0
  6 20  1  0  0  0  0
  7 10  2  0  0  0  0
  7 19  1  0  0  0  0
  8 24  1  0  0  0  0
  9 24  2  0  0  0  0
 10 25  1  0  0  0  0
 11 12  2  0  0  0  0
 11 26  1  0  0  0  0
 12 27  1  0  0  0  0
 13 21  1  0  0  0  0
 13 25  2  0  0  0  0
 14 22  1  0  0  0  0
 14 30  2  0  0  0  0
 15 27  2  0  0  0  0
 15 28  1  0  0  0  0
 16 29  1  0  0  0  0
 17 29  1  0  0  0  0
 17 32  2  0  0  0  0
 17 33  1  0  0  0  0
 18 20  2  0  0  0  0
 18 38  1  0  0  0  0
 19 21  2  0  0  0  0
 19 39  1  0  0  0  0
 20 47  1  0  0  0  0
 21 40  1  0  0  0  0
 22 23  2  0  0  0  0
 22 58  1  0  0  0  0
 23 31  1  0  0  0  0
 23 62  1  0  0  0  0
 24 82  1  0  0  0  0
 25 83  1  0  0  0  0
 26 28  2  0  0  0  0
 26 82  1  0  0  0  0
 27 85  1  0  0  0  0
 28 86  1  0  0  0  0
 29 66  2  0  0  0  0
 30 67  1  0  0  0  0
 30 73  1  0  0  0  0
 31 67  2  0  0  0  0
 31 84  1  0  0  0  0
 32 68  1  0  0  0  0
 32 71  1  0  0  0  0
 33 72  1  0  0  0  0
 33 77  2  0  0  0  0
 34 48  1  0  0  0  0
 34 74  1  0  0  0  0
 34 78  2  0  0  0  0
 35 63  1  0  0  0  0
 35 69  1  0  0  0  0
 35 79  2  0  0  0  0
 36 64  1  0  0  0  0
 36 75  1  0  0  0  0
 36 80  2  0  0  0  0
 37 70  1  0  0  0  0
 37 73  1  0  0  0  0
 37 81  2  0  0  0  0
 38 41  1  0  0  0  0
 39 48  1  0  0  0  0
 40 69  1  0  0  0  0
 41 43  1  0  0  0  0
 42 44  1  0  0  0  0
 42 45  1  0  0  0  0
 43 47  1  0  0  0  0
 44 49  1  0  0  0  0
 45 70  1  0  0  0  0
 46 49  1  0  0  0  0
 46 70  1  0  0  0  0
 47 74  1  0  0  0  0
 48 69  1  0  0  0  0
 49 68  1  0  0  0  0
 50 62  1  0  0  0  0
 51 62  1  0  0  0  0
 52 64  1  0  0  0  0
 53 65  1  0  0  0  0
 54 65  1  0  0  0  0
 55 65  1  0  0  0  0
 56 76  1  0  0  0  0
 57 84  1  0  0  0  0
 58 59  1  0  0  0  0
 59 60  1  0  0  0  0
 60 61  1  0  0  0  0
 61 83  1  0  0  0  0
 63 65  1  0  0  0  0
 63 75  1  0  0  0  0
 64 76  1  0  0  0  0
 66 68  1  0  0  0  0
M  CHG  1  76   1
M  ISO  4  37 100  61 101  73 100  83 101
M  END
> <Batch ID>
0083

> <Smiles>
CNC(C)C(=O)NC(C(=O)N1Cc2cc([101O:1][101CH2:1]CCCc3cc([100NH:0][100C:0](=O)N4CCCC(n5nc(-c6ccc(Oc7ccc(F)cc7F)cc6)c(C(N)=O)c5N)C4)nc(OC)c3C(C)C)ccc2CC1C(=O)NC1CCCc2ccccc21)C(C)(C)C

> <Shape>
0.230

> <Color>
0.188

> <Negative vol penalty>
0.000

$$$$

  -OEChem-04052318513D

 82 90  0     1  0  0  0  0  0999 V2000
  -17.0806  -26.5986   23.3672 C   0  0  0  0  0  0  0  0  0  0  0  0
  -18.3317  -25.9932   23.4261 C   0  0  0  0  0  0  0  0  0  0  0  0
  -23.6795   -9.5922   21.6161 C   0  0  0  0  0  0  0  0  0  0  0  0
  -23.0836  -11.8677   22.1676 C   0  0  0  0  0  0  0  0  0  0  0  0
  -16.9406  -27.8503   22.7692 C   0  0  0  0  0  0  0  0  0  0  0  0
  -19.4435  -26.6387   22.8860 C   0  0  0  0  0  0  0  0  0  0  0  0
  -25.1889  -26.4639   24.9993 C   0  0  0  0  0  0  0  0  0  0  0  0
  -22.8901   -9.1303   22.6692 C   0  0  0  0  0  0  0  0  0  0  0  0
  -22.2942  -11.4058   23.2207 C   0  0  0  0  0  0  0  0  0  0  0  0
  -26.3036  -25.7149   24.6250 C   0  0  0  0  0  0  0  0  0  0  0  0
  -19.6059   -8.5994   23.2739 C   0  0  0  0  0  0  0  0  0  0  0  0
  -18.7659   -7.5138   23.0265 C   0  0  0  0  0  0  0  0  0  0  0  0
  -27.0603  -27.5422   23.2438 C   0  0  0  0  0  0  0  0  0  0  0  0
  -19.9020   -6.2444   24.7397 C   0  0  0  0  0  0  0  0  0  0  0  0
  -28.4382  -18.0774   21.0309 C   0  0  0  0  0  0  0  0  0  0  0  0
  -23.7763  -10.9610   21.3653 C   0  0  0  0  0  0  0  0  0  0  0  0
  -24.1909  -11.6567   18.9463 C   0  0  0  0  0  0  0  0  0  0  0  0
  -18.0529  -28.5158   22.2301 C   0  0  0  0  0  0  0  0  0  0  0  0
  -24.9956  -27.7558   24.4892 C   0  0  0  0  0  0  0  0  0  0  0  0
  -19.3181  -27.8998   22.2790 C   0  0  0  0  0  0  0  0  0  0  0  0
  -25.9436  -28.3065   23.6152 C   0  0  0  0  0  0  0  0  0  0  0  0
  -22.1974  -10.0370   23.4715 C   0  0  0  0  0  0  0  0  0  0  0  0
  -27.2380  -26.2528   23.7449 C   0  0  0  0  0  0  0  0  0  0  0  0
  -20.5941   -8.5076   24.2541 C   0  0  0  0  0  0  0  0  0  0  0  0
  -18.9139   -6.3362   23.7595 C   0  0  0  0  0  0  0  0  0  0  0  0
  -20.7421   -7.3301   24.9871 C   0  0  0  0  0  0  0  0  0  0  0  0
  -24.5920  -11.4388   20.2779 C   0  0  0  0  0  0  0  0  0  0  0  0
  -30.8785  -19.1051   20.6895 C   0  0  0  0  0  0  0  0  0  0  0  0
  -29.8063  -19.9097   21.0069 C   0  0  0  0  0  0  0  0  0  0  0  0
  -29.5101  -17.2729   20.7128 C   0  0  0  0  0  0  0  0  0  0  0  0
  -25.3247  -12.1073   18.3155 C   0  0  0  0  0  0  0  0  0  0  0  0
  -22.9080  -11.4686   18.3342 C   0  0  0  0  0  0  0  0  0  0  0  0
  -22.7690  -29.1514   22.7008 C   0  0  0  0  0  0  0  0  0  0  0  0
  -24.4789  -31.8298   23.3521 C   0  0  0  0  0  0  0  0  0  0  0  0
  -27.4708  -33.2138   24.2354 C   0  0  0  0  0  0  0  0  0  0  0  0
  -30.2362  -14.9047   20.2536 C   0  0  0  0  0  0  0  0  0  0  0  0
  -17.8442  -29.8465   21.5516 C   0  0  0  0  0  0  0  0  0  0  0  0
  -23.8017  -28.5610   24.9236 C   0  0  0  0  0  0  0  0  0  0  0  0
  -25.7928  -29.6966   23.0552 C   0  0  0  0  0  0  0  0  0  0  0  0
  -19.1365  -30.6301   21.3369 C   0  0  0  0  0  0  0  0  0  0  0  0
  -30.0991  -11.7969   18.5215 C   0  0  0  0  0  0  0  0  0  0  0  0
  -20.2207  -29.7243   20.7617 C   0  0  0  0  0  0  0  0  0  0  0  0
  -28.6335  -11.3752   18.6490 C   0  0  0  0  0  0  0  0  0  0  0  0
  -30.6014  -12.4916   19.7860 C   0  0  0  0  0  0  0  0  0  0  0  0
  -28.3148  -13.1988   20.3694 C   0  0  0  0  0  0  0  0  0  0  0  0
  -20.5522  -28.5793   21.7264 C   0  0  1  0  0  0  0  0  0  0  0  0
  -23.4397  -29.6705   23.9411 C   0  0  1  0  0  0  0  0  0  0  0  0
  -27.7451  -12.5527   19.0959 C   0  0  2  0  0  0  0  0  0  0  0  0
  -32.2441  -19.6704   20.4969 C   0  0  0  0  0  0  0  0  0  0  0  0
  -28.5691  -35.4314   24.6516 C   0  0  0  0  0  0  0  0  0  0  0  0
  -24.6088  -32.3273   20.3445 C   0  0  0  0  0  0  0  0  0  0  0  0
  -26.4633  -33.9560   20.7644 C   0  0  0  0  0  0  0  0  0  0  0  0
  -24.1986  -34.3729   21.7235 C   0  0  0  0  0  0  0  0  0  0  0  0
  -28.0842  -32.5135   27.0447 C   0  0  0  0  0  0  0  0  0  0  0  0
  -29.9644  -21.4000   21.1744 C   0  0  0  0  0  0  0  0  0  0  0  0
  -28.9989  -22.0143   22.1940 C   0  0  0  0  0  0  0  0  0  0  0  0
  -29.1214  -23.5354   22.2936 C   0  0  0  0  0  0  0  0  0  0  0  0
  -28.1766  -24.1049   23.3431 C   0  0  0  0  0  0  0  0  0  1  0  0
  -25.6407  -32.5411   22.7015 C   0  0  1  0  0  0  0  0  0  0  0  0
  -27.8289  -34.2590   25.2764 C   0  0  2  0  0  0  0  0  0  0  0  0
  -25.2300  -33.2724   21.3923 C   0  0  0  0  0  0  0  0  0  0  0  0
  -28.5671  -19.4103   21.1836 N   0  0  0  0  0  0  0  0  0  0  0  0
  -25.8801  -11.7271   20.4822 N   0  0  0  0  0  0  0  0  0  0  0  0
  -30.7495  -17.7723   20.5364 N   0  0  0  0  0  0  0  0  0  0  0  0
  -26.2982  -12.1307   19.2704 N   0  0  0  0  0  0  0  0  0  0  0  0
  -24.6055  -30.4419   23.5050 N   0  0  0  0  0  0  0  0  0  0  0  0
  -29.7130  -13.5987   20.1464 N   0  0  0  0  0  0  0  0  0  0  0  0
  -25.5739  -12.4818   17.0427 N   0  0  0  0  0  0  0  0  0  0  0  0
  -21.8519  -10.9991   19.1269 N   0  0  0  0  0  0  0  0  0  0  0  0
  -29.2913  -15.8803   20.5696 N   0  0  0  0  0  0  0  0  0  0  0  0
  -21.3944  -29.0538   22.8034 N   0  0  0  0  0  0  0  0  0  0  0  0
  -26.2070  -33.4161   23.7223 N   0  0  0  0  0  0  0  0  0  0  0  0
  -28.6971  -33.6633   26.3311 N   0  3  0  0  0  0  0  0  0  0  0  0
  -22.7084  -11.6941   17.1165 O   0  0  0  0  0  0  0  0  0  0  0  0
  -23.4481  -28.8622   21.7226 O   0  0  0  0  0  0  0  0  0  0  0  0
  -23.4983  -32.4827   23.7179 O   0  0  0  0  0  0  0  0  0  0  0  0
  -28.2369  -32.3105   23.9073 O   0  0  0  0  0  0  0  0  0  0  0  0
  -31.4294  -15.1444   20.0513 O   0  0  0  0  0  0  0  0  0  0  0  0
  -21.4268   -9.5866   24.4990 O   0  0  0  0  0  0  0  0  0  0  0  0
  -28.3266  -25.5236   23.3774 O   0  0  0  0  0  0  0  0  0  1  0  0
  -18.1061   -5.2943   23.5229 F   0  0  0  0  0  0  0  0  0  0  0  0
  -21.6888   -7.2363   25.9309 F   0  0  0  0  0  0  0  0  0  0  0  0
  1  2  1  0  0  0  0
  1  5  2  0  0  0  0
  2  6  2  0  0  0  0
  3  8  2  0  0  0  0
  3 16  1  0  0  0  0
  4  9  1  0  0  0  0
  4 16  2  0  0  0  0
  5 18  1  0  0  0  0
  6 20  1  0  0  0  0
  7 10  2  0  0  0  0
  7 19  1  0  0  0  0
  8 22  1  0  0  0  0
  9 22  2  0  0  0  0
 10 23  1  0  0  0  0
 11 12  2  0  0  0  0
 11 24  1  0  0  0  0
 12 25  1  0  0  0  0
 13 21  1  0  0  0  0
 13 23  2  0  0  0  0
 14 25  2  0  0  0  0
 14 26  1  0  0  0  0
 15 30  1  0  0  0  0
 15 62  2  0  0  0  0
 16 27  1  0  0  0  0
 17 27  1  0  0  0  0
 17 31  2  0  0  0  0
 17 32  1  0  0  0  0
 18 20  2  0  0  0  0
 18 37  1  0  0  0  0
 19 21  2  0  0  0  0
 19 38  1  0  0  0  0
 20 46  1  0  0  0  0
 21 39  1  0  0  0  0
 22 79  1  0  0  0  0
 23 80  1  0  0  0  0
 24 26  2  0  0  0  0
 24 79  1  0  0  0  0
 25 81  1  0  0  0  0
 26 82  1  0  0  0  0
 27 63  2  0  0  0  0
 28 29  2  0  0  0  0
 28 49  1  0  0  0  0
 28 64  1  0  0  0  0
 29 55  1  0  0  0  0
 29 62  1  0  0  0  0
 30 64  2  0  0  0  0
 30 70  1  0  0  0  0
 31 65  1  0  0  0  0
 31 68  1  0  0  0  0
 32 69  1  0  0  0  0
 32 74  2  0  0  0  0
 33 47  1  0  0  0  0
 33 71  1  0  0  0  0
 33 75  2  0  0  0  0
 34 59  1  0  0  0  0
 34 66  1  0  0  0  0
 34 76  2  0  0  0  0
 35 60  1  0  0  0  0
 35 72  1  0  0  0  0
 35 77  2  0  0  0  0
 36 67  1  0  0  0  0
 36 70  1  0  0  0  0
 36 78  2  0  0  0  0
 37 40  1  0  0  0  0
 38 47  1  0  0  0  0
 39 66  1  0  0  0  0
 40 42  1  0  0  0  0
 41 43  1  0  0  0  0
 41 44  1  0  0  0  0
 42 46  1  0  0  0  0
 43 48  1  0  0  0  0
 44 67  1  0  0  0  0
 45 48  1  0  0  0  0
 45 67  1  0  0  0  0
 46 71  1  0  0  0  0
 47 66  1  0  0  0  0
 48 65  1  0  0  0  0
 50 60  1  0  0  0  0
 51 61  1  0  0  0  0
 52 61  1  0  0  0  0
 53 61  1  0  0  0  0
 54 73  1  0  0  0  0
 55 56  1  0  0  0  0
 56 57  1  0  0  0  0
 57 58  1  0  0  0  0
 58 80  1  0  0  0  0
 59 61  1  0  0  0  0
 59 72  1  0  0  0  0
 60 73  1  0  0  0  0
 63 65  1  0  0  0  0
M  CHG  1  73   1
M  ISO  4  36 100  58 101  70 100  80 101
M  END
> <Batch ID>
0083

> <Smiles>
CNC(C)C(=O)NC(C(=O)N1Cc2cc([101O:1][101CH2:1]CCCc3ncc([100NH:0][100C:0](=O)N4CCCC(n5nc(-c6ccc(Oc7ccc(F)cc7F)cc6)c(C(N)=O)c5N)C4)nc3C)ccc2CC1C(=O)NC1CCCc2ccccc21)C(C)(C)C

> <Shape>
0.264

> <Color>
0.115

> <Negative vol penalty>
0.000

$$$$

  -OEChem-04052318513D

 85 93  0     1  0  0  0  0  0999 V2000
  -29.3038  -36.9703   21.8886 C   0  0  0  0  0  0  0  0  0  0  0  0
  -29.4047  -35.8886   21.0196 C   0  0  0  0  0  0  0  0  0  0  0  0
  -24.5529   -9.1318   21.5078 C   0  0  0  0  0  0  0  0  0  0  0  0
  -23.3298  -10.9403   22.5424 C   0  0  0  0  0  0  0  0  0  0  0  0
  -28.8604  -36.7738   23.1958 C   0  0  0  0  0  0  0  0  0  0  0  0
  -29.0634  -34.6095   21.4577 C   0  0  0  0  0  0  0  0  0  0  0  0
  -26.2391  -28.4664   19.0909 C   0  0  0  0  0  0  0  0  0  0  0  0
  -24.0671   -8.2506   22.4737 C   0  0  0  0  0  0  0  0  0  0  0  0
  -22.8439  -10.0590   23.5083 C   0  0  0  0  0  0  0  0  0  0  0  0
  -26.5079  -27.0987   19.0600 C   0  0  0  0  0  0  0  0  0  0  0  0
  -21.2038   -6.5606   23.0888 C   0  0  0  0  0  0  0  0  0  0  0  0
  -20.7292   -5.3223   22.6565 C   0  0  0  0  0  0  0  0  0  0  0  0
  -25.6789  -26.8910   21.3158 C   0  0  0  0  0  0  0  0  0  0  0  0
  -22.3841   -4.2114   24.0218 C   0  0  0  0  0  0  0  0  0  0  0  0
  -22.5783  -17.6967   19.5728 C   0  0  0  0  0  0  0  0  0  0  0  0
  -24.1843  -10.4767   21.5421 C   0  0  0  0  0  0  0  0  0  0  0  0
  -24.0975  -11.6991   19.3048 C   0  0  0  0  0  0  0  0  0  0  0  0
  -28.5043  -35.4931   23.6472 C   0  0  0  0  0  0  0  0  0  0  0  0
  -25.6973  -29.0595   20.2403 C   0  0  0  0  0  0  0  0  0  0  0  0
  -28.6162  -34.3955   22.7725 C   0  0  0  0  0  0  0  0  0  0  0  0
  -25.4017  -28.2659   21.3578 C   0  0  0  0  0  0  0  0  0  0  0  0
  -23.2126   -8.7142   23.4739 C   0  0  0  0  0  0  0  0  0  0  0  0
  -26.2305  -26.3113   20.1736 C   0  0  0  0  0  0  0  0  0  0  0  0
  -22.2686   -6.6244   23.9876 C   0  0  0  0  0  0  0  0  0  0  0  0
  -21.3194   -4.1477   23.1230 C   0  0  0  0  0  0  0  0  0  0  0  0
  -22.8587   -5.4497   24.4542 C   0  0  0  0  0  0  0  0  0  0  0  0
  -24.6863  -11.3876   20.5450 C   0  0  0  0  0  0  0  0  0  0  0  0
  -22.9428  -16.3695   19.2773 C   0  0  0  0  0  0  0  0  0  0  0  0
  -23.5313  -18.1241   20.4648 C   0  0  0  0  0  0  0  0  0  0  0  0
  -24.9565  -12.6070   18.7353 C   0  0  0  0  0  0  0  0  0  0  0  0
  -22.8827  -11.2115   18.7199 C   0  0  0  0  0  0  0  0  0  0  0  0
  -26.6686  -31.2941   22.2817 C   0  0  0  0  0  0  0  0  0  0  0  0
  -23.6823  -30.9312   23.4952 C   0  0  0  0  0  0  0  0  0  0  0  0
  -20.9357  -28.9437   23.8864 C   0  0  0  0  0  0  0  0  0  0  0  0
  -29.0567  -16.2228   21.5015 C   0  0  0  0  0  0  0  0  0  0  0  0
  -28.0755  -35.3228   25.0831 C   0  0  0  0  0  0  0  0  0  0  0  0
  -25.3883  -30.5315   20.2481 C   0  0  0  0  0  0  0  0  0  0  0  0
  -24.8008  -28.8506   22.6091 C   0  0  0  0  0  0  0  0  0  0  0  0
  -27.3765  -33.9934   25.3564 C   0  0  0  0  0  0  0  0  0  0  0  0
  -29.5580  -13.8940   18.6684 C   0  0  0  0  0  0  0  0  0  0  0  0
  -28.1542  -32.8421   24.7268 C   0  0  0  0  0  0  0  0  0  0  0  0
  -28.3446  -12.9721   18.7763 C   0  0  0  0  0  0  0  0  0  0  0  0
  -29.9603  -14.4632   20.0255 C   0  0  0  0  0  0  0  0  0  0  0  0
  -27.6401  -14.2329   20.8486 C   0  0  0  0  0  0  0  0  0  0  0  0
  -28.2316  -32.9966   23.2031 C   0  0  1  0  0  0  0  0  0  0  0  0
  -25.3146  -31.1191   21.6541 C   0  0  1  0  0  0  0  0  0  0  0  0
  -27.1803  -13.6792   19.4916 C   0  0  2  0  0  0  0  0  0  0  0  0
  -22.2589  -15.4316   18.3711 C   0  0  0  0  0  0  0  0  0  0  0  0
  -18.6675  -28.9069   24.9593 C   0  0  0  0  0  0  0  0  0  0  0  0
  -24.9801  -30.4684   26.2175 C   0  0  0  0  0  0  0  0  0  0  0  0
  -22.8053  -29.5184   27.0150 C   0  0  0  0  0  0  0  0  0  0  0  0
  -22.9272  -31.8958   26.2696 C   0  0  0  0  0  0  0  0  0  0  0  0
  -28.2166  -18.3593   22.4012 C   0  0  0  0  0  0  0  0  0  0  0  0
  -19.5785  -28.6210   21.2763 C   0  0  0  0  0  0  0  0  0  0  0  0
  -23.7107  -19.4481   21.1641 C   0  0  0  0  0  0  0  0  0  0  0  0
  -24.5763  -20.4467   20.3874 C   0  0  0  0  0  0  0  0  0  0  0  0
  -24.6831  -21.8105   21.0769 C   0  0  0  0  0  0  0  0  0  0  0  0
  -25.5781  -22.7622   20.2850 C   0  0  0  0  0  0  0  0  0  0  0  0
  -25.5436  -17.0237   21.4915 C   0  0  0  0  0  0  0  0  0  0  0  0
  -26.8501  -17.1820   20.7182 C   0  0  0  0  0  0  0  0  0  0  0  0
  -25.6573  -24.1340   20.9397 C   0  0  0  0  0  0  0  0  0  1  0  0
  -23.0560  -30.0489   24.5479 C   0  0  1  0  0  0  0  0  0  0  0  0
  -19.4555  -29.2224   23.6975 C   0  0  2  0  0  0  0  0  0  0  0  0
  -23.4553  -30.4719   25.9898 C   0  0  0  0  0  0  0  0  0  0  0  0
  -25.8310  -12.0441   20.7517 N   0  0  0  0  0  0  0  0  0  0  0  0
  -24.0418  -15.9794   19.9287 N   0  0  0  0  0  0  0  0  0  0  0  0
  -24.3760  -17.0681   20.6422 N   0  0  0  0  0  0  0  0  0  0  0  0
  -25.9684  -12.7772   19.6338 N   0  0  0  0  0  0  0  0  0  0  0  0
  -24.5226  -30.2958   22.5700 N   0  0  0  0  0  0  0  0  0  0  0  0
  -28.8252  -15.0913   20.7023 N   0  0  0  0  0  0  0  0  0  0  0  0
  -24.9375  -13.2683   17.5585 N   0  0  0  0  0  0  0  0  0  0  0  0
  -22.1201  -10.2823   19.4407 N   0  0  0  0  0  0  0  0  0  0  0  0
  -26.9802  -32.6043   22.5911 N   0  0  0  0  0  0  0  0  0  0  0  0
  -21.6192  -30.0692   24.2955 N   0  0  0  0  0  0  0  0  0  0  0  0
  -28.0200  -17.1638   21.5937 N   0  0  0  0  0  0  0  0  0  0  0  0
  -18.9107  -28.3952   22.5840 N   0  3  0  0  0  0  0  0  0  0  0  0
  -22.4936  -11.5761   17.5845 O   0  0  0  0  0  0  0  0  0  0  0  0
  -27.3774  -30.3128   22.4725 O   0  0  0  0  0  0  0  0  0  0  0  0
  -23.4294  -32.1386   23.4894 O   0  0  0  0  0  0  0  0  0  0  0  0
  -21.4351  -27.8372   23.6943 O   0  0  0  0  0  0  0  0  0  0  0  0
  -30.1325  -16.3876   22.0910 O   0  0  0  0  0  0  0  0  0  0  0  0
  -22.7381   -7.8545   24.4165 O   0  0  0  0  0  0  0  0  0  0  0  0
  -26.4926  -24.9762   20.1464 O   0  0  0  0  0  0  0  0  0  1  0  0
  -20.8625   -2.9586   22.7089 F   0  0  0  0  0  0  0  0  0  0  0  0
  -23.8812   -5.5046   25.3186 F   0  0  0  0  0  0  0  0  0  0  0  0
  1  2  1  0  0  0  0
  1  5  2  0  0  0  0
  2  6  2  0  0  0  0
  3  8  2  0  0  0  0
  3 16  1  0  0  0  0
  4  9  1  0  0  0  0
  4 16  2  0  0  0  0
  5 18  1  0  0  0  0
  6 20  1  0  0  0  0
  7 10  2  0  0  0  0
  7 19  1  0  0  0  0
  8 22  1  0  0  0  0
  9 22  2  0  0  0  0
 10 23  1  0  0  0  0
 11 12  2  0  0  0  0
 11 24  1  0  0  0  0
 12 25  1  0  0  0  0
 13 21  1  0  0  0  0
 13 23  2  0  0  0  0
 14 25  2  0  0  0  0
 14 26  1  0  0  0  0
 15 28  1  0  0  0  0
 15 29  2  0  0  0  0
 16 27  1  0  0  0  0
 17 27  1  0  0  0  0
 17 30  2  0  0  0  0
 17 31  1  0  0  0  0
 18 20  2  0  0  0  0
 18 36  1  0  0  0  0
 19 21  2  0  0  0  0
 19 37  1  0  0  0  0
 20 45  1  0  0  0  0
 21 38  1  0  0  0  0
 22 82  1  0  0  0  0
 23 83  1  0  0  0  0
 24 26  2  0  0  0  0
 24 82  1  0  0  0  0
 25 84  1  0  0  0  0
 26 85  1  0  0  0  0
 27 65  2  0  0  0  0
 28 48  1  0  0  0  0
 28 66  2  0  0  0  0
 29 55  1  0  0  0  0
 29 67  1  0  0  0  0
 30 68  1  0  0  0  0
 30 71  1  0  0  0  0
 31 72  1  0  0  0  0
 31 77  2  0  0  0  0
 32 46  1  0  0  0  0
 32 73  1  0  0  0  0
 32 78  2  0  0  0  0
 33 62  1  0  0  0  0
 33 69  1  0  0  0  0
 33 79  2  0  0  0  0
 34 63  1  0  0  0  0
 34 74  1  0  0  0  0
 34 80  2  0  0  0  0
 35 70  1  0  0  0  0
 35 75  1  0  0  0  0
 35 81  2  0  0  0  0
 36 39  1  0  0  0  0
 37 46  1  0  0  0  0
 38 69  1  0  0  0  0
 39 41  1  0  0  0  0
 40 42  1  0  0  0  0
 40 43  1  0  0  0  0
 41 45  1  0  0  0  0
 42 47  1  0  0  0  0
 43 70  1  0  0  0  0
 44 47  1  0  0  0  0
 44 70  1  0  0  0  0
 45 73  1  0  0  0  0
 46 69  1  0  0  0  0
 47 68  1  0  0  0  0
 49 63  1  0  0  0  0
 50 64  1  0  0  0  0
 51 64  1  0  0  0  0
 52 64  1  0  0  0  0
 53 75  1  0  0  0  0
 54 76  1  0  0  0  0
 55 56  1  0  0  0  0
 56 57  1  0  0  0  0
 57 58  1  0  0  0  0
 58 61  1  0  0  0  0
 59 60  1  0  0  0  0
 59 67  1  0  0  0  0
 60 75  1  0  0  0  0
 61 83  1  0  0  0  0
 62 64  1  0  0  0  0
 62 74  1  0  0  0  0
 63 76  1  0  0  0  0
 65 68  1  0  0  0  0
 66 67  1  0  0  0  0
M  CHG  1  76   1
M  ISO  4  35 100  61 101  75 100  83 101
M  END
> <Batch ID>
0083

> <Smiles>
CNC(C)C(=O)NC(C(=O)N1Cc2cc([101O:1][101CH2:1]CCCCc3cc(C)nn3CC[100N:0](C)[100C:0](=O)N3CCCC(n4nc(-c5ccc(Oc6ccc(F)cc6F)cc5)c(C(N)=O)c4N)C3)ccc2CC1C(=O)NC1CCCc2ccccc21)C(C)(C)C

> <Shape>
0.262

> <Color>
0.093

> <Negative vol penalty>
0.000

$$$$

  -OEChem-04052318513D

 86 94  0     1  0  0  0  0  0999 V2000
  -32.2166  -17.2484   21.7152 C   0  0  0  0  0  0  0  0  0  0  0  0
  -31.1095  -18.0893   21.7653 C   0  0  0  0  0  0  0  0  0  0  0  0
  -28.5616  -28.0321   18.9543 C   0  0  0  0  0  0  0  0  0  0  0  0
  -27.3288  -26.2012   19.9367 C   0  0  0  0  0  0  0  0  0  0  0  0
  -32.1075  -15.9884   21.1282 C   0  0  0  0  0  0  0  0  0  0  0  0
  -29.8928  -17.6711   21.2275 C   0  0  0  0  0  0  0  0  0  0  0  0
  -24.2924  -18.9948   23.3226 C   0  0  0  0  0  0  0  0  0  0  0  0
  -29.7288  -27.2698   18.9981 C   0  0  0  0  0  0  0  0  0  0  0  0
  -28.4961  -25.4388   19.9805 C   0  0  0  0  0  0  0  0  0  0  0  0
  -23.3479  -19.9457   22.9388 C   0  0  0  0  0  0  0  0  0  0  0  0
  -31.0789  -22.8803   20.0186 C   0  0  0  0  0  0  0  0  0  0  0  0
  -31.0033  -21.5526   19.5980 C   0  0  0  0  0  0  0  0  0  0  0  0
  -22.2471  -18.2915   21.5710 C   0  0  0  0  0  0  0  0  0  0  0  0
  -30.2873  -22.2863   17.4103 C   0  0  0  0  0  0  0  0  0  0  0  0
  -19.5471  -26.8969   23.5198 C   0  0  0  0  0  0  0  0  0  0  0  0
  -19.6499  -28.7113   22.2114 C   0  0  0  0  0  0  0  0  0  0  0  0
  -27.3615  -27.4979   19.4237 C   0  0  0  0  0  0  0  0  0  0  0  0
  -25.2211  -28.3501   18.3283 C   0  0  0  0  0  0  0  0  0  0  0  0
  -30.8864  -15.5508   20.5915 C   0  0  0  0  0  0  0  0  0  0  0  0
  -24.2276  -17.6857   22.8241 C   0  0  0  0  0  0  0  0  0  0  0  0
  -29.7676  -16.4047   20.6316 C   0  0  0  0  0  0  0  0  0  0  0  0
  -23.1905  -17.3251   21.9520 C   0  0  0  0  0  0  0  0  0  0  0  0
  -19.4791  -26.4661   22.2133 C   0  0  0  0  0  0  0  0  0  0  0  0
  -19.5440  -27.6140   21.3854 C   0  0  0  0  0  0  0  0  0  0  0  0
  -29.6961  -25.9731   19.5112 C   0  0  0  0  0  0  0  0  0  0  0  0
  -22.3267  -19.5949   22.0606 C   0  0  0  0  0  0  0  0  0  0  0  0
  -30.7586  -23.9111   19.1350 C   0  0  0  0  0  0  0  0  0  0  0  0
  -30.6075  -21.2555   18.2939 C   0  0  0  0  0  0  0  0  0  0  0  0
  -30.3628  -23.6141   17.8309 C   0  0  0  0  0  0  0  0  0  0  0  0
  -26.1556  -28.2851   19.3792 C   0  0  0  0  0  0  0  0  0  0  0  0
  -24.2654  -29.2309   18.7727 C   0  0  0  0  0  0  0  0  0  0  0  0
  -25.2172  -27.6747   17.0636 C   0  0  0  0  0  0  0  0  0  0  0  0
  -26.1371  -15.8624   21.0540 C   0  0  0  0  0  0  0  0  0  0  0  0
  -23.9315  -13.5799   21.7230 C   0  0  0  0  0  0  0  0  0  0  0  0
  -20.7243  -12.8214   22.6094 C   0  0  0  0  0  0  0  0  0  0  0  0
  -22.4982  -30.9132   24.2406 C   0  0  0  0  0  0  0  0  0  0  0  0
  -30.8292  -14.1991   19.9249 C   0  0  0  0  0  0  0  0  0  0  0  0
  -25.2386  -16.6646   23.2688 C   0  0  0  0  0  0  0  0  0  0  0  0
  -23.0647  -15.9278   21.4043 C   0  0  0  0  0  0  0  0  0  0  0  0
  -29.4079  -13.6840   19.7131 C   0  0  0  0  0  0  0  0  0  0  0  0
  -23.7097  -33.0209   21.6393 C   0  0  0  0  0  0  0  0  0  0  0  0
  -28.5244  -14.7808   19.1271 C   0  0  0  0  0  0  0  0  0  0  0  0
  -24.3896  -32.0521   20.6703 C   0  0  0  0  0  0  0  0  0  0  0  0
  -23.9073  -32.5967   23.0929 C   0  0  0  0  0  0  0  0  0  0  0  0
  -24.1852  -30.2410   22.4244 C   0  0  0  0  0  0  0  0  0  0  0  0
  -28.4243  -15.9771   20.0812 C   0  0  1  0  0  0  0  0  0  0  0  0
  -25.3757  -15.4969   22.2967 C   0  0  1  0  0  0  0  0  0  0  0  0
  -23.9664  -30.5963   20.9438 C   0  0  2  0  0  0  0  0  0  0  0  0
  -19.2095  -10.8679   23.0412 C   0  0  0  0  0  0  0  0  0  0  0  0
  -19.6017  -29.1027   19.3542 C   0  0  0  0  0  0  0  0  0  0  0  0
  -18.1793  -27.0259   19.3511 C   0  0  0  0  0  0  0  0  0  0  0  0
  -20.6538  -26.8568   19.1784 C   0  0  0  0  0  0  0  0  0  0  0  0
  -23.7095  -13.0912   18.7194 C   0  0  0  0  0  0  0  0  0  0  0  0
  -21.5695  -11.8642   19.1477 C   0  0  0  0  0  0  0  0  0  0  0  0
  -23.7064  -11.0171   20.1168 C   0  0  0  0  0  0  0  0  0  0  0  0
  -20.2579  -13.6539   25.4109 C   0  0  0  0  0  0  0  0  0  0  0  0
  -19.3594  -25.0329   21.7598 C   0  0  0  0  0  0  0  0  0  0  0  0
  -20.5070  -24.1351   22.2353 C   0  0  0  0  0  0  0  0  0  0  0  0
  -20.4088  -22.7051   21.7021 C   0  0  0  0  0  0  0  0  0  0  0  0
  -19.7491  -29.1029   24.6785 C   0  0  0  0  0  0  0  0  0  0  0  0
  -21.1481  -29.1141   25.2890 C   0  0  0  0  0  0  0  0  0  0  0  0
  -21.5420  -21.8338   22.2268 C   0  0  0  0  0  0  0  0  0  1  0  0
  -22.6529  -13.1061   21.0751 C   0  0  1  0  0  0  0  0  0  0  0  0
  -20.1658  -11.8767   23.6582 C   0  0  2  0  0  0  0  0  0  0  0  0
  -19.5059  -27.6420   19.9100 C   0  0  0  0  0  0  0  0  0  0  0  0
  -22.9128  -12.2966   19.7734 C   0  0  0  0  0  0  0  0  0  0  0  0
  -25.8237  -29.0627   20.4132 N   0  0  0  0  0  0  0  0  0  0  0  0
  -19.6511  -28.2633   23.5065 N   0  0  0  0  0  0  0  0  0  0  0  0
  -24.6700  -29.6248   20.0142 N   0  0  0  0  0  0  0  0  0  0  0  0
  -24.0811  -14.9668   21.8638 N   0  0  0  0  0  0  0  0  0  0  0  0
  -23.4854  -31.2071   23.2855 N   0  0  0  0  0  0  0  0  0  0  0  0
  -23.1269  -29.6991   18.2186 N   0  0  0  0  0  0  0  0  0  0  0  0
  -26.2753  -26.8045   16.7677 N   0  0  0  0  0  0  0  0  0  0  0  0
  -27.5038  -15.6878   21.1598 N   0  0  0  0  0  0  0  0  0  0  0  0
  -21.9239  -12.3691   22.1016 N   0  0  0  0  0  0  0  0  0  0  0  0
  -22.1522  -29.5724   24.3550 N   0  0  0  0  0  0  0  0  0  0  0  0
  -19.4309  -12.6413   24.7053 N   0  3  0  0  0  0  0  0  0  0  0  0
  -24.3111  -27.8506   16.2142 O   0  0  0  0  0  0  0  0  0  0  0  0
  -25.5295  -16.2712   20.0714 O   0  0  0  0  0  0  0  0  0  0  0  0
  -24.7636  -12.7496   22.0971 O   0  0  0  0  0  0  0  0  0  0  0  0
  -20.1518  -13.8551   22.2715 O   0  0  0  0  0  0  0  0  0  0  0  0
  -21.9609  -31.7821   24.9358 O   0  0  0  0  0  0  0  0  0  0  0  0
  -30.8349  -25.2289   19.5539 O   0  0  0  0  0  0  0  0  0  0  0  0
  -21.4038  -20.5214   21.6838 O   0  0  0  0  0  0  0  0  0  1  0  0
  -30.5365  -19.9805   17.8897 F   0  0  0  0  0  0  0  0  0  0  0  0
  -30.0550  -24.6001   16.9772 F   0  0  0  0  0  0  0  0  0  0  0  0
  1  2  1  0  0  0  0
  1  5  2  0  0  0  0
  2  6  2  0  0  0  0
  3  8  2  0  0  0  0
  3 17  1  0  0  0  0
  4  9  1  0  0  0  0
  4 17  2  0  0  0  0
  5 19  1  0  0  0  0
  6 21  1  0  0  0  0
  7 10  2  0  0  0  0
  7 20  1  0  0  0  0
  8 25  1  0  0  0  0
  9 25  2  0  0  0  0
 10 26  1  0  0  0  0
 11 12  2  0  0  0  0
 11 27  1  0  0  0  0
 12 28  1  0  0  0  0
 13 22  1  0  0  0  0
 13 26  2  0  0  0  0
 14 28  2  0  0  0  0
 14 29  1  0  0  0  0
 15 23  2  0  0  0  0
 15 68  1  0  0  0  0
 16 24  2  0  0  0  0
 16 68  1  0  0  0  0
 17 30  1  0  0  0  0
 18 30  1  0  0  0  0
 18 31  2  0  0  0  0
 18 32  1  0  0  0  0
 19 21  2  0  0  0  0
 19 37  1  0  0  0  0
 20 22  2  0  0  0  0
 20 38  1  0  0  0  0
 21 46  1  0  0  0  0
 22 39  1  0  0  0  0
 23 24  1  0  0  0  0
 23 57  1  0  0  0  0
 24 65  1  0  0  0  0
 25 83  1  0  0  0  0
 26 84  1  0  0  0  0
 27 29  2  0  0  0  0
 27 83  1  0  0  0  0
 28 85  1  0  0  0  0
 29 86  1  0  0  0  0
 30 67  2  0  0  0  0
 31 69  1  0  0  0  0
 31 72  1  0  0  0  0
 32 73  1  0  0  0  0
 32 78  2  0  0  0  0
 33 47  1  0  0  0  0
 33 74  1  0  0  0  0
 33 79  2  0  0  0  0
 34 63  1  0  0  0  0
 34 70  1  0  0  0  0
 34 80  2  0  0  0  0
 35 64  1  0  0  0  0
 35 75  1  0  0  0  0
 35 81  2  0  0  0  0
 36 71  1  0  0  0  0
 36 76  1  0  0  0  0
 36 82  2  0  0  0  0
 37 40  1  0  0  0  0
 38 47  1  0  0  0  0
 39 70  1  0  0  0  0
 40 42  1  0  0  0  0
 41 43  1  0  0  0  0
 41 44  1  0  0  0  0
 42 46  1  0  0  0  0
 43 48  1  0  0  0  0
 44 71  1  0  0  0  0
 45 48  1  0  0  0  0
 45 71  1  0  0  0  0
 46 74  1  0  0  0  0
 47 70  1  0  0  0  0
 48 69  1  0  0  0  0
 49 64  1  0  0  0  0
 50 65  1  0  0  0  0
 51 65  1  0  0  0  0
 52 65  1  0  0  0  0
 53 66  1  0  0  0  0
 54 66  1  0  0  0  0
 55 66  1  0  0  0  0
 56 77  1  0  0  0  0
 57 58  1  0  0  0  0
 58 59  1  0  0  0  0
 59 62  1  0  0  0  0
 60 61  1  0  0  0  0
 60 68  1  0  0  0  0
 61 76  1  0  0  0  0
 62 84  1  0  0  0  0
 63 66  1  0  0  0  0
 63 75  1  0  0  0  0
 64 77  1  0  0  0  0
 67 69  1  0  0  0  0
M  CHG  1  77   1
M  ISO  4  36 100  62 101  76 100  84 101
M  END
> <Batch ID>
0083

> <Smiles>
CNC(C)C(=O)NC(C(=O)N1Cc2cc([101O:1][101CH2:1]CCCc3cn(CC[100NH:0][100C:0](=O)N4CCCC(n5nc(-c6ccc(Oc7ccc(F)cc7F)cc6)c(C(N)=O)c5N)C4)cc3C(C)(C)C)ccc2CC1C(=O)NC1CCCc2ccccc21)C(C)(C)C

> <Shape>
0.250

> <Color>
0.063

> <Negative vol penalty>
0.000

$$$$

  -OEChem-04052318513D

 86 94  0     1  0  0  0  0  0999 V2000
  -30.6306  -24.8606   23.9285 C   0  0  0  0  0  0  0  0  0  0  0  0
  -31.5240  -23.7945   23.9574 C   0  0  0  0  0  0  0  0  0  0  0  0
  -23.0750   -9.8666   19.9423 C   0  0  0  0  0  0  0  0  0  0  0  0
  -23.8384   -9.8746   22.2345 C   0  0  0  0  0  0  0  0  0  0  0  0
  -29.6620  -24.9299   22.9280 C   0  0  0  0  0  0  0  0  0  0  0  0
  -31.4484  -22.7965   22.9865 C   0  0  0  0  0  0  0  0  0  0  0  0
  -36.1187  -19.6847   20.5346 C   0  0  0  0  0  0  0  0  0  0  0  0
  -22.3329   -8.7125   20.1935 C   0  0  0  0  0  0  0  0  0  0  0  0
  -23.0963   -8.7205   22.4857 C   0  0  0  0  0  0  0  0  0  0  0  0
  -36.6493  -18.4237   20.8029 C   0  0  0  0  0  0  0  0  0  0  0  0
  -21.1169   -5.9810   23.8255 C   0  0  0  0  0  0  0  0  0  0  0  0
  -20.3625   -5.9365   24.9979 C   0  0  0  0  0  0  0  0  0  0  0  0
  -35.3269  -17.4930   19.0128 C   0  0  0  0  0  0  0  0  0  0  0  0
  -19.1144   -7.8722   24.2682 C   0  0  0  0  0  0  0  0  0  0  0  0
  -34.0605  -15.9361   22.7161 C   0  0  0  0  0  0  0  0  0  0  0  0
  -23.8278  -10.4476   20.9629 C   0  0  0  0  0  0  0  0  0  0  0  0
  -24.1662  -12.9732   20.8422 C   0  0  0  0  0  0  0  0  0  0  0  0
  -29.5807  -23.9373   21.9387 C   0  0  0  0  0  0  0  0  0  0  0  0
  -35.1784  -19.8577   19.5088 C   0  0  0  0  0  0  0  0  0  0  0  0
  -30.4770  -22.8519   21.9726 C   0  0  0  0  0  0  0  0  0  0  0  0
  -34.7878  -18.7577   18.7318 C   0  0  0  0  0  0  0  0  0  0  0  0
  -22.3436   -8.1395   21.4652 C   0  0  0  0  0  0  0  0  0  0  0  0
  -36.2513  -17.3271   20.0439 C   0  0  0  0  0  0  0  0  0  0  0  0
  -20.8701   -6.9711   22.8745 C   0  0  0  0  0  0  0  0  0  0  0  0
  -19.3612   -6.8821   25.2192 C   0  0  0  0  0  0  0  0  0  0  0  0
  -19.8688   -7.9167   23.0958 C   0  0  0  0  0  0  0  0  0  0  0  0
  -24.5949  -11.6394   20.7039 C   0  0  0  0  0  0  0  0  0  0  0  0
  -32.7202  -15.7197   23.0886 C   0  0  0  0  0  0  0  0  0  0  0  0
  -34.6333  -14.6884   22.7550 C   0  0  0  0  0  0  0  0  0  0  0  0
  -25.2568  -13.7240   20.4772 C   0  0  0  0  0  0  0  0  0  0  0  0
  -22.8957  -13.4874   21.2630 C   0  0  0  0  0  0  0  0  0  0  0  0
  -32.1528  -20.8233   19.3786 C   0  0  0  0  0  0  0  0  0  0  0  0
  -32.6326  -20.6169   16.1771 C   0  0  0  0  0  0  0  0  0  0  0  0
  -34.3921  -19.2472   13.5936 C   0  0  0  0  0  0  0  0  0  0  0  0
  -30.7396  -14.7500   20.6570 C   0  0  0  0  0  0  0  0  0  0  0  0
  -28.4865  -24.0305   20.9050 C   0  0  0  0  0  0  0  0  0  0  0  0
  -34.6356  -21.2293   19.2145 C   0  0  0  0  0  0  0  0  0  0  0  0
  -33.7966  -18.8940   17.6060 C   0  0  0  0  0  0  0  0  0  0  0  0
  -28.7132  -23.1278   19.6950 C   0  0  0  0  0  0  0  0  0  0  0  0
  -29.6013  -12.3640   18.2721 C   0  0  0  0  0  0  0  0  0  0  0  0
  -29.1230  -21.7283   20.1424 C   0  0  0  0  0  0  0  0  0  0  0  0
  -28.1649  -12.0684   18.7073 C   0  0  0  0  0  0  0  0  0  0  0  0
  -30.5200  -12.5860   19.4716 C   0  0  0  0  0  0  0  0  0  0  0  0
  -28.6195  -13.3147   20.8611 C   0  0  0  0  0  0  0  0  0  0  0  0
  -30.4427  -21.7628   20.9225 C   0  0  1  0  0  0  0  0  0  0  0  0
  -33.2982  -21.1979   18.4812 C   0  0  1  0  0  0  0  0  0  0  0  0
  -27.6437  -13.1389   19.6850 C   0  0  2  0  0  0  0  0  0  0  0  0
  -34.5297  -19.2419   11.0879 C   0  0  0  0  0  0  0  0  0  0  0  0
  -32.8610  -11.6341   22.3362 C   0  0  0  0  0  0  0  0  0  0  0  0
  -33.4780  -11.9918   24.7647 C   0  0  0  0  0  0  0  0  0  0  0  0
  -32.1080  -18.1762   23.6248 C   0  0  0  0  0  0  0  0  0  0  0  0
  -30.6237  -16.3179   24.3313 C   0  0  0  0  0  0  0  0  0  0  0  0
  -30.1583  -18.8362   16.0474 C   0  0  0  0  0  0  0  0  0  0  0  0
  -30.8864  -18.1097   13.7648 C   0  0  0  0  0  0  0  0  0  0  0  0
  -30.3404  -20.5056   14.1942 C   0  0  0  0  0  0  0  0  0  0  0  0
  -37.1600  -20.2945   13.6276 C   0  0  0  0  0  0  0  0  0  0  0  0
  -36.0420  -14.2358   22.4643 C   0  0  0  0  0  0  0  0  0  0  0  0
  -36.2763  -13.8525   21.0015 C   0  0  0  0  0  0  0  0  0  0  0  0
  -30.8046  -16.9007   21.8937 C   0  0  0  0  0  0  0  0  0  0  0  0
  -35.9356  -14.9700   20.0225 C   0  0  0  0  0  0  0  0  0  1  0  0
  -32.4732  -19.5316   15.1399 C   0  0  1  0  0  0  0  0  0  0  0  0
  -35.0415  -19.8739   12.3729 C   0  0  2  0  0  0  0  0  0  0  0  0
  -33.7473  -12.4050   23.3165 C   0  0  0  0  0  0  0  0  0  0  0  0
  -31.6506  -16.7240   23.2146 C   0  0  0  0  0  0  0  0  0  0  0  0
  -30.9818  -19.2425   14.8090 C   0  0  0  0  0  0  0  0  0  0  0  0
  -25.8593  -11.5452   20.2836 N   0  0  0  0  0  0  0  0  0  0  0  0
  -32.4572  -14.4356   23.3450 N   0  0  0  0  0  0  0  0  0  0  0  0
  -33.6400  -13.8338   23.1333 N   0  0  0  0  0  0  0  0  0  0  0  0
  -26.2343  -12.8292   20.1547 N   0  0  0  0  0  0  0  0  0  0  0  0
  -33.2896  -20.2544   17.3614 N   0  0  0  0  0  0  0  0  0  0  0  0
  -29.9695  -13.6139   20.3584 N   0  0  0  0  0  0  0  0  0  0  0  0
  -25.4654  -15.0558   20.4038 N   0  0  0  0  0  0  0  0  0  0  0  0
  -21.8855  -12.5770   21.6019 N   0  0  0  0  0  0  0  0  0  0  0  0
  -31.5625  -21.8980   20.0157 N   0  0  0  0  0  0  0  0  0  0  0  0
  -33.2711  -19.9449   13.9906 N   0  0  0  0  0  0  0  0  0  0  0  0
  -30.1405  -15.6781   21.4999 N   0  0  0  0  0  0  0  0  0  0  0  0
  -36.5206  -19.6993   12.4260 N   0  3  0  0  0  0  0  0  0  0  0  0
  -22.6580  -14.7177   21.3207 O   0  0  0  0  0  0  0  0  0  0  0  0
  -31.8276  -19.6465   19.4839 O   0  0  0  0  0  0  0  0  0  0  0  0
  -32.1966  -21.7467   15.9420 O   0  0  0  0  0  0  0  0  0  0  0  0
  -34.8330  -18.2373   14.1380 O   0  0  0  0  0  0  0  0  0  0  0  0
  -31.8746  -14.9269   20.2016 O   0  0  0  0  0  0  0  0  0  0  0  0
  -21.6194   -7.0135   21.7107 O   0  0  0  0  0  0  0  0  0  0  0  0
  -36.7672  -16.0950   20.3041 O   0  0  0  0  0  0  0  0  0  1  0  0
  -18.6358   -6.8383   26.3444 F   0  0  0  0  0  0  0  0  0  0  0  0
  -19.6263   -8.8695   22.1853 F   0  0  0  0  0  0  0  0  0  0  0  0
  1  2  1  0  0  0  0
  1  5  2  0  0  0  0
  2  6  2  0  0  0  0
  3  8  2  0  0  0  0
  3 16  1  0  0  0  0
  4  9  1  0  0  0  0
  4 16  2  0  0  0  0
  5 18  1  0  0  0  0
  6 20  1  0  0  0  0
  7 10  2  0  0  0  0
  7 19  1  0  0  0  0
  8 22  1  0  0  0  0
  9 22  2  0  0  0  0
 10 23  1  0  0  0  0
 11 12  2  0  0  0  0
 11 24  1  0  0  0  0
 12 25  1  0  0  0  0
 13 21  1  0  0  0  0
 13 23  2  0  0  0  0
 14 25  2  0  0  0  0
 14 26  1  0  0  0  0
 15 28  1  0  0  0  0
 15 29  2  0  0  0  0
 16 27  1  0  0  0  0
 17 27  1  0  0  0  0
 17 30  2  0  0  0  0
 17 31  1  0  0  0  0
 18 20  2  0  0  0  0
 18 36  1  0  0  0  0
 19 21  2  0  0  0  0
 19 37  1  0  0  0  0
 20 45  1  0  0  0  0
 21 38  1  0  0  0  0
 22 83  1  0  0  0  0
 23 84  1  0  0  0  0
 24 26  2  0  0  0  0
 24 83  1  0  0  0  0
 25 85  1  0  0  0  0
 26 86  1  0  0  0  0
 27 66  2  0  0  0  0
 28 64  1  0  0  0  0
 28 67  2  0  0  0  0
 29 57  1  0  0  0  0
 29 68  1  0  0  0  0
 30 69  1  0  0  0  0
 30 72  1  0  0  0  0
 31 73  1  0  0  0  0
 31 78  2  0  0  0  0
 32 46  1  0  0  0  0
 32 74  1  0  0  0  0
 32 79  2  0  0  0  0
 33 61  1  0  0  0  0
 33 70  1  0  0  0  0
 33 80  2  0  0  0  0
 34 62  1  0  0  0  0
 34 75  1  0  0  0  0
 34 81  2  0  0  0  0
 35 71  1  0  0  0  0
 35 76  1  0  0  0  0
 35 82  2  0  0  0  0
 36 39  1  0  0  0  0
 37 46  1  0  0  0  0
 38 70  1  0  0  0  0
 39 41  1  0  0  0  0
 40 42  1  0  0  0  0
 40 43  1  0  0  0  0
 41 45  1  0  0  0  0
 42 47  1  0  0  0  0
 43 71  1  0  0  0  0
 44 47  1  0  0  0  0
 44 71  1  0  0  0  0
 45 74  1  0  0  0  0
 46 70  1  0  0  0  0
 47 69  1  0  0  0  0
 48 62  1  0  0  0  0
 49 63  1  0  0  0  0
 50 63  1  0  0  0  0
 51 64  1  0  0  0  0
 52 64  1  0  0  0  0
 53 65  1  0  0  0  0
 54 65  1  0  0  0  0
 55 65  1  0  0  0  0
 56 77  1  0  0  0  0
 57 58  1  0  0  0  0
 58 60  1  0  0  0  0
 59 64  1  0  0  0  0
 59 76  1  0  0  0  0
 60 84  1  0  0  0  0
 61 65  1  0  0  0  0
 61 75  1  0  0  0  0
 62 77  1  0  0  0  0
 63 68  1  0  0  0  0
 66 69  1  0  0  0  0
 67 68  1  0  0  0  0
M  CHG  1  77   1
M  ISO  4  35 100  60 101  76 100  84 101
M  END
> <Batch ID>
0083

> <Smiles>
CNC(C)C(=O)NC(C(=O)N1Cc2cc([101O:1][101CH2:1]CCc3cc(C(C)(C)C[100NH:0][100C:0](=O)N4CCCC(n5nc(-c6ccc(Oc7ccc(F)cc7F)cc6)c(C(N)=O)c5N)C4)nn3C(C)C)ccc2CC1C(=O)NC1CCCc2ccccc21)C(C)(C)C

> <Shape>
0.187

> <Color>
0.188

> <Negative vol penalty>
0.000

$$$$

  -OEChem-04052318513D

 85 93  0     1  0  0  0  0  0999 V2000
  -17.5800  -30.6519   25.3236 C   0  0  0  0  0  0  0  0  0  0  0  0
  -17.7112  -30.5934   23.9407 C   0  0  0  0  0  0  0  0  0  0  0  0
  -26.7567  -12.6093   20.7990 C   0  0  0  0  0  0  0  0  0  0  0  0
  -25.3678  -14.4345   20.0394 C   0  0  0  0  0  0  0  0  0  0  0  0
  -18.7104  -30.5521   26.1319 C   0  0  0  0  0  0  0  0  0  0  0  0
  -18.9712  -30.4232   23.3661 C   0  0  0  0  0  0  0  0  0  0  0  0
  -25.5239  -28.4471   18.6164 C   0  0  0  0  0  0  0  0  0  0  0  0
  -30.8082  -26.2387   22.4189 C   0  0  0  0  0  0  0  0  0  0  0  0
  -25.6297  -11.9628   21.3063 C   0  0  0  0  0  0  0  0  0  0  0  0
  -24.2407  -13.7879   20.5467 C   0  0  0  0  0  0  0  0  0  0  0  0
  -26.8397  -28.0633   18.8713 C   0  0  0  0  0  0  0  0  0  0  0  0
  -23.0701  -10.1083   20.1053 C   0  0  0  0  0  0  0  0  0  0  0  0
  -22.9346   -8.7441   19.8481 C   0  0  0  0  0  0  0  0  0  0  0  0
  -32.1706  -25.9871   22.5366 C   0  0  0  0  0  0  0  0  0  0  0  0
  -26.0786  -26.6944   20.7060 C   0  0  0  0  0  0  0  0  0  0  0  0
  -22.9347   -8.2964   22.2223 C   0  0  0  0  0  0  0  0  0  0  0  0
  -26.6258  -13.8452   20.1656 C   0  0  0  0  0  0  0  0  0  0  0  0
  -28.3321  -14.3887   18.3488 C   0  0  0  0  0  0  0  0  0  0  0  0
  -19.9860  -30.3931   25.5657 C   0  0  0  0  0  0  0  0  0  0  0  0
  -24.4749  -27.9653   19.4126 C   0  0  0  0  0  0  0  0  0  0  0  0
  -20.1215  -30.2964   24.1659 C   0  0  0  0  0  0  0  0  0  0  0  0
  -24.7500  -27.0717   20.4576 C   0  0  0  0  0  0  0  0  0  0  0  0
  -30.0837  -25.6461   21.3906 C   0  0  0  0  0  0  0  0  0  0  0  0
  -24.3717  -12.5521   21.1801 C   0  0  0  0  0  0  0  0  0  0  0  0
  -27.1176  -27.1891   19.9181 C   0  0  0  0  0  0  0  0  0  0  0  0
  -23.1379  -10.5666   21.4211 C   0  0  0  0  0  0  0  0  0  0  0  0
  -22.8669   -7.8382   20.9065 C   0  0  0  0  0  0  0  0  0  0  0  0
  -23.0702   -9.6606   22.4795 C   0  0  0  0  0  0  0  0  0  0  0  0
  -27.7897  -14.5139   19.6418 C   0  0  0  0  0  0  0  0  0  0  0  0
  -32.7566  -25.1422   21.6079 C   0  0  0  0  0  0  0  0  0  0  0  0
  -30.7633  -24.8167   20.5131 C   0  0  0  0  0  0  0  0  0  0  0  0
  -29.4239  -15.2221   18.3523 C   0  0  0  0  0  0  0  0  0  0  0  0
  -27.8887  -13.5906   17.2433 C   0  0  0  0  0  0  0  0  0  0  0  0
  -22.3202  -29.2989   21.3316 C   0  0  0  0  0  0  0  0  0  0  0  0
  -21.1495  -26.2770   21.4740 C   0  0  0  0  0  0  0  0  0  0  0  0
  -22.4969  -22.9411   21.7450 C   0  0  0  0  0  0  0  0  0  0  0  0
  -30.8357  -20.0791   21.5566 C   0  0  0  0  0  0  0  0  0  0  0  0
  -21.1746  -30.2826   26.4878 C   0  0  0  0  0  0  0  0  0  0  0  0
  -23.0581  -28.3680   19.1079 C   0  0  0  0  0  0  0  0  0  0  0  0
  -23.6575  -26.5100   21.3289 C   0  0  0  0  0  0  0  0  0  0  0  0
  -22.5006  -30.5499   25.7830 C   0  0  0  0  0  0  0  0  0  0  0  0
  -32.7164  -17.0675   21.2925 C   0  0  0  0  0  0  0  0  0  0  0  0
  -22.5844  -29.7293   24.5047 C   0  0  0  0  0  0  0  0  0  0  0  0
  -31.7160  -16.0602   20.7228 C   0  0  0  0  0  0  0  0  0  0  0  0
  -32.0488  -18.0383   22.2639 C   0  0  0  0  0  0  0  0  0  0  0  0
  -29.8690  -17.7337   21.1550 C   0  0  0  0  0  0  0  0  0  0  0  0
  -21.4854  -30.1424   23.5175 C   0  0  1  0  0  0  0  0  0  0  0  0
  -22.1241  -28.2195   20.3049 C   0  0  1  0  0  0  0  0  0  0  0  0
  -30.4845  -16.7687   20.1273 C   0  0  2  0  0  0  0  0  0  0  0  0
  -34.5059  -23.6292   22.5760 C   0  0  0  0  0  0  0  0  0  0  0  0
  -30.5541  -24.6778   18.0326 C   0  0  0  0  0  0  0  0  0  0  0  0
  -21.5651  -20.7385   20.9849 C   0  0  0  0  0  0  0  0  0  0  0  0
  -29.3771  -21.9081   18.2674 C   0  0  0  0  0  0  0  0  0  0  0  0
  -20.0488  -26.0916   24.3137 C   0  0  0  0  0  0  0  0  0  0  0  0
  -20.5779  -23.6447   24.2845 C   0  0  0  0  0  0  0  0  0  0  0  0
  -18.9321  -24.5825   22.6614 C   0  0  0  0  0  0  0  0  0  0  0  0
  -24.9260  -22.3251   20.1706 C   0  0  0  0  0  0  0  0  0  0  0  0
  -28.6135  -25.9149   21.2576 C   0  0  0  0  0  0  0  0  0  1  0  0
  -34.2166  -24.8488   21.7055 C   0  0  0  0  0  0  0  0  0  0  0  0
  -29.5088  -22.0266   20.7784 C   0  0  0  0  0  0  0  0  0  0  0  0
  -30.0359  -24.1506   19.3914 C   0  0  1  0  0  0  0  0  0  0  0  0
  -21.3928  -25.0768   22.3567 C   0  0  1  0  0  0  0  0  0  0  0  0
  -22.5179  -21.8786   20.6609 C   0  0  2  0  0  0  0  0  0  0  0  0
  -30.0812  -22.5796   19.4563 C   0  0  2  0  0  0  0  0  0  0  0  0
  -20.2583  -24.8682   23.3992 C   0  0  0  0  0  0  0  0  0  0  0  0
  -28.4801  -15.3600   20.4109 N   0  0  0  0  0  0  0  0  0  0  0  0
  -32.0857  -24.5484   20.5956 N   0  0  0  0  0  0  0  0  0  0  0  0
  -29.4676  -15.7740   19.5988 N   0  0  0  0  0  0  0  0  0  0  0  0
  -22.2892  -26.9386   20.9951 N   0  0  0  0  0  0  0  0  0  0  0  0
  -30.8893  -18.6778   21.6372 N   0  0  0  0  0  0  0  0  0  0  0  0
  -30.3412  -15.5293   17.4108 N   0  0  0  0  0  0  0  0  0  0  0  0
  -26.7491  -12.7920   17.4105 N   0  0  0  0  0  0  0  0  0  0  0  0
  -21.4662  -29.2075   22.4141 N   0  0  0  0  0  0  0  0  0  0  0  0
  -21.5953  -23.9445   21.4593 N   0  0  0  0  0  0  0  0  0  0  0  0
  -29.7052  -20.6034   20.9420 N   0  0  0  0  0  0  0  0  0  0  0  0
  -23.8902  -21.3167   20.5129 N   0  3  0  0  0  0  0  0  0  0  0  0
  -28.4948  -13.5733   16.1452 O   0  0  0  0  0  0  0  0  0  0  0  0
  -23.1834  -30.1506   21.1554 O   0  0  0  0  0  0  0  0  0  0  0  0
  -19.9911  -26.6109   21.2129 O   0  0  0  0  0  0  0  0  0  0  0  0
  -23.2064  -22.8845   22.7469 O   0  0  0  0  0  0  0  0  0  0  0  0
  -31.7316  -20.8087   21.9948 O   0  0  0  0  0  0  0  0  0  0  0  0
  -23.2717  -11.9214   21.6748 O   0  0  0  0  0  0  0  0  0  0  0  0
  -28.4011  -26.8133   20.1695 O   0  0  0  0  0  0  0  0  0  1  0  0
  -22.7352   -6.5283   20.6593 F   0  0  0  0  0  0  0  0  0  0  0  0
  -23.1337  -10.0950   23.7456 F   0  0  0  0  0  0  0  0  0  0  0  0
  1  2  1  0  0  0  0
  1  5  2  0  0  0  0
  2  6  2  0  0  0  0
  3  9  2  0  0  0  0
  3 17  1  0  0  0  0
  4 10  1  0  0  0  0
  4 17  2  0  0  0  0
  5 19  1  0  0  0  0
  6 21  1  0  0  0  0
  7 11  2  0  0  0  0
  7 20  1  0  0  0  0
  8 14  2  0  0  0  0
  8 23  1  0  0  0  0
  9 24  1  0  0  0  0
 10 24  2  0  0  0  0
 11 25  1  0  0  0  0
 12 13  2  0  0  0  0
 12 26  1  0  0  0  0
 13 27  1  0  0  0  0
 14 30  1  0  0  0  0
 15 22  1  0  0  0  0
 15 25  2  0  0  0  0
 16 27  2  0  0  0  0
 16 28  1  0  0  0  0
 17 29  1  0  0  0  0
 18 29  1  0  0  0  0
 18 32  2  0  0  0  0
 18 33  1  0  0  0  0
 19 21  2  0  0  0  0
 19 38  1  0  0  0  0
 20 22  2  0  0  0  0
 20 39  1  0  0  0  0
 21 47  1  0  0  0  0
 22 40  1  0  0  0  0
 23 31  2  0  0  0  0
 23 58  1  0  0  0  0
 24 82  1  0  0  0  0
 25 83  1  0  0  0  0
 26 28  2  0  0  0  0
 26 82  1  0  0  0  0
 27 84  1  0  0  0  0
 28 85  1  0  0  0  0
 29 66  2  0  0  0  0
 30 59  1  0  0  0  0
 30 67  2  0  0  0  0
 31 61  1  0  0  0  0
 31 67  1  0  0  0  0
 32 68  1  0  0  0  0
 32 71  1  0  0  0  0
 33 72  1  0  0  0  0
 33 77  2  0  0  0  0
 34 48  1  0  0  0  0
 34 73  1  0  0  0  0
 34 78  2  0  0  0  0
 35 62  1  0  0  0  0
 35 69  1  0  0  0  0
 35 79  2  0  0  0  0
 36 63  1  0  0  0  0
 36 74  1  0  0  0  0
 36 80  2  0  0  0  0
 37 70  1  0  0  0  0
 37 75  1  0  0  0  0
 37 81  2  0  0  0  0
 38 41  1  0  0  0  0
 39 48  1  0  0  0  0
 40 69  1  0  0  0  0
 41 43  1  0  0  0  0
 42 44  1  0  0  0  0
 42 45  1  0  0  0  0
 43 47  1  0  0  0  0
 44 49  1  0  0  0  0
 45 70  1  0  0  0  0
 46 49  1  0  0  0  0
 46 70  1  0  0  0  0
 47 73  1  0  0  0  0
 48 69  1  0  0  0  0
 49 68  1  0  0  0  0
 50 59  1  0  0  0  0
 51 61  1  0  0  0  0
 52 63  1  0  0  0  0
 53 64  1  0  0  0  0
 54 65  1  0  0  0  0
 55 65  1  0  0  0  0
 56 65  1  0  0  0  0
 57 76  1  0  0  0  0
 58 83  1  0  0  0  0
 60 64  1  0  0  0  0
 60 75  1  0  0  0  0
 61 64  1  0  0  0  0
 62 65  1  0  0  0  0
 62 74  1  0  0  0  0
 63 76  1  0  0  0  0
 66 68  1  0  0  0  0
M  CHG  1  76   1
M  ISO  4  37 100  58 101  75 100  83 101
M  END
> <Batch ID>
0083

> <Smiles>
CCc1ccc([101CH2:1][101O:1]c2ccc3c(c2)CN(C(=O)C(NC(=O)C(C)NC)C(C)(C)C)C(C(=O)NC2CCCc4ccccc42)C3)c(C(C)C(C)C[100NH:0][100C:0](=O)N2CCCC(n3nc(-c4ccc(Oc5ccc(F)cc5F)cc4)c(C(N)=O)c3N)C2)n1

> <Shape>
0.267

> <Color>
0.077

> <Negative vol penalty>
0.000

$$$$

  -OEChem-04052318513D

 85 93  0     1  0  0  0  0  0999 V2000
  -27.6412  -25.4937   15.7945 C   0  0  0  0  0  0  0  0  0  0  0  0
  -26.5153  -25.5944   16.6054 C   0  0  0  0  0  0  0  0  0  0  0  0
  -27.3475  -14.0664   22.3003 C   0  0  0  0  0  0  0  0  0  0  0  0
  -25.9224  -14.8088   20.4962 C   0  0  0  0  0  0  0  0  0  0  0  0
  -28.8710  -25.9680   16.2491 C   0  0  0  0  0  0  0  0  0  0  0  0
  -26.6188  -26.1685   17.8719 C   0  0  0  0  0  0  0  0  0  0  0  0
  -22.8549  -29.4130   18.8475 C   0  0  0  0  0  0  0  0  0  0  0  0
  -27.1392  -12.7408   21.9194 C   0  0  0  0  0  0  0  0  0  0  0  0
  -25.7141  -13.4833   20.1152 C   0  0  0  0  0  0  0  0  0  0  0  0
  -21.6214  -28.8690   19.2028 C   0  0  0  0  0  0  0  0  0  0  0  0
  -23.8270  -10.8672   21.1279 C   0  0  0  0  0  0  0  0  0  0  0  0
  -22.5217  -10.4760   20.8300 C   0  0  0  0  0  0  0  0  0  0  0  0
  -22.1044  -29.3060   21.5255 C   0  0  0  0  0  0  0  0  0  0  0  0
  -21.8440  -25.1952   21.6780 C   0  0  0  0  0  0  0  0  0  0  0  0
  -23.2097   -9.8859   18.5905 C   0  0  0  0  0  0  0  0  0  0  0  0
  -26.7390  -15.1004   21.5888 C   0  0  0  0  0  0  0  0  0  0  0  0
  -27.9705  -17.3338   21.5340 C   0  0  0  0  0  0  0  0  0  0  0  0
  -28.9876  -26.5570   17.5180 C   0  0  0  0  0  0  0  0  0  0  0  0
  -23.7286  -29.8984   19.8311 C   0  0  0  0  0  0  0  0  0  0  0  0
  -27.8515  -26.6499   18.3445 C   0  0  0  0  0  0  0  0  0  0  0  0
  -23.3474  -29.8580   21.1799 C   0  0  0  0  0  0  0  0  0  0  0  0
  -20.5284  -24.7545   21.5882 C   0  0  0  0  0  0  0  0  0  0  0  0
  -20.2583  -23.4881   21.0815 C   0  0  0  0  0  0  0  0  0  0  0  0
  -26.3225  -12.4493   20.8268 C   0  0  0  0  0  0  0  0  0  0  0  0
  -21.2472  -28.8128   20.5422 C   0  0  0  0  0  0  0  0  0  0  0  0
  -24.8237  -10.7678   20.1571 C   0  0  0  0  0  0  0  0  0  0  0  0
  -22.2131   -9.9853   19.5613 C   0  0  0  0  0  0  0  0  0  0  0  0
  -24.5150  -10.2772   18.8884 C   0  0  0  0  0  0  0  0  0  0  0  0
  -26.9534  -16.4698   21.9821 C   0  0  0  0  0  0  0  0  0  0  0  0
  -22.8456  -24.3382   21.2512 C   0  0  0  0  0  0  0  0  0  0  0  0
  -21.3309  -22.7076   20.6812 C   0  0  0  0  0  0  0  0  0  0  0  0
  -27.7387  -18.5120   22.2008 C   0  0  0  0  0  0  0  0  0  0  0  0
  -29.0300  -17.0929   20.5986 C   0  0  0  0  0  0  0  0  0  0  0  0
  -26.6593  -29.1399   20.8004 C   0  0  0  0  0  0  0  0  0  0  0  0
  -26.3082  -31.7788   22.6539 C   0  0  0  0  0  0  0  0  0  0  0  0
  -24.2019  -33.9601   24.2197 C   0  0  0  0  0  0  0  0  0  0  0  0
  -24.2479  -22.4629   24.0310 C   0  0  0  0  0  0  0  0  0  0  0  0
  -30.3475  -27.0124   17.9847 C   0  0  0  0  0  0  0  0  0  0  0  0
  -25.0443  -30.5066   19.4294 C   0  0  0  0  0  0  0  0  0  0  0  0
  -24.2405  -30.3843   22.2725 C   0  0  0  0  0  0  0  0  0  0  0  0
  -30.2962  -27.9469   19.1907 C   0  0  0  0  0  0  0  0  0  0  0  0
  -24.6330  -19.5584   26.0539 C   0  0  0  0  0  0  0  0  0  0  0  0
  -29.3503  -27.3961   20.2530 C   0  0  0  0  0  0  0  0  0  0  0  0
  -25.3489  -18.5658   25.1361 C   0  0  0  0  0  0  0  0  0  0  0  0
  -23.6316  -20.4172   25.2846 C   0  0  0  0  0  0  0  0  0  0  0  0
  -24.9045  -20.1251   23.1945 C   0  0  0  0  0  0  0  0  0  0  0  0
  -27.9185  -27.2888   19.7147 C   0  0  1  0  0  0  0  0  0  0  0  0
  -26.0735  -30.5017   20.5554 C   0  0  1  0  0  0  0  0  0  0  0  0
  -25.9648  -19.2749   23.9151 C   0  0  2  0  0  0  0  0  0  0  0  0
  -18.8570  -22.9877   20.9756 C   0  0  0  0  0  0  0  0  0  0  0  0
  -21.1040  -21.3378   20.1301 C   0  0  0  0  0  0  0  0  0  0  0  0
  -24.2092  -35.9934   25.6905 C   0  0  0  0  0  0  0  0  0  0  0  0
  -26.4024  -24.8834   22.6989 C   0  0  0  0  0  0  0  0  0  0  0  0
  -27.0383  -30.0386   25.0515 C   0  0  0  0  0  0  0  0  0  0  0  0
  -26.1190  -31.8280   26.5419 C   0  0  0  0  0  0  0  0  0  0  0  0
  -28.0683  -32.3176   25.0643 C   0  0  0  0  0  0  0  0  0  0  0  0
  -22.7774  -35.5761   22.1902 C   0  0  0  0  0  0  0  0  0  0  0  0
  -19.4171  -25.6667   22.0427 C   0  0  0  0  0  0  0  0  0  0  0  0
  -24.2695  -24.7772   21.3341 C   0  0  0  0  0  0  0  0  0  0  0  0
  -18.6530  -26.3268   20.8929 C   0  0  0  0  0  0  0  0  0  0  0  0
  -19.5169  -27.2574   20.0495 C   0  0  0  0  0  0  0  0  0  1  0  0
  -25.7728  -32.0486   24.0393 C   0  0  1  0  0  0  0  0  0  0  0  0
  -24.1714  -35.4773   24.2605 C   0  0  2  0  0  0  0  0  0  0  0  0
  -24.9500  -24.4176   22.6725 C   0  0  1  0  0  0  0  0  0  0  0  0
  -26.7334  -31.5464   25.1541 C   0  0  0  0  0  0  0  0  0  0  0  0
  -26.1363  -17.0497   22.8654 N   0  0  0  0  0  0  0  0  0  0  0  0
  -22.6222  -23.1014   20.7533 N   0  0  0  0  0  0  0  0  0  0  0  0
  -26.6399  -18.2906   22.9778 N   0  0  0  0  0  0  0  0  0  0  0  0
  -25.5194  -30.9637   21.8297 N   0  0  0  0  0  0  0  0  0  0  0  0
  -24.2794  -21.0629   24.1403 N   0  0  0  0  0  0  0  0  0  0  0  0
  -28.3698  -19.7054   22.1925 N   0  0  0  0  0  0  0  0  0  0  0  0
  -29.1225  -15.8265   20.0054 N   0  0  0  0  0  0  0  0  0  0  0  0
  -27.2859  -28.5903   19.6982 N   0  0  0  0  0  0  0  0  0  0  0  0
  -25.4878  -33.4783   24.0955 N   0  0  0  0  0  0  0  0  0  0  0  0
  -24.8913  -22.9942   22.9199 N   0  0  0  0  0  0  0  0  0  0  0  0
  -22.9322  -35.9882   23.6091 N   0  3  0  0  0  0  0  0  0  0  0  0
  -29.8797  -17.9695   20.3101 O   0  0  0  0  0  0  0  0  0  0  0  0
  -26.5520  -28.6264   21.9079 O   0  0  0  0  0  0  0  0  0  0  0  0
  -27.3831  -32.2788   22.3129 O   0  0  0  0  0  0  0  0  0  0  0  0
  -23.1868  -33.2713   24.2945 O   0  0  0  0  0  0  0  0  0  0  0  0
  -23.6925  -23.1862   24.8649 O   0  0  0  0  0  0  0  0  0  0  0  0
  -26.1192  -11.1559   20.4546 O   0  0  0  0  0  0  0  0  0  0  0  0
  -20.0440  -28.2817   20.8917 O   0  0  0  0  0  0  0  0  0  1  0  0
  -20.9599   -9.6082   19.2759 F   0  0  0  0  0  0  0  0  0  0  0  0
  -25.4685  -10.1783   17.9520 F   0  0  0  0  0  0  0  0  0  0  0  0
  1  2  1  0  0  0  0
  1  5  2  0  0  0  0
  2  6  2  0  0  0  0
  3  8  2  0  0  0  0
  3 16  1  0  0  0  0
  4  9  1  0  0  0  0
  4 16  2  0  0  0  0
  5 18  1  0  0  0  0
  6 20  1  0  0  0  0
  7 10  2  0  0  0  0
  7 19  1  0  0  0  0
  8 24  1  0  0  0  0
  9 24  2  0  0  0  0
 10 25  1  0  0  0  0
 11 12  2  0  0  0  0
 11 26  1  0  0  0  0
 12 27  1  0  0  0  0
 13 21  1  0  0  0  0
 13 25  2  0  0  0  0
 14 22  1  0  0  0  0
 14 30  2  0  0  0  0
 15 27  2  0  0  0  0
 15 28  1  0  0  0  0
 16 29  1  0  0  0  0
 17 29  1  0  0  0  0
 17 32  2  0  0  0  0
 17 33  1  0  0  0  0
 18 20  2  0  0  0  0
 18 38  1  0  0  0  0
 19 21  2  0  0  0  0
 19 39  1  0  0  0  0
 20 47  1  0  0  0  0
 21 40  1  0  0  0  0
 22 23  2  0  0  0  0
 22 58  1  0  0  0  0
 23 31  1  0  0  0  0
 23 50  1  0  0  0  0
 24 82  1  0  0  0  0
 25 83  1  0  0  0  0
 26 28  2  0  0  0  0
 26 82  1  0  0  0  0
 27 84  1  0  0  0  0
 28 85  1  0  0  0  0
 29 66  2  0  0  0  0
 30 59  1  0  0  0  0
 30 67  1  0  0  0  0
 31 51  1  0  0  0  0
 31 67  2  0  0  0  0
 32 68  1  0  0  0  0
 32 71  1  0  0  0  0
 33 72  1  0  0  0  0
 33 77  2  0  0  0  0
 34 48  1  0  0  0  0
 34 73  1  0  0  0  0
 34 78  2  0  0  0  0
 35 62  1  0  0  0  0
 35 69  1  0  0  0  0
 35 79  2  0  0  0  0
 36 63  1  0  0  0  0
 36 74  1  0  0  0  0
 36 80  2  0  0  0  0
 37 70  1  0  0  0  0
 37 75  1  0  0  0  0
 37 81  2  0  0  0  0
 38 41  1  0  0  0  0
 39 48  1  0  0  0  0
 40 69  1  0  0  0  0
 41 43  1  0  0  0  0
 42 44  1  0  0  0  0
 42 45  1  0  0  0  0
 43 47  1  0  0  0  0
 44 49  1  0  0  0  0
 45 70  1  0  0  0  0
 46 49  1  0  0  0  0
 46 70  1  0  0  0  0
 47 73  1  0  0  0  0
 48 69  1  0  0  0  0
 49 68  1  0  0  0  0
 52 63  1  0  0  0  0
 53 64  1  0  0  0  0
 54 65  1  0  0  0  0
 55 65  1  0  0  0  0
 56 65  1  0  0  0  0
 57 76  1  0  0  0  0
 58 60  1  0  0  0  0
 59 64  1  0  0  0  0
 60 61  1  0  0  0  0
 61 83  1  0  0  0  0
 62 65  1  0  0  0  0
 62 74  1  0  0  0  0
 63 76  1  0  0  0  0
 64 75  1  0  0  0  0
 66 68  1  0  0  0  0
M  CHG  1  76   1
M  ISO  4  37 100  61 101  75 100  83 101
M  END
> <Batch ID>
0083

> <Smiles>
CNC(C)C(=O)NC(C(=O)N1Cc2cc([101O:1][101CH2:1]CCc3cc(CC(C)[100NH:0][100C:0](=O)N4CCCC(n5nc(-c6ccc(Oc7ccc(F)cc7F)cc6)c(C(N)=O)c5N)C4)nc(C)c3C)ccc2CC1C(=O)NC1CCCc2ccccc21)C(C)(C)C

> <Shape>
0.255

> <Color>
0.084

> <Negative vol penalty>
0.000

$$$$

  -OEChem-04052318513D

 84 92  0     1  0  0  0  0  0999 V2000
  -19.4520  -17.5226   13.3873 C   0  0  0  0  0  0  0  0  0  0  0  0
  -19.5951  -17.5648   14.7705 C   0  0  0  0  0  0  0  0  0  0  0  0
  -23.2886   -9.8008   19.9107 C   0  0  0  0  0  0  0  0  0  0  0  0
  -23.7391   -9.9384   22.2803 C   0  0  0  0  0  0  0  0  0  0  0  0
  -20.5425  -17.1902   12.5847 C   0  0  0  0  0  0  0  0  0  0  0  0
  -20.8287  -17.2736   15.3519 C   0  0  0  0  0  0  0  0  0  0  0  0
  -24.9165  -19.0516   20.9595 C   0  0  0  0  0  0  0  0  0  0  0  0
  -22.5622   -8.6281   20.1168 C   0  0  0  0  0  0  0  0  0  0  0  0
  -23.0126   -8.7656   22.4865 C   0  0  0  0  0  0  0  0  0  0  0  0
  -25.6134  -18.4632   22.0139 C   0  0  0  0  0  0  0  0  0  0  0  0
  -19.7655   -7.8545   22.7023 C   0  0  0  0  0  0  0  0  0  0  0  0
  -18.8630   -7.8316   23.7655 C   0  0  0  0  0  0  0  0  0  0  0  0
  -27.4475  -17.9791   20.5235 C   0  0  0  0  0  0  0  0  0  0  0  0
  -29.2122  -18.5779   25.6990 C   0  0  0  0  0  0  0  0  0  0  0  0
  -20.0685   -5.9830   24.7488 C   0  0  0  0  0  0  0  0  0  0  0  0
  -23.8772  -10.4560   20.9924 C   0  0  0  0  0  0  0  0  0  0  0  0
  -24.1367  -12.9862   20.7970 C   0  0  0  0  0  0  0  0  0  0  0  0
  -21.7925  -16.9043   13.1559 C   0  0  0  0  0  0  0  0  0  0  0  0
  -25.4762  -19.0985   19.6746 C   0  0  0  0  0  0  0  0  0  0  0  0
  -21.9366  -16.9358   14.5561 C   0  0  0  0  0  0  0  0  0  0  0  0
  -26.7566  -18.5710   19.4551 C   0  0  0  0  0  0  0  0  0  0  0  0
  -30.4537  -19.1804   25.8691 C   0  0  0  0  0  0  0  0  0  0  0  0
  -29.1399  -17.2508   25.2904 C   0  0  0  0  0  0  0  0  0  0  0  0
  -22.4241   -8.1105   21.4047 C   0  0  0  0  0  0  0  0  0  0  0  0
  -26.8779  -17.9243   21.7954 C   0  0  0  0  0  0  0  0  0  0  0  0
  -20.8195   -6.9417   22.6622 C   0  0  0  0  0  0  0  0  0  0  0  0
  -19.0145   -6.8958   24.7888 C   0  0  0  0  0  0  0  0  0  0  0  0
  -20.9710   -6.0060   23.6855 C   0  0  0  0  0  0  0  0  0  0  0  0
  -24.6282  -11.6671   20.7800 C   0  0  0  0  0  0  0  0  0  0  0  0
  -31.5839  -18.4188   25.6197 C   0  0  0  0  0  0  0  0  0  0  0  0
  -30.3290  -16.5755   25.0667 C   0  0  0  0  0  0  0  0  0  0  0  0
  -25.2383  -13.7663   20.5432 C   0  0  0  0  0  0  0  0  0  0  0  0
  -22.8037  -13.4636   21.0223 C   0  0  0  0  0  0  0  0  0  0  0  0
  -24.6750  -17.9173   16.8344 C   0  0  0  0  0  0  0  0  0  0  0  0
  -27.2019  -19.6817   15.8224 C   0  0  0  0  0  0  0  0  0  0  0  0
  -30.1641  -21.1991   16.5775 C   0  0  0  0  0  0  0  0  0  0  0  0
  -31.1091  -12.9219   21.3624 C   0  0  0  0  0  0  0  0  0  0  0  0
  -22.9301  -16.5040   12.2502 C   0  0  0  0  0  0  0  0  0  0  0  0
  -24.7227  -19.7606   18.5537 C   0  0  0  0  0  0  0  0  0  0  0  0
  -27.4103  -18.6142   18.0989 C   0  0  0  0  0  0  0  0  0  0  0  0
  -24.2984  -16.5747   12.9232 C   0  0  0  0  0  0  0  0  0  0  0  0
  -29.4607  -13.6653   18.2954 C   0  0  0  0  0  0  0  0  0  0  0  0
  -24.2500  -15.9216   14.3009 C   0  0  0  0  0  0  0  0  0  0  0  0
  -27.9909  -13.3565   18.5859 C   0  0  0  0  0  0  0  0  0  0  0  0
  -30.3938  -12.6849   19.0026 C   0  0  0  0  0  0  0  0  0  0  0  0
  -28.7069  -12.2535   20.7468 C   0  0  0  0  0  0  0  0  0  0  0  0
  -23.2649  -16.6505   15.2227 C   0  0  1  0  0  0  0  0  0  0  0  0
  -25.1735  -19.2937   17.1731 C   0  0  1  0  0  0  0  0  0  0  0  0
  -27.7291  -13.2496   20.1003 C   0  0  2  0  0  0  0  0  0  0  0  0
  -30.5379  -20.6018   26.3068 C   0  0  0  0  0  0  0  0  0  0  0  0
  -32.9443  -19.0131   25.7846 C   0  0  0  0  0  0  0  0  0  0  0  0
  -32.0170  -22.5315   15.5342 C   0  0  0  0  0  0  0  0  0  0  0  0
  -28.2980  -17.1429   14.5327 C   0  0  0  0  0  0  0  0  0  0  0  0
  -30.5218  -18.2787   14.3510 C   0  0  0  0  0  0  0  0  0  0  0  0
  -28.5461  -19.2087   13.1451 C   0  0  0  0  0  0  0  0  0  0  0  0
  -29.6567  -23.5122   18.3526 C   0  0  0  0  0  0  0  0  0  0  0  0
  -27.7954  -16.5908   25.1035 C   0  0  0  0  0  0  0  0  0  0  0  0
  -30.3113  -15.1479   24.6277 C   0  0  0  0  0  0  0  0  0  0  0  0
  -31.6790  -14.6066   24.1697 C   0  0  0  0  0  0  0  0  0  0  0  0
  -31.6707  -13.1325   23.7706 C   0  0  0  0  0  0  0  0  0  0  0  0
  -26.9205  -17.3317   24.0982 C   0  0  0  0  0  0  0  0  0  1  0  0
  -28.6822  -19.4339   15.6596 C   0  0  1  0  0  0  0  0  0  0  0  0
  -30.6893  -22.5905   16.2734 C   0  0  2  0  0  0  0  0  0  0  0  0
  -28.9992  -18.5134   14.4473 C   0  0  0  0  0  0  0  0  0  0  0  0
  -25.9398  -11.6087   20.5345 N   0  0  0  0  0  0  0  0  0  0  0  0
  -31.5535  -17.1272   25.2214 N   0  0  0  0  0  0  0  0  0  0  0  0
  -26.2819  -12.9008   20.3949 N   0  0  0  0  0  0  0  0  0  0  0  0
  -26.6309  -19.2664   17.0337 N   0  0  0  0  0  0  0  0  0  0  0  0
  -30.0943  -12.6317   20.4356 N   0  0  0  0  0  0  0  0  0  0  0  0
  -25.4063  -15.1014   20.4345 N   0  0  0  0  0  0  0  0  0  0  0  0
  -21.7910  -12.5265   21.2685 N   0  0  0  0  0  0  0  0  0  0  0  0
  -23.8530  -17.8740   15.7245 N   0  0  0  0  0  0  0  0  0  0  0  0
  -29.3111  -20.7485   15.5922 N   0  0  0  0  0  0  0  0  0  0  0  0
  -30.7393  -12.8547   22.7001 N   0  0  0  0  0  0  0  0  0  0  0  0
  -30.8881  -23.3566   17.5362 N   0  3  0  0  0  0  0  0  0  0  0  0
  -22.5159  -14.6841   20.9895 O   0  0  0  0  0  0  0  0  0  0  0  0
  -25.0125  -16.9649   17.5278 O   0  0  0  0  0  0  0  0  0  0  0  0
  -26.5768  -20.2302   14.9113 O   0  0  0  0  0  0  0  0  0  0  0  0
  -30.4817  -20.5729   17.5862 O   0  0  0  0  0  0  0  0  0  0  0  0
  -32.2582  -13.2240   21.0228 O   0  0  0  0  0  0  0  0  0  0  0  0
  -21.7151   -6.9663   21.6063 O   0  0  0  0  0  0  0  0  0  0  0  0
  -27.5601  -17.3488   22.8227 O   0  0  0  0  0  0  0  0  0  1  0  0
  -18.1487   -6.8749   25.8106 F   0  0  0  0  0  0  0  0  0  0  0  0
  -21.9823   -5.1273   23.6531 F   0  0  0  0  0  0  0  0  0  0  0  0
  1  2  1  0  0  0  0
  1  5  2  0  0  0  0
  2  6  2  0  0  0  0
  3  8  2  0  0  0  0
  3 16  1  0  0  0  0
  4  9  1  0  0  0  0
  4 16  2  0  0  0  0
  5 18  1  0  0  0  0
  6 20  1  0  0  0  0
  7 10  2  0  0  0  0
  7 19  1  0  0  0  0
  8 24  1  0  0  0  0
  9 24  2  0  0  0  0
 10 25  1  0  0  0  0
 11 12  2  0  0  0  0
 11 26  1  0  0  0  0
 12 27  1  0  0  0  0
 13 21  1  0  0  0  0
 13 25  2  0  0  0  0
 14 22  2  0  0  0  0
 14 23  1  0  0  0  0
 15 27  2  0  0  0  0
 15 28  1  0  0  0  0
 16 29  1  0  0  0  0
 17 29  1  0  0  0  0
 17 32  2  0  0  0  0
 17 33  1  0  0  0  0
 18 20  2  0  0  0  0
 18 38  1  0  0  0  0
 19 21  2  0  0  0  0
 19 39  1  0  0  0  0
 20 47  1  0  0  0  0
 21 40  1  0  0  0  0
 22 30  1  0  0  0  0
 22 50  1  0  0  0  0
 23 31  2  0  0  0  0
 23 57  1  0  0  0  0
 24 81  1  0  0  0  0
 25 82  1  0  0  0  0
 26 28  2  0  0  0  0
 26 81  1  0  0  0  0
 27 83  1  0  0  0  0
 28 84  1  0  0  0  0
 29 65  2  0  0  0  0
 30 51  1  0  0  0  0
 30 66  2  0  0  0  0
 31 58  1  0  0  0  0
 31 66  1  0  0  0  0
 32 67  1  0  0  0  0
 32 70  1  0  0  0  0
 33 71  1  0  0  0  0
 33 76  2  0  0  0  0
 34 48  1  0  0  0  0
 34 72  1  0  0  0  0
 34 77  2  0  0  0  0
 35 62  1  0  0  0  0
 35 68  1  0  0  0  0
 35 78  2  0  0  0  0
 36 63  1  0  0  0  0
 36 73  1  0  0  0  0
 36 79  2  0  0  0  0
 37 69  1  0  0  0  0
 37 74  1  0  0  0  0
 37 80  2  0  0  0  0
 38 41  1  0  0  0  0
 39 48  1  0  0  0  0
 40 68  1  0  0  0  0
 41 43  1  0  0  0  0
 42 44  1  0  0  0  0
 42 45  1  0  0  0  0
 43 47  1  0  0  0  0
 44 49  1  0  0  0  0
 45 69  1  0  0  0  0
 46 49  1  0  0  0  0
 46 69  1  0  0  0  0
 47 72  1  0  0  0  0
 48 68  1  0  0  0  0
 49 67  1  0  0  0  0
 52 63  1  0  0  0  0
 53 64  1  0  0  0  0
 54 64  1  0  0  0  0
 55 64  1  0  0  0  0
 56 75  1  0  0  0  0
 57 61  1  0  0  0  0
 58 59  1  0  0  0  0
 59 60  1  0  0  0  0
 60 74  1  0  0  0  0
 61 82  1  0  0  0  0
 62 64  1  0  0  0  0
 62 73  1  0  0  0  0
 63 75  1  0  0  0  0
 65 67  1  0  0  0  0
M  CHG  1  75   1
M  ISO  4  37 100  61 101  74 100  82 101
M  END
> <Batch ID>
0083

> <Smiles>
CNC(C)C(=O)NC(C(=O)N1Cc2cc([101O:1][101CH2:1]Cc3cc(C)c(C)nc3CCC[100NH:0][100C:0](=O)N3CCCC(n4nc(-c5ccc(Oc6ccc(F)cc6F)cc5)c(C(N)=O)c4N)C3)ccc2CC1C(=O)NC1CCCc2ccccc21)C(C)(C)C

> <Shape>
0.162

> <Color>
0.178

> <Negative vol penalty>
0.000

$$$$

  -OEChem-04052318513D

 86 94  0     1  0  0  0  0  0999 V2000
  -17.4866  -28.3881   24.2660 C   0  0  0  0  0  0  0  0  0  0  0  0
  -18.4668  -27.6646   23.5943 C   0  0  0  0  0  0  0  0  0  0  0  0
  -28.0940  -14.8609   19.0602 C   0  0  0  0  0  0  0  0  0  0  0  0
  -26.1021  -15.9147   19.9314 C   0  0  0  0  0  0  0  0  0  0  0  0
  -17.3123  -29.7441   23.9924 C   0  0  0  0  0  0  0  0  0  0  0  0
  -19.2727  -28.2965   22.6479 C   0  0  0  0  0  0  0  0  0  0  0  0
  -25.1664  -27.1286   21.4624 C   0  0  0  0  0  0  0  0  0  0  0  0
  -27.6360  -13.6228   19.5106 C   0  0  0  0  0  0  0  0  0  0  0  0
  -25.6440  -14.6765   20.3817 C   0  0  0  0  0  0  0  0  0  0  0  0
  -25.7919  -26.3683   20.4751 C   0  0  0  0  0  0  0  0  0  0  0  0
  -24.1608  -11.9414   19.0629 C   0  0  0  0  0  0  0  0  0  0  0  0
  -22.8254  -11.6191   18.8212 C   0  0  0  0  0  0  0  0  0  0  0  0
  -26.1082  -28.3595   19.1507 C   0  0  0  0  0  0  0  0  0  0  0  0
  -22.4438  -11.4177   21.1983 C   0  0  0  0  0  0  0  0  0  0  0  0
  -31.0109  -26.3861   20.3028 C   0  0  0  0  0  0  0  0  0  0  0  0
  -27.3271  -16.0069   19.2707 C   0  0  0  0  0  0  0  0  0  0  0  0
  -27.5621  -17.8755   17.5501 C   0  0  0  0  0  0  0  0  0  0  0  0
  -18.1229  -30.3952   23.0491 C   0  0  0  0  0  0  0  0  0  0  0  0
  -24.9972  -28.5106   21.2960 C   0  0  0  0  0  0  0  0  0  0  0  0
  -19.1082  -29.6621   22.3605 C   0  0  0  0  0  0  0  0  0  0  0  0
  -25.4826  -29.1355   20.1384 C   0  0  0  0  0  0  0  0  0  0  0  0
  -30.3820  -27.4171   19.6486 C   0  0  0  0  0  0  0  0  0  0  0  0
  -26.4110  -13.5306   20.1713 C   0  0  0  0  0  0  0  0  0  0  0  0
  -26.2603  -26.9833   19.3178 C   0  0  0  0  0  0  0  0  0  0  0  0
  -24.6377  -12.0017   20.3723 C   0  0  0  0  0  0  0  0  0  0  0  0
  -21.9669  -11.3573   19.8889 C   0  0  0  0  0  0  0  0  0  0  0  0
  -23.7792  -11.7399   21.4400 C   0  0  0  0  0  0  0  0  0  0  0  0
  -27.8000  -17.2862   18.8062 C   0  0  0  0  0  0  0  0  0  0  0  0
  -30.4295  -28.4914   20.5572 C   0  0  0  0  0  0  0  0  0  0  0  0
  -28.2218  -19.0790   17.6049 C   0  0  0  0  0  0  0  0  0  0  0  0
  -26.8119  -17.3795   16.4335 C   0  0  0  0  0  0  0  0  0  0  0  0
  -22.4912  -30.4567   21.1048 C   0  0  0  0  0  0  0  0  0  0  0  0
  -24.7728  -32.7624   21.1232 C   0  0  0  0  0  0  0  0  0  0  0  0
  -28.0150  -33.6349   20.5120 C   0  0  0  0  0  0  0  0  0  0  0  0
  -29.6931  -22.5546   22.1448 C   0  0  0  0  0  0  0  0  0  0  0  0
  -17.8656  -31.8514   22.7529 C   0  0  0  0  0  0  0  0  0  0  0  0
  -24.3443  -29.3208   22.3822 C   0  0  0  0  0  0  0  0  0  0  0  0
  -25.3438  -30.6193   19.9205 C   0  0  0  0  0  0  0  0  0  0  0  0
  -19.0102  -32.5328   22.0073 C   0  0  0  0  0  0  0  0  0  0  0  0
  -31.9748  -21.2010   19.6833 C   0  0  0  0  0  0  0  0  0  0  0  0
  -19.4820  -31.6646   20.8451 C   0  0  0  0  0  0  0  0  0  0  0  0
  -31.1260  -20.0917   19.0593 C   0  0  0  0  0  0  0  0  0  0  0  0
  -31.7238  -21.3110   21.1843 C   0  0  0  0  0  0  0  0  0  0  0  0
  -29.4451  -20.4062   20.9343 C   0  0  0  0  0  0  0  0  0  0  0  0
  -20.0186  -30.3178   21.3449 C   0  0  1  0  0  0  0  0  0  0  0  0
  -23.7663  -30.6397   21.8784 C   0  0  1  0  0  0  0  0  0  0  0  0
  -29.6366  -20.2593   19.4139 C   0  0  2  0  0  0  0  0  0  0  0  0
  -29.8991  -29.8537   20.3734 C   0  0  0  0  0  0  0  0  0  0  0  0
  -30.0703  -35.0741   20.4677 C   0  0  0  0  0  0  0  0  0  0  0  0
  -27.8120  -24.0439   18.5407 C   0  0  0  0  0  0  0  0  0  0  0  0
  -23.5098  -33.8572   18.5705 C   0  0  0  0  0  0  0  0  0  0  0  0
  -25.6030  -35.1749   18.1829 C   0  0  0  0  0  0  0  0  0  0  0  0
  -24.2203  -35.6027   20.2146 C   0  0  0  0  0  0  0  0  0  0  0  0
  -30.5835  -26.8398   24.5242 C   0  0  0  0  0  0  0  0  0  0  0  0
  -32.1788  -24.9422   24.7430 C   0  0  0  0  0  0  0  0  0  0  0  0
  -28.8198  -32.7708   23.2257 C   0  0  0  0  0  0  0  0  0  0  0  0
  -29.7795  -27.3907   18.2666 C   0  0  0  0  0  0  0  0  0  0  0  0
  -29.2234  -26.0183   17.8596 C   0  0  0  0  0  0  0  0  0  0  0  0
  -32.0782  -26.1721   22.5599 C   0  0  0  0  0  0  0  0  0  0  0  0
  -30.0973  -24.6949   23.3335 C   0  0  0  0  0  0  0  0  0  0  0  0
  -25.5798  -33.4763   20.0658 C   0  0  1  0  0  0  0  0  0  0  0  0
  -29.0260  -34.4017   21.3453 C   0  0  2  0  0  0  0  0  0  0  0  0
  -28.0528  -25.5368   18.7256 C   0  0  1  0  0  0  0  0  0  1  0  0
  -24.7293  -34.4995   19.2614 C   0  0  0  0  0  0  0  0  0  0  0  0
  -31.2259  -25.6630   23.7616 C   0  0  0  0  0  0  0  0  0  0  0  0
  -28.5522  -18.0522   19.6010 N   0  0  0  0  0  0  0  0  0  0  0  0
  -31.0402  -28.1724   21.7014 N   0  0  0  0  0  0  0  0  0  0  0  0
  -31.3822  -26.8859   21.5163 N   0  0  0  0  0  0  0  0  0  0  0  0
  -28.7927  -19.1350   18.8423 N   0  0  0  0  0  0  0  0  0  0  0  0
  -24.6927  -31.3673   21.0087 N   0  0  0  0  0  0  0  0  0  0  0  0
  -30.2896  -21.4875   21.4527 N   0  0  0  0  0  0  0  0  0  0  0  0
  -28.3634  -20.0841   16.7149 N   0  0  0  0  0  0  0  0  0  0  0  0
  -26.1979  -16.1245   16.5456 N   0  0  0  0  0  0  0  0  0  0  0  0
  -21.3516  -30.4744   21.8862 N   0  0  0  0  0  0  0  0  0  0  0  0
  -26.7261  -34.0614   20.7529 N   0  0  0  0  0  0  0  0  0  0  0  0
  -30.5633  -23.5334   22.6091 N   0  0  0  0  0  0  0  0  0  0  0  0
  -29.7251  -33.4822   22.2869 N   0  3  0  0  0  0  0  0  0  0  0  0
  -26.7032  -18.0225   15.3619 O   0  0  0  0  0  0  0  0  0  0  0  0
  -22.5378  -30.3118   19.8889 O   0  0  0  0  0  0  0  0  0  0  0  0
  -24.2393  -33.4177   22.0218 O   0  0  0  0  0  0  0  0  0  0  0  0
  -28.3369  -32.7490   19.7232 O   0  0  0  0  0  0  0  0  0  0  0  0
  -28.4739  -22.6323   22.3308 O   0  0  0  0  0  0  0  0  0  0  0  0
  -25.9636  -12.3225   20.6107 O   0  0  0  0  0  0  0  0  0  0  0  0
  -26.8705  -26.2435   18.3523 O   0  0  0  0  0  0  0  0  0  1  0  0
  -20.6841  -11.0494   19.6567 F   0  0  0  0  0  0  0  0  0  0  0  0
  -24.2313  -11.7975   22.7002 F   0  0  0  0  0  0  0  0  0  0  0  0
  1  2  1  0  0  0  0
  1  5  2  0  0  0  0
  2  6  2  0  0  0  0
  3  8  2  0  0  0  0
  3 16  1  0  0  0  0
  4  9  1  0  0  0  0
  4 16  2  0  0  0  0
  5 18  1  0  0  0  0
  6 20  1  0  0  0  0
  7 10  2  0  0  0  0
  7 19  1  0  0  0  0
  8 23  1  0  0  0  0
  9 23  2  0  0  0  0
 10 24  1  0  0  0  0
 11 12  2  0  0  0  0
 11 25  1  0  0  0  0
 12 26  1  0  0  0  0
 13 21  1  0  0  0  0
 13 24  2  0  0  0  0
 14 26  2  0  0  0  0
 14 27  1  0  0  0  0
 15 22  2  0  0  0  0
 15 68  1  0  0  0  0
 16 28  1  0  0  0  0
 17 28  1  0  0  0  0
 17 30  2  0  0  0  0
 17 31  1  0  0  0  0
 18 20  2  0  0  0  0
 18 36  1  0  0  0  0
 19 21  2  0  0  0  0
 19 37  1  0  0  0  0
 20 45  1  0  0  0  0
 21 38  1  0  0  0  0
 22 29  1  0  0  0  0
 22 57  1  0  0  0  0
 23 83  1  0  0  0  0
 24 84  1  0  0  0  0
 25 27  2  0  0  0  0
 25 83  1  0  0  0  0
 26 85  1  0  0  0  0
 27 86  1  0  0  0  0
 28 66  2  0  0  0  0
 29 48  1  0  0  0  0
 29 67  2  0  0  0  0
 30 69  1  0  0  0  0
 30 72  1  0  0  0  0
 31 73  1  0  0  0  0
 31 78  2  0  0  0  0
 32 46  1  0  0  0  0
 32 74  1  0  0  0  0
 32 79  2  0  0  0  0
 33 61  1  0  0  0  0
 33 70  1  0  0  0  0
 33 80  2  0  0  0  0
 34 62  1  0  0  0  0
 34 75  1  0  0  0  0
 34 81  2  0  0  0  0
 35 71  1  0  0  0  0
 35 76  1  0  0  0  0
 35 82  2  0  0  0  0
 36 39  1  0  0  0  0
 37 46  1  0  0  0  0
 38 70  1  0  0  0  0
 39 41  1  0  0  0  0
 40 42  1  0  0  0  0
 40 43  1  0  0  0  0
 41 45  1  0  0  0  0
 42 47  1  0  0  0  0
 43 71  1  0  0  0  0
 44 47  1  0  0  0  0
 44 71  1  0  0  0  0
 45 74  1  0  0  0  0
 46 70  1  0  0  0  0
 47 69  1  0  0  0  0
 49 62  1  0  0  0  0
 50 63  1  0  0  0  0
 51 64  1  0  0  0  0
 52 64  1  0  0  0  0
 53 64  1  0  0  0  0
 54 65  1  0  0  0  0
 55 65  1  0  0  0  0
 56 77  1  0  0  0  0
 57 58  1  0  0  0  0
 58 63  1  0  0  0  0
 59 65  1  0  0  0  0
 59 68  1  0  0  0  0
 60 65  1  0  0  0  0
 60 76  1  0  0  0  0
 61 64  1  0  0  0  0
 61 75  1  0  0  0  0
 62 77  1  0  0  0  0
 63 84  1  0  0  0  0
 66 69  1  0  0  0  0
 67 68  1  0  0  0  0
M  CHG  1  77   1
M  ISO  4  35 100  63 101  76 100  84 101
M  END
> <Batch ID>
0083

> <Smiles>
CNC(C)C(=O)NC(C(=O)N1Cc2cc([101O:1][101CH:1](C)CCc3cn(CC(C)(C)C[100NH:0][100C:0](=O)N4CCCC(n5nc(-c6ccc(Oc7ccc(F)cc7F)cc6)c(C(N)=O)c5N)C4)nc3C)ccc2CC1C(=O)NC1CCCc2ccccc21)C(C)(C)C

> <Shape>
0.229

> <Color>
0.061

> <Negative vol penalty>
0.000

$$$$

  -OEChem-04052318513D

 84 92  0     1  0  0  0  0  0999 V2000
  -18.1750  -34.0065   22.4988 C   0  0  0  0  0  0  0  0  0  0  0  0
  -19.5300  -33.9662   22.1861 C   0  0  0  0  0  0  0  0  0  0  0  0
  -27.1776  -12.9859   21.0960 C   0  0  0  0  0  0  0  0  0  0  0  0
  -27.0042  -13.4233   18.7263 C   0  0  0  0  0  0  0  0  0  0  0  0
  -17.5918  -32.9543   23.2034 C   0  0  0  0  0  0  0  0  0  0  0  0
  -20.3028  -32.8740   22.5788 C   0  0  0  0  0  0  0  0  0  0  0  0
  -25.9079  -28.9497   20.4576 C   0  0  0  0  0  0  0  0  0  0  0  0
  -26.4227  -11.8238   20.9368 C   0  0  0  0  0  0  0  0  0  0  0  0
  -26.2494  -12.2612   18.5670 C   0  0  0  0  0  0  0  0  0  0  0  0
  -27.1340  -28.4808   20.9273 C   0  0  0  0  0  0  0  0  0  0  0  0
  -24.2362   -8.9311   21.2103 C   0  0  0  0  0  0  0  0  0  0  0  0
  -23.2167   -8.6870   22.1303 C   0  0  0  0  0  0  0  0  0  0  0  0
  -26.0018  -26.6840   22.0712 C   0  0  0  0  0  0  0  0  0  0  0  0
  -22.1437  -10.7548   21.4897 C   0  0  0  0  0  0  0  0  0  0  0  0
  -28.2127  -24.6335   18.0181 C   0  0  0  0  0  0  0  0  0  0  0  0
  -27.4683  -13.7857   19.9907 C   0  0  0  0  0  0  0  0  0  0  0  0
  -29.6477  -15.1089   20.0746 C   0  0  0  0  0  0  0  0  0  0  0  0
  -18.3557  -31.8441   23.5965 C   0  0  0  0  0  0  0  0  0  0  0  0
  -24.7165  -28.2944   20.8006 C   0  0  0  0  0  0  0  0  0  0  0  0
  -19.7295  -31.8065   23.2905 C   0  0  0  0  0  0  0  0  0  0  0  0
  -24.7621  -27.1450   21.6024 C   0  0  0  0  0  0  0  0  0  0  0  0
  -25.9586  -11.4614   19.6723 C   0  0  0  0  0  0  0  0  0  0  0  0
  -27.1808  -27.3495   21.7367 C   0  0  0  0  0  0  0  0  0  0  0  0
  -24.2096  -10.0870   20.4300 C   0  0  0  0  0  0  0  0  0  0  0  0
  -22.1704   -9.5989   22.2700 C   0  0  0  0  0  0  0  0  0  0  0  0
  -23.1634  -10.9988   20.5697 C   0  0  0  0  0  0  0  0  0  0  0  0
  -28.2476  -14.9865   20.1547 C   0  0  0  0  0  0  0  0  0  0  0  0
  -28.4672  -23.3007   17.7807 C   0  0  0  0  0  0  0  0  0  0  0  0
  -29.9978  -23.2904   19.4798 C   0  0  0  0  0  0  0  0  0  0  0  0
  -29.7437  -24.6234   19.7167 C   0  0  0  0  0  0  0  0  0  0  0  0
  -29.8895  -16.4416   20.3021 C   0  0  0  0  0  0  0  0  0  0  0  0
  -30.6410  -14.1074   19.8176 C   0  0  0  0  0  0  0  0  0  0  0  0
  -22.0870  -29.1073   22.3908 C   0  0  0  0  0  0  0  0  0  0  0  0
  -21.0638  -26.1878   21.4153 C   0  0  0  0  0  0  0  0  0  0  0  0
  -21.8614  -23.0361   20.3773 C   0  0  0  0  0  0  0  0  0  0  0  0
  -26.5704  -21.3708   19.5685 C   0  0  0  0  0  0  0  0  0  0  0  0
  -17.6913  -30.7527   24.3977 C   0  0  0  0  0  0  0  0  0  0  0  0
  -23.4044  -28.7971   20.2638 C   0  0  0  0  0  0  0  0  0  0  0  0
  -23.5135  -26.3934   21.9829 C   0  0  0  0  0  0  0  0  0  0  0  0
  -18.4987  -29.4583   24.4506 C   0  0  0  0  0  0  0  0  0  0  0  0
  -28.0836  -20.2382   22.5859 C   0  0  0  0  0  0  0  0  0  0  0  0
  -19.9614  -29.7541   24.7668 C   0  0  0  0  0  0  0  0  0  0  0  0
  -28.4235  -18.7749   22.2977 C   0  0  0  0  0  0  0  0  0  0  0  0
  -26.7675  -20.6514   21.9308 C   0  0  0  0  0  0  0  0  0  0  0  0
  -27.0262  -18.9219   20.1942 C   0  0  0  0  0  0  0  0  0  0  0  0
  -20.5956  -30.6274   23.6776 C   0  0  1  0  0  0  0  0  0  0  0  0
  -22.2074  -28.3513   21.0979 C   0  0  1  0  0  0  0  0  0  0  0  0
  -28.3730  -18.4744   20.7876 C   0  0  2  0  0  0  0  0  0  0  0  0
  -30.9922  -22.5326   20.2914 C   0  0  0  0  0  0  0  0  0  0  0  0
  -28.6297  -21.4888   16.0445 C   0  0  0  0  0  0  0  0  0  0  0  0
  -21.5019  -20.7134   19.4979 C   0  0  0  0  0  0  0  0  0  0  0  0
  -20.4399  -25.5686   24.3372 C   0  0  0  0  0  0  0  0  0  0  0  0
  -20.3110  -23.1448   23.7236 C   0  0  0  0  0  0  0  0  0  0  0  0
  -18.7149  -24.7725   22.7108 C   0  0  0  0  0  0  0  0  0  0  0  0
  -22.0473  -23.9463   17.5673 C   0  0  0  0  0  0  0  0  0  0  0  0
  -30.4596  -25.3784   20.8080 C   0  0  0  0  0  0  0  0  0  0  0  0
  -29.9393  -25.0701   22.2137 C   0  0  0  0  0  0  0  0  0  0  0  0
  -26.4135  -21.9395   17.1579 C   0  0  0  0  0  0  0  0  0  0  0  0
  -28.4882  -25.4860   22.4250 C   0  0  0  0  0  0  0  0  0  1  0  0
  -27.7486  -22.5759   16.6971 C   0  0  1  0  0  0  0  0  0  0  0  0
  -21.1341  -24.7879   21.9761 C   0  0  1  0  0  0  0  0  0  0  0  0
  -21.3567  -22.2005   19.2147 C   0  0  2  0  0  0  0  0  0  0  0  0
  -20.1735  -24.5835   23.1815 C   0  0  0  0  0  0  0  0  0  0  0  0
  -28.8464  -25.3188   18.9904 N   0  0  0  0  0  0  0  0  0  0  0  0
  -27.6423  -16.1488   20.4130 N   0  0  0  0  0  0  0  0  0  0  0  0
  -29.3643  -22.6052   18.5073 N   0  0  0  0  0  0  0  0  0  0  0  0
  -28.6671  -17.0142   20.4973 N   0  0  0  0  0  0  0  0  0  0  0  0
  -22.2544  -26.9279   21.4384 N   0  0  0  0  0  0  0  0  0  0  0  0
  -26.7852  -20.3410   20.4992 N   0  0  0  0  0  0  0  0  0  0  0  0
  -31.0263  -17.1679   20.3523 N   0  0  0  0  0  0  0  0  0  0  0  0
  -30.2197  -12.7875   19.6055 N   0  0  0  0  0  0  0  0  0  0  0  0
  -20.9156  -29.8300   22.5130 N   0  0  0  0  0  0  0  0  0  0  0  0
  -20.8873  -23.8865   20.8559 N   0  0  0  0  0  0  0  0  0  0  0  0
  -26.6099  -20.9919   18.2323 N   0  0  0  0  0  0  0  0  0  0  0  0
  -22.1218  -22.5201   17.9764 N   0  3  0  0  0  0  0  0  0  0  0  0
  -31.8669  -14.3719   19.7934 O   0  0  0  0  0  0  0  0  0  0  0  0
  -22.9894  -29.0388   23.2171 O   0  0  0  0  0  0  0  0  0  0  0  0
  -19.9938  -26.6065   20.9666 O   0  0  0  0  0  0  0  0  0  0  0  0
  -23.0043  -22.9410   20.8192 O   0  0  0  0  0  0  0  0  0  0  0  0
  -26.3644  -22.5423   19.9035 O   0  0  0  0  0  0  0  0  0  0  0  0
  -25.2222  -10.3274   19.5165 O   0  0  0  0  0  0  0  0  0  0  0  0
  -28.3762  -26.8902   22.1971 O   0  0  0  0  0  0  0  0  0  1  0  0
  -21.1905   -9.3636   23.1525 F   0  0  0  0  0  0  0  0  0  0  0  0
  -23.1317  -12.1105   19.8220 F   0  0  0  0  0  0  0  0  0  0  0  0
  1  2  1  0  0  0  0
  1  5  2  0  0  0  0
  2  6  2  0  0  0  0
  3  8  2  0  0  0  0
  3 16  1  0  0  0  0
  4  9  1  0  0  0  0
  4 16  2  0  0  0  0
  5 18  1  0  0  0  0
  6 20  1  0  0  0  0
  7 10  2  0  0  0  0
  7 19  1  0  0  0  0
  8 22  1  0  0  0  0
  9 22  2  0  0  0  0
 10 23  1  0  0  0  0
 11 12  2  0  0  0  0
 11 24  1  0  0  0  0
 12 25  1  0  0  0  0
 13 21  1  0  0  0  0
 13 23  2  0  0  0  0
 14 25  2  0  0  0  0
 14 26  1  0  0  0  0
 15 28  1  0  0  0  0
 15 64  2  0  0  0  0
 16 27  1  0  0  0  0
 17 27  1  0  0  0  0
 17 31  2  0  0  0  0
 17 32  1  0  0  0  0
 18 20  2  0  0  0  0
 18 37  1  0  0  0  0
 19 21  2  0  0  0  0
 19 38  1  0  0  0  0
 20 46  1  0  0  0  0
 21 39  1  0  0  0  0
 22 81  1  0  0  0  0
 23 82  1  0  0  0  0
 24 26  2  0  0  0  0
 24 81  1  0  0  0  0
 25 83  1  0  0  0  0
 26 84  1  0  0  0  0
 27 65  2  0  0  0  0
 28 60  1  0  0  0  0
 28 66  2  0  0  0  0
 29 30  2  0  0  0  0
 29 49  1  0  0  0  0
 29 66  1  0  0  0  0
 30 56  1  0  0  0  0
 30 64  1  0  0  0  0
 31 67  1  0  0  0  0
 31 70  1  0  0  0  0
 32 71  1  0  0  0  0
 32 76  2  0  0  0  0
 33 47  1  0  0  0  0
 33 72  1  0  0  0  0
 33 77  2  0  0  0  0
 34 61  1  0  0  0  0
 34 68  1  0  0  0  0
 34 78  2  0  0  0  0
 35 62  1  0  0  0  0
 35 73  1  0  0  0  0
 35 79  2  0  0  0  0
 36 69  1  0  0  0  0
 36 74  1  0  0  0  0
 36 80  2  0  0  0  0
 37 40  1  0  0  0  0
 38 47  1  0  0  0  0
 39 68  1  0  0  0  0
 40 42  1  0  0  0  0
 41 43  1  0  0  0  0
 41 44  1  0  0  0  0
 42 46  1  0  0  0  0
 43 48  1  0  0  0  0
 44 69  1  0  0  0  0
 45 48  1  0  0  0  0
 45 69  1  0  0  0  0
 46 72  1  0  0  0  0
 47 68  1  0  0  0  0
 48 67  1  0  0  0  0
 50 60  1  0  0  0  0
 51 62  1  0  0  0  0
 52 63  1  0  0  0  0
 53 63  1  0  0  0  0
 54 63  1  0  0  0  0
 55 75  1  0  0  0  0
 56 57  1  0  0  0  0
 57 59  1  0  0  0  0
 58 60  1  0  0  0  0
 58 74  1  0  0  0  0
 59 82  1  0  0  0  0
 61 63  1  0  0  0  0
 61 73  1  0  0  0  0
 62 75  1  0  0  0  0
 65 67  1  0  0  0  0
M  CHG  1  75   1
M  ISO  4  36 100  59 101  74 100  82 101
M  END
> <Batch ID>
0083

> <Smiles>
CNC(C)C(=O)NC(C(=O)N1Cc2cc([101O:1][101CH2:1]CCc3ncc(C(C)C[100NH:0][100C:0](=O)N4CCCC(n5nc(-c6ccc(Oc7ccc(F)cc7F)cc6)c(C(N)=O)c5N)C4)nc3C)ccc2CC1C(=O)NC1CCCc2ccccc21)C(C)(C)C

> <Shape>
0.244

> <Color>
0.083

> <Negative vol penalty>
0.000

$$$$

  -OEChem-04052318513D

 82 90  0     1  0  0  0  0  0999 V2000
  -35.5215  -22.8363   32.8480 C   0  0  0  0  0  0  0  0  0  0  0  0
  -35.4434  -22.2507   31.5884 C   0  0  0  0  0  0  0  0  0  0  0  0
  -23.1900   -9.8193   19.9322 C   0  0  0  0  0  0  0  0  0  0  0  0
  -23.5696   -9.9997   22.3114 C   0  0  0  0  0  0  0  0  0  0  0  0
  -34.3558  -23.1055   33.5639 C   0  0  0  0  0  0  0  0  0  0  0  0
  -34.1993  -21.9329   31.0446 C   0  0  0  0  0  0  0  0  0  0  0  0
  -32.5914  -22.1782   25.1403 C   0  0  0  0  0  0  0  0  0  0  0  0
  -22.4238   -8.6727   20.1414 C   0  0  0  0  0  0  0  0  0  0  0  0
  -22.8033   -8.8530   22.5206 C   0  0  0  0  0  0  0  0  0  0  0  0
  -32.5039  -21.2002   24.1506 C   0  0  0  0  0  0  0  0  0  0  0  0
  -23.2042   -5.5063   22.2562 C   0  0  0  0  0  0  0  0  0  0  0  0
  -23.7030   -4.5450   23.1352 C   0  0  0  0  0  0  0  0  0  0  0  0
  -30.1443  -20.9694   24.5957 C   0  0  0  0  0  0  0  0  0  0  0  0
  -21.7472   -4.8050   24.5295 C   0  0  0  0  0  0  0  0  0  0  0  0
  -23.7630  -10.4828   21.0173 C   0  0  0  0  0  0  0  0  0  0  0  0
  -24.1016  -12.9994   20.7734 C   0  0  0  0  0  0  0  0  0  0  0  0
  -33.0964  -22.7996   33.0244 C   0  0  0  0  0  0  0  0  0  0  0  0
  -31.4563  -22.5520   25.8739 C   0  0  0  0  0  0  0  0  0  0  0  0
  -33.0157  -22.1970   31.7545 C   0  0  0  0  0  0  0  0  0  0  0  0
  -30.2195  -21.9542   25.5925 C   0  0  0  0  0  0  0  0  0  0  0  0
  -22.2305   -8.1895   21.4355 C   0  0  0  0  0  0  0  0  0  0  0  0
  -31.2809  -20.5936   23.8801 C   0  0  0  0  0  0  0  0  0  0  0  0
  -21.9769   -6.1171   22.5140 C   0  0  0  0  0  0  0  0  0  0  0  0
  -22.9745   -4.1943   24.2718 C   0  0  0  0  0  0  0  0  0  0  0  0
  -21.2484   -5.7664   23.6506 C   0  0  0  0  0  0  0  0  0  0  0  0
  -24.5550  -11.6670   20.8019 C   0  0  0  0  0  0  0  0  0  0  0  0
  -28.3661  -15.9634   24.8241 C   0  0  0  0  0  0  0  0  0  0  0  0
  -29.4267  -15.7518   23.9794 C   0  0  0  0  0  0  0  0  0  0  0  0
  -25.2327  -13.7421   20.5375 C   0  0  0  0  0  0  0  0  0  0  0  0
  -22.7765  -13.5194   20.9449 C   0  0  0  0  0  0  0  0  0  0  0  0
  -30.6321  -22.4432   28.9419 C   0  0  0  0  0  0  0  0  0  0  0  0
  -28.0339  -24.0820   27.8998 C   0  0  0  0  0  0  0  0  0  0  0  0
  -25.9542  -24.8742   25.3125 C   0  0  0  0  0  0  0  0  0  0  0  0
  -31.0480  -12.7520   21.5637 C   0  0  0  0  0  0  0  0  0  0  0  0
  -31.8665  -23.0658   33.8558 C   0  0  0  0  0  0  0  0  0  0  0  0
  -31.5619  -23.6277   26.9199 C   0  0  0  0  0  0  0  0  0  0  0  0
  -28.9671  -22.3344   26.3377 C   0  0  0  0  0  0  0  0  0  0  0  0
  -30.5700  -23.0419   33.0504 C   0  0  0  0  0  0  0  0  0  0  0  0
  -29.5189  -13.4694   18.4293 C   0  0  0  0  0  0  0  0  0  0  0  0
  -30.5333  -21.8231   32.1337 C   0  0  0  0  0  0  0  0  0  0  0  0
  -28.0325  -13.2091   18.6794 C   0  0  0  0  0  0  0  0  0  0  0  0
  -30.4006  -12.4800   19.1881 C   0  0  0  0  0  0  0  0  0  0  0  0
  -28.6480  -12.1373   20.8865 C   0  0  0  0  0  0  0  0  0  0  0  0
  -31.6836  -21.8603   31.1203 C   0  0  1  0  0  0  0  0  0  0  0  0
  -30.4458  -23.5634   27.9580 C   0  0  1  0  0  0  0  0  0  0  0  0
  -27.7202  -13.1451   20.1866 C   0  0  2  0  0  0  0  0  0  0  0  0
  -27.1219  -16.7076   24.5864 C   0  0  0  0  0  0  0  0  0  0  0  0
  -23.8967  -26.2071   24.7761 C   0  0  0  0  0  0  0  0  0  0  0  0
  -26.3085  -21.9559   29.2461 C   0  0  0  0  0  0  0  0  0  0  0  0
  -24.3641  -22.7831   27.9033 C   0  0  0  0  0  0  0  0  0  0  0  0
  -25.4878  -24.3008   29.5332 C   0  0  0  0  0  0  0  0  0  0  0  0
  -27.4117  -26.5569   23.3623 C   0  0  0  0  0  0  0  0  0  0  0  0
  -29.7034  -16.1807   22.5606 C   0  0  0  0  0  0  0  0  0  0  0  0
  -30.6998  -17.3367   22.4497 C   0  0  0  0  0  0  0  0  0  0  0  0
  -31.5755  -14.4853   24.3465 C   0  0  0  0  0  0  0  0  0  0  0  0
  -31.5394  -13.0031   23.9833 C   0  0  0  0  0  0  0  0  0  0  0  0
  -30.2016  -18.6268   23.0908 C   0  0  0  0  0  0  0  0  0  1  0  0
  -26.6686  -23.7025   27.3792 C   0  0  1  0  0  0  0  0  0  0  0  0
  -25.4167  -26.2073   24.8241 C   0  0  2  0  0  0  0  0  0  0  0  0
  -25.7311  -23.1768   28.5026 C   0  0  0  0  0  0  0  0  0  0  0  0
  -25.8715  -11.5659   20.6000 N   0  0  0  0  0  0  0  0  0  0  0  0
  -28.6056  -15.3533   26.0241 N   0  0  0  0  0  0  0  0  0  0  0  0
  -29.7941  -14.7638   25.9523 N   0  0  0  0  0  0  0  0  0  0  0  0
  -30.2848  -15.0041   24.7256 N   0  0  0  0  0  0  0  0  0  0  0  0
  -26.2549  -12.8442   20.4424 N   0  0  0  0  0  0  0  0  0  0  0  0
  -29.1229  -23.3868   27.3554 N   0  0  0  0  0  0  0  0  0  0  0  0
  -30.0548  -12.4689   20.6115 N   0  0  0  0  0  0  0  0  0  0  0  0
  -25.4426  -15.0689   20.4042 N   0  0  0  0  0  0  0  0  0  0  0  0
  -21.7299  -12.6172   21.1795 N   0  0  0  0  0  0  0  0  0  0  0  0
  -31.3839  -22.7864   30.0494 N   0  0  0  0  0  0  0  0  0  0  0  0
  -26.1595  -24.8750   26.6760 N   0  0  0  0  0  0  0  0  0  0  0  0
  -30.6344  -12.7266   22.8900 N   0  0  0  0  0  0  0  0  0  0  0  0
  -25.9301  -26.5031   23.4566 N   0  3  0  0  0  0  0  0  0  0  0  0
  -22.5252  -14.7464   20.8754 O   0  0  0  0  0  0  0  0  0  0  0  0
  -30.1297  -21.3490   28.7140 O   0  0  0  0  0  0  0  0  0  0  0  0
  -28.1311  -24.9678   28.7528 O   0  0  0  0  0  0  0  0  0  0  0  0
  -26.1668  -23.9258   24.5603 O   0  0  0  0  0  0  0  0  0  0  0  0
  -32.2154  -13.0136   21.2544 O   0  0  0  0  0  0  0  0  0  0  0  0
  -21.4827   -7.0708   21.6400 O   0  0  0  0  0  0  0  0  0  0  0  0
  -31.1928  -19.6382   22.9150 O   0  0  0  0  0  0  0  0  0  1  0  0
  -23.4529   -3.2700   25.1150 F   0  0  0  0  0  0  0  0  0  0  0  0
  -20.0682   -6.3489   23.9029 F   0  0  0  0  0  0  0  0  0  0  0  0
  1  2  1  0  0  0  0
  1  5  2  0  0  0  0
  2  6  2  0  0  0  0
  3  8  2  0  0  0  0
  3 15  1  0  0  0  0
  4  9  1  0  0  0  0
  4 15  2  0  0  0  0
  5 17  1  0  0  0  0
  6 19  1  0  0  0  0
  7 10  2  0  0  0  0
  7 18  1  0  0  0  0
  8 21  1  0  0  0  0
  9 21  2  0  0  0  0
 10 22  1  0  0  0  0
 11 12  2  0  0  0  0
 11 23  1  0  0  0  0
 12 24  1  0  0  0  0
 13 20  1  0  0  0  0
 13 22  2  0  0  0  0
 14 24  2  0  0  0  0
 14 25  1  0  0  0  0
 15 26  1  0  0  0  0
 16 26  1  0  0  0  0
 16 29  2  0  0  0  0
 16 30  1  0  0  0  0
 17 19  2  0  0  0  0
 17 35  1  0  0  0  0
 18 20  2  0  0  0  0
 18 36  1  0  0  0  0
 19 44  1  0  0  0  0
 20 37  1  0  0  0  0
 21 79  1  0  0  0  0
 22 80  1  0  0  0  0
 23 25  2  0  0  0  0
 23 79  1  0  0  0  0
 24 81  1  0  0  0  0
 25 82  1  0  0  0  0
 26 61  2  0  0  0  0
 27 28  2  0  0  0  0
 27 47  1  0  0  0  0
 27 62  1  0  0  0  0
 28 53  1  0  0  0  0
 28 64  1  0  0  0  0
 29 65  1  0  0  0  0
 29 68  1  0  0  0  0
 30 69  1  0  0  0  0
 30 74  2  0  0  0  0
 31 45  1  0  0  0  0
 31 70  1  0  0  0  0
 31 75  2  0  0  0  0
 32 58  1  0  0  0  0
 32 66  1  0  0  0  0
 32 76  2  0  0  0  0
 33 59  1  0  0  0  0
 33 71  1  0  0  0  0
 33 77  2  0  0  0  0
 34 67  1  0  0  0  0
 34 72  1  0  0  0  0
 34 78  2  0  0  0  0
 35 38  1  0  0  0  0
 36 45  1  0  0  0  0
 37 66  1  0  0  0  0
 38 40  1  0  0  0  0
 39 41  1  0  0  0  0
 39 42  1  0  0  0  0
 40 44  1  0  0  0  0
 41 46  1  0  0  0  0
 42 67  1  0  0  0  0
 43 46  1  0  0  0  0
 43 67  1  0  0  0  0
 44 70  1  0  0  0  0
 45 66  1  0  0  0  0
 46 65  1  0  0  0  0
 48 59  1  0  0  0  0
 49 60  1  0  0  0  0
 50 60  1  0  0  0  0
 51 60  1  0  0  0  0
 52 73  1  0  0  0  0
 53 54  1  0  0  0  0
 54 57  1  0  0  0  0
 55 56  1  0  0  0  0
 55 64  1  0  0  0  0
 56 72  1  0  0  0  0
 57 80  1  0  0  0  0
 58 60  1  0  0  0  0
 58 71  1  0  0  0  0
 59 73  1  0  0  0  0
 61 65  1  0  0  0  0
 62 63  2  0  0  0  0
 63 64  1  0  0  0  0
M  CHG  1  73   1
M  ISO  4  34 100  57 101  72 100  80 101
M  END
> <Batch ID>
0083

> <Smiles>
CNC(C)C(=O)NC(C(=O)N1Cc2cc([101O:1][101CH2:1]CCc3c(C)nnn3CC[100NH:0][100C:0](=O)N3CCCC(n4nc(-c5ccc(Oc6ccc(F)cc6F)cc5)c(C(N)=O)c4N)C3)ccc2CC1C(=O)NC1CCCc2ccccc21)C(C)(C)C

> <Shape>
0.156

> <Color>
0.181

> <Negative vol penalty>
0.000

$$$$

  -OEChem-04052318513D

 86 94  0     1  0  0  0  0  0999 V2000
  -21.2778  -30.6574   16.1653 C   0  0  0  0  0  0  0  0  0  0  0  0
  -22.2324  -29.6591   15.9991 C   0  0  0  0  0  0  0  0  0  0  0  0
  -23.0692   -9.9318   19.9230 C   0  0  0  0  0  0  0  0  0  0  0  0
  -23.8479   -9.8940   22.2097 C   0  0  0  0  0  0  0  0  0  0  0  0
  -21.2153  -31.3680   17.3632 C   0  0  0  0  0  0  0  0  0  0  0  0
  -23.1258  -29.3716   17.0304 C   0  0  0  0  0  0  0  0  0  0  0  0
  -25.4127  -23.8829   18.4969 C   0  0  0  0  0  0  0  0  0  0  0  0
  -22.3200   -8.7792   20.1590 C   0  0  0  0  0  0  0  0  0  0  0  0
  -23.0986   -8.7414   22.4458 C   0  0  0  0  0  0  0  0  0  0  0  0
  -26.6261  -23.2631   18.2018 C   0  0  0  0  0  0  0  0  0  0  0  0
  -21.1071   -5.9940   23.7511 C   0  0  0  0  0  0  0  0  0  0  0  0
  -20.3602   -5.9348   24.9276 C   0  0  0  0  0  0  0  0  0  0  0  0
  -27.5096  -23.9959   20.3235 C   0  0  0  0  0  0  0  0  0  0  0  0
  -27.3204  -19.5707   19.9369 C   0  0  0  0  0  0  0  0  0  0  0  0
  -19.1222   -7.8923   24.2402 C   0  0  0  0  0  0  0  0  0  0  0  0
  -23.8332  -10.4892   20.9483 C   0  0  0  0  0  0  0  0  0  0  0  0
  -24.1903  -13.0139   20.8694 C   0  0  0  0  0  0  0  0  0  0  0  0
  -22.1022  -31.0825   18.4133 C   0  0  0  0  0  0  0  0  0  0  0  0
  -25.2419  -24.5744   19.7048 C   0  0  0  0  0  0  0  0  0  0  0  0
  -23.0760  -30.0800   18.2430 C   0  0  0  0  0  0  0  0  0  0  0  0
  -26.2921  -24.6215   20.6327 C   0  0  0  0  0  0  0  0  0  0  0  0
  -28.6719  -19.2735   19.9496 C   0  0  0  0  0  0  0  0  0  0  0  0
  -22.3346   -8.1840   21.4204 C   0  0  0  0  0  0  0  0  0  0  0  0
  -27.6758  -23.3220   19.1139 C   0  0  0  0  0  0  0  0  0  0  0  0
  -20.8616   -7.0024   22.8191 C   0  0  0  0  0  0  0  0  0  0  0  0
  -19.3677   -6.8839   25.1721 C   0  0  0  0  0  0  0  0  0  0  0  0
  -19.8691   -7.9515   23.0637 C   0  0  0  0  0  0  0  0  0  0  0  0
  -24.6078  -11.6795   20.7050 C   0  0  0  0  0  0  0  0  0  0  0  0
  -26.5211  -18.9848   20.8978 C   0  0  0  0  0  0  0  0  0  0  0  0
  -29.1346  -18.4105   20.9226 C   0  0  0  0  0  0  0  0  0  0  0  0
  -25.2843  -13.7627   20.5101 C   0  0  0  0  0  0  0  0  0  0  0  0
  -22.9266  -13.5303   21.3077 C   0  0  0  0  0  0  0  0  0  0  0  0
  -24.6189  -27.5896   20.4948 C   0  0  0  0  0  0  0  0  0  0  0  0
  -24.4344  -26.3575   23.4898 C   0  0  0  0  0  0  0  0  0  0  0  0
  -25.3179  -23.8782   25.6622 C   0  0  0  0  0  0  0  0  0  0  0  0
  -30.7758  -14.7437   20.6706 C   0  0  0  0  0  0  0  0  0  0  0  0
  -22.0269  -31.9096   19.6722 C   0  0  0  0  0  0  0  0  0  0  0  0
  -23.9179  -25.2150   20.0198 C   0  0  0  0  0  0  0  0  0  0  0  0
  -26.1530  -25.3339   21.9524 C   0  0  0  0  0  0  0  0  0  0  0  0
  -22.7668  -31.2885   20.8542 C   0  0  0  0  0  0  0  0  0  0  0  0
  -29.6034  -12.4083   18.2523 C   0  0  0  0  0  0  0  0  0  0  0  0
  -24.1495  -30.8078   20.4256 C   0  0  0  0  0  0  0  0  0  0  0  0
  -28.1676  -12.1162   18.6920 C   0  0  0  0  0  0  0  0  0  0  0  0
  -30.5317  -12.6024   19.4492 C   0  0  0  0  0  0  0  0  0  0  0  0
  -28.6461  -13.3212   20.8640 C   0  0  0  0  0  0  0  0  0  0  0  0
  -24.0464  -29.7220   19.3476 C   0  0  1  0  0  0  0  0  0  0  0  0
  -24.0247  -26.3290   21.0565 C   0  0  1  0  0  0  0  0  0  0  0  0
  -27.6612  -13.1733   19.6917 C   0  0  2  0  0  0  0  0  0  0  0  0
  -25.0461  -23.1643   28.0526 C   0  0  0  0  0  0  0  0  0  0  0  0
  -24.3698  -18.8411   19.5951 C   0  0  0  0  0  0  0  0  0  0  0  0
  -24.7836  -20.7945   21.1277 C   0  0  0  0  0  0  0  0  0  0  0  0
  -24.2554  -18.5518   22.0619 C   0  0  0  0  0  0  0  0  0  0  0  0
  -26.4620  -28.4697   24.3486 C   0  0  0  0  0  0  0  0  0  0  0  0
  -26.8589  -27.1409   26.4331 C   0  0  0  0  0  0  0  0  0  0  0  0
  -24.5987  -28.0909   25.9731 C   0  0  0  0  0  0  0  0  0  0  0  0
  -23.9714  -21.3618   24.8789 C   0  0  0  0  0  0  0  0  0  0  0  0
  -29.5896  -19.8870   18.9225 C   0  0  0  0  0  0  0  0  0  0  0  0
  -30.5782  -18.0436   20.9977 C   0  0  0  0  0  0  0  0  0  0  0  0
  -30.4450  -21.0330   19.4671 C   0  0  0  0  0  0  0  0  0  0  0  0
  -30.8657  -16.8719   21.9441 C   0  0  0  0  0  0  0  0  0  0  0  0
  -29.6247  -22.2311   19.9309 C   0  0  0  0  0  0  0  0  0  1  0  0
  -25.4167  -26.1236   24.6120 C   0  0  1  0  0  0  0  0  0  0  0  0
  -24.4974  -23.0547   26.6385 C   0  0  2  0  0  0  0  0  0  0  0  0
  -25.0588  -19.2715   20.9275 C   0  0  0  0  0  0  0  0  0  0  0  0
  -25.8376  -27.4444   25.3161 C   0  0  0  0  0  0  0  0  0  0  0  0
  -25.8685  -11.5830   20.2746 N   0  0  0  0  0  0  0  0  0  0  0  0
  -27.0010  -18.1437   21.8382 N   0  0  0  0  0  0  0  0  0  0  0  0
  -28.3293  -17.8520   21.8509 N   0  0  0  0  0  0  0  0  0  0  0  0
  -26.2527  -12.8662   20.1655 N   0  0  0  0  0  0  0  0  0  0  0  0
  -24.8412  -25.9499   22.2115 N   0  0  0  0  0  0  0  0  0  0  0  0
  -29.9951  -13.6188   20.3575 N   0  0  0  0  0  0  0  0  0  0  0  0
  -25.5026  -15.0938   20.4585 N   0  0  0  0  0  0  0  0  0  0  0  0
  -21.9117  -12.6218   21.6375 N   0  0  0  0  0  0  0  0  0  0  0  0
  -23.6907  -28.4515   19.9424 N   0  0  0  0  0  0  0  0  0  0  0  0
  -24.7976  -25.1447   25.4990 N   0  0  0  0  0  0  0  0  0  0  0  0
  -30.1896  -15.6614   21.5336 N   0  0  0  0  0  0  0  0  0  0  0  0
  -24.5070  -21.6186   26.2406 N   0  3  0  0  0  0  0  0  0  0  0  0
  -22.6988  -14.7612   21.3884 O   0  0  0  0  0  0  0  0  0  0  0  0
  -25.8296  -27.7678   20.5591 O   0  0  0  0  0  0  0  0  0  0  0  0
  -23.3433  -26.8761   23.7395 O   0  0  0  0  0  0  0  0  0  0  0  0
  -26.3222  -23.4429   25.1033 O   0  0  0  0  0  0  0  0  0  0  0  0
  -31.9091  -14.9198   20.2107 O   0  0  0  0  0  0  0  0  0  0  0  0
  -21.6035   -7.0594   21.6512 O   0  0  0  0  0  0  0  0  0  0  0  0
  -28.8614  -22.7184   18.8280 O   0  0  0  0  0  0  0  0  0  1  0  0
  -18.6494   -6.8260   26.3013 F   0  0  0  0  0  0  0  0  0  0  0  0
  -19.6279   -8.9220   22.1715 F   0  0  0  0  0  0  0  0  0  0  0  0
  1  2  1  0  0  0  0
  1  5  2  0  0  0  0
  2  6  2  0  0  0  0
  3  8  2  0  0  0  0
  3 16  1  0  0  0  0
  4  9  1  0  0  0  0
  4 16  2  0  0  0  0
  5 18  1  0  0  0  0
  6 20  1  0  0  0  0
  7 10  2  0  0  0  0
  7 19  1  0  0  0  0
  8 23  1  0  0  0  0
  9 23  2  0  0  0  0
 10 24  1  0  0  0  0
 11 12  2  0  0  0  0
 11 25  1  0  0  0  0
 12 26  1  0  0  0  0
 13 21  1  0  0  0  0
 13 24  2  0  0  0  0
 14 22  1  0  0  0  0
 14 29  2  0  0  0  0
 15 26  2  0  0  0  0
 15 27  1  0  0  0  0
 16 28  1  0  0  0  0
 17 28  1  0  0  0  0
 17 31  2  0  0  0  0
 17 32  1  0  0  0  0
 18 20  2  0  0  0  0
 18 37  1  0  0  0  0
 19 21  2  0  0  0  0
 19 38  1  0  0  0  0
 20 46  1  0  0  0  0
 21 39  1  0  0  0  0
 22 30  2  0  0  0  0
 22 57  1  0  0  0  0
 23 83  1  0  0  0  0
 24 84  1  0  0  0  0
 25 27  2  0  0  0  0
 25 83  1  0  0  0  0
 26 85  1  0  0  0  0
 27 86  1  0  0  0  0
 28 66  2  0  0  0  0
 29 64  1  0  0  0  0
 29 67  1  0  0  0  0
 30 58  1  0  0  0  0
 30 68  1  0  0  0  0
 31 69  1  0  0  0  0
 31 72  1  0  0  0  0
 32 73  1  0  0  0  0
 32 78  2  0  0  0  0
 33 47  1  0  0  0  0
 33 74  1  0  0  0  0
 33 79  2  0  0  0  0
 34 62  1  0  0  0  0
 34 70  1  0  0  0  0
 34 80  2  0  0  0  0
 35 63  1  0  0  0  0
 35 75  1  0  0  0  0
 35 81  2  0  0  0  0
 36 71  1  0  0  0  0
 36 76  1  0  0  0  0
 36 82  2  0  0  0  0
 37 40  1  0  0  0  0
 38 47  1  0  0  0  0
 39 70  1  0  0  0  0
 40 42  1  0  0  0  0
 41 43  1  0  0  0  0
 41 44  1  0  0  0  0
 42 46  1  0  0  0  0
 43 48  1  0  0  0  0
 44 71  1  0  0  0  0
 45 48  1  0  0  0  0
 45 71  1  0  0  0  0
 46 74  1  0  0  0  0
 47 70  1  0  0  0  0
 48 69  1  0  0  0  0
 49 63  1  0  0  0  0
 50 64  1  0  0  0  0
 51 64  1  0  0  0  0
 52 64  1  0  0  0  0
 53 65  1  0  0  0  0
 54 65  1  0  0  0  0
 55 65  1  0  0  0  0
 56 77  1  0  0  0  0
 57 59  1  0  0  0  0
 58 60  1  0  0  0  0
 59 61  1  0  0  0  0
 60 76  1  0  0  0  0
 61 84  1  0  0  0  0
 62 65  1  0  0  0  0
 62 75  1  0  0  0  0
 63 77  1  0  0  0  0
 66 69  1  0  0  0  0
 67 68  2  0  0  0  0
M  CHG  1  77   1
M  ISO  4  36 100  61 101  76 100  84 101
M  END
> <Batch ID>
0083

> <Smiles>
CNC(C)C(=O)NC(C(=O)N1Cc2cc([101O:1][101CH2:1]CCc3cc(C(C)(C)C)nnc3CC[100NH:0][100C:0](=O)N3CCCC(n4nc(-c5ccc(Oc6ccc(F)cc6F)cc5)c(C(N)=O)c4N)C3)ccc2CC1C(=O)NC1CCCc2ccccc21)C(C)(C)C

> <Shape>
0.258

> <Color>
0.209

> <Negative vol penalty>
0.000

$$$$

  -OEChem-04052318513D

 87 95  0     1  0  0  0  0  0999 V2000
  -32.1033  -27.5663   15.1147 C   0  0  0  0  0  0  0  0  0  0  0  0
  -31.2583  -26.7360   15.8441 C   0  0  0  0  0  0  0  0  0  0  0  0
  -23.4542   -9.3280   19.8126 C   0  0  0  0  0  0  0  0  0  0  0  0
  -23.1826   -9.9767   22.1240 C   0  0  0  0  0  0  0  0  0  0  0  0
  -32.5504  -28.7647   15.6695 C   0  0  0  0  0  0  0  0  0  0  0  0
  -30.8607  -27.1032   17.1292 C   0  0  0  0  0  0  0  0  0  0  0  0
  -25.9102  -26.3794   17.9124 C   0  0  0  0  0  0  0  0  0  0  0  0
  -23.5232   -7.9889   20.1965 C   0  0  0  0  0  0  0  0  0  0  0  0
  -23.2515   -8.6375   22.5079 C   0  0  0  0  0  0  0  0  0  0  0  0
  -25.4894  -25.0741   18.1630 C   0  0  0  0  0  0  0  0  0  0  0  0
  -22.9945   -5.3610   24.0626 C   0  0  0  0  0  0  0  0  0  0  0  0
  -22.0629   -4.9040   24.9946 C   0  0  0  0  0  0  0  0  0  0  0  0
  -25.4155  -25.5578   20.5251 C   0  0  0  0  0  0  0  0  0  0  0  0
  -30.0160  -20.2347   20.6923 C   0  0  0  0  0  0  0  0  0  0  0  0
  -20.2676   -5.4933   23.4891 C   0  0  0  0  0  0  0  0  0  0  0  0
  -28.8482  -22.1069   21.1410 C   0  0  0  0  0  0  0  0  0  0  0  0
  -23.2839  -10.3220   20.7764 C   0  0  0  0  0  0  0  0  0  0  0  0
  -22.0578  -12.4345   20.0404 C   0  0  0  0  0  0  0  0  0  0  0  0
  -32.1504  -29.1514   16.9583 C   0  0  0  0  0  0  0  0  0  0  0  0
  -26.0976  -27.2821   18.9690 C   0  0  0  0  0  0  0  0  0  0  0  0
  -31.3039  -28.3073   17.7022 C   0  0  0  0  0  0  0  0  0  0  0  0
  -25.8363  -26.8748   20.2850 C   0  0  0  0  0  0  0  0  0  0  0  0
  -29.9150  -21.6209   20.4178 C   0  0  0  0  0  0  0  0  0  0  0  0
  -23.4218   -7.6436   21.5442 C   0  0  0  0  0  0  0  0  0  0  0  0
  -25.2447  -24.6622   19.4697 C   0  0  0  0  0  0  0  0  0  0  0  0
  -22.5627   -5.8843   22.8438 C   0  0  0  0  0  0  0  0  0  0  0  0
  -20.6994   -4.9701   24.7079 C   0  0  0  0  0  0  0  0  0  0  0  0
  -21.1992   -5.9504   22.5570 C   0  0  0  0  0  0  0  0  0  0  0  0
  -23.2131  -11.7056   20.3805 C   0  0  0  0  0  0  0  0  0  0  0  0
  -29.0076  -19.9157   21.5748 C   0  0  0  0  0  0  0  0  0  0  0  0
  -22.5209  -13.6928   19.7425 C   0  0  0  0  0  0  0  0  0  0  0  0
  -20.6884  -12.0119   19.9976 C   0  0  0  0  0  0  0  0  0  0  0  0
  -28.5797  -28.8940   20.1286 C   0  0  0  0  0  0  0  0  0  0  0  0
  -26.3190  -30.2494   22.0192 C   0  0  0  0  0  0  0  0  0  0  0  0
  -23.2455  -30.0139   23.4837 C   0  0  0  0  0  0  0  0  0  0  0  0
  -27.3242  -16.6364   21.5086 C   0  0  0  0  0  0  0  0  0  0  0  0
  -32.6975  -30.4335   17.5341 C   0  0  0  0  0  0  0  0  0  0  0  0
  -26.5262  -28.6945   18.6796 C   0  0  0  0  0  0  0  0  0  0  0  0
  -26.0028  -27.8113   21.4528 C   0  0  0  0  0  0  0  0  0  0  0  0
  -31.9294  -30.9287   18.7569 C   0  0  0  0  0  0  0  0  0  0  0  0
  -26.3923  -15.9614   18.0774 C   0  0  0  0  0  0  0  0  0  0  0  0
  -31.6839  -29.7826   19.7332 C   0  0  0  0  0  0  0  0  0  0  0  0
  -25.3530  -14.8533   18.2568 C   0  0  0  0  0  0  0  0  0  0  0  0
  -27.5309  -15.8196   19.0832 C   0  0  0  0  0  0  0  0  0  0  0  0
  -26.0549  -14.6719   20.6887 C   0  0  0  0  0  0  0  0  0  0  0  0
  -30.8307  -28.6829   19.0897 C   0  0  1  0  0  0  0  0  0  0  0  0
  -27.1796  -29.3778   19.8769 C   0  0  1  0  0  0  0  0  0  0  0  0
  -24.8661  -14.7727   19.7158 C   0  0  2  0  0  0  0  0  0  0  0  0
  -29.7919  -18.0192   23.0410 C   0  0  0  0  0  0  0  0  0  0  0  0
  -21.6866  -31.2622   25.0032 C   0  0  0  0  0  0  0  0  0  0  0  0
  -24.0037  -20.6772   20.4268 C   0  0  0  0  0  0  0  0  0  0  0  0
  -30.7501  -21.8616   18.0534 C   0  0  0  0  0  0  0  0  0  0  0  0
  -32.2861  -22.3545   19.9858 C   0  0  0  0  0  0  0  0  0  0  0  0
  -30.4568  -23.9323   19.3980 C   0  0  0  0  0  0  0  0  0  0  0  0
  -28.0357  -29.4687   24.4178 C   0  0  0  0  0  0  0  0  0  0  0  0
  -26.0444  -29.8633   25.8831 C   0  0  0  0  0  0  0  0  0  0  0  0
  -27.0128  -31.7461   24.5641 C   0  0  0  0  0  0  0  0  0  0  0  0
  -21.1509  -30.1686   21.3986 C   0  0  0  0  0  0  0  0  0  0  0  0
  -25.8117  -20.6170   22.1629 C   0  0  0  0  0  0  0  0  0  0  0  0
  -27.1124  -21.1740   22.7581 C   0  0  0  0  0  0  0  0  0  0  0  0
  -25.2126  -22.8159   20.9684 C   0  0  0  0  0  0  0  0  0  1  0  0
  -28.6579  -18.6164   22.1852 C   0  0  2  0  0  0  0  0  0  0  0  0
  -25.7222  -29.9303   23.3686 C   0  0  1  0  0  0  0  0  0  0  0  0
  -22.0889  -30.9941   23.5613 C   0  0  2  0  0  0  0  0  0  0  0  0
  -25.3428  -21.2911   20.8546 C   0  0  2  0  0  0  0  0  0  0  0  0
  -30.7906  -22.4014   19.5230 C   0  0  0  0  0  0  0  0  0  0  0  0
  -26.7024  -30.2337   24.5368 C   0  0  0  0  0  0  0  0  0  0  0  0
  -24.3265  -12.4397   20.3058 N   0  0  0  0  0  0  0  0  0  0  0  0
  -28.3040  -21.0614   21.8403 N   0  0  0  0  0  0  0  0  0  0  0  0
  -23.8729  -13.6429   19.9153 N   0  0  0  0  0  0  0  0  0  0  0  0
  -26.4298  -29.1801   21.1191 N   0  0  0  0  0  0  0  0  0  0  0  0
  -27.0012  -15.7674   20.4532 N   0  0  0  0  0  0  0  0  0  0  0  0
  -21.8994  -14.8259   19.3523 N   0  0  0  0  0  0  0  0  0  0  0  0
  -20.3878  -10.6849   20.3339 N   0  0  0  0  0  0  0  0  0  0  0  0
  -29.4380  -29.0755   19.0610 N   0  0  0  0  0  0  0  0  0  0  0  0
  -24.4619  -30.6617   23.4409 N   0  0  0  0  0  0  0  0  0  0  0  0
  -28.2330  -17.6424   21.2045 N   0  0  0  0  0  0  0  0  0  0  0  0
  -20.9041  -30.4558   22.8351 N   0  3  0  0  0  0  0  0  0  0  0  0
  -19.7607  -12.7836   19.6549 O   0  0  0  0  0  0  0  0  0  0  0  0
  -28.8608  -28.3946   21.2117 O   0  0  0  0  0  0  0  0  0  0  0  0
  -26.6672  -31.4063   21.7702 O   0  0  0  0  0  0  0  0  0  0  0  0
  -23.0859  -28.7954   23.4668 O   0  0  0  0  0  0  0  0  0  0  0  0
  -26.8344  -16.5272   22.6379 O   0  0  0  0  0  0  0  0  0  0  0  0
  -23.4889   -6.3369   21.9191 O   0  0  0  0  0  0  0  0  0  0  0  0
  -24.8345  -23.3885   19.7172 O   0  0  0  0  0  0  0  0  0  1  0  0
  -19.8050   -4.5298   25.6025 F   0  0  0  0  0  0  0  0  0  0  0  0
  -20.7784   -6.4509   21.3874 F   0  0  0  0  0  0  0  0  0  0  0  0
  1  2  1  0  0  0  0
  1  5  2  0  0  0  0
  2  6  2  0  0  0  0
  3  8  2  0  0  0  0
  3 17  1  0  0  0  0
  4  9  1  0  0  0  0
  4 17  2  0  0  0  0
  5 19  1  0  0  0  0
  6 21  1  0  0  0  0
  7 10  2  0  0  0  0
  7 20  1  0  0  0  0
  8 24  1  0  0  0  0
  9 24  2  0  0  0  0
 10 25  1  0  0  0  0
 11 12  2  0  0  0  0
 11 26  1  0  0  0  0
 12 27  1  0  0  0  0
 13 22  1  0  0  0  0
 13 25  2  0  0  0  0
 14 23  1  0  0  0  0
 14 30  2  0  0  0  0
 15 27  2  0  0  0  0
 15 28  1  0  0  0  0
 16 23  2  0  0  0  0
 16 69  1  0  0  0  0
 17 29  1  0  0  0  0
 18 29  1  0  0  0  0
 18 31  2  0  0  0  0
 18 32  1  0  0  0  0
 19 21  2  0  0  0  0
 19 37  1  0  0  0  0
 20 22  2  0  0  0  0
 20 38  1  0  0  0  0
 21 46  1  0  0  0  0
 22 39  1  0  0  0  0
 23 66  1  0  0  0  0
 24 84  1  0  0  0  0
 25 85  1  0  0  0  0
 26 28  2  0  0  0  0
 26 84  1  0  0  0  0
 27 86  1  0  0  0  0
 28 87  1  0  0  0  0
 29 68  2  0  0  0  0
 30 62  1  0  0  0  0
 30 69  1  0  0  0  0
 31 70  1  0  0  0  0
 31 73  1  0  0  0  0
 32 74  1  0  0  0  0
 32 79  2  0  0  0  0
 33 47  1  0  0  0  0
 33 75  1  0  0  0  0
 33 80  2  0  0  0  0
 34 63  1  0  0  0  0
 34 71  1  0  0  0  0
 34 81  2  0  0  0  0
 35 64  1  0  0  0  0
 35 76  1  0  0  0  0
 35 82  2  0  0  0  0
 36 72  1  0  0  0  0
 36 77  1  0  0  0  0
 36 83  2  0  0  0  0
 37 40  1  0  0  0  0
 38 47  1  0  0  0  0
 39 71  1  0  0  0  0
 40 42  1  0  0  0  0
 41 43  1  0  0  0  0
 41 44  1  0  0  0  0
 42 46  1  0  0  0  0
 43 48  1  0  0  0  0
 44 72  1  0  0  0  0
 45 48  1  0  0  0  0
 45 72  1  0  0  0  0
 46 75  1  0  0  0  0
 47 71  1  0  0  0  0
 48 70  1  0  0  0  0
 49 62  1  0  0  0  0
 50 64  1  0  0  0  0
 51 65  1  0  0  0  0
 52 66  1  0  0  0  0
 53 66  1  0  0  0  0
 54 66  1  0  0  0  0
 55 67  1  0  0  0  0
 56 67  1  0  0  0  0
 57 67  1  0  0  0  0
 58 78  1  0  0  0  0
 59 60  1  0  0  0  0
 59 65  1  0  0  0  0
 60 69  1  0  0  0  0
 61 65  1  0  0  0  0
 61 85  1  0  0  0  0
 62 77  1  0  0  0  0
 63 67  1  0  0  0  0
 63 76  1  0  0  0  0
 64 78  1  0  0  0  0
 68 70  1  0  0  0  0
M  CHG  1  78   1
M  ISO  4  36 100  61 101  77 100  85 101
M  END
> <Batch ID>
0083

> <Smiles>
CNC(C)C(=O)NC(C(=O)N1Cc2cc([101O:1][101CH2:1]C(C)CCn3cc(C(C)(C)C)cc3C(C)[100NH:0][100C:0](=O)N3CCCC(n4nc(-c5ccc(Oc6ccc(F)cc6F)cc5)c(C(N)=O)c4N)C3)ccc2CC1C(=O)NC1CCCc2ccccc21)C(C)(C)C

> <Shape>
0.250

> <Color>
0.081

> <Negative vol penalty>
0.000

$$$$

  -OEChem-04052318513D

 87 95  0     1  0  0  0  0  0999 V2000
  -34.2427  -28.5258   19.1917 C   0  0  0  0  0  0  0  0  0  0  0  0
  -33.2086  -28.1011   18.3637 C   0  0  0  0  0  0  0  0  0  0  0  0
  -27.9724  -12.9765   22.5615 C   0  0  0  0  0  0  0  0  0  0  0  0
  -26.9373  -13.2283   20.3930 C   0  0  0  0  0  0  0  0  0  0  0  0
  -34.1583  -28.3257   20.5689 C   0  0  0  0  0  0  0  0  0  0  0  0
  -32.0899  -27.4750   18.9123 C   0  0  0  0  0  0  0  0  0  0  0  0
  -26.3012  -27.9081   16.9605 C   0  0  0  0  0  0  0  0  0  0  0  0
  -27.3584  -11.7329   22.7102 C   0  0  0  0  0  0  0  0  0  0  0  0
  -26.3234  -11.9847   20.5417 C   0  0  0  0  0  0  0  0  0  0  0  0
  -25.5166  -27.0786   16.1603 C   0  0  0  0  0  0  0  0  0  0  0  0
  -23.6495  -10.7048   22.1676 C   0  0  0  0  0  0  0  0  0  0  0  0
  -22.3005  -10.6033   21.8280 C   0  0  0  0  0  0  0  0  0  0  0  0
  -24.5818  -26.0641   18.1392 C   0  0  0  0  0  0  0  0  0  0  0  0
  -26.6997  -22.5039   16.4950 C   0  0  0  0  0  0  0  0  0  0  0  0
  -22.8442   -8.9364   20.1658 C   0  0  0  0  0  0  0  0  0  0  0  0
  -26.6669  -21.9357   14.3165 C   0  0  0  0  0  0  0  0  0  0  0  0
  -27.7618  -13.7243   21.4029 C   0  0  0  0  0  0  0  0  0  0  0  0
  -29.6548  -15.2731   20.6782 C   0  0  0  0  0  0  0  0  0  0  0  0
  -33.0337  -27.7056   21.1358 C   0  0  0  0  0  0  0  0  0  0  0  0
  -26.2400  -27.8140   18.3583 C   0  0  0  0  0  0  0  0  0  0  0  0
  -31.9910  -27.2653   20.2983 C   0  0  0  0  0  0  0  0  0  0  0  0
  -25.3648  -26.8952   18.9549 C   0  0  0  0  0  0  0  0  0  0  0  0
  -25.8626  -22.3182   15.3672 C   0  0  0  0  0  0  0  0  0  0  0  0
  -26.5339  -11.2370   21.7003 C   0  0  0  0  0  0  0  0  0  0  0  0
  -24.6589  -26.1545   16.7497 C   0  0  0  0  0  0  0  0  0  0  0  0
  -24.5960   -9.9221   21.5062 C   0  0  0  0  0  0  0  0  0  0  0  0
  -21.8978   -9.7192   20.8272 C   0  0  0  0  0  0  0  0  0  0  0  0
  -24.1933   -9.0379   20.5053 C   0  0  0  0  0  0  0  0  0  0  0  0
  -28.3953  -15.0092   21.2490 C   0  0  0  0  0  0  0  0  0  0  0  0
  -27.9901  -22.2294   16.0990 C   0  0  0  0  0  0  0  0  0  0  0  0
  -29.7940  -16.6365   20.7691 C   0  0  0  0  0  0  0  0  0  0  0  0
  -30.6131  -14.3669   20.1160 C   0  0  0  0  0  0  0  0  0  0  0  0
  -28.3174  -27.0835   20.6505 C   0  0  0  0  0  0  0  0  0  0  0  0
  -25.8689  -27.9323   22.6016 C   0  0  0  0  0  0  0  0  0  0  0  0
  -22.5062  -28.3332   23.0241 C   0  0  0  0  0  0  0  0  0  0  0  0
  -27.7132  -21.7874   20.2363 C   0  0  0  0  0  0  0  0  0  0  0  0
  -33.0089  -27.4686   22.6250 C   0  0  0  0  0  0  0  0  0  0  0  0
  -27.0731  -28.7344   19.2075 C   0  0  0  0  0  0  0  0  0  0  0  0
  -25.2469  -26.7688   20.4511 C   0  0  0  0  0  0  0  0  0  0  0  0
  -31.6210  -27.1341   23.1655 C   0  0  0  0  0  0  0  0  0  0  0  0
  -27.0531  -20.0656   23.2820 C   0  0  0  0  0  0  0  0  0  0  0  0
  -30.9449  -26.0853   22.2881 C   0  0  0  0  0  0  0  0  0  0  0  0
  -27.4413  -18.6181   22.9755 C   0  0  0  0  0  0  0  0  0  0  0  0
  -26.4164  -20.7474   22.0729 C   0  0  0  0  0  0  0  0  0  0  0  0
  -27.6040  -19.2380   20.5284 C   0  0  0  0  0  0  0  0  0  0  0  0
  -30.7501  -26.6046   20.8584 C   0  0  1  0  0  0  0  0  0  0  0  0
  -27.3096  -28.1974   20.6157 C   0  0  1  0  0  0  0  0  0  0  0  0
  -28.3010  -18.5261   21.7005 C   0  0  2  0  0  0  0  0  0  0  0  0
  -23.6585  -21.1769   15.0074 C   0  0  0  0  0  0  0  0  0  0  0  0
  -20.8026  -29.0037   24.7403 C   0  0  0  0  0  0  0  0  0  0  0  0
  -30.3728  -23.1652   18.9744 C   0  0  0  0  0  0  0  0  0  0  0  0
  -26.1881  -25.2252   23.9727 C   0  0  0  0  0  0  0  0  0  0  0  0
  -23.9244  -25.5523   24.9910 C   0  0  0  0  0  0  0  0  0  0  0  0
  -25.7726  -27.1395   25.5275 C   0  0  0  0  0  0  0  0  0  0  0  0
  -28.6399  -21.2036   12.5240 C   0  0  0  0  0  0  0  0  0  0  0  0
  -29.7981  -20.2842   14.5716 C   0  0  0  0  0  0  0  0  0  0  0  0
  -30.1744  -22.6328   13.8564 C   0  0  0  0  0  0  0  0  0  0  0  0
  -21.5756  -30.6108   21.3794 C   0  0  0  0  0  0  0  0  0  0  0  0
  -29.2477  -22.2666   16.8738 C   0  0  0  0  0  0  0  0  0  0  0  0
  -23.9108  -23.5939   14.3276 C   0  0  0  0  0  0  0  0  0  0  0  0
  -24.4157  -24.9869   14.6921 C   0  0  0  0  0  0  0  0  0  1  0  0
  -24.3559  -22.5055   15.3235 C   0  0  2  0  0  0  0  0  0  0  0  0
  -24.7066  -27.2072   23.2359 C   0  0  1  0  0  0  0  0  0  0  0  0
  -21.6929  -29.4773   23.6020 C   0  0  2  0  0  0  0  0  0  0  0  0
  -29.0653  -22.6800   18.3564 C   0  0  1  0  0  0  0  0  0  0  0  0
  -25.1514  -26.2818   24.4035 C   0  0  0  0  0  0  0  0  0  0  0  0
  -29.1008  -21.5217   13.9638 C   0  0  0  0  0  0  0  0  0  0  0  0
  -27.7784  -16.1161   21.6714 N   0  0  0  0  0  0  0  0  0  0  0  0
  -27.9582  -21.8853   14.7729 N   0  0  0  0  0  0  0  0  0  0  0  0
  -28.6541  -17.0887   21.3659 N   0  0  0  0  0  0  0  0  0  0  0  0
  -26.0867  -27.6864   21.2386 N   0  0  0  0  0  0  0  0  0  0  0  0
  -27.2827  -20.6255   20.8979 N   0  0  0  0  0  0  0  0  0  0  0  0
  -30.7792  -17.4807   20.3960 N   0  0  0  0  0  0  0  0  0  0  0  0
  -30.3107  -12.9985   20.1023 N   0  0  0  0  0  0  0  0  0  0  0  0
  -29.6231  -27.5106   20.7990 N   0  0  0  0  0  0  0  0  0  0  0  0
  -23.7454  -28.2349   23.6209 N   0  0  0  0  0  0  0  0  0  0  0  0
  -28.5366  -21.5829   19.1359 N   0  0  0  0  0  0  0  0  0  0  0  0
  -20.8284  -30.0817   22.5493 N   0  3  0  0  0  0  0  0  0  0  0  0
  -31.7124  -14.7573   19.6548 O   0  0  0  0  0  0  0  0  0  0  0  0
  -27.9382  -25.9224   20.5515 O   0  0  0  0  0  0  0  0  0  0  0  0
  -26.5538  -28.6944   23.2885 O   0  0  0  0  0  0  0  0  0  0  0  0
  -22.0830  -27.5977   22.1350 O   0  0  0  0  0  0  0  0  0  0  0  0
  -27.3921  -22.9231   20.6025 O   0  0  0  0  0  0  0  0  0  0  0  0
  -25.9349  -10.0234   21.8449 O   0  0  0  0  0  0  0  0  0  0  0  0
  -23.8924  -25.3432   15.9710 O   0  0  0  0  0  0  0  0  0  1  0  0
  -20.6020   -9.6207   20.5023 F   0  0  0  0  0  0  0  0  0  0  0  0
  -25.0977   -8.2826   19.8672 F   0  0  0  0  0  0  0  0  0  0  0  0
  1  2  1  0  0  0  0
  1  5  2  0  0  0  0
  2  6  2  0  0  0  0
  3  8  2  0  0  0  0
  3 17  1  0  0  0  0
  4  9  1  0  0  0  0
  4 17  2  0  0  0  0
  5 19  1  0  0  0  0
  6 21  1  0  0  0  0
  7 10  2  0  0  0  0
  7 20  1  0  0  0  0
  8 24  1  0  0  0  0
  9 24  2  0  0  0  0
 10 25  1  0  0  0  0
 11 12  2  0  0  0  0
 11 26  1  0  0  0  0
 12 27  1  0  0  0  0
 13 22  1  0  0  0  0
 13 25  2  0  0  0  0
 14 23  1  0  0  0  0
 14 30  2  0  0  0  0
 15 27  2  0  0  0  0
 15 28  1  0  0  0  0
 16 23  2  0  0  0  0
 16 69  1  0  0  0  0
 17 29  1  0  0  0  0
 18 29  1  0  0  0  0
 18 31  2  0  0  0  0
 18 32  1  0  0  0  0
 19 21  2  0  0  0  0
 19 37  1  0  0  0  0
 20 22  2  0  0  0  0
 20 38  1  0  0  0  0
 21 46  1  0  0  0  0
 22 39  1  0  0  0  0
 23 62  1  0  0  0  0
 24 84  1  0  0  0  0
 25 85  1  0  0  0  0
 26 28  2  0  0  0  0
 26 84  1  0  0  0  0
 27 86  1  0  0  0  0
 28 87  1  0  0  0  0
 29 68  2  0  0  0  0
 30 59  1  0  0  0  0
 30 69  1  0  0  0  0
 31 70  1  0  0  0  0
 31 73  1  0  0  0  0
 32 74  1  0  0  0  0
 32 79  2  0  0  0  0
 33 47  1  0  0  0  0
 33 75  1  0  0  0  0
 33 80  2  0  0  0  0
 34 63  1  0  0  0  0
 34 71  1  0  0  0  0
 34 81  2  0  0  0  0
 35 64  1  0  0  0  0
 35 76  1  0  0  0  0
 35 82  2  0  0  0  0
 36 72  1  0  0  0  0
 36 77  1  0  0  0  0
 36 83  2  0  0  0  0
 37 40  1  0  0  0  0
 38 47  1  0  0  0  0
 39 71  1  0  0  0  0
 40 42  1  0  0  0  0
 41 43  1  0  0  0  0
 41 44  1  0  0  0  0
 42 46  1  0  0  0  0
 43 48  1  0  0  0  0
 44 72  1  0  0  0  0
 45 48  1  0  0  0  0
 45 72  1  0  0  0  0
 46 75  1  0  0  0  0
 47 71  1  0  0  0  0
 48 70  1  0  0  0  0
 49 62  1  0  0  0  0
 50 64  1  0  0  0  0
 51 65  1  0  0  0  0
 52 66  1  0  0  0  0
 53 66  1  0  0  0  0
 54 66  1  0  0  0  0
 55 67  1  0  0  0  0
 56 67  1  0  0  0  0
 57 67  1  0  0  0  0
 58 78  1  0  0  0  0
 59 65  1  0  0  0  0
 60 61  1  0  0  0  0
 60 62  1  0  0  0  0
 61 85  1  0  0  0  0
 63 66  1  0  0  0  0
 63 76  1  0  0  0  0
 64 78  1  0  0  0  0
 65 77  1  0  0  0  0
 67 69  1  0  0  0  0
 68 70  1  0  0  0  0
M  CHG  1  78   1
M  ISO  4  36 100  61 101  77 100  85 101
M  END
> <Batch ID>
0083

> <Smiles>
CNC(C)C(=O)NC(C(=O)N1Cc2cc([101O:1][101CH2:1]CC(C)c3cc(CC(C)[100NH:0][100C:0](=O)N4CCCC(n5nc(-c6ccc(Oc7ccc(F)cc7F)cc6)c(C(N)=O)c5N)C4)n(C(C)(C)C)c3)ccc2CC1C(=O)NC1CCCc2ccccc21)C(C)(C)C

> <Shape>
0.211

> <Color>
0.068

> <Negative vol penalty>
0.000

$$$$

  -OEChem-04052318513D

 85 93  0     1  0  0  0  0  0999 V2000
  -23.0128  -13.1013   18.3238 C   0  0  0  0  0  0  0  0  0  0  0  0
  -22.7231  -14.4508   18.4977 C   0  0  0  0  0  0  0  0  0  0  0  0
  -31.2262  -30.5644   19.7854 C   0  0  0  0  0  0  0  0  0  0  0  0
  -31.1732  -29.9144   22.1117 C   0  0  0  0  0  0  0  0  0  0  0  0
  -24.0981  -12.5313   18.9880 C   0  0  0  0  0  0  0  0  0  0  0  0
  -23.5179  -15.2309   19.3369 C   0  0  0  0  0  0  0  0  0  0  0  0
  -24.9666  -21.1348   18.5941 C   0  0  0  0  0  0  0  0  0  0  0  0
  -32.2719  -31.4470   20.0558 C   0  0  0  0  0  0  0  0  0  0  0  0
  -32.2189  -30.7970   22.3821 C   0  0  0  0  0  0  0  0  0  0  0  0
  -24.4439  -22.3050   19.1428 C   0  0  0  0  0  0  0  0  0  0  0  0
  -34.6332  -33.1416   23.7546 C   0  0  0  0  0  0  0  0  0  0  0  0
  -34.5234  -33.9496   24.8863 C   0  0  0  0  0  0  0  0  0  0  0  0
  -26.1721  -22.2806   20.8256 C   0  0  0  0  0  0  0  0  0  0  0  0
  -18.4157  -26.4433   22.2411 C   0  0  0  0  0  0  0  0  0  0  0  0
  -32.5047  -34.9295   23.9907 C   0  0  0  0  0  0  0  0  0  0  0  0
  -30.6768  -29.7981   20.8133 C   0  0  0  0  0  0  0  0  0  0  0  0
  -29.7006  -27.5339   20.1592 C   0  0  0  0  0  0  0  0  0  0  0  0
  -24.9124  -13.3070   19.8282 C   0  0  0  0  0  0  0  0  0  0  0  0
  -26.0913  -20.5216   19.1646 C   0  0  0  0  0  0  0  0  0  0  0  0
  -24.6143  -14.6704   20.0140 C   0  0  0  0  0  0  0  0  0  0  0  0
  -26.7086  -21.1040   20.2807 C   0  0  0  0  0  0  0  0  0  0  0  0
  -17.3713  -27.3403   22.0463 C   0  0  0  0  0  0  0  0  0  0  0  0
  -32.7683  -31.5633   21.3541 C   0  0  0  0  0  0  0  0  0  0  0  0
  -25.0449  -22.8766   20.2604 C   0  0  0  0  0  0  0  0  0  0  0  0
  -33.6788  -33.2276   22.7409 C   0  0  0  0  0  0  0  0  0  0  0  0
  -19.6480  -26.9062   22.6887 C   0  0  0  0  0  0  0  0  0  0  0  0
  -33.4592  -34.8435   25.0044 C   0  0  0  0  0  0  0  0  0  0  0  0
  -32.6146  -34.1215   22.8590 C   0  0  0  0  0  0  0  0  0  0  0  0
  -29.5962  -28.8867   20.5347 C   0  0  0  0  0  0  0  0  0  0  0  0
  -17.6086  -28.6794   22.3114 C   0  0  0  0  0  0  0  0  0  0  0  0
  -19.7835  -28.2647   22.9248 C   0  0  0  0  0  0  0  0  0  0  0  0
  -28.4001  -27.1166   20.0139 C   0  0  0  0  0  0  0  0  0  0  0  0
  -30.8686  -26.7266   19.9598 C   0  0  0  0  0  0  0  0  0  0  0  0
  -26.6657  -17.7024   20.5158 C   0  0  0  0  0  0  0  0  0  0  0  0
  -29.7287  -18.7703   20.5285 C   0  0  0  0  0  0  0  0  0  0  0  0
  -31.8710  -21.4266   20.4900 C   0  0  0  0  0  0  0  0  0  0  0  0
  -23.3654  -29.0143   22.4441 C   0  0  0  0  0  0  0  0  0  0  0  0
  -26.0462  -12.6357   20.5620 C   0  0  0  0  0  0  0  0  0  0  0  0
  -26.6588  -19.2742   18.5446 C   0  0  0  0  0  0  0  0  0  0  0  0
  -27.9302  -20.4962   20.9185 C   0  0  0  0  0  0  0  0  0  0  0  0
  -27.0629  -13.6166   21.1404 C   0  0  0  0  0  0  0  0  0  0  0  0
  -24.0438  -28.7557   18.8986 C   0  0  0  0  0  0  0  0  0  0  0  0
  -26.3529  -14.7576   21.8621 C   0  0  0  0  0  0  0  0  0  0  0  0
  -25.5684  -28.6305   18.8890 C   0  0  0  0  0  0  0  0  0  0  0  0
  -23.5752  -29.7200   19.9843 C   0  0  0  0  0  0  0  0  0  0  0  0
  -25.5750  -29.2571   21.3481 C   0  0  0  0  0  0  0  0  0  0  0  0
  -25.4678  -15.5551   20.8966 C   0  0  1  0  0  0  0  0  0  0  0  0
  -27.5002  -18.4533   19.5170 C   0  0  1  0  0  0  0  0  0  0  0  0
  -26.1105  -28.2786   20.2871 C   0  0  2  0  0  0  0  0  0  0  0  0
  -16.0487  -26.8507   21.5668 C   0  0  0  0  0  0  0  0  0  0  0  0
  -16.5235  -29.6879   22.1198 C   0  0  0  0  0  0  0  0  0  0  0  0
  -20.9176  -30.0580   24.2885 C   0  0  0  0  0  0  0  0  0  0  0  0
  -34.3167  -21.9858   20.5467 C   0  0  0  0  0  0  0  0  0  0  0  0
  -29.7952  -18.1653   23.5184 C   0  0  0  0  0  0  0  0  0  0  0  0
  -31.8464  -19.5905   23.6903 C   0  0  0  0  0  0  0  0  0  0  0  0
  -31.8738  -17.5333   22.2796 C   0  0  0  0  0  0  0  0  0  0  0  0
  -31.7490  -22.7469   17.8441 C   0  0  0  0  0  0  0  0  0  0  0  0
  -22.6124  -25.0187   21.8564 C   0  0  0  0  0  0  0  0  0  0  0  0
  -23.1316  -24.2300   20.6645 C   0  0  0  0  0  0  0  0  0  1  0  0
  -21.1196  -25.2892   21.7530 C   0  0  0  0  0  0  0  0  0  0  0  0
  -21.0863  -28.8144   23.4049 C   0  0  2  0  0  0  0  0  0  0  0  0
  -30.5819  -19.5589   21.4923 C   0  0  1  0  0  0  0  0  0  0  0  0
  -33.1115  -21.7082   19.6617 C   0  0  2  0  0  0  0  0  0  0  0  0
  -31.0002  -18.7226   22.7345 C   0  0  0  0  0  0  0  0  0  0  0  0
  -28.3296  -29.3013   20.6222 N   0  0  0  0  0  0  0  0  0  0  0  0
  -18.7920  -29.1665   22.7472 N   0  0  0  0  0  0  0  0  0  0  0  0
  -27.6260  -28.2026   20.2996 N   0  0  0  0  0  0  0  0  0  0  0  0
  -28.4438  -19.2733   20.2796 N   0  0  0  0  0  0  0  0  0  0  0  0
  -24.1106  -29.3184   21.2927 N   0  0  0  0  0  0  0  0  0  0  0  0
  -27.8546  -25.9304   19.6707 N   0  0  0  0  0  0  0  0  0  0  0  0
  -32.1269  -27.3133   20.1516 N   0  0  0  0  0  0  0  0  0  0  0  0
  -26.2743  -16.4470   20.0912 N   0  0  0  0  0  0  0  0  0  0  0  0
  -31.7030  -20.0767   20.7155 N   0  0  0  0  0  0  0  0  0  0  0  0
  -21.9852  -29.1029   22.3096 N   0  0  0  0  0  0  0  0  0  0  0  0
  -32.8905  -22.8921   18.7838 N   0  3  0  0  0  0  0  0  0  0  0  0
  -30.7988  -25.5253   19.6056 O   0  0  0  0  0  0  0  0  0  0  0  0
  -26.3980  -18.2228   21.5924 O   0  0  0  0  0  0  0  0  0  0  0  0
  -30.1879  -17.7497   20.0098 O   0  0  0  0  0  0  0  0  0  0  0  0
  -31.1275  -22.3155   20.8995 O   0  0  0  0  0  0  0  0  0  0  0  0
  -23.8910  -28.6828   23.5122 O   0  0  0  0  0  0  0  0  0  0  0  0
  -33.7888  -32.4242   21.6184 O   0  0  0  0  0  0  0  0  0  0  0  0
  -24.5365  -24.0184   20.7984 O   0  0  0  0  0  0  0  0  0  1  0  0
  -20.6842  -26.0307   22.8845 O   0  0  0  0  0  0  0  0  0  0  0  0
  -33.3530  -35.6182   26.0919 F   0  0  0  0  0  0  0  0  0  0  0  0
  -31.6940  -34.2078   21.8890 F   0  0  0  0  0  0  0  0  0  0  0  0
  1  2  1  0  0  0  0
  1  5  2  0  0  0  0
  2  6  2  0  0  0  0
  3  8  2  0  0  0  0
  3 16  1  0  0  0  0
  4  9  1  0  0  0  0
  4 16  2  0  0  0  0
  5 18  1  0  0  0  0
  6 20  1  0  0  0  0
  7 10  2  0  0  0  0
  7 19  1  0  0  0  0
  8 23  1  0  0  0  0
  9 23  2  0  0  0  0
 10 24  1  0  0  0  0
 11 12  2  0  0  0  0
 11 25  1  0  0  0  0
 12 27  1  0  0  0  0
 13 21  1  0  0  0  0
 13 24  2  0  0  0  0
 14 22  2  0  0  0  0
 14 26  1  0  0  0  0
 15 27  2  0  0  0  0
 15 28  1  0  0  0  0
 16 29  1  0  0  0  0
 17 29  1  0  0  0  0
 17 32  2  0  0  0  0
 17 33  1  0  0  0  0
 18 20  2  0  0  0  0
 18 38  1  0  0  0  0
 19 21  2  0  0  0  0
 19 39  1  0  0  0  0
 20 47  1  0  0  0  0
 21 40  1  0  0  0  0
 22 30  1  0  0  0  0
 22 50  1  0  0  0  0
 23 81  1  0  0  0  0
 24 82  1  0  0  0  0
 25 28  2  0  0  0  0
 25 81  1  0  0  0  0
 26 31  2  0  0  0  0
 26 83  1  0  0  0  0
 27 84  1  0  0  0  0
 28 85  1  0  0  0  0
 29 65  2  0  0  0  0
 30 51  1  0  0  0  0
 30 66  2  0  0  0  0
 31 61  1  0  0  0  0
 31 66  1  0  0  0  0
 32 67  1  0  0  0  0
 32 70  1  0  0  0  0
 33 71  1  0  0  0  0
 33 76  2  0  0  0  0
 34 48  1  0  0  0  0
 34 72  1  0  0  0  0
 34 77  2  0  0  0  0
 35 62  1  0  0  0  0
 35 68  1  0  0  0  0
 35 78  2  0  0  0  0
 36 63  1  0  0  0  0
 36 73  1  0  0  0  0
 36 79  2  0  0  0  0
 37 69  1  0  0  0  0
 37 74  1  0  0  0  0
 37 80  2  0  0  0  0
 38 41  1  0  0  0  0
 39 48  1  0  0  0  0
 40 68  1  0  0  0  0
 41 43  1  0  0  0  0
 42 44  1  0  0  0  0
 42 45  1  0  0  0  0
 43 47  1  0  0  0  0
 44 49  1  0  0  0  0
 45 69  1  0  0  0  0
 46 49  1  0  0  0  0
 46 69  1  0  0  0  0
 47 72  1  0  0  0  0
 48 68  1  0  0  0  0
 49 67  1  0  0  0  0
 52 61  1  0  0  0  0
 53 63  1  0  0  0  0
 54 64  1  0  0  0  0
 55 64  1  0  0  0  0
 56 64  1  0  0  0  0
 57 75  1  0  0  0  0
 58 59  1  0  0  0  0
 58 60  1  0  0  0  0
 59 82  1  0  0  0  0
 60 83  1  0  0  0  0
 61 74  1  0  0  0  0
 62 64  1  0  0  0  0
 62 73  1  0  0  0  0
 63 75  1  0  0  0  0
 65 67  1  0  0  0  0
M  CHG  1  75   1
M  ISO  4  37 100  59 101  74 100  82 101
M  END
> <Batch ID>
0083

> <Smiles>
CNC(C)C(=O)NC(C(=O)N1Cc2cc([101O:1][101CH2:1]CCOc3cc(C)c(C)nc3C(C)[100NH:0][100C:0](=O)N3CCCC(n4nc(-c5ccc(Oc6ccc(F)cc6F)cc5)c(C(N)=O)c4N)C3)ccc2CC1C(=O)NC1CCCc2ccccc21)C(C)(C)C

> <Shape>
0.231

> <Color>
0.091

> <Negative vol penalty>
0.000

$$$$

  -OEChem-04052318513D

 91 99  0     1  0  0  0  0  0999 V2000
  -24.1101  -29.9115   29.6756 C   0  0  0  0  0  0  0  0  0  0  0  0
  -24.7361  -28.9331   28.9098 C   0  0  0  0  0  0  0  0  0  0  0  0
  -23.0746   -9.8683   19.9420 C   0  0  0  0  0  0  0  0  0  0  0  0
  -23.8381   -9.8756   22.2341 C   0  0  0  0  0  0  0  0  0  0  0  0
  -22.8307  -29.6862   30.1819 C   0  0  0  0  0  0  0  0  0  0  0  0
  -24.0834  -27.7284   28.6508 C   0  0  0  0  0  0  0  0  0  0  0  0
  -24.4385  -24.3738   23.5394 C   0  0  0  0  0  0  0  0  0  0  0  0
  -22.3321   -8.7145   20.1929 C   0  0  0  0  0  0  0  0  0  0  0  0
  -23.0955   -8.7218   22.4851 C   0  0  0  0  0  0  0  0  0  0  0  0
  -25.1863  -23.2446   23.2086 C   0  0  0  0  0  0  0  0  0  0  0  0
  -19.8689   -7.9213   23.0926 C   0  0  0  0  0  0  0  0  0  0  0  0
  -19.1139   -7.8805   24.2647 C   0  0  0  0  0  0  0  0  0  0  0  0
  -23.3098  -21.8414   23.7821 C   0  0  0  0  0  0  0  0  0  0  0  0
  -28.6768  -17.0606   24.2898 C   0  0  0  0  0  0  0  0  0  0  0  0
  -20.3580   -5.9440   24.9989 C   0  0  0  0  0  0  0  0  0  0  0  0
  -23.8276  -10.4489   20.9626 C   0  0  0  0  0  0  0  0  0  0  0  0
  -24.1672  -12.9743   20.8424 C   0  0  0  0  0  0  0  0  0  0  0  0
  -22.1581  -28.4821   29.9208 C   0  0  0  0  0  0  0  0  0  0  0  0
  -23.1222  -24.2445   24.0051 C   0  0  0  0  0  0  0  0  0  0  0  0
  -22.7943  -27.4864   29.1551 C   0  0  0  0  0  0  0  0  0  0  0  0
  -22.5466  -22.9707   24.1157 C   0  0  0  0  0  0  0  0  0  0  0  0
  -27.3580  -16.6466   24.6005 C   0  0  0  0  0  0  0  0  0  0  0  0
  -22.3425   -8.1413   21.4645 C   0  0  0  0  0  0  0  0  0  0  0  0
  -24.6230  -21.9780   23.3327 C   0  0  0  0  0  0  0  0  0  0  0  0
  -20.8685   -6.9733   22.8736 C   0  0  0  0  0  0  0  0  0  0  0  0
  -19.3584   -6.8920   25.2178 C   0  0  0  0  0  0  0  0  0  0  0  0
  -21.1131   -5.9847   23.8268 C   0  0  0  0  0  0  0  0  0  0  0  0
  -24.5953  -11.6404   20.7038 C   0  0  0  0  0  0  0  0  0  0  0  0
  -29.5000  -15.9683   24.4527 C   0  0  0  0  0  0  0  0  0  0  0  0
  -27.4155  -15.3139   24.9441 C   0  0  0  0  0  0  0  0  0  0  0  0
  -25.2581  -13.7248   20.4775 C   0  0  0  0  0  0  0  0  0  0  0  0
  -22.8969  -13.4890   21.2633 C   0  0  0  0  0  0  0  0  0  0  0  0
  -21.6143  -24.9867   26.7031 C   0  0  0  0  0  0  0  0  0  0  0  0
  -18.9937  -24.0429   25.0407 C   0  0  0  0  0  0  0  0  0  0  0  0
  -17.6956  -22.1889   22.4864 C   0  0  0  0  0  0  0  0  0  0  0  0
  -30.7413  -14.7483   20.6574 C   0  0  0  0  0  0  0  0  0  0  0  0
  -20.7951  -28.2652   30.5290 C   0  0  0  0  0  0  0  0  0  0  0  0
  -22.3199  -25.4740   24.3323 C   0  0  0  0  0  0  0  0  0  0  0  0
  -21.1305  -22.7790   24.5917 C   0  0  0  0  0  0  0  0  0  0  0  0
  -20.0218  -27.1117   29.8953 C   0  0  0  0  0  0  0  0  0  0  0  0
  -29.6020  -12.3632   18.2721 C   0  0  0  0  0  0  0  0  0  0  0  0
  -20.9166  -25.8848   29.7509 C   0  0  0  0  0  0  0  0  0  0  0  0
  -28.1655  -12.0682   18.7072 C   0  0  0  0  0  0  0  0  0  0  0  0
  -30.5208  -12.5846   19.4716 C   0  0  0  0  0  0  0  0  0  0  0  0
  -28.6206  -13.3139   20.8612 C   0  0  0  0  0  0  0  0  0  0  0  0
  -22.1088  -26.1766   28.8316 C   0  0  1  0  0  0  0  0  0  0  0  0
  -21.1618  -25.1956   25.2856 C   0  0  1  0  0  0  0  0  0  0  0  0
  -27.6448  -13.1387   19.6851 C   0  0  2  0  0  0  0  0  0  0  0  0
  -30.7866  -12.1644   26.4884 C   0  0  0  0  0  0  0  0  0  0  0  0
  -15.5156  -21.5889   21.3978 C   0  0  0  0  0  0  0  0  0  0  0  0
  -24.9434  -15.0988   25.3782 C   0  0  0  0  0  0  0  0  0  0  0  0
  -26.5842  -13.8100   26.7864 C   0  0  0  0  0  0  0  0  0  0  0  0
  -26.1334  -13.1284   24.4382 C   0  0  0  0  0  0  0  0  0  0  0  0
  -18.3626  -22.1531   27.3516 C   0  0  0  0  0  0  0  0  0  0  0  0
  -16.7822  -20.9394   25.8358 C   0  0  0  0  0  0  0  0  0  0  0  0
  -16.3756  -23.3354   26.3984 C   0  0  0  0  0  0  0  0  0  0  0  0
  -31.8761  -18.1840   23.7551 C   0  0  0  0  0  0  0  0  0  0  0  0
  -33.0368  -16.1812   22.8412 C   0  0  0  0  0  0  0  0  0  0  0  0
  -18.5313  -23.3607   19.9005 C   0  0  0  0  0  0  0  0  0  0  0  0
  -26.1239  -17.5119   24.5595 C   0  0  0  0  0  0  0  0  0  0  0  0
  -30.9598  -15.8463   24.2613 C   0  0  0  0  0  0  0  0  0  0  0  0
  -30.2807  -13.5716   26.2170 C   0  0  0  0  0  0  0  0  0  0  0  0
  -26.3281  -18.8419   23.8307 C   0  0  0  0  0  0  0  0  0  0  0  0
  -29.2081  -13.5772   25.1301 C   0  0  0  0  0  0  0  0  0  0  0  0
  -30.8073  -16.8987   21.8945 C   0  0  0  0  0  0  0  0  0  0  0  0
  -25.0542  -19.6714   23.7197 C   0  0  0  0  0  0  0  0  0  1  0  0
  -18.2710  -22.7332   24.8374 C   0  0  1  0  0  0  0  0  0  0  0  0
  -16.7040  -22.5378   21.3912 C   0  0  2  0  0  0  0  0  0  0  0  0
  -26.3375  -14.3883   25.3532 C   0  0  0  0  0  0  0  0  0  0  0  0
  -17.4752  -22.2935   26.0986 C   0  0  0  0  0  0  0  0  0  0  0  0
  -31.6487  -16.7682   23.1866 C   0  0  0  0  0  0  0  0  0  0  0  0
  -25.8596  -11.5457   20.2835 N   0  0  0  0  0  0  0  0  0  0  0  0
  -28.7224  -14.9123   24.8509 N   0  0  0  0  0  0  0  0  0  0  0  0
  -26.2352  -12.8296   20.1548 N   0  0  0  0  0  0  0  0  0  0  0  0
  -20.3888  -24.0115   24.9053 N   0  0  0  0  0  0  0  0  0  0  0  0
  -29.9708  -13.6125   20.3586 N   0  0  0  0  0  0  0  0  0  0  0  0
  -25.4673  -15.0564   20.4043 N   0  0  0  0  0  0  0  0  0  0  0  0
  -21.8863  -12.5790   21.6021 N   0  0  0  0  0  0  0  0  0  0  0  0
  -21.6961  -26.1498   27.4448 N   0  0  0  0  0  0  0  0  0  0  0  0
  -17.4515  -22.9004   23.6420 N   0  0  0  0  0  0  0  0  0  0  0  0
  -30.1427  -15.6765   21.5005 N   0  0  0  0  0  0  0  0  0  0  0  0
  -17.3596  -22.4607   20.0551 N   0  3  0  0  0  0  0  0  0  0  0  0
  -22.6598  -14.7194   21.3212 O   0  0  0  0  0  0  0  0  0  0  0  0
  -21.8689  -23.8540   27.0954 O   0  0  0  0  0  0  0  0  0  0  0  0
  -18.3436  -25.0580   25.3026 O   0  0  0  0  0  0  0  0  0  0  0  0
  -18.5943  -21.3646   22.3334 O   0  0  0  0  0  0  0  0  0  0  0  0
  -31.8764  -14.9248   20.2020 O   0  0  0  0  0  0  0  0  0  0  0  0
  -21.6178   -7.0156   21.7098 O   0  0  0  0  0  0  0  0  0  0  0  0
  -25.3509  -20.8740   23.0112 O   0  0  0  0  0  0  0  0  0  1  0  0
  -18.6343   -6.8539   26.3440 F   0  0  0  0  0  0  0  0  0  0  0  0
  -22.0728   -5.0721   23.6225 F   0  0  0  0  0  0  0  0  0  0  0  0
  1  2  1  0  0  0  0
  1  5  2  0  0  0  0
  2  6  2  0  0  0  0
  3  8  2  0  0  0  0
  3 16  1  0  0  0  0
  4  9  1  0  0  0  0
  4 16  2  0  0  0  0
  5 18  1  0  0  0  0
  6 20  1  0  0  0  0
  7 10  2  0  0  0  0
  7 19  1  0  0  0  0
  8 23  1  0  0  0  0
  9 23  2  0  0  0  0
 10 24  1  0  0  0  0
 11 12  2  0  0  0  0
 11 25  1  0  0  0  0
 12 26  1  0  0  0  0
 13 21  1  0  0  0  0
 13 24  2  0  0  0  0
 14 22  1  0  0  0  0
 14 29  2  0  0  0  0
 15 26  2  0  0  0  0
 15 27  1  0  0  0  0
 16 28  1  0  0  0  0
 17 28  1  0  0  0  0
 17 31  2  0  0  0  0
 17 32  1  0  0  0  0
 18 20  2  0  0  0  0
 18 37  1  0  0  0  0
 19 21  2  0  0  0  0
 19 38  1  0  0  0  0
 20 46  1  0  0  0  0
 21 39  1  0  0  0  0
 22 30  2  0  0  0  0
 22 60  1  0  0  0  0
 23 88  1  0  0  0  0
 24 89  1  0  0  0  0
 25 27  2  0  0  0  0
 25 88  1  0  0  0  0
 26 90  1  0  0  0  0
 27 91  1  0  0  0  0
 28 72  2  0  0  0  0
 29 61  1  0  0  0  0
 29 73  1  0  0  0  0
 30 69  1  0  0  0  0
 30 73  1  0  0  0  0
 31 74  1  0  0  0  0
 31 77  1  0  0  0  0
 32 78  1  0  0  0  0
 32 83  2  0  0  0  0
 33 47  1  0  0  0  0
 33 79  1  0  0  0  0
 33 84  2  0  0  0  0
 34 67  1  0  0  0  0
 34 75  1  0  0  0  0
 34 85  2  0  0  0  0
 35 68  1  0  0  0  0
 35 80  1  0  0  0  0
 35 86  2  0  0  0  0
 36 76  1  0  0  0  0
 36 81  1  0  0  0  0
 36 87  2  0  0  0  0
 37 40  1  0  0  0  0
 38 47  1  0  0  0  0
 39 75  1  0  0  0  0
 40 42  1  0  0  0  0
 41 43  1  0  0  0  0
 41 44  1  0  0  0  0
 42 46  1  0  0  0  0
 43 48  1  0  0  0  0
 44 76  1  0  0  0  0
 45 48  1  0  0  0  0
 45 76  1  0  0  0  0
 46 79  1  0  0  0  0
 47 75  1  0  0  0  0
 48 74  1  0  0  0  0
 49 62  1  0  0  0  0
 50 68  1  0  0  0  0
 51 69  1  0  0  0  0
 52 69  1  0  0  0  0
 53 69  1  0  0  0  0
 54 70  1  0  0  0  0
 55 70  1  0  0  0  0
 56 70  1  0  0  0  0
 57 71  1  0  0  0  0
 58 71  1  0  0  0  0
 59 82  1  0  0  0  0
 60 63  1  0  0  0  0
 61 71  1  0  0  0  0
 62 64  1  0  0  0  0
 63 66  1  0  0  0  0
 64 73  1  0  0  0  0
 65 71  1  0  0  0  0
 65 81  1  0  0  0  0
 66 89  1  0  0  0  0
 67 70  1  0  0  0  0
 67 80  1  0  0  0  0
 68 82  1  0  0  0  0
 72 74  1  0  0  0  0
M  CHG  1  82   1
M  ISO  4  36 100  66 101  81 100  89 101
M  END
> <Batch ID>
0083

> <Smiles>
CCCn1c(CC(C)(C)C[100NH:0][100C:0](=O)N2CCCC(n3nc(-c4ccc(Oc5ccc(F)cc5F)cc4)c(C(N)=O)c3N)C2)cc(CC[101CH2:1][101O:1]c2ccc3c(c2)CN(C(=O)C(NC(=O)C(C)NC)C(C)(C)C)C(C(=O)NC2CCCc4ccccc42)C3)c1C(C)(C)C

> <Shape>
0.163

> <Color>
0.187

> <Negative vol penalty>
0.000

$$$$

  -OEChem-04052318513D

 84 92  0     1  0  0  0  0  0999 V2000
  -17.8964  -25.0452   21.4572 C   0  0  0  0  0  0  0  0  0  0  0  0
  -19.2355  -24.9035   21.1076 C   0  0  0  0  0  0  0  0  0  0  0  0
  -25.4235  -13.0843   22.0649 C   0  0  0  0  0  0  0  0  0  0  0  0
  -26.1259  -13.5460   19.7998 C   0  0  0  0  0  0  0  0  0  0  0  0
  -17.4789  -26.1662   22.1734 C   0  0  0  0  0  0  0  0  0  0  0  0
  -20.1577  -25.8834   21.4731 C   0  0  0  0  0  0  0  0  0  0  0  0
  -24.4374  -23.9235   23.3407 C   0  0  0  0  0  0  0  0  0  0  0  0
  -25.2043  -11.7494   21.7248 C   0  0  0  0  0  0  0  0  0  0  0  0
  -25.9068  -12.2111   19.4598 C   0  0  0  0  0  0  0  0  0  0  0  0
  -25.3556  -23.4110   22.4252 C   0  0  0  0  0  0  0  0  0  0  0  0
  -24.1171   -8.2983   21.3617 C   0  0  0  0  0  0  0  0  0  0  0  0
  -22.9382   -7.6996   21.8057 C   0  0  0  0  0  0  0  0  0  0  0  0
  -26.6477  -25.4411   22.5939 C   0  0  0  0  0  0  0  0  0  0  0  0
  -29.1898  -23.9431   18.3923 C   0  0  0  0  0  0  0  0  0  0  0  0
  -21.6471   -9.3387   20.5877 C   0  0  0  0  0  0  0  0  0  0  0  0
  -25.8842  -13.9826   21.1023 C   0  0  0  0  0  0  0  0  0  0  0  0
  -27.3027  -15.9311   21.9384 C   0  0  0  0  0  0  0  0  0  0  0  0
  -18.3982  -27.1556   22.5562 C   0  0  0  0  0  0  0  0  0  0  0  0
  -24.6120  -25.2051   23.8823 C   0  0  0  0  0  0  0  0  0  0  0  0
  -19.7519  -27.0194   22.1940 C   0  0  0  0  0  0  0  0  0  0  0  0
  -25.7317  -25.9665   23.5180 C   0  0  0  0  0  0  0  0  0  0  0  0
  -28.2011  -22.9772   18.4562 C   0  0  0  0  0  0  0  0  0  0  0  0
  -25.4460  -11.3128   20.4223 C   0  0  0  0  0  0  0  0  0  0  0  0
  -26.4594  -24.1710   22.0495 C   0  0  0  0  0  0  0  0  0  0  0  0
  -24.0611   -9.4174   20.5308 C   0  0  0  0  0  0  0  0  0  0  0  0
  -21.7032   -8.2197   21.4187 C   0  0  0  0  0  0  0  0  0  0  0  0
  -22.8261   -9.9375   20.1438 C   0  0  0  0  0  0  0  0  0  0  0  0
  -26.1103  -15.3618   21.4528 C   0  0  0  0  0  0  0  0  0  0  0  0
  -29.1778  -24.8099   17.3181 C   0  0  0  0  0  0  0  0  0  0  0  0
  -27.2654  -22.9421   17.4419 C   0  0  0  0  0  0  0  0  0  0  0  0
  -27.0020  -17.2595   22.1151 C   0  0  0  0  0  0  0  0  0  0  0  0
  -28.5691  -15.3142   22.2059 C   0  0  0  0  0  0  0  0  0  0  0  0
  -22.9477  -27.9125   23.8194 C   0  0  0  0  0  0  0  0  0  0  0  0
  -25.2159  -28.8996   25.9178 C   0  0  0  0  0  0  0  0  0  0  0  0
  -28.3813  -28.5431   27.1427 C   0  0  0  0  0  0  0  0  0  0  0  0
  -22.9430  -20.8875   19.6224 C   0  0  0  0  0  0  0  0  0  0  0  0
  -17.8916  -28.3728   23.2887 C   0  0  0  0  0  0  0  0  0  0  0  0
  -23.6267  -25.7328   24.8889 C   0  0  0  0  0  0  0  0  0  0  0  0
  -25.9755  -27.3400   24.0859 C   0  0  0  0  0  0  0  0  0  0  0  0
  -18.9968  -29.1821   23.9624 C   0  0  0  0  0  0  0  0  0  0  0  0
  -23.3318  -20.1706   23.0881 C   0  0  0  0  0  0  0  0  0  0  0  0
  -20.1661  -29.3893   23.0049 C   0  0  0  0  0  0  0  0  0  0  0  0
  -24.1956  -18.9082   23.1058 C   0  0  0  0  0  0  0  0  0  0  0  0
  -22.3513  -20.1671   21.9174 C   0  0  0  0  0  0  0  0  0  0  0  0
  -23.8308  -18.6902   20.6122 C   0  0  0  0  0  0  0  0  0  0  0  0
  -20.7867  -28.0487   22.5938 C   0  0  1  0  0  0  0  0  0  0  0  0
  -23.6293  -27.2553   24.9861 C   0  0  1  0  0  0  0  0  0  0  0  0
  -24.8739  -18.6737   21.7427 C   0  0  2  0  0  0  0  0  0  0  0  0
  -29.8068  -27.1704   17.8830 C   0  0  0  0  0  0  0  0  0  0  0  0
  -29.9623  -29.5189   28.8296 C   0  0  0  0  0  0  0  0  0  0  0  0
  -25.6966  -31.2887   24.0817 C   0  0  0  0  0  0  0  0  0  0  0  0
  -27.8605  -31.6836   25.2773 C   0  0  0  0  0  0  0  0  0  0  0  0
  -25.7044  -31.8311   26.5231 C   0  0  0  0  0  0  0  0  0  0  0  0
  -28.5830  -25.9799   28.6084 C   0  0  0  0  0  0  0  0  0  0  0  0
  -28.1680  -22.0045   19.6100 C   0  0  0  0  0  0  0  0  0  0  0  0
  -30.2208  -25.8680   17.2018 C   0  0  0  0  0  0  0  0  0  0  0  0
  -26.1713  -21.9285   17.4433 C   0  0  0  0  0  0  0  0  0  0  0  0
  -24.7512  -22.5226   17.3639 C   0  0  0  0  0  0  0  0  0  0  0  0
  -23.6359  -21.4805   17.3142 C   0  0  0  0  0  0  0  0  0  0  0  0
  -27.1057  -22.3657   20.6426 C   0  0  0  0  0  0  0  0  0  1  0  0
  -26.5648  -29.5669   25.7985 C   0  0  1  0  0  0  0  0  0  0  0  0
  -28.9075  -28.4561   28.5639 C   0  0  2  0  0  0  0  0  0  0  0  0
  -26.4512  -31.0675   25.4078 C   0  0  0  0  0  0  0  0  0  0  0  0
  -25.1254  -16.2554   21.3290 N   0  0  0  0  0  0  0  0  0  0  0  0
  -28.2497  -24.7525   16.3395 N   0  0  0  0  0  0  0  0  0  0  0  0
  -27.2777  -23.8034   16.4026 N   0  0  0  0  0  0  0  0  0  0  0  0
  -25.6983  -17.3997   21.7395 N   0  0  0  0  0  0  0  0  0  0  0  0
  -24.9805  -27.8145   25.0617 N   0  0  0  0  0  0  0  0  0  0  0  0
  -23.0583  -19.9417   20.6544 N   0  0  0  0  0  0  0  0  0  0  0  0
  -27.7281  -18.3097   22.5535 N   0  0  0  0  0  0  0  0  0  0  0  0
  -28.7060  -13.9396   21.9690 N   0  0  0  0  0  0  0  0  0  0  0  0
  -21.6288  -27.5356   23.6530 N   0  0  0  0  0  0  0  0  0  0  0  0
  -27.2512  -29.3292   27.0637 N   0  0  0  0  0  0  0  0  0  0  0  0
  -23.6502  -20.6002   18.4613 N   0  0  0  0  0  0  0  0  0  0  0  0
  -29.5161  -27.1182   28.8099 N   0  3  0  0  0  0  0  0  0  0  0  0
  -29.5453  -15.9595   22.6576 O   0  0  0  0  0  0  0  0  0  0  0  0
  -23.5718  -28.7042   23.1227 O   0  0  0  0  0  0  0  0  0  0  0  0
  -24.4039  -29.3211   26.7452 O   0  0  0  0  0  0  0  0  0  0  0  0
  -28.9211  -27.9740   26.1965 O   0  0  0  0  0  0  0  0  0  0  0  0
  -22.2647  -21.9148   19.7298 O   0  0  0  0  0  0  0  0  0  0  0  0
  -25.2325  -10.0102   20.0902 O   0  0  0  0  0  0  0  0  0  0  0  0
  -27.3569  -23.6734   21.1557 O   0  0  0  0  0  0  0  0  0  1  0  0
  -20.5711   -7.6437   21.8438 F   0  0  0  0  0  0  0  0  0  0  0  0
  -22.7659  -11.0116   19.3447 F   0  0  0  0  0  0  0  0  0  0  0  0
  1  2  1  0  0  0  0
  1  5  2  0  0  0  0
  2  6  2  0  0  0  0
  3  8  2  0  0  0  0
  3 16  1  0  0  0  0
  4  9  1  0  0  0  0
  4 16  2  0  0  0  0
  5 18  1  0  0  0  0
  6 20  1  0  0  0  0
  7 10  2  0  0  0  0
  7 19  1  0  0  0  0
  8 23  1  0  0  0  0
  9 23  2  0  0  0  0
 10 24  1  0  0  0  0
 11 12  2  0  0  0  0
 11 25  1  0  0  0  0
 12 26  1  0  0  0  0
 13 21  1  0  0  0  0
 13 24  2  0  0  0  0
 14 22  2  0  0  0  0
 14 29  1  0  0  0  0
 15 26  2  0  0  0  0
 15 27  1  0  0  0  0
 16 28  1  0  0  0  0
 17 28  1  0  0  0  0
 17 31  2  0  0  0  0
 17 32  1  0  0  0  0
 18 20  2  0  0  0  0
 18 37  1  0  0  0  0
 19 21  2  0  0  0  0
 19 38  1  0  0  0  0
 20 46  1  0  0  0  0
 21 39  1  0  0  0  0
 22 30  1  0  0  0  0
 22 55  1  0  0  0  0
 23 81  1  0  0  0  0
 24 82  1  0  0  0  0
 25 27  2  0  0  0  0
 25 81  1  0  0  0  0
 26 83  1  0  0  0  0
 27 84  1  0  0  0  0
 28 64  2  0  0  0  0
 29 56  1  0  0  0  0
 29 65  2  0  0  0  0
 30 57  1  0  0  0  0
 30 66  2  0  0  0  0
 31 67  1  0  0  0  0
 31 70  1  0  0  0  0
 32 71  1  0  0  0  0
 32 76  2  0  0  0  0
 33 47  1  0  0  0  0
 33 72  1  0  0  0  0
 33 77  2  0  0  0  0
 34 61  1  0  0  0  0
 34 68  1  0  0  0  0
 34 78  2  0  0  0  0
 35 62  1  0  0  0  0
 35 73  1  0  0  0  0
 35 79  2  0  0  0  0
 36 69  1  0  0  0  0
 36 74  1  0  0  0  0
 36 80  2  0  0  0  0
 37 40  1  0  0  0  0
 38 47  1  0  0  0  0
 39 68  1  0  0  0  0
 40 42  1  0  0  0  0
 41 43  1  0  0  0  0
 41 44  1  0  0  0  0
 42 46  1  0  0  0  0
 43 48  1  0  0  0  0
 44 69  1  0  0  0  0
 45 48  1  0  0  0  0
 45 69  1  0  0  0  0
 46 72  1  0  0  0  0
 47 68  1  0  0  0  0
 48 67  1  0  0  0  0
 49 56  1  0  0  0  0
 50 62  1  0  0  0  0
 51 63  1  0  0  0  0
 52 63  1  0  0  0  0
 53 63  1  0  0  0  0
 54 75  1  0  0  0  0
 55 60  1  0  0  0  0
 57 58  1  0  0  0  0
 58 59  1  0  0  0  0
 59 74  1  0  0  0  0
 60 82  1  0  0  0  0
 61 63  1  0  0  0  0
 61 73  1  0  0  0  0
 62 75  1  0  0  0  0
 64 67  1  0  0  0  0
 65 66  1  0  0  0  0
M  CHG  1  75   1
M  ISO  4  36 100  60 101  74 100  82 101
M  END
> <Batch ID>
0083

> <Smiles>
CCc1cc(C[101CH2:1][101O:1]c2ccc3c(c2)CN(C(=O)C(NC(=O)C(C)NC)C(C)(C)C)C(C(=O)NC2CCCc4ccccc42)C3)c(CCC[100NH:0][100C:0](=O)N2CCCC(n3nc(-c4ccc(Oc5ccc(F)cc5F)cc4)c(C(N)=O)c3N)C2)nn1

> <Shape>
0.211

> <Color>
0.082

> <Negative vol penalty>
0.000

$$$$

  -OEChem-04052318513D

 83 91  0     1  0  0  0  0  0999 V2000
  -17.6821  -32.7293   22.5159 C   0  0  0  0  0  0  0  0  0  0  0  0
  -18.7918  -32.7179   21.6770 C   0  0  0  0  0  0  0  0  0  0  0  0
  -25.3001  -12.9173   19.5605 C   0  0  0  0  0  0  0  0  0  0  0  0
  -24.9411  -14.0825   21.6463 C   0  0  0  0  0  0  0  0  0  0  0  0
  -17.7019  -32.0032   23.7060 C   0  0  0  0  0  0  0  0  0  0  0  0
  -19.9225  -31.9813   22.0282 C   0  0  0  0  0  0  0  0  0  0  0  0
  -25.2527  -28.1975   19.0976 C   0  0  0  0  0  0  0  0  0  0  0  0
  -25.1285  -11.6965   20.2129 C   0  0  0  0  0  0  0  0  0  0  0  0
  -24.7695  -12.8616   22.2987 C   0  0  0  0  0  0  0  0  0  0  0  0
  -26.6439  -28.1076   19.1113 C   0  0  0  0  0  0  0  0  0  0  0  0
  -22.5555   -9.8146   21.3402 C   0  0  0  0  0  0  0  0  0  0  0  0
  -21.7469   -8.8589   20.7251 C   0  0  0  0  0  0  0  0  0  0  0  0
  -26.5350  -26.8276   21.1531 C   0  0  0  0  0  0  0  0  0  0  0  0
  -23.6156   -7.3297   20.6446 C   0  0  0  0  0  0  0  0  0  0  0  0
  -29.9581  -24.1023   17.1419 C   0  0  0  0  0  0  0  0  0  0  0  0
  -25.2064  -14.1104   20.2772 C   0  0  0  0  0  0  0  0  0  0  0  0
  -24.3881  -16.1575   18.9938 C   0  0  0  0  0  0  0  0  0  0  0  0
  -18.8298  -31.2495   24.0673 C   0  0  0  0  0  0  0  0  0  0  0  0
  -24.4915  -27.6115   20.1191 C   0  0  0  0  0  0  0  0  0  0  0  0
  -19.9579  -31.2455   23.2249 C   0  0  0  0  0  0  0  0  0  0  0  0
  -25.1342  -26.9094   21.1487 C   0  0  0  0  0  0  0  0  0  0  0  0
  -29.0101  -23.2997   16.5466 C   0  0  0  0  0  0  0  0  0  0  0  0
  -28.0487  -22.9758   17.5355 C   0  0  0  0  0  0  0  0  0  0  0  0
  -24.8632  -11.6686   21.5820 C   0  0  0  0  0  0  0  0  0  0  0  0
  -27.2854  -27.4251   20.1407 C   0  0  0  0  0  0  0  0  0  0  0  0
  -23.8942   -9.5279   21.6075 C   0  0  0  0  0  0  0  0  0  0  0  0
  -22.2769   -7.6165   20.3773 C   0  0  0  0  0  0  0  0  0  0  0  0
  -24.4242   -8.2854   21.2597 C   0  0  0  0  0  0  0  0  0  0  0  0
  -25.3842  -15.3718   19.6039 C   0  0  0  0  0  0  0  0  0  0  0  0
  -28.4384  -23.5905   18.7050 C   0  0  0  0  0  0  0  0  0  0  0  0
  -25.0637  -17.2475   18.5021 C   0  0  0  0  0  0  0  0  0  0  0  0
  -22.9781  -15.9230   18.8815 C   0  0  0  0  0  0  0  0  0  0  0  0
  -22.4859  -28.7035   22.3302 C   0  0  0  0  0  0  0  0  0  0  0  0
  -22.0287  -25.5460   22.9167 C   0  0  0  0  0  0  0  0  0  0  0  0
  -23.2391  -22.3604   22.7340 C   0  0  0  0  0  0  0  0  0  0  0  0
  -29.4916  -20.7329   19.8291 C   0  0  0  0  0  0  0  0  0  0  0  0
  -18.8223  -30.5186   25.3865 C   0  0  0  0  0  0  0  0  0  0  0  0
  -22.9903  -27.6946   20.0755 C   0  0  0  0  0  0  0  0  0  0  0  0
  -24.3616  -26.2453   22.2580 C   0  0  0  0  0  0  0  0  0  0  0  0
  -19.9186  -29.4628   25.5042 C   0  0  0  0  0  0  0  0  0  0  0  0
  -29.7766  -18.1957   17.3476 C   0  0  0  0  0  0  0  0  0  0  0  0
  -21.2558  -30.0273   25.0352 C   0  0  0  0  0  0  0  0  0  0  0  0
  -28.5804  -17.2819   17.6198 C   0  0  0  0  0  0  0  0  0  0  0  0
  -30.3726  -18.7455   18.6416 C   0  0  0  0  0  0  0  0  0  0  0  0
  -28.2118  -18.5063   19.8024 C   0  0  0  0  0  0  0  0  0  0  0  0
  -21.1938  -30.4387   23.5592 C   0  0  1  0  0  0  0  0  0  0  0  0
  -22.3411  -27.5000   21.4423 C   0  0  1  0  0  0  0  0  0  0  0  0
  -27.5421  -17.9719   18.5248 C   0  0  2  0  0  0  0  0  0  0  0  0
  -29.0074  -22.8632   15.1361 C   0  0  0  0  0  0  0  0  0  0  0  0
  -26.8487  -22.1341   17.3495 C   0  0  0  0  0  0  0  0  0  0  0  0
  -22.6542  -19.9937   23.3292 C   0  0  0  0  0  0  0  0  0  0  0  0
  -22.6825  -26.1225   25.8408 C   0  0  0  0  0  0  0  0  0  0  0  0
  -23.0163  -23.6643   26.1783 C   0  0  0  0  0  0  0  0  0  0  0  0
  -20.7822  -24.5349   25.4901 C   0  0  0  0  0  0  0  0  0  0  0  0
  -23.3245  -21.5044   19.9022 C   0  0  0  0  0  0  0  0  0  0  0  0
  -27.8051  -23.5883   20.0407 C   0  0  0  0  0  0  0  0  0  0  0  0
  -30.6021  -26.5410   19.0225 C   0  0  0  0  0  0  0  0  0  0  0  0
  -30.3795  -25.0896   19.4533 C   0  0  0  0  0  0  0  0  0  0  0  0
  -28.4732  -22.6385   21.0502 C   0  0  0  0  0  0  0  0  0  0  0  0
  -29.3094  -27.3383   18.8948 C   0  0  0  0  0  0  0  0  0  1  0  0
  -22.6766  -24.5209   23.8157 C   0  0  1  0  0  0  0  0  0  0  0  0
  -22.6044  -21.0677   22.2537 C   0  0  2  0  0  0  0  0  0  0  0  0
  -22.3043  -24.7247   25.3115 C   0  0  0  0  0  0  0  0  0  0  0  0
  -26.6001  -15.9163   19.5096 N   0  0  0  0  0  0  0  0  0  0  0  0
  -29.6002  -24.2727   18.4538 N   0  0  0  0  0  0  0  0  0  0  0  0
  -26.3726  -17.0558   18.8344 N   0  0  0  0  0  0  0  0  0  0  0  0
  -22.8962  -26.3599   22.1745 N   0  0  0  0  0  0  0  0  0  0  0  0
  -29.3364  -19.3884   19.4533 N   0  0  0  0  0  0  0  0  0  0  0  0
  -24.6601  -18.3417   17.8222 N   0  0  0  0  0  0  0  0  0  0  0  0
  -22.4485  -14.7531   19.4430 N   0  0  0  0  0  0  0  0  0  0  0  0
  -21.2844  -29.2735   22.7055 N   0  0  0  0  0  0  0  0  0  0  0  0
  -22.3055  -23.2156   23.2802 N   0  0  0  0  0  0  0  0  0  0  0  0
  -28.4606  -21.2669   20.5925 N   0  0  0  0  0  0  0  0  0  0  0  0
  -23.3160  -20.5582   21.0475 N   0  3  0  0  0  0  0  0  0  0  0  0
  -22.2129  -16.7191   18.2862 O   0  0  0  0  0  0  0  0  0  0  0  0
  -23.6048  -29.0856   22.6523 O   0  0  0  0  0  0  0  0  0  0  0  0
  -20.7981  -25.6171   22.8691 O   0  0  0  0  0  0  0  0  0  0  0  0
  -24.4432  -22.5871   22.6379 O   0  0  0  0  0  0  0  0  0  0  0  0
  -30.4734  -21.4090   19.5037 O   0  0  0  0  0  0  0  0  0  0  0  0
  -24.6955  -10.4775   22.2189 O   0  0  0  0  0  0  0  0  0  0  0  0
  -28.6433  -27.3364   20.1569 O   0  0  0  0  0  0  0  0  0  1  0  0
  -21.4999   -6.6982   19.7880 F   0  0  0  0  0  0  0  0  0  0  0  0
  -25.7092   -8.0038   21.5150 F   0  0  0  0  0  0  0  0  0  0  0  0
  1  2  1  0  0  0  0
  1  5  2  0  0  0  0
  2  6  2  0  0  0  0
  3  8  2  0  0  0  0
  3 16  1  0  0  0  0
  4  9  1  0  0  0  0
  4 16  2  0  0  0  0
  5 18  1  0  0  0  0
  6 20  1  0  0  0  0
  7 10  2  0  0  0  0
  7 19  1  0  0  0  0
  8 24  1  0  0  0  0
  9 24  2  0  0  0  0
 10 25  1  0  0  0  0
 11 12  2  0  0  0  0
 11 26  1  0  0  0  0
 12 27  1  0  0  0  0
 13 21  1  0  0  0  0
 13 25  2  0  0  0  0
 14 27  2  0  0  0  0
 14 28  1  0  0  0  0
 15 22  2  0  0  0  0
 15 65  1  0  0  0  0
 16 29  1  0  0  0  0
 17 29  1  0  0  0  0
 17 31  2  0  0  0  0
 17 32  1  0  0  0  0
 18 20  2  0  0  0  0
 18 37  1  0  0  0  0
 19 21  2  0  0  0  0
 19 38  1  0  0  0  0
 20 46  1  0  0  0  0
 21 39  1  0  0  0  0
 22 23  1  0  0  0  0
 22 49  1  0  0  0  0
 23 30  2  0  0  0  0
 23 50  1  0  0  0  0
 24 80  1  0  0  0  0
 25 81  1  0  0  0  0
 26 28  2  0  0  0  0
 26 80  1  0  0  0  0
 27 82  1  0  0  0  0
 28 83  1  0  0  0  0
 29 64  2  0  0  0  0
 30 56  1  0  0  0  0
 30 65  1  0  0  0  0
 31 66  1  0  0  0  0
 31 69  1  0  0  0  0
 32 70  1  0  0  0  0
 32 75  2  0  0  0  0
 33 47  1  0  0  0  0
 33 71  1  0  0  0  0
 33 76  2  0  0  0  0
 34 61  1  0  0  0  0
 34 67  1  0  0  0  0
 34 77  2  0  0  0  0
 35 62  1  0  0  0  0
 35 72  1  0  0  0  0
 35 78  2  0  0  0  0
 36 68  1  0  0  0  0
 36 73  1  0  0  0  0
 36 79  2  0  0  0  0
 37 40  1  0  0  0  0
 38 47  1  0  0  0  0
 39 67  1  0  0  0  0
 40 42  1  0  0  0  0
 41 43  1  0  0  0  0
 41 44  1  0  0  0  0
 42 46  1  0  0  0  0
 43 48  1  0  0  0  0
 44 68  1  0  0  0  0
 45 48  1  0  0  0  0
 45 68  1  0  0  0  0
 46 71  1  0  0  0  0
 47 67  1  0  0  0  0
 48 66  1  0  0  0  0
 51 62  1  0  0  0  0
 52 63  1  0  0  0  0
 53 63  1  0  0  0  0
 54 63  1  0  0  0  0
 55 74  1  0  0  0  0
 56 59  1  0  0  0  0
 57 58  1  0  0  0  0
 57 60  1  0  0  0  0
 58 65  1  0  0  0  0
 59 73  1  0  0  0  0
 60 81  1  0  0  0  0
 61 63  1  0  0  0  0
 61 72  1  0  0  0  0
 62 74  1  0  0  0  0
 64 66  1  0  0  0  0
M  CHG  1  74   1
M  ISO  4  36 100  60 101  73 100  81 101
M  END
> <Batch ID>
0083

> <Smiles>
CNC(C)C(=O)NC(C(=O)N1Cc2cc([101O:1][101CH2:1]CCn3cc(C)c(C)c3CC[100NH:0][100C:0](=O)N3CCCC(n4nc(-c5ccc(Oc6ccc(F)cc6F)cc5)c(C(N)=O)c4N)C3)ccc2CC1C(=O)NC1CCCc2ccccc21)C(C)(C)C

> <Shape>
0.232

> <Color>
0.087

> <Negative vol penalty>
0.000

$$$$

  -OEChem-04052318513D

 83 91  0     1  0  0  0  0  0999 V2000
  -25.8577  -19.2505   18.4468 C   0  0  0  0  0  0  0  0  0  0  0  0
  -25.2058  -20.4296   18.7936 C   0  0  0  0  0  0  0  0  0  0  0  0
  -22.3328  -16.7905   21.0145 C   0  0  0  0  0  0  0  0  0  0  0  0
  -24.1795  -18.2303   21.6092 C   0  0  0  0  0  0  0  0  0  0  0  0
  -27.1716  -19.0342   18.8602 C   0  0  0  0  0  0  0  0  0  0  0  0
  -25.8672  -21.3926   19.5551 C   0  0  0  0  0  0  0  0  0  0  0  0
  -25.2599  -27.4721   19.1357 C   0  0  0  0  0  0  0  0  0  0  0  0
  -23.2313  -15.8281   20.5541 C   0  0  0  0  0  0  0  0  0  0  0  0
  -25.0781  -17.2679   21.1488 C   0  0  0  0  0  0  0  0  0  0  0  0
  -24.5177  -28.3937   19.8729 C   0  0  0  0  0  0  0  0  0  0  0  0
  -25.2388  -13.4552   21.8854 C   0  0  0  0  0  0  0  0  0  0  0  0
  -25.0135  -12.1290   22.2540 C   0  0  0  0  0  0  0  0  0  0  0  0
  -26.4577  -28.8634   21.2276 C   0  0  0  0  0  0  0  0  0  0  0  0
  -20.1714  -28.9400   23.2167 C   0  0  0  0  0  0  0  0  0  0  0  0
  -24.8238  -11.5139   19.9254 C   0  0  0  0  0  0  0  0  0  0  0  0
  -22.6053  -28.3417   24.2955 C   0  0  0  0  0  0  0  0  0  0  0  0
  -22.8069  -17.9917   21.5420 C   0  0  0  0  0  0  0  0  0  0  0  0
  -21.3616  -19.1125   23.3204 C   0  0  0  0  0  0  0  0  0  0  0  0
  -27.8526  -19.9992   19.6189 C   0  0  0  0  0  0  0  0  0  0  0  0
  -26.6059  -27.2309   19.4464 C   0  0  0  0  0  0  0  0  0  0  0  0
  -27.1909  -21.1883   19.9801 C   0  0  0  0  0  0  0  0  0  0  0  0
  -27.2155  -27.9401   20.4911 C   0  0  0  0  0  0  0  0  0  0  0  0
  -21.1693  -29.9081   23.2274 C   0  0  0  0  0  0  0  0  0  0  0  0
  -22.4123  -29.6113   23.7752 C   0  0  0  0  0  0  0  0  0  0  0  0
  -24.6040  -16.0668   20.6212 C   0  0  0  0  0  0  0  0  0  0  0  0
  -25.1157  -29.0874   20.9209 C   0  0  0  0  0  0  0  0  0  0  0  0
  -25.2565  -13.8108   20.5367 C   0  0  0  0  0  0  0  0  0  0  0  0
  -24.8060  -11.1583   21.2741 C   0  0  0  0  0  0  0  0  0  0  0  0
  -25.0491  -12.8401   19.5567 C   0  0  0  0  0  0  0  0  0  0  0  0
  -21.8792  -18.9864   22.0173 C   0  0  0  0  0  0  0  0  0  0  0  0
  -20.4647  -27.7004   23.7618 C   0  0  0  0  0  0  0  0  0  0  0  0
  -20.5317  -20.2050   23.2560 C   0  0  0  0  0  0  0  0  0  0  0  0
  -21.6089  -18.3135   24.4849 C   0  0  0  0  0  0  0  0  0  0  0  0
  -28.2666  -24.6972   20.4088 C   0  0  0  0  0  0  0  0  0  0  0  0
  -30.7957  -26.6870   20.0010 C   0  0  0  0  0  0  0  0  0  0  0  0
  -31.9684  -29.8883   19.8490 C   0  0  0  0  0  0  0  0  0  0  0  0
  -19.4850  -25.4307   21.6001 C   0  0  0  0  0  0  0  0  0  0  0  0
  -29.2562  -19.7000   20.0827 C   0  0  0  0  0  0  0  0  0  0  0  0
  -27.4001  -26.2531   18.6244 C   0  0  0  0  0  0  0  0  0  0  0  0
  -28.6630  -27.7325   20.8518 C   0  0  0  0  0  0  0  0  0  0  0  0
  -30.0127  -20.9333   20.5695 C   0  0  0  0  0  0  0  0  0  0  0  0
  -18.8309  -22.8172   19.2722 C   0  0  0  0  0  0  0  0  0  0  0  0
  -29.1379  -21.7612   21.5055 C   0  0  0  0  0  0  0  0  0  0  0  0
  -19.5280  -21.6003   19.8831 C   0  0  0  0  0  0  0  0  0  0  0  0
  -19.6215  -24.1011   19.5144 C   0  0  0  0  0  0  0  0  0  0  0  0
  -20.6570  -23.1462   21.5367 C   0  0  0  0  0  0  0  0  0  0  0  0
  -27.8831  -22.2676   20.7840 C   0  0  1  0  0  0  0  0  0  0  0  0
  -28.6227  -25.7103   19.3579 C   0  0  1  0  0  0  0  0  0  0  0  0
  -19.8694  -21.8358   21.3668 C   0  0  2  0  0  0  0  0  0  0  0  0
  -20.8852  -31.2540   22.6473 C   0  0  0  0  0  0  0  0  0  0  0  0
  -23.9339  -30.9618   25.2559 C   0  0  0  0  0  0  0  0  0  0  0  0
  -19.0538  -26.1675   25.1835 C   0  0  0  0  0  0  0  0  0  0  0  0
  -34.0870  -31.1976   19.5415 C   0  0  0  0  0  0  0  0  0  0  0  0
  -31.6151  -26.0295   22.8657 C   0  0  0  0  0  0  0  0  0  0  0  0
  -33.1217  -28.0285   22.8197 C   0  0  0  0  0  0  0  0  0  0  0  0
  -33.5103  -26.1393   21.2377 C   0  0  0  0  0  0  0  0  0  0  0  0
  -30.9432  -31.1933   17.3986 C   0  0  0  0  0  0  0  0  0  0  0  0
  -24.7613  -30.1686   23.0093 C   0  0  0  0  0  0  0  0  0  1  0  0
  -23.5391  -30.6317   23.8138 C   0  0  1  0  0  0  0  0  0  0  0  0
  -19.4176  -26.6371   23.7678 C   0  0  2  0  0  0  0  0  0  0  0  0
  -31.5327  -27.6723   20.8756 C   0  0  1  0  0  0  0  0  0  0  0  0
  -32.8799  -30.5809   18.8521 C   0  0  2  0  0  0  0  0  0  0  0  0
  -32.4171  -26.9701   21.9444 C   0  0  0  0  0  0  0  0  0  0  0  0
  -21.6602  -27.3751   24.3029 N   0  0  0  0  0  0  0  0  0  0  0  0
  -21.4167  -19.9239   21.1859 N   0  0  0  0  0  0  0  0  0  0  0  0
  -20.5997  -20.6494   21.9683 N   0  0  0  0  0  0  0  0  0  0  0  0
  -29.3958  -26.7614   20.0227 N   0  0  0  0  0  0  0  0  0  0  0  0
  -19.9113  -24.2659   20.9409 N   0  0  0  0  0  0  0  0  0  0  0  0
  -19.7576  -20.8192   24.1757 N   0  0  0  0  0  0  0  0  0  0  0  0
  -22.4891  -17.2283   24.3760 N   0  0  0  0  0  0  0  0  0  0  0  0
  -28.2067  -23.3984   19.9408 N   0  0  0  0  0  0  0  0  0  0  0  0
  -32.2701  -28.5485   19.9718 N   0  0  0  0  0  0  0  0  0  0  0  0
  -19.7949  -25.5041   22.9526 N   0  0  0  0  0  0  0  0  0  0  0  0
  -32.1420  -31.6623   18.1400 N   0  3  0  0  0  0  0  0  0  0  0  0
  -21.0529  -18.5449   25.5852 O   0  0  0  0  0  0  0  0  0  0  0  0
  -28.0627  -25.0663   21.5594 O   0  0  0  0  0  0  0  0  0  0  0  0
  -31.4386  -25.8858   19.3181 O   0  0  0  0  0  0  0  0  0  0  0  0
  -31.0802  -30.4778   20.4607 O   0  0  0  0  0  0  0  0  0  0  0  0
  -18.8687  -26.3356   21.0271 O   0  0  0  0  0  0  0  0  0  0  0  0
  -25.4811  -15.1278   20.1722 O   0  0  0  0  0  0  0  0  0  0  0  0
  -24.3934  -29.9870   21.6425 O   0  0  0  0  0  0  0  0  0  1  0  0
  -24.5913   -9.8845   21.6282 F   0  0  0  0  0  0  0  0  0  0  0  0
  -25.0662  -13.1755   18.2594 F   0  0  0  0  0  0  0  0  0  0  0  0
  1  2  1  0  0  0  0
  1  5  2  0  0  0  0
  2  6  2  0  0  0  0
  3  8  2  0  0  0  0
  3 17  1  0  0  0  0
  4  9  1  0  0  0  0
  4 17  2  0  0  0  0
  5 19  1  0  0  0  0
  6 21  1  0  0  0  0
  7 10  2  0  0  0  0
  7 20  1  0  0  0  0
  8 25  1  0  0  0  0
  9 25  2  0  0  0  0
 10 26  1  0  0  0  0
 11 12  2  0  0  0  0
 11 27  1  0  0  0  0
 12 28  1  0  0  0  0
 13 22  1  0  0  0  0
 13 26  2  0  0  0  0
 14 23  1  0  0  0  0
 14 31  2  0  0  0  0
 15 28  2  0  0  0  0
 15 29  1  0  0  0  0
 16 24  1  0  0  0  0
 16 64  2  0  0  0  0
 17 30  1  0  0  0  0
 18 30  1  0  0  0  0
 18 32  2  0  0  0  0
 18 33  1  0  0  0  0
 19 21  2  0  0  0  0
 19 38  1  0  0  0  0
 20 22  2  0  0  0  0
 20 39  1  0  0  0  0
 21 47  1  0  0  0  0
 22 40  1  0  0  0  0
 23 24  2  0  0  0  0
 23 50  1  0  0  0  0
 24 59  1  0  0  0  0
 25 80  1  0  0  0  0
 26 81  1  0  0  0  0
 27 29  2  0  0  0  0
 27 80  1  0  0  0  0
 28 82  1  0  0  0  0
 29 83  1  0  0  0  0
 30 65  2  0  0  0  0
 31 60  1  0  0  0  0
 31 64  1  0  0  0  0
 32 66  1  0  0  0  0
 32 69  1  0  0  0  0
 33 70  1  0  0  0  0
 33 75  2  0  0  0  0
 34 48  1  0  0  0  0
 34 71  1  0  0  0  0
 34 76  2  0  0  0  0
 35 61  1  0  0  0  0
 35 67  1  0  0  0  0
 35 77  2  0  0  0  0
 36 62  1  0  0  0  0
 36 72  1  0  0  0  0
 36 78  2  0  0  0  0
 37 68  1  0  0  0  0
 37 73  1  0  0  0  0
 37 79  2  0  0  0  0
 38 41  1  0  0  0  0
 39 48  1  0  0  0  0
 40 67  1  0  0  0  0
 41 43  1  0  0  0  0
 42 44  1  0  0  0  0
 42 45  1  0  0  0  0
 43 47  1  0  0  0  0
 44 49  1  0  0  0  0
 45 68  1  0  0  0  0
 46 49  1  0  0  0  0
 46 68  1  0  0  0  0
 47 71  1  0  0  0  0
 48 67  1  0  0  0  0
 49 66  1  0  0  0  0
 51 59  1  0  0  0  0
 52 60  1  0  0  0  0
 53 62  1  0  0  0  0
 54 63  1  0  0  0  0
 55 63  1  0  0  0  0
 56 63  1  0  0  0  0
 57 74  1  0  0  0  0
 58 59  1  0  0  0  0
 58 81  1  0  0  0  0
 60 73  1  0  0  0  0
 61 63  1  0  0  0  0
 61 72  1  0  0  0  0
 62 74  1  0  0  0  0
 65 66  1  0  0  0  0
M  CHG  1  74   1
M  ISO  4  37 100  58 101  73 100  81 101
M  END
> <Batch ID>
0083

> <Smiles>
CNC(C)C(=O)NC(C(=O)N1Cc2cc([101O:1][101CH2:1]C(C)c3cnc(C(C)[100NH:0][100C:0](=O)N4CCCC(n5nc(-c6ccc(Oc7ccc(F)cc7F)cc6)c(C(N)=O)c5N)C4)cc3C)ccc2CC1C(=O)NC1CCCc2ccccc21)C(C)(C)C

> <Shape>
0.217

> <Color>
0.062

> <Negative vol penalty>
0.000

$$$$

  -OEChem-04052318513D

 81 89  0     1  0  0  0  0  0999 V2000
  -22.7734  -24.2158   35.3895 C   0  0  0  0  0  0  0  0  0  0  0  0
  -23.4780  -23.6430   34.3354 C   0  0  0  0  0  0  0  0  0  0  0  0
  -23.1111   -9.8596   19.9385 C   0  0  0  0  0  0  0  0  0  0  0  0
  -23.8482   -9.8991   22.2389 C   0  0  0  0  0  0  0  0  0  0  0  0
  -21.4438  -24.5961   35.2126 C   0  0  0  0  0  0  0  0  0  0  0  0
  -22.8529  -23.4492   33.1041 C   0  0  0  0  0  0  0  0  0  0  0  0
  -25.4277  -23.8616   27.5629 C   0  0  0  0  0  0  0  0  0  0  0  0
  -22.3895   -8.6927   20.1897 C   0  0  0  0  0  0  0  0  0  0  0  0
  -23.1265   -8.7322   22.4902 C   0  0  0  0  0  0  0  0  0  0  0  0
  -25.9233  -22.8987   26.6848 C   0  0  0  0  0  0  0  0  0  0  0  0
  -19.9103   -7.8701   23.0674 C   0  0  0  0  0  0  0  0  0  0  0  0
  -19.1429   -7.8225   24.2312 C   0  0  0  0  0  0  0  0  0  0  0  0
  -23.8184  -22.8985   25.5065 C   0  0  0  0  0  0  0  0  0  0  0  0
  -20.4179   -5.9172   24.9938 C   0  0  0  0  0  0  0  0  0  0  0  0
  -23.8406  -10.4628   20.9631 C   0  0  0  0  0  0  0  0  0  0  0  0
  -24.1299  -12.9937   20.8278 C   0  0  0  0  0  0  0  0  0  0  0  0
  -20.8050  -24.4157   33.9756 C   0  0  0  0  0  0  0  0  0  0  0  0
  -24.1178  -24.3431   27.4257 C   0  0  0  0  0  0  0  0  0  0  0  0
  -21.5130  -23.8262   32.9109 C   0  0  0  0  0  0  0  0  0  0  0  0
  -23.3094  -23.8694   26.3825 C   0  0  0  0  0  0  0  0  0  0  0  0
  -22.3972   -8.1290   21.4655 C   0  0  0  0  0  0  0  0  0  0  0  0
  -25.1177  -22.4149   25.6582 C   0  0  0  0  0  0  0  0  0  0  0  0
  -20.9314   -6.9413   22.8667 C   0  0  0  0  0  0  0  0  0  0  0  0
  -19.3967   -6.8460   25.1944 C   0  0  0  0  0  0  0  0  0  0  0  0
  -21.1852   -5.9649   23.8299 C   0  0  0  0  0  0  0  0  0  0  0  0
  -24.5867  -11.6679   20.7040 C   0  0  0  0  0  0  0  0  0  0  0  0
  -26.9073  -18.7043   23.8190 C   0  0  0  0  0  0  0  0  0  0  0  0
  -27.2897  -20.0226   23.9535 C   0  0  0  0  0  0  0  0  0  0  0  0
  -25.2094  -13.7637   20.4696 C   0  0  0  0  0  0  0  0  0  0  0  0
  -28.1665  -18.8665   22.0307 C   0  0  0  0  0  0  0  0  0  0  0  0
  -22.8447  -13.4854   21.2307 C   0  0  0  0  0  0  0  0  0  0  0  0
  -21.5134  -24.3094   29.2477 C   0  0  0  0  0  0  0  0  0  0  0  0
  -20.3174  -26.1960   26.8955 C   0  0  0  0  0  0  0  0  0  0  0  0
  -20.4458  -27.1925   23.6340 C   0  0  0  0  0  0  0  0  0  0  0  0
  -30.6681  -14.9006   20.7033 C   0  0  0  0  0  0  0  0  0  0  0  0
  -19.3520  -24.7991   33.8462 C   0  0  0  0  0  0  0  0  0  0  0  0
  -23.6073  -25.4013   28.3648 C   0  0  0  0  0  0  0  0  0  0  0  0
  -21.9029  -24.3686   26.1799 C   0  0  0  0  0  0  0  0  0  0  0  0
  -18.8762  -24.9034   32.3995 C   0  0  0  0  0  0  0  0  0  0  0  0
  -29.6048  -12.4755   18.3233 C   0  0  0  0  0  0  0  0  0  0  0  0
  -19.3460  -23.6958   31.5946 C   0  0  0  0  0  0  0  0  0  0  0  0
  -28.1698  -12.1543   18.7445 C   0  0  0  0  0  0  0  0  0  0  0  0
  -30.5053  -12.7243   19.5313 C   0  0  0  0  0  0  0  0  0  0  0  0
  -28.5749  -13.4246   20.8941 C   0  0  0  0  0  0  0  0  0  0  0  0
  -20.8771  -23.6224   31.5529 C   0  0  1  0  0  0  0  0  0  0  0  0
  -22.0844  -25.4443   28.4454 C   0  0  1  0  0  0  0  0  0  0  0  0
  -27.6163  -13.2209   19.7084 C   0  0  2  0  0  0  0  0  0  0  0  0
  -26.0203  -17.9589   24.7355 C   0  0  0  0  0  0  0  0  0  0  0  0
  -19.3162  -28.7209   21.9953 C   0  0  0  0  0  0  0  0  0  0  0  0
  -17.9795  -24.2460   26.6920 C   0  0  0  0  0  0  0  0  0  0  0  0
  -17.4160  -25.2617   24.4741 C   0  0  0  0  0  0  0  0  0  0  0  0
  -17.3414  -26.6592   26.5390 C   0  0  0  0  0  0  0  0  0  0  0  0
  -22.9335  -28.7285   23.1748 C   0  0  0  0  0  0  0  0  0  0  0  0
  -26.9377  -21.0281   25.0100 C   0  0  0  0  0  0  0  0  0  1  0  0
  -28.8752  -18.5114   20.7818 C   0  0  0  0  0  0  0  0  0  0  0  0
  -30.3807  -18.2019   20.9539 C   0  0  0  0  0  0  0  0  0  0  0  0
  -30.6762  -17.0609   21.9250 C   0  0  0  0  0  0  0  0  0  0  0  0
  -19.5803  -25.9527   25.6008 C   0  0  1  0  0  0  0  0  0  0  0  0
  -20.4466  -28.5726   23.0017 C   0  0  2  0  0  0  0  0  0  0  0  0
  -18.1051  -25.5189   25.8312 C   0  0  0  0  0  0  0  0  0  0  0  0
  -25.8573  -11.5961   20.2987 N   0  0  0  0  0  0  0  0  0  0  0  0
  -27.4088  -18.0399   22.7168 N   0  0  0  0  0  0  0  0  0  0  0  0
  -26.2081  -12.8864   20.1646 N   0  0  0  0  0  0  0  0  0  0  0  0
  -21.4472  -25.3988   27.1278 N   0  0  0  0  0  0  0  0  0  0  0  0
  -29.9243  -13.7472   20.4044 N   0  0  0  0  0  0  0  0  0  0  0  0
  -25.3922  -15.0988   20.3888 N   0  0  0  0  0  0  0  0  0  0  0  0
  -21.8490  -12.5573   21.5648 N   0  0  0  0  0  0  0  0  0  0  0  0
  -21.4030  -24.5755   30.5991 N   0  0  0  0  0  0  0  0  0  0  0  0
  -19.7286  -27.1706   24.8115 N   0  0  0  0  0  0  0  0  0  0  0  0
  -30.0412  -15.8225   21.5327 N   0  0  0  0  0  0  0  0  0  0  0  0
  -21.7372  -28.8194   22.2986 N   0  3  0  0  0  0  0  0  0  0  0  0
  -22.5818  -14.7110   21.2767 O   0  0  0  0  0  0  0  0  0  0  0  0
  -21.1951  -23.2699   28.6822 O   0  0  0  0  0  0  0  0  0  0  0  0
  -19.9102  -27.0665   27.6689 O   0  0  0  0  0  0  0  0  0  0  0  0
  -21.0205  -26.2293   23.1316 O   0  0  0  0  0  0  0  0  0  0  0  0
  -31.8045  -15.0970   20.2594 O   0  0  0  0  0  0  0  0  0  0  0  0
  -21.6929   -6.9905   21.7111 O   0  0  0  0  0  0  0  0  0  0  0  0
  -25.5987  -21.4745   24.8002 O   0  0  0  0  0  0  0  0  0  1  0  0
  -18.6607   -6.8013   26.3127 F   0  0  0  0  0  0  0  0  0  0  0  0
  -22.1657   -5.0706   23.6433 F   0  0  0  0  0  0  0  0  0  0  0  0
  -28.3204  -20.4580   22.6538 S   0  0  0  0  0  0  0  0  0  0  0  0
  1  2  1  0  0  0  0
  1  5  2  0  0  0  0
  2  6  2  0  0  0  0
  3  8  2  0  0  0  0
  3 15  1  0  0  0  0
  4  9  1  0  0  0  0
  4 15  2  0  0  0  0
  5 17  1  0  0  0  0
  6 19  1  0  0  0  0
  7 10  2  0  0  0  0
  7 18  1  0  0  0  0
  8 21  1  0  0  0  0
  9 21  2  0  0  0  0
 10 22  1  0  0  0  0
 11 12  2  0  0  0  0
 11 23  1  0  0  0  0
 12 24  1  0  0  0  0
 13 20  1  0  0  0  0
 13 22  2  0  0  0  0
 14 24  2  0  0  0  0
 14 25  1  0  0  0  0
 15 26  1  0  0  0  0
 16 26  1  0  0  0  0
 16 29  2  0  0  0  0
 16 31  1  0  0  0  0
 17 19  2  0  0  0  0
 17 36  1  0  0  0  0
 18 20  2  0  0  0  0
 18 37  1  0  0  0  0
 19 45  1  0  0  0  0
 20 38  1  0  0  0  0
 21 77  1  0  0  0  0
 22 78  1  0  0  0  0
 23 25  2  0  0  0  0
 23 77  1  0  0  0  0
 24 79  1  0  0  0  0
 25 80  1  0  0  0  0
 26 61  2  0  0  0  0
 27 28  2  0  0  0  0
 27 48  1  0  0  0  0
 27 62  1  0  0  0  0
 28 54  1  0  0  0  0
 28 81  1  0  0  0  0
 29 63  1  0  0  0  0
 29 66  1  0  0  0  0
 30 55  1  0  0  0  0
 30 62  2  0  0  0  0
 30 81  1  0  0  0  0
 31 67  1  0  0  0  0
 31 72  2  0  0  0  0
 32 46  1  0  0  0  0
 32 68  1  0  0  0  0
 32 73  2  0  0  0  0
 33 58  1  0  0  0  0
 33 64  1  0  0  0  0
 33 74  2  0  0  0  0
 34 59  1  0  0  0  0
 34 69  1  0  0  0  0
 34 75  2  0  0  0  0
 35 65  1  0  0  0  0
 35 70  1  0  0  0  0
 35 76  2  0  0  0  0
 36 39  1  0  0  0  0
 37 46  1  0  0  0  0
 38 64  1  0  0  0  0
 39 41  1  0  0  0  0
 40 42  1  0  0  0  0
 40 43  1  0  0  0  0
 41 45  1  0  0  0  0
 42 47  1  0  0  0  0
 43 65  1  0  0  0  0
 44 47  1  0  0  0  0
 44 65  1  0  0  0  0
 45 68  1  0  0  0  0
 46 64  1  0  0  0  0
 47 63  1  0  0  0  0
 49 59  1  0  0  0  0
 50 60  1  0  0  0  0
 51 60  1  0  0  0  0
 52 60  1  0  0  0  0
 53 71  1  0  0  0  0
 54 78  1  0  0  0  0
 55 56  1  0  0  0  0
 56 57  1  0  0  0  0
 57 70  1  0  0  0  0
 58 60  1  0  0  0  0
 58 69  1  0  0  0  0
 59 71  1  0  0  0  0
 61 63  1  0  0  0  0
M  CHG  1  71   1
M  ISO  4  35 100  54 101  70 100  78 101
M  END
> <Batch ID>
0083

> <Smiles>
CNC(C)C(=O)NC(C(=O)N1Cc2cc([101O:1][101CH2:1]c3sc(CCC[100NH:0][100C:0](=O)N4CCCC(n5nc(-c6ccc(Oc7ccc(F)cc7F)cc6)c(C(N)=O)c5N)C4)nc3C)ccc2CC1C(=O)NC1CCCc2ccccc21)C(C)(C)C

> <Shape>
0.218

> <Color>
0.212

> <Negative vol penalty>
0.000

$$$$

  -OEChem-04052318513D

 87 95  0     1  0  0  0  0  0999 V2000
  -16.0520  -17.2216   20.2970 C   0  0  0  0  0  0  0  0  0  0  0  0
  -17.3347  -16.6859   20.3545 C   0  0  0  0  0  0  0  0  0  0  0  0
  -23.3512  -29.0951   21.1278 C   0  0  0  0  0  0  0  0  0  0  0  0
  -25.5550  -29.7075   20.3500 C   0  0  0  0  0  0  0  0  0  0  0  0
  -15.5201  -17.6241   19.0726 C   0  0  0  0  0  0  0  0  0  0  0  0
  -18.0858  -16.5515   19.1874 C   0  0  0  0  0  0  0  0  0  0  0  0
  -22.8761  -18.0866   19.7724 C   0  0  0  0  0  0  0  0  0  0  0  0
  -23.3660  -30.1703   22.0163 C   0  0  0  0  0  0  0  0  0  0  0  0
  -25.5698  -30.7827   21.2385 C   0  0  0  0  0  0  0  0  0  0  0  0
  -23.7482  -17.2166   20.4254 C   0  0  0  0  0  0  0  0  0  0  0  0
  -26.1065  -31.2797   24.5394 C   0  0  0  0  0  0  0  0  0  0  0  0
  -27.2672  -31.4891   25.2840 C   0  0  0  0  0  0  0  0  0  0  0  0
  -24.6258  -16.5060   18.2937 C   0  0  0  0  0  0  0  0  0  0  0  0
  -27.5006  -33.6845   24.3028 C   0  0  0  0  0  0  0  0  0  0  0  0
  -24.4458  -28.8637   20.2947 C   0  0  0  0  0  0  0  0  0  0  0  0
  -23.9630  -27.7530   18.0495 C   0  0  0  0  0  0  0  0  0  0  0  0
  -16.2688  -17.5034   17.8913 C   0  0  0  0  0  0  0  0  0  0  0  0
  -22.8646  -18.1649   18.3724 C   0  0  0  0  0  0  0  0  0  0  0  0
  -17.5630  -16.9515   17.9459 C   0  0  0  0  0  0  0  0  0  0  0  0
  -23.7543  -17.3796   17.6255 C   0  0  0  0  0  0  0  0  0  0  0  0
  -28.6674  -17.4264   21.6206 C   0  0  0  0  0  0  0  0  0  0  0  0
  -28.4206  -16.1140   21.2577 C   0  0  0  0  0  0  0  0  0  0  0  0
  -24.4753  -31.0141   22.0716 C   0  0  0  0  0  0  0  0  0  0  0  0
  -24.6212  -16.4241   19.6859 C   0  0  0  0  0  0  0  0  0  0  0  0
  -25.6429  -32.2726   23.6763 C   0  0  0  0  0  0  0  0  0  0  0  0
  -27.9642  -32.6915   25.1657 C   0  0  0  0  0  0  0  0  0  0  0  0
  -26.3399  -33.4750   23.5581 C   0  0  0  0  0  0  0  0  0  0  0  0
  -24.4313  -27.7529   19.3771 C   0  0  0  0  0  0  0  0  0  0  0  0
  -29.7084  -18.0843   20.9969 C   0  0  0  0  0  0  0  0  0  0  0  0
  -29.2308  -15.5466   20.2948 C   0  0  0  0  0  0  0  0  0  0  0  0
  -24.1673  -26.4668   17.6132 C   0  0  0  0  0  0  0  0  0  0  0  0
  -23.3941  -28.8203   17.2795 C   0  0  0  0  0  0  0  0  0  0  0  0
  -20.7062  -17.5890   16.1111 C   0  0  0  0  0  0  0  0  0  0  0  0
  -22.9922  -18.8141   14.1629 C   0  0  0  0  0  0  0  0  0  0  0  0
  -26.2992  -19.4677   13.6304 C   0  0  0  0  0  0  0  0  0  0  0  0
  -28.0300  -22.3194   19.2668 C   0  0  0  0  0  0  0  0  0  0  0  0
  -15.6336  -17.9083   16.5847 C   0  0  0  0  0  0  0  0  0  0  0  0
  -21.9364  -19.1278   17.6842 C   0  0  0  0  0  0  0  0  0  0  0  0
  -23.7956  -17.4411   16.1212 C   0  0  0  0  0  0  0  0  0  0  0  0
  -16.6368  -18.0791   15.4468 C   0  0  0  0  0  0  0  0  0  0  0  0
  -24.4287  -21.9652   19.2178 C   0  0  0  0  0  0  0  0  0  0  0  0
  -17.6054  -16.9014   15.4079 C   0  0  0  0  0  0  0  0  0  0  0  0
  -23.9807  -23.4250   19.1258 C   0  0  0  0  0  0  0  0  0  0  0  0
  -25.6573  -21.8192   20.1109 C   0  0  0  0  0  0  0  0  0  0  0  0
  -26.3698  -24.1260   19.6165 C   0  0  0  0  0  0  0  0  0  0  0  0
  -18.4182  -16.8125   16.7052 C   0  0  1  0  0  0  0  0  0  0  0  0
  -21.6518  -18.7503   16.2338 C   0  0  1  0  0  0  0  0  0  0  0  0
  -25.1450  -24.3432   18.7094 C   0  0  2  0  0  0  0  0  0  0  0  0
  -28.5457  -18.2039   24.0012 C   0  0  0  0  0  0  0  0  0  0  0  0
  -30.1998  -13.6099   19.0312 C   0  0  0  0  0  0  0  0  0  0  0  0
  -27.5184  -15.1610   23.4046 C   0  0  0  0  0  0  0  0  0  0  0  0
  -27.8655  -20.4424   11.9292 C   0  0  0  0  0  0  0  0  0  0  0  0
  -22.7461  -16.2767   12.4862 C   0  0  0  0  0  0  0  0  0  0  0  0
  -24.9284  -16.8615   11.4073 C   0  0  0  0  0  0  0  0  0  0  0  0
  -22.9691  -18.3856   11.1605 C   0  0  0  0  0  0  0  0  0  0  0  0
  -27.1935  -21.5841   15.4958 C   0  0  0  0  0  0  0  0  0  0  0  0
  -27.8347  -18.1077   22.6540 C   0  0  0  0  0  0  0  0  0  0  0  0
  -30.0355  -19.4998   21.3358 C   0  0  0  0  0  0  0  0  0  0  0  0
  -29.0250  -14.1375   19.8505 C   0  0  0  0  0  0  0  0  0  0  0  0
  -30.5476  -20.3379   20.1479 C   0  0  0  0  0  0  0  0  0  0  0  0
  -29.5831  -20.4077   18.9659 C   0  0  0  0  0  0  0  0  0  0  0  0
  -25.9193  -15.9528   21.6221 C   0  0  0  0  0  0  0  0  0  1  0  0
  -27.2913  -15.3230   21.8990 C   0  0  1  0  0  0  0  0  0  0  0  0
  -24.1555  -18.2428   13.3885 C   0  0  1  0  0  0  0  0  0  0  0  0
  -27.0151  -20.7206   13.1589 C   0  0  2  0  0  0  0  0  0  0  0  0
  -23.6979  -17.4389   12.1389 C   0  0  0  0  0  0  0  0  0  0  0  0
  -24.8979  -26.5612   19.7592 N   0  0  0  0  0  0  0  0  0  0  0  0
  -30.4853  -17.5041   20.0578 N   0  0  0  0  0  0  0  0  0  0  0  0
  -30.2424  -16.2144   19.7008 N   0  0  0  0  0  0  0  0  0  0  0  0
  -24.7237  -25.8004   18.6651 N   0  0  0  0  0  0  0  0  0  0  0  0
  -22.8643  -18.3936   15.4942 N   0  0  0  0  0  0  0  0  0  0  0  0
  -26.7348  -22.7059   19.6495 N   0  0  0  0  0  0  0  0  0  0  0  0
  -23.9235  -25.8521   16.4363 N   0  0  0  0  0  0  0  0  0  0  0  0
  -23.2561  -30.0785   17.8814 N   0  0  0  0  0  0  0  0  0  0  0  0
  -19.4771  -17.7990   16.7068 N   0  0  0  0  0  0  0  0  0  0  0  0
  -25.0360  -19.3662   13.0868 N   0  0  0  0  0  0  0  0  0  0  0  0
  -28.2971  -20.9575   19.3333 N   0  0  0  0  0  0  0  0  0  0  0  0
  -27.9024  -21.2460   14.2348 N   0  3  0  0  0  0  0  0  0  0  0  0
  -23.0042  -28.6588   16.0982 O   0  0  0  0  0  0  0  0  0  0  0  0
  -21.0646  -16.5780   15.5185 O   0  0  0  0  0  0  0  0  0  0  0  0
  -22.2295  -19.6098   13.6090 O   0  0  0  0  0  0  0  0  0  0  0  0
  -26.8108  -18.6581   14.4006 O   0  0  0  0  0  0  0  0  0  0  0  0
  -28.8844  -23.1282   18.8885 O   0  0  0  0  0  0  0  0  0  0  0  0
  -24.4899  -32.0635   22.9383 O   0  0  0  0  0  0  0  0  0  0  0  0
  -25.4731  -15.5737   20.3208 O   0  0  0  0  0  0  0  0  0  1  0  0
  -29.0780  -32.8931   25.8820 F   0  0  0  0  0  0  0  0  0  0  0  0
  -25.8987  -34.4331   22.7315 F   0  0  0  0  0  0  0  0  0  0  0  0
  1  2  1  0  0  0  0
  1  5  2  0  0  0  0
  2  6  2  0  0  0  0
  3  8  2  0  0  0  0
  3 15  1  0  0  0  0
  4  9  1  0  0  0  0
  4 15  2  0  0  0  0
  5 17  1  0  0  0  0
  6 19  1  0  0  0  0
  7 10  2  0  0  0  0
  7 18  1  0  0  0  0
  8 23  1  0  0  0  0
  9 23  2  0  0  0  0
 10 24  1  0  0  0  0
 11 12  2  0  0  0  0
 11 25  1  0  0  0  0
 12 26  1  0  0  0  0
 13 20  1  0  0  0  0
 13 24  2  0  0  0  0
 14 26  2  0  0  0  0
 14 27  1  0  0  0  0
 15 28  1  0  0  0  0
 16 28  1  0  0  0  0
 16 31  2  0  0  0  0
 16 32  1  0  0  0  0
 17 19  2  0  0  0  0
 17 37  1  0  0  0  0
 18 20  2  0  0  0  0
 18 38  1  0  0  0  0
 19 46  1  0  0  0  0
 20 39  1  0  0  0  0
 21 22  1  0  0  0  0
 21 29  2  0  0  0  0
 21 57  1  0  0  0  0
 22 30  2  0  0  0  0
 22 63  1  0  0  0  0
 23 84  1  0  0  0  0
 24 85  1  0  0  0  0
 25 27  2  0  0  0  0
 25 84  1  0  0  0  0
 26 86  1  0  0  0  0
 27 87  1  0  0  0  0
 28 67  2  0  0  0  0
 29 58  1  0  0  0  0
 29 68  1  0  0  0  0
 30 59  1  0  0  0  0
 30 69  1  0  0  0  0
 31 70  1  0  0  0  0
 31 73  1  0  0  0  0
 32 74  1  0  0  0  0
 32 79  2  0  0  0  0
 33 47  1  0  0  0  0
 33 75  1  0  0  0  0
 33 80  2  0  0  0  0
 34 64  1  0  0  0  0
 34 71  1  0  0  0  0
 34 81  2  0  0  0  0
 35 65  1  0  0  0  0
 35 76  1  0  0  0  0
 35 82  2  0  0  0  0
 36 72  1  0  0  0  0
 36 77  1  0  0  0  0
 36 83  2  0  0  0  0
 37 40  1  0  0  0  0
 38 47  1  0  0  0  0
 39 71  1  0  0  0  0
 40 42  1  0  0  0  0
 41 43  1  0  0  0  0
 41 44  1  0  0  0  0
 42 46  1  0  0  0  0
 43 48  1  0  0  0  0
 44 72  1  0  0  0  0
 45 48  1  0  0  0  0
 45 72  1  0  0  0  0
 46 75  1  0  0  0  0
 47 71  1  0  0  0  0
 48 70  1  0  0  0  0
 49 57  1  0  0  0  0
 50 59  1  0  0  0  0
 51 63  1  0  0  0  0
 52 65  1  0  0  0  0
 53 66  1  0  0  0  0
 54 66  1  0  0  0  0
 55 66  1  0  0  0  0
 56 78  1  0  0  0  0
 58 60  1  0  0  0  0
 60 61  1  0  0  0  0
 61 77  1  0  0  0  0
 62 63  1  0  0  0  0
 62 85  1  0  0  0  0
 64 66  1  0  0  0  0
 64 76  1  0  0  0  0
 65 78  1  0  0  0  0
 67 70  1  0  0  0  0
 68 69  2  0  0  0  0
M  CHG  1  78   1
M  ISO  4  36 100  62 101  77 100  85 101
M  END
> <Batch ID>
0083

> <Smiles>
CCc1nnc(CCC[100NH:0][100C:0](=O)N2CCCC(n3nc(-c4ccc(Oc5ccc(F)cc5F)cc4)c(C(N)=O)c3N)C2)c(CC)c1C(C)[101CH2:1][101O:1]c1ccc2c(c1)CN(C(=O)C(NC(=O)C(C)NC)C(C)(C)C)C(C(=O)NC1CCCc3ccccc31)C2

> <Shape>
0.168

> <Color>
0.071

> <Negative vol penalty>
0.000

$$$$

  -OEChem-04052318513D

 90 98  0     1  0  0  0  0  0999 V2000
  -17.6761  -24.9067   20.6814 C   0  0  0  0  0  0  0  0  0  0  0  0
  -18.8112  -25.2170   19.9393 C   0  0  0  0  0  0  0  0  0  0  0  0
  -24.0288  -14.6657   20.7683 C   0  0  0  0  0  0  0  0  0  0  0  0
  -26.2397  -14.7743   21.7364 C   0  0  0  0  0  0  0  0  0  0  0  0
  -17.4047  -25.5996   21.8604 C   0  0  0  0  0  0  0  0  0  0  0  0
  -19.6749  -26.2212   20.3752 C   0  0  0  0  0  0  0  0  0  0  0  0
  -25.7659  -26.3638   19.7544 C   0  0  0  0  0  0  0  0  0  0  0  0
  -24.2186  -13.3129   20.4864 C   0  0  0  0  0  0  0  0  0  0  0  0
  -26.4295  -13.4215   21.4546 C   0  0  0  0  0  0  0  0  0  0  0  0
  -26.6005  -26.9988   18.8357 C   0  0  0  0  0  0  0  0  0  0  0  0
  -23.9828   -9.7438   19.8377 C   0  0  0  0  0  0  0  0  0  0  0  0
  -22.9399   -8.8667   20.1357 C   0  0  0  0  0  0  0  0  0  0  0  0
  -26.8970  -28.8289   20.3790 C   0  0  0  0  0  0  0  0  0  0  0  0
  -23.0709   -9.5016   22.4631 C   0  0  0  0  0  0  0  0  0  0  0  0
  -33.4910  -24.6188   18.6690 C   0  0  0  0  0  0  0  0  0  0  0  0
  -25.0393  -15.3965   21.3932 C   0  0  0  0  0  0  0  0  0  0  0  0
  -24.3027  -17.3504   22.8585 C   0  0  0  0  0  0  0  0  0  0  0  0
  -18.2706  -26.6062   22.3161 C   0  0  0  0  0  0  0  0  0  0  0  0
  -25.4814  -26.9628   20.9900 C   0  0  0  0  0  0  0  0  0  0  0  0
  -19.4141  -26.9291   21.5607 C   0  0  0  0  0  0  0  0  0  0  0  0
  -26.0606  -28.1983   21.3127 C   0  0  0  0  0  0  0  0  0  0  0  0
  -25.4190  -12.6908   20.8296 C   0  0  0  0  0  0  0  0  0  0  0  0
  -27.1639  -28.2328   19.1467 C   0  0  0  0  0  0  0  0  0  0  0  0
  -24.5698  -10.4997   20.8525 C   0  0  0  0  0  0  0  0  0  0  0  0
  -22.4840   -8.7456   21.4483 C   0  0  0  0  0  0  0  0  0  0  0  0
  -24.1138  -10.3787   22.1651 C   0  0  0  0  0  0  0  0  0  0  0  0
  -24.8441  -16.7941   21.6841 C   0  0  0  0  0  0  0  0  0  0  0  0
  -32.5729  -25.6858   18.6548 C   0  0  0  0  0  0  0  0  0  0  0  0
  -33.1425  -23.8806   19.7736 C   0  0  0  0  0  0  0  0  0  0  0  0
  -24.3321  -18.7063   22.6414 C   0  0  0  0  0  0  0  0  0  0  0  0
  -23.8167  -16.6997   24.0401 C   0  0  0  0  0  0  0  0  0  0  0  0
  -22.8423  -28.0043   22.4233 C   0  0  0  0  0  0  0  0  0  0  0  0
  -24.8494  -28.4536   24.9316 C   0  0  0  0  0  0  0  0  0  0  0  0
  -28.0390  -28.9579   26.0357 C   0  0  0  0  0  0  0  0  0  0  0  0
  -27.7114  -22.2040   19.1489 C   0  0  0  0  0  0  0  0  0  0  0  0
  -17.9104  -27.3601   23.5717 C   0  0  0  0  0  0  0  0  0  0  0  0
  -24.6005  -26.2525   21.9810 C   0  0  0  0  0  0  0  0  0  0  0  0
  -25.8030  -28.8740   22.6339 C   0  0  0  0  0  0  0  0  0  0  0  0
  -19.0739  -28.1538   24.1606 C   0  0  0  0  0  0  0  0  0  0  0  0
  -24.1610  -21.9388   19.1182 C   0  0  0  0  0  0  0  0  0  0  0  0
  -19.7932  -28.9372   23.0672 C   0  0  0  0  0  0  0  0  0  0  0  0
  -23.8846  -20.6404   19.8783 C   0  0  0  0  0  0  0  0  0  0  0  0
  -25.4254  -21.8368   18.2681 C   0  0  0  0  0  0  0  0  0  0  0  0
  -26.3553  -20.1105   19.7611 C   0  0  0  0  0  0  0  0  0  0  0  0
  -20.3881  -27.9950   22.0137 C   0  0  1  0  0  0  0  0  0  0  0  0
  -23.9682  -27.1943   23.0010 C   0  0  1  0  0  0  0  0  0  0  0  0
  -25.1208  -20.1836   20.6760 C   0  0  2  0  0  0  0  0  0  0  0  0
  -33.7185  -22.6443   20.3334 C   0  0  0  0  0  0  0  0  0  0  0  0
  -29.3613  -29.3262   28.1365 C   0  0  0  0  0  0  0  0  0  0  0  0
  -32.4221  -26.2258   14.5284 C   0  0  0  0  0  0  0  0  0  0  0  0
  -30.3133  -25.0058   15.1909 C   0  0  0  0  0  0  0  0  0  0  0  0
  -23.8584  -31.3371   25.0469 C   0  0  0  0  0  0  0  0  0  0  0  0
  -25.8394  -31.8873   26.4756 C   0  0  0  0  0  0  0  0  0  0  0  0
  -24.1442  -30.2422   27.2772 C   0  0  0  0  0  0  0  0  0  0  0  0
  -28.8565  -24.4620   21.0637 C   0  0  0  0  0  0  0  0  0  0  0  0
  -29.6315  -22.6744   22.6122 C   0  0  0  0  0  0  0  0  0  0  0  0
  -29.6263  -26.4972   25.6062 C   0  0  0  0  0  0  0  0  0  0  0  0
  -32.4904  -26.8077   17.6621 C   0  0  0  0  0  0  0  0  0  0  0  0
  -30.0426  -28.7302   17.0365 C   0  0  0  0  0  0  0  0  0  0  0  0
  -31.3516  -24.1348   21.5179 C   0  0  0  0  0  0  0  0  0  0  0  0
  -29.9825  -22.4371   20.1220 C   0  0  0  0  0  0  0  0  0  0  0  0
  -30.9350  -27.9464   16.0858 C   0  0  0  0  0  0  0  0  0  0  0  0
  -28.7365  -28.0223   17.3751 C   0  0  0  0  0  0  0  0  0  1  0  0
  -25.7217  -29.5878   25.4130 C   0  0  1  0  0  0  0  0  0  0  0  0
  -28.8367  -28.2982   27.1461 C   0  0  2  0  0  0  0  0  0  0  0  0
  -31.6331  -25.5938   15.6637 C   0  0  0  0  0  0  0  0  0  0  0  0
  -24.8944  -30.7520   26.0274 C   0  0  0  0  0  0  0  0  0  0  0  0
  -29.9768  -23.4304   21.3085 C   0  0  0  0  0  0  0  0  0  0  0  0
  -25.1918  -17.7208   20.7873 N   0  0  0  0  0  0  0  0  0  0  0  0
  -31.7060  -25.6338   19.6697 N   0  0  0  0  0  0  0  0  0  0  0  0
  -32.0779  -24.5251   20.3319 N   0  0  0  0  0  0  0  0  0  0  0  0
  -24.8681  -18.8732   21.3984 N   0  0  0  0  0  0  0  0  0  0  0  0
  -24.9299  -28.1426   23.5668 N   0  0  0  0  0  0  0  0  0  0  0  0
  -26.5609  -21.4007   19.0844 N   0  0  0  0  0  0  0  0  0  0  0  0
  -23.9514  -19.7601   23.3943 N   0  0  0  0  0  0  0  0  0  0  0  0
  -23.8595  -15.3000   24.0976 N   0  0  0  0  0  0  0  0  0  0  0  0
  -21.6070  -27.3906   22.5070 N   0  0  0  0  0  0  0  0  0  0  0  0
  -26.6921  -28.9964   26.3280 N   0  0  0  0  0  0  0  0  0  0  0  0
  -28.7385  -21.7204   19.9502 N   0  0  0  0  0  0  0  0  0  0  0  0
  -29.9982  -27.5564   26.5792 N   0  3  0  0  0  0  0  0  0  0  0  0
  -31.3412  -26.6579   16.6942 N   0  3  1  0  0  0  0  0  0  0  0  0
  -23.3430  -17.3397   25.0094 O   0  0  0  0  0  0  0  0  0  0  0  0
  -23.0766  -29.1052   21.9387 O   0  0  0  0  0  0  0  0  0  0  0  0
  -24.1287  -27.8606   25.7382 O   0  0  0  0  0  0  0  0  0  0  0  0
  -28.5593  -29.3985   25.0131 O   0  0  0  0  0  0  0  0  0  0  0  0
  -27.8135  -23.2755   18.5420 O   0  0  0  0  0  0  0  0  0  0  0  0
  -25.6045  -11.3707   20.5549 O   0  0  0  0  0  0  0  0  0  0  0  0
  -27.9783  -28.8551   18.2515 O   0  0  0  0  0  0  0  0  0  1  0  0
  -21.4815   -7.9045   21.7341 F   0  0  0  0  0  0  0  0  0  0  0  0
  -24.6730  -11.1032   23.1440 F   0  0  0  0  0  0  0  0  0  0  0  0
  1  2  1  0  0  0  0
  1  5  2  0  0  0  0
  2  6  2  0  0  0  0
  3  8  2  0  0  0  0
  3 16  1  0  0  0  0
  4  9  1  0  0  0  0
  4 16  2  0  0  0  0
  5 18  1  0  0  0  0
  6 20  1  0  0  0  0
  7 10  2  0  0  0  0
  7 19  1  0  0  0  0
  8 22  1  0  0  0  0
  9 22  2  0  0  0  0
 10 23  1  0  0  0  0
 11 12  2  0  0  0  0
 11 24  1  0  0  0  0
 12 25  1  0  0  0  0
 13 21  1  0  0  0  0
 13 23  2  0  0  0  0
 14 25  2  0  0  0  0
 14 26  1  0  0  0  0
 15 28  1  0  0  0  0
 15 29  2  0  0  0  0
 16 27  1  0  0  0  0
 17 27  1  0  0  0  0
 17 30  2  0  0  0  0
 17 31  1  0  0  0  0
 18 20  2  0  0  0  0
 18 36  1  0  0  0  0
 19 21  2  0  0  0  0
 19 37  1  0  0  0  0
 20 45  1  0  0  0  0
 21 38  1  0  0  0  0
 22 87  1  0  0  0  0
 23 88  1  0  0  0  0
 24 26  2  0  0  0  0
 24 87  1  0  0  0  0
 25 89  1  0  0  0  0
 26 90  1  0  0  0  0
 27 69  2  0  0  0  0
 28 58  1  0  0  0  0
 28 70  2  0  0  0  0
 29 48  1  0  0  0  0
 29 71  1  0  0  0  0
 30 72  1  0  0  0  0
 30 75  1  0  0  0  0
 31 76  1  0  0  0  0
 31 82  2  0  0  0  0
 32 46  1  0  0  0  0
 32 77  1  0  0  0  0
 32 83  2  0  0  0  0
 33 64  1  0  0  0  0
 33 73  1  0  0  0  0
 33 84  2  0  0  0  0
 34 65  1  0  0  0  0
 34 78  1  0  0  0  0
 34 85  2  0  0  0  0
 35 74  1  0  0  0  0
 35 79  1  0  0  0  0
 35 86  2  0  0  0  0
 36 39  1  0  0  0  0
 37 46  1  0  0  0  0
 38 73  1  0  0  0  0
 39 41  1  0  0  0  0
 40 42  1  0  0  0  0
 40 43  1  0  0  0  0
 41 45  1  0  0  0  0
 42 47  1  0  0  0  0
 43 74  1  0  0  0  0
 44 47  1  0  0  0  0
 44 74  1  0  0  0  0
 45 77  1  0  0  0  0
 46 73  1  0  0  0  0
 47 72  1  0  0  0  0
 49 65  1  0  0  0  0
 50 66  1  0  0  0  0
 51 66  1  0  0  0  0
 52 67  1  0  0  0  0
 53 67  1  0  0  0  0
 54 67  1  0  0  0  0
 55 68  1  0  0  0  0
 56 68  1  0  0  0  0
 57 80  1  0  0  0  0
 58 81  1  0  0  0  0
 59 62  1  0  0  0  0
 59 63  1  0  0  0  0
 60 68  1  0  0  0  0
 60 71  1  0  0  0  0
 61 68  1  0  0  0  0
 61 79  1  0  0  0  0
 62 81  1  0  0  0  0
 63 88  1  0  0  0  0
 64 67  1  0  0  0  0
 64 78  1  0  0  0  0
 65 80  1  0  0  0  0
 66 81  1  0  0  0  0
 69 72  1  0  0  0  0
 70 71  1  0  0  0  0
M  CHG  2  80   1  81   1
M  ISO  4  35 100  63 101  79 100  88 101
M  END
> <Batch ID>
0083

> <Smiles>
CNC(C)C(=O)NC(C(=O)N1Cc2cc([101O:1][101CH2:1]CCN(Cc3cc(C)n(CC(C)(C)C[100NH:0][100C:0](=O)N4CCCC(n5nc(-c6ccc(Oc7ccc(F)cc7F)cc6)c(C(N)=O)c5N)C4)n3)C(C)C)ccc2CC1C(=O)NC1CCCc2ccccc21)C(C)(C)C

> <Shape>
0.216

> <Color>
0.072

> <Negative vol penalty>
0.000

$$$$

  -OEChem-04052318513D

 85 93  0     1  0  0  0  0  0999 V2000
  -20.3509  -28.3252   18.8966 C   0  0  0  0  0  0  0  0  0  0  0  0
  -21.0598  -27.1283   18.9066 C   0  0  0  0  0  0  0  0  0  0  0  0
  -28.1130  -23.8600   20.6606 C   0  0  0  0  0  0  0  0  0  0  0  0
  -26.7852  -22.6961   19.0116 C   0  0  0  0  0  0  0  0  0  0  0  0
  -19.7159  -28.7677   20.0563 C   0  0  0  0  0  0  0  0  0  0  0  0
  -21.1351  -26.3736   20.0767 C   0  0  0  0  0  0  0  0  0  0  0  0
  -21.2827  -20.2670   20.5159 C   0  0  0  0  0  0  0  0  0  0  0  0
  -27.7852  -25.0779   20.0650 C   0  0  0  0  0  0  0  0  0  0  0  0
  -26.4573  -23.9140   18.4160 C   0  0  0  0  0  0  0  0  0  0  0  0
  -22.3313  -19.3638   20.6846 C   0  0  0  0  0  0  0  0  0  0  0  0
  -25.1560  -27.2036   20.0253 C   0  0  0  0  0  0  0  0  0  0  0  0
  -24.7814  -28.2546   20.8624 C   0  0  0  0  0  0  0  0  0  0  0  0
  -21.9231  -19.3432   23.0620 C   0  0  0  0  0  0  0  0  0  0  0  0
  -24.2042  -12.6731   21.6748 C   0  0  0  0  0  0  0  0  0  0  0  0
  -25.6300  -14.0482   20.3108 C   0  0  0  0  0  0  0  0  0  0  0  0
  -26.6286  -29.5730   20.0336 C   0  0  0  0  0  0  0  0  0  0  0  0
  -27.6131  -22.6691   20.1339 C   0  0  0  0  0  0  0  0  0  0  0  0
  -27.2524  -20.7512   21.7768 C   0  0  0  0  0  0  0  0  0  0  0  0
  -19.7754  -28.0133   21.2386 C   0  0  0  0  0  0  0  0  0  0  0  0
  -20.5523  -20.7242   21.6221 C   0  0  0  0  0  0  0  0  0  0  0  0
  -20.5015  -26.8071   21.2537 C   0  0  0  0  0  0  0  0  0  0  0  0
  -20.8641  -20.2502   22.9044 C   0  0  0  0  0  0  0  0  0  0  0  0
  -24.5557  -13.9260   21.1851 C   0  0  0  0  0  0  0  0  0  0  0  0
  -26.9573  -25.1049   18.9427 C   0  0  0  0  0  0  0  0  0  0  0  0
  -22.6535  -18.9040   21.9581 C   0  0  0  0  0  0  0  0  0  0  0  0
  -26.2669  -27.3373   19.1924 C   0  0  0  0  0  0  0  0  0  0  0  0
  -25.5177  -29.4393   20.8666 C   0  0  0  0  0  0  0  0  0  0  0  0
  -27.0032  -28.5220   19.1966 C   0  0  0  0  0  0  0  0  0  0  0  0
  -27.9519  -21.4106   20.7484 C   0  0  0  0  0  0  0  0  0  0  0  0
  -24.9528  -11.5823   21.2629 C   0  0  0  0  0  0  0  0  0  0  0  0
  -26.3149  -12.8960   19.9601 C   0  0  0  0  0  0  0  0  0  0  0  0
  -27.9746  -19.6050   22.0031 C   0  0  0  0  0  0  0  0  0  0  0  0
  -26.0567  -21.1399   22.4659 C   0  0  0  0  0  0  0  0  0  0  0  0
  -20.0554  -23.5624   22.9643 C   0  0  0  0  0  0  0  0  0  0  0  0
  -17.9868  -21.8883   24.8191 C   0  0  0  0  0  0  0  0  0  0  0  0
  -17.0600  -18.8797   26.1368 C   0  0  0  0  0  0  0  0  0  0  0  0
  -30.7578  -15.1532   20.1108 C   0  0  0  0  0  0  0  0  0  0  0  0
  -19.1126  -28.5559   22.4800 C   0  0  0  0  0  0  0  0  0  0  0  0
  -19.4068  -21.6779   21.4202 C   0  0  0  0  0  0  0  0  0  0  0  0
  -20.0975  -20.6947   24.1223 C   0  0  0  0  0  0  0  0  0  0  0  0
  -18.9268  -27.5111   23.5774 C   0  0  0  0  0  0  0  0  0  0  0  0
  -32.5519  -18.2188   20.3561 C   0  0  0  0  0  0  0  0  0  0  0  0
  -20.2096  -26.7093   23.7738 C   0  0  0  0  0  0  0  0  0  0  0  0
  -31.4573  -19.2680   20.5584 C   0  0  0  0  0  0  0  0  0  0  0  0
  -32.1027  -17.1106   19.4063 C   0  0  0  0  0  0  0  0  0  0  0  0
  -29.7379  -17.5065   19.9759 C   0  0  0  0  0  0  0  0  0  0  0  0
  -20.5853  -25.9481   22.4968 C   0  0  1  0  0  0  0  0  0  0  0  0
  -19.0622  -22.4723   22.6763 C   0  0  1  0  0  0  0  0  0  0  0  0
  -30.1240  -18.6152   20.9699 C   0  0  2  0  0  0  0  0  0  0  0  0
  -24.6033  -10.2220   21.7668 C   0  0  0  0  0  0  0  0  0  0  0  0
  -27.2011  -12.2298   17.7100 C   0  0  0  0  0  0  0  0  0  0  0  0
  -15.3504  -17.8330   27.6464 C   0  0  0  0  0  0  0  0  0  0  0  0
  -19.4362  -23.0309   27.2489 C   0  0  0  0  0  0  0  0  0  0  0  0
  -18.3456  -21.2614   28.6444 C   0  0  0  0  0  0  0  0  0  0  0  0
  -16.9456  -22.9532   27.4611 C   0  0  0  0  0  0  0  0  0  0  0  0
  -16.0510  -17.1303   23.9733 C   0  0  0  0  0  0  0  0  0  0  0  0
  -23.7744  -15.1472   21.5996 C   0  0  0  0  0  0  0  0  0  0  0  0
  -24.3193  -15.8297   22.8562 C   0  0  0  0  0  0  0  0  0  0  0  0
  -28.8194  -12.4951   19.6310 C   0  0  0  0  0  0  0  0  0  0  0  0
  -29.2870  -13.2949   20.8472 C   0  0  0  0  0  0  0  0  0  0  0  0
  -23.5761  -17.1103   23.2181 C   0  0  0  0  0  0  0  0  0  1  0  0
  -27.4742  -12.9904   19.0253 C   0  0  2  0  0  0  0  0  0  0  0  0
  -18.0889  -21.1370   26.1246 C   0  0  1  0  0  0  0  0  0  0  0  0
  -15.7122  -18.1852   26.2119 C   0  0  2  0  0  0  0  0  0  0  0  0
  -18.2200  -22.0886   27.3472 C   0  0  0  0  0  0  0  0  0  0  0  0
  -29.0353  -20.7393   20.3490 N   0  0  0  0  0  0  0  0  0  0  0  0
  -26.0028  -11.6618   20.4151 N   0  0  0  0  0  0  0  0  0  0  0  0
  -29.0221  -19.6461   21.1306 N   0  0  0  0  0  0  0  0  0  0  0  0
  -18.9904  -21.6329   23.8739 N   0  0  0  0  0  0  0  0  0  0  0  0
  -30.8335  -16.5321   19.8538 N   0  0  0  0  0  0  0  0  0  0  0  0
  -27.8094  -18.5761   22.8613 N   0  0  0  0  0  0  0  0  0  0  0  0
  -25.4425  -22.3480   22.1088 N   0  0  0  0  0  0  0  0  0  0  0  0
  -19.7626  -24.7663   22.3523 N   0  0  0  0  0  0  0  0  0  0  0  0
  -16.9305  -20.2518   26.1778 N   0  0  0  0  0  0  0  0  0  0  0  0
  -29.5199  -14.6879   20.5372 N   0  0  0  0  0  0  0  0  0  0  0  0
  -15.7314  -16.9291   25.4101 N   0  3  0  0  0  0  0  0  0  0  0  0
  -25.5571  -20.4447   23.3828 O   0  0  0  0  0  0  0  0  0  0  0  0
  -21.0154  -23.3291   23.6893 O   0  0  0  0  0  0  0  0  0  0  0  0
  -17.0471  -22.6675   24.6418 O   0  0  0  0  0  0  0  0  0  0  0  0
  -18.1218  -18.2662   26.0540 O   0  0  0  0  0  0  0  0  0  0  0  0
  -31.7234  -14.3941   19.9758 O   0  0  0  0  0  0  0  0  0  0  0  0
  -26.6370  -26.2932   18.3613 O   0  0  0  0  0  0  0  0  0  0  0  0
  -23.6770  -18.0229   22.1257 O   0  0  0  0  0  0  0  0  0  1  0  0
  -25.1570  -30.4490   21.6694 F   0  0  0  0  0  0  0  0  0  0  0  0
  -28.0707  -28.6567   18.3977 F   0  0  0  0  0  0  0  0  0  0  0  0
  1  2  1  0  0  0  0
  1  5  2  0  0  0  0
  2  6  2  0  0  0  0
  3  8  2  0  0  0  0
  3 17  1  0  0  0  0
  4  9  1  0  0  0  0
  4 17  2  0  0  0  0
  5 19  1  0  0  0  0
  6 21  1  0  0  0  0
  7 10  2  0  0  0  0
  7 20  1  0  0  0  0
  8 24  1  0  0  0  0
  9 24  2  0  0  0  0
 10 25  1  0  0  0  0
 11 12  2  0  0  0  0
 11 26  1  0  0  0  0
 12 27  1  0  0  0  0
 13 22  1  0  0  0  0
 13 25  2  0  0  0  0
 14 23  1  0  0  0  0
 14 30  2  0  0  0  0
 15 23  2  0  0  0  0
 15 31  1  0  0  0  0
 16 27  2  0  0  0  0
 16 28  1  0  0  0  0
 17 29  1  0  0  0  0
 18 29  1  0  0  0  0
 18 32  2  0  0  0  0
 18 33  1  0  0  0  0
 19 21  2  0  0  0  0
 19 38  1  0  0  0  0
 20 22  2  0  0  0  0
 20 39  1  0  0  0  0
 21 47  1  0  0  0  0
 22 40  1  0  0  0  0
 23 57  1  0  0  0  0
 24 82  1  0  0  0  0
 25 83  1  0  0  0  0
 26 28  2  0  0  0  0
 26 82  1  0  0  0  0
 27 84  1  0  0  0  0
 28 85  1  0  0  0  0
 29 66  2  0  0  0  0
 30 50  1  0  0  0  0
 30 67  1  0  0  0  0
 31 62  1  0  0  0  0
 31 67  2  0  0  0  0
 32 68  1  0  0  0  0
 32 71  1  0  0  0  0
 33 72  1  0  0  0  0
 33 77  2  0  0  0  0
 34 48  1  0  0  0  0
 34 73  1  0  0  0  0
 34 78  2  0  0  0  0
 35 63  1  0  0  0  0
 35 69  1  0  0  0  0
 35 79  2  0  0  0  0
 36 64  1  0  0  0  0
 36 74  1  0  0  0  0
 36 80  2  0  0  0  0
 37 70  1  0  0  0  0
 37 75  1  0  0  0  0
 37 81  2  0  0  0  0
 38 41  1  0  0  0  0
 39 48  1  0  0  0  0
 40 69  1  0  0  0  0
 41 43  1  0  0  0  0
 42 44  1  0  0  0  0
 42 45  1  0  0  0  0
 43 47  1  0  0  0  0
 44 49  1  0  0  0  0
 45 70  1  0  0  0  0
 46 49  1  0  0  0  0
 46 70  1  0  0  0  0
 47 73  1  0  0  0  0
 48 69  1  0  0  0  0
 49 68  1  0  0  0  0
 51 62  1  0  0  0  0
 52 64  1  0  0  0  0
 53 65  1  0  0  0  0
 54 65  1  0  0  0  0
 55 65  1  0  0  0  0
 56 76  1  0  0  0  0
 57 58  1  0  0  0  0
 58 61  1  0  0  0  0
 59 60  1  0  0  0  0
 59 62  1  0  0  0  0
 60 75  1  0  0  0  0
 61 83  1  0  0  0  0
 63 65  1  0  0  0  0
 63 74  1  0  0  0  0
 64 76  1  0  0  0  0
 66 68  1  0  0  0  0
M  CHG  1  76   1
M  ISO  4  37 100  61 101  75 100  83 101
M  END
> <Batch ID>
0083

> <Smiles>
CNC(C)C(=O)NC(C(=O)N1Cc2cc([101O:1][101CH2:1]CCc3cc(C)nc(C(C)CC[100NH:0][100C:0](=O)N4CCCC(n5nc(-c6ccc(Oc7ccc(F)cc7F)cc6)c(C(N)=O)c5N)C4)c3)ccc2CC1C(=O)NC1CCCc2ccccc21)C(C)(C)C

> <Shape>
0.197

> <Color>
0.101

> <Negative vol penalty>
0.000

$$$$

  -OEChem-04052318513D

 87 95  0     1  0  0  0  0  0999 V2000
  -28.1235  -32.3749   26.8031 C   0  0  0  0  0  0  0  0  0  0  0  0
  -28.2489  -31.3030   25.9253 C   0  0  0  0  0  0  0  0  0  0  0  0
  -23.8581   -9.2902   20.7761 C   0  0  0  0  0  0  0  0  0  0  0  0
  -22.8313  -11.4244   21.2536 C   0  0  0  0  0  0  0  0  0  0  0  0
  -26.8639  -32.7482   27.2702 C   0  0  0  0  0  0  0  0  0  0  0  0
  -27.1150  -30.6029   25.5150 C   0  0  0  0  0  0  0  0  0  0  0  0
  -27.0963  -29.6824   20.5353 C   0  0  0  0  0  0  0  0  0  0  0  0
  -22.9309   -8.6586   21.6049 C   0  0  0  0  0  0  0  0  0  0  0  0
  -21.9040  -10.7928   22.0823 C   0  0  0  0  0  0  0  0  0  0  0  0
  -27.8980  -28.6375   20.0779 C   0  0  0  0  0  0  0  0  0  0  0  0
  -22.4624   -8.1970   24.9203 C   0  0  0  0  0  0  0  0  0  0  0  0
  -22.9402   -7.2388   25.8141 C   0  0  0  0  0  0  0  0  0  0  0  0
  -25.9607  -27.2038   19.9755 C   0  0  0  0  0  0  0  0  0  0  0  0
  -29.0283  -19.5647   19.5913 C   0  0  0  0  0  0  0  0  0  0  0  0
  -21.5364   -5.5694   24.7749 C   0  0  0  0  0  0  0  0  0  0  0  0
  -23.8084  -10.6731   20.6005 C   0  0  0  0  0  0  0  0  0  0  0  0
  -24.6426  -11.5755   18.3650 C   0  0  0  0  0  0  0  0  0  0  0  0
  -25.7130  -32.0584   26.8579 C   0  0  0  0  0  0  0  0  0  0  0  0
  -25.7202  -29.4923   20.7269 C   0  0  0  0  0  0  0  0  0  0  0  0
  -25.8390  -30.9664   25.9781 C   0  0  0  0  0  0  0  0  0  0  0  0
  -25.1432  -28.2486   20.4329 C   0  0  0  0  0  0  0  0  0  0  0  0
  -29.4581  -20.3848   20.6286 C   0  0  0  0  0  0  0  0  0  0  0  0
  -28.7134  -18.2351   19.8485 C   0  0  0  0  0  0  0  0  0  0  0  0
  -21.9538   -9.4099   22.2580 C   0  0  0  0  0  0  0  0  0  0  0  0
  -27.3308  -27.3972   19.8007 C   0  0  0  0  0  0  0  0  0  0  0  0
  -21.5215   -7.8416   23.9538 C   0  0  0  0  0  0  0  0  0  0  0  0
  -22.4773   -5.9250   25.7414 C   0  0  0  0  0  0  0  0  0  0  0  0
  -21.0586   -6.5278   23.8811 C   0  0  0  0  0  0  0  0  0  0  0  0
  -24.7664  -11.3262   19.7449 C   0  0  0  0  0  0  0  0  0  0  0  0
  -29.5554  -19.8313   21.8951 C   0  0  0  0  0  0  0  0  0  0  0  0
  -28.8443  -17.7778   21.1498 C   0  0  0  0  0  0  0  0  0  0  0  0
  -25.8101  -12.2142   18.0254 C   0  0  0  0  0  0  0  0  0  0  0  0
  -23.5682  -11.2583   17.4701 C   0  0  0  0  0  0  0  0  0  0  0  0
  -23.7635  -29.6314   23.2280 C   0  0  0  0  0  0  0  0  0  0  0  0
  -29.7021  -15.4504   21.2644 C   0  0  0  0  0  0  0  0  0  0  0  0
  -21.4764  -29.1944   20.9696 C   0  0  0  0  0  0  0  0  0  0  0  0
  -20.6525  -28.0372   17.8665 C   0  0  0  0  0  0  0  0  0  0  0  0
  -24.3778  -32.4687   27.4268 C   0  0  0  0  0  0  0  0  0  0  0  0
  -24.8646  -30.6373   21.1954 C   0  0  0  0  0  0  0  0  0  0  0  0
  -23.6677  -27.9990   20.6027 C   0  0  0  0  0  0  0  0  0  0  0  0
  -23.1876  -31.9113   26.6503 C   0  0  0  0  0  0  0  0  0  0  0  0
  -30.4064  -12.5494   19.2825 C   0  0  0  0  0  0  0  0  0  0  0  0
  -23.3876  -30.4272   26.3597 C   0  0  0  0  0  0  0  0  0  0  0  0
  -29.0322  -11.9141   19.0750 C   0  0  0  0  0  0  0  0  0  0  0  0
  -30.5202  -13.1969   20.6590 C   0  0  0  0  0  0  0  0  0  0  0  0
  -28.0751  -13.5658   20.7427 C   0  0  0  0  0  0  0  0  0  0  0  0
  -24.6299  -30.1978   25.4906 C   0  0  1  0  0  0  0  0  0  0  0  0
  -23.5613  -30.1825   21.8449 C   0  0  1  0  0  0  0  0  0  0  0  0
  -27.9073  -12.9271   19.3526 C   0  0  2  0  0  0  0  0  0  0  0  0
  -30.3568  -19.8190   24.2708 C   0  0  0  0  0  0  0  0  0  0  0  0
  -26.3286  -16.7353   17.2086 C   0  0  0  0  0  0  0  0  0  0  0  0
  -28.0042  -16.1776   22.9179 C   0  0  0  0  0  0  0  0  0  0  0  0
  -18.6978  -27.7845   16.3132 C   0  0  0  0  0  0  0  0  0  0  0  0
  -20.4689  -26.8375   22.6249 C   0  0  0  0  0  0  0  0  0  0  0  0
  -19.1830  -26.0683   20.6192 C   0  0  0  0  0  0  0  0  0  0  0  0
  -18.6682  -28.2777   21.6566 C   0  0  0  0  0  0  0  0  0  0  0  0
  -21.9142  -29.7542   15.8125 C   0  0  0  0  0  0  0  0  0  0  0  0
  -29.8010  -21.8277   20.3563 C   0  0  0  0  0  0  0  0  0  0  0  0
  -28.2526  -17.3511   18.7414 C   0  0  0  0  0  0  0  0  0  0  0  0
  -30.0126  -20.6638   23.0479 C   0  0  0  0  0  0  0  0  0  0  0  0
  -26.7867  -17.6142   18.3617 C   0  0  0  0  0  0  0  0  0  0  0  0
  -28.5764  -22.7321   20.1781 C   0  0  0  0  0  0  0  0  0  0  0  0
  -28.9436  -24.1746   19.8268 C   0  0  0  0  0  0  0  0  0  0  0  0
  -27.7051  -25.0509   19.6969 C   0  0  0  0  0  0  0  0  0  1  0  0
  -28.5186  -16.3588   21.4840 C   0  0  1  0  0  0  0  0  0  0  0  0
  -20.8091  -27.9944   20.3420 C   0  0  1  0  0  0  0  0  0  0  0  0
  -19.8627  -28.6672   16.7335 C   0  0  2  0  0  0  0  0  0  0  0  0
  -19.8104  -27.2983   21.3092 C   0  0  0  0  0  0  0  0  0  0  0  0
  -25.9215  -11.7701   20.2476 N   0  0  0  0  0  0  0  0  0  0  0  0
  -29.2586  -18.5443   22.1835 N   0  0  0  0  0  0  0  0  0  0  0  0
  -26.5342  -12.3047   19.1776 N   0  0  0  0  0  0  0  0  0  0  0  0
  -22.8741  -29.1479   21.0692 N   0  0  0  0  0  0  0  0  0  0  0  0
  -29.4213  -14.1354   20.8931 N   0  0  0  0  0  0  0  0  0  0  0  0
  -26.2778  -12.7015   16.8565 N   0  0  0  0  0  0  0  0  0  0  0  0
  -22.4424  -10.6007   17.9844 N   0  0  0  0  0  0  0  0  0  0  0  0
  -24.3470  -30.5220   24.1088 N   0  0  0  0  0  0  0  0  0  0  0  0
  -20.2073  -28.4655   19.0992 N   0  0  0  0  0  0  0  0  0  0  0  0
  -20.7398  -28.8836   15.5483 N   0  3  0  0  0  0  0  0  0  0  0  0
  -23.6125  -11.5347   16.2474 O   0  0  0  0  0  0  0  0  0  0  0  0
  -23.4145  -28.4836   23.4780 O   0  0  0  0  0  0  0  0  0  0  0  0
  -30.8415  -15.8989   21.4159 O   0  0  0  0  0  0  0  0  0  0  0  0
  -20.7835  -30.1411   21.3507 O   0  0  0  0  0  0  0  0  0  0  0  0
  -21.5700  -27.2418   17.6770 O   0  0  0  0  0  0  0  0  0  0  0  0
  -21.0486   -8.7939   23.0666 O   0  0  0  0  0  0  0  0  0  0  0  0
  -28.1112  -26.3754   19.3547 O   0  0  0  0  0  0  0  0  0  1  0  0
  -22.9374   -5.0045   26.5989 F   0  0  0  0  0  0  0  0  0  0  0  0
  -20.1556   -6.1800   22.9539 F   0  0  0  0  0  0  0  0  0  0  0  0
  1  2  1  0  0  0  0
  1  5  2  0  0  0  0
  2  6  2  0  0  0  0
  3  8  2  0  0  0  0
  3 16  1  0  0  0  0
  4  9  1  0  0  0  0
  4 16  2  0  0  0  0
  5 18  1  0  0  0  0
  6 20  1  0  0  0  0
  7 10  2  0  0  0  0
  7 19  1  0  0  0  0
  8 24  1  0  0  0  0
  9 24  2  0  0  0  0
 10 25  1  0  0  0  0
 11 12  2  0  0  0  0
 11 26  1  0  0  0  0
 12 27  1  0  0  0  0
 13 21  1  0  0  0  0
 13 25  2  0  0  0  0
 14 22  2  0  0  0  0
 14 23  1  0  0  0  0
 15 27  2  0  0  0  0
 15 28  1  0  0  0  0
 16 29  1  0  0  0  0
 17 29  1  0  0  0  0
 17 32  2  0  0  0  0
 17 33  1  0  0  0  0
 18 20  2  0  0  0  0
 18 38  1  0  0  0  0
 19 21  2  0  0  0  0
 19 39  1  0  0  0  0
 20 47  1  0  0  0  0
 21 40  1  0  0  0  0
 22 30  1  0  0  0  0
 22 58  1  0  0  0  0
 23 31  2  0  0  0  0
 23 59  1  0  0  0  0
 24 84  1  0  0  0  0
 25 85  1  0  0  0  0
 26 28  2  0  0  0  0
 26 84  1  0  0  0  0
 27 86  1  0  0  0  0
 28 87  1  0  0  0  0
 29 69  2  0  0  0  0
 30 60  1  0  0  0  0
 30 70  2  0  0  0  0
 31 65  1  0  0  0  0
 31 70  1  0  0  0  0
 32 71  1  0  0  0  0
 32 74  1  0  0  0  0
 33 75  1  0  0  0  0
 33 79  2  0  0  0  0
 34 48  1  0  0  0  0
 34 76  1  0  0  0  0
 34 80  2  0  0  0  0
 35 65  1  0  0  0  0
 35 73  1  0  0  0  0
 35 81  2  0  0  0  0
 36 66  1  0  0  0  0
 36 72  1  0  0  0  0
 36 82  2  0  0  0  0
 37 67  1  0  0  0  0
 37 77  1  0  0  0  0
 37 83  2  0  0  0  0
 38 41  1  0  0  0  0
 39 48  1  0  0  0  0
 40 72  1  0  0  0  0
 41 43  1  0  0  0  0
 42 44  1  0  0  0  0
 42 45  1  0  0  0  0
 43 47  1  0  0  0  0
 44 49  1  0  0  0  0
 45 73  1  0  0  0  0
 46 49  1  0  0  0  0
 46 73  1  0  0  0  0
 47 76  1  0  0  0  0
 48 72  1  0  0  0  0
 49 71  1  0  0  0  0
 50 60  1  0  0  0  0
 51 61  1  0  0  0  0
 52 65  1  0  0  0  0
 53 67  1  0  0  0  0
 54 68  1  0  0  0  0
 55 68  1  0  0  0  0
 56 68  1  0  0  0  0
 57 78  1  0  0  0  0
 58 62  1  0  0  0  0
 59 61  1  0  0  0  0
 62 63  1  0  0  0  0
 63 64  1  0  0  0  0
 64 85  1  0  0  0  0
 66 68  1  0  0  0  0
 66 77  1  0  0  0  0
 67 78  1  0  0  0  0
 69 71  1  0  0  0  0
M  CHG  1  78   1
M  ISO  4  35 100  64 101  65 100  85 101
M  END
> <Batch ID>
0083

> <Smiles>
CCCc1cc(CCC[101CH2:1][101O:1]c2ccc3c(c2)CN(C(=O)C(NC(=O)C(C)NC)C(C)(C)C)C(C(=O)NC2CCCc4ccccc42)C3)c(CC)nc1[100CH:0](C)[100C:0](=O)N1CCCC(n2nc(-c3ccc(Oc4ccc(F)cc4F)cc3)c(C(N)=O)c2N)C1

> <Shape>
0.341

> <Color>
0.090

> <Negative vol penalty>
0.000

$$$$

  -OEChem-04052318513D

 86 94  0     1  0  0  0  0  0999 V2000
  -18.5881  -24.9172   23.3850 C   0  0  0  0  0  0  0  0  0  0  0  0
  -19.7285  -24.8529   22.5909 C   0  0  0  0  0  0  0  0  0  0  0  0
  -31.3053  -19.5821   21.9766 C   0  0  0  0  0  0  0  0  0  0  0  0
  -31.0405  -18.0637   20.1161 C   0  0  0  0  0  0  0  0  0  0  0  0
  -17.9795  -26.1473   23.6308 C   0  0  0  0  0  0  0  0  0  0  0  0
  -20.2604  -26.0188   22.0410 C   0  0  0  0  0  0  0  0  0  0  0  0
  -26.1794  -27.2765   21.0976 C   0  0  0  0  0  0  0  0  0  0  0  0
  -31.8063  -18.5396   22.7562 C   0  0  0  0  0  0  0  0  0  0  0  0
  -31.5416  -17.0212   20.8956 C   0  0  0  0  0  0  0  0  0  0  0  0
  -26.9865  -27.1951   19.9637 C   0  0  0  0  0  0  0  0  0  0  0  0
  -34.5623  -15.9237   21.9401 C   0  0  0  0  0  0  0  0  0  0  0  0
  -35.5094  -15.0800   21.3598 C   0  0  0  0  0  0  0  0  0  0  0  0
  -26.6074  -29.5382   19.5332 C   0  0  0  0  0  0  0  0  0  0  0  0
  -28.0335  -26.6125   14.8000 C   0  0  0  0  0  0  0  0  0  0  0  0
  -34.0383  -13.1941   21.7008 C   0  0  0  0  0  0  0  0  0  0  0  0
  -30.9223  -19.3442   20.6566 C   0  0  0  0  0  0  0  0  0  0  0  0
  -31.1382  -21.2978   19.0304 C   0  0  0  0  0  0  0  0  0  0  0  0
  -18.5099  -27.3300   23.0916 C   0  0  0  0  0  0  0  0  0  0  0  0
  -25.5704  -28.4888   21.4524 C   0  0  0  0  0  0  0  0  0  0  0  0
  -19.6576  -27.2657   22.2787 C   0  0  0  0  0  0  0  0  0  0  0  0
  -25.7951  -29.6329   20.6735 C   0  0  0  0  0  0  0  0  0  0  0  0
  -29.3850  -26.8370   15.0374 C   0  0  0  0  0  0  0  0  0  0  0  0
  -30.3263  -25.9184   14.5865 C   0  0  0  0  0  0  0  0  0  0  0  0
  -31.9245  -17.2591   22.2157 C   0  0  0  0  0  0  0  0  0  0  0  0
  -27.1982  -28.3254   19.1797 C   0  0  0  0  0  0  0  0  0  0  0  0
  -33.3532  -15.4026   22.4008 C   0  0  0  0  0  0  0  0  0  0  0  0
  -35.2475  -13.7152   21.2401 C   0  0  0  0  0  0  0  0  0  0  0  0
  -33.0912  -14.0378   22.2811 C   0  0  0  0  0  0  0  0  0  0  0  0
  -30.4041  -20.4206   19.8510 C   0  0  0  0  0  0  0  0  0  0  0  0
  -27.6779  -25.4633   14.1126 C   0  0  0  0  0  0  0  0  0  0  0  0
  -29.8681  -24.8001   13.9088 C   0  0  0  0  0  0  0  0  0  0  0  0
  -30.1918  -22.1302   18.4847 C   0  0  0  0  0  0  0  0  0  0  0  0
  -32.5494  -21.3549   18.7835 C   0  0  0  0  0  0  0  0  0  0  0  0
  -22.5677  -29.4838   21.7643 C   0  0  0  0  0  0  0  0  0  0  0  0
  -23.9874  -32.1765   22.8850 C   0  0  0  0  0  0  0  0  0  0  0  0
  -26.7581  -34.1668   22.9788 C   0  0  0  0  0  0  0  0  0  0  0  0
  -25.2272  -22.9289   16.0638 C   0  0  0  0  0  0  0  0  0  0  0  0
  -17.7899  -28.6306   23.3462 C   0  0  0  0  0  0  0  0  0  0  0  0
  -24.7243  -28.5663   22.6935 C   0  0  0  0  0  0  0  0  0  0  0  0
  -25.1808  -30.9630   21.0226 C   0  0  0  0  0  0  0  0  0  0  0  0
  -18.6326  -29.8645   23.0337 C   0  0  0  0  0  0  0  0  0  0  0  0
  -25.3008  -22.7454   19.6187 C   0  0  0  0  0  0  0  0  0  0  0  0
  -19.3236  -29.7109   21.6826 C   0  0  0  0  0  0  0  0  0  0  0  0
  -26.6926  -22.1909   19.9277 C   0  0  0  0  0  0  0  0  0  0  0  0
  -24.7155  -22.1269   18.3511 C   0  0  0  0  0  0  0  0  0  0  0  0
  -26.9705  -21.6697   17.4680 C   0  0  0  0  0  0  0  0  0  0  0  0
  -20.2789  -28.5113   21.6847 C   0  0  1  0  0  0  0  0  0  0  0  0
  -23.7386  -29.7306   22.6729 C   0  0  1  0  0  0  0  0  0  0  0  0
  -27.6252  -22.3047   18.7068 C   0  0  2  0  0  0  0  0  0  0  0  0
  -31.7831  -26.1341   14.8245 C   0  0  0  0  0  0  0  0  0  0  0  0
  -30.2419  -22.3717   13.4092 C   0  0  0  0  0  0  0  0  0  0  0  0
  -25.7626  -25.8594   12.5319 C   0  0  0  0  0  0  0  0  0  0  0  0
  -27.6043  -36.3208   23.9493 C   0  0  0  0  0  0  0  0  0  0  0  0
  -22.3650  -33.7386   20.8264 C   0  0  0  0  0  0  0  0  0  0  0  0
  -23.9118  -35.6753   21.1798 C   0  0  0  0  0  0  0  0  0  0  0  0
  -22.5254  -34.8271   23.0723 C   0  0  0  0  0  0  0  0  0  0  0  0
  -28.9086  -32.7847   24.4701 C   0  0  0  0  0  0  0  0  0  0  0  0
  -29.8015  -28.0781   15.7857 C   0  0  0  0  0  0  0  0  0  0  0  0
  -30.8316  -23.7787   13.3989 C   0  0  0  0  0  0  0  0  0  0  0  0
  -30.1941  -27.8169   17.2415 C   0  0  0  0  0  0  0  0  0  0  0  0
  -25.8936  -23.6818   13.7949 C   0  0  0  0  0  0  0  0  0  0  0  0
  -29.0436  -27.2918   18.0923 C   0  0  0  0  0  0  0  0  0  1  0  0
  -26.2366  -25.1904   13.8386 C   0  0  1  0  0  0  0  0  0  0  0  0
  -24.4908  -33.4573   22.2644 C   0  0  1  0  0  0  0  0  0  0  0  0
  -27.4934  -34.8158   24.1376 C   0  0  2  0  0  0  0  0  0  0  0  0
  -23.3334  -34.3992   21.8278 C   0  0  0  0  0  0  0  0  0  0  0  0
  -29.0925  -20.6724   19.8315 N   0  0  0  0  0  0  0  0  0  0  0  0
  -28.5635  -24.5480   13.6592 N   0  0  0  0  0  0  0  0  0  0  0  0
  -28.9950  -21.7174   18.9921 N   0  0  0  0  0  0  0  0  0  0  0  0
  -24.3563  -30.9864   22.2420 N   0  0  0  0  0  0  0  0  0  0  0  0
  -25.6483  -22.2698   17.2306 N   0  0  0  0  0  0  0  0  0  0  0  0
  -30.2749  -23.1678   17.6251 N   0  0  0  0  0  0  0  0  0  0  0  0
  -33.3782  -20.4248   19.4255 N   0  0  0  0  0  0  0  0  0  0  0  0
  -21.5064  -28.8439   22.3755 N   0  0  0  0  0  0  0  0  0  0  0  0
  -25.4082  -34.0473   23.2333 N   0  0  0  0  0  0  0  0  0  0  0  0
  -26.1752  -23.0263   15.0526 N   0  0  0  0  0  0  0  0  0  0  0  0
  -28.8687  -34.2545   24.2578 N   0  3  0  0  0  0  0  0  0  0  0  0
  -33.0620  -22.2160   18.0290 O   0  0  0  0  0  0  0  0  0  0  0  0
  -22.6225  -29.8484   20.5956 O   0  0  0  0  0  0  0  0  0  0  0  0
  -23.2984  -32.2297   23.9068 O   0  0  0  0  0  0  0  0  0  0  0  0
  -27.3240  -33.8056   21.9494 O   0  0  0  0  0  0  0  0  0  0  0  0
  -24.0923  -23.4005   15.9350 O   0  0  0  0  0  0  0  0  0  0  0  0
  -32.4136  -16.2417   22.9760 O   0  0  0  0  0  0  0  0  0  0  0  0
  -27.9850  -28.2486   18.0720 O   0  0  0  0  0  0  0  0  0  1  0  0
  -36.1564  -12.9054   20.6815 F   0  0  0  0  0  0  0  0  0  0  0  0
  -31.9310  -13.5316   22.7208 F   0  0  0  0  0  0  0  0  0  0  0  0
  1  2  1  0  0  0  0
  1  5  2  0  0  0  0
  2  6  2  0  0  0  0
  3  8  2  0  0  0  0
  3 16  1  0  0  0  0
  4  9  1  0  0  0  0
  4 16  2  0  0  0  0
  5 18  1  0  0  0  0
  6 20  1  0  0  0  0
  7 10  2  0  0  0  0
  7 19  1  0  0  0  0
  8 24  1  0  0  0  0
  9 24  2  0  0  0  0
 10 25  1  0  0  0  0
 11 12  2  0  0  0  0
 11 26  1  0  0  0  0
 12 27  1  0  0  0  0
 13 21  1  0  0  0  0
 13 25  2  0  0  0  0
 14 22  2  0  0  0  0
 14 30  1  0  0  0  0
 15 27  2  0  0  0  0
 15 28  1  0  0  0  0
 16 29  1  0  0  0  0
 17 29  1  0  0  0  0
 17 32  2  0  0  0  0
 17 33  1  0  0  0  0
 18 20  2  0  0  0  0
 18 38  1  0  0  0  0
 19 21  2  0  0  0  0
 19 39  1  0  0  0  0
 20 47  1  0  0  0  0
 21 40  1  0  0  0  0
 22 23  1  0  0  0  0
 22 58  1  0  0  0  0
 23 31  2  0  0  0  0
 23 50  1  0  0  0  0
 24 83  1  0  0  0  0
 25 84  1  0  0  0  0
 26 28  2  0  0  0  0
 26 83  1  0  0  0  0
 27 85  1  0  0  0  0
 28 86  1  0  0  0  0
 29 67  2  0  0  0  0
 30 63  1  0  0  0  0
 30 68  2  0  0  0  0
 31 59  1  0  0  0  0
 31 68  1  0  0  0  0
 32 69  1  0  0  0  0
 32 72  1  0  0  0  0
 33 73  1  0  0  0  0
 33 78  2  0  0  0  0
 34 48  1  0  0  0  0
 34 74  1  0  0  0  0
 34 79  2  0  0  0  0
 35 64  1  0  0  0  0
 35 70  1  0  0  0  0
 35 80  2  0  0  0  0
 36 65  1  0  0  0  0
 36 75  1  0  0  0  0
 36 81  2  0  0  0  0
 37 71  1  0  0  0  0
 37 76  1  0  0  0  0
 37 82  2  0  0  0  0
 38 41  1  0  0  0  0
 39 48  1  0  0  0  0
 40 70  1  0  0  0  0
 41 43  1  0  0  0  0
 42 44  1  0  0  0  0
 42 45  1  0  0  0  0
 43 47  1  0  0  0  0
 44 49  1  0  0  0  0
 45 71  1  0  0  0  0
 46 49  1  0  0  0  0
 46 71  1  0  0  0  0
 47 74  1  0  0  0  0
 48 70  1  0  0  0  0
 49 69  1  0  0  0  0
 51 59  1  0  0  0  0
 52 63  1  0  0  0  0
 53 65  1  0  0  0  0
 54 66  1  0  0  0  0
 55 66  1  0  0  0  0
 56 66  1  0  0  0  0
 57 77  1  0  0  0  0
 58 60  1  0  0  0  0
 60 62  1  0  0  0  0
 61 63  1  0  0  0  0
 61 76  1  0  0  0  0
 62 84  1  0  0  0  0
 64 66  1  0  0  0  0
 64 75  1  0  0  0  0
 65 77  1  0  0  0  0
 67 69  1  0  0  0  0
M  CHG  1  77   1
M  ISO  4  37 100  62 101  76 100  84 101
M  END
> <Batch ID>
0083

> <Smiles>
CCc1nc(C(C)C[100NH:0][100C:0](=O)N2CCCC(n3nc(-c4ccc(Oc5ccc(F)cc5F)cc4)c(C(N)=O)c3N)C2)cc(CC[101CH2:1][101O:1]c2ccc3c(c2)CN(C(=O)C(NC(=O)C(C)NC)C(C)(C)C)C(C(=O)NC2CCCc4ccccc42)C3)c1C

> <Shape>
0.188

> <Color>
0.094

> <Negative vol penalty>
0.000

$$$$

  -OEChem-04052318513D

 85 93  0     1  0  0  0  0  0999 V2000
  -24.4318  -14.7734   32.0221 C   0  0  0  0  0  0  0  0  0  0  0  0
  -25.3700  -15.1824   31.0797 C   0  0  0  0  0  0  0  0  0  0  0  0
  -23.1907   -9.8188   19.9319 C   0  0  0  0  0  0  0  0  0  0  0  0
  -23.5685   -9.9996   22.3114 C   0  0  0  0  0  0  0  0  0  0  0  0
  -23.2010  -15.4230   32.1061 C   0  0  0  0  0  0  0  0  0  0  0  0
  -25.0774  -16.2407   30.2201 C   0  0  0  0  0  0  0  0  0  0  0  0
  -28.9219  -19.5076   29.7822 C   0  0  0  0  0  0  0  0  0  0  0  0
  -22.4246   -8.6721   20.1406 C   0  0  0  0  0  0  0  0  0  0  0  0
  -22.8023   -8.8528   22.5201 C   0  0  0  0  0  0  0  0  0  0  0  0
  -29.9809  -19.1374   28.9544 C   0  0  0  0  0  0  0  0  0  0  0  0
  -23.2040   -5.5062   22.2565 C   0  0  0  0  0  0  0  0  0  0  0  0
  -23.7023   -4.5450   23.1359 C   0  0  0  0  0  0  0  0  0  0  0  0
  -29.0853  -20.5269   27.1975 C   0  0  0  0  0  0  0  0  0  0  0  0
  -28.8042  -16.8411   25.3324 C   0  0  0  0  0  0  0  0  0  0  0  0
  -21.7454   -4.8049   24.5289 C   0  0  0  0  0  0  0  0  0  0  0  0
  -23.7627  -10.4826   21.0173 C   0  0  0  0  0  0  0  0  0  0  0  0
  -24.1011  -12.9992   20.7733 C   0  0  0  0  0  0  0  0  0  0  0  0
  -22.8970  -16.4961   31.2536 C   0  0  0  0  0  0  0  0  0  0  0  0
  -27.9291  -20.3832   29.3194 C   0  0  0  0  0  0  0  0  0  0  0  0
  -23.8409  -16.9044   30.2920 C   0  0  0  0  0  0  0  0  0  0  0  0
  -28.0162  -20.9087   28.0223 C   0  0  0  0  0  0  0  0  0  0  0  0
  -27.7983  -15.9201   25.6029 C   0  0  0  0  0  0  0  0  0  0  0  0
  -30.0545  -16.3953   24.9184 C   0  0  0  0  0  0  0  0  0  0  0  0
  -22.2303   -8.1891   21.4347 C   0  0  0  0  0  0  0  0  0  0  0  0
  -30.0612  -19.6448   27.6609 C   0  0  0  0  0  0  0  0  0  0  0  0
  -21.9764   -6.1168   22.5133 C   0  0  0  0  0  0  0  0  0  0  0  0
  -22.9730   -4.1944   24.2721 C   0  0  0  0  0  0  0  0  0  0  0  0
  -21.2471   -5.7661   23.6494 C   0  0  0  0  0  0  0  0  0  0  0  0
  -24.5548  -11.6669   20.8023 C   0  0  0  0  0  0  0  0  0  0  0  0
  -28.0912  -14.5750   25.4453 C   0  0  0  0  0  0  0  0  0  0  0  0
  -30.2464  -15.0289   24.7917 C   0  0  0  0  0  0  0  0  0  0  0  0
  -25.2322  -13.7420   20.5381 C   0  0  0  0  0  0  0  0  0  0  0  0
  -22.7758  -13.5190   20.9438 C   0  0  0  0  0  0  0  0  0  0  0  0
  -24.7919  -20.1721   28.8531 C   0  0  0  0  0  0  0  0  0  0  0  0
  -25.0684  -23.3387   28.2063 C   0  0  0  0  0  0  0  0  0  0  0  0
  -27.0536  -25.9298   27.2100 C   0  0  0  0  0  0  0  0  0  0  0  0
  -31.0470  -12.7531   21.5686 C   0  0  0  0  0  0  0  0  0  0  0  0
  -21.5350  -17.1366   31.3502 C   0  0  0  0  0  0  0  0  0  0  0  0
  -26.8076  -20.7937   30.2339 C   0  0  0  0  0  0  0  0  0  0  0  0
  -26.9869  -21.8678   27.4845 C   0  0  0  0  0  0  0  0  0  0  0  0
  -21.4487  -18.4922   30.6537 C   0  0  0  0  0  0  0  0  0  0  0  0
  -29.5201  -13.4699   18.4331 C   0  0  0  0  0  0  0  0  0  0  0  0
  -22.0816  -18.4215   29.2677 C   0  0  0  0  0  0  0  0  0  0  0  0
  -28.0335  -13.2093   18.6821 C   0  0  0  0  0  0  0  0  0  0  0  0
  -30.4014  -12.4807   19.1926 C   0  0  0  0  0  0  0  0  0  0  0  0
  -28.6476  -12.1379   20.8897 C   0  0  0  0  0  0  0  0  0  0  0  0
  -23.5702  -18.0643   29.3585 C   0  0  1  0  0  0  0  0  0  0  0  0
  -25.5753  -21.2888   29.4832 C   0  0  1  0  0  0  0  0  0  0  0  0
  -27.7201  -13.1454   20.1891 C   0  0  2  0  0  0  0  0  0  0  0  0
  -26.4567  -16.3913   26.0466 C   0  0  0  0  0  0  0  0  0  0  0  0
  -27.2037  -12.3123   24.8297 C   0  0  0  0  0  0  0  0  0  0  0  0
  -26.9879  -28.3939   26.7401 C   0  0  0  0  0  0  0  0  0  0  0  0
  -23.6552  -22.7935   25.5577 C   0  0  0  0  0  0  0  0  0  0  0  0
  -24.4561  -25.0242   24.7511 C   0  0  0  0  0  0  0  0  0  0  0  0
  -22.9269  -24.8863   26.7171 C   0  0  0  0  0  0  0  0  0  0  0  0
  -29.0501  -26.5027   29.3182 C   0  0  0  0  0  0  0  0  0  0  0  0
  -31.1497  -17.3889   24.6238 C   0  0  0  0  0  0  0  0  0  0  0  0
  -27.0505  -13.5400   25.7224 C   0  0  0  0  0  0  0  0  0  0  0  0
  -31.5689  -14.4937   24.3493 C   0  0  0  0  0  0  0  0  0  0  0  0
  -32.2084  -17.4831   25.7246 C   0  0  0  0  0  0  0  0  0  0  0  0
  -31.5366  -13.0046   23.9886 C   0  0  0  0  0  0  0  0  0  0  0  0
  -31.6557  -17.9886   27.0522 C   0  0  0  0  0  0  0  0  0  1  0  0
  -25.3350  -24.1573   26.9662 C   0  0  1  0  0  0  0  0  0  0  0  0
  -27.2575  -27.3206   27.7831 C   0  0  2  0  0  0  0  0  0  0  0  0
  -24.1118  -24.1957   26.0072 C   0  0  0  0  0  0  0  0  0  0  0  0
  -25.8714  -11.5660   20.6014 N   0  0  0  0  0  0  0  0  0  0  0  0
  -29.2935  -14.1040   25.0453 N   0  0  0  0  0  0  0  0  0  0  0  0
  -26.2547  -12.8444   20.4439 N   0  0  0  0  0  0  0  0  0  0  0  0
  -25.9062  -22.2340   28.4148 N   0  0  0  0  0  0  0  0  0  0  0  0
  -30.0546  -12.4697   20.6158 N   0  0  0  0  0  0  0  0  0  0  0  0
  -25.4420  -15.0689   20.4048 N   0  0  0  0  0  0  0  0  0  0  0  0
  -21.7292  -12.6166   21.1777 N   0  0  0  0  0  0  0  0  0  0  0  0
  -24.3447  -19.2221   29.7513 N   0  0  0  0  0  0  0  0  0  0  0  0
  -25.7724  -25.4697   27.4297 N   0  0  0  0  0  0  0  0  0  0  0  0
  -30.6325  -12.7278   22.8946 N   0  0  0  0  0  0  0  0  0  0  0  0
  -28.6568  -27.4799   28.2706 N   0  3  0  0  0  0  0  0  0  0  0  0
  -22.5244  -14.7459   20.8739 O   0  0  0  0  0  0  0  0  0  0  0  0
  -24.6058  -20.1731   27.6419 O   0  0  0  0  0  0  0  0  0  0  0  0
  -24.1552  -23.6715   28.9659 O   0  0  0  0  0  0  0  0  0  0  0  0
  -27.9408  -25.3146   26.6228 O   0  0  0  0  0  0  0  0  0  0  0  0
  -32.2146  -13.0148   21.2601 O   0  0  0  0  0  0  0  0  0  0  0  0
  -21.4826   -7.0703   21.6388 O   0  0  0  0  0  0  0  0  0  0  0  0
  -31.0934  -19.2846   26.8506 O   0  0  0  0  0  0  0  0  0  1  0  0
  -23.4510   -3.2702   25.1157 F   0  0  0  0  0  0  0  0  0  0  0  0
  -20.0666   -6.3484   23.9008 F   0  0  0  0  0  0  0  0  0  0  0  0
  1  2  1  0  0  0  0
  1  5  2  0  0  0  0
  2  6  2  0  0  0  0
  3  8  2  0  0  0  0
  3 16  1  0  0  0  0
  4  9  1  0  0  0  0
  4 16  2  0  0  0  0
  5 18  1  0  0  0  0
  6 20  1  0  0  0  0
  7 10  2  0  0  0  0
  7 19  1  0  0  0  0
  8 24  1  0  0  0  0
  9 24  2  0  0  0  0
 10 25  1  0  0  0  0
 11 12  2  0  0  0  0
 11 26  1  0  0  0  0
 12 27  1  0  0  0  0
 13 21  1  0  0  0  0
 13 25  2  0  0  0  0
 14 22  1  0  0  0  0
 14 23  2  0  0  0  0
 15 27  2  0  0  0  0
 15 28  1  0  0  0  0
 16 29  1  0  0  0  0
 17 29  1  0  0  0  0
 17 32  2  0  0  0  0
 17 33  1  0  0  0  0
 18 20  2  0  0  0  0
 18 38  1  0  0  0  0
 19 21  2  0  0  0  0
 19 39  1  0  0  0  0
 20 47  1  0  0  0  0
 21 40  1  0  0  0  0
 22 30  2  0  0  0  0
 22 50  1  0  0  0  0
 23 31  1  0  0  0  0
 23 57  1  0  0  0  0
 24 82  1  0  0  0  0
 25 83  1  0  0  0  0
 26 28  2  0  0  0  0
 26 82  1  0  0  0  0
 27 84  1  0  0  0  0
 28 85  1  0  0  0  0
 29 66  2  0  0  0  0
 30 58  1  0  0  0  0
 30 67  1  0  0  0  0
 31 59  1  0  0  0  0
 31 67  2  0  0  0  0
 32 68  1  0  0  0  0
 32 71  1  0  0  0  0
 33 72  1  0  0  0  0
 33 77  2  0  0  0  0
 34 48  1  0  0  0  0
 34 73  1  0  0  0  0
 34 78  2  0  0  0  0
 35 63  1  0  0  0  0
 35 69  1  0  0  0  0
 35 79  2  0  0  0  0
 36 64  1  0  0  0  0
 36 74  1  0  0  0  0
 36 80  2  0  0  0  0
 37 70  1  0  0  0  0
 37 75  1  0  0  0  0
 37 81  2  0  0  0  0
 38 41  1  0  0  0  0
 39 48  1  0  0  0  0
 40 69  1  0  0  0  0
 41 43  1  0  0  0  0
 42 44  1  0  0  0  0
 42 45  1  0  0  0  0
 43 47  1  0  0  0  0
 44 49  1  0  0  0  0
 45 70  1  0  0  0  0
 46 49  1  0  0  0  0
 46 70  1  0  0  0  0
 47 73  1  0  0  0  0
 48 69  1  0  0  0  0
 49 68  1  0  0  0  0
 51 58  1  0  0  0  0
 52 64  1  0  0  0  0
 53 65  1  0  0  0  0
 54 65  1  0  0  0  0
 55 65  1  0  0  0  0
 56 76  1  0  0  0  0
 57 60  1  0  0  0  0
 59 61  1  0  0  0  0
 60 62  1  0  0  0  0
 61 75  1  0  0  0  0
 62 83  1  0  0  0  0
 63 65  1  0  0  0  0
 63 74  1  0  0  0  0
 64 76  1  0  0  0  0
 66 68  1  0  0  0  0
M  CHG  1  76   1
M  ISO  4  37 100  62 101  75 100  83 101
M  END
> <Batch ID>
0083

> <Smiles>
CCc1nc(CC[100NH:0][100C:0](=O)N2CCCC(n3nc(-c4ccc(Oc5ccc(F)cc5F)cc4)c(C(N)=O)c3N)C2)c(CC[101CH2:1][101O:1]c2ccc3c(c2)CN(C(=O)C(NC(=O)C(C)NC)C(C)(C)C)C(C(=O)NC2CCCc4ccccc42)C3)cc1C

> <Shape>
0.142

> <Color>
0.182

> <Negative vol penalty>
0.000

$$$$

  -OEChem-04052318513D

 79 86  0     1  0  0  0  0  0999 V2000
  -28.8411  -22.2851   18.5697 C   0  0  0  0  0  0  0  0  0  0  0  0
  -27.6595  -22.9979   18.7384 C   0  0  0  0  0  0  0  0  0  0  0  0
  -26.5531  -14.9800   21.6022 C   0  0  0  0  0  0  0  0  0  0  0  0
  -24.5487  -14.9333   20.2541 C   0  0  0  0  0  0  0  0  0  0  0  0
  -29.9469  -22.5779   19.3652 C   0  0  0  0  0  0  0  0  0  0  0  0
  -27.5868  -24.0117   19.6943 C   0  0  0  0  0  0  0  0  0  0  0  0
  -23.4927  -26.7391   19.7528 C   0  0  0  0  0  0  0  0  0  0  0  0
  -26.6549  -13.5927   21.4989 C   0  0  0  0  0  0  0  0  0  0  0  0
  -24.6505  -13.5460   20.1507 C   0  0  0  0  0  0  0  0  0  0  0  0
  -22.2683  -26.2509   20.2071 C   0  0  0  0  0  0  0  0  0  0  0  0
  -23.9625  -10.8478   22.0683 C   0  0  0  0  0  0  0  0  0  0  0  0
  -22.8022  -10.0971   22.2566 C   0  0  0  0  0  0  0  0  0  0  0  0
  -22.5522  -27.4733   22.2672 C   0  0  0  0  0  0  0  0  0  0  0  0
  -23.0177   -9.2038   20.0221 C   0  0  0  0  0  0  0  0  0  0  0  0
  -25.4999  -15.6503   20.9798 C   0  0  0  0  0  0  0  0  0  0  0  0
  -25.9526  -18.0439   20.2224 C   0  0  0  0  0  0  0  0  0  0  0  0
  -29.8830  -23.5875   20.3396 C   0  0  0  0  0  0  0  0  0  0  0  0
  -24.2624  -27.5907   20.5581 C   0  0  0  0  0  0  0  0  0  0  0  0
  -28.6994  -24.3384   20.4905 C   0  0  0  0  0  0  0  0  0  0  0  0
  -23.7848  -27.9729   21.8198 C   0  0  0  0  0  0  0  0  0  0  0  0
  -25.7036  -12.8757   20.7732 C   0  0  0  0  0  0  0  0  0  0  0  0
  -21.7992  -26.6157   21.4656 C   0  0  0  0  0  0  0  0  0  0  0  0
  -24.6505  -10.7767   20.8570 C   0  0  0  0  0  0  0  0  0  0  0  0
  -22.3298   -9.2750   21.2335 C   0  0  0  0  0  0  0  0  0  0  0  0
  -24.1781   -9.9546   19.8339 C   0  0  0  0  0  0  0  0  0  0  0  0
  -25.3939  -17.0833   21.0867 C   0  0  0  0  0  0  0  0  0  0  0  0
  -25.5661  -19.2500   20.7538 C   0  0  0  0  0  0  0  0  0  0  0  0
  -26.7496  -17.8621   19.0445 C   0  0  0  0  0  0  0  0  0  0  0  0
  -27.1505  -27.4279   21.8758 C   0  0  0  0  0  0  0  0  0  0  0  0
  -20.9202  -20.6934   24.1607 C   0  0  0  0  0  0  0  0  0  0  0  0
  -26.5164  -30.4982   22.7085 C   0  0  0  0  0  0  0  0  0  0  0  0
  -24.1815  -32.9069   23.3352 C   0  0  0  0  0  0  0  0  0  0  0  0
  -31.1121  -23.8682   21.1678 C   0  0  0  0  0  0  0  0  0  0  0  0
  -25.5685  -28.1300   20.0427 C   0  0  0  0  0  0  0  0  0  0  0  0
  -24.5635  -28.9009   22.7148 C   0  0  0  0  0  0  0  0  0  0  0  0
  -30.8047  -24.6461   22.4431 C   0  0  0  0  0  0  0  0  0  0  0  0
  -24.4237  -21.3303   24.8999 C   0  0  0  0  0  0  0  0  0  0  0  0
  -29.9429  -25.8571   22.1184 C   0  0  0  0  0  0  0  0  0  0  0  0
  -25.1190  -20.3699   23.9360 C   0  0  0  0  0  0  0  0  0  0  0  0
  -23.1197  -20.7434   25.4340 C   0  0  0  0  0  0  0  0  0  0  0  0
  -22.8598  -19.3598   23.3986 C   0  0  0  0  0  0  0  0  0  0  0  0
  -28.5875  -25.4247   21.5449 C   0  0  1  0  0  0  0  0  0  0  0  0
  -26.5099  -28.5804   21.1555 C   0  0  1  0  0  0  0  0  0  0  0  0
  -24.1641  -19.9270   22.8136 C   0  0  2  0  0  0  0  0  0  0  0  0
  -23.9664  -35.3083   24.0312 C   0  0  0  0  0  0  0  0  0  0  0  0
  -17.9681  -20.8336   25.1519 C   0  0  0  0  0  0  0  0  0  0  0  0
  -27.1618  -29.7191   25.5871 C   0  0  0  0  0  0  0  0  0  0  0  0
  -26.0361  -31.8262   26.3362 C   0  0  0  0  0  0  0  0  0  0  0  0
  -28.0597  -31.9443   24.8823 C   0  0  0  0  0  0  0  0  0  0  0  0
  -18.4591  -23.2254   27.0608 C   0  0  0  0  0  0  0  0  0  0  0  0
  -16.9747  -23.7245   25.1204 C   0  0  0  0  0  0  0  0  0  0  0  0
  -22.8243  -33.6384   20.8089 C   0  0  0  0  0  0  0  0  0  0  0  0
  -20.3481  -21.6340   25.1912 C   0  0  0  0  0  0  0  0  0  0  0  0
  -19.4883  -24.8244   23.6113 C   0  0  0  0  0  0  0  0  0  0  0  0
  -19.3210  -24.5872   25.1202 C   0  0  0  0  0  0  0  0  0  0  0  0
  -20.4569  -25.9665   23.3183 C   0  0  0  0  0  0  0  0  0  1  0  0
  -25.8653  -31.1722   23.8920 C   0  0  1  0  0  0  0  0  0  0  0  0
  -24.0638  -34.3437   22.8595 C   0  0  2  0  0  0  0  0  0  0  0  0
  -18.8948  -22.0245   24.8399 C   0  0  2  0  0  0  0  0  0  0  0  0
  -26.7667  -31.1464   25.1585 C   0  0  0  0  0  0  0  0  0  0  0  0
  -18.4259  -23.3695   25.5199 C   0  0  0  0  0  0  0  0  0  0  0  0
  -24.7050  -17.6319   22.0909 N   0  0  0  0  0  0  0  0  0  0  0  0
  -24.8284  -18.9502   21.8611 N   0  0  0  0  0  0  0  0  0  0  0  0
  -25.8377  -29.3965   22.1686 N   0  0  0  0  0  0  0  0  0  0  0  0
  -22.2498  -20.3085   24.3347 N   0  0  0  0  0  0  0  0  0  0  0  0
  -25.7888  -20.5271   20.3772 N   0  0  0  0  0  0  0  0  0  0  0  0
  -27.0539  -16.5555   18.6387 N   0  0  0  0  0  0  0  0  0  0  0  0
  -27.8869  -26.5925   21.0576 N   0  0  0  0  0  0  0  0  0  0  0  0
  -25.4979  -32.5123   23.4473 N   0  0  0  0  0  0  0  0  0  0  0  0
  -22.8500  -34.5107   22.0112 N   0  3  0  0  0  0  0  0  0  0  0  0
  -27.1930  -18.8300   18.3811 O   0  0  0  0  0  0  0  0  0  0  0  0
  -26.9899  -27.3063   23.0845 O   0  0  0  0  0  0  0  0  0  0  0  0
  -20.2061  -20.3155   23.2283 O   0  0  0  0  0  0  0  0  0  0  0  0
  -27.5843  -30.9375   22.2744 O   0  0  0  0  0  0  0  0  0  0  0  0
  -23.2035  -32.2061   23.5860 O   0  0  0  0  0  0  0  0  0  0  0  0
  -25.8028  -11.5220   20.6720 O   0  0  0  0  0  0  0  0  0  0  0  0
  -20.5957  -26.1366   21.9151 O   0  0  0  0  0  0  0  0  0  1  0  0
  -21.2163   -8.5529   21.4149 F   0  0  0  0  0  0  0  0  0  0  0  0
  -24.8354   -9.8812   18.6684 F   0  0  0  0  0  0  0  0  0  0  0  0
  1  2  1  0  0  0  0
  1  5  2  0  0  0  0
  2  6  2  0  0  0  0
  3  8  2  0  0  0  0
  3 15  1  0  0  0  0
  4  9  1  0  0  0  0
  4 15  2  0  0  0  0
  5 17  1  0  0  0  0
  6 19  1  0  0  0  0
  7 10  2  0  0  0  0
  7 18  1  0  0  0  0
  8 21  1  0  0  0  0
  9 21  2  0  0  0  0
 10 22  1  0  0  0  0
 11 12  2  0  0  0  0
 11 23  1  0  0  0  0
 12 24  1  0  0  0  0
 13 20  1  0  0  0  0
 13 22  2  0  0  0  0
 14 24  2  0  0  0  0
 14 25  1  0  0  0  0
 15 26  1  0  0  0  0
 16 26  1  0  0  0  0
 16 27  2  0  0  0  0
 16 28  1  0  0  0  0
 17 19  2  0  0  0  0
 17 33  1  0  0  0  0
 18 20  2  0  0  0  0
 18 34  1  0  0  0  0
 19 42  1  0  0  0  0
 20 35  1  0  0  0  0
 21 76  1  0  0  0  0
 22 77  1  0  0  0  0
 23 25  2  0  0  0  0
 23 76  1  0  0  0  0
 24 78  1  0  0  0  0
 25 79  1  0  0  0  0
 26 62  2  0  0  0  0
 27 63  1  0  0  0  0
 27 66  1  0  0  0  0
 28 67  1  0  0  0  0
 28 71  2  0  0  0  0
 29 43  1  0  0  0  0
 29 68  1  0  0  0  0
 29 72  2  0  0  0  0
 30 53  1  0  0  0  0
 30 65  1  0  0  0  0
 30 73  2  0  0  0  0
 31 57  1  0  0  0  0
 31 64  1  0  0  0  0
 31 74  2  0  0  0  0
 32 58  1  0  0  0  0
 32 69  1  0  0  0  0
 32 75  2  0  0  0  0
 33 36  1  0  0  0  0
 34 43  1  0  0  0  0
 35 64  1  0  0  0  0
 36 38  1  0  0  0  0
 37 39  1  0  0  0  0
 37 40  1  0  0  0  0
 38 42  1  0  0  0  0
 39 44  1  0  0  0  0
 40 65  1  0  0  0  0
 41 44  1  0  0  0  0
 41 65  1  0  0  0  0
 42 68  1  0  0  0  0
 43 64  1  0  0  0  0
 44 63  1  0  0  0  0
 45 58  1  0  0  0  0
 46 59  1  0  0  0  0
 47 60  1  0  0  0  0
 48 60  1  0  0  0  0
 49 60  1  0  0  0  0
 50 61  1  0  0  0  0
 51 61  1  0  0  0  0
 52 70  1  0  0  0  0
 53 59  1  0  0  0  0
 54 55  1  0  0  0  0
 54 56  1  0  0  0  0
 55 61  1  0  0  0  0
 56 77  1  0  0  0  0
 57 60  1  0  0  0  0
 57 69  1  0  0  0  0
 58 70  1  0  0  0  0
 59 61  1  0  0  0  0
 62 63  1  0  0  0  0
M  CHG  1  70   1
M  ISO  4  30 100  53 100  56 101  77 101
M  END
> <Batch ID>
0083

> <Smiles>
CNC(C)C(=O)NC(C(=O)N1Cc2cc([101O:1][101CH2:1]CCC(C)(C)C(C)[100CH2:0][100C:0](=O)N3CCCC(n4nc(-c5ccc(Oc6ccc(F)cc6F)cc5)c(C(N)=O)c4N)C3)ccc2CC1C(=O)NC1CCCc2ccccc21)C(C)(C)C

> <Shape>
0.213

> <Color>
0.064

> <Negative vol penalty>
0.000

$$$$

  -OEChem-04052318513D

 86 94  0     1  0  0  0  0  0999 V2000
  -27.8370  -23.6160   21.7841 C   0  0  0  0  0  0  0  0  0  0  0  0
  -26.7586  -22.7628   21.5728 C   0  0  0  0  0  0  0  0  0  0  0  0
  -24.5440  -30.1464   20.4709 C   0  0  0  0  0  0  0  0  0  0  0  0
  -24.3333  -28.7055   22.3987 C   0  0  0  0  0  0  0  0  0  0  0  0
  -29.0876  -23.3014   21.2541 C   0  0  0  0  0  0  0  0  0  0  0  0
  -26.9301  -21.5949   20.8304 C   0  0  0  0  0  0  0  0  0  0  0  0
  -24.7172  -17.5814   22.9843 C   0  0  0  0  0  0  0  0  0  0  0  0
  -24.2568  -31.2546   21.2678 C   0  0  0  0  0  0  0  0  0  0  0  0
  -24.0462  -29.8137   23.1956 C   0  0  0  0  0  0  0  0  0  0  0  0
  -23.3357  -17.4620   22.8395 C   0  0  0  0  0  0  0  0  0  0  0  0
  -23.9345  -34.5045   22.8643 C   0  0  0  0  0  0  0  0  0  0  0  0
  -24.7272  -35.6410   22.7047 C   0  0  0  0  0  0  0  0  0  0  0  0
  -23.6659  -15.8624   21.0643 C   0  0  0  0  0  0  0  0  0  0  0  0
  -18.7099  -16.4573   19.8595 C   0  0  0  0  0  0  0  0  0  0  0  0
  -26.6835  -34.3626   23.3178 C   0  0  0  0  0  0  0  0  0  0  0  0
  -24.5822  -28.8718   21.0364 C   0  0  0  0  0  0  0  0  0  0  0  0
  -26.1467  -27.1791   19.9433 C   0  0  0  0  0  0  0  0  0  0  0  0
  -29.2767  -22.1242   20.5130 C   0  0  0  0  0  0  0  0  0  0  0  0
  -25.5849  -16.8491   22.1614 C   0  0  0  0  0  0  0  0  0  0  0  0
  -28.1841  -21.2649   20.2889 C   0  0  0  0  0  0  0  0  0  0  0  0
  -25.0580  -15.9723   21.2024 C   0  0  0  0  0  0  0  0  0  0  0  0
  -18.4256  -16.8145   18.5462 C   0  0  0  0  0  0  0  0  0  0  0  0
  -18.8660  -17.4460   20.8247 C   0  0  0  0  0  0  0  0  0  0  0  0
  -24.0079  -31.0882   22.6301 C   0  0  0  0  0  0  0  0  0  0  0  0
  -22.8098  -16.6046   21.8775 C   0  0  0  0  0  0  0  0  0  0  0  0
  -24.5162  -33.2970   23.2508 C   0  0  0  0  0  0  0  0  0  0  0  0
  -26.1017  -35.5700   22.9314 C   0  0  0  0  0  0  0  0  0  0  0  0
  -25.8907  -33.2261   23.4775 C   0  0  0  0  0  0  0  0  0  0  0  0
  -24.8783  -27.7266   20.2136 C   0  0  0  0  0  0  0  0  0  0  0  0
  -18.3082  -18.1633   18.2517 C   0  0  0  0  0  0  0  0  0  0  0  0
  -18.7291  -18.7666   20.4282 C   0  0  0  0  0  0  0  0  0  0  0  0
  -25.8911  -26.1112   19.1183 C   0  0  0  0  0  0  0  0  0  0  0  0
  -27.4404  -27.5983   20.3975 C   0  0  0  0  0  0  0  0  0  0  0  0
  -27.8132  -17.5983   20.0219 C   0  0  0  0  0  0  0  0  0  0  0  0
  -28.3385  -14.3973   20.0249 C   0  0  0  0  0  0  0  0  0  0  0  0
  -27.1235  -11.2625   20.6110 C   0  0  0  0  0  0  0  0  0  0  0  0
  -21.0797  -22.6389   18.3157 C   0  0  0  0  0  0  0  0  0  0  0  0
  -30.6361  -21.8502   19.9200 C   0  0  0  0  0  0  0  0  0  0  0  0
  -27.0726  -16.9689   22.3482 C   0  0  0  0  0  0  0  0  0  0  0  0
  -25.9466  -15.1487   20.3077 C   0  0  0  0  0  0  0  0  0  0  0  0
  -30.8209  -20.4058   19.4620 C   0  0  0  0  0  0  0  0  0  0  0  0
  -22.7591  -24.5747   15.8441 C   0  0  0  0  0  0  0  0  0  0  0  0
  -29.6106  -19.9416   18.6580 C   0  0  0  0  0  0  0  0  0  0  0  0
  -23.6071  -25.5526   16.6593 C   0  0  0  0  0  0  0  0  0  0  0  0
  -21.4126  -24.3033   16.5114 C   0  0  0  0  0  0  0  0  0  0  0  0
  -22.3436  -24.8359   18.7302 C   0  0  0  0  0  0  0  0  0  0  0  0
  -28.3360  -19.9764   19.5099 C   0  0  1  0  0  0  0  0  0  0  0  0
  -27.8650  -16.5628   21.1094 C   0  0  1  0  0  0  0  0  0  0  0  0
  -23.7337  -25.0976   18.1256 C   0  0  2  0  0  0  0  0  0  0  0  0
  -18.2570  -15.7601   17.5075 C   0  0  0  0  0  0  0  0  0  0  0  0
  -17.1799  -19.8895   16.8257 C   0  0  0  0  0  0  0  0  0  0  0  0
  -17.5563  -20.1623   22.1511 C   0  0  0  0  0  0  0  0  0  0  0  0
  -27.7746   -8.8422   20.4861 C   0  0  0  0  0  0  0  0  0  0  0  0
  -28.0004  -14.4654   16.9932 C   0  0  0  0  0  0  0  0  0  0  0  0
  -27.7108  -11.9789   17.0396 C   0  0  0  0  0  0  0  0  0  0  0  0
  -29.8561  -12.9975   17.8033 C   0  0  0  0  0  0  0  0  0  0  0  0
  -26.7372  -10.8885   23.5213 C   0  0  0  0  0  0  0  0  0  0  0  0
  -19.1751  -17.0651   22.2521 C   0  0  0  0  0  0  0  0  0  0  0  0
  -18.0048  -18.6065   16.8580 C   0  0  0  0  0  0  0  0  0  0  0  0
  -19.4395  -21.1922   20.8197 C   0  0  0  0  0  0  0  0  0  0  0  0
  -20.8398  -21.0648   20.2193 C   0  0  0  0  0  0  0  0  0  0  0  0
  -20.6449  -17.2710   22.6019 C   0  0  0  0  0  0  0  0  0  1  0  0
  -18.8851  -19.8698   21.4230 C   0  0  2  0  0  0  0  0  0  0  0  0
  -27.7933  -13.2237   19.2474 C   0  0  1  0  0  0  0  0  0  0  0  0
  -27.7062  -10.0811   21.3654 C   0  0  2  0  0  0  0  0  0  0  0  0
  -28.3231  -13.1832   17.7863 C   0  0  0  0  0  0  0  0  0  0  0  0
  -23.8902  -27.0615   19.6091 N   0  0  0  0  0  0  0  0  0  0  0  0
  -18.4531  -19.1521   19.1622 N   0  0  0  0  0  0  0  0  0  0  0  0
  -24.5378  -26.0852   18.9508 N   0  0  0  0  0  0  0  0  0  0  0  0
  -27.3944  -15.3055   20.5245 N   0  0  0  0  0  0  0  0  0  0  0  0
  -21.6030  -23.8740   17.8990 N   0  0  0  0  0  0  0  0  0  0  0  0
  -26.6941  -25.2014   18.5269 N   0  0  0  0  0  0  0  0  0  0  0  0
  -27.5231  -28.7151   21.2403 N   0  0  0  0  0  0  0  0  0  0  0  0
  -28.2929  -18.8373   20.4016 N   0  0  0  0  0  0  0  0  0  0  0  0
  -28.1081  -12.0337   20.0304 N   0  0  0  0  0  0  0  0  0  0  0  0
  -21.3104  -22.3054   19.6447 N   0  0  0  0  0  0  0  0  0  0  0  0
  -26.8707   -9.7652   22.5584 N   0  3  0  0  0  0  0  0  0  0  0  0
  -28.4934  -27.0102   20.0526 O   0  0  0  0  0  0  0  0  0  0  0  0
  -27.3721  -17.2952   18.9195 O   0  0  0  0  0  0  0  0  0  0  0  0
  -29.5567  -14.5005   20.1891 O   0  0  0  0  0  0  0  0  0  0  0  0
  -25.9155  -11.4775   20.5405 O   0  0  0  0  0  0  0  0  0  0  0  0
  -20.4579  -21.8864   17.5579 O   0  0  0  0  0  0  0  0  0  0  0  0
  -23.7279  -32.1694   23.4081 O   0  0  0  0  0  0  0  0  0  0  0  0
  -21.4618  -16.4867   21.7337 O   0  0  0  0  0  0  0  0  0  1  0  0
  -26.8631  -36.6611   22.7765 F   0  0  0  0  0  0  0  0  0  0  0  0
  -26.4554  -32.0686   23.8478 F   0  0  0  0  0  0  0  0  0  0  0  0
  1  2  1  0  0  0  0
  1  5  2  0  0  0  0
  2  6  2  0  0  0  0
  3  8  2  0  0  0  0
  3 16  1  0  0  0  0
  4  9  1  0  0  0  0
  4 16  2  0  0  0  0
  5 18  1  0  0  0  0
  6 20  1  0  0  0  0
  7 10  2  0  0  0  0
  7 19  1  0  0  0  0
  8 24  1  0  0  0  0
  9 24  2  0  0  0  0
 10 25  1  0  0  0  0
 11 12  2  0  0  0  0
 11 26  1  0  0  0  0
 12 27  1  0  0  0  0
 13 21  1  0  0  0  0
 13 25  2  0  0  0  0
 14 22  1  0  0  0  0
 14 23  2  0  0  0  0
 15 27  2  0  0  0  0
 15 28  1  0  0  0  0
 16 29  1  0  0  0  0
 17 29  1  0  0  0  0
 17 32  2  0  0  0  0
 17 33  1  0  0  0  0
 18 20  2  0  0  0  0
 18 38  1  0  0  0  0
 19 21  2  0  0  0  0
 19 39  1  0  0  0  0
 20 47  1  0  0  0  0
 21 40  1  0  0  0  0
 22 30  2  0  0  0  0
 22 50  1  0  0  0  0
 23 31  1  0  0  0  0
 23 58  1  0  0  0  0
 24 83  1  0  0  0  0
 25 84  1  0  0  0  0
 26 28  2  0  0  0  0
 26 83  1  0  0  0  0
 27 85  1  0  0  0  0
 28 86  1  0  0  0  0
 29 67  2  0  0  0  0
 30 59  1  0  0  0  0
 30 68  1  0  0  0  0
 31 63  1  0  0  0  0
 31 68  2  0  0  0  0
 32 69  1  0  0  0  0
 32 72  1  0  0  0  0
 33 73  1  0  0  0  0
 33 78  2  0  0  0  0
 34 48  1  0  0  0  0
 34 74  1  0  0  0  0
 34 79  2  0  0  0  0
 35 64  1  0  0  0  0
 35 70  1  0  0  0  0
 35 80  2  0  0  0  0
 36 65  1  0  0  0  0
 36 75  1  0  0  0  0
 36 81  2  0  0  0  0
 37 71  1  0  0  0  0
 37 76  1  0  0  0  0
 37 82  2  0  0  0  0
 38 41  1  0  0  0  0
 39 48  1  0  0  0  0
 40 70  1  0  0  0  0
 41 43  1  0  0  0  0
 42 44  1  0  0  0  0
 42 45  1  0  0  0  0
 43 47  1  0  0  0  0
 44 49  1  0  0  0  0
 45 71  1  0  0  0  0
 46 49  1  0  0  0  0
 46 71  1  0  0  0  0
 47 74  1  0  0  0  0
 48 70  1  0  0  0  0
 49 69  1  0  0  0  0
 51 59  1  0  0  0  0
 52 63  1  0  0  0  0
 53 65  1  0  0  0  0
 54 66  1  0  0  0  0
 55 66  1  0  0  0  0
 56 66  1  0  0  0  0
 57 77  1  0  0  0  0
 58 62  1  0  0  0  0
 60 61  1  0  0  0  0
 60 63  1  0  0  0  0
 61 76  1  0  0  0  0
 62 84  1  0  0  0  0
 64 66  1  0  0  0  0
 64 75  1  0  0  0  0
 65 77  1  0  0  0  0
 67 69  1  0  0  0  0
M  CHG  1  77   1
M  ISO  4  37 100  62 101  76 100  84 101
M  END
> <Batch ID>
0083

> <Smiles>
CCc1nc(C(C)CC[100NH:0][100C:0](=O)N2CCCC(n3nc(-c4ccc(Oc5ccc(F)cc5F)cc4)c(C(N)=O)c3N)C2)c(C[101CH2:1][101O:1]c2ccc3c(c2)CN(C(=O)C(NC(=O)C(C)NC)C(C)(C)C)C(C(=O)NC2CCCc4ccccc42)C3)cc1C

> <Shape>
0.224

> <Color>
0.059

> <Negative vol penalty>
0.000

$$$$

  -OEChem-04052318513D

 86 94  0     1  0  0  0  0  0999 V2000
  -19.4203  -26.6059   19.7959 C   0  0  0  0  0  0  0  0  0  0  0  0
  -19.7455  -25.3786   19.2271 C   0  0  0  0  0  0  0  0  0  0  0  0
  -30.1621  -24.1733   19.9596 C   0  0  0  0  0  0  0  0  0  0  0  0
  -27.8198  -23.6771   20.2824 C   0  0  0  0  0  0  0  0  0  0  0  0
  -20.2051  -27.1261   20.8242 C   0  0  0  0  0  0  0  0  0  0  0  0
  -20.8564  -24.6714   19.6855 C   0  0  0  0  0  0  0  0  0  0  0  0
  -21.4346  -18.5885   20.0978 C   0  0  0  0  0  0  0  0  0  0  0  0
  -29.8271  -25.4349   19.4679 C   0  0  0  0  0  0  0  0  0  0  0  0
  -27.4847  -24.9386   19.7906 C   0  0  0  0  0  0  0  0  0  0  0  0
  -22.0390  -17.6453   19.2677 C   0  0  0  0  0  0  0  0  0  0  0  0
  -27.4274  -28.1197   20.9299 C   0  0  0  0  0  0  0  0  0  0  0  0
  -26.4678  -28.8521   21.6287 C   0  0  0  0  0  0  0  0  0  0  0  0
  -24.0350  -17.7443   20.6188 C   0  0  0  0  0  0  0  0  0  0  0  0
  -23.8013  -12.8957   20.0851 C   0  0  0  0  0  0  0  0  0  0  0  0
  -25.0688  -28.8978   19.6595 C   0  0  0  0  0  0  0  0  0  0  0  0
  -29.1584  -23.2944   20.3669 C   0  0  0  0  0  0  0  0  0  0  0  0
  -29.7622  -21.6410   22.2133 C   0  0  0  0  0  0  0  0  0  0  0  0
  -21.3206  -26.4203   21.3020 C   0  0  0  0  0  0  0  0  0  0  0  0
  -22.1309  -19.1256   21.1900 C   0  0  0  0  0  0  0  0  0  0  0  0
  -21.6576  -25.1832   20.7202 C   0  0  0  0  0  0  0  0  0  0  0  0
  -23.4363  -18.6922   21.4626 C   0  0  0  0  0  0  0  0  0  0  0  0
  -24.8852  -12.8419   19.2266 C   0  0  0  0  0  0  0  0  0  0  0  0
  -28.4884  -25.8176   19.3834 C   0  0  0  0  0  0  0  0  0  0  0  0
  -23.3404  -17.2252   19.5265 C   0  0  0  0  0  0  0  0  0  0  0  0
  -27.2078  -27.7764   19.5959 C   0  0  0  0  0  0  0  0  0  0  0  0
  -25.2885  -29.2411   20.9935 C   0  0  0  0  0  0  0  0  0  0  0  0
  -26.0285  -28.1654   18.9607 C   0  0  0  0  0  0  0  0  0  0  0  0
  -29.5038  -21.9909   20.8744 C   0  0  0  0  0  0  0  0  0  0  0  0
  -23.8544  -12.1425   21.2407 C   0  0  0  0  0  0  0  0  0  0  0  0
  -25.9506  -12.0387   19.5806 C   0  0  0  0  0  0  0  0  0  0  0  0
  -30.0401  -20.2966   22.1694 C   0  0  0  0  0  0  0  0  0  0  0  0
  -29.7519  -22.4581   23.3914 C   0  0  0  0  0  0  0  0  0  0  0  0
  -23.0928  -22.0380   22.0243 C   0  0  0  0  0  0  0  0  0  0  0  0
  -23.9586  -20.5420   24.7693 C   0  0  0  0  0  0  0  0  0  0  0  0
  -24.8329  -17.6382   26.3346 C   0  0  0  0  0  0  0  0  0  0  0  0
  -28.8333  -15.2436   20.4498 C   0  0  0  0  0  0  0  0  0  0  0  0
  -22.1663  -27.0451   22.3833 C   0  0  0  0  0  0  0  0  0  0  0  0
  -21.4553  -20.1223   22.0914 C   0  0  0  0  0  0  0  0  0  0  0  0
  -24.2196  -19.2230   22.6344 C   0  0  0  0  0  0  0  0  0  0  0  0
  -23.1087  -26.0574   23.0665 C   0  0  0  0  0  0  0  0  0  0  0  0
  -30.8874  -17.2344   18.2329 C   0  0  0  0  0  0  0  0  0  0  0  0
  -23.8331  -25.2057   22.0289 C   0  0  0  0  0  0  0  0  0  0  0  0
  -30.7280  -18.6290   18.8410 C   0  0  0  0  0  0  0  0  0  0  0  0
  -29.5833  -16.4459   18.3086 C   0  0  0  0  0  0  0  0  0  0  0  0
  -28.8556  -17.7168   20.2908 C   0  0  0  0  0  0  0  0  0  0  0  0
  -22.8404  -24.3745   21.2071 C   0  0  1  0  0  0  0  0  0  0  0  0
  -22.4411  -20.9842   22.8742 C   0  0  1  0  0  0  0  0  0  0  0  0
  -30.1459  -18.5561   20.2651 C   0  0  2  0  0  0  0  0  0  0  0  0
  -22.8596  -13.2593   23.2531 C   0  0  0  0  0  0  0  0  0  0  0  0
  -26.9662  -10.8454   17.6220 C   0  0  0  0  0  0  0  0  0  0  0  0
  -25.5207  -16.7370   28.5734 C   0  0  0  0  0  0  0  0  0  0  0  0
  -26.7477  -21.7174   24.3829 C   0  0  0  0  0  0  0  0  0  0  0  0
  -27.6014  -20.0612   26.0551 C   0  0  0  0  0  0  0  0  0  0  0  0
  -25.9130  -21.7649   26.7398 C   0  0  0  0  0  0  0  0  0  0  0  0
  -22.4799  -15.8480   26.4664 C   0  0  0  0  0  0  0  0  0  0  0  0
  -24.8787  -13.6456   17.9508 C   0  0  0  0  0  0  0  0  0  0  0  0
  -22.7128  -12.1648   22.1985 C   0  0  0  0  0  0  0  0  0  0  0  0
  -25.7476  -14.9038   18.0111 C   0  0  0  0  0  0  0  0  0  0  0  0
  -28.4776  -11.6584   19.4751 C   0  0  0  0  0  0  0  0  0  0  0  0
  -28.8630  -12.7624   20.4600 C   0  0  0  0  0  0  0  0  0  0  0  0
  -25.2682  -15.9199   19.0412 C   0  0  0  0  0  0  0  0  0  1  0  0
  -27.1528  -11.9302   18.7046 C   0  0  2  0  0  0  0  0  0  0  0  0
  -25.2037  -19.8426   25.2588 C   0  0  1  0  0  0  0  0  0  0  0  0
  -24.3576  -17.0111   27.6328 C   0  0  2  0  0  0  0  0  0  0  0  0
  -26.3527  -20.8378   25.5858 C   0  0  0  0  0  0  0  0  0  0  0  0
  -29.6085  -20.9526   20.0407 N   0  0  0  0  0  0  0  0  0  0  0  0
  -24.9102  -11.3651   21.5619 N   0  0  0  0  0  0  0  0  0  0  0  0
  -25.9756  -11.3126   20.7182 N   0  0  0  0  0  0  0  0  0  0  0  0
  -29.9357  -19.9371   20.8579 N   0  0  0  0  0  0  0  0  0  0  0  0
  -23.5179  -20.2004   23.4829 N   0  0  0  0  0  0  0  0  0  0  0  0
  -29.0925  -16.3985   19.6932 N   0  0  0  0  0  0  0  0  0  0  0  0
  -30.3613  -19.3989   23.1250 N   0  0  0  0  0  0  0  0  0  0  0  0
  -29.4458  -23.8193   23.2577 N   0  0  0  0  0  0  0  0  0  0  0  0
  -22.3916  -23.2273   21.9666 N   0  0  0  0  0  0  0  0  0  0  0  0
  -24.7904  -19.0154   26.3872 N   0  0  0  0  0  0  0  0  0  0  0  0
  -29.0770  -14.0354   19.8082 N   0  0  0  0  0  0  0  0  0  0  0  0
  -23.6597  -15.7227   27.3606 N   0  3  0  0  0  0  0  0  0  0  0  0
  -30.0225  -21.9984   24.5267 O   0  0  0  0  0  0  0  0  0  0  0  0
  -24.1542  -21.7910   21.4638 O   0  0  0  0  0  0  0  0  0  0  0  0
  -23.3938  -21.3560   25.5041 O   0  0  0  0  0  0  0  0  0  0  0  0
  -25.2082  -16.9730   25.3718 O   0  0  0  0  0  0  0  0  0  0  0  0
  -28.4201  -15.2859   21.6136 O   0  0  0  0  0  0  0  0  0  0  0  0
  -28.1612  -27.0486   18.9038 O   0  0  0  0  0  0  0  0  0  0  0  0
  -23.9329  -16.3052   18.7175 O   0  0  0  0  0  0  0  0  0  1  0  0
  -24.3663  -29.9431   21.6651 F   0  0  0  0  0  0  0  0  0  0  0  0
  -25.8113  -27.8376   17.6796 F   0  0  0  0  0  0  0  0  0  0  0  0
  1  2  1  0  0  0  0
  1  5  2  0  0  0  0
  2  6  2  0  0  0  0
  3  8  2  0  0  0  0
  3 16  1  0  0  0  0
  4  9  1  0  0  0  0
  4 16  2  0  0  0  0
  5 18  1  0  0  0  0
  6 20  1  0  0  0  0
  7 10  2  0  0  0  0
  7 19  1  0  0  0  0
  8 23  1  0  0  0  0
  9 23  2  0  0  0  0
 10 24  1  0  0  0  0
 11 12  2  0  0  0  0
 11 25  1  0  0  0  0
 12 26  1  0  0  0  0
 13 21  1  0  0  0  0
 13 24  2  0  0  0  0
 14 22  2  0  0  0  0
 14 29  1  0  0  0  0
 15 26  2  0  0  0  0
 15 27  1  0  0  0  0
 16 28  1  0  0  0  0
 17 28  1  0  0  0  0
 17 31  2  0  0  0  0
 17 32  1  0  0  0  0
 18 20  2  0  0  0  0
 18 37  1  0  0  0  0
 19 21  2  0  0  0  0
 19 38  1  0  0  0  0
 20 46  1  0  0  0  0
 21 39  1  0  0  0  0
 22 30  1  0  0  0  0
 22 56  1  0  0  0  0
 23 83  1  0  0  0  0
 24 84  1  0  0  0  0
 25 27  2  0  0  0  0
 25 83  1  0  0  0  0
 26 85  1  0  0  0  0
 27 86  1  0  0  0  0
 28 66  2  0  0  0  0
 29 57  1  0  0  0  0
 29 67  2  0  0  0  0
 30 62  1  0  0  0  0
 30 68  2  0  0  0  0
 31 69  1  0  0  0  0
 31 72  1  0  0  0  0
 32 73  1  0  0  0  0
 32 78  2  0  0  0  0
 33 47  1  0  0  0  0
 33 74  1  0  0  0  0
 33 79  2  0  0  0  0
 34 63  1  0  0  0  0
 34 70  1  0  0  0  0
 34 80  2  0  0  0  0
 35 64  1  0  0  0  0
 35 75  1  0  0  0  0
 35 81  2  0  0  0  0
 36 71  1  0  0  0  0
 36 76  1  0  0  0  0
 36 82  2  0  0  0  0
 37 40  1  0  0  0  0
 38 47  1  0  0  0  0
 39 70  1  0  0  0  0
 40 42  1  0  0  0  0
 41 43  1  0  0  0  0
 41 44  1  0  0  0  0
 42 46  1  0  0  0  0
 43 48  1  0  0  0  0
 44 71  1  0  0  0  0
 45 48  1  0  0  0  0
 45 71  1  0  0  0  0
 46 74  1  0  0  0  0
 47 70  1  0  0  0  0
 48 69  1  0  0  0  0
 49 57  1  0  0  0  0
 50 62  1  0  0  0  0
 51 64  1  0  0  0  0
 52 65  1  0  0  0  0
 53 65  1  0  0  0  0
 54 65  1  0  0  0  0
 55 77  1  0  0  0  0
 56 58  1  0  0  0  0
 58 61  1  0  0  0  0
 59 60  1  0  0  0  0
 59 62  1  0  0  0  0
 60 76  1  0  0  0  0
 61 84  1  0  0  0  0
 63 65  1  0  0  0  0
 63 75  1  0  0  0  0
 64 77  1  0  0  0  0
 66 69  1  0  0  0  0
 67 68  1  0  0  0  0
M  CHG  1  77   1
M  ISO  4  36 100  61 101  76 100  84 101
M  END
> <Batch ID>
0083

> <Smiles>
CCc1cc(CC[101CH2:1][101O:1]c2ccc3c(c2)CN(C(=O)C(NC(=O)C(C)NC)C(C)(C)C)C(C(=O)NC2CCCc4ccccc42)C3)c(C(C)CC[100NH:0][100C:0](=O)N2CCCC(n3nc(-c4ccc(Oc5ccc(F)cc5F)cc4)c(C(N)=O)c3N)C2)nn1

> <Shape>
0.186

> <Color>
0.063

> <Negative vol penalty>
0.000

$$$$

  -OEChem-04052318513D

 84 92  0     1  0  0  0  0  0999 V2000
  -19.6954  -15.7419   16.8282 C   0  0  0  0  0  0  0  0  0  0  0  0
  -20.6753  -16.7041   17.0499 C   0  0  0  0  0  0  0  0  0  0  0  0
  -22.4669  -23.6723   16.4419 C   0  0  0  0  0  0  0  0  0  0  0  0
  -24.7405  -23.0380   16.9576 C   0  0  0  0  0  0  0  0  0  0  0  0
  -19.7446  -14.5279   17.5121 C   0  0  0  0  0  0  0  0  0  0  0  0
  -21.7046  -16.4533   17.9567 C   0  0  0  0  0  0  0  0  0  0  0  0
  -27.5164  -18.3395   17.5430 C   0  0  0  0  0  0  0  0  0  0  0  0
  -22.5086  -22.8857   15.2908 C   0  0  0  0  0  0  0  0  0  0  0  0
  -24.7821  -22.2514   15.8064 C   0  0  0  0  0  0  0  0  0  0  0  0
  -28.1987  -19.4092   18.1208 C   0  0  0  0  0  0  0  0  0  0  0  0
  -23.6814  -19.2093   14.8292 C   0  0  0  0  0  0  0  0  0  0  0  0
  -24.2277  -17.9307   14.9393 C   0  0  0  0  0  0  0  0  0  0  0  0
  -29.7951  -25.6428   17.6509 C   0  0  0  0  0  0  0  0  0  0  0  0
  -28.9206  -24.7698   18.3440 C   0  0  0  0  0  0  0  0  0  0  0  0
  -28.9875  -17.9515   19.8736 C   0  0  0  0  0  0  0  0  0  0  0  0
  -25.9114  -18.5094   13.3062 C   0  0  0  0  0  0  0  0  0  0  0  0
  -23.5829  -23.7485   17.2753 C   0  0  0  0  0  0  0  0  0  0  0  0
  -22.6602  -24.4278   19.5545 C   0  0  0  0  0  0  0  0  0  0  0  0
  -20.7803  -14.2583   18.4205 C   0  0  0  0  0  0  0  0  0  0  0  0
  -27.5556  -17.0681   18.1332 C   0  0  0  0  0  0  0  0  0  0  0  0
  -21.7670  -15.2352   18.6544 C   0  0  0  0  0  0  0  0  0  0  0  0
  -28.3068  -16.8668   19.2999 C   0  0  0  0  0  0  0  0  0  0  0  0
  -23.6661  -22.1752   14.9730 C   0  0  0  0  0  0  0  0  0  0  0  0
  -28.9321  -19.2160   19.2878 C   0  0  0  0  0  0  0  0  0  0  0  0
  -24.2500  -20.1381   13.9575 C   0  0  0  0  0  0  0  0  0  0  0  0
  -25.3427  -17.5807   14.1778 C   0  0  0  0  0  0  0  0  0  0  0  0
  -25.3651  -19.7881   13.1960 C   0  0  0  0  0  0  0  0  0  0  0  0
  -23.5408  -24.5613   18.4643 C   0  0  0  0  0  0  0  0  0  0  0  0
  -30.7785  -26.0275   18.5353 C   0  0  0  0  0  0  0  0  0  0  0  0
  -29.3962  -24.6478   19.6310 C   0  0  0  0  0  0  0  0  0  0  0  0
  -23.0269  -25.4319   20.4170 C   0  0  0  0  0  0  0  0  0  0  0  0
  -21.6053  -23.4808   19.7686 C   0  0  0  0  0  0  0  0  0  0  0  0
  -25.3878  -15.1058   19.3797 C   0  0  0  0  0  0  0  0  0  0  0  0
  -27.9080  -13.0727   19.5721 C   0  0  0  0  0  0  0  0  0  0  0  0
  -31.2913  -12.6606   19.7452 C   0  0  0  0  0  0  0  0  0  0  0  0
  -28.1522  -28.4089   21.2655 C   0  0  0  0  0  0  0  0  0  0  0  0
  -20.7652  -12.9504   19.1714 C   0  0  0  0  0  0  0  0  0  0  0  0
  -26.8359  -15.9185   17.4828 C   0  0  0  0  0  0  0  0  0  0  0  0
  -28.3975  -15.5168   19.9616 C   0  0  0  0  0  0  0  0  0  0  0  0
  -22.0975  -12.6144   19.8365 C   0  0  0  0  0  0  0  0  0  0  0  0
  -24.9748  -29.8016   20.4646 C   0  0  0  0  0  0  0  0  0  0  0  0
  -22.6457  -13.8298   20.5776 C   0  0  0  0  0  0  0  0  0  0  0  0
  -24.1676  -28.6045   19.9595 C   0  0  0  0  0  0  0  0  0  0  0  0
  -26.4394  -29.7139   20.0409 C   0  0  0  0  0  0  0  0  0  0  0  0
  -26.3075  -27.2570   19.8992 C   0  0  0  0  0  0  0  0  0  0  0  0
  -22.9131  -14.9905   19.6118 C   0  0  1  0  0  0  0  0  0  0  0  0
  -26.5251  -14.7826   18.4526 C   0  0  1  0  0  0  0  0  0  0  0  0
  -24.8365  -27.2725   20.3489 C   0  0  2  0  0  0  0  0  0  0  0  0
  -31.9347  -26.9248   18.3336 C   0  0  0  0  0  0  0  0  0  0  0  0
  -33.0522  -10.8824   19.9321 C   0  0  0  0  0  0  0  0  0  0  0  0
  -32.3042  -27.1740   22.5993 C   0  0  0  0  0  0  0  0  0  0  0  0
  -27.2484  -12.7340   22.5318 C   0  0  0  0  0  0  0  0  0  0  0  0
  -29.5278  -11.7502   22.8557 C   0  0  0  0  0  0  0  0  0  0  0  0
  -27.8851  -10.6204   21.3564 C   0  0  0  0  0  0  0  0  0  0  0  0
  -32.5068  -13.4292   17.1585 C   0  0  0  0  0  0  0  0  0  0  0  0
  -28.8558  -23.8467   20.7884 C   0  0  0  0  0  0  0  0  0  0  0  0
  -29.4166  -22.4252   20.8687 C   0  0  0  0  0  0  0  0  0  0  0  0
  -31.3288  -25.5617   20.9317 C   0  0  0  0  0  0  0  0  0  0  0  0
  -29.7879  -26.9658   22.4492 C   0  0  0  0  0  0  0  0  0  0  0  0
  -29.0446  -21.5607   19.6697 C   0  0  0  0  0  0  0  0  0  1  0  0
  -28.9677  -12.7784   20.6062 C   0  0  1  0  0  0  0  0  0  0  0  0
  -32.2350  -11.7466   18.9844 C   0  0  2  0  0  0  0  0  0  0  0  0
  -31.1141  -26.8987   21.6732 C   0  0  1  0  0  0  0  0  0  0  0  0
  -28.4042  -11.9968   21.8264 C   0  0  0  0  0  0  0  0  0  0  0  0
  -24.4018  -25.5708   18.6175 N   0  0  0  0  0  0  0  0  0  0  0  0
  -30.5257  -25.4168   19.7359 N   0  0  0  0  0  0  0  0  0  0  0  0
  -24.0641  -26.0808   19.8142 N   0  0  0  0  0  0  0  0  0  0  0  0
  -27.6713  -14.4258   19.2911 N   0  0  0  0  0  0  0  0  0  0  0  0
  -27.0150  -28.4277   20.4413 N   0  0  0  0  0  0  0  0  0  0  0  0
  -22.5600  -25.8143   21.6245 N   0  0  0  0  0  0  0  0  0  0  0  0
  -21.9099  -22.2767   20.4180 N   0  0  0  0  0  0  0  0  0  0  0  0
  -24.1434  -14.7681   18.8827 N   0  0  0  0  0  0  0  0  0  0  0  0
  -30.0453  -12.0915   19.9024 N   0  0  0  0  0  0  0  0  0  0  0  0
  -28.6297  -27.1484   21.6031 N   0  0  0  0  0  0  0  0  0  0  0  0
  -33.1748  -12.5496   18.1520 N   0  3  0  0  0  0  0  0  0  0  0  0
  -20.4307  -23.6888   19.3804 O   0  0  0  0  0  0  0  0  0  0  0  0
  -25.6219  -15.6220   20.4662 O   0  0  0  0  0  0  0  0  0  0  0  0
  -27.3171  -12.1363   19.0283 O   0  0  0  0  0  0  0  0  0  0  0  0
  -31.6272  -13.7670   20.1618 O   0  0  0  0  0  0  0  0  0  0  0  0
  -28.6982  -29.4391   21.6749 O   0  0  0  0  0  0  0  0  0  0  0  0
  -23.7070  -21.4074   13.8500 O   0  0  0  0  0  0  0  0  0  0  0  0
  -29.5985  -20.2586   19.8542 O   0  0  0  0  0  0  0  0  0  1  0  0
  -25.8682  -16.3533   14.2848 F   0  0  0  0  0  0  0  0  0  0  0  0
  -25.9165  -20.6764   12.3578 F   0  0  0  0  0  0  0  0  0  0  0  0
  1  2  1  0  0  0  0
  1  5  2  0  0  0  0
  2  6  2  0  0  0  0
  3  8  2  0  0  0  0
  3 17  1  0  0  0  0
  4  9  1  0  0  0  0
  4 17  2  0  0  0  0
  5 19  1  0  0  0  0
  6 21  1  0  0  0  0
  7 10  2  0  0  0  0
  7 20  1  0  0  0  0
  8 23  1  0  0  0  0
  9 23  2  0  0  0  0
 10 24  1  0  0  0  0
 11 12  2  0  0  0  0
 11 25  1  0  0  0  0
 12 26  1  0  0  0  0
 13 14  1  0  0  0  0
 13 29  2  0  0  0  0
 14 30  2  0  0  0  0
 15 22  1  0  0  0  0
 15 24  2  0  0  0  0
 16 26  2  0  0  0  0
 16 27  1  0  0  0  0
 17 28  1  0  0  0  0
 18 28  1  0  0  0  0
 18 31  2  0  0  0  0
 18 32  1  0  0  0  0
 19 21  2  0  0  0  0
 19 37  1  0  0  0  0
 20 22  2  0  0  0  0
 20 38  1  0  0  0  0
 21 46  1  0  0  0  0
 22 39  1  0  0  0  0
 23 81  1  0  0  0  0
 24 82  1  0  0  0  0
 25 27  2  0  0  0  0
 25 81  1  0  0  0  0
 26 83  1  0  0  0  0
 27 84  1  0  0  0  0
 28 65  2  0  0  0  0
 29 49  1  0  0  0  0
 29 66  1  0  0  0  0
 30 56  1  0  0  0  0
 30 66  1  0  0  0  0
 31 67  1  0  0  0  0
 31 70  1  0  0  0  0
 32 71  1  0  0  0  0
 32 76  2  0  0  0  0
 33 47  1  0  0  0  0
 33 72  1  0  0  0  0
 33 77  2  0  0  0  0
 34 61  1  0  0  0  0
 34 68  1  0  0  0  0
 34 78  2  0  0  0  0
 35 62  1  0  0  0  0
 35 73  1  0  0  0  0
 35 79  2  0  0  0  0
 36 69  1  0  0  0  0
 36 74  1  0  0  0  0
 36 80  2  0  0  0  0
 37 40  1  0  0  0  0
 38 47  1  0  0  0  0
 39 68  1  0  0  0  0
 40 42  1  0  0  0  0
 41 43  1  0  0  0  0
 41 44  1  0  0  0  0
 42 46  1  0  0  0  0
 43 48  1  0  0  0  0
 44 69  1  0  0  0  0
 45 48  1  0  0  0  0
 45 69  1  0  0  0  0
 46 72  1  0  0  0  0
 47 68  1  0  0  0  0
 48 67  1  0  0  0  0
 50 62  1  0  0  0  0
 51 63  1  0  0  0  0
 52 64  1  0  0  0  0
 53 64  1  0  0  0  0
 54 64  1  0  0  0  0
 55 75  1  0  0  0  0
 56 57  1  0  0  0  0
 57 60  1  0  0  0  0
 58 63  1  0  0  0  0
 58 66  1  0  0  0  0
 59 63  1  0  0  0  0
 59 74  1  0  0  0  0
 60 82  1  0  0  0  0
 61 64  1  0  0  0  0
 61 73  1  0  0  0  0
 62 75  1  0  0  0  0
 65 67  1  0  0  0  0
M  CHG  1  75   1
M  ISO  4  36 100  60 101  74 100  82 101
M  END
> <Batch ID>
0083

> <Smiles>
CNC(C)C(=O)NC(C(=O)N1Cc2cc([101O:1][101CH2:1]CCc3ccc(C)n3CC(C)C[100NH:0][100C:0](=O)N3CCCC(n4nc(-c5ccc(Oc6ccc(F)cc6F)cc5)c(C(N)=O)c4N)C3)ccc2CC1C(=O)NC1CCCc2ccccc21)C(C)(C)C

> <Shape>
0.202

> <Color>
0.056

> <Negative vol penalty>
0.000

$$$$

  -OEChem-04052318513D

 88 96  0     1  0  0  0  0  0999 V2000
  -16.9442  -29.3586   24.5461 C   0  0  0  0  0  0  0  0  0  0  0  0
  -17.4844  -28.1942   24.0096 C   0  0  0  0  0  0  0  0  0  0  0  0
  -29.2526  -17.6826   20.7342 C   0  0  0  0  0  0  0  0  0  0  0  0
  -27.6984  -18.3517   22.4586 C   0  0  0  0  0  0  0  0  0  0  0  0
  -17.4048  -30.6021   24.1155 C   0  0  0  0  0  0  0  0  0  0  0  0
  -18.4847  -28.2727   23.0414 C   0  0  0  0  0  0  0  0  0  0  0  0
  -22.2833  -25.0372   23.9058 C   0  0  0  0  0  0  0  0  0  0  0  0
  -29.5253  -19.0227   20.4599 C   0  0  0  0  0  0  0  0  0  0  0  0
  -27.9711  -19.6919   22.1844 C   0  0  0  0  0  0  0  0  0  0  0  0
  -22.0712  -23.7013   23.5680 C   0  0  0  0  0  0  0  0  0  0  0  0
  -28.0658  -21.5684   18.7824 C   0  0  0  0  0  0  0  0  0  0  0  0
  -28.1067  -21.9599   17.4443 C   0  0  0  0  0  0  0  0  0  0  0  0
  -23.3068  -24.0287   21.5222 C   0  0  0  0  0  0  0  0  0  0  0  0
  -22.3018  -16.4376   21.6141 C   0  0  0  0  0  0  0  0  0  0  0  0
  -30.4009  -22.6650   17.7206 C   0  0  0  0  0  0  0  0  0  0  0  0
  -21.7356  -15.8956   19.0004 C   0  0  0  0  0  0  0  0  0  0  0  0
  -28.3391  -17.3471   21.7335 C   0  0  0  0  0  0  0  0  0  0  0  0
  -28.7206  -15.1311   22.9384 C   0  0  0  0  0  0  0  0  0  0  0  0
  -18.4181  -30.6958   23.1485 C   0  0  0  0  0  0  0  0  0  0  0  0
  -23.0007  -25.8831   23.0478 C   0  0  0  0  0  0  0  0  0  0  0  0
  -18.9584  -29.5187   22.5965 C   0  0  0  0  0  0  0  0  0  0  0  0
  -23.5289  -25.3743   21.8527 C   0  0  0  0  0  0  0  0  0  0  0  0
  -23.2041  -16.8193   20.6274 C   0  0  0  0  0  0  0  0  0  0  0  0
  -22.9231  -16.5468   19.2932 C   0  0  0  0  0  0  0  0  0  0  0  0
  -28.8846  -20.0274   21.1850 C   0  0  0  0  0  0  0  0  0  0  0  0
  -22.5805  -23.1976   22.3746 C   0  0  0  0  0  0  0  0  0  0  0  0
  -29.1925  -21.7252   19.5897 C   0  0  0  0  0  0  0  0  0  0  0  0
  -29.2742  -22.5082   16.9133 C   0  0  0  0  0  0  0  0  0  0  0  0
  -30.3601  -22.2734   19.0588 C   0  0  0  0  0  0  0  0  0  0  0  0
  -28.0566  -15.9629   22.0169 C   0  0  0  0  0  0  0  0  0  0  0  0
  -21.1421  -15.7915   21.2174 C   0  0  0  0  0  0  0  0  0  0  0  0
  -28.0801  -13.9208   22.8320 C   0  0  0  0  0  0  0  0  0  0  0  0
  -29.8181  -15.4262   23.8124 C   0  0  0  0  0  0  0  0  0  0  0  0
  -22.3260  -28.5376   21.4347 C   0  0  0  0  0  0  0  0  0  0  0  0
  -25.4964  -28.4642   20.7528 C   0  0  0  0  0  0  0  0  0  0  0  0
  -28.3494  -26.6186   20.4342 C   0  0  0  0  0  0  0  0  0  0  0  0
  -22.5748  -12.3623   21.0672 C   0  0  0  0  0  0  0  0  0  0  0  0
  -18.8503  -32.0627   22.6801 C   0  0  0  0  0  0  0  0  0  0  0  0
  -23.2437  -27.3149   23.4394 C   0  0  0  0  0  0  0  0  0  0  0  0
  -24.3233  -26.2358   20.9066 C   0  0  0  0  0  0  0  0  0  0  0  0
  -20.1758  -32.0562   21.9230 C   0  0  0  0  0  0  0  0  0  0  0  0
  -25.6617  -11.2264   19.7042 C   0  0  0  0  0  0  0  0  0  0  0  0
  -20.1949  -30.9342   20.8897 C   0  0  0  0  0  0  0  0  0  0  0  0
  -26.6854  -12.2365   20.2255 C   0  0  0  0  0  0  0  0  0  0  0  0
  -24.3264  -11.8926   19.3797 C   0  0  0  0  0  0  0  0  0  0  0  0
  -24.7696  -13.6947   21.0014 C   0  0  0  0  0  0  0  0  0  0  0  0
  -20.0623  -29.5625   21.5623 C   0  0  1  0  0  0  0  0  0  0  0  0
  -23.5485  -28.2168   22.2473 C   0  0  1  0  0  0  0  0  0  0  0  0
  -26.1146  -13.0605   21.3953 C   0  0  2  0  0  0  0  0  0  0  0  0
  -23.1943  -17.8465   17.1663 C   0  0  0  0  0  0  0  0  0  0  0  0
  -30.7751  -26.8305   19.8272 C   0  0  0  0  0  0  0  0  0  0  0  0
  -20.5351  -15.7067   23.7305 C   0  0  0  0  0  0  0  0  0  0  0  0
  -18.7888  -16.1009   22.0161 C   0  0  0  0  0  0  0  0  0  0  0  0
  -24.7390  -28.6583   17.8034 C   0  0  0  0  0  0  0  0  0  0  0  0
  -27.0610  -27.9179   17.2302 C   0  0  0  0  0  0  0  0  0  0  0  0
  -26.7049  -30.0533   18.4696 C   0  0  0  0  0  0  0  0  0  0  0  0
  -29.2187  -25.6874   23.1055 C   0  0  0  0  0  0  0  0  0  0  0  0
  -24.4758  -17.5249   21.0259 C   0  0  0  0  0  0  0  0  0  0  0  0
  -23.8543  -16.9329   18.1970 C   0  0  0  0  0  0  0  0  0  0  0  0
  -24.4567  -19.0338   20.7578 C   0  0  0  0  0  0  0  0  0  0  0  0
  -23.3907  -19.7725   21.5683 C   0  0  0  0  0  0  0  0  0  0  0  0
  -19.8392  -13.8207   22.2008 C   0  0  0  0  0  0  0  0  0  0  0  0
  -20.9223  -12.9403   22.8263 C   0  0  0  0  0  0  0  0  0  0  0  0
  -23.3753  -21.2607   21.2465 C   0  0  0  0  0  0  0  0  0  1  0  0
  -26.3413  -27.8532   19.6610 C   0  0  1  0  0  0  0  0  0  0  0  0
  -29.7570  -26.8417   20.9569 C   0  0  2  0  0  0  0  0  0  0  0  0
  -20.1511  -15.3670   22.2493 C   0  0  0  0  0  0  0  0  0  0  0  0
  -26.1950  -28.6047   18.3078 C   0  0  0  0  0  0  0  0  0  0  0  0
  -20.8347  -15.5095   19.9314 N   0  0  0  0  0  0  0  0  0  0  0  0
  -27.0700  -15.3341   21.3725 N   0  0  0  0  0  0  0  0  0  0  0  0
  -27.1094  -14.0943   21.8897 N   0  0  0  0  0  0  0  0  0  0  0  0
  -24.5286  -27.6306   21.3309 N   0  0  0  0  0  0  0  0  0  0  0  0
  -23.8391  -12.6567   20.5306 N   0  0  0  0  0  0  0  0  0  0  0  0
  -28.2581  -12.7357   23.4533 N   0  0  0  0  0  0  0  0  0  0  0  0
  -30.3570  -16.7199   23.7950 N   0  0  0  0  0  0  0  0  0  0  0  0
  -21.3232  -29.1638   22.1502 N   0  0  0  0  0  0  0  0  0  0  0  0
  -27.7055  -27.8103   20.1762 N   0  0  0  0  0  0  0  0  0  0  0  0
  -22.1922  -13.1292   22.1610 N   0  0  0  0  0  0  0  0  0  0  0  0
  -30.1233  -25.7744   21.9303 N   0  3  0  0  0  0  0  0  0  0  0  0
  -30.3172  -14.5635   24.5741 O   0  0  0  0  0  0  0  0  0  0  0  0
  -22.2953  -28.2404   20.2463 O   0  0  0  0  0  0  0  0  0  0  0  0
  -25.6930  -29.6356   21.0855 O   0  0  0  0  0  0  0  0  0  0  0  0
  -27.8703  -25.4991   20.2676 O   0  0  0  0  0  0  0  0  0  0  0  0
  -21.8436  -11.4778   20.6091 O   0  0  0  0  0  0  0  0  0  0  0  0
  -29.1506  -21.3352   20.9178 O   0  0  0  0  0  0  0  0  0  0  0  0
  -22.3743  -21.8942   22.0421 O   0  0  0  0  0  0  0  0  0  1  0  0
  -29.3138  -22.8827   15.6279 F   0  0  0  0  0  0  0  0  0  0  0  0
  -31.4460  -22.4254   19.8291 F   0  0  0  0  0  0  0  0  0  0  0  0
  1  2  1  0  0  0  0
  1  5  2  0  0  0  0
  2  6  2  0  0  0  0
  3  8  2  0  0  0  0
  3 17  1  0  0  0  0
  4  9  1  0  0  0  0
  4 17  2  0  0  0  0
  5 19  1  0  0  0  0
  6 21  1  0  0  0  0
  7 10  2  0  0  0  0
  7 20  1  0  0  0  0
  8 25  1  0  0  0  0
  9 25  2  0  0  0  0
 10 26  1  0  0  0  0
 11 12  2  0  0  0  0
 11 27  1  0  0  0  0
 12 28  1  0  0  0  0
 13 22  1  0  0  0  0
 13 26  2  0  0  0  0
 14 23  1  0  0  0  0
 14 31  2  0  0  0  0
 15 28  2  0  0  0  0
 15 29  1  0  0  0  0
 16 24  1  0  0  0  0
 16 69  2  0  0  0  0
 17 30  1  0  0  0  0
 18 30  1  0  0  0  0
 18 32  2  0  0  0  0
 18 33  1  0  0  0  0
 19 21  2  0  0  0  0
 19 38  1  0  0  0  0
 20 22  2  0  0  0  0
 20 39  1  0  0  0  0
 21 47  1  0  0  0  0
 22 40  1  0  0  0  0
 23 24  2  0  0  0  0
 23 58  1  0  0  0  0
 24 59  1  0  0  0  0
 25 85  1  0  0  0  0
 26 86  1  0  0  0  0
 27 29  2  0  0  0  0
 27 85  1  0  0  0  0
 28 87  1  0  0  0  0
 29 88  1  0  0  0  0
 30 70  2  0  0  0  0
 31 67  1  0  0  0  0
 31 69  1  0  0  0  0
 32 71  1  0  0  0  0
 32 74  1  0  0  0  0
 33 75  1  0  0  0  0
 33 80  2  0  0  0  0
 34 48  1  0  0  0  0
 34 76  1  0  0  0  0
 34 81  2  0  0  0  0
 35 65  1  0  0  0  0
 35 72  1  0  0  0  0
 35 82  2  0  0  0  0
 36 66  1  0  0  0  0
 36 77  1  0  0  0  0
 36 83  2  0  0  0  0
 37 73  1  0  0  0  0
 37 78  1  0  0  0  0
 37 84  2  0  0  0  0
 38 41  1  0  0  0  0
 39 48  1  0  0  0  0
 40 72  1  0  0  0  0
 41 43  1  0  0  0  0
 42 44  1  0  0  0  0
 42 45  1  0  0  0  0
 43 47  1  0  0  0  0
 44 49  1  0  0  0  0
 45 73  1  0  0  0  0
 46 49  1  0  0  0  0
 46 73  1  0  0  0  0
 47 76  1  0  0  0  0
 48 72  1  0  0  0  0
 49 71  1  0  0  0  0
 50 59  1  0  0  0  0
 51 66  1  0  0  0  0
 52 67  1  0  0  0  0
 53 67  1  0  0  0  0
 54 68  1  0  0  0  0
 55 68  1  0  0  0  0
 56 68  1  0  0  0  0
 57 79  1  0  0  0  0
 58 60  1  0  0  0  0
 60 61  1  0  0  0  0
 61 64  1  0  0  0  0
 62 63  1  0  0  0  0
 62 67  1  0  0  0  0
 63 78  1  0  0  0  0
 64 86  1  0  0  0  0
 65 68  1  0  0  0  0
 65 77  1  0  0  0  0
 66 79  1  0  0  0  0
 70 71  1  0  0  0  0
M  CHG  1  79   1
M  ISO  4  37 100  64 101  78 100  86 101
M  END
> <Batch ID>
0083

> <Smiles>
CCc1cnc(C(C)(C)CC[100NH:0][100C:0](=O)N2CCCC(n3nc(-c4ccc(Oc5ccc(F)cc5F)cc4)c(C(N)=O)c3N)C2)cc1CCC[101CH2:1][101O:1]c1ccc2c(c1)CN(C(=O)C(NC(=O)C(C)NC)C(C)(C)C)C(C(=O)NC1CCCc3ccccc31)C2

> <Shape>
0.221

> <Color>
0.075

> <Negative vol penalty>
0.000

$$$$

  -OEChem-04052318513D

 84 92  0     1  0  0  0  0  0999 V2000
  -19.1265  -22.5685   22.6915 C   0  0  0  0  0  0  0  0  0  0  0  0
  -20.4479  -22.1454   22.5893 C   0  0  0  0  0  0  0  0  0  0  0  0
  -26.2024  -12.4661   19.4134 C   0  0  0  0  0  0  0  0  0  0  0  0
  -24.6513  -13.6246   20.8588 C   0  0  0  0  0  0  0  0  0  0  0  0
  -18.7395  -23.7840   22.1289 C   0  0  0  0  0  0  0  0  0  0  0  0
  -21.3828  -22.9373   21.9235 C   0  0  0  0  0  0  0  0  0  0  0  0
  -28.3261  -24.6940   22.0702 C   0  0  0  0  0  0  0  0  0  0  0  0
  -25.9950  -11.2898   20.1336 C   0  0  0  0  0  0  0  0  0  0  0  0
  -24.4438  -12.4482   21.5790 C   0  0  0  0  0  0  0  0  0  0  0  0
  -29.4403  -24.7517   21.2342 C   0  0  0  0  0  0  0  0  0  0  0  0
  -23.2315   -9.6620   23.5753 C   0  0  0  0  0  0  0  0  0  0  0  0
  -21.9181   -9.3219   23.8989 C   0  0  0  0  0  0  0  0  0  0  0  0
  -28.6748  -26.8699   20.3701 C   0  0  0  0  0  0  0  0  0  0  0  0
  -21.3580   -9.2499   21.5498 C   0  0  0  0  0  0  0  0  0  0  0  0
  -28.4915  -24.5189   16.8138 C   0  0  0  0  0  0  0  0  0  0  0  0
  -25.5306  -13.6336   19.7760 C   0  0  0  0  0  0  0  0  0  0  0  0
  -25.0275  -15.2946   17.9063 C   0  0  0  0  0  0  0  0  0  0  0  0
  -19.6722  -24.5957   21.4642 C   0  0  0  0  0  0  0  0  0  0  0  0
  -27.3706  -25.7203   22.0545 C   0  0  0  0  0  0  0  0  0  0  0  0
  -21.0076  -24.1642   21.3503 C   0  0  0  0  0  0  0  0  0  0  0  0
  -27.5506  -26.8240   21.2087 C   0  0  0  0  0  0  0  0  0  0  0  0
  -29.7943  -24.4165   16.3787 C   0  0  0  0  0  0  0  0  0  0  0  0
  -29.8855  -23.2443   15.5883 C   0  0  0  0  0  0  0  0  0  0  0  0
  -25.1157  -11.2808   21.2164 C   0  0  0  0  0  0  0  0  0  0  0  0
  -29.6134  -25.8384   20.3819 C   0  0  0  0  0  0  0  0  0  0  0  0
  -23.6082   -9.7961   22.2389 C   0  0  0  0  0  0  0  0  0  0  0  0
  -20.9813   -9.1158   22.8862 C   0  0  0  0  0  0  0  0  0  0  0  0
  -22.6715   -9.5900   21.2262 C   0  0  0  0  0  0  0  0  0  0  0  0
  -25.7449  -14.8492   19.0328 C   0  0  0  0  0  0  0  0  0  0  0  0
  -28.6355  -22.6661   15.5644 C   0  0  0  0  0  0  0  0  0  0  0  0
  -25.6140  -16.4922   17.5772 C   0  0  0  0  0  0  0  0  0  0  0  0
  -23.9292  -14.6807   17.2190 C   0  0  0  0  0  0  0  0  0  0  0  0
  -24.2740  -25.8915   21.3576 C   0  0  0  0  0  0  0  0  0  0  0  0
  -24.6025  -28.9396   22.4177 C   0  0  0  0  0  0  0  0  0  0  0  0
  -26.6590  -31.6025   22.9888 C   0  0  0  0  0  0  0  0  0  0  0  0
  -27.7163  -21.4483   19.0477 C   0  0  0  0  0  0  0  0  0  0  0  0
  -19.1966  -25.8793   20.8310 C   0  0  0  0  0  0  0  0  0  0  0  0
  -26.1879  -25.6560   22.9816 C   0  0  0  0  0  0  0  0  0  0  0  0
  -26.5643  -27.9616   21.1685 C   0  0  0  0  0  0  0  0  0  0  0  0
  -20.3296  -26.8355   20.4674 C   0  0  0  0  0  0  0  0  0  0  0  0
  -29.8863  -18.6320   19.2371 C   0  0  0  0  0  0  0  0  0  0  0  0
  -21.4509  -26.0874   19.7533 C   0  0  0  0  0  0  0  0  0  0  0  0
  -28.9428  -17.4342   19.1142 C   0  0  0  0  0  0  0  0  0  0  0  0
  -29.2516  -19.7714   20.0313 C   0  0  0  0  0  0  0  0  0  0  0  0
  -26.9891  -19.0126   19.4153 C   0  0  0  0  0  0  0  0  0  0  0  0
  -22.0563  -25.0069   20.6574 C   0  0  1  0  0  0  0  0  0  0  0  0
  -25.0131  -26.5081   22.5114 C   0  0  1  0  0  0  0  0  0  0  0  0
  -27.5639  -17.8597   18.5747 C   0  0  2  0  0  0  0  0  0  0  0  0
  -31.0966  -22.7338   14.9132 C   0  0  0  0  0  0  0  0  0  0  0  0
  -28.1666  -21.4351   14.8935 C   0  0  0  0  0  0  0  0  0  0  0  0
  -26.6323  -33.9683   23.8255 C   0  0  0  0  0  0  0  0  0  0  0  0
  -25.5305  -24.3246   15.9581 C   0  0  0  0  0  0  0  0  0  0  0  0
  -23.3797  -29.8571   19.7771 C   0  0  0  0  0  0  0  0  0  0  0  0
  -24.2407  -32.1583   20.2582 C   0  0  0  0  0  0  0  0  0  0  0  0
  -22.5756  -31.1062   21.7889 C   0  0  0  0  0  0  0  0  0  0  0  0
  -28.5021  -30.9592   25.2133 C   0  0  0  0  0  0  0  0  0  0  0  0
  -30.9099  -25.3811   16.6930 C   0  0  0  0  0  0  0  0  0  0  0  0
  -31.8879  -24.8677   17.7519 C   0  0  0  0  0  0  0  0  0  0  0  0
  -26.0704  -23.0079   18.0389 C   0  0  0  0  0  0  0  0  0  0  0  0
  -31.2435  -24.6558   19.1169 C   0  0  0  0  0  0  0  0  0  1  0  0
  -24.9583  -30.2608   21.7799 C   0  0  1  0  0  0  0  0  0  0  0  0
  -26.8248  -32.5062   24.1973 C   0  0  2  0  0  0  0  0  0  0  0  0
  -26.3907  -23.2021   16.5483 C   0  0  2  0  0  0  0  0  0  0  0  0
  -23.8063  -30.8234   20.9001 C   0  0  0  0  0  0  0  0  0  0  0  0
  -26.7132  -15.6950   19.3949 N   0  0  0  0  0  0  0  0  0  0  0  0
  -27.7961  -23.4496   16.3125 N   0  0  0  0  0  0  0  0  0  0  0  0
  -26.6085  -16.6837   18.4907 N   0  0  0  0  0  0  0  0  0  0  0  0
  -25.4210  -27.8496   22.0893 N   0  0  0  0  0  0  0  0  0  0  0  0
  -27.9474  -20.1279   19.4673 N   0  0  0  0  0  0  0  0  0  0  0  0
  -25.3710  -17.3895   16.5984 N   0  0  0  0  0  0  0  0  0  0  0  0
  -23.4501  -13.4505   17.6896 N   0  0  0  0  0  0  0  0  0  0  0  0
  -22.9500  -25.6022   21.6276 N   0  0  0  0  0  0  0  0  0  0  0  0
  -25.3645  -31.1432   22.8683 N   0  0  0  0  0  0  0  0  0  0  0  0
  -26.4561  -21.6997   18.5193 N   0  0  0  0  0  0  0  0  0  0  0  0
  -28.1863  -32.3452   24.7816 N   0  3  0  0  0  0  0  0  0  0  0  0
  -23.3993  -15.1994   16.2072 O   0  0  0  0  0  0  0  0  0  0  0  0
  -24.8610  -25.6943   20.3002 O   0  0  0  0  0  0  0  0  0  0  0  0
  -23.6384  -28.8785   23.1848 O   0  0  0  0  0  0  0  0  0  0  0  0
  -27.5844  -31.3341   22.2258 O   0  0  0  0  0  0  0  0  0  0  0  0
  -28.5717  -22.3361   19.1324 O   0  0  0  0  0  0  0  0  0  0  0  0
  -24.9128  -10.1330   21.9193 O   0  0  0  0  0  0  0  0  0  0  0  0
  -30.6998  -25.8969   19.5645 O   0  0  0  0  0  0  0  0  0  1  0  0
  -19.7204   -8.7877   23.1970 F   0  0  0  0  0  0  0  0  0  0  0  0
  -23.0277   -9.7163   19.9405 F   0  0  0  0  0  0  0  0  0  0  0  0
  1  2  1  0  0  0  0
  1  5  2  0  0  0  0
  2  6  2  0  0  0  0
  3  8  2  0  0  0  0
  3 16  1  0  0  0  0
  4  9  1  0  0  0  0
  4 16  2  0  0  0  0
  5 18  1  0  0  0  0
  6 20  1  0  0  0  0
  7 10  2  0  0  0  0
  7 19  1  0  0  0  0
  8 24  1  0  0  0  0
  9 24  2  0  0  0  0
 10 25  1  0  0  0  0
 11 12  2  0  0  0  0
 11 26  1  0  0  0  0
 12 27  1  0  0  0  0
 13 21  1  0  0  0  0
 13 25  2  0  0  0  0
 14 27  2  0  0  0  0
 14 28  1  0  0  0  0
 15 22  2  0  0  0  0
 15 66  1  0  0  0  0
 16 29  1  0  0  0  0
 17 29  1  0  0  0  0
 17 31  2  0  0  0  0
 17 32  1  0  0  0  0
 18 20  2  0  0  0  0
 18 37  1  0  0  0  0
 19 21  2  0  0  0  0
 19 38  1  0  0  0  0
 20 46  1  0  0  0  0
 21 39  1  0  0  0  0
 22 23  1  0  0  0  0
 22 57  1  0  0  0  0
 23 30  2  0  0  0  0
 23 49  1  0  0  0  0
 24 81  1  0  0  0  0
 25 82  1  0  0  0  0
 26 28  2  0  0  0  0
 26 81  1  0  0  0  0
 27 83  1  0  0  0  0
 28 84  1  0  0  0  0
 29 65  2  0  0  0  0
 30 50  1  0  0  0  0
 30 66  1  0  0  0  0
 31 67  1  0  0  0  0
 31 70  1  0  0  0  0
 32 71  1  0  0  0  0
 32 76  2  0  0  0  0
 33 47  1  0  0  0  0
 33 72  1  0  0  0  0
 33 77  2  0  0  0  0
 34 61  1  0  0  0  0
 34 68  1  0  0  0  0
 34 78  2  0  0  0  0
 35 62  1  0  0  0  0
 35 73  1  0  0  0  0
 35 79  2  0  0  0  0
 36 69  1  0  0  0  0
 36 74  1  0  0  0  0
 36 80  2  0  0  0  0
 37 40  1  0  0  0  0
 38 47  1  0  0  0  0
 39 68  1  0  0  0  0
 40 42  1  0  0  0  0
 41 43  1  0  0  0  0
 41 44  1  0  0  0  0
 42 46  1  0  0  0  0
 43 48  1  0  0  0  0
 44 69  1  0  0  0  0
 45 48  1  0  0  0  0
 45 69  1  0  0  0  0
 46 72  1  0  0  0  0
 47 68  1  0  0  0  0
 48 67  1  0  0  0  0
 51 62  1  0  0  0  0
 52 63  1  0  0  0  0
 53 64  1  0  0  0  0
 54 64  1  0  0  0  0
 55 64  1  0  0  0  0
 56 75  1  0  0  0  0
 57 58  1  0  0  0  0
 58 60  1  0  0  0  0
 59 63  1  0  0  0  0
 59 74  1  0  0  0  0
 60 82  1  0  0  0  0
 61 64  1  0  0  0  0
 61 73  1  0  0  0  0
 62 75  1  0  0  0  0
 63 66  1  0  0  0  0
 65 67  1  0  0  0  0
M  CHG  1  75   1
M  ISO  4  36 100  60 101  74 100  82 101
M  END
> <Batch ID>
0083

> <Smiles>
CNC(C)C(=O)NC(C(=O)N1Cc2cc([101O:1][101CH2:1]CCc3cn(C(C)C[100NH:0][100C:0](=O)N4CCCC(n5nc(-c6ccc(Oc7ccc(F)cc7F)cc6)c(C(N)=O)c5N)C4)c(C)c3C)ccc2CC1C(=O)NC1CCCc2ccccc21)C(C)(C)C

> <Shape>
0.232

> <Color>
0.063

> <Negative vol penalty>
0.000

$$$$

  -OEChem-04052318513D

 83 91  0     1  0  0  0  0  0999 V2000
  -34.8778  -25.4389   12.4959 C   0  0  0  0  0  0  0  0  0  0  0  0
  -34.6301  -24.4444   13.4366 C   0  0  0  0  0  0  0  0  0  0  0  0
  -23.2924   -9.7957   19.9134 C   0  0  0  0  0  0  0  0  0  0  0  0
  -23.7439   -9.9380   22.2825 C   0  0  0  0  0  0  0  0  0  0  0  0
  -35.3524  -26.6836   12.9076 C   0  0  0  0  0  0  0  0  0  0  0  0
  -34.8580  -24.6936   14.7895 C   0  0  0  0  0  0  0  0  0  0  0  0
  -31.0870  -23.0321   17.7331 C   0  0  0  0  0  0  0  0  0  0  0  0
  -22.5699   -8.6209   20.1216 C   0  0  0  0  0  0  0  0  0  0  0  0
  -23.0214   -8.7631   22.4908 C   0  0  0  0  0  0  0  0  0  0  0  0
  -31.0429  -21.6644   17.9999 C   0  0  0  0  0  0  0  0  0  0  0  0
  -19.7774   -7.8416   22.7099 C   0  0  0  0  0  0  0  0  0  0  0  0
  -18.8757   -7.8171   23.7737 C   0  0  0  0  0  0  0  0  0  0  0  0
  -32.0558  -22.0579   20.1535 C   0  0  0  0  0  0  0  0  0  0  0  0
  -20.0879   -5.9739   24.7587 C   0  0  0  0  0  0  0  0  0  0  0  0
  -28.4025  -16.0449   24.6882 C   0  0  0  0  0  0  0  0  0  0  0  0
  -23.8794  -10.4543   20.9938 C   0  0  0  0  0  0  0  0  0  0  0  0
  -24.1306  -12.9851   20.7949 C   0  0  0  0  0  0  0  0  0  0  0  0
  -35.5771  -26.9514   14.2672 C   0  0  0  0  0  0  0  0  0  0  0  0
  -31.6268  -23.9233   18.6716 C   0  0  0  0  0  0  0  0  0  0  0  0
  -35.3373  -25.9426   15.2196 C   0  0  0  0  0  0  0  0  0  0  0  0
  -32.1033  -23.4367   19.8973 C   0  0  0  0  0  0  0  0  0  0  0  0
  -22.4344   -8.1046   21.4103 C   0  0  0  0  0  0  0  0  0  0  0  0
  -31.5299  -21.1767   19.2090 C   0  0  0  0  0  0  0  0  0  0  0  0
  -20.8344   -6.9322   22.6704 C   0  0  0  0  0  0  0  0  0  0  0  0
  -19.0309   -6.8833   24.7982 C   0  0  0  0  0  0  0  0  0  0  0  0
  -20.9896   -5.9984   23.6948 C   0  0  0  0  0  0  0  0  0  0  0  0
  -24.6264  -11.6676   20.7793 C   0  0  0  0  0  0  0  0  0  0  0  0
  -28.7446  -15.3887   25.8858 C   0  0  0  0  0  0  0  0  0  0  0  0
  -29.4828  -15.8417   23.8647 C   0  0  0  0  0  0  0  0  0  0  0  0
  -25.2294  -13.7685   20.5393 C   0  0  0  0  0  0  0  0  0  0  0  0
  -22.7961  -13.4584   21.0203 C   0  0  0  0  0  0  0  0  0  0  0  0
  -34.0850  -25.9383   18.6959 C   0  0  0  0  0  0  0  0  0  0  0  0
  -32.8555  -26.7910   21.5740 C   0  0  0  0  0  0  0  0  0  0  0  0
  -30.9582  -25.9414   24.2806 C   0  0  0  0  0  0  0  0  0  0  0  0
  -31.1035  -12.9445   21.3560 C   0  0  0  0  0  0  0  0  0  0  0  0
  -36.1356  -28.2963   14.6595 C   0  0  0  0  0  0  0  0  0  0  0  0
  -31.6427  -25.3987   18.3797 C   0  0  0  0  0  0  0  0  0  0  0  0
  -32.6741  -24.3540   20.9467 C   0  0  0  0  0  0  0  0  0  0  0  0
  -35.9950  -28.6034   16.1482 C   0  0  0  0  0  0  0  0  0  0  0  0
  -29.4506  -13.6783   18.2890 C   0  0  0  0  0  0  0  0  0  0  0  0
  -36.4308  -27.4042   16.9842 C   0  0  0  0  0  0  0  0  0  0  0  0
  -27.9821  -13.3651   18.5809 C   0  0  0  0  0  0  0  0  0  0  0  0
  -30.3874  -12.7020   18.9970 C   0  0  0  0  0  0  0  0  0  0  0  0
  -28.7031  -12.2673   20.7428 C   0  0  0  0  0  0  0  0  0  0  0  0
  -35.5487  -26.1829   16.6987 C   0  0  1  0  0  0  0  0  0  0  0  0
  -32.6849  -26.1579   19.1950 C   0  0  1  0  0  0  0  0  0  0  0  0
  -27.7216  -13.2593   20.0955 C   0  0  2  0  0  0  0  0  0  0  0  0
  -27.9420  -15.2914   27.1166 C   0  0  0  0  0  0  0  0  0  0  0  0
  -30.1682  -26.8312   26.4900 C   0  0  0  0  0  0  0  0  0  0  0  0
  -35.6173  -26.2777   22.7654 C   0  0  0  0  0  0  0  0  0  0  0  0
  -34.5571  -26.2498   25.0333 C   0  0  0  0  0  0  0  0  0  0  0  0
  -34.4660  -28.3178   23.6413 C   0  0  0  0  0  0  0  0  0  0  0  0
  -28.1178  -25.7601   23.4693 C   0  0  0  0  0  0  0  0  0  0  0  0
  -29.7457  -16.2862   22.4479 C   0  0  0  0  0  0  0  0  0  0  0  0
  -30.4407  -17.6485   22.3453 C   0  0  0  0  0  0  0  0  0  0  0  0
  -30.6293  -18.1171   20.9018 C   0  0  0  0  0  0  0  0  0  0  0  0
  -31.6672  -14.6348   24.1581 C   0  0  0  0  0  0  0  0  0  0  0  0
  -31.6659  -13.1602   23.7635 C   0  0  0  0  0  0  0  0  0  0  0  0
  -31.3574  -19.4529   20.8383 C   0  0  0  0  0  0  0  0  0  1  0  0
  -33.0464  -26.3271   22.9979 C   0  0  1  0  0  0  0  0  0  0  0  0
  -29.8533  -26.6847   25.0094 C   0  0  2  0  0  0  0  0  0  0  0  0
  -34.4127  -26.7754   23.5891 C   0  0  0  0  0  0  0  0  0  0  0  0
  -25.9380  -11.6132   20.5331 N   0  0  0  0  0  0  0  0  0  0  0  0
  -29.9481  -14.8117   25.8320 N   0  0  0  0  0  0  0  0  0  0  0  0
  -30.3715  -15.1046   24.5906 N   0  0  0  0  0  0  0  0  0  0  0  0
  -26.2757  -12.9062   20.3916 N   0  0  0  0  0  0  0  0  0  0  0  0
  -32.6736  -25.7876   20.6117 N   0  0  0  0  0  0  0  0  0  0  0  0
  -30.0890  -12.6497   20.4302 N   0  0  0  0  0  0  0  0  0  0  0  0
  -25.3929  -15.1039   20.4286 N   0  0  0  0  0  0  0  0  0  0  0  0
  -21.7867  -12.5183   21.2684 N   0  0  0  0  0  0  0  0  0  0  0  0
  -34.2771  -26.3079   17.3784 N   0  0  0  0  0  0  0  0  0  0  0  0
  -31.8870  -26.8068   23.7423 N   0  0  0  0  0  0  0  0  0  0  0  0
  -30.7347  -12.8779   22.6940 N   0  0  0  0  0  0  0  0  0  0  0  0
  -28.5611  -25.9547   24.8738 N   0  3  0  0  0  0  0  0  0  0  0  0
  -22.5042  -14.6779   20.9861 O   0  0  0  0  0  0  0  0  0  0  0  0
  -34.9290  -25.4696   19.4508 O   0  0  0  0  0  0  0  0  0  0  0  0
  -32.8603  -27.9993   21.3259 O   0  0  0  0  0  0  0  0  0  0  0  0
  -30.9957  -24.7156   24.2001 O   0  0  0  0  0  0  0  0  0  0  0  0
  -32.2513  -13.2500   21.0152 O   0  0  0  0  0  0  0  0  0  0  0  0
  -21.7292   -6.9583   21.6139 O   0  0  0  0  0  0  0  0  0  0  0  0
  -31.4886  -19.8421   19.4717 O   0  0  0  0  0  0  0  0  0  1  0  0
  -18.1658   -6.8609   25.8205 F   0  0  0  0  0  0  0  0  0  0  0  0
  -22.0037   -5.1230   23.6630 F   0  0  0  0  0  0  0  0  0  0  0  0
  1  2  1  0  0  0  0
  1  5  2  0  0  0  0
  2  6  2  0  0  0  0
  3  8  2  0  0  0  0
  3 16  1  0  0  0  0
  4  9  1  0  0  0  0
  4 16  2  0  0  0  0
  5 18  1  0  0  0  0
  6 20  1  0  0  0  0
  7 10  2  0  0  0  0
  7 19  1  0  0  0  0
  8 22  1  0  0  0  0
  9 22  2  0  0  0  0
 10 23  1  0  0  0  0
 11 12  2  0  0  0  0
 11 24  1  0  0  0  0
 12 25  1  0  0  0  0
 13 21  1  0  0  0  0
 13 23  2  0  0  0  0
 14 25  2  0  0  0  0
 14 26  1  0  0  0  0
 15 28  1  0  0  0  0
 15 29  2  0  0  0  0
 16 27  1  0  0  0  0
 17 27  1  0  0  0  0
 17 30  2  0  0  0  0
 17 31  1  0  0  0  0
 18 20  2  0  0  0  0
 18 36  1  0  0  0  0
 19 21  2  0  0  0  0
 19 37  1  0  0  0  0
 20 45  1  0  0  0  0
 21 38  1  0  0  0  0
 22 80  1  0  0  0  0
 23 81  1  0  0  0  0
 24 26  2  0  0  0  0
 24 80  1  0  0  0  0
 25 82  1  0  0  0  0
 26 83  1  0  0  0  0
 27 63  2  0  0  0  0
 28 48  1  0  0  0  0
 28 64  2  0  0  0  0
 29 54  1  0  0  0  0
 29 65  1  0  0  0  0
 30 66  1  0  0  0  0
 30 69  1  0  0  0  0
 31 70  1  0  0  0  0
 31 75  2  0  0  0  0
 32 46  1  0  0  0  0
 32 71  1  0  0  0  0
 32 76  2  0  0  0  0
 33 60  1  0  0  0  0
 33 67  1  0  0  0  0
 33 77  2  0  0  0  0
 34 61  1  0  0  0  0
 34 72  1  0  0  0  0
 34 78  2  0  0  0  0
 35 68  1  0  0  0  0
 35 73  1  0  0  0  0
 35 79  2  0  0  0  0
 36 39  1  0  0  0  0
 37 46  1  0  0  0  0
 38 67  1  0  0  0  0
 39 41  1  0  0  0  0
 40 42  1  0  0  0  0
 40 43  1  0  0  0  0
 41 45  1  0  0  0  0
 42 47  1  0  0  0  0
 43 68  1  0  0  0  0
 44 47  1  0  0  0  0
 44 68  1  0  0  0  0
 45 71  1  0  0  0  0
 46 67  1  0  0  0  0
 47 66  1  0  0  0  0
 49 61  1  0  0  0  0
 50 62  1  0  0  0  0
 51 62  1  0  0  0  0
 52 62  1  0  0  0  0
 53 74  1  0  0  0  0
 54 55  1  0  0  0  0
 55 56  1  0  0  0  0
 56 59  1  0  0  0  0
 57 58  1  0  0  0  0
 57 65  1  0  0  0  0
 58 73  1  0  0  0  0
 59 81  1  0  0  0  0
 60 62  1  0  0  0  0
 60 72  1  0  0  0  0
 61 74  1  0  0  0  0
 63 66  1  0  0  0  0
 64 65  1  0  0  0  0
M  CHG  1  74   1
M  ISO  4  35 100  59 101  73 100  81 101
M  END
> <Batch ID>
0083

> <Smiles>
CNC(C)C(=O)NC(C(=O)N1Cc2cc([101O:1][101CH2:1]CCCc3cc(C)nn3CC[100NH:0][100C:0](=O)N3CCCC(n4nc(-c5ccc(Oc6ccc(F)cc6F)cc5)c(C(N)=O)c4N)C3)ccc2CC1C(=O)NC1CCCc2ccccc21)C(C)(C)C

> <Shape>
0.179

> <Color>
0.178

> <Negative vol penalty>
0.000

$$$$

  -OEChem-04052318513D

 84 92  0     1  0  0  0  0  0999 V2000
  -18.5829  -29.8284   23.6583 C   0  0  0  0  0  0  0  0  0  0  0  0
  -19.1877  -28.6673   24.1290 C   0  0  0  0  0  0  0  0  0  0  0  0
  -29.7160  -23.6769   20.9236 C   0  0  0  0  0  0  0  0  0  0  0  0
  -27.5185  -23.4338   19.9495 C   0  0  0  0  0  0  0  0  0  0  0  0
  -17.9272  -29.8218   22.4279 C   0  0  0  0  0  0  0  0  0  0  0  0
  -19.1362  -27.4987   23.3701 C   0  0  0  0  0  0  0  0  0  0  0  0
  -23.4701  -23.1930   22.9415 C   0  0  0  0  0  0  0  0  0  0  0  0
  -22.3277  -15.3776   23.1465 C   0  0  0  0  0  0  0  0  0  0  0  0
  -29.6786  -25.0473   20.6662 C   0  0  0  0  0  0  0  0  0  0  0  0
  -27.4810  -24.8042   19.6921 C   0  0  0  0  0  0  0  0  0  0  0  0
  -23.6313  -21.9586   23.5692 C   0  0  0  0  0  0  0  0  0  0  0  0
  -26.8898  -27.6465   21.4220 C   0  0  0  0  0  0  0  0  0  0  0  0
  -25.7154  -28.3311   21.7346 C   0  0  0  0  0  0  0  0  0  0  0  0
  -21.1858  -14.6531   22.8231 C   0  0  0  0  0  0  0  0  0  0  0  0
  -22.6163  -20.8681   21.6718 C   0  0  0  0  0  0  0  0  0  0  0  0
  -25.4780  -28.9806   19.4197 C   0  0  0  0  0  0  0  0  0  0  0  0
  -28.6360  -22.8701   20.5651 C   0  0  0  0  0  0  0  0  0  0  0  0
  -28.2320  -20.7948   21.9925 C   0  0  0  0  0  0  0  0  0  0  0  0
  -17.8758  -28.6550   21.6491 C   0  0  0  0  0  0  0  0  0  0  0  0
  -22.8700  -23.2755   21.6768 C   0  0  0  0  0  0  0  0  0  0  0  0
  -18.4779  -27.4761   22.1287 C   0  0  0  0  0  0  0  0  0  0  0  0
  -22.4510  -22.1046   21.0291 C   0  0  0  0  0  0  0  0  0  0  0  0
  -23.4134  -15.3777   22.2778 C   0  0  0  0  0  0  0  0  0  0  0  0
  -28.5610  -25.6109   20.0505 C   0  0  0  0  0  0  0  0  0  0  0  0
  -23.2017  -20.7962   22.9356 C   0  0  0  0  0  0  0  0  0  0  0  0
  -27.3583  -27.6290   20.1083 C   0  0  0  0  0  0  0  0  0  0  0  0
  -25.0095  -28.9981   20.7334 C   0  0  0  0  0  0  0  0  0  0  0  0
  -26.6524  -28.2960   19.1071 C   0  0  0  0  0  0  0  0  0  0  0  0
  -28.6744  -21.4544   20.8302 C   0  0  0  0  0  0  0  0  0  0  0  0
  -21.1798  -13.9510   21.6286 C   0  0  0  0  0  0  0  0  0  0  0  0
  -23.3078  -14.6430   21.1078 C   0  0  0  0  0  0  0  0  0  0  0  0
  -28.4850  -19.4666   21.7510 C   0  0  0  0  0  0  0  0  0  0  0  0
  -27.6446  -21.3345   23.1839 C   0  0  0  0  0  0  0  0  0  0  0  0
  -20.2532  -24.6620   20.5219 C   0  0  0  0  0  0  0  0  0  0  0  0
  -21.4436  -23.6506   17.6790 C   0  0  0  0  0  0  0  0  0  0  0  0
  -23.4390  -21.4576   15.9890 C   0  0  0  0  0  0  0  0  0  0  0  0
  -28.3791  -15.0287   18.3689 C   0  0  0  0  0  0  0  0  0  0  0  0
  -17.1147  -28.6841   20.3473 C   0  0  0  0  0  0  0  0  0  0  0  0
  -22.7277  -24.6120   21.0017 C   0  0  0  0  0  0  0  0  0  0  0  0
  -21.8192  -22.1371   19.6623 C   0  0  0  0  0  0  0  0  0  0  0  0
  -17.4278  -27.5031   19.4322 C   0  0  0  0  0  0  0  0  0  0  0  0
  -31.1554  -17.2387   18.0779 C   0  0  0  0  0  0  0  0  0  0  0  0
  -17.4009  -26.1964   20.2188 C   0  0  0  0  0  0  0  0  0  0  0  0
  -30.7184  -18.4797   18.8582 C   0  0  0  0  0  0  0  0  0  0  0  0
  -29.9863  -16.6017   17.3300 C   0  0  0  0  0  0  0  0  0  0  0  0
  -28.3751  -17.5312   18.9467 C   0  0  0  0  0  0  0  0  0  0  0  0
  -18.4648  -26.1952   21.3231 C   0  0  1  0  0  0  0  0  0  0  0  0
  -21.6363  -24.6299   19.9358 C   0  0  1  0  0  0  0  0  0  0  0  0
  -29.5086  -18.1763   19.7624 C   0  0  2  0  0  0  0  0  0  0  0  0
  -19.9699  -13.1641   21.2492 C   0  0  0  0  0  0  0  0  0  0  0  0
  -24.1800  -20.8546   13.6685 C   0  0  0  0  0  0  0  0  0  0  0  0
  -18.7494  -22.3124   17.1691 C   0  0  0  0  0  0  0  0  0  0  0  0
  -19.8367  -20.9728   15.3548 C   0  0  0  0  0  0  0  0  0  0  0  0
  -19.7379  -23.4591   15.1786 C   0  0  0  0  0  0  0  0  0  0  0  0
  -26.2742  -22.0226   16.6225 C   0  0  0  0  0  0  0  0  0  0  0  0
  -24.6550  -16.1603   22.6236 C   0  0  0  0  0  0  0  0  0  0  0  0
  -24.4412  -14.6090   20.1358 C   0  0  0  0  0  0  0  0  0  0  0  0
  -24.3792  -17.4217   23.4448 C   0  0  0  0  0  0  0  0  0  0  0  0
  -25.5825  -13.6494   20.5231 C   0  0  0  0  0  0  0  0  0  0  0  0
  -26.7167  -13.5764   19.5029 C   0  0  0  0  0  0  0  0  0  0  0  0
  -23.5375  -18.4533   22.7026 C   0  0  0  0  0  0  0  0  0  1  0  0
  -21.3100  -22.3965   16.8493 C   0  0  1  0  0  0  0  0  0  0  0  0
  -24.4873  -21.6735   14.9125 C   0  0  2  0  0  0  0  0  0  0  0  0
  -19.9186  -22.2844   16.1645 C   0  0  0  0  0  0  0  0  0  0  0  0
  -29.1711  -20.6144   19.9181 N   0  0  0  0  0  0  0  0  0  0  0  0
  -22.2151  -13.9272   20.7596 N   0  0  0  0  0  0  0  0  0  0  0  0
  -29.0423  -19.4135   20.5073 N   0  0  0  0  0  0  0  0  0  0  0  0
  -21.6962  -23.4685   19.0461 N   0  0  0  0  0  0  0  0  0  0  0  0
  -28.8727  -16.3379   18.2444 N   0  0  0  0  0  0  0  0  0  0  0  0
  -28.2831  -18.3507   22.4834 N   0  0  0  0  0  0  0  0  0  0  0  0
  -27.4554  -22.7207   23.2668 N   0  0  0  0  0  0  0  0  0  0  0  0
  -19.7739  -25.9353   20.7634 N   0  0  0  0  0  0  0  0  0  0  0  0
  -22.4347  -22.4000   15.9202 N   0  0  0  0  0  0  0  0  0  0  0  0
  -27.3270  -14.8648   19.2616 N   0  0  0  0  0  0  0  0  0  0  0  0
  -25.8339  -21.2787   15.4142 N   0  3  0  0  0  0  0  0  0  0  0  0
  -27.3130  -20.6106   24.1532 O   0  0  0  0  0  0  0  0  0  0  0  0
  -19.6638  -23.6095   20.7376 O   0  0  0  0  0  0  0  0  0  0  0  0
  -21.3353  -24.7514   17.1329 O   0  0  0  0  0  0  0  0  0  0  0  0
  -23.5025  -20.5422   16.8066 O   0  0  0  0  0  0  0  0  0  0  0  0
  -28.8453  -14.0755   17.7356 O   0  0  0  0  0  0  0  0  0  0  0  0
  -28.5240  -26.9482   19.7995 O   0  0  0  0  0  0  0  0  0  0  0  0
  -23.3572  -19.5900   23.5463 O   0  0  0  0  0  0  0  0  0  1  0  0
  -23.8809  -29.6543   21.0334 F   0  0  0  0  0  0  0  0  0  0  0  0
  -27.0969  -28.2818   17.8430 F   0  0  0  0  0  0  0  0  0  0  0  0
  1  2  1  0  0  0  0
  1  5  2  0  0  0  0
  2  6  2  0  0  0  0
  3  9  2  0  0  0  0
  3 17  1  0  0  0  0
  4 10  1  0  0  0  0
  4 17  2  0  0  0  0
  5 19  1  0  0  0  0
  6 21  1  0  0  0  0
  7 11  2  0  0  0  0
  7 20  1  0  0  0  0
  8 14  2  0  0  0  0
  8 23  1  0  0  0  0
  9 24  1  0  0  0  0
 10 24  2  0  0  0  0
 11 25  1  0  0  0  0
 12 13  2  0  0  0  0
 12 26  1  0  0  0  0
 13 27  1  0  0  0  0
 14 30  1  0  0  0  0
 15 22  1  0  0  0  0
 15 25  2  0  0  0  0
 16 27  2  0  0  0  0
 16 28  1  0  0  0  0
 17 29  1  0  0  0  0
 18 29  1  0  0  0  0
 18 32  2  0  0  0  0
 18 33  1  0  0  0  0
 19 21  2  0  0  0  0
 19 38  1  0  0  0  0
 20 22  2  0  0  0  0
 20 39  1  0  0  0  0
 21 47  1  0  0  0  0
 22 40  1  0  0  0  0
 23 31  2  0  0  0  0
 23 56  1  0  0  0  0
 24 81  1  0  0  0  0
 25 82  1  0  0  0  0
 26 28  2  0  0  0  0
 26 81  1  0  0  0  0
 27 83  1  0  0  0  0
 28 84  1  0  0  0  0
 29 65  2  0  0  0  0
 30 50  1  0  0  0  0
 30 66  2  0  0  0  0
 31 57  1  0  0  0  0
 31 66  1  0  0  0  0
 32 67  1  0  0  0  0
 32 70  1  0  0  0  0
 33 71  1  0  0  0  0
 33 76  2  0  0  0  0
 34 48  1  0  0  0  0
 34 72  1  0  0  0  0
 34 77  2  0  0  0  0
 35 62  1  0  0  0  0
 35 68  1  0  0  0  0
 35 78  2  0  0  0  0
 36 63  1  0  0  0  0
 36 73  1  0  0  0  0
 36 79  2  0  0  0  0
 37 69  1  0  0  0  0
 37 74  1  0  0  0  0
 37 80  2  0  0  0  0
 38 41  1  0  0  0  0
 39 48  1  0  0  0  0
 40 68  1  0  0  0  0
 41 43  1  0  0  0  0
 42 44  1  0  0  0  0
 42 45  1  0  0  0  0
 43 47  1  0  0  0  0
 44 49  1  0  0  0  0
 45 69  1  0  0  0  0
 46 49  1  0  0  0  0
 46 69  1  0  0  0  0
 47 72  1  0  0  0  0
 48 68  1  0  0  0  0
 49 67  1  0  0  0  0
 51 63  1  0  0  0  0
 52 64  1  0  0  0  0
 53 64  1  0  0  0  0
 54 64  1  0  0  0  0
 55 75  1  0  0  0  0
 56 58  1  0  0  0  0
 57 59  1  0  0  0  0
 58 61  1  0  0  0  0
 59 60  1  0  0  0  0
 60 74  1  0  0  0  0
 61 82  1  0  0  0  0
 62 64  1  0  0  0  0
 62 73  1  0  0  0  0
 63 75  1  0  0  0  0
 65 67  1  0  0  0  0
M  CHG  1  75   1
M  ISO  4  37 100  61 101  74 100  82 101
M  END
> <Batch ID>
0083

> <Smiles>
CNC(C)C(=O)NC(C(=O)N1Cc2cc([101O:1][101CH2:1]CCc3ccc(C)nc3CCC[100NH:0][100C:0](=O)N3CCCC(n4nc(-c5ccc(Oc6ccc(F)cc6F)cc5)c(C(N)=O)c4N)C3)ccc2CC1C(=O)NC1CCCc2ccccc21)C(C)(C)C

> <Shape>
0.184

> <Color>
0.074

> <Negative vol penalty>
0.000

$$$$

  -OEChem-04052318513D

 81 89  0     1  0  0  0  0  0999 V2000
  -18.7938  -33.0300   19.7255 C   0  0  0  0  0  0  0  0  0  0  0  0
  -19.9423  -32.3425   19.3463 C   0  0  0  0  0  0  0  0  0  0  0  0
  -27.1748  -13.7504   21.9955 C   0  0  0  0  0  0  0  0  0  0  0  0
  -26.5916  -14.1061   19.6781 C   0  0  0  0  0  0  0  0  0  0  0  0
  -18.4226  -33.0773   21.0685 C   0  0  0  0  0  0  0  0  0  0  0  0
  -20.7209  -31.7029   20.3102 C   0  0  0  0  0  0  0  0  0  0  0  0
  -22.1313  -27.0500   18.8938 C   0  0  0  0  0  0  0  0  0  0  0  0
  -26.3040  -12.6621   22.0476 C   0  0  0  0  0  0  0  0  0  0  0  0
  -25.7208  -13.0177   19.7302 C   0  0  0  0  0  0  0  0  0  0  0  0
  -23.1863  -26.9527   17.9875 C   0  0  0  0  0  0  0  0  0  0  0  0
  -23.0746  -10.5548   19.3533 C   0  0  0  0  0  0  0  0  0  0  0  0
  -21.8110  -10.7077   18.7829 C   0  0  0  0  0  0  0  0  0  0  0  0
  -24.6933  -26.4555   19.8043 C   0  0  0  0  0  0  0  0  0  0  0  0
  -30.3919  -25.5843   16.8674 C   0  0  0  0  0  0  0  0  0  0  0  0
  -21.3425  -12.5228   20.3070 C   0  0  0  0  0  0  0  0  0  0  0  0
  -27.3185  -14.4725   20.8108 C   0  0  0  0  0  0  0  0  0  0  0  0
  -29.5818  -15.5791   20.4102 C   0  0  0  0  0  0  0  0  0  0  0  0
  -19.1917  -32.4298   22.0482 C   0  0  0  0  0  0  0  0  0  0  0  0
  -22.3518  -26.8612   20.2657 C   0  0  0  0  0  0  0  0  0  0  0  0
  -20.3603  -31.7428   21.6678 C   0  0  0  0  0  0  0  0  0  0  0  0
  -23.6390  -26.5484   20.7257 C   0  0  0  0  0  0  0  0  0  0  0  0
  -29.5156  -24.7667   17.5592 C   0  0  0  0  0  0  0  0  0  0  0  0
  -25.5770  -12.2956   20.9150 C   0  0  0  0  0  0  0  0  0  0  0  0
  -24.4680  -26.6582   18.4430 C   0  0  0  0  0  0  0  0  0  0  0  0
  -23.4722  -11.3860   20.4007 C   0  0  0  0  0  0  0  0  0  0  0  0
  -20.9449  -11.6916   19.2597 C   0  0  0  0  0  0  0  0  0  0  0  0
  -22.6062  -12.3699   20.8775 C   0  0  0  0  0  0  0  0  0  0  0  0
  -28.2175  -15.5973   20.7565 C   0  0  0  0  0  0  0  0  0  0  0  0
  -31.4616  -26.1163   17.5589 C   0  0  0  0  0  0  0  0  0  0  0  0
  -29.7673  -24.5349   18.8966 C   0  0  0  0  0  0  0  0  0  0  0  0
  -29.9790  -16.8901   20.5105 C   0  0  0  0  0  0  0  0  0  0  0  0
  -30.4156  -14.4759   20.0315 C   0  0  0  0  0  0  0  0  0  0  0  0
  -22.0372  -28.6730   22.8584 C   0  0  0  0  0  0  0  0  0  0  0  0
  -29.0803  -22.2042   19.4009 C   0  0  0  0  0  0  0  0  0  0  0  0
  -22.7801  -25.9166   24.3988 C   0  0  0  0  0  0  0  0  0  0  0  0
  -24.2691  -22.8478   24.2903 C   0  0  0  0  0  0  0  0  0  0  0  0
  -18.7762  -32.5487   23.4932 C   0  0  0  0  0  0  0  0  0  0  0  0
  -21.1983  -26.9432   21.2275 C   0  0  0  0  0  0  0  0  0  0  0  0
  -23.9246  -26.3167   22.1863 C   0  0  0  0  0  0  0  0  0  0  0  0
  -19.4514  -31.5292   24.4070 C   0  0  0  0  0  0  0  0  0  0  0  0
  -27.6371  -20.9090   22.4777 C   0  0  0  0  0  0  0  0  0  0  0  0
  -20.9486  -31.4660   24.1220 C   0  0  0  0  0  0  0  0  0  0  0  0
  -27.7475  -19.4011   22.2560 C   0  0  0  0  0  0  0  0  0  0  0  0
  -27.3460  -21.6481   21.1742 C   0  0  0  0  0  0  0  0  0  0  0  0
  -28.4448  -19.8585   19.8649 C   0  0  0  0  0  0  0  0  0  0  0  0
  -21.2174  -31.0155   22.6810 C   0  0  1  0  0  0  0  0  0  0  0  0
  -21.6339  -27.2394   22.6592 C   0  0  1  0  0  0  0  0  0  0  0  0
  -28.7682  -19.0791   21.1506 C   0  0  2  0  0  0  0  0  0  0  0  0
  -32.4343  -27.0035   16.8604 C   0  0  0  0  0  0  0  0  0  0  0  0
  -24.7465  -20.8384   25.7157 C   0  0  0  0  0  0  0  0  0  0  0  0
  -24.9964  -27.4563   25.8226 C   0  0  0  0  0  0  0  0  0  0  0  0
  -26.0076  -25.2606   26.4741 C   0  0  0  0  0  0  0  0  0  0  0  0
  -23.7266  -25.8692   27.2798 C   0  0  0  0  0  0  0  0  0  0  0  0
  -22.7193  -21.0681   22.5042 C   0  0  0  0  0  0  0  0  0  0  0  0
  -28.3309  -24.1594   16.8512 C   0  0  0  0  0  0  0  0  0  0  0  0
  -28.8660  -23.6652   19.7063 C   0  0  0  0  0  0  0  0  0  0  0  0
  -27.1855  -25.1451   16.6105 C   0  0  0  0  0  0  0  0  0  0  0  0
  -26.5628  -25.6731   17.8977 C   0  0  0  0  0  0  0  0  0  1  0  0
  -24.0601  -25.2556   24.8499 C   0  0  1  0  0  0  0  0  0  0  0  0
  -23.7842  -21.4769   24.7263 C   0  0  2  0  0  0  0  0  0  0  0  0
  -24.6930  -25.9667   26.0792 C   0  0  0  0  0  0  0  0  0  0  0  0
  -27.7774  -16.8226   21.0548 N   0  0  0  0  0  0  0  0  0  0  0  0
  -31.6834  -25.8725   18.8679 N   0  0  0  0  0  0  0  0  0  0  0  0
  -30.8224  -25.0686   19.5477 N   0  0  0  0  0  0  0  0  0  0  0  0
  -28.8716  -17.5866   20.8962 N   0  0  0  0  0  0  0  0  0  0  0  0
  -22.7649  -26.4141   23.0880 N   0  0  0  0  0  0  0  0  0  0  0  0
  -28.3240  -21.2933   20.1388 N   0  0  0  0  0  0  0  0  0  0  0  0
  -31.1640  -17.5035   20.3057 N   0  0  0  0  0  0  0  0  0  0  0  0
  -29.8470  -13.1960   19.9789 N   0  0  0  0  0  0  0  0  0  0  0  0
  -21.0427  -29.5842   22.5580 N   0  0  0  0  0  0  0  0  0  0  0  0
  -23.7372  -23.8505   25.0732 N   0  0  0  0  0  0  0  0  0  0  0  0
  -23.6545  -20.5743   23.5476 N   0  3  0  0  0  0  0  0  0  0  0  0
  -31.6329  -14.6184   19.7640 O   0  0  0  0  0  0  0  0  0  0  0  0
  -23.1665  -28.9332   23.2567 O   0  0  0  0  0  0  0  0  0  0  0  0
  -29.8978  -21.8840   18.5342 O   0  0  0  0  0  0  0  0  0  0  0  0
  -21.8262  -25.9826   25.1782 O   0  0  0  0  0  0  0  0  0  0  0  0
  -25.0452  -23.0123   23.3516 O   0  0  0  0  0  0  0  0  0  0  0  0
  -24.7274  -11.2335   20.9654 O   0  0  0  0  0  0  0  0  0  0  0  0
  -25.4996  -26.5633   17.5606 O   0  0  0  0  0  0  0  0  0  1  0  0
  -19.7320  -11.8393   18.7108 F   0  0  0  0  0  0  0  0  0  0  0  0
  -22.9830  -13.1721   21.8826 F   0  0  0  0  0  0  0  0  0  0  0  0
  1  2  1  0  0  0  0
  1  5  2  0  0  0  0
  2  6  2  0  0  0  0
  3  8  2  0  0  0  0
  3 16  1  0  0  0  0
  4  9  1  0  0  0  0
  4 16  2  0  0  0  0
  5 18  1  0  0  0  0
  6 20  1  0  0  0  0
  7 10  2  0  0  0  0
  7 19  1  0  0  0  0
  8 23  1  0  0  0  0
  9 23  2  0  0  0  0
 10 24  1  0  0  0  0
 11 12  2  0  0  0  0
 11 25  1  0  0  0  0
 12 26  1  0  0  0  0
 13 21  1  0  0  0  0
 13 24  2  0  0  0  0
 14 22  1  0  0  0  0
 14 29  2  0  0  0  0
 15 26  2  0  0  0  0
 15 27  1  0  0  0  0
 16 28  1  0  0  0  0
 17 28  1  0  0  0  0
 17 31  2  0  0  0  0
 17 32  1  0  0  0  0
 18 20  2  0  0  0  0
 18 37  1  0  0  0  0
 19 21  2  0  0  0  0
 19 38  1  0  0  0  0
 20 46  1  0  0  0  0
 21 39  1  0  0  0  0
 22 30  2  0  0  0  0
 22 55  1  0  0  0  0
 23 78  1  0  0  0  0
 24 79  1  0  0  0  0
 25 27  2  0  0  0  0
 25 78  1  0  0  0  0
 26 80  1  0  0  0  0
 27 81  1  0  0  0  0
 28 62  2  0  0  0  0
 29 49  1  0  0  0  0
 29 63  1  0  0  0  0
 30 56  1  0  0  0  0
 30 64  1  0  0  0  0
 31 65  1  0  0  0  0
 31 68  1  0  0  0  0
 32 69  1  0  0  0  0
 32 73  2  0  0  0  0
 33 47  1  0  0  0  0
 33 70  1  0  0  0  0
 33 74  2  0  0  0  0
 34 56  1  0  0  0  0
 34 67  1  0  0  0  0
 34 75  2  0  0  0  0
 35 59  1  0  0  0  0
 35 66  1  0  0  0  0
 35 76  2  0  0  0  0
 36 60  1  0  0  0  0
 36 71  1  0  0  0  0
 36 77  2  0  0  0  0
 37 40  1  0  0  0  0
 38 47  1  0  0  0  0
 39 66  1  0  0  0  0
 40 42  1  0  0  0  0
 41 43  1  0  0  0  0
 41 44  1  0  0  0  0
 42 46  1  0  0  0  0
 43 48  1  0  0  0  0
 44 67  1  0  0  0  0
 45 48  1  0  0  0  0
 45 67  1  0  0  0  0
 46 70  1  0  0  0  0
 47 66  1  0  0  0  0
 48 65  1  0  0  0  0
 50 60  1  0  0  0  0
 51 61  1  0  0  0  0
 52 61  1  0  0  0  0
 53 61  1  0  0  0  0
 54 72  1  0  0  0  0
 55 57  1  0  0  0  0
 57 58  1  0  0  0  0
 58 79  1  0  0  0  0
 59 61  1  0  0  0  0
 59 71  1  0  0  0  0
 60 72  1  0  0  0  0
 62 65  1  0  0  0  0
 63 64  2  0  0  0  0
M  CHG  1  72   1
M  ISO  4  34 100  56 100  58 101  79 101
M  END
> <Batch ID>
0083

> <Smiles>
CNC(C)C(=O)NC(C(=O)N1Cc2cc([101O:1][101CH2:1]CCc3cc(C)nnc3[100CH2:0][100C:0](=O)N3CCCC(n4nc(-c5ccc(Oc6ccc(F)cc6F)cc5)c(C(N)=O)c4N)C3)ccc2CC1C(=O)NC1CCCc2ccccc21)C(C)(C)C

> <Shape>
0.213

> <Color>
0.092

> <Negative vol penalty>
0.000

$$$$

  -OEChem-04052318513D

 93101  0     1  0  0  0  0  0999 V2000
  -27.5587  -36.8581   19.9989 C   0  0  0  0  0  0  0  0  0  0  0  0
  -27.8897  -35.6700   20.6426 C   0  0  0  0  0  0  0  0  0  0  0  0
  -24.5986   -8.6330   21.5774 C   0  0  0  0  0  0  0  0  0  0  0  0
  -23.1482  -10.0729   20.2890 C   0  0  0  0  0  0  0  0  0  0  0  0
  -26.2623  -37.3626   20.0926 C   0  0  0  0  0  0  0  0  0  0  0  0
  -26.9247  -34.9863   21.3813 C   0  0  0  0  0  0  0  0  0  0  0  0
  -26.9614  -30.0025   20.4837 C   0  0  0  0  0  0  0  0  0  0  0  0
  -23.5353   -8.3191   22.4237 C   0  0  0  0  0  0  0  0  0  0  0  0
  -22.0848   -9.7590   21.1353 C   0  0  0  0  0  0  0  0  0  0  0  0
  -27.9584  -29.2511   21.1042 C   0  0  0  0  0  0  0  0  0  0  0  0
  -21.1147   -6.8577   24.7086 C   0  0  0  0  0  0  0  0  0  0  0  0
  -20.9345   -5.5185   25.0543 C   0  0  0  0  0  0  0  0  0  0  0  0
  -26.3793  -28.5611   22.7923 C   0  0  0  0  0  0  0  0  0  0  0  0
  -28.5674  -23.1189   21.4348 C   0  0  0  0  0  0  0  0  0  0  0  0
  -26.6766  -23.2741   19.9566 C   0  0  0  0  0  0  0  0  0  0  0  0
  -20.6461   -4.9555   22.7225 C   0  0  0  0  0  0  0  0  0  0  0  0
  -24.4051   -9.5099   20.5100 C   0  0  0  0  0  0  0  0  0  0  0  0
  -25.8806   -9.1618   18.4584 C   0  0  0  0  0  0  0  0  0  0  0  0
  -25.2784  -36.6797   20.8249 C   0  0  0  0  0  0  0  0  0  0  0  0
  -25.6664  -30.0476   21.0198 C   0  0  0  0  0  0  0  0  0  0  0  0
  -25.6142  -35.4828   21.4860 C   0  0  0  0  0  0  0  0  0  0  0  0
  -25.3670  -29.3117   22.1752 C   0  0  0  0  0  0  0  0  0  0  0  0
  -27.5493  -22.5026   20.7158 C   0  0  0  0  0  0  0  0  0  0  0  0
  -22.2783   -8.8820   22.2027 C   0  0  0  0  0  0  0  0  0  0  0  0
  -27.6682  -28.5326   22.2603 C   0  0  0  0  0  0  0  0  0  0  0  0
  -21.0605   -7.2459   23.3699 C   0  0  0  0  0  0  0  0  0  0  0  0
  -20.7002   -4.5673   24.0612 C   0  0  0  0  0  0  0  0  0  0  0  0
  -20.8263   -6.2948   22.3769 C   0  0  0  0  0  0  0  0  0  0  0  0
  -25.5033   -9.8350   19.6358 C   0  0  0  0  0  0  0  0  0  0  0  0
  -28.6693  -24.4988   21.3619 C   0  0  0  0  0  0  0  0  0  0  0  0
  -26.8630  -24.6471   19.9500 C   0  0  0  0  0  0  0  0  0  0  0  0
  -26.9742   -9.8559   18.0014 C   0  0  0  0  0  0  0  0  0  0  0  0
  -25.2949   -8.0120   17.8335 C   0  0  0  0  0  0  0  0  0  0  0  0
  -23.8010  -32.3408   22.1880 C   0  0  0  0  0  0  0  0  0  0  0  0
  -21.5994  -29.9606   22.2886 C   0  0  0  0  0  0  0  0  0  0  0  0
  -20.9578  -26.6120   22.4359 C   0  0  0  0  0  0  0  0  0  0  0  0
  -28.5095  -15.6062   19.2246 C   0  0  0  0  0  0  0  0  0  0  0  0
  -23.9031  -37.2887   20.9366 C   0  0  0  0  0  0  0  0  0  0  0  0
  -24.5953  -30.8415   20.3234 C   0  0  0  0  0  0  0  0  0  0  0  0
  -23.9874  -29.3107   22.7793 C   0  0  0  0  0  0  0  0  0  0  0  0
  -22.8413  -36.3088   21.4293 C   0  0  0  0  0  0  0  0  0  0  0  0
  -30.6244  -12.5347   19.5170 C   0  0  0  0  0  0  0  0  0  0  0  0
  -23.3523  -35.5312   22.6380 C   0  0  0  0  0  0  0  0  0  0  0  0
  -29.5536  -11.4452   19.5467 C   0  0  0  0  0  0  0  0  0  0  0  0
  -30.0965  -13.8432   20.0929 C   0  0  0  0  0  0  0  0  0  0  0  0
  -27.7813  -13.2575   19.4496 C   0  0  0  0  0  0  0  0  0  0  0  0
  -24.5887  -34.6993   22.2763 C   0  0  1  0  0  0  0  0  0  0  0  0
  -23.4426  -31.2270   21.2453 C   0  0  1  0  0  0  0  0  0  0  0  0
  -28.2637  -11.9226   18.8581 C   0  0  2  0  0  0  0  0  0  0  0  0
  -33.1565  -15.7376   20.0032 C   0  0  0  0  0  0  0  0  0  0  0  0
  -19.0609  -24.9725   22.5436 C   0  0  0  0  0  0  0  0  0  0  0  0
  -27.4643  -20.3232   18.3142 C   0  0  0  0  0  0  0  0  0  0  0  0
  -27.6868  -26.5867   17.6841 C   0  0  0  0  0  0  0  0  0  0  0  0
  -26.6088  -24.4807   16.8930 C   0  0  0  0  0  0  0  0  0  0  0  0
  -25.3094  -26.6247   16.9289 C   0  0  0  0  0  0  0  0  0  0  0  0
  -21.1808  -30.6421   25.2331 C   0  0  0  0  0  0  0  0  0  0  0  0
  -20.0358  -28.4328   25.5097 C   0  0  0  0  0  0  0  0  0  0  0  0
  -19.0811  -30.1461   23.9683 C   0  0  0  0  0  0  0  0  0  0  0  0
  -21.7527  -25.3475   19.8809 C   0  0  0  0  0  0  0  0  0  0  0  0
  -27.3948  -21.0200   20.7579 C   0  0  0  0  0  0  0  0  0  0  0  0
  -29.7621  -25.2015   22.1272 C   0  0  0  0  0  0  0  0  0  0  0  0
  -25.9437  -25.5059   19.1476 C   0  0  0  0  0  0  0  0  0  0  0  0
  -31.8390  -16.0882   19.3259 C   0  0  0  0  0  0  0  0  0  0  0  0
  -29.3561  -25.6111   23.5445 C   0  0  0  0  0  0  0  0  0  0  0  0
  -28.4040  -18.7880   20.1157 C   0  0  0  0  0  0  0  0  0  0  0  0
  -30.6947  -16.2618   20.3174 C   0  0  0  0  0  0  0  0  0  0  0  0
  -29.2850  -17.9465   19.1945 C   0  0  0  0  0  0  0  0  0  0  0  0
  -28.2246  -26.6319   23.5772 C   0  0  0  0  0  0  0  0  0  1  0  0
  -21.1926  -28.9230   23.3068 C   0  0  1  0  0  0  0  0  0  0  0  0
  -20.0164  -25.7305   21.6351 C   0  0  2  0  0  0  0  0  0  0  0  0
  -28.1875  -20.2511   19.6641 C   0  0  1  0  0  0  0  0  0  0  0  0
  -26.3668  -25.7871   17.6688 C   0  0  0  0  0  0  0  0  0  0  0  0
  -20.3991  -29.5374   24.4944 C   0  0  0  0  0  0  0  0  0  0  0  0
  -26.2932  -10.8767   19.9098 N   0  0  0  0  0  0  0  0  0  0  0  0
  -27.8404  -25.2816   20.6355 N   0  0  0  0  0  0  0  0  0  0  0  0
  -27.1777  -10.8632   18.8981 N   0  0  0  0  0  0  0  0  0  0  0  0
  -22.9758  -30.1072   22.0653 N   0  0  0  0  0  0  0  0  0  0  0  0
  -28.8493  -14.2601   19.4382 N   0  0  0  0  0  0  0  0  0  0  0  0
  -27.7719   -9.6968   16.9241 N   0  0  0  0  0  0  0  0  0  0  0  0
  -24.1753   -7.4219   18.4358 N   0  0  0  0  0  0  0  0  0  0  0  0
  -24.2013  -33.5039   21.5584 N   0  0  0  0  0  0  0  0  0  0  0  0
  -20.4662  -27.8930   22.5721 N   0  0  0  0  0  0  0  0  0  0  0  0
  -29.4292  -16.5735   19.6570 N   0  0  0  0  0  0  0  0  0  0  0  0
  -20.7898  -24.7394   20.8349 N   0  3  0  0  0  0  0  0  0  0  0  0
  -25.7607   -7.5124   16.7814 O   0  0  0  0  0  0  0  0  0  0  0  0
  -23.7189  -32.1590   23.3971 O   0  0  0  0  0  0  0  0  0  0  0  0
  -20.7279  -30.6119   21.7074 O   0  0  0  0  0  0  0  0  0  0  0  0
  -22.0211  -26.2038   22.8979 O   0  0  0  0  0  0  0  0  0  0  0  0
  -27.4500  -15.9245   18.6694 O   0  0  0  0  0  0  0  0  0  0  0  0
  -21.2404   -8.5758   23.0282 O   0  0  0  0  0  0  0  0  0  0  0  0
  -28.6397  -27.7989   22.8684 O   0  0  0  0  0  0  0  0  0  1  0  0
  -20.5287   -3.2810   24.3932 F   0  0  0  0  0  0  0  0  0  0  0  0
  -20.7743   -6.6615   21.0890 F   0  0  0  0  0  0  0  0  0  0  0  0
  1  2  1  0  0  0  0
  1  5  2  0  0  0  0
  2  6  2  0  0  0  0
  3  8  2  0  0  0  0
  3 17  1  0  0  0  0
  4  9  1  0  0  0  0
  4 17  2  0  0  0  0
  5 19  1  0  0  0  0
  6 21  1  0  0  0  0
  7 10  2  0  0  0  0
  7 20  1  0  0  0  0
  8 24  1  0  0  0  0
  9 24  2  0  0  0  0
 10 25  1  0  0  0  0
 11 12  2  0  0  0  0
 11 26  1  0  0  0  0
 12 27  1  0  0  0  0
 13 22  1  0  0  0  0
 13 25  2  0  0  0  0
 14 23  1  0  0  0  0
 14 30  2  0  0  0  0
 15 23  2  0  0  0  0
 15 31  1  0  0  0  0
 16 27  2  0  0  0  0
 16 28  1  0  0  0  0
 17 29  1  0  0  0  0
 18 29  1  0  0  0  0
 18 32  2  0  0  0  0
 18 33  1  0  0  0  0
 19 21  2  0  0  0  0
 19 38  1  0  0  0  0
 20 22  2  0  0  0  0
 20 39  1  0  0  0  0
 21 47  1  0  0  0  0
 22 40  1  0  0  0  0
 23 60  1  0  0  0  0
 24 90  1  0  0  0  0
 25 91  1  0  0  0  0
 26 28  2  0  0  0  0
 26 90  1  0  0  0  0
 27 92  1  0  0  0  0
 28 93  1  0  0  0  0
 29 74  2  0  0  0  0
 30 61  1  0  0  0  0
 30 75  1  0  0  0  0
 31 62  1  0  0  0  0
 31 75  2  0  0  0  0
 32 76  1  0  0  0  0
 32 79  1  0  0  0  0
 33 80  1  0  0  0  0
 33 85  2  0  0  0  0
 34 48  1  0  0  0  0
 34 81  1  0  0  0  0
 34 86  2  0  0  0  0
 35 69  1  0  0  0  0
 35 77  1  0  0  0  0
 35 87  2  0  0  0  0
 36 70  1  0  0  0  0
 36 82  1  0  0  0  0
 36 88  2  0  0  0  0
 37 78  1  0  0  0  0
 37 83  1  0  0  0  0
 37 89  2  0  0  0  0
 38 41  1  0  0  0  0
 39 48  1  0  0  0  0
 40 77  1  0  0  0  0
 41 43  1  0  0  0  0
 42 44  1  0  0  0  0
 42 45  1  0  0  0  0
 43 47  1  0  0  0  0
 44 49  1  0  0  0  0
 45 78  1  0  0  0  0
 46 49  1  0  0  0  0
 46 78  1  0  0  0  0
 47 81  1  0  0  0  0
 48 77  1  0  0  0  0
 49 76  1  0  0  0  0
 50 63  1  0  0  0  0
 51 70  1  0  0  0  0
 52 71  1  0  0  0  0
 53 72  1  0  0  0  0
 54 72  1  0  0  0  0
 55 72  1  0  0  0  0
 56 73  1  0  0  0  0
 57 73  1  0  0  0  0
 58 73  1  0  0  0  0
 59 84  1  0  0  0  0
 60 71  1  0  0  0  0
 61 64  1  0  0  0  0
 62 72  1  0  0  0  0
 63 66  1  0  0  0  0
 64 68  1  0  0  0  0
 65 67  1  0  0  0  0
 65 71  1  0  0  0  0
 66 83  1  0  0  0  0
 67 83  1  0  0  0  0
 68 91  1  0  0  0  0
 69 73  1  0  0  0  0
 69 82  1  0  0  0  0
 70 84  1  0  0  0  0
 74 76  1  0  0  0  0
M  CHG  1  84   1
M  ISO  4  37 100  68 101  83 100  91 101
M  END
> <Batch ID>
0083

> <Smiles>
CCC[100N:0](CCC(C)Cc1cc(CC[101CH2:1][101O:1]c2ccc3c(c2)CN(C(=O)C(NC(=O)C(C)NC)C(C)(C)C)C(C(=O)NC2CCCc4ccccc42)C3)nc(CC(C)(C)C)c1)[100C:0](=O)N1CCCC(n2nc(-c3ccc(Oc4ccc(F)cc4F)cc3)c(C(N)=O)c2N)C1

> <Shape>
0.292

> <Color>
0.078

> <Negative vol penalty>
0.000

$$$$

  -OEChem-04052318513D

 87 95  0     1  0  0  0  0  0999 V2000
  -29.9471  -24.1446   25.3562 C   0  0  0  0  0  0  0  0  0  0  0  0
  -28.8118  -24.0311   24.5602 C   0  0  0  0  0  0  0  0  0  0  0  0
  -30.7671  -26.7255   18.0446 C   0  0  0  0  0  0  0  0  0  0  0  0
  -31.4639  -25.9358   20.2190 C   0  0  0  0  0  0  0  0  0  0  0  0
  -30.9849  -23.2230   25.2238 C   0  0  0  0  0  0  0  0  0  0  0  0
  -28.7141  -22.9965   23.6305 C   0  0  0  0  0  0  0  0  0  0  0  0
  -24.1765  -20.7490   23.6948 C   0  0  0  0  0  0  0  0  0  0  0  0
  -32.0824  -27.0885   17.7549 C   0  0  0  0  0  0  0  0  0  0  0  0
  -32.7792  -26.2987   19.9293 C   0  0  0  0  0  0  0  0  0  0  0  0
  -23.1287  -21.4115   23.0568 C   0  0  0  0  0  0  0  0  0  0  0  0
  -35.3169  -27.8918   16.3032 C   0  0  0  0  0  0  0  0  0  0  0  0
  -35.8213  -27.5540   15.0474 C   0  0  0  0  0  0  0  0  0  0  0  0
  -23.4002  -19.9782   21.1356 C   0  0  0  0  0  0  0  0  0  0  0  0
  -18.7670  -27.9478   21.3125 C   0  0  0  0  0  0  0  0  0  0  0  0
  -35.4381  -25.2163   15.5223 C   0  0  0  0  0  0  0  0  0  0  0  0
  -30.4579  -26.1492   19.2767 C   0  0  0  0  0  0  0  0  0  0  0  0
  -28.4839  -24.5341   19.3237 C   0  0  0  0  0  0  0  0  0  0  0  0
  -30.8957  -22.1709   24.2988 C   0  0  0  0  0  0  0  0  0  0  0  0
  -24.8523  -19.7015   23.0525 C   0  0  0  0  0  0  0  0  0  0  0  0
  -29.7522  -22.0607   23.4847 C   0  0  0  0  0  0  0  0  0  0  0  0
  -24.4546  -19.3023   21.7686 C   0  0  0  0  0  0  0  0  0  0  0  0
  -18.7191  -29.1921   21.9310 C   0  0  0  0  0  0  0  0  0  0  0  0
  -19.3269  -26.8657   21.9825 C   0  0  0  0  0  0  0  0  0  0  0  0
  -33.0884  -26.8751   18.6972 C   0  0  0  0  0  0  0  0  0  0  0  0
  -22.7423  -21.0281   21.7759 C   0  0  0  0  0  0  0  0  0  0  0  0
  -34.8732  -26.8918   17.1687 C   0  0  0  0  0  0  0  0  0  0  0  0
  -35.8819  -26.2162   14.6569 C   0  0  0  0  0  0  0  0  0  0  0  0
  -34.9338  -25.5541   16.7782 C   0  0  0  0  0  0  0  0  0  0  0  0
  -29.0993  -25.7746   19.5768 C   0  0  0  0  0  0  0  0  0  0  0  0
  -19.2405  -29.3011   23.2101 C   0  0  0  0  0  0  0  0  0  0  0  0
  -19.8212  -27.0788   23.2593 C   0  0  0  0  0  0  0  0  0  0  0  0
  -27.2011  -24.6855   19.7907 C   0  0  0  0  0  0  0  0  0  0  0  0
  -29.0235  -23.3506   18.7204 C   0  0  0  0  0  0  0  0  0  0  0  0
  -27.8467  -19.2112   22.1054 C   0  0  0  0  0  0  0  0  0  0  0  0
  -26.7278  -16.2481   21.4052 C   0  0  0  0  0  0  0  0  0  0  0  0
  -24.0562  -14.2641   20.6481 C   0  0  0  0  0  0  0  0  0  0  0  0
  -23.7185  -26.2995   23.6911 C   0  0  0  0  0  0  0  0  0  0  0  0
  -32.0634  -21.2267   24.1584 C   0  0  0  0  0  0  0  0  0  0  0  0
  -25.9629  -18.9794   23.7649 C   0  0  0  0  0  0  0  0  0  0  0  0
  -25.1344  -18.1705   21.0438 C   0  0  0  0  0  0  0  0  0  0  0  0
  -31.7200  -19.9400   23.4122 C   0  0  0  0  0  0  0  0  0  0  0  0
  -24.7093  -28.8234   21.2940 C   0  0  0  0  0  0  0  0  0  0  0  0
  -30.9284  -20.2521   22.1462 C   0  0  0  0  0  0  0  0  0  0  0  0
  -25.8971  -28.1438   20.6103 C   0  0  0  0  0  0  0  0  0  0  0  0
  -24.6735  -28.5043   22.7857 C   0  0  0  0  0  0  0  0  0  0  0  0
  -25.8462  -26.3675   22.4219 C   0  0  0  0  0  0  0  0  0  0  0  0
  -29.5984  -20.9376   22.4821 C   0  0  1  0  0  0  0  0  0  0  0  0
  -26.9182  -18.2655   22.8134 C   0  0  1  0  0  0  0  0  0  0  0  0
  -25.9254  -26.6328   20.9075 C   0  0  2  0  0  0  0  0  0  0  0  0
  -19.2177  -30.6131   23.9237 C   0  0  0  0  0  0  0  0  0  0  0  0
  -16.7161  -30.6853   21.7197 C   0  0  0  0  0  0  0  0  0  0  0  0
  -23.4599  -11.8909   20.0919 C   0  0  0  0  0  0  0  0  0  0  0  0
  -20.5622  -26.0161   19.1643 C   0  0  0  0  0  0  0  0  0  0  0  0
  -27.8311  -16.6340   18.5867 C   0  0  0  0  0  0  0  0  0  0  0  0
  -26.4102  -14.7117   17.8424 C   0  0  0  0  0  0  0  0  0  0  0  0
  -28.1962  -14.3538   19.5468 C   0  0  0  0  0  0  0  0  0  0  0  0
  -22.3080  -14.0243   23.0241 C   0  0  0  0  0  0  0  0  0  0  0  0
  -18.1205  -30.3554   21.2186 C   0  0  0  0  0  0  0  0  0  0  0  0
  -19.3822  -25.5119   21.3165 C   0  0  0  0  0  0  0  0  0  0  0  0
  -20.4325  -25.9521   24.0262 C   0  0  0  0  0  0  0  0  0  0  0  0
  -20.9097  -23.7556   20.2771 C   0  0  0  0  0  0  0  0  0  0  0  0
  -21.5790  -26.3882   24.9448 C   0  0  0  0  0  0  0  0  0  0  0  0
  -21.5208  -23.0473   21.4812 C   0  0  0  0  0  0  0  0  0  1  0  0
  -26.0957  -15.6022   20.1960 C   0  0  1  0  0  0  0  0  0  0  0  0
  -23.6099  -12.9220   21.1995 C   0  0  2  0  0  0  0  0  0  0  0  0
  -20.6681  -25.2628   20.4953 C   0  0  1  0  0  0  0  0  0  0  0  0
  -27.1216  -15.3481   19.0556 C   0  0  0  0  0  0  0  0  0  0  0  0
  -28.2753  -26.6497   20.1592 N   0  0  0  0  0  0  0  0  0  0  0  0
  -19.7923  -28.2728   23.8926 N   0  0  0  0  0  0  0  0  0  0  0  0
  -27.1289  -25.9581   20.2759 N   0  0  0  0  0  0  0  0  0  0  0  0
  -26.2189  -17.4997   21.7796 N   0  0  0  0  0  0  0  0  0  0  0  0
  -24.6836  -27.0502   22.9994 N   0  0  0  0  0  0  0  0  0  0  0  0
  -26.1392  -23.8529   19.8294 N   0  0  0  0  0  0  0  0  0  0  0  0
  -30.3595  -23.3661   18.2971 N   0  0  0  0  0  0  0  0  0  0  0  0
  -28.6342  -19.9666   22.9532 N   0  0  0  0  0  0  0  0  0  0  0  0
  -25.4282  -14.3980   20.6785 N   0  0  0  0  0  0  0  0  0  0  0  0
  -22.6530  -27.0225   24.2132 N   0  0  0  0  0  0  0  0  0  0  0  0
  -22.2992  -13.0581   21.8957 N   0  3  0  0  0  0  0  0  0  0  0  0
  -28.3364  -22.3156   18.5466 O   0  0  0  0  0  0  0  0  0  0  0  0
  -27.8495  -19.2515   20.8807 O   0  0  0  0  0  0  0  0  0  0  0  0
  -27.6347  -15.6604   22.0000 O   0  0  0  0  0  0  0  0  0  0  0  0
  -23.2669  -15.1077   20.2287 O   0  0  0  0  0  0  0  0  0  0  0  0
  -23.7977  -25.0740   23.8289 O   0  0  0  0  0  0  0  0  0  0  0  0
  -34.3720  -27.2289   18.4148 O   0  0  0  0  0  0  0  0  0  0  0  0
  -21.7204  -21.6735   21.1506 O   0  0  0  0  0  0  0  0  0  1  0  0
  -36.3648  -25.8921   13.4503 F   0  0  0  0  0  0  0  0  0  0  0  0
  -34.5079  -24.5892   17.6048 F   0  0  0  0  0  0  0  0  0  0  0  0
  1  2  1  0  0  0  0
  1  5  2  0  0  0  0
  2  6  2  0  0  0  0
  3  8  2  0  0  0  0
  3 16  1  0  0  0  0
  4  9  1  0  0  0  0
  4 16  2  0  0  0  0
  5 18  1  0  0  0  0
  6 20  1  0  0  0  0
  7 10  2  0  0  0  0
  7 19  1  0  0  0  0
  8 24  1  0  0  0  0
  9 24  2  0  0  0  0
 10 25  1  0  0  0  0
 11 12  2  0  0  0  0
 11 26  1  0  0  0  0
 12 27  1  0  0  0  0
 13 21  1  0  0  0  0
 13 25  2  0  0  0  0
 14 22  1  0  0  0  0
 14 23  2  0  0  0  0
 15 27  2  0  0  0  0
 15 28  1  0  0  0  0
 16 29  1  0  0  0  0
 17 29  1  0  0  0  0
 17 32  2  0  0  0  0
 17 33  1  0  0  0  0
 18 20  2  0  0  0  0
 18 38  1  0  0  0  0
 19 21  2  0  0  0  0
 19 39  1  0  0  0  0
 20 47  1  0  0  0  0
 21 40  1  0  0  0  0
 22 30  2  0  0  0  0
 22 58  1  0  0  0  0
 23 31  1  0  0  0  0
 23 59  1  0  0  0  0
 24 84  1  0  0  0  0
 25 85  1  0  0  0  0
 26 28  2  0  0  0  0
 26 84  1  0  0  0  0
 27 86  1  0  0  0  0
 28 87  1  0  0  0  0
 29 68  2  0  0  0  0
 30 50  1  0  0  0  0
 30 69  1  0  0  0  0
 31 60  1  0  0  0  0
 31 69  2  0  0  0  0
 32 70  1  0  0  0  0
 32 73  1  0  0  0  0
 33 74  1  0  0  0  0
 33 79  2  0  0  0  0
 34 48  1  0  0  0  0
 34 75  1  0  0  0  0
 34 80  2  0  0  0  0
 35 64  1  0  0  0  0
 35 71  1  0  0  0  0
 35 81  2  0  0  0  0
 36 65  1  0  0  0  0
 36 76  1  0  0  0  0
 36 82  2  0  0  0  0
 37 72  1  0  0  0  0
 37 77  1  0  0  0  0
 37 83  2  0  0  0  0
 38 41  1  0  0  0  0
 39 48  1  0  0  0  0
 40 71  1  0  0  0  0
 41 43  1  0  0  0  0
 42 44  1  0  0  0  0
 42 45  1  0  0  0  0
 43 47  1  0  0  0  0
 44 49  1  0  0  0  0
 45 72  1  0  0  0  0
 46 49  1  0  0  0  0
 46 72  1  0  0  0  0
 47 75  1  0  0  0  0
 48 71  1  0  0  0  0
 49 70  1  0  0  0  0
 51 58  1  0  0  0  0
 52 65  1  0  0  0  0
 53 66  1  0  0  0  0
 54 67  1  0  0  0  0
 55 67  1  0  0  0  0
 56 67  1  0  0  0  0
 57 78  1  0  0  0  0
 59 66  1  0  0  0  0
 60 62  1  0  0  0  0
 61 63  1  0  0  0  0
 61 66  1  0  0  0  0
 62 77  1  0  0  0  0
 63 85  1  0  0  0  0
 64 67  1  0  0  0  0
 64 76  1  0  0  0  0
 65 78  1  0  0  0  0
 68 70  1  0  0  0  0
M  CHG  1  78   1
M  ISO  4  37 100  63 101  77 100  85 101
M  END
> <Batch ID>
0083

> <Smiles>
CCc1cc(CC(C)C[101CH2:1][101O:1]c2ccc3c(c2)CN(C(=O)C(NC(=O)C(C)NC)C(C)(C)C)C(C(=O)NC2CCCc4ccccc42)C3)c(CC[100NH:0][100C:0](=O)N2CCCC(n3nc(-c4ccc(Oc5ccc(F)cc5F)cc4)c(C(N)=O)c3N)C2)nc1C

> <Shape>
0.169

> <Color>
0.072

> <Negative vol penalty>
0.000

$$$$

  -OEChem-04052318513D

 86 94  0     1  0  0  0  0  0999 V2000
  -21.1339  -30.7331   23.0392 C   0  0  0  0  0  0  0  0  0  0  0  0
  -22.1979  -29.8502   22.8847 C   0  0  0  0  0  0  0  0  0  0  0  0
  -28.7728  -22.5713   19.6951 C   0  0  0  0  0  0  0  0  0  0  0  0
  -30.8609  -21.9409   18.6562 C   0  0  0  0  0  0  0  0  0  0  0  0
  -19.8238  -30.2580   22.9989 C   0  0  0  0  0  0  0  0  0  0  0  0
  -21.9522  -28.4913   22.6907 C   0  0  0  0  0  0  0  0  0  0  0  0
  -24.6182  -22.7621   19.3165 C   0  0  0  0  0  0  0  0  0  0  0  0
  -29.2101  -23.8936   19.7719 C   0  0  0  0  0  0  0  0  0  0  0  0
  -31.2982  -23.2632   18.7329 C   0  0  0  0  0  0  0  0  0  0  0  0
  -25.0042  -21.4464   19.5689 C   0  0  0  0  0  0  0  0  0  0  0  0
  -29.4966  -26.5469   17.6957 C   0  0  0  0  0  0  0  0  0  0  0  0
  -28.6023  -27.5485   17.3179 C   0  0  0  0  0  0  0  0  0  0  0  0
  -22.6980  -20.7510   19.4376 C   0  0  0  0  0  0  0  0  0  0  0  0
  -28.7378  -28.5049   19.5324 C   0  0  0  0  0  0  0  0  0  0  0  0
  -25.4182  -14.2887   19.5602 C   0  0  0  0  0  0  0  0  0  0  0  0
  -29.5982  -21.5949   19.1373 C   0  0  0  0  0  0  0  0  0  0  0  0
  -28.4394  -19.6270   18.0006 C   0  0  0  0  0  0  0  0  0  0  0  0
  -19.5617  -28.8941   22.7946 C   0  0  0  0  0  0  0  0  0  0  0  0
  -23.2658  -23.0844   19.1333 C   0  0  0  0  0  0  0  0  0  0  0  0
  -20.6374  -27.9973   22.6489 C   0  0  0  0  0  0  0  0  0  0  0  0
  -22.2977  -22.0712   19.1805 C   0  0  0  0  0  0  0  0  0  0  0  0
  -30.4728  -24.2395   19.2907 C   0  0  0  0  0  0  0  0  0  0  0  0
  -24.0438  -20.4411   19.6323 C   0  0  0  0  0  0  0  0  0  0  0  0
  -30.0115  -26.5243   18.9919 C   0  0  0  0  0  0  0  0  0  0  0  0
  -28.2229  -28.5274   18.2362 C   0  0  0  0  0  0  0  0  0  0  0  0
  -29.6321  -27.5033   19.9102 C   0  0  0  0  0  0  0  0  0  0  0  0
  -29.1472  -20.2287   19.0583 C   0  0  0  0  0  0  0  0  0  0  0  0
  -25.7302  -13.0396   20.0177 C   0  0  0  0  0  0  0  0  0  0  0  0
  -28.2512  -18.3289   18.4081 C   0  0  0  0  0  0  0  0  0  0  0  0
  -24.5467  -14.0647   21.5827 C   0  0  0  0  0  0  0  0  0  0  0  0
  -27.9922  -20.1909   16.7606 C   0  0  0  0  0  0  0  0  0  0  0  0
  -21.1750  -24.9347   20.6528 C   0  0  0  0  0  0  0  0  0  0  0  0
  -19.2592  -24.1549   18.1540 C   0  0  0  0  0  0  0  0  0  0  0  0
  -18.5144  -21.9603   15.6489 C   0  0  0  0  0  0  0  0  0  0  0  0
  -30.7073  -13.7268   20.6677 C   0  0  0  0  0  0  0  0  0  0  0  0
  -18.1299  -28.4204   22.8057 C   0  0  0  0  0  0  0  0  0  0  0  0
  -22.8685  -24.5042   18.8354 C   0  0  0  0  0  0  0  0  0  0  0  0
  -20.8349  -22.3616   18.9706 C   0  0  0  0  0  0  0  0  0  0  0  0
  -17.9465  -27.0219   22.2217 C   0  0  0  0  0  0  0  0  0  0  0  0
  -28.9816  -16.1286   22.8936 C   0  0  0  0  0  0  0  0  0  0  0  0
  -18.9941  -26.0667   22.7845 C   0  0  0  0  0  0  0  0  0  0  0  0
  -28.8820  -17.3789   22.0213 C   0  0  0  0  0  0  0  0  0  0  0  0
  -30.1876  -15.2717   22.5210 C   0  0  0  0  0  0  0  0  0  0  0  0
  -30.1393  -16.1476   20.2092 C   0  0  0  0  0  0  0  0  0  0  0  0
  -20.4109  -26.5200   22.4117 C   0  0  1  0  0  0  0  0  0  0  0  0
  -21.4110  -24.8006   19.1749 C   0  0  1  0  0  0  0  0  0  0  0  0
  -28.9084  -17.0094   20.5280 C   0  0  2  0  0  0  0  0  0  0  0  0
  -23.8267  -14.3296   22.8532 C   0  0  0  0  0  0  0  0  0  0  0  0
  -16.8688  -21.5722   13.7945 C   0  0  0  0  0  0  0  0  0  0  0  0
  -17.1770  -23.2529   20.1938 C   0  0  0  0  0  0  0  0  0  0  0  0
  -16.0030  -22.0305   18.3511 C   0  0  0  0  0  0  0  0  0  0  0  0
  -16.2485  -24.5105   18.2417 C   0  0  0  0  0  0  0  0  0  0  0  0
  -23.0712  -18.9053   21.8507 C   0  0  0  0  0  0  0  0  0  0  0  0
  -25.4615  -19.6543   21.9742 C   0  0  0  0  0  0  0  0  0  0  0  0
  -30.9850  -12.3175   18.6636 C   0  0  0  0  0  0  0  0  0  0  0  0
  -20.6354  -22.0679   13.5877 C   0  0  0  0  0  0  0  0  0  0  0  0
  -26.4877  -11.9455   19.4048 C   0  0  0  0  0  0  0  0  0  0  0  0
  -28.0135  -11.9516   19.6918 C   0  0  0  0  0  0  0  0  0  0  0  0
  -24.9664  -17.2867   21.2952 C   0  0  0  0  0  0  0  0  0  0  0  0
  -24.1253  -16.2997   20.4734 C   0  0  0  0  0  0  0  0  0  0  0  0
  -28.7359  -13.1935   19.1738 C   0  0  0  0  0  0  0  0  0  0  0  0
  -18.2754  -23.0466   17.8664 C   0  0  1  0  0  0  0  0  0  0  0  0
  -18.2107  -22.1767   14.1774 C   0  0  2  0  0  0  0  0  0  0  0  0
  -16.9533  -23.2046   18.6692 C   0  0  0  0  0  0  0  0  0  0  0  0
  -24.4671  -18.7450   21.2447 C   0  0  0  0  0  0  0  0  0  1  0  0
  -29.3918  -19.3825   20.0623 N   0  0  0  0  0  0  0  0  0  0  0  0
  -24.6854  -14.9005   20.5485 N   0  0  0  0  0  0  0  0  0  0  0  0
  -28.8346  -18.2358   19.6373 N   0  0  0  0  0  0  0  0  0  0  0  0
  -25.1786  -12.9284   21.2713 N   0  3  0  0  0  0  0  0  0  0  0  0
  -20.4957  -23.7663   18.6886 N   0  0  0  0  0  0  0  0  0  0  0  0
  -30.2112  -14.9715   21.0891 N   0  0  0  0  0  0  0  0  0  0  0  0
  -27.6452  -17.2695   17.8312 N   0  0  0  0  0  0  0  0  0  0  0  0
  -28.2698  -21.5401   16.5015 N   0  0  0  0  0  0  0  0  0  0  0  0
  -20.7061  -26.1764   21.0372 N   0  0  0  0  0  0  0  0  0  0  0  0
  -18.0964  -23.0252   16.4186 N   0  0  0  0  0  0  0  0  0  0  0  0
  -30.1617  -13.1849   19.4941 N   0  0  0  0  0  0  0  0  0  0  0  0
  -19.2666  -21.5498   13.3329 N   0  3  0  0  0  0  0  0  0  0  0  0
  -27.3507  -19.5227   15.9147 O   0  0  0  0  0  0  0  0  0  0  0  0
  -21.4002  -23.9818   21.3895 O   0  0  0  0  0  0  0  0  0  0  0  0
  -18.9449  -25.3218   17.9067 O   0  0  0  0  0  0  0  0  0  0  0  0
  -19.0638  -20.9462   16.0736 O   0  0  0  0  0  0  0  0  0  0  0  0
  -31.5810  -13.1294   21.3093 O   0  0  0  0  0  0  0  0  0  0  0  0
  -30.8998  -25.5298   19.3652 O   0  0  0  0  0  0  0  0  0  0  0  0
  -24.4178  -19.1561   19.8791 O   0  0  0  0  0  0  0  0  0  1  0  0
  -27.3653  -29.4900   17.8728 F   0  0  0  0  0  0  0  0  0  0  0  0
  -30.1243  -27.4874   21.1565 F   0  0  0  0  0  0  0  0  0  0  0  0
  1  2  1  0  0  0  0
  1  5  2  0  0  0  0
  2  6  2  0  0  0  0
  3  8  2  0  0  0  0
  3 16  1  0  0  0  0
  4  9  1  0  0  0  0
  4 16  2  0  0  0  0
  5 18  1  0  0  0  0
  6 20  1  0  0  0  0
  7 10  2  0  0  0  0
  7 19  1  0  0  0  0
  8 22  1  0  0  0  0
  9 22  2  0  0  0  0
 10 23  1  0  0  0  0
 11 12  2  0  0  0  0
 11 24  1  0  0  0  0
 12 25  1  0  0  0  0
 13 21  1  0  0  0  0
 13 23  2  0  0  0  0
 14 25  2  0  0  0  0
 14 26  1  0  0  0  0
 15 28  2  0  0  0  0
 15 67  1  0  0  0  0
 16 27  1  0  0  0  0
 17 27  1  0  0  0  0
 17 29  2  0  0  0  0
 17 31  1  0  0  0  0
 18 20  2  0  0  0  0
 18 36  1  0  0  0  0
 19 21  2  0  0  0  0
 19 37  1  0  0  0  0
 20 45  1  0  0  0  0
 21 38  1  0  0  0  0
 22 83  1  0  0  0  0
 23 84  1  0  0  0  0
 24 26  2  0  0  0  0
 24 83  1  0  0  0  0
 25 85  1  0  0  0  0
 26 86  1  0  0  0  0
 27 66  2  0  0  0  0
 28 57  1  0  0  0  0
 28 69  1  0  0  0  0
 29 68  1  0  0  0  0
 29 72  1  0  0  0  0
 30 48  1  0  0  0  0
 30 67  1  0  0  0  0
 30 69  2  0  0  0  0
 31 73  1  0  0  0  0
 31 78  2  0  0  0  0
 32 46  1  0  0  0  0
 32 74  1  0  0  0  0
 32 79  2  0  0  0  0
 33 62  1  0  0  0  0
 33 70  1  0  0  0  0
 33 80  2  0  0  0  0
 34 63  1  0  0  0  0
 34 75  1  0  0  0  0
 34 81  2  0  0  0  0
 35 71  1  0  0  0  0
 35 76  1  0  0  0  0
 35 82  2  0  0  0  0
 36 39  1  0  0  0  0
 37 46  1  0  0  0  0
 38 70  1  0  0  0  0
 39 41  1  0  0  0  0
 40 42  1  0  0  0  0
 40 43  1  0  0  0  0
 41 45  1  0  0  0  0
 42 47  1  0  0  0  0
 43 71  1  0  0  0  0
 44 47  1  0  0  0  0
 44 71  1  0  0  0  0
 45 74  1  0  0  0  0
 46 70  1  0  0  0  0
 47 68  1  0  0  0  0
 49 63  1  0  0  0  0
 50 64  1  0  0  0  0
 51 64  1  0  0  0  0
 52 64  1  0  0  0  0
 53 65  1  0  0  0  0
 54 65  1  0  0  0  0
 55 76  1  0  0  0  0
 56 77  1  0  0  0  0
 57 58  1  0  0  0  0
 58 61  1  0  0  0  0
 59 60  1  0  0  0  0
 59 65  1  0  0  0  0
 60 67  1  0  0  0  0
 61 76  1  0  0  0  0
 62 64  1  0  0  0  0
 62 75  1  0  0  0  0
 63 77  1  0  0  0  0
 65 84  1  0  0  0  0
 66 68  1  0  0  0  0
M  CHG  2  69   1  77   1
M  ISO  4  35 100  65 101  76 100  84 101
M  END
> <Batch ID>
0083

> <Smiles>
CNC(C)C(=O)NC(C(=O)N1Cc2cc([101O:1][101C:1](C)(C)CCn3cc(CCC[100N:0](C)[100C:0](=O)N4CCCC(n5nc(-c6ccc(Oc7ccc(F)cc7F)cc6)c(C(N)=O)c5N)C4)nc3C)ccc2CC1C(=O)NC1CCCc2ccccc21)C(C)(C)C

> <Shape>
0.240

> <Color>
0.047

> <Negative vol penalty>
0.000

$$$$

  -OEChem-04052318513D

 85 93  0     1  0  0  0  0  0999 V2000
  -27.7020  -34.8103   21.0793 C   0  0  0  0  0  0  0  0  0  0  0  0
  -27.6583  -33.9323   20.0010 C   0  0  0  0  0  0  0  0  0  0  0  0
  -25.6182  -13.0190   20.1122 C   0  0  0  0  0  0  0  0  0  0  0  0
  -23.8188  -14.5087   20.7287 C   0  0  0  0  0  0  0  0  0  0  0  0
  -27.7602  -34.3123   22.3803 C   0  0  0  0  0  0  0  0  0  0  0  0
  -27.6739  -32.5558   20.2230 C   0  0  0  0  0  0  0  0  0  0  0  0
  -25.1349  -26.4333   17.5054 C   0  0  0  0  0  0  0  0  0  0  0  0
  -25.0542  -12.0130   20.8967 C   0  0  0  0  0  0  0  0  0  0  0  0
  -23.2547  -13.5027   21.5132 C   0  0  0  0  0  0  0  0  0  0  0  0
  -25.5722  -25.1768   17.0888 C   0  0  0  0  0  0  0  0  0  0  0  0
  -22.5230   -9.7849   20.6486 C   0  0  0  0  0  0  0  0  0  0  0  0
  -22.4458   -8.5037   20.1027 C   0  0  0  0  0  0  0  0  0  0  0  0
  -25.5941  -24.4305   19.3826 C   0  0  0  0  0  0  0  0  0  0  0  0
  -30.1514  -24.0484   16.6665 C   0  0  0  0  0  0  0  0  0  0  0  0
  -23.8157   -7.6543   21.9024 C   0  0  0  0  0  0  0  0  0  0  0  0
  -25.0005  -14.2669   20.0282 C   0  0  0  0  0  0  0  0  0  0  0  0
  -25.3313  -15.5661   17.8579 C   0  0  0  0  0  0  0  0  0  0  0  0
  -27.7668  -32.9289   22.6188 C   0  0  0  0  0  0  0  0  0  0  0  0
  -24.9341  -26.7017   18.8670 C   0  0  0  0  0  0  0  0  0  0  0  0
  -27.7336  -32.0388   21.5284 C   0  0  0  0  0  0  0  0  0  0  0  0
  -25.1518  -25.6906   19.8137 C   0  0  0  0  0  0  0  0  0  0  0  0
  -30.9905  -24.9506   17.3109 C   0  0  0  0  0  0  0  0  0  0  0  0
  -30.9648  -25.0468   18.6978 C   0  0  0  0  0  0  0  0  0  0  0  0
  -23.8725  -12.2548   21.5972 C   0  0  0  0  0  0  0  0  0  0  0  0
  -25.8046  -24.1760   18.0277 C   0  0  0  0  0  0  0  0  0  0  0  0
  -23.2466  -10.0009   21.8214 C   0  0  0  0  0  0  0  0  0  0  0  0
  -23.0921   -7.4383   20.7296 C   0  0  0  0  0  0  0  0  0  0  0  0
  -23.8929   -8.9355   22.4483 C   0  0  0  0  0  0  0  0  0  0  0  0
  -25.5829  -15.3067   19.2185 C   0  0  0  0  0  0  0  0  0  0  0  0
  -29.3119  -23.2713   17.4482 C   0  0  0  0  0  0  0  0  0  0  0  0
  -30.0888  -24.2251   19.3886 C   0  0  0  0  0  0  0  0  0  0  0  0
  -26.1243  -16.6478   17.5621 C   0  0  0  0  0  0  0  0  0  0  0  0
  -24.4586  -14.8898   16.9432 C   0  0  0  0  0  0  0  0  0  0  0  0
  -26.2048  -28.7223   20.9662 C   0  0  0  0  0  0  0  0  0  0  0  0
  -23.8905  -27.5460   22.9113 C   0  0  0  0  0  0  0  0  0  0  0  0
  -21.7561  -24.9899   23.6576 C   0  0  0  0  0  0  0  0  0  0  0  0
  -28.2711  -20.9907   20.9364 C   0  0  0  0  0  0  0  0  0  0  0  0
  -27.8782  -32.4379   24.0405 C   0  0  0  0  0  0  0  0  0  0  0  0
  -24.4366  -28.0542   19.2978 C   0  0  0  0  0  0  0  0  0  0  0  0
  -24.9318  -25.9216   21.2857 C   0  0  0  0  0  0  0  0  0  0  0  0
  -27.5128  -30.9651   24.2066 C   0  0  0  0  0  0  0  0  0  0  0  0
  -30.2201  -18.7553   18.8622 C   0  0  0  0  0  0  0  0  0  0  0  0
  -28.1895  -30.1225   23.1301 C   0  0  0  0  0  0  0  0  0  0  0  0
  -29.2129  -17.6363   18.5911 C   0  0  0  0  0  0  0  0  0  0  0  0
  -30.0818  -19.2910   20.2842 C   0  0  0  0  0  0  0  0  0  0  0  0
  -27.7043  -18.6468   20.3640 C   0  0  0  0  0  0  0  0  0  0  0  0
  -27.7238  -30.5390   21.7297 C   0  0  1  0  0  0  0  0  0  0  0  0
  -24.7587  -28.3732   20.7545 C   0  0  1  0  0  0  0  0  0  0  0  0
  -27.7782  -18.0783   18.9352 C   0  0  2  0  0  0  0  0  0  0  0  0
  -31.9040  -25.8032   16.4938 C   0  0  0  0  0  0  0  0  0  0  0  0
  -31.8553  -26.0038   19.4164 C   0  0  0  0  0  0  0  0  0  0  0  0
  -20.0150  -24.3017   25.3286 C   0  0  0  0  0  0  0  0  0  0  0  0
  -28.9643  -23.3976   23.0071 C   0  0  0  0  0  0  0  0  0  0  0  0
  -26.2925  -22.0540   15.4032 C   0  0  0  0  0  0  0  0  0  0  0  0
  -26.0850  -26.9232   24.9377 C   0  0  0  0  0  0  0  0  0  0  0  0
  -24.4697  -25.4199   26.1204 C   0  0  0  0  0  0  0  0  0  0  0  0
  -23.9873  -27.8596   25.9263 C   0  0  0  0  0  0  0  0  0  0  0  0
  -19.6579  -24.8247   21.5770 C   0  0  0  0  0  0  0  0  0  0  0  0
  -28.3874  -22.2792   16.7829 C   0  0  0  0  0  0  0  0  0  0  0  0
  -30.0170  -24.2818   20.8796 C   0  0  0  0  0  0  0  0  0  0  0  0
  -23.7917  -26.3907   23.8779 C   0  0  1  0  0  0  0  0  0  0  0  0
  -20.2754  -24.9791   23.9922 C   0  0  2  0  0  0  0  0  0  0  0  0
  -28.9904  -23.3013   21.4850 C   0  0  1  0  0  0  0  0  0  0  0  0
  -27.0267  -22.8950   16.4398 C   0  0  2  0  0  0  0  0  0  1  0  0
  -24.5895  -26.6442   25.1881 C   0  0  0  0  0  0  0  0  0  0  0  0
  -26.4669  -16.1551   19.7502 N   0  0  0  0  0  0  0  0  0  0  0  0
  -29.2588  -23.3366   18.7975 N   0  0  0  0  0  0  0  0  0  0  0  0
  -26.7776  -16.9582   18.7184 N   0  0  0  0  0  0  0  0  0  0  0  0
  -24.4510  -27.2625   21.6577 N   0  0  0  0  0  0  0  0  0  0  0  0
  -28.6972  -19.7117   20.5412 N   0  0  0  0  0  0  0  0  0  0  0  0
  -26.3196  -17.3541   16.4284 N   0  0  0  0  0  0  0  0  0  0  0  0
  -23.7159  -13.7975   17.4120 N   0  0  0  0  0  0  0  0  0  0  0  0
  -26.4099  -29.9993   21.4527 N   0  0  0  0  0  0  0  0  0  0  0  0
  -22.3673  -26.1505   24.0826 N   0  0  0  0  0  0  0  0  0  0  0  0
  -29.2744  -21.9399   21.0886 N   0  0  0  0  0  0  0  0  0  0  0  0
  -19.5118  -24.2513   22.9396 N   0  3  0  0  0  0  0  0  0  0  0  0
  -24.3531  -15.2333   15.7414 O   0  0  0  0  0  0  0  0  0  0  0  0
  -27.0702  -27.8938   20.7088 O   0  0  0  0  0  0  0  0  0  0  0  0
  -23.4789  -28.6575   23.2532 O   0  0  0  0  0  0  0  0  0  0  0  0
  -22.3153  -24.0600   23.0805 O   0  0  0  0  0  0  0  0  0  0  0  0
  -27.0832  -21.2680   21.1339 O   0  0  0  0  0  0  0  0  0  0  0  0
  -23.3217  -11.2733   22.3626 O   0  0  0  0  0  0  0  0  0  0  0  0
  -26.2320  -22.9488   17.6238 O   0  0  0  0  0  0  0  0  0  1  0  0
  -23.0166   -6.2077   20.2061 F   0  0  0  0  0  0  0  0  0  0  0  0
  -24.5886   -9.1366   23.5759 F   0  0  0  0  0  0  0  0  0  0  0  0
  1  2  1  0  0  0  0
  1  5  2  0  0  0  0
  2  6  2  0  0  0  0
  3  8  2  0  0  0  0
  3 16  1  0  0  0  0
  4  9  1  0  0  0  0
  4 16  2  0  0  0  0
  5 18  1  0  0  0  0
  6 20  1  0  0  0  0
  7 10  2  0  0  0  0
  7 19  1  0  0  0  0
  8 24  1  0  0  0  0
  9 24  2  0  0  0  0
 10 25  1  0  0  0  0
 11 12  2  0  0  0  0
 11 26  1  0  0  0  0
 12 27  1  0  0  0  0
 13 21  1  0  0  0  0
 13 25  2  0  0  0  0
 14 22  2  0  0  0  0
 14 30  1  0  0  0  0
 15 27  2  0  0  0  0
 15 28  1  0  0  0  0
 16 29  1  0  0  0  0
 17 29  1  0  0  0  0
 17 32  2  0  0  0  0
 17 33  1  0  0  0  0
 18 20  2  0  0  0  0
 18 38  1  0  0  0  0
 19 21  2  0  0  0  0
 19 39  1  0  0  0  0
 20 47  1  0  0  0  0
 21 40  1  0  0  0  0
 22 23  1  0  0  0  0
 22 50  1  0  0  0  0
 23 31  2  0  0  0  0
 23 51  1  0  0  0  0
 24 82  1  0  0  0  0
 25 83  1  0  0  0  0
 26 28  2  0  0  0  0
 26 82  1  0  0  0  0
 27 84  1  0  0  0  0
 28 85  1  0  0  0  0
 29 66  2  0  0  0  0
 30 59  1  0  0  0  0
 30 67  2  0  0  0  0
 31 60  1  0  0  0  0
 31 67  1  0  0  0  0
 32 68  1  0  0  0  0
 32 71  1  0  0  0  0
 33 72  1  0  0  0  0
 33 77  2  0  0  0  0
 34 48  1  0  0  0  0
 34 73  1  0  0  0  0
 34 78  2  0  0  0  0
 35 61  1  0  0  0  0
 35 69  1  0  0  0  0
 35 79  2  0  0  0  0
 36 62  1  0  0  0  0
 36 74  1  0  0  0  0
 36 80  2  0  0  0  0
 37 70  1  0  0  0  0
 37 75  1  0  0  0  0
 37 81  2  0  0  0  0
 38 41  1  0  0  0  0
 39 48  1  0  0  0  0
 40 69  1  0  0  0  0
 41 43  1  0  0  0  0
 42 44  1  0  0  0  0
 42 45  1  0  0  0  0
 43 47  1  0  0  0  0
 44 49  1  0  0  0  0
 45 70  1  0  0  0  0
 46 49  1  0  0  0  0
 46 70  1  0  0  0  0
 47 73  1  0  0  0  0
 48 69  1  0  0  0  0
 49 68  1  0  0  0  0
 52 62  1  0  0  0  0
 53 63  1  0  0  0  0
 54 64  1  0  0  0  0
 55 65  1  0  0  0  0
 56 65  1  0  0  0  0
 57 65  1  0  0  0  0
 58 76  1  0  0  0  0
 59 64  1  0  0  0  0
 60 63  1  0  0  0  0
 61 65  1  0  0  0  0
 61 74  1  0  0  0  0
 62 76  1  0  0  0  0
 63 75  1  0  0  0  0
 64 83  1  0  0  0  0
 66 68  1  0  0  0  0
M  CHG  1  76   1
M  ISO  4  37 100  64 101  75 100  83 101
M  END
> <Batch ID>
0083

> <Smiles>
CNC(C)C(=O)NC(C(=O)N1Cc2cc([101O:1][101CH:1](C)Cc3cc(C)c(C)c(CC(C)[100NH:0][100C:0](=O)N4CCCC(n5nc(-c6ccc(Oc7ccc(F)cc7F)cc6)c(C(N)=O)c5N)C4)n3)ccc2CC1C(=O)NC1CCCc2ccccc21)C(C)(C)C

> <Shape>
0.239

> <Color>
0.059

> <Negative vol penalty>
0.000

$$$$

  -OEChem-04052318513D

 86 94  0     1  0  0  0  0  0999 V2000
  -25.8737  -37.5609   19.9366 C   0  0  0  0  0  0  0  0  0  0  0  0
  -26.5409  -36.3709   19.6640 C   0  0  0  0  0  0  0  0  0  0  0  0
  -24.4280   -9.5112   22.1405 C   0  0  0  0  0  0  0  0  0  0  0  0
  -22.6193  -10.6840   21.0495 C   0  0  0  0  0  0  0  0  0  0  0  0
  -25.0447  -37.6539   21.0537 C   0  0  0  0  0  0  0  0  0  0  0  0
  -26.3803  -35.2735   20.5092 C   0  0  0  0  0  0  0  0  0  0  0  0
  -26.3043  -29.3656   18.8976 C   0  0  0  0  0  0  0  0  0  0  0  0
  -31.2071  -20.6098   19.3410 C   0  0  0  0  0  0  0  0  0  0  0  0
  -30.5462  -21.6691   19.9629 C   0  0  0  0  0  0  0  0  0  0  0  0
  -23.5041   -8.7059   22.8065 C   0  0  0  0  0  0  0  0  0  0  0  0
  -21.6954   -9.8787   21.7154 C   0  0  0  0  0  0  0  0  0  0  0  0
  -27.2824  -28.3726   18.9275 C   0  0  0  0  0  0  0  0  0  0  0  0
  -21.5836   -6.0132   22.1034 C   0  0  0  0  0  0  0  0  0  0  0  0
  -21.8323   -4.6414   22.1472 C   0  0  0  0  0  0  0  0  0  0  0  0
  -26.4393  -27.6148   21.0569 C   0  0  0  0  0  0  0  0  0  0  0  0
  -21.8807   -4.7272   24.5612 C   0  0  0  0  0  0  0  0  0  0  0  0
  -23.9856  -10.5003   21.2621 C   0  0  0  0  0  0  0  0  0  0  0  0
  -25.5352  -11.0876   19.3226 C   0  0  0  0  0  0  0  0  0  0  0  0
  -24.8663  -36.5540   21.9076 C   0  0  0  0  0  0  0  0  0  0  0  0
  -25.3917  -29.4979   19.9541 C   0  0  0  0  0  0  0  0  0  0  0  0
  -25.5492  -35.3523   21.6396 C   0  0  0  0  0  0  0  0  0  0  0  0
  -25.4490  -28.6087   21.0368 C   0  0  0  0  0  0  0  0  0  0  0  0
  -30.4768  -19.5417   18.8199 C   0  0  0  0  0  0  0  0  0  0  0  0
  -29.1550  -21.6603   20.0638 C   0  0  0  0  0  0  0  0  0  0  0  0
  -29.0856  -19.5329   18.9208 C   0  0  0  0  0  0  0  0  0  0  0  0
  -28.4247  -20.5921   19.5427 C   0  0  0  0  0  0  0  0  0  0  0  0
  -22.1378   -8.8896   22.5939 C   0  0  0  0  0  0  0  0  0  0  0  0
  -27.3518  -27.4988   20.0086 C   0  0  0  0  0  0  0  0  0  0  0  0
  -21.4836   -6.7421   23.2885 C   0  0  0  0  0  0  0  0  0  0  0  0
  -21.9807   -3.9984   23.3760 C   0  0  0  0  0  0  0  0  0  0  0  0
  -21.6321   -6.0991   24.5174 C   0  0  0  0  0  0  0  0  0  0  0  0
  -24.9395  -11.3329   20.5743 C   0  0  0  0  0  0  0  0  0  0  0  0
  -26.3585  -12.1675   19.1166 C   0  0  0  0  0  0  0  0  0  0  0  0
  -25.3599   -9.9824   18.4262 C   0  0  0  0  0  0  0  0  0  0  0  0
  -24.7191  -31.7770   22.0653 C   0  0  0  0  0  0  0  0  0  0  0  0
  -22.3044  -29.7696   22.8785 C   0  0  0  0  0  0  0  0  0  0  0  0
  -21.0805  -26.5844   22.9383 C   0  0  0  0  0  0  0  0  0  0  0  0
  -26.1494  -17.7136   21.1296 C   0  0  0  0  0  0  0  0  0  0  0  0
  -23.9970  -36.7170   23.1293 C   0  0  0  0  0  0  0  0  0  0  0  0
  -24.3257  -30.5574   19.8941 C   0  0  0  0  0  0  0  0  0  0  0  0
  -24.4800  -28.6957   22.1865 C   0  0  0  0  0  0  0  0  0  0  0  0
  -23.5869  -35.3917   23.7662 C   0  0  0  0  0  0  0  0  0  0  0  0
  -28.9287  -15.4256   21.5012 C   0  0  0  0  0  0  0  0  0  0  0  0
  -24.7922  -34.4657   23.8949 C   0  0  0  0  0  0  0  0  0  0  0  0
  -28.2640  -14.0852   21.1823 C   0  0  0  0  0  0  0  0  0  0  0  0
  -27.9866  -16.3382   22.2809 C   0  0  0  0  0  0  0  0  0  0  0  0
  -26.0096  -15.2448   21.2964 C   0  0  0  0  0  0  0  0  0  0  0  0
  -25.3811  -34.1322   22.5189 C   0  0  1  0  0  0  0  0  0  0  0  0
  -23.7721  -30.9263   21.2670 C   0  0  1  0  0  0  0  0  0  0  0  0
  -26.9031  -14.2855   20.4893 C   0  0  2  0  0  0  0  0  0  0  0  0
  -32.2226  -17.7625   19.0900 C   0  0  0  0  0  0  0  0  0  0  0  0
  -28.1829  -18.4608   16.8418 C   0  0  0  0  0  0  0  0  0  0  0  0
  -19.0968  -25.2503   23.7015 C   0  0  0  0  0  0  0  0  0  0  0  0
  -23.3031  -29.9357   25.7569 C   0  0  0  0  0  0  0  0  0  0  0  0
  -21.9321  -27.9062   26.2762 C   0  0  0  0  0  0  0  0  0  0  0  0
  -20.8152  -30.0012   25.5105 C   0  0  0  0  0  0  0  0  0  0  0  0
  -20.4511  -25.7234   20.1776 C   0  0  0  0  0  0  0  0  0  0  0  0
  -31.2092  -18.4203   18.1585 C   0  0  0  0  0  0  0  0  0  0  0  0
  -28.4658  -22.8168   20.7427 C   0  0  0  0  0  0  0  0  0  0  0  0
  -28.3050  -18.3868   18.3599 C   0  0  0  0  0  0  0  0  0  0  0  0
  -26.9328  -20.5836   19.6532 C   0  0  0  0  0  0  0  0  0  0  0  0
  -28.7511  -24.1720   20.0917 C   0  0  0  0  0  0  0  0  0  0  0  0
  -26.4266  -20.1778   21.0406 C   0  0  0  0  0  0  0  0  0  0  0  0
  -27.9831  -25.3228   20.7314 C   0  0  0  0  0  0  0  0  0  1  0  0
  -22.1450  -28.6292   23.8548 C   0  0  1  0  0  0  0  0  0  0  0  0
  -19.7267  -26.0180   22.5497 C   0  0  2  0  0  0  0  0  0  0  0  0
  -22.0685  -29.1174   25.3290 C   0  0  0  0  0  0  0  0  0  0  0  0
  -25.3496  -12.4786   21.1249 N   0  0  0  0  0  0  0  0  0  0  0  0
  -26.2119  -12.9628   20.2149 N   0  0  0  0  0  0  0  0  0  0  0  0
  -23.4599  -29.7524   22.0847 N   0  0  0  0  0  0  0  0  0  0  0  0
  -26.7173  -16.5024   21.5584 N   0  0  0  0  0  0  0  0  0  0  0  0
  -27.1865  -12.5047   18.1051 N   0  0  0  0  0  0  0  0  0  0  0  0
  -24.4758   -8.9585   18.7927 N   0  0  0  0  0  0  0  0  0  0  0  0
  -24.5727  -33.1343   21.8516 N   0  0  0  0  0  0  0  0  0  0  0  0
  -20.9770  -27.8745   23.4139 N   0  0  0  0  0  0  0  0  0  0  0  0
  -26.8795  -18.8589   21.4230 N   0  0  0  0  0  0  0  0  0  0  0  0
  -19.8657  -25.0936   21.3891 N   0  3  0  0  0  0  0  0  0  0  0  0
  -25.9816   -9.8971   17.3400 O   0  0  0  0  0  0  0  0  0  0  0  0
  -25.5222  -31.2416   22.8203 O   0  0  0  0  0  0  0  0  0  0  0  0
  -21.4320  -30.6396   22.8174 O   0  0  0  0  0  0  0  0  0  0  0  0
  -22.1249  -25.9449   22.8342 O   0  0  0  0  0  0  0  0  0  0  0  0
  -25.0733  -17.7700   20.5247 O   0  0  0  0  0  0  0  0  0  0  0  0
  -21.2360   -8.1038   23.2434 O   0  0  0  0  0  0  0  0  0  0  0  0
  -28.3060  -26.5290   20.0406 O   0  0  0  0  0  0  0  0  0  1  0  0
  -22.2179   -2.6808   23.4179 F   0  0  0  0  0  0  0  0  0  0  0  0
  -21.5359   -6.7938   25.6593 F   0  0  0  0  0  0  0  0  0  0  0  0
  1  2  1  0  0  0  0
  1  5  2  0  0  0  0
  2  6  2  0  0  0  0
  3 10  2  0  0  0  0
  3 17  1  0  0  0  0
  4 11  1  0  0  0  0
  4 17  2  0  0  0  0
  5 19  1  0  0  0  0
  6 21  1  0  0  0  0
  7 12  2  0  0  0  0
  7 20  1  0  0  0  0
  8  9  2  0  0  0  0
  8 23  1  0  0  0  0
  9 24  1  0  0  0  0
 10 27  1  0  0  0  0
 11 27  2  0  0  0  0
 12 28  1  0  0  0  0
 13 14  2  0  0  0  0
 13 29  1  0  0  0  0
 14 30  1  0  0  0  0
 15 22  1  0  0  0  0
 15 28  2  0  0  0  0
 16 30  2  0  0  0  0
 16 31  1  0  0  0  0
 17 32  1  0  0  0  0
 18 32  1  0  0  0  0
 18 33  2  0  0  0  0
 18 34  1  0  0  0  0
 19 21  2  0  0  0  0
 19 39  1  0  0  0  0
 20 22  2  0  0  0  0
 20 40  1  0  0  0  0
 21 48  1  0  0  0  0
 22 41  1  0  0  0  0
 23 25  2  0  0  0  0
 23 58  1  0  0  0  0
 24 26  2  0  0  0  0
 24 59  1  0  0  0  0
 25 26  1  0  0  0  0
 25 60  1  0  0  0  0
 26 61  1  0  0  0  0
 27 83  1  0  0  0  0
 28 84  1  0  0  0  0
 29 31  2  0  0  0  0
 29 83  1  0  0  0  0
 30 85  1  0  0  0  0
 31 86  1  0  0  0  0
 32 68  2  0  0  0  0
 33 69  1  0  0  0  0
 33 72  1  0  0  0  0
 34 73  1  0  0  0  0
 34 78  2  0  0  0  0
 35 49  1  0  0  0  0
 35 74  1  0  0  0  0
 35 79  2  0  0  0  0
 36 65  1  0  0  0  0
 36 70  1  0  0  0  0
 36 80  2  0  0  0  0
 37 66  1  0  0  0  0
 37 75  1  0  0  0  0
 37 81  2  0  0  0  0
 38 71  1  0  0  0  0
 38 76  1  0  0  0  0
 38 82  2  0  0  0  0
 39 42  1  0  0  0  0
 40 49  1  0  0  0  0
 41 70  1  0  0  0  0
 42 44  1  0  0  0  0
 43 45  1  0  0  0  0
 43 46  1  0  0  0  0
 44 48  1  0  0  0  0
 45 50  1  0  0  0  0
 46 71  1  0  0  0  0
 47 50  1  0  0  0  0
 47 71  1  0  0  0  0
 48 74  1  0  0  0  0
 49 70  1  0  0  0  0
 50 69  1  0  0  0  0
 51 58  1  0  0  0  0
 52 60  1  0  0  0  0
 53 66  1  0  0  0  0
 54 67  1  0  0  0  0
 55 67  1  0  0  0  0
 56 67  1  0  0  0  0
 57 77  1  0  0  0  0
 59 62  1  0  0  0  0
 61 63  1  0  0  0  0
 62 64  1  0  0  0  0
 63 76  1  0  0  0  0
 64 84  1  0  0  0  0
 65 67  1  0  0  0  0
 65 75  1  0  0  0  0
 66 77  1  0  0  0  0
 68 69  1  0  0  0  0
M  CHG  1  77   1
M  ISO  4  38 100  64 101  76 100  84 101
M  END
> <Batch ID>
0083

> <Smiles>
CCc1ccc(CC[101CH2:1][101O:1]c2ccc3c(c2)CN(C(=O)C(NC(=O)C(C)NC)C(C)(C)C)C(C(=O)NC2CCCc4ccccc42)C3)c(CC[100NH:0][100C:0](=O)N2CCCC(n3nc(-c4ccc(Oc5ccc(F)cc5F)cc4)c(C(N)=O)c3N)C2)c1CC

> <Shape>
0.324

> <Color>
0.090

> <Negative vol penalty>
0.000

$$$$

  -OEChem-04052318513D

 84 92  0     1  0  0  0  0  0999 V2000
  -25.2483  -30.7510   19.9013 C   0  0  0  0  0  0  0  0  0  0  0  0
  -25.4772  -29.5154   20.4981 C   0  0  0  0  0  0  0  0  0  0  0  0
  -22.9880  -10.0034   19.9391 C   0  0  0  0  0  0  0  0  0  0  0  0
  -23.7946   -9.9145   22.2148 C   0  0  0  0  0  0  0  0  0  0  0  0
  -24.1704  -31.5337   20.3129 C   0  0  0  0  0  0  0  0  0  0  0  0
  -24.6290  -29.0621   21.5078 C   0  0  0  0  0  0  0  0  0  0  0  0
  -23.3307  -24.2029   20.9189 C   0  0  0  0  0  0  0  0  0  0  0  0
  -22.2055   -8.8725   20.1723 C   0  0  0  0  0  0  0  0  0  0  0  0
  -23.0121   -8.7836   22.4480 C   0  0  0  0  0  0  0  0  0  0  0  0
  -24.2718  -23.2430   21.2887 C   0  0  0  0  0  0  0  0  0  0  0  0
  -19.7686   -8.0917   23.0975 C   0  0  0  0  0  0  0  0  0  0  0  0
  -19.0350   -8.0464   24.2829 C   0  0  0  0  0  0  0  0  0  0  0  0
  -23.1094  -22.9166   23.3770 C   0  0  0  0  0  0  0  0  0  0  0  0
  -28.5125  -18.2715   19.7712 C   0  0  0  0  0  0  0  0  0  0  0  0
  -20.2156   -6.0425   24.9369 C   0  0  0  0  0  0  0  0  0  0  0  0
  -28.5732  -18.7277   21.9753 C   0  0  0  0  0  0  0  0  0  0  0  0
  -23.7826  -10.5244   20.9604 C   0  0  0  0  0  0  0  0  0  0  0  0
  -24.2191  -13.0372   20.9047 C   0  0  0  0  0  0  0  0  0  0  0  0
  -23.3028  -31.0855   21.3215 C   0  0  0  0  0  0  0  0  0  0  0  0
  -22.2762  -24.5351   21.7815 C   0  0  0  0  0  0  0  0  0  0  0  0
  -23.5392  -29.8402   21.9342 C   0  0  0  0  0  0  0  0  0  0  0  0
  -22.1547  -23.8791   23.0147 C   0  0  0  0  0  0  0  0  0  0  0  0
  -29.3378  -18.2753   20.9227 C   0  0  0  0  0  0  0  0  0  0  0  0
  -22.2175   -8.2627   21.4267 C   0  0  0  0  0  0  0  0  0  0  0  0
  -24.1629  -22.6018   22.5191 C   0  0  0  0  0  0  0  0  0  0  0  0
  -20.7258   -7.1124   22.8317 C   0  0  0  0  0  0  0  0  0  0  0  0
  -19.2585   -7.0218   25.2027 C   0  0  0  0  0  0  0  0  0  0  0  0
  -20.9492   -6.0879   23.7515 C   0  0  0  0  0  0  0  0  0  0  0  0
  -24.5916  -11.6922   20.7199 C   0  0  0  0  0  0  0  0  0  0  0  0
  -27.2687  -18.7219   20.1552 C   0  0  0  0  0  0  0  0  0  0  0  0
  -25.3317  -13.7549   20.5393 C   0  0  0  0  0  0  0  0  0  0  0  0
  -22.9784  -13.5884   21.3656 C   0  0  0  0  0  0  0  0  0  0  0  0
  -21.3516  -27.1827   23.2778 C   0  0  0  0  0  0  0  0  0  0  0  0
  -18.8002  -25.3582   24.1049 C   0  0  0  0  0  0  0  0  0  0  0  0
  -17.5113  -22.2389   24.6105 C   0  0  0  0  0  0  0  0  0  0  0  0
  -30.8533  -14.5590   20.6375 C   0  0  0  0  0  0  0  0  0  0  0  0
  -22.1787  -31.9876   21.7657 C   0  0  0  0  0  0  0  0  0  0  0  0
  -21.2541  -25.5534   21.3564 C   0  0  0  0  0  0  0  0  0  0  0  0
  -21.0297  -24.1850   23.9683 C   0  0  0  0  0  0  0  0  0  0  0  0
  -21.1074  -31.2690   22.5820 C   0  0  0  0  0  0  0  0  0  0  0  0
  -29.5757  -12.2902   18.2092 C   0  0  0  0  0  0  0  0  0  0  0  0
  -21.7503  -30.3897   23.6499 C   0  0  0  0  0  0  0  0  0  0  0  0
  -28.1372  -12.0387   18.6647 C   0  0  0  0  0  0  0  0  0  0  0  0
  -30.5252  -12.4408   19.3957 C   0  0  0  0  0  0  0  0  0  0  0  0
  -28.6820  -13.2028   20.8434 C   0  0  0  0  0  0  0  0  0  0  0  0
  -22.6268  -29.3031   23.0155 C   0  0  1  0  0  0  0  0  0  0  0  0
  -20.5134  -26.1833   22.5320 C   0  0  1  0  0  0  0  0  0  0  0  0
  -27.6778  -13.0998   19.6827 C   0  0  2  0  0  0  0  0  0  0  0  0
  -26.0410  -18.9126   19.3554 C   0  0  0  0  0  0  0  0  0  0  0  0
  -31.6889  -19.0384   21.3851 C   0  0  0  0  0  0  0  0  0  0  0  0
  -15.4084  -21.0676   25.3199 C   0  0  0  0  0  0  0  0  0  0  0  0
  -19.3696  -26.1001   27.0092 C   0  0  0  0  0  0  0  0  0  0  0  0
  -17.8932  -24.2035   27.7102 C   0  0  0  0  0  0  0  0  0  0  0  0
  -16.9468  -26.0961   26.3892 C   0  0  0  0  0  0  0  0  0  0  0  0
  -24.9209  -18.5864   22.3736 C   0  0  0  0  0  0  0  0  0  0  0  0
  -26.6260  -19.6767   23.8163 C   0  0  0  0  0  0  0  0  0  0  0  0
  -17.2748  -20.8422   22.0120 C   0  0  0  0  0  0  0  0  0  0  0  0
  -31.0276  -16.6685   21.9333 C   0  0  0  0  0  0  0  0  0  0  0  0
  -25.6909  -20.9126   21.8351 C   0  0  0  0  0  0  0  0  0  1  0  0
  -30.7548  -17.8694   20.9846 C   0  0  1  0  0  0  0  0  0  0  0  0
  -18.4746  -24.4331   25.2525 C   0  0  1  0  0  0  0  0  0  0  0  0
  -16.2170  -21.5963   24.1454 C   0  0  2  0  0  0  0  0  0  0  0  0
  -18.1935  -25.2036   26.5734 C   0  0  0  0  0  0  0  0  0  0  0  0
  -26.1511  -19.5254   22.3528 C   0  0  0  0  0  0  0  0  0  0  0  0
  -25.8430  -11.5607   20.2718 N   0  0  0  0  0  0  0  0  0  0  0  0
  -27.3173  -18.9965   21.4970 N   0  0  0  0  0  0  0  0  0  0  0  0
  -26.2664  -12.8322   20.1718 N   0  0  0  0  0  0  0  0  0  0  0  0
  -20.0590  -25.1926   23.5100 N   0  0  0  0  0  0  0  0  0  0  0  0
  -30.0331  -13.4632   20.3223 N   0  0  0  0  0  0  0  0  0  0  0  0
  -25.5917  -15.0790   20.4995 N   0  0  0  0  0  0  0  0  0  0  0  0
  -21.9393  -12.7088   21.6987 N   0  0  0  0  0  0  0  0  0  0  0  0
  -21.8057  -28.2294   22.4983 N   0  0  0  0  0  0  0  0  0  0  0  0
  -17.3675  -23.5969   24.8013 N   0  0  0  0  0  0  0  0  0  0  0  0
  -30.3079  -15.4850   21.5184 N   0  0  0  0  0  0  0  0  0  0  0  0
  -16.5044  -20.4610   23.2237 N   0  3  0  0  0  0  0  0  0  0  0  0
  -22.7910  -14.8249   21.4629 O   0  0  0  0  0  0  0  0  0  0  0  0
  -21.5690  -27.0173   24.4724 O   0  0  0  0  0  0  0  0  0  0  0  0
  -17.9656  -26.1920   23.7447 O   0  0  0  0  0  0  0  0  0  0  0  0
  -18.5454  -21.5995   24.7904 O   0  0  0  0  0  0  0  0  0  0  0  0
  -31.9856  -14.7044   20.1645 O   0  0  0  0  0  0  0  0  0  0  0  0
  -21.4539   -7.1593   21.6547 O   0  0  0  0  0  0  0  0  0  0  0  0
  -25.0806  -21.6650   22.8828 O   0  0  0  0  0  0  0  0  0  1  0  0
  -18.5549   -6.9793   26.3417 F   0  0  0  0  0  0  0  0  0  0  0  0
  -21.8682   -5.1449   23.5022 F   0  0  0  0  0  0  0  0  0  0  0  0
  1  2  1  0  0  0  0
  1  5  2  0  0  0  0
  2  6  2  0  0  0  0
  3  8  2  0  0  0  0
  3 17  1  0  0  0  0
  4  9  1  0  0  0  0
  4 17  2  0  0  0  0
  5 19  1  0  0  0  0
  6 21  1  0  0  0  0
  7 10  2  0  0  0  0
  7 20  1  0  0  0  0
  8 24  1  0  0  0  0
  9 24  2  0  0  0  0
 10 25  1  0  0  0  0
 11 12  2  0  0  0  0
 11 26  1  0  0  0  0
 12 27  1  0  0  0  0
 13 22  1  0  0  0  0
 13 25  2  0  0  0  0
 14 23  1  0  0  0  0
 14 30  2  0  0  0  0
 15 27  2  0  0  0  0
 15 28  1  0  0  0  0
 16 23  2  0  0  0  0
 16 66  1  0  0  0  0
 17 29  1  0  0  0  0
 18 29  1  0  0  0  0
 18 31  2  0  0  0  0
 18 32  1  0  0  0  0
 19 21  2  0  0  0  0
 19 37  1  0  0  0  0
 20 22  2  0  0  0  0
 20 38  1  0  0  0  0
 21 46  1  0  0  0  0
 22 39  1  0  0  0  0
 23 60  1  0  0  0  0
 24 81  1  0  0  0  0
 25 82  1  0  0  0  0
 26 28  2  0  0  0  0
 26 81  1  0  0  0  0
 27 83  1  0  0  0  0
 28 84  1  0  0  0  0
 29 65  2  0  0  0  0
 30 49  1  0  0  0  0
 30 66  1  0  0  0  0
 31 67  1  0  0  0  0
 31 70  1  0  0  0  0
 32 71  1  0  0  0  0
 32 76  2  0  0  0  0
 33 47  1  0  0  0  0
 33 72  1  0  0  0  0
 33 77  2  0  0  0  0
 34 61  1  0  0  0  0
 34 68  1  0  0  0  0
 34 78  2  0  0  0  0
 35 62  1  0  0  0  0
 35 73  1  0  0  0  0
 35 79  2  0  0  0  0
 36 69  1  0  0  0  0
 36 74  1  0  0  0  0
 36 80  2  0  0  0  0
 37 40  1  0  0  0  0
 38 47  1  0  0  0  0
 39 68  1  0  0  0  0
 40 42  1  0  0  0  0
 41 43  1  0  0  0  0
 41 44  1  0  0  0  0
 42 46  1  0  0  0  0
 43 48  1  0  0  0  0
 44 69  1  0  0  0  0
 45 48  1  0  0  0  0
 45 69  1  0  0  0  0
 46 72  1  0  0  0  0
 47 68  1  0  0  0  0
 48 67  1  0  0  0  0
 50 60  1  0  0  0  0
 51 62  1  0  0  0  0
 52 63  1  0  0  0  0
 53 63  1  0  0  0  0
 54 63  1  0  0  0  0
 55 64  1  0  0  0  0
 56 64  1  0  0  0  0
 57 75  1  0  0  0  0
 58 60  1  0  0  0  0
 58 74  1  0  0  0  0
 59 64  1  0  0  0  0
 59 82  1  0  0  0  0
 61 63  1  0  0  0  0
 61 73  1  0  0  0  0
 62 75  1  0  0  0  0
 64 66  1  0  0  0  0
 65 67  1  0  0  0  0
M  CHG  1  75   1
M  ISO  4  36 100  59 101  74 100  82 101
M  END
> <Batch ID>
0083

> <Smiles>
CNC(C)C(=O)NC(C(=O)N1Cc2cc([101O:1][101CH2:1]C(C)(C)n3cc(C(C)C[100NH:0][100C:0](=O)N4CCCC(n5nc(-c6ccc(Oc7ccc(F)cc7F)cc6)c(C(N)=O)c5N)C4)cc3C)ccc2CC1C(=O)NC1CCCc2ccccc21)C(C)(C)C

> <Shape>
0.277

> <Color>
0.215

> <Negative vol penalty>
0.000

$$$$

  -OEChem-04052318513D

 85 93  0     1  0  0  0  0  0999 V2000
  -18.0001  -33.3037   22.6428 C   0  0  0  0  0  0  0  0  0  0  0  0
  -19.2017  -33.3016   21.9416 C   0  0  0  0  0  0  0  0  0  0  0  0
  -25.0374  -13.1399   19.2029 C   0  0  0  0  0  0  0  0  0  0  0  0
  -25.2693  -14.3629   21.2735 C   0  0  0  0  0  0  0  0  0  0  0  0
  -17.7966  -32.3919   23.6777 C   0  0  0  0  0  0  0  0  0  0  0  0
  -20.2009  -32.3881   22.2757 C   0  0  0  0  0  0  0  0  0  0  0  0
  -25.4685  -28.5437   19.3109 C   0  0  0  0  0  0  0  0  0  0  0  0
  -25.0134  -11.9402   19.9142 C   0  0  0  0  0  0  0  0  0  0  0  0
  -25.2452  -13.1633   21.9848 C   0  0  0  0  0  0  0  0  0  0  0  0
  -26.8311  -28.2889   19.4598 C   0  0  0  0  0  0  0  0  0  0  0  0
  -22.7819  -10.1676   21.7339 C   0  0  0  0  0  0  0  0  0  0  0  0
  -21.8164   -9.2245   21.3818 C   0  0  0  0  0  0  0  0  0  0  0  0
  -26.3376  -26.7079   21.2137 C   0  0  0  0  0  0  0  0  0  0  0  0
  -29.0244  -23.2277   16.5510 C   0  0  0  0  0  0  0  0  0  0  0  0
  -23.5594   -7.6349   20.8599 C   0  0  0  0  0  0  0  0  0  0  0  0
  -28.1402  -24.5293   18.1616 C   0  0  0  0  0  0  0  0  0  0  0  0
  -25.1655  -14.3512   19.8826 C   0  0  0  0  0  0  0  0  0  0  0  0
  -24.0892  -16.3938   18.7977 C   0  0  0  0  0  0  0  0  0  0  0  0
  -18.7902  -31.4604   24.0182 C   0  0  0  0  0  0  0  0  0  0  0  0
  -24.5293  -27.8895   20.1211 C   0  0  0  0  0  0  0  0  0  0  0  0
  -20.0111  -31.4638   23.3170 C   0  0  0  0  0  0  0  0  0  0  0  0
  -24.9635  -26.9542   21.0713 C   0  0  0  0  0  0  0  0  0  0  0  0
  -27.8424  -23.8765   16.9858 C   0  0  0  0  0  0  0  0  0  0  0  0
  -25.1172  -11.9519   21.3051 C   0  0  0  0  0  0  0  0  0  0  0  0
  -27.2660  -27.3730   20.4133 C   0  0  0  0  0  0  0  0  0  0  0  0
  -24.1362   -9.8444   21.6489 C   0  0  0  0  0  0  0  0  0  0  0  0
  -22.2051   -7.9582   20.9449 C   0  0  0  0  0  0  0  0  0  0  0  0
  -24.5249   -8.5781   21.2119 C   0  0  0  0  0  0  0  0  0  0  0  0
  -25.1910  -15.5907   19.1484 C   0  0  0  0  0  0  0  0  0  0  0  0
  -30.0085  -23.5037   17.4745 C   0  0  0  0  0  0  0  0  0  0  0  0
  -24.6385  -17.4503   18.1131 C   0  0  0  0  0  0  0  0  0  0  0  0
  -22.6940  -16.2020   19.0667 C   0  0  0  0  0  0  0  0  0  0  0  0
  -22.3731  -28.8261   22.2605 C   0  0  0  0  0  0  0  0  0  0  0  0
  -21.5394  -25.6916   22.2157 C   0  0  0  0  0  0  0  0  0  0  0  0
  -22.4472  -22.4608   21.5957 C   0  0  0  0  0  0  0  0  0  0  0  0
  -30.0008  -19.9114   18.3223 C   0  0  0  0  0  0  0  0  0  0  0  0
  -18.5427  -30.5255   25.1756 C   0  0  0  0  0  0  0  0  0  0  0  0
  -23.0613  -28.1556   19.9297 C   0  0  0  0  0  0  0  0  0  0  0  0
  -23.9944  -26.2103   21.9520 C   0  0  0  0  0  0  0  0  0  0  0  0
  -19.5069  -29.3429   25.2201 C   0  0  0  0  0  0  0  0  0  0  0  0
  -28.3881  -18.5885   15.3649 C   0  0  0  0  0  0  0  0  0  0  0  0
  -20.9417  -29.8156   25.0090 C   0  0  0  0  0  0  0  0  0  0  0  0
  -27.2730  -17.7409   15.9800 C   0  0  0  0  0  0  0  0  0  0  0  0
  -29.6647  -18.5105   16.1970 C   0  0  0  0  0  0  0  0  0  0  0  0
  -28.3771  -18.0406   18.2451 C   0  0  0  0  0  0  0  0  0  0  0  0
  -21.1095  -30.4721   23.6334 C   0  0  1  0  0  0  0  0  0  0  0  0
  -22.2267  -27.8136   21.1601 C   0  0  1  0  0  0  0  0  0  0  0  0
  -27.0525  -18.0954   17.4625 C   0  0  2  0  0  0  0  0  0  0  0  0
  -21.5633  -20.1140   21.6879 C   0  0  0  0  0  0  0  0  0  0  0  0
  -25.9715  -22.4026   16.1654 C   0  0  0  0  0  0  0  0  0  0  0  0
  -26.6199  -24.4550   14.8603 C   0  0  0  0  0  0  0  0  0  0  0  0
  -25.3826  -24.6670   17.0063 C   0  0  0  0  0  0  0  0  0  0  0  0
  -21.8665  -25.6902   25.2493 C   0  0  0  0  0  0  0  0  0  0  0  0
  -21.9133  -23.1882   25.1733 C   0  0  0  0  0  0  0  0  0  0  0  0
  -19.8813  -24.4195   24.4135 C   0  0  0  0  0  0  0  0  0  0  0  0
  -22.8107  -22.0858   18.6826 C   0  0  0  0  0  0  0  0  0  0  0  0
  -31.4233  -23.0789   17.5078 C   0  0  0  0  0  0  0  0  0  0  0  0
  -30.5966  -26.3023   19.5227 C   0  0  0  0  0  0  0  0  0  0  0  0
  -30.1803  -24.8359   19.6583 C   0  0  0  0  0  0  0  0  0  0  0  0
  -31.6634  -21.7520   18.2496 C   0  0  0  0  0  0  0  0  0  0  0  0
  -29.4146  -27.2569   19.4004 C   0  0  0  0  0  0  0  0  0  1  0  0
  -21.9639  -24.4614   22.9807 C   0  0  1  0  0  0  0  0  0  0  0  0
  -21.7564  -21.3507   20.8243 C   0  0  2  0  0  0  0  0  0  0  0  0
  -26.5334  -23.8577   16.3055 C   0  0  0  0  0  0  0  0  0  0  0  0
  -21.4249  -24.4551   24.4391 C   0  0  0  0  0  0  0  0  0  0  0  0
  -26.3524  -16.0938   18.7218 N   0  0  0  0  0  0  0  0  0  0  0  0
  -29.4596  -24.2954   18.4492 N   0  0  0  0  0  0  0  0  0  0  0  0
  -25.9835  -17.2244   18.0958 N   0  0  0  0  0  0  0  0  0  0  0  0
  -22.5699  -26.5097   21.7312 N   0  0  0  0  0  0  0  0  0  0  0  0
  -29.3898  -18.8777   17.5933 N   0  0  0  0  0  0  0  0  0  0  0  0
  -24.0974  -18.5411   17.5302 N   0  0  0  0  0  0  0  0  0  0  0  0
  -22.3021  -15.0627   19.7826 N   0  0  0  0  0  0  0  0  0  0  0  0
  -21.1947  -29.4635   22.5990 N   0  0  0  0  0  0  0  0  0  0  0  0
  -21.5391  -23.3170   22.1818 N   0  0  0  0  0  0  0  0  0  0  0  0
  -30.9538  -20.6525   17.6343 N   0  0  0  0  0  0  0  0  0  0  0  0
  -22.5635  -20.9694   19.6310 N   0  3  0  0  0  0  0  0  0  0  0  0
  -21.8192  -17.0084   18.6693 O   0  0  0  0  0  0  0  0  0  0  0  0
  -23.4735  -29.0141   22.7661 O   0  0  0  0  0  0  0  0  0  0  0  0
  -20.3378  -25.9147   22.0478 O   0  0  0  0  0  0  0  0  0  0  0  0
  -23.6700  -22.5565   21.6738 O   0  0  0  0  0  0  0  0  0  0  0  0
  -29.7144  -20.1594   19.4986 O   0  0  0  0  0  0  0  0  0  0  0  0
  -25.0936  -10.7815   21.9995 O   0  0  0  0  0  0  0  0  0  0  0  0
  -28.5955  -27.1230   20.5612 O   0  0  0  0  0  0  0  0  0  1  0  0
  -21.2778   -7.0521   20.6083 F   0  0  0  0  0  0  0  0  0  0  0  0
  -25.8244   -8.2613   21.1293 F   0  0  0  0  0  0  0  0  0  0  0  0
  1  2  1  0  0  0  0
  1  5  2  0  0  0  0
  2  6  2  0  0  0  0
  3  8  2  0  0  0  0
  3 17  1  0  0  0  0
  4  9  1  0  0  0  0
  4 17  2  0  0  0  0
  5 19  1  0  0  0  0
  6 21  1  0  0  0  0
  7 10  2  0  0  0  0
  7 20  1  0  0  0  0
  8 24  1  0  0  0  0
  9 24  2  0  0  0  0
 10 25  1  0  0  0  0
 11 12  2  0  0  0  0
 11 26  1  0  0  0  0
 12 27  1  0  0  0  0
 13 22  1  0  0  0  0
 13 25  2  0  0  0  0
 14 23  1  0  0  0  0
 14 30  2  0  0  0  0
 15 27  2  0  0  0  0
 15 28  1  0  0  0  0
 16 23  2  0  0  0  0
 16 67  1  0  0  0  0
 17 29  1  0  0  0  0
 18 29  1  0  0  0  0
 18 31  2  0  0  0  0
 18 32  1  0  0  0  0
 19 21  2  0  0  0  0
 19 37  1  0  0  0  0
 20 22  2  0  0  0  0
 20 38  1  0  0  0  0
 21 46  1  0  0  0  0
 22 39  1  0  0  0  0
 23 64  1  0  0  0  0
 24 82  1  0  0  0  0
 25 83  1  0  0  0  0
 26 28  2  0  0  0  0
 26 82  1  0  0  0  0
 27 84  1  0  0  0  0
 28 85  1  0  0  0  0
 29 66  2  0  0  0  0
 30 57  1  0  0  0  0
 30 67  1  0  0  0  0
 31 68  1  0  0  0  0
 31 71  1  0  0  0  0
 32 72  1  0  0  0  0
 32 77  2  0  0  0  0
 33 47  1  0  0  0  0
 33 73  1  0  0  0  0
 33 78  2  0  0  0  0
 34 62  1  0  0  0  0
 34 69  1  0  0  0  0
 34 79  2  0  0  0  0
 35 63  1  0  0  0  0
 35 74  1  0  0  0  0
 35 80  2  0  0  0  0
 36 70  1  0  0  0  0
 36 75  1  0  0  0  0
 36 81  2  0  0  0  0
 37 40  1  0  0  0  0
 38 47  1  0  0  0  0
 39 69  1  0  0  0  0
 40 42  1  0  0  0  0
 41 43  1  0  0  0  0
 41 44  1  0  0  0  0
 42 46  1  0  0  0  0
 43 48  1  0  0  0  0
 44 70  1  0  0  0  0
 45 48  1  0  0  0  0
 45 70  1  0  0  0  0
 46 73  1  0  0  0  0
 47 69  1  0  0  0  0
 48 68  1  0  0  0  0
 49 63  1  0  0  0  0
 50 64  1  0  0  0  0
 51 64  1  0  0  0  0
 52 64  1  0  0  0  0
 53 65  1  0  0  0  0
 54 65  1  0  0  0  0
 55 65  1  0  0  0  0
 56 76  1  0  0  0  0
 57 60  1  0  0  0  0
 58 59  1  0  0  0  0
 58 61  1  0  0  0  0
 59 67  1  0  0  0  0
 60 75  1  0  0  0  0
 61 83  1  0  0  0  0
 62 65  1  0  0  0  0
 62 74  1  0  0  0  0
 63 76  1  0  0  0  0
 66 68  1  0  0  0  0
M  CHG  1  76   1
M  ISO  4  36 100  61 101  75 100  83 101
M  END
> <Batch ID>
0083

> <Smiles>
CNC(C)C(=O)NC(C(=O)N1Cc2cc([101O:1][101CH2:1]CCn3cc(C(C)(C)C)cc3CC[100NH:0][100C:0](=O)N3CCCC(n4nc(-c5ccc(Oc6ccc(F)cc6F)cc5)c(C(N)=O)c4N)C3)ccc2CC1C(=O)NC1CCCc2ccccc21)C(C)(C)C

> <Shape>
0.203

> <Color>
0.106

> <Negative vol penalty>
0.000

$$$$

  -OEChem-04052318513D

 84 92  0     1  0  0  0  0  0999 V2000
  -16.8614  -30.1045   24.1879 C   0  0  0  0  0  0  0  0  0  0  0  0
  -18.0557  -30.3576   24.8549 C   0  0  0  0  0  0  0  0  0  0  0  0
  -28.9048  -17.4540   20.0187 C   0  0  0  0  0  0  0  0  0  0  0  0
  -30.9859  -18.2393   19.0755 C   0  0  0  0  0  0  0  0  0  0  0  0
  -16.8397  -29.2187   23.1114 C   0  0  0  0  0  0  0  0  0  0  0  0
  -19.2289  -29.7242   24.4464 C   0  0  0  0  0  0  0  0  0  0  0  0
  -26.2954  -30.8111   23.9992 C   0  0  0  0  0  0  0  0  0  0  0  0
  -28.9660  -16.3197   19.2094 C   0  0  0  0  0  0  0  0  0  0  0  0
  -31.0471  -17.1049   18.2661 C   0  0  0  0  0  0  0  0  0  0  0  0
  -27.5020  -30.2152   24.3637 C   0  0  0  0  0  0  0  0  0  0  0  0
  -31.9070  -13.8536   18.5983 C   0  0  0  0  0  0  0  0  0  0  0  0
  -33.1302  -13.1895   18.5073 C   0  0  0  0  0  0  0  0  0  0  0  0
  -27.3598  -28.7652   22.4412 C   0  0  0  0  0  0  0  0  0  0  0  0
  -31.9636  -30.1678   22.2244 C   0  0  0  0  0  0  0  0  0  0  0  0
  -32.2263  -27.7771   22.2074 C   0  0  0  0  0  0  0  0  0  0  0  0
  -33.1622  -13.5750   16.1225 C   0  0  0  0  0  0  0  0  0  0  0  0
  -29.9148  -18.4139   19.9517 C   0  0  0  0  0  0  0  0  0  0  0  0
  -30.3824  -19.7365   22.0823 C   0  0  0  0  0  0  0  0  0  0  0  0
  -18.0151  -28.5815   22.6834 C   0  0  0  0  0  0  0  0  0  0  0  0
  -25.6053  -30.3803   22.8570 C   0  0  0  0  0  0  0  0  0  0  0  0
  -19.2227  -28.8281   23.3640 C   0  0  0  0  0  0  0  0  0  0  0  0
  -26.1459  -29.3589   22.0629 C   0  0  0  0  0  0  0  0  0  0  0  0
  -31.9307  -28.9496   22.8939 C   0  0  0  0  0  0  0  0  0  0  0  0
  -30.0371  -16.1450   18.3331 C   0  0  0  0  0  0  0  0  0  0  0  0
  -28.0329  -29.1901   23.5863 C   0  0  0  0  0  0  0  0  0  0  0  0
  -31.3113  -14.3784   17.4513 C   0  0  0  0  0  0  0  0  0  0  0  0
  -33.7578  -13.0502   17.2695 C   0  0  0  0  0  0  0  0  0  0  0  0
  -31.9389  -14.2391   16.2134 C   0  0  0  0  0  0  0  0  0  0  0  0
  -29.8518  -19.5862   20.7871 C   0  0  0  0  0  0  0  0  0  0  0  0
  -32.2953  -30.1597   20.8792 C   0  0  0  0  0  0  0  0  0  0  0  0
  -32.5459  -27.8761   20.8629 C   0  0  0  0  0  0  0  0  0  0  0  0
  -30.0594  -21.0231   22.4385 C   0  0  0  0  0  0  0  0  0  0  0  0
  -31.1030  -18.7972   22.8912 C   0  0  0  0  0  0  0  0  0  0  0  0
  -22.7569  -29.0776   22.3153 C   0  0  0  0  0  0  0  0  0  0  0  0
  -23.6029  -29.4672   19.2081 C   0  0  0  0  0  0  0  0  0  0  0  0
  -26.0989  -29.8106   16.9062 C   0  0  0  0  0  0  0  0  0  0  0  0
  -28.9027  -25.9650   19.2619 C   0  0  0  0  0  0  0  0  0  0  0  0
  -17.9332  -27.5959   21.5447 C   0  0  0  0  0  0  0  0  0  0  0  0
  -24.3184  -31.0515   22.4625 C   0  0  0  0  0  0  0  0  0  0  0  0
  -25.4545  -28.8738   20.8159 C   0  0  0  0  0  0  0  0  0  0  0  0
  -19.2910  -27.2524   20.9376 C   0  0  0  0  0  0  0  0  0  0  0  0
  -26.7740  -24.4121   21.6564 C   0  0  0  0  0  0  0  0  0  0  0  0
  -20.3072  -26.9557   22.0359 C   0  0  0  0  0  0  0  0  0  0  0  0
  -27.3693  -23.0127   21.8220 C   0  0  0  0  0  0  0  0  0  0  0  0
  -26.8776  -24.9024   20.2139 C   0  0  0  0  0  0  0  0  0  0  0  0
  -28.8306  -23.4558   19.8054 C   0  0  0  0  0  0  0  0  0  0  0  0
  -20.5209  -28.1794   22.9350 C   0  0  1  0  0  0  0  0  0  0  0  0
  -23.4427  -30.1836   21.5641 C   0  0  1  0  0  0  0  0  0  0  0  0
  -28.7997  -22.9412   21.2547 C   0  0  2  0  0  0  0  0  0  0  0  0
  -32.3421  -31.4487   20.1288 C   0  0  0  0  0  0  0  0  0  0  0  0
  -32.5972  -29.6696   25.2110 C   0  0  0  0  0  0  0  0  0  0  0  0
  -26.4819  -30.0718   14.4399 C   0  0  0  0  0  0  0  0  0  0  0  0
  -23.0051  -26.5026   18.8037 C   0  0  0  0  0  0  0  0  0  0  0  0
  -24.2804  -26.6103   16.6519 C   0  0  0  0  0  0  0  0  0  0  0  0
  -22.2216  -27.9871   16.9499 C   0  0  0  0  0  0  0  0  0  0  0  0
  -27.4154  -32.4361   17.2710 C   0  0  0  0  0  0  0  0  0  0  0  0
  -32.8668  -26.6377   20.0946 C   0  0  0  0  0  0  0  0  0  0  0  0
  -32.4994  -26.7023   18.5993 C   0  0  0  0  0  0  0  0  0  0  0  0
  -31.0083  -26.8863   18.3256 C   0  0  0  0  0  0  0  0  0  0  0  0
  -30.1541  -29.4184   24.6372 C   0  0  0  0  0  0  0  0  0  1  0  0
  -31.5740  -28.8999   24.3713 C   0  0  1  0  0  0  0  0  0  0  0  0
  -24.3318  -28.6295   18.1854 C   0  0  1  0  0  0  0  0  0  0  0  0
  -26.2882  -30.7932   15.7646 C   0  0  2  0  0  0  0  0  0  0  0  0
  -23.4720  -27.4400   17.6722 C   0  0  0  0  0  0  0  0  0  0  0  0
  -29.2381  -20.6891   20.3501 N   0  0  0  0  0  0  0  0  0  0  0  0
  -32.5883  -29.0412   20.1786 N   0  0  0  0  0  0  0  0  0  0  0  0
  -29.3810  -21.5447   21.3765 N   0  0  0  0  0  0  0  0  0  0  0  0
  -24.1957  -29.5573   20.4755 N   0  0  0  0  0  0  0  0  0  0  0  0
  -28.2595  -24.8101   19.7368 N   0  0  0  0  0  0  0  0  0  0  0  0
  -30.2921  -21.7477   23.5535 N   0  0  0  0  0  0  0  0  0  0  0  0
  -31.3491  -17.5189   22.3718 N   0  0  0  0  0  0  0  0  0  0  0  0
  -21.3772  -29.1447   22.2797 N   0  0  0  0  0  0  0  0  0  0  0  0
  -24.7653  -29.5487   17.1388 N   0  0  0  0  0  0  0  0  0  0  0  0
  -30.2134  -25.7910   18.8347 N   0  0  0  0  0  0  0  0  0  0  0  0
  -27.4818  -31.6507   16.0117 N   0  3  0  0  0  0  0  0  0  0  0  0
  -31.5020  -19.0776   24.0469 O   0  0  0  0  0  0  0  0  0  0  0  0
  -23.4298  -28.2257   22.8838 O   0  0  0  0  0  0  0  0  0  0  0  0
  -22.5502  -30.0271   18.8918 O   0  0  0  0  0  0  0  0  0  0  0  0
  -27.0402  -29.3214   17.5268 O   0  0  0  0  0  0  0  0  0  0  0  0
  -28.3516  -27.0704   19.2266 O   0  0  0  0  0  0  0  0  0  0  0  0
  -30.0973  -15.0381   17.5434 O   0  0  0  0  0  0  0  0  0  0  0  0
  -29.2101  -28.6064   23.9402 O   0  0  0  0  0  0  0  0  0  1  0  0
  -34.9333  -12.4138   17.1825 F   0  0  0  0  0  0  0  0  0  0  0  0
  -31.3721  -14.7421   15.1083 F   0  0  0  0  0  0  0  0  0  0  0  0
  1  2  1  0  0  0  0
  1  5  2  0  0  0  0
  2  6  2  0  0  0  0
  3  8  2  0  0  0  0
  3 17  1  0  0  0  0
  4  9  1  0  0  0  0
  4 17  2  0  0  0  0
  5 19  1  0  0  0  0
  6 21  1  0  0  0  0
  7 10  2  0  0  0  0
  7 20  1  0  0  0  0
  8 24  1  0  0  0  0
  9 24  2  0  0  0  0
 10 25  1  0  0  0  0
 11 12  2  0  0  0  0
 11 26  1  0  0  0  0
 12 27  1  0  0  0  0
 13 22  1  0  0  0  0
 13 25  2  0  0  0  0
 14 23  1  0  0  0  0
 14 30  2  0  0  0  0
 15 23  2  0  0  0  0
 15 31  1  0  0  0  0
 16 27  2  0  0  0  0
 16 28  1  0  0  0  0
 17 29  1  0  0  0  0
 18 29  1  0  0  0  0
 18 32  2  0  0  0  0
 18 33  1  0  0  0  0
 19 21  2  0  0  0  0
 19 38  1  0  0  0  0
 20 22  2  0  0  0  0
 20 39  1  0  0  0  0
 21 47  1  0  0  0  0
 22 40  1  0  0  0  0
 23 61  1  0  0  0  0
 24 81  1  0  0  0  0
 25 82  1  0  0  0  0
 26 28  2  0  0  0  0
 26 81  1  0  0  0  0
 27 83  1  0  0  0  0
 28 84  1  0  0  0  0
 29 65  2  0  0  0  0
 30 50  1  0  0  0  0
 30 66  1  0  0  0  0
 31 57  1  0  0  0  0
 31 66  2  0  0  0  0
 32 67  1  0  0  0  0
 32 70  1  0  0  0  0
 33 71  1  0  0  0  0
 33 76  2  0  0  0  0
 34 48  1  0  0  0  0
 34 72  1  0  0  0  0
 34 77  2  0  0  0  0
 35 62  1  0  0  0  0
 35 68  1  0  0  0  0
 35 78  2  0  0  0  0
 36 63  1  0  0  0  0
 36 73  1  0  0  0  0
 36 79  2  0  0  0  0
 37 69  1  0  0  0  0
 37 74  1  0  0  0  0
 37 80  2  0  0  0  0
 38 41  1  0  0  0  0
 39 48  1  0  0  0  0
 40 68  1  0  0  0  0
 41 43  1  0  0  0  0
 42 44  1  0  0  0  0
 42 45  1  0  0  0  0
 43 47  1  0  0  0  0
 44 49  1  0  0  0  0
 45 69  1  0  0  0  0
 46 49  1  0  0  0  0
 46 69  1  0  0  0  0
 47 72  1  0  0  0  0
 48 68  1  0  0  0  0
 49 67  1  0  0  0  0
 51 61  1  0  0  0  0
 52 63  1  0  0  0  0
 53 64  1  0  0  0  0
 54 64  1  0  0  0  0
 55 64  1  0  0  0  0
 56 75  1  0  0  0  0
 57 58  1  0  0  0  0
 58 59  1  0  0  0  0
 59 74  1  0  0  0  0
 60 61  1  0  0  0  0
 60 82  1  0  0  0  0
 62 64  1  0  0  0  0
 62 73  1  0  0  0  0
 63 75  1  0  0  0  0
 65 67  1  0  0  0  0
M  CHG  1  75   1
M  ISO  4  37 100  60 101  74 100  82 101
M  END
> <Batch ID>
0083

> <Smiles>
CNC(C)C(=O)NC(C(=O)N1Cc2cc([101O:1][101CH2:1]C(C)c3cc(C)nc(CCC[100NH:0][100C:0](=O)N4CCCC(n5nc(-c6ccc(Oc7ccc(F)cc7F)cc6)c(C(N)=O)c5N)C4)c3)ccc2CC1C(=O)NC1CCCc2ccccc21)C(C)(C)C

> <Shape>
0.227

> <Color>
0.100

> <Negative vol penalty>
0.000

$$$$

  -OEChem-04052318513D

 84 92  0     1  0  0  0  0  0999 V2000
  -26.7704  -28.8490   19.0355 C   0  0  0  0  0  0  0  0  0  0  0  0
  -27.3644  -27.6123   19.2661 C   0  0  0  0  0  0  0  0  0  0  0  0
  -23.3106   -9.8464   19.8710 C   0  0  0  0  0  0  0  0  0  0  0  0
  -23.8303   -9.9033   22.2297 C   0  0  0  0  0  0  0  0  0  0  0  0
  -25.6265  -29.2145   19.7439 C   0  0  0  0  0  0  0  0  0  0  0  0
  -26.8155  -26.7408   20.2061 C   0  0  0  0  0  0  0  0  0  0  0  0
  -26.6828  -20.6248   19.9194 C   0  0  0  0  0  0  0  0  0  0  0  0
  -22.6222   -8.6468   20.0515 C   0  0  0  0  0  0  0  0  0  0  0  0
  -23.1419   -8.7037   22.4103 C   0  0  0  0  0  0  0  0  0  0  0  0
  -27.4856  -19.6411   20.4954 C   0  0  0  0  0  0  0  0  0  0  0  0
  -21.0337   -5.3832   19.8298 C   0  0  0  0  0  0  0  0  0  0  0  0
  -21.2597   -4.3592   18.9100 C   0  0  0  0  0  0  0  0  0  0  0  0
  -25.8987  -19.4097   22.2975 C   0  0  0  0  0  0  0  0  0  0  0  0
  -29.7535  -16.3588   23.4807 C   0  0  0  0  0  0  0  0  0  0  0  0
  -23.6026   -4.3464   19.5001 C   0  0  0  0  0  0  0  0  0  0  0  0
  -23.9148  -10.4747   20.9600 C   0  0  0  0  0  0  0  0  0  0  0  0
  -24.1010  -13.0168   20.8586 C   0  0  0  0  0  0  0  0  0  0  0  0
  -25.0577  -28.3431   20.6861 C   0  0  0  0  0  0  0  0  0  0  0  0
  -25.4853  -21.0167   20.5349 C   0  0  0  0  0  0  0  0  0  0  0  0
  -25.6637  -27.0956   20.9287 C   0  0  0  0  0  0  0  0  0  0  0  0
  -25.0813  -20.3968   21.7260 C   0  0  0  0  0  0  0  0  0  0  0  0
  -28.4218  -16.4898   23.9458 C   0  0  0  0  0  0  0  0  0  0  0  0
  -22.5378   -8.0755   21.3212 C   0  0  0  0  0  0  0  0  0  0  0  0
  -27.0951  -19.0355   21.6861 C   0  0  0  0  0  0  0  0  0  0  0  0
  -22.0921   -5.8889   20.5846 C   0  0  0  0  0  0  0  0  0  0  0  0
  -22.5441   -3.8408   18.7452 C   0  0  0  0  0  0  0  0  0  0  0  0
  -23.3765   -5.3705   20.4198 C   0  0  0  0  0  0  0  0  0  0  0  0
  -24.6265  -11.7136   20.7740 C   0  0  0  0  0  0  0  0  0  0  0  0
  -30.3306  -15.3174   24.1733 C   0  0  0  0  0  0  0  0  0  0  0  0
  -28.2256  -15.5245   24.9087 C   0  0  0  0  0  0  0  0  0  0  0  0
  -25.1731  -13.8366   20.6034 C   0  0  0  0  0  0  0  0  0  0  0  0
  -22.7634  -13.4479   21.1424 C   0  0  0  0  0  0  0  0  0  0  0  0
  -24.3760  -23.7329   21.7578 C   0  0  0  0  0  0  0  0  0  0  0  0
  -21.6359  -22.0234   22.0601 C   0  0  0  0  0  0  0  0  0  0  0  0
  -20.1436  -18.9666   22.3361 C   0  0  0  0  0  0  0  0  0  0  0  0
  -31.0868  -13.1236   21.2128 C   0  0  0  0  0  0  0  0  0  0  0  0
  -23.8480  -28.8015   21.4614 C   0  0  0  0  0  0  0  0  0  0  0  0
  -24.6173  -22.0603   19.8869 C   0  0  0  0  0  0  0  0  0  0  0  0
  -23.7947  -20.7672   22.4160 C   0  0  0  0  0  0  0  0  0  0  0  0
  -23.1127  -27.6668   22.1700 C   0  0  0  0  0  0  0  0  0  0  0  0
  -29.3253  -13.9409   18.2286 C   0  0  0  0  0  0  0  0  0  0  0  0
  -24.1014  -26.7654   22.9026 C   0  0  0  0  0  0  0  0  0  0  0  0
  -27.8739  -13.5803   18.5502 C   0  0  0  0  0  0  0  0  0  0  0  0
  -30.3054  -12.9597   18.8678 C   0  0  0  0  0  0  0  0  0  0  0  0
  -28.6853  -12.4136   20.6428 C   0  0  0  0  0  0  0  0  0  0  0  0
  -25.0836  -26.1126   21.9224 C   0  0  1  0  0  0  0  0  0  0  0  0
  -23.6729  -22.7460   20.8693 C   0  0  1  0  0  0  0  0  0  0  0  0
  -27.6619  -13.4068   20.0662 C   0  0  2  0  0  0  0  0  0  0  0  0
  -27.0265  -15.2144   25.7163 C   0  0  0  0  0  0  0  0  0  0  0  0
  -29.8174  -14.1800   27.3800 C   0  0  0  0  0  0  0  0  0  0  0  0
  -17.8928  -17.8905   22.6067 C   0  0  0  0  0  0  0  0  0  0  0  0
  -32.5515  -14.8100   25.4007 C   0  0  0  0  0  0  0  0  0  0  0  0
  -32.5539  -15.5533   23.0336 C   0  0  0  0  0  0  0  0  0  0  0  0
  -21.6132  -22.8172   25.0062 C   0  0  0  0  0  0  0  0  0  0  0  0
  -19.9467  -20.9936   25.4128 C   0  0  0  0  0  0  0  0  0  0  0  0
  -19.3762  -22.8854   23.8902 C   0  0  0  0  0  0  0  0  0  0  0  0
  -20.4006  -17.5143   19.7703 C   0  0  0  0  0  0  0  0  0  0  0  0
  -27.4161  -17.4971   23.4711 C   0  0  0  0  0  0  0  0  0  1  0  0
  -29.6032  -13.7130   25.9505 C   0  0  0  0  0  0  0  0  0  0  0  0
  -31.7167  -13.2551   23.6097 C   0  0  0  0  0  0  0  0  0  0  0  0
  -21.0394  -21.1399   23.1291 C   0  0  1  0  0  0  0  0  0  0  0  0
  -18.9506  -18.3597   21.6200 C   0  0  2  0  0  0  0  0  0  0  0  0
  -31.6955  -14.7598   24.0799 C   0  0  0  0  0  0  0  0  0  0  0  0
  -20.5191  -21.9532   24.3478 C   0  0  0  0  0  0  0  0  0  0  0  0
  -25.9310  -11.7012   20.4874 N   0  0  0  0  0  0  0  0  0  0  0  0
  -29.3926  -14.8180   25.0388 N   0  0  0  0  0  0  0  0  0  0  0  0
  -26.2342  -13.0068   20.3896 N   0  0  0  0  0  0  0  0  0  0  0  0
  -22.9836  -21.7974   21.7465 N   0  0  0  0  0  0  0  0  0  0  0  0
  -30.0519  -12.8421   20.3058 N   0  0  0  0  0  0  0  0  0  0  0  0
  -25.3023  -15.1790   20.5433 N   0  0  0  0  0  0  0  0  0  0  0  0
  -21.7840  -12.4741   21.3809 N   0  0  0  0  0  0  0  0  0  0  0  0
  -24.4508  -25.0089   21.2327 N   0  0  0  0  0  0  0  0  0  0  0  0
  -20.0184  -20.3333   22.4692 N   0  0  0  0  0  0  0  0  0  0  0  0
  -30.7603  -12.9938   22.5572 N   0  0  0  0  0  0  0  0  0  0  0  0
  -19.3784  -17.1919   20.7990 N   0  3  0  0  0  0  0  0  0  0  0  0
  -22.4425  -14.6603   21.1671 O   0  0  0  0  0  0  0  0  0  0  0  0
  -24.8167  -23.3644   22.8402 O   0  0  0  0  0  0  0  0  0  0  0  0
  -20.9300  -22.8776   21.5181 O   0  0  0  0  0  0  0  0  0  0  0  0
  -21.0901  -18.2949   22.7406 O   0  0  0  0  0  0  0  0  0  0  0  0
  -32.2164  -13.4706   20.8515 O   0  0  0  0  0  0  0  0  0  0  0  0
  -21.8659   -6.9050   21.4979 O   0  0  0  0  0  0  0  0  0  0  0  0
  -27.8771  -18.0756   22.2507 O   0  0  0  0  0  0  0  0  0  1  0  0
  -22.7608   -2.8563   17.8631 F   0  0  0  0  0  0  0  0  0  0  0  0
  -24.3970   -5.8514   21.1430 F   0  0  0  0  0  0  0  0  0  0  0  0
  1  2  1  0  0  0  0
  1  5  2  0  0  0  0
  2  6  2  0  0  0  0
  3  8  2  0  0  0  0
  3 16  1  0  0  0  0
  4  9  1  0  0  0  0
  4 16  2  0  0  0  0
  5 18  1  0  0  0  0
  6 20  1  0  0  0  0
  7 10  2  0  0  0  0
  7 19  1  0  0  0  0
  8 23  1  0  0  0  0
  9 23  2  0  0  0  0
 10 24  1  0  0  0  0
 11 12  2  0  0  0  0
 11 25  1  0  0  0  0
 12 26  1  0  0  0  0
 13 21  1  0  0  0  0
 13 24  2  0  0  0  0
 14 22  1  0  0  0  0
 14 29  2  0  0  0  0
 15 26  2  0  0  0  0
 15 27  1  0  0  0  0
 16 28  1  0  0  0  0
 17 28  1  0  0  0  0
 17 31  2  0  0  0  0
 17 32  1  0  0  0  0
 18 20  2  0  0  0  0
 18 37  1  0  0  0  0
 19 21  2  0  0  0  0
 19 38  1  0  0  0  0
 20 46  1  0  0  0  0
 21 39  1  0  0  0  0
 22 30  2  0  0  0  0
 22 58  1  0  0  0  0
 23 81  1  0  0  0  0
 24 82  1  0  0  0  0
 25 27  2  0  0  0  0
 25 81  1  0  0  0  0
 26 83  1  0  0  0  0
 27 84  1  0  0  0  0
 28 65  2  0  0  0  0
 29 63  1  0  0  0  0
 29 66  1  0  0  0  0
 30 49  1  0  0  0  0
 30 66  1  0  0  0  0
 31 67  1  0  0  0  0
 31 70  1  0  0  0  0
 32 71  1  0  0  0  0
 32 76  2  0  0  0  0
 33 47  1  0  0  0  0
 33 72  1  0  0  0  0
 33 77  2  0  0  0  0
 34 61  1  0  0  0  0
 34 68  1  0  0  0  0
 34 78  2  0  0  0  0
 35 62  1  0  0  0  0
 35 73  1  0  0  0  0
 35 79  2  0  0  0  0
 36 69  1  0  0  0  0
 36 74  1  0  0  0  0
 36 80  2  0  0  0  0
 37 40  1  0  0  0  0
 38 47  1  0  0  0  0
 39 68  1  0  0  0  0
 40 42  1  0  0  0  0
 41 43  1  0  0  0  0
 41 44  1  0  0  0  0
 42 46  1  0  0  0  0
 43 48  1  0  0  0  0
 44 69  1  0  0  0  0
 45 48  1  0  0  0  0
 45 69  1  0  0  0  0
 46 72  1  0  0  0  0
 47 68  1  0  0  0  0
 48 67  1  0  0  0  0
 50 59  1  0  0  0  0
 51 62  1  0  0  0  0
 52 63  1  0  0  0  0
 53 63  1  0  0  0  0
 54 64  1  0  0  0  0
 55 64  1  0  0  0  0
 56 64  1  0  0  0  0
 57 75  1  0  0  0  0
 58 82  1  0  0  0  0
 59 66  1  0  0  0  0
 60 63  1  0  0  0  0
 60 74  1  0  0  0  0
 61 64  1  0  0  0  0
 61 73  1  0  0  0  0
 62 75  1  0  0  0  0
 65 67  1  0  0  0  0
M  CHG  1  75   1
M  ISO  4  36 100  58 101  74 100  82 101
M  END
> <Batch ID>
0083

> <Smiles>
CCn1c(C(C)(C)C[100NH:0][100C:0](=O)N2CCCC(n3nc(-c4ccc(Oc5ccc(F)cc5F)cc4)c(C(N)=O)c3N)C2)cc([101CH2:1][101O:1]c2ccc3c(c2)CN(C(=O)C(NC(=O)C(C)NC)C(C)(C)C)C(C(=O)NC2CCCc4ccccc42)C3)c1C

> <Shape>
0.171

> <Color>
0.196

> <Negative vol penalty>
0.000

$$$$

  -OEChem-04052318513D

 84 92  0     1  0  0  0  0  0999 V2000
  -25.7190  -29.4578   21.2179 C   0  0  0  0  0  0  0  0  0  0  0  0
  -26.3576  -28.2507   21.4840 C   0  0  0  0  0  0  0  0  0  0  0  0
  -23.2303   -9.8103   19.9334 C   0  0  0  0  0  0  0  0  0  0  0  0
  -23.6754   -9.9604   22.3033 C   0  0  0  0  0  0  0  0  0  0  0  0
  -25.1866  -29.6992   19.9521 C   0  0  0  0  0  0  0  0  0  0  0  0
  -26.4630  -27.2839   20.4847 C   0  0  0  0  0  0  0  0  0  0  0  0
  -31.1158  -23.4027   19.5938 C   0  0  0  0  0  0  0  0  0  0  0  0
  -22.4650   -8.6644   20.1497 C   0  0  0  0  0  0  0  0  0  0  0  0
  -22.9101   -8.8145   22.5196 C   0  0  0  0  0  0  0  0  0  0  0  0
  -31.3041  -22.0672   19.9471 C   0  0  0  0  0  0  0  0  0  0  0  0
  -20.0969   -5.9064   20.1205 C   0  0  0  0  0  0  0  0  0  0  0  0
  -18.8688   -5.8137   19.4658 C   0  0  0  0  0  0  0  0  0  0  0  0
  -30.5568  -21.3886   17.7561 C   0  0  0  0  0  0  0  0  0  0  0  0
  -18.1225   -7.8229   20.5808 C   0  0  0  0  0  0  0  0  0  0  0  0
  -23.8356  -10.4582   21.0102 C   0  0  0  0  0  0  0  0  0  0  0  0
  -24.1787  -12.9762   20.7872 C   0  0  0  0  0  0  0  0  0  0  0  0
  -25.2941  -28.7387   18.9340 C   0  0  0  0  0  0  0  0  0  0  0  0
  -30.6355  -23.7412   18.3205 C   0  0  0  0  0  0  0  0  0  0  0  0
  -25.9303  -27.5122   19.2045 C   0  0  0  0  0  0  0  0  0  0  0  0
  -30.3657  -22.7292   17.3883 C   0  0  0  0  0  0  0  0  0  0  0  0
  -28.5406  -15.9214   24.6726 C   0  0  0  0  0  0  0  0  0  0  0  0
  -22.3048   -8.1665   21.4428 C   0  0  0  0  0  0  0  0  0  0  0  0
  -31.0218  -21.0598   19.0292 C   0  0  0  0  0  0  0  0  0  0  0  0
  -20.3378   -6.9574   21.0055 C   0  0  0  0  0  0  0  0  0  0  0  0
  -17.8816   -6.7719   19.6958 C   0  0  0  0  0  0  0  0  0  0  0  0
  -19.3507   -7.9156   21.2356 C   0  0  0  0  0  0  0  0  0  0  0  0
  -24.6268  -11.6417   20.7874 C   0  0  0  0  0  0  0  0  0  0  0  0
  -28.8540  -15.2664   25.8787 C   0  0  0  0  0  0  0  0  0  0  0  0
  -29.6156  -15.6695   23.8558 C   0  0  0  0  0  0  0  0  0  0  0  0
  -25.3063  -13.7169   20.5294 C   0  0  0  0  0  0  0  0  0  0  0  0
  -22.8611  -13.4996   21.0011 C   0  0  0  0  0  0  0  0  0  0  0  0
  -28.0490  -25.2257   17.2205 C   0  0  0  0  0  0  0  0  0  0  0  0
  -29.5763  -24.9452   14.3726 C   0  0  0  0  0  0  0  0  0  0  0  0
  -31.8769  -23.2925   12.4692 C   0  0  0  0  0  0  0  0  0  0  0  0
  -31.1429  -12.6904   21.3842 C   0  0  0  0  0  0  0  0  0  0  0  0
  -24.6614  -29.0259   17.5954 C   0  0  0  0  0  0  0  0  0  0  0  0
  -30.4632  -25.1877   17.9458 C   0  0  0  0  0  0  0  0  0  0  0  0
  -29.8673  -23.0407   16.0015 C   0  0  0  0  0  0  0  0  0  0  0  0
  -25.1448  -28.1001   16.4820 C   0  0  0  0  0  0  0  0  0  0  0  0
  -29.5322  -13.4519   18.3017 C   0  0  0  0  0  0  0  0  0  0  0  0
  -25.1362  -26.6492   16.9528 C   0  0  0  0  0  0  0  0  0  0  0  0
  -28.0519  -13.1947   18.5892 C   0  0  0  0  0  0  0  0  0  0  0  0
  -30.4298  -12.4498   19.0242 C   0  0  0  0  0  0  0  0  0  0  0  0
  -28.7226  -12.0938   20.7656 C   0  0  0  0  0  0  0  0  0  0  0  0
  -26.0866  -26.4486   18.1394 C   0  0  1  0  0  0  0  0  0  0  0  0
  -29.4807  -25.3944   16.7971 C   0  0  1  0  0  0  0  0  0  0  0  0
  -27.7806  -13.1139   20.1035 C   0  0  2  0  0  0  0  0  0  0  0  0
  -27.3327  -16.7026   24.3548 C   0  0  0  0  0  0  0  0  0  0  0  0
  -28.0474  -15.2062   27.1104 C   0  0  0  0  0  0  0  0  0  0  0  0
  -32.8786  -23.2688   10.1685 C   0  0  0  0  0  0  0  0  0  0  0  0
  -27.0464  -23.6292   13.2873 C   0  0  0  0  0  0  0  0  0  0  0  0
  -28.3962  -22.7909   11.3525 C   0  0  0  0  0  0  0  0  0  0  0  0
  -28.1367  -25.2445   11.7200 C   0  0  0  0  0  0  0  0  0  0  0  0
  -34.5903  -23.8351   13.5189 C   0  0  0  0  0  0  0  0  0  0  0  0
  -29.9062  -16.0857   22.4358 C   0  0  0  0  0  0  0  0  0  0  0  0
  -30.3465  -17.5472   22.2968 C   0  0  0  0  0  0  0  0  0  0  0  0
  -30.5620  -17.9720   20.8435 C   0  0  0  0  0  0  0  0  0  0  0  0
  -31.7540  -14.3878   24.1721 C   0  0  0  0  0  0  0  0  0  0  0  0
  -31.7013  -12.9103   23.7924 C   0  0  0  0  0  0  0  0  0  0  0  0
  -31.0364  -19.4156   20.7475 C   0  0  0  0  0  0  0  0  0  1  0  0
  -29.6133  -23.9074   13.2769 C   0  0  1  0  0  0  0  0  0  0  0  0
  -33.0055  -23.7977   11.5886 C   0  0  2  0  0  0  0  0  0  0  0  0
  -28.3057  -23.8867   12.4359 C   0  0  0  0  0  0  0  0  0  0  0  0
  -25.9368  -11.5375   20.5484 N   0  0  0  0  0  0  0  0  0  0  0  0
  -30.0355  -14.6450   25.8361 N   0  0  0  0  0  0  0  0  0  0  0  0
  -30.4740  -14.9083   24.5933 N   0  0  0  0  0  0  0  0  0  0  0  0
  -26.3215  -12.8161   20.3956 N   0  0  0  0  0  0  0  0  0  0  0  0
  -29.7089  -24.4698   15.6849 N   0  0  0  0  0  0  0  0  0  0  0  0
  -30.1229  -12.4229   20.4563 N   0  0  0  0  0  0  0  0  0  0  0  0
  -25.5184  -15.0444   20.4062 N   0  0  0  0  0  0  0  0  0  0  0  0
  -21.8173  -12.5989   21.2534 N   0  0  0  0  0  0  0  0  0  0  0  0
  -27.4586  -26.3862   17.6832 N   0  0  0  0  0  0  0  0  0  0  0  0
  -30.8189  -24.1761   12.5005 N   0  0  0  0  0  0  0  0  0  0  0  0
  -30.7656  -12.6507   22.7210 N   0  0  0  0  0  0  0  0  0  0  0  0
  -34.3226  -23.3647   12.1354 N   0  3  0  0  0  0  0  0  0  0  0  0
  -22.6136  -14.7284   20.9531 O   0  0  0  0  0  0  0  0  0  0  0  0
  -27.5186  -24.1245   17.1324 O   0  0  0  0  0  0  0  0  0  0  0  0
  -29.4422  -26.1347   14.0746 O   0  0  0  0  0  0  0  0  0  0  0  0
  -31.9271  -22.2194   13.0664 O   0  0  0  0  0  0  0  0  0  0  0  0
  -32.3026  -12.9508   21.0463 O   0  0  0  0  0  0  0  0  0  0  0  0
  -21.5579   -7.0485   21.6543 O   0  0  0  0  0  0  0  0  0  0  0  0
  -31.2040  -19.7554   19.3717 O   0  0  0  0  0  0  0  0  0  1  0  0
  -16.7029   -6.6836   19.0658 F   0  0  0  0  0  0  0  0  0  0  0  0
  -19.5767   -8.9282   22.0838 F   0  0  0  0  0  0  0  0  0  0  0  0
  1  2  1  0  0  0  0
  1  5  2  0  0  0  0
  2  6  2  0  0  0  0
  3  8  2  0  0  0  0
  3 15  1  0  0  0  0
  4  9  1  0  0  0  0
  4 15  2  0  0  0  0
  5 17  1  0  0  0  0
  6 19  1  0  0  0  0
  7 10  2  0  0  0  0
  7 18  1  0  0  0  0
  8 22  1  0  0  0  0
  9 22  2  0  0  0  0
 10 23  1  0  0  0  0
 11 12  2  0  0  0  0
 11 24  1  0  0  0  0
 12 25  1  0  0  0  0
 13 20  1  0  0  0  0
 13 23  2  0  0  0  0
 14 25  2  0  0  0  0
 14 26  1  0  0  0  0
 15 27  1  0  0  0  0
 16 27  1  0  0  0  0
 16 30  2  0  0  0  0
 16 31  1  0  0  0  0
 17 19  2  0  0  0  0
 17 36  1  0  0  0  0
 18 20  2  0  0  0  0
 18 37  1  0  0  0  0
 19 45  1  0  0  0  0
 20 38  1  0  0  0  0
 21 28  1  0  0  0  0
 21 29  2  0  0  0  0
 21 48  1  0  0  0  0
 22 81  1  0  0  0  0
 23 82  1  0  0  0  0
 24 26  2  0  0  0  0
 24 81  1  0  0  0  0
 25 83  1  0  0  0  0
 26 84  1  0  0  0  0
 27 64  2  0  0  0  0
 28 49  1  0  0  0  0
 28 65  2  0  0  0  0
 29 55  1  0  0  0  0
 29 66  1  0  0  0  0
 30 67  1  0  0  0  0
 30 70  1  0  0  0  0
 31 71  1  0  0  0  0
 31 76  2  0  0  0  0
 32 46  1  0  0  0  0
 32 72  1  0  0  0  0
 32 77  2  0  0  0  0
 33 61  1  0  0  0  0
 33 68  1  0  0  0  0
 33 78  2  0  0  0  0
 34 62  1  0  0  0  0
 34 73  1  0  0  0  0
 34 79  2  0  0  0  0
 35 69  1  0  0  0  0
 35 74  1  0  0  0  0
 35 80  2  0  0  0  0
 36 39  1  0  0  0  0
 37 46  1  0  0  0  0
 38 68  1  0  0  0  0
 39 41  1  0  0  0  0
 40 42  1  0  0  0  0
 40 43  1  0  0  0  0
 41 45  1  0  0  0  0
 42 47  1  0  0  0  0
 43 69  1  0  0  0  0
 44 47  1  0  0  0  0
 44 69  1  0  0  0  0
 45 72  1  0  0  0  0
 46 68  1  0  0  0  0
 47 67  1  0  0  0  0
 50 62  1  0  0  0  0
 51 63  1  0  0  0  0
 52 63  1  0  0  0  0
 53 63  1  0  0  0  0
 54 75  1  0  0  0  0
 55 56  1  0  0  0  0
 56 57  1  0  0  0  0
 57 60  1  0  0  0  0
 58 59  1  0  0  0  0
 58 66  1  0  0  0  0
 59 74  1  0  0  0  0
 60 82  1  0  0  0  0
 61 63  1  0  0  0  0
 61 73  1  0  0  0  0
 62 75  1  0  0  0  0
 64 67  1  0  0  0  0
 65 66  1  0  0  0  0
M  CHG  1  75   1
M  ISO  4  35 100  60 101  74 100  82 101
M  END
> <Batch ID>
0083

> <Smiles>
CNC(C)C(=O)NC(C(=O)N1Cc2cc([101O:1][101CH2:1]CCCc3c(C)c(C)nn3CC[100NH:0][100C:0](=O)N3CCCC(n4nc(-c5ccc(Oc6ccc(F)cc6F)cc5)c(C(N)=O)c4N)C3)ccc2CC1C(=O)NC1CCCc2ccccc21)C(C)(C)C

> <Shape>
0.215

> <Color>
0.198

> <Negative vol penalty>
0.000

$$$$

  -OEChem-04052318513D

 86 94  0     1  0  0  0  0  0999 V2000
  -35.9948  -24.0086   25.3775 C   0  0  0  0  0  0  0  0  0  0  0  0
  -34.9866  -23.1172   25.0249 C   0  0  0  0  0  0  0  0  0  0  0  0
  -23.2905   -9.7991   19.9267 C   0  0  0  0  0  0  0  0  0  0  0  0
  -23.7481   -9.9554   22.2938 C   0  0  0  0  0  0  0  0  0  0  0  0
  -35.6667  -25.2691   25.8749 C   0  0  0  0  0  0  0  0  0  0  0  0
  -33.6496  -23.4854   25.1706 C   0  0  0  0  0  0  0  0  0  0  0  0
  -30.8430  -22.2453   21.1419 C   0  0  0  0  0  0  0  0  0  0  0  0
  -22.5656   -8.6275   20.1442 C   0  0  0  0  0  0  0  0  0  0  0  0
  -23.0231   -8.7837   22.5113 C   0  0  0  0  0  0  0  0  0  0  0  0
  -30.4551  -20.9115   21.0223 C   0  0  0  0  0  0  0  0  0  0  0  0
  -19.7774   -7.8719   22.7441 C   0  0  0  0  0  0  0  0  0  0  0  0
  -18.8782   -7.8564   23.8103 C   0  0  0  0  0  0  0  0  0  0  0  0
  -28.2799  -21.4715   21.9021 C   0  0  0  0  0  0  0  0  0  0  0  0
  -31.2050  -17.0349   26.0052 C   0  0  0  0  0  0  0  0  0  0  0  0
  -20.0881   -6.0165   24.8041 C   0  0  0  0  0  0  0  0  0  0  0  0
  -23.8818  -10.4631   21.0015 C   0  0  0  0  0  0  0  0  0  0  0  0
  -24.1388  -12.9919   20.7857 C   0  0  0  0  0  0  0  0  0  0  0  0
  -34.3250  -25.6565   26.0177 C   0  0  0  0  0  0  0  0  0  0  0  0
  -29.9544  -23.2018   21.6535 C   0  0  0  0  0  0  0  0  0  0  0  0
  -33.3032  -24.7518   25.6716 C   0  0  0  0  0  0  0  0  0  0  0  0
  -28.6581  -22.8172   22.0248 C   0  0  0  0  0  0  0  0  0  0  0  0
  -31.2118  -18.3686   26.3982 C   0  0  0  0  0  0  0  0  0  0  0  0
  -30.3337  -16.6147   25.0064 C   0  0  0  0  0  0  0  0  0  0  0  0
  -22.4319   -8.1198   21.4365 C   0  0  0  0  0  0  0  0  0  0  0  0
  -29.1744  -20.5239   21.4051 C   0  0  0  0  0  0  0  0  0  0  0  0
  -20.8320   -6.9595   22.7079 C   0  0  0  0  0  0  0  0  0  0  0  0
  -19.0335   -6.9288   24.8403 C   0  0  0  0  0  0  0  0  0  0  0  0
  -20.9874   -6.0319   23.7379 C   0  0  0  0  0  0  0  0  0  0  0  0
  -24.6312  -11.6731   20.7774 C   0  0  0  0  0  0  0  0  0  0  0  0
  -30.3347  -19.2354   25.7665 C   0  0  0  0  0  0  0  0  0  0  0  0
  -29.4957  -17.5600   24.4371 C   0  0  0  0  0  0  0  0  0  0  0  0
  -25.2390  -13.7709   20.5225 C   0  0  0  0  0  0  0  0  0  0  0  0
  -22.8061  -13.4700   21.0114 C   0  0  0  0  0  0  0  0  0  0  0  0
  -29.9400  -25.1217   24.1868 C   0  0  0  0  0  0  0  0  0  0  0  0
  -27.2482  -26.2867   22.8014 C   0  0  0  0  0  0  0  0  0  0  0  0
  -24.6177  -25.7655   20.6905 C   0  0  0  0  0  0  0  0  0  0  0  0
  -31.1129  -12.9373   21.3303 C   0  0  0  0  0  0  0  0  0  0  0  0
  -34.0193  -27.0120   26.6041 C   0  0  0  0  0  0  0  0  0  0  0  0
  -30.3792  -24.6414   21.7512 C   0  0  0  0  0  0  0  0  0  0  0  0
  -27.6596  -23.8091   22.5610 C   0  0  0  0  0  0  0  0  0  0  0  0
  -32.5792  -27.4638   26.3757 C   0  0  0  0  0  0  0  0  0  0  0  0
  -29.4545  -13.6557   18.2627 C   0  0  0  0  0  0  0  0  0  0  0  0
  -31.6072  -26.3346   26.7030 C   0  0  0  0  0  0  0  0  0  0  0  0
  -27.9859  -13.3480   18.5601 C   0  0  0  0  0  0  0  0  0  0  0  0
  -30.3906  -12.6815   18.9746 C   0  0  0  0  0  0  0  0  0  0  0  0
  -28.7094  -12.2623   20.7272 C   0  0  0  0  0  0  0  0  0  0  0  0
  -31.8412  -25.1237   25.7918 C   0  0  1  0  0  0  0  0  0  0  0  0
  -29.5648  -25.4372   22.7665 C   0  0  1  0  0  0  0  0  0  0  0  0
  -27.7288  -13.2526   20.0760 C   0  0  2  0  0  0  0  0  0  0  0  0
  -32.1430  -18.8252   27.4675 C   0  0  0  0  0  0  0  0  0  0  0  0
  -29.0729  -21.3943   25.5835 C   0  0  0  0  0  0  0  0  0  0  0  0
  -22.5620  -26.8884   19.7902 C   0  0  0  0  0  0  0  0  0  0  0  0
  -25.8199  -25.7913   25.4518 C   0  0  0  0  0  0  0  0  0  0  0  0
  -23.6408  -26.0163   24.2396 C   0  0  0  0  0  0  0  0  0  0  0  0
  -25.2205  -27.9448   24.3303 C   0  0  0  0  0  0  0  0  0  0  0  0
  -25.6101  -25.6088   17.9067 C   0  0  0  0  0  0  0  0  0  0  0  0
  -30.3212  -15.1871   24.5809 C   0  0  0  0  0  0  0  0  0  0  0  0
  -30.2966  -20.6791   26.1478 C   0  0  0  0  0  0  0  0  0  0  0  0
  -28.5311  -17.1614   23.3489 C   0  0  0  0  0  0  0  0  0  0  0  0
  -31.6900  -14.6442   24.1226 C   0  0  0  0  0  0  0  0  0  0  0  0
  -29.1919  -16.9605   21.9834 C   0  0  0  0  0  0  0  0  0  0  0  0
  -31.6817  -13.1670   23.7350 C   0  0  0  0  0  0  0  0  0  0  0  0
  -29.8136  -18.2332   21.4203 C   0  0  0  0  0  0  0  0  0  1  0  0
  -25.7776  -25.9536   22.8754 C   0  0  1  0  0  0  0  0  0  0  0  0
  -24.0414  -26.6133   19.5708 C   0  0  2  0  0  0  0  0  0  0  0  0
  -25.1339  -26.4072   24.2160 C   0  0  0  0  0  0  0  0  0  0  0  0
  -25.9422  -11.6138   20.5284 N   0  0  0  0  0  0  0  0  0  0  0  0
  -29.4737  -18.8641   24.7925 N   0  0  0  0  0  0  0  0  0  0  0  0
  -26.2828  -12.9051   20.3777 N   0  0  0  0  0  0  0  0  0  0  0  0
  -28.1244  -25.2036   22.6434 N   0  0  0  0  0  0  0  0  0  0  0  0
  -30.0955  -12.6392   20.4088 N   0  0  0  0  0  0  0  0  0  0  0  0
  -25.4056  -15.1052   20.4029 N   0  0  0  0  0  0  0  0  0  0  0  0
  -21.7949  -12.5341   21.2679 N   0  0  0  0  0  0  0  0  0  0  0  0
  -31.2688  -25.3576   24.4833 N   0  0  0  0  0  0  0  0  0  0  0  0
  -25.1655  -26.5425   21.6892 N   0  0  0  0  0  0  0  0  0  0  0  0
  -30.7472  -12.8802   22.6696 N   0  0  0  0  0  0  0  0  0  0  0  0
  -24.2014  -25.9200   18.2613 N   0  3  0  0  0  0  0  0  0  0  0  0
  -22.5172  -14.6900   20.9700 O   0  0  0  0  0  0  0  0  0  0  0  0
  -29.0867  -24.6972   24.9571 O   0  0  0  0  0  0  0  0  0  0  0  0
  -27.6057  -27.4651   22.8737 O   0  0  0  0  0  0  0  0  0  0  0  0
  -24.5819  -24.5371   20.6819 O   0  0  0  0  0  0  0  0  0  0  0  0
  -32.2607  -13.2377   20.9848 O   0  0  0  0  0  0  0  0  0  0  0  0
  -21.7244   -6.9766   21.6491 O   0  0  0  0  0  0  0  0  0  0  0  0
  -28.7935  -19.2225   21.2901 O   0  0  0  0  0  0  0  0  0  1  0  0
  -18.1708   -6.9151   25.8649 F   0  0  0  0  0  0  0  0  0  0  0  0
  -21.9992   -5.1538   23.7092 F   0  0  0  0  0  0  0  0  0  0  0  0
  1  2  1  0  0  0  0
  1  5  2  0  0  0  0
  2  6  2  0  0  0  0
  3  8  2  0  0  0  0
  3 16  1  0  0  0  0
  4  9  1  0  0  0  0
  4 16  2  0  0  0  0
  5 18  1  0  0  0  0
  6 20  1  0  0  0  0
  7 10  2  0  0  0  0
  7 19  1  0  0  0  0
  8 24  1  0  0  0  0
  9 24  2  0  0  0  0
 10 25  1  0  0  0  0
 11 12  2  0  0  0  0
 11 26  1  0  0  0  0
 12 27  1  0  0  0  0
 13 21  1  0  0  0  0
 13 25  2  0  0  0  0
 14 22  1  0  0  0  0
 14 23  2  0  0  0  0
 15 27  2  0  0  0  0
 15 28  1  0  0  0  0
 16 29  1  0  0  0  0
 17 29  1  0  0  0  0
 17 32  2  0  0  0  0
 17 33  1  0  0  0  0
 18 20  2  0  0  0  0
 18 38  1  0  0  0  0
 19 21  2  0  0  0  0
 19 39  1  0  0  0  0
 20 47  1  0  0  0  0
 21 40  1  0  0  0  0
 22 30  2  0  0  0  0
 22 50  1  0  0  0  0
 23 31  1  0  0  0  0
 23 57  1  0  0  0  0
 24 83  1  0  0  0  0
 25 84  1  0  0  0  0
 26 28  2  0  0  0  0
 26 83  1  0  0  0  0
 27 85  1  0  0  0  0
 28 86  1  0  0  0  0
 29 67  2  0  0  0  0
 30 58  1  0  0  0  0
 30 68  1  0  0  0  0
 31 59  1  0  0  0  0
 31 68  2  0  0  0  0
 32 69  1  0  0  0  0
 32 72  1  0  0  0  0
 33 73  1  0  0  0  0
 33 78  2  0  0  0  0
 34 48  1  0  0  0  0
 34 74  1  0  0  0  0
 34 79  2  0  0  0  0
 35 64  1  0  0  0  0
 35 70  1  0  0  0  0
 35 80  2  0  0  0  0
 36 65  1  0  0  0  0
 36 75  1  0  0  0  0
 36 81  2  0  0  0  0
 37 71  1  0  0  0  0
 37 76  1  0  0  0  0
 37 82  2  0  0  0  0
 38 41  1  0  0  0  0
 39 48  1  0  0  0  0
 40 70  1  0  0  0  0
 41 43  1  0  0  0  0
 42 44  1  0  0  0  0
 42 45  1  0  0  0  0
 43 47  1  0  0  0  0
 44 49  1  0  0  0  0
 45 71  1  0  0  0  0
 46 49  1  0  0  0  0
 46 71  1  0  0  0  0
 47 74  1  0  0  0  0
 48 70  1  0  0  0  0
 49 69  1  0  0  0  0
 51 58  1  0  0  0  0
 52 65  1  0  0  0  0
 53 66  1  0  0  0  0
 54 66  1  0  0  0  0
 55 66  1  0  0  0  0
 56 77  1  0  0  0  0
 57 60  1  0  0  0  0
 59 61  1  0  0  0  0
 60 62  1  0  0  0  0
 61 63  1  0  0  0  0
 62 76  1  0  0  0  0
 63 84  1  0  0  0  0
 64 66  1  0  0  0  0
 64 75  1  0  0  0  0
 65 77  1  0  0  0  0
 67 69  1  0  0  0  0
M  CHG  1  77   1
M  ISO  4  37 100  63 101  76 100  84 101
M  END
> <Batch ID>
0083

> <Smiles>
CCc1nc(CC[101CH2:1][101O:1]c2ccc3c(c2)CN(C(=O)C(NC(=O)C(C)NC)C(C)(C)C)C(C(=O)NC2CCCc4ccccc42)C3)c(CCC[100NH:0][100C:0](=O)N2CCCC(n3nc(-c4ccc(Oc5ccc(F)cc5F)cc4)c(C(N)=O)c3N)C2)cc1C

> <Shape>
0.189

> <Color>
0.175

> <Negative vol penalty>
0.000

$$$$

  -OEChem-04052318513D

 85 93  0     1  0  0  0  0  0999 V2000
  -20.0997  -34.3798   22.4672 C   0  0  0  0  0  0  0  0  0  0  0  0
  -21.3349  -33.9218   22.0202 C   0  0  0  0  0  0  0  0  0  0  0  0
  -25.8465  -14.8766   22.3002 C   0  0  0  0  0  0  0  0  0  0  0  0
  -25.8086  -14.0692   20.0234 C   0  0  0  0  0  0  0  0  0  0  0  0
  -19.3378  -33.5952   23.3319 C   0  0  0  0  0  0  0  0  0  0  0  0
  -21.8095  -32.6792   22.4386 C   0  0  0  0  0  0  0  0  0  0  0  0
  -25.1724  -28.7343   19.1775 C   0  0  0  0  0  0  0  0  0  0  0  0
  -32.2728  -26.6954   17.1525 C   0  0  0  0  0  0  0  0  0  0  0  0
  -24.7700  -14.0464   22.6125 C   0  0  0  0  0  0  0  0  0  0  0  0
  -24.7321  -13.2390   20.3357 C   0  0  0  0  0  0  0  0  0  0  0  0
  -26.5417  -28.4745   19.1423 C   0  0  0  0  0  0  0  0  0  0  0  0
  -22.2055  -10.6406   20.6237 C   0  0  0  0  0  0  0  0  0  0  0  0
  -22.2451   -9.3249   20.1624 C   0  0  0  0  0  0  0  0  0  0  0  0
  -33.4742  -26.5532   16.4673 C   0  0  0  0  0  0  0  0  0  0  0  0
  -26.2289  -26.6490   20.6879 C   0  0  0  0  0  0  0  0  0  0  0  0
  -24.2810   -8.9495   21.4079 C   0  0  0  0  0  0  0  0  0  0  0  0
  -26.3658  -14.8880   21.0056 C   0  0  0  0  0  0  0  0  0  0  0  0
  -28.8470  -15.4321   20.7704 C   0  0  0  0  0  0  0  0  0  0  0  0
  -19.7989  -32.3381   23.7534 C   0  0  0  0  0  0  0  0  0  0  0  0
  -24.3211  -27.9590   19.9779 C   0  0  0  0  0  0  0  0  0  0  0  0
  -21.0537  -31.8775   23.3108 C   0  0  0  0  0  0  0  0  0  0  0  0
  -24.8488  -26.8993   20.7295 C   0  0  0  0  0  0  0  0  0  0  0  0
  -31.3126  -25.6926   17.0766 C   0  0  0  0  0  0  0  0  0  0  0  0
  -24.2128  -13.2276   21.6303 C   0  0  0  0  0  0  0  0  0  0  0  0
  -27.0706  -27.4335   19.8998 C   0  0  0  0  0  0  0  0  0  0  0  0
  -23.2037  -11.1109   21.4771 C   0  0  0  0  0  0  0  0  0  0  0  0
  -23.2829   -8.4793   20.5545 C   0  0  0  0  0  0  0  0  0  0  0  0
  -24.2414  -10.2653   21.8692 C   0  0  0  0  0  0  0  0  0  0  0  0
  -27.4774  -15.7458   20.6822 C   0  0  0  0  0  0  0  0  0  0  0  0
  -33.6653  -25.3982   15.7261 C   0  0  0  0  0  0  0  0  0  0  0  0
  -31.6003  -24.5763   16.3079 C   0  0  0  0  0  0  0  0  0  0  0  0
  -29.4881  -16.5733   20.3542 C   0  0  0  0  0  0  0  0  0  0  0  0
  -29.4828  -14.2178   21.1909 C   0  0  0  0  0  0  0  0  0  0  0  0
  -22.4096  -28.5504   22.4477 C   0  0  0  0  0  0  0  0  0  0  0  0
  -21.5590  -25.4478   22.0327 C   0  0  0  0  0  0  0  0  0  0  0  0
  -22.3784  -22.3519   20.8534 C   0  0  0  0  0  0  0  0  0  0  0  0
  -28.0219  -20.9053   16.7917 C   0  0  0  0  0  0  0  0  0  0  0  0
  -18.9613  -31.5463   24.7261 C   0  0  0  0  0  0  0  0  0  0  0  0
  -22.8426  -28.2351   19.9841 C   0  0  0  0  0  0  0  0  0  0  0  0
  -23.9748  -26.0246   21.5893 C   0  0  0  0  0  0  0  0  0  0  0  0
  -19.3673  -30.0781   24.8252 C   0  0  0  0  0  0  0  0  0  0  0  0
  -28.9663  -21.3173   20.1696 C   0  0  0  0  0  0  0  0  0  0  0  0
  -20.8818  -29.9507   24.9551 C   0  0  0  0  0  0  0  0  0  0  0  0
  -28.8159  -19.8928   20.7017 C   0  0  0  0  0  0  0  0  0  0  0  0
  -27.8440  -21.6896   19.1989 C   0  0  0  0  0  0  0  0  0  0  0  0
  -27.5248  -19.3061   18.6159 C   0  0  0  0  0  0  0  0  0  0  0  0
  -21.5915  -30.5243   23.7226 C   0  0  1  0  0  0  0  0  0  0  0  0
  -22.1416  -27.7082   21.2325 C   0  0  1  0  0  0  0  0  0  0  0  0
  -28.6727  -18.8863   19.5469 C   0  0  2  0  0  0  0  0  0  0  0  0
  -34.9440  -25.2118   14.9795 C   0  0  0  0  0  0  0  0  0  0  0  0
  -21.4968  -20.0078   20.6939 C   0  0  0  0  0  0  0  0  0  0  0  0
  -22.2066  -25.0061   24.9815 C   0  0  0  0  0  0  0  0  0  0  0  0
  -22.2317  -22.5427   24.5352 C   0  0  0  0  0  0  0  0  0  0  0  0
  -20.1370  -23.8509   24.1835 C   0  0  0  0  0  0  0  0  0  0  0  0
  -26.8603  -23.1536   16.8151 C   0  0  0  0  0  0  0  0  0  0  0  0
  -22.4283  -22.4107   17.8949 C   0  0  0  0  0  0  0  0  0  0  0  0
  -30.0072  -25.8417   17.8164 C   0  0  0  0  0  0  0  0  0  0  0  0
  -30.6078  -23.4661   16.1924 C   0  0  0  0  0  0  0  0  0  0  0  0
  -30.1199  -25.5897   19.3215 C   0  0  0  0  0  0  0  0  0  0  0  0
  -29.4627  -23.7378   15.1982 C   0  0  0  0  0  0  0  0  0  0  0  0
  -28.4774  -22.5815   15.0421 C   0  0  0  0  0  0  0  0  0  0  0  0
  -28.8149  -25.8262   20.0727 C   0  0  0  0  0  0  0  0  0  1  0  0
  -22.0558  -24.1233   22.5599 C   0  0  1  0  0  0  0  0  0  0  0  0
  -21.6036  -21.3595   20.0052 C   0  0  2  0  0  0  0  0  0  0  0  0
  -21.6748  -23.8983   24.0504 C   0  0  0  0  0  0  0  0  0  0  0  0
  -27.2603  -16.9889   20.2445 N   0  0  0  0  0  0  0  0  0  0  0  0
  -32.7561  -24.4026   15.6284 N   0  0  0  0  0  0  0  0  0  0  0  0
  -28.5020  -17.4664   20.0540 N   0  0  0  0  0  0  0  0  0  0  0  0
  -22.5365  -26.3384   21.5669 N   0  0  0  0  0  0  0  0  0  0  0  0
  -27.7105  -20.6792   18.1405 N   0  0  0  0  0  0  0  0  0  0  0  0
  -30.7935  -16.8899   20.2195 N   0  0  0  0  0  0  0  0  0  0  0  0
  -28.6750  -13.1429   21.5863 N   0  0  0  0  0  0  0  0  0  0  0  0
  -21.5180  -29.5923   22.6178 N   0  0  0  0  0  0  0  0  0  0  0  0
  -21.5424  -23.1038   21.6514 N   0  0  0  0  0  0  0  0  0  0  0  0
  -27.8514  -22.2093   16.3029 N   0  0  0  0  0  0  0  0  0  0  0  0
  -22.2773  -21.1651   18.6902 N   0  3  0  0  0  0  0  0  0  0  0  0
  -30.7306  -14.0953   21.2309 O   0  0  0  0  0  0  0  0  0  0  0  0
  -23.3544  -28.2745   23.1777 O   0  0  0  0  0  0  0  0  0  0  0  0
  -20.3476  -25.6806   22.0275 O   0  0  0  0  0  0  0  0  0  0  0  0
  -23.6031  -22.4476   20.8148 O   0  0  0  0  0  0  0  0  0  0  0  0
  -28.4230  -19.9907   16.0603 O   0  0  0  0  0  0  0  0  0  0  0  0
  -23.1625  -12.4172   21.9348 O   0  0  0  0  0  0  0  0  0  0  0  0
  -28.4069  -27.1782   19.8678 O   0  0  0  0  0  0  0  0  0  1  0  0
  -23.3199   -7.2153   20.1127 F   0  0  0  0  0  0  0  0  0  0  0  0
  -25.2026  -10.7110   22.6898 F   0  0  0  0  0  0  0  0  0  0  0  0
  1  2  1  0  0  0  0
  1  5  2  0  0  0  0
  2  6  2  0  0  0  0
  3  9  2  0  0  0  0
  3 17  1  0  0  0  0
  4 10  1  0  0  0  0
  4 17  2  0  0  0  0
  5 19  1  0  0  0  0
  6 21  1  0  0  0  0
  7 11  2  0  0  0  0
  7 20  1  0  0  0  0
  8 14  2  0  0  0  0
  8 23  1  0  0  0  0
  9 24  1  0  0  0  0
 10 24  2  0  0  0  0
 11 25  1  0  0  0  0
 12 13  2  0  0  0  0
 12 26  1  0  0  0  0
 13 27  1  0  0  0  0
 14 30  1  0  0  0  0
 15 22  1  0  0  0  0
 15 25  2  0  0  0  0
 16 27  2  0  0  0  0
 16 28  1  0  0  0  0
 17 29  1  0  0  0  0
 18 29  1  0  0  0  0
 18 32  2  0  0  0  0
 18 33  1  0  0  0  0
 19 21  2  0  0  0  0
 19 38  1  0  0  0  0
 20 22  2  0  0  0  0
 20 39  1  0  0  0  0
 21 47  1  0  0  0  0
 22 40  1  0  0  0  0
 23 31  2  0  0  0  0
 23 57  1  0  0  0  0
 24 82  1  0  0  0  0
 25 83  1  0  0  0  0
 26 28  2  0  0  0  0
 26 82  1  0  0  0  0
 27 84  1  0  0  0  0
 28 85  1  0  0  0  0
 29 66  2  0  0  0  0
 30 50  1  0  0  0  0
 30 67  2  0  0  0  0
 31 58  1  0  0  0  0
 31 67  1  0  0  0  0
 32 68  1  0  0  0  0
 32 71  1  0  0  0  0
 33 72  1  0  0  0  0
 33 77  2  0  0  0  0
 34 48  1  0  0  0  0
 34 73  1  0  0  0  0
 34 78  2  0  0  0  0
 35 63  1  0  0  0  0
 35 69  1  0  0  0  0
 35 79  2  0  0  0  0
 36 64  1  0  0  0  0
 36 74  1  0  0  0  0
 36 80  2  0  0  0  0
 37 70  1  0  0  0  0
 37 75  1  0  0  0  0
 37 81  2  0  0  0  0
 38 41  1  0  0  0  0
 39 48  1  0  0  0  0
 40 69  1  0  0  0  0
 41 43  1  0  0  0  0
 42 44  1  0  0  0  0
 42 45  1  0  0  0  0
 43 47  1  0  0  0  0
 44 49  1  0  0  0  0
 45 70  1  0  0  0  0
 46 49  1  0  0  0  0
 46 70  1  0  0  0  0
 47 73  1  0  0  0  0
 48 69  1  0  0  0  0
 49 68  1  0  0  0  0
 51 64  1  0  0  0  0
 52 65  1  0  0  0  0
 53 65  1  0  0  0  0
 54 65  1  0  0  0  0
 55 75  1  0  0  0  0
 56 76  1  0  0  0  0
 57 59  1  0  0  0  0
 58 60  1  0  0  0  0
 59 62  1  0  0  0  0
 60 61  1  0  0  0  0
 61 75  1  0  0  0  0
 62 83  1  0  0  0  0
 63 65  1  0  0  0  0
 63 74  1  0  0  0  0
 64 76  1  0  0  0  0
 66 68  1  0  0  0  0
M  CHG  1  76   1
M  ISO  4  37 100  62 101  75 100  83 101
M  END
> <Batch ID>
0083

> <Smiles>
CNC(C)C(=O)NC(C(=O)N1Cc2cc([101O:1][101CH2:1]CCc3ccc(C)nc3CCC[100N:0](C)[100C:0](=O)N3CCCC(n4nc(-c5ccc(Oc6ccc(F)cc6F)cc5)c(C(N)=O)c4N)C3)ccc2CC1C(=O)NC1CCCc2ccccc21)C(C)(C)C

> <Shape>
0.228

> <Color>
0.086

> <Negative vol penalty>
0.000

$$$$

  -OEChem-04052318513D

 82 90  0     1  0  0  0  0  0999 V2000
  -23.0720  -23.7877   20.4211 C   0  0  0  0  0  0  0  0  0  0  0  0
  -24.2319  -23.0352   20.5752 C   0  0  0  0  0  0  0  0  0  0  0  0
  -24.4520  -29.7806   20.6603 C   0  0  0  0  0  0  0  0  0  0  0  0
  -24.2283  -27.9914   22.2683 C   0  0  0  0  0  0  0  0  0  0  0  0
  -21.8503  -23.2820   20.8635 C   0  0  0  0  0  0  0  0  0  0  0  0
  -24.1709  -21.7768   21.1729 C   0  0  0  0  0  0  0  0  0  0  0  0
  -26.8669  -18.3015   18.6631 C   0  0  0  0  0  0  0  0  0  0  0  0
  -23.1663  -30.2221   20.9726 C   0  0  0  0  0  0  0  0  0  0  0  0
  -22.9425  -28.4329   22.5807 C   0  0  0  0  0  0  0  0  0  0  0  0
  -28.2489  -18.3135   18.8463 C   0  0  0  0  0  0  0  0  0  0  0  0
  -19.4655  -28.8720   23.5436 C   0  0  0  0  0  0  0  0  0  0  0  0
  -18.4586  -27.9126   23.6502 C   0  0  0  0  0  0  0  0  0  0  0  0
  -28.0510  -16.4909   20.4141 C   0  0  0  0  0  0  0  0  0  0  0  0
  -18.8349  -27.2624   21.3539 C   0  0  0  0  0  0  0  0  0  0  0  0
  -32.3226  -20.0244   20.4757 C   0  0  0  0  0  0  0  0  0  0  0  0
  -24.9830  -28.6652   21.3081 C   0  0  0  0  0  0  0  0  0  0  0  0
  -27.5172  -28.6038   21.5937 C   0  0  0  0  0  0  0  0  0  0  0  0
  -21.7729  -22.0128   21.4582 C   0  0  0  0  0  0  0  0  0  0  0  0
  -26.0640  -17.3897   19.3636 C   0  0  0  0  0  0  0  0  0  0  0  0
  -22.9473  -21.2542   21.6249 C   0  0  0  0  0  0  0  0  0  0  0  0
  -26.6593  -16.4676   20.2362 C   0  0  0  0  0  0  0  0  0  0  0  0
  -22.4115  -29.5483   21.9329 C   0  0  0  0  0  0  0  0  0  0  0  0
  -28.8409  -17.4101   19.7240 C   0  0  0  0  0  0  0  0  0  0  0  0
  -20.1571  -29.0266   22.3421 C   0  0  0  0  0  0  0  0  0  0  0  0
  -18.1433  -27.1078   22.5554 C   0  0  0  0  0  0  0  0  0  0  0  0
  -19.8418  -28.2218   21.2473 C   0  0  0  0  0  0  0  0  0  0  0  0
  -26.3108  -28.2083   20.9854 C   0  0  0  0  0  0  0  0  0  0  0  0
  -32.0570  -21.2992   20.8894 C   0  0  0  0  0  0  0  0  0  0  0  0
  -28.4856  -27.8880   20.9333 C   0  0  0  0  0  0  0  0  0  0  0  0
  -31.4119  -19.9131   22.4903 C   0  0  0  0  0  0  0  0  0  0  0  0
  -27.7422  -29.5350   22.6605 C   0  0  0  0  0  0  0  0  0  0  0  0
  -23.7124  -17.6419   21.4873 C   0  0  0  0  0  0  0  0  0  0  0  0
  -23.5428  -14.4257   21.1003 C   0  0  0  0  0  0  0  0  0  0  0  0
  -25.1101  -11.5283   20.2086 C   0  0  0  0  0  0  0  0  0  0  0  0
  -30.3630  -23.1106   18.7431 C   0  0  0  0  0  0  0  0  0  0  0  0
  -20.4371  -21.5282   21.9636 C   0  0  0  0  0  0  0  0  0  0  0  0
  -24.5775  -17.3718   19.1347 C   0  0  0  0  0  0  0  0  0  0  0  0
  -25.8440  -15.4551   20.9967 C   0  0  0  0  0  0  0  0  0  0  0  0
  -20.4006  -20.0286   22.2470 C   0  0  0  0  0  0  0  0  0  0  0  0
  -28.2235  -25.1078   16.7157 C   0  0  0  0  0  0  0  0  0  0  0  0
  -21.6336  -19.6048   23.0389 C   0  0  0  0  0  0  0  0  0  0  0  0
  -27.6304  -26.1205   17.6968 C   0  0  0  0  0  0  0  0  0  0  0  0
  -28.4044  -23.7357   17.3613 C   0  0  0  0  0  0  0  0  0  0  0  0
  -28.5830  -24.7522   19.5992 C   0  0  0  0  0  0  0  0  0  0  0  0
  -22.9181  -19.8745   22.2459 C   0  0  1  0  0  0  0  0  0  0  0  0
  -23.8030  -16.7413   20.2880 C   0  0  1  0  0  0  0  0  0  0  0  0
  -28.4340  -26.1655   19.0104 C   0  0  2  0  0  0  0  0  0  0  0  0
  -30.8601  -19.4030   23.7702 C   0  0  0  0  0  0  0  0  0  0  0  0
  -34.6350  -23.0058   21.2168 C   0  0  0  0  0  0  0  0  0  0  0  0
  -24.7263   -9.0546   20.0326 C   0  0  0  0  0  0  0  0  0  0  0  0
  -23.7931  -14.1736   24.1308 C   0  0  0  0  0  0  0  0  0  0  0  0
  -24.3556  -11.7548   23.8132 C   0  0  0  0  0  0  0  0  0  0  0  0
  -22.1318  -12.6219   23.0886 C   0  0  0  0  0  0  0  0  0  0  0  0
  -25.6101  -11.5411   17.2917 C   0  0  0  0  0  0  0  0  0  0  0  0
  -33.2179  -23.5378   21.0414 C   0  0  0  0  0  0  0  0  0  0  0  0
  -32.0179  -17.6818   21.4610 C   0  0  0  0  0  0  0  0  0  0  0  0
  -30.6764  -17.0123   21.1830 C   0  0  0  0  0  0  0  0  0  1  0  0
  -32.2752  -22.5935   20.2383 C   0  0  2  0  0  0  0  0  0  0  0  0
  -24.1937  -13.2338   21.7597 C   0  0  1  0  0  0  0  0  0  0  0  0
  -24.6806  -10.3882   19.3030 C   0  0  2  0  0  0  0  0  0  0  0  0
  -23.6340  -12.9663   23.1853 C   0  0  0  0  0  0  0  0  0  0  0  0
  -26.4937  -27.3109   20.0131 N   0  0  0  0  0  0  0  0  0  0  0  0
  -31.9139  -19.1874   21.4859 N   0  0  0  0  0  0  0  0  0  0  0  0
  -27.8262  -27.1368   20.0054 N   0  0  0  0  0  0  0  0  0  0  0  0
  -31.4936  -21.2004   22.1388 N   0  3  0  0  0  0  0  0  0  0  0  0
  -24.3938  -15.4814   20.7437 N   0  0  0  0  0  0  0  0  0  0  0  0
  -29.1760  -23.8480   18.6014 N   0  0  0  0  0  0  0  0  0  0  0  0
  -29.8284  -27.8343   21.0614 N   0  0  0  0  0  0  0  0  0  0  0  0
  -26.6358  -30.1829   23.2264 N   0  0  0  0  0  0  0  0  0  0  0  0
  -23.1092  -18.8588   21.2328 N   0  0  0  0  0  0  0  0  0  0  0  0
  -24.0320  -12.1170   20.8350 N   0  0  0  0  0  0  0  0  0  0  0  0
  -31.0363  -23.2798   19.9468 N   0  0  0  0  0  0  0  0  0  0  0  0
  -25.5762  -10.3048   18.1148 N   0  3  0  0  0  0  0  0  0  0  0  0
  -28.8921  -29.7974   23.0879 O   0  0  0  0  0  0  0  0  0  0  0  0
  -24.1556  -17.2604   22.5642 O   0  0  0  0  0  0  0  0  0  0  0  0
  -22.3253  -14.4173   20.9023 O   0  0  0  0  0  0  0  0  0  0  0  0
  -26.2850  -11.8607   20.3494 O   0  0  0  0  0  0  0  0  0  0  0  0
  -30.7940  -22.3614   17.8600 O   0  0  0  0  0  0  0  0  0  0  0  0
  -21.1570  -29.9790   22.2381 O   0  0  0  0  0  0  0  0  0  0  0  0
  -30.1896  -17.4202   19.9051 O   0  0  0  0  0  0  0  0  0  1  0  0
  -17.1774  -26.1855   22.6584 F   0  0  0  0  0  0  0  0  0  0  0  0
  -20.5036  -28.3650   20.0909 F   0  0  0  0  0  0  0  0  0  0  0  0
  1  2  1  0  0  0  0
  1  5  2  0  0  0  0
  2  6  2  0  0  0  0
  3  8  2  0  0  0  0
  3 16  1  0  0  0  0
  4  9  1  0  0  0  0
  4 16  2  0  0  0  0
  5 18  1  0  0  0  0
  6 20  1  0  0  0  0
  7 10  2  0  0  0  0
  7 19  1  0  0  0  0
  8 22  1  0  0  0  0
  9 22  2  0  0  0  0
 10 23  1  0  0  0  0
 11 12  2  0  0  0  0
 11 24  1  0  0  0  0
 12 25  1  0  0  0  0
 13 21  1  0  0  0  0
 13 23  2  0  0  0  0
 14 25  2  0  0  0  0
 14 26  1  0  0  0  0
 15 28  2  0  0  0  0
 15 63  1  0  0  0  0
 16 27  1  0  0  0  0
 17 27  1  0  0  0  0
 17 29  2  0  0  0  0
 17 31  1  0  0  0  0
 18 20  2  0  0  0  0
 18 36  1  0  0  0  0
 19 21  2  0  0  0  0
 19 37  1  0  0  0  0
 20 45  1  0  0  0  0
 21 38  1  0  0  0  0
 22 79  1  0  0  0  0
 23 80  1  0  0  0  0
 24 26  2  0  0  0  0
 24 79  1  0  0  0  0
 25 81  1  0  0  0  0
 26 82  1  0  0  0  0
 27 62  2  0  0  0  0
 28 58  1  0  0  0  0
 28 65  1  0  0  0  0
 29 64  1  0  0  0  0
 29 68  1  0  0  0  0
 30 48  1  0  0  0  0
 30 63  1  0  0  0  0
 30 65  2  0  0  0  0
 31 69  1  0  0  0  0
 31 74  2  0  0  0  0
 32 46  1  0  0  0  0
 32 70  1  0  0  0  0
 32 75  2  0  0  0  0
 33 59  1  0  0  0  0
 33 66  1  0  0  0  0
 33 76  2  0  0  0  0
 34 60  1  0  0  0  0
 34 71  1  0  0  0  0
 34 77  2  0  0  0  0
 35 67  1  0  0  0  0
 35 72  1  0  0  0  0
 35 78  2  0  0  0  0
 36 39  1  0  0  0  0
 37 46  1  0  0  0  0
 38 66  1  0  0  0  0
 39 41  1  0  0  0  0
 40 42  1  0  0  0  0
 40 43  1  0  0  0  0
 41 45  1  0  0  0  0
 42 47  1  0  0  0  0
 43 67  1  0  0  0  0
 44 47  1  0  0  0  0
 44 67  1  0  0  0  0
 45 70  1  0  0  0  0
 46 66  1  0  0  0  0
 47 64  1  0  0  0  0
 49 55  1  0  0  0  0
 50 60  1  0  0  0  0
 51 61  1  0  0  0  0
 52 61  1  0  0  0  0
 53 61  1  0  0  0  0
 54 73  1  0  0  0  0
 55 58  1  0  0  0  0
 56 57  1  0  0  0  0
 56 63  1  0  0  0  0
 57 80  1  0  0  0  0
 58 72  1  0  0  0  0
 59 61  1  0  0  0  0
 59 71  1  0  0  0  0
 60 73  1  0  0  0  0
 62 64  1  0  0  0  0
M  CHG  2  65   1  73   1
M  ISO  4  35 100  57 101  72 100  80 101
M  END
> <Batch ID>
0083

> <Smiles>
CCC([100NH:0][100C:0](=O)N1CCCC(n2nc(-c3ccc(Oc4ccc(F)cc4F)cc3)c(C(N)=O)c2N)C1)c1cn(C[101CH2:1][101O:1]c2ccc3c(c2)CN(C(=O)C(NC(=O)C(C)NC)C(C)(C)C)C(C(=O)NC2CCCc4ccccc42)C3)c(C)n1

> <Shape>
0.234

> <Color>
0.069

> <Negative vol penalty>
0.000

$$$$

  -OEChem-04052318513D

 81 89  0     1  0  0  0  0  0999 V2000
  -22.9888  -34.0797   22.5156 C   0  0  0  0  0  0  0  0  0  0  0  0
  -23.9155  -33.0426   22.4856 C   0  0  0  0  0  0  0  0  0  0  0  0
  -26.7207  -14.4017   22.0299 C   0  0  0  0  0  0  0  0  0  0  0  0
  -26.3590  -14.1724   19.6521 C   0  0  0  0  0  0  0  0  0  0  0  0
  -21.6582  -33.8150   22.8370 C   0  0  0  0  0  0  0  0  0  0  0  0
  -23.5123  -31.7401   22.7780 C   0  0  0  0  0  0  0  0  0  0  0  0
  -25.3891  -28.3477   19.5200 C   0  0  0  0  0  0  0  0  0  0  0  0
  -25.8903  -13.3053   22.2620 C   0  0  0  0  0  0  0  0  0  0  0  0
  -25.5286  -13.0759   19.8842 C   0  0  0  0  0  0  0  0  0  0  0  0
  -26.7192  -27.9671   19.6929 C   0  0  0  0  0  0  0  0  0  0  0  0
  -23.0272  -10.4392   19.8711 C   0  0  0  0  0  0  0  0  0  0  0  0
  -21.8220  -10.3790   19.1714 C   0  0  0  0  0  0  0  0  0  0  0  0
  -25.9920  -25.9512   20.8004 C   0  0  0  0  0  0  0  0  0  0  0  0
  -21.1361  -12.4678   20.1733 C   0  0  0  0  0  0  0  0  0  0  0  0
  -31.2579  -25.1565   18.4071 C   0  0  0  0  0  0  0  0  0  0  0  0
  -26.9550  -14.8353   20.7250 C   0  0  0  0  0  0  0  0  0  0  0  0
  -29.2041  -15.9517   20.2743 C   0  0  0  0  0  0  0  0  0  0  0  0
  -21.2365  -32.5072   23.1240 C   0  0  0  0  0  0  0  0  0  0  0  0
  -24.3490  -27.5368   19.9965 C   0  0  0  0  0  0  0  0  0  0  0  0
  -22.1751  -31.4578   23.1048 C   0  0  0  0  0  0  0  0  0  0  0  0
  -24.6495  -26.3226   20.6300 C   0  0  0  0  0  0  0  0  0  0  0  0
  -25.2943  -12.6424   21.1891 C   0  0  0  0  0  0  0  0  0  0  0  0
  -27.0209  -26.7701   20.3357 C   0  0  0  0  0  0  0  0  0  0  0  0
  -23.2868  -11.5136   20.7219 C   0  0  0  0  0  0  0  0  0  0  0  0
  -20.8765  -11.3934   19.3225 C   0  0  0  0  0  0  0  0  0  0  0  0
  -22.3413  -12.5279   20.8730 C   0  0  0  0  0  0  0  0  0  0  0  0
  -27.8122  -15.9683   20.4846 C   0  0  0  0  0  0  0  0  0  0  0  0
  -31.4090  -23.8064   18.2619 C   0  0  0  0  0  0  0  0  0  0  0  0
  -29.5400  -17.2713   20.0951 C   0  0  0  0  0  0  0  0  0  0  0  0
  -30.9215  -24.2152   20.3822 C   0  0  0  0  0  0  0  0  0  0  0  0
  -30.1121  -14.8425   20.2436 C   0  0  0  0  0  0  0  0  0  0  0  0
  -22.0249  -27.8955   22.1351 C   0  0  0  0  0  0  0  0  0  0  0  0
  -21.0823  -24.9992   21.0194 C   0  0  0  0  0  0  0  0  0  0  0  0
  -21.9255  -22.0747   19.4757 C   0  0  0  0  0  0  0  0  0  0  0  0
  -28.5686  -22.2753   17.8230 C   0  0  0  0  0  0  0  0  0  0  0  0
  -19.7974  -32.2772   23.5122 C   0  0  0  0  0  0  0  0  0  0  0  0
  -22.9189  -27.9487   19.7785 C   0  0  0  0  0  0  0  0  0  0  0  0
  -23.5691  -25.4065   21.1419 C   0  0  0  0  0  0  0  0  0  0  0  0
  -19.3745  -30.8121   23.4431 C   0  0  0  0  0  0  0  0  0  0  0  0
  -26.8414  -21.4853   20.8346 C   0  0  0  0  0  0  0  0  0  0  0  0
  -20.4198  -29.9228   24.1090 C   0  0  0  0  0  0  0  0  0  0  0  0
  -27.0496  -19.9779   20.9910 C   0  0  0  0  0  0  0  0  0  0  0  0
  -26.6738  -21.8828   19.3697 C   0  0  0  0  0  0  0  0  0  0  0  0
  -27.9606  -19.9147   18.6320 C   0  0  0  0  0  0  0  0  0  0  0  0
  -21.7711  -30.0280   23.3918 C   0  0  1  0  0  0  0  0  0  0  0  0
  -21.9522  -27.2939   20.7602 C   0  0  1  0  0  0  0  0  0  0  0  0
  -28.1904  -19.4727   20.0874 C   0  0  2  0  0  0  0  0  0  0  0  0
  -30.6330  -24.0088   21.8234 C   0  0  0  0  0  0  0  0  0  0  0  0
  -20.9489  -19.8841   18.7373 C   0  0  0  0  0  0  0  0  0  0  0  0
  -21.1014  -24.0194   23.9090 C   0  0  0  0  0  0  0  0  0  0  0  0
  -21.0613  -21.6718   23.0400 C   0  0  0  0  0  0  0  0  0  0  0  0
  -19.1641  -23.2148   22.5474 C   0  0  0  0  0  0  0  0  0  0  0  0
  -22.5666  -22.6132   16.6370 C   0  0  0  0  0  0  0  0  0  0  0  0
  -31.7311  -22.9889   17.0895 C   0  0  0  0  0  0  0  0  0  0  0  0
  -30.7035  -26.7364   20.3431 C   0  0  0  0  0  0  0  0  0  0  0  0
  -30.5028  -22.5095   16.2859 C   0  0  0  0  0  0  0  0  0  0  0  0
  -29.3199  -27.2788   20.0019 C   0  0  0  0  0  0  0  0  0  1  0  0
  -21.3807  -23.5647   21.3829 C   0  0  1  0  0  0  0  0  0  0  0  0
  -21.2746  -21.3139   18.3345 C   0  0  2  0  0  0  0  0  0  0  0  0
  -20.6975  -23.1356   22.7120 C   0  0  0  0  0  0  0  0  0  0  0  0
  -27.2991  -17.2008   20.4433 N   0  0  0  0  0  0  0  0  0  0  0  0
  -30.9562  -25.3810   19.7287 N   0  0  0  0  0  0  0  0  0  0  0  0
  -28.3744  -17.9709   20.2050 N   0  0  0  0  0  0  0  0  0  0  0  0
  -31.1955  -23.2491   19.4996 N   0  3  0  0  0  0  0  0  0  0  0  0
  -22.1865  -25.8562   20.9103 N   0  0  0  0  0  0  0  0  0  0  0  0
  -27.7891  -21.3746   18.5675 N   0  0  0  0  0  0  0  0  0  0  0  0
  -30.7158  -17.8900   19.8558 N   0  0  0  0  0  0  0  0  0  0  0  0
  -29.5998  -13.5538   20.4466 N   0  0  0  0  0  0  0  0  0  0  0  0
  -21.7573  -29.2507   22.1711 N   0  0  0  0  0  0  0  0  0  0  0  0
  -20.9958  -22.7621   20.2270 N   0  0  0  0  0  0  0  0  0  0  0  0
  -29.6095  -21.7114   17.0957 N   0  0  0  0  0  0  0  0  0  0  0  0
  -22.1831  -21.2742   17.1538 N   0  3  0  0  0  0  0  0  0  0  0  0
  -31.3438  -14.9915   20.0585 O   0  0  0  0  0  0  0  0  0  0  0  0
  -22.3018  -27.1827   23.0927 O   0  0  0  0  0  0  0  0  0  0  0  0
  -19.9131  -25.3448   20.8320 O   0  0  0  0  0  0  0  0  0  0  0  0
  -23.1369  -22.0576   19.6823 O   0  0  0  0  0  0  0  0  0  0  0  0
  -28.3560  -23.4925   17.8119 O   0  0  0  0  0  0  0  0  0  0  0  0
  -24.4842  -11.5722   21.4152 O   0  0  0  0  0  0  0  0  0  0  0  0
  -28.3182  -26.3965   20.5063 O   0  0  0  0  0  0  0  0  0  1  0  0
  -19.7198  -11.3363   18.6494 F   0  0  0  0  0  0  0  0  0  0  0  0
  -22.5857  -13.5632   21.6881 F   0  0  0  0  0  0  0  0  0  0  0  0
  1  2  1  0  0  0  0
  1  5  2  0  0  0  0
  2  6  2  0  0  0  0
  3  8  2  0  0  0  0
  3 16  1  0  0  0  0
  4  9  1  0  0  0  0
  4 16  2  0  0  0  0
  5 18  1  0  0  0  0
  6 20  1  0  0  0  0
  7 10  2  0  0  0  0
  7 19  1  0  0  0  0
  8 22  1  0  0  0  0
  9 22  2  0  0  0  0
 10 23  1  0  0  0  0
 11 12  2  0  0  0  0
 11 24  1  0  0  0  0
 12 25  1  0  0  0  0
 13 21  1  0  0  0  0
 13 23  2  0  0  0  0
 14 25  2  0  0  0  0
 14 26  1  0  0  0  0
 15 28  2  0  0  0  0
 15 62  1  0  0  0  0
 16 27  1  0  0  0  0
 17 27  1  0  0  0  0
 17 29  2  0  0  0  0
 17 31  1  0  0  0  0
 18 20  2  0  0  0  0
 18 36  1  0  0  0  0
 19 21  2  0  0  0  0
 19 37  1  0  0  0  0
 20 45  1  0  0  0  0
 21 38  1  0  0  0  0
 22 78  1  0  0  0  0
 23 79  1  0  0  0  0
 24 26  2  0  0  0  0
 24 78  1  0  0  0  0
 25 80  1  0  0  0  0
 26 81  1  0  0  0  0
 27 61  2  0  0  0  0
 28 54  1  0  0  0  0
 28 64  1  0  0  0  0
 29 63  1  0  0  0  0
 29 67  1  0  0  0  0
 30 48  1  0  0  0  0
 30 62  1  0  0  0  0
 30 64  2  0  0  0  0
 31 68  1  0  0  0  0
 31 73  2  0  0  0  0
 32 46  1  0  0  0  0
 32 69  1  0  0  0  0
 32 74  2  0  0  0  0
 33 58  1  0  0  0  0
 33 65  1  0  0  0  0
 33 75  2  0  0  0  0
 34 59  1  0  0  0  0
 34 70  1  0  0  0  0
 34 76  2  0  0  0  0
 35 66  1  0  0  0  0
 35 71  1  0  0  0  0
 35 77  2  0  0  0  0
 36 39  1  0  0  0  0
 37 46  1  0  0  0  0
 38 65  1  0  0  0  0
 39 41  1  0  0  0  0
 40 42  1  0  0  0  0
 40 43  1  0  0  0  0
 41 45  1  0  0  0  0
 42 47  1  0  0  0  0
 43 66  1  0  0  0  0
 44 47  1  0  0  0  0
 44 66  1  0  0  0  0
 45 69  1  0  0  0  0
 46 65  1  0  0  0  0
 47 63  1  0  0  0  0
 49 59  1  0  0  0  0
 50 60  1  0  0  0  0
 51 60  1  0  0  0  0
 52 60  1  0  0  0  0
 53 72  1  0  0  0  0
 54 56  1  0  0  0  0
 55 57  1  0  0  0  0
 55 62  1  0  0  0  0
 56 71  1  0  0  0  0
 57 79  1  0  0  0  0
 58 60  1  0  0  0  0
 58 70  1  0  0  0  0
 59 72  1  0  0  0  0
 61 63  1  0  0  0  0
M  CHG  2  64   1  72   1
M  ISO  4  35 100  57 101  71 100  79 101
M  END
> <Batch ID>
0083

> <Smiles>
CNC(C)C(=O)NC(C(=O)N1Cc2cc([101O:1][101CH2:1]Cn3cc(CC[100NH:0][100C:0](=O)N4CCCC(n5nc(-c6ccc(Oc7ccc(F)cc7F)cc6)c(C(N)=O)c5N)C4)nc3C)ccc2CC1C(=O)NC1CCCc2ccccc21)C(C)(C)C

> <Shape>
0.242

> <Color>
0.072

> <Negative vol penalty>
0.000

$$$$

  -OEChem-04052318513D

 81 89  0     1  0  0  0  0  0999 V2000
  -19.2857  -24.9749   21.8800 C   0  0  0  0  0  0  0  0  0  0  0  0
  -20.6642  -24.8434   22.0133 C   0  0  0  0  0  0  0  0  0  0  0  0
  -26.9539  -14.7825   21.7472 C   0  0  0  0  0  0  0  0  0  0  0  0
  -26.3649  -14.9023   19.4072 C   0  0  0  0  0  0  0  0  0  0  0  0
  -18.7392  -26.1892   21.4667 C   0  0  0  0  0  0  0  0  0  0  0  0
  -21.4972  -25.9258   21.7323 C   0  0  0  0  0  0  0  0  0  0  0  0
  -26.7436  -27.3617   24.5464 C   0  0  0  0  0  0  0  0  0  0  0  0
  -26.5457  -13.4491   21.7817 C   0  0  0  0  0  0  0  0  0  0  0  0
  -25.9568  -13.5689   19.4416 C   0  0  0  0  0  0  0  0  0  0  0  0
  -28.0785  -27.1335   24.2153 C   0  0  0  0  0  0  0  0  0  0  0  0
  -27.7808  -10.4412   20.8542 C   0  0  0  0  0  0  0  0  0  0  0  0
  -28.6125   -9.5251   21.4981 C   0  0  0  0  0  0  0  0  0  0  0  0
  -28.2080  -29.3375   23.2434 C   0  0  0  0  0  0  0  0  0  0  0  0
  -26.8304   -8.9902   23.0392 C   0  0  0  0  0  0  0  0  0  0  0  0
  -29.5755  -24.8275   18.5364 C   0  0  0  0  0  0  0  0  0  0  0  0
  -28.0528  -26.4701   19.1993 C   0  0  0  0  0  0  0  0  0  0  0  0
  -26.8634  -15.5091   20.5600 C   0  0  0  0  0  0  0  0  0  0  0  0
  -28.5704  -17.3750   20.2250 C   0  0  0  0  0  0  0  0  0  0  0  0
  -19.5652  -27.2899   21.1897 C   0  0  0  0  0  0  0  0  0  0  0  0
  -26.1267  -28.5775   24.2181 C   0  0  0  0  0  0  0  0  0  0  0  0
  -20.9613  -27.1555   21.3136 C   0  0  0  0  0  0  0  0  0  0  0  0
  -26.8659  -29.5797   23.5737 C   0  0  0  0  0  0  0  0  0  0  0  0
  -28.2831  -25.3092   18.4898 C   0  0  0  0  0  0  0  0  0  0  0  0
  -26.0472  -12.8423   20.6289 C   0  0  0  0  0  0  0  0  0  0  0  0
  -28.8102  -28.1203   23.5612 C   0  0  0  0  0  0  0  0  0  0  0  0
  -26.4738  -10.6319   21.3029 C   0  0  0  0  0  0  0  0  0  0  0  0
  -28.1373   -8.7996   22.5905 C   0  0  0  0  0  0  0  0  0  0  0  0
  -25.9986   -9.9064   22.3953 C   0  0  0  0  0  0  0  0  0  0  0  0
  -27.2844  -16.8866   20.5239 C   0  0  0  0  0  0  0  0  0  0  0  0
  -28.4511  -18.7397   20.3240 C   0  0  0  0  0  0  0  0  0  0  0  0
  -30.2230  -26.5501   19.8708 C   0  0  0  0  0  0  0  0  0  0  0  0
  -29.7660  -16.6590   19.8878 C   0  0  0  0  0  0  0  0  0  0  0  0
  -23.6750  -29.4247   22.3809 C   0  0  0  0  0  0  0  0  0  0  0  0
  -24.2345  -32.3541   23.6569 C   0  0  0  0  0  0  0  0  0  0  0  0
  -26.4415  -34.4971   25.1348 C   0  0  0  0  0  0  0  0  0  0  0  0
  -25.6721  -23.4692   19.2973 C   0  0  0  0  0  0  0  0  0  0  0  0
  -18.9317  -28.5681   20.7004 C   0  0  0  0  0  0  0  0  0  0  0  0
  -24.6935  -28.8183   24.6060 C   0  0  0  0  0  0  0  0  0  0  0  0
  -26.2560  -30.9099   23.2172 C   0  0  0  0  0  0  0  0  0  0  0  0
  -19.8587  -29.7781   20.7833 C   0  0  0  0  0  0  0  0  0  0  0  0
  -24.6993  -21.5916   22.1617 C   0  0  0  0  0  0  0  0  0  0  0  0
  -21.2369  -29.4337   20.2275 C   0  0  0  0  0  0  0  0  0  0  0  0
  -25.3859  -20.2392   21.9630 C   0  0  0  0  0  0  0  0  0  0  0  0
  -24.2205  -22.1815   20.8370 C   0  0  0  0  0  0  0  0  0  0  0  0
  -25.9448  -20.9329   19.5955 C   0  0  0  0  0  0  0  0  0  0  0  0
  -21.8962  -28.3141   21.0419 C   0  0  1  0  0  0  0  0  0  0  0  0
  -24.0201  -29.8981   23.7646 C   0  0  1  0  0  0  0  0  0  0  0  0
  -26.4947  -20.3245   20.8969 C   0  0  2  0  0  0  0  0  0  0  0  0
  -26.6189  -36.8354   26.0282 C   0  0  0  0  0  0  0  0  0  0  0  0
  -24.3839  -33.4296   20.8055 C   0  0  0  0  0  0  0  0  0  0  0  0
  -25.4784  -35.4899   21.7142 C   0  0  0  0  0  0  0  0  0  0  0  0
  -23.1570  -34.9015   22.4127 C   0  0  0  0  0  0  0  0  0  0  0  0
  -27.0701  -33.5318   27.8609 C   0  0  0  0  0  0  0  0  0  0  0  0
  -27.2115  -24.6222   17.7288 C   0  0  0  0  0  0  0  0  0  0  0  0
  -31.3110  -27.2457   20.6492 C   0  0  0  0  0  0  0  0  0  0  0  0
  -31.6537  -26.5617   21.9745 C   0  0  0  0  0  0  0  0  0  0  0  0
  -30.4961  -26.5521   22.9661 C   0  0  0  0  0  0  0  0  0  1  0  0
  -25.0976  -33.5353   23.2845 C   0  0  1  0  0  0  0  0  0  0  0  0
  -26.3178  -35.3825   26.3616 C   0  0  2  0  0  0  0  0  0  0  0  0
  -24.5405  -34.3134   22.0590 C   0  0  0  0  0  0  0  0  0  0  0  0
  -30.5739  -25.4248   19.2196 N   0  0  0  0  0  0  0  0  0  0  0  0
  -29.0029  -27.1193   19.9036 N   0  0  0  0  0  0  0  0  0  0  0  0
  -26.4122  -17.8618   20.7928 N   0  0  0  0  0  0  0  0  0  0  0  0
  -27.1515  -18.9765   20.6634 N   0  0  0  0  0  0  0  0  0  0  0  0
  -24.8498  -31.0950   23.6119 N   0  0  0  0  0  0  0  0  0  0  0  0
  -25.3199  -22.2362   19.8705 N   0  0  0  0  0  0  0  0  0  0  0  0
  -29.3321  -19.7482   20.1532 N   0  0  0  0  0  0  0  0  0  0  0  0
  -29.7131  -15.2597   19.8303 N   0  0  0  0  0  0  0  0  0  0  0  0
  -22.4282  -28.8372   22.2819 N   0  0  0  0  0  0  0  0  0  0  0  0
  -25.2308  -34.3409   24.4935 N   0  0  0  0  0  0  0  0  0  0  0  0
  -26.7291  -23.4336   18.3960 N   0  0  0  0  0  0  0  0  0  0  0  0
  -27.2676  -34.9367   27.4200 N   0  3  0  0  0  0  0  0  0  0  0  0
  -30.8533  -17.2421   19.6609 O   0  0  0  0  0  0  0  0  0  0  0  0
  -24.4797  -29.5823   21.4702 O   0  0  0  0  0  0  0  0  0  0  0  0
  -23.0598  -32.5423   23.9830 O   0  0  0  0  0  0  0  0  0  0  0  0
  -27.5063  -33.9972   24.7786 O   0  0  0  0  0  0  0  0  0  0  0  0
  -25.0915  -24.5247   19.5727 O   0  0  0  0  0  0  0  0  0  0  0  0
  -25.6491  -11.5412   20.6621 O   0  0  0  0  0  0  0  0  0  0  0  0
  -30.1131  -27.8999   23.2363 O   0  0  0  0  0  0  0  0  0  1  0  0
  -28.9357   -7.9188   23.2077 F   0  0  0  0  0  0  0  0  0  0  0  0
  -24.7436  -10.0843   22.8302 F   0  0  0  0  0  0  0  0  0  0  0  0
  1  2  1  0  0  0  0
  1  5  2  0  0  0  0
  2  6  2  0  0  0  0
  3  8  2  0  0  0  0
  3 17  1  0  0  0  0
  4  9  1  0  0  0  0
  4 17  2  0  0  0  0
  5 19  1  0  0  0  0
  6 21  1  0  0  0  0
  7 10  2  0  0  0  0
  7 20  1  0  0  0  0
  8 24  1  0  0  0  0
  9 24  2  0  0  0  0
 10 25  1  0  0  0  0
 11 12  2  0  0  0  0
 11 26  1  0  0  0  0
 12 27  1  0  0  0  0
 13 22  1  0  0  0  0
 13 25  2  0  0  0  0
 14 27  2  0  0  0  0
 14 28  1  0  0  0  0
 15 23  1  0  0  0  0
 15 61  2  0  0  0  0
 16 23  2  0  0  0  0
 16 62  1  0  0  0  0
 17 29  1  0  0  0  0
 18 29  1  0  0  0  0
 18 30  2  0  0  0  0
 18 32  1  0  0  0  0
 19 21  2  0  0  0  0
 19 37  1  0  0  0  0
 20 22  2  0  0  0  0
 20 38  1  0  0  0  0
 21 46  1  0  0  0  0
 22 39  1  0  0  0  0
 23 54  1  0  0  0  0
 24 78  1  0  0  0  0
 25 79  1  0  0  0  0
 26 28  2  0  0  0  0
 26 78  1  0  0  0  0
 27 80  1  0  0  0  0
 28 81  1  0  0  0  0
 29 63  2  0  0  0  0
 30 64  1  0  0  0  0
 30 67  1  0  0  0  0
 31 55  1  0  0  0  0
 31 61  1  0  0  0  0
 31 62  2  0  0  0  0
 32 68  1  0  0  0  0
 32 73  2  0  0  0  0
 33 47  1  0  0  0  0
 33 69  1  0  0  0  0
 33 74  2  0  0  0  0
 34 58  1  0  0  0  0
 34 65  1  0  0  0  0
 34 75  2  0  0  0  0
 35 59  1  0  0  0  0
 35 70  1  0  0  0  0
 35 76  2  0  0  0  0
 36 66  1  0  0  0  0
 36 71  1  0  0  0  0
 36 77  2  0  0  0  0
 37 40  1  0  0  0  0
 38 47  1  0  0  0  0
 39 65  1  0  0  0  0
 40 42  1  0  0  0  0
 41 43  1  0  0  0  0
 41 44  1  0  0  0  0
 42 46  1  0  0  0  0
 43 48  1  0  0  0  0
 44 66  1  0  0  0  0
 45 48  1  0  0  0  0
 45 66  1  0  0  0  0
 46 69  1  0  0  0  0
 47 65  1  0  0  0  0
 48 64  1  0  0  0  0
 49 59  1  0  0  0  0
 50 60  1  0  0  0  0
 51 60  1  0  0  0  0
 52 60  1  0  0  0  0
 53 72  1  0  0  0  0
 54 71  1  0  0  0  0
 55 56  1  0  0  0  0
 56 57  1  0  0  0  0
 57 79  1  0  0  0  0
 58 60  1  0  0  0  0
 58 70  1  0  0  0  0
 59 72  1  0  0  0  0
 63 64  1  0  0  0  0
M  CHG  1  72   1
M  ISO  4  36 100  57 101  71 100  79 101
M  END
> <Batch ID>
0083

> <Smiles>
CNC(C)C(=O)NC(C(=O)N1Cc2cc([101O:1][101CH2:1]CCc3ncc(C[100NH:0][100C:0](=O)N4CCCC(n5nc(-c6ccc(Oc7ccc(F)cc7F)cc6)c(C(N)=O)c5N)C4)cn3)ccc2CC1C(=O)NC1CCCc2ccccc21)C(C)(C)C

> <Shape>
0.237

> <Color>
0.103

> <Negative vol penalty>
0.000

$$$$

  -OEChem-04052318513D

 83 91  0     1  0  0  0  0  0999 V2000
  -33.0346  -23.0869   15.9039 C   0  0  0  0  0  0  0  0  0  0  0  0
  -31.8832  -23.8242   15.6467 C   0  0  0  0  0  0  0  0  0  0  0  0
  -27.5192  -17.9488   20.8507 C   0  0  0  0  0  0  0  0  0  0  0  0
  -25.4879  -17.4882   19.6266 C   0  0  0  0  0  0  0  0  0  0  0  0
  -33.2127  -22.4864   17.1495 C   0  0  0  0  0  0  0  0  0  0  0  0
  -30.9087  -23.9604   16.6348 C   0  0  0  0  0  0  0  0  0  0  0  0
  -26.0361  -28.6147   19.0663 C   0  0  0  0  0  0  0  0  0  0  0  0
  -27.8658  -16.5994   20.7834 C   0  0  0  0  0  0  0  0  0  0  0  0
  -25.8345  -16.1388   19.5592 C   0  0  0  0  0  0  0  0  0  0  0  0
  -24.6803  -28.6876   19.3830 C   0  0  0  0  0  0  0  0  0  0  0  0
  -25.7513  -13.4406   21.5948 C   0  0  0  0  0  0  0  0  0  0  0  0
  -24.7584  -12.5018   21.8744 C   0  0  0  0  0  0  0  0  0  0  0  0
  -25.1320  -27.6721   21.5241 C   0  0  0  0  0  0  0  0  0  0  0  0
  -20.4926  -28.6786   23.3659 C   0  0  0  0  0  0  0  0  0  0  0  0
  -25.0135  -11.5722   19.6590 C   0  0  0  0  0  0  0  0  0  0  0  0
  -26.3302  -18.3932   20.2724 C   0  0  0  0  0  0  0  0  0  0  0  0
  -26.2994  -20.7965   19.4175 C   0  0  0  0  0  0  0  0  0  0  0  0
  -32.2443  -22.6233   18.1565 C   0  0  0  0  0  0  0  0  0  0  0  0
  -26.9500  -28.0590   19.9732 C   0  0  0  0  0  0  0  0  0  0  0  0
  -31.0734  -23.3600   17.8945 C   0  0  0  0  0  0  0  0  0  0  0  0
  -26.4992  -27.5957   21.2175 C   0  0  0  0  0  0  0  0  0  0  0  0
  -21.0230  -27.9165   22.3398 C   0  0  0  0  0  0  0  0  0  0  0  0
  -27.0235  -15.6944   20.1376 C   0  0  0  0  0  0  0  0  0  0  0  0
  -24.2276  -28.2136   20.6109 C   0  0  0  0  0  0  0  0  0  0  0  0
  -26.3753  -13.4454   20.3473 C   0  0  0  0  0  0  0  0  0  0  0  0
  -24.3895  -11.5675   20.9066 C   0  0  0  0  0  0  0  0  0  0  0  0
  -26.0064  -12.5111   19.3794 C   0  0  0  0  0  0  0  0  0  0  0  0
  -25.9714  -19.7870   20.3421 C   0  0  0  0  0  0  0  0  0  0  0  0
  -19.1185  -28.7746   23.4555 C   0  0  0  0  0  0  0  0  0  0  0  0
  -20.1442  -27.3006   21.4715 C   0  0  0  0  0  0  0  0  0  0  0  0
  -25.7290  -21.9341   19.9343 C   0  0  0  0  0  0  0  0  0  0  0  0
  -27.0524  -20.7135   18.2002 C   0  0  0  0  0  0  0  0  0  0  0  0
  -28.9139  -25.5600   19.9315 C   0  0  0  0  0  0  0  0  0  0  0  0
  -29.8968  -26.7789   22.7724 C   0  0  0  0  0  0  0  0  0  0  0  0
  -29.1863  -28.7000   25.5021 C   0  0  0  0  0  0  0  0  0  0  0  0
  -21.0175  -23.6544   22.8252 C   0  0  0  0  0  0  0  0  0  0  0  0
  -32.4593  -21.9164   19.4713 C   0  0  0  0  0  0  0  0  0  0  0  0
  -28.4131  -28.0121   19.6274 C   0  0  0  0  0  0  0  0  0  0  0  0
  -27.4426  -27.0087   22.2344 C   0  0  0  0  0  0  0  0  0  0  0  0
  -31.5516  -22.4214   20.5899 C   0  0  0  0  0  0  0  0  0  0  0  0
  -24.1846  -23.3288   24.4190 C   0  0  0  0  0  0  0  0  0  0  0  0
  -30.1129  -22.5406   20.0972 C   0  0  0  0  0  0  0  0  0  0  0  0
  -24.9987  -22.4761   23.4442 C   0  0  0  0  0  0  0  0  0  0  0  0
  -22.7200  -22.8982   24.4580 C   0  0  0  0  0  0  0  0  0  0  0  0
  -22.8673  -21.9980   22.1686 C   0  0  0  0  0  0  0  0  0  0  0  0
  -30.0049  -23.5513   18.9490 C   0  0  1  0  0  0  0  0  0  0  0  0
  -29.1803  -26.9566   20.4177 C   0  0  1  0  0  0  0  0  0  0  0  0
  -24.3389  -22.4308   22.0529 C   0  0  2  0  0  0  0  0  0  0  0  0
  -18.4966  -29.5835   24.5418 C   0  0  0  0  0  0  0  0  0  0  0  0
  -30.1727  -29.4770   27.6748 C   0  0  0  0  0  0  0  0  0  0  0  0
  -20.2593  -24.5674   18.7100 C   0  0  0  0  0  0  0  0  0  0  0  0
  -29.3715  -24.0313   23.9907 C   0  0  0  0  0  0  0  0  0  0  0  0
  -29.4486  -25.0975   26.2547 C   0  0  0  0  0  0  0  0  0  0  0  0
  -31.4655  -25.1426   24.7873 C   0  0  0  0  0  0  0  0  0  0  0  0
  -29.0334  -31.5415   24.6889 C   0  0  0  0  0  0  0  0  0  0  0  0
  -22.5104  -27.7788   22.1976 C   0  0  0  0  0  0  0  0  0  1  0  0
  -20.6430  -26.4644   20.3418 C   0  0  0  0  0  0  0  0  0  0  0  0
  -19.3930  -24.3287   21.0744 C   0  0  0  0  0  0  0  0  0  0  0  0
  -29.4819  -26.6012   24.2129 C   0  0  1  0  0  0  0  0  0  0  0  0
  -29.9783  -29.7912   26.1996 C   0  0  2  0  0  0  0  0  0  0  0  0
  -19.6953  -25.3082   19.9279 C   0  0  2  0  0  0  0  0  0  0  0  0
  -29.9235  -25.2274   24.7917 C   0  0  0  0  0  0  0  0  0  0  0  0
  -25.2487  -20.2430   21.3687 N   0  0  0  0  0  0  0  0  0  0  0  0
  -18.2823  -28.1610   22.5915 N   0  0  0  0  0  0  0  0  0  0  0  0
  -18.8037  -27.4117   21.5833 N   0  0  0  0  0  0  0  0  0  0  0  0
  -25.1180  -21.5516   21.0922 N   0  0  0  0  0  0  0  0  0  0  0  0
  -28.8627  -26.9790   21.8470 N   0  0  0  0  0  0  0  0  0  0  0  0
  -22.1533  -22.8776   23.1074 N   0  0  0  0  0  0  0  0  0  0  0  0
  -25.6955  -23.2141   19.5069 N   0  0  0  0  0  0  0  0  0  0  0  0
  -27.5670  -19.4676   17.8165 N   0  0  0  0  0  0  0  0  0  0  0  0
  -30.0359  -24.9042   19.4620 N   0  0  0  0  0  0  0  0  0  0  0  0
  -30.0122  -27.7523   24.9355 N   0  0  0  0  0  0  0  0  0  0  0  0
  -20.5487  -23.5821   21.5192 N   0  0  0  0  0  0  0  0  0  0  0  0
  -29.2704  -31.0978   26.0867 N   0  3  0  0  0  0  0  0  0  0  0  0
  -27.2766  -21.7177   17.4826 O   0  0  0  0  0  0  0  0  0  0  0  0
  -27.7750  -25.1103   19.9803 O   0  0  0  0  0  0  0  0  0  0  0  0
  -31.0948  -26.7487   22.4800 O   0  0  0  0  0  0  0  0  0  0  0  0
  -27.9579  -28.6875   25.4669 O   0  0  0  0  0  0  0  0  0  0  0  0
  -20.4656  -24.3642   23.6728 O   0  0  0  0  0  0  0  0  0  0  0  0
  -27.3615  -14.3776   20.0715 O   0  0  0  0  0  0  0  0  0  0  0  0
  -22.9047  -28.2830   20.9222 O   0  0  0  0  0  0  0  0  0  1  0  0
  -23.4370  -10.6650   21.1758 F   0  0  0  0  0  0  0  0  0  0  0  0
  -26.6031  -12.5100   18.1795 F   0  0  0  0  0  0  0  0  0  0  0  0
  1  2  1  0  0  0  0
  1  5  2  0  0  0  0
  2  6  2  0  0  0  0
  3  8  2  0  0  0  0
  3 16  1  0  0  0  0
  4  9  1  0  0  0  0
  4 16  2  0  0  0  0
  5 18  1  0  0  0  0
  6 20  1  0  0  0  0
  7 10  2  0  0  0  0
  7 19  1  0  0  0  0
  8 23  1  0  0  0  0
  9 23  2  0  0  0  0
 10 24  1  0  0  0  0
 11 12  2  0  0  0  0
 11 25  1  0  0  0  0
 12 26  1  0  0  0  0
 13 21  1  0  0  0  0
 13 24  2  0  0  0  0
 14 22  1  0  0  0  0
 14 29  2  0  0  0  0
 15 26  2  0  0  0  0
 15 27  1  0  0  0  0
 16 28  1  0  0  0  0
 17 28  1  0  0  0  0
 17 31  2  0  0  0  0
 17 32  1  0  0  0  0
 18 20  2  0  0  0  0
 18 37  1  0  0  0  0
 19 21  2  0  0  0  0
 19 38  1  0  0  0  0
 20 46  1  0  0  0  0
 21 39  1  0  0  0  0
 22 30  2  0  0  0  0
 22 56  1  0  0  0  0
 23 80  1  0  0  0  0
 24 81  1  0  0  0  0
 25 27  2  0  0  0  0
 25 80  1  0  0  0  0
 26 82  1  0  0  0  0
 27 83  1  0  0  0  0
 28 63  2  0  0  0  0
 29 49  1  0  0  0  0
 29 64  1  0  0  0  0
 30 57  1  0  0  0  0
 30 65  1  0  0  0  0
 31 66  1  0  0  0  0
 31 69  1  0  0  0  0
 32 70  1  0  0  0  0
 32 75  2  0  0  0  0
 33 47  1  0  0  0  0
 33 71  1  0  0  0  0
 33 76  2  0  0  0  0
 34 59  1  0  0  0  0
 34 67  1  0  0  0  0
 34 77  2  0  0  0  0
 35 60  1  0  0  0  0
 35 72  1  0  0  0  0
 35 78  2  0  0  0  0
 36 68  1  0  0  0  0
 36 73  1  0  0  0  0
 36 79  2  0  0  0  0
 37 40  1  0  0  0  0
 38 47  1  0  0  0  0
 39 67  1  0  0  0  0
 40 42  1  0  0  0  0
 41 43  1  0  0  0  0
 41 44  1  0  0  0  0
 42 46  1  0  0  0  0
 43 48  1  0  0  0  0
 44 68  1  0  0  0  0
 45 48  1  0  0  0  0
 45 68  1  0  0  0  0
 46 71  1  0  0  0  0
 47 67  1  0  0  0  0
 48 66  1  0  0  0  0
 50 60  1  0  0  0  0
 51 61  1  0  0  0  0
 52 62  1  0  0  0  0
 53 62  1  0  0  0  0
 54 62  1  0  0  0  0
 55 74  1  0  0  0  0
 56 81  1  0  0  0  0
 57 61  1  0  0  0  0
 58 61  1  0  0  0  0
 58 73  1  0  0  0  0
 59 62  1  0  0  0  0
 59 72  1  0  0  0  0
 60 74  1  0  0  0  0
 63 66  1  0  0  0  0
 64 65  2  0  0  0  0
M  CHG  1  74   1
M  ISO  4  36 100  56 101  73 100  81 101
M  END
> <Batch ID>
0083

> <Smiles>
CNC(C)C(=O)NC(C(=O)N1Cc2cc([101O:1][101CH2:1]c3cc(C)nnc3CC(C)C[100NH:0][100C:0](=O)N3CCCC(n4nc(-c5ccc(Oc6ccc(F)cc6F)cc5)c(C(N)=O)c4N)C3)ccc2CC1C(=O)NC1CCCc2ccccc21)C(C)(C)C

> <Shape>
0.198

> <Color>
0.047

> <Negative vol penalty>
0.000

$$$$

  -OEChem-04052318513D

 86 94  0     1  0  0  0  0  0999 V2000
  -18.4042  -28.5913   25.9604 C   0  0  0  0  0  0  0  0  0  0  0  0
  -19.7868  -28.5240   26.0992 C   0  0  0  0  0  0  0  0  0  0  0  0
  -27.8089  -17.7067   17.9463 C   0  0  0  0  0  0  0  0  0  0  0  0
  -26.4849  -18.0470   19.9384 C   0  0  0  0  0  0  0  0  0  0  0  0
  -17.8180  -28.3663   24.7155 C   0  0  0  0  0  0  0  0  0  0  0  0
  -20.5840  -28.2306   24.9934 C   0  0  0  0  0  0  0  0  0  0  0  0
  -26.1761  -30.4241   23.8006 C   0  0  0  0  0  0  0  0  0  0  0  0
  -27.2541  -16.4360   17.7946 C   0  0  0  0  0  0  0  0  0  0  0  0
  -25.9301  -16.7762   19.7867 C   0  0  0  0  0  0  0  0  0  0  0  0
  -27.4518  -29.8959   23.9941 C   0  0  0  0  0  0  0  0  0  0  0  0
  -26.8336  -13.5749   20.3917 C   0  0  0  0  0  0  0  0  0  0  0  0
  -26.7415  -12.7684   21.5260 C   0  0  0  0  0  0  0  0  0  0  0  0
  -27.4688  -29.1167   21.7112 C   0  0  0  0  0  0  0  0  0  0  0  0
  -27.7159  -25.4676   23.6590 C   0  0  0  0  0  0  0  0  0  0  0  0
  -24.3416  -12.6733   21.2635 C   0  0  0  0  0  0  0  0  0  0  0  0
  -27.4244  -18.5122   19.0183 C   0  0  0  0  0  0  0  0  0  0  0  0
  -27.5103  -21.0344   18.6456 C   0  0  0  0  0  0  0  0  0  0  0  0
  -18.6091  -28.0795   23.5919 C   0  0  0  0  0  0  0  0  0  0  0  0
  -25.5317  -30.2928   22.5621 C   0  0  0  0  0  0  0  0  0  0  0  0
  -20.0078  -28.0003   23.7327 C   0  0  0  0  0  0  0  0  0  0  0  0
  -26.1861  -29.6463   21.5038 C   0  0  0  0  0  0  0  0  0  0  0  0
  -28.9828  -25.2660   24.1778 C   0  0  0  0  0  0  0  0  0  0  0  0
  -26.3147  -15.9707   18.7148 C   0  0  0  0  0  0  0  0  0  0  0  0
  -28.0972  -29.2396   22.9502 C   0  0  0  0  0  0  0  0  0  0  0  0
  -25.6797  -13.9307   19.6933 C   0  0  0  0  0  0  0  0  0  0  0  0
  -25.4955  -12.3175   21.9619 C   0  0  0  0  0  0  0  0  0  0  0  0
  -24.4338  -13.4799   20.1292 C   0  0  0  0  0  0  0  0  0  0  0  0
  -27.9975  -19.8247   19.1758 C   0  0  0  0  0  0  0  0  0  0  0  0
  -26.6585  -24.8211   24.2669 C   0  0  0  0  0  0  0  0  0  0  0  0
  -29.1085  -24.4317   25.2703 C   0  0  0  0  0  0  0  0  0  0  0  0
  -28.4038  -21.9836   19.0783 C   0  0  0  0  0  0  0  0  0  0  0  0
  -26.3534  -21.2783   17.8346 C   0  0  0  0  0  0  0  0  0  0  0  0
  -22.8618  -28.8885   21.5604 C   0  0  0  0  0  0  0  0  0  0  0  0
  -23.6159  -30.3339   18.7561 C   0  0  0  0  0  0  0  0  0  0  0  0
  -26.0222  -31.6845   16.7480 C   0  0  0  0  0  0  0  0  0  0  0  0
  -32.1324  -22.2413   23.7561 C   0  0  0  0  0  0  0  0  0  0  0  0
  -17.9269  -27.7970   22.2768 C   0  0  0  0  0  0  0  0  0  0  0  0
  -24.1665  -30.8915   22.3615 C   0  0  0  0  0  0  0  0  0  0  0  0
  -25.5458  -29.4965   20.1488 C   0  0  0  0  0  0  0  0  0  0  0  0
  -18.8677  -27.8614   21.0764 C   0  0  0  0  0  0  0  0  0  0  0  0
  -32.9953  -22.5169   20.3129 C   0  0  0  0  0  0  0  0  0  0  0  0
  -20.1547  -27.0952   21.3652 C   0  0  0  0  0  0  0  0  0  0  0  0
  -31.7683  -21.9673   19.5832 C   0  0  0  0  0  0  0  0  0  0  0  0
  -33.2686  -21.7568   21.6089 C   0  0  0  0  0  0  0  0  0  0  0  0
  -30.8944  -21.1247   21.8024 C   0  0  0  0  0  0  0  0  0  0  0  0
  -20.9079  -27.7091   22.5515 C   0  0  1  0  0  0  0  0  0  0  0  0
  -23.3954  -30.2493   21.2124 C   0  0  1  0  0  0  0  0  0  0  0  0
  -30.5457  -21.8955   20.5176 C   0  0  2  0  0  0  0  0  0  0  0  0
  -23.4915  -24.1299   22.1699 C   0  0  0  0  0  0  0  0  0  0  0  0
  -30.5196  -24.6742   27.3377 C   0  0  0  0  0  0  0  0  0  0  0  0
  -26.3405  -32.7513   14.4990 C   0  0  0  0  0  0  0  0  0  0  0  0
  -23.3877  -27.5963   17.4279 C   0  0  0  0  0  0  0  0  0  0  0  0
  -24.6141  -28.5289   15.4545 C   0  0  0  0  0  0  0  0  0  0  0  0
  -22.4034  -29.4804   16.1104 C   0  0  0  0  0  0  0  0  0  0  0  0
  -27.0052  -34.2027   17.9527 C   0  0  0  0  0  0  0  0  0  0  0  0
  -30.1726  -25.9488   23.5518 C   0  0  0  0  0  0  0  0  0  0  0  0
  -25.2740  -25.0041   23.7467 C   0  0  0  0  0  0  0  0  0  0  0  0
  -24.9161  -23.9631   22.6745 C   0  0  0  0  0  0  0  0  0  0  0  0
  -30.6852  -27.1487   24.3512 C   0  0  0  0  0  0  0  0  0  0  0  0
  -30.8548  -22.6752   25.8391 C   0  0  0  0  0  0  0  0  0  0  0  0
  -29.6725  -28.2833   24.4535 C   0  0  0  0  0  0  0  0  0  1  0  0
  -30.4424  -24.1666   25.8827 C   0  0  1  0  0  0  0  0  0  0  0  0
  -24.4314  -29.9550   17.5435 C   0  0  1  0  0  0  0  0  0  0  0  0
  -26.0740  -32.9911   15.9770 C   0  0  2  0  0  0  0  0  0  0  0  0
  -23.7207  -28.8911   16.6601 C   0  0  0  0  0  0  0  0  0  0  0  0
  -29.1140  -19.9877   19.8906 N   0  0  0  0  0  0  0  0  0  0  0  0
  -26.8108  -24.0100   25.3351 N   0  0  0  0  0  0  0  0  0  0  0  0
  -28.0559  -23.8122   25.8452 N   0  0  0  0  0  0  0  0  0  0  0  0
  -29.3358  -21.3109   19.8125 N   0  0  0  0  0  0  0  0  0  0  0  0
  -24.2077  -30.0932   20.0041 N   0  0  0  0  0  0  0  0  0  0  0  0
  -32.0700  -21.7268   22.4506 N   0  0  0  0  0  0  0  0  0  0  0  0
  -28.4753  -23.3196   18.8985 N   0  0  0  0  0  0  0  0  0  0  0  0
  -25.5436  -20.1902   17.4813 N   0  0  0  0  0  0  0  0  0  0  0  0
  -21.6077  -28.9073   22.1404 N   0  0  0  0  0  0  0  0  0  0  0  0
  -24.7345  -31.2020   16.8496 N   0  0  0  0  0  0  0  0  0  0  0  0
  -30.9503  -22.1800   24.4839 N   0  0  0  0  0  0  0  0  0  0  0  0
  -27.1541  -33.8666   16.5133 N   0  3  0  0  0  0  0  0  0  0  0  0
  -26.0559  -22.4246   17.4212 O   0  0  0  0  0  0  0  0  0  0  0  0
  -23.5372  -27.8948   21.3192 O   0  0  0  0  0  0  0  0  0  0  0  0
  -22.4979  -30.8318   18.6015 O   0  0  0  0  0  0  0  0  0  0  0  0
  -27.0244  -31.1439   17.2106 O   0  0  0  0  0  0  0  0  0  0  0  0
  -33.1636  -22.7247   24.2356 O   0  0  0  0  0  0  0  0  0  0  0  0
  -25.7729  -14.7309   18.5670 O   0  0  0  0  0  0  0  0  0  0  0  0
  -29.3421  -28.7225   23.1366 O   0  0  0  0  0  0  0  0  0  1  0  0
  -25.4074  -11.5417   23.0502 F   0  0  0  0  0  0  0  0  0  0  0  0
  -23.3219  -13.8175   19.4618 F   0  0  0  0  0  0  0  0  0  0  0  0
  1  2  1  0  0  0  0
  1  5  2  0  0  0  0
  2  6  2  0  0  0  0
  3  8  2  0  0  0  0
  3 16  1  0  0  0  0
  4  9  1  0  0  0  0
  4 16  2  0  0  0  0
  5 18  1  0  0  0  0
  6 20  1  0  0  0  0
  7 10  2  0  0  0  0
  7 19  1  0  0  0  0
  8 23  1  0  0  0  0
  9 23  2  0  0  0  0
 10 24  1  0  0  0  0
 11 12  2  0  0  0  0
 11 25  1  0  0  0  0
 12 26  1  0  0  0  0
 13 21  1  0  0  0  0
 13 24  2  0  0  0  0
 14 22  2  0  0  0  0
 14 29  1  0  0  0  0
 15 26  2  0  0  0  0
 15 27  1  0  0  0  0
 16 28  1  0  0  0  0
 17 28  1  0  0  0  0
 17 31  2  0  0  0  0
 17 32  1  0  0  0  0
 18 20  2  0  0  0  0
 18 37  1  0  0  0  0
 19 21  2  0  0  0  0
 19 38  1  0  0  0  0
 20 46  1  0  0  0  0
 21 39  1  0  0  0  0
 22 30  1  0  0  0  0
 22 56  1  0  0  0  0
 23 83  1  0  0  0  0
 24 84  1  0  0  0  0
 25 27  2  0  0  0  0
 25 83  1  0  0  0  0
 26 85  1  0  0  0  0
 27 86  1  0  0  0  0
 28 66  2  0  0  0  0
 29 57  1  0  0  0  0
 29 67  2  0  0  0  0
 30 62  1  0  0  0  0
 30 68  2  0  0  0  0
 31 69  1  0  0  0  0
 31 72  1  0  0  0  0
 32 73  1  0  0  0  0
 32 78  2  0  0  0  0
 33 47  1  0  0  0  0
 33 74  1  0  0  0  0
 33 79  2  0  0  0  0
 34 63  1  0  0  0  0
 34 70  1  0  0  0  0
 34 80  2  0  0  0  0
 35 64  1  0  0  0  0
 35 75  1  0  0  0  0
 35 81  2  0  0  0  0
 36 71  1  0  0  0  0
 36 76  1  0  0  0  0
 36 82  2  0  0  0  0
 37 40  1  0  0  0  0
 38 47  1  0  0  0  0
 39 70  1  0  0  0  0
 40 42  1  0  0  0  0
 41 43  1  0  0  0  0
 41 44  1  0  0  0  0
 42 46  1  0  0  0  0
 43 48  1  0  0  0  0
 44 71  1  0  0  0  0
 45 48  1  0  0  0  0
 45 71  1  0  0  0  0
 46 74  1  0  0  0  0
 47 70  1  0  0  0  0
 48 69  1  0  0  0  0
 49 58  1  0  0  0  0
 50 62  1  0  0  0  0
 51 64  1  0  0  0  0
 52 65  1  0  0  0  0
 53 65  1  0  0  0  0
 54 65  1  0  0  0  0
 55 77  1  0  0  0  0
 56 59  1  0  0  0  0
 57 58  1  0  0  0  0
 59 61  1  0  0  0  0
 60 62  1  0  0  0  0
 60 76  1  0  0  0  0
 61 84  1  0  0  0  0
 63 65  1  0  0  0  0
 63 75  1  0  0  0  0
 64 77  1  0  0  0  0
 66 69  1  0  0  0  0
 67 68  1  0  0  0  0
M  CHG  1  77   1
M  ISO  4  36 100  61 101  76 100  84 101
M  END
> <Batch ID>
0083

> <Smiles>
CCCc1cc(CC[101CH2:1][101O:1]c2ccc3c(c2)CN(C(=O)C(NC(=O)C(C)NC)C(C)(C)C)C(C(=O)NC2CCCc4ccccc42)C3)c(C(C)C[100NH:0][100C:0](=O)N2CCCC(n3nc(-c4ccc(Oc5ccc(F)cc5F)cc4)c(C(N)=O)c3N)C2)nn1

> <Shape>
0.185

> <Color>
0.090

> <Negative vol penalty>
0.000

$$$$

  -OEChem-04052318513D

 87 95  0     1  0  0  0  0  0999 V2000
  -18.1673  -25.8643   25.6754 C   0  0  0  0  0  0  0  0  0  0  0  0
  -19.4918  -25.4501   25.7730 C   0  0  0  0  0  0  0  0  0  0  0  0
  -27.2199  -14.8425   22.1582 C   0  0  0  0  0  0  0  0  0  0  0  0
  -26.0424  -15.8048   20.2808 C   0  0  0  0  0  0  0  0  0  0  0  0
  -17.7854  -26.7414   24.6612 C   0  0  0  0  0  0  0  0  0  0  0  0
  -20.4350  -25.9121   24.8557 C   0  0  0  0  0  0  0  0  0  0  0  0
  -27.3680  -27.6487   24.3721 C   0  0  0  0  0  0  0  0  0  0  0  0
  -26.7265  -13.5820   21.8216 C   0  0  0  0  0  0  0  0  0  0  0  0
  -25.5491  -14.5443   19.9442 C   0  0  0  0  0  0  0  0  0  0  0  0
  -28.4962  -27.3727   23.6009 C   0  0  0  0  0  0  0  0  0  0  0  0
  -25.4860  -10.1672   21.6666 C   0  0  0  0  0  0  0  0  0  0  0  0
  -24.9856   -9.3690   22.6952 C   0  0  0  0  0  0  0  0  0  0  0  0
  -27.7376  -28.9475   21.9385 C   0  0  0  0  0  0  0  0  0  0  0  0
  -27.6569  -25.5113   19.6635 C   0  0  0  0  0  0  0  0  0  0  0  0
  -23.3378  -11.0604   23.2062 C   0  0  0  0  0  0  0  0  0  0  0  0
  -26.8778  -15.9539   21.3879 C   0  0  0  0  0  0  0  0  0  0  0  0
  -28.5831  -17.8486   21.2885 C   0  0  0  0  0  0  0  0  0  0  0  0
  -18.7263  -27.2219   23.7368 C   0  0  0  0  0  0  0  0  0  0  0  0
  -26.4090  -28.5696   23.9264 C   0  0  0  0  0  0  0  0  0  0  0  0
  -20.0650  -26.7954   23.8274 C   0  0  0  0  0  0  0  0  0  0  0  0
  -26.5994  -29.2353   22.7071 C   0  0  0  0  0  0  0  0  0  0  0  0
  -28.9346  -25.0935   19.3082 C   0  0  0  0  0  0  0  0  0  0  0  0
  -29.1724  -23.7490   19.0454 C   0  0  0  0  0  0  0  0  0  0  0  0
  -25.8911  -13.4329   20.7146 C   0  0  0  0  0  0  0  0  0  0  0  0
  -28.6797  -28.0200   22.3825 C   0  0  0  0  0  0  0  0  0  0  0  0
  -24.9123  -11.4120   21.4077 C   0  0  0  0  0  0  0  0  0  0  0  0
  -23.9115   -9.8156   23.4650 C   0  0  0  0  0  0  0  0  0  0  0  0
  -23.8382  -11.8586   22.1775 C   0  0  0  0  0  0  0  0  0  0  0  0
  -27.3867  -17.2563   21.7354 C   0  0  0  0  0  0  0  0  0  0  0  0
  -26.6593  -24.5529   19.7413 C   0  0  0  0  0  0  0  0  0  0  0  0
  -28.1071  -22.8694   19.1511 C   0  0  0  0  0  0  0  0  0  0  0  0
  -28.6079  -19.0774   21.9017 C   0  0  0  0  0  0  0  0  0  0  0  0
  -29.5825  -17.3341   20.3985 C   0  0  0  0  0  0  0  0  0  0  0  0
  -23.3242  -28.4100   23.1767 C   0  0  0  0  0  0  0  0  0  0  0  0
  -23.6230  -31.6289   22.9082 C   0  0  0  0  0  0  0  0  0  0  0  0
  -25.6594  -34.3150   22.3744 C   0  0  0  0  0  0  0  0  0  0  0  0
  -25.0362  -23.3318   23.5317 C   0  0  0  0  0  0  0  0  0  0  0  0
  -18.2567  -28.1315   22.6292 C   0  0  0  0  0  0  0  0  0  0  0  0
  -25.2110  -28.8760   24.7826 C   0  0  0  0  0  0  0  0  0  0  0  0
  -25.6096  -30.2476   22.1933 C   0  0  0  0  0  0  0  0  0  0  0  0
  -19.3921  -28.8686   21.9237 C   0  0  0  0  0  0  0  0  0  0  0  0
  -26.4122  -21.0327   25.8764 C   0  0  0  0  0  0  0  0  0  0  0  0
  -20.5283  -27.9064   21.5920 C   0  0  0  0  0  0  0  0  0  0  0  0
  -26.9150  -19.8796   25.0060 C   0  0  0  0  0  0  0  0  0  0  0  0
  -25.1173  -21.6295   25.3295 C   0  0  0  0  0  0  0  0  0  0  0  0
  -25.6787  -20.8931   23.0456 C   0  0  0  0  0  0  0  0  0  0  0  0
  -21.1223  -27.2939   22.8662 C   0  0  1  0  0  0  0  0  0  0  0  0
  -24.0411  -29.4506   23.9897 C   0  0  1  0  0  0  0  0  0  0  0  0
  -27.0123  -20.2954   23.5259 C   0  0  2  0  0  0  0  0  0  0  0  0
  -30.5323  -23.2723   18.6597 C   0  0  0  0  0  0  0  0  0  0  0  0
  -25.6094  -36.8160   22.1748 C   0  0  0  0  0  0  0  0  0  0  0  0
  -28.2856  -19.5021   17.1923 C   0  0  0  0  0  0  0  0  0  0  0  0
  -26.6615  -21.3917   16.9570 C   0  0  0  0  0  0  0  0  0  0  0  0
  -22.4422  -31.3791   20.1059 C   0  0  0  0  0  0  0  0  0  0  0  0
  -23.2860  -33.6857   19.6203 C   0  0  0  0  0  0  0  0  0  0  0  0
  -21.5990  -33.3306   21.4232 C   0  0  0  0  0  0  0  0  0  0  0  0
  -27.4665  -34.6523   24.6938 C   0  0  0  0  0  0  0  0  0  0  0  0
  -30.0409  -26.1141   19.2182 C   0  0  0  0  0  0  0  0  0  0  0  0
  -25.2756  -24.9651   20.1184 C   0  0  0  0  0  0  0  0  0  0  0  0
  -28.3003  -21.4132   18.8794 C   0  0  0  0  0  0  0  0  0  0  0  0
  -31.0026  -26.0865   20.4081 C   0  0  0  0  0  0  0  0  0  0  0  0
  -25.0134  -24.9240   21.6282 C   0  0  0  0  0  0  0  0  0  0  0  0
  -30.3357  -26.4419   21.7319 C   0  0  0  0  0  0  0  0  0  1  0  0
  -23.9846  -32.5796   21.7927 C   0  0  1  0  0  0  0  0  0  0  0  0
  -25.8010  -35.6340   23.1123 C   0  0  2  0  0  0  0  0  0  0  0  0
  -28.0728  -21.0031   17.4046 C   0  0  0  0  0  0  0  0  0  0  0  0
  -22.8458  -32.7233   20.7440 C   0  0  0  0  0  0  0  0  0  0  0  0
  -26.7012  -18.0439   22.5684 N   0  0  0  0  0  0  0  0  0  0  0  0
  -26.8522  -23.2380   19.4934 N   0  0  0  0  0  0  0  0  0  0  0  0
  -27.4694  -19.1436   22.6498 N   0  0  0  0  0  0  0  0  0  0  0  0
  -24.4511  -30.5082   23.0637 N   0  0  0  0  0  0  0  0  0  0  0  0
  -25.2771  -22.0043   23.9224 N   0  0  0  0  0  0  0  0  0  0  0  0
  -29.4923  -20.0967   21.8686 N   0  0  0  0  0  0  0  0  0  0  0  0
  -29.4004  -16.0540   19.8576 N   0  0  0  0  0  0  0  0  0  0  0  0
  -21.9969  -28.2419   23.5224 N   0  0  0  0  0  0  0  0  0  0  0  0
  -24.3689  -33.8329   22.4331 N   0  0  0  0  0  0  0  0  0  0  0  0
  -25.2168  -23.6035   22.1811 N   0  0  0  0  0  0  0  0  0  0  0  0
  -27.1529  -35.7391   23.7307 N   0  3  0  0  0  0  0  0  0  0  0  0
  -30.6148  -17.9834   20.1049 O   0  0  0  0  0  0  0  0  0  0  0  0
  -23.9300  -27.8055   22.2996 O   0  0  0  0  0  0  0  0  0  0  0  0
  -22.6462  -31.8753   23.6200 O   0  0  0  0  0  0  0  0  0  0  0  0
  -26.5987  -33.7689   21.7999 O   0  0  0  0  0  0  0  0  0  0  0  0
  -24.6911  -24.2110   24.3285 O   0  0  0  0  0  0  0  0  0  0  0  0
  -25.4096  -12.2030   20.3856 O   0  0  0  0  0  0  0  0  0  0  0  0
  -29.7797  -27.7520   21.6275 O   0  0  0  0  0  0  0  0  0  1  0  0
  -23.4302   -9.0483   24.4518 F   0  0  0  0  0  0  0  0  0  0  0  0
  -23.2821  -13.0531   21.9328 F   0  0  0  0  0  0  0  0  0  0  0  0
  1  2  1  0  0  0  0
  1  5  2  0  0  0  0
  2  6  2  0  0  0  0
  3  8  2  0  0  0  0
  3 16  1  0  0  0  0
  4  9  1  0  0  0  0
  4 16  2  0  0  0  0
  5 18  1  0  0  0  0
  6 20  1  0  0  0  0
  7 10  2  0  0  0  0
  7 19  1  0  0  0  0
  8 24  1  0  0  0  0
  9 24  2  0  0  0  0
 10 25  1  0  0  0  0
 11 12  2  0  0  0  0
 11 26  1  0  0  0  0
 12 27  1  0  0  0  0
 13 21  1  0  0  0  0
 13 25  2  0  0  0  0
 14 22  1  0  0  0  0
 14 30  2  0  0  0  0
 15 27  2  0  0  0  0
 15 28  1  0  0  0  0
 16 29  1  0  0  0  0
 17 29  1  0  0  0  0
 17 32  2  0  0  0  0
 17 33  1  0  0  0  0
 18 20  2  0  0  0  0
 18 38  1  0  0  0  0
 19 21  2  0  0  0  0
 19 39  1  0  0  0  0
 20 47  1  0  0  0  0
 21 40  1  0  0  0  0
 22 23  2  0  0  0  0
 22 58  1  0  0  0  0
 23 31  1  0  0  0  0
 23 50  1  0  0  0  0
 24 84  1  0  0  0  0
 25 85  1  0  0  0  0
 26 28  2  0  0  0  0
 26 84  1  0  0  0  0
 27 86  1  0  0  0  0
 28 87  1  0  0  0  0
 29 68  2  0  0  0  0
 30 59  1  0  0  0  0
 30 69  1  0  0  0  0
 31 60  1  0  0  0  0
 31 69  2  0  0  0  0
 32 70  1  0  0  0  0
 32 73  1  0  0  0  0
 33 74  1  0  0  0  0
 33 79  2  0  0  0  0
 34 48  1  0  0  0  0
 34 75  1  0  0  0  0
 34 80  2  0  0  0  0
 35 64  1  0  0  0  0
 35 71  1  0  0  0  0
 35 81  2  0  0  0  0
 36 65  1  0  0  0  0
 36 76  1  0  0  0  0
 36 82  2  0  0  0  0
 37 72  1  0  0  0  0
 37 77  1  0  0  0  0
 37 83  2  0  0  0  0
 38 41  1  0  0  0  0
 39 48  1  0  0  0  0
 40 71  1  0  0  0  0
 41 43  1  0  0  0  0
 42 44  1  0  0  0  0
 42 45  1  0  0  0  0
 43 47  1  0  0  0  0
 44 49  1  0  0  0  0
 45 72  1  0  0  0  0
 46 49  1  0  0  0  0
 46 72  1  0  0  0  0
 47 75  1  0  0  0  0
 48 71  1  0  0  0  0
 49 70  1  0  0  0  0
 51 65  1  0  0  0  0
 52 66  1  0  0  0  0
 53 66  1  0  0  0  0
 54 67  1  0  0  0  0
 55 67  1  0  0  0  0
 56 67  1  0  0  0  0
 57 78  1  0  0  0  0
 58 61  1  0  0  0  0
 59 62  1  0  0  0  0
 60 66  1  0  0  0  0
 61 63  1  0  0  0  0
 62 77  1  0  0  0  0
 63 85  1  0  0  0  0
 64 67  1  0  0  0  0
 64 76  1  0  0  0  0
 65 78  1  0  0  0  0
 68 70  1  0  0  0  0
M  CHG  1  78   1
M  ISO  4  37 100  63 101  77 100  85 101
M  END
> <Batch ID>
0083

> <Smiles>
CNC(C)C(=O)NC(C(=O)N1Cc2cc([101O:1][101CH2:1]CCc3cc(CC[100NH:0][100C:0](=O)N4CCCC(n5nc(-c6ccc(Oc7ccc(F)cc7F)cc6)c(C(N)=O)c5N)C4)nc(CC(C)C)c3C)ccc2CC1C(=O)NC1CCCc2ccccc21)C(C)(C)C

> <Shape>
0.241

> <Color>
0.060

> <Negative vol penalty>
0.000

$$$$

  -OEChem-04052318513D

 82 90  0     1  0  0  0  0  0999 V2000
  -22.3889  -11.1188   19.1181 C   0  0  0  0  0  0  0  0  0  0  0  0
  -21.9414  -12.4245   19.2923 C   0  0  0  0  0  0  0  0  0  0  0  0
  -29.1001  -27.4509   17.5788 C   0  0  0  0  0  0  0  0  0  0  0  0
  -29.4678  -27.6440   19.9588 C   0  0  0  0  0  0  0  0  0  0  0  0
  -23.6339  -10.7374   19.6165 C   0  0  0  0  0  0  0  0  0  0  0  0
  -22.7383  -13.3493   19.9661 C   0  0  0  0  0  0  0  0  0  0  0  0
  -23.2025  -19.3448   18.8067 C   0  0  0  0  0  0  0  0  0  0  0  0
  -30.4786  -27.4413   17.3665 C   0  0  0  0  0  0  0  0  0  0  0  0
  -30.8464  -27.6343   19.7466 C   0  0  0  0  0  0  0  0  0  0  0  0
  -22.6110  -20.4624   19.3941 C   0  0  0  0  0  0  0  0  0  0  0  0
  -32.9958  -29.6938   17.2482 C   0  0  0  0  0  0  0  0  0  0  0  0
  -33.4980  -30.4912   16.2198 C   0  0  0  0  0  0  0  0  0  0  0  0
  -24.5655  -20.7632   20.7756 C   0  0  0  0  0  0  0  0  0  0  0  0
  -34.4023  -28.5284   15.1395 C   0  0  0  0  0  0  0  0  0  0  0  0
  -20.6097  -27.1742   24.1065 C   0  0  0  0  0  0  0  0  0  0  0  0
  -18.8740  -27.4807   22.5736 C   0  0  0  0  0  0  0  0  0  0  0  0
  -28.5947  -27.5523   18.8750 C   0  0  0  0  0  0  0  0  0  0  0  0
  -26.3362  -26.4505   19.3142 C   0  0  0  0  0  0  0  0  0  0  0  0
  -24.4506  -11.6606   20.2883 C   0  0  0  0  0  0  0  0  0  0  0  0
  -24.4776  -18.9210   19.2077 C   0  0  0  0  0  0  0  0  0  0  0  0
  -23.9949  -12.9796   20.4752 C   0  0  0  0  0  0  0  0  0  0  0  0
  -25.1721  -19.6415   20.1899 C   0  0  0  0  0  0  0  0  0  0  0  0
  -19.9195  -28.0382   23.2810 C   0  0  0  0  0  0  0  0  0  0  0  0
  -31.3518  -27.5330   18.4504 C   0  0  0  0  0  0  0  0  0  0  0  0
  -23.2913  -21.1700   20.3808 C   0  0  0  0  0  0  0  0  0  0  0  0
  -33.1969  -28.3138   17.2223 C   0  0  0  0  0  0  0  0  0  0  0  0
  -34.2012  -29.9085   15.1654 C   0  0  0  0  0  0  0  0  0  0  0  0
  -33.9001  -27.7311   16.1680 C   0  0  0  0  0  0  0  0  0  0  0  0
  -27.1707  -27.5628   19.0948 C   0  0  0  0  0  0  0  0  0  0  0  0
  -25.0811  -26.9875   19.4654 C   0  0  0  0  0  0  0  0  0  0  0  0
  -19.2704  -25.4417   23.4969 C   0  0  0  0  0  0  0  0  0  0  0  0
  -26.6660  -25.0566   19.3759 C   0  0  0  0  0  0  0  0  0  0  0  0
  -25.6487  -16.2832   20.5397 C   0  0  0  0  0  0  0  0  0  0  0  0
  -28.4938  -17.7530   20.0226 C   0  0  0  0  0  0  0  0  0  0  0  0
  -30.2058  -20.6675   19.5518 C   0  0  0  0  0  0  0  0  0  0  0  0
  -21.6618  -30.8379   21.6168 C   0  0  0  0  0  0  0  0  0  0  0  0
  -25.7683  -11.1894   20.8508 C   0  0  0  0  0  0  0  0  0  0  0  0
  -25.1129  -17.7293   18.5453 C   0  0  0  0  0  0  0  0  0  0  0  0
  -26.5516  -19.2397   20.6415 C   0  0  0  0  0  0  0  0  0  0  0  0
  -26.7131  -12.3285   21.2250 C   0  0  0  0  0  0  0  0  0  0  0  0
  -23.3808  -31.6747   18.6132 C   0  0  0  0  0  0  0  0  0  0  0  0
  -25.9695  -13.4014   22.0143 C   0  0  0  0  0  0  0  0  0  0  0  0
  -24.4546  -30.5918   18.4925 C   0  0  0  0  0  0  0  0  0  0  0  0
  -23.1457  -32.0766   20.0676 C   0  0  0  0  0  0  0  0  0  0  0  0
  -23.9182  -29.8738   20.8580 C   0  0  0  0  0  0  0  0  0  0  0  0
  -24.8411  -14.0182   21.1789 C   0  0  1  0  0  0  0  0  0  0  0  0
  -26.2029  -17.0837   19.3953 C   0  0  1  0  0  0  0  0  0  0  0  0
  -24.1508  -29.3956   19.4145 C   0  0  2  0  0  0  0  0  0  0  0  0
  -32.5263  -21.5533   19.1944 C   0  0  0  0  0  0  0  0  0  0  0  0
  -29.1093  -17.3273   22.9806 C   0  0  0  0  0  0  0  0  0  0  0  0
  -30.9394  -19.0230   22.7722 C   0  0  0  0  0  0  0  0  0  0  0  0
  -31.0384  -16.9140   21.4436 C   0  0  0  0  0  0  0  0  0  0  0  0
  -29.4882  -21.8123   16.9187 C   0  0  0  0  0  0  0  0  0  0  0  0
  -20.2798  -29.4717   23.1604 C   0  0  0  0  0  0  0  0  0  0  0  0
  -18.9074  -23.9829   23.6150 C   0  0  0  0  0  0  0  0  0  0  0  0
  -19.3610  -23.1334   22.4225 C   0  0  0  0  0  0  0  0  0  0  0  0
  -20.8811  -23.0926   22.2603 C   0  0  0  0  0  0  0  0  0  0  0  0
  -21.2918  -22.2735   21.0442 C   0  0  0  0  0  0  0  0  0  1  0  0
  -29.3660  -18.7010   20.8096 C   0  0  1  0  0  0  0  0  0  0  0  0
  -31.2499  -21.0678   18.5252 C   0  0  2  0  0  0  0  0  0  0  0  0
  -30.0865  -17.9980   21.9946 C   0  0  0  0  0  0  0  0  0  0  0  0
  -20.3112  -25.8652   24.2392 N   0  0  0  0  0  0  0  0  0  0  0  0
  -18.5206  -26.1813   22.6576 N   0  0  0  0  0  0  0  0  0  0  0  0
  -26.5021  -28.7191   19.1049 N   0  0  0  0  0  0  0  0  0  0  0  0
  -25.2341  -28.3362   19.3323 N   0  0  0  0  0  0  0  0  0  0  0  0
  -27.1277  -18.0639   19.9682 N   0  0  0  0  0  0  0  0  0  0  0  0
  -22.8613  -30.8970   20.8882 N   0  0  0  0  0  0  0  0  0  0  0  0
  -23.8725  -26.4328   19.6979 N   0  0  0  0  0  0  0  0  0  0  0  0
  -28.0038  -24.6781   19.1991 N   0  0  0  0  0  0  0  0  0  0  0  0
  -25.3780  -14.9651   20.2252 N   0  0  0  0  0  0  0  0  0  0  0  0
  -30.2679  -19.3217   19.8455 N   0  0  0  0  0  0  0  0  0  0  0  0
  -21.4678  -29.6822   22.3633 N   0  0  0  0  0  0  0  0  0  0  0  0
  -30.7296  -22.1612   17.6564 N   0  3  0  0  0  0  0  0  0  0  0  0
  -25.7975  -24.1715   19.5653 O   0  0  0  0  0  0  0  0  0  0  0  0
  -25.4806  -16.8210   21.6279 O   0  0  0  0  0  0  0  0  0  0  0  0
  -29.0068  -16.7766   19.4701 O   0  0  0  0  0  0  0  0  0  0  0  0
  -29.4166  -21.4692   20.0467 O   0  0  0  0  0  0  0  0  0  0  0  0
  -20.8234  -31.7455   21.5988 O   0  0  0  0  0  0  0  0  0  0  0  0
  -32.6971  -27.5234   18.2437 O   0  0  0  0  0  0  0  0  0  0  0  0
  -22.7160  -22.2608   20.9562 O   0  0  0  0  0  0  0  0  0  1  0  0
  -34.6821  -30.6741   14.1771 F   0  0  0  0  0  0  0  0  0  0  0  0
  -34.0954  -26.4056   16.1370 F   0  0  0  0  0  0  0  0  0  0  0  0
  1  2  1  0  0  0  0
  1  5  2  0  0  0  0
  2  6  2  0  0  0  0
  3  8  2  0  0  0  0
  3 17  1  0  0  0  0
  4  9  1  0  0  0  0
  4 17  2  0  0  0  0
  5 19  1  0  0  0  0
  6 21  1  0  0  0  0
  7 10  2  0  0  0  0
  7 20  1  0  0  0  0
  8 24  1  0  0  0  0
  9 24  2  0  0  0  0
 10 25  1  0  0  0  0
 11 12  2  0  0  0  0
 11 26  1  0  0  0  0
 12 27  1  0  0  0  0
 13 22  1  0  0  0  0
 13 25  2  0  0  0  0
 14 27  2  0  0  0  0
 14 28  1  0  0  0  0
 15 23  1  0  0  0  0
 15 62  2  0  0  0  0
 16 23  2  0  0  0  0
 16 63  1  0  0  0  0
 17 29  1  0  0  0  0
 18 29  1  0  0  0  0
 18 30  2  0  0  0  0
 18 32  1  0  0  0  0
 19 21  2  0  0  0  0
 19 37  1  0  0  0  0
 20 22  2  0  0  0  0
 20 38  1  0  0  0  0
 21 46  1  0  0  0  0
 22 39  1  0  0  0  0
 23 54  1  0  0  0  0
 24 79  1  0  0  0  0
 25 80  1  0  0  0  0
 26 28  2  0  0  0  0
 26 79  1  0  0  0  0
 27 81  1  0  0  0  0
 28 82  1  0  0  0  0
 29 64  2  0  0  0  0
 30 65  1  0  0  0  0
 30 68  1  0  0  0  0
 31 55  1  0  0  0  0
 31 62  1  0  0  0  0
 31 63  2  0  0  0  0
 32 69  1  0  0  0  0
 32 74  2  0  0  0  0
 33 47  1  0  0  0  0
 33 70  1  0  0  0  0
 33 75  2  0  0  0  0
 34 59  1  0  0  0  0
 34 66  1  0  0  0  0
 34 76  2  0  0  0  0
 35 60  1  0  0  0  0
 35 71  1  0  0  0  0
 35 77  2  0  0  0  0
 36 67  1  0  0  0  0
 36 72  1  0  0  0  0
 36 78  2  0  0  0  0
 37 40  1  0  0  0  0
 38 47  1  0  0  0  0
 39 66  1  0  0  0  0
 40 42  1  0  0  0  0
 41 43  1  0  0  0  0
 41 44  1  0  0  0  0
 42 46  1  0  0  0  0
 43 48  1  0  0  0  0
 44 67  1  0  0  0  0
 45 48  1  0  0  0  0
 45 67  1  0  0  0  0
 46 70  1  0  0  0  0
 47 66  1  0  0  0  0
 48 65  1  0  0  0  0
 49 60  1  0  0  0  0
 50 61  1  0  0  0  0
 51 61  1  0  0  0  0
 52 61  1  0  0  0  0
 53 73  1  0  0  0  0
 54 72  1  0  0  0  0
 55 56  1  0  0  0  0
 56 57  1  0  0  0  0
 57 58  1  0  0  0  0
 58 80  1  0  0  0  0
 59 61  1  0  0  0  0
 59 71  1  0  0  0  0
 60 73  1  0  0  0  0
 64 65  1  0  0  0  0
M  CHG  1  73   1
M  ISO  4  36 100  58 101  72 100  80 101
M  END
> <Batch ID>
0083

> <Smiles>
CNC(C)C(=O)NC(C(=O)N1Cc2cc([101O:1][101CH2:1]CCCc3ncc(C[100NH:0][100C:0](=O)N4CCCC(n5nc(-c6ccc(Oc7ccc(F)cc7F)cc6)c(C(N)=O)c5N)C4)cn3)ccc2CC1C(=O)NC1CCCc2ccccc21)C(C)(C)C

> <Shape>
0.222

> <Color>
0.071

> <Negative vol penalty>
0.000

$$$$

  -OEChem-04052318513D

 89 97  0     1  0  0  0  0  0999 V2000
  -31.7494  -24.8782   17.1538 C   0  0  0  0  0  0  0  0  0  0  0  0
  -30.5147  -24.6016   17.7320 C   0  0  0  0  0  0  0  0  0  0  0  0
  -26.2213  -13.6247   19.3407 C   0  0  0  0  0  0  0  0  0  0  0  0
  -25.1551  -13.7909   21.5024 C   0  0  0  0  0  0  0  0  0  0  0  0
  -32.5654  -25.8700   17.6964 C   0  0  0  0  0  0  0  0  0  0  0  0
  -30.0957  -25.3160   18.8539 C   0  0  0  0  0  0  0  0  0  0  0  0
  -25.2671  -26.8047   18.5172 C   0  0  0  0  0  0  0  0  0  0  0  0
  -25.9336  -20.9198   25.8997 C   0  0  0  0  0  0  0  0  0  0  0  0
  -26.1045  -12.2356   19.3899 C   0  0  0  0  0  0  0  0  0  0  0  0
  -25.0383  -12.4018   21.5515 C   0  0  0  0  0  0  0  0  0  0  0  0
  -24.2863  -25.8466   18.7699 C   0  0  0  0  0  0  0  0  0  0  0  0
  -23.0236  -10.0253   20.2423 C   0  0  0  0  0  0  0  0  0  0  0  0
  -21.8026   -9.4934   20.6571 C   0  0  0  0  0  0  0  0  0  0  0  0
  -27.2853  -20.6899   25.6693 C   0  0  0  0  0  0  0  0  0  0  0  0
  -24.0143  -26.7223   21.0012 C   0  0  0  0  0  0  0  0  0  0  0  0
  -22.9094   -8.3895   22.4992 C   0  0  0  0  0  0  0  0  0  0  0  0
  -25.7466  -14.4023   20.3970 C   0  0  0  0  0  0  0  0  0  0  0  0
  -24.9364  -16.7509   19.8178 C   0  0  0  0  0  0  0  0  0  0  0  0
  -32.1520  -26.6035   18.8196 C   0  0  0  0  0  0  0  0  0  0  0  0
  -25.6372  -27.7234   19.5099 C   0  0  0  0  0  0  0  0  0  0  0  0
  -30.9075  -26.3176   19.4128 C   0  0  0  0  0  0  0  0  0  0  0  0
  -24.9983  -27.6927   20.7577 C   0  0  0  0  0  0  0  0  0  0  0  0
  -25.0329  -19.8627   25.8322 C   0  0  0  0  0  0  0  0  0  0  0  0
  -25.5130  -11.6241   20.4952 C   0  0  0  0  0  0  0  0  0  0  0  0
  -23.6618  -25.8035   20.0130 C   0  0  0  0  0  0  0  0  0  0  0  0
  -24.1874   -9.7393   20.9560 C   0  0  0  0  0  0  0  0  0  0  0  0
  -21.7455   -8.6755   21.7855 C   0  0  0  0  0  0  0  0  0  0  0  0
  -24.1303   -8.9214   22.0844 C   0  0  0  0  0  0  0  0  0  0  0  0
  -25.8675  -15.8373   20.3471 C   0  0  0  0  0  0  0  0  0  0  0  0
  -27.6824  -19.3949   25.3774 C   0  0  0  0  0  0  0  0  0  0  0  0
  -25.5307  -18.6048   25.5328 C   0  0  0  0  0  0  0  0  0  0  0  0
  -25.5155  -17.9814   20.0098 C   0  0  0  0  0  0  0  0  0  0  0  0
  -23.6618  -16.5089   19.2073 C   0  0  0  0  0  0  0  0  0  0  0  0
  -28.3251  -28.3688   21.0791 C   0  0  0  0  0  0  0  0  0  0  0  0
  -26.5794  -30.8294   22.2709 C   0  0  0  0  0  0  0  0  0  0  0  0
  -29.6225  -19.9125   23.9487 C   0  0  0  0  0  0  0  0  0  0  0  0
  -23.5019  -32.1161   22.9920 C   0  0  0  0  0  0  0  0  0  0  0  0
  -33.0890  -27.6336   19.3990 C   0  0  0  0  0  0  0  0  0  0  0  0
  -26.6781  -28.7678   19.2126 C   0  0  0  0  0  0  0  0  0  0  0  0
  -25.3450  -28.6696   21.8504 C   0  0  0  0  0  0  0  0  0  0  0  0
  -32.4086  -28.6018   20.3634 C   0  0  0  0  0  0  0  0  0  0  0  0
  -29.7780  -20.1066   20.3741 C   0  0  0  0  0  0  0  0  0  0  0  0
  -31.5240  -27.8423   21.3469 C   0  0  0  0  0  0  0  0  0  0  0  0
  -28.7282  -19.0961   19.9137 C   0  0  0  0  0  0  0  0  0  0  0  0
  -30.4808  -19.6415   21.6456 C   0  0  0  0  0  0  0  0  0  0  0  0
  -28.5010  -18.3173   22.3151 C   0  0  0  0  0  0  0  0  0  0  0  0
  -30.4072  -27.0879   20.6155 C   0  0  1  0  0  0  0  0  0  0  0  0
  -27.3406  -29.3256   20.4685 C   0  0  1  0  0  0  0  0  0  0  0  0
  -27.7458  -18.7629   21.0505 C   0  0  2  0  0  0  0  0  0  0  0  0
  -24.9360  -16.3550   26.5016 C   0  0  0  0  0  0  0  0  0  0  0  0
  -24.5870  -16.8018   24.0453 C   0  0  0  0  0  0  0  0  0  0  0  0
  -22.3958  -34.1321   23.9969 C   0  0  0  0  0  0  0  0  0  0  0  0
  -27.3375  -29.8520   25.0601 C   0  0  0  0  0  0  0  0  0  0  0  0
  -25.4894  -31.2669   25.9824 C   0  0  0  0  0  0  0  0  0  0  0  0
  -27.3923  -32.3359   24.7745 C   0  0  0  0  0  0  0  0  0  0  0  0
  -22.0836  -32.7389   20.4702 C   0  0  0  0  0  0  0  0  0  0  0  0
  -23.5718  -20.1049   26.0788 C   0  0  0  0  0  0  0  0  0  0  0  0
  -22.9847  -22.4019   21.7735 C   0  0  0  0  0  0  0  0  0  0  0  0
  -22.2358  -22.5230   20.4485 C   0  0  0  0  0  0  0  0  0  0  0  0
  -22.7250  -20.1107   24.8102 C   0  0  0  0  0  0  0  0  0  0  0  0
  -22.4207  -21.2693   22.6184 C   0  0  0  0  0  0  0  0  0  0  0  0
  -22.8165  -23.6245   19.5731 C   0  0  0  0  0  0  0  0  0  1  0  0
  -24.6103  -17.4314   25.4501 C   0  0  0  0  0  0  0  0  0  0  0  0
  -25.6761  -31.0193   23.4654 C   0  0  1  0  0  0  0  0  0  0  0  0
  -22.8894  -33.4775   22.7161 C   0  0  2  0  0  0  0  0  0  0  0  0
  -29.1260  -19.1119   25.1262 C   0  0  0  0  0  0  0  0  0  0  0  0
  -26.4684  -31.0987   24.8009 C   0  0  0  0  0  0  0  0  0  0  0  0
  -26.9556  -16.4362   20.8382 N   0  0  0  0  0  0  0  0  0  0  0  0
  -26.8369  -18.3427   25.3029 N   0  0  0  0  0  0  0  0  0  0  0  0
  -26.7119  -17.7394   20.6184 N   0  0  0  0  0  0  0  0  0  0  0  0
  -26.3734  -29.6677   21.5133 N   0  0  0  0  0  0  0  0  0  0  0  0
  -29.5127  -19.3135   22.6937 N   0  0  0  0  0  0  0  0  0  0  0  0
  -25.1131  -19.2360   19.7157 N   0  0  0  0  0  0  0  0  0  0  0  0
  -23.2181  -15.1847   19.0894 N   0  0  0  0  0  0  0  0  0  0  0  0
  -29.3505  -27.9986   20.2300 N   0  0  0  0  0  0  0  0  0  0  0  0
  -24.8653  -32.1983   23.1807 N   0  0  0  0  0  0  0  0  0  0  0  0
  -21.7367  -33.3468   21.7806 N   0  3  0  0  0  0  0  0  0  0  0  0
  -23.1468  -21.2191   23.9103 N   0  3  0  0  0  0  0  0  0  0  0  0
  -22.9452  -17.4382   18.7642 O   0  0  0  0  0  0  0  0  0  0  0  0
  -28.1670  -27.9954   22.2355 O   0  0  0  0  0  0  0  0  0  0  0  0
  -27.4315  -31.6839   22.0151 O   0  0  0  0  0  0  0  0  0  0  0  0
  -30.0910  -21.0377   24.1404 O   0  0  0  0  0  0  0  0  0  0  0  0
  -22.8368  -31.0837   23.0393 O   0  0  0  0  0  0  0  0  0  0  0  0
  -25.3987  -10.2687   20.5434 O   0  0  0  0  0  0  0  0  0  0  0  0
  -22.7046  -24.8689   20.2625 O   0  0  0  0  0  0  0  0  0  1  0  0
  -20.5728   -8.1661   22.1846 F   0  0  0  0  0  0  0  0  0  0  0  0
  -25.2449   -8.6439   22.7748 F   0  0  0  0  0  0  0  0  0  0  0  0
  -29.9154  -19.3977   26.2119 F   0  0  0  0  0  0  0  0  0  0  0  0
  -29.3676  -17.7830   24.8828 F   0  0  0  0  0  0  0  0  0  0  0  0
  1  2  1  0  0  0  0
  1  5  2  0  0  0  0
  2  6  2  0  0  0  0
  3  9  2  0  0  0  0
  3 17  1  0  0  0  0
  4 10  1  0  0  0  0
  4 17  2  0  0  0  0
  5 19  1  0  0  0  0
  6 21  1  0  0  0  0
  7 11  2  0  0  0  0
  7 20  1  0  0  0  0
  8 14  2  0  0  0  0
  8 23  1  0  0  0  0
  9 24  1  0  0  0  0
 10 24  2  0  0  0  0
 11 25  1  0  0  0  0
 12 13  2  0  0  0  0
 12 26  1  0  0  0  0
 13 27  1  0  0  0  0
 14 30  1  0  0  0  0
 15 22  1  0  0  0  0
 15 25  2  0  0  0  0
 16 27  2  0  0  0  0
 16 28  1  0  0  0  0
 17 29  1  0  0  0  0
 18 29  1  0  0  0  0
 18 32  2  0  0  0  0
 18 33  1  0  0  0  0
 19 21  2  0  0  0  0
 19 38  1  0  0  0  0
 20 22  2  0  0  0  0
 20 39  1  0  0  0  0
 21 47  1  0  0  0  0
 22 40  1  0  0  0  0
 23 31  2  0  0  0  0
 23 57  1  0  0  0  0
 24 84  1  0  0  0  0
 25 85  1  0  0  0  0
 26 28  2  0  0  0  0
 26 84  1  0  0  0  0
 27 86  1  0  0  0  0
 28 87  1  0  0  0  0
 29 68  2  0  0  0  0
 30 66  1  0  0  0  0
 30 69  2  0  0  0  0
 31 63  1  0  0  0  0
 31 69  1  0  0  0  0
 32 70  1  0  0  0  0
 32 73  1  0  0  0  0
 33 74  1  0  0  0  0
 33 79  2  0  0  0  0
 34 48  1  0  0  0  0
 34 75  1  0  0  0  0
 34 80  2  0  0  0  0
 35 64  1  0  0  0  0
 35 71  1  0  0  0  0
 35 81  2  0  0  0  0
 36 66  1  0  0  0  0
 36 72  1  0  0  0  0
 36 82  2  0  0  0  0
 37 65  1  0  0  0  0
 37 76  1  0  0  0  0
 37 83  2  0  0  0  0
 38 41  1  0  0  0  0
 39 48  1  0  0  0  0
 40 71  1  0  0  0  0
 41 43  1  0  0  0  0
 42 44  1  0  0  0  0
 42 45  1  0  0  0  0
 43 47  1  0  0  0  0
 44 49  1  0  0  0  0
 45 72  1  0  0  0  0
 46 49  1  0  0  0  0
 46 72  1  0  0  0  0
 47 75  1  0  0  0  0
 48 71  1  0  0  0  0
 49 70  1  0  0  0  0
 50 63  1  0  0  0  0
 51 63  1  0  0  0  0
 52 65  1  0  0  0  0
 53 67  1  0  0  0  0
 54 67  1  0  0  0  0
 55 67  1  0  0  0  0
 56 77  1  0  0  0  0
 57 60  1  0  0  0  0
 58 59  1  0  0  0  0
 58 61  1  0  0  0  0
 59 62  1  0  0  0  0
 60 78  1  0  0  0  0
 61 78  1  0  0  0  0
 62 85  1  0  0  0  0
 64 67  1  0  0  0  0
 64 76  1  0  0  0  0
 65 77  1  0  0  0  0
 66 88  1  0  0  0  0
 66 89  1  0  0  0  0
 68 70  1  0  0  0  0
M  CHG  2  77   1  78   1
M  ISO  4  36 100  62 101  66 100  85 101
M  END
> <Batch ID>
0083

> <Smiles>
CNC(C)C(=O)NC(C(=O)N1Cc2cc([101O:1][101CH2:1]CCCNCCc3ccc([100C:0](F)(F)[100C:0](=O)N4CCCC(n5nc(-c6ccc(Oc7ccc(F)cc7F)cc6)c(C(N)=O)c5N)C4)nc3C(C)C)ccc2CC1C(=O)NC1CCCc2ccccc21)C(C)(C)C

> <Shape>
0.243

> <Color>
0.066

> <Negative vol penalty>
0.000

$$$$
