
  -OEChem-04052318543D

 81 89  0     1  0  0  0  0  0999 V2000
  -28.5609  -22.2446   28.5288 C   0  0  0  0  0  0  0  0  0  0  0  0
  -28.6617  -22.5861   27.1839 C   0  0  0  0  0  0  0  0  0  0  0  0
  -26.8137  -13.0373   21.0529 C   0  0  0  0  0  0  0  0  0  0  0  0
  -26.3600  -13.6585   18.7626 C   0  0  0  0  0  0  0  0  0  0  0  0
  -27.3102  -22.1977   29.1431 C   0  0  0  0  0  0  0  0  0  0  0  0
  -27.5115  -22.8798   26.4523 C   0  0  0  0  0  0  0  0  0  0  0  0
  -28.0502  -26.9991   23.5563 C   0  0  0  0  0  0  0  0  0  0  0  0
  -26.1738  -11.8149   20.8481 C   0  0  0  0  0  0  0  0  0  0  0  0
  -25.7202  -12.4360   18.5578 C   0  0  0  0  0  0  0  0  0  0  0  0
  -28.7612  -26.8520   22.3661 C   0  0  0  0  0  0  0  0  0  0  0  0
  -24.3436   -8.6779   21.0298 C   0  0  0  0  0  0  0  0  0  0  0  0
  -23.4522   -8.2388   22.0087 C   0  0  0  0  0  0  0  0  0  0  0  0
  -29.9921  -24.8699   15.9766 C   0  0  0  0  0  0  0  0  0  0  0  0
  -26.6830  -26.7206   21.1482 C   0  0  0  0  0  0  0  0  0  0  0  0
  -22.1082  -10.2182   21.6728 C   0  0  0  0  0  0  0  0  0  0  0  0
  -30.6559  -26.0030   15.5347 C   0  0  0  0  0  0  0  0  0  0  0  0
  -26.9067  -13.9591   20.0102 C   0  0  0  0  0  0  0  0  0  0  0  0
  -28.9315  -15.5108   20.0290 C   0  0  0  0  0  0  0  0  0  0  0  0
  -26.1450  -22.5003   28.4211 C   0  0  0  0  0  0  0  0  0  0  0  0
  -26.6480  -26.9970   23.5528 C   0  0  0  0  0  0  0  0  0  0  0  0
  -26.2439  -22.8355   27.0572 C   0  0  0  0  0  0  0  0  0  0  0  0
  -25.9567  -26.8703   22.3394 C   0  0  0  0  0  0  0  0  0  0  0  0
  -29.1194  -25.0042   17.0508 C   0  0  0  0  0  0  0  0  0  0  0  0
  -28.9398  -26.2498   17.6419 C   0  0  0  0  0  0  0  0  0  0  0  0
  -25.6271  -11.5142   19.6006 C   0  0  0  0  0  0  0  0  0  0  0  0
  -28.0776  -26.7099   21.1621 C   0  0  0  0  0  0  0  0  0  0  0  0
  -24.1174   -9.8872   20.3725 C   0  0  0  0  0  0  0  0  0  0  0  0
  -22.3345   -9.0089   22.3302 C   0  0  0  0  0  0  0  0  0  0  0  0
  -22.9997  -10.6573   20.6940 C   0  0  0  0  0  0  0  0  0  0  0  0
  -27.5671  -15.2222   20.2212 C   0  0  0  0  0  0  0  0  0  0  0  0
  -29.6508  -27.3211   17.1256 C   0  0  0  0  0  0  0  0  0  0  0  0
  -29.0524  -16.8373   20.3639 C   0  0  0  0  0  0  0  0  0  0  0  0
  -29.9945  -14.6562   19.5871 C   0  0  0  0  0  0  0  0  0  0  0  0
  -24.4043  -25.1509   24.8419 C   0  0  0  0  0  0  0  0  0  0  0  0
  -22.4090  -27.4186   23.6592 C   0  0  0  0  0  0  0  0  0  0  0  0
  -21.8700  -29.8987   21.3776 C   0  0  0  0  0  0  0  0  0  0  0  0
  -27.2071  -22.0997   20.1456 C   0  0  0  0  0  0  0  0  0  0  0  0
  -24.8111  -22.3901   29.1162 C   0  0  0  0  0  0  0  0  0  0  0  0
  -25.8960  -27.1834   24.8420 C   0  0  0  0  0  0  0  0  0  0  0  0
  -24.4518  -26.8820   22.2791 C   0  0  0  0  0  0  0  0  0  0  0  0
  -23.6746  -23.0800   28.3661 C   0  0  0  0  0  0  0  0  0  0  0  0
  -25.7896  -19.9728   22.6242 C   0  0  0  0  0  0  0  0  0  0  0  0
  -23.7137  -22.7159   26.8854 C   0  0  0  0  0  0  0  0  0  0  0  0
  -26.2328  -18.5714   22.2006 C   0  0  0  0  0  0  0  0  0  0  0  0
  -25.4826  -20.8566   21.4173 C   0  0  0  0  0  0  0  0  0  0  0  0
  -27.0109  -19.5431   19.9985 C   0  0  0  0  0  0  0  0  0  0  0  0
  -25.0215  -23.1849   26.2363 C   0  0  1  0  0  0  0  0  0  0  0  0
  -24.4675  -26.6510   24.7829 C   0  0  1  0  0  0  0  0  0  0  0  0
  -27.3855  -18.6323   21.1803 C   0  0  2  0  0  0  0  0  0  0  0  0
  -29.4991  -28.6834   17.7194 C   0  0  0  0  0  0  0  0  0  0  0  0
  -20.1293  -31.5456   20.6325 C   0  0  0  0  0  0  0  0  0  0  0  0
  -20.8816  -25.1720   22.2701 C   0  0  0  0  0  0  0  0  0  0  0  0
  -19.7907  -26.9012   20.8252 C   0  0  0  0  0  0  0  0  0  0  0  0
  -19.4368  -26.9378   23.2942 C   0  0  0  0  0  0  0  0  0  0  0  0
  -23.6165  -32.2044   22.0041 C   0  0  0  0  0  0  0  0  0  0  0  0
  -28.3899  -23.8005   17.5489 C   0  0  0  0  0  0  0  0  0  0  0  0
  -28.0047  -26.4247   18.8022 C   0  0  0  0  0  0  0  0  0  1  0  0
  -28.9951  -23.2012   18.8232 C   0  0  0  0  0  0  0  0  0  0  0  0
  -21.6804  -27.6258   22.3533 C   0  0  1  0  0  0  0  0  0  0  0  0
  -21.3326  -31.3101   21.5321 C   0  0  2  0  0  0  0  0  0  0  0  0
  -20.4757  -26.6570   22.1867 C   0  0  0  0  0  0  0  0  0  0  0  0
  -30.5072  -27.2295   16.0835 N   0  0  0  0  0  0  0  0  0  0  0  0
  -26.8711  -16.2803   20.6455 N   0  0  0  0  0  0  0  0  0  0  0  0
  -27.8019  -17.2466   20.7228 N   0  0  0  0  0  0  0  0  0  0  0  0
  -23.7615  -27.0607   23.5672 N   0  0  0  0  0  0  0  0  0  0  0  0
  -26.6161  -20.8727   20.4895 N   0  0  0  0  0  0  0  0  0  0  0  0
  -30.1054  -17.6818   20.3837 N   0  0  0  0  0  0  0  0  0  0  0  0
  -29.6962  -13.3205   19.2847 N   0  0  0  0  0  0  0  0  0  0  0  0
  -24.9752  -24.6079   25.9771 N   0  0  0  0  0  0  0  0  0  0  0  0
  -21.3216  -29.0391   22.3058 N   0  0  0  0  0  0  0  0  0  0  0  0
  -28.2798  -22.0250   19.2656 N   0  0  0  0  0  0  0  0  0  0  0  0
  -22.3841  -32.3060   21.1808 N   0  3  0  0  0  0  0  0  0  0  0  0
  -31.1771  -15.0606   19.4797 O   0  0  0  0  0  0  0  0  0  0  0  0
  -23.8753  -24.5320   23.9260 O   0  0  0  0  0  0  0  0  0  0  0  0
  -21.8024  -27.5758   24.7217 O   0  0  0  0  0  0  0  0  0  0  0  0
  -22.6911  -29.5890   20.5172 O   0  0  0  0  0  0  0  0  0  0  0  0
  -26.8117  -23.1811   20.5940 O   0  0  0  0  0  0  0  0  0  0  0  0
  -25.0029  -10.3214   19.4004 O   0  0  0  0  0  0  0  0  0  0  0  0
  -28.7690  -26.5656   19.9989 O   0  0  0  0  0  0  0  0  0  1  0  0
  -21.4778   -8.5863   23.2691 F   0  0  0  0  0  0  0  0  0  0  0  0
  -22.7765  -11.8194   20.0650 F   0  0  0  0  0  0  0  0  0  0  0  0
  1  2  1  0  0  0  0
  1  5  2  0  0  0  0
  2  6  2  0  0  0  0
  3  8  2  0  0  0  0
  3 17  1  0  0  0  0
  4  9  1  0  0  0  0
  4 17  2  0  0  0  0
  5 19  1  0  0  0  0
  6 21  1  0  0  0  0
  7 10  2  0  0  0  0
  7 20  1  0  0  0  0
  8 25  1  0  0  0  0
  9 25  2  0  0  0  0
 10 26  1  0  0  0  0
 11 12  2  0  0  0  0
 11 27  1  0  0  0  0
 12 28  1  0  0  0  0
 13 16  1  0  0  0  0
 13 23  2  0  0  0  0
 14 22  1  0  0  0  0
 14 26  2  0  0  0  0
 15 28  2  0  0  0  0
 15 29  1  0  0  0  0
 16 62  2  0  0  0  0
 17 30  1  0  0  0  0
 18 30  1  0  0  0  0
 18 32  2  0  0  0  0
 18 33  1  0  0  0  0
 19 21  2  0  0  0  0
 19 38  1  0  0  0  0
 20 22  2  0  0  0  0
 20 39  1  0  0  0  0
 21 47  1  0  0  0  0
 22 40  1  0  0  0  0
 23 24  1  0  0  0  0
 23 56  1  0  0  0  0
 24 31  2  0  0  0  0
 24 57  1  0  0  0  0
 25 78  1  0  0  0  0
 26 79  1  0  0  0  0
 27 29  2  0  0  0  0
 27 78  1  0  0  0  0
 28 80  1  0  0  0  0
 29 81  1  0  0  0  0
 30 63  2  0  0  0  0
 31 50  1  0  0  0  0
 31 62  1  0  0  0  0
 32 64  1  0  0  0  0
 32 67  1  0  0  0  0
 33 68  1  0  0  0  0
 33 73  2  0  0  0  0
 34 48  1  0  0  0  0
 34 69  1  0  0  0  0
 34 74  2  0  0  0  0
 35 59  1  0  0  0  0
 35 65  1  0  0  0  0
 35 75  2  0  0  0  0
 36 60  1  0  0  0  0
 36 70  1  0  0  0  0
 36 76  2  0  0  0  0
 37 66  1  0  0  0  0
 37 71  1  0  0  0  0
 37 77  2  0  0  0  0
 38 41  1  0  0  0  0
 39 48  1  0  0  0  0
 40 65  1  0  0  0  0
 41 43  1  0  0  0  0
 42 44  1  0  0  0  0
 42 45  1  0  0  0  0
 43 47  1  0  0  0  0
 44 49  1  0  0  0  0
 45 66  1  0  0  0  0
 46 49  1  0  0  0  0
 46 66  1  0  0  0  0
 47 69  1  0  0  0  0
 48 65  1  0  0  0  0
 49 64  1  0  0  0  0
 51 60  1  0  0  0  0
 52 61  1  0  0  0  0
 53 61  1  0  0  0  0
 54 61  1  0  0  0  0
 55 72  1  0  0  0  0
 56 58  1  0  0  0  0
 57 79  1  0  0  0  0
 58 71  1  0  0  0  0
 59 61  1  0  0  0  0
 59 70  1  0  0  0  0
 60 72  1  0  0  0  0
 63 64  1  0  0  0  0
M  CHG  1  72   1
M  ISO  4  37 100  57 101  71 100  79 101
M  END
> <Batch ID>
0084

> <Smiles>
CNC(C)C(=O)NC(C(=O)N1Cc2cc([101O:1][101CH2:1]c3c(CC[100NH:0][100C:0](=O)N4CCCC(n5nc(-c6ccc(Oc7ccc(F)cc7F)cc6)c(C(N)=O)c5N)C4)ccnc3C)ccc2CC1C(=O)NC1CCCc2ccccc21)C(C)(C)C

> <Shape>
0.203

> <Color>
0.081

> <Negative vol penalty>
0.000

$$$$

  -OEChem-04052318543D

 86 94  0     1  0  0  0  0  0999 V2000
  -20.3046  -21.7655   24.9847 C   0  0  0  0  0  0  0  0  0  0  0  0
  -21.6948  -21.7766   25.0363 C   0  0  0  0  0  0  0  0  0  0  0  0
  -26.3247  -12.7725   21.0111 C   0  0  0  0  0  0  0  0  0  0  0  0
  -24.5455  -14.3996   20.8553 C   0  0  0  0  0  0  0  0  0  0  0  0
  -19.6352  -22.5898   24.0813 C   0  0  0  0  0  0  0  0  0  0  0  0
  -22.4164  -22.6113   24.1837 C   0  0  0  0  0  0  0  0  0  0  0  0
  -28.4492  -26.4660   23.9326 C   0  0  0  0  0  0  0  0  0  0  0  0
  -25.4103  -11.8145   21.4489 C   0  0  0  0  0  0  0  0  0  0  0  0
  -23.6311  -13.4415   21.2931 C   0  0  0  0  0  0  0  0  0  0  0  0
  -29.5803  -26.6456   23.1374 C   0  0  0  0  0  0  0  0  0  0  0  0
  -23.4836   -8.8410   22.2621 C   0  0  0  0  0  0  0  0  0  0  0  0
  -23.5566   -7.5683   21.6959 C   0  0  0  0  0  0  0  0  0  0  0  0
  -28.3145  -28.0847   21.6725 C   0  0  0  0  0  0  0  0  0  0  0  0
  -29.2306  -25.0559   18.9970 C   0  0  0  0  0  0  0  0  0  0  0  0
  -23.1471   -8.5166   19.5118 C   0  0  0  0  0  0  0  0  0  0  0  0
  -25.8923  -14.0651   20.7144 C   0  0  0  0  0  0  0  0  0  0  0  0
  -27.2066  -15.3329   18.9331 C   0  0  0  0  0  0  0  0  0  0  0  0
  -20.3486  -23.4421   23.2238 C   0  0  0  0  0  0  0  0  0  0  0  0
  -27.2374  -27.0867   23.5970 C   0  0  0  0  0  0  0  0  0  0  0  0
  -21.7559  -23.4468   23.2669 C   0  0  0  0  0  0  0  0  0  0  0  0
  -27.1702  -27.9134   22.4664 C   0  0  0  0  0  0  0  0  0  0  0  0
  -30.5560  -25.1235   18.6048 C   0  0  0  0  0  0  0  0  0  0  0  0
  -24.0635  -12.1490   21.5899 C   0  0  0  0  0  0  0  0  0  0  0  0
  -29.5123  -27.4527   22.0056 C   0  0  0  0  0  0  0  0  0  0  0  0
  -23.2423   -9.9514   21.4532 C   0  0  0  0  0  0  0  0  0  0  0  0
  -23.3884   -7.4061   20.3208 C   0  0  0  0  0  0  0  0  0  0  0  0
  -23.0740   -9.7892   20.0781 C   0  0  0  0  0  0  0  0  0  0  0  0
  -26.8366  -15.0553   20.2627 C   0  0  0  0  0  0  0  0  0  0  0  0
  -28.6040  -23.8270   18.9470 C   0  0  0  0  0  0  0  0  0  0  0  0
  -31.1669  -23.9576   18.1888 C   0  0  0  0  0  0  0  0  0  0  0  0
  -28.1253  -16.3486   19.0373 C   0  0  0  0  0  0  0  0  0  0  0  0
  -26.7598  -14.7268   17.7130 C   0  0  0  0  0  0  0  0  0  0  0  0
  -24.3301  -26.0602   22.8239 C   0  0  0  0  0  0  0  0  0  0  0  0
  -23.6073  -29.2203   22.9425 C   0  0  0  0  0  0  0  0  0  0  0  0
  -24.6915  -32.4499   22.7394 C   0  0  0  0  0  0  0  0  0  0  0  0
  -29.0982  -20.5568   23.1841 C   0  0  0  0  0  0  0  0  0  0  0  0
  -19.5826  -24.2804   22.2312 C   0  0  0  0  0  0  0  0  0  0  0  0
  -26.0334  -26.9043   24.4799 C   0  0  0  0  0  0  0  0  0  0  0  0
  -25.8984  -28.6184   22.0740 C   0  0  0  0  0  0  0  0  0  0  0  0
  -20.4089  -25.4103   21.6223 C   0  0  0  0  0  0  0  0  0  0  0  0
  -31.4215  -18.1251   22.0155 C   0  0  0  0  0  0  0  0  0  0  0  0
  -21.7753  -24.8948   21.1816 C   0  0  0  0  0  0  0  0  0  0  0  0
  -30.5433  -17.0877   21.3138 C   0  0  0  0  0  0  0  0  0  0  0  0
  -30.7365  -18.7000   23.2533 C   0  0  0  0  0  0  0  0  0  0  0  0
  -28.5106  -18.2127   22.3142 C   0  0  0  0  0  0  0  0  0  0  0  0
  -22.5731  -24.3565   22.3755 C   0  0  1  0  0  0  0  0  0  0  0  0
  -24.7166  -27.1722   23.7575 C   0  0  1  0  0  0  0  0  0  0  0  0
  -29.1359  -17.6453   21.0284 C   0  0  2  0  0  0  0  0  0  0  0  0
  -32.5926  -23.9538   17.7509 C   0  0  0  0  0  0  0  0  0  0  0  0
  -26.2868  -23.2587   18.1767 C   0  0  0  0  0  0  0  0  0  0  0  0
  -23.8622  -34.8162   22.8396 C   0  0  0  0  0  0  0  0  0  0  0  0
  -22.4667  -28.9372   20.1267 C   0  0  0  0  0  0  0  0  0  0  0  0
  -22.5371  -31.4315   19.9225 C   0  0  0  0  0  0  0  0  0  0  0  0
  -21.1059  -30.3643   21.6648 C   0  0  0  0  0  0  0  0  0  0  0  0
  -26.3835  -33.0661   25.0881 C   0  0  0  0  0  0  0  0  0  0  0  0
  -31.2878  -26.4413   18.6407 C   0  0  0  0  0  0  0  0  0  0  0  0
  -32.2509  -26.5790   19.8218 C   0  0  0  0  0  0  0  0  0  0  0  0
  -27.6401  -23.2238   21.8401 C   0  0  0  0  0  0  0  0  0  0  0  0
  -26.9438  -22.7402   20.5598 C   0  0  0  0  0  0  0  0  0  0  0  0
  -27.3554  -22.3173   23.0344 C   0  0  0  0  0  0  0  0  0  0  0  0
  -31.5524  -26.5549   21.1764 C   0  0  0  0  0  0  0  0  0  1  0  0
  -27.1771  -23.7002   19.3582 C   0  0  1  0  0  0  0  0  0  0  0  0
  -23.6181  -30.3574   21.9496 C   0  0  1  0  0  0  0  0  0  0  0  0
  -24.4426  -33.6538   23.6300 C   0  0  2  0  0  0  0  0  0  0  0  0
  -22.4556  -30.2579   20.9219 C   0  0  0  0  0  0  0  0  0  0  0  0
  -27.4686  -15.8318   21.1467 N   0  0  0  0  0  0  0  0  0  0  0  0
  -29.2265  -22.7021   18.5355 N   0  0  0  0  0  0  0  0  0  0  0  0
  -30.5292  -22.7686   18.1504 N   0  0  0  0  0  0  0  0  0  0  0  0
  -28.2452  -16.6073   20.3711 N   0  0  0  0  0  0  0  0  0  0  0  0
  -24.7468  -28.4036   22.9657 N   0  0  0  0  0  0  0  0  0  0  0  0
  -29.4070  -19.2134   22.9142 N   0  0  0  0  0  0  0  0  0  0  0  0
  -28.8341  -17.0367   18.1173 N   0  0  0  0  0  0  0  0  0  0  0  0
  -25.8123  -13.6967   17.7864 N   0  0  0  0  0  0  0  0  0  0  0  0
  -23.1329  -25.4483   23.1429 N   0  0  0  0  0  0  0  0  0  0  0  0
  -23.6167  -31.5861   22.7362 N   0  0  0  0  0  0  0  0  0  0  0  0
  -27.8188  -20.9636   22.8258 N   0  0  0  0  0  0  0  0  0  0  0  0
  -25.7158  -34.1036   24.2607 N   0  3  0  0  0  0  0  0  0  0  0  0
  -27.2004  -15.0769   16.5918 O   0  0  0  0  0  0  0  0  0  0  0  0
  -25.0629  -25.7793   21.8828 O   0  0  0  0  0  0  0  0  0  0  0  0
  -22.6272  -29.0668   23.6755 O   0  0  0  0  0  0  0  0  0  0  0  0
  -25.7336  -32.2933   22.1068 O   0  0  0  0  0  0  0  0  0  0  0  0
  -29.9048  -21.3373   23.7009 O   0  0  0  0  0  0  0  0  0  0  0  0
  -23.1708  -11.2144   22.0168 O   0  0  0  0  0  0  0  0  0  0  0  0
  -30.6146  -27.6293   21.2275 O   0  0  0  0  0  0  0  0  0  1  0  0
  -23.4601   -6.1841   19.7770 F   0  0  0  0  0  0  0  0  0  0  0  0
  -22.8431  -10.8524   19.2957 F   0  0  0  0  0  0  0  0  0  0  0  0
  1  2  1  0  0  0  0
  1  5  2  0  0  0  0
  2  6  2  0  0  0  0
  3  8  2  0  0  0  0
  3 16  1  0  0  0  0
  4  9  1  0  0  0  0
  4 16  2  0  0  0  0
  5 18  1  0  0  0  0
  6 20  1  0  0  0  0
  7 10  2  0  0  0  0
  7 19  1  0  0  0  0
  8 23  1  0  0  0  0
  9 23  2  0  0  0  0
 10 24  1  0  0  0  0
 11 12  2  0  0  0  0
 11 25  1  0  0  0  0
 12 26  1  0  0  0  0
 13 21  1  0  0  0  0
 13 24  2  0  0  0  0
 14 22  1  0  0  0  0
 14 29  2  0  0  0  0
 15 26  2  0  0  0  0
 15 27  1  0  0  0  0
 16 28  1  0  0  0  0
 17 28  1  0  0  0  0
 17 31  2  0  0  0  0
 17 32  1  0  0  0  0
 18 20  2  0  0  0  0
 18 37  1  0  0  0  0
 19 21  2  0  0  0  0
 19 38  1  0  0  0  0
 20 46  1  0  0  0  0
 21 39  1  0  0  0  0
 22 30  2  0  0  0  0
 22 56  1  0  0  0  0
 23 83  1  0  0  0  0
 24 84  1  0  0  0  0
 25 27  2  0  0  0  0
 25 83  1  0  0  0  0
 26 85  1  0  0  0  0
 27 86  1  0  0  0  0
 28 66  2  0  0  0  0
 29 62  1  0  0  0  0
 29 67  1  0  0  0  0
 30 49  1  0  0  0  0
 30 68  1  0  0  0  0
 31 69  1  0  0  0  0
 31 72  1  0  0  0  0
 32 73  1  0  0  0  0
 32 78  2  0  0  0  0
 33 47  1  0  0  0  0
 33 74  1  0  0  0  0
 33 79  2  0  0  0  0
 34 63  1  0  0  0  0
 34 70  1  0  0  0  0
 34 80  2  0  0  0  0
 35 64  1  0  0  0  0
 35 75  1  0  0  0  0
 35 81  2  0  0  0  0
 36 71  1  0  0  0  0
 36 76  1  0  0  0  0
 36 82  2  0  0  0  0
 37 40  1  0  0  0  0
 38 47  1  0  0  0  0
 39 70  1  0  0  0  0
 40 42  1  0  0  0  0
 41 43  1  0  0  0  0
 41 44  1  0  0  0  0
 42 46  1  0  0  0  0
 43 48  1  0  0  0  0
 44 71  1  0  0  0  0
 45 48  1  0  0  0  0
 45 71  1  0  0  0  0
 46 74  1  0  0  0  0
 47 70  1  0  0  0  0
 48 69  1  0  0  0  0
 50 62  1  0  0  0  0
 51 64  1  0  0  0  0
 52 65  1  0  0  0  0
 53 65  1  0  0  0  0
 54 65  1  0  0  0  0
 55 77  1  0  0  0  0
 56 57  1  0  0  0  0
 57 61  1  0  0  0  0
 58 59  1  0  0  0  0
 58 60  1  0  0  0  0
 59 62  1  0  0  0  0
 60 76  1  0  0  0  0
 61 84  1  0  0  0  0
 63 65  1  0  0  0  0
 63 75  1  0  0  0  0
 64 77  1  0  0  0  0
 66 69  1  0  0  0  0
 67 68  2  0  0  0  0
M  CHG  1  77   1
M  ISO  4  36 100  61 101  76 100  84 101
M  END
> <Batch ID>
0084

> <Smiles>
CNC(C)C(=O)NC(C(=O)N1Cc2cc([101O:1][101CH2:1]CCc3cc(C(C)CCC[100NH:0][100C:0](=O)N4CCCC(n5nc(-c6ccc(Oc7ccc(F)cc7F)cc6)c(C(N)=O)c5N)C4)nnc3C)ccc2CC1C(=O)NC1CCCc2ccccc21)C(C)(C)C

> <Shape>
0.251

> <Color>
0.064

> <Negative vol penalty>
0.000

$$$$

  -OEChem-04052318543D

 84 92  0     1  0  0  0  0  0999 V2000
  -22.8779   -9.6286   19.9398 C   0  0  0  0  0  0  0  0  0  0  0  0
  -22.0789  -10.7095   20.2985 C   0  0  0  0  0  0  0  0  0  0  0  0
  -28.5862  -28.3994   19.3629 C   0  0  0  0  0  0  0  0  0  0  0  0
  -27.2494  -26.5230   20.0904 C   0  0  0  0  0  0  0  0  0  0  0  0
  -24.2659   -9.7606   19.9347 C   0  0  0  0  0  0  0  0  0  0  0  0
  -22.6675  -11.9228   20.6532 C   0  0  0  0  0  0  0  0  0  0  0  0
  -20.4821  -17.5365   19.5503 C   0  0  0  0  0  0  0  0  0  0  0  0
  -29.7119  -27.5774   19.3111 C   0  0  0  0  0  0  0  0  0  0  0  0
  -28.3751  -25.7009   20.0386 C   0  0  0  0  0  0  0  0  0  0  0  0
  -19.7726  -18.4390   20.3414 C   0  0  0  0  0  0  0  0  0  0  0  0
  -31.0117  -25.2626   17.2170 C   0  0  0  0  0  0  0  0  0  0  0  0
  -31.8367  -25.3631   16.0968 C   0  0  0  0  0  0  0  0  0  0  0  0
  -21.8355  -19.5518   20.9118 C   0  0  0  0  0  0  0  0  0  0  0  0
  -19.1723  -27.1383   23.8394 C   0  0  0  0  0  0  0  0  0  0  0  0
  -33.6879  -25.9913   17.5165 C   0  0  0  0  0  0  0  0  0  0  0  0
  -27.3550  -27.8722   19.7526 C   0  0  0  0  0  0  0  0  0  0  0  0
  -25.2740  -28.9726   18.7697 C   0  0  0  0  0  0  0  0  0  0  0  0
  -24.8715  -10.9790   20.2803 C   0  0  0  0  0  0  0  0  0  0  0  0
  -21.8773  -17.6284   19.4425 C   0  0  0  0  0  0  0  0  0  0  0  0
  -24.0649  -12.0709   20.6540 C   0  0  0  0  0  0  0  0  0  0  0  0
  -22.5602  -18.6508   20.1166 C   0  0  0  0  0  0  0  0  0  0  0  0
  -19.0400  -26.5022   22.6176 C   0  0  0  0  0  0  0  0  0  0  0  0
  -29.6064  -26.2282   19.6489 C   0  0  0  0  0  0  0  0  0  0  0  0
  -20.4495  -19.4450   21.0246 C   0  0  0  0  0  0  0  0  0  0  0  0
  -31.5247  -25.5266   18.4870 C   0  0  0  0  0  0  0  0  0  0  0  0
  -33.1748  -25.7274   16.2466 C   0  0  0  0  0  0  0  0  0  0  0  0
  -32.8628  -25.8909   18.6367 C   0  0  0  0  0  0  0  0  0  0  0  0
  -26.1919  -28.7210   19.8069 C   0  0  0  0  0  0  0  0  0  0  0  0
  -19.6128  -28.4465   23.8423 C   0  0  0  0  0  0  0  0  0  0  0  0
  -19.3565  -27.2165   21.4796 C   0  0  0  0  0  0  0  0  0  0  0  0
  -24.3602  -29.8366   19.3219 C   0  0  0  0  0  0  0  0  0  0  0  0
  -25.2494  -28.4701   17.4270 C   0  0  0  0  0  0  0  0  0  0  0  0
  -24.3144  -15.7274   20.1844 C   0  0  0  0  0  0  0  0  0  0  0  0
  -26.0530  -18.0226   18.6906 C   0  0  0  0  0  0  0  0  0  0  0  0
  -26.3056  -21.2764   17.6927 C   0  0  0  0  0  0  0  0  0  0  0  0
  -22.6209  -30.8778   24.9559 C   0  0  0  0  0  0  0  0  0  0  0  0
  -26.3773  -11.0597   20.3057 C   0  0  0  0  0  0  0  0  0  0  0  0
  -22.6252  -16.6635   18.5638 C   0  0  0  0  0  0  0  0  0  0  0  0
  -24.0551  -18.8050   20.0179 C   0  0  0  0  0  0  0  0  0  0  0  0
  -26.9103  -12.4899   20.3327 C   0  0  0  0  0  0  0  0  0  0  0  0
  -23.9691  -33.2417   22.6600 C   0  0  0  0  0  0  0  0  0  0  0  0
  -26.1567  -13.3210   21.3663 C   0  0  0  0  0  0  0  0  0  0  0  0
  -24.6088  -32.3739   21.5749 C   0  0  0  0  0  0  0  0  0  0  0  0
  -24.1279  -32.6206   24.0460 C   0  0  0  0  0  0  0  0  0  0  0  0
  -24.2912  -30.3616   23.0744 C   0  0  0  0  0  0  0  0  0  0  0  0
  -24.6653  -13.4106   21.0211 C   0  0  1  0  0  0  0  0  0  0  0  0
  -24.0991  -16.5355   18.9361 C   0  0  1  0  0  0  0  0  0  0  0  0
  -24.1078  -30.9192   21.6525 C   0  0  2  0  0  0  0  0  0  0  0  0
  -19.2391  -26.5964   20.1283 C   0  0  0  0  0  0  0  0  0  0  0  0
  -27.8601  -22.8642   16.5265 C   0  0  0  0  0  0  0  0  0  0  0  0
  -27.7793  -18.1733   21.2020 C   0  0  0  0  0  0  0  0  0  0  0  0
  -28.6689  -20.3625   20.3748 C   0  0  0  0  0  0  0  0  0  0  0  0
  -29.0530  -18.2824   19.0525 C   0  0  0  0  0  0  0  0  0  0  0  0
  -24.3444  -21.7968   15.5383 C   0  0  0  0  0  0  0  0  0  0  0  0
  -18.5620  -25.0732   22.5581 C   0  0  0  0  0  0  0  0  0  0  0  0
  -19.7728  -29.1768   25.1316 C   0  0  0  0  0  0  0  0  0  0  0  0
  -19.6781  -24.0578   22.2891 C   0  0  0  0  0  0  0  0  0  0  0  0
  -19.1635  -22.6238   22.1557 C   0  0  0  0  0  0  0  0  0  0  0  0
  -21.1677  -29.0305   25.7525 C   0  0  0  0  0  0  0  0  0  0  0  0
  -20.3031  -21.6397   21.9290 C   0  0  0  0  0  0  0  0  0  1  0  0
  -26.7380  -19.2963   19.1234 C   0  0  1  0  0  0  0  0  0  0  0  0
  -26.6998  -21.8947   16.3635 C   0  0  2  0  0  0  0  0  0  0  0  0
  -28.0318  -19.0248   19.9418 C   0  0  0  0  0  0  0  0  0  0  0  0
  -25.8890  -29.3727   20.9328 N   0  0  0  0  0  0  0  0  0  0  0  0
  -19.9154  -29.1212   22.7129 N   0  0  0  0  0  0  0  0  0  0  0  0
  -19.7850  -28.4961   21.5122 N   0  0  0  0  0  0  0  0  0  0  0  0
  -24.7706  -30.0423   20.6062 N   0  0  0  0  0  0  0  0  0  0  0  0
  -24.7424  -17.8332   19.1513 N   0  0  0  0  0  0  0  0  0  0  0  0
  -23.6326  -31.2420   24.0522 N   0  0  0  0  0  0  0  0  0  0  0  0
  -23.2538  -30.4329   18.8293 N   0  0  0  0  0  0  0  0  0  0  0  0
  -26.2643  -27.5917   17.0238 N   0  0  0  0  0  0  0  0  0  0  0  0
  -24.4490  -14.3706   19.9600 N   0  0  0  0  0  0  0  0  0  0  0  0
  -26.9515  -20.0777   17.9100 N   0  0  0  0  0  0  0  0  0  0  0  0
  -22.2047  -29.5537   24.8913 N   0  0  0  0  0  0  0  0  0  0  0  0
  -25.5481  -22.6348   15.7746 N   0  3  0  0  0  0  0  0  0  0  0  0
  -24.3632  -28.8035   16.6042 O   0  0  0  0  0  0  0  0  0  0  0  0
  -24.3568  -16.2931   21.2706 O   0  0  0  0  0  0  0  0  0  0  0  0
  -26.6559  -17.2284   17.9644 O   0  0  0  0  0  0  0  0  0  0  0  0
  -25.5077  -21.8059   18.4631 O   0  0  0  0  0  0  0  0  0  0  0  0
  -22.1214  -31.6751   25.7570 O   0  0  0  0  0  0  0  0  0  0  0  0
  -30.7046  -25.4257   19.5982 O   0  0  0  0  0  0  0  0  0  0  0  0
  -19.7594  -20.3268   21.7979 O   0  0  0  0  0  0  0  0  0  1  0  0
  -33.9673  -25.8223   15.1709 F   0  0  0  0  0  0  0  0  0  0  0  0
  -33.3617  -26.1446   19.8544 F   0  0  0  0  0  0  0  0  0  0  0  0
  1  2  1  0  0  0  0
  1  5  2  0  0  0  0
  2  6  2  0  0  0  0
  3  8  2  0  0  0  0
  3 16  1  0  0  0  0
  4  9  1  0  0  0  0
  4 16  2  0  0  0  0
  5 18  1  0  0  0  0
  6 20  1  0  0  0  0
  7 10  2  0  0  0  0
  7 19  1  0  0  0  0
  8 23  1  0  0  0  0
  9 23  2  0  0  0  0
 10 24  1  0  0  0  0
 11 12  2  0  0  0  0
 11 25  1  0  0  0  0
 12 26  1  0  0  0  0
 13 21  1  0  0  0  0
 13 24  2  0  0  0  0
 14 22  1  0  0  0  0
 14 29  2  0  0  0  0
 15 26  2  0  0  0  0
 15 27  1  0  0  0  0
 16 28  1  0  0  0  0
 17 28  1  0  0  0  0
 17 31  2  0  0  0  0
 17 32  1  0  0  0  0
 18 20  2  0  0  0  0
 18 37  1  0  0  0  0
 19 21  2  0  0  0  0
 19 38  1  0  0  0  0
 20 46  1  0  0  0  0
 21 39  1  0  0  0  0
 22 30  2  0  0  0  0
 22 55  1  0  0  0  0
 23 81  1  0  0  0  0
 24 82  1  0  0  0  0
 25 27  2  0  0  0  0
 25 81  1  0  0  0  0
 26 83  1  0  0  0  0
 27 84  1  0  0  0  0
 28 64  2  0  0  0  0
 29 56  1  0  0  0  0
 29 65  1  0  0  0  0
 30 49  1  0  0  0  0
 30 66  1  0  0  0  0
 31 67  1  0  0  0  0
 31 70  1  0  0  0  0
 32 71  1  0  0  0  0
 32 76  2  0  0  0  0
 33 47  1  0  0  0  0
 33 72  1  0  0  0  0
 33 77  2  0  0  0  0
 34 61  1  0  0  0  0
 34 68  1  0  0  0  0
 34 78  2  0  0  0  0
 35 62  1  0  0  0  0
 35 73  1  0  0  0  0
 35 79  2  0  0  0  0
 36 69  1  0  0  0  0
 36 74  1  0  0  0  0
 36 80  2  0  0  0  0
 37 40  1  0  0  0  0
 38 47  1  0  0  0  0
 39 68  1  0  0  0  0
 40 42  1  0  0  0  0
 41 43  1  0  0  0  0
 41 44  1  0  0  0  0
 42 46  1  0  0  0  0
 43 48  1  0  0  0  0
 44 69  1  0  0  0  0
 45 48  1  0  0  0  0
 45 69  1  0  0  0  0
 46 72  1  0  0  0  0
 47 68  1  0  0  0  0
 48 67  1  0  0  0  0
 50 62  1  0  0  0  0
 51 63  1  0  0  0  0
 52 63  1  0  0  0  0
 53 63  1  0  0  0  0
 54 75  1  0  0  0  0
 55 57  1  0  0  0  0
 56 59  1  0  0  0  0
 57 58  1  0  0  0  0
 58 60  1  0  0  0  0
 59 74  1  0  0  0  0
 60 82  1  0  0  0  0
 61 63  1  0  0  0  0
 61 73  1  0  0  0  0
 62 75  1  0  0  0  0
 64 67  1  0  0  0  0
 65 66  2  0  0  0  0
M  CHG  1  75   1
M  ISO  4  36 100  60 101  74 100  82 101
M  END
> <Batch ID>
0084

> <Smiles>
CNC(C)C(=O)NC(C(=O)N1Cc2cc([101O:1][101CH2:1]CCCc3cc(CC[100NH:0][100C:0](=O)N4CCCC(n5nc(-c6ccc(Oc7ccc(F)cc7F)cc6)c(C(N)=O)c5N)C4)nnc3C)ccc2CC1C(=O)NC1CCCc2ccccc21)C(C)(C)C

> <Shape>
0.230

> <Color>
0.060

> <Negative vol penalty>
0.000

$$$$

  -OEChem-04052318543D

 83 91  0     1  0  0  0  0  0999 V2000
  -22.5033   -9.5264   20.4345 C   0  0  0  0  0  0  0  0  0  0  0  0
  -21.7717  -10.6536   20.7944 C   0  0  0  0  0  0  0  0  0  0  0  0
  -27.9897  -26.0169   17.5097 C   0  0  0  0  0  0  0  0  0  0  0  0
  -27.3441  -25.3277   19.7335 C   0  0  0  0  0  0  0  0  0  0  0  0
  -23.8886   -9.6096   20.2998 C   0  0  0  0  0  0  0  0  0  0  0  0
  -22.4251  -11.8645   21.0211 C   0  0  0  0  0  0  0  0  0  0  0  0
  -20.3157  -17.4763   19.7704 C   0  0  0  0  0  0  0  0  0  0  0  0
  -29.0616  -25.1250   17.5445 C   0  0  0  0  0  0  0  0  0  0  0  0
  -28.4159  -24.4357   19.7682 C   0  0  0  0  0  0  0  0  0  0  0  0
  -19.7066  -18.4477   20.5635 C   0  0  0  0  0  0  0  0  0  0  0  0
  -32.1591  -25.0053   18.8919 C   0  0  0  0  0  0  0  0  0  0  0  0
  -33.3982  -25.4647   18.4457 C   0  0  0  0  0  0  0  0  0  0  0  0
  -21.8440  -19.5197   20.8817 C   0  0  0  0  0  0  0  0  0  0  0  0
  -20.2521  -28.6350   22.0106 C   0  0  0  0  0  0  0  0  0  0  0  0
  -33.4210  -23.7500   16.7438 C   0  0  0  0  0  0  0  0  0  0  0  0
  -19.6956  -27.2963   23.7334 C   0  0  0  0  0  0  0  0  0  0  0  0
  -27.1310  -26.1183   18.6042 C   0  0  0  0  0  0  0  0  0  0  0  0
  -24.9553  -27.0503   17.6528 C   0  0  0  0  0  0  0  0  0  0  0  0
  -24.5582  -10.8244   20.5154 C   0  0  0  0  0  0  0  0  0  0  0  0
  -21.6977  -17.5132   19.5355 C   0  0  0  0  0  0  0  0  0  0  0  0
  -23.8207  -11.9637   20.8905 C   0  0  0  0  0  0  0  0  0  0  0  0
  -22.4679  -18.5490   20.0832 C   0  0  0  0  0  0  0  0  0  0  0  0
  -20.1957  -28.5416   23.4231 C   0  0  0  0  0  0  0  0  0  0  0  0
  -29.2747  -24.3344   18.6737 C   0  0  0  0  0  0  0  0  0  0  0  0
  -20.4712  -19.4680   21.1217 C   0  0  0  0  0  0  0  0  0  0  0  0
  -31.5509  -23.9182   18.2641 C   0  0  0  0  0  0  0  0  0  0  0  0
  -34.0292  -24.8371   17.3716 C   0  0  0  0  0  0  0  0  0  0  0  0
  -32.1819  -23.2906   17.1901 C   0  0  0  0  0  0  0  0  0  0  0  0
  -26.0239  -27.0398   18.5692 C   0  0  0  0  0  0  0  0  0  0  0  0
  -19.7845  -27.4439   21.5007 C   0  0  0  0  0  0  0  0  0  0  0  0
  -24.1774  -28.1124   18.0446 C   0  0  0  0  0  0  0  0  0  0  0  0
  -24.6894  -26.1780   16.5465 C   0  0  0  0  0  0  0  0  0  0  0  0
  -24.1345  -15.5755   20.1768 C   0  0  0  0  0  0  0  0  0  0  0  0
  -25.7993  -17.7174   18.3983 C   0  0  0  0  0  0  0  0  0  0  0  0
  -26.0572  -20.8963   17.1840 C   0  0  0  0  0  0  0  0  0  0  0  0
  -23.4399  -30.9118   23.2858 C   0  0  0  0  0  0  0  0  0  0  0  0
  -26.0620  -10.8542   20.4040 C   0  0  0  0  0  0  0  0  0  0  0  0
  -22.3354  -16.4730   18.6558 C   0  0  0  0  0  0  0  0  0  0  0  0
  -23.9520  -18.6451   19.8447 C   0  0  0  0  0  0  0  0  0  0  0  0
  -26.6370  -12.2642   20.2963 C   0  0  0  0  0  0  0  0  0  0  0  0
  -24.4688  -32.3711   20.2055 C   0  0  0  0  0  0  0  0  0  0  0  0
  -26.0036  -13.1800   21.3388 C   0  0  0  0  0  0  0  0  0  0  0  0
  -24.8876  -31.1712   19.3541 C   0  0  0  0  0  0  0  0  0  0  0  0
  -24.8346  -32.1755   21.6752 C   0  0  0  0  0  0  0  0  0  0  0  0
  -24.7538  -29.7251   21.4253 C   0  0  0  0  0  0  0  0  0  0  0  0
  -24.4906  -13.3010   21.1206 C   0  0  1  0  0  0  0  0  0  0  0  0
  -23.8323  -16.3160   18.9049 C   0  0  1  0  0  0  0  0  0  0  0  0
  -24.3556  -29.8516   19.9448 C   0  0  2  0  0  0  0  0  0  0  0  0
  -19.6305  -27.0089   20.0970 C   0  0  0  0  0  0  0  0  0  0  0  0
  -26.9706  -22.8085   15.8399 C   0  0  0  0  0  0  0  0  0  0  0  0
  -27.7469  -17.9551   20.7350 C   0  0  0  0  0  0  0  0  0  0  0  0
  -28.6229  -20.0598   19.7001 C   0  0  0  0  0  0  0  0  0  0  0  0
  -28.8259  -17.8937   18.4797 C   0  0  0  0  0  0  0  0  0  0  0  0
  -24.3883  -20.1987   14.8415 C   0  0  0  0  0  0  0  0  0  0  0  0
  -20.5985  -29.5848   24.3854 C   0  0  0  0  0  0  0  0  0  0  0  0
  -19.9517  -24.1713   22.1622 C   0  0  0  0  0  0  0  0  0  0  0  0
  -19.3852  -22.7505   22.1625 C   0  0  0  0  0  0  0  0  0  0  0  0
  -18.8932  -25.2394   22.4597 C   0  0  0  0  0  0  0  0  0  0  0  0
  -22.0758  -29.5106   24.8139 C   0  0  0  0  0  0  0  0  0  0  0  0
  -20.4707  -21.7157   21.8988 C   0  0  0  0  0  0  0  0  0  1  0  0
  -26.5574  -18.9898   18.6904 C   0  0  1  0  0  0  0  0  0  0  0  0
  -26.3490  -21.4215   15.7899 C   0  0  2  0  0  0  0  0  0  0  0  0
  -27.9107  -18.7220   19.4076 C   0  0  0  0  0  0  0  0  0  0  0  0
  -25.9362  -28.0177   19.4748 N   0  0  0  0  0  0  0  0  0  0  0  0
  -19.4489  -26.6379   22.5570 N   0  0  0  0  0  0  0  0  0  0  0  0
  -24.8033  -28.6526   19.1294 N   0  0  0  0  0  0  0  0  0  0  0  0
  -24.5301  -17.6010   18.9827 N   0  0  0  0  0  0  0  0  0  0  0  0
  -24.2990  -30.9068   22.1746 N   0  0  0  0  0  0  0  0  0  0  0  0
  -23.0261  -28.6276   17.5636 N   0  0  0  0  0  0  0  0  0  0  0  0
  -23.9224  -25.0270   16.7724 N   0  0  0  0  0  0  0  0  0  0  0  0
  -24.2086  -14.2040   20.0254 N   0  0  0  0  0  0  0  0  0  0  0  0
  -26.6843  -19.6907   17.4172 N   0  0  0  0  0  0  0  0  0  0  0  0
  -22.9724  -29.6674   23.6903 N   0  0  0  0  0  0  0  0  0  0  0  0
  -25.0927  -21.4980   14.9918 N   0  3  0  0  0  0  0  0  0  0  0  0
  -25.1332  -26.4038   15.3951 O   0  0  0  0  0  0  0  0  0  0  0  0
  -24.2905  -16.2022   21.2183 O   0  0  0  0  0  0  0  0  0  0  0  0
  -26.3113  -16.8615   17.6724 O   0  0  0  0  0  0  0  0  0  0  0  0
  -25.3472  -21.4975   17.9872 O   0  0  0  0  0  0  0  0  0  0  0  0
  -23.1095  -31.9490   23.8707 O   0  0  0  0  0  0  0  0  0  0  0  0
  -30.3204  -23.4638   18.7078 O   0  0  0  0  0  0  0  0  0  0  0  0
  -19.8792  -20.4170   21.8968 O   0  0  0  0  0  0  0  0  0  1  0  0
  -35.2184  -25.2794   16.9422 F   0  0  0  0  0  0  0  0  0  0  0  0
  -31.6020  -22.2465   16.5822 F   0  0  0  0  0  0  0  0  0  0  0  0
  1  2  1  0  0  0  0
  1  5  2  0  0  0  0
  2  6  2  0  0  0  0
  3  8  2  0  0  0  0
  3 17  1  0  0  0  0
  4  9  1  0  0  0  0
  4 17  2  0  0  0  0
  5 19  1  0  0  0  0
  6 21  1  0  0  0  0
  7 10  2  0  0  0  0
  7 20  1  0  0  0  0
  8 24  1  0  0  0  0
  9 24  2  0  0  0  0
 10 25  1  0  0  0  0
 11 12  2  0  0  0  0
 11 26  1  0  0  0  0
 12 27  1  0  0  0  0
 13 22  1  0  0  0  0
 13 25  2  0  0  0  0
 14 23  1  0  0  0  0
 14 30  2  0  0  0  0
 15 27  2  0  0  0  0
 15 28  1  0  0  0  0
 16 23  2  0  0  0  0
 16 65  1  0  0  0  0
 17 29  1  0  0  0  0
 18 29  1  0  0  0  0
 18 31  2  0  0  0  0
 18 32  1  0  0  0  0
 19 21  2  0  0  0  0
 19 37  1  0  0  0  0
 20 22  2  0  0  0  0
 20 38  1  0  0  0  0
 21 46  1  0  0  0  0
 22 39  1  0  0  0  0
 23 55  1  0  0  0  0
 24 80  1  0  0  0  0
 25 81  1  0  0  0  0
 26 28  2  0  0  0  0
 26 80  1  0  0  0  0
 27 82  1  0  0  0  0
 28 83  1  0  0  0  0
 29 64  2  0  0  0  0
 30 49  1  0  0  0  0
 30 65  1  0  0  0  0
 31 66  1  0  0  0  0
 31 69  1  0  0  0  0
 32 70  1  0  0  0  0
 32 75  2  0  0  0  0
 33 47  1  0  0  0  0
 33 71  1  0  0  0  0
 33 76  2  0  0  0  0
 34 61  1  0  0  0  0
 34 67  1  0  0  0  0
 34 77  2  0  0  0  0
 35 62  1  0  0  0  0
 35 72  1  0  0  0  0
 35 78  2  0  0  0  0
 36 68  1  0  0  0  0
 36 73  1  0  0  0  0
 36 79  2  0  0  0  0
 37 40  1  0  0  0  0
 38 47  1  0  0  0  0
 39 67  1  0  0  0  0
 40 42  1  0  0  0  0
 41 43  1  0  0  0  0
 41 44  1  0  0  0  0
 42 46  1  0  0  0  0
 43 48  1  0  0  0  0
 44 68  1  0  0  0  0
 45 48  1  0  0  0  0
 45 68  1  0  0  0  0
 46 71  1  0  0  0  0
 47 67  1  0  0  0  0
 48 66  1  0  0  0  0
 50 62  1  0  0  0  0
 51 63  1  0  0  0  0
 52 63  1  0  0  0  0
 53 63  1  0  0  0  0
 54 74  1  0  0  0  0
 55 59  1  0  0  0  0
 56 57  1  0  0  0  0
 56 58  1  0  0  0  0
 57 60  1  0  0  0  0
 58 65  1  0  0  0  0
 59 73  1  0  0  0  0
 60 81  1  0  0  0  0
 61 63  1  0  0  0  0
 61 72  1  0  0  0  0
 62 74  1  0  0  0  0
 64 66  1  0  0  0  0
M  CHG  1  74   1
M  ISO  4  36 100  60 101  73 100  81 101
M  END
> <Batch ID>
0084

> <Smiles>
CNC(C)C(=O)NC(C(=O)N1Cc2cc([101O:1][101CH2:1]CCCn3cc(CC[100NH:0][100C:0](=O)N4CCCC(n5nc(-c6ccc(Oc7ccc(F)cc7F)cc6)c(C(N)=O)c5N)C4)cc3C)ccc2CC1C(=O)NC1CCCc2ccccc21)C(C)(C)C

> <Shape>
0.215

> <Color>
0.060

> <Negative vol penalty>
0.000

$$$$

  -OEChem-04052318543D

 83 91  0     1  0  0  0  0  0999 V2000
  -23.2336  -31.4317   26.3750 C   0  0  0  0  0  0  0  0  0  0  0  0
  -23.4916  -30.1602   25.8729 C   0  0  0  0  0  0  0  0  0  0  0  0
  -23.9803   -9.5660   21.0709 C   0  0  0  0  0  0  0  0  0  0  0  0
  -24.5791  -10.4242   23.2485 C   0  0  0  0  0  0  0  0  0  0  0  0
  -22.8471  -32.4558   25.5113 C   0  0  0  0  0  0  0  0  0  0  0  0
  -23.3621  -29.9117   24.5069 C   0  0  0  0  0  0  0  0  0  0  0  0
  -27.2262  -27.2178   22.6477 C   0  0  0  0  0  0  0  0  0  0  0  0
  -25.9469  -21.0421   23.6070 C   0  0  0  0  0  0  0  0  0  0  0  0
  -25.8955  -19.6492   23.6568 C   0  0  0  0  0  0  0  0  0  0  0  0
  -23.5328   -8.3835   21.6600 C   0  0  0  0  0  0  0  0  0  0  0  0
  -24.1316   -9.2417   23.8376 C   0  0  0  0  0  0  0  0  0  0  0  0
  -27.2205  -25.8450   22.8906 C   0  0  0  0  0  0  0  0  0  0  0  0
  -20.7951   -7.3140   23.3314 C   0  0  0  0  0  0  0  0  0  0  0  0
  -19.5713   -6.7993   22.9034 C   0  0  0  0  0  0  0  0  0  0  0  0
  -26.3661  -25.4612   20.6676 C   0  0  0  0  0  0  0  0  0  0  0  0
  -28.3508  -20.9456   23.3853 C   0  0  0  0  0  0  0  0  0  0  0  0
  -20.6724   -4.7678   22.1978 C   0  0  0  0  0  0  0  0  0  0  0  0
  -24.5036  -10.5863   21.8652 C   0  0  0  0  0  0  0  0  0  0  0  0
  -24.2140  -12.9708   21.0060 C   0  0  0  0  0  0  0  0  0  0  0  0
  -22.7222  -32.2221   24.1327 C   0  0  0  0  0  0  0  0  0  0  0  0
  -26.7909  -27.7242   21.4146 C   0  0  0  0  0  0  0  0  0  0  0  0
  -22.9723  -30.9332   23.6242 C   0  0  0  0  0  0  0  0  0  0  0  0
  -26.3697  -26.8407   20.4105 C   0  0  0  0  0  0  0  0  0  0  0  0
  -27.1745  -21.6904   23.4713 C   0  0  0  0  0  0  0  0  0  0  0  0
  -27.0717  -18.9044   23.5708 C   0  0  0  0  0  0  0  0  0  0  0  0
  -28.2994  -19.5526   23.4351 C   0  0  0  0  0  0  0  0  0  0  0  0
  -23.6084   -8.2213   23.0433 C   0  0  0  0  0  0  0  0  0  0  0  0
  -26.7877  -24.9666   21.9016 C   0  0  0  0  0  0  0  0  0  0  0  0
  -21.9575   -6.5556   23.1924 C   0  0  0  0  0  0  0  0  0  0  0  0
  -19.5100   -5.5262   22.3367 C   0  0  0  0  0  0  0  0  0  0  0  0
  -21.8962   -5.2825   22.6257 C   0  0  0  0  0  0  0  0  0  0  0  0
  -24.9665  -11.8079   21.2572 C   0  0  0  0  0  0  0  0  0  0  0  0
  -25.1052  -13.8367   20.4207 C   0  0  0  0  0  0  0  0  0  0  0  0
  -22.8330  -13.2440   21.2776 C   0  0  0  0  0  0  0  0  0  0  0  0
  -24.4402  -29.6513   20.4849 C   0  0  0  0  0  0  0  0  0  0  0  0
  -25.8894  -29.3845   17.5951 C   0  0  0  0  0  0  0  0  0  0  0  0
  -27.9104  -27.5760   15.5235 C   0  0  0  0  0  0  0  0  0  0  0  0
  -30.1433  -16.2277   20.2082 C   0  0  0  0  0  0  0  0  0  0  0  0
  -22.2559  -33.3485   23.2448 C   0  0  0  0  0  0  0  0  0  0  0  0
  -26.8284  -29.2060   21.1587 C   0  0  0  0  0  0  0  0  0  0  0  0
  -25.9118  -27.3323   19.0626 C   0  0  0  0  0  0  0  0  0  0  0  0
  -22.5051  -33.0968   21.7600 C   0  0  0  0  0  0  0  0  0  0  0  0
  -29.7752  -13.0510   18.6431 C   0  0  0  0  0  0  0  0  0  0  0  0
  -22.0651  -31.6876   21.3762 C   0  0  0  0  0  0  0  0  0  0  0  0
  -28.4330  -12.5381   19.1678 C   0  0  0  0  0  0  0  0  0  0  0  0
  -30.5369  -13.8331   19.7109 C   0  0  0  0  0  0  0  0  0  0  0  0
  -28.4354  -14.4221   20.8557 C   0  0  0  0  0  0  0  0  0  0  0  0
  -22.8669  -30.6306   22.1452 C   0  0  1  0  0  0  0  0  0  0  0  0
  -25.8781  -29.6450   20.0490 C   0  0  1  0  0  0  0  0  0  0  0  0
  -27.6057  -13.6749   19.7976 C   0  0  2  0  0  0  0  0  0  0  0  0
  -26.9919  -17.4141   23.6275 C   0  0  0  0  0  0  0  0  0  0  0  0
  -30.4981  -19.0677   24.5408 C   0  0  0  0  0  0  0  0  0  0  0  0
  -28.8809  -27.5941   13.2093 C   0  0  0  0  0  0  0  0  0  0  0  0
  -23.1868  -28.5405   16.4577 C   0  0  0  0  0  0  0  0  0  0  0  0
  -24.3856  -27.6752   14.4373 C   0  0  0  0  0  0  0  0  0  0  0  0
  -24.4891  -30.1027   15.0025 C   0  0  0  0  0  0  0  0  0  0  0  0
  -30.6816  -27.6337   16.5608 C   0  0  0  0  0  0  0  0  0  0  0  0
  -27.2296  -23.1889   23.4183 C   0  0  0  0  0  0  0  0  0  1  0  0
  -30.3587  -19.0072   22.0196 C   0  0  0  0  0  0  0  0  0  0  0  0
  -29.6005  -18.5855   20.7607 C   0  0  0  0  0  0  0  0  0  0  0  0
  -29.5718  -18.7760   23.3416 C   0  0  2  0  0  0  0  0  0  0  0  0
  -25.7666  -28.4444   16.4203 C   0  0  1  0  0  0  0  0  0  0  0  0
  -29.0941  -27.9823   14.6642 C   0  0  2  0  0  0  0  0  0  0  0  0
  -24.4638  -28.6813   15.6054 C   0  0  0  0  0  0  0  0  0  0  0  0
  -26.2378  -11.9213   20.8635 N   0  0  0  0  0  0  0  0  0  0  0  0
  -26.2910  -13.1657   20.3589 N   0  0  0  0  0  0  0  0  0  0  0  0
  -25.9609  -28.7901   18.8629 N   0  0  0  0  0  0  0  0  0  0  0  0
  -29.6973  -14.8971   20.2667 N   0  0  0  0  0  0  0  0  0  0  0  0
  -24.9822  -15.0988   19.9578 N   0  0  0  0  0  0  0  0  0  0  0  0
  -22.0606  -12.2436   21.8834 N   0  0  0  0  0  0  0  0  0  0  0  0
  -24.1835  -30.4741   21.5651 N   0  0  0  0  0  0  0  0  0  0  0  0
  -26.9927  -28.5979   15.6447 N   0  0  0  0  0  0  0  0  0  0  0  0
  -29.2840  -17.1747   20.7520 N   0  0  0  0  0  0  0  0  0  0  0  0
  -30.3380  -27.3206   15.1498 N   0  3  0  0  0  0  0  0  0  0  0  0
  -22.2956  -14.3367   20.9766 O   0  0  0  0  0  0  0  0  0  0  0  0
  -23.6239  -28.9621   19.8848 O   0  0  0  0  0  0  0  0  0  0  0  0
  -25.9278  -30.6010   17.3947 O   0  0  0  0  0  0  0  0  0  0  0  0
  -27.8082  -26.4622   16.0329 O   0  0  0  0  0  0  0  0  0  0  0  0
  -31.2246  -16.5487   19.7036 O   0  0  0  0  0  0  0  0  0  0  0  0
  -23.1716   -7.0677   23.6185 O   0  0  0  0  0  0  0  0  0  0  0  0
  -26.7804  -23.6262   22.1363 O   0  0  0  0  0  0  0  0  0  1  0  0
  -18.3345   -5.0315   21.9273 F   0  0  0  0  0  0  0  0  0  0  0  0
  -23.0094   -4.5488   22.4908 F   0  0  0  0  0  0  0  0  0  0  0  0
  1  2  1  0  0  0  0
  1  5  2  0  0  0  0
  2  6  2  0  0  0  0
  3 10  2  0  0  0  0
  3 18  1  0  0  0  0
  4 11  1  0  0  0  0
  4 18  2  0  0  0  0
  5 20  1  0  0  0  0
  6 22  1  0  0  0  0
  7 12  2  0  0  0  0
  7 21  1  0  0  0  0
  8  9  2  0  0  0  0
  8 24  1  0  0  0  0
  9 25  1  0  0  0  0
 10 27  1  0  0  0  0
 11 27  2  0  0  0  0
 12 28  1  0  0  0  0
 13 14  2  0  0  0  0
 13 29  1  0  0  0  0
 14 30  1  0  0  0  0
 15 23  1  0  0  0  0
 15 28  2  0  0  0  0
 16 24  2  0  0  0  0
 16 26  1  0  0  0  0
 17 30  2  0  0  0  0
 17 31  1  0  0  0  0
 18 32  1  0  0  0  0
 19 32  1  0  0  0  0
 19 33  2  0  0  0  0
 19 34  1  0  0  0  0
 20 22  2  0  0  0  0
 20 39  1  0  0  0  0
 21 23  2  0  0  0  0
 21 40  1  0  0  0  0
 22 48  1  0  0  0  0
 23 41  1  0  0  0  0
 24 58  1  0  0  0  0
 25 26  2  0  0  0  0
 25 51  1  0  0  0  0
 26 61  1  0  0  0  0
 27 80  1  0  0  0  0
 28 81  1  0  0  0  0
 29 31  2  0  0  0  0
 29 80  1  0  0  0  0
 30 82  1  0  0  0  0
 31 83  1  0  0  0  0
 32 65  2  0  0  0  0
 33 66  1  0  0  0  0
 33 69  1  0  0  0  0
 34 70  1  0  0  0  0
 34 75  2  0  0  0  0
 35 49  1  0  0  0  0
 35 71  1  0  0  0  0
 35 76  2  0  0  0  0
 36 62  1  0  0  0  0
 36 67  1  0  0  0  0
 36 77  2  0  0  0  0
 37 63  1  0  0  0  0
 37 72  1  0  0  0  0
 37 78  2  0  0  0  0
 38 68  1  0  0  0  0
 38 73  1  0  0  0  0
 38 79  2  0  0  0  0
 39 42  1  0  0  0  0
 40 49  1  0  0  0  0
 41 67  1  0  0  0  0
 42 44  1  0  0  0  0
 43 45  1  0  0  0  0
 43 46  1  0  0  0  0
 44 48  1  0  0  0  0
 45 50  1  0  0  0  0
 46 68  1  0  0  0  0
 47 50  1  0  0  0  0
 47 68  1  0  0  0  0
 48 71  1  0  0  0  0
 49 67  1  0  0  0  0
 50 66  1  0  0  0  0
 52 61  1  0  0  0  0
 53 63  1  0  0  0  0
 54 64  1  0  0  0  0
 55 64  1  0  0  0  0
 56 64  1  0  0  0  0
 57 74  1  0  0  0  0
 58 81  1  0  0  0  0
 59 60  1  0  0  0  0
 59 61  1  0  0  0  0
 60 73  1  0  0  0  0
 62 64  1  0  0  0  0
 62 72  1  0  0  0  0
 63 74  1  0  0  0  0
 65 66  1  0  0  0  0
M  CHG  1  74   1
M  ISO  4  38 100  58 101  73 100  81 101
M  END
> <Batch ID>
0084

> <Smiles>
CNC(C)C(=O)NC(C(=O)N1Cc2cc([101O:1][101CH2:1]c3ccc(C)c(C(C)CC[100NH:0][100C:0](=O)N4CCCC(n5nc(-c6ccc(Oc7ccc(F)cc7F)cc6)c(C(N)=O)c5N)C4)c3)ccc2CC1C(=O)NC1CCCc2ccccc21)C(C)(C)C

> <Shape>
0.229

> <Color>
0.130

> <Negative vol penalty>
0.000

$$$$

  -OEChem-04052318543D

 85 93  0     1  0  0  0  0  0999 V2000
  -29.6257  -28.0804   21.0619 C   0  0  0  0  0  0  0  0  0  0  0  0
  -29.4620  -26.6990   21.0799 C   0  0  0  0  0  0  0  0  0  0  0  0
  -23.1902   -9.8164   19.9330 C   0  0  0  0  0  0  0  0  0  0  0  0
  -23.5626  -10.0016   22.3129 C   0  0  0  0  0  0  0  0  0  0  0  0
  -30.8934  -28.6334   21.2378 C   0  0  0  0  0  0  0  0  0  0  0  0
  -30.5663  -25.8697   21.2727 C   0  0  0  0  0  0  0  0  0  0  0  0
  -29.6453  -22.1450   24.5777 C   0  0  0  0  0  0  0  0  0  0  0  0
  -22.4226   -8.6707   20.1422 C   0  0  0  0  0  0  0  0  0  0  0  0
  -22.7950   -8.8559   22.5222 C   0  0  0  0  0  0  0  0  0  0  0  0
  -28.9136  -21.0514   24.1169 C   0  0  0  0  0  0  0  0  0  0  0  0
  -23.1945   -5.5084   22.2663 C   0  0  0  0  0  0  0  0  0  0  0  0
  -23.6900   -4.5487   23.1489 C   0  0  0  0  0  0  0  0  0  0  0  0
  -30.9603  -19.8038   23.8458 C   0  0  0  0  0  0  0  0  0  0  0  0
  -29.7846  -16.3390   24.2723 C   0  0  0  0  0  0  0  0  0  0  0  0
  -31.4335  -16.3434   22.5214 C   0  0  0  0  0  0  0  0  0  0  0  0
  -21.7301   -4.8130   24.5367 C   0  0  0  0  0  0  0  0  0  0  0  0
  -23.7602  -10.4818   21.0183 C   0  0  0  0  0  0  0  0  0  0  0  0
  -24.1012  -12.9977   20.7700 C   0  0  0  0  0  0  0  0  0  0  0  0
  -32.0123  -27.8108   21.4424 C   0  0  0  0  0  0  0  0  0  0  0  0
  -31.0433  -22.0798   24.6658 C   0  0  0  0  0  0  0  0  0  0  0  0
  -31.8505  -26.4122   21.4501 C   0  0  0  0  0  0  0  0  0  0  0  0
  -31.7073  -20.8970   24.3104 C   0  0  0  0  0  0  0  0  0  0  0  0
  -30.2605  -16.8499   23.0699 C   0  0  0  0  0  0  0  0  0  0  0  0
  -22.2250   -8.1905   21.4368 C   0  0  0  0  0  0  0  0  0  0  0  0
  -29.5713  -19.8815   23.7481 C   0  0  0  0  0  0  0  0  0  0  0  0
  -21.9668   -6.1205   22.5190 C   0  0  0  0  0  0  0  0  0  0  0  0
  -22.9578   -4.2009   24.2840 C   0  0  0  0  0  0  0  0  0  0  0  0
  -21.2346   -5.7728   23.6542 C   0  0  0  0  0  0  0  0  0  0  0  0
  -24.5537  -11.6651   20.8027 C   0  0  0  0  0  0  0  0  0  0  0  0
  -30.5129  -15.3301   24.8818 C   0  0  0  0  0  0  0  0  0  0  0  0
  -32.0881  -15.3344   23.2094 C   0  0  0  0  0  0  0  0  0  0  0  0
  -25.2335  -13.7391   20.5359 C   0  0  0  0  0  0  0  0  0  0  0  0
  -22.7759  -13.5189   20.9363 C   0  0  0  0  0  0  0  0  0  0  0  0
  -33.4519  -23.6518   23.3126 C   0  0  0  0  0  0  0  0  0  0  0  0
  -35.2413  -21.9002   25.3747 C   0  0  0  0  0  0  0  0  0  0  0  0
  -35.5322  -19.0959   27.2977 C   0  0  0  0  0  0  0  0  0  0  0  0
  -30.9276  -12.6959   21.6954 C   0  0  0  0  0  0  0  0  0  0  0  0
  -33.3700  -28.4530   21.5806 C   0  0  0  0  0  0  0  0  0  0  0  0
  -31.8160  -23.2590   25.1902 C   0  0  0  0  0  0  0  0  0  0  0  0
  -33.2049  -20.7690   24.4057 C   0  0  0  0  0  0  0  0  0  0  0  0
  -34.4311  -27.5169   22.1533 C   0  0  0  0  0  0  0  0  0  0  0  0
  -29.5294  -13.4557   18.4449 C   0  0  0  0  0  0  0  0  0  0  0  0
  -34.3767  -26.1599   21.4588 C   0  0  0  0  0  0  0  0  0  0  0  0
  -28.0401  -13.2052   18.6884 C   0  0  0  0  0  0  0  0  0  0  0  0
  -30.3902  -12.4451   19.1972 C   0  0  0  0  0  0  0  0  0  0  0  0
  -28.6446  -12.1367   20.9093 C   0  0  0  0  0  0  0  0  0  0  0  0
  -33.0202  -25.4803   21.6812 C   0  0  1  0  0  0  0  0  0  0  0  0
  -33.2773  -23.2584   24.7522 C   0  0  1  0  0  0  0  0  0  0  0  0
  -27.7216  -13.1398   20.1939 C   0  0  2  0  0  0  0  0  0  0  0  0
  -28.4543  -17.4026   21.4039 C   0  0  0  0  0  0  0  0  0  0  0  0
  -31.0275  -14.9840   27.3250 C   0  0  0  0  0  0  0  0  0  0  0  0
  -29.6940  -13.2580   26.0609 C   0  0  0  0  0  0  0  0  0  0  0  0
  -34.5555  -15.0217   23.5806 C   0  0  0  0  0  0  0  0  0  0  0  0
  -37.1257  -17.9216   28.8401 C   0  0  0  0  0  0  0  0  0  0  0  0
  -36.8891  -20.9882   22.9740 C   0  0  0  0  0  0  0  0  0  0  0  0
  -37.8089  -19.1432   24.3946 C   0  0  0  0  0  0  0  0  0  0  0  0
  -38.2292  -21.5220   25.0170 C   0  0  0  0  0  0  0  0  0  0  0  0
  -33.6400  -19.2622   29.5672 C   0  0  0  0  0  0  0  0  0  0  0  0
  -33.2594  -13.2571   22.3313 C   0  0  0  0  0  0  0  0  0  0  0  0
  -29.5050  -17.9507   22.3612 C   0  0  1  0  0  0  0  0  0  1  0  0
  -30.0314  -14.7566   26.1725 C   0  0  0  0  0  0  0  0  0  0  0  0
  -33.3509  -14.7687   22.6507 C   0  0  1  0  0  0  0  0  0  0  0  0
  -35.9154  -20.5504   25.3248 C   0  0  1  0  0  0  0  0  0  0  0  0
  -35.9689  -18.9036   28.7388 C   0  0  2  0  0  0  0  0  0  0  0  0
  -37.1826  -20.5537   24.4239 C   0  0  0  0  0  0  0  0  0  0  0  0
  -25.8707  -11.5627   20.6051 N   0  0  0  0  0  0  0  0  0  0  0  0
  -31.6565  -14.8128   24.3795 N   0  0  0  0  0  0  0  0  0  0  0  0
  -26.2554  -12.8404   20.4458 N   0  0  0  0  0  0  0  0  0  0  0  0
  -33.9166  -21.9515   24.9182 N   0  0  0  0  0  0  0  0  0  0  0  0
  -30.0503  -12.4458   20.6271 N   0  0  0  0  0  0  0  0  0  0  0  0
  -25.4446  -15.0656   20.4003 N   0  0  0  0  0  0  0  0  0  0  0  0
  -21.7281  -12.6178   21.1697 N   0  0  0  0  0  0  0  0  0  0  0  0
  -32.9548  -24.9045   23.0074 N   0  0  0  0  0  0  0  0  0  0  0  0
  -36.1682  -20.1690   26.7101 N   0  0  0  0  0  0  0  0  0  0  0  0
  -32.2426  -12.9736   21.3430 N   0  0  0  0  0  0  0  0  0  0  0  0
  -34.8377  -18.3833   29.5578 N   0  3  0  0  0  0  0  0  0  0  0  0
  -22.5257  -14.7459   20.8634 O   0  0  0  0  0  0  0  0  0  0  0  0
  -33.9985  -22.8769   22.5365 O   0  0  0  0  0  0  0  0  0  0  0  0
  -35.8647  -22.8718   25.8094 O   0  0  0  0  0  0  0  0  0  0  0  0
  -34.7119  -18.3649   26.7470 O   0  0  0  0  0  0  0  0  0  0  0  0
  -30.5645  -12.6783   22.8764 O   0  0  0  0  0  0  0  0  0  0  0  0
  -21.4758   -7.0727   21.6415 O   0  0  0  0  0  0  0  0  0  0  0  0
  -28.8595  -18.8128   23.2974 O   0  0  0  0  0  0  0  0  0  1  0  0
  -23.4331   -3.2781   25.1306 F   0  0  0  0  0  0  0  0  0  0  0  0
  -20.0540   -6.3565   23.9016 F   0  0  0  0  0  0  0  0  0  0  0  0
  1  2  1  0  0  0  0
  1  5  2  0  0  0  0
  2  6  2  0  0  0  0
  3  8  2  0  0  0  0
  3 17  1  0  0  0  0
  4  9  1  0  0  0  0
  4 17  2  0  0  0  0
  5 19  1  0  0  0  0
  6 21  1  0  0  0  0
  7 10  2  0  0  0  0
  7 20  1  0  0  0  0
  8 24  1  0  0  0  0
  9 24  2  0  0  0  0
 10 25  1  0  0  0  0
 11 12  2  0  0  0  0
 11 26  1  0  0  0  0
 12 27  1  0  0  0  0
 13 22  1  0  0  0  0
 13 25  2  0  0  0  0
 14 23  1  0  0  0  0
 14 30  2  0  0  0  0
 15 23  2  0  0  0  0
 15 31  1  0  0  0  0
 16 27  2  0  0  0  0
 16 28  1  0  0  0  0
 17 29  1  0  0  0  0
 18 29  1  0  0  0  0
 18 32  2  0  0  0  0
 18 33  1  0  0  0  0
 19 21  2  0  0  0  0
 19 38  1  0  0  0  0
 20 22  2  0  0  0  0
 20 39  1  0  0  0  0
 21 47  1  0  0  0  0
 22 40  1  0  0  0  0
 23 60  1  0  0  0  0
 24 82  1  0  0  0  0
 25 83  1  0  0  0  0
 26 28  2  0  0  0  0
 26 82  1  0  0  0  0
 27 84  1  0  0  0  0
 28 85  1  0  0  0  0
 29 66  2  0  0  0  0
 30 61  1  0  0  0  0
 30 67  1  0  0  0  0
 31 62  1  0  0  0  0
 31 67  2  0  0  0  0
 32 68  1  0  0  0  0
 32 71  1  0  0  0  0
 33 72  1  0  0  0  0
 33 77  2  0  0  0  0
 34 48  1  0  0  0  0
 34 73  1  0  0  0  0
 34 78  2  0  0  0  0
 35 63  1  0  0  0  0
 35 69  1  0  0  0  0
 35 79  2  0  0  0  0
 36 64  1  0  0  0  0
 36 74  1  0  0  0  0
 36 80  2  0  0  0  0
 37 70  1  0  0  0  0
 37 75  1  0  0  0  0
 37 81  2  0  0  0  0
 38 41  1  0  0  0  0
 39 48  1  0  0  0  0
 40 69  1  0  0  0  0
 41 43  1  0  0  0  0
 42 44  1  0  0  0  0
 42 45  1  0  0  0  0
 43 47  1  0  0  0  0
 44 49  1  0  0  0  0
 45 70  1  0  0  0  0
 46 49  1  0  0  0  0
 46 70  1  0  0  0  0
 47 73  1  0  0  0  0
 48 69  1  0  0  0  0
 49 68  1  0  0  0  0
 50 60  1  0  0  0  0
 51 61  1  0  0  0  0
 52 61  1  0  0  0  0
 53 62  1  0  0  0  0
 54 64  1  0  0  0  0
 55 65  1  0  0  0  0
 56 65  1  0  0  0  0
 57 65  1  0  0  0  0
 58 76  1  0  0  0  0
 59 62  1  0  0  0  0
 59 75  1  0  0  0  0
 60 83  1  0  0  0  0
 63 65  1  0  0  0  0
 63 74  1  0  0  0  0
 64 76  1  0  0  0  0
 66 68  1  0  0  0  0
M  CHG  1  76   1
M  ISO  4  37 100  60 101  75 100  83 101
M  END
> <Batch ID>
0084

> <Smiles>
CNC(C)C(=O)NC(C(=O)N1Cc2cc([101O:1][101CH:1](C)c3cc(C(C)C)nc(C(C)C[100NH:0][100C:0](=O)N4CCCC(n5nc(-c6ccc(Oc7ccc(F)cc7F)cc6)c(C(N)=O)c5N)C4)c3)ccc2CC1C(=O)NC1CCCc2ccccc21)C(C)(C)C

> <Shape>
0.186

> <Color>
0.178

> <Negative vol penalty>
0.000

$$$$

  -OEChem-04052318543D

 83 91  0     1  0  0  0  0  0999 V2000
  -18.4912  -25.0584   13.6899 C   0  0  0  0  0  0  0  0  0  0  0  0
  -19.3865  -24.8541   14.7349 C   0  0  0  0  0  0  0  0  0  0  0  0
  -23.1909   -9.8570   19.8953 C   0  0  0  0  0  0  0  0  0  0  0  0
  -23.5479   -9.9802   22.2816 C   0  0  0  0  0  0  0  0  0  0  0  0
  -17.6552  -24.0218   13.2771 C   0  0  0  0  0  0  0  0  0  0  0  0
  -19.4455  -23.6134   15.3685 C   0  0  0  0  0  0  0  0  0  0  0  0
  -24.4236  -20.8878   17.6698 C   0  0  0  0  0  0  0  0  0  0  0  0
  -22.4089   -8.7154   20.0712 C   0  0  0  0  0  0  0  0  0  0  0  0
  -22.7658   -8.8387   22.4576 C   0  0  0  0  0  0  0  0  0  0  0  0
  -24.9313  -20.8014   18.9653 C   0  0  0  0  0  0  0  0  0  0  0  0
  -23.1293   -5.4940   22.1232 C   0  0  0  0  0  0  0  0  0  0  0  0
  -23.6074   -4.5075   22.9857 C   0  0  0  0  0  0  0  0  0  0  0  0
  -27.8196  -17.7730   19.3914 C   0  0  0  0  0  0  0  0  0  0  0  0
  -23.8556  -18.6595   19.2377 C   0  0  0  0  0  0  0  0  0  0  0  0
  -21.6405   -4.7606   24.3656 C   0  0  0  0  0  0  0  0  0  0  0  0
  -29.0186  -17.6877   18.6586 C   0  0  0  0  0  0  0  0  0  0  0  0
  -23.7604  -10.4894   21.0005 C   0  0  0  0  0  0  0  0  0  0  0  0
  -24.1317  -13.0064   20.8159 C   0  0  0  0  0  0  0  0  0  0  0  0
  -17.7107  -22.7648   13.8995 C   0  0  0  0  0  0  0  0  0  0  0  0
  -23.6177  -19.8640   17.1514 C   0  0  0  0  0  0  0  0  0  0  0  0
  -18.6085  -22.5594   14.9645 C   0  0  0  0  0  0  0  0  0  0  0  0
  -23.3409  -18.7341   17.9343 C   0  0  0  0  0  0  0  0  0  0  0  0
  -22.1963   -8.2063   21.3523 C   0  0  0  0  0  0  0  0  0  0  0  0
  -24.6450  -19.6885   19.7505 C   0  0  0  0  0  0  0  0  0  0  0  0
  -21.9068   -6.1139   22.3820 C   0  0  0  0  0  0  0  0  0  0  0  0
  -22.8630   -4.1408   24.1068 C   0  0  0  0  0  0  0  0  0  0  0  0
  -21.1624   -5.7471   23.5032 C   0  0  0  0  0  0  0  0  0  0  0  0
  -24.5688  -11.6683   20.8194 C   0  0  0  0  0  0  0  0  0  0  0  0
  -28.2239  -17.8931   20.6985 C   0  0  0  0  0  0  0  0  0  0  0  0
  -25.2740  -13.7402   20.6080 C   0  0  0  0  0  0  0  0  0  0  0  0
  -22.8112  -13.5386   20.9855 C   0  0  0  0  0  0  0  0  0  0  0  0
  -20.6210  -19.6791   16.1075 C   0  0  0  0  0  0  0  0  0  0  0  0
  -21.5017  -16.6644   15.2958 C   0  0  0  0  0  0  0  0  0  0  0  0
  -23.5881  -14.0152   15.8204 C   0  0  0  0  0  0  0  0  0  0  0  0
  -30.9529  -13.2537   22.2192 C   0  0  0  0  0  0  0  0  0  0  0  0
  -16.7540  -21.6891   13.4497 C   0  0  0  0  0  0  0  0  0  0  0  0
  -23.0997  -19.9599   15.7425 C   0  0  0  0  0  0  0  0  0  0  0  0
  -22.4975  -17.5984   17.4175 C   0  0  0  0  0  0  0  0  0  0  0  0
  -17.1417  -20.2914   13.9255 C   0  0  0  0  0  0  0  0  0  0  0  0
  -29.7483  -12.8002   18.7486 C   0  0  0  0  0  0  0  0  0  0  0  0
  -17.5087  -20.3141   15.4059 C   0  0  0  0  0  0  0  0  0  0  0  0
  -28.2605  -12.5154   18.9470 C   0  0  0  0  0  0  0  0  0  0  0  0
  -30.5760  -12.3565   19.9511 C   0  0  0  0  0  0  0  0  0  0  0  0
  -28.6252  -12.6432   21.4432 C   0  0  0  0  0  0  0  0  0  0  0  0
  -18.7194  -21.2201   15.6603 C   0  0  1  0  0  0  0  0  0  0  0  0
  -21.8656  -19.0966   15.4995 C   0  0  1  0  0  0  0  0  0  0  0  0
  -27.7576  -13.1208   20.2691 C   0  0  2  0  0  0  0  0  0  0  0  0
  -24.0394  -11.6766   15.0302 C   0  0  0  0  0  0  0  0  0  0  0  0
  -19.0847  -15.6688   16.8696 C   0  0  0  0  0  0  0  0  0  0  0  0
  -20.1024  -13.3814   16.8510 C   0  0  0  0  0  0  0  0  0  0  0  0
  -19.4783  -14.4845   14.7024 C   0  0  0  0  0  0  0  0  0  0  0  0
  -31.0714  -14.3250   24.4368 C   0  0  0  0  0  0  0  0  0  0  0  0
  -26.3170  -14.7223   14.9193 C   0  0  0  0  0  0  0  0  0  0  0  0
  -27.4291  -18.0251   21.9731 C   0  0  0  0  0  0  0  0  0  0  0  0
  -27.1217  -19.4733   22.3601 C   0  0  0  0  0  0  0  0  0  0  0  0
  -31.0527  -16.6225   22.2593 C   0  0  0  0  0  0  0  0  0  0  0  0
  -30.4805  -17.9709   21.8014 C   0  0  0  0  0  0  0  0  0  0  0  0
  -30.0004  -15.5677   22.5944 C   0  0  0  0  0  0  0  0  0  0  0  0
  -26.3862  -20.2461   21.2715 C   0  0  0  0  0  0  0  0  0  1  0  0
  -21.4868  -15.3232   15.9886 C   0  0  1  0  0  0  0  0  0  0  0  0
  -24.3781  -13.1489   14.8562 C   0  0  2  0  0  0  0  0  0  0  0  0
  -20.0524  -14.7366   16.1136 C   0  0  0  0  0  0  0  0  0  0  0  0
  -30.1033  -17.7486   19.4356 N   0  0  0  0  0  0  0  0  0  0  0  0
  -25.8860  -11.5556   20.6287 N   0  0  0  0  0  0  0  0  0  0  0  0
  -29.5873  -17.8736   20.6703 N   0  0  0  0  0  0  0  0  0  0  0  0
  -26.2864  -12.8323   20.5033 N   0  0  0  0  0  0  0  0  0  0  0  0
  -22.0090  -17.7417   16.0360 N   0  0  0  0  0  0  0  0  0  0  0  0
  -30.0504  -12.9114   21.1989 N   0  0  0  0  0  0  0  0  0  0  0  0
  -25.5011  -15.0670   20.5062 N   0  0  0  0  0  0  0  0  0  0  0  0
  -21.7515  -12.6443   21.1894 N   0  0  0  0  0  0  0  0  0  0  0  0
  -19.9426  -20.5491   15.2755 N   0  0  0  0  0  0  0  0  0  0  0  0
  -22.4178  -14.4738   15.2535 N   0  0  0  0  0  0  0  0  0  0  0  0
  -30.5927  -14.3162   23.0618 N   0  0  0  0  0  0  0  0  0  0  0  0
  -25.8408  -13.3245   15.0814 N   0  3  0  0  0  0  0  0  0  0  0  0
  -22.5754  -14.7698   20.9406 O   0  0  0  0  0  0  0  0  0  0  0  0
  -20.2993  -19.3615   17.2465 O   0  0  0  0  0  0  0  0  0  0  0  0
  -21.0853  -16.7516   14.1379 O   0  0  0  0  0  0  0  0  0  0  0  0
  -23.9691  -14.2576   16.9635 O   0  0  0  0  0  0  0  0  0  0  0  0
  -32.0242  -12.6506   22.3625 O   0  0  0  0  0  0  0  0  0  0  0  0
  -21.4331   -7.0925   21.5244 O   0  0  0  0  0  0  0  0  0  0  0  0
  -25.1388  -19.6020   21.0157 O   0  0  0  0  0  0  0  0  0  1  0  0
  -23.3216   -3.1923   24.9341 F   0  0  0  0  0  0  0  0  0  0  0  0
  -19.9867   -6.3382   23.7563 F   0  0  0  0  0  0  0  0  0  0  0  0
  1  2  1  0  0  0  0
  1  5  2  0  0  0  0
  2  6  2  0  0  0  0
  3  8  2  0  0  0  0
  3 17  1  0  0  0  0
  4  9  1  0  0  0  0
  4 17  2  0  0  0  0
  5 19  1  0  0  0  0
  6 21  1  0  0  0  0
  7 10  2  0  0  0  0
  7 20  1  0  0  0  0
  8 23  1  0  0  0  0
  9 23  2  0  0  0  0
 10 24  1  0  0  0  0
 11 12  2  0  0  0  0
 11 25  1  0  0  0  0
 12 26  1  0  0  0  0
 13 16  1  0  0  0  0
 13 29  2  0  0  0  0
 14 22  1  0  0  0  0
 14 24  2  0  0  0  0
 15 26  2  0  0  0  0
 15 27  1  0  0  0  0
 16 63  2  0  0  0  0
 17 28  1  0  0  0  0
 18 28  1  0  0  0  0
 18 30  2  0  0  0  0
 18 31  1  0  0  0  0
 19 21  2  0  0  0  0
 19 36  1  0  0  0  0
 20 22  2  0  0  0  0
 20 37  1  0  0  0  0
 21 45  1  0  0  0  0
 22 38  1  0  0  0  0
 23 80  1  0  0  0  0
 24 81  1  0  0  0  0
 25 27  2  0  0  0  0
 25 80  1  0  0  0  0
 26 82  1  0  0  0  0
 27 83  1  0  0  0  0
 28 64  2  0  0  0  0
 29 54  1  0  0  0  0
 29 65  1  0  0  0  0
 30 66  1  0  0  0  0
 30 69  1  0  0  0  0
 31 70  1  0  0  0  0
 31 75  2  0  0  0  0
 32 46  1  0  0  0  0
 32 71  1  0  0  0  0
 32 76  2  0  0  0  0
 33 60  1  0  0  0  0
 33 67  1  0  0  0  0
 33 77  2  0  0  0  0
 34 61  1  0  0  0  0
 34 72  1  0  0  0  0
 34 78  2  0  0  0  0
 35 68  1  0  0  0  0
 35 73  1  0  0  0  0
 35 79  2  0  0  0  0
 36 39  1  0  0  0  0
 37 46  1  0  0  0  0
 38 67  1  0  0  0  0
 39 41  1  0  0  0  0
 40 42  1  0  0  0  0
 40 43  1  0  0  0  0
 41 45  1  0  0  0  0
 42 47  1  0  0  0  0
 43 68  1  0  0  0  0
 44 47  1  0  0  0  0
 44 68  1  0  0  0  0
 45 71  1  0  0  0  0
 46 67  1  0  0  0  0
 47 66  1  0  0  0  0
 48 61  1  0  0  0  0
 49 62  1  0  0  0  0
 50 62  1  0  0  0  0
 51 62  1  0  0  0  0
 52 73  1  0  0  0  0
 53 74  1  0  0  0  0
 54 55  1  0  0  0  0
 55 59  1  0  0  0  0
 56 57  1  0  0  0  0
 56 58  1  0  0  0  0
 57 65  1  0  0  0  0
 58 73  1  0  0  0  0
 59 81  1  0  0  0  0
 60 62  1  0  0  0  0
 60 72  1  0  0  0  0
 61 74  1  0  0  0  0
 63 65  1  0  0  0  0
 64 66  1  0  0  0  0
M  CHG  1  74   1
M  ISO  4  35 100  59 101  73 100  81 101
M  END
> <Batch ID>
0084

> <Smiles>
CNC(C)C(=O)NC(C(=O)N1Cc2cc([101O:1][101CH2:1]CCc3ccnn3CCC[100N:0](C)[100C:0](=O)N3CCCC(n4nc(-c5ccc(Oc6ccc(F)cc6F)cc5)c(C(N)=O)c4N)C3)ccc2CC1C(=O)NC1CCCc2ccccc21)C(C)(C)C

> <Shape>
0.192

> <Color>
0.201

> <Negative vol penalty>
0.000

$$$$

  -OEChem-04052318543D

 88 96  0     1  0  0  0  0  0999 V2000
  -19.1458  -30.8476   24.8708 C   0  0  0  0  0  0  0  0  0  0  0  0
  -20.5032  -30.6037   24.6881 C   0  0  0  0  0  0  0  0  0  0  0  0
  -24.9005  -13.6016   21.5837 C   0  0  0  0  0  0  0  0  0  0  0  0
  -25.9823  -13.5811   19.4235 C   0  0  0  0  0  0  0  0  0  0  0  0
  -18.2022  -30.0026   24.2882 C   0  0  0  0  0  0  0  0  0  0  0  0
  -20.9178  -29.5137   23.9235 C   0  0  0  0  0  0  0  0  0  0  0  0
  -25.8422  -29.2229   20.2943 C   0  0  0  0  0  0  0  0  0  0  0  0
  -24.1255  -12.5051   21.2060 C   0  0  0  0  0  0  0  0  0  0  0  0
  -25.2073  -12.4846   19.0458 C   0  0  0  0  0  0  0  0  0  0  0  0
  -27.1185  -28.6953   20.4855 C   0  0  0  0  0  0  0  0  0  0  0  0
  -24.5128   -9.1574   20.9306 C   0  0  0  0  0  0  0  0  0  0  0  0
  -24.3751   -8.1146   21.8466 C   0  0  0  0  0  0  0  0  0  0  0  0
  -26.4283  -26.6507   19.4072 C   0  0  0  0  0  0  0  0  0  0  0  0
  -29.6828  -24.1272   18.0406 C   0  0  0  0  0  0  0  0  0  0  0  0
  -21.9812   -8.4405   21.8579 C   0  0  0  0  0  0  0  0  0  0  0  0
  -25.8289  -14.1396   20.6924 C   0  0  0  0  0  0  0  0  0  0  0  0
  -27.8879  -15.2479   21.7121 C   0  0  0  0  0  0  0  0  0  0  0  0
  -18.6053  -28.9073   23.5081 C   0  0  0  0  0  0  0  0  0  0  0  0
  -24.8446  -28.4630   19.6668 C   0  0  0  0  0  0  0  0  0  0  0  0
  -19.9787  -28.6524   23.3310 C   0  0  0  0  0  0  0  0  0  0  0  0
  -25.1409  -27.1719   19.2069 C   0  0  0  0  0  0  0  0  0  0  0  0
  -29.6404  -25.0224   19.1379 C   0  0  0  0  0  0  0  0  0  0  0  0
  -24.2789  -11.9466   19.9371 C   0  0  0  0  0  0  0  0  0  0  0  0
  -27.4109  -27.4080   20.0445 C   0  0  0  0  0  0  0  0  0  0  0  0
  -23.3847   -9.8419   20.4783 C   0  0  0  0  0  0  0  0  0  0  0  0
  -23.1094   -7.7561   22.3102 C   0  0  0  0  0  0  0  0  0  0  0  0
  -22.1189   -9.4834   20.9419 C   0  0  0  0  0  0  0  0  0  0  0  0
  -26.6294  -15.2726   21.0818 C   0  0  0  0  0  0  0  0  0  0  0  0
  -29.9441  -22.8719   18.5437 C   0  0  0  0  0  0  0  0  0  0  0  0
  -29.8772  -24.2867   20.2782 C   0  0  0  0  0  0  0  0  0  0  0  0
  -28.2212  -16.5715   21.8655 C   0  0  0  0  0  0  0  0  0  0  0  0
  -28.6846  -14.1286   22.1222 C   0  0  0  0  0  0  0  0  0  0  0  0
  -22.0059  -27.3297   20.5394 C   0  0  0  0  0  0  0  0  0  0  0  0
  -21.8368  -26.4433   17.4236 C   0  0  0  0  0  0  0  0  0  0  0  0
  -23.4865  -25.6594   14.5408 C   0  0  0  0  0  0  0  0  0  0  0  0
  -26.6150  -21.5455   18.9447 C   0  0  0  0  0  0  0  0  0  0  0  0
  -17.5490  -27.9944   22.9376 C   0  0  0  0  0  0  0  0  0  0  0  0
  -23.4805  -29.0565   19.4441 C   0  0  0  0  0  0  0  0  0  0  0  0
  -24.1110  -26.3228   18.5093 C   0  0  0  0  0  0  0  0  0  0  0  0
  -18.0679  -27.0787   21.8320 C   0  0  0  0  0  0  0  0  0  0  0  0
  -26.2409  -20.8909   22.4244 C   0  0  0  0  0  0  0  0  0  0  0  0
  -19.3865  -26.4340   22.2477 C   0  0  0  0  0  0  0  0  0  0  0  0
  -26.4116  -19.3745   22.5318 C   0  0  0  0  0  0  0  0  0  0  0  0
  -25.5070  -21.2870   21.1451 C   0  0  0  0  0  0  0  0  0  0  0  0
  -26.2652  -19.2349   20.0103 C   0  0  0  0  0  0  0  0  0  0  0  0
  -20.4675  -27.4947   22.4879 C   0  0  1  0  0  0  0  0  0  0  0  0
  -22.3942  -28.0025   19.2532 C   0  0  1  0  0  0  0  0  0  0  0  0
  -27.0493  -18.7904   21.2568 C   0  0  2  0  0  0  0  0  0  0  0  0
  -29.9447  -24.7155   21.6916 C   0  0  0  0  0  0  0  0  0  0  0  0
  -31.4615  -27.0947   17.7022 C   0  0  0  0  0  0  0  0  0  0  0  0
  -23.0794  -24.9391   12.1717 C   0  0  0  0  0  0  0  0  0  0  0  0
  -32.0605  -20.3080   21.8194 C   0  0  0  0  0  0  0  0  0  0  0  0
  -32.6775  -22.6675   21.2554 C   0  0  0  0  0  0  0  0  0  0  0  0
  -29.5511  -20.1120   15.8347 C   0  0  0  0  0  0  0  0  0  0  0  0
  -21.2260  -23.6148   18.3911 C   0  0  0  0  0  0  0  0  0  0  0  0
  -21.7686  -22.7860   16.0918 C   0  0  0  0  0  0  0  0  0  0  0  0
  -19.8658  -24.3631   16.4305 C   0  0  0  0  0  0  0  0  0  0  0  0
  -24.7775  -28.0919   13.4568 C   0  0  0  0  0  0  0  0  0  0  0  0
  -30.0912  -21.5817   17.8392 C   0  0  0  0  0  0  0  0  0  0  0  0
  -30.6582  -27.3567   18.9675 C   0  0  0  0  0  0  0  0  0  0  0  0
  -30.3354  -21.8841   20.8092 C   0  0  0  0  0  0  0  0  0  0  0  0
  -27.7541  -21.6436   16.7420 C   0  0  0  0  0  0  0  0  0  0  0  0
  -29.3816  -26.5091   19.0626 C   0  0  2  0  0  0  0  0  0  1  0  0
  -22.2361  -25.2180   16.6375 C   0  0  1  0  0  0  0  0  0  0  0  0
  -23.2854  -26.1194   13.1082 C   0  0  2  0  0  0  0  0  0  0  0  0
  -31.8166  -21.4686   20.8523 C   0  0  0  0  0  0  0  0  0  0  0  0
  -29.2645  -21.4499   16.5263 C   0  0  2  0  0  0  0  0  0  0  0  0
  -21.2932  -24.0105   16.9026 C   0  0  0  0  0  0  0  0  0  0  0  0
  -26.1927  -16.5136   20.8508 N   0  0  0  0  0  0  0  0  0  0  0  0
  -30.0607  -22.9809   19.9049 N   0  0  0  0  0  0  0  0  0  0  0  0
  -27.1823  -17.2809   21.3386 N   0  0  0  0  0  0  0  0  0  0  0  0
  -22.7902  -26.9452   18.3208 N   0  0  0  0  0  0  0  0  0  0  0  0
  -26.1630  -20.7022   19.9731 N   0  0  0  0  0  0  0  0  0  0  0  0
  -29.2985  -17.1861   22.3984 N   0  0  0  0  0  0  0  0  0  0  0  0
  -28.1926  -12.8371   21.8889 N   0  0  0  0  0  0  0  0  0  0  0  0
  -20.9953  -27.9729   21.2281 N   0  0  0  0  0  0  0  0  0  0  0  0
  -22.2984  -25.6320   15.2399 N   0  0  0  0  0  0  0  0  0  0  0  0
  -27.2312  -20.9105   17.8733 N   0  0  0  0  0  0  0  0  0  0  0  0
  -24.4725  -26.8892   12.6399 N   0  3  0  0  0  0  0  0  0  0  0  0
  -29.7922  -14.2696   22.6938 O   0  0  0  0  0  0  0  0  0  0  0  0
  -22.5797  -26.3021   20.8809 O   0  0  0  0  0  0  0  0  0  0  0  0
  -20.7227  -26.9412   17.2429 O   0  0  0  0  0  0  0  0  0  0  0  0
  -24.5869  -25.3514   14.9932 O   0  0  0  0  0  0  0  0  0  0  0  0
  -26.4842  -22.7737   18.9812 O   0  0  0  0  0  0  0  0  0  0  0  0
  -23.5229  -10.8765   19.5683 O   0  0  0  0  0  0  0  0  0  0  0  0
  -28.6556  -26.8904   20.2305 O   0  0  0  0  0  0  0  0  0  1  0  0
  -22.9772   -6.7536   23.1887 F   0  0  0  0  0  0  0  0  0  0  0  0
  -21.0313  -10.1364   20.5100 F   0  0  0  0  0  0  0  0  0  0  0  0
  1  2  1  0  0  0  0
  1  5  2  0  0  0  0
  2  6  2  0  0  0  0
  3  8  2  0  0  0  0
  3 16  1  0  0  0  0
  4  9  1  0  0  0  0
  4 16  2  0  0  0  0
  5 18  1  0  0  0  0
  6 20  1  0  0  0  0
  7 10  2  0  0  0  0
  7 19  1  0  0  0  0
  8 23  1  0  0  0  0
  9 23  2  0  0  0  0
 10 24  1  0  0  0  0
 11 12  2  0  0  0  0
 11 25  1  0  0  0  0
 12 26  1  0  0  0  0
 13 21  1  0  0  0  0
 13 24  2  0  0  0  0
 14 22  1  0  0  0  0
 14 29  2  0  0  0  0
 15 26  2  0  0  0  0
 15 27  1  0  0  0  0
 16 28  1  0  0  0  0
 17 28  1  0  0  0  0
 17 31  2  0  0  0  0
 17 32  1  0  0  0  0
 18 20  2  0  0  0  0
 18 37  1  0  0  0  0
 19 21  2  0  0  0  0
 19 38  1  0  0  0  0
 20 46  1  0  0  0  0
 21 39  1  0  0  0  0
 22 30  2  0  0  0  0
 22 63  1  0  0  0  0
 23 85  1  0  0  0  0
 24 86  1  0  0  0  0
 25 27  2  0  0  0  0
 25 85  1  0  0  0  0
 26 87  1  0  0  0  0
 27 88  1  0  0  0  0
 28 69  2  0  0  0  0
 29 59  1  0  0  0  0
 29 70  1  0  0  0  0
 30 49  1  0  0  0  0
 30 70  1  0  0  0  0
 31 71  1  0  0  0  0
 31 74  1  0  0  0  0
 32 75  1  0  0  0  0
 32 80  2  0  0  0  0
 33 47  1  0  0  0  0
 33 76  1  0  0  0  0
 33 81  2  0  0  0  0
 34 64  1  0  0  0  0
 34 72  1  0  0  0  0
 34 82  2  0  0  0  0
 35 65  1  0  0  0  0
 35 77  1  0  0  0  0
 35 83  2  0  0  0  0
 36 73  1  0  0  0  0
 36 78  1  0  0  0  0
 36 84  2  0  0  0  0
 37 40  1  0  0  0  0
 38 47  1  0  0  0  0
 39 72  1  0  0  0  0
 40 42  1  0  0  0  0
 41 43  1  0  0  0  0
 41 44  1  0  0  0  0
 42 46  1  0  0  0  0
 43 48  1  0  0  0  0
 44 73  1  0  0  0  0
 45 48  1  0  0  0  0
 45 73  1  0  0  0  0
 46 76  1  0  0  0  0
 47 72  1  0  0  0  0
 48 71  1  0  0  0  0
 50 60  1  0  0  0  0
 51 65  1  0  0  0  0
 52 66  1  0  0  0  0
 53 66  1  0  0  0  0
 54 67  1  0  0  0  0
 55 68  1  0  0  0  0
 56 68  1  0  0  0  0
 57 68  1  0  0  0  0
 58 79  1  0  0  0  0
 59 67  1  0  0  0  0
 60 63  1  0  0  0  0
 61 66  1  0  0  0  0
 61 70  1  0  0  0  0
 62 67  1  0  0  0  0
 62 78  1  0  0  0  0
 63 86  1  0  0  0  0
 64 68  1  0  0  0  0
 64 77  1  0  0  0  0
 65 79  1  0  0  0  0
 69 71  1  0  0  0  0
M  CHG  1  79   1
M  ISO  4  36 100  63 101  78 100  86 101
M  END
> <Batch ID>
0084

> <Smiles>
CC[101CH:1](c1cc(CC(C)C[100NH:0][100C:0](=O)N2CCCC(n3nc(-c4ccc(Oc5ccc(F)cc5F)cc4)c(C(N)=O)c3N)C2)n(CC(C)C)c1C)[101O:1]c1ccc2c(c1)CN(C(=O)C(NC(=O)C(C)NC)C(C)(C)C)C(C(=O)NC1CCCc3ccccc31)C2

> <Shape>
0.268

> <Color>
0.080

> <Negative vol penalty>
0.000

$$$$

  -OEChem-04052318543D

 84 92  0     1  0  0  0  0  0999 V2000
  -19.2324  -33.3398   20.1944 C   0  0  0  0  0  0  0  0  0  0  0  0
  -20.4855  -32.8607   19.8264 C   0  0  0  0  0  0  0  0  0  0  0  0
  -25.2922  -13.9618   20.9228 C   0  0  0  0  0  0  0  0  0  0  0  0
  -25.5653  -13.9719   18.5223 C   0  0  0  0  0  0  0  0  0  0  0  0
  -18.7000  -33.0111   21.4403 C   0  0  0  0  0  0  0  0  0  0  0  0
  -21.2075  -32.0534   20.7047 C   0  0  0  0  0  0  0  0  0  0  0  0
  -24.9194  -27.4107   19.2306 C   0  0  0  0  0  0  0  0  0  0  0  0
  -24.4399  -12.8623   20.8212 C   0  0  0  0  0  0  0  0  0  0  0  0
  -24.7130  -12.8724   18.4207 C   0  0  0  0  0  0  0  0  0  0  0  0
  -26.3048  -27.3221   19.1011 C   0  0  0  0  0  0  0  0  0  0  0  0
  -24.7252   -9.5210   20.3886 C   0  0  0  0  0  0  0  0  0  0  0  0
  -24.9160   -8.4680   21.2833 C   0  0  0  0  0  0  0  0  0  0  0  0
  -26.4565  -26.4875   21.3594 C   0  0  0  0  0  0  0  0  0  0  0  0
  -22.6704   -8.7728   22.1208 C   0  0  0  0  0  0  0  0  0  0  0  0
  -29.1739  -21.9326   15.2248 C   0  0  0  0  0  0  0  0  0  0  0  0
  -25.8549  -14.5166   19.7733 C   0  0  0  0  0  0  0  0  0  0  0  0
  -28.1336  -15.6329   20.0364 C   0  0  0  0  0  0  0  0  0  0  0  0
  -19.4116  -32.1914   22.3304 C   0  0  0  0  0  0  0  0  0  0  0  0
  -24.2922  -27.0480   20.4313 C   0  0  0  0  0  0  0  0  0  0  0  0
  -20.6847  -31.7145   21.9642 C   0  0  0  0  0  0  0  0  0  0  0  0
  -25.0628  -26.5700   21.5007 C   0  0  0  0  0  0  0  0  0  0  0  0
  -29.7739  -21.9456   16.4982 C   0  0  0  0  0  0  0  0  0  0  0  0
  -24.1503  -12.3176   19.5702 C   0  0  0  0  0  0  0  0  0  0  0  0
  -27.0738  -26.8632   20.1665 C   0  0  0  0  0  0  0  0  0  0  0  0
  -23.5070  -10.1999   20.3601 C   0  0  0  0  0  0  0  0  0  0  0  0
  -23.8886   -8.0939   22.1494 C   0  0  0  0  0  0  0  0  0  0  0  0
  -22.4796   -9.8258   21.2262 C   0  0  0  0  0  0  0  0  0  0  0  0
  -26.7349  -15.6527   19.8776 C   0  0  0  0  0  0  0  0  0  0  0  0
  -29.1257  -22.9510   17.1730 C   0  0  0  0  0  0  0  0  0  0  0  0
  -28.4928  -16.9578   20.0820 C   0  0  0  0  0  0  0  0  0  0  0  0
  -29.0281  -14.5166   20.1339 C   0  0  0  0  0  0  0  0  0  0  0  0
  -22.5286  -28.5744   22.5908 C   0  0  0  0  0  0  0  0  0  0  0  0
  -22.2087  -25.6050   23.8568 C   0  0  0  0  0  0  0  0  0  0  0  0
  -23.4582  -22.4465   24.1876 C   0  0  0  0  0  0  0  0  0  0  0  0
  -25.9504  -21.8012   17.8608 C   0  0  0  0  0  0  0  0  0  0  0  0
  -18.8156  -31.9020   23.6853 C   0  0  0  0  0  0  0  0  0  0  0  0
  -22.7943  -27.1241   20.5459 C   0  0  0  0  0  0  0  0  0  0  0  0
  -24.4360  -26.1489   22.8039 C   0  0  0  0  0  0  0  0  0  0  0  0
  -19.4826  -30.7340   24.4073 C   0  0  0  0  0  0  0  0  0  0  0  0
  -26.8004  -21.2556   21.3361 C   0  0  0  0  0  0  0  0  0  0  0  0
  -21.0011  -30.8577   24.3331 C   0  0  0  0  0  0  0  0  0  0  0  0
  -27.0133  -19.7409   21.3629 C   0  0  0  0  0  0  0  0  0  0  0  0
  -25.6524  -21.6360   20.4058 C   0  0  0  0  0  0  0  0  0  0  0  0
  -26.0102  -19.6194   19.0351 C   0  0  0  0  0  0  0  0  0  0  0  0
  -21.4877  -30.8158   22.8795 C   0  0  1  0  0  0  0  0  0  0  0  0
  -22.3094  -27.2150   21.9894 C   0  0  1  0  0  0  0  0  0  0  0  0
  -27.1722  -19.1721   19.9405 C   0  0  2  0  0  0  0  0  0  0  0  0
  -30.8537  -21.0741   16.9906 C   0  0  0  0  0  0  0  0  0  0  0  0
  -23.5377  -20.0339   24.8736 C   0  0  0  0  0  0  0  0  0  0  0  0
  -31.0576  -24.2059   20.9217 C   0  0  0  0  0  0  0  0  0  0  0  0
  -23.1788  -26.7663   26.5064 C   0  0  0  0  0  0  0  0  0  0  0  0
  -23.6013  -24.4285   27.2965 C   0  0  0  0  0  0  0  0  0  0  0  0
  -21.2853  -25.1451   26.7089 C   0  0  0  0  0  0  0  0  0  0  0  0
  -22.0755  -21.5788   21.7190 C   0  0  0  0  0  0  0  0  0  0  0  0
  -29.2932  -23.4769   18.5766 C   0  0  0  0  0  0  0  0  0  0  0  0
  -30.1200  -24.7672   18.6649 C   0  0  0  0  0  0  0  0  0  0  0  0
  -27.2843  -24.5395   16.5394 C   0  0  0  0  0  0  0  0  0  0  0  0
  -25.8654  -24.0544   16.8251 C   0  0  0  0  0  0  0  0  0  0  0  0
  -29.0838  -25.7612   20.8003 C   0  0  0  0  0  0  0  0  0  1  0  0
  -22.9765  -24.7840   24.8646 C   0  0  1  0  0  0  0  0  0  0  0  0
  -22.8007  -21.0844   24.0574 C   0  0  2  0  0  0  0  0  0  0  0  0
  -30.3653  -25.2971   20.0951 C   0  0  1  0  0  0  0  0  0  0  0  0
  -22.7728  -25.2907   26.3203 C   0  0  0  0  0  0  0  0  0  0  0  0
  -28.2178  -22.8564   15.0958 N   0  0  0  0  0  0  0  0  0  0  0  0
  -26.2394  -16.8920   19.8259 N   0  0  0  0  0  0  0  0  0  0  0  0
  -28.2121  -23.4592   16.2970 N   0  0  0  0  0  0  0  0  0  0  0  0
  -27.3326  -17.6632   19.9531 N   0  0  0  0  0  0  0  0  0  0  0  0
  -22.9685  -26.2476   22.8691 N   0  0  0  0  0  0  0  0  0  0  0  0
  -25.8741  -21.0795   19.0637 N   0  0  0  0  0  0  0  0  0  0  0  0
  -29.6847  -17.5766   20.2195 N   0  0  0  0  0  0  0  0  0  0  0  0
  -28.4922  -13.2233   20.0682 N   0  0  0  0  0  0  0  0  0  0  0  0
  -21.4847  -29.4559   22.3845 N   0  0  0  0  0  0  0  0  0  0  0  0
  -22.5748  -23.3976   24.6527 N   0  0  0  0  0  0  0  0  0  0  0  0
  -25.8045  -23.1783   17.9739 N   0  0  0  0  0  0  0  0  0  0  0  0
  -22.7888  -20.6491   22.6322 N   0  3  0  0  0  0  0  0  0  0  0  0
  -30.2640  -14.6618   20.2915 O   0  0  0  0  0  0  0  0  0  0  0  0
  -23.5673  -28.8058   23.1985 O   0  0  0  0  0  0  0  0  0  0  0  0
  -20.9795  -25.6678   23.9387 O   0  0  0  0  0  0  0  0  0  0  0  0
  -24.6384  -22.6458   23.9086 O   0  0  0  0  0  0  0  0  0  0  0  0
  -26.1400  -21.2586   16.7668 O   0  0  0  0  0  0  0  0  0  0  0  0
  -23.3189  -11.2445   19.4707 O   0  0  0  0  0  0  0  0  0  0  0  0
  -28.4262  -26.7764   20.0430 O   0  0  0  0  0  0  0  0  0  1  0  0
  -24.0715   -7.0817   23.0075 F   0  0  0  0  0  0  0  0  0  0  0  0
  -21.3067  -10.4735   21.2025 F   0  0  0  0  0  0  0  0  0  0  0  0
  1  2  1  0  0  0  0
  1  5  2  0  0  0  0
  2  6  2  0  0  0  0
  3  8  2  0  0  0  0
  3 16  1  0  0  0  0
  4  9  1  0  0  0  0
  4 16  2  0  0  0  0
  5 18  1  0  0  0  0
  6 20  1  0  0  0  0
  7 10  2  0  0  0  0
  7 19  1  0  0  0  0
  8 23  1  0  0  0  0
  9 23  2  0  0  0  0
 10 24  1  0  0  0  0
 11 12  2  0  0  0  0
 11 25  1  0  0  0  0
 12 26  1  0  0  0  0
 13 21  1  0  0  0  0
 13 24  2  0  0  0  0
 14 26  2  0  0  0  0
 14 27  1  0  0  0  0
 15 22  1  0  0  0  0
 15 64  2  0  0  0  0
 16 28  1  0  0  0  0
 17 28  1  0  0  0  0
 17 30  2  0  0  0  0
 17 31  1  0  0  0  0
 18 20  2  0  0  0  0
 18 36  1  0  0  0  0
 19 21  2  0  0  0  0
 19 37  1  0  0  0  0
 20 45  1  0  0  0  0
 21 38  1  0  0  0  0
 22 29  2  0  0  0  0
 22 48  1  0  0  0  0
 23 81  1  0  0  0  0
 24 82  1  0  0  0  0
 25 27  2  0  0  0  0
 25 81  1  0  0  0  0
 26 83  1  0  0  0  0
 27 84  1  0  0  0  0
 28 65  2  0  0  0  0
 29 55  1  0  0  0  0
 29 66  1  0  0  0  0
 30 67  1  0  0  0  0
 30 70  1  0  0  0  0
 31 71  1  0  0  0  0
 31 76  2  0  0  0  0
 32 46  1  0  0  0  0
 32 72  1  0  0  0  0
 32 77  2  0  0  0  0
 33 60  1  0  0  0  0
 33 68  1  0  0  0  0
 33 78  2  0  0  0  0
 34 61  1  0  0  0  0
 34 73  1  0  0  0  0
 34 79  2  0  0  0  0
 35 69  1  0  0  0  0
 35 74  1  0  0  0  0
 35 80  2  0  0  0  0
 36 39  1  0  0  0  0
 37 46  1  0  0  0  0
 38 68  1  0  0  0  0
 39 41  1  0  0  0  0
 40 42  1  0  0  0  0
 40 43  1  0  0  0  0
 41 45  1  0  0  0  0
 42 47  1  0  0  0  0
 43 69  1  0  0  0  0
 44 47  1  0  0  0  0
 44 69  1  0  0  0  0
 45 72  1  0  0  0  0
 46 68  1  0  0  0  0
 47 67  1  0  0  0  0
 49 61  1  0  0  0  0
 50 62  1  0  0  0  0
 51 63  1  0  0  0  0
 52 63  1  0  0  0  0
 53 63  1  0  0  0  0
 54 75  1  0  0  0  0
 55 56  1  0  0  0  0
 56 62  1  0  0  0  0
 57 58  1  0  0  0  0
 57 66  1  0  0  0  0
 58 74  1  0  0  0  0
 59 62  1  0  0  0  0
 59 82  1  0  0  0  0
 60 63  1  0  0  0  0
 60 73  1  0  0  0  0
 61 75  1  0  0  0  0
 64 66  1  0  0  0  0
 65 67  1  0  0  0  0
M  CHG  1  75   1
M  ISO  4  35 100  59 101  74 100  82 101
M  END
> <Batch ID>
0084

> <Smiles>
CNC(C)C(=O)NC(C(=O)N1Cc2cc([101O:1][101CH2:1]C(C)CCc3c(C)cnn3CC[100NH:0][100C:0](=O)N3CCCC(n4nc(-c5ccc(Oc6ccc(F)cc6F)cc5)c(C(N)=O)c4N)C3)ccc2CC1C(=O)NC1CCCc2ccccc21)C(C)(C)C

> <Shape>
0.194

> <Color>
0.093

> <Negative vol penalty>
0.000

$$$$

  -OEChem-04052318543D

 85 93  0     1  0  0  0  0  0999 V2000
  -19.5426  -25.3060   24.2507 C   0  0  0  0  0  0  0  0  0  0  0  0
  -20.8847  -25.4019   23.8974 C   0  0  0  0  0  0  0  0  0  0  0  0
  -28.4010  -16.9630   21.3301 C   0  0  0  0  0  0  0  0  0  0  0  0
  -27.1037  -16.6173   19.3215 C   0  0  0  0  0  0  0  0  0  0  0  0
  -18.6332  -26.2597   23.7954 C   0  0  0  0  0  0  0  0  0  0  0  0
  -21.3181  -26.4511   23.0876 C   0  0  0  0  0  0  0  0  0  0  0  0
  -26.7140  -29.3338   23.3710 C   0  0  0  0  0  0  0  0  0  0  0  0
  -28.4170  -15.5867   21.5566 C   0  0  0  0  0  0  0  0  0  0  0  0
  -27.1198  -15.2411   19.5479 C   0  0  0  0  0  0  0  0  0  0  0  0
  -27.8915  -29.1945   22.6377 C   0  0  0  0  0  0  0  0  0  0  0  0
  -25.4978  -13.0209   21.5153 C   0  0  0  0  0  0  0  0  0  0  0  0
  -24.2992  -12.3246   21.3602 C   0  0  0  0  0  0  0  0  0  0  0  0
  -27.2044  -31.0067   21.2014 C   0  0  0  0  0  0  0  0  0  0  0  0
  -27.9508  -26.4523   18.3120 C   0  0  0  0  0  0  0  0  0  0  0  0
  -25.3103  -10.9684   19.6352 C   0  0  0  0  0  0  0  0  0  0  0  0
  -27.5479  -26.0974   15.9950 C   0  0  0  0  0  0  0  0  0  0  0  0
  -27.7443  -17.4783   20.2126 C   0  0  0  0  0  0  0  0  0  0  0  0
  -28.6632  -19.6520   19.2440 C   0  0  0  0  0  0  0  0  0  0  0  0
  -19.0573  -27.3266   22.9875 C   0  0  0  0  0  0  0  0  0  0  0  0
  -25.7662  -30.3051   23.0178 C   0  0  0  0  0  0  0  0  0  0  0  0
  -20.4133  -27.4193   22.6200 C   0  0  0  0  0  0  0  0  0  0  0  0
  -26.0168  -31.1580   21.9334 C   0  0  0  0  0  0  0  0  0  0  0  0
  -27.0766  -26.5065   17.2321 C   0  0  0  0  0  0  0  0  0  0  0  0
  -29.2512  -25.9972   18.1244 C   0  0  0  0  0  0  0  0  0  0  0  0
  -27.7765  -14.7258   20.6655 C   0  0  0  0  0  0  0  0  0  0  0  0
  -28.1356  -30.0291   21.5510 C   0  0  0  0  0  0  0  0  0  0  0  0
  -26.6026  -12.6910   20.7303 C   0  0  0  0  0  0  0  0  0  0  0  0
  -24.2054  -11.2983   20.4202 C   0  0  0  0  0  0  0  0  0  0  0  0
  -26.5089  -11.6648   19.7903 C   0  0  0  0  0  0  0  0  0  0  0  0
  -27.7268  -18.8999   19.9784 C   0  0  0  0  0  0  0  0  0  0  0  0
  -29.6251  -25.6107   16.8475 C   0  0  0  0  0  0  0  0  0  0  0  0
  -28.2012  -20.9433   19.3191 C   0  0  0  0  0  0  0  0  0  0  0  0
  -29.8449  -19.2219   18.5553 C   0  0  0  0  0  0  0  0  0  0  0  0
  -22.7356  -30.2385   22.0614 C   0  0  0  0  0  0  0  0  0  0  0  0
  -22.9888  -33.4616   22.3248 C   0  0  0  0  0  0  0  0  0  0  0  0
  -25.0022  -36.2171   22.3507 C   0  0  0  0  0  0  0  0  0  0  0  0
  -24.0268  -24.6399   19.0859 C   0  0  0  0  0  0  0  0  0  0  0  0
  -18.0292  -28.3067   22.4807 C   0  0  0  0  0  0  0  0  0  0  0  0
  -24.5132  -30.4603   23.8353 C   0  0  0  0  0  0  0  0  0  0  0  0
  -25.0406  -32.2300   21.5256 C   0  0  0  0  0  0  0  0  0  0  0  0
  -18.6351  -29.5971   21.9347 C   0  0  0  0  0  0  0  0  0  0  0  0
  -24.5653  -22.9773   22.1879 C   0  0  0  0  0  0  0  0  0  0  0  0
  -19.8079  -29.2868   21.0101 C   0  0  0  0  0  0  0  0  0  0  0  0
  -25.5076  -21.8273   21.8278 C   0  0  0  0  0  0  0  0  0  0  0  0
  -23.5519  -23.2453   21.0775 C   0  0  0  0  0  0  0  0  0  0  0  0
  -25.0818  -22.3171   19.3829 C   0  0  0  0  0  0  0  0  0  0  0  0
  -20.9263  -28.5567   21.7636 C   0  0  1  0  0  0  0  0  0  0  0  0
  -23.3824  -31.1429   23.0719 C   0  0  1  0  0  0  0  0  0  0  0  0
  -26.1577  -22.0461   20.4484 C   0  0  2  0  0  0  0  0  0  0  0  0
  -31.0091  -25.1126   16.5869 C   0  0  0  0  0  0  0  0  0  0  0  0
  -25.4058  -28.2711   16.5853 C   0  0  0  0  0  0  0  0  0  0  0  0
  -24.9168  -38.7174   22.5467 C   0  0  0  0  0  0  0  0  0  0  0  0
  -21.9834  -33.6501   19.4501 C   0  0  0  0  0  0  0  0  0  0  0  0
  -22.8110  -36.0122   19.3892 C   0  0  0  0  0  0  0  0  0  0  0  0
  -21.0257  -35.3593   21.0045 C   0  0  0  0  0  0  0  0  0  0  0  0
  -26.6599  -36.1976   24.8024 C   0  0  0  0  0  0  0  0  0  0  0  0
  -30.2050  -25.9376   19.2909 C   0  0  0  0  0  0  0  0  0  0  0  0
  -31.2407  -27.0674   19.3021 C   0  0  0  0  0  0  0  0  0  0  0  0
  -30.6125  -28.4540   19.4481 C   0  0  0  0  0  0  0  0  0  0  0  0
  -24.6102  -25.9235   17.0436 C   0  0  0  0  0  0  0  0  0  0  0  0
  -29.8573  -28.5899   20.7633 C   0  0  0  0  0  0  0  0  0  1  0  0
  -25.6793  -26.9875   17.3995 C   0  0  1  0  0  0  0  0  0  0  0  0
  -23.3987  -34.5811   21.3986 C   0  0  1  0  0  0  0  0  0  0  0  0
  -25.0741  -37.4032   23.2955 C   0  0  2  0  0  0  0  0  0  0  0  0
  -22.3224  -34.8793   20.3168 C   0  0  0  0  0  0  0  0  0  0  0  0
  -28.8041  -25.6493   15.7741 N   0  0  0  0  0  0  0  0  0  0  0  0
  -26.7443  -19.6508   20.4831 N   0  0  0  0  0  0  0  0  0  0  0  0
  -27.0608  -20.8883   20.0652 N   0  0  0  0  0  0  0  0  0  0  0  0
  -23.8272  -32.3382   22.3523 N   0  0  0  0  0  0  0  0  0  0  0  0
  -24.2331  -23.4457   19.7962 N   0  0  0  0  0  0  0  0  0  0  0  0
  -28.6633  -22.1090   18.8193 N   0  0  0  0  0  0  0  0  0  0  0  0
  -30.1733  -17.8595   18.5786 N   0  0  0  0  0  0  0  0  0  0  0  0
  -21.6888  -29.4900   22.5648 N   0  0  0  0  0  0  0  0  0  0  0  0
  -23.7199  -35.7200   22.2519 N   0  0  0  0  0  0  0  0  0  0  0  0
  -24.7152  -24.7516   17.8841 N   0  0  0  0  0  0  0  0  0  0  0  0
  -26.3842  -37.4209   24.0058 N   0  3  0  0  0  0  0  0  0  0  0  0
  -30.5966  -20.0243   17.9515 O   0  0  0  0  0  0  0  0  0  0  0  0
  -23.1542  -30.2220   20.9098 O   0  0  0  0  0  0  0  0  0  0  0  0
  -21.9665  -33.5827   23.0043 O   0  0  0  0  0  0  0  0  0  0  0  0
  -25.9845  -35.7780   21.7568 O   0  0  0  0  0  0  0  0  0  0  0  0
  -23.2882  -25.5420   19.4953 O   0  0  0  0  0  0  0  0  0  0  0  0
  -27.7921  -13.3828   20.8860 O   0  0  0  0  0  0  0  0  0  0  0  0
  -29.2838  -29.8948   20.8331 O   0  0  0  0  0  0  0  0  0  1  0  0
  -23.0548  -10.6287   20.2725 F   0  0  0  0  0  0  0  0  0  0  0  0
  -27.5673  -11.3425   19.0341 F   0  0  0  0  0  0  0  0  0  0  0  0
  1  2  1  0  0  0  0
  1  5  2  0  0  0  0
  2  6  2  0  0  0  0
  3  8  2  0  0  0  0
  3 17  1  0  0  0  0
  4  9  1  0  0  0  0
  4 17  2  0  0  0  0
  5 19  1  0  0  0  0
  6 21  1  0  0  0  0
  7 10  2  0  0  0  0
  7 20  1  0  0  0  0
  8 25  1  0  0  0  0
  9 25  2  0  0  0  0
 10 26  1  0  0  0  0
 11 12  2  0  0  0  0
 11 27  1  0  0  0  0
 12 28  1  0  0  0  0
 13 22  1  0  0  0  0
 13 26  2  0  0  0  0
 14 23  2  0  0  0  0
 14 24  1  0  0  0  0
 15 28  2  0  0  0  0
 15 29  1  0  0  0  0
 16 23  1  0  0  0  0
 16 66  2  0  0  0  0
 17 30  1  0  0  0  0
 18 30  1  0  0  0  0
 18 32  2  0  0  0  0
 18 33  1  0  0  0  0
 19 21  2  0  0  0  0
 19 38  1  0  0  0  0
 20 22  2  0  0  0  0
 20 39  1  0  0  0  0
 21 47  1  0  0  0  0
 22 40  1  0  0  0  0
 23 62  1  0  0  0  0
 24 31  2  0  0  0  0
 24 57  1  0  0  0  0
 25 82  1  0  0  0  0
 26 83  1  0  0  0  0
 27 29  2  0  0  0  0
 27 82  1  0  0  0  0
 28 84  1  0  0  0  0
 29 85  1  0  0  0  0
 30 67  2  0  0  0  0
 31 50  1  0  0  0  0
 31 66  1  0  0  0  0
 32 68  1  0  0  0  0
 32 71  1  0  0  0  0
 33 72  1  0  0  0  0
 33 77  2  0  0  0  0
 34 48  1  0  0  0  0
 34 73  1  0  0  0  0
 34 78  2  0  0  0  0
 35 63  1  0  0  0  0
 35 69  1  0  0  0  0
 35 79  2  0  0  0  0
 36 64  1  0  0  0  0
 36 74  1  0  0  0  0
 36 80  2  0  0  0  0
 37 70  1  0  0  0  0
 37 75  1  0  0  0  0
 37 81  2  0  0  0  0
 38 41  1  0  0  0  0
 39 48  1  0  0  0  0
 40 69  1  0  0  0  0
 41 43  1  0  0  0  0
 42 44  1  0  0  0  0
 42 45  1  0  0  0  0
 43 47  1  0  0  0  0
 44 49  1  0  0  0  0
 45 70  1  0  0  0  0
 46 49  1  0  0  0  0
 46 70  1  0  0  0  0
 47 73  1  0  0  0  0
 48 69  1  0  0  0  0
 49 68  1  0  0  0  0
 51 62  1  0  0  0  0
 52 64  1  0  0  0  0
 53 65  1  0  0  0  0
 54 65  1  0  0  0  0
 55 65  1  0  0  0  0
 56 76  1  0  0  0  0
 57 58  1  0  0  0  0
 58 59  1  0  0  0  0
 59 61  1  0  0  0  0
 60 62  1  0  0  0  0
 60 75  1  0  0  0  0
 61 83  1  0  0  0  0
 63 65  1  0  0  0  0
 63 74  1  0  0  0  0
 64 76  1  0  0  0  0
 67 68  1  0  0  0  0
M  CHG  1  76   1
M  ISO  4  37 100  61 101  75 100  83 101
M  END
> <Batch ID>
0084

> <Smiles>
CNC(C)C(=O)NC(C(=O)N1Cc2cc([101O:1][101CH2:1]CCCc3cc(C(C)C[100NH:0][100C:0](=O)N4CCCC(n5nc(-c6ccc(Oc7ccc(F)cc7F)cc6)c(C(N)=O)c5N)C4)cnc3C)ccc2CC1C(=O)NC1CCCc2ccccc21)C(C)(C)C

> <Shape>
0.278

> <Color>
0.090

> <Negative vol penalty>
0.000

$$$$

  -OEChem-04052318543D

 86 94  0     1  0  0  0  0  0999 V2000
  -20.3720  -26.3193   25.8856 C   0  0  0  0  0  0  0  0  0  0  0  0
  -21.4299  -26.0795   25.0145 C   0  0  0  0  0  0  0  0  0  0  0  0
  -24.5060  -12.4180   19.5079 C   0  0  0  0  0  0  0  0  0  0  0  0
  -25.6906  -12.4969   21.6120 C   0  0  0  0  0  0  0  0  0  0  0  0
  -19.3393  -27.1761   25.5072 C   0  0  0  0  0  0  0  0  0  0  0  0
  -21.4550  -26.6957   23.7638 C   0  0  0  0  0  0  0  0  0  0  0  0
  -26.0095  -28.5938   22.6243 C   0  0  0  0  0  0  0  0  0  0  0  0
  -24.8857  -11.0859   19.3440 C   0  0  0  0  0  0  0  0  0  0  0  0
  -26.0703  -11.1647   21.4482 C   0  0  0  0  0  0  0  0  0  0  0  0
  -26.9841  -27.6950   22.1930 C   0  0  0  0  0  0  0  0  0  0  0  0
  -27.0501   -7.6773   21.7583 C   0  0  0  0  0  0  0  0  0  0  0  0
  -26.9333   -6.8288   22.8591 C   0  0  0  0  0  0  0  0  0  0  0  0
  -26.5549  -28.3357   19.9073 C   0  0  0  0  0  0  0  0  0  0  0  0
  -24.5576   -7.2610   22.9400 C   0  0  0  0  0  0  0  0  0  0  0  0
  -28.4249  -23.1519   21.2247 C   0  0  0  0  0  0  0  0  0  0  0  0
  -24.9085  -13.1236   20.6419 C   0  0  0  0  0  0  0  0  0  0  0  0
  -23.3569  -14.9816   21.4467 C   0  0  0  0  0  0  0  0  0  0  0  0
  -19.3566  -27.8106   24.2551 C   0  0  0  0  0  0  0  0  0  0  0  0
  -25.2914  -29.3637   21.6980 C   0  0  0  0  0  0  0  0  0  0  0  0
  -20.4208  -27.5608   23.3677 C   0  0  0  0  0  0  0  0  0  0  0  0
  -25.5735  -29.2454   20.3296 C   0  0  0  0  0  0  0  0  0  0  0  0
  -27.8591  -23.7885   20.1471 C   0  0  0  0  0  0  0  0  0  0  0  0
  -25.6678  -10.4592   20.3142 C   0  0  0  0  0  0  0  0  0  0  0  0
  -27.2550  -27.5637   20.8342 C   0  0  0  0  0  0  0  0  0  0  0  0
  -25.9208   -8.3178   21.2483 C   0  0  0  0  0  0  0  0  0  0  0  0
  -25.6870   -6.6206   23.4500 C   0  0  0  0  0  0  0  0  0  0  0  0
  -24.6745   -8.1096   21.8391 C   0  0  0  0  0  0  0  0  0  0  0  0
  -24.5171  -14.4998   20.8114 C   0  0  0  0  0  0  0  0  0  0  0  0
  -26.4903  -23.4698   20.2290 C   0  0  0  0  0  0  0  0  0  0  0  0
  -23.4511  -16.3479   21.3434 C   0  0  0  0  0  0  0  0  0  0  0  0
  -22.2895  -14.2586   22.0742 C   0  0  0  0  0  0  0  0  0  0  0  0
  -22.2290  -29.6134   20.8838 C   0  0  0  0  0  0  0  0  0  0  0  0
  -23.3188  -32.0576   19.0505 C   0  0  0  0  0  0  0  0  0  0  0  0
  -25.9356  -33.4978   17.3998 C   0  0  0  0  0  0  0  0  0  0  0  0
  -28.4629  -19.7644   20.4783 C   0  0  0  0  0  0  0  0  0  0  0  0
  -18.1941  -28.6916   23.8716 C   0  0  0  0  0  0  0  0  0  0  0  0
  -24.2620  -30.3481   22.1812 C   0  0  0  0  0  0  0  0  0  0  0  0
  -24.8449  -30.0636   19.2961 C   0  0  0  0  0  0  0  0  0  0  0  0
  -18.4843  -29.5976   22.6778 C   0  0  0  0  0  0  0  0  0  0  0  0
  -25.2849  -19.7886   18.5804 C   0  0  0  0  0  0  0  0  0  0  0  0
  -19.1504  -28.8064   21.5566 C   0  0  0  0  0  0  0  0  0  0  0  0
  -24.6699  -18.4380   18.9434 C   0  0  0  0  0  0  0  0  0  0  0  0
  -26.8088  -19.7540   18.6465 C   0  0  0  0  0  0  0  0  0  0  0  0
  -26.7296  -17.9308   20.3149 C   0  0  0  0  0  0  0  0  0  0  0  0
  -20.4962  -28.2298   22.0125 C   0  0  1  0  0  0  0  0  0  0  0  0
  -23.2323  -30.7079   21.1146 C   0  0  1  0  0  0  0  0  0  0  0  0
  -25.1936  -17.9444   20.3033 C   0  0  2  0  0  0  0  0  0  0  0  0
  -23.1910  -25.1278   19.1019 C   0  0  0  0  0  0  0  0  0  0  0  0
  -26.5104  -35.4712   15.9601 C   0  0  0  0  0  0  0  0  0  0  0  0
  -28.4346  -24.1141   17.6487 C   0  0  0  0  0  0  0  0  0  0  0  0
  -30.0859  -24.6952   19.4131 C   0  0  0  0  0  0  0  0  0  0  0  0
  -21.9529  -30.7182   16.6735 C   0  0  0  0  0  0  0  0  0  0  0  0
  -23.3248  -32.1647   15.1591 C   0  0  0  0  0  0  0  0  0  0  0  0
  -21.7102  -33.2061   16.7501 C   0  0  0  0  0  0  0  0  0  0  0  0
  -29.8760  -19.6942   22.4976 C   0  0  0  0  0  0  0  0  0  0  0  0
  -27.9004  -34.5089   19.3686 C   0  0  0  0  0  0  0  0  0  0  0  0
  -25.4092  -23.8906   19.3206 C   0  0  0  0  0  0  0  0  0  0  0  0
  -24.2866  -24.6609   20.0471 C   0  0  0  0  0  0  0  0  0  0  0  0
  -27.5029  -21.7096   23.0546 C   0  0  0  0  0  0  0  0  0  0  0  0
  -27.4788  -20.2108   22.7663 C   0  0  0  0  0  0  0  0  0  0  0  0
  -28.0215  -26.1024   19.1216 C   0  0  0  0  0  0  0  0  0  1  0  0
  -23.8445  -32.1849   17.6412 C   0  0  1  0  0  0  0  0  0  0  0  0
  -26.4498  -34.9259   17.3785 C   0  0  2  0  0  0  0  0  0  0  0  0
  -28.5740  -24.6539   19.0925 C   0  0  0  0  0  0  0  0  0  0  0  0
  -22.7207  -32.0515   16.5751 C   0  0  0  0  0  0  0  0  0  0  0  0
  -25.2914  -15.4804   20.3393 N   0  0  0  0  0  0  0  0  0  0  0  0
  -26.2039  -22.6912   21.2757 N   0  0  0  0  0  0  0  0  0  0  0  0
  -27.4006  -22.5152   21.8615 N   0  0  0  0  0  0  0  0  0  0  0  0
  -24.6164  -16.5920   20.6781 N   0  0  0  0  0  0  0  0  0  0  0  0
  -23.8430  -31.0077   19.8179 N   0  0  0  0  0  0  0  0  0  0  0  0
  -27.2790  -19.2405   19.9335 N   0  0  0  0  0  0  0  0  0  0  0  0
  -22.6499  -17.3524   21.7576 N   0  0  0  0  0  0  0  0  0  0  0  0
  -22.3505  -12.8585   22.0915 N   0  0  0  0  0  0  0  0  0  0  0  0
  -21.5134  -29.2593   22.0116 N   0  0  0  0  0  0  0  0  0  0  0  0
  -24.5706  -33.4492   17.5890 N   0  0  0  0  0  0  0  0  0  0  0  0
  -28.5628  -19.7983   21.8774 N   0  0  0  0  0  0  0  0  0  0  0  0
  -27.8175  -34.9928   17.9665 N   0  3  0  0  0  0  0  0  0  0  0  0
  -21.3026  -14.8365   22.5894 O   0  0  0  0  0  0  0  0  0  0  0  0
  -22.1118  -29.1273   19.7651 O   0  0  0  0  0  0  0  0  0  0  0  0
  -22.4793  -32.8644   19.4580 O   0  0  0  0  0  0  0  0  0  0  0  0
  -26.6707  -32.5230   17.2587 O   0  0  0  0  0  0  0  0  0  0  0  0
  -29.3743  -20.1870   19.7554 O   0  0  0  0  0  0  0  0  0  0  0  0
  -26.0383   -9.1593   20.1548 O   0  0  0  0  0  0  0  0  0  0  0  0
  -28.2053  -26.6866   20.4105 O   0  0  0  0  0  0  0  0  0  1  0  0
  -25.5746   -5.8046   24.5062 F   0  0  0  0  0  0  0  0  0  0  0  0
  -23.5857   -8.7211   21.3529 F   0  0  0  0  0  0  0  0  0  0  0  0
  1  2  1  0  0  0  0
  1  5  2  0  0  0  0
  2  6  2  0  0  0  0
  3  8  2  0  0  0  0
  3 16  1  0  0  0  0
  4  9  1  0  0  0  0
  4 16  2  0  0  0  0
  5 18  1  0  0  0  0
  6 20  1  0  0  0  0
  7 10  2  0  0  0  0
  7 19  1  0  0  0  0
  8 23  1  0  0  0  0
  9 23  2  0  0  0  0
 10 24  1  0  0  0  0
 11 12  2  0  0  0  0
 11 25  1  0  0  0  0
 12 26  1  0  0  0  0
 13 21  1  0  0  0  0
 13 24  2  0  0  0  0
 14 26  2  0  0  0  0
 14 27  1  0  0  0  0
 15 22  2  0  0  0  0
 15 68  1  0  0  0  0
 16 28  1  0  0  0  0
 17 28  1  0  0  0  0
 17 30  2  0  0  0  0
 17 31  1  0  0  0  0
 18 20  2  0  0  0  0
 18 36  1  0  0  0  0
 19 21  2  0  0  0  0
 19 37  1  0  0  0  0
 20 45  1  0  0  0  0
 21 38  1  0  0  0  0
 22 29  1  0  0  0  0
 22 64  1  0  0  0  0
 23 83  1  0  0  0  0
 24 84  1  0  0  0  0
 25 27  2  0  0  0  0
 25 83  1  0  0  0  0
 26 85  1  0  0  0  0
 27 86  1  0  0  0  0
 28 66  2  0  0  0  0
 29 57  1  0  0  0  0
 29 67  2  0  0  0  0
 30 69  1  0  0  0  0
 30 72  1  0  0  0  0
 31 73  1  0  0  0  0
 31 78  2  0  0  0  0
 32 46  1  0  0  0  0
 32 74  1  0  0  0  0
 32 79  2  0  0  0  0
 33 62  1  0  0  0  0
 33 70  1  0  0  0  0
 33 80  2  0  0  0  0
 34 63  1  0  0  0  0
 34 75  1  0  0  0  0
 34 81  2  0  0  0  0
 35 71  1  0  0  0  0
 35 76  1  0  0  0  0
 35 82  2  0  0  0  0
 36 39  1  0  0  0  0
 37 46  1  0  0  0  0
 38 70  1  0  0  0  0
 39 41  1  0  0  0  0
 40 42  1  0  0  0  0
 40 43  1  0  0  0  0
 41 45  1  0  0  0  0
 42 47  1  0  0  0  0
 43 71  1  0  0  0  0
 44 47  1  0  0  0  0
 44 71  1  0  0  0  0
 45 74  1  0  0  0  0
 46 70  1  0  0  0  0
 47 69  1  0  0  0  0
 48 58  1  0  0  0  0
 49 63  1  0  0  0  0
 50 64  1  0  0  0  0
 51 64  1  0  0  0  0
 52 65  1  0  0  0  0
 53 65  1  0  0  0  0
 54 65  1  0  0  0  0
 55 76  1  0  0  0  0
 56 77  1  0  0  0  0
 57 58  1  0  0  0  0
 59 60  1  0  0  0  0
 59 68  1  0  0  0  0
 60 76  1  0  0  0  0
 61 64  1  0  0  0  0
 61 84  1  0  0  0  0
 62 65  1  0  0  0  0
 62 75  1  0  0  0  0
 63 77  1  0  0  0  0
 66 69  1  0  0  0  0
 67 68  1  0  0  0  0
M  CHG  1  77   1
M  ISO  4  35 100  61 101  76 100  84 101
M  END
> <Batch ID>
0084

> <Smiles>
CCCc1nn(CC[100N:0](C)[100C:0](=O)N2CCCC(n3nc(-c4ccc(Oc5ccc(F)cc5F)cc4)c(C(N)=O)c3N)C2)cc1C(C)(C)[101CH2:1][101O:1]c1ccc2c(c1)CN(C(=O)C(NC(=O)C(C)NC)C(C)(C)C)C(C(=O)NC1CCCc3ccccc31)C2

> <Shape>
0.212

> <Color>
0.131

> <Negative vol penalty>
0.000

$$$$

  -OEChem-04052318543D

 80 88  0     1  0  0  0  0  0999 V2000
  -30.6465  -20.2725   28.9291 C   0  0  0  0  0  0  0  0  0  0  0  0
  -30.8583  -21.1285   27.8531 C   0  0  0  0  0  0  0  0  0  0  0  0
  -26.2997  -12.7002   21.7656 C   0  0  0  0  0  0  0  0  0  0  0  0
  -25.9733  -13.5053   19.5112 C   0  0  0  0  0  0  0  0  0  0  0  0
  -29.4610  -19.5438   29.0157 C   0  0  0  0  0  0  0  0  0  0  0  0
  -29.8852  -21.2555   26.8625 C   0  0  0  0  0  0  0  0  0  0  0  0
  -28.4731  -26.3164   23.7162 C   0  0  0  0  0  0  0  0  0  0  0  0
  -25.0317  -12.1196   21.7419 C   0  0  0  0  0  0  0  0  0  0  0  0
  -24.7052  -12.9245   19.4874 C   0  0  0  0  0  0  0  0  0  0  0  0
  -28.8386  -26.7647   22.4476 C   0  0  0  0  0  0  0  0  0  0  0  0
  -21.7362  -10.7322   22.4043 C   0  0  0  0  0  0  0  0  0  0  0  0
  -20.9197  -10.9082   23.5214 C   0  0  0  0  0  0  0  0  0  0  0  0
  -26.7968  -25.8521   21.5435 C   0  0  0  0  0  0  0  0  0  0  0  0
  -21.0050  -13.3021   23.2067 C   0  0  0  0  0  0  0  0  0  0  0  0
  -29.4973  -23.5661   19.6686 C   0  0  0  0  0  0  0  0  0  0  0  0
  -26.7705  -13.3932   20.6503 C   0  0  0  0  0  0  0  0  0  0  0  0
  -29.2953  -13.3989   20.2858 C   0  0  0  0  0  0  0  0  0  0  0  0
  -28.4687  -19.6691   28.0307 C   0  0  0  0  0  0  0  0  0  0  0  0
  -27.2699  -25.6218   23.9063 C   0  0  0  0  0  0  0  0  0  0  0  0
  -28.6859  -20.5267   26.9353 C   0  0  0  0  0  0  0  0  0  0  0  0
  -26.4172  -25.3982   22.8159 C   0  0  0  0  0  0  0  0  0  0  0  0
  -24.2345  -12.2316   20.6028 C   0  0  0  0  0  0  0  0  0  0  0  0
  -28.0017  -26.5301   21.3605 C   0  0  0  0  0  0  0  0  0  0  0  0
  -22.1872  -11.8412   21.6885 C   0  0  0  0  0  0  0  0  0  0  0  0
  -20.5540  -12.1931   23.9226 C   0  0  0  0  0  0  0  0  0  0  0  0
  -21.8216  -13.1261   22.0897 C   0  0  0  0  0  0  0  0  0  0  0  0
  -28.0800  -13.9938   20.6744 C   0  0  0  0  0  0  0  0  0  0  0  0
  -30.3940  -22.6234   20.0861 C   0  0  0  0  0  0  0  0  0  0  0  0
  -30.2382  -14.3750   20.4969 C   0  0  0  0  0  0  0  0  0  0  0  0
  -31.3293  -23.7761   18.4439 C   0  0  0  0  0  0  0  0  0  0  0  0
  -29.5491  -12.0819   19.7793 C   0  0  0  0  0  0  0  0  0  0  0  0
  -26.4974  -22.7049   24.9058 C   0  0  0  0  0  0  0  0  0  0  0  0
  -29.7553  -20.2935   20.6169 C   0  0  0  0  0  0  0  0  0  0  0  0
  -23.4736  -23.8636   24.7155 C   0  0  0  0  0  0  0  0  0  0  0  0
  -21.3194  -26.1274   23.3438 C   0  0  0  0  0  0  0  0  0  0  0  0
  -27.2238  -18.8252   28.1428 C   0  0  0  0  0  0  0  0  0  0  0  0
  -26.8775  -25.1681   25.2857 C   0  0  0  0  0  0  0  0  0  0  0  0
  -25.1050  -24.6752   22.9705 C   0  0  0  0  0  0  0  0  0  0  0  0
  -26.0834  -19.2998   27.2458 C   0  0  0  0  0  0  0  0  0  0  0  0
  -31.1479  -18.1847   23.2324 C   0  0  0  0  0  0  0  0  0  0  0  0
  -26.5963  -19.5902   25.8389 C   0  0  0  0  0  0  0  0  0  0  0  0
  -30.5983  -16.8128   22.8439 C   0  0  0  0  0  0  0  0  0  0  0  0
  -30.1501  -19.2975   22.9221 C   0  0  0  0  0  0  0  0  0  0  0  0
  -29.1438  -17.9471   21.1087 C   0  0  0  0  0  0  0  0  0  0  0  0
  -27.6436  -20.7103   25.8537 C   0  0  1  0  0  0  0  0  0  0  0  0
  -25.8722  -24.0207   25.2739 C   0  0  1  0  0  0  0  0  0  0  0  0
  -30.1323  -16.8000   21.3775 C   0  0  2  0  0  0  0  0  0  0  0  0
  -32.3171  -24.2434   17.4395 C   0  0  0  0  0  0  0  0  0  0  0  0
  -18.9027  -26.8034   23.3538 C   0  0  0  0  0  0  0  0  0  0  0  0
  -22.7964  -21.4595   22.9630 C   0  0  0  0  0  0  0  0  0  0  0  0
  -20.7187  -22.6571   22.2438 C   0  0  0  0  0  0  0  0  0  0  0  0
  -21.0412  -22.0535   24.6426 C   0  0  0  0  0  0  0  0  0  0  0  0
  -21.9601  -28.8320   24.3606 C   0  0  0  0  0  0  0  0  0  0  0  0
  -30.3065  -21.5997   21.1306 C   0  0  0  0  0  0  0  0  0  0  0  0
  -29.9596  -26.7867   18.3453 C   0  0  0  0  0  0  0  0  0  0  0  0
  -29.4762  -25.4072   17.8926 C   0  0  0  0  0  0  0  0  0  0  0  0
  -29.7521  -27.0411   19.8337 C   0  0  0  0  0  0  0  0  0  1  0  0
  -22.4169  -23.9222   23.6390 C   0  0  1  0  0  0  0  0  0  0  0  0
  -20.2736  -27.0311   23.9716 C   0  0  2  0  0  0  0  0  0  0  0  0
  -21.7689  -22.5351   23.3685 C   0  0  0  0  0  0  0  0  0  0  0  0
  -28.2339  -15.2503   21.1003 N   0  0  0  0  0  0  0  0  0  0  0  0
  -30.1026  -24.2652   18.6523 N   0  0  0  0  0  0  0  0  0  0  0  0
  -29.5570  -15.4531   20.9806 N   0  0  0  0  0  0  0  0  0  0  0  0
  -31.5182  -22.7761   19.3109 N   0  3  0  0  0  0  0  0  0  0  0  0
  -24.7687  -24.2457   24.3379 N   0  0  0  0  0  0  0  0  0  0  0  0
  -29.7098  -19.2340   21.5233 N   0  0  0  0  0  0  0  0  0  0  0  0
  -31.5754  -14.4078   20.3142 N   0  0  0  0  0  0  0  0  0  0  0  0
  -28.4664  -11.2056   19.6239 N   0  0  0  0  0  0  0  0  0  0  0  0
  -27.0015  -22.0008   25.9827 N   0  0  0  0  0  0  0  0  0  0  0  0
  -21.4709  -24.9535   24.0512 N   0  0  0  0  0  0  0  0  0  0  0  0
  -20.6434  -28.4620   23.7804 N   0  3  0  0  0  0  0  0  0  0  0  0
  -30.7042  -11.6881   19.4889 O   0  0  0  0  0  0  0  0  0  0  0  0
  -26.5195  -22.3538   23.7320 O   0  0  0  0  0  0  0  0  0  0  0  0
  -29.3796  -20.2183   19.4441 O   0  0  0  0  0  0  0  0  0  0  0  0
  -23.1599  -23.4993   25.8516 O   0  0  0  0  0  0  0  0  0  0  0  0
  -21.9372  -26.4307   22.3256 O   0  0  0  0  0  0  0  0  0  0  0  0
  -22.9972  -11.6649   20.5792 O   0  0  0  0  0  0  0  0  0  0  0  0
  -28.3563  -26.9661   20.1212 O   0  0  0  0  0  0  0  0  0  1  0  0
  -19.7686  -12.3618   24.9944 F   0  0  0  0  0  0  0  0  0  0  0  0
  -22.2508  -14.1953   21.4053 F   0  0  0  0  0  0  0  0  0  0  0  0
  1  2  1  0  0  0  0
  1  5  2  0  0  0  0
  2  6  2  0  0  0  0
  3  8  2  0  0  0  0
  3 16  1  0  0  0  0
  4  9  1  0  0  0  0
  4 16  2  0  0  0  0
  5 18  1  0  0  0  0
  6 20  1  0  0  0  0
  7 10  2  0  0  0  0
  7 19  1  0  0  0  0
  8 22  1  0  0  0  0
  9 22  2  0  0  0  0
 10 23  1  0  0  0  0
 11 12  2  0  0  0  0
 11 24  1  0  0  0  0
 12 25  1  0  0  0  0
 13 21  1  0  0  0  0
 13 23  2  0  0  0  0
 14 25  2  0  0  0  0
 14 26  1  0  0  0  0
 15 28  2  0  0  0  0
 15 62  1  0  0  0  0
 16 27  1  0  0  0  0
 17 27  1  0  0  0  0
 17 29  2  0  0  0  0
 17 31  1  0  0  0  0
 18 20  2  0  0  0  0
 18 36  1  0  0  0  0
 19 21  2  0  0  0  0
 19 37  1  0  0  0  0
 20 45  1  0  0  0  0
 21 38  1  0  0  0  0
 22 77  1  0  0  0  0
 23 78  1  0  0  0  0
 24 26  2  0  0  0  0
 24 77  1  0  0  0  0
 25 79  1  0  0  0  0
 26 80  1  0  0  0  0
 27 61  2  0  0  0  0
 28 54  1  0  0  0  0
 28 64  1  0  0  0  0
 29 63  1  0  0  0  0
 29 67  1  0  0  0  0
 30 48  1  0  0  0  0
 30 62  1  0  0  0  0
 30 64  2  0  0  0  0
 31 68  1  0  0  0  0
 31 72  2  0  0  0  0
 32 46  1  0  0  0  0
 32 69  1  0  0  0  0
 32 73  2  0  0  0  0
 33 54  1  0  0  0  0
 33 66  1  0  0  0  0
 33 74  2  0  0  0  0
 34 58  1  0  0  0  0
 34 65  1  0  0  0  0
 34 75  2  0  0  0  0
 35 59  1  0  0  0  0
 35 70  1  0  0  0  0
 35 76  2  0  0  0  0
 36 39  1  0  0  0  0
 37 46  1  0  0  0  0
 38 65  1  0  0  0  0
 39 41  1  0  0  0  0
 40 42  1  0  0  0  0
 40 43  1  0  0  0  0
 41 45  1  0  0  0  0
 42 47  1  0  0  0  0
 43 66  1  0  0  0  0
 44 47  1  0  0  0  0
 44 66  1  0  0  0  0
 45 69  1  0  0  0  0
 46 65  1  0  0  0  0
 47 63  1  0  0  0  0
 49 59  1  0  0  0  0
 50 60  1  0  0  0  0
 51 60  1  0  0  0  0
 52 60  1  0  0  0  0
 53 71  1  0  0  0  0
 55 56  1  0  0  0  0
 55 57  1  0  0  0  0
 56 62  1  0  0  0  0
 57 78  1  0  0  0  0
 58 60  1  0  0  0  0
 58 70  1  0  0  0  0
 59 71  1  0  0  0  0
 61 63  1  0  0  0  0
M  CHG  2  64   1  71   1
M  ISO  4  33 100  54 100  57 101  78 101
M  END
> <Batch ID>
0084

> <Smiles>
CNC(C)C(=O)NC(C(=O)N1Cc2cc([101O:1][101CH2:1]CCn3cc([100CH2:0][100C:0](=O)N4CCCC(n5nc(-c6ccc(Oc7ccc(F)cc7F)cc6)c(C(N)=O)c5N)C4)nc3C)ccc2CC1C(=O)NC1CCCc2ccccc21)C(C)(C)C

> <Shape>
0.216

> <Color>
0.067

> <Negative vol penalty>
0.000

$$$$

  -OEChem-04052318543D

 83 91  0     1  0  0  0  0  0999 V2000
  -35.4460  -10.1161   32.1639 C   0  0  0  0  0  0  0  0  0  0  0  0
  -35.0035  -11.0161   31.1997 C   0  0  0  0  0  0  0  0  0  0  0  0
  -23.1484   -9.8696   19.9818 C   0  0  0  0  0  0  0  0  0  0  0  0
  -23.8410   -9.9833   22.2936 C   0  0  0  0  0  0  0  0  0  0  0  0
  -34.7439   -8.9320   32.3850 C   0  0  0  0  0  0  0  0  0  0  0  0
  -33.8591  -10.7319   30.4553 C   0  0  0  0  0  0  0  0  0  0  0  0
  -29.7072  -14.7427   28.4105 C   0  0  0  0  0  0  0  0  0  0  0  0
  -27.5429  -17.4673   23.1340 C   0  0  0  0  0  0  0  0  0  0  0  0
  -22.4338   -8.7029   20.2533 C   0  0  0  0  0  0  0  0  0  0  0  0
  -23.1264   -8.8166   22.5651 C   0  0  0  0  0  0  0  0  0  0  0  0
  -29.5247  -15.3539   27.1708 C   0  0  0  0  0  0  0  0  0  0  0  0
  -21.7798   -5.6707   23.7897 C   0  0  0  0  0  0  0  0  0  0  0  0
  -22.4042   -4.6935   24.5648 C   0  0  0  0  0  0  0  0  0  0  0  0
  -27.2172  -17.9454   21.8696 C   0  0  0  0  0  0  0  0  0  0  0  0
  -27.9123  -13.6599   26.5796 C   0  0  0  0  0  0  0  0  0  0  0  0
  -24.1615   -4.5094   22.9170 C   0  0  0  0  0  0  0  0  0  0  0  0
  -23.8520  -10.5098   21.0020 C   0  0  0  0  0  0  0  0  0  0  0  0
  -24.1185  -13.0387   20.7987 C   0  0  0  0  0  0  0  0  0  0  0  0
  -33.5850   -8.6376   31.6497 C   0  0  0  0  0  0  0  0  0  0  0  0
  -29.0005  -13.5773   28.7403 C   0  0  0  0  0  0  0  0  0  0  0  0
  -33.1417   -9.5421   30.6659 C   0  0  0  0  0  0  0  0  0  0  0  0
  -28.0857  -13.0372   27.8251 C   0  0  0  0  0  0  0  0  0  0  0  0
  -28.8541  -17.1003   23.4158 C   0  0  0  0  0  0  0  0  0  0  0  0
  -22.4228   -8.1764   21.5449 C   0  0  0  0  0  0  0  0  0  0  0  0
  -28.6293  -14.8110   26.2540 C   0  0  0  0  0  0  0  0  0  0  0  0
  -22.3461   -6.0672   22.5782 C   0  0  0  0  0  0  0  0  0  0  0  0
  -23.5951   -4.1129   24.1285 C   0  0  0  0  0  0  0  0  0  0  0  0
  -23.5370   -5.4866   22.1419 C   0  0  0  0  0  0  0  0  0  0  0  0
  -24.5908  -11.7148   20.7221 C   0  0  0  0  0  0  0  0  0  0  0  0
  -28.2311  -18.0367   20.9297 C   0  0  0  0  0  0  0  0  0  0  0  0
  -29.7947  -17.2292   22.4066 C   0  0  0  0  0  0  0  0  0  0  0  0
  -25.1969  -13.8094   20.4385 C   0  0  0  0  0  0  0  0  0  0  0  0
  -22.8210  -13.5282   21.1629 C   0  0  0  0  0  0  0  0  0  0  0  0
  -29.8120  -10.5875   29.4521 C   0  0  0  0  0  0  0  0  0  0  0  0
  -26.6377  -10.2800   30.0453 C   0  0  0  0  0  0  0  0  0  0  0  0
  -23.4625  -11.3927   29.4741 C   0  0  0  0  0  0  0  0  0  0  0  0
  -30.9595  -13.9600   20.9709 C   0  0  0  0  0  0  0  0  0  0  0  0
  -32.8863   -7.3230   31.8912 C   0  0  0  0  0  0  0  0  0  0  0  0
  -29.1889  -12.9451   30.0921 C   0  0  0  0  0  0  0  0  0  0  0  0
  -27.2875  -11.7991   28.1386 C   0  0  0  0  0  0  0  0  0  0  0  0
  -31.4713   -7.2714   31.3207 C   0  0  0  0  0  0  0  0  0  0  0  0
  -29.3786  -12.9953   17.9300 C   0  0  0  0  0  0  0  0  0  0  0  0
  -31.4507   -7.8125   29.8946 C   0  0  0  0  0  0  0  0  0  0  0  0
  -27.9389  -12.6898   18.3471 C   0  0  0  0  0  0  0  0  0  0  0  0
  -30.3791  -12.5716   19.0031 C   0  0  0  0  0  0  0  0  0  0  0  0
  -28.6724  -12.8097   20.7651 C   0  0  0  0  0  0  0  0  0  0  0  0
  -31.8907   -9.2809   29.8553 C   0  0  1  0  0  0  0  0  0  0  0  0
  -28.7977  -11.4708   30.1220 C   0  0  1  0  0  0  0  0  0  0  0  0
  -27.6232  -13.2703   19.7387 C   0  0  2  0  0  0  0  0  0  0  0  0
  -27.9173  -18.5473   19.5630 C   0  0  0  0  0  0  0  0  0  0  0  0
  -21.0715  -10.9174   30.0698 C   0  0  0  0  0  0  0  0  0  0  0  0
  -31.9359  -17.6491   23.7979 C   0  0  0  0  0  0  0  0  0  0  0  0
  -32.0810  -17.1234   21.3774 C   0  0  0  0  0  0  0  0  0  0  0  0
  -26.6410   -7.8937   28.1439 C   0  0  0  0  0  0  0  0  0  0  0  0
  -24.1453   -8.0632   28.0383 C   0  0  0  0  0  0  0  0  0  0  0  0
  -25.2698   -7.5782   30.2115 C   0  0  0  0  0  0  0  0  0  0  0  0
  -23.1197  -14.0588   30.7125 C   0  0  0  0  0  0  0  0  0  0  0  0
  -29.2115  -16.5825   24.7780 C   0  0  0  0  0  0  0  0  0  1  0  0
  -31.3879  -15.3300   22.9954 C   0  0  0  0  0  0  0  0  0  0  0  0
  -25.4286   -9.9006   29.2249 C   0  0  1  0  0  0  0  0  0  0  0  0
  -22.3205  -11.7102   30.4225 C   0  0  2  0  0  0  0  0  0  0  0  0
  -31.2190  -16.8532   22.6531 C   0  0  0  0  0  0  0  0  0  0  0  0
  -25.3875   -8.3812   28.8977 C   0  0  0  0  0  0  0  0  0  0  0  0
  -25.8696  -11.6447   20.3429 N   0  0  0  0  0  0  0  0  0  0  0  0
  -29.5161  -17.6897   21.1664 N   0  0  0  0  0  0  0  0  0  0  0  0
  -26.2100  -12.9343   20.1779 N   0  0  0  0  0  0  0  0  0  0  0  0
  -27.5115  -11.2140   29.4709 N   0  0  0  0  0  0  0  0  0  0  0  0
  -30.0238  -13.1570   20.2981 N   0  0  0  0  0  0  0  0  0  0  0  0
  -25.3678  -15.1434   20.3224 N   0  0  0  0  0  0  0  0  0  0  0  0
  -21.8285  -12.5997   21.5051 N   0  0  0  0  0  0  0  0  0  0  0  0
  -30.8140  -10.1430   30.2934 N   0  0  0  0  0  0  0  0  0  0  0  0
  -24.2667  -10.3847   29.9624 N   0  0  0  0  0  0  0  0  0  0  0  0
  -30.5400  -14.4807   22.1889 N   0  0  0  0  0  0  0  0  0  0  0  0
  -21.9876  -13.1617   30.3651 N   0  3  0  0  0  0  0  0  0  0  0  0
  -22.5451  -14.7518   21.1683 O   0  0  0  0  0  0  0  0  0  0  0  0
  -29.6934  -10.3272   28.2605 O   0  0  0  0  0  0  0  0  0  0  0  0
  -26.7972   -9.7719   31.1580 O   0  0  0  0  0  0  0  0  0  0  0  0
  -23.6228  -11.9777   28.4052 O   0  0  0  0  0  0  0  0  0  0  0  0
  -32.0836  -14.1998   20.5169 O   0  0  0  0  0  0  0  0  0  0  0  0
  -21.7254   -7.0380   21.8102 O   0  0  0  0  0  0  0  0  0  0  0  0
  -28.4498  -15.4053   25.0430 O   0  0  0  0  0  0  0  0  0  1  0  0
  -24.1954   -3.1756   24.8736 F   0  0  0  0  0  0  0  0  0  0  0  0
  -24.0865   -5.8643   20.9795 F   0  0  0  0  0  0  0  0  0  0  0  0
  1  2  1  0  0  0  0
  1  5  2  0  0  0  0
  2  6  2  0  0  0  0
  3  9  2  0  0  0  0
  3 17  1  0  0  0  0
  4 10  1  0  0  0  0
  4 17  2  0  0  0  0
  5 19  1  0  0  0  0
  6 21  1  0  0  0  0
  7 11  2  0  0  0  0
  7 20  1  0  0  0  0
  8 14  2  0  0  0  0
  8 23  1  0  0  0  0
  9 24  1  0  0  0  0
 10 24  2  0  0  0  0
 11 25  1  0  0  0  0
 12 13  2  0  0  0  0
 12 26  1  0  0  0  0
 13 27  1  0  0  0  0
 14 30  1  0  0  0  0
 15 22  1  0  0  0  0
 15 25  2  0  0  0  0
 16 27  2  0  0  0  0
 16 28  1  0  0  0  0
 17 29  1  0  0  0  0
 18 29  1  0  0  0  0
 18 32  2  0  0  0  0
 18 33  1  0  0  0  0
 19 21  2  0  0  0  0
 19 38  1  0  0  0  0
 20 22  2  0  0  0  0
 20 39  1  0  0  0  0
 21 47  1  0  0  0  0
 22 40  1  0  0  0  0
 23 31  2  0  0  0  0
 23 58  1  0  0  0  0
 24 80  1  0  0  0  0
 25 81  1  0  0  0  0
 26 28  2  0  0  0  0
 26 80  1  0  0  0  0
 27 82  1  0  0  0  0
 28 83  1  0  0  0  0
 29 64  2  0  0  0  0
 30 50  1  0  0  0  0
 30 65  2  0  0  0  0
 31 62  1  0  0  0  0
 31 65  1  0  0  0  0
 32 66  1  0  0  0  0
 32 69  1  0  0  0  0
 33 70  1  0  0  0  0
 33 75  2  0  0  0  0
 34 48  1  0  0  0  0
 34 71  1  0  0  0  0
 34 76  2  0  0  0  0
 35 60  1  0  0  0  0
 35 67  1  0  0  0  0
 35 77  2  0  0  0  0
 36 61  1  0  0  0  0
 36 72  1  0  0  0  0
 36 78  2  0  0  0  0
 37 68  1  0  0  0  0
 37 73  1  0  0  0  0
 37 79  2  0  0  0  0
 38 41  1  0  0  0  0
 39 48  1  0  0  0  0
 40 67  1  0  0  0  0
 41 43  1  0  0  0  0
 42 44  1  0  0  0  0
 42 45  1  0  0  0  0
 43 47  1  0  0  0  0
 44 49  1  0  0  0  0
 45 68  1  0  0  0  0
 46 49  1  0  0  0  0
 46 68  1  0  0  0  0
 47 71  1  0  0  0  0
 48 67  1  0  0  0  0
 49 66  1  0  0  0  0
 51 61  1  0  0  0  0
 52 62  1  0  0  0  0
 53 62  1  0  0  0  0
 54 63  1  0  0  0  0
 55 63  1  0  0  0  0
 56 63  1  0  0  0  0
 57 74  1  0  0  0  0
 58 81  1  0  0  0  0
 59 62  1  0  0  0  0
 59 73  1  0  0  0  0
 60 63  1  0  0  0  0
 60 72  1  0  0  0  0
 61 74  1  0  0  0  0
 64 66  1  0  0  0  0
M  CHG  1  74   1
M  ISO  4  37 100  58 101  73 100  81 101
M  END
> <Batch ID>
0084

> <Smiles>
CNC(C)C(=O)NC(C(=O)N1Cc2cc([101O:1][101CH2:1]c3ccc(C)nc3C(C)(C)C[100NH:0][100C:0](=O)N3CCCC(n4nc(-c5ccc(Oc6ccc(F)cc6F)cc5)c(C(N)=O)c4N)C3)ccc2CC1C(=O)NC1CCCc2ccccc21)C(C)(C)C

> <Shape>
0.186

> <Color>
0.190

> <Negative vol penalty>
0.000

$$$$

  -OEChem-04052318543D

 86 94  0     1  0  0  0  0  0999 V2000
  -30.8085  -25.7616   30.9953 C   0  0  0  0  0  0  0  0  0  0  0  0
  -31.7865  -24.8626   30.5821 C   0  0  0  0  0  0  0  0  0  0  0  0
  -23.1048   -9.8569   19.9394 C   0  0  0  0  0  0  0  0  0  0  0  0
  -23.7232   -9.9489   22.2731 C   0  0  0  0  0  0  0  0  0  0  0  0
  -29.7199  -26.0345   30.1680 C   0  0  0  0  0  0  0  0  0  0  0  0
  -31.6759  -24.2350   29.3418 C   0  0  0  0  0  0  0  0  0  0  0  0
  -36.2518  -22.6921   25.5754 C   0  0  0  0  0  0  0  0  0  0  0  0
  -34.0958  -14.3161   25.2388 C   0  0  0  0  0  0  0  0  0  0  0  0
  -32.8271  -13.8146   24.9482 C   0  0  0  0  0  0  0  0  0  0  0  0
  -22.3560   -8.7056   20.1831 C   0  0  0  0  0  0  0  0  0  0  0  0
  -22.9743   -8.7976   22.5169 C   0  0  0  0  0  0  0  0  0  0  0  0
  -36.9180  -21.4877   25.3530 C   0  0  0  0  0  0  0  0  0  0  0  0
  -21.5187   -5.6791   23.6857 C   0  0  0  0  0  0  0  0  0  0  0  0
  -22.0954   -4.6862   24.4775 C   0  0  0  0  0  0  0  0  0  0  0  0
  -35.4666  -21.0379   23.4794 C   0  0  0  0  0  0  0  0  0  0  0  0
  -34.5072  -14.6421   22.8805 C   0  0  0  0  0  0  0  0  0  0  0  0
  -23.9016   -4.4675   22.8878 C   0  0  0  0  0  0  0  0  0  0  0  0
  -23.7885  -10.4785   20.9843 C   0  0  0  0  0  0  0  0  0  0  0  0
  -24.1175  -13.0014   20.7986 C   0  0  0  0  0  0  0  0  0  0  0  0
  -29.6008  -25.4173   28.9128 C   0  0  0  0  0  0  0  0  0  0  0  0
  -35.1791  -23.0739   24.7568 C   0  0  0  0  0  0  0  0  0  0  0  0
  -30.5839  -24.4989   28.4976 C   0  0  0  0  0  0  0  0  0  0  0  0
  -34.7901  -22.2488   23.6919 C   0  0  0  0  0  0  0  0  0  0  0  0
  -34.9358  -14.7299   24.2050 C   0  0  0  0  0  0  0  0  0  0  0  0
  -32.3984  -13.7267   23.6237 C   0  0  0  0  0  0  0  0  0  0  0  0
  -33.2385  -14.1405   22.5899 C   0  0  0  0  0  0  0  0  0  0  0  0
  -22.2907   -8.1760   21.4719 C   0  0  0  0  0  0  0  0  0  0  0  0
  -36.5235  -20.6591   24.3066 C   0  0  0  0  0  0  0  0  0  0  0  0
  -22.1334   -6.0662   22.4948 C   0  0  0  0  0  0  0  0  0  0  0  0
  -23.2869   -4.0804   24.0786 C   0  0  0  0  0  0  0  0  0  0  0  0
  -23.3248   -5.4604   22.0959 C   0  0  0  0  0  0  0  0  0  0  0  0
  -24.5626  -11.6675   20.7330 C   0  0  0  0  0  0  0  0  0  0  0  0
  -25.2240  -13.7488   20.4768 C   0  0  0  0  0  0  0  0  0  0  0  0
  -22.8198  -13.5186   21.1216 C   0  0  0  0  0  0  0  0  0  0  0  0
  -32.0895  -23.6503   25.2317 C   0  0  0  0  0  0  0  0  0  0  0  0
  -32.1806  -24.5611   22.1197 C   0  0  0  0  0  0  0  0  0  0  0  0
  -33.7137  -24.3368   19.0790 C   0  0  0  0  0  0  0  0  0  0  0  0
  -30.4527  -14.9557   20.8830 C   0  0  0  0  0  0  0  0  0  0  0  0
  -28.3818  -25.7080   28.0736 C   0  0  0  0  0  0  0  0  0  0  0  0
  -34.4882  -24.3888   24.9934 C   0  0  0  0  0  0  0  0  0  0  0  0
  -33.6577  -22.6226   22.7718 C   0  0  0  0  0  0  0  0  0  0  0  0
  -28.5318  -25.2849   26.6146 C   0  0  0  0  0  0  0  0  0  0  0  0
  -29.7012  -12.3795   18.5872 C   0  0  0  0  0  0  0  0  0  0  0  0
  -29.1128  -23.8775   26.5239 C   0  0  0  0  0  0  0  0  0  0  0  0
  -28.2518  -12.0620   18.9524 C   0  0  0  0  0  0  0  0  0  0  0  0
  -30.5591  -12.6515   19.8243 C   0  0  0  0  0  0  0  0  0  0  0  0
  -28.5562  -13.3760   21.0837 C   0  0  0  0  0  0  0  0  0  0  0  0
  -30.5120  -23.8169   27.1486 C   0  0  1  0  0  0  0  0  0  0  0  0
  -33.0772  -24.4349   24.4152 C   0  0  1  0  0  0  0  0  0  0  0  0
  -27.6593  -13.1577   19.8554 C   0  0  2  0  0  0  0  0  0  0  0  0
  -31.0363  -13.1854   23.3370 C   0  0  0  0  0  0  0  0  0  0  0  0
  -33.5364  -25.1670   16.7174 C   0  0  0  0  0  0  0  0  0  0  0  0
  -32.6307  -17.0834   22.0266 C   0  0  0  0  0  0  0  0  0  0  0  0
  -33.7050  -16.3795   19.8647 C   0  0  0  0  0  0  0  0  0  0  0  0
  -29.8713  -22.6312   21.6171 C   0  0  0  0  0  0  0  0  0  0  0  0
  -30.3675  -22.7849   19.1680 C   0  0  0  0  0  0  0  0  0  0  0  0
  -29.6762  -24.8232   20.4291 C   0  0  0  0  0  0  0  0  0  0  0  0
  -36.3640  -25.6468   19.2177 C   0  0  0  0  0  0  0  0  0  0  0  0
  -36.3076  -15.2716   24.5194 C   0  0  0  0  0  0  0  0  0  0  0  0
  -32.8012  -14.0555   21.1643 C   0  0  0  0  0  0  0  0  0  0  0  0
  -36.3398  -16.7888   24.7345 C   0  0  0  0  0  0  0  0  0  0  0  0
  -37.7498  -17.3295   24.9758 C   0  0  0  0  0  0  0  0  0  0  0  0
  -37.7376  -18.8316   25.2244 C   0  0  0  0  0  0  0  0  0  1  0  0
  -31.9862  -23.8631   20.7953 C   0  0  1  0  0  0  0  0  0  0  0  0
  -34.1490  -25.4025   18.0893 C   0  0  2  0  0  0  0  0  0  0  0  0
  -32.4095  -16.4392   20.6638 C   0  0  0  0  0  0  0  0  0  0  0  0
  -30.4954  -23.5173   20.5207 C   0  0  0  0  0  0  0  0  0  0  0  0
  -25.8514  -11.5700   20.3959 N   0  0  0  0  0  0  0  0  0  0  0  0
  -26.2255  -12.8521   20.2467 N   0  0  0  0  0  0  0  0  0  0  0  0
  -33.0094  -23.9152   23.0479 N   0  0  0  0  0  0  0  0  0  0  0  0
  -29.9343  -13.6680   20.6817 N   0  0  0  0  0  0  0  0  0  0  0  0
  -25.4281  -15.0791   20.3710 N   0  0  0  0  0  0  0  0  0  0  0  0
  -21.7963  -12.6115   21.4278 N   0  0  0  0  0  0  0  0  0  0  0  0
  -31.4936  -24.3771   26.2447 N   0  0  0  0  0  0  0  0  0  0  0  0
  -32.5956  -24.7236   19.7870 N   0  0  0  0  0  0  0  0  0  0  0  0
  -31.8460  -15.1051   20.8145 N   0  0  0  0  0  0  0  0  0  0  0  0
  -35.6326  -25.4029   17.9478 N   0  3  0  0  0  0  0  0  0  0  0  0
  -22.5710  -14.7481   21.1221 O   0  0  0  0  0  0  0  0  0  0  0  0
  -31.8821  -22.4731   24.9615 O   0  0  0  0  0  0  0  0  0  0  0  0
  -31.6234  -25.6432   22.3204 O   0  0  0  0  0  0  0  0  0  0  0  0
  -34.3042  -23.2667   19.2081 O   0  0  0  0  0  0  0  0  0  0  0  0
  -29.7125  -15.9193   21.1192 O   0  0  0  0  0  0  0  0  0  0  0  0
  -21.5599   -7.0527   21.7102 O   0  0  0  0  0  0  0  0  0  0  0  0
  -37.1716  -19.4827   24.0877 O   0  0  0  0  0  0  0  0  0  1  0  0
  -23.8414   -3.1280   24.8399 F   0  0  0  0  0  0  0  0  0  0  0  0
  -23.9205   -5.8289   20.9535 F   0  0  0  0  0  0  0  0  0  0  0  0
  1  2  1  0  0  0  0
  1  5  2  0  0  0  0
  2  6  2  0  0  0  0
  3 10  2  0  0  0  0
  3 18  1  0  0  0  0
  4 11  1  0  0  0  0
  4 18  2  0  0  0  0
  5 20  1  0  0  0  0
  6 22  1  0  0  0  0
  7 12  2  0  0  0  0
  7 21  1  0  0  0  0
  8  9  2  0  0  0  0
  8 24  1  0  0  0  0
  9 25  1  0  0  0  0
 10 27  1  0  0  0  0
 11 27  2  0  0  0  0
 12 28  1  0  0  0  0
 13 14  2  0  0  0  0
 13 29  1  0  0  0  0
 14 30  1  0  0  0  0
 15 23  1  0  0  0  0
 15 28  2  0  0  0  0
 16 24  2  0  0  0  0
 16 26  1  0  0  0  0
 17 30  2  0  0  0  0
 17 31  1  0  0  0  0
 18 32  1  0  0  0  0
 19 32  1  0  0  0  0
 19 33  2  0  0  0  0
 19 34  1  0  0  0  0
 20 22  2  0  0  0  0
 20 39  1  0  0  0  0
 21 23  2  0  0  0  0
 21 40  1  0  0  0  0
 22 48  1  0  0  0  0
 23 41  1  0  0  0  0
 24 59  1  0  0  0  0
 25 26  2  0  0  0  0
 25 51  1  0  0  0  0
 26 60  1  0  0  0  0
 27 83  1  0  0  0  0
 28 84  1  0  0  0  0
 29 31  2  0  0  0  0
 29 83  1  0  0  0  0
 30 85  1  0  0  0  0
 31 86  1  0  0  0  0
 32 68  2  0  0  0  0
 33 69  1  0  0  0  0
 33 72  1  0  0  0  0
 34 73  1  0  0  0  0
 34 78  2  0  0  0  0
 35 49  1  0  0  0  0
 35 74  1  0  0  0  0
 35 79  2  0  0  0  0
 36 64  1  0  0  0  0
 36 70  1  0  0  0  0
 36 80  2  0  0  0  0
 37 65  1  0  0  0  0
 37 75  1  0  0  0  0
 37 81  2  0  0  0  0
 38 71  1  0  0  0  0
 38 76  1  0  0  0  0
 38 82  2  0  0  0  0
 39 42  1  0  0  0  0
 40 49  1  0  0  0  0
 41 70  1  0  0  0  0
 42 44  1  0  0  0  0
 43 45  1  0  0  0  0
 43 46  1  0  0  0  0
 44 48  1  0  0  0  0
 45 50  1  0  0  0  0
 46 71  1  0  0  0  0
 47 50  1  0  0  0  0
 47 71  1  0  0  0  0
 48 74  1  0  0  0  0
 49 70  1  0  0  0  0
 50 69  1  0  0  0  0
 52 65  1  0  0  0  0
 53 66  1  0  0  0  0
 54 66  1  0  0  0  0
 55 67  1  0  0  0  0
 56 67  1  0  0  0  0
 57 67  1  0  0  0  0
 58 77  1  0  0  0  0
 59 61  1  0  0  0  0
 60 76  1  0  0  0  0
 61 62  1  0  0  0  0
 62 63  1  0  0  0  0
 63 84  1  0  0  0  0
 64 67  1  0  0  0  0
 64 75  1  0  0  0  0
 65 77  1  0  0  0  0
 66 76  1  0  0  0  0
 68 69  1  0  0  0  0
M  CHG  1  77   1
M  ISO  4  38 100  63 101  76 100  84 101
M  END
> <Batch ID>
0084

> <Smiles>
CNC(C)C(=O)NC(C(=O)N1Cc2cc([101O:1][101CH2:1]CCCc3ccc(C)c(C[100N:0](C(C)C)[100C:0](=O)N4CCCC(n5nc(-c6ccc(Oc7ccc(F)cc7F)cc6)c(C(N)=O)c5N)C4)c3)ccc2CC1C(=O)NC1CCCc2ccccc21)C(C)(C)C

> <Shape>
0.178

> <Color>
0.184

> <Negative vol penalty>
0.000

$$$$

  -OEChem-04052318543D

 85 93  0     1  0  0  0  0  0999 V2000
  -27.2652  -33.4486   26.4545 C   0  0  0  0  0  0  0  0  0  0  0  0
  -27.6069  -32.3353   25.6934 C   0  0  0  0  0  0  0  0  0  0  0  0
  -25.4464  -16.2908   20.8213 C   0  0  0  0  0  0  0  0  0  0  0  0
  -25.9025  -15.9933   18.4675 C   0  0  0  0  0  0  0  0  0  0  0  0
  -25.9419  -33.6429   26.8482 C   0  0  0  0  0  0  0  0  0  0  0  0
  -26.6256  -31.4150   25.3267 C   0  0  0  0  0  0  0  0  0  0  0  0
  -26.9764  -30.0340   20.4672 C   0  0  0  0  0  0  0  0  0  0  0  0
  -24.8215  -15.0443   20.8578 C   0  0  0  0  0  0  0  0  0  0  0  0
  -25.2776  -14.7467   18.5040 C   0  0  0  0  0  0  0  0  0  0  0  0
  -27.9615  -29.1035   20.1392 C   0  0  0  0  0  0  0  0  0  0  0  0
  -26.0375  -11.6098   19.5053 C   0  0  0  0  0  0  0  0  0  0  0  0
  -26.6770  -10.5470   18.8672 C   0  0  0  0  0  0  0  0  0  0  0  0
  -26.2992  -27.3553   20.1320 C   0  0  0  0  0  0  0  0  0  0  0  0
  -30.9702  -23.6161   14.8281 C   0  0  0  0  0  0  0  0  0  0  0  0
  -24.7635  -10.2647   17.4195 C   0  0  0  0  0  0  0  0  0  0  0  0
  -25.9868  -16.7653   19.6261 C   0  0  0  0  0  0  0  0  0  0  0  0
  -27.9933  -18.3291   19.8164 C   0  0  0  0  0  0  0  0  0  0  0  0
  -24.9422  -32.7296   26.4779 C   0  0  0  0  0  0  0  0  0  0  0  0
  -25.6450  -29.6297   20.6410 C   0  0  0  0  0  0  0  0  0  0  0  0
  -25.2879  -31.5966   25.7170 C   0  0  0  0  0  0  0  0  0  0  0  0
  -25.2987  -28.2831   20.4597 C   0  0  0  0  0  0  0  0  0  0  0  0
  -32.3456  -23.3968   15.0876 C   0  0  0  0  0  0  0  0  0  0  0  0
  -24.7371  -14.2722   19.6992 C   0  0  0  0  0  0  0  0  0  0  0  0
  -27.6234  -27.7634   19.9744 C   0  0  0  0  0  0  0  0  0  0  0  0
  -24.7609  -12.0000   19.1006 C   0  0  0  0  0  0  0  0  0  0  0  0
  -26.0401   -9.8745   17.8243 C   0  0  0  0  0  0  0  0  0  0  0  0
  -24.1239  -11.3274   18.0577 C   0  0  0  0  0  0  0  0  0  0  0  0
  -26.6319  -18.0531   19.5877 C   0  0  0  0  0  0  0  0  0  0  0  0
  -30.4984  -24.4676   15.8026 C   0  0  0  0  0  0  0  0  0  0  0  0
  -32.6723  -24.1207   16.2130 C   0  0  0  0  0  0  0  0  0  0  0  0
  -28.0981  -19.6901   19.6638 C   0  0  0  0  0  0  0  0  0  0  0  0
  -29.0672  -17.4352   20.1379 C   0  0  0  0  0  0  0  0  0  0  0  0
  -23.5869  -29.6688   23.0631 C   0  0  0  0  0  0  0  0  0  0  0  0
  -21.5053  -28.6322   20.8015 C   0  0  0  0  0  0  0  0  0  0  0  0
  -21.0223  -27.0600   17.8112 C   0  0  0  0  0  0  0  0  0  0  0  0
  -26.9108  -24.3813   16.8838 C   0  0  0  0  0  0  0  0  0  0  0  0
  -23.5338  -32.9571   26.9672 C   0  0  0  0  0  0  0  0  0  0  0  0
  -24.5896  -30.6502   20.9685 C   0  0  0  0  0  0  0  0  0  0  0  0
  -23.8802  -27.8012   20.6152 C   0  0  0  0  0  0  0  0  0  0  0  0
  -22.4889  -32.1321   26.2204 C   0  0  0  0  0  0  0  0  0  0  0  0
  -24.5202  -23.2433   19.2642 C   0  0  0  0  0  0  0  0  0  0  0  0
  -22.9480  -30.6836   26.0870 C   0  0  0  0  0  0  0  0  0  0  0  0
  -24.9651  -21.8130   19.5744 C   0  0  0  0  0  0  0  0  0  0  0  0
  -24.7449  -23.5984   17.7961 C   0  0  0  0  0  0  0  0  0  0  0  0
  -26.5636  -21.9449   17.6183 C   0  0  0  0  0  0  0  0  0  0  0  0
  -24.2475  -30.5889   25.2785 C   0  0  1  0  0  0  0  0  0  0  0  0
  -23.3546  -30.0425   21.6264 C   0  0  1  0  0  0  0  0  0  0  0  0
  -26.4085  -21.5593   19.0994 C   0  0  2  0  0  0  0  0  0  0  0  0
  -33.2547  -22.5474   14.2927 C   0  0  0  0  0  0  0  0  0  0  0  0
  -33.9646  -24.2520   16.9193 C   0  0  0  0  0  0  0  0  0  0  0  0
  -19.2067  -26.3283   16.2410 C   0  0  0  0  0  0  0  0  0  0  0  0
  -20.8384  -26.3062   22.6603 C   0  0  0  0  0  0  0  0  0  0  0  0
  -19.7878  -25.1398   20.7100 C   0  0  0  0  0  0  0  0  0  0  0  0
  -18.8644  -27.3168   21.5043 C   0  0  0  0  0  0  0  0  0  0  0  0
  -29.9427  -24.9378   21.3829 C   0  0  0  0  0  0  0  0  0  0  0  0
  -32.0800  -26.1338   20.8935 C   0  0  0  0  0  0  0  0  0  0  0  0
  -22.0644  -28.7641   15.6275 C   0  0  0  0  0  0  0  0  0  0  0  0
  -29.1420  -25.0178   16.0029 C   0  0  0  0  0  0  0  0  0  0  0  0
  -30.7965  -24.9595   19.0325 C   0  0  0  0  0  0  0  0  0  0  0  0
  -31.4575  -25.6717   17.8450 C   0  0  0  0  0  0  0  0  0  0  0  0
  -29.9064  -27.1134   20.1211 C   0  0  0  0  0  0  0  0  0  1  0  0
  -21.0771  -27.2811   20.2816 C   0  0  1  0  0  0  0  0  0  0  0  0
  -20.1872  -27.4340   16.5999 C   0  0  2  0  0  0  0  0  0  0  0  0
  -20.1691  -26.5194   21.2879 C   0  0  0  0  0  0  0  0  0  0  0  0
  -30.6849  -25.7979   20.3372 C   0  0  0  0  0  0  0  0  0  0  0  0
  -25.9227  -19.1506   19.3110 N   0  0  0  0  0  0  0  0  0  0  0  0
  -31.5417  -24.7674   16.6392 N   0  0  0  0  0  0  0  0  0  0  0  0
  -26.8420  -20.1295   19.3649 N   0  0  0  0  0  0  0  0  0  0  0  0
  -22.8854  -28.8361   20.9419 N   0  0  0  0  0  0  0  0  0  0  0  0
  -26.1334  -23.3363   17.4098 N   0  0  0  0  0  0  0  0  0  0  0  0
  -29.1412  -20.5419   19.7575 N   0  0  0  0  0  0  0  0  0  0  0  0
  -28.7851  -16.0675   20.2569 N   0  0  0  0  0  0  0  0  0  0  0  0
  -23.9738  -30.7263   23.8640 N   0  0  0  0  0  0  0  0  0  0  0  0
  -20.4587  -27.5211   18.9822 N   0  0  0  0  0  0  0  0  0  0  0  0
  -28.2179  -24.0491   16.5493 N   0  0  0  0  0  0  0  0  0  0  0  0
  -21.0657  -27.6836   15.4222 N   0  3  0  0  0  0  0  0  0  0  0  0
  -30.2389  -17.8394   20.3306 O   0  0  0  0  0  0  0  0  0  0  0  0
  -23.4255  -28.5074   23.4189 O   0  0  0  0  0  0  0  0  0  0  0  0
  -20.6473  -29.4779   21.0664 O   0  0  0  0  0  0  0  0  0  0  0  0
  -22.0678  -26.4194   17.7275 O   0  0  0  0  0  0  0  0  0  0  0  0
  -26.4741  -25.5269   16.7291 O   0  0  0  0  0  0  0  0  0  0  0  0
  -24.1277  -13.0557   19.7345 O   0  0  0  0  0  0  0  0  0  0  0  0
  -28.5831  -26.8530   19.6549 O   0  0  0  0  0  0  0  0  0  1  0  0
  -26.6549   -8.8549   17.2106 F   0  0  0  0  0  0  0  0  0  0  0  0
  -22.8980  -11.6985   17.6636 F   0  0  0  0  0  0  0  0  0  0  0  0
  1  2  1  0  0  0  0
  1  5  2  0  0  0  0
  2  6  2  0  0  0  0
  3  8  2  0  0  0  0
  3 16  1  0  0  0  0
  4  9  1  0  0  0  0
  4 16  2  0  0  0  0
  5 18  1  0  0  0  0
  6 20  1  0  0  0  0
  7 10  2  0  0  0  0
  7 19  1  0  0  0  0
  8 23  1  0  0  0  0
  9 23  2  0  0  0  0
 10 24  1  0  0  0  0
 11 12  2  0  0  0  0
 11 25  1  0  0  0  0
 12 26  1  0  0  0  0
 13 21  1  0  0  0  0
 13 24  2  0  0  0  0
 14 22  1  0  0  0  0
 14 29  2  0  0  0  0
 15 26  2  0  0  0  0
 15 27  1  0  0  0  0
 16 28  1  0  0  0  0
 17 28  1  0  0  0  0
 17 31  2  0  0  0  0
 17 32  1  0  0  0  0
 18 20  2  0  0  0  0
 18 37  1  0  0  0  0
 19 21  2  0  0  0  0
 19 38  1  0  0  0  0
 20 46  1  0  0  0  0
 21 39  1  0  0  0  0
 22 30  2  0  0  0  0
 22 49  1  0  0  0  0
 23 82  1  0  0  0  0
 24 83  1  0  0  0  0
 25 27  2  0  0  0  0
 25 82  1  0  0  0  0
 26 84  1  0  0  0  0
 27 85  1  0  0  0  0
 28 66  2  0  0  0  0
 29 58  1  0  0  0  0
 29 67  1  0  0  0  0
 30 50  1  0  0  0  0
 30 67  1  0  0  0  0
 31 68  1  0  0  0  0
 31 71  1  0  0  0  0
 32 72  1  0  0  0  0
 32 77  2  0  0  0  0
 33 47  1  0  0  0  0
 33 73  1  0  0  0  0
 33 78  2  0  0  0  0
 34 62  1  0  0  0  0
 34 69  1  0  0  0  0
 34 79  2  0  0  0  0
 35 63  1  0  0  0  0
 35 74  1  0  0  0  0
 35 80  2  0  0  0  0
 36 70  1  0  0  0  0
 36 75  1  0  0  0  0
 36 81  2  0  0  0  0
 37 40  1  0  0  0  0
 38 47  1  0  0  0  0
 39 69  1  0  0  0  0
 40 42  1  0  0  0  0
 41 43  1  0  0  0  0
 41 44  1  0  0  0  0
 42 46  1  0  0  0  0
 43 48  1  0  0  0  0
 44 70  1  0  0  0  0
 45 48  1  0  0  0  0
 45 70  1  0  0  0  0
 46 73  1  0  0  0  0
 47 69  1  0  0  0  0
 48 68  1  0  0  0  0
 51 63  1  0  0  0  0
 52 64  1  0  0  0  0
 53 64  1  0  0  0  0
 54 64  1  0  0  0  0
 55 65  1  0  0  0  0
 56 65  1  0  0  0  0
 57 76  1  0  0  0  0
 58 75  1  0  0  0  0
 59 60  1  0  0  0  0
 59 65  1  0  0  0  0
 60 67  1  0  0  0  0
 61 65  1  0  0  0  0
 61 83  1  0  0  0  0
 62 64  1  0  0  0  0
 62 74  1  0  0  0  0
 63 76  1  0  0  0  0
 66 68  1  0  0  0  0
M  CHG  1  76   1
M  ISO  4  36 100  61 101  75 100  83 101
M  END
> <Batch ID>
0084

> <Smiles>
CNC(C)C(=O)NC(C(=O)N1Cc2cc([101O:1][101CH2:1]C(C)(C)CCn3c(C[100NH:0][100C:0](=O)N4CCCC(n5nc(-c6ccc(Oc7ccc(F)cc7F)cc6)c(C(N)=O)c5N)C4)cc(C)c3C)ccc2CC1C(=O)NC1CCCc2ccccc21)C(C)(C)C

> <Shape>
0.240

> <Color>
0.087

> <Negative vol penalty>
0.000

$$$$

  -OEChem-04052318543D

 89 97  0     1  0  0  0  0  0999 V2000
  -20.5249   -9.5833   19.0820 C   0  0  0  0  0  0  0  0  0  0  0  0
  -19.7303  -10.7020   19.3111 C   0  0  0  0  0  0  0  0  0  0  0  0
  -29.1853  -26.2726   17.6943 C   0  0  0  0  0  0  0  0  0  0  0  0
  -28.6280  -24.9256   19.6210 C   0  0  0  0  0  0  0  0  0  0  0  0
  -21.6955   -9.3989   19.8167 C   0  0  0  0  0  0  0  0  0  0  0  0
  -20.1052  -11.6364   20.2758 C   0  0  0  0  0  0  0  0  0  0  0  0
  -19.7981  -18.6575   21.6639 C   0  0  0  0  0  0  0  0  0  0  0  0
  -30.4409  -25.6681   17.6349 C   0  0  0  0  0  0  0  0  0  0  0  0
  -29.8836  -24.3210   19.5615 C   0  0  0  0  0  0  0  0  0  0  0  0
  -19.4010  -19.5407   22.6669 C   0  0  0  0  0  0  0  0  0  0  0  0
  -32.8078  -22.1649   19.6981 C   0  0  0  0  0  0  0  0  0  0  0  0
  -32.8685  -20.7789   19.8424 C   0  0  0  0  0  0  0  0  0  0  0  0
  -21.4852  -19.1588   23.8200 C   0  0  0  0  0  0  0  0  0  0  0  0
  -18.5183  -25.8446   22.7239 C   0  0  0  0  0  0  0  0  0  0  0  0
  -31.4617  -20.5146   17.8961 C   0  0  0  0  0  0  0  0  0  0  0  0
  -28.2788  -25.9014   18.6874 C   0  0  0  0  0  0  0  0  0  0  0  0
  -25.8018  -26.1002   18.1110 C   0  0  0  0  0  0  0  0  0  0  0  0
  -22.0899  -10.3365   20.7841 C   0  0  0  0  0  0  0  0  0  0  0  0
  -21.0392  -18.0088   21.7371 C   0  0  0  0  0  0  0  0  0  0  0  0
  -21.2814  -11.4637   21.0250 C   0  0  0  0  0  0  0  0  0  0  0  0
  -21.8968  -18.2697   22.8153 C   0  0  0  0  0  0  0  0  0  0  0  0
  -18.7635  -27.0418   22.0071 C   0  0  0  0  0  0  0  0  0  0  0  0
  -30.7901  -24.6923   18.5684 C   0  0  0  0  0  0  0  0  0  0  0  0
  -20.2434  -19.7893   23.7466 C   0  0  0  0  0  0  0  0  0  0  0  0
  -32.0739  -22.7258   18.6529 C   0  0  0  0  0  0  0  0  0  0  0  0
  -32.1955  -19.9537   18.9414 C   0  0  0  0  0  0  0  0  0  0  0  0
  -31.4009  -21.9007   17.7519 C   0  0  0  0  0  0  0  0  0  0  0  0
  -26.9818  -26.5259   18.7497 C   0  0  0  0  0  0  0  0  0  0  0  0
  -19.2072  -25.9290   23.9136 C   0  0  0  0  0  0  0  0  0  0  0  0
  -19.5951  -27.8213   22.7807 C   0  0  0  0  0  0  0  0  0  0  0  0
  -24.8566  -27.0241   18.4846 C   0  0  0  0  0  0  0  0  0  0  0  0
  -25.5798  -24.9705   17.2564 C   0  0  0  0  0  0  0  0  0  0  0  0
  -21.9784  -14.9781   21.9282 C   0  0  0  0  0  0  0  0  0  0  0  0
  -24.9320  -16.2804   21.6076 C   0  0  0  0  0  0  0  0  0  0  0  0
  -26.9490  -19.0101   21.9643 C   0  0  0  0  0  0  0  0  0  0  0  0
  -22.4172  -30.1877   22.3814 C   0  0  0  0  0  0  0  0  0  0  0  0
  -23.3390  -10.0700   21.5864 C   0  0  0  0  0  0  0  0  0  0  0  0
  -21.4641  -17.0793   20.6335 C   0  0  0  0  0  0  0  0  0  0  0  0
  -23.2480  -17.6144   22.9305 C   0  0  0  0  0  0  0  0  0  0  0  0
  -23.8602  -11.2983   22.3279 C   0  0  0  0  0  0  0  0  0  0  0  0
  -25.3530  -31.4764   20.8333 C   0  0  0  0  0  0  0  0  0  0  0  0
  -22.7190  -12.0136   23.0441 C   0  0  0  0  0  0  0  0  0  0  0  0
  -25.9439  -30.2673   20.1062 C   0  0  0  0  0  0  0  0  0  0  0  0
  -24.7179  -31.0797   22.1642 C   0  0  0  0  0  0  0  0  0  0  0  0
  -24.3085  -28.7905   21.3484 C   0  0  0  0  0  0  0  0  0  0  0  0
  -21.6675  -12.5123   22.0456 C   0  0  1  0  0  0  0  0  0  0  0  0
  -22.5316  -16.0811   21.0709 C   0  0  1  0  0  0  0  0  0  0  0  0
  -24.9109  -29.1320   19.9748 C   0  0  2  0  0  0  0  0  0  0  0  0
  -18.2228  -27.3837   20.6764 C   0  0  0  0  0  0  0  0  0  0  0  0
  -17.9208  -24.7219   25.6954 C   0  0  0  0  0  0  0  0  0  0  0  0
  -29.3243  -19.7581   21.6550 C   0  0  0  0  0  0  0  0  0  0  0  0
  -23.4004  -28.8919   25.9600 C   0  0  0  0  0  0  0  0  0  0  0  0
  -24.3698  -26.5814   26.0454 C   0  0  0  0  0  0  0  0  0  0  0  0
  -22.3992  -27.1670   27.4651 C   0  0  0  0  0  0  0  0  0  0  0  0
  -25.7318  -14.7797   24.1410 C   0  0  0  0  0  0  0  0  0  0  0  0
  -27.7355  -16.2715   24.3085 C   0  0  0  0  0  0  0  0  0  0  0  0
  -27.4608  -14.7719   22.3340 C   0  0  0  0  0  0  0  0  0  0  0  0
  -26.1647  -21.0737   19.9931 C   0  0  0  0  0  0  0  0  0  0  0  0
  -20.1617  -29.1614   22.5176 C   0  0  0  0  0  0  0  0  0  0  0  0
  -20.3752  -22.7367   25.8332 C   0  0  0  0  0  0  0  0  0  0  0  0
  -19.9092  -23.5792   24.6369 C   0  0  0  0  0  0  0  0  0  0  0  0
  -22.0762  -26.9395   24.9916 C   0  0  0  0  0  0  0  0  0  0  0  0
  -20.6959  -27.6096   25.0185 C   0  0  0  0  0  0  0  0  0  0  0  0
  -20.8895  -21.3671   25.4046 C   0  0  0  0  0  0  0  0  0  1  0  0
  -19.2993  -24.9339   25.0575 C   0  0  1  0  0  0  0  0  0  0  0  0
  -25.9775  -16.8068   22.5609 C   0  0  1  0  0  0  0  0  0  0  0  0
  -27.9465  -19.6558   21.0195 C   0  0  2  0  0  0  0  0  0  0  0  0
  -23.0673  -27.3969   26.0951 C   0  0  0  0  0  0  0  0  0  0  0  0
  -26.7002  -15.6685   23.3352 C   0  0  0  0  0  0  0  0  0  0  0  0
  -26.8051  -27.6341   19.4740 N   0  0  0  0  0  0  0  0  0  0  0  0
  -19.8584  -27.1347   23.9371 N   0  0  0  0  0  0  0  0  0  0  0  0
  -25.5029  -27.9126   19.2926 N   0  0  0  0  0  0  0  0  0  0  0  0
  -23.6155  -16.7088   21.8294 N   0  0  0  0  0  0  0  0  0  0  0  0
  -23.7470  -30.0002   21.9698 N   0  0  0  0  0  0  0  0  0  0  0  0
  -23.5441  -27.1550   18.1973 N   0  0  0  0  0  0  0  0  0  0  0  0
  -26.6600  -24.1229   16.9754 N   0  0  0  0  0  0  0  0  0  0  0  0
  -22.1273  -13.7158   21.3863 N   0  0  0  0  0  0  0  0  0  0  0  0
  -26.8670  -17.6479   21.7673 N   0  0  0  0  0  0  0  0  0  0  0  0
  -21.5607  -29.1173   22.1547 N   0  0  0  0  0  0  0  0  0  0  0  0
  -27.4965  -21.0276   20.6497 N   0  3  0  0  0  0  0  0  0  0  0  0
  -24.4606  -24.7294   16.7437 O   0  0  0  0  0  0  0  0  0  0  0  0
  -21.4565  -15.2520   23.0027 O   0  0  0  0  0  0  0  0  0  0  0  0
  -25.2719  -15.5230   20.6953 O   0  0  0  0  0  0  0  0  0  0  0  0
  -26.3095  -19.6496   22.7965 O   0  0  0  0  0  0  0  0  0  0  0  0
  -22.0212  -31.2337   22.9069 O   0  0  0  0  0  0  0  0  0  0  0  0
  -32.0152  -24.1020   18.5106 O   0  0  0  0  0  0  0  0  0  0  0  0
  -19.8580  -20.6505   24.7273 O   0  0  0  0  0  0  0  0  0  1  0  0
  -32.2552  -18.6227   19.0791 F   0  0  0  0  0  0  0  0  0  0  0  0
  -30.6952  -22.4337   16.7450 F   0  0  0  0  0  0  0  0  0  0  0  0
  1  2  1  0  0  0  0
  1  5  2  0  0  0  0
  2  6  2  0  0  0  0
  3  8  2  0  0  0  0
  3 16  1  0  0  0  0
  4  9  1  0  0  0  0
  4 16  2  0  0  0  0
  5 18  1  0  0  0  0
  6 20  1  0  0  0  0
  7 10  2  0  0  0  0
  7 19  1  0  0  0  0
  8 23  1  0  0  0  0
  9 23  2  0  0  0  0
 10 24  1  0  0  0  0
 11 12  2  0  0  0  0
 11 25  1  0  0  0  0
 12 26  1  0  0  0  0
 13 21  1  0  0  0  0
 13 24  2  0  0  0  0
 14 22  1  0  0  0  0
 14 29  2  0  0  0  0
 15 26  2  0  0  0  0
 15 27  1  0  0  0  0
 16 28  1  0  0  0  0
 17 28  1  0  0  0  0
 17 31  2  0  0  0  0
 17 32  1  0  0  0  0
 18 20  2  0  0  0  0
 18 37  1  0  0  0  0
 19 21  2  0  0  0  0
 19 38  1  0  0  0  0
 20 46  1  0  0  0  0
 21 39  1  0  0  0  0
 22 30  2  0  0  0  0
 22 49  1  0  0  0  0
 23 86  1  0  0  0  0
 24 87  1  0  0  0  0
 25 27  2  0  0  0  0
 25 86  1  0  0  0  0
 26 88  1  0  0  0  0
 27 89  1  0  0  0  0
 28 70  2  0  0  0  0
 29 65  1  0  0  0  0
 29 71  1  0  0  0  0
 30 59  1  0  0  0  0
 30 71  1  0  0  0  0
 31 72  1  0  0  0  0
 31 75  1  0  0  0  0
 32 76  1  0  0  0  0
 32 81  2  0  0  0  0
 33 47  1  0  0  0  0
 33 77  1  0  0  0  0
 33 82  2  0  0  0  0
 34 66  1  0  0  0  0
 34 73  1  0  0  0  0
 34 83  2  0  0  0  0
 35 67  1  0  0  0  0
 35 78  1  0  0  0  0
 35 84  2  0  0  0  0
 36 74  1  0  0  0  0
 36 79  1  0  0  0  0
 36 85  2  0  0  0  0
 37 40  1  0  0  0  0
 38 47  1  0  0  0  0
 39 73  1  0  0  0  0
 40 42  1  0  0  0  0
 41 43  1  0  0  0  0
 41 44  1  0  0  0  0
 42 46  1  0  0  0  0
 43 48  1  0  0  0  0
 44 74  1  0  0  0  0
 45 48  1  0  0  0  0
 45 74  1  0  0  0  0
 46 77  1  0  0  0  0
 47 73  1  0  0  0  0
 48 72  1  0  0  0  0
 50 65  1  0  0  0  0
 51 67  1  0  0  0  0
 52 68  1  0  0  0  0
 53 68  1  0  0  0  0
 54 68  1  0  0  0  0
 55 69  1  0  0  0  0
 56 69  1  0  0  0  0
 57 69  1  0  0  0  0
 58 80  1  0  0  0  0
 59 79  1  0  0  0  0
 60 61  1  0  0  0  0
 60 64  1  0  0  0  0
 61 65  1  0  0  0  0
 62 63  1  0  0  0  0
 62 68  1  0  0  0  0
 63 71  1  0  0  0  0
 64 87  1  0  0  0  0
 66 69  1  0  0  0  0
 66 78  1  0  0  0  0
 67 80  1  0  0  0  0
 70 72  1  0  0  0  0
M  CHG  1  80   1
M  ISO  4  36 100  64 101  79 100  87 101
M  END
> <Batch ID>
0084

> <Smiles>
CNC(C)C(=O)NC(C(=O)N1Cc2cc([101O:1][101CH2:1]CCC(C)c3cc(C)c(C[100NH:0][100C:0](=O)N4CCCC(n5nc(-c6ccc(Oc7ccc(F)cc7F)cc6)c(C(N)=O)c5N)C4)n3CCC(C)(C)C)ccc2CC1C(=O)NC1CCCc2ccccc21)C(C)(C)C

> <Shape>
0.202

> <Color>
0.066

> <Negative vol penalty>
0.000

$$$$

  -OEChem-04052318543D

 84 92  0     1  0  0  0  0  0999 V2000
  -16.4412  -20.1014   28.3690 C   0  0  0  0  0  0  0  0  0  0  0  0
  -17.8306  -20.1691   28.3835 C   0  0  0  0  0  0  0  0  0  0  0  0
  -23.1019   -9.8724   19.9313 C   0  0  0  0  0  0  0  0  0  0  0  0
  -23.8174   -9.9191   22.2385 C   0  0  0  0  0  0  0  0  0  0  0  0
  -15.7304  -20.6206   27.2877 C   0  0  0  0  0  0  0  0  0  0  0  0
  -18.5102  -20.7550   27.3162 C   0  0  0  0  0  0  0  0  0  0  0  0
  -23.6878  -24.0142   27.5923 C   0  0  0  0  0  0  0  0  0  0  0  0
  -22.3676   -8.7134   20.1824 C   0  0  0  0  0  0  0  0  0  0  0  0
  -23.0830   -8.7601   22.4896 C   0  0  0  0  0  0  0  0  0  0  0  0
  -25.0208  -23.6788   27.3594 C   0  0  0  0  0  0  0  0  0  0  0  0
  -19.8539   -7.9298   23.0410 C   0  0  0  0  0  0  0  0  0  0  0  0
  -19.0751   -7.8957   24.1976 C   0  0  0  0  0  0  0  0  0  0  0  0
  -24.8304  -24.5128   25.1039 C   0  0  0  0  0  0  0  0  0  0  0  0
  -20.3259   -5.9839   24.9835 C   0  0  0  0  0  0  0  0  0  0  0  0
  -27.9969  -20.0619   22.5923 C   0  0  0  0  0  0  0  0  0  0  0  0
  -23.8269  -10.4753   20.9593 C   0  0  0  0  0  0  0  0  0  0  0  0
  -24.1398  -13.0027   20.8121 C   0  0  0  0  0  0  0  0  0  0  0  0
  -16.4011  -21.2218   26.2110 C   0  0  0  0  0  0  0  0  0  0  0  0
  -22.9116  -24.5924   26.5776 C   0  0  0  0  0  0  0  0  0  0  0  0
  -17.8078  -21.2815   26.2188 C   0  0  0  0  0  0  0  0  0  0  0  0
  -23.4885  -24.8570   25.3272 C   0  0  0  0  0  0  0  0  0  0  0  0
  -22.3581   -8.1572   21.4615 C   0  0  0  0  0  0  0  0  0  0  0  0
  -25.5915  -23.9254   26.1142 C   0  0  0  0  0  0  0  0  0  0  0  0
  -20.8687   -6.9908   22.8555 C   0  0  0  0  0  0  0  0  0  0  0  0
  -19.3111   -6.9228   25.1689 C   0  0  0  0  0  0  0  0  0  0  0  0
  -21.1047   -6.0179   23.8268 C   0  0  0  0  0  0  0  0  0  0  0  0
  -24.5860  -11.6722   20.7004 C   0  0  0  0  0  0  0  0  0  0  0  0
  -28.2098  -18.8470   22.0045 C   0  0  0  0  0  0  0  0  0  0  0  0
  -25.2295  -13.7610   20.4597 C   0  0  0  0  0  0  0  0  0  0  0  0
  -27.0189  -18.5180   23.8414 C   0  0  0  0  0  0  0  0  0  0  0  0
  -22.8553  -13.5080   21.1997 C   0  0  0  0  0  0  0  0  0  0  0  0
  -20.2804  -23.7459   25.0080 C   0  0  0  0  0  0  0  0  0  0  0  0
  -20.5490  -26.7195   23.7401 C   0  0  0  0  0  0  0  0  0  0  0  0
  -22.5566  -29.3686   22.9661 C   0  0  0  0  0  0  0  0  0  0  0  0
  -30.6956  -14.8513   20.7391 C   0  0  0  0  0  0  0  0  0  0  0  0
  -15.5922  -21.7266   25.0425 C   0  0  0  0  0  0  0  0  0  0  0  0
  -21.4827  -24.9730   26.8531 C   0  0  0  0  0  0  0  0  0  0  0  0
  -22.7038  -25.4945   24.2108 C   0  0  0  0  0  0  0  0  0  0  0  0
  -16.3691  -22.6670   24.1247 C   0  0  0  0  0  0  0  0  0  0  0  0
  -29.6336  -12.4215   18.3632 C   0  0  0  0  0  0  0  0  0  0  0  0
  -17.7470  -22.0914   23.8134 C   0  0  0  0  0  0  0  0  0  0  0  0
  -28.1918  -12.1155   18.7725 C   0  0  0  0  0  0  0  0  0  0  0  0
  -30.5247  -12.6696   19.5783 C   0  0  0  0  0  0  0  0  0  0  0  0
  -28.5877  -13.3949   20.9184 C   0  0  0  0  0  0  0  0  0  0  0  0
  -18.5797  -21.9316   25.0911 C   0  0  1  0  0  0  0  0  0  0  0  0
  -20.6394  -25.0852   25.5867 C   0  0  1  0  0  0  0  0  0  0  0  0
  -27.6386  -13.1926   19.7248 C   0  0  2  0  0  0  0  0  0  0  0  0
  -26.2573  -17.8412   24.9206 C   0  0  0  0  0  0  0  0  0  0  0  0
  -22.4974  -31.6399   21.9008 C   0  0  0  0  0  0  0  0  0  0  0  0
  -28.5703  -22.9718   27.4813 C   0  0  0  0  0  0  0  0  0  0  0  0
  -20.4139  -25.4200   20.9827 C   0  0  0  0  0  0  0  0  0  0  0  0
  -21.2982  -27.5515   20.0116 C   0  0  0  0  0  0  0  0  0  0  0  0
  -19.1060  -27.5404   21.2019 C   0  0  0  0  0  0  0  0  0  0  0  0
  -23.4428  -30.6898   25.4616 C   0  0  0  0  0  0  0  0  0  0  0  0
  -28.9269  -18.4753   20.7821 C   0  0  0  0  0  0  0  0  0  0  0  0
  -30.4350  -18.1564   20.9676 C   0  0  0  0  0  0  0  0  0  0  0  0
  -27.8940  -21.4180   25.6151 C   0  0  0  0  0  0  0  0  0  0  0  0
  -26.7884  -20.8900   24.6895 C   0  0  0  0  0  0  0  0  0  0  0  0
  -30.7111  -17.0186   21.9482 C   0  0  0  0  0  0  0  0  0  0  0  0
  -21.2416  -27.3095   22.5354 C   0  0  1  0  0  0  0  0  0  0  0  0
  -22.3927  -30.8592   23.2017 C   0  0  2  0  0  0  0  0  0  0  0  0
  -27.4204  -22.4874   26.6072 C   0  0  2  0  0  0  0  0  0  1  0  0
  -20.5294  -26.9416   21.2031 C   0  0  0  0  0  0  0  0  0  0  0  0
  -25.8598  -11.5868   20.3077 N   0  0  0  0  0  0  0  0  0  0  0  0
  -27.2571  -19.8286   23.7265 N   0  0  0  0  0  0  0  0  0  0  0  0
  -26.2233  -12.8732   20.1694 N   0  0  0  0  0  0  0  0  0  0  0  0
  -27.5939  -17.9100   22.7988 N   0  3  0  0  0  0  0  0  0  0  0  0
  -21.3088  -25.8426   24.5273 N   0  0  0  0  0  0  0  0  0  0  0  0
  -29.9445  -13.7027   20.4398 N   0  0  0  0  0  0  0  0  0  0  0  0
  -25.4248  -15.0940   20.3729 N   0  0  0  0  0  0  0  0  0  0  0  0
  -21.8483  -12.5907   21.5297 N   0  0  0  0  0  0  0  0  0  0  0  0
  -19.1103  -23.2106   25.5119 N   0  0  0  0  0  0  0  0  0  0  0  0
  -21.3410  -28.7437   22.7835 N   0  0  0  0  0  0  0  0  0  0  0  0
  -30.0690  -15.7835   21.5571 N   0  0  0  0  0  0  0  0  0  0  0  0
  -23.4449  -31.3551   24.1333 N   0  3  0  0  0  0  0  0  0  0  0  0
  -22.6028  -14.7362   21.2361 O   0  0  0  0  0  0  0  0  0  0  0  0
  -21.0100  -23.2365   24.1654 O   0  0  0  0  0  0  0  0  0  0  0  0
  -19.3794  -27.0309   23.9780 O   0  0  0  0  0  0  0  0  0  0  0  0
  -23.6534  -28.8145   22.9424 O   0  0  0  0  0  0  0  0  0  0  0  0
  -31.8378  -15.0350   20.3050 O   0  0  0  0  0  0  0  0  0  0  0  0
  -21.6415   -7.0264   21.7070 O   0  0  0  0  0  0  0  0  0  0  0  0
  -26.8923  -23.5984   25.8840 O   0  0  0  0  0  0  0  0  0  1  0  0
  -18.5641   -6.8912   26.2803 F   0  0  0  0  0  0  0  0  0  0  0  0
  -22.0789   -5.1139   23.6548 F   0  0  0  0  0  0  0  0  0  0  0  0
  1  2  1  0  0  0  0
  1  5  2  0  0  0  0
  2  6  2  0  0  0  0
  3  8  2  0  0  0  0
  3 16  1  0  0  0  0
  4  9  1  0  0  0  0
  4 16  2  0  0  0  0
  5 18  1  0  0  0  0
  6 20  1  0  0  0  0
  7 10  2  0  0  0  0
  7 19  1  0  0  0  0
  8 22  1  0  0  0  0
  9 22  2  0  0  0  0
 10 23  1  0  0  0  0
 11 12  2  0  0  0  0
 11 24  1  0  0  0  0
 12 25  1  0  0  0  0
 13 21  1  0  0  0  0
 13 23  2  0  0  0  0
 14 25  2  0  0  0  0
 14 26  1  0  0  0  0
 15 28  2  0  0  0  0
 15 65  1  0  0  0  0
 16 27  1  0  0  0  0
 17 27  1  0  0  0  0
 17 29  2  0  0  0  0
 17 31  1  0  0  0  0
 18 20  2  0  0  0  0
 18 36  1  0  0  0  0
 19 21  2  0  0  0  0
 19 37  1  0  0  0  0
 20 45  1  0  0  0  0
 21 38  1  0  0  0  0
 22 81  1  0  0  0  0
 23 82  1  0  0  0  0
 24 26  2  0  0  0  0
 24 81  1  0  0  0  0
 25 83  1  0  0  0  0
 26 84  1  0  0  0  0
 27 64  2  0  0  0  0
 28 55  1  0  0  0  0
 28 67  1  0  0  0  0
 29 66  1  0  0  0  0
 29 70  1  0  0  0  0
 30 48  1  0  0  0  0
 30 65  1  0  0  0  0
 30 67  2  0  0  0  0
 31 71  1  0  0  0  0
 31 76  2  0  0  0  0
 32 46  1  0  0  0  0
 32 72  1  0  0  0  0
 32 77  2  0  0  0  0
 33 60  1  0  0  0  0
 33 68  1  0  0  0  0
 33 78  2  0  0  0  0
 34 61  1  0  0  0  0
 34 73  1  0  0  0  0
 34 79  2  0  0  0  0
 35 69  1  0  0  0  0
 35 74  1  0  0  0  0
 35 80  2  0  0  0  0
 36 39  1  0  0  0  0
 37 46  1  0  0  0  0
 38 68  1  0  0  0  0
 39 41  1  0  0  0  0
 40 42  1  0  0  0  0
 40 43  1  0  0  0  0
 41 45  1  0  0  0  0
 42 47  1  0  0  0  0
 43 69  1  0  0  0  0
 44 47  1  0  0  0  0
 44 69  1  0  0  0  0
 45 72  1  0  0  0  0
 46 68  1  0  0  0  0
 47 66  1  0  0  0  0
 49 61  1  0  0  0  0
 50 62  1  0  0  0  0
 51 63  1  0  0  0  0
 52 63  1  0  0  0  0
 53 63  1  0  0  0  0
 54 75  1  0  0  0  0
 55 56  1  0  0  0  0
 56 59  1  0  0  0  0
 57 58  1  0  0  0  0
 57 62  1  0  0  0  0
 58 65  1  0  0  0  0
 59 74  1  0  0  0  0
 60 63  1  0  0  0  0
 60 73  1  0  0  0  0
 61 75  1  0  0  0  0
 62 82  1  0  0  0  0
 64 66  1  0  0  0  0
M  CHG  2  67   1  75   1
M  ISO  4  35 100  62 101  74 100  82 101
M  END
> <Batch ID>
0084

> <Smiles>
CNC(C)C(=O)NC(C(=O)N1Cc2cc([101O:1][101CH:1](C)CCn3cc(CCC[100NH:0][100C:0](=O)N4CCCC(n5nc(-c6ccc(Oc7ccc(F)cc7F)cc6)c(C(N)=O)c5N)C4)nc3C)ccc2CC1C(=O)NC1CCCc2ccccc21)C(C)(C)C

> <Shape>
0.246

> <Color>
0.228

> <Negative vol penalty>
0.000

$$$$

  -OEChem-04052318543D

 84 92  0     1  0  0  0  0  0999 V2000
  -23.3263  -30.8137   17.0013 C   0  0  0  0  0  0  0  0  0  0  0  0
  -23.5983  -29.4991   16.6361 C   0  0  0  0  0  0  0  0  0  0  0  0
  -22.8860  -11.2840   17.1240 C   0  0  0  0  0  0  0  0  0  0  0  0
  -23.0159  -10.0530   19.1988 C   0  0  0  0  0  0  0  0  0  0  0  0
  -24.0691  -31.4232   18.0117 C   0  0  0  0  0  0  0  0  0  0  0  0
  -24.6140  -28.7936   17.2802 C   0  0  0  0  0  0  0  0  0  0  0  0
  -26.3447  -22.1663   19.3777 C   0  0  0  0  0  0  0  0  0  0  0  0
  -22.0186  -10.3216   16.6072 C   0  0  0  0  0  0  0  0  0  0  0  0
  -22.1485   -9.0906   18.6821 C   0  0  0  0  0  0  0  0  0  0  0  0
  -27.3841  -21.2423   19.2791 C   0  0  0  0  0  0  0  0  0  0  0  0
  -20.0533   -8.0007   14.6137 C   0  0  0  0  0  0  0  0  0  0  0  0
  -20.2833   -7.5490   13.3142 C   0  0  0  0  0  0  0  0  0  0  0  0
  -28.5491  -22.3713   21.0644 C   0  0  0  0  0  0  0  0  0  0  0  0
  -27.4471  -18.1813   22.0635 C   0  0  0  0  0  0  0  0  0  0  0  0
  -22.4737   -6.7706   13.9725 C   0  0  0  0  0  0  0  0  0  0  0  0
  -23.3847  -11.1497   18.4197 C   0  0  0  0  0  0  0  0  0  0  0  0
  -23.9336  -13.3067   19.6662 C   0  0  0  0  0  0  0  0  0  0  0  0
  -25.0880  -30.7216   18.6751 C   0  0  0  0  0  0  0  0  0  0  0  0
  -26.4049  -23.2079   20.3146 C   0  0  0  0  0  0  0  0  0  0  0  0
  -25.3720  -29.3947   18.2995 C   0  0  0  0  0  0  0  0  0  0  0  0
  -27.5081  -23.3057   21.1747 C   0  0  0  0  0  0  0  0  0  0  0  0
  -28.7086  -17.6202   22.1570 C   0  0  0  0  0  0  0  0  0  0  0  0
  -21.6498   -9.2249   17.3863 C   0  0  0  0  0  0  0  0  0  0  0  0
  -28.4878  -21.3464   20.1205 C   0  0  0  0  0  0  0  0  0  0  0  0
  -21.0335   -7.8374   15.5926 C   0  0  0  0  0  0  0  0  0  0  0  0
  -21.4935   -6.9339   12.9936 C   0  0  0  0  0  0  0  0  0  0  0  0
  -22.2437   -7.2223   15.2720 C   0  0  0  0  0  0  0  0  0  0  0  0
  -24.2811  -12.1433   18.9539 C   0  0  0  0  0  0  0  0  0  0  0  0
  -26.6186  -18.0956   23.1643 C   0  0  0  0  0  0  0  0  0  0  0  0
  -29.0582  -17.0108   23.3453 C   0  0  0  0  0  0  0  0  0  0  0  0
  -25.1356  -13.9082   19.9488 C   0  0  0  0  0  0  0  0  0  0  0  0
  -22.6399  -13.7997   20.0391 C   0  0  0  0  0  0  0  0  0  0  0  0
  -26.4597  -26.3813   20.1404 C   0  0  0  0  0  0  0  0  0  0  0  0
  -26.2504  -26.1734   23.3708 C   0  0  0  0  0  0  0  0  0  0  0  0
  -26.7739  -24.3310   26.1954 C   0  0  0  0  0  0  0  0  0  0  0  0
  -30.4381  -13.6186   21.6650 C   0  0  0  0  0  0  0  0  0  0  0  0
  -25.8954  -31.4379   19.7285 C   0  0  0  0  0  0  0  0  0  0  0  0
  -25.2632  -24.1808   20.4266 C   0  0  0  0  0  0  0  0  0  0  0  0
  -27.6116  -24.3935   22.2112 C   0  0  0  0  0  0  0  0  0  0  0  0
  -26.7052  -30.4987   20.6186 C   0  0  0  0  0  0  0  0  0  0  0  0
  -29.7917  -12.9275   18.2326 C   0  0  0  0  0  0  0  0  0  0  0  0
  -27.4382  -29.4619   19.7733 C   0  0  0  0  0  0  0  0  0  0  0  0
  -28.2733  -12.7518   18.1745 C   0  0  0  0  0  0  0  0  0  0  0  0
  -30.3755  -12.3675   19.5278 C   0  0  0  0  0  0  0  0  0  0  0  0
  -28.2367  -12.7098   20.7034 C   0  0  0  0  0  0  0  0  0  0  0  0
  -26.4494  -28.5884   18.9917 C   0  0  1  0  0  0  0  0  0  0  0  0
  -25.6670  -25.5047   21.0682 C   0  0  1  0  0  0  0  0  0  0  0  0
  -27.5954  -13.3097   19.4404 C   0  0  2  0  0  0  0  0  0  0  0  0
  -25.2500  -18.6833   23.1152 C   0  0  0  0  0  0  0  0  0  0  0  0
  -31.2228  -17.0797   24.6235 C   0  0  0  0  0  0  0  0  0  0  0  0
  -26.5394  -24.4421   28.6914 C   0  0  0  0  0  0  0  0  0  0  0  0
  -28.7182  -27.9616   23.5206 C   0  0  0  0  0  0  0  0  0  0  0  0
  -28.9910  -27.2665   25.9103 C   0  0  0  0  0  0  0  0  0  0  0  0
  -26.9403  -28.4946   25.1967 C   0  0  0  0  0  0  0  0  0  0  0  0
  -24.8958  -22.0441   26.2370 C   0  0  0  0  0  0  0  0  0  0  0  0
  -29.6534  -17.6865   20.9838 C   0  0  0  0  0  0  0  0  0  0  0  0
  -30.7590  -18.7326   21.1417 C   0  0  0  0  0  0  0  0  0  0  0  0
  -30.3375  -14.8645   23.8090 C   0  0  0  0  0  0  0  0  0  0  0  0
  -30.2322  -20.1609   21.2195 C   0  0  0  0  0  0  0  0  0  1  0  0
  -30.4002  -16.3838   23.5190 C   0  0  1  0  0  0  0  0  0  0  0  0
  -27.2449  -26.0826   24.5029 C   0  0  1  0  0  0  0  0  0  0  0  0
  -25.8782  -24.0334   27.3843 C   0  0  2  0  0  0  0  0  0  0  0  0
  -27.9728  -27.4319   24.7619 C   0  0  0  0  0  0  0  0  0  0  0  0
  -25.6006  -12.0116   18.7937 N   0  0  0  0  0  0  0  0  0  0  0  0
  -26.9871  -17.4930   24.3147 N   0  0  0  0  0  0  0  0  0  0  0  0
  -28.2271  -16.9419   24.4066 N   0  0  0  0  0  0  0  0  0  0  0  0
  -26.0928  -13.1001   19.4093 N   0  0  0  0  0  0  0  0  0  0  0  0
  -26.4727  -25.3242   22.2775 N   0  0  0  0  0  0  0  0  0  0  0  0
  -29.6902  -12.9378   20.6902 N   0  0  0  0  0  0  0  0  0  0  0  0
  -25.4566  -15.0443   20.6035 N   0  0  0  0  0  0  0  0  0  0  0  0
  -21.5100  -13.0578   19.6688 N   0  0  0  0  0  0  0  0  0  0  0  0
  -25.8580  -27.5933   19.8604 N   0  0  0  0  0  0  0  0  0  0  0  0
  -26.5082  -25.5707   25.6534 N   0  0  0  0  0  0  0  0  0  0  0  0
  -29.7101  -14.1336   22.7306 N   0  0  0  0  0  0  0  0  0  0  0  0
  -25.5700  -22.5768   27.4489 N   0  3  0  0  0  0  0  0  0  0  0  0
  -22.4895  -14.8749   20.6674 O   0  0  0  0  0  0  0  0  0  0  0  0
  -27.5381  -25.9879   19.7116 O   0  0  0  0  0  0  0  0  0  0  0  0
  -25.3069  -26.9634   23.4565 O   0  0  0  0  0  0  0  0  0  0  0  0
  -27.6268  -23.5441   25.7905 O   0  0  0  0  0  0  0  0  0  0  0  0
  -31.6631  -13.7617   21.5885 O   0  0  0  0  0  0  0  0  0  0  0  0
  -20.8033   -8.2857   16.8824 O   0  0  0  0  0  0  0  0  0  0  0  0
  -29.5040  -20.4462   20.0259 O   0  0  0  0  0  0  0  0  0  1  0  0
  -21.7136   -6.4988   11.7461 F   0  0  0  0  0  0  0  0  0  0  0  0
  -23.1887   -7.0616   16.2085 F   0  0  0  0  0  0  0  0  0  0  0  0
  1  2  1  0  0  0  0
  1  5  2  0  0  0  0
  2  6  2  0  0  0  0
  3  8  2  0  0  0  0
  3 16  1  0  0  0  0
  4  9  1  0  0  0  0
  4 16  2  0  0  0  0
  5 18  1  0  0  0  0
  6 20  1  0  0  0  0
  7 10  2  0  0  0  0
  7 19  1  0  0  0  0
  8 23  1  0  0  0  0
  9 23  2  0  0  0  0
 10 24  1  0  0  0  0
 11 12  2  0  0  0  0
 11 25  1  0  0  0  0
 12 26  1  0  0  0  0
 13 21  1  0  0  0  0
 13 24  2  0  0  0  0
 14 22  1  0  0  0  0
 14 29  2  0  0  0  0
 15 26  2  0  0  0  0
 15 27  1  0  0  0  0
 16 28  1  0  0  0  0
 17 28  1  0  0  0  0
 17 31  2  0  0  0  0
 17 32  1  0  0  0  0
 18 20  2  0  0  0  0
 18 37  1  0  0  0  0
 19 21  2  0  0  0  0
 19 38  1  0  0  0  0
 20 46  1  0  0  0  0
 21 39  1  0  0  0  0
 22 30  2  0  0  0  0
 22 56  1  0  0  0  0
 23 81  1  0  0  0  0
 24 82  1  0  0  0  0
 25 27  2  0  0  0  0
 25 81  1  0  0  0  0
 26 83  1  0  0  0  0
 27 84  1  0  0  0  0
 28 64  2  0  0  0  0
 29 49  1  0  0  0  0
 29 65  1  0  0  0  0
 30 60  1  0  0  0  0
 30 66  1  0  0  0  0
 31 67  1  0  0  0  0
 31 70  1  0  0  0  0
 32 71  1  0  0  0  0
 32 76  2  0  0  0  0
 33 47  1  0  0  0  0
 33 72  1  0  0  0  0
 33 77  2  0  0  0  0
 34 61  1  0  0  0  0
 34 68  1  0  0  0  0
 34 78  2  0  0  0  0
 35 62  1  0  0  0  0
 35 73  1  0  0  0  0
 35 79  2  0  0  0  0
 36 69  1  0  0  0  0
 36 74  1  0  0  0  0
 36 80  2  0  0  0  0
 37 40  1  0  0  0  0
 38 47  1  0  0  0  0
 39 68  1  0  0  0  0
 40 42  1  0  0  0  0
 41 43  1  0  0  0  0
 41 44  1  0  0  0  0
 42 46  1  0  0  0  0
 43 48  1  0  0  0  0
 44 69  1  0  0  0  0
 45 48  1  0  0  0  0
 45 69  1  0  0  0  0
 46 72  1  0  0  0  0
 47 68  1  0  0  0  0
 48 67  1  0  0  0  0
 50 60  1  0  0  0  0
 51 62  1  0  0  0  0
 52 63  1  0  0  0  0
 53 63  1  0  0  0  0
 54 63  1  0  0  0  0
 55 75  1  0  0  0  0
 56 57  1  0  0  0  0
 57 59  1  0  0  0  0
 58 60  1  0  0  0  0
 58 74  1  0  0  0  0
 59 82  1  0  0  0  0
 61 63  1  0  0  0  0
 61 73  1  0  0  0  0
 62 75  1  0  0  0  0
 64 67  1  0  0  0  0
 65 66  2  0  0  0  0
M  CHG  1  75   1
M  ISO  4  36 100  59 101  74 100  82 101
M  END
> <Batch ID>
0084

> <Smiles>
CNC(C)C(=O)NC(C(=O)N1Cc2cc([101O:1][101CH2:1]CCc3cc(C)nnc3C(C)C[100NH:0][100C:0](=O)N3CCCC(n4nc(-c5ccc(Oc6ccc(F)cc6F)cc5)c(C(N)=O)c4N)C3)ccc2CC1C(=O)NC1CCCc2ccccc21)C(C)(C)C

> <Shape>
0.163

> <Color>
0.101

> <Negative vol penalty>
0.000

$$$$

  -OEChem-04052318543D

 86 94  0     1  0  0  0  0  0999 V2000
  -21.6780  -11.2633   19.8629 C   0  0  0  0  0  0  0  0  0  0  0  0
  -21.4708  -12.6209   20.0849 C   0  0  0  0  0  0  0  0  0  0  0  0
  -30.2207  -28.4804   18.0467 C   0  0  0  0  0  0  0  0  0  0  0  0
  -30.5689  -28.3586   20.4344 C   0  0  0  0  0  0  0  0  0  0  0  0
  -22.9434  -10.7114   20.0579 C   0  0  0  0  0  0  0  0  0  0  0  0
  -22.5287  -13.4273   20.5031 C   0  0  0  0  0  0  0  0  0  0  0  0
  -23.5067  -19.2853   19.0084 C   0  0  0  0  0  0  0  0  0  0  0  0
  -31.4243  -29.1713   17.9065 C   0  0  0  0  0  0  0  0  0  0  0  0
  -31.7725  -29.0495   20.2942 C   0  0  0  0  0  0  0  0  0  0  0  0
  -23.2380  -20.4806   19.6740 C   0  0  0  0  0  0  0  0  0  0  0  0
  -34.7244  -28.4381   17.8412 C   0  0  0  0  0  0  0  0  0  0  0  0
  -35.5819  -28.0444   16.8140 C   0  0  0  0  0  0  0  0  0  0  0  0
  -25.4964  -20.5092   20.5215 C   0  0  0  0  0  0  0  0  0  0  0  0
  -35.4416  -30.2552   15.8496 C   0  0  0  0  0  0  0  0  0  0  0  0
  -18.7428  -26.1747   21.4881 C   0  0  0  0  0  0  0  0  0  0  0  0
  -29.7930  -28.0741   19.3107 C   0  0  0  0  0  0  0  0  0  0  0  0
  -28.3591  -25.9667   19.4132 C   0  0  0  0  0  0  0  0  0  0  0  0
  -24.0197  -11.5133   20.4693 C   0  0  0  0  0  0  0  0  0  0  0  0
  -24.7710  -18.6863   19.1035 C   0  0  0  0  0  0  0  0  0  0  0  0
  -23.8095  -12.8854   20.7050 C   0  0  0  0  0  0  0  0  0  0  0  0
  -25.7793  -19.3076   19.8542 C   0  0  0  0  0  0  0  0  0  0  0  0
  -19.7010  -26.6685   22.3586 C   0  0  0  0  0  0  0  0  0  0  0  0
  -19.3397  -27.7167   23.1977 C   0  0  0  0  0  0  0  0  0  0  0  0
  -18.0494  -28.2318   23.1414 C   0  0  0  0  0  0  0  0  0  0  0  0
  -32.2002  -29.4559   19.0302 C   0  0  0  0  0  0  0  0  0  0  0  0
  -24.2321  -21.0912   20.4330 C   0  0  0  0  0  0  0  0  0  0  0  0
  -34.2254  -29.7403   17.8727 C   0  0  0  0  0  0  0  0  0  0  0  0
  -35.9406  -28.9530   15.8182 C   0  0  0  0  0  0  0  0  0  0  0  0
  -34.5840  -30.6488   16.8769 C   0  0  0  0  0  0  0  0  0  0  0  0
  -28.5495  -27.3609   19.4563 C   0  0  0  0  0  0  0  0  0  0  0  0
  -17.1652  -27.6682   22.2357 C   0  0  0  0  0  0  0  0  0  0  0  0
  -27.0091  -25.7986   19.6023 C   0  0  0  0  0  0  0  0  0  0  0  0
  -29.3168  -24.9175   19.2196 C   0  0  0  0  0  0  0  0  0  0  0  0
  -25.8636  -15.9184   20.2211 C   0  0  0  0  0  0  0  0  0  0  0  0
  -28.6650  -16.9615   18.9615 C   0  0  0  0  0  0  0  0  0  0  0  0
  -30.5889  -19.5970   17.9616 C   0  0  0  0  0  0  0  0  0  0  0  0
  -22.9725  -29.1382   22.3241 C   0  0  0  0  0  0  0  0  0  0  0  0
  -25.3584  -10.8627   20.7124 C   0  0  0  0  0  0  0  0  0  0  0  0
  -25.0529  -17.4108   18.3578 C   0  0  0  0  0  0  0  0  0  0  0  0
  -27.1593  -18.7158   19.9718 C   0  0  0  0  0  0  0  0  0  0  0  0
  -26.5132  -11.8576   20.7950 C   0  0  0  0  0  0  0  0  0  0  0  0
  -22.8239  -28.0084   18.8892 C   0  0  0  0  0  0  0  0  0  0  0  0
  -26.1427  -13.0320   21.6951 C   0  0  0  0  0  0  0  0  0  0  0  0
  -24.2723  -27.5798   18.6470 C   0  0  0  0  0  0  0  0  0  0  0  0
  -22.7555  -29.2536   19.7683 C   0  0  0  0  0  0  0  0  0  0  0  0
  -24.9050  -28.6954   20.8368 C   0  0  0  0  0  0  0  0  0  0  0  0
  -24.9377  -13.7976   21.1352 C   0  0  1  0  0  0  0  0  0  0  0  0
  -26.2208  -16.6224   18.9426 C   0  0  1  0  0  0  0  0  0  0  0  0
  -25.0410  -27.4283   19.9730 C   0  0  2  0  0  0  0  0  0  0  0  0
  -17.6307  -29.3548   24.0297 C   0  0  0  0  0  0  0  0  0  0  0  0
  -15.2145  -28.0647   20.7111 C   0  0  0  0  0  0  0  0  0  0  0  0
  -32.8469  -20.1385   17.0101 C   0  0  0  0  0  0  0  0  0  0  0  0
  -29.9307  -16.4752   21.6949 C   0  0  0  0  0  0  0  0  0  0  0  0
  -31.8662  -17.8896   20.9727 C   0  0  0  0  0  0  0  0  0  0  0  0
  -31.3430  -15.7779   19.7523 C   0  0  0  0  0  0  0  0  0  0  0  0
  -29.4042  -20.8121   15.5370 C   0  0  0  0  0  0  0  0  0  0  0  0
  -21.0851  -26.0702   22.3755 C   0  0  0  0  0  0  0  0  0  0  0  0
  -20.3364  -28.2860   24.1558 C   0  0  0  0  0  0  0  0  0  0  0  0
  -15.7659  -28.1800   22.1289 C   0  0  0  0  0  0  0  0  0  0  0  0
  -21.1908  -24.7333   21.6334 C   0  0  0  0  0  0  0  0  0  0  0  0
  -22.5820  -24.1050   21.7270 C   0  0  0  0  0  0  0  0  0  0  0  0
  -20.9508  -29.6076   23.6840 C   0  0  0  0  0  0  0  0  0  0  0  0
  -22.6597  -22.8001   20.9460 C   0  0  0  0  0  0  0  0  0  1  0  0
  -29.8264  -17.7810   19.4700 C   0  0  1  0  0  0  0  0  0  0  0  0
  -31.3904  -19.8356   16.6947 C   0  0  2  0  0  0  0  0  0  0  0  0
  -30.7151  -16.9913   20.4720 C   0  0  0  0  0  0  0  0  0  0  0  0
  -17.4797  -26.6492   21.4047 N   0  0  0  0  0  0  0  0  0  0  0  0
  -27.4115  -28.0308   19.6569 N   0  0  0  0  0  0  0  0  0  0  0  0
  -26.4930  -27.0534   19.7415 N   0  0  0  0  0  0  0  0  0  0  0  0
  -27.3839  -17.4645   19.2294 N   0  0  0  0  0  0  0  0  0  0  0  0
  -23.4907  -29.0369   21.0223 N   0  0  0  0  0  0  0  0  0  0  0  0
  -26.2250  -24.7013   19.6614 N   0  0  0  0  0  0  0  0  0  0  0  0
  -30.6625  -25.2659   19.0404 N   0  0  0  0  0  0  0  0  0  0  0  0
  -25.3456  -14.6503   20.0393 N   0  0  0  0  0  0  0  0  0  0  0  0
  -30.5372  -18.2585   18.2888 N   0  0  0  0  0  0  0  0  0  0  0  0
  -21.6267  -29.4724   22.4128 N   0  0  0  0  0  0  0  0  0  0  0  0
  -30.8255  -20.9854   15.9332 N   0  3  0  0  0  0  0  0  0  0  0  0
  -28.9867  -23.7077   19.1895 O   0  0  0  0  0  0  0  0  0  0  0  0
  -26.0459  -16.4833   21.2931 O   0  0  0  0  0  0  0  0  0  0  0  0
  -28.8864  -15.9175   18.3430 O   0  0  0  0  0  0  0  0  0  0  0  0
  -30.0645  -20.5073   18.5994 O   0  0  0  0  0  0  0  0  0  0  0  0
  -23.6575  -28.9401   23.3334 O   0  0  0  0  0  0  0  0  0  0  0  0
  -33.3748  -30.1298   18.8936 O   0  0  0  0  0  0  0  0  0  0  0  0
  -23.9723  -22.2576   21.0841 O   0  0  0  0  0  0  0  0  0  1  0  0
  -36.7653  -28.5753   14.8326 F   0  0  0  0  0  0  0  0  0  0  0  0
  -34.1088  -31.9016   16.9024 F   0  0  0  0  0  0  0  0  0  0  0  0
  1  2  1  0  0  0  0
  1  5  2  0  0  0  0
  2  6  2  0  0  0  0
  3  8  2  0  0  0  0
  3 16  1  0  0  0  0
  4  9  1  0  0  0  0
  4 16  2  0  0  0  0
  5 18  1  0  0  0  0
  6 20  1  0  0  0  0
  7 10  2  0  0  0  0
  7 19  1  0  0  0  0
  8 25  1  0  0  0  0
  9 25  2  0  0  0  0
 10 26  1  0  0  0  0
 11 12  2  0  0  0  0
 11 27  1  0  0  0  0
 12 28  1  0  0  0  0
 13 21  1  0  0  0  0
 13 26  2  0  0  0  0
 14 28  2  0  0  0  0
 14 29  1  0  0  0  0
 15 22  1  0  0  0  0
 15 67  2  0  0  0  0
 16 30  1  0  0  0  0
 17 30  1  0  0  0  0
 17 32  2  0  0  0  0
 17 33  1  0  0  0  0
 18 20  2  0  0  0  0
 18 38  1  0  0  0  0
 19 21  2  0  0  0  0
 19 39  1  0  0  0  0
 20 47  1  0  0  0  0
 21 40  1  0  0  0  0
 22 23  2  0  0  0  0
 22 57  1  0  0  0  0
 23 24  1  0  0  0  0
 23 58  1  0  0  0  0
 24 31  2  0  0  0  0
 24 50  1  0  0  0  0
 25 83  1  0  0  0  0
 26 84  1  0  0  0  0
 27 29  2  0  0  0  0
 27 83  1  0  0  0  0
 28 85  1  0  0  0  0
 29 86  1  0  0  0  0
 30 68  2  0  0  0  0
 31 59  1  0  0  0  0
 31 67  1  0  0  0  0
 32 69  1  0  0  0  0
 32 72  1  0  0  0  0
 33 73  1  0  0  0  0
 33 78  2  0  0  0  0
 34 48  1  0  0  0  0
 34 74  1  0  0  0  0
 34 79  2  0  0  0  0
 35 64  1  0  0  0  0
 35 70  1  0  0  0  0
 35 80  2  0  0  0  0
 36 65  1  0  0  0  0
 36 75  1  0  0  0  0
 36 81  2  0  0  0  0
 37 71  1  0  0  0  0
 37 76  1  0  0  0  0
 37 82  2  0  0  0  0
 38 41  1  0  0  0  0
 39 48  1  0  0  0  0
 40 70  1  0  0  0  0
 41 43  1  0  0  0  0
 42 44  1  0  0  0  0
 42 45  1  0  0  0  0
 43 47  1  0  0  0  0
 44 49  1  0  0  0  0
 45 71  1  0  0  0  0
 46 49  1  0  0  0  0
 46 71  1  0  0  0  0
 47 74  1  0  0  0  0
 48 70  1  0  0  0  0
 49 69  1  0  0  0  0
 51 59  1  0  0  0  0
 52 65  1  0  0  0  0
 53 66  1  0  0  0  0
 54 66  1  0  0  0  0
 55 66  1  0  0  0  0
 56 77  1  0  0  0  0
 57 60  1  0  0  0  0
 58 62  1  0  0  0  0
 60 61  1  0  0  0  0
 61 63  1  0  0  0  0
 62 76  1  0  0  0  0
 63 84  1  0  0  0  0
 64 66  1  0  0  0  0
 64 75  1  0  0  0  0
 65 77  1  0  0  0  0
 68 69  1  0  0  0  0
M  CHG  1  77   1
M  ISO  4  37 100  63 101  76 100  84 101
M  END
> <Batch ID>
0084

> <Smiles>
CCc1ncc(CCC[101CH2:1][101O:1]c2ccc3c(c2)CN(C(=O)C(NC(=O)C(C)NC)C(C)(C)C)C(C(=O)NC2CCCc4ccccc42)C3)c(CC[100NH:0][100C:0](=O)N2CCCC(n3nc(-c4ccc(Oc5ccc(F)cc5F)cc4)c(C(N)=O)c3N)C2)c1C

> <Shape>
0.253

> <Color>
0.086

> <Negative vol penalty>
0.000

$$$$

  -OEChem-04052318543D

 94102  0     1  0  0  0  0  0999 V2000
  -16.9641  -30.8817   23.5314 C   0  0  0  0  0  0  0  0  0  0  0  0
  -18.3033  -30.6826   23.8513 C   0  0  0  0  0  0  0  0  0  0  0  0
  -23.2997   -9.9744   21.7608 C   0  0  0  0  0  0  0  0  0  0  0  0
  -23.9694  -11.1335   23.7721 C   0  0  0  0  0  0  0  0  0  0  0  0
  -16.1050  -29.7891   23.4212 C   0  0  0  0  0  0  0  0  0  0  0  0
  -18.7839  -29.3908   24.0623 C   0  0  0  0  0  0  0  0  0  0  0  0
  -24.6836  -25.4194   23.2029 C   0  0  0  0  0  0  0  0  0  0  0  0
  -22.5905   -9.0512   22.5290 C   0  0  0  0  0  0  0  0  0  0  0  0
  -23.2601  -10.2103   24.5403 C   0  0  0  0  0  0  0  0  0  0  0  0
  -25.5314  -24.5800   23.9243 C   0  0  0  0  0  0  0  0  0  0  0  0
  -19.6202   -8.9087   24.1382 C   0  0  0  0  0  0  0  0  0  0  0  0
  -18.3357   -8.5652   23.7165 C   0  0  0  0  0  0  0  0  0  0  0  0
  -23.9732  -22.7624   23.6293 C   0  0  0  0  0  0  0  0  0  0  0  0
  -19.0187   -6.2564   23.5168 C   0  0  0  0  0  0  0  0  0  0  0  0
  -23.9892  -11.0156   22.3823 C   0  0  0  0  0  0  0  0  0  0  0  0
  -24.2406  -13.1785   21.0533 C   0  0  0  0  0  0  0  0  0  0  0  0
  -16.5775  -28.4825   23.6215 C   0  0  0  0  0  0  0  0  0  0  0  0
  -23.4670  -24.9386   22.6978 C   0  0  0  0  0  0  0  0  0  0  0  0
  -17.9300  -28.2798   23.9561 C   0  0  0  0  0  0  0  0  0  0  0  0
  -23.1128  -23.5969   22.8997 C   0  0  0  0  0  0  0  0  0  0  0  0
  -29.9565  -19.0945   23.8040 C   0  0  0  0  0  0  0  0  0  0  0  0
  -30.0865  -18.6292   22.4722 C   0  0  0  0  0  0  0  0  0  0  0  0
  -22.5706   -9.1691   23.9187 C   0  0  0  0  0  0  0  0  0  0  0  0
  -25.1750  -23.2521   24.1401 C   0  0  0  0  0  0  0  0  0  0  0  0
  -20.6039   -7.9260   24.2491 C   0  0  0  0  0  0  0  0  0  0  0  0
  -18.0350   -7.2391   23.4058 C   0  0  0  0  0  0  0  0  0  0  0  0
  -20.3032   -6.5999   23.9384 C   0  0  0  0  0  0  0  0  0  0  0  0
  -24.7226  -11.9693   21.5894 C   0  0  0  0  0  0  0  0  0  0  0  0
  -29.9637  -17.9908   24.6280 C   0  0  0  0  0  0  0  0  0  0  0  0
  -30.1689  -17.2551   22.5229 C   0  0  0  0  0  0  0  0  0  0  0  0
  -25.3171  -13.7124   20.3881 C   0  0  0  0  0  0  0  0  0  0  0  0
  -22.9364  -13.7665   21.1481 C   0  0  0  0  0  0  0  0  0  0  0  0
  -20.4051  -25.6526   23.1655 C   0  0  0  0  0  0  0  0  0  0  0  0
  -19.9450  -23.5283   20.7576 C   0  0  0  0  0  0  0  0  0  0  0  0
  -21.1118  -20.8484   18.9959 C   0  0  0  0  0  0  0  0  0  0  0  0
  -31.2350  -13.0553   21.0191 C   0  0  0  0  0  0  0  0  0  0  0  0
  -15.6006  -27.3365   23.5381 C   0  0  0  0  0  0  0  0  0  0  0  0
  -22.5760  -25.8497   21.8988 C   0  0  0  0  0  0  0  0  0  0  0  0
  -21.8272  -23.0265   22.3609 C   0  0  0  0  0  0  0  0  0  0  0  0
  -16.2722  -25.9718   23.4089 C   0  0  0  0  0  0  0  0  0  0  0  0
  -29.3115  -12.4273   18.0894 C   0  0  0  0  0  0  0  0  0  0  0  0
  -17.4085  -25.8383   24.4177 C   0  0  0  0  0  0  0  0  0  0  0  0
  -27.8738  -12.3479   18.6058 C   0  0  0  0  0  0  0  0  0  0  0  0
  -30.3021  -11.8238   19.0826 C   0  0  0  0  0  0  0  0  0  0  0  0
  -28.7830  -12.2927   20.9657 C   0  0  0  0  0  0  0  0  0  0  0  0
  -18.4945  -26.8918   24.1680 C   0  0  1  0  0  0  0  0  0  0  0  0
  -21.1217  -25.3897   21.8712 C   0  0  1  0  0  0  0  0  0  0  0  0
  -27.7536  -12.9395   20.0232 C   0  0  2  0  0  0  0  0  0  0  0  0
  -29.8588  -17.9001   26.1000 C   0  0  0  0  0  0  0  0  0  0  0  0
  -29.1122  -15.2968   21.3387 C   0  0  0  0  0  0  0  0  0  0  0  0
  -31.6215  -15.4542   21.5225 C   0  0  0  0  0  0  0  0  0  0  0  0
  -20.4964  -19.3118   17.1098 C   0  0  0  0  0  0  0  0  0  0  0  0
  -27.3955  -20.2100   18.5339 C   0  0  0  0  0  0  0  0  0  0  0  0
  -29.0750  -21.7815   19.5188 C   0  0  0  0  0  0  0  0  0  0  0  0
  -17.9944  -22.0635   22.5905 C   0  0  0  0  0  0  0  0  0  0  0  0
  -18.1515  -20.0866   21.0623 C   0  0  0  0  0  0  0  0  0  0  0  0
  -17.2493  -22.2507   20.2105 C   0  0  0  0  0  0  0  0  0  0  0  0
  -31.5391  -13.6634   25.3956 C   0  0  0  0  0  0  0  0  0  0  0  0
  -32.5484  -15.8857   24.9096 C   0  0  0  0  0  0  0  0  0  0  0  0
  -23.4666  -21.6714   17.4034 C   0  0  0  0  0  0  0  0  0  0  0  0
  -29.8343  -20.5323   24.2419 C   0  0  0  0  0  0  0  0  0  0  0  0
  -30.1236  -19.4614   21.2520 C   0  0  0  0  0  0  0  0  0  0  0  0
  -28.4464  -21.1368   24.0019 C   0  0  0  0  0  0  0  0  0  0  0  0
  -28.7865  -19.4349   20.4775 C   0  0  0  0  0  0  0  0  0  0  0  0
  -27.3444  -20.4431   24.8040 C   0  0  0  0  0  0  0  0  0  0  0  0
  -30.1398  -15.5133   24.3194 C   0  0  0  0  0  0  0  0  0  0  0  0
  -32.0191  -14.2918   23.0229 C   0  0  0  0  0  0  0  0  0  0  0  0
  -25.9765  -21.0438   24.5100 C   0  0  0  0  0  0  0  0  0  1  0  0
  -30.3108  -16.2678   21.4313 C   0  0  0  0  0  0  0  0  0  0  0  0
  -19.7253  -22.0370   20.6750 C   0  0  1  0  0  0  0  0  0  0  0  0
  -21.2162  -20.5923   17.5033 C   0  0  2  0  0  0  0  0  0  0  0  0
  -28.7626  -20.3157   19.2144 C   0  0  0  0  0  0  0  0  0  0  0  0
  -18.3035  -21.6204   21.1465 C   0  0  0  0  0  0  0  0  0  0  0  0
  -31.5409  -14.8339   24.3911 C   0  0  0  0  0  0  0  0  0  0  0  0
  -26.0054  -11.7478   21.2905 N   0  0  0  0  0  0  0  0  0  0  0  0
  -30.0929  -16.8782   23.8383 N   0  0  0  0  0  0  0  0  0  0  0  0
  -26.3386  -12.8251   20.5593 N   0  0  0  0  0  0  0  0  0  0  0  0
  -20.9867  -23.9587   21.5915 N   0  0  0  0  0  0  0  0  0  0  0  0
  -30.1371  -12.4289   20.4065 N   0  0  0  0  0  0  0  0  0  0  0  0
  -25.4801  -14.8497   19.6793 N   0  0  0  0  0  0  0  0  0  0  0  0
  -21.9469  -13.0847   21.8695 N   0  0  0  0  0  0  0  0  0  0  0  0
  -19.3247  -26.5059   23.0471 N   0  0  0  0  0  0  0  0  0  0  0  0
  -20.0355  -21.6542   19.3018 N   0  0  0  0  0  0  0  0  0  0  0  0
  -30.9909  -13.6085   22.2701 N   0  0  0  0  0  0  0  0  0  0  0  0
  -22.6450  -20.4722   17.0971 N   0  3  0  0  0  0  0  0  0  0  0  0
  -22.6521  -14.8560   20.5952 O   0  0  0  0  0  0  0  0  0  0  0  0
  -20.8021  -25.1195   24.1950 O   0  0  0  0  0  0  0  0  0  0  0  0
  -19.2236  -24.2831   20.1007 O   0  0  0  0  0  0  0  0  0  0  0  0
  -21.9035  -20.3774   19.8095 O   0  0  0  0  0  0  0  0  0  0  0  0
  -32.3488  -13.1215   20.4880 O   0  0  0  0  0  0  0  0  0  0  0  0
  -21.8784   -8.2685   24.6686 O   0  0  0  0  0  0  0  0  0  0  0  0
  -26.0004  -22.4308   24.8444 O   0  0  0  0  0  0  0  0  0  1  0  0
  -16.8010   -6.9092   23.0024 F   0  0  0  0  0  0  0  0  0  0  0  0
  -21.2438   -5.6513   24.0441 F   0  0  0  0  0  0  0  0  0  0  0  0
  1  2  1  0  0  0  0
  1  5  2  0  0  0  0
  2  6  2  0  0  0  0
  3  8  2  0  0  0  0
  3 15  1  0  0  0  0
  4  9  1  0  0  0  0
  4 15  2  0  0  0  0
  5 17  1  0  0  0  0
  6 19  1  0  0  0  0
  7 10  2  0  0  0  0
  7 18  1  0  0  0  0
  8 23  1  0  0  0  0
  9 23  2  0  0  0  0
 10 24  1  0  0  0  0
 11 12  2  0  0  0  0
 11 25  1  0  0  0  0
 12 26  1  0  0  0  0
 13 20  1  0  0  0  0
 13 24  2  0  0  0  0
 14 26  2  0  0  0  0
 14 27  1  0  0  0  0
 15 28  1  0  0  0  0
 16 28  1  0  0  0  0
 16 31  2  0  0  0  0
 16 32  1  0  0  0  0
 17 19  2  0  0  0  0
 17 37  1  0  0  0  0
 18 20  2  0  0  0  0
 18 38  1  0  0  0  0
 19 46  1  0  0  0  0
 20 39  1  0  0  0  0
 21 22  1  0  0  0  0
 21 29  2  0  0  0  0
 21 61  1  0  0  0  0
 22 30  2  0  0  0  0
 22 62  1  0  0  0  0
 23 91  1  0  0  0  0
 24 92  1  0  0  0  0
 25 27  2  0  0  0  0
 25 91  1  0  0  0  0
 26 93  1  0  0  0  0
 27 94  1  0  0  0  0
 28 75  2  0  0  0  0
 29 49  1  0  0  0  0
 29 76  1  0  0  0  0
 30 69  1  0  0  0  0
 30 76  1  0  0  0  0
 31 77  1  0  0  0  0
 31 80  1  0  0  0  0
 32 81  1  0  0  0  0
 32 86  2  0  0  0  0
 33 47  1  0  0  0  0
 33 82  1  0  0  0  0
 33 87  2  0  0  0  0
 34 70  1  0  0  0  0
 34 78  1  0  0  0  0
 34 88  2  0  0  0  0
 35 71  1  0  0  0  0
 35 83  1  0  0  0  0
 35 89  2  0  0  0  0
 36 79  1  0  0  0  0
 36 84  1  0  0  0  0
 36 90  2  0  0  0  0
 37 40  1  0  0  0  0
 38 47  1  0  0  0  0
 39 78  1  0  0  0  0
 40 42  1  0  0  0  0
 41 43  1  0  0  0  0
 41 44  1  0  0  0  0
 42 46  1  0  0  0  0
 43 48  1  0  0  0  0
 44 79  1  0  0  0  0
 45 48  1  0  0  0  0
 45 79  1  0  0  0  0
 46 82  1  0  0  0  0
 47 78  1  0  0  0  0
 48 77  1  0  0  0  0
 50 69  1  0  0  0  0
 51 69  1  0  0  0  0
 52 71  1  0  0  0  0
 53 72  1  0  0  0  0
 54 72  1  0  0  0  0
 55 73  1  0  0  0  0
 56 73  1  0  0  0  0
 57 73  1  0  0  0  0
 58 74  1  0  0  0  0
 59 74  1  0  0  0  0
 60 85  1  0  0  0  0
 61 63  1  0  0  0  0
 62 64  1  0  0  0  0
 63 65  1  0  0  0  0
 64 72  1  0  0  0  0
 65 68  1  0  0  0  0
 66 74  1  0  0  0  0
 66 76  1  0  0  0  0
 67 74  1  0  0  0  0
 67 84  1  0  0  0  0
 68 92  1  0  0  0  0
 70 73  1  0  0  0  0
 70 83  1  0  0  0  0
 71 85  1  0  0  0  0
 75 77  1  0  0  0  0
M  CHG  1  85   1
M  ISO  4  36 100  68 101  84 100  92 101
M  END
> <Batch ID>
0084

> <Smiles>
CNC(C)C(=O)NC(C(=O)N1Cc2cc([101O:1][101CH2:1]CCCc3c(CCC(C)C)c(C(C)C)n(CC(C)(C)C[100NH:0][100C:0](=O)N4CCCC(n5nc(-c6ccc(Oc7ccc(F)cc7F)cc6)c(C(N)=O)c5N)C4)c3C)ccc2CC1C(=O)NC1CCCc2ccccc21)C(C)(C)C

> <Shape>
0.216

> <Color>
0.117

> <Negative vol penalty>
0.000

$$$$

  -OEChem-04052318543D

 84 92  0     1  0  0  0  0  0999 V2000
  -32.1869  -13.4488   21.0836 C   0  0  0  0  0  0  0  0  0  0  0  0
  -31.5679  -14.6549   21.3962 C   0  0  0  0  0  0  0  0  0  0  0  0
  -28.5865  -25.8813   20.2596 C   0  0  0  0  0  0  0  0  0  0  0  0
  -26.7509  -25.4240   18.7568 C   0  0  0  0  0  0  0  0  0  0  0  0
  -31.4863  -12.4682   20.3825 C   0  0  0  0  0  0  0  0  0  0  0  0
  -30.2483  -14.8815   21.0068 C   0  0  0  0  0  0  0  0  0  0  0  0
  -24.2990  -18.2541   23.1395 C   0  0  0  0  0  0  0  0  0  0  0  0
  -29.1594  -24.6519   19.9339 C   0  0  0  0  0  0  0  0  0  0  0  0
  -27.3238  -24.1947   18.4310 C   0  0  0  0  0  0  0  0  0  0  0  0
  -23.3467  -19.1581   22.6710 C   0  0  0  0  0  0  0  0  0  0  0  0
  -28.1181  -20.7793   17.4749 C   0  0  0  0  0  0  0  0  0  0  0  0
  -27.2803  -19.6649   17.4310 C   0  0  0  0  0  0  0  0  0  0  0  0
  -22.2091  -17.3607   21.5331 C   0  0  0  0  0  0  0  0  0  0  0  0
  -18.3347  -23.1790   20.1258 C   0  0  0  0  0  0  0  0  0  0  0  0
  -19.9473  -22.8834   21.8856 C   0  0  0  0  0  0  0  0  0  0  0  0
  -26.7171  -19.9969   19.7569 C   0  0  0  0  0  0  0  0  0  0  0  0
  -27.3822  -26.2673   19.6710 C   0  0  0  0  0  0  0  0  0  0  0  0
  -27.0056  -28.7721   19.3675 C   0  0  0  0  0  0  0  0  0  0  0  0
  -30.1543  -12.6791   19.9928 C   0  0  0  0  0  0  0  0  0  0  0  0
  -24.2196  -16.8961   22.7988 C   0  0  0  0  0  0  0  0  0  0  0  0
  -29.5297  -13.9033   20.2987 C   0  0  0  0  0  0  0  0  0  0  0  0
  -23.1603  -16.4411   22.0007 C   0  0  0  0  0  0  0  0  0  0  0  0
  -18.8967  -23.6015   21.3254 C   0  0  0  0  0  0  0  0  0  0  0  0
  -28.5281  -23.8086   19.0196 C   0  0  0  0  0  0  0  0  0  0  0  0
  -22.3031  -18.7120   21.8653 C   0  0  0  0  0  0  0  0  0  0  0  0
  -28.2554  -21.5025   18.6597 C   0  0  0  0  0  0  0  0  0  0  0  0
  -26.5798  -19.2737   18.5720 C   0  0  0  0  0  0  0  0  0  0  0  0
  -27.5549  -21.1113   19.8007 C   0  0  0  0  0  0  0  0  0  0  0  0
  -26.7896  -27.5369   20.0075 C   0  0  0  0  0  0  0  0  0  0  0  0
  -18.8554  -22.0411   19.5310 C   0  0  0  0  0  0  0  0  0  0  0  0
  -20.3956  -21.7586   21.2121 C   0  0  0  0  0  0  0  0  0  0  0  0
  -26.2175  -29.6594   20.0589 C   0  0  0  0  0  0  0  0  0  0  0  0
  -27.8437  -29.0890   18.2482 C   0  0  0  0  0  0  0  0  0  0  0  0
  -26.0810  -14.8703   21.2065 C   0  0  0  0  0  0  0  0  0  0  0  0
  -23.8892  -12.6913   22.1917 C   0  0  0  0  0  0  0  0  0  0  0  0
  -20.7042  -12.0559   23.2398 C   0  0  0  0  0  0  0  0  0  0  0  0
  -21.2555  -29.0030   23.3451 C   0  0  0  0  0  0  0  0  0  0  0  0
  -29.4530  -11.6082   19.1953 C   0  0  0  0  0  0  0  0  0  0  0  0
  -25.2398  -15.9292   23.3343 C   0  0  0  0  0  0  0  0  0  0  0  0
  -23.0185  -14.9900   21.6230 C   0  0  0  0  0  0  0  0  0  0  0  0
  -27.9369  -11.7796   19.1464 C   0  0  0  0  0  0  0  0  0  0  0  0
  -24.3495  -30.4152   24.3983 C   0  0  0  0  0  0  0  0  0  0  0  0
  -27.5733  -13.2265   18.8289 C   0  0  0  0  0  0  0  0  0  0  0  0
  -25.3452  -29.9491   23.3347 C   0  0  0  0  0  0  0  0  0  0  0  0
  -23.3020  -29.3452   24.6982 C   0  0  0  0  0  0  0  0  0  0  0  0
  -23.5786  -28.3680   22.4527 C   0  0  0  0  0  0  0  0  0  0  0  0
  -28.0915  -14.1767   19.9152 C   0  0  1  0  0  0  0  0  0  0  0  0
  -25.3505  -14.6555   22.5019 C   0  0  1  0  0  0  0  0  0  0  0  0
  -24.6212  -29.4344   22.0760 C   0  0  2  0  0  0  0  0  0  0  0  0
  -18.9777  -22.1681   17.0299 C   0  0  0  0  0  0  0  0  0  0  0  0
  -19.1976  -10.1729   23.9339 C   0  0  0  0  0  0  0  0  0  0  0  0
  -23.5909  -11.8570   19.2720 C   0  0  0  0  0  0  0  0  0  0  0  0
  -21.4604  -10.6980   19.8934 C   0  0  0  0  0  0  0  0  0  0  0  0
  -23.6196   -9.9599   20.9014 C   0  0  0  0  0  0  0  0  0  0  0  0
  -20.3098  -13.2112   25.9358 C   0  0  0  0  0  0  0  0  0  0  0  0
  -18.3754  -24.8206   22.0079 C   0  0  0  0  0  0  0  0  0  0  0  0
  -18.2783  -21.5592   18.2421 C   0  0  0  0  0  0  0  0  0  0  0  0
  -21.5264  -20.9585   21.7886 C   0  0  0  0  0  0  0  0  0  1  0  0
  -19.1024  -26.0966   21.5553 C   0  0  0  0  0  0  0  0  0  0  0  0
  -18.5836  -27.3359   22.2906 C   0  0  0  0  0  0  0  0  0  0  0  0
  -19.3012  -28.6131   21.8659 C   0  0  0  0  0  0  0  0  0  0  0  0
  -22.5940  -12.1511   21.6354 C   0  0  1  0  0  0  0  0  0  0  0  0
  -20.1707  -11.2424   24.4051 C   0  0  2  0  0  0  0  0  0  0  0  0
  -22.8197  -11.1942   20.4309 C   0  0  0  0  0  0  0  0  0  0  0  0
  -25.9316  -27.6275   21.0271 N   0  0  0  0  0  0  0  0  0  0  0  0
  -19.8750  -21.3174   20.0450 N   0  0  0  0  0  0  0  0  0  0  0  0
  -25.6016  -28.9302   21.0332 N   0  0  0  0  0  0  0  0  0  0  0  0
  -24.0446  -14.0845   22.1660 N   0  0  0  0  0  0  0  0  0  0  0  0
  -22.6514  -28.9012   23.4631 N   0  0  0  0  0  0  0  0  0  0  0  0
  -25.9982  -30.9844   19.9225 N   0  0  0  0  0  0  0  0  0  0  0  0
  -28.5860  -28.0581   17.6563 N   0  0  0  0  0  0  0  0  0  0  0  0
  -27.2373  -14.1241   21.0823 N   0  0  0  0  0  0  0  0  0  0  0  0
  -21.8898  -11.5421   22.7586 N   0  0  0  0  0  0  0  0  0  0  0  0
  -20.7202  -28.5659   22.1396 N   0  0  0  0  0  0  0  0  0  0  0  0
  -19.4637  -12.1271   25.3738 N   0  3  0  0  0  0  0  0  0  0  0  0
  -27.9441  -30.2551   17.7969 O   0  0  0  0  0  0  0  0  0  0  0  0
  -25.6282  -15.6540   20.3803 O   0  0  0  0  0  0  0  0  0  0  0  0
  -24.7291  -11.9066   22.6393 O   0  0  0  0  0  0  0  0  0  0  0  0
  -20.1250  -13.0457   22.7979 O   0  0  0  0  0  0  0  0  0  0  0  0
  -20.5397  -29.4552   24.2451 O   0  0  0  0  0  0  0  0  0  0  0  0
  -29.0869  -22.6090   18.7014 O   0  0  0  0  0  0  0  0  0  0  0  0
  -21.3726  -19.5923   21.4061 O   0  0  0  0  0  0  0  0  0  1  0  0
  -25.7742  -18.2045   18.5293 F   0  0  0  0  0  0  0  0  0  0  0  0
  -27.6818  -21.8027   20.9416 F   0  0  0  0  0  0  0  0  0  0  0  0
  1  2  1  0  0  0  0
  1  5  2  0  0  0  0
  2  6  2  0  0  0  0
  3  8  2  0  0  0  0
  3 17  1  0  0  0  0
  4  9  1  0  0  0  0
  4 17  2  0  0  0  0
  5 19  1  0  0  0  0
  6 21  1  0  0  0  0
  7 10  2  0  0  0  0
  7 20  1  0  0  0  0
  8 24  1  0  0  0  0
  9 24  2  0  0  0  0
 10 25  1  0  0  0  0
 11 12  2  0  0  0  0
 11 26  1  0  0  0  0
 12 27  1  0  0  0  0
 13 22  1  0  0  0  0
 13 25  2  0  0  0  0
 14 23  2  0  0  0  0
 14 30  1  0  0  0  0
 15 23  1  0  0  0  0
 15 31  2  0  0  0  0
 16 27  2  0  0  0  0
 16 28  1  0  0  0  0
 17 29  1  0  0  0  0
 18 29  1  0  0  0  0
 18 32  2  0  0  0  0
 18 33  1  0  0  0  0
 19 21  2  0  0  0  0
 19 38  1  0  0  0  0
 20 22  2  0  0  0  0
 20 39  1  0  0  0  0
 21 47  1  0  0  0  0
 22 40  1  0  0  0  0
 23 56  1  0  0  0  0
 24 81  1  0  0  0  0
 25 82  1  0  0  0  0
 26 28  2  0  0  0  0
 26 81  1  0  0  0  0
 27 83  1  0  0  0  0
 28 84  1  0  0  0  0
 29 65  2  0  0  0  0
 30 57  1  0  0  0  0
 30 66  2  0  0  0  0
 31 58  1  0  0  0  0
 31 66  1  0  0  0  0
 32 67  1  0  0  0  0
 32 70  1  0  0  0  0
 33 71  1  0  0  0  0
 33 76  2  0  0  0  0
 34 48  1  0  0  0  0
 34 72  1  0  0  0  0
 34 77  2  0  0  0  0
 35 62  1  0  0  0  0
 35 68  1  0  0  0  0
 35 78  2  0  0  0  0
 36 63  1  0  0  0  0
 36 73  1  0  0  0  0
 36 79  2  0  0  0  0
 37 69  1  0  0  0  0
 37 74  1  0  0  0  0
 37 80  2  0  0  0  0
 38 41  1  0  0  0  0
 39 48  1  0  0  0  0
 40 68  1  0  0  0  0
 41 43  1  0  0  0  0
 42 44  1  0  0  0  0
 42 45  1  0  0  0  0
 43 47  1  0  0  0  0
 44 49  1  0  0  0  0
 45 69  1  0  0  0  0
 46 49  1  0  0  0  0
 46 69  1  0  0  0  0
 47 72  1  0  0  0  0
 48 68  1  0  0  0  0
 49 67  1  0  0  0  0
 50 57  1  0  0  0  0
 51 63  1  0  0  0  0
 52 64  1  0  0  0  0
 53 64  1  0  0  0  0
 54 64  1  0  0  0  0
 55 75  1  0  0  0  0
 56 59  1  0  0  0  0
 58 82  1  0  0  0  0
 59 60  1  0  0  0  0
 60 61  1  0  0  0  0
 61 74  1  0  0  0  0
 62 64  1  0  0  0  0
 62 73  1  0  0  0  0
 63 75  1  0  0  0  0
 65 67  1  0  0  0  0
M  CHG  1  75   1
M  ISO  4  37 100  58 101  74 100  82 101
M  END
> <Batch ID>
0084

> <Smiles>
CCc1cc(CCCC[100NH:0][100C:0](=O)N2CCCC(n3nc(-c4ccc(Oc5ccc(F)cc5F)cc4)c(C(N)=O)c3N)C2)cc([101CH2:1][101O:1]c2ccc3c(c2)CN(C(=O)C(NC(=O)C(C)NC)C(C)(C)C)C(C(=O)NC2CCCc4ccccc42)C3)n1

> <Shape>
0.235

> <Color>
0.073

> <Negative vol penalty>
0.000

$$$$

  -OEChem-04052318543D

 85 93  0     1  0  0  0  0  0999 V2000
  -25.6435  -38.5427   20.1737 C   0  0  0  0  0  0  0  0  0  0  0  0
  -25.9026  -37.4692   19.3274 C   0  0  0  0  0  0  0  0  0  0  0  0
  -25.9760  -13.9054   21.7260 C   0  0  0  0  0  0  0  0  0  0  0  0
  -25.6050  -15.4956   19.9453 C   0  0  0  0  0  0  0  0  0  0  0  0
  -25.8078  -38.3987   21.5507 C   0  0  0  0  0  0  0  0  0  0  0  0
  -26.3273  -36.2515   19.8577 C   0  0  0  0  0  0  0  0  0  0  0  0
  -25.8512  -29.1955   18.7164 C   0  0  0  0  0  0  0  0  0  0  0  0
  -24.6425  -13.5045   21.6460 C   0  0  0  0  0  0  0  0  0  0  0  0
  -24.2713  -15.0946   19.8652 C   0  0  0  0  0  0  0  0  0  0  0  0
  -26.6618  -28.0692   18.5812 C   0  0  0  0  0  0  0  0  0  0  0  0
  -22.7517  -11.5233   19.6628 C   0  0  0  0  0  0  0  0  0  0  0  0
  -22.4843  -10.1544   19.6791 C   0  0  0  0  0  0  0  0  0  0  0  0
  -26.8348  -27.9131   20.9823 C   0  0  0  0  0  0  0  0  0  0  0  0
  -21.1591  -10.4371   21.6793 C   0  0  0  0  0  0  0  0  0  0  0  0
  -26.0682  -23.0190   19.7841 C   0  0  0  0  0  0  0  0  0  0  0  0
  -26.4573  -14.9010   20.8757 C   0  0  0  0  0  0  0  0  0  0  0  0
  -28.9278  -14.7799   20.2516 C   0  0  0  0  0  0  0  0  0  0  0  0
  -26.2255  -37.1758   22.0989 C   0  0  0  0  0  0  0  0  0  0  0  0
  -25.5348  -29.6964   19.9874 C   0  0  0  0  0  0  0  0  0  0  0  0
  -26.4987  -36.0915   21.2433 C   0  0  0  0  0  0  0  0  0  0  0  0
  -26.0179  -29.0444   21.1309 C   0  0  0  0  0  0  0  0  0  0  0  0
  -25.6818  -22.5504   21.0203 C   0  0  0  0  0  0  0  0  0  0  0  0
  -26.7757  -22.7312   21.9022 C   0  0  0  0  0  0  0  0  0  0  0  0
  -23.7901  -14.0991   20.7156 C   0  0  0  0  0  0  0  0  0  0  0  0
  -27.1560  -27.4295   19.7142 C   0  0  0  0  0  0  0  0  0  0  0  0
  -22.2230  -12.3491   20.6549 C   0  0  0  0  0  0  0  0  0  0  0  0
  -21.6879   -9.6113   20.6873 C   0  0  0  0  0  0  0  0  0  0  0  0
  -21.4266  -11.8060   21.6631 C   0  0  0  0  0  0  0  0  0  0  0  0
  -27.8346  -15.3159   20.9583 C   0  0  0  0  0  0  0  0  0  0  0  0
  -27.7974  -23.3049   21.1780 C   0  0  0  0  0  0  0  0  0  0  0  0
  -30.0069  -15.5134   20.6806 C   0  0  0  0  0  0  0  0  0  0  0  0
  -28.9645  -13.7144   19.2930 C   0  0  0  0  0  0  0  0  0  0  0  0
  -26.0653  -32.4322   21.5162 C   0  0  0  0  0  0  0  0  0  0  0  0
  -24.1547  -31.0924   23.7695 C   0  0  0  0  0  0  0  0  0  0  0  0
  -22.8719  -28.2546   25.1653 C   0  0  0  0  0  0  0  0  0  0  0  0
  -30.5434  -21.0181   22.9743 C   0  0  0  0  0  0  0  0  0  0  0  0
  -26.4345  -37.0822   23.5896 C   0  0  0  0  0  0  0  0  0  0  0  0
  -24.6373  -30.8965   20.1168 C   0  0  0  0  0  0  0  0  0  0  0  0
  -25.6909  -29.5302   22.5185 C   0  0  0  0  0  0  0  0  0  0  0  0
  -26.5273  -35.6475   24.1028 C   0  0  0  0  0  0  0  0  0  0  0  0
  -31.6017  -17.9642   24.4676 C   0  0  0  0  0  0  0  0  0  0  0  0
  -27.4617  -34.8247   23.2215 C   0  0  0  0  0  0  0  0  0  0  0  0
  -30.8549  -16.8908   23.6737 C   0  0  0  0  0  0  0  0  0  0  0  0
  -30.7503  -19.2169   24.6622 C   0  0  0  0  0  0  0  0  0  0  0  0
  -29.4544  -18.7183   22.6261 C   0  0  0  0  0  0  0  0  0  0  0  0
  -26.9372  -34.7473   21.7827 C   0  0  1  0  0  0  0  0  0  0  0  0
  -24.8005  -31.6238   21.4478 C   0  0  1  0  0  0  0  0  0  0  0  0
  -30.2929  -17.4572   22.3559 C   0  0  2  0  0  0  0  0  0  0  0  0
  -26.8161  -22.3715   23.3347 C   0  0  0  0  0  0  0  0  0  0  0  0
  -21.3682  -27.4764   27.0175 C   0  0  0  0  0  0  0  0  0  0  0  0
  -23.4150  -21.9348   20.1100 C   0  0  0  0  0  0  0  0  0  0  0  0
  -23.6338  -22.7875   22.4683 C   0  0  0  0  0  0  0  0  0  0  0  0
  -24.3850  -20.4901   21.8859 C   0  0  0  0  0  0  0  0  0  0  0  0
  -26.3682  -31.6451   25.7955 C   0  0  0  0  0  0  0  0  0  0  0  0
  -25.2469  -30.0384   27.3543 C   0  0  0  0  0  0  0  0  0  0  0  0
  -24.0547  -32.1052   26.6265 C   0  0  0  0  0  0  0  0  0  0  0  0
  -20.9906  -26.9896   23.2629 C   0  0  0  0  0  0  0  0  0  0  0  0
  -29.1564  -23.7064   21.5989 C   0  0  0  0  0  0  0  0  0  0  0  0
  -28.1504  -24.0716   18.7553 C   0  0  0  0  0  0  0  0  0  0  0  0
  -30.2592  -22.7158   21.1864 C   0  0  0  0  0  0  0  0  0  0  0  0
  -27.7302  -25.5036   18.4425 C   0  0  0  0  0  0  0  0  0  1  0  0
  -24.3793  -30.2160   24.9780 C   0  0  1  0  0  0  0  0  0  0  0  0
  -21.4541  -27.8745   25.5522 C   0  0  2  0  0  0  0  0  0  0  0  0
  -24.3663  -21.9681   21.3531 C   0  0  0  0  0  0  0  0  0  0  0  0
  -25.0202  -30.9929   26.1625 C   0  0  0  0  0  0  0  0  0  0  0  0
  -28.1871  -16.3128   21.7744 N   0  0  0  0  0  0  0  0  0  0  0  0
  -27.3559  -23.4755   19.8919 N   0  0  0  0  0  0  0  0  0  0  0  0
  -29.5138  -16.4090   21.5832 N   0  0  0  0  0  0  0  0  0  0  0  0
  -24.8147  -30.7110   22.5927 N   0  0  0  0  0  0  0  0  0  0  0  0
  -30.2496  -19.7042   23.3746 N   0  0  0  0  0  0  0  0  0  0  0  0
  -31.3201  -15.4731   20.3699 N   0  0  0  0  0  0  0  0  0  0  0  0
  -27.7647  -13.0677   18.9666 N   0  0  0  0  0  0  0  0  0  0  0  0
  -25.8581  -33.7874   21.6891 N   0  0  0  0  0  0  0  0  0  0  0  0
  -23.0888  -29.6107   25.2888 N   0  0  0  0  0  0  0  0  0  0  0  0
  -30.0361  -21.3978   21.7376 N   0  0  0  0  0  0  0  0  0  0  0  0
  -20.9812  -26.7284   24.7253 N   0  3  0  0  0  0  0  0  0  0  0  0
  -30.0323  -13.3357   18.7545 O   0  0  0  0  0  0  0  0  0  0  0  0
  -27.1489  -31.8680   21.4209 O   0  0  0  0  0  0  0  0  0  0  0  0
  -23.4149  -32.0750   23.8641 O   0  0  0  0  0  0  0  0  0  0  0  0
  -23.7049  -27.4305   24.7945 O   0  0  0  0  0  0  0  0  0  0  0  0
  -31.2129  -21.7936   23.6651 O   0  0  0  0  0  0  0  0  0  0  0  0
  -22.4888  -13.7080   20.6370 O   0  0  0  0  0  0  0  0  0  0  0  0
  -27.9479  -26.3304   19.5851 O   0  0  0  0  0  0  0  0  0  1  0  0
  -21.4299   -8.2970   20.7018 F   0  0  0  0  0  0  0  0  0  0  0  0
  -20.9148  -12.5944   22.6183 F   0  0  0  0  0  0  0  0  0  0  0  0
  1  2  1  0  0  0  0
  1  5  2  0  0  0  0
  2  6  2  0  0  0  0
  3  8  2  0  0  0  0
  3 16  1  0  0  0  0
  4  9  1  0  0  0  0
  4 16  2  0  0  0  0
  5 18  1  0  0  0  0
  6 20  1  0  0  0  0
  7 10  2  0  0  0  0
  7 19  1  0  0  0  0
  8 24  1  0  0  0  0
  9 24  2  0  0  0  0
 10 25  1  0  0  0  0
 11 12  2  0  0  0  0
 11 26  1  0  0  0  0
 12 27  1  0  0  0  0
 13 21  1  0  0  0  0
 13 25  2  0  0  0  0
 14 27  2  0  0  0  0
 14 28  1  0  0  0  0
 15 22  2  0  0  0  0
 15 67  1  0  0  0  0
 16 29  1  0  0  0  0
 17 29  1  0  0  0  0
 17 31  2  0  0  0  0
 17 32  1  0  0  0  0
 18 20  2  0  0  0  0
 18 37  1  0  0  0  0
 19 21  2  0  0  0  0
 19 38  1  0  0  0  0
 20 46  1  0  0  0  0
 21 39  1  0  0  0  0
 22 23  1  0  0  0  0
 22 64  1  0  0  0  0
 23 30  2  0  0  0  0
 23 49  1  0  0  0  0
 24 82  1  0  0  0  0
 25 83  1  0  0  0  0
 26 28  2  0  0  0  0
 26 82  1  0  0  0  0
 27 84  1  0  0  0  0
 28 85  1  0  0  0  0
 29 66  2  0  0  0  0
 30 58  1  0  0  0  0
 30 67  1  0  0  0  0
 31 68  1  0  0  0  0
 31 71  1  0  0  0  0
 32 72  1  0  0  0  0
 32 77  2  0  0  0  0
 33 47  1  0  0  0  0
 33 73  1  0  0  0  0
 33 78  2  0  0  0  0
 34 62  1  0  0  0  0
 34 69  1  0  0  0  0
 34 79  2  0  0  0  0
 35 63  1  0  0  0  0
 35 74  1  0  0  0  0
 35 80  2  0  0  0  0
 36 70  1  0  0  0  0
 36 75  1  0  0  0  0
 36 81  2  0  0  0  0
 37 40  1  0  0  0  0
 38 47  1  0  0  0  0
 39 69  1  0  0  0  0
 40 42  1  0  0  0  0
 41 43  1  0  0  0  0
 41 44  1  0  0  0  0
 42 46  1  0  0  0  0
 43 48  1  0  0  0  0
 44 70  1  0  0  0  0
 45 48  1  0  0  0  0
 45 70  1  0  0  0  0
 46 73  1  0  0  0  0
 47 69  1  0  0  0  0
 48 68  1  0  0  0  0
 50 63  1  0  0  0  0
 51 64  1  0  0  0  0
 52 64  1  0  0  0  0
 53 64  1  0  0  0  0
 54 65  1  0  0  0  0
 55 65  1  0  0  0  0
 56 65  1  0  0  0  0
 57 76  1  0  0  0  0
 58 60  1  0  0  0  0
 59 61  1  0  0  0  0
 59 67  1  0  0  0  0
 60 75  1  0  0  0  0
 61 83  1  0  0  0  0
 62 65  1  0  0  0  0
 62 74  1  0  0  0  0
 63 76  1  0  0  0  0
 66 68  1  0  0  0  0
M  CHG  1  76   1
M  ISO  4  36 100  61 101  75 100  83 101
M  END
> <Batch ID>
0084

> <Smiles>
CNC(C)C(=O)NC(C(=O)N1Cc2cc([101O:1][101CH2:1]Cn3cc(C(C)(C)C)c(C)c3CC[100NH:0][100C:0](=O)N3CCCC(n4nc(-c5ccc(Oc6ccc(F)cc6F)cc5)c(C(N)=O)c4N)C3)ccc2CC1C(=O)NC1CCCc2ccccc21)C(C)(C)C

> <Shape>
0.264

> <Color>
0.078

> <Negative vol penalty>
0.000

$$$$

  -OEChem-04052318543D

 86 94  0     1  0  0  0  0  0999 V2000
  -28.3522  -34.4949   25.1295 C   0  0  0  0  0  0  0  0  0  0  0  0
  -28.4522  -33.1725   24.7091 C   0  0  0  0  0  0  0  0  0  0  0  0
  -24.5826   -9.8178   21.6798 C   0  0  0  0  0  0  0  0  0  0  0  0
  -24.9411  -11.2776   23.5713 C   0  0  0  0  0  0  0  0  0  0  0  0
  -27.1000  -35.0486   25.3930 C   0  0  0  0  0  0  0  0  0  0  0  0
  -27.3001  -32.4026   24.5531 C   0  0  0  0  0  0  0  0  0  0  0  0
  -27.3231  -29.7197   20.2582 C   0  0  0  0  0  0  0  0  0  0  0  0
  -24.4043   -8.7392   22.5461 C   0  0  0  0  0  0  0  0  0  0  0  0
  -24.7627  -10.1990   24.4376 C   0  0  0  0  0  0  0  0  0  0  0  0
  -28.0935  -28.5579   20.2373 C   0  0  0  0  0  0  0  0  0  0  0  0
  -21.9535   -7.5147   24.5279 C   0  0  0  0  0  0  0  0  0  0  0  0
  -20.8834   -6.6549   24.2807 C   0  0  0  0  0  0  0  0  0  0  0  0
  -26.1076  -27.2414   20.6146 C   0  0  0  0  0  0  0  0  0  0  0  0
  -29.5229  -22.2479   16.7732 C   0  0  0  0  0  0  0  0  0  0  0  0
  -22.4238   -4.8110   24.0264 C   0  0  0  0  0  0  0  0  0  0  0  0
  -24.8510  -11.0870   22.1924 C   0  0  0  0  0  0  0  0  0  0  0  0
  -24.0446  -13.0750   20.8121 C   0  0  0  0  0  0  0  0  0  0  0  0
  -25.9313  -34.2880   25.2308 C   0  0  0  0  0  0  0  0  0  0  0  0
  -25.9384  -29.6518   20.4686 C   0  0  0  0  0  0  0  0  0  0  0  0
  -26.0312  -32.9463   24.8160 C   0  0  0  0  0  0  0  0  0  0  0  0
  -25.3215  -28.4036   20.6351 C   0  0  0  0  0  0  0  0  0  0  0  0
  -30.4621  -21.4476   16.1323 C   0  0  0  0  0  0  0  0  0  0  0  0
  -29.0955  -21.9182   18.0546 C   0  0  0  0  0  0  0  0  0  0  0  0
  -24.4943   -8.9298   23.9249 C   0  0  0  0  0  0  0  0  0  0  0  0
  -27.4862  -27.3187   20.4185 C   0  0  0  0  0  0  0  0  0  0  0  0
  -23.2588   -7.0228   24.5242 C   0  0  0  0  0  0  0  0  0  0  0  0
  -21.1185   -5.3030   24.0300 C   0  0  0  0  0  0  0  0  0  0  0  0
  -23.4939   -5.6709   24.2735 C   0  0  0  0  0  0  0  0  0  0  0  0
  -25.0359  -12.2015   21.2981 C   0  0  0  0  0  0  0  0  0  0  0  0
  -30.9391  -20.3374   16.8104 C   0  0  0  0  0  0  0  0  0  0  0  0
  -29.6335  -20.7869   18.6466 C   0  0  0  0  0  0  0  0  0  0  0  0
  -24.7264  -13.9535   20.0059 C   0  0  0  0  0  0  0  0  0  0  0  0
  -22.6337  -13.0909   21.0666 C   0  0  0  0  0  0  0  0  0  0  0  0
  -23.9505  -30.7537   22.6908 C   0  0  0  0  0  0  0  0  0  0  0  0
  -21.6834  -29.5825   20.6881 C   0  0  0  0  0  0  0  0  0  0  0  0
  -20.8652  -27.3907   18.2034 C   0  0  0  0  0  0  0  0  0  0  0  0
  -29.2858  -17.3180   19.5492 C   0  0  0  0  0  0  0  0  0  0  0  0
  -24.6034  -34.9157   25.5733 C   0  0  0  0  0  0  0  0  0  0  0  0
  -25.1176  -30.9122   20.4617 C   0  0  0  0  0  0  0  0  0  0  0  0
  -23.8355  -28.2751   20.8443 C   0  0  0  0  0  0  0  0  0  0  0  0
  -23.4057  -34.1457   25.0230 C   0  0  0  0  0  0  0  0  0  0  0  0
  -29.4639  -13.8520   18.2621 C   0  0  0  0  0  0  0  0  0  0  0  0
  -23.5565  -32.6536   25.3018 C   0  0  0  0  0  0  0  0  0  0  0  0
  -28.2841  -13.1767   18.9594 C   0  0  0  0  0  0  0  0  0  0  0  0
  -30.0228  -15.0086   19.0852 C   0  0  0  0  0  0  0  0  0  0  0  0
  -27.8240  -15.3487   20.1641 C   0  0  0  0  0  0  0  0  0  0  0  0
  -24.8027  -32.0866   24.6112 C   0  0  1  0  0  0  0  0  0  0  0  0
  -23.7891  -30.7642   21.1969 C   0  0  1  0  0  0  0  0  0  0  0  0
  -27.2079  -14.2085   19.3396 C   0  0  2  0  0  0  0  0  0  0  0  0
  -30.9242  -21.7954   14.7595 C   0  0  0  0  0  0  0  0  0  0  0  0
  -31.9483  -19.4405   16.1716 C   0  0  0  0  0  0  0  0  0  0  0  0
  -18.9262  -26.6403   16.7982 C   0  0  0  0  0  0  0  0  0  0  0  0
  -27.6126  -19.0568   21.4690 C   0  0  0  0  0  0  0  0  0  0  0  0
  -20.5670  -28.0268   23.0637 C   0  0  0  0  0  0  0  0  0  0  0  0
  -19.2845  -26.6114   21.4450 C   0  0  0  0  0  0  0  0  0  0  0  0
  -18.8340  -29.0608   21.5866 C   0  0  0  0  0  0  0  0  0  0  0  0
  -27.2075  -17.8439   18.3312 C   0  0  0  0  0  0  0  0  0  0  0  0
  -22.2186  -28.1980   15.6983 C   0  0  0  0  0  0  0  0  0  0  0  0
  -28.0770  -22.7817   18.7551 C   0  0  0  0  0  0  0  0  0  0  0  0
  -29.2118  -20.3859   20.0224 C   0  0  0  0  0  0  0  0  0  0  0  0
  -28.6521  -24.0880   19.3068 C   0  0  0  0  0  0  0  0  0  0  0  0
  -27.5995  -24.9925   19.9372 C   0  0  0  0  0  0  0  0  0  1  0  0
  -20.9829  -28.2551   20.5258 C   0  0  1  0  0  0  0  0  0  0  0  0
  -20.1157  -27.5827   16.8974 C   0  0  2  0  0  0  0  0  0  0  0  0
  -27.9945  -19.4375   20.0420 C   0  0  1  0  0  0  0  0  0  0  0  0
  -19.9454  -27.9908   21.6533 C   0  0  0  0  0  0  0  0  0  0  0  0
  -26.2546  -12.4981   20.8389 N   0  0  0  0  0  0  0  0  0  0  0  0
  -30.5476  -19.9852   18.0555 N   0  0  0  0  0  0  0  0  0  0  0  0
  -26.0336  -13.5676   20.0558 N   0  0  0  0  0  0  0  0  0  0  0  0
  -23.0769  -29.5368   20.8358 N   0  0  0  0  0  0  0  0  0  0  0  0
  -28.9717  -15.9513   19.4695 N   0  0  0  0  0  0  0  0  0  0  0  0
  -24.3292  -15.0106   19.2662 N   0  0  0  0  0  0  0  0  0  0  0  0
  -22.0977  -12.1163   21.9194 N   0  0  0  0  0  0  0  0  0  0  0  0
  -24.5524  -31.8888   23.1996 N   0  0  0  0  0  0  0  0  0  0  0  0
  -20.4172  -28.2538   19.1810 N   0  0  0  0  0  0  0  0  0  0  0  0
  -28.2569  -18.2284   19.2644 N   0  0  0  0  0  0  0  0  0  0  0  0
  -21.0178  -27.3244   15.7396 N   0  3  0  0  0  0  0  0  0  0  0  0
  -21.8686  -13.9339   20.5401 O   0  0  0  0  0  0  0  0  0  0  0  0
  -23.5567  -29.7881   23.3343 O   0  0  0  0  0  0  0  0  0  0  0  0
  -21.0194  -30.6220   20.6769 O   0  0  0  0  0  0  0  0  0  0  0  0
  -21.7562  -26.5559   18.3436 O   0  0  0  0  0  0  0  0  0  0  0  0
  -30.4238  -17.7024   19.8481 O   0  0  0  0  0  0  0  0  0  0  0  0
  -24.3201   -7.8776   24.7705 O   0  0  0  0  0  0  0  0  0  0  0  0
  -28.2360  -26.1832   20.3992 O   0  0  0  0  0  0  0  0  0  1  0  0
  -20.0907   -4.4771   23.7942 F   0  0  0  0  0  0  0  0  0  0  0  0
  -24.7456   -5.1922   24.2698 F   0  0  0  0  0  0  0  0  0  0  0  0
  1  2  1  0  0  0  0
  1  5  2  0  0  0  0
  2  6  2  0  0  0  0
  3  8  2  0  0  0  0
  3 16  1  0  0  0  0
  4  9  1  0  0  0  0
  4 16  2  0  0  0  0
  5 18  1  0  0  0  0
  6 20  1  0  0  0  0
  7 10  2  0  0  0  0
  7 19  1  0  0  0  0
  8 24  1  0  0  0  0
  9 24  2  0  0  0  0
 10 25  1  0  0  0  0
 11 12  2  0  0  0  0
 11 26  1  0  0  0  0
 12 27  1  0  0  0  0
 13 21  1  0  0  0  0
 13 25  2  0  0  0  0
 14 22  2  0  0  0  0
 14 23  1  0  0  0  0
 15 27  2  0  0  0  0
 15 28  1  0  0  0  0
 16 29  1  0  0  0  0
 17 29  1  0  0  0  0
 17 32  2  0  0  0  0
 17 33  1  0  0  0  0
 18 20  2  0  0  0  0
 18 38  1  0  0  0  0
 19 21  2  0  0  0  0
 19 39  1  0  0  0  0
 20 47  1  0  0  0  0
 21 40  1  0  0  0  0
 22 30  1  0  0  0  0
 22 50  1  0  0  0  0
 23 31  2  0  0  0  0
 23 59  1  0  0  0  0
 24 83  1  0  0  0  0
 25 84  1  0  0  0  0
 26 28  2  0  0  0  0
 26 83  1  0  0  0  0
 27 85  1  0  0  0  0
 28 86  1  0  0  0  0
 29 67  2  0  0  0  0
 30 51  1  0  0  0  0
 30 68  2  0  0  0  0
 31 60  1  0  0  0  0
 31 68  1  0  0  0  0
 32 69  1  0  0  0  0
 32 72  1  0  0  0  0
 33 73  1  0  0  0  0
 33 78  2  0  0  0  0
 34 48  1  0  0  0  0
 34 74  1  0  0  0  0
 34 79  2  0  0  0  0
 35 63  1  0  0  0  0
 35 70  1  0  0  0  0
 35 80  2  0  0  0  0
 36 64  1  0  0  0  0
 36 75  1  0  0  0  0
 36 81  2  0  0  0  0
 37 71  1  0  0  0  0
 37 76  1  0  0  0  0
 37 82  2  0  0  0  0
 38 41  1  0  0  0  0
 39 48  1  0  0  0  0
 40 70  1  0  0  0  0
 41 43  1  0  0  0  0
 42 44  1  0  0  0  0
 42 45  1  0  0  0  0
 43 47  1  0  0  0  0
 44 49  1  0  0  0  0
 45 71  1  0  0  0  0
 46 49  1  0  0  0  0
 46 71  1  0  0  0  0
 47 74  1  0  0  0  0
 48 70  1  0  0  0  0
 49 69  1  0  0  0  0
 52 64  1  0  0  0  0
 53 65  1  0  0  0  0
 54 66  1  0  0  0  0
 55 66  1  0  0  0  0
 56 66  1  0  0  0  0
 57 76  1  0  0  0  0
 58 77  1  0  0  0  0
 59 61  1  0  0  0  0
 60 65  1  0  0  0  0
 61 62  1  0  0  0  0
 62 84  1  0  0  0  0
 63 66  1  0  0  0  0
 63 75  1  0  0  0  0
 64 77  1  0  0  0  0
 65 76  1  0  0  0  0
 67 69  1  0  0  0  0
M  CHG  1  77   1
M  ISO  4  37 100  62 101  76 100  84 101
M  END
> <Batch ID>
0084

> <Smiles>
CNC(C)C(=O)NC(C(=O)N1Cc2cc([101O:1][101CH2:1]CCc3cc(C)c(C)nc3CC(C)[100N:0](C)[100C:0](=O)N3CCCC(n4nc(-c5ccc(Oc6ccc(F)cc6F)cc5)c(C(N)=O)c4N)C3)ccc2CC1C(=O)NC1CCCc2ccccc21)C(C)(C)C

> <Shape>
0.322

> <Color>
0.125

> <Negative vol penalty>
0.000

$$$$

  -OEChem-04052318543D

 86 94  0     1  0  0  0  0  0999 V2000
  -20.2470  -26.1585   25.6485 C   0  0  0  0  0  0  0  0  0  0  0  0
  -21.2862  -25.9478   24.7479 C   0  0  0  0  0  0  0  0  0  0  0  0
  -24.7808   -8.3647   21.4006 C   0  0  0  0  0  0  0  0  0  0  0  0
  -23.2150  -10.1360   20.9028 C   0  0  0  0  0  0  0  0  0  0  0  0
  -19.2618  -27.1037   25.3657 C   0  0  0  0  0  0  0  0  0  0  0  0
  -21.3402  -26.6814   23.5633 C   0  0  0  0  0  0  0  0  0  0  0  0
  -25.9883  -28.4294   22.5711 C   0  0  0  0  0  0  0  0  0  0  0  0
  -23.9034   -7.8585   22.3595 C   0  0  0  0  0  0  0  0  0  0  0  0
  -22.3376   -9.6298   21.8617 C   0  0  0  0  0  0  0  0  0  0  0  0
  -26.9097  -27.5251   22.0446 C   0  0  0  0  0  0  0  0  0  0  0  0
  -21.0837   -5.9935   22.4183 C   0  0  0  0  0  0  0  0  0  0  0  0
  -20.8654   -4.6159   22.4344 C   0  0  0  0  0  0  0  0  0  0  0  0
  -26.5071  -28.4096   19.8367 C   0  0  0  0  0  0  0  0  0  0  0  0
  -30.4403  -21.5707   19.1143 C   0  0  0  0  0  0  0  0  0  0  0  0
  -28.0918  -21.1502   18.8108 C   0  0  0  0  0  0  0  0  0  0  0  0
  -21.6994   -4.5102   24.6994 C   0  0  0  0  0  0  0  0  0  0  0  0
  -24.4367   -9.5034   20.6722 C   0  0  0  0  0  0  0  0  0  0  0  0
  -25.3963   -9.6907   18.3160 C   0  0  0  0  0  0  0  0  0  0  0  0
  -19.3091  -27.8562   24.1815 C   0  0  0  0  0  0  0  0  0  0  0  0
  -25.3102  -29.3247   21.7314 C   0  0  0  0  0  0  0  0  0  0  0  0
  -20.3540  -27.6366   23.2637 C   0  0  0  0  0  0  0  0  0  0  0  0
  -25.5795  -29.3260   20.3553 C   0  0  0  0  0  0  0  0  0  0  0  0
  -29.1167  -21.8576   19.4291 C   0  0  0  0  0  0  0  0  0  0  0  0
  -22.6818   -8.4910   22.5901 C   0  0  0  0  0  0  0  0  0  0  0  0
  -27.1671  -27.5132   20.6769 C   0  0  0  0  0  0  0  0  0  0  0  0
  -21.6099   -6.6294   23.5428 C   0  0  0  0  0  0  0  0  0  0  0  0
  -21.1732   -3.8743   23.5749 C   0  0  0  0  0  0  0  0  0  0  0  0
  -21.9177   -5.8878   24.6833 C   0  0  0  0  0  0  0  0  0  0  0  0
  -25.3429  -10.0271   19.6819 C   0  0  0  0  0  0  0  0  0  0  0  0
  -30.6840  -20.5750   18.1821 C   0  0  0  0  0  0  0  0  0  0  0  0
  -28.4406  -20.1734   17.8920 C   0  0  0  0  0  0  0  0  0  0  0  0
  -26.4203  -10.4559   17.8137 C   0  0  0  0  0  0  0  0  0  0  0  0
  -24.5920   -8.7690   17.5681 C   0  0  0  0  0  0  0  0  0  0  0  0
  -22.2630  -29.8208   20.9751 C   0  0  0  0  0  0  0  0  0  0  0  0
  -23.4791  -32.3696   19.3791 C   0  0  0  0  0  0  0  0  0  0  0  0
  -26.1649  -33.8191   17.8520 C   0  0  0  0  0  0  0  0  0  0  0  0
  -28.8717  -15.6348   19.5515 C   0  0  0  0  0  0  0  0  0  0  0  0
  -18.1957  -28.8330   23.8972 C   0  0  0  0  0  0  0  0  0  0  0  0
  -24.3391  -30.3120   22.3185 C   0  0  0  0  0  0  0  0  0  0  0  0
  -24.8932  -30.2804   19.4139 C   0  0  0  0  0  0  0  0  0  0  0  0
  -18.5308  -29.8345   22.7950 C   0  0  0  0  0  0  0  0  0  0  0  0
  -30.5374  -12.5190   19.1113 C   0  0  0  0  0  0  0  0  0  0  0  0
  -19.1471  -29.1218   21.5954 C   0  0  0  0  0  0  0  0  0  0  0  0
  -29.3998  -11.4967   19.0844 C   0  0  0  0  0  0  0  0  0  0  0  0
  -30.2544  -13.6525   20.0947 C   0  0  0  0  0  0  0  0  0  0  0  0
  -27.8237  -13.3119   19.8716 C   0  0  0  0  0  0  0  0  0  0  0  0
  -20.4608  -28.4303   21.9797 C   0  0  1  0  0  0  0  0  0  0  0  0
  -23.3265  -30.8306   21.3021 C   0  0  1  0  0  0  0  0  0  0  0  0
  -28.0381  -12.1790   18.8533 C   0  0  2  0  0  0  0  0  0  0  0  0
  -32.0923  -20.2389   17.8208 C   0  0  0  0  0  0  0  0  0  0  0  0
  -27.3736  -19.6956   15.6900 C   0  0  0  0  0  0  0  0  0  0  0  0
  -26.8424  -35.8898   16.6066 C   0  0  0  0  0  0  0  0  0  0  0  0
  -26.3518  -17.0549   16.7363 C   0  0  0  0  0  0  0  0  0  0  0  0
  -22.0309  -31.3470   16.8958 C   0  0  0  0  0  0  0  0  0  0  0  0
  -23.4748  -32.8577   15.5169 C   0  0  0  0  0  0  0  0  0  0  0  0
  -21.9272  -33.8249   17.2176 C   0  0  0  0  0  0  0  0  0  0  0  0
  -28.1911  -34.5227   19.8912 C   0  0  0  0  0  0  0  0  0  0  0  0
  -28.7942  -22.9311   20.4377 C   0  0  0  0  0  0  0  0  0  0  0  0
  -28.6239  -24.3222   19.8235 C   0  0  0  0  0  0  0  0  0  0  0  0
  -27.3574  -17.5211   18.9964 C   0  0  0  0  0  0  0  0  0  0  0  0
  -28.2142  -25.3839   20.8376 C   0  0  0  0  0  0  0  0  0  1  0  0
  -27.3662  -19.3959   17.2080 C   0  0  1  0  0  0  0  0  0  0  0  0
  -24.0052  -32.6056   17.9839 C   0  0  1  0  0  0  0  0  0  0  0  0
  -26.7576  -35.2121   17.9654 C   0  0  2  0  0  0  0  0  0  0  0  0
  -27.4292  -17.8492   17.4902 C   0  0  2  0  0  0  0  0  0  0  0  0
  -22.8712  -32.6394   16.9208 C   0  0  0  0  0  0  0  0  0  0  0  0
  -26.2601  -10.9352   20.0256 N   0  0  0  0  0  0  0  0  0  0  0  0
  -29.7148  -19.8664   17.5606 N   0  0  0  0  0  0  0  0  0  0  0  0
  -26.8996  -11.1758   18.8683 N   0  0  0  0  0  0  0  0  0  0  0  0
  -23.9474  -31.2223   20.0351 N   0  0  0  0  0  0  0  0  0  0  0  0
  -28.9491  -14.2583   19.8202 N   0  0  0  0  0  0  0  0  0  0  0  0
  -26.9485  -10.5763   16.5772 N   0  0  0  0  0  0  0  0  0  0  0  0
  -23.5832   -8.0649   18.2397 N   0  0  0  0  0  0  0  0  0  0  0  0
  -21.5336  -29.3975   22.0697 N   0  0  0  0  0  0  0  0  0  0  0  0
  -24.8002  -33.8272   18.0486 N   0  0  0  0  0  0  0  0  0  0  0  0
  -27.5977  -16.1270   19.2957 N   0  0  0  0  0  0  0  0  0  0  0  0
  -28.1294  -35.1458   18.5440 N   0  3  0  0  0  0  0  0  0  0  0  0
  -24.7737   -8.5633   16.3441 O   0  0  0  0  0  0  0  0  0  0  0  0
  -22.1142  -29.4541   19.8153 O   0  0  0  0  0  0  0  0  0  0  0  0
  -22.6875  -33.1774   19.8716 O   0  0  0  0  0  0  0  0  0  0  0  0
  -26.8441  -32.8240   17.6092 O   0  0  0  0  0  0  0  0  0  0  0  0
  -29.8650  -16.3697   19.5353 O   0  0  0  0  0  0  0  0  0  0  0  0
  -21.8253   -7.9973   23.5255 O   0  0  0  0  0  0  0  0  0  0  0  0
  -28.0654  -26.6311   20.1603 O   0  0  0  0  0  0  0  0  0  1  0  0
  -20.9621   -2.5516   23.5907 F   0  0  0  0  0  0  0  0  0  0  0  0
  -22.4223   -6.4933   25.7670 F   0  0  0  0  0  0  0  0  0  0  0  0
  1  2  1  0  0  0  0
  1  5  2  0  0  0  0
  2  6  2  0  0  0  0
  3  8  2  0  0  0  0
  3 17  1  0  0  0  0
  4  9  1  0  0  0  0
  4 17  2  0  0  0  0
  5 19  1  0  0  0  0
  6 21  1  0  0  0  0
  7 10  2  0  0  0  0
  7 20  1  0  0  0  0
  8 24  1  0  0  0  0
  9 24  2  0  0  0  0
 10 25  1  0  0  0  0
 11 12  2  0  0  0  0
 11 26  1  0  0  0  0
 12 27  1  0  0  0  0
 13 22  1  0  0  0  0
 13 25  2  0  0  0  0
 14 23  1  0  0  0  0
 14 30  2  0  0  0  0
 15 23  2  0  0  0  0
 15 31  1  0  0  0  0
 16 27  2  0  0  0  0
 16 28  1  0  0  0  0
 17 29  1  0  0  0  0
 18 29  1  0  0  0  0
 18 32  2  0  0  0  0
 18 33  1  0  0  0  0
 19 21  2  0  0  0  0
 19 38  1  0  0  0  0
 20 22  2  0  0  0  0
 20 39  1  0  0  0  0
 21 47  1  0  0  0  0
 22 40  1  0  0  0  0
 23 58  1  0  0  0  0
 24 83  1  0  0  0  0
 25 84  1  0  0  0  0
 26 28  2  0  0  0  0
 26 83  1  0  0  0  0
 27 85  1  0  0  0  0
 28 86  1  0  0  0  0
 29 67  2  0  0  0  0
 30 50  1  0  0  0  0
 30 68  1  0  0  0  0
 31 62  1  0  0  0  0
 31 68  2  0  0  0  0
 32 69  1  0  0  0  0
 32 72  1  0  0  0  0
 33 73  1  0  0  0  0
 33 78  2  0  0  0  0
 34 48  1  0  0  0  0
 34 74  1  0  0  0  0
 34 79  2  0  0  0  0
 35 63  1  0  0  0  0
 35 70  1  0  0  0  0
 35 80  2  0  0  0  0
 36 64  1  0  0  0  0
 36 75  1  0  0  0  0
 36 81  2  0  0  0  0
 37 71  1  0  0  0  0
 37 76  1  0  0  0  0
 37 82  2  0  0  0  0
 38 41  1  0  0  0  0
 39 48  1  0  0  0  0
 40 70  1  0  0  0  0
 41 43  1  0  0  0  0
 42 44  1  0  0  0  0
 42 45  1  0  0  0  0
 43 47  1  0  0  0  0
 44 49  1  0  0  0  0
 45 71  1  0  0  0  0
 46 49  1  0  0  0  0
 46 71  1  0  0  0  0
 47 74  1  0  0  0  0
 48 70  1  0  0  0  0
 49 69  1  0  0  0  0
 51 62  1  0  0  0  0
 52 64  1  0  0  0  0
 53 65  1  0  0  0  0
 54 66  1  0  0  0  0
 55 66  1  0  0  0  0
 56 66  1  0  0  0  0
 57 77  1  0  0  0  0
 58 59  1  0  0  0  0
 59 61  1  0  0  0  0
 60 65  1  0  0  0  0
 60 76  1  0  0  0  0
 61 84  1  0  0  0  0
 62 65  1  0  0  0  0
 63 66  1  0  0  0  0
 63 75  1  0  0  0  0
 64 77  1  0  0  0  0
 67 69  1  0  0  0  0
M  CHG  1  77   1
M  ISO  4  37 100  61 101  76 100  84 101
M  END
> <Batch ID>
0084

> <Smiles>
CNC(C)C(=O)NC(C(=O)N1Cc2cc([101O:1][101CH2:1]CCc3cc(C)nc(C(C)C(C)C[100NH:0][100C:0](=O)N4CCCC(n5nc(-c6ccc(Oc7ccc(F)cc7F)cc6)c(C(N)=O)c5N)C4)c3)ccc2CC1C(=O)NC1CCCc2ccccc21)C(C)(C)C

> <Shape>
0.255

> <Color>
0.128

> <Negative vol penalty>
0.000

$$$$

  -OEChem-04052318543D

 87 95  0     1  0  0  0  0  0999 V2000
  -25.9675  -23.8479   16.1454 C   0  0  0  0  0  0  0  0  0  0  0  0
  -26.8799  -23.7383   17.1899 C   0  0  0  0  0  0  0  0  0  0  0  0
  -23.0016   -9.8936   19.9810 C   0  0  0  0  0  0  0  0  0  0  0  0
  -23.7321   -9.9426   22.2834 C   0  0  0  0  0  0  0  0  0  0  0  0
  -26.0606  -22.9936   15.0475 C   0  0  0  0  0  0  0  0  0  0  0  0
  -27.8853  -22.7735   17.1376 C   0  0  0  0  0  0  0  0  0  0  0  0
  -32.4046  -24.6010   18.5091 C   0  0  0  0  0  0  0  0  0  0  0  0
  -22.2373   -8.7577   20.2476 C   0  0  0  0  0  0  0  0  0  0  0  0
  -22.9678   -8.8067   22.5501 C   0  0  0  0  0  0  0  0  0  0  0  0
  -32.6392  -24.7610   19.8741 C   0  0  0  0  0  0  0  0  0  0  0  0
  -23.2158   -5.4687   22.0732 C   0  0  0  0  0  0  0  0  0  0  0  0
  -23.8065   -4.4514   22.8226 C   0  0  0  0  0  0  0  0  0  0  0  0
  -33.8813  -22.6931   19.8968 C   0  0  0  0  0  0  0  0  0  0  0  0
  -31.2251  -20.5332   25.0623 C   0  0  0  0  0  0  0  0  0  0  0  0
  -22.0862   -4.6897   24.5022 C   0  0  0  0  0  0  0  0  0  0  0  0
  -23.7491  -10.4861   20.9988 C   0  0  0  0  0  0  0  0  0  0  0  0
  -24.1303  -13.0025   20.8252 C   0  0  0  0  0  0  0  0  0  0  0  0
  -27.0736  -22.0243   14.9772 C   0  0  0  0  0  0  0  0  0  0  0  0
  -32.8982  -23.4785   17.8288 C   0  0  0  0  0  0  0  0  0  0  0  0
  -27.9913  -21.9046   16.0383 C   0  0  0  0  0  0  0  0  0  0  0  0
  -33.6538  -22.5226   18.5227 C   0  0  0  0  0  0  0  0  0  0  0  0
  -30.4932  -19.4342   24.6483 C   0  0  0  0  0  0  0  0  0  0  0  0
  -22.2204   -8.2142   21.5321 C   0  0  0  0  0  0  0  0  0  0  0  0
  -33.3751  -23.8055   20.5688 C   0  0  0  0  0  0  0  0  0  0  0  0
  -22.0603   -6.0966   22.5383 C   0  0  0  0  0  0  0  0  0  0  0  0
  -23.2418   -4.0618   24.0371 C   0  0  0  0  0  0  0  0  0  0  0  0
  -21.4955   -5.7071   23.7528 C   0  0  0  0  0  0  0  0  0  0  0  0
  -24.5392  -11.6592   20.7239 C   0  0  0  0  0  0  0  0  0  0  0  0
  -32.5199  -20.6584   24.6004 C   0  0  0  0  0  0  0  0  0  0  0  0
  -31.1044  -18.5333   23.7995 C   0  0  0  0  0  0  0  0  0  0  0  0
  -25.2382  -13.7271   20.4592 C   0  0  0  0  0  0  0  0  0  0  0  0
  -22.8625  -13.5465   21.2154 C   0  0  0  0  0  0  0  0  0  0  0  0
  -31.5819  -21.0573   16.2449 C   0  0  0  0  0  0  0  0  0  0  0  0
  -34.6686  -20.3462   15.5458 C   0  0  0  0  0  0  0  0  0  0  0  0
  -37.9648  -20.6077   16.3904 C   0  0  0  0  0  0  0  0  0  0  0  0
  -30.7338  -14.6693   20.6961 C   0  0  0  0  0  0  0  0  0  0  0  0
  -27.1053  -21.0921   13.7920 C   0  0  0  0  0  0  0  0  0  0  0  0
  -32.6593  -23.3342   16.3508 C   0  0  0  0  0  0  0  0  0  0  0  0
  -34.2230  -21.3098   17.8345 C   0  0  0  0  0  0  0  0  0  0  0  0
  -28.4276  -20.3447   13.6401 C   0  0  0  0  0  0  0  0  0  0  0  0
  -29.5911  -12.2470   18.3501 C   0  0  0  0  0  0  0  0  0  0  0  0
  -28.8740  -19.7716   14.9814 C   0  0  0  0  0  0  0  0  0  0  0  0
  -28.1440  -11.9847   18.7707 C   0  0  0  0  0  0  0  0  0  0  0  0
  -30.4960  -12.4821   19.5575 C   0  0  0  0  0  0  0  0  0  0  0  0
  -28.5879  -13.2732   20.9018 C   0  0  0  0  0  0  0  0  0  0  0  0
  -29.1110  -20.8871   16.0066 C   0  0  1  0  0  0  0  0  0  0  0  0
  -32.7720  -21.8923   15.8653 C   0  0  1  0  0  0  0  0  0  0  0  0
  -27.6264  -13.0857   19.7158 C   0  0  2  0  0  0  0  0  0  0  0  0
  -29.0912  -19.2520   25.1171 C   0  0  0  0  0  0  0  0  0  0  0  0
  -28.8804  -19.4909   19.6782 C   0  0  0  0  0  0  0  0  0  0  0  0
  -30.5085  -16.1733   24.3394 C   0  0  0  0  0  0  0  0  0  0  0  0
  -40.2517  -19.8897   15.6475 C   0  0  0  0  0  0  0  0  0  0  0  0
  -34.1357  -17.5419   16.6237 C   0  0  0  0  0  0  0  0  0  0  0  0
  -36.6120  -17.1933   16.7446 C   0  0  0  0  0  0  0  0  0  0  0  0
  -35.5195  -17.6138   14.5418 C   0  0  0  0  0  0  0  0  0  0  0  0
  -38.8519  -23.4075   16.0249 C   0  0  0  0  0  0  0  0  0  0  0  0
  -33.3606  -21.8371   25.0217 C   0  0  0  0  0  0  0  0  0  0  0  0
  -29.0885  -18.3664   20.6808 C   0  0  0  0  0  0  0  0  0  0  0  0
  -33.2400  -23.0443   24.0891 C   0  0  0  0  0  0  0  0  0  0  0  0
  -30.5538  -17.9310   20.8169 C   0  0  0  0  0  0  0  0  0  0  0  0
  -33.7447  -22.7695   22.6773 C   0  0  0  0  0  0  0  0  0  1  0  0
  -30.3780  -17.3252   23.3126 C   0  0  2  0  0  0  0  0  0  0  0  0
  -35.7472  -19.5130   16.1950 C   0  0  1  0  0  0  0  0  0  0  0  0
  -39.1887  -20.9746   15.5706 C   0  0  2  0  0  0  0  0  0  0  0  0
  -30.8162  -16.8468   21.8839 C   0  0  1  0  0  0  0  0  0  0  0  0
  -35.4914  -17.9873   16.0399 C   0  0  0  0  0  0  0  0  0  0  0  0
  -25.8077  -11.5350   20.3246 N   0  0  0  0  0  0  0  0  0  0  0  0
  -33.0927  -19.7612   23.7703 N   0  0  0  0  0  0  0  0  0  0  0  0
  -32.3731  -18.6813   23.3631 N   0  0  0  0  0  0  0  0  0  0  0  0
  -26.2055  -12.8096   20.1717 N   0  0  0  0  0  0  0  0  0  0  0  0
  -33.9569  -21.2103   16.3900 N   0  0  0  0  0  0  0  0  0  0  0  0
  -29.9497  -13.5389   20.4123 N   0  0  0  0  0  0  0  0  0  0  0  0
  -25.4696  -15.0533   20.3583 N   0  0  0  0  0  0  0  0  0  0  0  0
  -21.8328  -12.6605   21.5602 N   0  0  0  0  0  0  0  0  0  0  0  0
  -30.3801  -21.5379   15.7609 N   0  0  0  0  0  0  0  0  0  0  0  0
  -37.0117  -19.9677   15.6268 N   0  0  0  0  0  0  0  0  0  0  0  0
  -30.1380  -15.6261   21.5086 N   0  0  0  0  0  0  0  0  0  0  0  0
  -39.7811  -22.2491   16.0662 N   0  3  0  0  0  0  0  0  0  0  0  0
  -22.6441  -14.7815   21.2413 O   0  0  0  0  0  0  0  0  0  0  0  0
  -31.7422  -20.0507   16.9251 O   0  0  0  0  0  0  0  0  0  0  0  0
  -34.4699  -20.2397   14.3330 O   0  0  0  0  0  0  0  0  0  0  0  0
  -37.8659  -20.8602   17.5892 O   0  0  0  0  0  0  0  0  0  0  0  0
  -31.8780  -14.8174   20.2535 O   0  0  0  0  0  0  0  0  0  0  0  0
  -21.4745   -7.1059   21.7928 O   0  0  0  0  0  0  0  0  0  0  0  0
  -33.6049  -23.9589   21.9013 O   0  0  0  0  0  0  0  0  0  1  0  0
  -23.8083   -3.0838   24.7559 F   0  0  0  0  0  0  0  0  0  0  0  0
  -20.3848   -6.3057   24.2042 F   0  0  0  0  0  0  0  0  0  0  0  0
  1  2  1  0  0  0  0
  1  5  2  0  0  0  0
  2  6  2  0  0  0  0
  3  8  2  0  0  0  0
  3 16  1  0  0  0  0
  4  9  1  0  0  0  0
  4 16  2  0  0  0  0
  5 18  1  0  0  0  0
  6 20  1  0  0  0  0
  7 10  2  0  0  0  0
  7 19  1  0  0  0  0
  8 23  1  0  0  0  0
  9 23  2  0  0  0  0
 10 24  1  0  0  0  0
 11 12  2  0  0  0  0
 11 25  1  0  0  0  0
 12 26  1  0  0  0  0
 13 21  1  0  0  0  0
 13 24  2  0  0  0  0
 14 22  1  0  0  0  0
 14 29  2  0  0  0  0
 15 26  2  0  0  0  0
 15 27  1  0  0  0  0
 16 28  1  0  0  0  0
 17 28  1  0  0  0  0
 17 31  2  0  0  0  0
 17 32  1  0  0  0  0
 18 20  2  0  0  0  0
 18 37  1  0  0  0  0
 19 21  2  0  0  0  0
 19 38  1  0  0  0  0
 20 46  1  0  0  0  0
 21 39  1  0  0  0  0
 22 30  2  0  0  0  0
 22 49  1  0  0  0  0
 23 84  1  0  0  0  0
 24 85  1  0  0  0  0
 25 27  2  0  0  0  0
 25 84  1  0  0  0  0
 26 86  1  0  0  0  0
 27 87  1  0  0  0  0
 28 67  2  0  0  0  0
 29 57  1  0  0  0  0
 29 68  1  0  0  0  0
 30 62  1  0  0  0  0
 30 69  1  0  0  0  0
 31 70  1  0  0  0  0
 31 73  1  0  0  0  0
 32 74  1  0  0  0  0
 32 79  2  0  0  0  0
 33 47  1  0  0  0  0
 33 75  1  0  0  0  0
 33 80  2  0  0  0  0
 34 63  1  0  0  0  0
 34 71  1  0  0  0  0
 34 81  2  0  0  0  0
 35 64  1  0  0  0  0
 35 76  1  0  0  0  0
 35 82  2  0  0  0  0
 36 72  1  0  0  0  0
 36 77  1  0  0  0  0
 36 83  2  0  0  0  0
 37 40  1  0  0  0  0
 38 47  1  0  0  0  0
 39 71  1  0  0  0  0
 40 42  1  0  0  0  0
 41 43  1  0  0  0  0
 41 44  1  0  0  0  0
 42 46  1  0  0  0  0
 43 48  1  0  0  0  0
 44 72  1  0  0  0  0
 45 48  1  0  0  0  0
 45 72  1  0  0  0  0
 46 75  1  0  0  0  0
 47 71  1  0  0  0  0
 48 70  1  0  0  0  0
 50 58  1  0  0  0  0
 51 62  1  0  0  0  0
 52 64  1  0  0  0  0
 53 66  1  0  0  0  0
 54 66  1  0  0  0  0
 55 66  1  0  0  0  0
 56 78  1  0  0  0  0
 57 59  1  0  0  0  0
 58 60  1  0  0  0  0
 59 61  1  0  0  0  0
 60 65  1  0  0  0  0
 61 85  1  0  0  0  0
 62 65  1  0  0  0  0
 63 66  1  0  0  0  0
 63 76  1  0  0  0  0
 64 78  1  0  0  0  0
 65 77  1  0  0  0  0
 67 70  1  0  0  0  0
 68 69  2  0  0  0  0
M  CHG  1  78   1
M  ISO  4  36 100  61 101  77 100  85 101
M  END
> <Batch ID>
0084

> <Smiles>
CCCC([100NH:0][100C:0](=O)N1CCCC(n2nc(-c3ccc(Oc4ccc(F)cc4F)cc3)c(C(N)=O)c2N)C1)C(C)c1nnc(CC[101CH2:1][101O:1]c2ccc3c(c2)CN(C(=O)C(NC(=O)C(C)NC)C(C)(C)C)C(C(=O)NC2CCCc4ccccc42)C3)cc1C

> <Shape>
0.195

> <Color>
0.188

> <Negative vol penalty>
0.000

$$$$

  -OEChem-04052318543D

 86 94  0     1  0  0  0  0  0999 V2000
  -26.8225  -33.2985   19.7708 C   0  0  0  0  0  0  0  0  0  0  0  0
  -27.7017  -32.3256   19.3061 C   0  0  0  0  0  0  0  0  0  0  0  0
  -24.0458   -9.4881   20.9016 C   0  0  0  0  0  0  0  0  0  0  0  0
  -24.5915  -10.2915   23.1139 C   0  0  0  0  0  0  0  0  0  0  0  0
  -25.6880  -32.9249   20.4901 C   0  0  0  0  0  0  0  0  0  0  0  0
  -27.4474  -30.9785   19.5614 C   0  0  0  0  0  0  0  0  0  0  0  0
  -28.3007  -24.4874   16.6539 C   0  0  0  0  0  0  0  0  0  0  0  0
  -23.6342   -8.2712   21.4450 C   0  0  0  0  0  0  0  0  0  0  0  0
  -24.1798   -9.0746   23.6573 C   0  0  0  0  0  0  0  0  0  0  0  0
  -28.8142  -23.2284   16.9618 C   0  0  0  0  0  0  0  0  0  0  0  0
  -21.2632   -7.5579   24.4407 C   0  0  0  0  0  0  0  0  0  0  0  0
  -20.4576   -7.5975   25.5787 C   0  0  0  0  0  0  0  0  0  0  0  0
  -26.7816  -22.6956   18.1465 C   0  0  0  0  0  0  0  0  0  0  0  0
  -30.8200  -17.8992   21.3069 C   0  0  0  0  0  0  0  0  0  0  0  0
  -22.1264   -6.3515   26.8033 C   0  0  0  0  0  0  0  0  0  0  0  0
  -24.5245  -10.4983   21.7360 C   0  0  0  0  0  0  0  0  0  0  0  0
  -24.1600  -12.8993   20.9550 C   0  0  0  0  0  0  0  0  0  0  0  0
  -25.4147  -31.5720   20.7460 C   0  0  0  0  0  0  0  0  0  0  0  0
  -27.0259  -24.8647   17.1000 C   0  0  0  0  0  0  0  0  0  0  0  0
  -26.3089  -30.5866   20.2860 C   0  0  0  0  0  0  0  0  0  0  0  0
  -26.2531  -23.9591   17.8408 C   0  0  0  0  0  0  0  0  0  0  0  0
  -29.9060  -18.9670   21.4844 C   0  0  0  0  0  0  0  0  0  0  0  0
  -23.7011   -8.0645   22.8228 C   0  0  0  0  0  0  0  0  0  0  0  0
  -28.0558  -22.3333   17.7107 C   0  0  0  0  0  0  0  0  0  0  0  0
  -22.5004   -6.9150   24.4839 C   0  0  0  0  0  0  0  0  0  0  0  0
  -20.8892   -6.9943   26.7600 C   0  0  0  0  0  0  0  0  0  0  0  0
  -22.9320   -6.3118   25.6652 C   0  0  0  0  0  0  0  0  0  0  0  0
  -24.9504  -11.7553   21.1752 C   0  0  0  0  0  0  0  0  0  0  0  0
  -30.7160  -17.0810   22.4101 C   0  0  0  0  0  0  0  0  0  0  0  0
  -29.2714  -18.7689   22.6908 C   0  0  0  0  0  0  0  0  0  0  0  0
  -25.0261  -13.8152   20.4097 C   0  0  0  0  0  0  0  0  0  0  0  0
  -22.7675  -13.1147   21.2198 C   0  0  0  0  0  0  0  0  0  0  0  0
  -25.9011  -27.1430   19.0100 C   0  0  0  0  0  0  0  0  0  0  0  0
  -30.9991  -14.3837   20.7446 C   0  0  0  0  0  0  0  0  0  0  0  0
  -23.0264  -26.0040   18.0296 C   0  0  0  0  0  0  0  0  0  0  0  0
  -21.2193  -23.3963   16.7720 C   0  0  0  0  0  0  0  0  0  0  0  0
  -24.2006  -31.2197   21.5686 C   0  0  0  0  0  0  0  0  0  0  0  0
  -26.4756  -26.2166   16.7367 C   0  0  0  0  0  0  0  0  0  0  0  0
  -24.8707  -24.3080   18.3262 C   0  0  0  0  0  0  0  0  0  0  0  0
  -23.8069  -29.7479   21.4739 C   0  0  0  0  0  0  0  0  0  0  0  0
  -29.0031  -14.1162   17.7808 C   0  0  0  0  0  0  0  0  0  0  0  0
  -25.0335  -28.8556   21.6360 C   0  0  0  0  0  0  0  0  0  0  0  0
  -27.6755  -13.5576   18.2913 C   0  0  0  0  0  0  0  0  0  0  0  0
  -30.1844  -13.5513   18.5634 C   0  0  0  0  0  0  0  0  0  0  0  0
  -28.7588  -13.1937   20.5537 C   0  0  0  0  0  0  0  0  0  0  0  0
  -26.0545  -29.1135   20.5214 C   0  0  1  0  0  0  0  0  0  0  0  0
  -25.3722  -26.6857   17.6800 C   0  0  1  0  0  0  0  0  0  0  0  0
  -27.5372  -13.7623   19.8103 C   0  0  2  0  0  0  0  0  0  0  0  0
  -31.2366  -13.3014   22.9417 C   0  0  0  0  0  0  0  0  0  0  0  0
  -18.8845  -22.7537   16.1138 C   0  0  0  0  0  0  0  0  0  0  0  0
  -27.8380  -20.8333   22.5194 C   0  0  0  0  0  0  0  0  0  0  0  0
  -28.7124  -20.0922   24.7604 C   0  0  0  0  0  0  0  0  0  0  0  0
  -26.8734  -18.8403   23.6503 C   0  0  0  0  0  0  0  0  0  0  0  0
  -22.2809  -25.7067   20.9733 C   0  0  0  0  0  0  0  0  0  0  0  0
  -20.3939  -24.2177   20.2731 C   0  0  0  0  0  0  0  0  0  0  0  0
  -20.4509  -26.5946   19.5182 C   0  0  0  0  0  0  0  0  0  0  0  0
  -29.3659  -17.0597   24.5168 C   0  0  0  0  0  0  0  0  0  0  0  0
  -22.0200  -22.9116   13.9644 C   0  0  0  0  0  0  0  0  0  0  0  0
  -29.6758  -20.1064   20.5240 C   0  0  0  0  0  0  0  0  0  0  0  0
  -31.4377  -15.8334   22.7346 C   0  0  0  0  0  0  0  0  0  0  0  0
  -30.2820  -19.8758   19.1381 C   0  0  0  0  0  0  0  0  0  0  0  0
  -29.9712  -20.9936   18.1495 C   0  0  0  0  0  0  0  0  0  1  0  0
  -30.7405  -14.5504   22.2209 C   0  0  1  0  0  0  0  0  0  0  0  0
  -22.0765  -24.9369   18.5174 C   0  0  1  0  0  0  0  0  0  0  0  0
  -20.2124  -23.3226   15.6384 C   0  0  2  0  0  0  0  0  0  0  0  0
  -28.2310  -19.5757   23.3637 C   0  0  0  0  0  0  0  0  0  0  0  0
  -21.3273  -25.3578   19.8132 C   0  0  0  0  0  0  0  0  0  0  0  0
  -26.2209  -11.9264   20.8003 N   0  0  0  0  0  0  0  0  0  0  0  0
  -29.7719  -17.6197   23.2448 N   0  0  0  0  0  0  0  0  0  0  0  0
  -26.2354  -13.1886   20.3389 N   0  0  0  0  0  0  0  0  0  0  0  0
  -24.3792  -25.6441   17.9507 N   0  0  0  0  0  0  0  0  0  0  0  0
  -30.0046  -13.7455   20.0033 N   0  0  0  0  0  0  0  0  0  0  0  0
  -24.8636  -15.0875   19.9885 N   0  0  0  0  0  0  0  0  0  0  0  0
  -22.0246  -12.0678   21.7823 N   0  0  0  0  0  0  0  0  0  0  0  0
  -25.6371  -28.4692   19.2946 N   0  0  0  0  0  0  0  0  0  0  0  0
  -21.1991  -24.6269   17.3938 N   0  0  0  0  0  0  0  0  0  0  0  0
  -20.7294  -22.4558   14.5419 N   0  3  0  0  0  0  0  0  0  0  0  0
  -22.1950  -14.1977   20.9498 O   0  0  0  0  0  0  0  0  0  0  0  0
  -26.5029  -26.3509   19.7256 O   0  0  0  0  0  0  0  0  0  0  0  0
  -32.0528  -14.8113   20.2659 O   0  0  0  0  0  0  0  0  0  0  0  0
  -22.5835  -27.1136   17.7228 O   0  0  0  0  0  0  0  0  0  0  0  0
  -21.9481  -22.4552   17.0779 O   0  0  0  0  0  0  0  0  0  0  0  0
  -23.2993   -6.8772   23.3535 O   0  0  0  0  0  0  0  0  0  0  0  0
  -28.5550  -21.1040   18.0132 O   0  0  0  0  0  0  0  0  0  1  0  0
  -20.1162   -7.0337   27.8532 F   0  0  0  0  0  0  0  0  0  0  0  0
  -24.1201   -5.6938   25.7132 F   0  0  0  0  0  0  0  0  0  0  0  0
  1  2  1  0  0  0  0
  1  5  2  0  0  0  0
  2  6  2  0  0  0  0
  3  8  2  0  0  0  0
  3 16  1  0  0  0  0
  4  9  1  0  0  0  0
  4 16  2  0  0  0  0
  5 18  1  0  0  0  0
  6 20  1  0  0  0  0
  7 10  2  0  0  0  0
  7 19  1  0  0  0  0
  8 23  1  0  0  0  0
  9 23  2  0  0  0  0
 10 24  1  0  0  0  0
 11 12  2  0  0  0  0
 11 25  1  0  0  0  0
 12 26  1  0  0  0  0
 13 21  1  0  0  0  0
 13 24  2  0  0  0  0
 14 22  1  0  0  0  0
 14 29  2  0  0  0  0
 15 26  2  0  0  0  0
 15 27  1  0  0  0  0
 16 28  1  0  0  0  0
 17 28  1  0  0  0  0
 17 31  2  0  0  0  0
 17 32  1  0  0  0  0
 18 20  2  0  0  0  0
 18 37  1  0  0  0  0
 19 21  2  0  0  0  0
 19 38  1  0  0  0  0
 20 46  1  0  0  0  0
 21 39  1  0  0  0  0
 22 30  2  0  0  0  0
 22 59  1  0  0  0  0
 23 83  1  0  0  0  0
 24 84  1  0  0  0  0
 25 27  2  0  0  0  0
 25 83  1  0  0  0  0
 26 85  1  0  0  0  0
 27 86  1  0  0  0  0
 28 68  2  0  0  0  0
 29 60  1  0  0  0  0
 29 69  1  0  0  0  0
 30 66  1  0  0  0  0
 30 69  1  0  0  0  0
 31 70  1  0  0  0  0
 31 73  1  0  0  0  0
 32 74  1  0  0  0  0
 32 78  2  0  0  0  0
 33 47  1  0  0  0  0
 33 75  1  0  0  0  0
 33 79  2  0  0  0  0
 34 63  1  0  0  0  0
 34 72  1  0  0  0  0
 34 80  2  0  0  0  0
 35 64  1  0  0  0  0
 35 71  1  0  0  0  0
 35 81  2  0  0  0  0
 36 65  1  0  0  0  0
 36 76  1  0  0  0  0
 36 82  2  0  0  0  0
 37 40  1  0  0  0  0
 38 47  1  0  0  0  0
 39 71  1  0  0  0  0
 40 42  1  0  0  0  0
 41 43  1  0  0  0  0
 41 44  1  0  0  0  0
 42 46  1  0  0  0  0
 43 48  1  0  0  0  0
 44 72  1  0  0  0  0
 45 48  1  0  0  0  0
 45 72  1  0  0  0  0
 46 75  1  0  0  0  0
 47 71  1  0  0  0  0
 48 70  1  0  0  0  0
 49 63  1  0  0  0  0
 50 65  1  0  0  0  0
 51 66  1  0  0  0  0
 52 66  1  0  0  0  0
 53 66  1  0  0  0  0
 54 67  1  0  0  0  0
 55 67  1  0  0  0  0
 56 67  1  0  0  0  0
 57 69  1  0  0  0  0
 58 77  1  0  0  0  0
 59 61  1  0  0  0  0
 60 63  1  0  0  0  0
 61 62  1  0  0  0  0
 62 84  1  0  0  0  0
 64 67  1  0  0  0  0
 64 76  1  0  0  0  0
 65 77  1  0  0  0  0
 68 70  1  0  0  0  0
M  CHG  1  77   1
M  ISO  4  34 100  62 101  63 100  84 101
M  END
> <Batch ID>
0084

> <Smiles>
CNC(C)C(=O)NC(C(=O)N1Cc2cc([101O:1][101CH2:1]CCc3cc(C[100CH:0](C)[100C:0](=O)N4CCCC(n5nc(-c6ccc(Oc7ccc(F)cc7F)cc6)c(C(N)=O)c5N)C4)n(C)c3C(C)(C)C)ccc2CC1C(=O)NC1CCCc2ccccc21)C(C)(C)C

> <Shape>
0.236

> <Color>
0.137

> <Negative vol penalty>
0.000

$$$$

  -OEChem-04052318543D

 90 98  0     1  0  0  0  0  0999 V2000
  -26.5262  -22.7503   27.5223 C   0  0  0  0  0  0  0  0  0  0  0  0
  -26.8189  -23.2914   26.2746 C   0  0  0  0  0  0  0  0  0  0  0  0
  -26.3436  -12.7868   21.7888 C   0  0  0  0  0  0  0  0  0  0  0  0
  -25.4883  -14.1691   20.0014 C   0  0  0  0  0  0  0  0  0  0  0  0
  -25.5508  -23.3401   28.3253 C   0  0  0  0  0  0  0  0  0  0  0  0
  -26.1355  -24.4221   25.8285 C   0  0  0  0  0  0  0  0  0  0  0  0
  -29.2177  -27.8613   23.7508 C   0  0  0  0  0  0  0  0  0  0  0  0
  -25.1561  -12.0551   21.7912 C   0  0  0  0  0  0  0  0  0  0  0  0
  -24.3008  -13.4374   20.0037 C   0  0  0  0  0  0  0  0  0  0  0  0
  -29.6547  -27.6207   22.4489 C   0  0  0  0  0  0  0  0  0  0  0  0
  -23.7449   -9.5911   19.9554 C   0  0  0  0  0  0  0  0  0  0  0  0
  -23.8404   -8.2008   20.0129 C   0  0  0  0  0  0  0  0  0  0  0  0
  -27.9883  -29.1516   21.6131 C   0  0  0  0  0  0  0  0  0  0  0  0
  -26.4014  -26.8635   19.5084 C   0  0  0  0  0  0  0  0  0  0  0  0
  -22.5869   -8.2001   22.0783 C   0  0  0  0  0  0  0  0  0  0  0  0
  -26.5097  -13.8439   20.8939 C   0  0  0  0  0  0  0  0  0  0  0  0
  -28.8942  -14.3396   20.1351 C   0  0  0  0  0  0  0  0  0  0  0  0
  -24.8619  -24.4843   27.8929 C   0  0  0  0  0  0  0  0  0  0  0  0
  -28.1538  -28.7420   23.9931 C   0  0  0  0  0  0  0  0  0  0  0  0
  -25.1490  -25.0270   26.6258 C   0  0  0  0  0  0  0  0  0  0  0  0
  -27.5414  -29.4036   22.9191 C   0  0  0  0  0  0  0  0  0  0  0  0
  -25.5643  -26.5095   20.5606 C   0  0  0  0  0  0  0  0  0  0  0  0
  -25.7038  -25.2647   21.1642 C   0  0  0  0  0  0  0  0  0  0  0  0
  -24.1347  -12.3803   20.8987 C   0  0  0  0  0  0  0  0  0  0  0  0
  -29.0381  -28.2636   21.3796 C   0  0  0  0  0  0  0  0  0  0  0  0
  -23.0705  -10.2860   20.9594 C   0  0  0  0  0  0  0  0  0  0  0  0
  -23.2614   -7.5052   21.0743 C   0  0  0  0  0  0  0  0  0  0  0  0
  -22.4915   -9.5905   22.0209 C   0  0  0  0  0  0  0  0  0  0  0  0
  -27.7359  -14.6005   20.8914 C   0  0  0  0  0  0  0  0  0  0  0  0
  -27.3544  -25.9443   19.1004 C   0  0  0  0  0  0  0  0  0  0  0  0
  -26.6879  -24.4170   20.6819 C   0  0  0  0  0  0  0  0  0  0  0  0
  -29.7676  -15.3389   20.4888 C   0  0  0  0  0  0  0  0  0  0  0  0
  -29.1572  -13.2881   19.1966 C   0  0  0  0  0  0  0  0  0  0  0  0
  -25.2553  -28.4615   25.2673 C   0  0  0  0  0  0  0  0  0  0  0  0
  -25.2175  -31.6868   24.9229 C   0  0  0  0  0  0  0  0  0  0  0  0
  -26.4164  -34.4419   23.3046 C   0  0  0  0  0  0  0  0  0  0  0  0
  -28.9791  -20.8698   22.6426 C   0  0  0  0  0  0  0  0  0  0  0  0
  -23.7826  -25.0587   28.7759 C   0  0  0  0  0  0  0  0  0  0  0  0
  -27.7118  -29.0112   25.4054 C   0  0  0  0  0  0  0  0  0  0  0  0
  -26.4085  -30.3740   23.1275 C   0  0  0  0  0  0  0  0  0  0  0  0
  -23.3680  -26.4757   28.3877 C   0  0  0  0  0  0  0  0  0  0  0  0
  -30.8607  -18.2401   24.1329 C   0  0  0  0  0  0  0  0  0  0  0  0
  -23.1529  -26.5750   26.8808 C   0  0  0  0  0  0  0  0  0  0  0  0
  -30.3778  -16.9856   23.4029 C   0  0  0  0  0  0  0  0  0  0  0  0
  -29.7259  -19.2385   24.3507 C   0  0  0  0  0  0  0  0  0  0  0  0
  -28.5039  -18.3575   22.4002 C   0  0  0  0  0  0  0  0  0  0  0  0
  -24.4467  -26.2673   26.1174 C   0  0  1  0  0  0  0  0  0  0  0  0
  -26.2818  -29.5350   25.4945 C   0  0  1  0  0  0  0  0  0  0  0  0
  -29.6248  -17.3453   22.1079 C   0  0  2  0  0  0  0  0  0  0  0  0
  -24.5260  -27.4792   21.0199 C   0  0  0  0  0  0  0  0  0  0  0  0
  -27.9881  -25.4168   16.7222 C   0  0  0  0  0  0  0  0  0  0  0  0
  -26.1685  -36.9374   23.2154 C   0  0  0  0  0  0  0  0  0  0  0  0
  -23.0039  -23.8504   20.8201 C   0  0  0  0  0  0  0  0  0  0  0  0
  -22.4914  -24.4609   23.1926 C   0  0  0  0  0  0  0  0  0  0  0  0
  -22.5873  -31.3689   23.4092 C   0  0  0  0  0  0  0  0  0  0  0  0
  -22.8822  -33.7009   22.5471 C   0  0  0  0  0  0  0  0  0  0  0  0
  -22.6498  -33.2992   24.9981 C   0  0  0  0  0  0  0  0  0  0  0  0
  -30.5265  -27.4427   17.4846 C   0  0  0  0  0  0  0  0  0  0  0  0
  -30.5637  -25.0285   18.1022 C   0  0  0  0  0  0  0  0  0  0  0  0
  -29.2474  -34.8662   24.0558 C   0  0  0  0  0  0  0  0  0  0  0  0
  -24.8216  -24.8587   22.2965 C   0  0  0  0  0  0  0  0  0  0  0  0
  -26.8869  -23.0673   21.2907 C   0  0  0  0  0  0  0  0  0  0  0  0
  -28.1796  -22.3780   20.8412 C   0  0  0  0  0  0  0  0  0  0  0  0
  -30.0126  -26.7425   19.8328 C   0  0  0  0  0  0  0  0  0  1  0  0
  -28.2927  -26.2988   17.9484 C   0  0  2  0  0  0  0  0  0  0  0  0
  -24.7942  -32.6405   23.8319 C   0  0  1  0  0  0  0  0  0  0  0  0
  -26.9309  -35.7716   23.8255 C   0  0  2  0  0  0  0  0  0  0  0  0
  -23.3117  -24.8313   21.9544 C   0  0  0  0  0  0  0  0  0  0  0  0
  -23.2484  -32.7327   23.6921 C   0  0  0  0  0  0  0  0  0  0  0  0
  -29.8231  -26.3599   18.3403 C   0  0  0  0  0  0  0  0  0  0  0  0
  -27.8591  -15.6808   21.6672 N   0  0  0  0  0  0  0  0  0  0  0  0
  -27.5199  -24.7258   19.6620 N   0  0  0  0  0  0  0  0  0  0  0  0
  -29.1052  -16.1075   21.4003 N   0  0  0  0  0  0  0  0  0  0  0  0
  -26.0082  -30.5990   24.5263 N   0  0  0  0  0  0  0  0  0  0  0  0
  -29.0539  -19.5384   23.0840 N   0  0  0  0  0  0  0  0  0  0  0  0
  -31.0298  -15.6264   20.1061 N   0  0  0  0  0  0  0  0  0  0  0  0
  -28.1500  -12.3451   18.9503 N   0  0  0  0  0  0  0  0  0  0  0  0
  -25.3390  -27.4061   26.1554 N   0  0  0  0  0  0  0  0  0  0  0  0
  -25.4444  -33.9128   24.1271 N   0  0  0  0  0  0  0  0  0  0  0  0
  -28.3310  -21.0658   21.4292 N   0  0  0  0  0  0  0  0  0  0  0  0
  -28.3759  -35.9322   23.4980 N   0  3  0  0  0  0  0  0  0  0  0  0
  -30.2587  -13.1782   18.6066 O   0  0  0  0  0  0  0  0  0  0  0  0
  -24.4462  -28.5825   24.3550 O   0  0  0  0  0  0  0  0  0  0  0  0
  -24.8656  -31.9029   26.0852 O   0  0  0  0  0  0  0  0  0  0  0  0
  -26.8323  -33.9260   22.2695 O   0  0  0  0  0  0  0  0  0  0  0  0
  -29.4593  -21.8134   23.2799 O   0  0  0  0  0  0  0  0  0  0  0  0
  -22.9759  -11.6663   20.9005 O   0  0  0  0  0  0  0  0  0  0  0  0
  -29.4623  -28.0301   20.1078 O   0  0  0  0  0  0  0  0  0  1  0  0
  -23.3518   -6.1699   21.1286 F   0  0  0  0  0  0  0  0  0  0  0  0
  -21.8414  -10.2525   22.9877 F   0  0  0  0  0  0  0  0  0  0  0  0
  1  2  1  0  0  0  0
  1  5  2  0  0  0  0
  2  6  2  0  0  0  0
  3  8  2  0  0  0  0
  3 16  1  0  0  0  0
  4  9  1  0  0  0  0
  4 16  2  0  0  0  0
  5 18  1  0  0  0  0
  6 20  1  0  0  0  0
  7 10  2  0  0  0  0
  7 19  1  0  0  0  0
  8 24  1  0  0  0  0
  9 24  2  0  0  0  0
 10 25  1  0  0  0  0
 11 12  2  0  0  0  0
 11 26  1  0  0  0  0
 12 27  1  0  0  0  0
 13 21  1  0  0  0  0
 13 25  2  0  0  0  0
 14 22  2  0  0  0  0
 14 30  1  0  0  0  0
 15 27  2  0  0  0  0
 15 28  1  0  0  0  0
 16 29  1  0  0  0  0
 17 29  1  0  0  0  0
 17 32  2  0  0  0  0
 17 33  1  0  0  0  0
 18 20  2  0  0  0  0
 18 38  1  0  0  0  0
 19 21  2  0  0  0  0
 19 39  1  0  0  0  0
 20 47  1  0  0  0  0
 21 40  1  0  0  0  0
 22 23  1  0  0  0  0
 22 50  1  0  0  0  0
 23 31  2  0  0  0  0
 23 61  1  0  0  0  0
 24 87  1  0  0  0  0
 25 88  1  0  0  0  0
 26 28  2  0  0  0  0
 26 87  1  0  0  0  0
 27 89  1  0  0  0  0
 28 90  1  0  0  0  0
 29 71  2  0  0  0  0
 30 65  1  0  0  0  0
 30 72  2  0  0  0  0
 31 62  1  0  0  0  0
 31 72  1  0  0  0  0
 32 73  1  0  0  0  0
 32 76  1  0  0  0  0
 33 77  1  0  0  0  0
 33 82  2  0  0  0  0
 34 48  1  0  0  0  0
 34 78  1  0  0  0  0
 34 83  2  0  0  0  0
 35 66  1  0  0  0  0
 35 74  1  0  0  0  0
 35 84  2  0  0  0  0
 36 67  1  0  0  0  0
 36 79  1  0  0  0  0
 36 85  2  0  0  0  0
 37 75  1  0  0  0  0
 37 80  1  0  0  0  0
 37 86  2  0  0  0  0
 38 41  1  0  0  0  0
 39 48  1  0  0  0  0
 40 74  1  0  0  0  0
 41 43  1  0  0  0  0
 42 44  1  0  0  0  0
 42 45  1  0  0  0  0
 43 47  1  0  0  0  0
 44 49  1  0  0  0  0
 45 75  1  0  0  0  0
 46 49  1  0  0  0  0
 46 75  1  0  0  0  0
 47 78  1  0  0  0  0
 48 74  1  0  0  0  0
 49 73  1  0  0  0  0
 51 65  1  0  0  0  0
 52 67  1  0  0  0  0
 53 68  1  0  0  0  0
 54 68  1  0  0  0  0
 55 69  1  0  0  0  0
 56 69  1  0  0  0  0
 57 69  1  0  0  0  0
 58 70  1  0  0  0  0
 59 70  1  0  0  0  0
 60 81  1  0  0  0  0
 61 68  1  0  0  0  0
 62 63  1  0  0  0  0
 63 80  1  0  0  0  0
 64 70  1  0  0  0  0
 64 88  1  0  0  0  0
 65 70  1  0  0  0  0
 66 69  1  0  0  0  0
 66 79  1  0  0  0  0
 67 81  1  0  0  0  0
 71 73  1  0  0  0  0
M  CHG  1  81   1
M  ISO  4  37 100  64 101  80 100  88 101
M  END
> <Batch ID>
0084

> <Smiles>
CNC(C)C(=O)NC(C(=O)N1Cc2cc([101O:1][101CH2:1]C(C)(C)C(C)c3cc(C)c(CC(C)C)c(CC[100NH:0][100C:0](=O)N4CCCC(n5nc(-c6ccc(Oc7ccc(F)cc7F)cc6)c(C(N)=O)c5N)C4)n3)ccc2CC1C(=O)NC1CCCc2ccccc21)C(C)(C)C

> <Shape>
0.270

> <Color>
0.062

> <Negative vol penalty>
0.000

$$$$

  -OEChem-04052318543D

 86 94  0     1  0  0  0  0  0999 V2000
  -20.6648  -28.7001   25.8565 C   0  0  0  0  0  0  0  0  0  0  0  0
  -21.0603  -27.3665   25.8810 C   0  0  0  0  0  0  0  0  0  0  0  0
  -30.7645  -22.7147   21.0755 C   0  0  0  0  0  0  0  0  0  0  0  0
  -30.7078  -22.2133   18.7127 C   0  0  0  0  0  0  0  0  0  0  0  0
  -19.9105  -29.1827   24.7879 C   0  0  0  0  0  0  0  0  0  0  0  0
  -20.7008  -26.5145   24.8374 C   0  0  0  0  0  0  0  0  0  0  0  0
  -24.0040  -21.8893   22.5566 C   0  0  0  0  0  0  0  0  0  0  0  0
  -31.0841  -24.0413   20.7863 C   0  0  0  0  0  0  0  0  0  0  0  0
  -31.0273  -23.5399   18.4235 C   0  0  0  0  0  0  0  0  0  0  0  0
  -23.9667  -20.5129   22.7752 C   0  0  0  0  0  0  0  0  0  0  0  0
  -31.5602  -27.6430   20.6610 C   0  0  0  0  0  0  0  0  0  0  0  0
  -30.8807  -28.6409   21.3596 C   0  0  0  0  0  0  0  0  0  0  0  0
  -22.5790  -20.2461   20.8201 C   0  0  0  0  0  0  0  0  0  0  0  0
  -25.8194  -13.9024   20.2321 C   0  0  0  0  0  0  0  0  0  0  0  0
  -28.7829  -27.8306   20.4765 C   0  0  0  0  0  0  0  0  0  0  0  0
  -24.4988  -11.5891   20.8240 C   0  0  0  0  0  0  0  0  0  0  0  0
  -30.5764  -21.8007   20.0387 C   0  0  0  0  0  0  0  0  0  0  0  0
  -28.9603  -19.8779   20.4847 C   0  0  0  0  0  0  0  0  0  0  0  0
  -19.5498  -28.3386   23.7258 C   0  0  0  0  0  0  0  0  0  0  0  0
  -23.3190  -22.4567   21.4725 C   0  0  0  0  0  0  0  0  0  0  0  0
  -19.9398  -26.9860   23.7541 C   0  0  0  0  0  0  0  0  0  0  0  0
  -22.6113  -21.6297   20.5885 C   0  0  0  0  0  0  0  0  0  0  0  0
  -24.4315  -13.9112   20.3144 C   0  0  0  0  0  0  0  0  0  0  0  0
  -23.7510  -12.7367   20.6156 C   0  0  0  0  0  0  0  0  0  0  0  0
  -31.2155  -24.4539   19.4603 C   0  0  0  0  0  0  0  0  0  0  0  0
  -23.2518  -19.6914   21.9086 C   0  0  0  0  0  0  0  0  0  0  0  0
  -30.8511  -26.7390   19.8701 C   0  0  0  0  0  0  0  0  0  0  0  0
  -29.4920  -28.7347   21.2674 C   0  0  0  0  0  0  0  0  0  0  0  0
  -29.4625  -26.8327   19.7779 C   0  0  0  0  0  0  0  0  0  0  0  0
  -30.2468  -20.4300   20.3368 C   0  0  0  0  0  0  0  0  0  0  0  0
  -26.4747  -12.7026   20.4579 C   0  0  0  0  0  0  0  0  0  0  0  0
  -29.1856  -18.5513   20.7600 C   0  0  0  0  0  0  0  0  0  0  0  0
  -27.6764  -20.5079   20.3823 C   0  0  0  0  0  0  0  0  0  0  0  0
  -20.9456  -24.5487   21.1656 C   0  0  0  0  0  0  0  0  0  0  0  0
  -21.6357  -24.2784   18.0076 C   0  0  0  0  0  0  0  0  0  0  0  0
  -22.9752  -22.4116   15.4841 C   0  0  0  0  0  0  0  0  0  0  0  0
  -31.8707  -13.7616   19.7624 C   0  0  0  0  0  0  0  0  0  0  0  0
  -18.6935  -28.8942   22.6155 C   0  0  0  0  0  0  0  0  0  0  0  0
  -23.3912  -23.9402   21.2351 C   0  0  0  0  0  0  0  0  0  0  0  0
  -21.8757  -22.1870   19.3982 C   0  0  0  0  0  0  0  0  0  0  0  0
  -18.6724  -28.0177   21.3658 C   0  0  0  0  0  0  0  0  0  0  0  0
  -33.4616  -16.1087   21.9157 C   0  0  0  0  0  0  0  0  0  0  0  0
  -18.4517  -26.5562   21.7425 C   0  0  0  0  0  0  0  0  0  0  0  0
  -32.6651  -17.3974   21.7043 C   0  0  0  0  0  0  0  0  0  0  0  0
  -33.6014  -15.3126   20.6201 C   0  0  0  0  0  0  0  0  0  0  0  0
  -31.5330  -16.3074   19.7222 C   0  0  0  0  0  0  0  0  0  0  0  0
  -19.5905  -26.0368   22.6285 C   0  0  1  0  0  0  0  0  0  0  0  0
  -22.2326  -24.4679   20.3944 C   0  0  1  0  0  0  0  0  0  0  0  0
  -31.3176  -17.1167   21.0125 C   0  0  2  0  0  0  0  0  0  0  0  0
  -23.3591  -22.4379   13.0044 C   0  0  0  0  0  0  0  0  0  0  0  0
  -18.6893  -23.6328   17.5470 C   0  0  0  0  0  0  0  0  0  0  0  0
  -19.3070  -22.7554   15.2849 C   0  0  0  0  0  0  0  0  0  0  0  0
  -19.7028  -25.1548   15.8409 C   0  0  0  0  0  0  0  0  0  0  0  0
  -21.6861  -12.9455   21.9768 C   0  0  0  0  0  0  0  0  0  0  0  0
  -21.5379  -12.4205   19.5374 C   0  0  0  0  0  0  0  0  0  0  0  0
  -25.9122  -22.2713   15.8204 C   0  0  0  0  0  0  0  0  0  0  0  0
  -23.6911  -15.2028   20.0754 C   0  0  0  0  0  0  0  0  0  0  0  0
  -27.9642  -12.6556   20.3760 C   0  0  0  0  0  0  0  0  0  0  0  0
  -23.7563  -16.1773   21.2535 C   0  0  0  0  0  0  0  0  0  0  0  0
  -28.5153  -12.3340   18.9733 C   0  0  0  0  0  0  0  0  0  0  0  0
  -30.0396  -12.3372   18.8806 C   0  0  0  0  0  0  0  0  0  0  0  0
  -23.0783  -17.5128   20.9705 C   0  0  0  0  0  0  0  0  0  1  0  0
  -21.1722  -23.3818   16.8849 C   0  0  1  0  0  0  0  0  0  0  0  0
  -23.9413  -22.7701   14.3694 C   0  0  2  0  0  0  0  0  0  0  0  0
  -19.7300  -23.7206   16.4129 C   0  0  0  0  0  0  0  0  0  0  0  0
  -25.8480  -11.5416   20.7526 N   0  0  0  0  0  0  0  0  0  0  0  0
  -31.2175  -19.5280   20.5044 N   0  0  0  0  0  0  0  0  0  0  0  0
  -30.5406  -18.3956   20.7606 N   0  0  0  0  0  0  0  0  0  0  0  0
  -21.9711  -23.6443   19.2123 N   0  0  0  0  0  0  0  0  0  0  0  0
  -32.2878  -15.0789   20.0153 N   0  0  0  0  0  0  0  0  0  0  0  0
  -28.3549  -17.5144   20.9993 N   0  0  0  0  0  0  0  0  0  0  0  0
  -27.6258  -21.8784   20.0934 N   0  0  0  0  0  0  0  0  0  0  0  0
  -20.7612  -25.7470   21.8286 N   0  0  0  0  0  0  0  0  0  0  0  0
  -22.1829  -23.4833   15.8377 N   0  0  0  0  0  0  0  0  0  0  0  0
  -30.6099  -13.6286   19.1936 N   0  0  0  0  0  0  0  0  0  0  0  0
  -22.3483  -12.6970   20.7094 N   0  0  0  0  0  0  0  0  0  0  0  0
  -25.2192  -22.0205   14.5305 N   0  3  0  0  0  0  0  0  0  0  0  0
  -26.6062  -19.8776   20.5585 O   0  0  0  0  0  0  0  0  0  0  0  0
  -20.1760  -23.5951   21.1583 O   0  0  0  0  0  0  0  0  0  0  0  0
  -21.7046  -25.4956   17.8202 O   0  0  0  0  0  0  0  0  0  0  0  0
  -22.9256  -21.2917   15.9881 O   0  0  0  0  0  0  0  0  0  0  0  0
  -32.5678  -12.7768   20.0291 O   0  0  0  0  0  0  0  0  0  0  0  0
  -31.5271  -25.7483   19.1777 O   0  0  0  0  0  0  0  0  0  0  0  0
  -23.2131  -18.3476   22.1200 O   0  0  0  0  0  0  0  0  0  1  0  0
  -28.8395  -29.6921   21.9396 F   0  0  0  0  0  0  0  0  0  0  0  0
  -28.7757  -25.9663   19.0206 F   0  0  0  0  0  0  0  0  0  0  0  0
  1  2  1  0  0  0  0
  1  5  2  0  0  0  0
  2  6  2  0  0  0  0
  3  8  2  0  0  0  0
  3 17  1  0  0  0  0
  4  9  1  0  0  0  0
  4 17  2  0  0  0  0
  5 19  1  0  0  0  0
  6 21  1  0  0  0  0
  7 10  2  0  0  0  0
  7 20  1  0  0  0  0
  8 25  1  0  0  0  0
  9 25  2  0  0  0  0
 10 26  1  0  0  0  0
 11 12  2  0  0  0  0
 11 27  1  0  0  0  0
 12 28  1  0  0  0  0
 13 22  1  0  0  0  0
 13 26  2  0  0  0  0
 14 23  1  0  0  0  0
 14 31  2  0  0  0  0
 15 28  2  0  0  0  0
 15 29  1  0  0  0  0
 16 24  1  0  0  0  0
 16 66  2  0  0  0  0
 17 30  1  0  0  0  0
 18 30  1  0  0  0  0
 18 32  2  0  0  0  0
 18 33  1  0  0  0  0
 19 21  2  0  0  0  0
 19 38  1  0  0  0  0
 20 22  2  0  0  0  0
 20 39  1  0  0  0  0
 21 47  1  0  0  0  0
 22 40  1  0  0  0  0
 23 24  2  0  0  0  0
 23 57  1  0  0  0  0
 24 76  1  0  0  0  0
 25 83  1  0  0  0  0
 26 84  1  0  0  0  0
 27 29  2  0  0  0  0
 27 83  1  0  0  0  0
 28 85  1  0  0  0  0
 29 86  1  0  0  0  0
 30 67  2  0  0  0  0
 31 58  1  0  0  0  0
 31 66  1  0  0  0  0
 32 68  1  0  0  0  0
 32 71  1  0  0  0  0
 33 72  1  0  0  0  0
 33 78  2  0  0  0  0
 34 48  1  0  0  0  0
 34 73  1  0  0  0  0
 34 79  2  0  0  0  0
 35 63  1  0  0  0  0
 35 69  1  0  0  0  0
 35 80  2  0  0  0  0
 36 64  1  0  0  0  0
 36 74  1  0  0  0  0
 36 81  2  0  0  0  0
 37 70  1  0  0  0  0
 37 75  1  0  0  0  0
 37 82  2  0  0  0  0
 38 41  1  0  0  0  0
 39 48  1  0  0  0  0
 40 69  1  0  0  0  0
 41 43  1  0  0  0  0
 42 44  1  0  0  0  0
 42 45  1  0  0  0  0
 43 47  1  0  0  0  0
 44 49  1  0  0  0  0
 45 70  1  0  0  0  0
 46 49  1  0  0  0  0
 46 70  1  0  0  0  0
 47 73  1  0  0  0  0
 48 69  1  0  0  0  0
 49 68  1  0  0  0  0
 50 64  1  0  0  0  0
 51 65  1  0  0  0  0
 52 65  1  0  0  0  0
 53 65  1  0  0  0  0
 54 76  1  0  0  0  0
 55 76  1  0  0  0  0
 56 77  1  0  0  0  0
 57 59  1  0  0  0  0
 58 60  1  0  0  0  0
 59 62  1  0  0  0  0
 60 61  1  0  0  0  0
 61 75  1  0  0  0  0
 62 84  1  0  0  0  0
 63 65  1  0  0  0  0
 63 74  1  0  0  0  0
 64 77  1  0  0  0  0
 67 68  1  0  0  0  0
M  CHG  1  77   1
M  ISO  4  37 100  62 101  75 100  84 101
M  END
> <Batch ID>
0084

> <Smiles>
CNC(C)C(=O)NC(C(=O)N1Cc2cc([101O:1][101CH2:1]CCc3cc(CCC[100NH:0][100C:0](=O)N4CCCC(n5nc(-c6ccc(Oc7ccc(F)cc7F)cc6)c(C(N)=O)c5N)C4)ncc3N(C)C)ccc2CC1C(=O)NC1CCCc2ccccc21)C(C)(C)C

> <Shape>
0.234

> <Color>
0.064

> <Negative vol penalty>
0.000

$$$$

  -OEChem-04052318543D

 81 89  0     1  0  0  0  0  0999 V2000
  -23.2346  -17.2111   27.5594 C   0  0  0  0  0  0  0  0  0  0  0  0
  -24.3403  -17.9983   27.2543 C   0  0  0  0  0  0  0  0  0  0  0  0
  -25.7279  -13.6187   21.4587 C   0  0  0  0  0  0  0  0  0  0  0  0
  -24.8081  -14.4473   19.3840 C   0  0  0  0  0  0  0  0  0  0  0  0
  -22.0311  -17.4098   26.8840 C   0  0  0  0  0  0  0  0  0  0  0  0
  -24.2435  -18.9840   26.2727 C   0  0  0  0  0  0  0  0  0  0  0  0
  -27.0705  -24.4164   26.2192 C   0  0  0  0  0  0  0  0  0  0  0  0
  -24.7015  -12.6775   21.5378 C   0  0  0  0  0  0  0  0  0  0  0  0
  -23.7817  -13.5061   19.4631 C   0  0  0  0  0  0  0  0  0  0  0  0
  -28.2256  -24.8665   25.5813 C   0  0  0  0  0  0  0  0  0  0  0  0
  -22.5278   -9.8185   22.1005 C   0  0  0  0  0  0  0  0  0  0  0  0
  -22.8718   -8.5112   22.4439 C   0  0  0  0  0  0  0  0  0  0  0  0
  -26.8811  -25.7527   23.7852 C   0  0  0  0  0  0  0  0  0  0  0  0
  -24.2980   -8.3754   20.4985 C   0  0  0  0  0  0  0  0  0  0  0  0
  -28.6241  -25.0714   18.9876 C   0  0  0  0  0  0  0  0  0  0  0  0
  -25.7812  -14.5037   20.3818 C   0  0  0  0  0  0  0  0  0  0  0  0
  -28.0948  -15.3174   19.6801 C   0  0  0  0  0  0  0  0  0  0  0  0
  -21.9168  -18.4049   25.9004 C   0  0  0  0  0  0  0  0  0  0  0  0
  -25.8107  -24.6219   25.6386 C   0  0  0  0  0  0  0  0  0  0  0  0
  -23.0378  -19.1953   25.5826 C   0  0  0  0  0  0  0  0  0  0  0  0
  -25.7113  -25.3065   24.4190 C   0  0  0  0  0  0  0  0  0  0  0  0
  -23.7284  -12.6212   20.5400 C   0  0  0  0  0  0  0  0  0  0  0  0
  -28.1312  -25.5322   24.3627 C   0  0  0  0  0  0  0  0  0  0  0  0
  -23.0688  -10.4044   20.9560 C   0  0  0  0  0  0  0  0  0  0  0  0
  -23.7570   -7.7896   21.6430 C   0  0  0  0  0  0  0  0  0  0  0  0
  -23.9539   -9.6828   20.1550 C   0  0  0  0  0  0  0  0  0  0  0  0
  -26.8408  -15.4765   20.2998 C   0  0  0  0  0  0  0  0  0  0  0  0
  -28.2396  -23.8317   18.5420 C   0  0  0  0  0  0  0  0  0  0  0  0
  -28.7302  -16.5191   19.8773 C   0  0  0  0  0  0  0  0  0  0  0  0
  -28.6368  -14.1848   18.9879 C   0  0  0  0  0  0  0  0  0  0  0  0
  -23.4919  -22.7226   24.5803 C   0  0  0  0  0  0  0  0  0  0  0  0
  -21.8985  -25.5238   24.2107 C   0  0  0  0  0  0  0  0  0  0  0  0
  -22.0463  -28.9060   23.7797 C   0  0  0  0  0  0  0  0  0  0  0  0
  -26.7292  -22.0811   20.8315 C   0  0  0  0  0  0  0  0  0  0  0  0
  -20.6087  -18.5508   25.1641 C   0  0  0  0  0  0  0  0  0  0  0  0
  -24.5722  -24.1538   26.3525 C   0  0  0  0  0  0  0  0  0  0  0  0
  -24.3811  -25.5702   23.7637 C   0  0  0  0  0  0  0  0  0  0  0  0
  -20.4830  -19.8668   24.4007 C   0  0  0  0  0  0  0  0  0  0  0  0
  -28.9120  -20.2026   22.9252 C   0  0  0  0  0  0  0  0  0  0  0  0
  -21.7561  -20.1486   23.6092 C   0  0  0  0  0  0  0  0  0  0  0  0
  -28.7418  -18.7640   22.4338 C   0  0  0  0  0  0  0  0  0  0  0  0
  -27.5966  -20.9764   22.8720 C   0  0  0  0  0  0  0  0  0  0  0  0
  -26.7522  -19.5239   21.0690 C   0  0  0  0  0  0  0  0  0  0  0  0
  -22.9652  -20.2912   24.5415 C   0  0  1  0  0  0  0  0  0  0  0  0
  -23.3803  -23.9641   25.4193 C   0  0  1  0  0  0  0  0  0  0  0  0
  -28.0637  -18.7202   21.0512 C   0  0  2  0  0  0  0  0  0  0  0  0
  -20.5793  -30.9186   23.4721 C   0  0  0  0  0  0  0  0  0  0  0  0
  -21.3931  -24.7098   21.3138 C   0  0  0  0  0  0  0  0  0  0  0  0
  -20.7920  -27.0901   20.8229 C   0  0  0  0  0  0  0  0  0  0  0  0
  -19.4387  -25.7748   22.4543 C   0  0  0  0  0  0  0  0  0  0  0  0
  -23.0594  -30.1674   26.2579 C   0  0  0  0  0  0  0  0  0  0  0  0
  -27.0227  -23.4468   17.8155 C   0  0  0  0  0  0  0  0  0  0  0  0
  -30.6424  -25.8165   21.7848 C   0  0  0  0  0  0  0  0  0  0  0  0
  -30.7298  -25.8386   20.2571 C   0  0  0  0  0  0  0  0  0  0  0  0
  -25.8421  -23.0395   18.7211 C   0  0  0  0  0  0  0  0  0  0  0  0
  -29.2282  -26.0296   22.3120 C   0  0  0  0  0  0  0  0  0  1  0  0
  -21.7612  -26.5372   23.1002 C   0  0  1  0  0  0  0  0  0  0  0  0
  -21.3168  -30.0426   24.4728 C   0  0  2  0  0  0  0  0  0  0  0  0
  -20.8716  -26.0214   21.9339 C   0  0  0  0  0  0  0  0  0  0  0  0
  -26.6869  -16.6840   20.8497 N   0  0  0  0  0  0  0  0  0  0  0  0
  -29.1936  -22.9091   18.8706 N   0  0  0  0  0  0  0  0  0  0  0  0
  -30.1689  -23.5417   19.5137 N   0  0  0  0  0  0  0  0  0  0  0  0
  -29.8255  -24.8380   19.5830 N   0  0  0  0  0  0  0  0  0  0  0  0
  -27.8525  -17.2945   20.5763 N   0  0  0  0  0  0  0  0  0  0  0  0
  -23.1997  -25.0876   24.4977 N   0  0  0  0  0  0  0  0  0  0  0  0
  -27.0060  -20.8966   21.5338 N   0  0  0  0  0  0  0  0  0  0  0  0
  -29.9485  -16.9774   19.5194 N   0  0  0  0  0  0  0  0  0  0  0  0
  -27.8498  -13.0304   18.8766 N   0  0  0  0  0  0  0  0  0  0  0  0
  -22.9642  -21.5924   25.1750 N   0  0  0  0  0  0  0  0  0  0  0  0
  -21.2763  -27.7635   23.7242 N   0  0  0  0  0  0  0  0  0  0  0  0
  -26.1761  -21.9158   19.5676 N   0  0  0  0  0  0  0  0  0  0  0  0
  -22.2812  -30.8958   25.2231 N   0  3  0  0  0  0  0  0  0  0  0  0
  -29.7913  -14.1904   18.4973 O   0  0  0  0  0  0  0  0  0  0  0  0
  -24.0165  -22.7858   23.4746 O   0  0  0  0  0  0  0  0  0  0  0  0
  -20.8892  -25.1391   24.8065 O   0  0  0  0  0  0  0  0  0  0  0  0
  -23.1839  -29.0214   23.3289 O   0  0  0  0  0  0  0  0  0  0  0  0
  -26.9631  -23.2028   21.2942 O   0  0  0  0  0  0  0  0  0  0  0  0
  -22.7269  -11.7027   20.6168 O   0  0  0  0  0  0  0  0  0  0  0  0
  -29.2572  -25.9719   23.7376 O   0  0  0  0  0  0  0  0  0  1  0  0
  -24.0885   -6.5347   21.9737 F   0  0  0  0  0  0  0  0  0  0  0  0
  -24.4779  -10.2407   19.0550 F   0  0  0  0  0  0  0  0  0  0  0  0
  1  2  1  0  0  0  0
  1  5  2  0  0  0  0
  2  6  2  0  0  0  0
  3  8  2  0  0  0  0
  3 16  1  0  0  0  0
  4  9  1  0  0  0  0
  4 16  2  0  0  0  0
  5 18  1  0  0  0  0
  6 20  1  0  0  0  0
  7 10  2  0  0  0  0
  7 19  1  0  0  0  0
  8 22  1  0  0  0  0
  9 22  2  0  0  0  0
 10 23  1  0  0  0  0
 11 12  2  0  0  0  0
 11 24  1  0  0  0  0
 12 25  1  0  0  0  0
 13 21  1  0  0  0  0
 13 23  2  0  0  0  0
 14 25  2  0  0  0  0
 14 26  1  0  0  0  0
 15 28  2  0  0  0  0
 15 63  1  0  0  0  0
 16 27  1  0  0  0  0
 17 27  1  0  0  0  0
 17 29  2  0  0  0  0
 17 30  1  0  0  0  0
 18 20  2  0  0  0  0
 18 35  1  0  0  0  0
 19 21  2  0  0  0  0
 19 36  1  0  0  0  0
 20 44  1  0  0  0  0
 21 37  1  0  0  0  0
 22 78  1  0  0  0  0
 23 79  1  0  0  0  0
 24 26  2  0  0  0  0
 24 78  1  0  0  0  0
 25 80  1  0  0  0  0
 26 81  1  0  0  0  0
 27 60  2  0  0  0  0
 28 52  1  0  0  0  0
 28 61  1  0  0  0  0
 29 64  1  0  0  0  0
 29 67  1  0  0  0  0
 30 68  1  0  0  0  0
 30 73  2  0  0  0  0
 31 45  1  0  0  0  0
 31 69  1  0  0  0  0
 31 74  2  0  0  0  0
 32 57  1  0  0  0  0
 32 65  1  0  0  0  0
 32 75  2  0  0  0  0
 33 58  1  0  0  0  0
 33 70  1  0  0  0  0
 33 76  2  0  0  0  0
 34 66  1  0  0  0  0
 34 71  1  0  0  0  0
 34 77  2  0  0  0  0
 35 38  1  0  0  0  0
 36 45  1  0  0  0  0
 37 65  1  0  0  0  0
 38 40  1  0  0  0  0
 39 41  1  0  0  0  0
 39 42  1  0  0  0  0
 40 44  1  0  0  0  0
 41 46  1  0  0  0  0
 42 66  1  0  0  0  0
 43 46  1  0  0  0  0
 43 66  1  0  0  0  0
 44 69  1  0  0  0  0
 45 65  1  0  0  0  0
 46 64  1  0  0  0  0
 47 58  1  0  0  0  0
 48 59  1  0  0  0  0
 49 59  1  0  0  0  0
 50 59  1  0  0  0  0
 51 72  1  0  0  0  0
 52 55  1  0  0  0  0
 53 54  1  0  0  0  0
 53 56  1  0  0  0  0
 54 63  1  0  0  0  0
 55 71  1  0  0  0  0
 56 79  1  0  0  0  0
 57 59  1  0  0  0  0
 57 70  1  0  0  0  0
 58 72  1  0  0  0  0
 60 64  1  0  0  0  0
 61 62  2  0  0  0  0
 62 63  1  0  0  0  0
M  CHG  1  72   1
M  ISO  4  34 100  56 101  71 100  79 101
M  END
> <Batch ID>
0084

> <Smiles>
CNC(C)C(=O)NC(C(=O)N1Cc2cc([101O:1][101CH2:1]CCn3cc(CC[100NH:0][100C:0](=O)N4CCCC(n5nc(-c6ccc(Oc7ccc(F)cc7F)cc6)c(C(N)=O)c5N)C4)nn3)ccc2CC1C(=O)NC1CCCc2ccccc21)C(C)(C)C

> <Shape>
0.178

> <Color>
0.070

> <Negative vol penalty>
0.000

$$$$

  -OEChem-04052318543D

 86 94  0     1  0  0  0  0  0999 V2000
  -28.2458  -11.7258   22.7088 C   0  0  0  0  0  0  0  0  0  0  0  0
  -28.6624  -12.9175   22.1243 C   0  0  0  0  0  0  0  0  0  0  0  0
  -20.0610  -28.2409   23.8829 C   0  0  0  0  0  0  0  0  0  0  0  0
  -20.1575  -27.0639   21.7751 C   0  0  0  0  0  0  0  0  0  0  0  0
  -26.9962  -11.1948   22.3918 C   0  0  0  0  0  0  0  0  0  0  0  0
  -27.8301  -13.5783   21.2215 C   0  0  0  0  0  0  0  0  0  0  0  0
  -27.6124  -18.5657   22.0720 C   0  0  0  0  0  0  0  0  0  0  0  0
  -18.6697  -28.2855   23.7943 C   0  0  0  0  0  0  0  0  0  0  0  0
  -18.7661  -27.1084   21.6866 C   0  0  0  0  0  0  0  0  0  0  0  0
  -28.6887  -19.3344   21.6312 C   0  0  0  0  0  0  0  0  0  0  0  0
  -16.1336  -25.4486   23.0039 C   0  0  0  0  0  0  0  0  0  0  0  0
  -15.4721  -24.2805   22.6249 C   0  0  0  0  0  0  0  0  0  0  0  0
  -30.0877  -25.9234   16.9980 C   0  0  0  0  0  0  0  0  0  0  0  0
  -30.8174  -24.7941   17.4442 C   0  0  0  0  0  0  0  0  0  0  0  0
  -27.4196  -19.9849   19.6856 C   0  0  0  0  0  0  0  0  0  0  0  0
  -14.5567  -25.4226   20.7028 C   0  0  0  0  0  0  0  0  0  0  0  0
  -20.8049  -27.6301   22.8732 C   0  0  0  0  0  0  0  0  0  0  0  0
  -23.0246  -26.5780   23.5614 C   0  0  0  0  0  0  0  0  0  0  0  0
  -26.1442  -11.8544   21.4920 C   0  0  0  0  0  0  0  0  0  0  0  0
  -26.4335  -18.4920   21.3162 C   0  0  0  0  0  0  0  0  0  0  0  0
  -26.5685  -13.0549   20.8911 C   0  0  0  0  0  0  0  0  0  0  0  0
  -26.3288  -19.2166   20.1203 C   0  0  0  0  0  0  0  0  0  0  0  0
  -18.0222  -27.7192   22.6962 C   0  0  0  0  0  0  0  0  0  0  0  0
  -28.5935  -20.0418   20.4364 C   0  0  0  0  0  0  0  0  0  0  0  0
  -16.0066  -26.6037   22.2324 C   0  0  0  0  0  0  0  0  0  0  0  0
  -14.6837  -24.2675   21.4743 C   0  0  0  0  0  0  0  0  0  0  0  0
  -15.2182  -26.5907   21.0818 C   0  0  0  0  0  0  0  0  0  0  0  0
  -22.2422  -27.5842   22.9638 C   0  0  0  0  0  0  0  0  0  0  0  0
  -28.9707  -26.0333   17.7965 C   0  0  0  0  0  0  0  0  0  0  0  0
  -30.1240  -24.2480   18.5018 C   0  0  0  0  0  0  0  0  0  0  0  0
  -24.3198  -26.9995   23.3843 C   0  0  0  0  0  0  0  0  0  0  0  0
  -22.6171  -25.3701   24.2177 C   0  0  0  0  0  0  0  0  0  0  0  0
  -24.8479  -16.1564   19.8552 C   0  0  0  0  0  0  0  0  0  0  0  0
  -22.6536  -18.4911   19.3489 C   0  0  0  0  0  0  0  0  0  0  0  0
  -21.9841  -21.8254   19.0642 C   0  0  0  0  0  0  0  0  0  0  0  0
  -26.9229  -30.6012   19.3714 C   0  0  0  0  0  0  0  0  0  0  0  0
  -24.8222  -11.2172   21.1442 C   0  0  0  0  0  0  0  0  0  0  0  0
  -25.2717  -17.6797   21.8189 C   0  0  0  0  0  0  0  0  0  0  0  0
  -25.0778  -19.1871   19.2822 C   0  0  0  0  0  0  0  0  0  0  0  0
  -23.8455  -12.1732   20.4641 C   0  0  0  0  0  0  0  0  0  0  0  0
  -26.9301  -30.9811   22.9115 C   0  0  0  0  0  0  0  0  0  0  0  0
  -24.5469  -12.9557   19.3584 C   0  0  0  0  0  0  0  0  0  0  0  0
  -25.8001  -30.0629   23.3802 C   0  0  0  0  0  0  0  0  0  0  0  0
  -26.5923  -31.6604   21.5862 C   0  0  0  0  0  0  0  0  0  0  0  0
  -25.0697  -29.8230   20.9703 C   0  0  0  0  0  0  0  0  0  0  0  0
  -25.6839  -13.8140   19.9261 C   0  0  1  0  0  0  0  0  0  0  0  0
  -24.3075  -17.2669   20.7111 C   0  0  1  0  0  0  0  0  0  0  0  0
  -25.3874  -29.0723   22.2749 C   0  0  2  0  0  0  0  0  0  0  0  0
  -25.5758  -24.3446   20.2247 C   0  0  0  0  0  0  0  0  0  0  0  0
  -20.6120  -23.9123   18.8196 C   0  0  0  0  0  0  0  0  0  0  0  0
  -30.6203  -23.3392   20.8697 C   0  0  0  0  0  0  0  0  0  0  0  0
  -31.7878  -22.4029   18.8852 C   0  0  0  0  0  0  0  0  0  0  0  0
  -22.7746  -17.7884   16.3822 C   0  0  0  0  0  0  0  0  0  0  0  0
  -21.6544  -19.9727   15.8904 C   0  0  0  0  0  0  0  0  0  0  0  0
  -20.4755  -18.2473   17.2526 C   0  0  0  0  0  0  0  0  0  0  0  0
  -21.6051  -22.0581   21.9901 C   0  0  0  0  0  0  0  0  0  0  0  0
  -27.8789  -27.0282   17.7654 C   0  0  0  0  0  0  0  0  0  0  0  0
  -26.6104  -24.5844   19.1374 C   0  0  0  0  0  0  0  0  0  0  0  0
  -28.2894  -28.4311   17.2579 C   0  0  0  0  0  0  0  0  0  0  0  0
  -28.0061  -24.7688   19.7287 C   0  0  0  0  0  0  0  0  0  0  0  0
  -27.1380  -29.4322   17.1928 C   0  0  0  0  0  0  0  0  0  0  0  0
  -29.3372  -21.9475   19.2235 C   0  0  0  0  0  0  0  0  0  1  0  0
  -22.4131  -19.5158   18.2667 C   0  0  1  0  0  0  0  0  0  0  0  0
  -20.8993  -22.6911   19.6793 C   0  0  2  0  0  0  0  0  0  0  0  0
  -30.4521  -23.0157   19.3656 C   0  0  0  0  0  0  0  0  0  0  0  0
  -21.8538  -18.8803   16.9626 C   0  0  0  0  0  0  0  0  0  0  0  0
  -22.9788  -28.5708   22.4460 N   0  0  0  0  0  0  0  0  0  0  0  0
  -29.0031  -25.0093   18.7068 N   0  0  0  0  0  0  0  0  0  0  0  0
  -24.2376  -28.1866   22.7177 N   0  0  0  0  0  0  0  0  0  0  0  0
  -23.9715  -18.3734   19.8128 N   0  0  0  0  0  0  0  0  0  0  0  0
  -26.2109  -30.6659   20.5805 N   0  0  0  0  0  0  0  0  0  0  0  0
  -25.5095  -26.4669   23.7353 N   0  0  0  0  0  0  0  0  0  0  0  0
  -21.2470  -25.0905   24.3120 N   0  0  0  0  0  0  0  0  0  0  0  0
  -25.1529  -15.0044   20.5548 N   0  0  0  0  0  0  0  0  0  0  0  0
  -21.5488  -20.5341   18.8535 N   0  0  0  0  0  0  0  0  0  0  0  0
  -26.5006  -29.6260   18.4761 N   0  0  0  0  0  0  0  0  0  0  0  0
  -21.3135  -23.1564   21.0332 N   0  3  0  0  0  0  0  0  0  0  0  0
  -23.4429  -24.5708   24.7205 O   0  0  0  0  0  0  0  0  0  0  0  0
  -24.9772  -16.3312   18.6492 O   0  0  0  0  0  0  0  0  0  0  0  0
  -21.7057  -17.8249   19.7723 O   0  0  0  0  0  0  0  0  0  0  0  0
  -23.1042  -22.2529   18.7939 O   0  0  0  0  0  0  0  0  0  0  0  0
  -27.8685  -31.3529   19.1114 O   0  0  0  0  0  0  0  0  0  0  0  0
  -16.6646  -27.7623   22.6096 O   0  0  0  0  0  0  0  0  0  0  0  0
  -29.6429  -20.7924   20.0035 O   0  0  0  0  0  0  0  0  0  1  0  0
  -14.0498  -23.1453   21.1097 F   0  0  0  0  0  0  0  0  0  0  0  0
  -15.0933  -27.6970   20.3360 F   0  0  0  0  0  0  0  0  0  0  0  0
  1  2  1  0  0  0  0
  1  5  2  0  0  0  0
  2  6  2  0  0  0  0
  3  8  2  0  0  0  0
  3 17  1  0  0  0  0
  4  9  1  0  0  0  0
  4 17  2  0  0  0  0
  5 19  1  0  0  0  0
  6 21  1  0  0  0  0
  7 10  2  0  0  0  0
  7 20  1  0  0  0  0
  8 23  1  0  0  0  0
  9 23  2  0  0  0  0
 10 24  1  0  0  0  0
 11 12  2  0  0  0  0
 11 25  1  0  0  0  0
 12 26  1  0  0  0  0
 13 14  1  0  0  0  0
 13 29  2  0  0  0  0
 14 30  2  0  0  0  0
 15 22  1  0  0  0  0
 15 24  2  0  0  0  0
 16 26  2  0  0  0  0
 16 27  1  0  0  0  0
 17 28  1  0  0  0  0
 18 28  1  0  0  0  0
 18 31  2  0  0  0  0
 18 32  1  0  0  0  0
 19 21  2  0  0  0  0
 19 37  1  0  0  0  0
 20 22  2  0  0  0  0
 20 38  1  0  0  0  0
 21 46  1  0  0  0  0
 22 39  1  0  0  0  0
 23 83  1  0  0  0  0
 24 84  1  0  0  0  0
 25 27  2  0  0  0  0
 25 83  1  0  0  0  0
 26 85  1  0  0  0  0
 27 86  1  0  0  0  0
 28 67  2  0  0  0  0
 29 57  1  0  0  0  0
 29 68  1  0  0  0  0
 30 65  1  0  0  0  0
 30 68  1  0  0  0  0
 31 69  1  0  0  0  0
 31 72  1  0  0  0  0
 32 73  1  0  0  0  0
 32 78  2  0  0  0  0
 33 47  1  0  0  0  0
 33 74  1  0  0  0  0
 33 79  2  0  0  0  0
 34 63  1  0  0  0  0
 34 70  1  0  0  0  0
 34 80  2  0  0  0  0
 35 64  1  0  0  0  0
 35 75  1  0  0  0  0
 35 81  2  0  0  0  0
 36 71  1  0  0  0  0
 36 76  1  0  0  0  0
 36 82  2  0  0  0  0
 37 40  1  0  0  0  0
 38 47  1  0  0  0  0
 39 70  1  0  0  0  0
 40 42  1  0  0  0  0
 41 43  1  0  0  0  0
 41 44  1  0  0  0  0
 42 46  1  0  0  0  0
 43 48  1  0  0  0  0
 44 71  1  0  0  0  0
 45 48  1  0  0  0  0
 45 71  1  0  0  0  0
 46 74  1  0  0  0  0
 47 70  1  0  0  0  0
 48 69  1  0  0  0  0
 49 58  1  0  0  0  0
 50 64  1  0  0  0  0
 51 65  1  0  0  0  0
 52 65  1  0  0  0  0
 53 66  1  0  0  0  0
 54 66  1  0  0  0  0
 55 66  1  0  0  0  0
 56 77  1  0  0  0  0
 57 59  1  0  0  0  0
 58 60  1  0  0  0  0
 59 61  1  0  0  0  0
 60 68  1  0  0  0  0
 61 76  1  0  0  0  0
 62 65  1  0  0  0  0
 62 84  1  0  0  0  0
 63 66  1  0  0  0  0
 63 75  1  0  0  0  0
 64 77  1  0  0  0  0
 67 69  1  0  0  0  0
M  CHG  1  77   1
M  ISO  4  36 100  62 101  76 100  84 101
M  END
> <Batch ID>
0084

> <Smiles>
CCCn1c(CCC[100NH:0][100C:0](=O)N2CCCC(n3nc(-c4ccc(Oc5ccc(F)cc5F)cc4)c(C(N)=O)c3N)C2)ccc1C(C)(C)[101CH2:1][101O:1]c1ccc2c(c1)CN(C(=O)C(NC(=O)C(C)NC)C(C)(C)C)C(C(=O)NC1CCCc3ccccc31)C2

> <Shape>
0.207

> <Color>
0.079

> <Negative vol penalty>
0.000

$$$$

  -OEChem-04052318543D

 86 94  0     1  0  0  0  0  0999 V2000
  -30.5695  -32.3796   16.9140 C   0  0  0  0  0  0  0  0  0  0  0  0
  -30.6056  -31.8814   18.2124 C   0  0  0  0  0  0  0  0  0  0  0  0
  -22.9575  -10.1231   19.8795 C   0  0  0  0  0  0  0  0  0  0  0  0
  -23.8421   -9.8175   22.1069 C   0  0  0  0  0  0  0  0  0  0  0  0
  -29.7817  -31.7525   15.9496 C   0  0  0  0  0  0  0  0  0  0  0  0
  -29.8529  -30.7564   18.5475 C   0  0  0  0  0  0  0  0  0  0  0  0
  -30.0035  -25.0084   22.8200 C   0  0  0  0  0  0  0  0  0  0  0  0
  -22.1605   -8.9898   20.0406 C   0  0  0  0  0  0  0  0  0  0  0  0
  -23.0450   -8.6842   22.2680 C   0  0  0  0  0  0  0  0  0  0  0  0
  -29.2230  -24.3525   23.7709 C   0  0  0  0  0  0  0  0  0  0  0  0
  -20.9758   -5.9178   23.4007 C   0  0  0  0  0  0  0  0  0  0  0  0
  -20.2842   -5.7760   24.6037 C   0  0  0  0  0  0  0  0  0  0  0  0
  -27.9603  -23.3045   22.0027 C   0  0  0  0  0  0  0  0  0  0  0  0
  -28.5624  -19.7861   24.3849 C   0  0  0  0  0  0  0  0  0  0  0  0
  -19.1200   -7.8500   24.1788 C   0  0  0  0  0  0  0  0  0  0  0  0
  -26.5661  -19.0735   25.1444 C   0  0  0  0  0  0  0  0  0  0  0  0
  -23.7984  -10.5369   20.9127 C   0  0  0  0  0  0  0  0  0  0  0  0
  -24.2846  -13.0367   21.0635 C   0  0  0  0  0  0  0  0  0  0  0  0
  -29.0266  -30.6135   16.2706 C   0  0  0  0  0  0  0  0  0  0  0  0
  -29.7609  -24.8255   21.4510 C   0  0  0  0  0  0  0  0  0  0  0  0
  -29.0532  -30.1143   17.5868 C   0  0  0  0  0  0  0  0  0  0  0  0
  -28.7408  -23.9573   21.0364 C   0  0  0  0  0  0  0  0  0  0  0  0
  -27.4875  -20.0912   25.2560 C   0  0  0  0  0  0  0  0  0  0  0  0
  -22.2042   -8.2703   21.2348 C   0  0  0  0  0  0  0  0  0  0  0  0
  -28.1993  -23.5026   23.3624 C   0  0  0  0  0  0  0  0  0  0  0  0
  -20.7396   -7.0257   22.5868 C   0  0  0  0  0  0  0  0  0  0  0  0
  -19.3563   -6.7421   24.9927 C   0  0  0  0  0  0  0  0  0  0  0  0
  -19.8117   -7.9917   22.9758 C   0  0  0  0  0  0  0  0  0  0  0  0
  -24.6224  -11.7072   20.7467 C   0  0  0  0  0  0  0  0  0  0  0  0
  -28.2649  -18.5913   23.7674 C   0  0  0  0  0  0  0  0  0  0  0  0
  -25.3981  -13.7646   20.7220 C   0  0  0  0  0  0  0  0  0  0  0  0
  -23.0726  -13.5662   21.6169 C   0  0  0  0  0  0  0  0  0  0  0  0
  -28.9026  -26.7253   19.0515 C   0  0  0  0  0  0  0  0  0  0  0  0
  -29.4156  -24.0614   17.2731 C   0  0  0  0  0  0  0  0  0  0  0  0
  -29.5964  -20.6560   17.1419 C   0  0  0  0  0  0  0  0  0  0  0  0
  -30.9353  -14.4601   20.6864 C   0  0  0  0  0  0  0  0  0  0  0  0
  -28.1532  -29.9979   15.2062 C   0  0  0  0  0  0  0  0  0  0  0  0
  -30.6291  -25.5196   20.4377 C   0  0  0  0  0  0  0  0  0  0  0  0
  -28.4528  -23.7110   19.5787 C   0  0  0  0  0  0  0  0  0  0  0  0
  -27.6773  -28.5884   15.5488 C   0  0  0  0  0  0  0  0  0  0  0  0
  -29.5259  -12.4395   18.1158 C   0  0  0  0  0  0  0  0  0  0  0  0
  -27.1607  -28.5333   16.9830 C   0  0  0  0  0  0  0  0  0  0  0  0
  -28.0995  -12.1736   18.6003 C   0  0  0  0  0  0  0  0  0  0  0  0
  -30.5197  -12.4671   19.2750 C   0  0  0  0  0  0  0  0  0  0  0  0
  -28.7450  -13.1290   20.8518 C   0  0  0  0  0  0  0  0  0  0  0  0
  -28.2701  -28.8814   17.9828 C   0  0  1  0  0  0  0  0  0  0  0  0
  -29.9607  -25.6587   19.0734 C   0  0  1  0  0  0  0  0  0  0  0  0
  -27.6985  -13.1475   19.7245 C   0  0  2  0  0  0  0  0  0  0  0  0
  -27.9273  -21.0313   27.5482 C   0  0  0  0  0  0  0  0  0  0  0  0
  -29.1296  -18.5545   21.3989 C   0  0  0  0  0  0  0  0  0  0  0  0
  -29.9952  -18.7647   15.5414 C   0  0  0  0  0  0  0  0  0  0  0  0
  -26.6001  -24.4189   16.1528 C   0  0  0  0  0  0  0  0  0  0  0  0
  -26.7018  -22.0559   15.3320 C   0  0  0  0  0  0  0  0  0  0  0  0
  -28.3174  -23.7466   14.4637 C   0  0  0  0  0  0  0  0  0  0  0  0
  -31.4182  -18.4181   23.6509 C   0  0  0  0  0  0  0  0  0  0  0  0
  -30.2784  -16.3662   24.4937 C   0  0  0  0  0  0  0  0  0  0  0  0
  -26.3660  -16.9538   23.8456 C   0  0  0  0  0  0  0  0  0  0  0  0
  -31.9825  -19.7420   18.6352 C   0  0  0  0  0  0  0  0  0  0  0  0
  -31.1989  -16.4422   22.1563 C   0  0  0  0  0  0  0  0  0  0  0  0
  -28.0552  -22.5439   25.5340 C   0  0  0  0  0  0  0  0  0  1  0  0
  -27.3714  -21.3157   26.1501 C   0  0  1  0  0  0  0  0  0  0  0  0
  -29.0379  -17.8207   22.7714 C   0  0  1  0  0  0  0  0  0  0  0  0
  -28.5693  -22.8925   16.8299 C   0  0  1  0  0  0  0  0  0  0  0  0
  -30.6304  -19.7248   16.5351 C   0  0  2  0  0  0  0  0  0  0  0  0
  -27.5510  -23.2844   15.7222 C   0  0  0  0  0  0  0  0  0  0  0  0
  -30.4652  -17.2701   23.2508 C   0  0  0  0  0  0  0  0  0  0  0  0
  -25.8541  -11.5943   20.2426 N   0  0  0  0  0  0  0  0  0  0  0  0
  -27.0490  -18.1675   24.2365 N   0  0  0  0  0  0  0  0  0  0  0  0
  -26.3000  -12.8621   20.2399 N   0  0  0  0  0  0  0  0  0  0  0  0
  -29.3251  -24.4176   18.6262 N   0  0  0  0  0  0  0  0  0  0  0  0
  -30.0819  -13.4112   20.3060 N   0  0  0  0  0  0  0  0  0  0  0  0
  -25.6840  -15.0822   20.7900 N   0  0  0  0  0  0  0  0  0  0  0  0
  -22.0279  -12.6787   21.9093 N   0  0  0  0  0  0  0  0  0  0  0  0
  -29.1586  -27.7536   18.1646 N   0  0  0  0  0  0  0  0  0  0  0  0
  -29.5002  -21.8390   16.4402 N   0  0  0  0  0  0  0  0  0  0  0  0
  -30.4407  -15.3131   21.6653 N   0  0  0  0  0  0  0  0  0  0  0  0
  -31.2962  -18.9248   17.6017 N   0  3  0  0  0  0  0  0  0  0  0  0
  -22.9144  -14.7922   21.8302 O   0  0  0  0  0  0  0  0  0  0  0  0
  -27.9256  -26.6223   19.7840 O   0  0  0  0  0  0  0  0  0  0  0  0
  -30.1360  -24.6327   16.4508 O   0  0  0  0  0  0  0  0  0  0  0  0
  -28.9370  -20.3617   18.1364 O   0  0  0  0  0  0  0  0  0  0  0  0
  -32.0529  -14.6272   20.1865 O   0  0  0  0  0  0  0  0  0  0  0  0
  -21.4265   -7.1645   21.3924 O   0  0  0  0  0  0  0  0  0  0  0  0
  -27.4355  -22.8616   24.2884 O   0  0  0  0  0  0  0  0  0  1  0  0
  -18.6911   -6.6051   26.1472 F   0  0  0  0  0  0  0  0  0  0  0  0
  -19.5797   -9.0576   22.1974 F   0  0  0  0  0  0  0  0  0  0  0  0
  1  2  1  0  0  0  0
  1  5  2  0  0  0  0
  2  6  2  0  0  0  0
  3  8  2  0  0  0  0
  3 17  1  0  0  0  0
  4  9  1  0  0  0  0
  4 17  2  0  0  0  0
  5 19  1  0  0  0  0
  6 21  1  0  0  0  0
  7 10  2  0  0  0  0
  7 20  1  0  0  0  0
  8 24  1  0  0  0  0
  9 24  2  0  0  0  0
 10 25  1  0  0  0  0
 11 12  2  0  0  0  0
 11 26  1  0  0  0  0
 12 27  1  0  0  0  0
 13 22  1  0  0  0  0
 13 25  2  0  0  0  0
 14 23  1  0  0  0  0
 14 30  2  0  0  0  0
 15 27  2  0  0  0  0
 15 28  1  0  0  0  0
 16 23  2  0  0  0  0
 16 68  1  0  0  0  0
 17 29  1  0  0  0  0
 18 29  1  0  0  0  0
 18 31  2  0  0  0  0
 18 32  1  0  0  0  0
 19 21  2  0  0  0  0
 19 37  1  0  0  0  0
 20 22  2  0  0  0  0
 20 38  1  0  0  0  0
 21 46  1  0  0  0  0
 22 39  1  0  0  0  0
 23 61  1  0  0  0  0
 24 83  1  0  0  0  0
 25 84  1  0  0  0  0
 26 28  2  0  0  0  0
 26 83  1  0  0  0  0
 27 85  1  0  0  0  0
 28 86  1  0  0  0  0
 29 67  2  0  0  0  0
 30 62  1  0  0  0  0
 30 68  1  0  0  0  0
 31 69  1  0  0  0  0
 31 72  1  0  0  0  0
 32 73  1  0  0  0  0
 32 78  2  0  0  0  0
 33 47  1  0  0  0  0
 33 74  1  0  0  0  0
 33 79  2  0  0  0  0
 34 63  1  0  0  0  0
 34 70  1  0  0  0  0
 34 80  2  0  0  0  0
 35 64  1  0  0  0  0
 35 75  1  0  0  0  0
 35 81  2  0  0  0  0
 36 71  1  0  0  0  0
 36 76  1  0  0  0  0
 36 82  2  0  0  0  0
 37 40  1  0  0  0  0
 38 47  1  0  0  0  0
 39 70  1  0  0  0  0
 40 42  1  0  0  0  0
 41 43  1  0  0  0  0
 41 44  1  0  0  0  0
 42 46  1  0  0  0  0
 43 48  1  0  0  0  0
 44 71  1  0  0  0  0
 45 48  1  0  0  0  0
 45 71  1  0  0  0  0
 46 74  1  0  0  0  0
 47 70  1  0  0  0  0
 48 69  1  0  0  0  0
 49 61  1  0  0  0  0
 50 62  1  0  0  0  0
 51 64  1  0  0  0  0
 52 65  1  0  0  0  0
 53 65  1  0  0  0  0
 54 65  1  0  0  0  0
 55 66  1  0  0  0  0
 56 66  1  0  0  0  0
 57 68  1  0  0  0  0
 58 77  1  0  0  0  0
 59 66  1  0  0  0  0
 59 76  1  0  0  0  0
 60 61  1  0  0  0  0
 60 84  1  0  0  0  0
 62 66  1  0  0  0  0
 63 65  1  0  0  0  0
 63 75  1  0  0  0  0
 64 77  1  0  0  0  0
 67 69  1  0  0  0  0
M  CHG  1  77   1
M  ISO  4  36 100  60 101  76 100  84 101
M  END
> <Batch ID>
0084

> <Smiles>
CNC(C)C(=O)NC(C(=O)N1Cc2cc([101O:1][101CH2:1]C(C)c3cc(C(C)C(C)(C)C[100NH:0][100C:0](=O)N4CCCC(n5nc(-c6ccc(Oc7ccc(F)cc7F)cc6)c(C(N)=O)c5N)C4)n(C)c3)ccc2CC1C(=O)NC1CCCc2ccccc21)C(C)(C)C

> <Shape>
0.227

> <Color>
0.190

> <Negative vol penalty>
0.000

$$$$

  -OEChem-04052318543D

 85 93  0     1  0  0  0  0  0999 V2000
  -20.3509  -28.3252   18.8966 C   0  0  0  0  0  0  0  0  0  0  0  0
  -21.0598  -27.1283   18.9066 C   0  0  0  0  0  0  0  0  0  0  0  0
  -28.1130  -23.8600   20.6606 C   0  0  0  0  0  0  0  0  0  0  0  0
  -26.7852  -22.6961   19.0116 C   0  0  0  0  0  0  0  0  0  0  0  0
  -19.7159  -28.7677   20.0563 C   0  0  0  0  0  0  0  0  0  0  0  0
  -21.1351  -26.3736   20.0767 C   0  0  0  0  0  0  0  0  0  0  0  0
  -21.2827  -20.2670   20.5159 C   0  0  0  0  0  0  0  0  0  0  0  0
  -27.7852  -25.0779   20.0650 C   0  0  0  0  0  0  0  0  0  0  0  0
  -26.4573  -23.9140   18.4160 C   0  0  0  0  0  0  0  0  0  0  0  0
  -22.3313  -19.3638   20.6846 C   0  0  0  0  0  0  0  0  0  0  0  0
  -25.1560  -27.2036   20.0253 C   0  0  0  0  0  0  0  0  0  0  0  0
  -24.7814  -28.2546   20.8624 C   0  0  0  0  0  0  0  0  0  0  0  0
  -21.9231  -19.3432   23.0620 C   0  0  0  0  0  0  0  0  0  0  0  0
  -24.2042  -12.6731   21.6748 C   0  0  0  0  0  0  0  0  0  0  0  0
  -25.6300  -14.0482   20.3108 C   0  0  0  0  0  0  0  0  0  0  0  0
  -26.6286  -29.5730   20.0336 C   0  0  0  0  0  0  0  0  0  0  0  0
  -27.6131  -22.6691   20.1339 C   0  0  0  0  0  0  0  0  0  0  0  0
  -27.2524  -20.7512   21.7768 C   0  0  0  0  0  0  0  0  0  0  0  0
  -19.7754  -28.0133   21.2386 C   0  0  0  0  0  0  0  0  0  0  0  0
  -20.5523  -20.7242   21.6221 C   0  0  0  0  0  0  0  0  0  0  0  0
  -20.5015  -26.8071   21.2537 C   0  0  0  0  0  0  0  0  0  0  0  0
  -20.8641  -20.2502   22.9044 C   0  0  0  0  0  0  0  0  0  0  0  0
  -24.5557  -13.9260   21.1851 C   0  0  0  0  0  0  0  0  0  0  0  0
  -26.9573  -25.1049   18.9427 C   0  0  0  0  0  0  0  0  0  0  0  0
  -22.6535  -18.9040   21.9581 C   0  0  0  0  0  0  0  0  0  0  0  0
  -26.2669  -27.3373   19.1924 C   0  0  0  0  0  0  0  0  0  0  0  0
  -25.5177  -29.4393   20.8666 C   0  0  0  0  0  0  0  0  0  0  0  0
  -27.0032  -28.5220   19.1966 C   0  0  0  0  0  0  0  0  0  0  0  0
  -27.9519  -21.4106   20.7484 C   0  0  0  0  0  0  0  0  0  0  0  0
  -24.9528  -11.5823   21.2629 C   0  0  0  0  0  0  0  0  0  0  0  0
  -26.3149  -12.8960   19.9601 C   0  0  0  0  0  0  0  0  0  0  0  0
  -27.9746  -19.6050   22.0031 C   0  0  0  0  0  0  0  0  0  0  0  0
  -26.0567  -21.1399   22.4659 C   0  0  0  0  0  0  0  0  0  0  0  0
  -20.0554  -23.5624   22.9643 C   0  0  0  0  0  0  0  0  0  0  0  0
  -17.9868  -21.8883   24.8191 C   0  0  0  0  0  0  0  0  0  0  0  0
  -17.0600  -18.8797   26.1368 C   0  0  0  0  0  0  0  0  0  0  0  0
  -30.7578  -15.1532   20.1108 C   0  0  0  0  0  0  0  0  0  0  0  0
  -19.1126  -28.5559   22.4800 C   0  0  0  0  0  0  0  0  0  0  0  0
  -19.4068  -21.6779   21.4202 C   0  0  0  0  0  0  0  0  0  0  0  0
  -20.0975  -20.6947   24.1223 C   0  0  0  0  0  0  0  0  0  0  0  0
  -18.9268  -27.5111   23.5774 C   0  0  0  0  0  0  0  0  0  0  0  0
  -32.5519  -18.2188   20.3561 C   0  0  0  0  0  0  0  0  0  0  0  0
  -20.2096  -26.7093   23.7738 C   0  0  0  0  0  0  0  0  0  0  0  0
  -31.4573  -19.2680   20.5584 C   0  0  0  0  0  0  0  0  0  0  0  0
  -32.1027  -17.1106   19.4063 C   0  0  0  0  0  0  0  0  0  0  0  0
  -29.7379  -17.5065   19.9759 C   0  0  0  0  0  0  0  0  0  0  0  0
  -20.5853  -25.9481   22.4968 C   0  0  1  0  0  0  0  0  0  0  0  0
  -19.0622  -22.4723   22.6763 C   0  0  1  0  0  0  0  0  0  0  0  0
  -30.1240  -18.6152   20.9699 C   0  0  2  0  0  0  0  0  0  0  0  0
  -24.6033  -10.2220   21.7668 C   0  0  0  0  0  0  0  0  0  0  0  0
  -27.2011  -12.2298   17.7100 C   0  0  0  0  0  0  0  0  0  0  0  0
  -15.3504  -17.8330   27.6464 C   0  0  0  0  0  0  0  0  0  0  0  0
  -19.4362  -23.0309   27.2489 C   0  0  0  0  0  0  0  0  0  0  0  0
  -18.3456  -21.2614   28.6444 C   0  0  0  0  0  0  0  0  0  0  0  0
  -16.9456  -22.9532   27.4611 C   0  0  0  0  0  0  0  0  0  0  0  0
  -16.0510  -17.1303   23.9733 C   0  0  0  0  0  0  0  0  0  0  0  0
  -23.7744  -15.1472   21.5996 C   0  0  0  0  0  0  0  0  0  0  0  0
  -24.3193  -15.8297   22.8562 C   0  0  0  0  0  0  0  0  0  0  0  0
  -28.8194  -12.4951   19.6310 C   0  0  0  0  0  0  0  0  0  0  0  0
  -29.2870  -13.2949   20.8472 C   0  0  0  0  0  0  0  0  0  0  0  0
  -23.5761  -17.1103   23.2181 C   0  0  0  0  0  0  0  0  0  1  0  0
  -27.4742  -12.9904   19.0253 C   0  0  2  0  0  0  0  0  0  0  0  0
  -18.0889  -21.1370   26.1246 C   0  0  1  0  0  0  0  0  0  0  0  0
  -15.7122  -18.1852   26.2119 C   0  0  2  0  0  0  0  0  0  0  0  0
  -18.2200  -22.0886   27.3472 C   0  0  0  0  0  0  0  0  0  0  0  0
  -29.0353  -20.7393   20.3490 N   0  0  0  0  0  0  0  0  0  0  0  0
  -26.0028  -11.6618   20.4151 N   0  0  0  0  0  0  0  0  0  0  0  0
  -29.0221  -19.6461   21.1306 N   0  0  0  0  0  0  0  0  0  0  0  0
  -18.9904  -21.6329   23.8739 N   0  0  0  0  0  0  0  0  0  0  0  0
  -30.8335  -16.5321   19.8538 N   0  0  0  0  0  0  0  0  0  0  0  0
  -27.8094  -18.5761   22.8613 N   0  0  0  0  0  0  0  0  0  0  0  0
  -25.4425  -22.3480   22.1088 N   0  0  0  0  0  0  0  0  0  0  0  0
  -19.7626  -24.7663   22.3523 N   0  0  0  0  0  0  0  0  0  0  0  0
  -16.9305  -20.2518   26.1778 N   0  0  0  0  0  0  0  0  0  0  0  0
  -29.5199  -14.6879   20.5372 N   0  0  0  0  0  0  0  0  0  0  0  0
  -15.7314  -16.9291   25.4101 N   0  3  0  0  0  0  0  0  0  0  0  0
  -25.5571  -20.4447   23.3828 O   0  0  0  0  0  0  0  0  0  0  0  0
  -21.0154  -23.3291   23.6893 O   0  0  0  0  0  0  0  0  0  0  0  0
  -17.0471  -22.6675   24.6418 O   0  0  0  0  0  0  0  0  0  0  0  0
  -18.1218  -18.2662   26.0540 O   0  0  0  0  0  0  0  0  0  0  0  0
  -31.7234  -14.3941   19.9758 O   0  0  0  0  0  0  0  0  0  0  0  0
  -26.6370  -26.2932   18.3613 O   0  0  0  0  0  0  0  0  0  0  0  0
  -23.6770  -18.0229   22.1257 O   0  0  0  0  0  0  0  0  0  1  0  0
  -25.1570  -30.4490   21.6694 F   0  0  0  0  0  0  0  0  0  0  0  0
  -28.0707  -28.6567   18.3977 F   0  0  0  0  0  0  0  0  0  0  0  0
  1  2  1  0  0  0  0
  1  5  2  0  0  0  0
  2  6  2  0  0  0  0
  3  8  2  0  0  0  0
  3 17  1  0  0  0  0
  4  9  1  0  0  0  0
  4 17  2  0  0  0  0
  5 19  1  0  0  0  0
  6 21  1  0  0  0  0
  7 10  2  0  0  0  0
  7 20  1  0  0  0  0
  8 24  1  0  0  0  0
  9 24  2  0  0  0  0
 10 25  1  0  0  0  0
 11 12  2  0  0  0  0
 11 26  1  0  0  0  0
 12 27  1  0  0  0  0
 13 22  1  0  0  0  0
 13 25  2  0  0  0  0
 14 23  1  0  0  0  0
 14 30  2  0  0  0  0
 15 23  2  0  0  0  0
 15 31  1  0  0  0  0
 16 27  2  0  0  0  0
 16 28  1  0  0  0  0
 17 29  1  0  0  0  0
 18 29  1  0  0  0  0
 18 32  2  0  0  0  0
 18 33  1  0  0  0  0
 19 21  2  0  0  0  0
 19 38  1  0  0  0  0
 20 22  2  0  0  0  0
 20 39  1  0  0  0  0
 21 47  1  0  0  0  0
 22 40  1  0  0  0  0
 23 57  1  0  0  0  0
 24 82  1  0  0  0  0
 25 83  1  0  0  0  0
 26 28  2  0  0  0  0
 26 82  1  0  0  0  0
 27 84  1  0  0  0  0
 28 85  1  0  0  0  0
 29 66  2  0  0  0  0
 30 50  1  0  0  0  0
 30 67  1  0  0  0  0
 31 62  1  0  0  0  0
 31 67  2  0  0  0  0
 32 68  1  0  0  0  0
 32 71  1  0  0  0  0
 33 72  1  0  0  0  0
 33 77  2  0  0  0  0
 34 48  1  0  0  0  0
 34 73  1  0  0  0  0
 34 78  2  0  0  0  0
 35 63  1  0  0  0  0
 35 69  1  0  0  0  0
 35 79  2  0  0  0  0
 36 64  1  0  0  0  0
 36 74  1  0  0  0  0
 36 80  2  0  0  0  0
 37 70  1  0  0  0  0
 37 75  1  0  0  0  0
 37 81  2  0  0  0  0
 38 41  1  0  0  0  0
 39 48  1  0  0  0  0
 40 69  1  0  0  0  0
 41 43  1  0  0  0  0
 42 44  1  0  0  0  0
 42 45  1  0  0  0  0
 43 47  1  0  0  0  0
 44 49  1  0  0  0  0
 45 70  1  0  0  0  0
 46 49  1  0  0  0  0
 46 70  1  0  0  0  0
 47 73  1  0  0  0  0
 48 69  1  0  0  0  0
 49 68  1  0  0  0  0
 51 62  1  0  0  0  0
 52 64  1  0  0  0  0
 53 65  1  0  0  0  0
 54 65  1  0  0  0  0
 55 65  1  0  0  0  0
 56 76  1  0  0  0  0
 57 58  1  0  0  0  0
 58 61  1  0  0  0  0
 59 60  1  0  0  0  0
 59 62  1  0  0  0  0
 60 75  1  0  0  0  0
 61 83  1  0  0  0  0
 63 65  1  0  0  0  0
 63 74  1  0  0  0  0
 64 76  1  0  0  0  0
 66 68  1  0  0  0  0
M  CHG  1  76   1
M  ISO  4  37 100  61 101  75 100  83 101
M  END
> <Batch ID>
0084

> <Smiles>
CNC(C)C(=O)NC(C(=O)N1Cc2cc([101O:1][101CH2:1]CCc3cc(C)nc(C(C)CC[100NH:0][100C:0](=O)N4CCCC(n5nc(-c6ccc(Oc7ccc(F)cc7F)cc6)c(C(N)=O)c5N)C4)c3)ccc2CC1C(=O)NC1CCCc2ccccc21)C(C)(C)C

> <Shape>
0.197

> <Color>
0.101

> <Negative vol penalty>
0.000

$$$$

  -OEChem-04052318543D

 90 98  0     1  0  0  0  0  0999 V2000
  -24.6263  -19.5140   28.2542 C   0  0  0  0  0  0  0  0  0  0  0  0
  -24.8810  -19.8230   26.9219 C   0  0  0  0  0  0  0  0  0  0  0  0
  -28.6966  -17.5441   22.7495 C   0  0  0  0  0  0  0  0  0  0  0  0
  -30.6150  -18.6580   21.7924 C   0  0  0  0  0  0  0  0  0  0  0  0
  -23.4906  -20.0238   28.8820 C   0  0  0  0  0  0  0  0  0  0  0  0
  -23.9995  -20.6412   26.2163 C   0  0  0  0  0  0  0  0  0  0  0  0
  -26.3911  -24.1601   23.4698 C   0  0  0  0  0  0  0  0  0  0  0  0
  -28.5614  -16.7807   21.5900 C   0  0  0  0  0  0  0  0  0  0  0  0
  -30.4798  -17.8945   20.6329 C   0  0  0  0  0  0  0  0  0  0  0  0
  -26.9617  -23.7490   22.2660 C   0  0  0  0  0  0  0  0  0  0  0  0
  -27.9298  -14.2840   19.0243 C   0  0  0  0  0  0  0  0  0  0  0  0
  -27.6960  -12.9168   19.1716 C   0  0  0  0  0  0  0  0  0  0  0  0
  -25.0637  -24.6360   21.0703 C   0  0  0  0  0  0  0  0  0  0  0  0
  -28.9606  -28.8850   19.3802 C   0  0  0  0  0  0  0  0  0  0  0  0
  -29.3938  -27.1748   17.7455 C   0  0  0  0  0  0  0  0  0  0  0  0
  -29.7850  -12.6881   20.3636 C   0  0  0  0  0  0  0  0  0  0  0  0
  -29.7234  -18.4828   22.8507 C   0  0  0  0  0  0  0  0  0  0  0  0
  -30.6190  -18.9542   25.1924 C   0  0  0  0  0  0  0  0  0  0  0  0
  -22.5998  -20.8565   28.1865 C   0  0  0  0  0  0  0  0  0  0  0  0
  -25.1452  -24.8035   23.4838 C   0  0  0  0  0  0  0  0  0  0  0  0
  -22.8501  -21.1616   26.8350 C   0  0  0  0  0  0  0  0  0  0  0  0
  -24.4805  -25.0565   22.2754 C   0  0  0  0  0  0  0  0  0  0  0  0
  -29.3657  -28.5186   18.1015 C   0  0  0  0  0  0  0  0  0  0  0  0
  -29.4529  -16.9559   20.5317 C   0  0  0  0  0  0  0  0  0  0  0  0
  -26.2967  -23.9843   21.0663 C   0  0  0  0  0  0  0  0  0  0  0  0
  -29.0912  -14.8532   19.5466 C   0  0  0  0  0  0  0  0  0  0  0  0
  -28.6236  -12.1188   19.8413 C   0  0  0  0  0  0  0  0  0  0  0  0
  -30.0188  -14.0553   20.2163 C   0  0  0  0  0  0  0  0  0  0  0  0
  -29.8632  -19.2722   24.0480 C   0  0  0  0  0  0  0  0  0  0  0  0
  -28.5963  -27.8775   20.2587 C   0  0  0  0  0  0  0  0  0  0  0  0
  -29.0102  -26.2438   18.6973 C   0  0  0  0  0  0  0  0  0  0  0  0
  -30.4245  -20.0183   26.0388 C   0  0  0  0  0  0  0  0  0  0  0  0
  -31.4249  -17.8003   25.4657 C   0  0  0  0  0  0  0  0  0  0  0  0
  -22.2959  -24.1481   24.7311 C   0  0  0  0  0  0  0  0  0  0  0  0
  -21.5753  -27.1237   23.6592 C   0  0  0  0  0  0  0  0  0  0  0  0
  -22.2520  -29.6605   21.4790 C   0  0  0  0  0  0  0  0  0  0  0  0
  -28.9892  -25.7698   24.7818 C   0  0  0  0  0  0  0  0  0  0  0  0
  -21.3606  -21.3454   28.8937 C   0  0  0  0  0  0  0  0  0  0  0  0
  -24.5556  -25.2646   24.7885 C   0  0  0  0  0  0  0  0  0  0  0  0
  -23.1503  -25.7616   22.2345 C   0  0  0  0  0  0  0  0  0  0  0  0
  -20.6737  -22.5095   28.1844 C   0  0  0  0  0  0  0  0  0  0  0  0
  -26.9030  -23.2889   26.7010 C   0  0  0  0  0  0  0  0  0  0  0  0
  -20.5498  -22.2263   26.6906 C   0  0  0  0  0  0  0  0  0  0  0  0
  -27.7821  -22.0376   26.6994 C   0  0  0  0  0  0  0  0  0  0  0  0
  -27.7130  -24.5611   26.5023 C   0  0  0  0  0  0  0  0  0  0  0  0
  -28.8747  -23.2276   24.7336 C   0  0  0  0  0  0  0  0  0  0  0  0
  -21.9306  -22.0658   26.0432 C   0  0  1  0  0  0  0  0  0  0  0  0
  -23.0428  -25.4519   24.7275 C   0  0  1  0  0  0  0  0  0  0  0  0
  -29.0690  -22.2098   25.8708 C   0  0  2  0  0  0  0  0  0  0  0  0
  -21.4690  -31.9512   20.8179 C   0  0  0  0  0  0  0  0  0  0  0  0
  -29.4439  -32.3673   15.8514 C   0  0  0  0  0  0  0  0  0  0  0  0
  -27.6231  -31.4808   14.3884 C   0  0  0  0  0  0  0  0  0  0  0  0
  -29.9497  -30.5654   14.1966 C   0  0  0  0  0  0  0  0  0  0  0  0
  -19.1938  -25.8877   22.2064 C   0  0  0  0  0  0  0  0  0  0  0  0
  -19.0299  -27.9799   20.8410 C   0  0  0  0  0  0  0  0  0  0  0  0
  -18.7176  -28.0789   23.3139 C   0  0  0  0  0  0  0  0  0  0  0  0
  -28.2856  -25.2857   22.3978 C   0  0  0  0  0  0  0  0  0  0  0  0
  -24.8598  -30.8778   22.1692 C   0  0  0  0  0  0  0  0  0  0  0  0
  -29.7675  -29.5628   17.1156 C   0  0  0  0  0  0  0  0  0  0  0  0
  -28.1546  -28.2336   21.6388 C   0  0  0  0  0  0  0  0  0  0  0  0
  -29.0302  -24.7775   18.3465 C   0  0  0  0  0  0  0  0  0  0  0  0
  -28.5709  -30.0589   16.2804 C   0  0  0  0  0  0  0  0  0  0  0  0
  -29.2927  -28.2948   22.6763 C   0  0  0  0  0  0  0  0  0  0  0  0
  -27.7132  -24.2671   17.7578 C   0  0  0  0  0  0  0  0  0  0  0  0
  -30.0191  -26.9688   22.8916 C   0  0  0  0  0  0  0  0  0  0  0  0
  -26.5427  -24.3556   18.7301 C   0  0  0  0  0  0  0  0  0  1  0  0
  -21.0317  -27.6936   22.3713 C   0  0  1  0  0  0  0  0  0  0  0  0
  -22.4235  -31.1536   21.6928 C   0  0  2  0  0  0  0  0  0  0  0  0
  -28.8889  -31.0991   15.1732 C   0  0  0  0  0  0  0  0  0  0  0  0
  -19.5174  -27.3950   22.1838 C   0  0  0  0  0  0  0  0  0  0  0  0
  -29.2353  -20.4462   24.1546 N   0  0  0  0  0  0  0  0  0  0  0  0
  -28.6107  -26.5616   19.9491 N   0  0  0  0  0  0  0  0  0  0  0  0
  -29.5961  -20.8753   25.3760 N   0  0  0  0  0  0  0  0  0  0  0  0
  -22.6119  -26.1875   23.5369 N   0  0  0  0  0  0  0  0  0  0  0  0
  -28.4741  -24.5488   25.2500 N   0  0  0  0  0  0  0  0  0  0  0  0
  -30.8830  -20.2950   27.2780 N   0  0  0  0  0  0  0  0  0  0  0  0
  -31.5155  -16.8015   24.4867 N   0  0  0  0  0  0  0  0  0  0  0  0
  -22.5460  -23.3596   25.8379 N   0  0  0  0  0  0  0  0  0  0  0  0
  -21.3639  -29.1141   22.3812 N   0  0  0  0  0  0  0  0  0  0  0  0
  -29.1368  -25.9260   23.3966 N   0  0  0  0  0  0  0  0  0  0  0  0
  -23.8175  -31.5670   21.3658 N   0  3  0  0  0  0  0  0  0  0  0  0
  -32.0331  -17.6515   26.5527 O   0  0  0  0  0  0  0  0  0  0  0  0
  -21.5470  -23.8782   23.7994 O   0  0  0  0  0  0  0  0  0  0  0  0
  -21.1027  -27.5008   24.7344 O   0  0  0  0  0  0  0  0  0  0  0  0
  -22.8436  -29.0416   20.5973 O   0  0  0  0  0  0  0  0  0  0  0  0
  -29.3089  -26.6721   25.5676 O   0  0  0  0  0  0  0  0  0  0  0  0
  -29.3214  -16.2109   19.4002 O   0  0  0  0  0  0  0  0  0  0  0  0
  -26.8512  -23.5835   19.8899 O   0  0  0  0  0  0  0  0  0  1  0  0
  -28.3983  -10.8062   19.9841 F   0  0  0  0  0  0  0  0  0  0  0  0
  -31.1358  -14.5967   20.7212 F   0  0  0  0  0  0  0  0  0  0  0  0
  1  2  1  0  0  0  0
  1  5  2  0  0  0  0
  2  6  2  0  0  0  0
  3  8  2  0  0  0  0
  3 17  1  0  0  0  0
  4  9  1  0  0  0  0
  4 17  2  0  0  0  0
  5 19  1  0  0  0  0
  6 21  1  0  0  0  0
  7 10  2  0  0  0  0
  7 20  1  0  0  0  0
  8 24  1  0  0  0  0
  9 24  2  0  0  0  0
 10 25  1  0  0  0  0
 11 12  2  0  0  0  0
 11 26  1  0  0  0  0
 12 27  1  0  0  0  0
 13 22  1  0  0  0  0
 13 25  2  0  0  0  0
 14 23  1  0  0  0  0
 14 30  2  0  0  0  0
 15 23  2  0  0  0  0
 15 31  1  0  0  0  0
 16 27  2  0  0  0  0
 16 28  1  0  0  0  0
 17 29  1  0  0  0  0
 18 29  1  0  0  0  0
 18 32  2  0  0  0  0
 18 33  1  0  0  0  0
 19 21  2  0  0  0  0
 19 38  1  0  0  0  0
 20 22  2  0  0  0  0
 20 39  1  0  0  0  0
 21 47  1  0  0  0  0
 22 40  1  0  0  0  0
 23 59  1  0  0  0  0
 24 87  1  0  0  0  0
 25 88  1  0  0  0  0
 26 28  2  0  0  0  0
 26 87  1  0  0  0  0
 27 89  1  0  0  0  0
 28 90  1  0  0  0  0
 29 71  2  0  0  0  0
 30 60  1  0  0  0  0
 30 72  1  0  0  0  0
 31 61  1  0  0  0  0
 31 72  2  0  0  0  0
 32 73  1  0  0  0  0
 32 76  1  0  0  0  0
 33 77  1  0  0  0  0
 33 82  2  0  0  0  0
 34 48  1  0  0  0  0
 34 78  1  0  0  0  0
 34 83  2  0  0  0  0
 35 67  1  0  0  0  0
 35 74  1  0  0  0  0
 35 84  2  0  0  0  0
 36 68  1  0  0  0  0
 36 79  1  0  0  0  0
 36 85  2  0  0  0  0
 37 75  1  0  0  0  0
 37 80  1  0  0  0  0
 37 86  2  0  0  0  0
 38 41  1  0  0  0  0
 39 48  1  0  0  0  0
 40 74  1  0  0  0  0
 41 43  1  0  0  0  0
 42 44  1  0  0  0  0
 42 45  1  0  0  0  0
 43 47  1  0  0  0  0
 44 49  1  0  0  0  0
 45 75  1  0  0  0  0
 46 49  1  0  0  0  0
 46 75  1  0  0  0  0
 47 78  1  0  0  0  0
 48 74  1  0  0  0  0
 49 73  1  0  0  0  0
 50 68  1  0  0  0  0
 51 69  1  0  0  0  0
 52 69  1  0  0  0  0
 53 69  1  0  0  0  0
 54 70  1  0  0  0  0
 55 70  1  0  0  0  0
 56 70  1  0  0  0  0
 57 80  1  0  0  0  0
 58 81  1  0  0  0  0
 59 62  1  0  0  0  0
 60 63  1  0  0  0  0
 61 64  1  0  0  0  0
 62 69  1  0  0  0  0
 63 65  1  0  0  0  0
 64 66  1  0  0  0  0
 65 80  1  0  0  0  0
 66 88  1  0  0  0  0
 67 70  1  0  0  0  0
 67 79  1  0  0  0  0
 68 81  1  0  0  0  0
 71 73  1  0  0  0  0
M  CHG  1  81   1
M  ISO  4  37 100  66 101  80 100  88 101
M  END
> <Batch ID>
0084

> <Smiles>
CNC(C)C(=O)NC(C(=O)N1Cc2cc([101O:1][101CH2:1]CCc3cc(CCC(C)(C)C)cc(CCC[100N:0](C)[100C:0](=O)N4CCCC(n5nc(-c6ccc(Oc7ccc(F)cc7F)cc6)c(C(N)=O)c5N)C4)n3)ccc2CC1C(=O)NC1CCCc2ccccc21)C(C)(C)C

> <Shape>
0.164

> <Color>
0.047

> <Negative vol penalty>
0.000

$$$$

  -OEChem-04052318543D

 89 97  0     1  0  0  0  0  0999 V2000
  -16.6177  -28.2040   20.0527 C   0  0  0  0  0  0  0  0  0  0  0  0
  -17.4907  -27.3706   19.3606 C   0  0  0  0  0  0  0  0  0  0  0  0
  -25.6559  -15.2118   21.5782 C   0  0  0  0  0  0  0  0  0  0  0  0
  -24.8997  -16.6251   19.7705 C   0  0  0  0  0  0  0  0  0  0  0  0
  -16.9290  -28.6165   21.3476 C   0  0  0  0  0  0  0  0  0  0  0  0
  -18.6760  -26.9502   19.9628 C   0  0  0  0  0  0  0  0  0  0  0  0
  -21.4435  -21.5327   19.2576 C   0  0  0  0  0  0  0  0  0  0  0  0
  -24.4315  -14.5438   21.5682 C   0  0  0  0  0  0  0  0  0  0  0  0
  -23.6753  -15.9571   19.7604 C   0  0  0  0  0  0  0  0  0  0  0  0
  -22.5108  -21.1213   18.4604 C   0  0  0  0  0  0  0  0  0  0  0  0
  -22.9174  -12.1453   19.7276 C   0  0  0  0  0  0  0  0  0  0  0  0
  -22.9384  -10.7523   19.7949 C   0  0  0  0  0  0  0  0  0  0  0  0
  -24.0150  -21.4431   20.3186 C   0  0  0  0  0  0  0  0  0  0  0  0
  -28.3316  -22.3452   16.9655 C   0  0  0  0  0  0  0  0  0  0  0  0
  -21.6583  -10.8319   21.8424 C   0  0  0  0  0  0  0  0  0  0  0  0
  -26.3707  -23.3732   17.3753 C   0  0  0  0  0  0  0  0  0  0  0  0
  -25.8901  -16.2525   20.6794 C   0  0  0  0  0  0  0  0  0  0  0  0
  -28.3077  -16.6164   19.9514 C   0  0  0  0  0  0  0  0  0  0  0  0
  -18.1141  -28.1931   21.9695 C   0  0  0  0  0  0  0  0  0  0  0  0
  -21.6560  -21.9134   20.5903 C   0  0  0  0  0  0  0  0  0  0  0  0
  -19.0041  -27.3585   21.2668 C   0  0  0  0  0  0  0  0  0  0  0  0
  -22.9484  -21.8564   21.1313 C   0  0  0  0  0  0  0  0  0  0  0  0
  -26.9257  -22.2377   16.8278 C   0  0  0  0  0  0  0  0  0  0  0  0
  -23.4412  -14.9164   20.6593 C   0  0  0  0  0  0  0  0  0  0  0  0
  -23.7972  -21.0792   18.9900 C   0  0  0  0  0  0  0  0  0  0  0  0
  -22.2669  -12.8817   20.7177 C   0  0  0  0  0  0  0  0  0  0  0  0
  -22.3088  -10.0955   20.8522 C   0  0  0  0  0  0  0  0  0  0  0  0
  -21.6374  -12.2250   21.7751 C   0  0  0  0  0  0  0  0  0  0  0  0
  -27.1545  -16.9433   20.6896 C   0  0  0  0  0  0  0  0  0  0  0  0
  -28.5929  -23.5431   17.5932 C   0  0  0  0  0  0  0  0  0  0  0  0
  -29.2277  -17.5706   20.3114 C   0  0  0  0  0  0  0  0  0  0  0  0
  -28.5277  -15.5461   19.0231 C   0  0  0  0  0  0  0  0  0  0  0  0
  -21.2506  -24.5943   22.2493 C   0  0  0  0  0  0  0  0  0  0  0  0
  -22.0733  -22.7072   24.7561 C   0  0  0  0  0  0  0  0  0  0  0  0
  -23.6701  -19.9049   25.8714 C   0  0  0  0  0  0  0  0  0  0  0  0
  -29.5404  -23.1883   21.6743 C   0  0  0  0  0  0  0  0  0  0  0  0
  -18.4302  -28.7034   23.3531 C   0  0  0  0  0  0  0  0  0  0  0  0
  -20.4901  -22.3292   21.4449 C   0  0  0  0  0  0  0  0  0  0  0  0
  -23.2265  -22.2355   22.5622 C   0  0  0  0  0  0  0  0  0  0  0  0
  -19.5270  -27.9103   24.0590 C   0  0  0  0  0  0  0  0  0  0  0  0
  -29.7427  -20.6401   24.1526 C   0  0  0  0  0  0  0  0  0  0  0  0
  -20.7079  -27.6810   23.1211 C   0  0  0  0  0  0  0  0  0  0  0  0
  -29.2031  -19.3967   23.4436 C   0  0  0  0  0  0  0  0  0  0  0  0
  -28.9997  -21.9026   23.7215 C   0  0  0  0  0  0  0  0  0  0  0  0
  -28.4136  -20.8834   21.5555 C   0  0  0  0  0  0  0  0  0  0  0  0
  -20.2877  -26.8611   21.8953 C   0  0  1  0  0  0  0  0  0  0  0  0
  -20.8999  -23.1861   22.6387 C   0  0  1  0  0  0  0  0  0  0  0  0
  -29.1689  -19.5927   21.9160 C   0  0  2  0  0  0  0  0  0  0  0  0
  -25.8457  -28.8980   17.2782 C   0  0  0  0  0  0  0  0  0  0  0  0
  -24.2026  -18.6472   27.9767 C   0  0  0  0  0  0  0  0  0  0  0  0
  -26.4583  -25.2935   19.8065 C   0  0  0  0  0  0  0  0  0  0  0  0
  -26.8742  -19.7030   16.3261 C   0  0  0  0  0  0  0  0  0  0  0  0
  -26.0009  -21.3380   14.6703 C   0  0  0  0  0  0  0  0  0  0  0  0
  -30.2070  -25.5492   17.3339 C   0  0  0  0  0  0  0  0  0  0  0  0
  -31.0832  -23.2373   17.5419 C   0  0  0  0  0  0  0  0  0  0  0  0
  -24.2191  -24.7658   25.4402 C   0  0  0  0  0  0  0  0  0  0  0  0
  -25.2998  -23.0489   26.9073 C   0  0  0  0  0  0  0  0  0  0  0  0
  -22.9904  -23.8443   27.4140 C   0  0  0  0  0  0  0  0  0  0  0  0
  -22.2027  -17.5065   24.9476 C   0  0  0  0  0  0  0  0  0  0  0  0
  -26.5008  -27.8876   18.2074 C   0  0  0  0  0  0  0  0  0  0  0  0
  -26.5437  -26.4931   17.5748 C   0  0  0  0  0  0  0  0  0  0  0  0
  -30.0319  -24.3478   19.5358 C   0  0  0  0  0  0  0  0  0  0  0  0
  -24.7468  -20.9397   16.8140 C   0  0  0  0  0  0  0  0  0  1  0  0
  -23.3709  -22.3272   25.4276 C   0  0  1  0  0  0  0  0  0  0  0  0
  -23.2290  -18.8040   26.8190 C   0  0  2  0  0  0  0  0  0  0  0  0
  -27.2156  -25.4420   18.4826 C   0  0  2  0  0  0  0  0  0  0  0  0
  -26.1580  -21.0676   16.1844 C   0  0  0  0  0  0  0  0  0  0  0  0
  -29.8840  -24.1494   17.9788 C   0  0  0  0  0  0  0  0  0  0  0  0
  -23.9654  -23.4912   26.2697 C   0  0  0  0  0  0  0  0  0  0  0  0
  -27.3239  -18.0208   21.4605 N   0  0  0  0  0  0  0  0  0  0  0  0
  -27.3936  -24.1595   17.8377 N   0  0  0  0  0  0  0  0  0  0  0  0
  -28.5944  -18.3793   21.2087 N   0  0  0  0  0  0  0  0  0  0  0  0
  -22.0546  -22.6413   23.3557 N   0  0  0  0  0  0  0  0  0  0  0  0
  -29.0053  -22.0303   22.2622 N   0  0  0  0  0  0  0  0  0  0  0  0
  -30.5086  -17.7883   19.9448 N   0  0  0  0  0  0  0  0  0  0  0  0
  -27.4755  -14.6559   18.7683 N   0  0  0  0  0  0  0  0  0  0  0  0
  -20.1736  -25.4600   22.2392 N   0  0  0  0  0  0  0  0  0  0  0  0
  -23.0951  -21.1162   26.1929 N   0  0  0  0  0  0  0  0  0  0  0  0
  -29.5125  -23.2259   20.2856 N   0  0  0  0  0  0  0  0  0  0  0  0
  -23.1435  -17.5028   26.0973 N   0  3  0  0  0  0  0  0  0  0  0  0
  -29.6299  -15.3741   18.4494 O   0  0  0  0  0  0  0  0  0  0  0  0
  -22.4125  -24.8750   21.9794 O   0  0  0  0  0  0  0  0  0  0  0  0
  -21.1096  -23.0430   25.4489 O   0  0  0  0  0  0  0  0  0  0  0  0
  -24.4499  -19.7105   24.9415 O   0  0  0  0  0  0  0  0  0  0  0  0
  -30.0132  -24.1175   22.3377 O   0  0  0  0  0  0  0  0  0  0  0  0
  -22.2463  -14.2646   20.6491 O   0  0  0  0  0  0  0  0  0  0  0  0
  -24.8407  -20.6787   18.2138 O   0  0  0  0  0  0  0  0  0  1  0  0
  -22.3277   -8.7577   20.9159 F   0  0  0  0  0  0  0  0  0  0  0  0
  -21.0098  -12.9269   22.7286 F   0  0  0  0  0  0  0  0  0  0  0  0
  1  2  1  0  0  0  0
  1  5  2  0  0  0  0
  2  6  2  0  0  0  0
  3  8  2  0  0  0  0
  3 17  1  0  0  0  0
  4  9  1  0  0  0  0
  4 17  2  0  0  0  0
  5 19  1  0  0  0  0
  6 21  1  0  0  0  0
  7 10  2  0  0  0  0
  7 20  1  0  0  0  0
  8 24  1  0  0  0  0
  9 24  2  0  0  0  0
 10 25  1  0  0  0  0
 11 12  2  0  0  0  0
 11 26  1  0  0  0  0
 12 27  1  0  0  0  0
 13 22  1  0  0  0  0
 13 25  2  0  0  0  0
 14 23  1  0  0  0  0
 14 30  2  0  0  0  0
 15 27  2  0  0  0  0
 15 28  1  0  0  0  0
 16 23  2  0  0  0  0
 16 71  1  0  0  0  0
 17 29  1  0  0  0  0
 18 29  1  0  0  0  0
 18 31  2  0  0  0  0
 18 32  1  0  0  0  0
 19 21  2  0  0  0  0
 19 37  1  0  0  0  0
 20 22  2  0  0  0  0
 20 38  1  0  0  0  0
 21 46  1  0  0  0  0
 22 39  1  0  0  0  0
 23 67  1  0  0  0  0
 24 86  1  0  0  0  0
 25 87  1  0  0  0  0
 26 28  2  0  0  0  0
 26 86  1  0  0  0  0
 27 88  1  0  0  0  0
 28 89  1  0  0  0  0
 29 70  2  0  0  0  0
 30 68  1  0  0  0  0
 30 71  1  0  0  0  0
 31 72  1  0  0  0  0
 31 75  1  0  0  0  0
 32 76  1  0  0  0  0
 32 81  2  0  0  0  0
 33 47  1  0  0  0  0
 33 77  1  0  0  0  0
 33 82  2  0  0  0  0
 34 64  1  0  0  0  0
 34 73  1  0  0  0  0
 34 83  2  0  0  0  0
 35 65  1  0  0  0  0
 35 78  1  0  0  0  0
 35 84  2  0  0  0  0
 36 74  1  0  0  0  0
 36 79  1  0  0  0  0
 36 85  2  0  0  0  0
 37 40  1  0  0  0  0
 38 47  1  0  0  0  0
 39 73  1  0  0  0  0
 40 42  1  0  0  0  0
 41 43  1  0  0  0  0
 41 44  1  0  0  0  0
 42 46  1  0  0  0  0
 43 48  1  0  0  0  0
 44 74  1  0  0  0  0
 45 48  1  0  0  0  0
 45 74  1  0  0  0  0
 46 77  1  0  0  0  0
 47 73  1  0  0  0  0
 48 72  1  0  0  0  0
 49 60  1  0  0  0  0
 50 65  1  0  0  0  0
 51 66  1  0  0  0  0
 52 67  1  0  0  0  0
 53 67  1  0  0  0  0
 54 68  1  0  0  0  0
 55 68  1  0  0  0  0
 56 69  1  0  0  0  0
 57 69  1  0  0  0  0
 58 69  1  0  0  0  0
 59 80  1  0  0  0  0
 60 61  1  0  0  0  0
 61 66  1  0  0  0  0
 62 68  1  0  0  0  0
 62 79  1  0  0  0  0
 63 67  1  0  0  0  0
 63 87  1  0  0  0  0
 64 69  1  0  0  0  0
 64 78  1  0  0  0  0
 65 80  1  0  0  0  0
 66 71  1  0  0  0  0
 70 72  1  0  0  0  0
M  CHG  1  80   1
M  ISO  4  36 100  63 101  79 100  87 101
M  END
> <Batch ID>
0084

> <Smiles>
CCCC(C)n1cc(C(C)(C)[101CH2:1][101O:1]c2ccc3c(c2)CN(C(=O)C(NC(=O)C(C)NC)C(C)(C)C)C(C(=O)NC2CCCc4ccccc42)C3)cc1C(C)(C)C[100NH:0][100C:0](=O)N1CCCC(n2nc(-c3ccc(Oc4ccc(F)cc4F)cc3)c(C(N)=O)c2N)C1

> <Shape>
0.179

> <Color>
0.053

> <Negative vol penalty>
0.000

$$$$

  -OEChem-04052318543D

 85 93  0     1  0  0  0  0  0999 V2000
  -30.8570  -11.5288   18.2591 C   0  0  0  0  0  0  0  0  0  0  0  0
  -30.5600  -12.8853   18.1737 C   0  0  0  0  0  0  0  0  0  0  0  0
  -27.1728  -28.9046   20.3242 C   0  0  0  0  0  0  0  0  0  0  0  0
  -25.8343  -27.0697   19.5002 C   0  0  0  0  0  0  0  0  0  0  0  0
  -29.9187  -10.6429   18.7869 C   0  0  0  0  0  0  0  0  0  0  0  0
  -29.3240  -13.3564   18.6150 C   0  0  0  0  0  0  0  0  0  0  0  0
  -29.7311  -17.5689   21.3961 C   0  0  0  0  0  0  0  0  0  0  0  0
  -26.0118  -29.6216   20.6135 C   0  0  0  0  0  0  0  0  0  0  0  0
  -24.6733  -27.7867   19.7896 C   0  0  0  0  0  0  0  0  0  0  0  0
  -29.9351  -18.7664   20.7118 C   0  0  0  0  0  0  0  0  0  0  0  0
  -22.8086  -28.5106   22.5134 C   0  0  0  0  0  0  0  0  0  0  0  0
  -21.7712  -27.8309   23.1516 C   0  0  0  0  0  0  0  0  0  0  0  0
  -27.5905  -19.2873   20.9368 C   0  0  0  0  0  0  0  0  0  0  0  0
  -20.3120  -28.3060   21.2855 C   0  0  0  0  0  0  0  0  0  0  0  0
  -27.8274  -19.0723   16.8065 C   0  0  0  0  0  0  0  0  0  0  0  0
  -27.0841  -27.6287   19.7675 C   0  0  0  0  0  0  0  0  0  0  0  0
  -28.9709  -26.0032   20.3199 C   0  0  0  0  0  0  0  0  0  0  0  0
  -28.6743  -11.1047   19.2439 C   0  0  0  0  0  0  0  0  0  0  0  0
  -28.4511  -17.2159   21.8471 C   0  0  0  0  0  0  0  0  0  0  0  0
  -28.3677  -12.4756   19.1482 C   0  0  0  0  0  0  0  0  0  0  0  0
  -27.3734  -18.0860   21.6288 C   0  0  0  0  0  0  0  0  0  0  0  0
  -28.4559  -20.1917   16.2852 C   0  0  0  0  0  0  0  0  0  0  0  0
  -29.1006  -20.0646   15.0599 C   0  0  0  0  0  0  0  0  0  0  0  0
  -29.0973  -18.8394   14.4026 C   0  0  0  0  0  0  0  0  0  0  0  0
  -24.7621  -29.0626   20.3463 C   0  0  0  0  0  0  0  0  0  0  0  0
  -28.8642  -19.6244   20.4795 C   0  0  0  0  0  0  0  0  0  0  0  0
  -22.5978  -29.0881   21.2613 C   0  0  0  0  0  0  0  0  0  0  0  0
  -20.5229  -27.7286   22.5377 C   0  0  0  0  0  0  0  0  0  0  0  0
  -21.3495  -28.9857   20.6474 C   0  0  0  0  0  0  0  0  0  0  0  0
  -28.2830  -26.8878   19.4679 C   0  0  0  0  0  0  0  0  0  0  0  0
  -28.4403  -17.7805   15.0083 C   0  0  0  0  0  0  0  0  0  0  0  0
  -30.0345  -25.5625   19.5710 C   0  0  0  0  0  0  0  0  0  0  0  0
  -28.6748  -25.6144   21.6679 C   0  0  0  0  0  0  0  0  0  0  0  0
  -26.4404  -14.8285   21.2464 C   0  0  0  0  0  0  0  0  0  0  0  0
  -24.7175  -16.1967   23.6301 C   0  0  0  0  0  0  0  0  0  0  0  0
  -23.9896  -18.9976   25.4389 C   0  0  0  0  0  0  0  0  0  0  0  0
  -30.9560  -25.1030   13.6726 C   0  0  0  0  0  0  0  0  0  0  0  0
  -27.6740  -10.1024   19.7630 C   0  0  0  0  0  0  0  0  0  0  0  0
  -28.2527  -15.9332   22.6071 C   0  0  0  0  0  0  0  0  0  0  0  0
  -25.9833  -17.7630   22.1102 C   0  0  0  0  0  0  0  0  0  0  0  0
  -26.5323  -10.7352   20.5544 C   0  0  0  0  0  0  0  0  0  0  0  0
  -32.9277  -26.9241   16.0120 C   0  0  0  0  0  0  0  0  0  0  0  0
  -25.9752  -11.9459   19.8123 C   0  0  0  0  0  0  0  0  0  0  0  0
  -32.0230  -27.0415   17.2398 C   0  0  0  0  0  0  0  0  0  0  0  0
  -32.1310  -27.0198   14.7127 C   0  0  0  0  0  0  0  0  0  0  0  0
  -30.0986  -26.1925   15.8346 C   0  0  0  0  0  0  0  0  0  0  0  0
  -27.0474  -13.0285   19.6394 C   0  0  1  0  0  0  0  0  0  0  0  0
  -26.8116  -15.4339   22.5706 C   0  0  1  0  0  0  0  0  0  0  0  0
  -30.8496  -26.0457   17.1690 C   0  0  2  0  0  0  0  0  0  0  0  0
  -29.7785  -18.6716   13.0860 C   0  0  0  0  0  0  0  0  0  0  0  0
  -28.4035  -16.4398   14.3505 C   0  0  0  0  0  0  0  0  0  0  0  0
  -22.5119  -19.8151   27.2951 C   0  0  0  0  0  0  0  0  0  0  0  0
  -22.3450  -16.2547   21.7124 C   0  0  0  0  0  0  0  0  0  0  0  0
  -21.2360  -17.8953   23.2443 C   0  0  0  0  0  0  0  0  0  0  0  0
  -21.7749  -15.5994   24.0576 C   0  0  0  0  0  0  0  0  0  0  0  0
  -26.3115  -19.7017   27.1337 C   0  0  0  0  0  0  0  0  0  0  0  0
  -28.4269  -21.4949   17.0432 C   0  0  0  0  0  0  0  0  0  0  0  0
  -29.7942  -21.2424   14.4535 C   0  0  0  0  0  0  0  0  0  0  0  0
  -29.7415  -21.8233   17.7541 C   0  0  0  0  0  0  0  0  0  0  0  0
  -28.9938  -21.9470   13.3426 C   0  0  0  0  0  0  0  0  0  0  0  0
  -29.6783  -23.1814   12.7594 C   0  0  0  0  0  0  0  0  0  0  0  0
  -30.1069  -20.8197   18.8416 C   0  0  0  0  0  0  0  0  0  1  0  0
  -23.6481  -17.2598   23.7018 C   0  0  1  0  0  0  0  0  0  0  0  0
  -23.8673  -19.2273   26.9345 C   0  0  2  0  0  0  0  0  0  0  0  0
  -22.2767  -16.7578   23.1681 C   0  0  0  0  0  0  0  0  0  0  0  0
  -27.8029  -17.8656   16.1974 N   0  0  0  0  0  0  0  0  0  0  0  0
  -28.8611  -27.0036   18.2694 N   0  0  0  0  0  0  0  0  0  0  0  0
  -29.9236  -26.1860   18.3630 N   0  0  0  0  0  0  0  0  0  0  0  0
  -25.8390  -16.4941   22.8429 N   0  0  0  0  0  0  0  0  0  0  0  0
  -31.0345  -26.0484   14.7085 N   0  0  0  0  0  0  0  0  0  0  0  0
  -31.0446  -24.7065   19.8345 N   0  0  0  0  0  0  0  0  0  0  0  0
  -27.5435  -26.1621   22.2880 N   0  0  0  0  0  0  0  0  0  0  0  0
  -27.2323  -13.7586   20.8752 N   0  0  0  0  0  0  0  0  0  0  0  0
  -23.6192  -17.7170   25.0869 N   0  0  0  0  0  0  0  0  0  0  0  0
  -29.8897  -24.2153   13.7479 N   0  0  0  0  0  0  0  0  0  0  0  0
  -24.9261  -20.1657   27.4027 N   0  3  0  0  0  0  0  0  0  0  0  0
  -29.4014  -24.8179   22.3092 O   0  0  0  0  0  0  0  0  0  0  0  0
  -25.5039  -15.2963   20.6094 O   0  0  0  0  0  0  0  0  0  0  0  0
  -24.5668  -15.1441   24.2554 O   0  0  0  0  0  0  0  0  0  0  0  0
  -24.3718  -19.8684   24.6603 O   0  0  0  0  0  0  0  0  0  0  0  0
  -31.7786  -25.0502   12.7520 O   0  0  0  0  0  0  0  0  0  0  0  0
  -23.6290  -29.7618   20.6287 O   0  0  0  0  0  0  0  0  0  0  0  0
  -29.0604  -20.7936   19.8113 O   0  0  0  0  0  0  0  0  0  1  0  0
  -19.5271  -27.0745   23.1500 F   0  0  0  0  0  0  0  0  0  0  0  0
  -21.1413  -29.5374   19.4440 F   0  0  0  0  0  0  0  0  0  0  0  0
  1  2  1  0  0  0  0
  1  5  2  0  0  0  0
  2  6  2  0  0  0  0
  3  8  2  0  0  0  0
  3 16  1  0  0  0  0
  4  9  1  0  0  0  0
  4 16  2  0  0  0  0
  5 18  1  0  0  0  0
  6 20  1  0  0  0  0
  7 10  2  0  0  0  0
  7 19  1  0  0  0  0
  8 25  1  0  0  0  0
  9 25  2  0  0  0  0
 10 26  1  0  0  0  0
 11 12  2  0  0  0  0
 11 27  1  0  0  0  0
 12 28  1  0  0  0  0
 13 21  1  0  0  0  0
 13 26  2  0  0  0  0
 14 28  2  0  0  0  0
 14 29  1  0  0  0  0
 15 22  1  0  0  0  0
 15 66  2  0  0  0  0
 16 30  1  0  0  0  0
 17 30  1  0  0  0  0
 17 32  2  0  0  0  0
 17 33  1  0  0  0  0
 18 20  2  0  0  0  0
 18 38  1  0  0  0  0
 19 21  2  0  0  0  0
 19 39  1  0  0  0  0
 20 47  1  0  0  0  0
 21 40  1  0  0  0  0
 22 23  2  0  0  0  0
 22 57  1  0  0  0  0
 23 24  1  0  0  0  0
 23 58  1  0  0  0  0
 24 31  2  0  0  0  0
 24 50  1  0  0  0  0
 25 82  1  0  0  0  0
 26 83  1  0  0  0  0
 27 29  2  0  0  0  0
 27 82  1  0  0  0  0
 28 84  1  0  0  0  0
 29 85  1  0  0  0  0
 30 67  2  0  0  0  0
 31 51  1  0  0  0  0
 31 66  1  0  0  0  0
 32 68  1  0  0  0  0
 32 71  1  0  0  0  0
 33 72  1  0  0  0  0
 33 77  2  0  0  0  0
 34 48  1  0  0  0  0
 34 73  1  0  0  0  0
 34 78  2  0  0  0  0
 35 63  1  0  0  0  0
 35 69  1  0  0  0  0
 35 79  2  0  0  0  0
 36 64  1  0  0  0  0
 36 74  1  0  0  0  0
 36 80  2  0  0  0  0
 37 70  1  0  0  0  0
 37 75  1  0  0  0  0
 37 81  2  0  0  0  0
 38 41  1  0  0  0  0
 39 48  1  0  0  0  0
 40 69  1  0  0  0  0
 41 43  1  0  0  0  0
 42 44  1  0  0  0  0
 42 45  1  0  0  0  0
 43 47  1  0  0  0  0
 44 49  1  0  0  0  0
 45 70  1  0  0  0  0
 46 49  1  0  0  0  0
 46 70  1  0  0  0  0
 47 73  1  0  0  0  0
 48 69  1  0  0  0  0
 49 68  1  0  0  0  0
 52 64  1  0  0  0  0
 53 65  1  0  0  0  0
 54 65  1  0  0  0  0
 55 65  1  0  0  0  0
 56 76  1  0  0  0  0
 57 59  1  0  0  0  0
 58 60  1  0  0  0  0
 59 62  1  0  0  0  0
 60 61  1  0  0  0  0
 61 75  1  0  0  0  0
 62 83  1  0  0  0  0
 63 65  1  0  0  0  0
 63 74  1  0  0  0  0
 64 76  1  0  0  0  0
 67 68  1  0  0  0  0
M  CHG  1  76   1
M  ISO  4  37 100  62 101  75 100  83 101
M  END
> <Batch ID>
0084

> <Smiles>
CNC(C)C(=O)NC(C(=O)N1Cc2cc([101O:1][101CH2:1]CCc3cnc(C)c(C)c3CCC[100NH:0][100C:0](=O)N3CCCC(n4nc(-c5ccc(Oc6ccc(F)cc6F)cc5)c(C(N)=O)c4N)C3)ccc2CC1C(=O)NC1CCCc2ccccc21)C(C)(C)C

> <Shape>
0.213

> <Color>
0.068

> <Negative vol penalty>
0.000

$$$$

  -OEChem-04052318543D

 84 92  0     1  0  0  0  0  0999 V2000
  -17.8467  -33.4355   22.0009 C   0  0  0  0  0  0  0  0  0  0  0  0
  -19.1346  -33.4373   21.4750 C   0  0  0  0  0  0  0  0  0  0  0  0
  -25.7895  -13.6653   21.4366 C   0  0  0  0  0  0  0  0  0  0  0  0
  -25.0783  -14.3644   19.2360 C   0  0  0  0  0  0  0  0  0  0  0  0
  -17.5107  -32.5405   23.0158 C   0  0  0  0  0  0  0  0  0  0  0  0
  -20.0877  -32.5448   21.9644 C   0  0  0  0  0  0  0  0  0  0  0  0
  -25.7629  -28.7211   19.8461 C   0  0  0  0  0  0  0  0  0  0  0  0
  -24.7634  -12.7211   21.4683 C   0  0  0  0  0  0  0  0  0  0  0  0
  -24.0522  -13.4201   19.2677 C   0  0  0  0  0  0  0  0  0  0  0  0
  -27.0940  -28.4887   20.1894 C   0  0  0  0  0  0  0  0  0  0  0  0
  -24.1669   -9.6470   20.1927 C   0  0  0  0  0  0  0  0  0  0  0  0
  -24.4803   -8.3639   20.6409 C   0  0  0  0  0  0  0  0  0  0  0  0
  -26.3778  -26.9340   21.8893 C   0  0  0  0  0  0  0  0  0  0  0  0
  -22.8683   -8.5936   22.4258 C   0  0  0  0  0  0  0  0  0  0  0  0
  -28.8377  -24.8705   18.6738 C   0  0  0  0  0  0  0  0  0  0  0  0
  -25.9469  -14.4871   20.3205 C   0  0  0  0  0  0  0  0  0  0  0  0
  -28.3163  -15.2798   19.8055 C   0  0  0  0  0  0  0  0  0  0  0  0
  -18.4574  -31.6300   23.5112 C   0  0  0  0  0  0  0  0  0  0  0  0
  -24.7270  -28.0688   20.5302 C   0  0  0  0  0  0  0  0  0  0  0  0
  -19.7644  -31.6377   22.9878 C   0  0  0  0  0  0  0  0  0  0  0  0
  -25.0345  -27.1580   21.5509 C   0  0  0  0  0  0  0  0  0  0  0  0
  -29.9575  -24.6928   19.4491 C   0  0  0  0  0  0  0  0  0  0  0  0
  -23.8947  -12.5984   20.3839 C   0  0  0  0  0  0  0  0  0  0  0  0
  -27.4015  -27.5972   21.2131 C   0  0  0  0  0  0  0  0  0  0  0  0
  -23.2042  -10.4035   20.8611 C   0  0  0  0  0  0  0  0  0  0  0  0
  -23.8311   -7.8372   21.7574 C   0  0  0  0  0  0  0  0  0  0  0  0
  -22.5549   -9.8768   21.9776 C   0  0  0  0  0  0  0  0  0  0  0  0
  -27.0064  -15.4631   20.2873 C   0  0  0  0  0  0  0  0  0  0  0  0
  -30.2166  -23.3107   19.3814 C   0  0  0  0  0  0  0  0  0  0  0  0
  -28.9250  -16.4965   19.9943 C   0  0  0  0  0  0  0  0  0  0  0  0
  -28.9282  -14.1140   19.2379 C   0  0  0  0  0  0  0  0  0  0  0  0
  -22.2815  -29.0146   22.3270 C   0  0  0  0  0  0  0  0  0  0  0  0
  -21.4985  -25.8682   22.2308 C   0  0  0  0  0  0  0  0  0  0  0  0
  -22.5215  -22.6396   21.8108 C   0  0  0  0  0  0  0  0  0  0  0  0
  -26.8210  -22.0861   20.4188 C   0  0  0  0  0  0  0  0  0  0  0  0
  -18.0609  -30.7136   24.6416 C   0  0  0  0  0  0  0  0  0  0  0  0
  -23.2974  -28.3102   20.1298 C   0  0  0  0  0  0  0  0  0  0  0  0
  -23.9601  -26.4169   22.3026 C   0  0  0  0  0  0  0  0  0  0  0  0
  -19.0229  -29.5459   24.8451 C   0  0  0  0  0  0  0  0  0  0  0  0
  -28.7904  -20.3515   22.8248 C   0  0  0  0  0  0  0  0  0  0  0  0
  -20.4676  -30.0351   24.8271 C   0  0  0  0  0  0  0  0  0  0  0  0
  -28.6747  -18.8854   22.4039 C   0  0  0  0  0  0  0  0  0  0  0  0
  -27.4843  -21.1091   22.5963 C   0  0  0  0  0  0  0  0  0  0  0  0
  -26.8285  -19.5472   20.8063 C   0  0  0  0  0  0  0  0  0  0  0  0
  -20.8190  -30.6679   23.4752 C   0  0  1  0  0  0  0  0  0  0  0  0
  -22.3025  -27.9795   21.2381 C   0  0  1  0  0  0  0  0  0  0  0  0
  -28.1378  -18.7557   20.9657 C   0  0  2  0  0  0  0  0  0  0  0  0
  -31.3078  -22.5636   20.0312 C   0  0  0  0  0  0  0  0  0  0  0  0
  -22.3292  -20.1505   21.5562 C   0  0  0  0  0  0  0  0  0  0  0  0
  -21.3971  -25.9287   25.2797 C   0  0  0  0  0  0  0  0  0  0  0  0
  -21.4830  -23.4266   25.2627 C   0  0  0  0  0  0  0  0  0  0  0  0
  -19.5635  -24.6141   24.2008 C   0  0  0  0  0  0  0  0  0  0  0  0
  -26.9945  -24.4577   16.3855 C   0  0  0  0  0  0  0  0  0  0  0  0
  -27.7868  -22.1075   16.4548 C   0  0  0  0  0  0  0  0  0  0  0  0
  -22.1734  -22.8498   18.8793 C   0  0  0  0  0  0  0  0  0  0  0  0
  -30.7271  -25.7500   20.1997 C   0  0  0  0  0  0  0  0  0  0  0  0
  -30.4636  -25.7500   21.7071 C   0  0  0  0  0  0  0  0  0  0  0  0
  -26.1454  -22.9129   18.1784 C   0  0  0  0  0  0  0  0  0  0  0  0
  -29.0193  -26.0779   22.0676 C   0  0  0  0  0  0  0  0  0  1  0  0
  -21.8258  -24.6588   23.0730 C   0  0  1  0  0  0  0  0  0  0  0  0
  -21.9586  -21.5054   20.9734 C   0  0  2  0  0  0  0  0  0  0  0  0
  -21.0877  -24.6723   24.4414 C   0  0  0  0  0  0  0  0  0  0  0  0
  -27.3945  -23.3107   17.3457 C   0  0  0  0  0  0  0  0  0  0  0  0
  -26.7945  -16.6989   20.7478 N   0  0  0  0  0  0  0  0  0  0  0  0
  -29.3326  -22.6568   18.6231 N   0  0  0  0  0  0  0  0  0  0  0  0
  -28.5070  -23.6323   18.2073 N   0  0  0  0  0  0  0  0  0  0  0  0
  -27.9796  -17.3031   20.5563 N   0  0  0  0  0  0  0  0  0  0  0  0
  -22.5773  -26.6916   21.8784 N   0  0  0  0  0  0  0  0  0  0  0  0
  -27.0302  -20.9467   21.2131 N   0  0  0  0  0  0  0  0  0  0  0  0
  -30.1714  -16.9444   19.7330 N   0  0  0  0  0  0  0  0  0  0  0  0
  -28.1599  -12.9481   19.1166 N   0  0  0  0  0  0  0  0  0  0  0  0
  -21.0600  -29.6414   22.4840 N   0  0  0  0  0  0  0  0  0  0  0  0
  -21.5304  -23.4937   22.2462 N   0  0  0  0  0  0  0  0  0  0  0  0
  -26.3970  -21.8431   19.1180 N   0  0  0  0  0  0  0  0  0  0  0  0
  -22.4856  -21.5783   19.5814 N   0  3  0  0  0  0  0  0  0  0  0  0
  -30.1258  -14.1017   18.8648 O   0  0  0  0  0  0  0  0  0  0  0  0
  -23.2979  -29.2278   22.9776 O   0  0  0  0  0  0  0  0  0  0  0  0
  -20.3299  -26.0708   21.8918 O   0  0  0  0  0  0  0  0  0  0  0  0
  -23.7201  -22.7542   22.0573 O   0  0  0  0  0  0  0  0  0  0  0  0
  -27.0039  -23.2347   20.8361 O   0  0  0  0  0  0  0  0  0  0  0  0
  -22.8935  -11.6769   20.4144 O   0  0  0  0  0  0  0  0  0  0  0  0
  -28.6999  -27.3691   21.5507 O   0  0  0  0  0  0  0  0  0  1  0  0
  -24.1311   -6.6044   22.1868 F   0  0  0  0  0  0  0  0  0  0  0  0
  -21.6283  -10.5983   22.6231 F   0  0  0  0  0  0  0  0  0  0  0  0
  1  2  1  0  0  0  0
  1  5  2  0  0  0  0
  2  6  2  0  0  0  0
  3  8  2  0  0  0  0
  3 16  1  0  0  0  0
  4  9  1  0  0  0  0
  4 16  2  0  0  0  0
  5 18  1  0  0  0  0
  6 20  1  0  0  0  0
  7 10  2  0  0  0  0
  7 19  1  0  0  0  0
  8 23  1  0  0  0  0
  9 23  2  0  0  0  0
 10 24  1  0  0  0  0
 11 12  2  0  0  0  0
 11 25  1  0  0  0  0
 12 26  1  0  0  0  0
 13 21  1  0  0  0  0
 13 24  2  0  0  0  0
 14 26  2  0  0  0  0
 14 27  1  0  0  0  0
 15 22  2  0  0  0  0
 15 66  1  0  0  0  0
 16 28  1  0  0  0  0
 17 28  1  0  0  0  0
 17 30  2  0  0  0  0
 17 31  1  0  0  0  0
 18 20  2  0  0  0  0
 18 36  1  0  0  0  0
 19 21  2  0  0  0  0
 19 37  1  0  0  0  0
 20 45  1  0  0  0  0
 21 38  1  0  0  0  0
 22 29  1  0  0  0  0
 22 56  1  0  0  0  0
 23 81  1  0  0  0  0
 24 82  1  0  0  0  0
 25 27  2  0  0  0  0
 25 81  1  0  0  0  0
 26 83  1  0  0  0  0
 27 84  1  0  0  0  0
 28 64  2  0  0  0  0
 29 48  1  0  0  0  0
 29 65  2  0  0  0  0
 30 67  1  0  0  0  0
 30 70  1  0  0  0  0
 31 71  1  0  0  0  0
 31 76  2  0  0  0  0
 32 46  1  0  0  0  0
 32 72  1  0  0  0  0
 32 77  2  0  0  0  0
 33 60  1  0  0  0  0
 33 68  1  0  0  0  0
 33 78  2  0  0  0  0
 34 61  1  0  0  0  0
 34 73  1  0  0  0  0
 34 79  2  0  0  0  0
 35 69  1  0  0  0  0
 35 74  1  0  0  0  0
 35 80  2  0  0  0  0
 36 39  1  0  0  0  0
 37 46  1  0  0  0  0
 38 68  1  0  0  0  0
 39 41  1  0  0  0  0
 40 42  1  0  0  0  0
 40 43  1  0  0  0  0
 41 45  1  0  0  0  0
 42 47  1  0  0  0  0
 43 69  1  0  0  0  0
 44 47  1  0  0  0  0
 44 69  1  0  0  0  0
 45 72  1  0  0  0  0
 46 68  1  0  0  0  0
 47 67  1  0  0  0  0
 49 61  1  0  0  0  0
 50 62  1  0  0  0  0
 51 62  1  0  0  0  0
 52 62  1  0  0  0  0
 53 63  1  0  0  0  0
 54 63  1  0  0  0  0
 55 75  1  0  0  0  0
 56 57  1  0  0  0  0
 57 59  1  0  0  0  0
 58 63  1  0  0  0  0
 58 74  1  0  0  0  0
 59 82  1  0  0  0  0
 60 62  1  0  0  0  0
 60 73  1  0  0  0  0
 61 75  1  0  0  0  0
 63 66  1  0  0  0  0
 64 67  1  0  0  0  0
 65 66  1  0  0  0  0
M  CHG  1  75   1
M  ISO  4  35 100  59 101  74 100  82 101
M  END
> <Batch ID>
0084

> <Smiles>
CNC(C)C(=O)NC(C(=O)N1Cc2cc([101O:1][101CH2:1]CCc3cn(C(C)(C)C[100NH:0][100C:0](=O)N4CCCC(n5nc(-c6ccc(Oc7ccc(F)cc7F)cc6)c(C(N)=O)c5N)C4)nc3C)ccc2CC1C(=O)NC1CCCc2ccccc21)C(C)(C)C

> <Shape>
0.238

> <Color>
0.090

> <Negative vol penalty>
0.000

$$$$

  -OEChem-04052318543D

 88 96  0     1  0  0  0  0  0999 V2000
  -19.7592  -31.3429   23.9099 C   0  0  0  0  0  0  0  0  0  0  0  0
  -21.0753  -30.9074   23.7930 C   0  0  0  0  0  0  0  0  0  0  0  0
  -23.5113  -12.3100   20.0317 C   0  0  0  0  0  0  0  0  0  0  0  0
  -24.4848  -12.4795   22.2364 C   0  0  0  0  0  0  0  0  0  0  0  0
  -18.7103  -30.4832   23.5865 C   0  0  0  0  0  0  0  0  0  0  0  0
  -21.3432  -29.6115   23.3536 C   0  0  0  0  0  0  0  0  0  0  0  0
  -25.0552  -29.4555   19.9123 C   0  0  0  0  0  0  0  0  0  0  0  0
  -23.2834  -10.9493   20.2370 C   0  0  0  0  0  0  0  0  0  0  0  0
  -24.2568  -11.1188   22.4417 C   0  0  0  0  0  0  0  0  0  0  0  0
  -26.3637  -29.5590   20.3821 C   0  0  0  0  0  0  0  0  0  0  0  0
  -21.0377   -9.0182   21.8681 C   0  0  0  0  0  0  0  0  0  0  0  0
  -19.7926   -8.5070   21.5018 C   0  0  0  0  0  0  0  0  0  0  0  0
  -26.6078  -27.1651   20.2118 C   0  0  0  0  0  0  0  0  0  0  0  0
  -30.5841  -24.0810   22.2629 C   0  0  0  0  0  0  0  0  0  0  0  0
  -20.8685   -6.9954   19.9543 C   0  0  0  0  0  0  0  0  0  0  0  0
  -24.1121  -13.0751   21.0314 C   0  0  0  0  0  0  0  0  0  0  0  0
  -23.4774  -15.5442   21.1227 C   0  0  0  0  0  0  0  0  0  0  0  0
  -18.9658  -29.1792   23.1336 C   0  0  0  0  0  0  0  0  0  0  0  0
  -24.5086  -28.2028   19.5985 C   0  0  0  0  0  0  0  0  0  0  0  0
  -20.2967  -28.7330   23.0250 C   0  0  0  0  0  0  0  0  0  0  0  0
  -25.2930  -27.0487   19.7357 C   0  0  0  0  0  0  0  0  0  0  0  0
  -30.8616  -25.3391   22.7680 C   0  0  0  0  0  0  0  0  0  0  0  0
  -23.6561  -10.3537   21.4420 C   0  0  0  0  0  0  0  0  0  0  0  0
  -27.1393  -28.4135   20.5347 C   0  0  0  0  0  0  0  0  0  0  0  0
  -22.1982   -8.5181   21.2775 C   0  0  0  0  0  0  0  0  0  0  0  0
  -19.7081   -7.4956   20.5450 C   0  0  0  0  0  0  0  0  0  0  0  0
  -22.1136   -7.5067   20.3206 C   0  0  0  0  0  0  0  0  0  0  0  0
  -24.3484  -14.4806   20.8197 C   0  0  0  0  0  0  0  0  0  0  0  0
  -30.0163  -23.1541   23.1138 C   0  0  0  0  0  0  0  0  0  0  0  0
  -30.5526  -25.5871   24.0903 C   0  0  0  0  0  0  0  0  0  0  0  0
  -24.1620  -16.6699   20.7347 C   0  0  0  0  0  0  0  0  0  0  0  0
  -22.1666  -15.5170   21.7031 C   0  0  0  0  0  0  0  0  0  0  0  0
  -22.0685  -26.4830   20.6903 C   0  0  0  0  0  0  0  0  0  0  0  0
  -22.8467  -24.5289   18.2208 C   0  0  0  0  0  0  0  0  0  0  0  0
  -25.2237  -23.4347   16.0300 C   0  0  0  0  0  0  0  0  0  0  0  0
  -28.8581  -19.6775   20.5190 C   0  0  0  0  0  0  0  0  0  0  0  0
  -17.7981  -28.2705   22.8410 C   0  0  0  0  0  0  0  0  0  0  0  0
  -23.1043  -28.1108   19.0675 C   0  0  0  0  0  0  0  0  0  0  0  0
  -24.7599  -25.6823   19.3934 C   0  0  0  0  0  0  0  0  0  0  0  0
  -18.1759  -27.0368   22.0253 C   0  0  0  0  0  0  0  0  0  0  0  0
  -28.4060  -17.1732   18.0289 C   0  0  0  0  0  0  0  0  0  0  0  0
  -19.4324  -26.3851   22.5938 C   0  0  0  0  0  0  0  0  0  0  0  0
  -27.2429  -16.3341   18.5609 C   0  0  0  0  0  0  0  0  0  0  0  0
  -29.3135  -17.6593   19.1568 C   0  0  0  0  0  0  0  0  0  0  0  0
  -27.4581  -17.5394   20.7745 C   0  0  0  0  0  0  0  0  0  0  0  0
  -20.6284  -27.3426   22.5282 C   0  0  1  0  0  0  0  0  0  0  0  0
  -22.4792  -26.7335   19.2668 C   0  0  1  0  0  0  0  0  0  0  0  0
  -26.4837  -17.0732   19.6792 C   0  0  2  0  0  0  0  0  0  0  0  0
  -30.8239  -26.9192   24.7038 C   0  0  0  0  0  0  0  0  0  0  0  0
  -29.9557  -20.7110   23.7117 C   0  0  0  0  0  0  0  0  0  0  0  0
  -25.5730  -21.8041   14.1548 C   0  0  0  0  0  0  0  0  0  0  0  0
  -32.8646  -26.9253   22.3652 C   0  0  0  0  0  0  0  0  0  0  0  0
  -31.7485  -25.7841   20.4686 C   0  0  0  0  0  0  0  0  0  0  0  0
  -22.9894  -22.2438   20.2378 C   0  0  0  0  0  0  0  0  0  0  0  0
  -24.2364  -20.9055   18.5283 C   0  0  0  0  0  0  0  0  0  0  0  0
  -21.9014  -21.6513   18.0653 C   0  0  0  0  0  0  0  0  0  0  0  0
  -28.1043  -22.5556   20.7291 C   0  0  0  0  0  0  0  0  0  0  0  0
  -27.1606  -21.9798   22.9530 C   0  0  0  0  0  0  0  0  0  0  0  0
  -25.8608  -25.5977   14.1131 C   0  0  0  0  0  0  0  0  0  0  0  0
  -30.5398  -27.6293   21.6783 C   0  0  0  0  0  0  0  0  0  0  0  0
  -29.1544  -27.2973   21.1257 C   0  0  0  0  0  0  0  0  0  1  0  0
  -29.6983  -21.7846   22.6195 C   0  0  1  0  0  0  0  0  0  0  0  0
  -23.7732  -23.3506   18.0408 C   0  0  1  0  0  0  0  0  0  0  0  0
  -25.1889  -23.2278   14.5265 C   0  0  2  0  0  0  0  0  0  0  0  0
  -31.4943  -26.4111   21.8623 C   0  0  0  0  0  0  0  0  0  0  0  0
  -23.2348  -22.0632   18.7264 C   0  0  0  0  0  0  0  0  0  0  0  0
  -28.2712  -21.6222   21.9447 C   0  0  0  0  0  0  0  0  0  0  0  0
  -25.4986  -14.8937   20.2806 N   0  0  0  0  0  0  0  0  0  0  0  0
  -29.7245  -23.4243   24.4037 N   0  0  0  0  0  0  0  0  0  0  0  0
  -29.9969  -24.6610   24.9000 N   0  0  0  0  0  0  0  0  0  0  0  0
  -25.3549  -16.2293   20.2418 N   0  0  0  0  0  0  0  0  0  0  0  0
  -23.3791  -25.6436   18.8840 N   0  0  0  0  0  0  0  0  0  0  0  0
  -28.5322  -18.3530   20.1835 N   0  0  0  0  0  0  0  0  0  0  0  0
  -23.8539  -17.9838   20.7705 N   0  0  0  0  0  0  0  0  0  0  0  0
  -21.6119  -14.2755   22.0427 N   0  0  0  0  0  0  0  0  0  0  0  0
  -21.1579  -27.3984   21.1825 N   0  0  0  0  0  0  0  0  0  0  0  0
  -23.9892  -23.2169   16.6042 N   0  0  0  0  0  0  0  0  0  0  0  0
  -28.0636  -20.2631   21.4971 N   0  0  0  0  0  0  0  0  0  0  0  0
  -26.1358  -24.1611   13.8532 N   0  3  0  0  0  0  0  0  0  0  0  0
  -21.5001  -16.5615   21.8991 O   0  0  0  0  0  0  0  0  0  0  0  0
  -22.5415  -25.5289   21.2966 O   0  0  0  0  0  0  0  0  0  0  0  0
  -21.6954  -24.4653   17.7827 O   0  0  0  0  0  0  0  0  0  0  0  0
  -26.2448  -23.7538   16.6350 O   0  0  0  0  0  0  0  0  0  0  0  0
  -29.7847  -20.2943   19.9826 O   0  0  0  0  0  0  0  0  0  0  0  0
  -23.4335   -9.0261   21.6428 O   0  0  0  0  0  0  0  0  0  0  0  0
  -28.4166  -28.5116   20.9937 O   0  0  0  0  0  0  0  0  0  1  0  0
  -18.5125   -7.0038   20.1944 F   0  0  0  0  0  0  0  0  0  0  0  0
  -23.2251   -7.0214   19.7506 F   0  0  0  0  0  0  0  0  0  0  0  0
  1  2  1  0  0  0  0
  1  5  2  0  0  0  0
  2  6  2  0  0  0  0
  3  8  2  0  0  0  0
  3 16  1  0  0  0  0
  4  9  1  0  0  0  0
  4 16  2  0  0  0  0
  5 18  1  0  0  0  0
  6 20  1  0  0  0  0
  7 10  2  0  0  0  0
  7 19  1  0  0  0  0
  8 23  1  0  0  0  0
  9 23  2  0  0  0  0
 10 24  1  0  0  0  0
 11 12  2  0  0  0  0
 11 25  1  0  0  0  0
 12 26  1  0  0  0  0
 13 21  1  0  0  0  0
 13 24  2  0  0  0  0
 14 22  1  0  0  0  0
 14 29  2  0  0  0  0
 15 26  2  0  0  0  0
 15 27  1  0  0  0  0
 16 28  1  0  0  0  0
 17 28  1  0  0  0  0
 17 31  2  0  0  0  0
 17 32  1  0  0  0  0
 18 20  2  0  0  0  0
 18 37  1  0  0  0  0
 19 21  2  0  0  0  0
 19 38  1  0  0  0  0
 20 46  1  0  0  0  0
 21 39  1  0  0  0  0
 22 30  2  0  0  0  0
 22 65  1  0  0  0  0
 23 85  1  0  0  0  0
 24 86  1  0  0  0  0
 25 27  2  0  0  0  0
 25 85  1  0  0  0  0
 26 87  1  0  0  0  0
 27 88  1  0  0  0  0
 28 68  2  0  0  0  0
 29 62  1  0  0  0  0
 29 69  1  0  0  0  0
 30 49  1  0  0  0  0
 30 70  1  0  0  0  0
 31 71  1  0  0  0  0
 31 74  1  0  0  0  0
 32 75  1  0  0  0  0
 32 80  2  0  0  0  0
 33 47  1  0  0  0  0
 33 76  1  0  0  0  0
 33 81  2  0  0  0  0
 34 63  1  0  0  0  0
 34 72  1  0  0  0  0
 34 82  2  0  0  0  0
 35 64  1  0  0  0  0
 35 77  1  0  0  0  0
 35 83  2  0  0  0  0
 36 73  1  0  0  0  0
 36 78  1  0  0  0  0
 36 84  2  0  0  0  0
 37 40  1  0  0  0  0
 38 47  1  0  0  0  0
 39 72  1  0  0  0  0
 40 42  1  0  0  0  0
 41 43  1  0  0  0  0
 41 44  1  0  0  0  0
 42 46  1  0  0  0  0
 43 48  1  0  0  0  0
 44 73  1  0  0  0  0
 45 48  1  0  0  0  0
 45 73  1  0  0  0  0
 46 76  1  0  0  0  0
 47 72  1  0  0  0  0
 48 71  1  0  0  0  0
 50 62  1  0  0  0  0
 51 64  1  0  0  0  0
 52 65  1  0  0  0  0
 53 65  1  0  0  0  0
 54 66  1  0  0  0  0
 55 66  1  0  0  0  0
 56 66  1  0  0  0  0
 57 67  1  0  0  0  0
 58 67  1  0  0  0  0
 59 79  1  0  0  0  0
 60 61  1  0  0  0  0
 60 65  1  0  0  0  0
 61 86  1  0  0  0  0
 62 67  1  0  0  0  0
 63 66  1  0  0  0  0
 63 77  1  0  0  0  0
 64 79  1  0  0  0  0
 67 78  1  0  0  0  0
 68 71  1  0  0  0  0
 69 70  2  0  0  0  0
M  CHG  1  79   1
M  ISO  4  36 100  61 101  78 100  86 101
M  END
> <Batch ID>
0084

> <Smiles>
CNC(C)C(=O)NC(C(=O)N1Cc2cc([101O:1][101CH2:1]CC(C)(C)c3cc(C(C)C(C)(C)[100NH:0][100C:0](=O)N4CCCC(n5nc(-c6ccc(Oc7ccc(F)cc7F)cc6)c(C(N)=O)c5N)C4)nnc3C)ccc2CC1C(=O)NC1CCCc2ccccc21)C(C)(C)C

> <Shape>
0.237

> <Color>
0.068

> <Negative vol penalty>
0.000

$$$$

  -OEChem-04052318543D

 87 95  0     1  0  0  0  0  0999 V2000
  -19.9450   -9.7054   23.1152 C   0  0  0  0  0  0  0  0  0  0  0  0
  -20.7285  -10.7995   23.4678 C   0  0  0  0  0  0  0  0  0  0  0  0
  -24.8724  -30.4538   19.9233 C   0  0  0  0  0  0  0  0  0  0  0  0
  -25.2021  -28.9730   21.8037 C   0  0  0  0  0  0  0  0  0  0  0  0
  -20.4351   -8.7595   22.2157 C   0  0  0  0  0  0  0  0  0  0  0  0
  -22.0031  -10.9478   22.9220 C   0  0  0  0  0  0  0  0  0  0  0  0
  -22.9175  -15.6843   21.3811 C   0  0  0  0  0  0  0  0  0  0  0  0
  -23.5334  -30.6103   20.2813 C   0  0  0  0  0  0  0  0  0  0  0  0
  -23.8631  -29.1296   22.1617 C   0  0  0  0  0  0  0  0  0  0  0  0
  -23.2362  -16.6226   22.3618 C   0  0  0  0  0  0  0  0  0  0  0  0
  -20.8620  -27.9301   21.1687 C   0  0  0  0  0  0  0  0  0  0  0  0
  -20.1449  -26.7843   21.5126 C   0  0  0  0  0  0  0  0  0  0  0  0
  -25.5746  -16.3881   21.8178 C   0  0  0  0  0  0  0  0  0  0  0  0
  -28.4459  -21.2516   21.7625 C   0  0  0  0  0  0  0  0  0  0  0  0
  -26.1627  -22.0025   21.6750 C   0  0  0  0  0  0  0  0  0  0  0  0
  -19.7249  -27.7056   23.7062 C   0  0  0  0  0  0  0  0  0  0  0  0
  -25.7068  -29.6351   20.6844 C   0  0  0  0  0  0  0  0  0  0  0  0
  -28.1809  -30.2543   20.7395 C   0  0  0  0  0  0  0  0  0  0  0  0
  -21.7126   -8.9013   21.6512 C   0  0  0  0  0  0  0  0  0  0  0  0
  -23.9276  -15.0818   20.6175 C   0  0  0  0  0  0  0  0  0  0  0  0
  -22.5113  -10.0022   22.0152 C   0  0  0  0  0  0  0  0  0  0  0  0
  -25.2659  -15.4444   20.8262 C   0  0  0  0  0  0  0  0  0  0  0  0
  -27.2182  -21.4432   22.3866 C   0  0  0  0  0  0  0  0  0  0  0  0
  -23.0287  -29.9483   21.4005 C   0  0  0  0  0  0  0  0  0  0  0  0
  -24.5651  -16.9725   22.5823 C   0  0  0  0  0  0  0  0  0  0  0  0
  -21.0107  -28.9637   22.0935 C   0  0  0  0  0  0  0  0  0  0  0  0
  -19.5763  -26.6720   22.7814 C   0  0  0  0  0  0  0  0  0  0  0  0
  -20.4421  -28.8515   23.3623 C   0  0  0  0  0  0  0  0  0  0  0  0
  -27.0899  -29.4725   20.3148 C   0  0  0  0  0  0  0  0  0  0  0  0
  -28.5656  -21.6330   20.4359 C   0  0  0  0  0  0  0  0  0  0  0  0
  -26.3847  -22.3505   20.3523 C   0  0  0  0  0  0  0  0  0  0  0  0
  -29.2677  -29.6971   20.1112 C   0  0  0  0  0  0  0  0  0  0  0  0
  -28.2093  -31.3832   21.6229 C   0  0  0  0  0  0  0  0  0  0  0  0
  -24.9621  -12.1030   20.2171 C   0  0  0  0  0  0  0  0  0  0  0  0
  -26.8332  -13.4720   17.9484 C   0  0  0  0  0  0  0  0  0  0  0  0
  -28.3682  -16.2821   16.7677 C   0  0  0  0  0  0  0  0  0  0  0  0
  -30.3752  -24.2138   17.9763 C   0  0  0  0  0  0  0  0  0  0  0  0
  -22.2178   -7.8281   20.7197 C   0  0  0  0  0  0  0  0  0  0  0  0
  -23.5652  -14.0912   19.5452 C   0  0  0  0  0  0  0  0  0  0  0  0
  -26.3859  -14.8416   20.0195 C   0  0  0  0  0  0  0  0  0  0  0  0
  -23.4317   -8.2561   19.8989 C   0  0  0  0  0  0  0  0  0  0  0  0
  -30.4782  -27.2775   16.1652 C   0  0  0  0  0  0  0  0  0  0  0  0
  -24.4643   -8.9396   20.7895 C   0  0  0  0  0  0  0  0  0  0  0  0
  -29.7200  -28.2579   17.0616 C   0  0  0  0  0  0  0  0  0  0  0  0
  -29.8666  -25.8791   16.2143 C   0  0  0  0  0  0  0  0  0  0  0  0
  -28.9558  -26.2975   18.4658 C   0  0  0  0  0  0  0  0  0  0  0  0
  -23.8892  -10.2110   21.4255 C   0  0  1  0  0  0  0  0  0  0  0  0
  -24.7165  -13.1602   19.1780 C   0  0  1  0  0  0  0  0  0  0  0  0
  -29.5694  -27.7079   18.4927 C   0  0  2  0  0  0  0  0  0  0  0  0
  -24.8692  -22.0832   18.3559 C   0  0  0  0  0  0  0  0  0  0  0  0
  -25.6011  -24.3831   19.0840 C   0  0  0  0  0  0  0  0  0  0  0  0
  -29.8596  -17.0811   14.9144 C   0  0  0  0  0  0  0  0  0  0  0  0
  -28.2945  -20.4292   24.5087 C   0  0  0  0  0  0  0  0  0  0  0  0
  -26.6862  -22.3080   24.6759 C   0  0  0  0  0  0  0  0  0  0  0  0
  -29.2304  -12.1781   19.3229 C   0  0  0  0  0  0  0  0  0  0  0  0
  -30.7155  -13.7403   18.0493 C   0  0  0  0  0  0  0  0  0  0  0  0
  -29.2923  -12.0984   16.8240 C   0  0  0  0  0  0  0  0  0  0  0  0
  -26.3205  -18.1770   15.7802 C   0  0  0  0  0  0  0  0  0  0  0  0
  -29.8679  -21.4406   19.7333 C   0  0  0  0  0  0  0  0  0  0  0  0
  -25.8511  -20.0278   24.0186 C   0  0  0  0  0  0  0  0  0  0  0  0
  -30.8106  -22.6441   19.8486 C   0  0  0  0  0  0  0  0  0  0  0  0
  -26.0442  -18.6820   23.3212 C   0  0  0  0  0  0  0  0  0  1  0  0
  -25.2746  -22.9549   19.5592 C   0  0  0  0  0  0  0  0  0  0  0  0
  -28.2076  -14.0964   17.9301 C   0  0  1  0  0  0  0  0  0  0  0  0
  -28.4238  -16.8913   15.3783 C   0  0  2  0  0  0  0  0  0  0  0  0
  -27.0281  -21.0368   23.8592 C   0  0  0  0  0  0  0  0  0  0  0  0
  -29.3407  -13.0384   18.0483 C   0  0  0  0  0  0  0  0  0  0  0  0
  -27.4507  -28.4933   19.4811 N   0  0  0  0  0  0  0  0  0  0  0  0
  -27.5630  -22.1794   19.7121 N   0  0  0  0  0  0  0  0  0  0  0  0
  -28.7806  -28.6562   19.3768 N   0  0  0  0  0  0  0  0  0  0  0  0
  -25.9812  -13.8732   18.9871 N   0  0  0  0  0  0  0  0  0  0  0  0
  -29.7529  -25.4152   17.5992 N   0  0  0  0  0  0  0  0  0  0  0  0
  -30.5830  -30.0009   20.1208 N   0  0  0  0  0  0  0  0  0  0  0  0
  -27.0022  -31.8250   22.1815 N   0  0  0  0  0  0  0  0  0  0  0  0
  -23.8703  -11.2928   20.4643 N   0  0  0  0  0  0  0  0  0  0  0  0
  -28.2713  -14.9075   16.7191 N   0  0  0  0  0  0  0  0  0  0  0  0
  -30.2235  -23.8501   19.3087 N   0  0  0  0  0  0  0  0  0  0  0  0
  -27.7469  -18.2189   15.3674 N   0  3  0  0  0  0  0  0  0  0  0  0
  -29.2713  -31.9925   21.8956 O   0  0  0  0  0  0  0  0  0  0  0  0
  -26.0612  -12.0269   20.7536 O   0  0  0  0  0  0  0  0  0  0  0  0
  -26.5245  -12.6637   17.0692 O   0  0  0  0  0  0  0  0  0  0  0  0
  -28.4105  -16.9578   17.7934 O   0  0  0  0  0  0  0  0  0  0  0  0
  -31.0230  -23.5195   17.1854 O   0  0  0  0  0  0  0  0  0  0  0  0
  -21.7223  -30.1011   21.7503 O   0  0  0  0  0  0  0  0  0  0  0  0
  -24.8790  -17.8876   23.5394 O   0  0  0  0  0  0  0  0  0  1  0  0
  -18.8864  -25.5723   23.1110 F   0  0  0  0  0  0  0  0  0  0  0  0
  -20.5805  -29.8417   24.2546 F   0  0  0  0  0  0  0  0  0  0  0  0
  1  2  1  0  0  0  0
  1  5  2  0  0  0  0
  2  6  2  0  0  0  0
  3  8  2  0  0  0  0
  3 17  1  0  0  0  0
  4  9  1  0  0  0  0
  4 17  2  0  0  0  0
  5 19  1  0  0  0  0
  6 21  1  0  0  0  0
  7 10  2  0  0  0  0
  7 20  1  0  0  0  0
  8 24  1  0  0  0  0
  9 24  2  0  0  0  0
 10 25  1  0  0  0  0
 11 12  2  0  0  0  0
 11 26  1  0  0  0  0
 12 27  1  0  0  0  0
 13 22  1  0  0  0  0
 13 25  2  0  0  0  0
 14 23  1  0  0  0  0
 14 30  2  0  0  0  0
 15 23  2  0  0  0  0
 15 31  1  0  0  0  0
 16 27  2  0  0  0  0
 16 28  1  0  0  0  0
 17 29  1  0  0  0  0
 18 29  1  0  0  0  0
 18 32  2  0  0  0  0
 18 33  1  0  0  0  0
 19 21  2  0  0  0  0
 19 38  1  0  0  0  0
 20 22  2  0  0  0  0
 20 39  1  0  0  0  0
 21 47  1  0  0  0  0
 22 40  1  0  0  0  0
 23 66  1  0  0  0  0
 24 84  1  0  0  0  0
 25 85  1  0  0  0  0
 26 28  2  0  0  0  0
 26 84  1  0  0  0  0
 27 86  1  0  0  0  0
 28 87  1  0  0  0  0
 29 68  2  0  0  0  0
 30 59  1  0  0  0  0
 30 69  1  0  0  0  0
 31 63  1  0  0  0  0
 31 69  2  0  0  0  0
 32 70  1  0  0  0  0
 32 73  1  0  0  0  0
 33 74  1  0  0  0  0
 33 79  2  0  0  0  0
 34 48  1  0  0  0  0
 34 75  1  0  0  0  0
 34 80  2  0  0  0  0
 35 64  1  0  0  0  0
 35 71  1  0  0  0  0
 35 81  2  0  0  0  0
 36 65  1  0  0  0  0
 36 76  1  0  0  0  0
 36 82  2  0  0  0  0
 37 72  1  0  0  0  0
 37 77  1  0  0  0  0
 37 83  2  0  0  0  0
 38 41  1  0  0  0  0
 39 48  1  0  0  0  0
 40 71  1  0  0  0  0
 41 43  1  0  0  0  0
 42 44  1  0  0  0  0
 42 45  1  0  0  0  0
 43 47  1  0  0  0  0
 44 49  1  0  0  0  0
 45 72  1  0  0  0  0
 46 49  1  0  0  0  0
 46 72  1  0  0  0  0
 47 75  1  0  0  0  0
 48 71  1  0  0  0  0
 49 70  1  0  0  0  0
 50 63  1  0  0  0  0
 51 63  1  0  0  0  0
 52 65  1  0  0  0  0
 53 66  1  0  0  0  0
 54 66  1  0  0  0  0
 55 67  1  0  0  0  0
 56 67  1  0  0  0  0
 57 67  1  0  0  0  0
 58 78  1  0  0  0  0
 59 61  1  0  0  0  0
 60 62  1  0  0  0  0
 60 66  1  0  0  0  0
 61 77  1  0  0  0  0
 62 85  1  0  0  0  0
 64 67  1  0  0  0  0
 64 76  1  0  0  0  0
 65 78  1  0  0  0  0
 68 70  1  0  0  0  0
M  CHG  1  78   1
M  ISO  4  37 100  62 101  77 100  85 101
M  END
> <Batch ID>
0084

> <Smiles>
CNC(C)C(=O)NC(C(=O)N1Cc2cc([101O:1][101CH2:1]CC(C)(C)c3cc(CC[100NH:0][100C:0](=O)N4CCCC(n5nc(-c6ccc(Oc7ccc(F)cc7F)cc6)c(C(N)=O)c5N)C4)nc(C(C)C)c3)ccc2CC1C(=O)NC1CCCc2ccccc21)C(C)(C)C

> <Shape>
0.265

> <Color>
0.056

> <Negative vol penalty>
0.000

$$$$

  -OEChem-04052318543D

 85 93  0     1  0  0  0  0  0999 V2000
  -18.2770  -24.6772   21.4156 C   0  0  0  0  0  0  0  0  0  0  0  0
  -19.6515  -24.5006   21.2931 C   0  0  0  0  0  0  0  0  0  0  0  0
  -25.7800  -12.9890   21.4684 C   0  0  0  0  0  0  0  0  0  0  0  0
  -25.2572  -13.5900   19.1875 C   0  0  0  0  0  0  0  0  0  0  0  0
  -17.7700  -25.8879   21.8859 C   0  0  0  0  0  0  0  0  0  0  0  0
  -20.5198  -25.5351   21.6399 C   0  0  0  0  0  0  0  0  0  0  0  0
  -24.4549  -23.9278   24.3925 C   0  0  0  0  0  0  0  0  0  0  0  0
  -25.4630  -11.6593   21.1907 C   0  0  0  0  0  0  0  0  0  0  0  0
  -24.9402  -12.2603   18.9098 C   0  0  0  0  0  0  0  0  0  0  0  0
  -25.4930  -23.2948   23.7102 C   0  0  0  0  0  0  0  0  0  0  0  0
  -22.6724   -9.7807   20.8622 C   0  0  0  0  0  0  0  0  0  0  0  0
  -21.8840   -9.0964   21.7873 C   0  0  0  0  0  0  0  0  0  0  0  0
  -26.7674  -25.3424   23.7619 C   0  0  0  0  0  0  0  0  0  0  0  0
  -29.3057  -24.5166   20.0621 C   0  0  0  0  0  0  0  0  0  0  0  0
  -23.6551   -7.4839   22.1040 C   0  0  0  0  0  0  0  0  0  0  0  0
  -25.6770  -13.9544   20.4668 C   0  0  0  0  0  0  0  0  0  0  0  0
  -27.2621  -15.9466   20.6276 C   0  0  0  0  0  0  0  0  0  0  0  0
  -18.6330  -26.9343   22.2478 C   0  0  0  0  0  0  0  0  0  0  0  0
  -24.5610  -25.2781   24.7556 C   0  0  0  0  0  0  0  0  0  0  0  0
  -20.0239  -26.7614   22.1143 C   0  0  0  0  0  0  0  0  0  0  0  0
  -25.7303  -25.9895   24.4509 C   0  0  0  0  0  0  0  0  0  0  0  0
  -28.2748  -23.6102   19.8867 C   0  0  0  0  0  0  0  0  0  0  0  0
  -25.0431  -11.2950   19.9114 C   0  0  0  0  0  0  0  0  0  0  0  0
  -26.6483  -24.0029   23.3923 C   0  0  0  0  0  0  0  0  0  0  0  0
  -23.9522   -9.3166   20.5580 C   0  0  0  0  0  0  0  0  0  0  0  0
  -22.3753   -7.9480   22.4081 C   0  0  0  0  0  0  0  0  0  0  0  0
  -24.4435   -8.1683   21.1789 C   0  0  0  0  0  0  0  0  0  0  0  0
  -26.0038  -15.3281   20.7532 C   0  0  0  0  0  0  0  0  0  0  0  0
  -29.2624  -25.6920   19.3397 C   0  0  0  0  0  0  0  0  0  0  0  0
  -27.2687  -23.9396   19.0008 C   0  0  0  0  0  0  0  0  0  0  0  0
  -27.0468  -17.2456   21.0184 C   0  0  0  0  0  0  0  0  0  0  0  0
  -28.5137  -15.3962   20.1961 C   0  0  0  0  0  0  0  0  0  0  0  0
  -22.9532  -27.9257   24.0421 C   0  0  0  0  0  0  0  0  0  0  0  0
  -24.8962  -29.2428   26.2808 C   0  0  0  0  0  0  0  0  0  0  0  0
  -27.8415  -29.1113   27.9999 C   0  0  0  0  0  0  0  0  0  0  0  0
  -23.0111  -21.3868   20.7375 C   0  0  0  0  0  0  0  0  0  0  0  0
  -18.0365  -28.2414   22.7064 C   0  0  0  0  0  0  0  0  0  0  0  0
  -23.4433  -25.9390   25.5148 C   0  0  0  0  0  0  0  0  0  0  0  0
  -25.9020  -27.4353   24.8362 C   0  0  0  0  0  0  0  0  0  0  0  0
  -19.0384  -29.1555   23.4071 C   0  0  0  0  0  0  0  0  0  0  0  0
  -23.6080  -19.5452   23.7257 C   0  0  0  0  0  0  0  0  0  0  0  0
  -20.3385  -29.2308   22.6130 C   0  0  0  0  0  0  0  0  0  0  0  0
  -24.4036  -18.3275   23.2521 C   0  0  0  0  0  0  0  0  0  0  0  0
  -22.5477  -19.9575   22.7070 C   0  0  0  0  0  0  0  0  0  0  0  0
  -23.8511  -18.9631   20.8669 C   0  0  0  0  0  0  0  0  0  0  0  0
  -20.9990  -27.8511   22.5038 C   0  0  1  0  0  0  0  0  0  0  0  0
  -23.4476  -27.4588   25.3819 C   0  0  1  0  0  0  0  0  0  0  0  0
  -24.9698  -18.5438   21.8358 C   0  0  2  0  0  0  0  0  0  0  0  0
  -29.8333  -28.0430   20.0473 C   0  0  0  0  0  0  0  0  0  0  0  0
  -31.1184  -26.9418   18.1789 C   0  0  0  0  0  0  0  0  0  0  0  0
  -29.1657  -30.3475   29.7364 C   0  0  0  0  0  0  0  0  0  0  0  0
  -25.6686  -31.3353   24.1988 C   0  0  0  0  0  0  0  0  0  0  0  0
  -27.6359  -31.9304   25.6284 C   0  0  0  0  0  0  0  0  0  0  0  0
  -25.3208  -32.2374   26.5052 C   0  0  0  0  0  0  0  0  0  0  0  0
  -27.7968  -26.7992   29.8468 C   0  0  0  0  0  0  0  0  0  0  0  0
  -28.2732  -22.3097   20.6528 C   0  0  0  0  0  0  0  0  0  0  0  0
  -26.1259  -23.0119   18.7598 C   0  0  0  0  0  0  0  0  0  0  0  0
  -24.7367  -23.6346   19.0017 C   0  0  0  0  0  0  0  0  0  0  0  0
  -23.5678  -22.6976   18.7051 C   0  0  0  0  0  0  0  0  0  0  0  0
  -27.3076  -22.3329   21.8327 C   0  0  0  0  0  0  0  0  0  1  0  0
  -30.3484  -26.7012   19.4918 C   0  0  0  0  0  0  0  0  0  0  0  0
  -26.2549  -29.9005   26.2637 C   0  0  1  0  0  0  0  0  0  0  0  0
  -28.1506  -29.2444   29.4801 C   0  0  2  0  0  0  0  0  0  0  0  0
  -26.2163  -31.3242   25.6399 C   0  0  0  0  0  0  0  0  0  0  0  0
  -25.0590  -16.1653   21.1898 N   0  0  0  0  0  0  0  0  0  0  0  0
  -28.2652  -25.9881   18.4794 N   0  0  0  0  0  0  0  0  0  0  0  0
  -27.2518  -25.0975   18.3074 N   0  0  0  0  0  0  0  0  0  0  0  0
  -25.7241  -17.3231   21.3420 N   0  0  0  0  0  0  0  0  0  0  0  0
  -24.7786  -28.0389   25.5718 N   0  0  0  0  0  0  0  0  0  0  0  0
  -23.1501  -20.1482   21.3854 N   0  0  0  0  0  0  0  0  0  0  0  0
  -27.8617  -18.3177   21.1133 N   0  0  0  0  0  0  0  0  0  0  0  0
  -28.5583  -14.0440   19.8304 N   0  0  0  0  0  0  0  0  0  0  0  0
  -21.6695  -27.5125   23.7408 N   0  0  0  0  0  0  0  0  0  0  0  0
  -26.7439  -29.8632   27.6377 N   0  0  0  0  0  0  0  0  0  0  0  0
  -23.6178  -21.4852   19.4913 N   0  0  0  0  0  0  0  0  0  0  0  0
  -28.7019  -27.9658   30.0112 N   0  3  0  0  0  0  0  0  0  0  0  0
  -29.5651  -16.0790   20.1524 O   0  0  0  0  0  0  0  0  0  0  0  0
  -23.6819  -28.6114   23.3346 O   0  0  0  0  0  0  0  0  0  0  0  0
  -23.9752  -29.7738   26.9064 O   0  0  0  0  0  0  0  0  0  0  0  0
  -28.5093  -28.4132   27.2401 O   0  0  0  0  0  0  0  0  0  0  0  0
  -22.3968  -22.3364   21.2354 O   0  0  0  0  0  0  0  0  0  0  0  0
  -24.7340   -9.9976   19.6400 O   0  0  0  0  0  0  0  0  0  0  0  0
  -27.6627  -23.3876   22.7258 O   0  0  0  0  0  0  0  0  0  1  0  0
  -21.6186   -7.2919   23.2976 F   0  0  0  0  0  0  0  0  0  0  0  0
  -25.6726   -7.7182   20.8915 F   0  0  0  0  0  0  0  0  0  0  0  0
  1  2  1  0  0  0  0
  1  5  2  0  0  0  0
  2  6  2  0  0  0  0
  3  8  2  0  0  0  0
  3 16  1  0  0  0  0
  4  9  1  0  0  0  0
  4 16  2  0  0  0  0
  5 18  1  0  0  0  0
  6 20  1  0  0  0  0
  7 10  2  0  0  0  0
  7 19  1  0  0  0  0
  8 23  1  0  0  0  0
  9 23  2  0  0  0  0
 10 24  1  0  0  0  0
 11 12  2  0  0  0  0
 11 25  1  0  0  0  0
 12 26  1  0  0  0  0
 13 21  1  0  0  0  0
 13 24  2  0  0  0  0
 14 22  1  0  0  0  0
 14 29  2  0  0  0  0
 15 26  2  0  0  0  0
 15 27  1  0  0  0  0
 16 28  1  0  0  0  0
 17 28  1  0  0  0  0
 17 31  2  0  0  0  0
 17 32  1  0  0  0  0
 18 20  2  0  0  0  0
 18 37  1  0  0  0  0
 19 21  2  0  0  0  0
 19 38  1  0  0  0  0
 20 46  1  0  0  0  0
 21 39  1  0  0  0  0
 22 30  2  0  0  0  0
 22 56  1  0  0  0  0
 23 82  1  0  0  0  0
 24 83  1  0  0  0  0
 25 27  2  0  0  0  0
 25 82  1  0  0  0  0
 26 84  1  0  0  0  0
 27 85  1  0  0  0  0
 28 65  2  0  0  0  0
 29 61  1  0  0  0  0
 29 66  1  0  0  0  0
 30 57  1  0  0  0  0
 30 67  1  0  0  0  0
 31 68  1  0  0  0  0
 31 71  1  0  0  0  0
 32 72  1  0  0  0  0
 32 77  2  0  0  0  0
 33 47  1  0  0  0  0
 33 73  1  0  0  0  0
 33 78  2  0  0  0  0
 34 62  1  0  0  0  0
 34 69  1  0  0  0  0
 34 79  2  0  0  0  0
 35 63  1  0  0  0  0
 35 74  1  0  0  0  0
 35 80  2  0  0  0  0
 36 70  1  0  0  0  0
 36 75  1  0  0  0  0
 36 81  2  0  0  0  0
 37 40  1  0  0  0  0
 38 47  1  0  0  0  0
 39 69  1  0  0  0  0
 40 42  1  0  0  0  0
 41 43  1  0  0  0  0
 41 44  1  0  0  0  0
 42 46  1  0  0  0  0
 43 48  1  0  0  0  0
 44 70  1  0  0  0  0
 45 48  1  0  0  0  0
 45 70  1  0  0  0  0
 46 73  1  0  0  0  0
 47 69  1  0  0  0  0
 48 68  1  0  0  0  0
 49 61  1  0  0  0  0
 50 61  1  0  0  0  0
 51 63  1  0  0  0  0
 52 64  1  0  0  0  0
 53 64  1  0  0  0  0
 54 64  1  0  0  0  0
 55 76  1  0  0  0  0
 56 60  1  0  0  0  0
 57 58  1  0  0  0  0
 58 59  1  0  0  0  0
 59 75  1  0  0  0  0
 60 83  1  0  0  0  0
 62 64  1  0  0  0  0
 62 74  1  0  0  0  0
 63 76  1  0  0  0  0
 65 68  1  0  0  0  0
 66 67  2  0  0  0  0
M  CHG  1  76   1
M  ISO  4  36 100  60 101  75 100  83 101
M  END
> <Batch ID>
0084

> <Smiles>
CNC(C)C(=O)NC(C(=O)N1Cc2cc([101O:1][101CH2:1]Cc3cc(C(C)C)nnc3CCC[100NH:0][100C:0](=O)N3CCCC(n4nc(-c5ccc(Oc6ccc(F)cc6F)cc5)c(C(N)=O)c4N)C3)ccc2CC1C(=O)NC1CCCc2ccccc21)C(C)(C)C

> <Shape>
0.224

> <Color>
0.080

> <Negative vol penalty>
0.000

$$$$

  -OEChem-04052318543D

 92100  0     1  0  0  0  0  0999 V2000
  -38.4745  -30.1328   21.6427 C   0  0  0  0  0  0  0  0  0  0  0  0
  -37.2236  -30.0220   21.0442 C   0  0  0  0  0  0  0  0  0  0  0  0
  -23.0581   -9.9135   19.9343 C   0  0  0  0  0  0  0  0  0  0  0  0
  -23.8242   -9.8987   22.2256 C   0  0  0  0  0  0  0  0  0  0  0  0
  -39.1858  -28.9839   21.9865 C   0  0  0  0  0  0  0  0  0  0  0  0
  -36.6837  -28.7621   20.7879 C   0  0  0  0  0  0  0  0  0  0  0  0
  -30.3995  -25.3358   20.4945 C   0  0  0  0  0  0  0  0  0  0  0  0
  -22.3239   -8.7517   20.1722 C   0  0  0  0  0  0  0  0  0  0  0  0
  -23.0898   -8.7369   22.4636 C   0  0  0  0  0  0  0  0  0  0  0  0
  -29.6543  -24.5239   19.6406 C   0  0  0  0  0  0  0  0  0  0  0  0
  -23.4049   -5.4243   21.8654 C   0  0  0  0  0  0  0  0  0  0  0  0
  -24.0303   -4.3952   22.5693 C   0  0  0  0  0  0  0  0  0  0  0  0
  -30.9389  -22.6092   20.3498 C   0  0  0  0  0  0  0  0  0  0  0  0
  -26.2107  -18.9396   21.1350 C   0  0  0  0  0  0  0  0  0  0  0  0
  -22.3322   -4.5350   24.2822 C   0  0  0  0  0  0  0  0  0  0  0  0
  -23.8083  -10.4870   20.9609 C   0  0  0  0  0  0  0  0  0  0  0  0
  -24.1303  -13.0160   20.8705 C   0  0  0  0  0  0  0  0  0  0  0  0
  -38.6501  -27.7094   21.7431 C   0  0  0  0  0  0  0  0  0  0  0  0
  -31.4290  -24.7915   21.2757 C   0  0  0  0  0  0  0  0  0  0  0  0
  -37.3890  -27.5951   21.1275 C   0  0  0  0  0  0  0  0  0  0  0  0
  -31.6940  -23.4160   21.2147 C   0  0  0  0  0  0  0  0  0  0  0  0
  -26.2426  -18.6979   22.5039 C   0  0  0  0  0  0  0  0  0  0  0  0
  -27.4367  -18.3244   23.1106 C   0  0  0  0  0  0  0  0  0  0  0  0
  -22.3397   -8.1634   21.4368 C   0  0  0  0  0  0  0  0  0  0  0  0
  -29.9258  -23.1609   19.5660 C   0  0  0  0  0  0  0  0  0  0  0  0
  -22.2432   -6.0088   22.3699 C   0  0  0  0  0  0  0  0  0  0  0  0
  -23.4939   -3.9505   23.7777 C   0  0  0  0  0  0  0  0  0  0  0  0
  -21.7069   -5.5641   23.5783 C   0  0  0  0  0  0  0  0  0  0  0  0
  -24.5675  -11.6869   20.7156 C   0  0  0  0  0  0  0  0  0  0  0  0
  -27.3907  -18.7952   20.4232 C   0  0  0  0  0  0  0  0  0  0  0  0
  -28.5617  -18.2074   22.3103 C   0  0  0  0  0  0  0  0  0  0  0  0
  -25.2157  -13.7783   20.5135 C   0  0  0  0  0  0  0  0  0  0  0  0
  -22.8570  -13.5169   21.2989 C   0  0  0  0  0  0  0  0  0  0  0  0
  -34.5718  -25.2282   21.4647 C   0  0  0  0  0  0  0  0  0  0  0  0
  -34.3045  -23.2271   24.0037 C   0  0  0  0  0  0  0  0  0  0  0  0
  -32.5443  -20.7632   25.5780 C   0  0  0  0  0  0  0  0  0  0  0  0
  -30.6918  -14.8375   20.6998 C   0  0  0  0  0  0  0  0  0  0  0  0
  -39.4769  -26.4963   22.0891 C   0  0  0  0  0  0  0  0  0  0  0  0
  -32.2059  -25.6762   22.2117 C   0  0  0  0  0  0  0  0  0  0  0  0
  -32.7752  -22.7790   22.0477 C   0  0  0  0  0  0  0  0  0  0  0  0
  -38.6711  -25.2003   22.1254 C   0  0  0  0  0  0  0  0  0  0  0  0
  -29.5663  -12.4732   18.2874 C   0  0  0  0  0  0  0  0  0  0  0  0
  -37.7722  -25.0959   20.8975 C   0  0  0  0  0  0  0  0  0  0  0  0
  -28.1323  -12.1631   18.7205 C   0  0  0  0  0  0  0  0  0  0  0  0
  -30.4849  -12.6866   19.4885 C   0  0  0  0  0  0  0  0  0  0  0  0
  -28.5813  -13.3862   20.8888 C   0  0  0  0  0  0  0  0  0  0  0  0
  -36.7590  -26.2462   20.8561 C   0  0  1  0  0  0  0  0  0  0  0  0
  -33.5716  -25.1040   22.5791 C   0  0  1  0  0  0  0  0  0  0  0  0
  -27.6054  -13.2182   19.7116 C   0  0  2  0  0  0  0  0  0  0  0  0
  -23.3405  -20.4622   24.3396 C   0  0  0  0  0  0  0  0  0  0  0  0
  -25.3141  -14.8503   25.1852 C   0  0  0  0  0  0  0  0  0  0  0  0
  -32.5944  -19.3021   27.6176 C   0  0  0  0  0  0  0  0  0  0  0  0
  -27.2515  -17.0236   27.5403 C   0  0  0  0  0  0  0  0  0  0  0  0
  -29.3548  -16.2994   26.3879 C   0  0  0  0  0  0  0  0  0  0  0  0
  -36.4624  -21.5004   22.7108 C   0  0  0  0  0  0  0  0  0  0  0  0
  -35.7986  -19.6408   24.2501 C   0  0  0  0  0  0  0  0  0  0  0  0
  -36.6898  -21.7744   25.1862 C   0  0  0  0  0  0  0  0  0  0  0  0
  -29.9865  -21.8689   26.5751 C   0  0  0  0  0  0  0  0  0  0  0  0
  -24.9855  -18.8431   23.2960 C   0  0  0  0  0  0  0  0  0  0  0  0
  -27.5015  -18.0611   24.5775 C   0  0  0  0  0  0  0  0  0  0  0  0
  -27.3942  -19.0504   18.9371 C   0  0  0  0  0  0  0  0  0  0  0  0
  -29.8735  -17.8109   22.9050 C   0  0  0  0  0  0  0  0  0  0  0  0
  -24.6388  -20.3153   23.5620 C   0  0  0  0  0  0  0  0  0  0  0  0
  -25.7001  -16.2935   24.8903 C   0  0  0  0  0  0  0  0  0  0  0  0
  -27.6994  -20.5023   18.5622 C   0  0  0  0  0  0  0  0  0  0  0  0
  -30.7444  -16.9735   21.9624 C   0  0  0  0  0  0  0  0  0  0  0  0
  -29.0244  -21.0051   19.1235 C   0  0  0  0  0  0  0  0  0  1  0  0
  -34.3636  -21.7310   24.1966 C   0  0  1  0  0  0  0  0  0  0  0  0
  -32.0969  -20.6093   27.0204 C   0  0  2  0  0  0  0  0  0  0  0  0
  -27.8236  -16.2078   26.3783 C   0  0  0  0  0  0  0  0  0  0  0  0
  -27.2208  -16.5821   24.9884 C   0  0  2  0  0  0  0  0  0  0  0  0
  -35.8095  -21.1737   24.0686 C   0  0  0  0  0  0  0  0  0  0  0  0
  -25.8319  -11.6059   20.2929 N   0  0  0  0  0  0  0  0  0  0  0  0
  -28.5696  -18.4340   20.9776 N   0  0  0  0  0  0  0  0  0  0  0  0
  -26.1985  -12.8938   20.1791 N   0  0  0  0  0  0  0  0  0  0  0  0
  -33.5114  -23.6869   22.9428 N   0  0  0  0  0  0  0  0  0  0  0  0
  -29.9288  -13.7001   20.3883 N   0  0  0  0  0  0  0  0  0  0  0  0
  -25.4156  -15.1121   20.4560 N   0  0  0  0  0  0  0  0  0  0  0  0
  -21.8531  -12.5959   21.6279 N   0  0  0  0  0  0  0  0  0  0  0  0
  -35.6746  -25.9981   21.7818 N   0  0  0  0  0  0  0  0  0  0  0  0
  -33.7304  -21.4599   25.4827 N   0  0  0  0  0  0  0  0  0  0  0  0
  -30.0878  -15.7514   21.5546 N   0  0  0  0  0  0  0  0  0  0  0  0
  -30.6093  -20.6291   27.1062 N   0  3  0  0  0  0  0  0  0  0  0  0
  -22.6114  -14.7448   21.3718 O   0  0  0  0  0  0  0  0  0  0  0  0
  -34.3595  -24.6658   20.3968 O   0  0  0  0  0  0  0  0  0  0  0  0
  -34.9329  -23.9610   24.7705 O   0  0  0  0  0  0  0  0  0  0  0  0
  -31.9074  -20.3076   24.6307 O   0  0  0  0  0  0  0  0  0  0  0  0
  -31.8252  -15.0273   20.2454 O   0  0  0  0  0  0  0  0  0  0  0  0
  -21.6231   -7.0298   21.6695 O   0  0  0  0  0  0  0  0  0  0  0  0
  -29.2004  -22.3663   18.7328 O   0  0  0  0  0  0  0  0  0  1  0  0
  -24.0936   -2.9612   24.4528 F   0  0  0  0  0  0  0  0  0  0  0  0
  -20.5904   -6.1210   24.0674 F   0  0  0  0  0  0  0  0  0  0  0  0
  1  2  1  0  0  0  0
  1  5  2  0  0  0  0
  2  6  2  0  0  0  0
  3  8  2  0  0  0  0
  3 16  1  0  0  0  0
  4  9  1  0  0  0  0
  4 16  2  0  0  0  0
  5 18  1  0  0  0  0
  6 20  1  0  0  0  0
  7 10  2  0  0  0  0
  7 19  1  0  0  0  0
  8 24  1  0  0  0  0
  9 24  2  0  0  0  0
 10 25  1  0  0  0  0
 11 12  2  0  0  0  0
 11 26  1  0  0  0  0
 12 27  1  0  0  0  0
 13 21  1  0  0  0  0
 13 25  2  0  0  0  0
 14 22  1  0  0  0  0
 14 30  2  0  0  0  0
 15 27  2  0  0  0  0
 15 28  1  0  0  0  0
 16 29  1  0  0  0  0
 17 29  1  0  0  0  0
 17 32  2  0  0  0  0
 17 33  1  0  0  0  0
 18 20  2  0  0  0  0
 18 38  1  0  0  0  0
 19 21  2  0  0  0  0
 19 39  1  0  0  0  0
 20 47  1  0  0  0  0
 21 40  1  0  0  0  0
 22 23  2  0  0  0  0
 22 59  1  0  0  0  0
 23 31  1  0  0  0  0
 23 60  1  0  0  0  0
 24 89  1  0  0  0  0
 25 90  1  0  0  0  0
 26 28  2  0  0  0  0
 26 89  1  0  0  0  0
 27 91  1  0  0  0  0
 28 92  1  0  0  0  0
 29 73  2  0  0  0  0
 30 61  1  0  0  0  0
 30 74  1  0  0  0  0
 31 62  1  0  0  0  0
 31 74  2  0  0  0  0
 32 75  1  0  0  0  0
 32 78  1  0  0  0  0
 33 79  1  0  0  0  0
 33 84  2  0  0  0  0
 34 48  1  0  0  0  0
 34 80  1  0  0  0  0
 34 85  2  0  0  0  0
 35 68  1  0  0  0  0
 35 76  1  0  0  0  0
 35 86  2  0  0  0  0
 36 69  1  0  0  0  0
 36 81  1  0  0  0  0
 36 87  2  0  0  0  0
 37 77  1  0  0  0  0
 37 82  1  0  0  0  0
 37 88  2  0  0  0  0
 38 41  1  0  0  0  0
 39 48  1  0  0  0  0
 40 76  1  0  0  0  0
 41 43  1  0  0  0  0
 42 44  1  0  0  0  0
 42 45  1  0  0  0  0
 43 47  1  0  0  0  0
 44 49  1  0  0  0  0
 45 77  1  0  0  0  0
 46 49  1  0  0  0  0
 46 77  1  0  0  0  0
 47 80  1  0  0  0  0
 48 76  1  0  0  0  0
 49 75  1  0  0  0  0
 50 63  1  0  0  0  0
 51 64  1  0  0  0  0
 52 69  1  0  0  0  0
 53 70  1  0  0  0  0
 54 70  1  0  0  0  0
 55 72  1  0  0  0  0
 56 72  1  0  0  0  0
 57 72  1  0  0  0  0
 58 83  1  0  0  0  0
 59 63  1  0  0  0  0
 60 71  1  0  0  0  0
 61 65  1  0  0  0  0
 62 66  1  0  0  0  0
 64 71  1  0  0  0  0
 65 67  1  0  0  0  0
 66 82  1  0  0  0  0
 67 90  1  0  0  0  0
 68 72  1  0  0  0  0
 68 81  1  0  0  0  0
 69 83  1  0  0  0  0
 70 71  1  0  0  0  0
 73 75  1  0  0  0  0
M  CHG  1  83   1
M  ISO  4  37 100  67 101  82 100  90 101
M  END
> <Batch ID>
0084

> <Smiles>
CCCc1cc(CC[101CH2:1][101O:1]c2ccc3c(c2)CN(C(=O)C(NC(=O)C(C)NC)C(C)(C)C)C(C(=O)NC2CCCc4ccccc42)C3)nc(CC[100NH:0][100C:0](=O)N2CCCC(n3nc(-c4ccc(Oc5ccc(F)cc5F)cc4)c(C(N)=O)c3N)C2)c1CC(CC)C(C)C

> <Shape>
0.218

> <Color>
0.198

> <Negative vol penalty>
0.000

$$$$

  -OEChem-04052318543D

 84 92  0     1  0  0  0  0  0999 V2000
  -22.2752  -11.2087   21.3253 C   0  0  0  0  0  0  0  0  0  0  0  0
  -21.9809  -12.5118   21.7138 C   0  0  0  0  0  0  0  0  0  0  0  0
  -27.6334  -29.1699   18.6803 C   0  0  0  0  0  0  0  0  0  0  0  0
  -28.6135  -29.3938   20.8772 C   0  0  0  0  0  0  0  0  0  0  0  0
  -23.5670  -10.8791   20.9174 C   0  0  0  0  0  0  0  0  0  0  0  0
  -22.9786  -13.4857   21.6956 C   0  0  0  0  0  0  0  0  0  0  0  0
  -21.4002  -17.8461   19.6606 C   0  0  0  0  0  0  0  0  0  0  0  0
  -28.9031  -29.2379   18.1069 C   0  0  0  0  0  0  0  0  0  0  0  0
  -29.8833  -29.4616   20.3038 C   0  0  0  0  0  0  0  0  0  0  0  0
  -20.6156  -18.6751   20.4611 C   0  0  0  0  0  0  0  0  0  0  0  0
  -31.9162  -28.9898   16.0882 C   0  0  0  0  0  0  0  0  0  0  0  0
  -32.2236  -28.0731   15.0829 C   0  0  0  0  0  0  0  0  0  0  0  0
  -22.5518  -20.0299   20.9454 C   0  0  0  0  0  0  0  0  0  0  0  0
  -31.8445  -26.2534   16.6263 C   0  0  0  0  0  0  0  0  0  0  0  0
  -19.1497  -27.4487   23.7410 C   0  0  0  0  0  0  0  0  0  0  0  0
  -27.4886  -29.2479   20.0655 C   0  0  0  0  0  0  0  0  0  0  0  0
  -25.4954  -28.0214   21.0806 C   0  0  0  0  0  0  0  0  0  0  0  0
  -24.5788  -11.8517   20.8850 C   0  0  0  0  0  0  0  0  0  0  0  0
  -22.7711  -18.0968   19.5050 C   0  0  0  0  0  0  0  0  0  0  0  0
  -24.2855  -13.1685   21.2881 C   0  0  0  0  0  0  0  0  0  0  0  0
  -23.3511  -19.2041   20.1403 C   0  0  0  0  0  0  0  0  0  0  0  0
  -19.0212  -26.6409   22.6376 C   0  0  0  0  0  0  0  0  0  0  0  0
  -30.0280  -29.3837   18.9186 C   0  0  0  0  0  0  0  0  0  0  0  0
  -21.1919  -19.7655   21.1060 C   0  0  0  0  0  0  0  0  0  0  0  0
  -31.5729  -28.5384   17.3626 C   0  0  0  0  0  0  0  0  0  0  0  0
  -32.1878  -26.7049   15.3519 C   0  0  0  0  0  0  0  0  0  0  0  0
  -31.5371  -27.1702   17.6317 C   0  0  0  0  0  0  0  0  0  0  0  0
  -26.1772  -29.1784   20.6583 C   0  0  0  0  0  0  0  0  0  0  0  0
  -19.2430  -27.5000   21.5447 C   0  0  0  0  0  0  0  0  0  0  0  0
  -24.2986  -28.4868   21.5681 C   0  0  0  0  0  0  0  0  0  0  0  0
  -25.9072  -26.6488   21.0363 C   0  0  0  0  0  0  0  0  0  0  0  0
  -25.4350  -16.5054   20.1940 C   0  0  0  0  0  0  0  0  0  0  0  0
  -26.8470  -18.9578   18.6083 C   0  0  0  0  0  0  0  0  0  0  0  0
  -26.6877  -22.1994   17.5533 C   0  0  0  0  0  0  0  0  0  0  0  0
  -21.7793  -32.3562   24.8843 C   0  0  0  0  0  0  0  0  0  0  0  0
  -25.9717  -11.4371   20.4817 C   0  0  0  0  0  0  0  0  0  0  0  0
  -23.5983  -17.2086   18.6166 C   0  0  0  0  0  0  0  0  0  0  0  0
  -24.8142  -19.5285   19.9895 C   0  0  0  0  0  0  0  0  0  0  0  0
  -26.8805  -12.6132   20.1337 C   0  0  0  0  0  0  0  0  0  0  0  0
  -22.1498  -33.0460   21.2665 C   0  0  0  0  0  0  0  0  0  0  0  0
  -26.7644  -13.7082   21.1893 C   0  0  0  0  0  0  0  0  0  0  0  0
  -23.2283  -32.0489   20.8461 C   0  0  0  0  0  0  0  0  0  0  0  0
  -22.2902  -33.4492   22.7313 C   0  0  0  0  0  0  0  0  0  0  0  0
  -23.3966  -31.3002   23.2527 C   0  0  0  0  0  0  0  0  0  0  0  0
  -25.3348  -14.2586   21.2584 C   0  0  1  0  0  0  0  0  0  0  0  0
  -25.0880  -17.2593   18.9414 C   0  0  1  0  0  0  0  0  0  0  0  0
  -23.2555  -30.8378   21.7946 C   0  0  2  0  0  0  0  0  0  0  0  0
  -19.2254  -27.1606   20.1110 C   0  0  0  0  0  0  0  0  0  0  0  0
  -28.0095  -23.9342   16.3119 C   0  0  0  0  0  0  0  0  0  0  0  0
  -28.6218  -19.3550   21.0582 C   0  0  0  0  0  0  0  0  0  0  0  0
  -29.2242  -21.6165   20.1687 C   0  0  0  0  0  0  0  0  0  0  0  0
  -29.8061  -19.5702   18.8661 C   0  0  0  0  0  0  0  0  0  0  0  0
  -20.6452  -31.2009   26.7441 C   0  0  0  0  0  0  0  0  0  0  0  0
  -24.6127  -22.4482   15.4578 C   0  0  0  0  0  0  0  0  0  0  0  0
  -18.7112  -25.1653   22.6158 C   0  0  0  0  0  0  0  0  0  0  0  0
  -19.9289  -24.2810   22.3252 C   0  0  0  0  0  0  0  0  0  0  0  0
  -19.5807  -22.7948   22.2308 C   0  0  0  0  0  0  0  0  0  0  0  0
  -19.6502  -29.8851   24.0455 C   0  0  0  0  0  0  0  0  0  0  0  0
  -21.0465  -29.9447   24.6593 C   0  0  0  0  0  0  0  0  0  0  0  0
  -20.8194  -21.9452   21.9813 C   0  0  0  0  0  0  0  0  0  1  0  0
  -27.3923  -20.3103   18.9987 C   0  0  1  0  0  0  0  0  0  0  0  0
  -26.9654  -22.8338   16.2024 C   0  0  2  0  0  0  0  0  0  0  0  0
  -28.7339  -20.2060   19.7775 C   0  0  0  0  0  0  0  0  0  0  0  0
  -25.4721  -30.2948   20.8597 N   0  0  0  0  0  0  0  0  0  0  0  0
  -19.4933  -28.7573   21.9197 N   0  0  0  0  0  0  0  0  0  0  0  0
  -19.4295  -28.6941   23.2606 N   0  0  0  0  0  0  0  0  0  0  0  0
  -24.3348  -29.8414   21.4138 N   0  0  0  0  0  0  0  0  0  0  0  0
  -25.5824  -18.6266   19.1154 N   0  0  0  0  0  0  0  0  0  0  0  0
  -22.3571  -32.2784   23.6065 N   0  0  0  0  0  0  0  0  0  0  0  0
  -23.2294  -27.8652   22.1092 N   0  0  0  0  0  0  0  0  0  0  0  0
  -27.1678  -26.3462   20.5038 N   0  0  0  0  0  0  0  0  0  0  0  0
  -25.0896  -15.1678   20.1594 N   0  0  0  0  0  0  0  0  0  0  0  0
  -27.4752  -21.0879   17.7671 N   0  0  0  0  0  0  0  0  0  0  0  0
  -21.2645  -31.1690   25.4268 N   0  0  0  0  0  0  0  0  0  0  0  0
  -25.7175  -23.4242   15.6411 N   0  3  0  0  0  0  0  0  0  0  0  0
  -25.1720  -25.7165   21.4413 O   0  0  0  0  0  0  0  0  0  0  0  0
  -25.9772  -17.0932   21.1224 O   0  0  0  0  0  0  0  0  0  0  0  0
  -27.5152  -18.2251   17.8746 O   0  0  0  0  0  0  0  0  0  0  0  0
  -25.8581  -22.6474   18.3417 O   0  0  0  0  0  0  0  0  0  0  0  0
  -21.7180  -33.4276   25.5009 O   0  0  0  0  0  0  0  0  0  0  0  0
  -31.2672  -29.4498   18.3594 O   0  0  0  0  0  0  0  0  0  0  0  0
  -20.4284  -20.5760   21.8884 O   0  0  0  0  0  0  0  0  0  1  0  0
  -32.4815  -25.8246   14.3860 F   0  0  0  0  0  0  0  0  0  0  0  0
  -31.2069  -26.7304   18.8537 F   0  0  0  0  0  0  0  0  0  0  0  0
  1  2  1  0  0  0  0
  1  5  2  0  0  0  0
  2  6  2  0  0  0  0
  3  8  2  0  0  0  0
  3 16  1  0  0  0  0
  4  9  1  0  0  0  0
  4 16  2  0  0  0  0
  5 18  1  0  0  0  0
  6 20  1  0  0  0  0
  7 10  2  0  0  0  0
  7 19  1  0  0  0  0
  8 23  1  0  0  0  0
  9 23  2  0  0  0  0
 10 24  1  0  0  0  0
 11 12  2  0  0  0  0
 11 25  1  0  0  0  0
 12 26  1  0  0  0  0
 13 21  1  0  0  0  0
 13 24  2  0  0  0  0
 14 26  2  0  0  0  0
 14 27  1  0  0  0  0
 15 22  2  0  0  0  0
 15 66  1  0  0  0  0
 16 28  1  0  0  0  0
 17 28  1  0  0  0  0
 17 30  2  0  0  0  0
 17 31  1  0  0  0  0
 18 20  2  0  0  0  0
 18 36  1  0  0  0  0
 19 21  2  0  0  0  0
 19 37  1  0  0  0  0
 20 45  1  0  0  0  0
 21 38  1  0  0  0  0
 22 29  1  0  0  0  0
 22 55  1  0  0  0  0
 23 81  1  0  0  0  0
 24 82  1  0  0  0  0
 25 27  2  0  0  0  0
 25 81  1  0  0  0  0
 26 83  1  0  0  0  0
 27 84  1  0  0  0  0
 28 64  2  0  0  0  0
 29 48  1  0  0  0  0
 29 65  2  0  0  0  0
 30 67  1  0  0  0  0
 30 70  1  0  0  0  0
 31 71  1  0  0  0  0
 31 76  2  0  0  0  0
 32 46  1  0  0  0  0
 32 72  1  0  0  0  0
 32 77  2  0  0  0  0
 33 61  1  0  0  0  0
 33 68  1  0  0  0  0
 33 78  2  0  0  0  0
 34 62  1  0  0  0  0
 34 73  1  0  0  0  0
 34 79  2  0  0  0  0
 35 69  1  0  0  0  0
 35 74  1  0  0  0  0
 35 80  2  0  0  0  0
 36 39  1  0  0  0  0
 37 46  1  0  0  0  0
 38 68  1  0  0  0  0
 39 41  1  0  0  0  0
 40 42  1  0  0  0  0
 40 43  1  0  0  0  0
 41 45  1  0  0  0  0
 42 47  1  0  0  0  0
 43 69  1  0  0  0  0
 44 47  1  0  0  0  0
 44 69  1  0  0  0  0
 45 72  1  0  0  0  0
 46 68  1  0  0  0  0
 47 67  1  0  0  0  0
 49 62  1  0  0  0  0
 50 63  1  0  0  0  0
 51 63  1  0  0  0  0
 52 63  1  0  0  0  0
 53 74  1  0  0  0  0
 54 75  1  0  0  0  0
 55 56  1  0  0  0  0
 56 57  1  0  0  0  0
 57 60  1  0  0  0  0
 58 59  1  0  0  0  0
 58 66  1  0  0  0  0
 59 74  1  0  0  0  0
 60 82  1  0  0  0  0
 61 63  1  0  0  0  0
 61 73  1  0  0  0  0
 62 75  1  0  0  0  0
 64 67  1  0  0  0  0
 65 66  1  0  0  0  0
M  CHG  1  75   1
M  ISO  4  35 100  60 101  74 100  82 101
M  END
> <Batch ID>
0084

> <Smiles>
CNC(C)C(=O)NC(C(=O)N1Cc2cc([101O:1][101CH2:1]CCCc3cn(CC[100N:0](C)[100C:0](=O)N4CCCC(n5nc(-c6ccc(Oc7ccc(F)cc7F)cc6)c(C(N)=O)c5N)C4)nc3C)ccc2CC1C(=O)NC1CCCc2ccccc21)C(C)(C)C

> <Shape>
0.206

> <Color>
0.062

> <Negative vol penalty>
0.000

$$$$

  -OEChem-04052318543D

 87 95  0     1  0  0  0  0  0999 V2000
  -17.9118  -25.4945   19.9811 C   0  0  0  0  0  0  0  0  0  0  0  0
  -19.1796  -24.9613   20.1901 C   0  0  0  0  0  0  0  0  0  0  0  0
  -23.2547   -9.8435   21.3643 C   0  0  0  0  0  0  0  0  0  0  0  0
  -23.9371  -10.6888   23.5223 C   0  0  0  0  0  0  0  0  0  0  0  0
  -17.5017  -26.6168   20.6996 C   0  0  0  0  0  0  0  0  0  0  0  0
  -20.0386  -25.5508   21.1169 C   0  0  0  0  0  0  0  0  0  0  0  0
  -22.3431  -22.1439   24.0711 C   0  0  0  0  0  0  0  0  0  0  0  0
  -22.5594   -8.8085   21.9895 C   0  0  0  0  0  0  0  0  0  0  0  0
  -23.2417   -9.6538   24.1476 C   0  0  0  0  0  0  0  0  0  0  0  0
  -23.4217  -21.4515   23.5226 C   0  0  0  0  0  0  0  0  0  0  0  0
  -23.2810   -5.8352   23.4259 C   0  0  0  0  0  0  0  0  0  0  0  0
  -23.4284   -4.5495   22.9055 C   0  0  0  0  0  0  0  0  0  0  0  0
  -24.9454  -22.9289   24.6695 C   0  0  0  0  0  0  0  0  0  0  0  0
  -30.0453  -16.9348   22.1084 C   0  0  0  0  0  0  0  0  0  0  0  0
  -21.0516   -4.4475   22.4842 C   0  0  0  0  0  0  0  0  0  0  0  0
  -23.9436  -10.7837   22.1307 C   0  0  0  0  0  0  0  0  0  0  0  0
  -24.1671  -13.1254   21.1438 C   0  0  0  0  0  0  0  0  0  0  0  0
  -18.3525  -27.2146   21.6427 C   0  0  0  0  0  0  0  0  0  0  0  0
  -22.5577  -23.2426   24.9156 C   0  0  0  0  0  0  0  0  0  0  0  0
  -19.6400  -26.6830   21.8477 C   0  0  0  0  0  0  0  0  0  0  0  0
  -23.8677  -23.6319   25.2294 C   0  0  0  0  0  0  0  0  0  0  0  0
  -28.7514  -17.2718   22.5767 C   0  0  0  0  0  0  0  0  0  0  0  0
  -22.5529   -8.7137   23.3811 C   0  0  0  0  0  0  0  0  0  0  0  0
  -24.7231  -21.8457   23.8195 C   0  0  0  0  0  0  0  0  0  0  0  0
  -22.0189   -6.4271   23.4754 C   0  0  0  0  0  0  0  0  0  0  0  0
  -22.3138   -3.8557   22.4347 C   0  0  0  0  0  0  0  0  0  0  0  0
  -20.9042   -5.7333   23.0046 C   0  0  0  0  0  0  0  0  0  0  0  0
  -24.6625  -11.8527   21.4854 C   0  0  0  0  0  0  0  0  0  0  0  0
  -30.6504  -16.1734   23.0838 C   0  0  0  0  0  0  0  0  0  0  0  0
  -28.6052  -16.7062   23.8242 C   0  0  0  0  0  0  0  0  0  0  0  0
  -25.2333  -13.7629   20.5579 C   0  0  0  0  0  0  0  0  0  0  0  0
  -22.8601  -13.6816   21.3387 C   0  0  0  0  0  0  0  0  0  0  0  0
  -21.8347  -26.3358   24.7999 C   0  0  0  0  0  0  0  0  0  0  0  0
  -23.0439  -26.3320   27.8099 C   0  0  0  0  0  0  0  0  0  0  0  0
  -25.0896  -24.8562   30.1085 C   0  0  0  0  0  0  0  0  0  0  0  0
  -31.1615  -13.0652   21.0280 C   0  0  0  0  0  0  0  0  0  0  0  0
  -17.8826  -28.4547   22.3610 C   0  0  0  0  0  0  0  0  0  0  0  0
  -21.3836  -23.9623   25.5205 C   0  0  0  0  0  0  0  0  0  0  0  0
  -24.1520  -24.7922   26.1467 C   0  0  0  0  0  0  0  0  0  0  0  0
  -18.7134  -28.7952   23.5956 C   0  0  0  0  0  0  0  0  0  0  0  0
  -29.2125  -12.8745   18.0544 C   0  0  0  0  0  0  0  0  0  0  0  0
  -20.2027  -28.7032   23.2788 C   0  0  0  0  0  0  0  0  0  0  0  0
  -27.7807  -12.7058   18.5657 C   0  0  0  0  0  0  0  0  0  0  0  0
  -30.2171  -12.1349   18.9353 C   0  0  0  0  0  0  0  0  0  0  0  0
  -28.7141  -12.2999   20.8815 C   0  0  0  0  0  0  0  0  0  0  0  0
  -20.5913  -27.2794   22.8623 C   0  0  1  0  0  0  0  0  0  0  0  0
  -21.7159  -25.3856   25.9578 C   0  0  1  0  0  0  0  0  0  0  0  0
  -27.6710  -13.0741   20.0576 C   0  0  2  0  0  0  0  0  0  0  0  0
  -27.4596  -16.7421   24.7581 C   0  0  0  0  0  0  0  0  0  0  0  0
  -25.8998  -25.1032   32.4707 C   0  0  0  0  0  0  0  0  0  0  0  0
  -27.4736  -21.8971   21.0185 C   0  0  0  0  0  0  0  0  0  0  0  0
  -32.9416  -16.0308   24.2782 C   0  0  0  0  0  0  0  0  0  0  0  0
  -32.7934  -15.9120   21.8044 C   0  0  0  0  0  0  0  0  0  0  0  0
  -24.8886  -28.6004   26.9374 C   0  0  0  0  0  0  0  0  0  0  0  0
  -26.2793  -28.1587   28.9719 C   0  0  0  0  0  0  0  0  0  0  0  0
  -23.9030  -28.8764   29.2193 C   0  0  0  0  0  0  0  0  0  0  0  0
  -30.0195  -15.3106   25.3463 C   0  0  0  0  0  0  0  0  0  0  0  0
  -23.9545  -22.2384   30.8944 C   0  0  0  0  0  0  0  0  0  0  0  0
  -27.7279  -18.0978   21.8385 C   0  0  0  0  0  0  0  0  0  0  0  0
  -27.9696  -19.6114   21.9221 C   0  0  0  0  0  0  0  0  0  0  0  0
  -31.9578  -13.9890   23.1893 C   0  0  0  0  0  0  0  0  0  0  0  0
  -25.5816  -20.5663   22.0079 C   0  0  0  0  0  0  0  0  0  1  0  0
  -24.4131  -26.5353   28.4123 C   0  0  1  0  0  0  0  0  0  0  0  0
  -24.8614  -24.4689   31.5585 C   0  0  2  0  0  0  0  0  0  0  0  0
  -26.9028  -20.4892   21.2309 C   0  0  1  0  0  0  0  0  0  0  0  0
  -31.9956  -15.5631   23.1094 C   0  0  0  0  0  0  0  0  0  0  0  0
  -24.8660  -28.0220   28.3664 C   0  0  0  0  0  0  0  0  0  0  0  0
  -25.9436  -11.6896   21.1447 N   0  0  0  0  0  0  0  0  0  0  0  0
  -29.7659  -16.0412   24.1222 N   0  0  0  0  0  0  0  0  0  0  0  0
  -26.2623  -12.8681   20.5829 N   0  0  0  0  0  0  0  0  0  0  0  0
  -22.9707  -25.4679   26.7082 N   0  0  0  0  0  0  0  0  0  0  0  0
  -30.0615  -12.5304   20.3372 N   0  0  0  0  0  0  0  0  0  0  0  0
  -25.3816  -14.9960   20.0288 N   0  0  0  0  0  0  0  0  0  0  0  0
  -21.8825  -12.8901   21.9570 N   0  0  0  0  0  0  0  0  0  0  0  0
  -20.6943  -26.4233   24.0246 N   0  0  0  0  0  0  0  0  0  0  0  0
  -24.3562  -25.9692   29.7557 N   0  0  0  0  0  0  0  0  0  0  0  0
  -30.9265  -13.4199   22.3507 N   0  0  0  0  0  0  0  0  0  0  0  0
  -24.9373  -22.9891   31.7175 N   0  3  0  0  0  0  0  0  0  0  0  0
  -22.5630  -14.8402   20.9606 O   0  0  0  0  0  0  0  0  0  0  0  0
  -22.8830  -26.9455   24.6238 O   0  0  0  0  0  0  0  0  0  0  0  0
  -22.0738  -26.9127   28.3034 O   0  0  0  0  0  0  0  0  0  0  0  0
  -25.8459  -24.2357   29.3645 O   0  0  0  0  0  0  0  0  0  0  0  0
  -32.2693  -13.2204   20.5031 O   0  0  0  0  0  0  0  0  0  0  0  0
  -21.8743   -7.7040   23.9916 O   0  0  0  0  0  0  0  0  0  0  0  0
  -25.7778  -21.1721   23.2849 O   0  0  0  0  0  0  0  0  0  1  0  0
  -22.4557   -2.6216   21.9336 F   0  0  0  0  0  0  0  0  0  0  0  0
  -19.6894   -6.2972   23.0485 F   0  0  0  0  0  0  0  0  0  0  0  0
  1  2  1  0  0  0  0
  1  5  2  0  0  0  0
  2  6  2  0  0  0  0
  3  8  2  0  0  0  0
  3 16  1  0  0  0  0
  4  9  1  0  0  0  0
  4 16  2  0  0  0  0
  5 18  1  0  0  0  0
  6 20  1  0  0  0  0
  7 10  2  0  0  0  0
  7 19  1  0  0  0  0
  8 23  1  0  0  0  0
  9 23  2  0  0  0  0
 10 24  1  0  0  0  0
 11 12  2  0  0  0  0
 11 25  1  0  0  0  0
 12 26  1  0  0  0  0
 13 21  1  0  0  0  0
 13 24  2  0  0  0  0
 14 22  1  0  0  0  0
 14 29  2  0  0  0  0
 15 26  2  0  0  0  0
 15 27  1  0  0  0  0
 16 28  1  0  0  0  0
 17 28  1  0  0  0  0
 17 31  2  0  0  0  0
 17 32  1  0  0  0  0
 18 20  2  0  0  0  0
 18 37  1  0  0  0  0
 19 21  2  0  0  0  0
 19 38  1  0  0  0  0
 20 46  1  0  0  0  0
 21 39  1  0  0  0  0
 22 30  2  0  0  0  0
 22 59  1  0  0  0  0
 23 84  1  0  0  0  0
 24 85  1  0  0  0  0
 25 27  2  0  0  0  0
 25 84  1  0  0  0  0
 26 86  1  0  0  0  0
 27 87  1  0  0  0  0
 28 68  2  0  0  0  0
 29 66  1  0  0  0  0
 29 69  1  0  0  0  0
 30 49  1  0  0  0  0
 30 69  1  0  0  0  0
 31 70  1  0  0  0  0
 31 73  1  0  0  0  0
 32 74  1  0  0  0  0
 32 79  2  0  0  0  0
 33 47  1  0  0  0  0
 33 75  1  0  0  0  0
 33 80  2  0  0  0  0
 34 63  1  0  0  0  0
 34 71  1  0  0  0  0
 34 81  2  0  0  0  0
 35 64  1  0  0  0  0
 35 76  1  0  0  0  0
 35 82  2  0  0  0  0
 36 72  1  0  0  0  0
 36 77  1  0  0  0  0
 36 83  2  0  0  0  0
 37 40  1  0  0  0  0
 38 47  1  0  0  0  0
 39 71  1  0  0  0  0
 40 42  1  0  0  0  0
 41 43  1  0  0  0  0
 41 44  1  0  0  0  0
 42 46  1  0  0  0  0
 43 48  1  0  0  0  0
 44 72  1  0  0  0  0
 45 48  1  0  0  0  0
 45 72  1  0  0  0  0
 46 75  1  0  0  0  0
 47 71  1  0  0  0  0
 48 70  1  0  0  0  0
 50 64  1  0  0  0  0
 51 65  1  0  0  0  0
 52 66  1  0  0  0  0
 53 66  1  0  0  0  0
 54 67  1  0  0  0  0
 55 67  1  0  0  0  0
 56 67  1  0  0  0  0
 57 69  1  0  0  0  0
 58 78  1  0  0  0  0
 59 60  1  0  0  0  0
 60 65  1  0  0  0  0
 61 66  1  0  0  0  0
 61 77  1  0  0  0  0
 62 65  1  0  0  0  0
 62 85  1  0  0  0  0
 63 67  1  0  0  0  0
 63 76  1  0  0  0  0
 64 78  1  0  0  0  0
 68 70  1  0  0  0  0
M  CHG  1  78   1
M  ISO  4  36 100  62 101  77 100  85 101
M  END
> <Batch ID>
0084

> <Smiles>
CNC(C)C(=O)NC(C(=O)N1Cc2cc([101O:1][101CH2:1]C(C)CCc3cc(C(C)(C)C[100NH:0][100C:0](=O)N4CCCC(n5nc(-c6ccc(Oc7ccc(F)cc7F)cc6)c(C(N)=O)c5N)C4)n(C)c3C)ccc2CC1C(=O)NC1CCCc2ccccc21)C(C)(C)C

> <Shape>
0.223

> <Color>
0.157

> <Negative vol penalty>
0.000

$$$$

  -OEChem-04052318543D

 84 92  0     1  0  0  0  0  0999 V2000
  -20.9702  -27.3556   23.8163 C   0  0  0  0  0  0  0  0  0  0  0  0
  -21.8997  -26.3379   24.0054 C   0  0  0  0  0  0  0  0  0  0  0  0
  -27.1534  -25.7409   19.1687 C   0  0  0  0  0  0  0  0  0  0  0  0
  -28.1143  -25.0532   21.2760 C   0  0  0  0  0  0  0  0  0  0  0  0
  -19.8453  -27.1323   23.0235 C   0  0  0  0  0  0  0  0  0  0  0  0
  -21.7042  -25.0958   23.4026 C   0  0  0  0  0  0  0  0  0  0  0  0
  -25.3622  -19.6368   20.5504 C   0  0  0  0  0  0  0  0  0  0  0  0
  -26.2558  -26.5654   19.8471 C   0  0  0  0  0  0  0  0  0  0  0  0
  -27.2168  -25.8777   21.9544 C   0  0  0  0  0  0  0  0  0  0  0  0
  -25.4748  -18.2503   20.6434 C   0  0  0  0  0  0  0  0  0  0  0  0
  -23.9499  -29.1262   21.0049 C   0  0  0  0  0  0  0  0  0  0  0  0
  -23.7553  -30.4166   20.5124 C   0  0  0  0  0  0  0  0  0  0  0  0
  -23.5352  -18.0040   19.2306 C   0  0  0  0  0  0  0  0  0  0  0  0
  -26.1009  -30.8949   20.8382 C   0  0  0  0  0  0  0  0  0  0  0  0
  -28.0826  -24.9848   19.8832 C   0  0  0  0  0  0  0  0  0  0  0  0
  -30.2907  -24.4763   18.7113 C   0  0  0  0  0  0  0  0  0  0  0  0
  -19.6408  -25.8899   22.4028 C   0  0  0  0  0  0  0  0  0  0  0  0
  -24.3270  -20.2184   19.8044 C   0  0  0  0  0  0  0  0  0  0  0  0
  -20.5748  -24.8552   22.6018 C   0  0  0  0  0  0  0  0  0  0  0  0
  -23.4131  -19.3981   19.1276 C   0  0  0  0  0  0  0  0  0  0  0  0
  -24.7651  -13.3500   21.5309 C   0  0  0  0  0  0  0  0  0  0  0  0
  -25.7068  -14.0650   20.8120 C   0  0  0  0  0  0  0  0  0  0  0  0
  -26.2875  -26.6338   21.2399 C   0  0  0  0  0  0  0  0  0  0  0  0
  -24.5595  -17.4337   19.9859 C   0  0  0  0  0  0  0  0  0  0  0  0
  -25.2201  -28.7201   21.4141 C   0  0  0  0  0  0  0  0  0  0  0  0
  -24.8307  -31.3009   20.4290 C   0  0  0  0  0  0  0  0  0  0  0  0
  -26.2956  -29.6045   21.3308 C   0  0  0  0  0  0  0  0  0  0  0  0
  -29.0097  -24.1325   19.1830 C   0  0  0  0  0  0  0  0  0  0  0  0
  -24.7923  -11.9728   21.4404 C   0  0  0  0  0  0  0  0  0  0  0  0
  -26.6136  -13.3555   20.0505 C   0  0  0  0  0  0  0  0  0  0  0  0
  -30.7599  -23.3271   18.1233 C   0  0  0  0  0  0  0  0  0  0  0  0
  -30.9937  -25.7229   18.7971 C   0  0  0  0  0  0  0  0  0  0  0  0
  -21.8749  -22.1257   20.4775 C   0  0  0  0  0  0  0  0  0  0  0  0
  -21.4947  -22.1268   17.2561 C   0  0  0  0  0  0  0  0  0  0  0  0
  -22.0238  -20.5505   14.2758 C   0  0  0  0  0  0  0  0  0  0  0  0
  -29.5068  -17.6345   19.0609 C   0  0  0  0  0  0  0  0  0  0  0  0
  -18.3856  -25.6807   21.5933 C   0  0  0  0  0  0  0  0  0  0  0  0
  -24.2351  -21.7155   19.6921 C   0  0  0  0  0  0  0  0  0  0  0  0
  -22.2956  -19.9727   18.2972 C   0  0  0  0  0  0  0  0  0  0  0  0
  -18.4436  -24.4548   20.6854 C   0  0  0  0  0  0  0  0  0  0  0  0
  -29.2429  -19.3712   15.8968 C   0  0  0  0  0  0  0  0  0  0  0  0
  -18.9811  -23.2492   21.4500 C   0  0  0  0  0  0  0  0  0  0  0  0
  -29.2762  -20.8325   16.3482 C   0  0  0  0  0  0  0  0  0  0  0  0
  -28.4636  -18.5057   16.8825 C   0  0  0  0  0  0  0  0  0  0  0  0
  -28.9889  -20.0369   18.7408 C   0  0  0  0  0  0  0  0  0  0  0  0
  -20.4104  -23.5021   21.9445 C   0  0  1  0  0  0  0  0  0  0  0  0
  -22.8366  -22.2025   19.3256 C   0  0  1  0  0  0  0  0  0  0  0  0
  -29.7817  -20.9598   17.7975 C   0  0  2  0  0  0  0  0  0  0  0  0
  -23.8089  -11.1344   22.1857 C   0  0  0  0  0  0  0  0  0  0  0  0
  -22.3765  -14.0894   21.7169 C   0  0  0  0  0  0  0  0  0  0  0  0
  -21.5633  -20.7756   11.8192 C   0  0  0  0  0  0  0  0  0  0  0  0
  -18.6020  -21.2756   17.7227 C   0  0  0  0  0  0  0  0  0  0  0  0
  -18.4833  -20.6065   15.3131 C   0  0  0  0  0  0  0  0  0  0  0  0
  -18.9088  -22.9871   15.9252 C   0  0  0  0  0  0  0  0  0  0  0  0
  -24.9096  -20.6279   13.6239 C   0  0  0  0  0  0  0  0  0  0  0  0
  -23.7523  -14.0464   22.3764 C   0  0  0  0  0  0  0  0  0  0  0  0
  -25.7412  -15.5642   20.8603 C   0  0  0  0  0  0  0  0  0  1  0  0
  -27.6591  -14.0563   19.2499 C   0  0  0  0  0  0  0  0  0  0  0  0
  -28.8766  -14.5311   20.0673 C   0  0  0  0  0  0  0  0  0  0  0  0
  -29.9681  -15.2027   19.2366 C   0  0  0  0  0  0  0  0  0  0  0  0
  -20.7356  -21.2734   16.2689 C   0  0  1  0  0  0  0  0  0  0  0  0
  -22.5453  -21.0612   12.9448 C   0  0  2  0  0  0  0  0  0  0  0  0
  -19.2022  -21.5245   16.3246 C   0  0  0  0  0  0  0  0  0  0  0  0
  -28.6856  -22.8642   18.9175 N   0  0  0  0  0  0  0  0  0  0  0  0
  -25.6912  -11.3047   20.6870 N   0  0  0  0  0  0  0  0  0  0  0  0
  -26.6170  -12.0075   19.9808 N   0  0  0  0  0  0  0  0  0  0  0  0
  -29.7698  -22.4010   18.2724 N   0  0  0  0  0  0  0  0  0  0  0  0
  -22.2441  -21.4422   18.2233 N   0  0  0  0  0  0  0  0  0  0  0  0
  -29.0066  -18.6586   18.2397 N   0  0  0  0  0  0  0  0  0  0  0  0
  -31.9186  -23.0286   17.4983 N   0  0  0  0  0  0  0  0  0  0  0  0
  -30.3658  -26.8016   19.4346 N   0  0  0  0  0  0  0  0  0  0  0  0
  -21.3554  -23.3479   20.8592 N   0  0  0  0  0  0  0  0  0  0  0  0
  -21.3356  -21.5275   14.9636 N   0  0  0  0  0  0  0  0  0  0  0  0
  -29.4817  -16.3572   18.5144 N   0  0  0  0  0  0  0  0  0  0  0  0
  -23.8436  -20.4093   12.6126 N   0  3  0  0  0  0  0  0  0  0  0  0
  -32.1381  -25.8804   18.3079 O   0  0  0  0  0  0  0  0  0  0  0  0
  -21.6217  -21.0379   20.9818 O   0  0  0  0  0  0  0  0  0  0  0  0
  -21.4309  -23.3555   17.1677 O   0  0  0  0  0  0  0  0  0  0  0  0
  -22.2052  -19.3988   14.6646 O   0  0  0  0  0  0  0  0  0  0  0  0
  -29.9484  -17.8436   20.1960 O   0  0  0  0  0  0  0  0  0  0  0  0
  -25.4119  -27.4384   21.9021 O   0  0  0  0  0  0  0  0  0  0  0  0
  -24.6668  -16.0800   20.0756 O   0  0  0  0  0  0  0  0  0  1  0  0
  -24.6439  -32.5395   19.9546 F   0  0  0  0  0  0  0  0  0  0  0  0
  -27.5184  -29.2197   21.7214 F   0  0  0  0  0  0  0  0  0  0  0  0
  1  2  1  0  0  0  0
  1  5  2  0  0  0  0
  2  6  2  0  0  0  0
  3  8  2  0  0  0  0
  3 15  1  0  0  0  0
  4  9  1  0  0  0  0
  4 15  2  0  0  0  0
  5 17  1  0  0  0  0
  6 19  1  0  0  0  0
  7 10  2  0  0  0  0
  7 18  1  0  0  0  0
  8 23  1  0  0  0  0
  9 23  2  0  0  0  0
 10 24  1  0  0  0  0
 11 12  2  0  0  0  0
 11 25  1  0  0  0  0
 12 26  1  0  0  0  0
 13 20  1  0  0  0  0
 13 24  2  0  0  0  0
 14 26  2  0  0  0  0
 14 27  1  0  0  0  0
 15 28  1  0  0  0  0
 16 28  1  0  0  0  0
 16 31  2  0  0  0  0
 16 32  1  0  0  0  0
 17 19  2  0  0  0  0
 17 37  1  0  0  0  0
 18 20  2  0  0  0  0
 18 38  1  0  0  0  0
 19 46  1  0  0  0  0
 20 39  1  0  0  0  0
 21 22  2  0  0  0  0
 21 29  1  0  0  0  0
 21 56  1  0  0  0  0
 22 30  1  0  0  0  0
 22 57  1  0  0  0  0
 23 81  1  0  0  0  0
 24 82  1  0  0  0  0
 25 27  2  0  0  0  0
 25 81  1  0  0  0  0
 26 83  1  0  0  0  0
 27 84  1  0  0  0  0
 28 64  2  0  0  0  0
 29 49  1  0  0  0  0
 29 65  2  0  0  0  0
 30 58  1  0  0  0  0
 30 66  2  0  0  0  0
 31 67  1  0  0  0  0
 31 70  1  0  0  0  0
 32 71  1  0  0  0  0
 32 76  2  0  0  0  0
 33 47  1  0  0  0  0
 33 72  1  0  0  0  0
 33 77  2  0  0  0  0
 34 61  1  0  0  0  0
 34 68  1  0  0  0  0
 34 78  2  0  0  0  0
 35 62  1  0  0  0  0
 35 73  1  0  0  0  0
 35 79  2  0  0  0  0
 36 69  1  0  0  0  0
 36 74  1  0  0  0  0
 36 80  2  0  0  0  0
 37 40  1  0  0  0  0
 38 47  1  0  0  0  0
 39 68  1  0  0  0  0
 40 42  1  0  0  0  0
 41 43  1  0  0  0  0
 41 44  1  0  0  0  0
 42 46  1  0  0  0  0
 43 48  1  0  0  0  0
 44 69  1  0  0  0  0
 45 48  1  0  0  0  0
 45 69  1  0  0  0  0
 46 72  1  0  0  0  0
 47 68  1  0  0  0  0
 48 67  1  0  0  0  0
 50 56  1  0  0  0  0
 51 62  1  0  0  0  0
 52 63  1  0  0  0  0
 53 63  1  0  0  0  0
 54 63  1  0  0  0  0
 55 75  1  0  0  0  0
 57 82  1  0  0  0  0
 58 59  1  0  0  0  0
 59 60  1  0  0  0  0
 60 74  1  0  0  0  0
 61 63  1  0  0  0  0
 61 73  1  0  0  0  0
 62 75  1  0  0  0  0
 64 67  1  0  0  0  0
 65 66  1  0  0  0  0
M  CHG  1  75   1
M  ISO  4  36 100  57 101  74 100  82 101
M  END
> <Batch ID>
0084

> <Smiles>
CCc1c(C)nnc(CCC[100NH:0][100C:0](=O)N2CCCC(n3nc(-c4ccc(Oc5ccc(F)cc5F)cc4)c(C(N)=O)c3N)C2)c1[101CH2:1][101O:1]c1ccc2c(c1)CN(C(=O)C(NC(=O)C(C)NC)C(C)(C)C)C(C(=O)NC1CCCc3ccccc31)C2

> <Shape>
0.214

> <Color>
0.093

> <Negative vol penalty>
0.000

$$$$

  -OEChem-04052318543D

 87 95  0     1  0  0  0  0  0999 V2000
  -15.9025  -27.5191   24.4255 C   0  0  0  0  0  0  0  0  0  0  0  0
  -16.1805  -26.2731   23.8726 C   0  0  0  0  0  0  0  0  0  0  0  0
  -23.0069   -9.8921   19.9636 C   0  0  0  0  0  0  0  0  0  0  0  0
  -23.7947   -9.8603   22.2473 C   0  0  0  0  0  0  0  0  0  0  0  0
  -16.7580  -28.5935   24.1857 C   0  0  0  0  0  0  0  0  0  0  0  0
  -17.3138  -26.1012   23.0785 C   0  0  0  0  0  0  0  0  0  0  0  0
  -22.2561  -21.1982   21.3901 C   0  0  0  0  0  0  0  0  0  0  0  0
  -22.2451   -8.7500   20.2104 C   0  0  0  0  0  0  0  0  0  0  0  0
  -23.0329   -8.7182   22.4942 C   0  0  0  0  0  0  0  0  0  0  0  0
  -22.8342  -20.5909   20.2763 C   0  0  0  0  0  0  0  0  0  0  0  0
  -23.2561   -5.3977   21.8979 C   0  0  0  0  0  0  0  0  0  0  0  0
  -23.8615   -4.3537   22.5972 C   0  0  0  0  0  0  0  0  0  0  0  0
  -24.2830  -22.4991   19.9953 C   0  0  0  0  0  0  0  0  0  0  0  0
  -28.4981  -18.2132   19.6630 C   0  0  0  0  0  0  0  0  0  0  0  0
  -26.5327  -19.0102   20.7973 C   0  0  0  0  0  0  0  0  0  0  0  0
  -22.1845   -4.5396   24.3265 C   0  0  0  0  0  0  0  0  0  0  0  0
  -23.7817  -10.4472   20.9820 C   0  0  0  0  0  0  0  0  0  0  0  0
  -24.1683  -12.9669   20.8846 C   0  0  0  0  0  0  0  0  0  0  0  0
  -17.9075  -28.4323   23.3962 C   0  0  0  0  0  0  0  0  0  0  0  0
  -22.6803  -22.4675   21.8091 C   0  0  0  0  0  0  0  0  0  0  0  0
  -18.1848  -27.1748   22.8268 C   0  0  0  0  0  0  0  0  0  0  0  0
  -23.7105  -23.1193   21.1163 C   0  0  0  0  0  0  0  0  0  0  0  0
  -27.1555  -18.5736   19.6333 C   0  0  0  0  0  0  0  0  0  0  0  0
  -22.2581   -8.1631   21.4757 C   0  0  0  0  0  0  0  0  0  0  0  0
  -23.8458  -21.2426   19.5769 C   0  0  0  0  0  0  0  0  0  0  0  0
  -22.1150   -6.0128   22.4129 C   0  0  0  0  0  0  0  0  0  0  0  0
  -23.3256   -3.9246   23.8115 C   0  0  0  0  0  0  0  0  0  0  0  0
  -21.5792   -5.5838   23.6272 C   0  0  0  0  0  0  0  0  0  0  0  0
  -24.5693  -11.6266   20.7274 C   0  0  0  0  0  0  0  0  0  0  0  0
  -29.1681  -18.3066   20.8722 C   0  0  0  0  0  0  0  0  0  0  0  0
  -27.2907  -19.0678   21.9558 C   0  0  0  0  0  0  0  0  0  0  0  0
  -25.2694  -13.7003   20.5158 C   0  0  0  0  0  0  0  0  0  0  0  0
  -22.9127  -13.5011   21.3247 C   0  0  0  0  0  0  0  0  0  0  0  0
  -21.2930  -25.3121   22.1039 C   0  0  0  0  0  0  0  0  0  0  0  0
  -24.1332  -26.1246   23.4439 C   0  0  0  0  0  0  0  0  0  0  0  0
  -27.4751  -25.5046   23.7498 C   0  0  0  0  0  0  0  0  0  0  0  0
  -30.7728  -14.6174   20.6469 C   0  0  0  0  0  0  0  0  0  0  0  0
  -18.7772  -29.6346   23.1261 C   0  0  0  0  0  0  0  0  0  0  0  0
  -22.0650  -23.0974   23.0286 C   0  0  0  0  0  0  0  0  0  0  0  0
  -24.2159  -24.4741   21.5374 C   0  0  0  0  0  0  0  0  0  0  0  0
  -20.1578  -29.2776   22.5813 C   0  0  0  0  0  0  0  0  0  0  0  0
  -29.5627  -12.2800   18.2492 C   0  0  0  0  0  0  0  0  0  0  0  0
  -20.0404  -28.2454   21.4644 C   0  0  0  0  0  0  0  0  0  0  0  0
  -28.1255  -12.0078   18.6968 C   0  0  0  0  0  0  0  0  0  0  0  0
  -30.4983  -12.4711   19.4409 C   0  0  0  0  0  0  0  0  0  0  0  0
  -28.6273  -13.2215   20.8587 C   0  0  0  0  0  0  0  0  0  0  0  0
  -19.4176  -26.9426   21.9803 C   0  0  1  0  0  0  0  0  0  0  0  0
  -22.2194  -24.6149   23.0595 C   0  0  1  0  0  0  0  0  0  0  0  0
  -27.6358  -13.0774   19.6914 C   0  0  2  0  0  0  0  0  0  0  0  0
  -31.5008  -19.1294   21.3254 C   0  0  0  0  0  0  0  0  0  0  0  0
  -29.8144  -25.7313   24.6293 C   0  0  0  0  0  0  0  0  0  0  0  0
  -25.4595  -18.6102   23.6240 C   0  0  0  0  0  0  0  0  0  0  0  0
  -26.1034  -20.9827   23.0828 C   0  0  0  0  0  0  0  0  0  0  0  0
  -27.5942  -19.5602   24.4739 C   0  0  0  0  0  0  0  0  0  0  0  0
  -24.2709  -28.4314   21.4515 C   0  0  0  0  0  0  0  0  0  0  0  0
  -26.7087  -28.6492   21.9785 C   0  0  0  0  0  0  0  0  0  0  0  0
  -25.0103  -29.0095   23.7696 C   0  0  0  0  0  0  0  0  0  0  0  0
  -26.9734  -23.5528   25.9172 C   0  0  0  0  0  0  0  0  0  0  0  0
  -26.3783  -18.4922   18.3438 C   0  0  0  0  0  0  0  0  0  0  0  0
  -26.4226  -19.7783   17.5157 C   0  0  0  0  0  0  0  0  0  0  0  0
  -30.8932  -16.7528   21.9057 C   0  0  0  0  0  0  0  0  0  0  0  0
  -25.7754  -20.9686   18.2140 C   0  0  0  0  0  0  0  0  0  1  0  0
  -30.6103  -17.9297   20.9412 C   0  0  1  0  0  0  0  0  0  0  0  0
  -25.4437  -26.6660   22.9259 C   0  0  1  0  0  0  0  0  0  0  0  0
  -28.3714  -25.3932   24.9700 C   0  0  2  0  0  0  0  0  0  0  0  0
  -26.6541  -19.5300   23.2238 C   0  0  0  0  0  0  0  0  0  0  0  0
  -25.3478  -28.1644   22.5220 C   0  0  0  0  0  0  0  0  0  0  0  0
  -25.8270  -11.5124   20.2924 N   0  0  0  0  0  0  0  0  0  0  0  0
  -28.5970  -18.7261   22.0234 N   0  0  0  0  0  0  0  0  0  0  0  0
  -26.2257  -12.7902   20.1731 N   0  0  0  0  0  0  0  0  0  0  0  0
  -23.5782  -25.0516   22.7322 N   0  0  0  0  0  0  0  0  0  0  0  0
  -29.9775  -13.4997   20.3445 N   0  0  0  0  0  0  0  0  0  0  0  0
  -25.5033  -15.0284   20.4544 N   0  0  0  0  0  0  0  0  0  0  0  0
  -21.8885  -12.6069   21.6648 N   0  0  0  0  0  0  0  0  0  0  0  0
  -20.3972  -26.1697   22.7135 N   0  0  0  0  0  0  0  0  0  0  0  0
  -26.4368  -26.3876   23.9577 N   0  0  0  0  0  0  0  0  0  0  0  0
  -30.2011  -15.5477   21.5062 N   0  0  0  0  0  0  0  0  0  0  0  0
  -28.3301  -24.0080   25.5183 N   0  3  0  0  0  0  0  0  0  0  0  0
  -22.6997  -14.7351   21.3981 O   0  0  0  0  0  0  0  0  0  0  0  0
  -21.3851  -25.0897   20.9024 O   0  0  0  0  0  0  0  0  0  0  0  0
  -23.6243  -26.6303   24.4473 O   0  0  0  0  0  0  0  0  0  0  0  0
  -27.6782  -24.8743   22.7144 O   0  0  0  0  0  0  0  0  0  0  0  0
  -31.9062  -14.7771   20.1811 O   0  0  0  0  0  0  0  0  0  0  0  0
  -21.5147   -7.0488   21.7171 O   0  0  0  0  0  0  0  0  0  0  0  0
  -24.4114  -20.6523   18.4890 O   0  0  0  0  0  0  0  0  0  1  0  0
  -23.9062   -2.9209   24.4821 F   0  0  0  0  0  0  0  0  0  0  0  0
  -20.4824   -6.1700   24.1264 F   0  0  0  0  0  0  0  0  0  0  0  0
  1  2  1  0  0  0  0
  1  5  2  0  0  0  0
  2  6  2  0  0  0  0
  3  8  2  0  0  0  0
  3 17  1  0  0  0  0
  4  9  1  0  0  0  0
  4 17  2  0  0  0  0
  5 19  1  0  0  0  0
  6 21  1  0  0  0  0
  7 10  2  0  0  0  0
  7 20  1  0  0  0  0
  8 24  1  0  0  0  0
  9 24  2  0  0  0  0
 10 25  1  0  0  0  0
 11 12  2  0  0  0  0
 11 26  1  0  0  0  0
 12 27  1  0  0  0  0
 13 22  1  0  0  0  0
 13 25  2  0  0  0  0
 14 23  1  0  0  0  0
 14 30  2  0  0  0  0
 15 23  2  0  0  0  0
 15 31  1  0  0  0  0
 16 27  2  0  0  0  0
 16 28  1  0  0  0  0
 17 29  1  0  0  0  0
 18 29  1  0  0  0  0
 18 32  2  0  0  0  0
 18 33  1  0  0  0  0
 19 21  2  0  0  0  0
 19 38  1  0  0  0  0
 20 22  2  0  0  0  0
 20 39  1  0  0  0  0
 21 47  1  0  0  0  0
 22 40  1  0  0  0  0
 23 59  1  0  0  0  0
 24 84  1  0  0  0  0
 25 85  1  0  0  0  0
 26 28  2  0  0  0  0
 26 84  1  0  0  0  0
 27 86  1  0  0  0  0
 28 87  1  0  0  0  0
 29 68  2  0  0  0  0
 30 63  1  0  0  0  0
 30 69  1  0  0  0  0
 31 66  1  0  0  0  0
 31 69  2  0  0  0  0
 32 70  1  0  0  0  0
 32 73  1  0  0  0  0
 33 74  1  0  0  0  0
 33 79  2  0  0  0  0
 34 48  1  0  0  0  0
 34 75  1  0  0  0  0
 34 80  2  0  0  0  0
 35 64  1  0  0  0  0
 35 71  1  0  0  0  0
 35 81  2  0  0  0  0
 36 65  1  0  0  0  0
 36 76  1  0  0  0  0
 36 82  2  0  0  0  0
 37 72  1  0  0  0  0
 37 77  1  0  0  0  0
 37 83  2  0  0  0  0
 38 41  1  0  0  0  0
 39 48  1  0  0  0  0
 40 71  1  0  0  0  0
 41 43  1  0  0  0  0
 42 44  1  0  0  0  0
 42 45  1  0  0  0  0
 43 47  1  0  0  0  0
 44 49  1  0  0  0  0
 45 72  1  0  0  0  0
 46 49  1  0  0  0  0
 46 72  1  0  0  0  0
 47 75  1  0  0  0  0
 48 71  1  0  0  0  0
 49 70  1  0  0  0  0
 50 63  1  0  0  0  0
 51 65  1  0  0  0  0
 52 66  1  0  0  0  0
 53 66  1  0  0  0  0
 54 66  1  0  0  0  0
 55 67  1  0  0  0  0
 56 67  1  0  0  0  0
 57 67  1  0  0  0  0
 58 78  1  0  0  0  0
 59 60  1  0  0  0  0
 60 62  1  0  0  0  0
 61 63  1  0  0  0  0
 61 77  1  0  0  0  0
 62 85  1  0  0  0  0
 64 67  1  0  0  0  0
 64 76  1  0  0  0  0
 65 78  1  0  0  0  0
 68 70  1  0  0  0  0
M  CHG  1  78   1
M  ISO  4  37 100  62 101  77 100  85 101
M  END
> <Batch ID>
0084

> <Smiles>
CNC(C)C(=O)NC(C(=O)N1Cc2cc([101O:1][101CH2:1]CCc3cc(C(C)C[100NH:0][100C:0](=O)N4CCCC(n5nc(-c6ccc(Oc7ccc(F)cc7F)cc6)c(C(N)=O)c5N)C4)nc(C(C)(C)C)c3)ccc2CC1C(=O)NC1CCCc2ccccc21)C(C)(C)C

> <Shape>
0.275

> <Color>
0.208

> <Negative vol penalty>
0.000

$$$$

  -OEChem-04052318543D

 82 90  0     1  0  0  0  0  0999 V2000
  -30.7526  -24.3705   17.1220 C   0  0  0  0  0  0  0  0  0  0  0  0
  -29.6285  -24.1565   17.9132 C   0  0  0  0  0  0  0  0  0  0  0  0
  -23.0553  -12.8620   19.8487 C   0  0  0  0  0  0  0  0  0  0  0  0
  -24.5794  -12.4111   21.6684 C   0  0  0  0  0  0  0  0  0  0  0  0
  -31.6223  -25.4194   17.4176 C   0  0  0  0  0  0  0  0  0  0  0  0
  -29.3740  -24.9906   19.0013 C   0  0  0  0  0  0  0  0  0  0  0  0
  -24.5221  -26.4171   19.2628 C   0  0  0  0  0  0  0  0  0  0  0  0
  -22.7623  -11.5013   19.7570 C   0  0  0  0  0  0  0  0  0  0  0  0
  -24.2863  -11.0505   21.5767 C   0  0  0  0  0  0  0  0  0  0  0  0
  -23.6123  -25.4902   19.7698 C   0  0  0  0  0  0  0  0  0  0  0  0
  -21.8077   -8.9672   22.5447 C   0  0  0  0  0  0  0  0  0  0  0  0
  -21.5695   -8.2757   23.7324 C   0  0  0  0  0  0  0  0  0  0  0  0
  -23.6719  -26.6093   21.9060 C   0  0  0  0  0  0  0  0  0  0  0  0
  -23.4283   -6.8092   23.2514 C   0  0  0  0  0  0  0  0  0  0  0  0
  -24.9077  -21.8877   24.0351 C   0  0  0  0  0  0  0  0  0  0  0  0
  -23.9639  -13.3169   20.8044 C   0  0  0  0  0  0  0  0  0  0  0  0
  -23.6082  -15.6828   21.6896 C   0  0  0  0  0  0  0  0  0  0  0  0
  -31.3732  -26.2727   18.5041 C   0  0  0  0  0  0  0  0  0  0  0  0
  -25.0227  -27.4423   20.0781 C   0  0  0  0  0  0  0  0  0  0  0  0
  -30.2419  -26.0511   19.3125 C   0  0  0  0  0  0  0  0  0  0  0  0
  -24.5859  -27.5494   21.4062 C   0  0  0  0  0  0  0  0  0  0  0  0
  -23.3778  -10.5956   20.6210 C   0  0  0  0  0  0  0  0  0  0  0  0
  -23.1893  -25.5845   21.0924 C   0  0  0  0  0  0  0  0  0  0  0  0
  -22.8562   -8.5798   21.7103 C   0  0  0  0  0  0  0  0  0  0  0  0
  -22.3798   -7.1967   24.0858 C   0  0  0  0  0  0  0  0  0  0  0  0
  -23.6665   -7.5008   22.0637 C   0  0  0  0  0  0  0  0  0  0  0  0
  -24.2674  -14.7222   20.8993 C   0  0  0  0  0  0  0  0  0  0  0  0
  -24.2779  -22.0094   22.8141 C   0  0  0  0  0  0  0  0  0  0  0  0
  -24.2708  -16.8569   21.4267 C   0  0  0  0  0  0  0  0  0  0  0  0
  -26.6755  -22.2401   22.7859 C   0  0  0  0  0  0  0  0  0  0  0  0
  -22.4966  -15.5277   22.5816 C   0  0  0  0  0  0  0  0  0  0  0  0
  -27.9077  -28.2677   21.1265 C   0  0  0  0  0  0  0  0  0  0  0  0
  -26.3177  -30.8407   22.2987 C   0  0  0  0  0  0  0  0  0  0  0  0
  -23.3635  -32.1904   23.3465 C   0  0  0  0  0  0  0  0  0  0  0  0
  -29.0096  -19.7127   20.6966 C   0  0  0  0  0  0  0  0  0  0  0  0
  -32.3672  -27.3641   18.8127 C   0  0  0  0  0  0  0  0  0  0  0  0
  -25.9830  -28.4501   19.5083 C   0  0  0  0  0  0  0  0  0  0  0  0
  -25.0778  -28.6435   22.3169 C   0  0  0  0  0  0  0  0  0  0  0  0
  -31.8250  -28.4321   19.7592 C   0  0  0  0  0  0  0  0  0  0  0  0
  -27.6943  -17.9817   17.8770 C   0  0  0  0  0  0  0  0  0  0  0  0
  -31.1196  -27.7846   20.9466 C   0  0  0  0  0  0  0  0  0  0  0  0
  -26.6362  -17.0547   18.4778 C   0  0  0  0  0  0  0  0  0  0  0  0
  -28.9050  -18.1270   18.7964 C   0  0  0  0  0  0  0  0  0  0  0  0
  -27.5305  -17.6146   20.7768 C   0  0  0  0  0  0  0  0  0  0  0  0
  -29.9186  -26.9495   20.4865 C   0  0  1  0  0  0  0  0  0  0  0  0
  -26.8208  -29.1471   20.5759 C   0  0  1  0  0  0  0  0  0  0  0  0
  -26.2660  -17.4810   19.9112 C   0  0  2  0  0  0  0  0  0  0  0  0
  -28.7139  -23.6945   23.0176 C   0  0  0  0  0  0  0  0  0  0  0  0
  -22.3854  -34.3026   24.2841 C   0  0  0  0  0  0  0  0  0  0  0  0
  -27.5195  -30.1841   25.0253 C   0  0  0  0  0  0  0  0  0  0  0  0
  -25.8081  -31.6875   26.0640 C   0  0  0  0  0  0  0  0  0  0  0  0
  -27.4780  -32.6206   24.4630 C   0  0  0  0  0  0  0  0  0  0  0  0
  -21.5585  -32.5225   21.0247 C   0  0  0  0  0  0  0  0  0  0  0  0
  -22.8125  -21.9213   22.4699 C   0  0  0  0  0  0  0  0  0  0  0  0
  -21.9444  -22.9439   23.2062 C   0  0  0  0  0  0  0  0  0  0  0  0
  -28.9975  -21.2135   22.6732 C   0  0  0  0  0  0  0  0  0  0  0  0
  -22.3885  -24.3849   22.9833 C   0  0  0  0  0  0  0  0  0  1  0  0
  -28.0842  -22.4340   22.3776 C   0  0  1  0  0  0  0  0  0  0  0  0
  -25.6070  -31.1604   23.5916 C   0  0  1  0  0  0  0  0  0  0  0  0
  -22.6877  -33.5103   23.0217 C   0  0  2  0  0  0  0  0  0  0  0  0
  -26.5952  -31.3912   24.7696 C   0  0  0  0  0  0  0  0  0  0  0  0
  -26.2825  -22.0193   24.0208 N   0  0  0  0  0  0  0  0  0  0  0  0
  -25.2715  -15.2411   20.1875 N   0  0  0  0  0  0  0  0  0  0  0  0
  -25.2482  -16.5406   20.5296 N   0  0  0  0  0  0  0  0  0  0  0  0
  -26.0206  -29.6009   21.7152 N   0  0  0  0  0  0  0  0  0  0  0  0
  -28.4854  -18.5347   20.1395 N   0  0  0  0  0  0  0  0  0  0  0  0
  -24.1067  -18.1187   21.8777 N   0  0  0  0  0  0  0  0  0  0  0  0
  -21.9355  -14.2524   22.7346 N   0  0  0  0  0  0  0  0  0  0  0  0
  -28.7963  -27.8080   20.1734 N   0  0  0  0  0  0  0  0  0  0  0  0
  -24.7377  -32.2974   23.3093 N   0  0  0  0  0  0  0  0  0  0  0  0
  -28.5547  -20.0297   21.9708 N   0  0  0  0  0  0  0  0  0  0  0  0
  -21.4067  -33.2721   22.2983 N   0  3  0  0  0  0  0  0  0  0  0  0
  -22.0045  -16.4944   23.2116 O   0  0  0  0  0  0  0  0  0  0  0  0
  -27.9387  -28.0256   22.3274 O   0  0  0  0  0  0  0  0  0  0  0  0
  -27.1020  -31.6639   21.8202 O   0  0  0  0  0  0  0  0  0  0  0  0
  -22.7352  -31.1676   23.6107 O   0  0  0  0  0  0  0  0  0  0  0  0
  -29.8186  -20.4318   20.1005 O   0  0  0  0  0  0  0  0  0  0  0  0
  -23.0919   -9.2678   20.5319 O   0  0  0  0  0  0  0  0  0  0  0  0
  -22.3019  -24.6807   21.5900 O   0  0  0  0  0  0  0  0  0  1  0  0
  -22.1518   -6.5337   25.2271 F   0  0  0  0  0  0  0  0  0  0  0  0
  -24.6761   -7.1246   21.2667 F   0  0  0  0  0  0  0  0  0  0  0  0
  -25.4446  -22.3025   21.5917 S   0  0  0  0  0  0  0  0  0  0  0  0
  1  2  1  0  0  0  0
  1  5  2  0  0  0  0
  2  6  2  0  0  0  0
  3  8  2  0  0  0  0
  3 16  1  0  0  0  0
  4  9  1  0  0  0  0
  4 16  2  0  0  0  0
  5 18  1  0  0  0  0
  6 20  1  0  0  0  0
  7 10  2  0  0  0  0
  7 19  1  0  0  0  0
  8 22  1  0  0  0  0
  9 22  2  0  0  0  0
 10 23  1  0  0  0  0
 11 12  2  0  0  0  0
 11 24  1  0  0  0  0
 12 25  1  0  0  0  0
 13 21  1  0  0  0  0
 13 23  2  0  0  0  0
 14 25  2  0  0  0  0
 14 26  1  0  0  0  0
 15 28  2  0  0  0  0
 15 62  1  0  0  0  0
 16 27  1  0  0  0  0
 17 27  1  0  0  0  0
 17 29  2  0  0  0  0
 17 31  1  0  0  0  0
 18 20  2  0  0  0  0
 18 36  1  0  0  0  0
 19 21  2  0  0  0  0
 19 37  1  0  0  0  0
 20 45  1  0  0  0  0
 21 38  1  0  0  0  0
 22 78  1  0  0  0  0
 23 79  1  0  0  0  0
 24 26  2  0  0  0  0
 24 78  1  0  0  0  0
 25 80  1  0  0  0  0
 26 81  1  0  0  0  0
 27 63  2  0  0  0  0
 28 54  1  0  0  0  0
 28 82  1  0  0  0  0
 29 64  1  0  0  0  0
 29 67  1  0  0  0  0
 30 58  1  0  0  0  0
 30 62  2  0  0  0  0
 30 82  1  0  0  0  0
 31 68  1  0  0  0  0
 31 73  2  0  0  0  0
 32 46  1  0  0  0  0
 32 69  1  0  0  0  0
 32 74  2  0  0  0  0
 33 59  1  0  0  0  0
 33 65  1  0  0  0  0
 33 75  2  0  0  0  0
 34 60  1  0  0  0  0
 34 70  1  0  0  0  0
 34 76  2  0  0  0  0
 35 66  1  0  0  0  0
 35 71  1  0  0  0  0
 35 77  2  0  0  0  0
 36 39  1  0  0  0  0
 37 46  1  0  0  0  0
 38 65  1  0  0  0  0
 39 41  1  0  0  0  0
 40 42  1  0  0  0  0
 40 43  1  0  0  0  0
 41 45  1  0  0  0  0
 42 47  1  0  0  0  0
 43 66  1  0  0  0  0
 44 47  1  0  0  0  0
 44 66  1  0  0  0  0
 45 69  1  0  0  0  0
 46 65  1  0  0  0  0
 47 64  1  0  0  0  0
 48 58  1  0  0  0  0
 49 60  1  0  0  0  0
 50 61  1  0  0  0  0
 51 61  1  0  0  0  0
 52 61  1  0  0  0  0
 53 72  1  0  0  0  0
 54 55  1  0  0  0  0
 55 57  1  0  0  0  0
 56 58  1  0  0  0  0
 56 71  1  0  0  0  0
 57 79  1  0  0  0  0
 59 61  1  0  0  0  0
 59 70  1  0  0  0  0
 60 72  1  0  0  0  0
 63 64  1  0  0  0  0
M  CHG  1  72   1
M  ISO  4  35 100  57 101  71 100  79 101
M  END
> <Batch ID>
0084

> <Smiles>
CNC(C)C(=O)NC(C(=O)N1Cc2cc([101O:1][101CH2:1]CCc3cnc(C(C)C[100NH:0][100C:0](=O)N4CCCC(n5nc(-c6ccc(Oc7ccc(F)cc7F)cc6)c(C(N)=O)c5N)C4)s3)ccc2CC1C(=O)NC1CCCc2ccccc21)C(C)(C)C

> <Shape>
0.274

> <Color>
0.064

> <Negative vol penalty>
0.000

$$$$

  -OEChem-04052318543D

 85 93  0     1  0  0  0  0  0999 V2000
  -19.0308  -33.6914   22.2832 C   0  0  0  0  0  0  0  0  0  0  0  0
  -20.4054  -33.4949   22.1982 C   0  0  0  0  0  0  0  0  0  0  0  0
  -25.4701  -13.4949   22.2067 C   0  0  0  0  0  0  0  0  0  0  0  0
  -26.2827  -13.8536   19.9600 C   0  0  0  0  0  0  0  0  0  0  0  0
  -18.2082  -32.6645   22.7445 C   0  0  0  0  0  0  0  0  0  0  0  0
  -20.9584  -32.2717   22.5754 C   0  0  0  0  0  0  0  0  0  0  0  0
  -25.8024  -29.4904   20.0643 C   0  0  0  0  0  0  0  0  0  0  0  0
  -24.4822  -12.6426   21.7134 C   0  0  0  0  0  0  0  0  0  0  0  0
  -25.2949  -13.0014   19.4666 C   0  0  0  0  0  0  0  0  0  0  0  0
  -27.1450  -29.4285   20.4350 C   0  0  0  0  0  0  0  0  0  0  0  0
  -24.2605   -9.4438   20.6406 C   0  0  0  0  0  0  0  0  0  0  0  0
  -24.0512   -8.2380   21.3098 C   0  0  0  0  0  0  0  0  0  0  0  0
  -26.7369  -27.3227   21.5387 C   0  0  0  0  0  0  0  0  0  0  0  0
  -21.7644   -8.8802   21.7516 C   0  0  0  0  0  0  0  0  0  0  0  0
  -29.6994  -26.9697   17.9494 C   0  0  0  0  0  0  0  0  0  0  0  0
  -26.3703  -14.1004   21.3300 C   0  0  0  0  0  0  0  0  0  0  0  0
  -28.6894  -14.6287   22.2522 C   0  0  0  0  0  0  0  0  0  0  0  0
  -18.7504  -31.4248   23.1184 C   0  0  0  0  0  0  0  0  0  0  0  0
  -24.9132  -28.4725   20.4379 C   0  0  0  0  0  0  0  0  0  0  0  0
  -20.1425  -31.2277   23.0434 C   0  0  0  0  0  0  0  0  0  0  0  0
  -25.3841  -27.3727   21.1692 C   0  0  0  0  0  0  0  0  0  0  0  0
  -24.3946  -12.3959   20.3433 C   0  0  0  0  0  0  0  0  0  0  0  0
  -27.6118  -28.3460   21.1748 C   0  0  0  0  0  0  0  0  0  0  0  0
  -23.2218  -10.3678   20.5269 C   0  0  0  0  0  0  0  0  0  0  0  0
  -22.8032   -7.9562   21.8653 C   0  0  0  0  0  0  0  0  0  0  0  0
  -21.9737  -10.0860   21.0824 C   0  0  0  0  0  0  0  0  0  0  0  0
  -27.3907  -14.9813   21.8390 C   0  0  0  0  0  0  0  0  0  0  0  0
  -29.2564  -26.0234   17.0480 C   0  0  0  0  0  0  0  0  0  0  0  0
  -30.6693  -26.5438   18.8338 C   0  0  0  0  0  0  0  0  0  0  0  0
  -29.2582  -15.8151   22.6465 C   0  0  0  0  0  0  0  0  0  0  0  0
  -30.6622  -24.4633   17.9180 C   0  0  0  0  0  0  0  0  0  0  0  0
  -29.3249  -13.3437   22.2773 C   0  0  0  0  0  0  0  0  0  0  0  0
  -22.2855  -28.3322   22.2211 C   0  0  0  0  0  0  0  0  0  0  0  0
  -22.1863  -25.2747   21.1422 C   0  0  0  0  0  0  0  0  0  0  0  0
  -23.8762  -22.5906   19.8826 C   0  0  0  0  0  0  0  0  0  0  0  0
  -28.2042  -21.5258   21.1877 C   0  0  0  0  0  0  0  0  0  0  0  0
  -17.8264  -30.3608   23.6558 C   0  0  0  0  0  0  0  0  0  0  0  0
  -23.4736  -28.5408   20.0073 C   0  0  0  0  0  0  0  0  0  0  0  0
  -24.4746  -26.2439   21.5780 C   0  0  0  0  0  0  0  0  0  0  0  0
  -18.4508  -28.9680   23.6813 C   0  0  0  0  0  0  0  0  0  0  0  0
  -28.1178  -20.0981   24.4482 C   0  0  0  0  0  0  0  0  0  0  0  0
  -19.8564  -29.0240   24.2712 C   0  0  0  0  0  0  0  0  0  0  0  0
  -28.0388  -18.5930   24.1865 C   0  0  0  0  0  0  0  0  0  0  0  0
  -27.3229  -20.8931   23.4147 C   0  0  0  0  0  0  0  0  0  0  0  0
  -27.5882  -19.0963   21.7488 C   0  0  0  0  0  0  0  0  0  0  0  0
  -20.7772  -29.9066   23.4199 C   0  0  1  0  0  0  0  0  0  0  0  0
  -22.5476  -27.7019   20.8825 C   0  0  1  0  0  0  0  0  0  0  0  0
  -28.4203  -18.2559   22.7325 C   0  0  2  0  0  0  0  0  0  0  0  0
  -28.2087  -26.3911   16.0513 C   0  0  0  0  0  0  0  0  0  0  0  0
  -32.7174  -27.7548   19.6269 C   0  0  0  0  0  0  0  0  0  0  0  0
  -23.5319  -20.2198   19.1355 C   0  0  0  0  0  0  0  0  0  0  0  0
  -22.0096  -24.3848   24.0555 C   0  0  0  0  0  0  0  0  0  0  0  0
  -22.6219  -22.0732   23.3138 C   0  0  0  0  0  0  0  0  0  0  0  0
  -20.5180  -23.1295   22.4889 C   0  0  0  0  0  0  0  0  0  0  0  0
  -24.7809  -23.2036   17.1323 C   0  0  0  0  0  0  0  0  0  0  0  0
  -31.1999  -23.0725   17.8987 C   0  0  0  0  0  0  0  0  0  0  0  0
  -30.6076  -22.1442   18.9775 C   0  0  0  0  0  0  0  0  0  0  0  0
  -30.9750  -27.0606   21.3151 C   0  0  0  0  0  0  0  0  0  0  0  0
  -29.0884  -22.0008   18.9179 C   0  0  0  0  0  0  0  0  0  0  0  0
  -29.4953  -26.9845   21.6796 C   0  0  0  0  0  0  0  0  0  1  0  0
  -31.2214  -27.5146   19.8633 C   0  0  2  0  0  0  0  0  0  0  0  0
  -22.7434  -23.9546   21.6177 C   0  0  1  0  0  0  0  0  0  0  0  0
  -23.5832  -21.6777   18.7057 C   0  0  2  0  0  0  0  0  0  0  0  0
  -21.9902  -23.4076   22.8631 C   0  0  0  0  0  0  0  0  0  0  0  0
  -27.1484  -16.2893   21.9597 N   0  0  0  0  0  0  0  0  0  0  0  0
  -29.7176  -24.7563   17.0039 N   0  0  0  0  0  0  0  0  0  0  0  0
  -31.1752  -25.2931   18.8464 N   0  0  0  0  0  0  0  0  0  0  0  0
  -28.3027  -16.7690   22.4533 N   0  0  0  0  0  0  0  0  0  0  0  0
  -23.0743  -26.3597   21.1384 N   0  0  0  0  0  0  0  0  0  0  0  0
  -27.7338  -20.5277   22.0569 N   0  0  0  0  0  0  0  0  0  0  0  0
  -30.4775  -16.1250   23.1362 N   0  0  0  0  0  0  0  0  0  0  0  0
  -28.5971  -12.2298   21.8370 N   0  0  0  0  0  0  0  0  0  0  0  0
  -21.2060  -29.1946   22.2351 N   0  0  0  0  0  0  0  0  0  0  0  0
  -22.7182  -23.0617   20.4643 N   0  0  0  0  0  0  0  0  0  0  0  0
  -28.5788  -21.0931   19.9215 N   0  0  0  0  0  0  0  0  0  0  0  0
  -24.6372  -21.8232   17.6623 N   0  3  0  0  0  0  0  0  0  0  0  0
  -30.4975  -13.1855   22.6937 O   0  0  0  0  0  0  0  0  0  0  0  0
  -23.0083  -28.0554   23.1711 O   0  0  0  0  0  0  0  0  0  0  0  0
  -21.0087  -25.3390   20.7806 O   0  0  0  0  0  0  0  0  0  0  0  0
  -25.0181  -22.8560   20.2516 O   0  0  0  0  0  0  0  0  0  0  0  0
  -28.2893  -22.7136   21.5174 O   0  0  0  0  0  0  0  0  0  0  0  0
  -23.4309  -11.5641   19.8616 O   0  0  0  0  0  0  0  0  0  0  0  0
  -28.9217  -28.2835   21.5385 O   0  0  0  0  0  0  0  0  0  1  0  0
  -22.6019   -6.7975   22.5066 F   0  0  0  0  0  0  0  0  0  0  0  0
  -20.9717  -10.9693   20.9755 F   0  0  0  0  0  0  0  0  0  0  0  0
  1  2  1  0  0  0  0
  1  5  2  0  0  0  0
  2  6  2  0  0  0  0
  3  8  2  0  0  0  0
  3 16  1  0  0  0  0
  4  9  1  0  0  0  0
  4 16  2  0  0  0  0
  5 18  1  0  0  0  0
  6 20  1  0  0  0  0
  7 10  2  0  0  0  0
  7 19  1  0  0  0  0
  8 22  1  0  0  0  0
  9 22  2  0  0  0  0
 10 23  1  0  0  0  0
 11 12  2  0  0  0  0
 11 24  1  0  0  0  0
 12 25  1  0  0  0  0
 13 21  1  0  0  0  0
 13 23  2  0  0  0  0
 14 25  2  0  0  0  0
 14 26  1  0  0  0  0
 15 28  2  0  0  0  0
 15 29  1  0  0  0  0
 16 27  1  0  0  0  0
 17 27  1  0  0  0  0
 17 30  2  0  0  0  0
 17 32  1  0  0  0  0
 18 20  2  0  0  0  0
 18 37  1  0  0  0  0
 19 21  2  0  0  0  0
 19 38  1  0  0  0  0
 20 46  1  0  0  0  0
 21 39  1  0  0  0  0
 22 82  1  0  0  0  0
 23 83  1  0  0  0  0
 24 26  2  0  0  0  0
 24 82  1  0  0  0  0
 25 84  1  0  0  0  0
 26 85  1  0  0  0  0
 27 65  2  0  0  0  0
 28 49  1  0  0  0  0
 28 66  1  0  0  0  0
 29 61  1  0  0  0  0
 29 67  2  0  0  0  0
 30 68  1  0  0  0  0
 30 71  1  0  0  0  0
 31 56  1  0  0  0  0
 31 66  2  0  0  0  0
 31 67  1  0  0  0  0
 32 72  1  0  0  0  0
 32 77  2  0  0  0  0
 33 47  1  0  0  0  0
 33 73  1  0  0  0  0
 33 78  2  0  0  0  0
 34 62  1  0  0  0  0
 34 69  1  0  0  0  0
 34 79  2  0  0  0  0
 35 63  1  0  0  0  0
 35 74  1  0  0  0  0
 35 80  2  0  0  0  0
 36 70  1  0  0  0  0
 36 75  1  0  0  0  0
 36 81  2  0  0  0  0
 37 40  1  0  0  0  0
 38 47  1  0  0  0  0
 39 69  1  0  0  0  0
 40 42  1  0  0  0  0
 41 43  1  0  0  0  0
 41 44  1  0  0  0  0
 42 46  1  0  0  0  0
 43 48  1  0  0  0  0
 44 70  1  0  0  0  0
 45 48  1  0  0  0  0
 45 70  1  0  0  0  0
 46 73  1  0  0  0  0
 47 69  1  0  0  0  0
 48 68  1  0  0  0  0
 50 61  1  0  0  0  0
 51 63  1  0  0  0  0
 52 64  1  0  0  0  0
 53 64  1  0  0  0  0
 54 64  1  0  0  0  0
 55 76  1  0  0  0  0
 56 57  1  0  0  0  0
 57 59  1  0  0  0  0
 58 60  1  0  0  0  0
 58 61  1  0  0  0  0
 59 75  1  0  0  0  0
 60 83  1  0  0  0  0
 62 64  1  0  0  0  0
 62 74  1  0  0  0  0
 63 76  1  0  0  0  0
 65 68  1  0  0  0  0
M  CHG  1  76   1
M  ISO  4  36 100  60 101  75 100  83 101
M  END
> <Batch ID>
0084

> <Smiles>
CNC(C)C(=O)NC(C(=O)N1Cc2cc([101O:1][101CH2:1]CC(C)c3cc(C)nc(CCC[100NH:0][100C:0](=O)N4CCCC(n5nc(-c6ccc(Oc7ccc(F)cc7F)cc6)c(C(N)=O)c5N)C4)n3)ccc2CC1C(=O)NC1CCCc2ccccc21)C(C)(C)C

> <Shape>
0.254

> <Color>
0.081

> <Negative vol penalty>
0.000

$$$$

  -OEChem-04052318543D

 85 93  0     1  0  0  0  0  0999 V2000
  -21.5778  -23.3747   20.0360 C   0  0  0  0  0  0  0  0  0  0  0  0
  -22.8906  -22.9578   19.8401 C   0  0  0  0  0  0  0  0  0  0  0  0
  -26.1832  -29.9988   20.2268 C   0  0  0  0  0  0  0  0  0  0  0  0
  -24.7745  -28.6963   21.6951 C   0  0  0  0  0  0  0  0  0  0  0  0
  -20.7341  -22.6468   20.8739 C   0  0  0  0  0  0  0  0  0  0  0  0
  -23.3607  -21.8132   20.4829 C   0  0  0  0  0  0  0  0  0  0  0  0
  -27.3987  -17.7600   18.2986 C   0  0  0  0  0  0  0  0  0  0  0  0
  -25.0773  -30.7533   19.8352 C   0  0  0  0  0  0  0  0  0  0  0  0
  -23.6686  -29.4508   21.3036 C   0  0  0  0  0  0  0  0  0  0  0  0
  -28.7688  -17.5990   18.5002 C   0  0  0  0  0  0  0  0  0  0  0  0
  -20.5389  -31.2691   20.9614 C   0  0  0  0  0  0  0  0  0  0  0  0
  -19.6694  -31.7122   21.9580 C   0  0  0  0  0  0  0  0  0  0  0  0
  -28.3183  -15.9561   20.2082 C   0  0  0  0  0  0  0  0  0  0  0  0
  -30.2250  -18.8145   22.5245 C   0  0  0  0  0  0  0  0  0  0  0  0
  -21.4800  -32.9288   22.9967 C   0  0  0  0  0  0  0  0  0  0  0  0
  -26.0318  -28.9702   21.1567 C   0  0  0  0  0  0  0  0  0  0  0  0
  -28.0469  -28.4541   22.6334 C   0  0  0  0  0  0  0  0  0  0  0  0
  -21.1913  -21.4872   21.5198 C   0  0  0  0  0  0  0  0  0  0  0  0
  -26.4764  -17.0269   19.0591 C   0  0  0  0  0  0  0  0  0  0  0  0
  -22.5227  -21.0698   21.3313 C   0  0  0  0  0  0  0  0  0  0  0  0
  -26.9371  -16.1077   20.0124 C   0  0  0  0  0  0  0  0  0  0  0  0
  -31.5893  -18.8121   22.2933 C   0  0  0  0  0  0  0  0  0  0  0  0
  -23.8201  -30.4794   20.3736 C   0  0  0  0  0  0  0  0  0  0  0  0
  -29.2288  -16.6991   19.4572 C   0  0  0  0  0  0  0  0  0  0  0  0
  -21.8790  -31.6557   20.9825 C   0  0  0  0  0  0  0  0  0  0  0  0
  -20.1400  -32.5420   22.9757 C   0  0  0  0  0  0  0  0  0  0  0  0
  -22.3495  -32.4856   22.0001 C   0  0  0  0  0  0  0  0  0  0  0  0
  -27.1736  -28.1901   21.5612 C   0  0  0  0  0  0  0  0  0  0  0  0
  -29.6474  -19.9860   22.9710 C   0  0  0  0  0  0  0  0  0  0  0  0
  -32.2857  -19.9815   22.5235 C   0  0  0  0  0  0  0  0  0  0  0  0
  -28.9570  -27.4261   22.5960 C   0  0  0  0  0  0  0  0  0  0  0  0
  -28.0362  -29.5320   23.5787 C   0  0  0  0  0  0  0  0  0  0  0  0
  -24.1743  -17.7712   21.1207 C   0  0  0  0  0  0  0  0  0  0  0  0
  -23.5678  -14.5871   20.9944 C   0  0  0  0  0  0  0  0  0  0  0  0
  -24.7270  -11.4397   20.3644 C   0  0  0  0  0  0  0  0  0  0  0  0
  -28.7138  -21.8407   20.4523 C   0  0  0  0  0  0  0  0  0  0  0  0
  -20.2564  -20.7598   22.4533 C   0  0  0  0  0  0  0  0  0  0  0  0
  -25.0021  -17.1925   18.8108 C   0  0  0  0  0  0  0  0  0  0  0  0
  -25.9884  -15.2818   20.8409 C   0  0  0  0  0  0  0  0  0  0  0  0
  -20.7208  -19.3482   22.8025 C   0  0  0  0  0  0  0  0  0  0  0  0
  -31.0420  -24.3797   19.5524 C   0  0  0  0  0  0  0  0  0  0  0  0
  -22.2013  -19.3489   23.1701 C   0  0  0  0  0  0  0  0  0  0  0  0
  -30.3934  -25.6680   20.0620 C   0  0  0  0  0  0  0  0  0  0  0  0
  -30.0020  -23.3971   19.0188 C   0  0  0  0  0  0  0  0  0  0  0  0
  -28.2611  -24.3689   20.4675 C   0  0  0  0  0  0  0  0  0  0  0  0
  -23.0621  -19.8195   21.9916 C   0  0  1  0  0  0  0  0  0  0  0  0
  -24.1448  -16.7707   20.0001 C   0  0  1  0  0  0  0  0  0  0  0  0
  -29.2651  -25.3682   21.0672 C   0  0  2  0  0  0  0  0  0  0  0  0
  -33.7581  -20.0537   22.2972 C   0  0  0  0  0  0  0  0  0  0  0  0
  -24.0090   -9.0353   20.3846 C   0  0  0  0  0  0  0  0  0  0  0  0
  -27.7355  -21.0431   24.3579 C   0  0  0  0  0  0  0  0  0  0  0  0
  -27.6601  -18.6474   23.7169 C   0  0  0  0  0  0  0  0  0  0  0  0
  -23.7711  -14.5545   24.0386 C   0  0  0  0  0  0  0  0  0  0  0  0
  -23.9986  -12.0637   23.9272 C   0  0  0  0  0  0  0  0  0  0  0  0
  -21.9166  -13.1624   23.1020 C   0  0  0  0  0  0  0  0  0  0  0  0
  -25.2337  -11.1434   17.4636 C   0  0  0  0  0  0  0  0  0  0  0  0
  -32.2701  -17.5587   21.8044 C   0  0  0  0  0  0  0  0  0  0  0  0
  -32.6206  -17.5890   20.3151 C   0  0  0  0  0  0  0  0  0  0  0  0
  -27.3501  -20.4118   21.9548 C   0  0  0  0  0  0  0  0  0  0  0  0
  -31.3980  -17.6728   19.4087 C   0  0  0  0  0  0  0  0  0  1  0  0
  -24.0473  -13.3763   21.7579 C   0  0  1  0  0  0  0  0  0  0  0  0
  -24.1486  -10.2978   19.5484 C   0  0  2  0  0  0  0  0  0  0  0  0
  -28.1818  -20.0414   23.2357 C   0  0  0  0  0  0  0  0  0  0  0  0
  -23.4515  -13.3061   23.1923 C   0  0  0  0  0  0  0  0  0  0  0  0
  -27.4998  -27.0815   20.8915 N   0  0  0  0  0  0  0  0  0  0  0  0
  -30.3535  -21.1159   23.1879 N   0  0  0  0  0  0  0  0  0  0  0  0
  -31.6944  -21.1136   22.9603 N   0  0  0  0  0  0  0  0  0  0  0  0
  -28.5882  -26.6397   21.5445 N   0  0  0  0  0  0  0  0  0  0  0  0
  -24.5563  -15.4841   20.5655 N   0  0  0  0  0  0  0  0  0  0  0  0
  -28.9613  -23.1544   20.0208 N   0  0  0  0  0  0  0  0  0  0  0  0
  -30.0289  -27.1272   23.3603 N   0  0  0  0  0  0  0  0  0  0  0  0
  -27.0307  -30.5027   23.4738 N   0  0  0  0  0  0  0  0  0  0  0  0
  -23.2121  -18.7578   21.0196 N   0  0  0  0  0  0  0  0  0  0  0  0
  -23.7375  -12.2194   20.9249 N   0  0  0  0  0  0  0  0  0  0  0  0
  -27.7154  -21.6997   21.4083 N   0  0  0  0  0  0  0  0  0  0  0  0
  -25.0284   -9.9955   18.3841 N   0  3  0  0  0  0  0  0  0  0  0  0
  -28.9027  -29.6405   24.4792 O   0  0  0  0  0  0  0  0  0  0  0  0
  -25.0074  -17.6558   22.0120 O   0  0  0  0  0  0  0  0  0  0  0  0
  -22.3612  -14.7281   20.7800 O   0  0  0  0  0  0  0  0  0  0  0  0
  -25.9358  -11.6198   20.4948 O   0  0  0  0  0  0  0  0  0  0  0  0
  -29.3401  -20.8665   20.0216 O   0  0  0  0  0  0  0  0  0  0  0  0
  -22.7408  -31.2156   19.9919 O   0  0  0  0  0  0  0  0  0  0  0  0
  -30.5655  -16.5405   19.6565 O   0  0  0  0  0  0  0  0  0  1  0  0
  -19.3045  -32.9687   23.9318 F   0  0  0  0  0  0  0  0  0  0  0  0
  -23.6356  -32.8614   22.0249 F   0  0  0  0  0  0  0  0  0  0  0  0
  1  2  1  0  0  0  0
  1  5  2  0  0  0  0
  2  6  2  0  0  0  0
  3  8  2  0  0  0  0
  3 16  1  0  0  0  0
  4  9  1  0  0  0  0
  4 16  2  0  0  0  0
  5 18  1  0  0  0  0
  6 20  1  0  0  0  0
  7 10  2  0  0  0  0
  7 19  1  0  0  0  0
  8 23  1  0  0  0  0
  9 23  2  0  0  0  0
 10 24  1  0  0  0  0
 11 12  2  0  0  0  0
 11 25  1  0  0  0  0
 12 26  1  0  0  0  0
 13 21  1  0  0  0  0
 13 24  2  0  0  0  0
 14 22  1  0  0  0  0
 14 29  2  0  0  0  0
 15 26  2  0  0  0  0
 15 27  1  0  0  0  0
 16 28  1  0  0  0  0
 17 28  1  0  0  0  0
 17 31  2  0  0  0  0
 17 32  1  0  0  0  0
 18 20  2  0  0  0  0
 18 37  1  0  0  0  0
 19 21  2  0  0  0  0
 19 38  1  0  0  0  0
 20 46  1  0  0  0  0
 21 39  1  0  0  0  0
 22 30  2  0  0  0  0
 22 57  1  0  0  0  0
 23 82  1  0  0  0  0
 24 83  1  0  0  0  0
 25 27  2  0  0  0  0
 25 82  1  0  0  0  0
 26 84  1  0  0  0  0
 27 85  1  0  0  0  0
 28 65  2  0  0  0  0
 29 63  1  0  0  0  0
 29 66  1  0  0  0  0
 30 49  1  0  0  0  0
 30 67  1  0  0  0  0
 31 68  1  0  0  0  0
 31 71  1  0  0  0  0
 32 72  1  0  0  0  0
 32 77  2  0  0  0  0
 33 47  1  0  0  0  0
 33 73  1  0  0  0  0
 33 78  2  0  0  0  0
 34 61  1  0  0  0  0
 34 69  1  0  0  0  0
 34 79  2  0  0  0  0
 35 62  1  0  0  0  0
 35 74  1  0  0  0  0
 35 80  2  0  0  0  0
 36 70  1  0  0  0  0
 36 75  1  0  0  0  0
 36 81  2  0  0  0  0
 37 40  1  0  0  0  0
 38 47  1  0  0  0  0
 39 69  1  0  0  0  0
 40 42  1  0  0  0  0
 41 43  1  0  0  0  0
 41 44  1  0  0  0  0
 42 46  1  0  0  0  0
 43 48  1  0  0  0  0
 44 70  1  0  0  0  0
 45 48  1  0  0  0  0
 45 70  1  0  0  0  0
 46 73  1  0  0  0  0
 47 69  1  0  0  0  0
 48 68  1  0  0  0  0
 50 62  1  0  0  0  0
 51 63  1  0  0  0  0
 52 63  1  0  0  0  0
 53 64  1  0  0  0  0
 54 64  1  0  0  0  0
 55 64  1  0  0  0  0
 56 76  1  0  0  0  0
 57 58  1  0  0  0  0
 58 60  1  0  0  0  0
 59 63  1  0  0  0  0
 59 75  1  0  0  0  0
 60 83  1  0  0  0  0
 61 64  1  0  0  0  0
 61 74  1  0  0  0  0
 62 76  1  0  0  0  0
 65 68  1  0  0  0  0
 66 67  2  0  0  0  0
M  CHG  1  76   1
M  ISO  4  36 100  60 101  75 100  83 101
M  END
> <Batch ID>
0084

> <Smiles>
CNC(C)C(=O)NC(C(=O)N1Cc2cc([101O:1][101CH2:1]CCc3cc(C(C)(C)C[100NH:0][100C:0](=O)N4CCCC(n5nc(-c6ccc(Oc7ccc(F)cc7F)cc6)c(C(N)=O)c5N)C4)nnc3C)ccc2CC1C(=O)NC1CCCc2ccccc21)C(C)(C)C

> <Shape>
0.195

> <Color>
0.075

> <Negative vol penalty>
0.000

$$$$

  -OEChem-04052318543D

 87 95  0     1  0  0  0  0  0999 V2000
  -21.3077  -22.4135   18.5915 C   0  0  0  0  0  0  0  0  0  0  0  0
  -22.5453  -22.1029   18.0372 C   0  0  0  0  0  0  0  0  0  0  0  0
  -26.1991  -27.6793   18.8822 C   0  0  0  0  0  0  0  0  0  0  0  0
  -26.2769  -27.2409   21.2568 C   0  0  0  0  0  0  0  0  0  0  0  0
  -20.9312  -21.8534   19.8116 C   0  0  0  0  0  0  0  0  0  0  0  0
  -23.4077  -21.2328   18.7032 C   0  0  0  0  0  0  0  0  0  0  0  0
  -28.3831  -16.2398   17.4261 C   0  0  0  0  0  0  0  0  0  0  0  0
  -35.8644  -17.0173   20.3621 C   0  0  0  0  0  0  0  0  0  0  0  0
  -25.0790  -28.4894   19.0684 C   0  0  0  0  0  0  0  0  0  0  0  0
  -25.1568  -28.0510   21.4431 C   0  0  0  0  0  0  0  0  0  0  0  0
  -29.6941  -15.9129   17.7700 C   0  0  0  0  0  0  0  0  0  0  0  0
  -21.8080  -27.8002   21.0516 C   0  0  0  0  0  0  0  0  0  0  0  0
  -20.7952  -27.3242   21.8842 C   0  0  0  0  0  0  0  0  0  0  0  0
  -37.0364  -17.5306   20.9063 C   0  0  0  0  0  0  0  0  0  0  0  0
  -28.9048  -14.9433   19.8330 C   0  0  0  0  0  0  0  0  0  0  0  0
  -21.0868  -29.2364   23.3319 C   0  0  0  0  0  0  0  0  0  0  0  0
  -26.7981  -27.0550   19.9764 C   0  0  0  0  0  0  0  0  0  0  0  0
  -29.3054  -26.6139   19.8137 C   0  0  0  0  0  0  0  0  0  0  0  0
  -21.7855  -20.9685   20.4882 C   0  0  0  0  0  0  0  0  0  0  0  0
  -27.3225  -15.9301   18.2895 C   0  0  0  0  0  0  0  0  0  0  0  0
  -23.0429  -20.6614   19.9341 C   0  0  0  0  0  0  0  0  0  0  0  0
  -27.5810  -15.2651   19.4965 C   0  0  0  0  0  0  0  0  0  0  0  0
  -34.6529  -17.2273   21.0112 C   0  0  0  0  0  0  0  0  0  0  0  0
  -24.5578  -28.6752   20.3489 C   0  0  0  0  0  0  0  0  0  0  0  0
  -29.9554  -15.2672   18.9749 C   0  0  0  0  0  0  0  0  0  0  0  0
  -22.4602  -28.9942   21.3591 C   0  0  0  0  0  0  0  0  0  0  0  0
  -20.4346  -28.0423   23.0244 C   0  0  0  0  0  0  0  0  0  0  0  0
  -22.0996  -29.7123   22.4992 C   0  0  0  0  0  0  0  0  0  0  0  0
  -27.9548  -26.2177   19.7846 C   0  0  0  0  0  0  0  0  0  0  0  0
  -36.9440  -18.2412   22.0921 C   0  0  0  0  0  0  0  0  0  0  0  0
  -34.6672  -17.9513   22.1925 C   0  0  0  0  0  0  0  0  0  0  0  0
  -30.0077  -25.4573   19.5780 C   0  0  0  0  0  0  0  0  0  0  0  0
  -29.8742  -27.9114   20.0341 C   0  0  0  0  0  0  0  0  0  0  0  0
  -25.1501  -17.6268   19.8725 C   0  0  0  0  0  0  0  0  0  0  0  0
  -23.9649  -14.6977   20.6059 C   0  0  0  0  0  0  0  0  0  0  0  0
  -24.5331  -11.3539   20.9835 C   0  0  0  0  0  0  0  0  0  0  0  0
  -29.8076  -19.7905   20.7446 C   0  0  0  0  0  0  0  0  0  0  0  0
  -21.3546  -20.4250   21.8274 C   0  0  0  0  0  0  0  0  0  0  0  0
  -25.9112  -16.2656   17.8917 C   0  0  0  0  0  0  0  0  0  0  0  0
  -26.4755  -14.8924   20.4491 C   0  0  0  0  0  0  0  0  0  0  0  0
  -22.1706  -19.2193   22.2866 C   0  0  0  0  0  0  0  0  0  0  0  0
  -28.9326  -21.0814   17.5439 C   0  0  0  0  0  0  0  0  0  0  0  0
  -23.6613  -19.4789   22.0940 C   0  0  0  0  0  0  0  0  0  0  0  0
  -28.7168  -22.5743   17.7981 C   0  0  0  0  0  0  0  0  0  0  0  0
  -28.4516  -20.2334   18.7194 C   0  0  0  0  0  0  0  0  0  0  0  0
  -28.7986  -22.1067   20.2828 C   0  0  0  0  0  0  0  0  0  0  0  0
  -23.9957  -19.7024   20.6142 C   0  0  1  0  0  0  0  0  0  0  0  0
  -24.9620  -16.3630   19.0820 C   0  0  1  0  0  0  0  0  0  0  0  0
  -29.3194  -23.0060   19.1486 C   0  0  2  0  0  0  0  0  0  0  0  0
  -38.1820  -18.8077   22.7034 C   0  0  0  0  0  0  0  0  0  0  0  0
  -33.6530  -18.1979   24.4567 C   0  0  0  0  0  0  0  0  0  0  0  0
  -23.3800   -9.2202   21.6279 C   0  0  0  0  0  0  0  0  0  0  0  0
  -33.9205  -14.2307   20.1836 C   0  0  0  0  0  0  0  0  0  0  0  0
  -33.2996  -20.7991   23.0613 C   0  0  0  0  0  0  0  0  0  0  0  0
  -24.0853  -15.5220   23.5412 C   0  0  0  0  0  0  0  0  0  0  0  0
  -23.8479  -13.1069   24.1570 C   0  0  0  0  0  0  0  0  0  0  0  0
  -22.0272  -14.2557   22.8968 C   0  0  0  0  0  0  0  0  0  0  0  0
  -25.0456  -10.1405   18.3333 C   0  0  0  0  0  0  0  0  0  0  0  0
  -33.3773  -16.6715   20.4261 C   0  0  0  0  0  0  0  0  0  0  0  0
  -31.1547  -19.5058   22.8094 C   0  0  0  0  0  0  0  0  0  0  0  0
  -31.5496  -14.9175   20.7047 C   0  0  0  0  0  0  0  0  0  1  0  0
  -33.3953  -18.2107   22.9315 C   0  0  1  0  0  0  0  0  0  0  0  0
  -24.1922  -13.6996   21.7155 C   0  0  1  0  0  0  0  0  0  0  0  0
  -23.7722  -10.1399   20.4820 C   0  0  2  0  0  0  0  0  0  0  0  0
  -33.0343  -15.2491   20.9121 C   0  0  1  0  0  0  0  0  0  0  0  0
  -32.6624  -19.5274   22.4809 C   0  0  2  0  0  0  0  0  0  0  0  0
  -23.5594  -14.1547   23.0608 C   0  0  0  0  0  0  0  0  0  0  0  0
  -27.8057  -24.9114   19.5488 N   0  0  0  0  0  0  0  0  0  0  0  0
  -35.7854  -18.4656   22.7517 N   0  0  0  0  0  0  0  0  0  0  0  0
  -29.0716  -24.4769   19.4275 N   0  0  0  0  0  0  0  0  0  0  0  0
  -25.1132  -15.2472   20.0182 N   0  0  0  0  0  0  0  0  0  0  0  0
  -29.0614  -20.6934   19.9694 N   0  0  0  0  0  0  0  0  0  0  0  0
  -31.3285  -25.1935   19.4867 N   0  0  0  0  0  0  0  0  0  0  0  0
  -29.0090  -28.9905   20.2609 N   0  0  0  0  0  0  0  0  0  0  0  0
  -24.0332  -18.4396   19.9083 N   0  0  0  0  0  0  0  0  0  0  0  0
  -23.6927  -12.4205   21.2226 N   0  0  0  0  0  0  0  0  0  0  0  0
  -30.3564  -20.3096   21.9109 N   0  0  0  0  0  0  0  0  0  0  0  0
  -24.6082   -9.3647   19.5222 N   0  3  0  0  0  0  0  0  0  0  0  0
  -31.1124  -28.1111   20.0138 O   0  0  0  0  0  0  0  0  0  0  0  0
  -26.2284  -17.8475   20.4114 O   0  0  0  0  0  0  0  0  0  0  0  0
  -22.8112  -14.9741   20.2681 O   0  0  0  0  0  0  0  0  0  0  0  0
  -25.7508  -11.3546   21.1504 O   0  0  0  0  0  0  0  0  0  0  0  0
  -29.9770  -18.6106   20.4187 O   0  0  0  0  0  0  0  0  0  0  0  0
  -23.4650  -29.4658   20.5310 O   0  0  0  0  0  0  0  0  0  0  0  0
  -31.2341  -14.9476   19.3133 O   0  0  0  0  0  0  0  0  0  1  0  0
  -19.4609  -27.5859   23.8230 F   0  0  0  0  0  0  0  0  0  0  0  0
  -22.7218  -30.8607   22.7992 F   0  0  0  0  0  0  0  0  0  0  0  0
  1  2  1  0  0  0  0
  1  5  2  0  0  0  0
  2  6  2  0  0  0  0
  3  9  2  0  0  0  0
  3 17  1  0  0  0  0
  4 10  1  0  0  0  0
  4 17  2  0  0  0  0
  5 19  1  0  0  0  0
  6 21  1  0  0  0  0
  7 11  2  0  0  0  0
  7 20  1  0  0  0  0
  8 14  2  0  0  0  0
  8 23  1  0  0  0  0
  9 24  1  0  0  0  0
 10 24  2  0  0  0  0
 11 25  1  0  0  0  0
 12 13  2  0  0  0  0
 12 26  1  0  0  0  0
 13 27  1  0  0  0  0
 14 30  1  0  0  0  0
 15 22  1  0  0  0  0
 15 25  2  0  0  0  0
 16 27  2  0  0  0  0
 16 28  1  0  0  0  0
 17 29  1  0  0  0  0
 18 29  1  0  0  0  0
 18 32  2  0  0  0  0
 18 33  1  0  0  0  0
 19 21  2  0  0  0  0
 19 38  1  0  0  0  0
 20 22  2  0  0  0  0
 20 39  1  0  0  0  0
 21 47  1  0  0  0  0
 22 40  1  0  0  0  0
 23 31  2  0  0  0  0
 23 59  1  0  0  0  0
 24 84  1  0  0  0  0
 25 85  1  0  0  0  0
 26 28  2  0  0  0  0
 26 84  1  0  0  0  0
 27 86  1  0  0  0  0
 28 87  1  0  0  0  0
 29 68  2  0  0  0  0
 30 50  1  0  0  0  0
 30 69  2  0  0  0  0
 31 62  1  0  0  0  0
 31 69  1  0  0  0  0
 32 70  1  0  0  0  0
 32 73  1  0  0  0  0
 33 74  1  0  0  0  0
 33 79  2  0  0  0  0
 34 48  1  0  0  0  0
 34 75  1  0  0  0  0
 34 80  2  0  0  0  0
 35 63  1  0  0  0  0
 35 71  1  0  0  0  0
 35 81  2  0  0  0  0
 36 64  1  0  0  0  0
 36 76  1  0  0  0  0
 36 82  2  0  0  0  0
 37 72  1  0  0  0  0
 37 77  1  0  0  0  0
 37 83  2  0  0  0  0
 38 41  1  0  0  0  0
 39 48  1  0  0  0  0
 40 71  1  0  0  0  0
 41 43  1  0  0  0  0
 42 44  1  0  0  0  0
 42 45  1  0  0  0  0
 43 47  1  0  0  0  0
 44 49  1  0  0  0  0
 45 72  1  0  0  0  0
 46 49  1  0  0  0  0
 46 72  1  0  0  0  0
 47 75  1  0  0  0  0
 48 71  1  0  0  0  0
 49 70  1  0  0  0  0
 51 62  1  0  0  0  0
 52 64  1  0  0  0  0
 53 65  1  0  0  0  0
 54 66  1  0  0  0  0
 55 67  1  0  0  0  0
 56 67  1  0  0  0  0
 57 67  1  0  0  0  0
 58 78  1  0  0  0  0
 59 65  1  0  0  0  0
 60 66  1  0  0  0  0
 60 77  1  0  0  0  0
 61 65  1  0  0  0  0
 61 85  1  0  0  0  0
 62 66  1  0  0  0  0
 63 67  1  0  0  0  0
 63 76  1  0  0  0  0
 64 78  1  0  0  0  0
 68 70  1  0  0  0  0
M  CHG  1  78   1
M  ISO  4  37 100  61 101  77 100  85 101
M  END
> <Batch ID>
0084

> <Smiles>
CNC(C)C(=O)NC(C(=O)N1Cc2cc([101O:1][101CH2:1]C(C)Cc3ccc(C)nc3C(C)C(C)C[100NH:0][100C:0](=O)N3CCCC(n4nc(-c5ccc(Oc6ccc(F)cc6F)cc5)c(C(N)=O)c4N)C3)ccc2CC1C(=O)NC1CCCc2ccccc21)C(C)(C)C

> <Shape>
0.228

> <Color>
0.064

> <Negative vol penalty>
0.000

$$$$

  -OEChem-04052318543D

 87 95  0     1  0  0  0  0  0999 V2000
  -17.6953  -32.2319   22.0513 C   0  0  0  0  0  0  0  0  0  0  0  0
  -18.2424  -31.2985   21.1767 C   0  0  0  0  0  0  0  0  0  0  0  0
  -28.2550  -12.3224   20.9760 C   0  0  0  0  0  0  0  0  0  0  0  0
  -26.1688  -13.2894   20.2345 C   0  0  0  0  0  0  0  0  0  0  0  0
  -18.5317  -33.0747   22.7820 C   0  0  0  0  0  0  0  0  0  0  0  0
  -19.6263  -31.2081   21.0316 C   0  0  0  0  0  0  0  0  0  0  0  0
  -24.8048  -26.4272   19.7501 C   0  0  0  0  0  0  0  0  0  0  0  0
  -31.1010  -21.5108   19.1106 C   0  0  0  0  0  0  0  0  0  0  0  0
  -31.5749  -21.3297   20.4099 C   0  0  0  0  0  0  0  0  0  0  0  0
  -27.7332  -11.0442   20.7774 C   0  0  0  0  0  0  0  0  0  0  0  0
  -25.6470  -12.0111   20.0359 C   0  0  0  0  0  0  0  0  0  0  0  0
  -25.8900  -26.2165   18.9005 C   0  0  0  0  0  0  0  0  0  0  0  0
  -24.3429   -9.5309   21.9277 C   0  0  0  0  0  0  0  0  0  0  0  0
  -23.0515   -9.2790   22.3908 C   0  0  0  0  0  0  0  0  0  0  0  0
  -27.2394  -27.6702   20.2735 C   0  0  0  0  0  0  0  0  0  0  0  0
  -29.2854  -22.8591   19.9607 C   0  0  0  0  0  0  0  0  0  0  0  0
  -22.3483   -8.7484   20.1411 C   0  0  0  0  0  0  0  0  0  0  0  0
  -27.4728  -13.4450   20.7046 C   0  0  0  0  0  0  0  0  0  0  0  0
  -28.7086  -15.5543   19.9755 C   0  0  0  0  0  0  0  0  0  0  0  0
  -19.9268  -32.9880   22.6530 C   0  0  0  0  0  0  0  0  0  0  0  0
  -24.9259  -27.2710   20.8636 C   0  0  0  0  0  0  0  0  0  0  0  0
  -20.4821  -32.0514   21.7604 C   0  0  0  0  0  0  0  0  0  0  0  0
  -26.1550  -27.8879   21.1371 C   0  0  0  0  0  0  0  0  0  0  0  0
  -29.9563  -22.2756   18.8859 C   0  0  0  0  0  0  0  0  0  0  0  0
  -30.9040  -21.9132   21.4846 C   0  0  0  0  0  0  0  0  0  0  0  0
  -29.7593  -22.6779   21.2600 C   0  0  0  0  0  0  0  0  0  0  0  0
  -26.4292  -10.8885   20.3073 C   0  0  0  0  0  0  0  0  0  0  0  0
  -27.1067  -26.8403   19.1605 C   0  0  0  0  0  0  0  0  0  0  0  0
  -24.6370   -9.3917   20.5713 C   0  0  0  0  0  0  0  0  0  0  0  0
  -22.0542   -8.8877   21.4975 C   0  0  0  0  0  0  0  0  0  0  0  0
  -23.6397   -9.0004   19.6780 C   0  0  0  0  0  0  0  0  0  0  0  0
  -28.0111  -14.7656   20.9101 C   0  0  0  0  0  0  0  0  0  0  0  0
  -29.0027  -16.7115   20.6543 C   0  0  0  0  0  0  0  0  0  0  0  0
  -29.0591  -15.2665   18.6153 C   0  0  0  0  0  0  0  0  0  0  0  0
  -23.5410  -29.9789   21.7871 C   0  0  0  0  0  0  0  0  0  0  0  0
  -25.2481  -29.4715   24.4984 C   0  0  0  0  0  0  0  0  0  0  0  0
  -27.9476  -28.0125   25.9919 C   0  0  0  0  0  0  0  0  0  0  0  0
  -27.5071  -20.8656   24.0678 C   0  0  0  0  0  0  0  0  0  0  0  0
  -20.7889  -33.9525   23.4286 C   0  0  0  0  0  0  0  0  0  0  0  0
  -23.7535  -27.4668   21.7853 C   0  0  0  0  0  0  0  0  0  0  0  0
  -26.3428  -28.7870   22.3308 C   0  0  0  0  0  0  0  0  0  0  0  0
  -22.2565  -33.5381   23.4970 C   0  0  0  0  0  0  0  0  0  0  0  0
  -28.6137  -17.8337   25.5712 C   0  0  0  0  0  0  0  0  0  0  0  0
  -22.7577  -33.1187   22.1187 C   0  0  0  0  0  0  0  0  0  0  0  0
  -28.6070  -16.8296   24.4173 C   0  0  0  0  0  0  0  0  0  0  0  0
  -27.4539  -18.8216   25.4663 C   0  0  0  0  0  0  0  0  0  0  0  0
  -27.3511  -18.5250   23.0219 C   0  0  0  0  0  0  0  0  0  0  0  0
  -21.9792  -31.9062   21.5941 C   0  0  1  0  0  0  0  0  0  0  0  0
  -23.8432  -28.7527   22.6012 C   0  0  1  0  0  0  0  0  0  0  0  0
  -28.5346  -17.5428   23.0537 C   0  0  2  0  0  0  0  0  0  0  0  0
  -31.4295  -21.7043   22.8669 C   0  0  0  0  0  0  0  0  0  0  0  0
  -29.0346  -24.8511   22.2975 C   0  0  0  0  0  0  0  0  0  0  0  0
  -29.1001  -27.8097   28.2118 C   0  0  0  0  0  0  0  0  0  0  0  0
  -26.3674  -32.2912   24.1721 C   0  0  0  0  0  0  0  0  0  0  0  0
  -28.1665  -31.6910   25.8065 C   0  0  0  0  0  0  0  0  0  0  0  0
  -25.7766  -31.6687   26.5211 C   0  0  0  0  0  0  0  0  0  0  0  0
  -29.3252  -23.6913   15.2917 C   0  0  0  0  0  0  0  0  0  0  0  0
  -31.5105  -23.5831   16.4739 C   0  0  0  0  0  0  0  0  0  0  0  0
  -27.5688  -25.0779   26.0512 C   0  0  0  0  0  0  0  0  0  0  0  0
  -29.4425  -22.4714   17.4774 C   0  0  0  0  0  0  0  0  0  0  0  0
  -29.7052  -25.0534   17.3969 C   0  0  0  0  0  0  0  0  0  0  0  0
  -27.5653  -22.8166   22.5350 C   0  0  0  0  0  0  0  0  0  0  0  0
  -28.2379  -25.3777   17.6649 C   0  0  0  0  0  0  0  0  0  1  0  0
  -29.0243  -23.3120   22.3952 C   0  0  1  0  0  0  0  0  0  0  0  0
  -26.6267  -29.8530   24.9808 C   0  0  1  0  0  0  0  0  0  0  0  0
  -28.0759  -27.1997   27.2676 C   0  0  2  0  0  0  0  0  0  0  0  0
  -26.7305  -31.3606   25.3465 C   0  0  0  0  0  0  0  0  0  0  0  0
  -29.9859  -23.7011   16.6882 C   0  0  0  0  0  0  0  0  0  0  0  0
  -27.8707  -15.3707   22.0925 N   0  0  0  0  0  0  0  0  0  0  0  0
  -28.4841  -16.5517   21.9056 N   0  0  0  0  0  0  0  0  0  0  0  0
  -25.1651  -28.9520   23.1987 N   0  0  0  0  0  0  0  0  0  0  0  0
  -27.4429  -19.4648   24.1502 N   0  0  0  0  0  0  0  0  0  0  0  0
  -29.6519  -17.8399   20.2970 N   0  0  0  0  0  0  0  0  0  0  0  0
  -28.6793  -14.0305   18.0746 N   0  0  0  0  0  0  0  0  0  0  0  0
  -22.4443  -30.6928   22.2311 N   0  0  0  0  0  0  0  0  0  0  0  0
  -26.9388  -28.9482   26.0819 N   0  0  0  0  0  0  0  0  0  0  0  0
  -27.4981  -21.3936   22.7826 N   0  0  0  0  0  0  0  0  0  0  0  0
  -28.4983  -25.8056   26.9532 N   0  3  0  0  0  0  0  0  0  0  0  0
  -29.7048  -16.0747   17.9058 O   0  0  0  0  0  0  0  0  0  0  0  0
  -24.2511  -30.2575   20.8281 O   0  0  0  0  0  0  0  0  0  0  0  0
  -24.2813  -29.6221   25.2496 O   0  0  0  0  0  0  0  0  0  0  0  0
  -28.6724  -27.8376   25.0149 O   0  0  0  0  0  0  0  0  0  0  0  0
  -27.5734  -21.5916   25.0655 O   0  0  0  0  0  0  0  0  0  0  0  0
  -25.9197   -9.6414   20.1132 O   0  0  0  0  0  0  0  0  0  0  0  0
  -28.1673  -26.6369   18.3325 O   0  0  0  0  0  0  0  0  0  1  0  0
  -20.8145   -8.6443   21.9426 F   0  0  0  0  0  0  0  0  0  0  0  0
  -23.9165   -8.8637   18.3739 F   0  0  0  0  0  0  0  0  0  0  0  0
  1  2  1  0  0  0  0
  1  5  2  0  0  0  0
  2  6  2  0  0  0  0
  3 10  2  0  0  0  0
  3 18  1  0  0  0  0
  4 11  1  0  0  0  0
  4 18  2  0  0  0  0
  5 20  1  0  0  0  0
  6 22  1  0  0  0  0
  7 12  2  0  0  0  0
  7 21  1  0  0  0  0
  8  9  2  0  0  0  0
  8 24  1  0  0  0  0
  9 25  1  0  0  0  0
 10 27  1  0  0  0  0
 11 27  2  0  0  0  0
 12 28  1  0  0  0  0
 13 14  2  0  0  0  0
 13 29  1  0  0  0  0
 14 30  1  0  0  0  0
 15 23  1  0  0  0  0
 15 28  2  0  0  0  0
 16 24  2  0  0  0  0
 16 26  1  0  0  0  0
 17 30  2  0  0  0  0
 17 31  1  0  0  0  0
 18 32  1  0  0  0  0
 19 32  1  0  0  0  0
 19 33  2  0  0  0  0
 19 34  1  0  0  0  0
 20 22  2  0  0  0  0
 20 39  1  0  0  0  0
 21 23  2  0  0  0  0
 21 40  1  0  0  0  0
 22 48  1  0  0  0  0
 23 41  1  0  0  0  0
 24 60  1  0  0  0  0
 25 26  2  0  0  0  0
 25 51  1  0  0  0  0
 26 64  1  0  0  0  0
 27 84  1  0  0  0  0
 28 85  1  0  0  0  0
 29 31  2  0  0  0  0
 29 84  1  0  0  0  0
 30 86  1  0  0  0  0
 31 87  1  0  0  0  0
 32 69  2  0  0  0  0
 33 70  1  0  0  0  0
 33 73  1  0  0  0  0
 34 74  1  0  0  0  0
 34 79  2  0  0  0  0
 35 49  1  0  0  0  0
 35 75  1  0  0  0  0
 35 80  2  0  0  0  0
 36 65  1  0  0  0  0
 36 71  1  0  0  0  0
 36 81  2  0  0  0  0
 37 66  1  0  0  0  0
 37 76  1  0  0  0  0
 37 82  2  0  0  0  0
 38 72  1  0  0  0  0
 38 77  1  0  0  0  0
 38 83  2  0  0  0  0
 39 42  1  0  0  0  0
 40 49  1  0  0  0  0
 41 71  1  0  0  0  0
 42 44  1  0  0  0  0
 43 45  1  0  0  0  0
 43 46  1  0  0  0  0
 44 48  1  0  0  0  0
 45 50  1  0  0  0  0
 46 72  1  0  0  0  0
 47 50  1  0  0  0  0
 47 72  1  0  0  0  0
 48 75  1  0  0  0  0
 49 71  1  0  0  0  0
 50 70  1  0  0  0  0
 52 64  1  0  0  0  0
 53 66  1  0  0  0  0
 54 67  1  0  0  0  0
 55 67  1  0  0  0  0
 56 67  1  0  0  0  0
 57 68  1  0  0  0  0
 58 68  1  0  0  0  0
 59 78  1  0  0  0  0
 60 68  1  0  0  0  0
 61 63  1  0  0  0  0
 61 68  1  0  0  0  0
 62 64  1  0  0  0  0
 62 77  1  0  0  0  0
 63 85  1  0  0  0  0
 65 67  1  0  0  0  0
 65 76  1  0  0  0  0
 66 78  1  0  0  0  0
 69 70  1  0  0  0  0
M  CHG  1  78   1
M  ISO  4  38 100  63 101  77 100  85 101
M  END
> <Batch ID>
0084

> <Smiles>
CNC(C)C(=O)NC(C(=O)N1Cc2cc([101O:1][101CH2:1]CC(C)(C)Cc3ccc(C)c(C(C)C[100NH:0][100C:0](=O)N4CCCC(n5nc(-c6ccc(Oc7ccc(F)cc7F)cc6)c(C(N)=O)c5N)C4)c3)ccc2CC1C(=O)NC1CCCc2ccccc21)C(C)(C)C

> <Shape>
0.232

> <Color>
0.052

> <Negative vol penalty>
0.000

$$$$

  -OEChem-04052318543D

 84 92  0     1  0  0  0  0  0999 V2000
  -16.4105  -25.7283   22.0585 C   0  0  0  0  0  0  0  0  0  0  0  0
  -17.2878  -25.5799   20.9890 C   0  0  0  0  0  0  0  0  0  0  0  0
  -24.6618  -16.6889   21.7665 C   0  0  0  0  0  0  0  0  0  0  0  0
  -25.6023  -15.5897   19.8315 C   0  0  0  0  0  0  0  0  0  0  0  0
  -16.6537  -26.6998   23.0285 C   0  0  0  0  0  0  0  0  0  0  0  0
  -18.4083  -26.4037   20.8884 C   0  0  0  0  0  0  0  0  0  0  0  0
  -22.6033  -23.8382   19.6780 C   0  0  0  0  0  0  0  0  0  0  0  0
  -23.5438  -15.8578   21.6952 C   0  0  0  0  0  0  0  0  0  0  0  0
  -24.4844  -14.7586   19.7602 C   0  0  0  0  0  0  0  0  0  0  0  0
  -22.7621  -23.4712   18.3423 C   0  0  0  0  0  0  0  0  0  0  0  0
  -23.3336  -11.9945   21.3274 C   0  0  0  0  0  0  0  0  0  0  0  0
  -23.5524  -10.6332   21.1167 C   0  0  0  0  0  0  0  0  0  0  0  0
  -24.2537  -25.3383   18.0130 C   0  0  0  0  0  0  0  0  0  0  0  0
  -22.2645  -10.7421   19.0755 C   0  0  0  0  0  0  0  0  0  0  0  0
  -28.8631  -25.9257   13.2967 C   0  0  0  0  0  0  0  0  0  0  0  0
  -25.6910  -16.5549   20.8346 C   0  0  0  0  0  0  0  0  0  0  0  0
  -28.0369  -17.1778   21.6199 C   0  0  0  0  0  0  0  0  0  0  0  0
  -17.7830  -27.5295   22.9449 C   0  0  0  0  0  0  0  0  0  0  0  0
  -23.2610  -24.9662   20.1892 C   0  0  0  0  0  0  0  0  0  0  0  0
  -18.6661  -27.3881   21.8575 C   0  0  0  0  0  0  0  0  0  0  0  0
  -24.1036  -25.7160   19.3561 C   0  0  0  0  0  0  0  0  0  0  0  0
  -23.4551  -14.8927   20.6921 C   0  0  0  0  0  0  0  0  0  0  0  0
  -23.5851  -24.2230   17.5089 C   0  0  0  0  0  0  0  0  0  0  0  0
  -22.5802  -12.7297   20.4122 C   0  0  0  0  0  0  0  0  0  0  0  0
  -23.0179  -10.0070   19.9907 C   0  0  0  0  0  0  0  0  0  0  0  0
  -22.0457  -12.1035   19.2862 C   0  0  0  0  0  0  0  0  0  0  0  0
  -26.8458  -17.4135   20.9074 C   0  0  0  0  0  0  0  0  0  0  0  0
  -28.0900  -24.7511   13.3627 C   0  0  0  0  0  0  0  0  0  0  0  0
  -30.1266  -25.5260   13.6576 C   0  0  0  0  0  0  0  0  0  0  0  0
  -28.8122  -18.2831   21.3679 C   0  0  0  0  0  0  0  0  0  0  0  0
  -28.4090  -16.0596   22.4365 C   0  0  0  0  0  0  0  0  0  0  0  0
  -22.3242  -27.7252   21.4597 C   0  0  0  0  0  0  0  0  0  0  0  0
  -25.5010  -28.1132   21.9884 C   0  0  0  0  0  0  0  0  0  0  0  0
  -28.7021  -27.3153   21.1149 C   0  0  0  0  0  0  0  0  0  0  0  0
  -30.0272  -21.8557   17.1050 C   0  0  0  0  0  0  0  0  0  0  0  0
  -17.9786  -28.5970   23.9922 C   0  0  0  0  0  0  0  0  0  0  0  0
  -23.1003  -25.3333   21.6390 C   0  0  0  0  0  0  0  0  0  0  0  0
  -24.8480  -26.9239   19.8613 C   0  0  0  0  0  0  0  0  0  0  0  0
  -19.3897  -29.1789   24.0126 C   0  0  0  0  0  0  0  0  0  0  0  0
  -27.9090  -22.9010   19.8470 C   0  0  0  0  0  0  0  0  0  0  0  0
  -19.8520  -29.5078   22.5966 C   0  0  0  0  0  0  0  0  0  0  0  0
  -27.5346  -21.5558   20.4720 C   0  0  0  0  0  0  0  0  0  0  0  0
  -27.9770  -22.8040   18.3258 C   0  0  0  0  0  0  0  0  0  0  0  0
  -28.5257  -20.4041   18.4394 C   0  0  0  0  0  0  0  0  0  0  0  0
  -19.9059  -28.2461   21.7268 C   0  0  1  0  0  0  0  0  0  0  0  0
  -23.4132  -26.7992   21.9225 C   0  0  1  0  0  0  0  0  0  0  0  0
  -28.4626  -20.4305   19.9774 C   0  0  2  0  0  0  0  0  0  0  0  0
  -31.3839  -26.2857   13.7831 C   0  0  0  0  0  0  0  0  0  0  0  0
  -31.2069  -27.2533   21.2538 C   0  0  0  0  0  0  0  0  0  0  0  0
  -21.8783  -24.6166   14.8906 C   0  0  0  0  0  0  0  0  0  0  0  0
  -25.2848  -30.7970   20.5531 C   0  0  0  0  0  0  0  0  0  0  0  0
  -27.7787  -30.8007   20.3320 C   0  0  0  0  0  0  0  0  0  0  0  0
  -26.7289  -30.8192   22.5948 C   0  0  0  0  0  0  0  0  0  0  0  0
  -28.6606  -24.9524   22.8964 C   0  0  0  0  0  0  0  0  0  0  0  0
  -26.6184  -24.6019   13.0694 C   0  0  0  0  0  0  0  0  0  0  0  0
  -25.7189  -24.8136   14.2929 C   0  0  0  0  0  0  0  0  0  0  0  0
  -24.2265  -24.6480   13.9748 C   0  0  0  0  0  0  0  0  0  0  0  0
  -31.1060  -23.3092   14.3216 C   0  0  0  0  0  0  0  0  0  0  0  0
  -31.4375  -23.4312   15.8066 C   0  0  0  0  0  0  0  0  0  0  0  0
  -26.6499  -28.7060   21.2091 C   0  0  1  0  0  0  0  0  0  0  0  0
  -29.9010  -26.9028   21.9498 C   0  0  2  0  0  0  0  0  0  0  0  0
  -23.3508  -24.8231   15.2196 C   0  0  2  0  0  0  0  0  0  1  0  0
  -26.5952  -30.2592   21.1619 C   0  0  0  0  0  0  0  0  0  0  0  0
  -26.8588  -18.5772   20.2520 N   0  0  0  0  0  0  0  0  0  0  0  0
  -28.8028  -23.6850   13.7360 N   0  0  0  0  0  0  0  0  0  0  0  0
  -30.0371  -24.1882   13.9077 N   0  0  0  0  0  0  0  0  0  0  0  0
  -28.0674  -19.0827   20.5518 N   0  0  0  0  0  0  0  0  0  0  0  0
  -24.6533  -27.2461   21.2846 N   0  0  0  0  0  0  0  0  0  0  0  0
  -28.8910  -21.7266   17.9210 N   0  0  0  0  0  0  0  0  0  0  0  0
  -30.0516  -18.6394   21.7671 N   0  0  0  0  0  0  0  0  0  0  0  0
  -27.4935  -15.0094   22.5890 N   0  0  0  0  0  0  0  0  0  0  0  0
  -21.0912  -27.4732   22.0303 N   0  0  0  0  0  0  0  0  0  0  0  0
  -27.8681  -28.1689   21.8056 N   0  0  0  0  0  0  0  0  0  0  0  0
  -30.2996  -23.1400   16.6500 N   0  0  0  0  0  0  0  0  0  0  0  0
  -29.8795  -25.4332   22.1963 N   0  3  0  0  0  0  0  0  0  0  0  0
  -29.5141  -16.0012   23.0272 O   0  0  0  0  0  0  0  0  0  0  0  0
  -22.5836  -28.6042   20.6462 O   0  0  0  0  0  0  0  0  0  0  0  0
  -25.3649  -28.4030   23.1797 O   0  0  0  0  0  0  0  0  0  0  0  0
  -28.5252  -26.9228   19.9638 O   0  0  0  0  0  0  0  0  0  0  0  0
  -30.7492  -20.8978   16.8081 O   0  0  0  0  0  0  0  0  0  0  0  0
  -22.3645  -14.0813   20.6224 O   0  0  0  0  0  0  0  0  0  0  0  0
  -23.7414  -23.8674   16.2047 O   0  0  0  0  0  0  0  0  0  1  0  0
  -23.2294   -8.7000   19.7877 F   0  0  0  0  0  0  0  0  0  0  0  0
  -21.3220  -12.8048   18.4028 F   0  0  0  0  0  0  0  0  0  0  0  0
  1  2  1  0  0  0  0
  1  5  2  0  0  0  0
  2  6  2  0  0  0  0
  3  8  2  0  0  0  0
  3 16  1  0  0  0  0
  4  9  1  0  0  0  0
  4 16  2  0  0  0  0
  5 18  1  0  0  0  0
  6 20  1  0  0  0  0
  7 10  2  0  0  0  0
  7 19  1  0  0  0  0
  8 22  1  0  0  0  0
  9 22  2  0  0  0  0
 10 23  1  0  0  0  0
 11 12  2  0  0  0  0
 11 24  1  0  0  0  0
 12 25  1  0  0  0  0
 13 21  1  0  0  0  0
 13 23  2  0  0  0  0
 14 25  2  0  0  0  0
 14 26  1  0  0  0  0
 15 28  1  0  0  0  0
 15 29  2  0  0  0  0
 16 27  1  0  0  0  0
 17 27  1  0  0  0  0
 17 30  2  0  0  0  0
 17 31  1  0  0  0  0
 18 20  2  0  0  0  0
 18 36  1  0  0  0  0
 19 21  2  0  0  0  0
 19 37  1  0  0  0  0
 20 45  1  0  0  0  0
 21 38  1  0  0  0  0
 22 81  1  0  0  0  0
 23 82  1  0  0  0  0
 24 26  2  0  0  0  0
 24 81  1  0  0  0  0
 25 83  1  0  0  0  0
 26 84  1  0  0  0  0
 27 64  2  0  0  0  0
 28 55  1  0  0  0  0
 28 65  2  0  0  0  0
 29 48  1  0  0  0  0
 29 66  1  0  0  0  0
 30 67  1  0  0  0  0
 30 70  1  0  0  0  0
 31 71  1  0  0  0  0
 31 76  2  0  0  0  0
 32 46  1  0  0  0  0
 32 72  1  0  0  0  0
 32 77  2  0  0  0  0
 33 60  1  0  0  0  0
 33 68  1  0  0  0  0
 33 78  2  0  0  0  0
 34 61  1  0  0  0  0
 34 73  1  0  0  0  0
 34 79  2  0  0  0  0
 35 69  1  0  0  0  0
 35 74  1  0  0  0  0
 35 80  2  0  0  0  0
 36 39  1  0  0  0  0
 37 46  1  0  0  0  0
 38 68  1  0  0  0  0
 39 41  1  0  0  0  0
 40 42  1  0  0  0  0
 40 43  1  0  0  0  0
 41 45  1  0  0  0  0
 42 47  1  0  0  0  0
 43 69  1  0  0  0  0
 44 47  1  0  0  0  0
 44 69  1  0  0  0  0
 45 72  1  0  0  0  0
 46 68  1  0  0  0  0
 47 67  1  0  0  0  0
 49 61  1  0  0  0  0
 50 62  1  0  0  0  0
 51 63  1  0  0  0  0
 52 63  1  0  0  0  0
 53 63  1  0  0  0  0
 54 75  1  0  0  0  0
 55 56  1  0  0  0  0
 56 57  1  0  0  0  0
 57 62  1  0  0  0  0
 58 59  1  0  0  0  0
 58 66  1  0  0  0  0
 59 74  1  0  0  0  0
 60 63  1  0  0  0  0
 60 73  1  0  0  0  0
 61 75  1  0  0  0  0
 62 82  1  0  0  0  0
 64 67  1  0  0  0  0
 65 66  1  0  0  0  0
M  CHG  1  75   1
M  ISO  4  35 100  62 101  74 100  82 101
M  END
> <Batch ID>
0084

> <Smiles>
CNC(C)C(=O)NC(C(=O)N1Cc2cc([101O:1][101CH:1](C)CCCc3cc(C)n(CC[100NH:0][100C:0](=O)N4CCCC(n5nc(-c6ccc(Oc7ccc(F)cc7F)cc6)c(C(N)=O)c5N)C4)n3)ccc2CC1C(=O)NC1CCCc2ccccc21)C(C)(C)C

> <Shape>
0.225

> <Color>
0.044

> <Negative vol penalty>
0.000

$$$$

  -OEChem-04052318543D

 82 90  0     1  0  0  0  0  0999 V2000
  -32.2633  -13.4584   21.4057 C   0  0  0  0  0  0  0  0  0  0  0  0
  -31.4060  -14.3282   22.0721 C   0  0  0  0  0  0  0  0  0  0  0  0
  -26.5769  -28.6198   18.8746 C   0  0  0  0  0  0  0  0  0  0  0  0
  -26.0966  -27.5644   20.9942 C   0  0  0  0  0  0  0  0  0  0  0  0
  -31.8115  -12.7548   20.2901 C   0  0  0  0  0  0  0  0  0  0  0  0
  -30.0968  -14.4957   21.6225 C   0  0  0  0  0  0  0  0  0  0  0  0
  -26.7231  -14.4351   25.3986 C   0  0  0  0  0  0  0  0  0  0  0  0
  -25.5656  -29.5513   19.1092 C   0  0  0  0  0  0  0  0  0  0  0  0
  -25.0853  -28.4960   21.2288 C   0  0  0  0  0  0  0  0  0  0  0  0
  -26.6015  -15.5950   26.1625 C   0  0  0  0  0  0  0  0  0  0  0  0
  -24.8474  -31.7041   22.2642 C   0  0  0  0  0  0  0  0  0  0  0  0
  -24.7817  -32.2815   23.5322 C   0  0  0  0  0  0  0  0  0  0  0  0
  -24.6338  -16.2073   24.9085 C   0  0  0  0  0  0  0  0  0  0  0  0
  -22.5532  -31.3940   23.8209 C   0  0  0  0  0  0  0  0  0  0  0  0
  -28.3087  -19.4099   24.4458 C   0  0  0  0  0  0  0  0  0  0  0  0
  -26.8424  -27.6263   19.8170 C   0  0  0  0  0  0  0  0  0  0  0  0
  -29.2429  -26.7713   19.9363 C   0  0  0  0  0  0  0  0  0  0  0  0
  -30.4931  -12.9064   19.8323 C   0  0  0  0  0  0  0  0  0  0  0  0
  -25.8057  -14.1575   24.3750 C   0  0  0  0  0  0  0  0  0  0  0  0
  -29.6273  -13.7944   20.4988 C   0  0  0  0  0  0  0  0  0  0  0  0
  -24.7445  -15.0419   24.1348 C   0  0  0  0  0  0  0  0  0  0  0  0
  -24.8198  -29.4894   20.2863 C   0  0  0  0  0  0  0  0  0  0  0  0
  -25.5584  -16.4828   25.9156 C   0  0  0  0  0  0  0  0  0  0  0  0
  -23.7660  -30.9717   21.7745 C   0  0  0  0  0  0  0  0  0  0  0  0
  -23.6347  -32.1264   24.3106 C   0  0  0  0  0  0  0  0  0  0  0  0
  -22.6189  -30.8167   22.5528 C   0  0  0  0  0  0  0  0  0  0  0  0
  -27.8866  -26.6633   19.5750 C   0  0  0  0  0  0  0  0  0  0  0  0
  -28.3806  -19.9458   23.1846 C   0  0  0  0  0  0  0  0  0  0  0  0
  -29.8121  -25.6053   19.4857 C   0  0  0  0  0  0  0  0  0  0  0  0
  -29.9271  -27.8307   20.6183 C   0  0  0  0  0  0  0  0  0  0  0  0
  -26.0042  -13.7894   21.2240 C   0  0  0  0  0  0  0  0  0  0  0  0
  -22.8780  -12.9740   21.5140 C   0  0  0  0  0  0  0  0  0  0  0  0
  -19.9834  -13.1846   23.3096 C   0  0  0  0  0  0  0  0  0  0  0  0
  -27.6027  -20.1515   18.3784 C   0  0  0  0  0  0  0  0  0  0  0  0
  -30.0644  -12.1603   18.5937 C   0  0  0  0  0  0  0  0  0  0  0  0
  -25.9352  -12.8886   23.5777 C   0  0  0  0  0  0  0  0  0  0  0  0
  -23.7214  -14.7798   23.0609 C   0  0  0  0  0  0  0  0  0  0  0  0
  -28.5503  -12.1109   18.4058 C   0  0  0  0  0  0  0  0  0  0  0  0
  -29.3252  -22.2684   16.0918 C   0  0  0  0  0  0  0  0  0  0  0  0
  -27.9397  -13.4912   18.6265 C   0  0  0  0  0  0  0  0  0  0  0  0
  -29.2742  -23.6445   16.7578 C   0  0  0  0  0  0  0  0  0  0  0  0
  -28.0414  -21.4771   16.3322 C   0  0  0  0  0  0  0  0  0  0  0  0
  -27.6014  -22.7196   18.4146 C   0  0  0  0  0  0  0  0  0  0  0  0
  -28.1927  -13.9843   20.0563 C   0  0  1  0  0  0  0  0  0  0  0  0
  -25.2423  -12.9623   22.2206 C   0  0  1  0  0  0  0  0  0  0  0  0
  -28.8962  -23.5330   18.2471 C   0  0  2  0  0  0  0  0  0  0  0  0
  -17.5857  -12.4450   23.2751 C   0  0  0  0  0  0  0  0  0  0  0  0
  -22.2615  -15.0797   19.3936 C   0  0  0  0  0  0  0  0  0  0  0  0
  -19.8570  -14.9689   20.0825 C   0  0  0  0  0  0  0  0  0  0  0  0
  -20.9796  -12.9463   19.1489 C   0  0  0  0  0  0  0  0  0  0  0  0
  -20.2888  -11.6842   25.8422 C   0  0  0  0  0  0  0  0  0  0  0  0
  -29.1757  -19.4985   22.0338 C   0  0  0  0  0  0  0  0  0  0  0  0
  -28.4768  -18.4690   21.1077 C   0  0  0  0  0  0  0  0  0  0  0  0
  -25.4254  -20.0152   26.6480 C   0  0  0  0  0  0  0  0  0  0  0  0
  -26.9463  -20.1182   26.5138 C   0  0  0  0  0  0  0  0  0  0  0  0
  -27.1604  -18.9638   20.5122 C   0  0  0  0  0  0  0  0  0  0  0  0
  -24.8482  -18.7499   26.0243 C   0  0  0  0  0  0  0  0  0  1  0  0
  -21.5694  -13.7261   21.4804 C   0  0  1  0  0  0  0  0  0  0  0  0
  -18.9932  -12.1226   23.7523 C   0  0  2  0  0  0  0  0  0  0  0  0
  -21.1871  -14.1865   20.0454 C   0  0  0  0  0  0  0  0  0  0  0  0
  -27.6107  -25.5193   18.9434 N   0  0  0  0  0  0  0  0  0  0  0  0
  -27.5590  -21.0355   23.1009 N   0  0  0  0  0  0  0  0  0  0  0  0
  -26.9731  -21.1967   24.2823 N   0  0  0  0  0  0  0  0  0  0  0  0
  -27.4240  -20.2211   25.0874 N   0  0  0  0  0  0  0  0  0  0  0  0
  -28.8015  -24.8976   18.9042 N   0  0  0  0  0  0  0  0  0  0  0  0
  -23.8946  -13.5289   22.3041 N   0  0  0  0  0  0  0  0  0  0  0  0
  -27.7403  -21.4072   17.7641 N   0  0  0  0  0  0  0  0  0  0  0  0
  -31.0734  -25.1267   19.5340 N   0  0  0  0  0  0  0  0  0  0  0  0
  -29.1913  -28.9569   21.0115 N   0  0  0  0  0  0  0  0  0  0  0  0
  -27.2873  -13.3373   20.9816 N   0  0  0  0  0  0  0  0  0  0  0  0
  -20.5826  -12.8566   22.1118 N   0  0  0  0  0  0  0  0  0  0  0  0
  -27.3237  -20.1750   19.7394 N   0  0  0  0  0  0  0  0  0  0  0  0
  -18.9735  -12.0203   25.2389 N   0  3  0  0  0  0  0  0  0  0  0  0
  -31.1578  -27.7874   20.8571 O   0  0  0  0  0  0  0  0  0  0  0  0
  -25.4672  -14.7645   20.7117 O   0  0  0  0  0  0  0  0  0  0  0  0
  -22.9915  -11.9288   20.8687 O   0  0  0  0  0  0  0  0  0  0  0  0
  -20.2008  -14.2050   23.9593 O   0  0  0  0  0  0  0  0  0  0  0  0
  -27.7250  -19.0882   17.7609 O   0  0  0  0  0  0  0  0  0  0  0  0
  -23.8330  -30.3984   20.5157 O   0  0  0  0  0  0  0  0  0  0  0  0
  -25.4378  -17.6161   26.6592 O   0  0  0  0  0  0  0  0  0  1  0  0
  -23.5723  -32.6797   25.5289 F   0  0  0  0  0  0  0  0  0  0  0  0
  -21.5772  -30.1132   22.0882 F   0  0  0  0  0  0  0  0  0  0  0  0
  1  2  1  0  0  0  0
  1  5  2  0  0  0  0
  2  6  2  0  0  0  0
  3  8  2  0  0  0  0
  3 16  1  0  0  0  0
  4  9  1  0  0  0  0
  4 16  2  0  0  0  0
  5 18  1  0  0  0  0
  6 20  1  0  0  0  0
  7 10  2  0  0  0  0
  7 19  1  0  0  0  0
  8 22  1  0  0  0  0
  9 22  2  0  0  0  0
 10 23  1  0  0  0  0
 11 12  2  0  0  0  0
 11 24  1  0  0  0  0
 12 25  1  0  0  0  0
 13 21  1  0  0  0  0
 13 23  2  0  0  0  0
 14 25  2  0  0  0  0
 14 26  1  0  0  0  0
 15 28  2  0  0  0  0
 15 64  1  0  0  0  0
 16 27  1  0  0  0  0
 17 27  1  0  0  0  0
 17 29  2  0  0  0  0
 17 30  1  0  0  0  0
 18 20  2  0  0  0  0
 18 35  1  0  0  0  0
 19 21  2  0  0  0  0
 19 36  1  0  0  0  0
 20 44  1  0  0  0  0
 21 37  1  0  0  0  0
 22 79  1  0  0  0  0
 23 80  1  0  0  0  0
 24 26  2  0  0  0  0
 24 79  1  0  0  0  0
 25 81  1  0  0  0  0
 26 82  1  0  0  0  0
 27 61  2  0  0  0  0
 28 52  1  0  0  0  0
 28 62  1  0  0  0  0
 29 65  1  0  0  0  0
 29 68  1  0  0  0  0
 30 69  1  0  0  0  0
 30 74  2  0  0  0  0
 31 45  1  0  0  0  0
 31 70  1  0  0  0  0
 31 75  2  0  0  0  0
 32 58  1  0  0  0  0
 32 66  1  0  0  0  0
 32 76  2  0  0  0  0
 33 59  1  0  0  0  0
 33 71  1  0  0  0  0
 33 77  2  0  0  0  0
 34 67  1  0  0  0  0
 34 72  1  0  0  0  0
 34 78  2  0  0  0  0
 35 38  1  0  0  0  0
 36 45  1  0  0  0  0
 37 66  1  0  0  0  0
 38 40  1  0  0  0  0
 39 41  1  0  0  0  0
 39 42  1  0  0  0  0
 40 44  1  0  0  0  0
 41 46  1  0  0  0  0
 42 67  1  0  0  0  0
 43 46  1  0  0  0  0
 43 67  1  0  0  0  0
 44 70  1  0  0  0  0
 45 66  1  0  0  0  0
 46 65  1  0  0  0  0
 47 59  1  0  0  0  0
 48 60  1  0  0  0  0
 49 60  1  0  0  0  0
 50 60  1  0  0  0  0
 51 73  1  0  0  0  0
 52 53  1  0  0  0  0
 53 56  1  0  0  0  0
 54 55  1  0  0  0  0
 54 57  1  0  0  0  0
 55 64  1  0  0  0  0
 56 72  1  0  0  0  0
 57 80  1  0  0  0  0
 58 60  1  0  0  0  0
 58 71  1  0  0  0  0
 59 73  1  0  0  0  0
 61 65  1  0  0  0  0
 62 63  2  0  0  0  0
 63 64  1  0  0  0  0
M  CHG  1  73   1
M  ISO  4  34 100  57 101  72 100  80 101
M  END
> <Batch ID>
0084

> <Smiles>
CNC(C)C(=O)NC(C(=O)N1Cc2cc([101O:1][101CH2:1]CCn3cc(CCC[100NH:0][100C:0](=O)N4CCCC(n5nc(-c6ccc(Oc7ccc(F)cc7F)cc6)c(C(N)=O)c5N)C4)nn3)ccc2CC1C(=O)NC1CCCc2ccccc21)C(C)(C)C

> <Shape>
0.242

> <Color>
0.066

> <Negative vol penalty>
0.000

$$$$

  -OEChem-04052318543D

 85 93  0     1  0  0  0  0  0999 V2000
  -20.2418  -23.1133   19.8147 C   0  0  0  0  0  0  0  0  0  0  0  0
  -21.6085  -22.8884   19.6848 C   0  0  0  0  0  0  0  0  0  0  0  0
  -25.2495  -26.7484   19.6531 C   0  0  0  0  0  0  0  0  0  0  0  0
  -27.1736  -27.8189   20.6475 C   0  0  0  0  0  0  0  0  0  0  0  0
  -19.4718  -22.2743   20.6191 C   0  0  0  0  0  0  0  0  0  0  0  0
  -22.2063  -21.8248   20.3600 C   0  0  0  0  0  0  0  0  0  0  0  0
  -26.8827  -18.3864   18.4071 C   0  0  0  0  0  0  0  0  0  0  0  0
  -24.5421  -27.9481   19.7303 C   0  0  0  0  0  0  0  0  0  0  0  0
  -26.4662  -29.0186   20.7248 C   0  0  0  0  0  0  0  0  0  0  0  0
  -28.2505  -18.4241   18.6744 C   0  0  0  0  0  0  0  0  0  0  0  0
  -25.0491  -32.2709   21.5150 C   0  0  0  0  0  0  0  0  0  0  0  0
  -25.1296  -32.9956   22.7041 C   0  0  0  0  0  0  0  0  0  0  0  0
  -27.9584  -16.7384   20.3751 C   0  0  0  0  0  0  0  0  0  0  0  0
  -24.1904  -31.1236   23.9086 C   0  0  0  0  0  0  0  0  0  0  0  0
  -34.8400  -18.0942   22.7513 C   0  0  0  0  0  0  0  0  0  0  0  0
  -26.5653  -26.6838   20.1117 C   0  0  0  0  0  0  0  0  0  0  0  0
  -28.0975  -24.9969   18.9652 C   0  0  0  0  0  0  0  0  0  0  0  0
  -20.0587  -21.1941   21.2969 C   0  0  0  0  0  0  0  0  0  0  0  0
  -26.0394  -17.5308   19.1305 C   0  0  0  0  0  0  0  0  0  0  0  0
  -21.4436  -20.9713   21.1753 C   0  0  0  0  0  0  0  0  0  0  0  0
  -26.5807  -16.6898   20.1133 C   0  0  0  0  0  0  0  0  0  0  0  0
  -33.6480  -18.5678   23.2605 C   0  0  0  0  0  0  0  0  0  0  0  0
  -25.1505  -29.0832   20.2661 C   0  0  0  0  0  0  0  0  0  0  0  0
  -28.7881  -17.6022   19.6605 C   0  0  0  0  0  0  0  0  0  0  0  0
  -24.5391  -30.9725   21.5227 C   0  0  0  0  0  0  0  0  0  0  0  0
  -24.7003  -32.4220   23.9009 C   0  0  0  0  0  0  0  0  0  0  0  0
  -24.1098  -30.3989   22.7195 C   0  0  0  0  0  0  0  0  0  0  0  0
  -27.2964  -25.4447   20.0327 C   0  0  0  0  0  0  0  0  0  0  0  0
  -33.7399  -19.7070   24.0339 C   0  0  0  0  0  0  0  0  0  0  0  0
  -28.5662  -23.7734   19.3774 C   0  0  0  0  0  0  0  0  0  0  0  0
  -35.9930  -19.7838   23.7428 C   0  0  0  0  0  0  0  0  0  0  0  0
  -28.3917  -25.6303   17.7131 C   0  0  0  0  0  0  0  0  0  0  0  0
  -23.5585  -17.9431   21.0744 C   0  0  0  0  0  0  0  0  0  0  0  0
  -23.4206  -14.7046   20.9505 C   0  0  0  0  0  0  0  0  0  0  0  0
  -25.0471  -11.7542   20.4061 C   0  0  0  0  0  0  0  0  0  0  0  0
  -29.4419  -21.3528   24.7834 C   0  0  0  0  0  0  0  0  0  0  0  0
  -19.1939  -20.3428   22.1925 C   0  0  0  0  0  0  0  0  0  0  0  0
  -24.5702  -17.4825   18.8116 C   0  0  0  0  0  0  0  0  0  0  0  0
  -25.7214  -15.7387   20.9042 C   0  0  0  0  0  0  0  0  0  0  0  0
  -19.8384  -19.0133   22.5767 C   0  0  0  0  0  0  0  0  0  0  0  0
  -27.4026  -20.0633   22.1652 C   0  0  0  0  0  0  0  0  0  0  0  0
  -21.2841  -19.2274   23.0135 C   0  0  0  0  0  0  0  0  0  0  0  0
  -27.2164  -21.2559   21.2255 C   0  0  0  0  0  0  0  0  0  0  0  0
  -27.4241  -20.4966   23.6294 C   0  0  0  0  0  0  0  0  0  0  0  0
  -28.2157  -22.7463   23.0084 C   0  0  0  0  0  0  0  0  0  0  0  0
  -22.1242  -19.8132   21.8722 C   0  0  1  0  0  0  0  0  0  0  0  0
  -23.7262  -16.9455   19.9634 C   0  0  1  0  0  0  0  0  0  0  0  0
  -28.2436  -22.3661   21.5181 C   0  0  2  0  0  0  0  0  0  0  0  0
  -37.2952  -20.4598   24.0101 C   0  0  0  0  0  0  0  0  0  0  0  0
  -24.6804   -9.2717   20.4158 C   0  0  0  0  0  0  0  0  0  0  0  0
  -31.7510  -23.7390   26.3783 C   0  0  0  0  0  0  0  0  0  0  0  0
  -23.4805  -14.7102   24.0011 C   0  0  0  0  0  0  0  0  0  0  0  0
  -24.0672  -12.2774   23.9246 C   0  0  0  0  0  0  0  0  0  0  0  0
  -21.8913  -13.0639   22.9919 C   0  0  0  0  0  0  0  0  0  0  0  0
  -25.7293  -11.5253   17.5354 C   0  0  0  0  0  0  0  0  0  0  0  0
  -32.3439  -17.8667   22.9756 C   0  0  0  0  0  0  0  0  0  0  0  0
  -32.5145  -20.3101   24.6373 C   0  0  0  0  0  0  0  0  0  0  0  0
  -31.8019  -18.1224   21.5676 C   0  0  0  0  0  0  0  0  0  0  0  0
  -32.7093  -21.7401   25.1806 C   0  0  0  0  0  0  0  0  0  0  0  0
  -30.5292  -17.3422   21.2596 C   0  0  0  0  0  0  0  0  0  1  0  0
  -24.0313  -13.5773   21.7474 C   0  0  1  0  0  0  0  0  0  0  0  0
  -24.6778  -10.5388   19.5749 C   0  0  2  0  0  0  0  0  0  0  0  0
  -31.4576  -22.3412   25.8413 C   0  0  2  0  0  0  0  0  0  0  0  0
  -23.3837  -13.4264   23.1528 C   0  0  0  0  0  0  0  0  0  0  0  0
  -36.0352  -18.6795   22.9733 N   0  0  0  0  0  0  0  0  0  0  0  0
  -27.2560  -24.5763   21.0467 N   0  0  0  0  0  0  0  0  0  0  0  0
  -34.9003  -20.3433   24.2965 N   0  0  0  0  0  0  0  0  0  0  0  0
  -28.0376  -23.5705   20.6182 N   0  0  0  0  0  0  0  0  0  0  0  0
  -24.2900  -15.7329   20.5598 N   0  0  0  0  0  0  0  0  0  0  0  0
  -28.4201  -21.5499   23.8400 N   0  0  0  0  0  0  0  0  0  0  0  0
  -29.3747  -22.8621   18.7958 N   0  0  0  0  0  0  0  0  0  0  0  0
  -27.8276  -26.8862   17.4508 N   0  0  0  0  0  0  0  0  0  0  0  0
  -22.4710  -18.7812   20.9186 N   0  0  0  0  0  0  0  0  0  0  0  0
  -23.9305  -12.3855   20.9120 N   0  0  0  0  0  0  0  0  0  0  0  0
  -30.3478  -22.3980   24.9162 N   0  0  0  0  0  0  0  0  0  0  0  0
  -25.6465  -10.3625   18.4562 N   0  3  0  0  0  0  0  0  0  0  0  0
  -29.1197  -25.0910   16.8455 O   0  0  0  0  0  0  0  0  0  0  0  0
  -24.3559  -17.9508   22.0049 O   0  0  0  0  0  0  0  0  0  0  0  0
  -22.2179  -14.6705   20.6783 O   0  0  0  0  0  0  0  0  0  0  0  0
  -26.2100  -12.1061   20.5914 O   0  0  0  0  0  0  0  0  0  0  0  0
  -29.5428  -20.3196   25.4536 O   0  0  0  0  0  0  0  0  0  0  0  0
  -24.4606  -30.2541   20.3415 O   0  0  0  0  0  0  0  0  0  0  0  0
  -30.1227  -17.6375   19.9240 O   0  0  0  0  0  0  0  0  0  1  0  0
  -24.7791  -33.1175   25.0429 F   0  0  0  0  0  0  0  0  0  0  0  0
  -23.6201  -29.1516   22.7333 F   0  0  0  0  0  0  0  0  0  0  0  0
  1  2  1  0  0  0  0
  1  5  2  0  0  0  0
  2  6  2  0  0  0  0
  3  8  2  0  0  0  0
  3 16  1  0  0  0  0
  4  9  1  0  0  0  0
  4 16  2  0  0  0  0
  5 18  1  0  0  0  0
  6 20  1  0  0  0  0
  7 10  2  0  0  0  0
  7 19  1  0  0  0  0
  8 23  1  0  0  0  0
  9 23  2  0  0  0  0
 10 24  1  0  0  0  0
 11 12  2  0  0  0  0
 11 25  1  0  0  0  0
 12 26  1  0  0  0  0
 13 21  1  0  0  0  0
 13 24  2  0  0  0  0
 14 26  2  0  0  0  0
 14 27  1  0  0  0  0
 15 22  1  0  0  0  0
 15 65  2  0  0  0  0
 16 28  1  0  0  0  0
 17 28  1  0  0  0  0
 17 30  2  0  0  0  0
 17 32  1  0  0  0  0
 18 20  2  0  0  0  0
 18 37  1  0  0  0  0
 19 21  2  0  0  0  0
 19 38  1  0  0  0  0
 20 46  1  0  0  0  0
 21 39  1  0  0  0  0
 22 29  2  0  0  0  0
 22 56  1  0  0  0  0
 23 82  1  0  0  0  0
 24 83  1  0  0  0  0
 25 27  2  0  0  0  0
 25 82  1  0  0  0  0
 26 84  1  0  0  0  0
 27 85  1  0  0  0  0
 28 66  2  0  0  0  0
 29 57  1  0  0  0  0
 29 67  1  0  0  0  0
 30 68  1  0  0  0  0
 30 71  1  0  0  0  0
 31 49  1  0  0  0  0
 31 65  1  0  0  0  0
 31 67  2  0  0  0  0
 32 72  1  0  0  0  0
 32 77  2  0  0  0  0
 33 47  1  0  0  0  0
 33 73  1  0  0  0  0
 33 78  2  0  0  0  0
 34 61  1  0  0  0  0
 34 69  1  0  0  0  0
 34 79  2  0  0  0  0
 35 62  1  0  0  0  0
 35 74  1  0  0  0  0
 35 80  2  0  0  0  0
 36 70  1  0  0  0  0
 36 75  1  0  0  0  0
 36 81  2  0  0  0  0
 37 40  1  0  0  0  0
 38 47  1  0  0  0  0
 39 69  1  0  0  0  0
 40 42  1  0  0  0  0
 41 43  1  0  0  0  0
 41 44  1  0  0  0  0
 42 46  1  0  0  0  0
 43 48  1  0  0  0  0
 44 70  1  0  0  0  0
 45 48  1  0  0  0  0
 45 70  1  0  0  0  0
 46 73  1  0  0  0  0
 47 69  1  0  0  0  0
 48 68  1  0  0  0  0
 50 62  1  0  0  0  0
 51 63  1  0  0  0  0
 52 64  1  0  0  0  0
 53 64  1  0  0  0  0
 54 64  1  0  0  0  0
 55 76  1  0  0  0  0
 56 58  1  0  0  0  0
 57 59  1  0  0  0  0
 58 60  1  0  0  0  0
 59 63  1  0  0  0  0
 60 83  1  0  0  0  0
 61 64  1  0  0  0  0
 61 74  1  0  0  0  0
 62 76  1  0  0  0  0
 63 75  1  0  0  0  0
 66 68  1  0  0  0  0
M  CHG  1  76   1
M  ISO  4  36 100  60 101  75 100  83 101
M  END
> <Batch ID>
0084

> <Smiles>
CNC(C)C(=O)NC(C(=O)N1Cc2cc([101O:1][101CH2:1]CCc3cnc(C)nc3CCC(C)[100NH:0][100C:0](=O)N3CCCC(n4nc(-c5ccc(Oc6ccc(F)cc6F)cc5)c(C(N)=O)c4N)C3)ccc2CC1C(=O)NC1CCCc2ccccc21)C(C)(C)C

> <Shape>
0.191

> <Color>
0.085

> <Negative vol penalty>
0.000

$$$$

  -OEChem-04052318543D

 87 95  0     1  0  0  0  0  0999 V2000
  -26.9535  -32.9410   26.2098 C   0  0  0  0  0  0  0  0  0  0  0  0
  -26.6400  -31.6220   26.5217 C   0  0  0  0  0  0  0  0  0  0  0  0
  -24.4443   -8.7032   21.4635 C   0  0  0  0  0  0  0  0  0  0  0  0
  -24.1889  -10.4099   23.1544 C   0  0  0  0  0  0  0  0  0  0  0  0
  -26.9514  -33.3612   24.8804 C   0  0  0  0  0  0  0  0  0  0  0  0
  -26.3232  -30.7225   25.5044 C   0  0  0  0  0  0  0  0  0  0  0  0
  -27.6417  -24.7444   25.3330 C   0  0  0  0  0  0  0  0  0  0  0  0
  -24.0336   -7.7345   22.3792 C   0  0  0  0  0  0  0  0  0  0  0  0
  -23.7781   -9.4411   24.0701 C   0  0  0  0  0  0  0  0  0  0  0  0
  -26.8890  -23.6090   25.6296 C   0  0  0  0  0  0  0  0  0  0  0  0
  -21.1232   -6.6275   23.6970 C   0  0  0  0  0  0  0  0  0  0  0  0
  -20.1935   -5.6810   23.2662 C   0  0  0  0  0  0  0  0  0  0  0  0
  -26.3405  -23.3695   23.2927 C   0  0  0  0  0  0  0  0  0  0  0  0
  -21.7733   -3.9148   23.7377 C   0  0  0  0  0  0  0  0  0  0  0  0
  -27.6488  -18.0462   22.9772 C   0  0  0  0  0  0  0  0  0  0  0  0
  -24.5220  -10.0409   21.8511 C   0  0  0  0  0  0  0  0  0  0  0  0
  -24.1318  -11.7861   20.0319 C   0  0  0  0  0  0  0  0  0  0  0  0
  -26.6438  -32.4640   23.8454 C   0  0  0  0  0  0  0  0  0  0  0  0
  -27.7407  -25.2080   24.0132 C   0  0  0  0  0  0  0  0  0  0  0  0
  -26.3157  -31.1314   24.1599 C   0  0  0  0  0  0  0  0  0  0  0  0
  -27.0972  -24.5095   22.9816 C   0  0  0  0  0  0  0  0  0  0  0  0
  -26.3295  -18.2022   22.6283 C   0  0  0  0  0  0  0  0  0  0  0  0
  -23.7005   -8.1034   23.6825 C   0  0  0  0  0  0  0  0  0  0  0  0
  -26.2359  -22.9230   24.6098 C   0  0  0  0  0  0  0  0  0  0  0  0
  -22.3779   -6.2177   24.1481 C   0  0  0  0  0  0  0  0  0  0  0  0
  -20.5186   -4.3247   23.2866 C   0  0  0  0  0  0  0  0  0  0  0  0
  -22.7029   -4.8613   24.1684 C   0  0  0  0  0  0  0  0  0  0  0  0
  -24.9468  -11.0419   20.9058 C   0  0  0  0  0  0  0  0  0  0  0  0
  -26.3410  -18.2523   21.2215 C   0  0  0  0  0  0  0  0  0  0  0  0
  -25.0081  -12.5943   19.3497 C   0  0  0  0  0  0  0  0  0  0  0  0
  -22.7097  -11.7500   19.8528 C   0  0  0  0  0  0  0  0  0  0  0  0
  -26.9116  -27.8812   22.5065 C   0  0  0  0  0  0  0  0  0  0  0  0
  -28.4703  -26.5010   20.0190 C   0  0  0  0  0  0  0  0  0  0  0  0
  -29.5799  -23.6414   18.5229 C   0  0  0  0  0  0  0  0  0  0  0  0
  -30.4462  -14.7312   20.6579 C   0  0  0  0  0  0  0  0  0  0  0  0
  -26.6084  -32.9762   22.4273 C   0  0  0  0  0  0  0  0  0  0  0  0
  -28.5785  -26.4189   23.7061 C   0  0  0  0  0  0  0  0  0  0  0  0
  -27.1885  -24.9544   21.5456 C   0  0  0  0  0  0  0  0  0  0  0  0
  -26.6271  -31.8672   21.3785 C   0  0  0  0  0  0  0  0  0  0  0  0
  -29.5428  -12.7608   17.8333 C   0  0  0  0  0  0  0  0  0  0  0  0
  -25.6299  -30.7717   21.7421 C   0  0  0  0  0  0  0  0  0  0  0  0
  -28.1890  -12.1640   18.2216 C   0  0  0  0  0  0  0  0  0  0  0  0
  -30.4809  -12.8607   19.0342 C   0  0  0  0  0  0  0  0  0  0  0  0
  -28.5698  -12.9790   20.5858 C   0  0  0  0  0  0  0  0  0  0  0  0
  -25.9908  -30.1198   23.0823 C   0  0  1  0  0  0  0  0  0  0  0  0
  -28.1893  -27.0983   22.3968 C   0  0  1  0  0  0  0  0  0  0  0  0
  -27.5699  -12.9101   19.4189 C   0  0  2  0  0  0  0  0  0  0  0  0
  -30.7879  -22.8286   16.4790 C   0  0  0  0  0  0  0  0  0  0  0  0
  -24.4239  -19.7519   20.5723 C   0  0  0  0  0  0  0  0  0  0  0  0
  -24.1504  -17.2512   20.4826 C   0  0  0  0  0  0  0  0  0  0  0  0
  -25.5233  -18.4291   18.7770 C   0  0  0  0  0  0  0  0  0  0  0  0
  -25.9511  -26.9459   18.3561 C   0  0  0  0  0  0  0  0  0  0  0  0
  -26.8472  -25.3082   16.6877 C   0  0  0  0  0  0  0  0  0  0  0  0
  -28.0921  -27.4192   17.1533 C   0  0  0  0  0  0  0  0  0  0  0  0
  -30.2538  -17.8660   20.1865 C   0  0  0  0  0  0  0  0  0  0  0  0
  -30.4700  -19.0587   22.3514 C   0  0  0  0  0  0  0  0  0  0  0  0
  -31.7680  -22.4746   20.1383 C   0  0  0  0  0  0  0  0  0  0  0  0
  -25.1438  -18.2975   23.5550 C   0  0  0  0  0  0  0  0  0  0  0  0
  -25.2322  -19.4558   24.5511 C   0  0  0  0  0  0  0  0  0  0  0  0
  -30.2635  -16.5545   22.3316 C   0  0  0  0  0  0  0  0  0  0  0  0
  -25.4106  -20.8143   23.8832 C   0  0  0  0  0  0  0  0  0  1  0  0
  -28.0768  -25.5808   18.8889 C   0  0  1  0  0  0  0  0  0  0  0  0
  -30.9267  -23.2739   17.9265 C   0  0  2  0  0  0  0  0  0  0  0  0
  -25.1911  -18.4104   20.3140 C   0  0  0  0  0  0  0  0  0  0  0  0
  -27.2383  -26.3060   17.7987 C   0  0  0  0  0  0  0  0  0  0  0  0
  -29.7714  -17.8644   21.6578 C   0  0  0  0  0  0  0  0  0  0  0  0
  -26.2414  -11.3499   20.7913 N   0  0  0  0  0  0  0  0  0  0  0  0
  -27.5702  -18.1375   20.7115 N   0  0  0  0  0  0  0  0  0  0  0  0
  -28.3433  -18.0139   21.8038 N   0  0  0  0  0  0  0  0  0  0  0  0
  -26.2465  -12.2964   19.8373 N   0  0  0  0  0  0  0  0  0  0  0  0
  -28.0144  -26.1475   21.2969 N   0  0  0  0  0  0  0  0  0  0  0  0
  -29.8343  -13.5805   20.1341 N   0  0  0  0  0  0  0  0  0  0  0  0
  -24.8324  -13.5235   18.3863 N   0  0  0  0  0  0  0  0  0  0  0  0
  -21.9600  -10.8614   20.6354 N   0  0  0  0  0  0  0  0  0  0  0  0
  -27.0869  -29.1901   22.9132 N   0  0  0  0  0  0  0  0  0  0  0  0
  -29.3151  -24.9885   18.3946 N   0  0  0  0  0  0  0  0  0  0  0  0
  -29.7638  -15.3567   21.6942 N   0  0  0  0  0  0  0  0  0  0  0  0
  -31.5511  -22.1647   18.7016 N   0  3  0  0  0  0  0  0  0  0  0  0
  -22.1230  -12.4724   19.0116 O   0  0  0  0  0  0  0  0  0  0  0  0
  -25.8456  -27.3384   22.2404 O   0  0  0  0  0  0  0  0  0  0  0  0
  -29.1629  -27.4929   19.7780 O   0  0  0  0  0  0  0  0  0  0  0  0
  -28.8355  -22.8155   19.0465 O   0  0  0  0  0  0  0  0  0  0  0  0
  -31.5184  -15.1719   20.2299 O   0  0  0  0  0  0  0  0  0  0  0  0
  -23.2994   -7.1585   24.5762 O   0  0  0  0  0  0  0  0  0  0  0  0
  -25.5000  -21.8148   24.8967 O   0  0  0  0  0  0  0  0  0  1  0  0
  -19.6252   -3.4158   22.8743 F   0  0  0  0  0  0  0  0  0  0  0  0
  -23.9063   -4.4615   24.6018 F   0  0  0  0  0  0  0  0  0  0  0  0
  1  2  1  0  0  0  0
  1  5  2  0  0  0  0
  2  6  2  0  0  0  0
  3  8  2  0  0  0  0
  3 16  1  0  0  0  0
  4  9  1  0  0  0  0
  4 16  2  0  0  0  0
  5 18  1  0  0  0  0
  6 20  1  0  0  0  0
  7 10  2  0  0  0  0
  7 19  1  0  0  0  0
  8 23  1  0  0  0  0
  9 23  2  0  0  0  0
 10 24  1  0  0  0  0
 11 12  2  0  0  0  0
 11 25  1  0  0  0  0
 12 26  1  0  0  0  0
 13 21  1  0  0  0  0
 13 24  2  0  0  0  0
 14 26  2  0  0  0  0
 14 27  1  0  0  0  0
 15 22  2  0  0  0  0
 15 69  1  0  0  0  0
 16 28  1  0  0  0  0
 17 28  1  0  0  0  0
 17 30  2  0  0  0  0
 17 31  1  0  0  0  0
 18 20  2  0  0  0  0
 18 36  1  0  0  0  0
 19 21  2  0  0  0  0
 19 37  1  0  0  0  0
 20 45  1  0  0  0  0
 21 38  1  0  0  0  0
 22 29  1  0  0  0  0
 22 58  1  0  0  0  0
 23 84  1  0  0  0  0
 24 85  1  0  0  0  0
 25 27  2  0  0  0  0
 25 84  1  0  0  0  0
 26 86  1  0  0  0  0
 27 87  1  0  0  0  0
 28 67  2  0  0  0  0
 29 64  1  0  0  0  0
 29 68  2  0  0  0  0
 30 70  1  0  0  0  0
 30 73  1  0  0  0  0
 31 74  1  0  0  0  0
 31 79  2  0  0  0  0
 32 46  1  0  0  0  0
 32 75  1  0  0  0  0
 32 80  2  0  0  0  0
 33 62  1  0  0  0  0
 33 71  1  0  0  0  0
 33 81  2  0  0  0  0
 34 63  1  0  0  0  0
 34 76  1  0  0  0  0
 34 82  2  0  0  0  0
 35 72  1  0  0  0  0
 35 77  1  0  0  0  0
 35 83  2  0  0  0  0
 36 39  1  0  0  0  0
 37 46  1  0  0  0  0
 38 71  1  0  0  0  0
 39 41  1  0  0  0  0
 40 42  1  0  0  0  0
 40 43  1  0  0  0  0
 41 45  1  0  0  0  0
 42 47  1  0  0  0  0
 43 72  1  0  0  0  0
 44 47  1  0  0  0  0
 44 72  1  0  0  0  0
 45 75  1  0  0  0  0
 46 71  1  0  0  0  0
 47 70  1  0  0  0  0
 48 63  1  0  0  0  0
 49 64  1  0  0  0  0
 50 64  1  0  0  0  0
 51 64  1  0  0  0  0
 52 65  1  0  0  0  0
 53 65  1  0  0  0  0
 54 65  1  0  0  0  0
 55 66  1  0  0  0  0
 56 66  1  0  0  0  0
 57 78  1  0  0  0  0
 58 59  1  0  0  0  0
 59 61  1  0  0  0  0
 60 66  1  0  0  0  0
 60 77  1  0  0  0  0
 61 85  1  0  0  0  0
 62 65  1  0  0  0  0
 62 76  1  0  0  0  0
 63 78  1  0  0  0  0
 66 69  1  0  0  0  0
 67 70  1  0  0  0  0
 68 69  1  0  0  0  0
M  CHG  1  78   1
M  ISO  4  35 100  61 101  77 100  85 101
M  END
> <Batch ID>
0084

> <Smiles>
CNC(C)C(=O)NC(C(=O)N1Cc2cc([101O:1][101CH2:1]CCc3cn(C(C)(C)C[100NH:0][100C:0](=O)N4CCCC(n5nc(-c6ccc(Oc7ccc(F)cc7F)cc6)c(C(N)=O)c5N)C4)nc3C(C)(C)C)ccc2CC1C(=O)NC1CCCc2ccccc21)C(C)(C)C

> <Shape>
0.288

> <Color>
0.095

> <Negative vol penalty>
0.000

$$$$

  -OEChem-04052318543D

 86 94  0     1  0  0  0  0  0999 V2000
  -21.3458  -30.7063   16.1576 C   0  0  0  0  0  0  0  0  0  0  0  0
  -22.2962  -29.7037   15.9936 C   0  0  0  0  0  0  0  0  0  0  0  0
  -23.0679   -9.9320   19.9218 C   0  0  0  0  0  0  0  0  0  0  0  0
  -23.8533   -9.8881   22.2062 C   0  0  0  0  0  0  0  0  0  0  0  0
  -21.2824  -31.4157   17.3562 C   0  0  0  0  0  0  0  0  0  0  0  0
  -23.1845  -29.4107   17.0278 C   0  0  0  0  0  0  0  0  0  0  0  0
  -25.4400  -23.9094   18.4956 C   0  0  0  0  0  0  0  0  0  0  0  0
  -22.3203   -8.7781   20.1566 C   0  0  0  0  0  0  0  0  0  0  0  0
  -23.1056   -8.7342   22.4410 C   0  0  0  0  0  0  0  0  0  0  0  0
  -26.6516  -23.2842   18.2042 C   0  0  0  0  0  0  0  0  0  0  0  0
  -19.8799   -7.9419   23.0634 C   0  0  0  0  0  0  0  0  0  0  0  0
  -19.1358   -7.8822   24.2416 C   0  0  0  0  0  0  0  0  0  0  0  0
  -27.5308  -24.0102   20.3299 C   0  0  0  0  0  0  0  0  0  0  0  0
  -27.3158  -19.5886   19.9360 C   0  0  0  0  0  0  0  0  0  0  0  0
  -20.3743   -5.9234   24.9246 C   0  0  0  0  0  0  0  0  0  0  0  0
  -23.8344  -10.4870   20.9466 C   0  0  0  0  0  0  0  0  0  0  0  0
  -24.1893  -13.0122   20.8741 C   0  0  0  0  0  0  0  0  0  0  0  0
  -22.1640  -31.1247   18.4091 C   0  0  0  0  0  0  0  0  0  0  0  0
  -25.2682  -24.6002   19.7038 C   0  0  0  0  0  0  0  0  0  0  0  0
  -23.1337  -30.1178   18.2411 C   0  0  0  0  0  0  0  0  0  0  0  0
  -26.3153  -24.6412   20.6355 C   0  0  0  0  0  0  0  0  0  0  0  0
  -28.6721  -19.2828   19.9544 C   0  0  0  0  0  0  0  0  0  0  0  0
  -26.4684  -19.0228   20.8820 C   0  0  0  0  0  0  0  0  0  0  0  0
  -22.3392   -8.1792   21.4162 C   0  0  0  0  0  0  0  0  0  0  0  0
  -27.6982  -23.3370   19.1201 C   0  0  0  0  0  0  0  0  0  0  0  0
  -20.8712   -6.9922   22.8156 C   0  0  0  0  0  0  0  0  0  0  0  0
  -19.3830   -6.8730   25.1723 C   0  0  0  0  0  0  0  0  0  0  0  0
  -21.1184   -5.9830   23.7463 C   0  0  0  0  0  0  0  0  0  0  0  0
  -24.6074  -11.6787   20.7045 C   0  0  0  0  0  0  0  0  0  0  0  0
  -29.1275  -18.4125   20.9316 C   0  0  0  0  0  0  0  0  0  0  0  0
  -27.0224  -18.1640   21.8176 C   0  0  0  0  0  0  0  0  0  0  0  0
  -25.2815  -13.7629   20.5139 C   0  0  0  0  0  0  0  0  0  0  0  0
  -22.9265  -13.5263   21.3176 C   0  0  0  0  0  0  0  0  0  0  0  0
  -24.6566  -27.6174   20.4953 C   0  0  0  0  0  0  0  0  0  0  0  0
  -24.4555  -26.3825   23.4881 C   0  0  0  0  0  0  0  0  0  0  0  0
  -25.3194  -23.8964   25.6605 C   0  0  0  0  0  0  0  0  0  0  0  0
  -30.7728  -14.7480   20.6613 C   0  0  0  0  0  0  0  0  0  0  0  0
  -22.0881  -31.9506   19.6688 C   0  0  0  0  0  0  0  0  0  0  0  0
  -23.9461  -25.2467   20.0148 C   0  0  0  0  0  0  0  0  0  0  0  0
  -26.1748  -25.3526   21.9556 C   0  0  0  0  0  0  0  0  0  0  0  0
  -22.8208  -31.3246   20.8527 C   0  0  0  0  0  0  0  0  0  0  0  0
  -29.5952  -12.4189   18.2395 C   0  0  0  0  0  0  0  0  0  0  0  0
  -24.2028  -30.8379   20.4284 C   0  0  0  0  0  0  0  0  0  0  0  0
  -28.1610  -12.1243   18.6825 C   0  0  0  0  0  0  0  0  0  0  0  0
  -30.5268  -12.6102   19.4342 C   0  0  0  0  0  0  0  0  0  0  0  0
  -28.6448  -13.3232   20.8567 C   0  0  0  0  0  0  0  0  0  0  0  0
  -24.0984  -29.7539   19.3487 C   0  0  1  0  0  0  0  0  0  0  0  0
  -24.0545  -26.3589   21.0533 C   0  0  1  0  0  0  0  0  0  0  0  0
  -27.6566  -13.1780   19.6867 C   0  0  2  0  0  0  0  0  0  0  0  0
  -26.1595  -17.5285   22.8581 C   0  0  0  0  0  0  0  0  0  0  0  0
  -24.3214  -18.8929   19.5678 C   0  0  0  0  0  0  0  0  0  0  0  0
  -24.7396  -20.8431   21.1095 C   0  0  0  0  0  0  0  0  0  0  0  0
  -25.0356  -23.1808   28.0490 C   0  0  0  0  0  0  0  0  0  0  0  0
  -26.4900  -28.4839   24.3568 C   0  0  0  0  0  0  0  0  0  0  0  0
  -26.8730  -27.1507   26.4410 C   0  0  0  0  0  0  0  0  0  0  0  0
  -24.6190  -28.1121   25.9741 C   0  0  0  0  0  0  0  0  0  0  0  0
  -23.9638  -21.3874   24.8693 C   0  0  0  0  0  0  0  0  0  0  0  0
  -29.5964  -19.8932   18.9313 C   0  0  0  0  0  0  0  0  0  0  0  0
  -30.5740  -18.0465   20.9997 C   0  0  0  0  0  0  0  0  0  0  0  0
  -30.4552  -21.0345   19.4804 C   0  0  0  0  0  0  0  0  0  0  0  0
  -30.8646  -16.8725   21.9408 C   0  0  0  0  0  0  0  0  0  0  0  0
  -29.6390  -22.2358   19.9428 C   0  0  0  0  0  0  0  0  0  1  0  0
  -25.0142  -19.3461   20.8676 C   0  0  0  0  0  0  0  0  0  0  0  0
  -25.4326  -26.1426   24.6135 C   0  0  1  0  0  0  0  0  0  0  0  0
  -24.4915  -23.0756   26.6328 C   0  0  2  0  0  0  0  0  0  0  0  0
  -25.8573  -27.4605   25.3207 C   0  0  0  0  0  0  0  0  0  0  0  0
  -25.8669  -11.5845   20.2702 N   0  0  0  0  0  0  0  0  0  0  0  0
  -28.3348  -17.8432   21.8670 N   0  0  0  0  0  0  0  0  0  0  0  0
  -26.2497  -12.8683   20.1637 N   0  0  0  0  0  0  0  0  0  0  0  0
  -24.8650  -25.9746   22.2107 N   0  0  0  0  0  0  0  0  0  0  0  0
  -29.9920  -13.6234   20.3471 N   0  0  0  0  0  0  0  0  0  0  0  0
  -25.4987  -15.0945   20.4656 N   0  0  0  0  0  0  0  0  0  0  0  0
  -21.9132  -12.6159   21.6477 N   0  0  0  0  0  0  0  0  0  0  0  0
  -23.7346  -28.4844   19.9407 N   0  0  0  0  0  0  0  0  0  0  0  0
  -24.8057  -25.1655   25.4971 N   0  0  0  0  0  0  0  0  0  0  0  0
  -30.1883  -15.6627   21.5287 N   0  0  0  0  0  0  0  0  0  0  0  0
  -24.4957  -21.6399   26.2332 N   0  3  0  0  0  0  0  0  0  0  0  0
  -22.6979  -14.7567   21.4026 O   0  0  0  0  0  0  0  0  0  0  0  0
  -25.8679  -27.7897   20.5641 O   0  0  0  0  0  0  0  0  0  0  0  0
  -23.3660  -26.9059   23.7345 O   0  0  0  0  0  0  0  0  0  0  0  0
  -26.3236  -23.4570   25.1047 O   0  0  0  0  0  0  0  0  0  0  0  0
  -31.9046  -14.9265   20.1986 O   0  0  0  0  0  0  0  0  0  0  0  0
  -21.6096   -7.0533   21.6457 O   0  0  0  0  0  0  0  0  0  0  0  0
  -28.8820  -22.7281   18.8378 O   0  0  0  0  0  0  0  0  0  1  0  0
  -18.6694   -6.8167   26.3044 F   0  0  0  0  0  0  0  0  0  0  0  0
  -22.0702   -5.0687   23.5144 F   0  0  0  0  0  0  0  0  0  0  0  0
  1  2  1  0  0  0  0
  1  5  2  0  0  0  0
  2  6  2  0  0  0  0
  3  8  2  0  0  0  0
  3 16  1  0  0  0  0
  4  9  1  0  0  0  0
  4 16  2  0  0  0  0
  5 18  1  0  0  0  0
  6 20  1  0  0  0  0
  7 10  2  0  0  0  0
  7 19  1  0  0  0  0
  8 24  1  0  0  0  0
  9 24  2  0  0  0  0
 10 25  1  0  0  0  0
 11 12  2  0  0  0  0
 11 26  1  0  0  0  0
 12 27  1  0  0  0  0
 13 21  1  0  0  0  0
 13 25  2  0  0  0  0
 14 22  1  0  0  0  0
 14 23  2  0  0  0  0
 15 27  2  0  0  0  0
 15 28  1  0  0  0  0
 16 29  1  0  0  0  0
 17 29  1  0  0  0  0
 17 32  2  0  0  0  0
 17 33  1  0  0  0  0
 18 20  2  0  0  0  0
 18 38  1  0  0  0  0
 19 21  2  0  0  0  0
 19 39  1  0  0  0  0
 20 47  1  0  0  0  0
 21 40  1  0  0  0  0
 22 30  2  0  0  0  0
 22 58  1  0  0  0  0
 23 31  1  0  0  0  0
 23 63  1  0  0  0  0
 24 83  1  0  0  0  0
 25 84  1  0  0  0  0
 26 28  2  0  0  0  0
 26 83  1  0  0  0  0
 27 85  1  0  0  0  0
 28 86  1  0  0  0  0
 29 67  2  0  0  0  0
 30 59  1  0  0  0  0
 30 68  1  0  0  0  0
 31 50  1  0  0  0  0
 31 68  2  0  0  0  0
 32 69  1  0  0  0  0
 32 72  1  0  0  0  0
 33 73  1  0  0  0  0
 33 78  2  0  0  0  0
 34 48  1  0  0  0  0
 34 74  1  0  0  0  0
 34 79  2  0  0  0  0
 35 64  1  0  0  0  0
 35 70  1  0  0  0  0
 35 80  2  0  0  0  0
 36 65  1  0  0  0  0
 36 75  1  0  0  0  0
 36 81  2  0  0  0  0
 37 71  1  0  0  0  0
 37 76  1  0  0  0  0
 37 82  2  0  0  0  0
 38 41  1  0  0  0  0
 39 48  1  0  0  0  0
 40 70  1  0  0  0  0
 41 43  1  0  0  0  0
 42 44  1  0  0  0  0
 42 45  1  0  0  0  0
 43 47  1  0  0  0  0
 44 49  1  0  0  0  0
 45 71  1  0  0  0  0
 46 49  1  0  0  0  0
 46 71  1  0  0  0  0
 47 74  1  0  0  0  0
 48 70  1  0  0  0  0
 49 69  1  0  0  0  0
 51 63  1  0  0  0  0
 52 63  1  0  0  0  0
 53 65  1  0  0  0  0
 54 66  1  0  0  0  0
 55 66  1  0  0  0  0
 56 66  1  0  0  0  0
 57 77  1  0  0  0  0
 58 60  1  0  0  0  0
 59 61  1  0  0  0  0
 60 62  1  0  0  0  0
 61 76  1  0  0  0  0
 62 84  1  0  0  0  0
 64 66  1  0  0  0  0
 64 75  1  0  0  0  0
 65 77  1  0  0  0  0
 67 69  1  0  0  0  0
M  CHG  1  77   1
M  ISO  4  37 100  62 101  76 100  84 101
M  END
> <Batch ID>
0084

> <Smiles>
CNC(C)C(=O)NC(C(=O)N1Cc2cc([101O:1][101CH2:1]CCc3cc(C(C)C)c(C)nc3CC[100NH:0][100C:0](=O)N3CCCC(n4nc(-c5ccc(Oc6ccc(F)cc6F)cc5)c(C(N)=O)c4N)C3)ccc2CC1C(=O)NC1CCCc2ccccc21)C(C)(C)C

> <Shape>
0.265

> <Color>
0.215

> <Negative vol penalty>
0.000

$$$$

  -OEChem-04052318543D

 88 96  0     1  0  0  0  0  0999 V2000
  -17.7473  -32.5419   25.2790 C   0  0  0  0  0  0  0  0  0  0  0  0
  -19.0636  -32.3801   25.6993 C   0  0  0  0  0  0  0  0  0  0  0  0
  -26.8616  -15.0824   21.6632 C   0  0  0  0  0  0  0  0  0  0  0  0
  -26.5059  -15.0696   19.2735 C   0  0  0  0  0  0  0  0  0  0  0  0
  -17.2240  -31.7067   24.2929 C   0  0  0  0  0  0  0  0  0  0  0  0
  -19.8570  -31.3823   25.1344 C   0  0  0  0  0  0  0  0  0  0  0  0
  -26.6535  -29.9997   23.3420 C   0  0  0  0  0  0  0  0  0  0  0  0
  -26.5244  -13.7301   21.7206 C   0  0  0  0  0  0  0  0  0  0  0  0
  -26.1687  -13.7173   19.3310 C   0  0  0  0  0  0  0  0  0  0  0  0
  -27.6407  -29.0326   23.5265 C   0  0  0  0  0  0  0  0  0  0  0  0
  -25.4083  -10.3693   22.5469 C   0  0  0  0  0  0  0  0  0  0  0  0
  -24.5435   -9.9576   23.5609 C   0  0  0  0  0  0  0  0  0  0  0  0
  -26.6543  -27.7002   21.7741 C   0  0  0  0  0  0  0  0  0  0  0  0
  -30.0957  -25.5905   20.6991 C   0  0  0  0  0  0  0  0  0  0  0  0
  -22.8413  -11.4487   22.7147 C   0  0  0  0  0  0  0  0  0  0  0  0
  -26.8523  -15.7521   20.4396 C   0  0  0  0  0  0  0  0  0  0  0  0
  -28.4816  -17.6986   20.1857 C   0  0  0  0  0  0  0  0  0  0  0  0
  -18.0144  -30.7044   23.7087 C   0  0  0  0  0  0  0  0  0  0  0  0
  -25.6513  -29.8189   22.3780 C   0  0  0  0  0  0  0  0  0  0  0  0
  -19.3434  -30.5320   24.1405 C   0  0  0  0  0  0  0  0  0  0  0  0
  -25.6570  -28.6676   21.5776 C   0  0  0  0  0  0  0  0  0  0  0  0
  -31.0305  -26.3375   21.3941 C   0  0  0  0  0  0  0  0  0  0  0  0
  -26.1779  -13.0476   20.5546 C   0  0  0  0  0  0  0  0  0  0  0  0
  -27.6395  -27.8813   22.7445 C   0  0  0  0  0  0  0  0  0  0  0  0
  -24.9896  -11.3208   21.6168 C   0  0  0  0  0  0  0  0  0  0  0  0
  -23.2600  -10.4972   23.6448 C   0  0  0  0  0  0  0  0  0  0  0  0
  -23.7061  -11.8605   21.7007 C   0  0  0  0  0  0  0  0  0  0  0  0
  -27.2001  -17.1491   20.3796 C   0  0  0  0  0  0  0  0  0  0  0  0
  -30.2009  -25.5420   19.3236 C   0  0  0  0  0  0  0  0  0  0  0  0
  -32.0088  -26.9862   20.6676 C   0  0  0  0  0  0  0  0  0  0  0  0
  -28.2796  -19.0570   20.2077 C   0  0  0  0  0  0  0  0  0  0  0  0
  -29.7418  -17.0400   20.0021 C   0  0  0  0  0  0  0  0  0  0  0  0
  -22.4845  -29.5567   22.4566 C   0  0  0  0  0  0  0  0  0  0  0  0
  -22.7898  -29.6082   19.2276 C   0  0  0  0  0  0  0  0  0  0  0  0
  -24.7596  -29.0628   16.4947 C   0  0  0  0  0  0  0  0  0  0  0  0
  -25.3680  -23.5695   18.6894 C   0  0  0  0  0  0  0  0  0  0  0  0
  -17.3903  -29.7952   22.6799 C   0  0  0  0  0  0  0  0  0  0  0  0
  -24.6091  -30.8839   22.1731 C   0  0  0  0  0  0  0  0  0  0  0  0
  -24.6151  -28.4352   20.5152 C   0  0  0  0  0  0  0  0  0  0  0  0
  -18.4116  -29.0054   21.8653 C   0  0  0  0  0  0  0  0  0  0  0  0
  -24.2138  -21.7600   21.5302 C   0  0  0  0  0  0  0  0  0  0  0  0
  -19.4650  -28.3909   22.7816 C   0  0  0  0  0  0  0  0  0  0  0  0
  -24.9886  -20.4427   21.4644 C   0  0  0  0  0  0  0  0  0  0  0  0
  -23.8399  -22.2650   20.1384 C   0  0  0  0  0  0  0  0  0  0  0  0
  -25.7452  -21.0680   19.1330 C   0  0  0  0  0  0  0  0  0  0  0  0
  -20.2431  -29.4771   23.5340 C   0  0  1  0  0  0  0  0  0  0  0  0
  -23.3380  -30.3572   21.5141 C   0  0  1  0  0  0  0  0  0  0  0  0
  -26.1930  -20.5477   20.5096 C   0  0  2  0  0  0  0  0  0  0  0  0
  -24.7197  -29.1565   13.9873 C   0  0  0  0  0  0  0  0  0  0  0  0
  -34.3889  -30.5329   21.9473 C   0  0  0  0  0  0  0  0  0  0  0  0
  -35.7249  -30.3203   19.8470 C   0  0  0  0  0  0  0  0  0  0  0  0
  -36.0057  -28.6456   21.6921 C   0  0  0  0  0  0  0  0  0  0  0  0
  -21.1760  -27.0195   19.1590 C   0  0  0  0  0  0  0  0  0  0  0  0
  -21.9701  -26.6686   16.8107 C   0  0  0  0  0  0  0  0  0  0  0  0
  -20.5842  -28.6655   17.3715 C   0  0  0  0  0  0  0  0  0  0  0  0
  -26.9166  -31.0879   16.4203 C   0  0  0  0  0  0  0  0  0  0  0  0
  -30.9615  -26.4236   22.8995 C   0  0  0  0  0  0  0  0  0  0  0  0
  -29.2190  -24.7520   18.5280 C   0  0  0  0  0  0  0  0  0  0  0  0
  -33.0491  -27.8101   21.3482 C   0  0  0  0  0  0  0  0  0  0  0  0
  -27.9722  -25.5431   18.0840 C   0  0  0  0  0  0  0  0  0  0  0  0
  -33.8374  -28.6823   20.3516 C   0  0  0  0  0  0  0  0  0  0  0  0
  -26.9933  -24.7434   17.2268 C   0  0  0  0  0  0  0  0  0  0  0  0
  -29.8778  -27.3846   23.3762 C   0  0  0  0  0  0  0  0  0  1  0  0
  -22.9857  -28.5636   18.1555 C   0  0  1  0  0  0  0  0  0  0  0  0
  -25.0380  -29.9125   15.2679 C   0  0  2  0  0  0  0  0  0  0  0  0
  -34.9942  -29.5301   20.9451 C   0  0  0  0  0  0  0  0  0  0  0  0
  -21.6977  -27.7325   17.8954 C   0  0  0  0  0  0  0  0  0  0  0  0
  -26.2540  -18.0822   20.5150 N   0  0  0  0  0  0  0  0  0  0  0  0
  -31.1688  -26.1869   18.6385 N   0  0  0  0  0  0  0  0  0  0  0  0
  -32.0877  -26.9208   19.3217 N   0  0  0  0  0  0  0  0  0  0  0  0
  -26.9416  -19.2317   20.4060 N   0  0  0  0  0  0  0  0  0  0  0  0
  -23.6135  -29.5027   20.3573 N   0  0  0  0  0  0  0  0  0  0  0  0
  -25.0266  -22.3431   19.2831 N   0  0  0  0  0  0  0  0  0  0  0  0
  -29.1178  -20.1070   20.0765 N   0  0  0  0  0  0  0  0  0  0  0  0
  -29.7703  -15.6388   20.0061 N   0  0  0  0  0  0  0  0  0  0  0  0
  -21.2261  -30.0882   22.6653 N   0  0  0  0  0  0  0  0  0  0  0  0
  -23.4870  -29.2716   16.9825 N   0  0  0  0  0  0  0  0  0  0  0  0
  -26.5107  -23.5577   17.8990 N   0  0  0  0  0  0  0  0  0  0  0  0
  -26.4722  -30.3156   15.2316 N   0  3  0  0  0  0  0  0  0  0  0  0
  -30.8134  -17.6754   19.8557 O   0  0  0  0  0  0  0  0  0  0  0  0
  -22.9337  -28.5319   22.9564 O   0  0  0  0  0  0  0  0  0  0  0  0
  -21.9421  -30.4896   19.0655 O   0  0  0  0  0  0  0  0  0  0  0  0
  -25.5870  -28.2884   16.9703 O   0  0  0  0  0  0  0  0  0  0  0  0
  -24.7066  -24.5999   18.8559 O   0  0  0  0  0  0  0  0  0  0  0  0
  -25.8490  -11.7280   20.6102 O   0  0  0  0  0  0  0  0  0  0  0  0
  -28.6015  -26.9354   22.9229 O   0  0  0  0  0  0  0  0  0  1  0  0
  -22.4291  -10.1006   24.6177 F   0  0  0  0  0  0  0  0  0  0  0  0
  -23.2978  -12.7740   20.8094 F   0  0  0  0  0  0  0  0  0  0  0  0
  1  2  1  0  0  0  0
  1  5  2  0  0  0  0
  2  6  2  0  0  0  0
  3  8  2  0  0  0  0
  3 16  1  0  0  0  0
  4  9  1  0  0  0  0
  4 16  2  0  0  0  0
  5 18  1  0  0  0  0
  6 20  1  0  0  0  0
  7 10  2  0  0  0  0
  7 19  1  0  0  0  0
  8 23  1  0  0  0  0
  9 23  2  0  0  0  0
 10 24  1  0  0  0  0
 11 12  2  0  0  0  0
 11 25  1  0  0  0  0
 12 26  1  0  0  0  0
 13 21  1  0  0  0  0
 13 24  2  0  0  0  0
 14 22  1  0  0  0  0
 14 29  2  0  0  0  0
 15 26  2  0  0  0  0
 15 27  1  0  0  0  0
 16 28  1  0  0  0  0
 17 28  1  0  0  0  0
 17 31  2  0  0  0  0
 17 32  1  0  0  0  0
 18 20  2  0  0  0  0
 18 37  1  0  0  0  0
 19 21  2  0  0  0  0
 19 38  1  0  0  0  0
 20 46  1  0  0  0  0
 21 39  1  0  0  0  0
 22 30  2  0  0  0  0
 22 57  1  0  0  0  0
 23 85  1  0  0  0  0
 24 86  1  0  0  0  0
 25 27  2  0  0  0  0
 25 85  1  0  0  0  0
 26 87  1  0  0  0  0
 27 88  1  0  0  0  0
 28 68  2  0  0  0  0
 29 58  1  0  0  0  0
 29 69  1  0  0  0  0
 30 59  1  0  0  0  0
 30 70  1  0  0  0  0
 31 71  1  0  0  0  0
 31 74  1  0  0  0  0
 32 75  1  0  0  0  0
 32 80  2  0  0  0  0
 33 47  1  0  0  0  0
 33 76  1  0  0  0  0
 33 81  2  0  0  0  0
 34 64  1  0  0  0  0
 34 72  1  0  0  0  0
 34 82  2  0  0  0  0
 35 65  1  0  0  0  0
 35 77  1  0  0  0  0
 35 83  2  0  0  0  0
 36 73  1  0  0  0  0
 36 78  1  0  0  0  0
 36 84  2  0  0  0  0
 37 40  1  0  0  0  0
 38 47  1  0  0  0  0
 39 72  1  0  0  0  0
 40 42  1  0  0  0  0
 41 43  1  0  0  0  0
 41 44  1  0  0  0  0
 42 46  1  0  0  0  0
 43 48  1  0  0  0  0
 44 73  1  0  0  0  0
 45 48  1  0  0  0  0
 45 73  1  0  0  0  0
 46 76  1  0  0  0  0
 47 72  1  0  0  0  0
 48 71  1  0  0  0  0
 49 65  1  0  0  0  0
 50 66  1  0  0  0  0
 51 66  1  0  0  0  0
 52 66  1  0  0  0  0
 53 67  1  0  0  0  0
 54 67  1  0  0  0  0
 55 67  1  0  0  0  0
 56 79  1  0  0  0  0
 57 63  1  0  0  0  0
 58 60  1  0  0  0  0
 59 61  1  0  0  0  0
 60 62  1  0  0  0  0
 61 66  1  0  0  0  0
 62 78  1  0  0  0  0
 63 86  1  0  0  0  0
 64 67  1  0  0  0  0
 64 77  1  0  0  0  0
 65 79  1  0  0  0  0
 68 71  1  0  0  0  0
 69 70  2  0  0  0  0
M  CHG  1  79   1
M  ISO  4  36 100  63 101  78 100  86 101
M  END
> <Batch ID>
0084

> <Smiles>
CNC(C)C(=O)NC(C(=O)N1Cc2cc([101O:1][101CH2:1]Cc3cc(CCC[100NH:0][100C:0](=O)N4CCCC(n5nc(-c6ccc(Oc7ccc(F)cc7F)cc6)c(C(N)=O)c5N)C4)nnc3CCC(C)(C)C)ccc2CC1C(=O)NC1CCCc2ccccc21)C(C)(C)C

> <Shape>
0.230

> <Color>
0.095

> <Negative vol penalty>
0.000

$$$$

  -OEChem-04052318543D

 85 93  0     1  0  0  0  0  0999 V2000
  -26.4612  -26.9389   26.5995 C   0  0  0  0  0  0  0  0  0  0  0  0
  -26.5987  -25.9001   25.6843 C   0  0  0  0  0  0  0  0  0  0  0  0
  -22.2332  -21.4886   22.0038 C   0  0  0  0  0  0  0  0  0  0  0  0
  -24.0653  -21.1483   23.5416 C   0  0  0  0  0  0  0  0  0  0  0  0
  -26.5155  -28.2621   26.1637 C   0  0  0  0  0  0  0  0  0  0  0  0
  -26.7894  -26.1841   24.3325 C   0  0  0  0  0  0  0  0  0  0  0  0
  -30.4293  -23.3479   22.2463 C   0  0  0  0  0  0  0  0  0  0  0  0
  -21.7076  -22.4679   22.8466 C   0  0  0  0  0  0  0  0  0  0  0  0
  -23.5397  -22.1277   24.3844 C   0  0  0  0  0  0  0  0  0  0  0  0
  -30.1019  -22.0334   21.9166 C   0  0  0  0  0  0  0  0  0  0  0  0
  -22.3016  -25.7187   23.5621 C   0  0  0  0  0  0  0  0  0  0  0  0
  -21.8617  -26.9073   22.9795 C   0  0  0  0  0  0  0  0  0  0  0  0
  -29.8071  -22.6907   19.6144 C   0  0  0  0  0  0  0  0  0  0  0  0
  -30.5572  -15.8308   20.7872 C   0  0  0  0  0  0  0  0  0  0  0  0
  -19.6385  -26.5035   23.8347 C   0  0  0  0  0  0  0  0  0  0  0  0
  -23.4120  -20.8287   22.3513 C   0  0  0  0  0  0  0  0  0  0  0  0
  -24.8724  -20.0024   20.4299 C   0  0  0  0  0  0  0  0  0  0  0  0
  -26.7167  -28.5625   24.8072 C   0  0  0  0  0  0  0  0  0  0  0  0
  -30.4374  -24.3474   21.2629 C   0  0  0  0  0  0  0  0  0  0  0  0
  -26.8451  -27.5126   23.8779 C   0  0  0  0  0  0  0  0  0  0  0  0
  -30.1375  -24.0166   19.9337 C   0  0  0  0  0  0  0  0  0  0  0  0
  -31.4167  -16.6048   20.0275 C   0  0  0  0  0  0  0  0  0  0  0  0
  -22.3609  -22.7875   24.0369 C   0  0  0  0  0  0  0  0  0  0  0  0
  -29.7879  -21.7052   20.6010 C   0  0  0  0  0  0  0  0  0  0  0  0
  -21.4100  -24.9225   24.2809 C   0  0  0  0  0  0  0  0  0  0  0  0
  -20.5301  -27.2997   23.1159 C   0  0  0  0  0  0  0  0  0  0  0  0
  -20.0784  -25.3149   24.4173 C   0  0  0  0  0  0  0  0  0  0  0  0
  -23.9551  -19.8166   21.4814 C   0  0  0  0  0  0  0  0  0  0  0  0
  -30.7963  -14.4728   20.8511 C   0  0  0  0  0  0  0  0  0  0  0  0
  -32.4587  -15.9695   19.3823 C   0  0  0  0  0  0  0  0  0  0  0  0
  -25.0686  -18.7427   19.9188 C   0  0  0  0  0  0  0  0  0  0  0  0
  -25.4919  -21.2060   19.9574 C   0  0  0  0  0  0  0  0  0  0  0  0
  -28.8203  -27.0429   20.7907 C   0  0  0  0  0  0  0  0  0  0  0  0
  -30.9028  -27.4033   18.3298 C   0  0  0  0  0  0  0  0  0  0  0  0
  -33.0211  -25.9407   16.0892 C   0  0  0  0  0  0  0  0  0  0  0  0
  -25.9610  -13.2815   20.6426 C   0  0  0  0  0  0  0  0  0  0  0  0
  -26.7210  -30.0079   24.3767 C   0  0  0  0  0  0  0  0  0  0  0  0
  -30.8188  -25.7554   21.6299 C   0  0  0  0  0  0  0  0  0  0  0  0
  -30.1517  -25.0487   18.8370 C   0  0  0  0  0  0  0  0  0  0  0  0
  -27.3008  -30.2262   22.9815 C   0  0  0  0  0  0  0  0  0  0  0  0
  -22.5896  -14.4182   20.7782 C   0  0  0  0  0  0  0  0  0  0  0  0
  -26.7208  -29.2146   21.9981 C   0  0  0  0  0  0  0  0  0  0  0  0
  -22.7203  -15.9379   20.8928 C   0  0  0  0  0  0  0  0  0  0  0  0
  -23.6933  -13.6971   21.5489 C   0  0  0  0  0  0  0  0  0  0  0  0
  -25.1953  -15.6376   21.3202 C   0  0  0  0  0  0  0  0  0  0  0  0
  -27.0782  -27.7805   22.4069 C   0  0  1  0  0  0  0  0  0  0  0  0
  -30.2945  -26.7932   20.6423 C   0  0  1  0  0  0  0  0  0  0  0  0
  -24.1371  -16.4091   20.5133 C   0  0  2  0  0  0  0  0  0  0  0  0
  -33.4244  -16.7385   18.5453 C   0  0  0  0  0  0  0  0  0  0  0  0
  -30.6575  -12.9363   22.8289 C   0  0  0  0  0  0  0  0  0  0  0  0
  -34.5525  -26.4895   14.1784 C   0  0  0  0  0  0  0  0  0  0  0  0
  -28.4867  -27.7799   16.5048 C   0  0  0  0  0  0  0  0  0  0  0  0
  -29.9908  -27.3718   14.5454 C   0  0  0  0  0  0  0  0  0  0  0  0
  -30.3959  -29.3270   16.0406 C   0  0  0  0  0  0  0  0  0  0  0  0
  -35.3807  -24.8741   17.5222 C   0  0  0  0  0  0  0  0  0  0  0  0
  -31.2009  -18.0935   19.9244 C   0  0  0  0  0  0  0  0  0  0  0  0
  -30.0560  -18.4865   18.9883 C   0  0  0  0  0  0  0  0  0  0  0  0
  -29.1841  -12.4875   20.8271 C   0  0  0  0  0  0  0  0  0  0  0  0
  -28.2575  -13.0267   19.7371 C   0  0  0  0  0  0  0  0  0  0  0  0
  -29.7899  -19.9870   18.9566 C   0  0  0  0  0  0  0  0  0  1  0  0
  -29.8999  -13.5948   21.6552 C   0  0  2  0  0  0  0  0  0  0  0  0
  -30.9195  -26.9988   16.8755 C   0  0  1  0  0  0  0  0  0  0  0  0
  -34.4438  -26.2772   15.6804 C   0  0  2  0  0  0  0  0  0  0  0  0
  -29.9460  -27.8501   16.0123 C   0  0  0  0  0  0  0  0  0  0  0  0
  -23.5934  -18.5395   21.6305 N   0  0  0  0  0  0  0  0  0  0  0  0
  -31.8240  -13.8778   20.2093 N   0  0  0  0  0  0  0  0  0  0  0  0
  -32.6690  -14.6386   19.4629 N   0  0  0  0  0  0  0  0  0  0  0  0
  -24.2870  -17.9114   20.6659 N   0  0  0  0  0  0  0  0  0  0  0  0
  -30.5247  -26.4126   19.2471 N   0  0  0  0  0  0  0  0  0  0  0  0
  -25.0116  -14.1888   21.1411 N   0  0  0  0  0  0  0  0  0  0  0  0
  -25.8317  -18.2762   18.9076 N   0  0  0  0  0  0  0  0  0  0  0  0
  -25.1791  -22.4137   20.5962 N   0  0  0  0  0  0  0  0  0  0  0  0
  -28.4474  -27.4790   22.0478 N   0  0  0  0  0  0  0  0  0  0  0  0
  -32.3128  -27.0679   16.4486 N   0  0  0  0  0  0  0  0  0  0  0  0
  -27.1824  -13.8314   20.2730 N   0  0  0  0  0  0  0  0  0  0  0  0
  -35.3685  -25.1744   16.0673 N   0  3  0  0  0  0  0  0  0  0  0  0
  -26.2864  -21.2128   18.9867 O   0  0  0  0  0  0  0  0  0  0  0  0
  -28.0765  -26.8554   19.8351 O   0  0  0  0  0  0  0  0  0  0  0  0
  -31.2205  -28.5539   18.6412 O   0  0  0  0  0  0  0  0  0  0  0  0
  -32.5809  -24.7933   16.0862 O   0  0  0  0  0  0  0  0  0  0  0  0
  -25.7349  -12.0719   20.5299 O   0  0  0  0  0  0  0  0  0  0  0  0
  -21.8485  -23.7432   24.8594 O   0  0  0  0  0  0  0  0  0  0  0  0
  -29.4674  -20.4230   20.2766 O   0  0  0  0  0  0  0  0  0  1  0  0
  -20.1082  -28.4419   22.5577 F   0  0  0  0  0  0  0  0  0  0  0  0
  -19.2174  -24.5548   25.1077 F   0  0  0  0  0  0  0  0  0  0  0  0
  1  2  1  0  0  0  0
  1  5  2  0  0  0  0
  2  6  2  0  0  0  0
  3  8  2  0  0  0  0
  3 16  1  0  0  0  0
  4  9  1  0  0  0  0
  4 16  2  0  0  0  0
  5 18  1  0  0  0  0
  6 20  1  0  0  0  0
  7 10  2  0  0  0  0
  7 19  1  0  0  0  0
  8 23  1  0  0  0  0
  9 23  2  0  0  0  0
 10 24  1  0  0  0  0
 11 12  2  0  0  0  0
 11 25  1  0  0  0  0
 12 26  1  0  0  0  0
 13 21  1  0  0  0  0
 13 24  2  0  0  0  0
 14 22  1  0  0  0  0
 14 29  2  0  0  0  0
 15 26  2  0  0  0  0
 15 27  1  0  0  0  0
 16 28  1  0  0  0  0
 17 28  1  0  0  0  0
 17 31  2  0  0  0  0
 17 32  1  0  0  0  0
 18 20  2  0  0  0  0
 18 37  1  0  0  0  0
 19 21  2  0  0  0  0
 19 38  1  0  0  0  0
 20 46  1  0  0  0  0
 21 39  1  0  0  0  0
 22 30  2  0  0  0  0
 22 56  1  0  0  0  0
 23 82  1  0  0  0  0
 24 83  1  0  0  0  0
 25 27  2  0  0  0  0
 25 82  1  0  0  0  0
 26 84  1  0  0  0  0
 27 85  1  0  0  0  0
 28 65  2  0  0  0  0
 29 61  1  0  0  0  0
 29 66  1  0  0  0  0
 30 49  1  0  0  0  0
 30 67  1  0  0  0  0
 31 68  1  0  0  0  0
 31 71  1  0  0  0  0
 32 72  1  0  0  0  0
 32 77  2  0  0  0  0
 33 47  1  0  0  0  0
 33 73  1  0  0  0  0
 33 78  2  0  0  0  0
 34 62  1  0  0  0  0
 34 69  1  0  0  0  0
 34 79  2  0  0  0  0
 35 63  1  0  0  0  0
 35 74  1  0  0  0  0
 35 80  2  0  0  0  0
 36 70  1  0  0  0  0
 36 75  1  0  0  0  0
 36 81  2  0  0  0  0
 37 40  1  0  0  0  0
 38 47  1  0  0  0  0
 39 69  1  0  0  0  0
 40 42  1  0  0  0  0
 41 43  1  0  0  0  0
 41 44  1  0  0  0  0
 42 46  1  0  0  0  0
 43 48  1  0  0  0  0
 44 70  1  0  0  0  0
 45 48  1  0  0  0  0
 45 70  1  0  0  0  0
 46 73  1  0  0  0  0
 47 69  1  0  0  0  0
 48 68  1  0  0  0  0
 50 61  1  0  0  0  0
 51 63  1  0  0  0  0
 52 64  1  0  0  0  0
 53 64  1  0  0  0  0
 54 64  1  0  0  0  0
 55 76  1  0  0  0  0
 56 57  1  0  0  0  0
 57 60  1  0  0  0  0
 58 59  1  0  0  0  0
 58 61  1  0  0  0  0
 59 75  1  0  0  0  0
 60 83  1  0  0  0  0
 62 64  1  0  0  0  0
 62 74  1  0  0  0  0
 63 76  1  0  0  0  0
 65 68  1  0  0  0  0
 66 67  2  0  0  0  0
M  CHG  1  76   1
M  ISO  4  36 100  60 101  75 100  83 101
M  END
> <Batch ID>
0084

> <Smiles>
CNC(C)C(=O)NC(C(=O)N1Cc2cc([101O:1][101CH2:1]CCc3cc(C(C)CC[100NH:0][100C:0](=O)N4CCCC(n5nc(-c6ccc(Oc7ccc(F)cc7F)cc6)c(C(N)=O)c5N)C4)nnc3C)ccc2CC1C(=O)NC1CCCc2ccccc21)C(C)(C)C

> <Shape>
0.204

> <Color>
0.063

> <Negative vol penalty>
0.000

$$$$

  -OEChem-04052318543D

 84 92  0     1  0  0  0  0  0999 V2000
  -22.6143  -33.0886   24.9743 C   0  0  0  0  0  0  0  0  0  0  0  0
  -23.5869  -32.1666   24.6010 C   0  0  0  0  0  0  0  0  0  0  0  0
  -26.5907  -13.7215   22.3208 C   0  0  0  0  0  0  0  0  0  0  0  0
  -26.5169  -12.7818   20.0963 C   0  0  0  0  0  0  0  0  0  0  0  0
  -21.2658  -32.7383   24.9201 C   0  0  0  0  0  0  0  0  0  0  0  0
  -23.2116  -30.8932   24.1743 C   0  0  0  0  0  0  0  0  0  0  0  0
  -25.7253  -29.4120   20.0352 C   0  0  0  0  0  0  0  0  0  0  0  0
  -26.0890  -12.5287   22.8415 C   0  0  0  0  0  0  0  0  0  0  0  0
  -26.0152  -11.5889   20.6170 C   0  0  0  0  0  0  0  0  0  0  0  0
  -27.0322  -28.9598   20.2117 C   0  0  0  0  0  0  0  0  0  0  0  0
  -23.0424  -10.4002   21.7035 C   0  0  0  0  0  0  0  0  0  0  0  0
  -21.9671   -9.8063   21.0429 C   0  0  0  0  0  0  0  0  0  0  0  0
  -26.2517  -26.6799   20.1028 C   0  0  0  0  0  0  0  0  0  0  0  0
  -23.2976   -7.8271   20.6562 C   0  0  0  0  0  0  0  0  0  0  0  0
  -29.1004  -25.3303   16.8924 C   0  0  0  0  0  0  0  0  0  0  0  0
  -26.8046  -13.8481   20.9483 C   0  0  0  0  0  0  0  0  0  0  0  0
  -28.6743  -15.4232   20.2198 C   0  0  0  0  0  0  0  0  0  0  0  0
  -20.8734  -31.4632   24.4833 C   0  0  0  0  0  0  0  0  0  0  0  0
  -24.6685  -28.5000   19.9018 C   0  0  0  0  0  0  0  0  0  0  0  0
  -21.8567  -30.5250   24.1155 C   0  0  0  0  0  0  0  0  0  0  0  0
  -24.9326  -27.1231   19.9221 C   0  0  0  0  0  0  0  0  0  0  0  0
  -25.8013  -11.4624   21.9895 C   0  0  0  0  0  0  0  0  0  0  0  0
  -27.2952  -27.5936   20.2485 C   0  0  0  0  0  0  0  0  0  0  0  0
  -24.2455   -9.7075   21.8404 C   0  0  0  0  0  0  0  0  0  0  0  0
  -22.0946   -8.5198   20.5192 C   0  0  0  0  0  0  0  0  0  0  0  0
  -24.3730   -8.4210   21.3168 C   0  0  0  0  0  0  0  0  0  0  0  0
  -27.3223  -15.0802   20.4098 C   0  0  0  0  0  0  0  0  0  0  0  0
  -29.9699  -24.2985   16.6151 C   0  0  0  0  0  0  0  0  0  0  0  0
  -31.3951  -25.0656   18.2307 C   0  0  0  0  0  0  0  0  0  0  0  0
  -30.5259  -26.0978   18.5074 C   0  0  0  0  0  0  0  0  0  0  0  0
  -28.6359  -16.6881   19.6858 C   0  0  0  0  0  0  0  0  0  0  0  0
  -29.8591  -14.6662   20.5007 C   0  0  0  0  0  0  0  0  0  0  0  0
  -22.0355  -27.8591   21.5633 C   0  0  0  0  0  0  0  0  0  0  0  0
  -26.4327  -20.3204   16.0469 C   0  0  0  0  0  0  0  0  0  0  0  0
  -21.4196  -25.8691   19.0767 C   0  0  0  0  0  0  0  0  0  0  0  0
  -22.6325  -24.0107   16.4840 C   0  0  0  0  0  0  0  0  0  0  0  0
  -19.4061  -31.1145   24.4866 C   0  0  0  0  0  0  0  0  0  0  0  0
  -23.2679  -29.0039   19.6853 C   0  0  0  0  0  0  0  0  0  0  0  0
  -23.8361  -26.1029   19.7633 C   0  0  0  0  0  0  0  0  0  0  0  0
  -19.0737  -29.8707   23.6665 C   0  0  0  0  0  0  0  0  0  0  0  0
  -24.8182  -19.9624   19.2257 C   0  0  0  0  0  0  0  0  0  0  0  0
  -20.0519  -28.7443   23.9848 C   0  0  0  0  0  0  0  0  0  0  0  0
  -25.4144  -18.6727   19.7880 C   0  0  0  0  0  0  0  0  0  0  0  0
  -24.6553  -19.8883   17.7108 C   0  0  0  0  0  0  0  0  0  0  0  0
  -26.5129  -18.2629   17.5407 C   0  0  0  0  0  0  0  0  0  0  0  0
  -21.4880  -29.1422   23.6236 C   0  0  1  0  0  0  0  0  0  0  0  0
  -22.2000  -27.9866   20.0752 C   0  0  1  0  0  0  0  0  0  0  0  0
  -26.7227  -18.3072   19.0646 C   0  0  2  0  0  0  0  0  0  0  0  0
  -32.6781  -24.9099   18.9734 C   0  0  0  0  0  0  0  0  0  0  0  0
  -27.4130  -18.9181   14.2867 C   0  0  0  0  0  0  0  0  0  0  0  0
  -21.8906  -22.4625   14.6538 C   0  0  0  0  0  0  0  0  0  0  0  0
  -21.0566  -23.6320   21.1197 C   0  0  0  0  0  0  0  0  0  0  0  0
  -21.2669  -21.9830   19.2476 C   0  0  0  0  0  0  0  0  0  0  0  0
  -19.3883  -23.6242   19.2565 C   0  0  0  0  0  0  0  0  0  0  0  0
  -23.6623  -25.8183   14.3790 C   0  0  0  0  0  0  0  0  0  0  0  0
  -29.6475  -23.3028   15.5566 C   0  0  0  0  0  0  0  0  0  0  0  0
  -30.8317  -27.1195   19.5755 C   0  0  0  0  0  0  0  0  0  0  0  0
  -28.8616  -22.0738   16.0545 C   0  0  0  0  0  0  0  0  0  0  0  0
  -28.5368  -21.0823   14.9282 C   0  0  0  0  0  0  0  0  0  0  0  0
  -29.6194  -27.9772   19.9215 C   0  0  0  0  0  0  0  0  0  1  0  0
  -27.7346  -19.8751   15.4299 C   0  0  1  0  0  0  0  0  0  0  0  0
  -21.7333  -24.4272   18.7584 C   0  0  1  0  0  0  0  0  0  0  0  0
  -22.1993  -23.9024   15.0331 C   0  0  2  0  0  0  0  0  0  0  0  0
  -20.8819  -23.4355   19.6005 C   0  0  0  0  0  0  0  0  0  0  0  0
  -29.3628  -26.2485   17.8434 N   0  0  0  0  0  0  0  0  0  0  0  0
  -26.4859  -16.0490   20.0277 N   0  0  0  0  0  0  0  0  0  0  0  0
  -31.1329  -24.1476   17.2794 N   0  0  0  0  0  0  0  0  0  0  0  0
  -27.3147  -17.0133   19.5924 N   0  0  0  0  0  0  0  0  0  0  0  0
  -22.4824  -26.6451   19.5604 N   0  0  0  0  0  0  0  0  0  0  0  0
  -25.9142  -19.5168   17.0624 N   0  0  0  0  0  0  0  0  0  0  0  0
  -29.6038  -17.5427   19.2918 N   0  0  0  0  0  0  0  0  0  0  0  0
  -29.7182  -13.3836   21.0481 N   0  0  0  0  0  0  0  0  0  0  0  0
  -21.6966  -29.0404   22.1951 N   0  0  0  0  0  0  0  0  0  0  0  0
  -21.5671  -24.2821   17.3162 N   0  0  0  0  0  0  0  0  0  0  0  0
  -23.2749  -24.4054   14.1325 N   0  3  0  0  0  0  0  0  0  0  0  0
  -31.0090  -15.1202   20.2885 O   0  0  0  0  0  0  0  0  0  0  0  0
  -22.2022  -26.7694   22.0984 O   0  0  0  0  0  0  0  0  0  0  0  0
  -25.8956  -21.3536   15.6392 O   0  0  0  0  0  0  0  0  0  0  0  0
  -20.2754  -26.2932   18.8960 O   0  0  0  0  0  0  0  0  0  0  0  0
  -23.7987  -23.8652   16.8437 O   0  0  0  0  0  0  0  0  0  0  0  0
  -25.3120  -10.2982   22.4972 O   0  0  0  0  0  0  0  0  0  0  0  0
  -28.5699  -27.1495   20.4213 O   0  0  0  0  0  0  0  0  0  1  0  0
  -21.0613   -7.9490   19.8862 F   0  0  0  0  0  0  0  0  0  0  0  0
  -25.5259   -7.7502   21.4462 F   0  0  0  0  0  0  0  0  0  0  0  0
  1  2  1  0  0  0  0
  1  5  2  0  0  0  0
  2  6  2  0  0  0  0
  3  8  2  0  0  0  0
  3 16  1  0  0  0  0
  4  9  1  0  0  0  0
  4 16  2  0  0  0  0
  5 18  1  0  0  0  0
  6 20  1  0  0  0  0
  7 10  2  0  0  0  0
  7 19  1  0  0  0  0
  8 22  1  0  0  0  0
  9 22  2  0  0  0  0
 10 23  1  0  0  0  0
 11 12  2  0  0  0  0
 11 24  1  0  0  0  0
 12 25  1  0  0  0  0
 13 21  1  0  0  0  0
 13 23  2  0  0  0  0
 14 25  2  0  0  0  0
 14 26  1  0  0  0  0
 15 28  1  0  0  0  0
 15 65  2  0  0  0  0
 16 27  1  0  0  0  0
 17 27  1  0  0  0  0
 17 31  2  0  0  0  0
 17 32  1  0  0  0  0
 18 20  2  0  0  0  0
 18 37  1  0  0  0  0
 19 21  2  0  0  0  0
 19 38  1  0  0  0  0
 20 46  1  0  0  0  0
 21 39  1  0  0  0  0
 22 81  1  0  0  0  0
 23 82  1  0  0  0  0
 24 26  2  0  0  0  0
 24 81  1  0  0  0  0
 25 83  1  0  0  0  0
 26 84  1  0  0  0  0
 27 66  2  0  0  0  0
 28 56  1  0  0  0  0
 28 67  2  0  0  0  0
 29 30  2  0  0  0  0
 29 49  1  0  0  0  0
 29 67  1  0  0  0  0
 30 57  1  0  0  0  0
 30 65  1  0  0  0  0
 31 68  1  0  0  0  0
 31 71  1  0  0  0  0
 32 72  1  0  0  0  0
 32 76  2  0  0  0  0
 33 47  1  0  0  0  0
 33 73  1  0  0  0  0
 33 77  2  0  0  0  0
 34 61  1  0  0  0  0
 34 70  1  0  0  0  0
 34 78  2  0  0  0  0
 35 62  1  0  0  0  0
 35 69  1  0  0  0  0
 35 79  2  0  0  0  0
 36 63  1  0  0  0  0
 36 74  1  0  0  0  0
 36 80  2  0  0  0  0
 37 40  1  0  0  0  0
 38 47  1  0  0  0  0
 39 69  1  0  0  0  0
 40 42  1  0  0  0  0
 41 43  1  0  0  0  0
 41 44  1  0  0  0  0
 42 46  1  0  0  0  0
 43 48  1  0  0  0  0
 44 70  1  0  0  0  0
 45 48  1  0  0  0  0
 45 70  1  0  0  0  0
 46 73  1  0  0  0  0
 47 69  1  0  0  0  0
 48 68  1  0  0  0  0
 50 61  1  0  0  0  0
 51 63  1  0  0  0  0
 52 64  1  0  0  0  0
 53 64  1  0  0  0  0
 54 64  1  0  0  0  0
 55 75  1  0  0  0  0
 56 58  1  0  0  0  0
 57 60  1  0  0  0  0
 58 59  1  0  0  0  0
 59 61  1  0  0  0  0
 60 82  1  0  0  0  0
 62 64  1  0  0  0  0
 62 74  1  0  0  0  0
 63 75  1  0  0  0  0
 66 68  1  0  0  0  0
M  CHG  1  75   1
M  ISO  4  34 100  60 101  61 100  82 101
M  END
> <Batch ID>
0084

> <Smiles>
CNC(C)C(=O)NC(C(=O)N1Cc2cc([101O:1][101CH2:1]Cc3ncc(CCC[100CH:0](C)[100C:0](=O)N4CCCC(n5nc(-c6ccc(Oc7ccc(F)cc7F)cc6)c(C(N)=O)c5N)C4)nc3C)ccc2CC1C(=O)NC1CCCc2ccccc21)C(C)(C)C

> <Shape>
0.226

> <Color>
0.087

> <Negative vol penalty>
0.000

$$$$

  -OEChem-04052318543D

 89 97  0     1  0  0  0  0  0999 V2000
  -26.5750  -34.2058   25.7028 C   0  0  0  0  0  0  0  0  0  0  0  0
  -27.1485  -32.9530   25.5106 C   0  0  0  0  0  0  0  0  0  0  0  0
  -25.1191  -14.8509   21.7467 C   0  0  0  0  0  0  0  0  0  0  0  0
  -25.5638  -13.6796   19.6810 C   0  0  0  0  0  0  0  0  0  0  0  0
  -25.2719  -34.4485   25.2705 C   0  0  0  0  0  0  0  0  0  0  0  0
  -26.4187  -31.9417   24.8869 C   0  0  0  0  0  0  0  0  0  0  0  0
  -28.5949  -27.5863   21.1719 C   0  0  0  0  0  0  0  0  0  0  0  0
  -24.1387  -13.9123   22.0680 C   0  0  0  0  0  0  0  0  0  0  0  0
  -24.5833  -12.7408   20.0023 C   0  0  0  0  0  0  0  0  0  0  0  0
  -28.9416  -26.2538   21.3910 C   0  0  0  0  0  0  0  0  0  0  0  0
  -24.2920  -10.0295   21.9983 C   0  0  0  0  0  0  0  0  0  0  0  0
  -24.5992   -8.6824   21.8070 C   0  0  0  0  0  0  0  0  0  0  0  0
  -35.6328  -21.6989   19.2590 C   0  0  0  0  0  0  0  0  0  0  0  0
  -26.7612  -25.5663   20.6212 C   0  0  0  0  0  0  0  0  0  0  0  0
  -22.7575   -8.4828   20.2560 C   0  0  0  0  0  0  0  0  0  0  0  0
  -34.4992  -22.3376   19.7110 C   0  0  0  0  0  0  0  0  0  0  0  0
  -25.8316  -14.7346   20.5531 C   0  0  0  0  0  0  0  0  0  0  0  0
  -28.2128  -15.6499   20.5456 C   0  0  0  0  0  0  0  0  0  0  0  0
  -24.5292  -33.4425   24.6325 C   0  0  0  0  0  0  0  0  0  0  0  0
  -27.3228  -27.9201   20.6854 C   0  0  0  0  0  0  0  0  0  0  0  0
  -25.1039  -32.1707   24.4469 C   0  0  0  0  0  0  0  0  0  0  0  0
  -26.4018  -26.9036   20.3944 C   0  0  0  0  0  0  0  0  0  0  0  0
  -35.2281  -20.7665   18.2722 C   0  0  0  0  0  0  0  0  0  0  0  0
  -23.8708  -12.8572   21.1958 C   0  0  0  0  0  0  0  0  0  0  0  0
  -28.0237  -25.2437   21.1183 C   0  0  0  0  0  0  0  0  0  0  0  0
  -23.2175  -10.6032   21.3186 C   0  0  0  0  0  0  0  0  0  0  0  0
  -23.8320   -7.9091   20.9358 C   0  0  0  0  0  0  0  0  0  0  0  0
  -22.4503   -9.8299   20.4474 C   0  0  0  0  0  0  0  0  0  0  0  0
  -26.8442  -15.7043   20.2204 C   0  0  0  0  0  0  0  0  0  0  0  0
  -33.8595  -20.8640   18.1509 C   0  0  0  0  0  0  0  0  0  0  0  0
  -28.7395  -16.7983   20.0068 C   0  0  0  0  0  0  0  0  0  0  0  0
  -28.9427  -14.6507   21.2699 C   0  0  0  0  0  0  0  0  0  0  0  0
  -24.8689  -29.6088   21.7946 C   0  0  0  0  0  0  0  0  0  0  0  0
  -23.6598  -29.0657   18.8340 C   0  0  0  0  0  0  0  0  0  0  0  0
  -23.6246  -27.1191   16.0311 C   0  0  0  0  0  0  0  0  0  0  0  0
  -29.1831  -20.4443   15.8050 C   0  0  0  0  0  0  0  0  0  0  0  0
  -23.1074  -33.7377   24.2250 C   0  0  0  0  0  0  0  0  0  0  0  0
  -26.9736  -29.3605   20.4292 C   0  0  0  0  0  0  0  0  0  0  0  0
  -25.0302  -27.2078   19.8515 C   0  0  0  0  0  0  0  0  0  0  0  0
  -22.5344  -32.7252   23.2366 C   0  0  0  0  0  0  0  0  0  0  0  0
  -26.4558  -20.8675   18.0543 C   0  0  0  0  0  0  0  0  0  0  0  0
  -22.8407  -31.3021   23.6923 C   0  0  0  0  0  0  0  0  0  0  0  0
  -26.4229  -19.5556   18.8403 C   0  0  0  0  0  0  0  0  0  0  0  0
  -26.8434  -20.6414   16.5947 C   0  0  0  0  0  0  0  0  0  0  0  0
  -28.0682  -18.5850   17.1821 C   0  0  0  0  0  0  0  0  0  0  0  0
  -24.3530  -31.0555   23.7521 C   0  0  1  0  0  0  0  0  0  0  0  0
  -25.4700  -29.6179   20.4176 C   0  0  1  0  0  0  0  0  0  0  0  0
  -27.7367  -18.7686   18.6729 C   0  0  2  0  0  0  0  0  0  0  0  0
  -22.5054  -26.9051   13.7952 C   0  0  0  0  0  0  0  0  0  0  0  0
  -37.8656  -16.4970   18.5282 C   0  0  0  0  0  0  0  0  0  0  0  0
  -36.8089  -17.0984   16.3413 C   0  0  0  0  0  0  0  0  0  0  0  0
  -29.2592  -21.1996   21.7933 C   0  0  0  0  0  0  0  0  0  0  0  0
  -21.1598  -27.9649   20.1934 C   0  0  0  0  0  0  0  0  0  0  0  0
  -20.5171  -26.9210   18.0104 C   0  0  0  0  0  0  0  0  0  0  0  0
  -20.7140  -29.4009   18.1950 C   0  0  0  0  0  0  0  0  0  0  0  0
  -26.1893  -27.4314   14.5876 C   0  0  0  0  0  0  0  0  0  0  0  0
  -36.1163  -19.8607   17.5171 C   0  0  0  0  0  0  0  0  0  0  0  0
  -32.9251  -20.1273   17.2735 C   0  0  0  0  0  0  0  0  0  0  0  0
  -36.5752  -18.6461   18.3560 C   0  0  0  0  0  0  0  0  0  0  0  0
  -32.4682  -20.9004   16.0139 C   0  0  0  0  0  0  0  0  0  0  0  0
  -31.3550  -21.7114   20.5156 C   0  0  0  0  0  0  0  0  0  0  0  0
  -31.9970  -22.2566   19.2323 C   0  0  0  0  0  0  0  0  0  0  0  0
  -31.5382  -20.1074   15.0983 C   0  0  0  0  0  0  0  0  0  0  0  0
  -29.7359  -23.5946   21.1883 C   0  0  0  0  0  0  0  0  0  1  0  0
  -22.8097  -27.9868   18.2077 C   0  0  1  0  0  0  0  0  0  0  0  0
  -23.6922  -27.4747   14.5568 C   0  0  2  0  0  0  0  0  0  0  0  0
  -37.4767  -17.6514   17.6012 C   0  0  0  0  0  0  0  0  0  0  0  0
  -29.8873  -22.1319   20.7494 C   0  0  2  0  0  0  0  0  0  0  0  0
  -21.3252  -28.0625   18.6637 C   0  0  0  0  0  0  0  0  0  0  0  0
  -26.5216  -16.8005   19.5288 N   0  0  0  0  0  0  0  0  0  0  0  0
  -33.4272  -21.8223   19.0301 N   0  0  0  0  0  0  0  0  0  0  0  0
  -27.6950  -17.4456   19.4151 N   0  0  0  0  0  0  0  0  0  0  0  0
  -24.7339  -28.6318   19.6238 N   0  0  0  0  0  0  0  0  0  0  0  0
  -28.0985  -19.8912   16.5056 N   0  0  0  0  0  0  0  0  0  0  0  0
  -29.9896  -17.3074   19.9864 N   0  0  0  0  0  0  0  0  0  0  0  0
  -28.2468  -13.5346   21.7539 N   0  0  0  0  0  0  0  0  0  0  0  0
  -24.8828  -30.8395   22.4228 N   0  0  0  0  0  0  0  0  0  0  0  0
  -22.9986  -28.1038   16.7658 N   0  0  0  0  0  0  0  0  0  0  0  0
  -30.3369  -19.6707   15.7745 N   0  0  0  0  0  0  0  0  0  0  0  0
  -24.9422  -26.9354   13.9507 N   0  3  0  0  0  0  0  0  0  0  0  0
  -30.1723  -14.7530   21.4957 O   0  0  0  0  0  0  0  0  0  0  0  0
  -24.4239  -28.5629   22.2527 O   0  0  0  0  0  0  0  0  0  0  0  0
  -23.3853  -30.2499   18.6241 O   0  0  0  0  0  0  0  0  0  0  0  0
  -24.0782  -26.0709   16.4849 O   0  0  0  0  0  0  0  0  0  0  0  0
  -29.1290  -21.5483   15.2525 O   0  0  0  0  0  0  0  0  0  0  0  0
  -22.9143  -11.9409   21.5091 O   0  0  0  0  0  0  0  0  0  0  0  0
  -28.3593  -23.9423   21.3318 O   0  0  0  0  0  0  0  0  0  1  0  0
  -24.1280   -6.6159   20.7509 F   0  0  0  0  0  0  0  0  0  0  0  0
  -21.4176  -10.3758   19.7907 F   0  0  0  0  0  0  0  0  0  0  0  0
  1  2  1  0  0  0  0
  1  5  2  0  0  0  0
  2  6  2  0  0  0  0
  3  8  2  0  0  0  0
  3 17  1  0  0  0  0
  4  9  1  0  0  0  0
  4 17  2  0  0  0  0
  5 19  1  0  0  0  0
  6 21  1  0  0  0  0
  7 10  2  0  0  0  0
  7 20  1  0  0  0  0
  8 24  1  0  0  0  0
  9 24  2  0  0  0  0
 10 25  1  0  0  0  0
 11 12  2  0  0  0  0
 11 26  1  0  0  0  0
 12 27  1  0  0  0  0
 13 16  2  0  0  0  0
 13 23  1  0  0  0  0
 14 22  1  0  0  0  0
 14 25  2  0  0  0  0
 15 27  2  0  0  0  0
 15 28  1  0  0  0  0
 16 71  1  0  0  0  0
 17 29  1  0  0  0  0
 18 29  1  0  0  0  0
 18 31  2  0  0  0  0
 18 32  1  0  0  0  0
 19 21  2  0  0  0  0
 19 37  1  0  0  0  0
 20 22  2  0  0  0  0
 20 38  1  0  0  0  0
 21 46  1  0  0  0  0
 22 39  1  0  0  0  0
 23 30  2  0  0  0  0
 23 57  1  0  0  0  0
 24 86  1  0  0  0  0
 25 87  1  0  0  0  0
 26 28  2  0  0  0  0
 26 86  1  0  0  0  0
 27 88  1  0  0  0  0
 28 89  1  0  0  0  0
 29 70  2  0  0  0  0
 30 58  1  0  0  0  0
 30 71  1  0  0  0  0
 31 72  1  0  0  0  0
 31 75  1  0  0  0  0
 32 76  1  0  0  0  0
 32 81  2  0  0  0  0
 33 47  1  0  0  0  0
 33 77  1  0  0  0  0
 33 82  2  0  0  0  0
 34 65  1  0  0  0  0
 34 73  1  0  0  0  0
 34 83  2  0  0  0  0
 35 66  1  0  0  0  0
 35 78  1  0  0  0  0
 35 84  2  0  0  0  0
 36 74  1  0  0  0  0
 36 79  1  0  0  0  0
 36 85  2  0  0  0  0
 37 40  1  0  0  0  0
 38 47  1  0  0  0  0
 39 73  1  0  0  0  0
 40 42  1  0  0  0  0
 41 43  1  0  0  0  0
 41 44  1  0  0  0  0
 42 46  1  0  0  0  0
 43 48  1  0  0  0  0
 44 74  1  0  0  0  0
 45 48  1  0  0  0  0
 45 74  1  0  0  0  0
 46 77  1  0  0  0  0
 47 73  1  0  0  0  0
 48 72  1  0  0  0  0
 49 66  1  0  0  0  0
 50 67  1  0  0  0  0
 51 67  1  0  0  0  0
 52 68  1  0  0  0  0
 53 69  1  0  0  0  0
 54 69  1  0  0  0  0
 55 69  1  0  0  0  0
 56 80  1  0  0  0  0
 57 59  1  0  0  0  0
 58 60  1  0  0  0  0
 59 67  1  0  0  0  0
 60 63  1  0  0  0  0
 61 62  1  0  0  0  0
 61 68  1  0  0  0  0
 62 71  1  0  0  0  0
 63 79  1  0  0  0  0
 64 68  1  0  0  0  0
 64 87  1  0  0  0  0
 65 69  1  0  0  0  0
 65 78  1  0  0  0  0
 66 80  1  0  0  0  0
 70 72  1  0  0  0  0
M  CHG  1  80   1
M  ISO  4  36 100  64 101  79 100  87 101
M  END
> <Batch ID>
0084

> <Smiles>
CNC(C)C(=O)NC(C(=O)N1Cc2cc([101O:1][101CH2:1]C(C)CCn3ccc(CCC(C)C)c3CCC[100NH:0][100C:0](=O)N3CCCC(n4nc(-c5ccc(Oc6ccc(F)cc6F)cc5)c(C(N)=O)c4N)C3)ccc2CC1C(=O)NC1CCCc2ccccc21)C(C)(C)C

> <Shape>
0.239

> <Color>
0.056

> <Negative vol penalty>
0.000

$$$$

  -OEChem-04052318543D

 85 93  0     1  0  0  0  0  0999 V2000
  -31.3051  -15.7741   21.5762 C   0  0  0  0  0  0  0  0  0  0  0  0
  -30.1046  -16.2944   22.0464 C   0  0  0  0  0  0  0  0  0  0  0  0
  -28.7796  -26.3568   19.5346 C   0  0  0  0  0  0  0  0  0  0  0  0
  -26.7197  -25.3796   18.7353 C   0  0  0  0  0  0  0  0  0  0  0  0
  -31.2945  -14.7074   20.6800 C   0  0  0  0  0  0  0  0  0  0  0  0
  -28.8936  -15.7407   21.6298 C   0  0  0  0  0  0  0  0  0  0  0  0
  -24.8098  -17.3930   23.8197 C   0  0  0  0  0  0  0  0  0  0  0  0
  -19.6503  -24.4448   21.9403 C   0  0  0  0  0  0  0  0  0  0  0  0
  -29.4113  -25.1184   19.4209 C   0  0  0  0  0  0  0  0  0  0  0  0
  -27.3514  -24.1411   18.6217 C   0  0  0  0  0  0  0  0  0  0  0  0
  -24.2877  -18.6635   23.5807 C   0  0  0  0  0  0  0  0  0  0  0  0
  -28.2763  -21.6185   20.6740 C   0  0  0  0  0  0  0  0  0  0  0  0
  -27.5981  -20.4986   21.1549 C   0  0  0  0  0  0  0  0  0  0  0  0
  -19.1526  -25.6884   22.3130 C   0  0  0  0  0  0  0  0  0  0  0  0
  -22.5816  -17.6921   22.1789 C   0  0  0  0  0  0  0  0  0  0  0  0
  -27.6460  -19.5210   18.9460 C   0  0  0  0  0  0  0  0  0  0  0  0
  -27.4338  -26.4874   19.1918 C   0  0  0  0  0  0  0  0  0  0  0  0
  -26.6878  -28.7674   18.3241 C   0  0  0  0  0  0  0  0  0  0  0  0
  -30.0819  -14.1490   20.2430 C   0  0  0  0  0  0  0  0  0  0  0  0
  -24.2274  -16.2617   23.2303 C   0  0  0  0  0  0  0  0  0  0  0  0
  -28.8625  -14.6483   20.7442 C   0  0  0  0  0  0  0  0  0  0  0  0
  -23.0967  -16.4081   22.4141 C   0  0  0  0  0  0  0  0  0  0  0  0
  -20.8824  -24.0213   22.4260 C   0  0  0  0  0  0  0  0  0  0  0  0
  -28.6972  -24.0106   18.9645 C   0  0  0  0  0  0  0  0  0  0  0  0
  -23.1752  -18.8135   22.7579 C   0  0  0  0  0  0  0  0  0  0  0  0
  -28.6393  -21.6898   19.3290 C   0  0  0  0  0  0  0  0  0  0  0  0
  -27.2830  -19.4498   20.2910 C   0  0  0  0  0  0  0  0  0  0  0  0
  -28.3242  -20.6410   18.4651 C   0  0  0  0  0  0  0  0  0  0  0  0
  -26.7806  -27.7663   19.3095 C   0  0  0  0  0  0  0  0  0  0  0  0
  -19.9196  -26.4645   23.1669 C   0  0  0  0  0  0  0  0  0  0  0  0
  -21.5721  -24.8721   23.2747 C   0  0  0  0  0  0  0  0  0  0  0  0
  -25.9751  -29.7759   18.9253 C   0  0  0  0  0  0  0  0  0  0  0  0
  -27.2000  -28.7841   16.9851 C   0  0  0  0  0  0  0  0  0  0  0  0
  -25.2172  -14.0350   21.1894 C   0  0  0  0  0  0  0  0  0  0  0  0
  -22.3338  -12.7032   21.8487 C   0  0  0  0  0  0  0  0  0  0  0  0
  -19.1201  -13.1318   22.9141 C   0  0  0  0  0  0  0  0  0  0  0  0
  -22.0227  -29.8552   23.4223 C   0  0  0  0  0  0  0  0  0  0  0  0
  -30.1287  -12.9905   19.2782 C   0  0  0  0  0  0  0  0  0  0  0  0
  -24.7863  -14.8956   23.5196 C   0  0  0  0  0  0  0  0  0  0  0  0
  -22.4221  -15.2235   21.7737 C   0  0  0  0  0  0  0  0  0  0  0  0
  -28.8042  -12.7638   18.5567 C   0  0  0  0  0  0  0  0  0  0  0  0
  -25.0747  -31.6778   23.2221 C   0  0  0  0  0  0  0  0  0  0  0  0
  -27.6631  -12.7332   19.5625 C   0  0  0  0  0  0  0  0  0  0  0  0
  -25.8496  -30.9723   22.1078 C   0  0  0  0  0  0  0  0  0  0  0  0
  -24.2662  -30.6898   24.0601 C   0  0  0  0  0  0  0  0  0  0  0  0
  -24.1393  -29.1098   22.1730 C   0  0  0  0  0  0  0  0  0  0  0  0
  -27.5324  -14.0820   20.2813 C   0  0  1  0  0  0  0  0  0  0  0  0
  -24.4251  -13.8645   22.4548 C   0  0  1  0  0  0  0  0  0  0  0  0
  -24.9259  -30.0715   21.2660 C   0  0  2  0  0  0  0  0  0  0  0  0
  -24.6784  -24.9502   25.5659 C   0  0  0  0  0  0  0  0  0  0  0  0
  -16.9906  -11.8647   23.3104 C   0  0  0  0  0  0  0  0  0  0  0  0
  -21.8191  -12.6327   18.8420 C   0  0  0  0  0  0  0  0  0  0  0  0
  -19.3915  -12.2713   19.3365 C   0  0  0  0  0  0  0  0  0  0  0  0
  -21.0773  -10.5876   20.0756 C   0  0  0  0  0  0  0  0  0  0  0  0
  -19.1233  -13.7991   25.7975 C   0  0  0  0  0  0  0  0  0  0  0  0
  -21.4281  -22.6742   22.0244 C   0  0  0  0  0  0  0  0  0  0  0  0
  -19.4150  -27.8041   23.5888 C   0  0  0  0  0  0  0  0  0  0  0  0
  -22.8987  -24.4686   23.8295 C   0  0  0  0  0  0  0  0  0  0  0  0
  -23.3436  -25.3828   24.9802 C   0  0  0  0  0  0  0  0  0  0  0  0
  -20.7641  -21.5003   22.7473 C   0  0  0  0  0  0  0  0  0  0  0  0
  -19.8453  -28.9429   22.6570 C   0  0  0  0  0  0  0  0  0  0  0  0
  -21.2616  -20.1398   22.2731 C   0  0  0  0  0  0  0  0  0  1  0  0
  -20.9461  -12.8148   21.2650 C   0  0  1  0  0  0  0  0  0  0  0  0
  -18.2850  -12.3706   23.9279 C   0  0  2  0  0  0  0  0  0  0  0  0
  -20.8221  -12.0993   19.8901 C   0  0  0  0  0  0  0  0  0  0  0  0
  -26.1754  -28.1079   20.4502 N   0  0  0  0  0  0  0  0  0  0  0  0
  -21.1208  -26.0871   23.6591 N   0  0  0  0  0  0  0  0  0  0  0  0
  -25.6955  -29.3350   20.1853 N   0  0  0  0  0  0  0  0  0  0  0  0
  -23.0098  -13.9092   22.0818 N   0  0  0  0  0  0  0  0  0  0  0  0
  -23.4099  -29.8672   23.2021 N   0  0  0  0  0  0  0  0  0  0  0  0
  -25.5666  -30.9881   18.4938 N   0  0  0  0  0  0  0  0  0  0  0  0
  -27.9093  -27.6654   16.5270 N   0  0  0  0  0  0  0  0  0  0  0  0
  -26.5850  -13.9490   21.3660 N   0  0  0  0  0  0  0  0  0  0  0  0
  -20.0325  -12.3115   22.2850 N   0  0  0  0  0  0  0  0  0  0  0  0
  -21.2837  -29.0541   22.5604 N   0  0  0  0  0  0  0  0  0  0  0  0
  -17.9431  -13.2495   25.0819 N   0  3  0  0  0  0  0  0  0  0  0  0
  -27.0477  -29.7687   16.2230 O   0  0  0  0  0  0  0  0  0  0  0  0
  -24.6308  -14.2286   20.1310 O   0  0  0  0  0  0  0  0  0  0  0  0
  -22.7981  -11.5873   22.0956 O   0  0  0  0  0  0  0  0  0  0  0  0
  -18.9749  -14.3331   22.6990 O   0  0  0  0  0  0  0  0  0  0  0  0
  -21.4821  -30.5141   24.3171 O   0  0  0  0  0  0  0  0  0  0  0  0
  -29.3133  -22.8020   18.8532 O   0  0  0  0  0  0  0  0  0  0  0  0
  -22.6640  -20.0524   22.5224 O   0  0  0  0  0  0  0  0  0  1  0  0
  -26.6331  -18.3737   20.7533 F   0  0  0  0  0  0  0  0  0  0  0  0
  -28.6714  -20.7032   17.1722 F   0  0  0  0  0  0  0  0  0  0  0  0
  1  2  1  0  0  0  0
  1  5  2  0  0  0  0
  2  6  2  0  0  0  0
  3  9  2  0  0  0  0
  3 17  1  0  0  0  0
  4 10  1  0  0  0  0
  4 17  2  0  0  0  0
  5 19  1  0  0  0  0
  6 21  1  0  0  0  0
  7 11  2  0  0  0  0
  7 20  1  0  0  0  0
  8 14  2  0  0  0  0
  8 23  1  0  0  0  0
  9 24  1  0  0  0  0
 10 24  2  0  0  0  0
 11 25  1  0  0  0  0
 12 13  2  0  0  0  0
 12 26  1  0  0  0  0
 13 27  1  0  0  0  0
 14 30  1  0  0  0  0
 15 22  1  0  0  0  0
 15 25  2  0  0  0  0
 16 27  2  0  0  0  0
 16 28  1  0  0  0  0
 17 29  1  0  0  0  0
 18 29  1  0  0  0  0
 18 32  2  0  0  0  0
 18 33  1  0  0  0  0
 19 21  2  0  0  0  0
 19 38  1  0  0  0  0
 20 22  2  0  0  0  0
 20 39  1  0  0  0  0
 21 47  1  0  0  0  0
 22 40  1  0  0  0  0
 23 31  2  0  0  0  0
 23 56  1  0  0  0  0
 24 82  1  0  0  0  0
 25 83  1  0  0  0  0
 26 28  2  0  0  0  0
 26 82  1  0  0  0  0
 27 84  1  0  0  0  0
 28 85  1  0  0  0  0
 29 66  2  0  0  0  0
 30 57  1  0  0  0  0
 30 67  2  0  0  0  0
 31 58  1  0  0  0  0
 31 67  1  0  0  0  0
 32 68  1  0  0  0  0
 32 71  1  0  0  0  0
 33 72  1  0  0  0  0
 33 77  2  0  0  0  0
 34 48  1  0  0  0  0
 34 73  1  0  0  0  0
 34 78  2  0  0  0  0
 35 63  1  0  0  0  0
 35 69  1  0  0  0  0
 35 79  2  0  0  0  0
 36 64  1  0  0  0  0
 36 74  1  0  0  0  0
 36 80  2  0  0  0  0
 37 70  1  0  0  0  0
 37 75  1  0  0  0  0
 37 81  2  0  0  0  0
 38 41  1  0  0  0  0
 39 48  1  0  0  0  0
 40 69  1  0  0  0  0
 41 43  1  0  0  0  0
 42 44  1  0  0  0  0
 42 45  1  0  0  0  0
 43 47  1  0  0  0  0
 44 49  1  0  0  0  0
 45 70  1  0  0  0  0
 46 49  1  0  0  0  0
 46 70  1  0  0  0  0
 47 73  1  0  0  0  0
 48 69  1  0  0  0  0
 49 68  1  0  0  0  0
 50 59  1  0  0  0  0
 51 64  1  0  0  0  0
 52 65  1  0  0  0  0
 53 65  1  0  0  0  0
 54 65  1  0  0  0  0
 55 76  1  0  0  0  0
 56 60  1  0  0  0  0
 57 61  1  0  0  0  0
 58 59  1  0  0  0  0
 60 62  1  0  0  0  0
 61 75  1  0  0  0  0
 62 83  1  0  0  0  0
 63 65  1  0  0  0  0
 63 74  1  0  0  0  0
 64 76  1  0  0  0  0
 66 68  1  0  0  0  0
M  CHG  1  76   1
M  ISO  4  37 100  62 101  75 100  83 101
M  END
> <Batch ID>
0084

> <Smiles>
CCCc1nc(CC[100NH:0][100C:0](=O)N2CCCC(n3nc(-c4ccc(Oc5ccc(F)cc5F)cc4)c(C(N)=O)c3N)C2)ccc1CC[101CH2:1][101O:1]c1ccc2c(c1)CN(C(=O)C(NC(=O)C(C)NC)C(C)(C)C)C(C(=O)NC1CCCc3ccccc31)C2

> <Shape>
0.250

> <Color>
0.056

> <Negative vol penalty>
0.000

$$$$

  -OEChem-04052318543D

 85 93  0     1  0  0  0  0  0999 V2000
  -24.0292  -29.7085   22.7977 C   0  0  0  0  0  0  0  0  0  0  0  0
  -23.7152  -28.3563   22.7053 C   0  0  0  0  0  0  0  0  0  0  0  0
  -30.4551  -19.8906   25.5771 C   0  0  0  0  0  0  0  0  0  0  0  0
  -30.0843  -20.9450   23.4352 C   0  0  0  0  0  0  0  0  0  0  0  0
  -24.9291  -30.2771   21.8972 C   0  0  0  0  0  0  0  0  0  0  0  0
  -24.3001  -27.5722   21.7116 C   0  0  0  0  0  0  0  0  0  0  0  0
  -25.9157  -21.6809   22.1455 C   0  0  0  0  0  0  0  0  0  0  0  0
  -31.0497  -21.0603   26.0500 C   0  0  0  0  0  0  0  0  0  0  0  0
  -30.6789  -22.1148   23.9081 C   0  0  0  0  0  0  0  0  0  0  0  0
  -25.2877  -20.5038   21.7406 C   0  0  0  0  0  0  0  0  0  0  0  0
  -33.8077  -23.2785   24.4437 C   0  0  0  0  0  0  0  0  0  0  0  0
  -34.7298  -23.9176   23.6149 C   0  0  0  0  0  0  0  0  0  0  0  0
  -26.5820  -20.5205   19.7050 C   0  0  0  0  0  0  0  0  0  0  0  0
  -24.1689  -13.0769   21.8190 C   0  0  0  0  0  0  0  0  0  0  0  0
  -33.3479  -25.8993   23.6056 C   0  0  0  0  0  0  0  0  0  0  0  0
  -29.9724  -19.8329   24.2696 C   0  0  0  0  0  0  0  0  0  0  0  0
  -27.9959  -18.2770   23.8449 C   0  0  0  0  0  0  0  0  0  0  0  0
  -25.5327  -29.4974   20.8980 C   0  0  0  0  0  0  0  0  0  0  0  0
  -26.8752  -22.2935   21.3268 C   0  0  0  0  0  0  0  0  0  0  0  0
  -25.2079  -28.1312   20.7961 C   0  0  0  0  0  0  0  0  0  0  0  0
  -27.2225  -21.7039   20.1029 C   0  0  0  0  0  0  0  0  0  0  0  0
  -24.9069  -12.0059   22.3105 C   0  0  0  0  0  0  0  0  0  0  0  0
  -24.4044  -13.5430   20.5303 C   0  0  0  0  0  0  0  0  0  0  0  0
  -31.1616  -22.1724   25.2156 C   0  0  0  0  0  0  0  0  0  0  0  0
  -25.6187  -19.9250   20.5189 C   0  0  0  0  0  0  0  0  0  0  0  0
  -32.6556  -23.9497   24.8534 C   0  0  0  0  0  0  0  0  0  0  0  0
  -34.4999  -25.2280   23.1959 C   0  0  0  0  0  0  0  0  0  0  0  0
  -32.4257  -25.2602   24.4344 C   0  0  0  0  0  0  0  0  0  0  0  0
  -29.3586  -18.6246   23.7803 C   0  0  0  0  0  0  0  0  0  0  0  0
  -25.8611  -11.4403   21.4802 C   0  0  0  0  0  0  0  0  0  0  0  0
  -25.3812  -12.9088   19.7798 C   0  0  0  0  0  0  0  0  0  0  0  0
  -27.9280  -17.0420   23.2477 C   0  0  0  0  0  0  0  0  0  0  0  0
  -26.8904  -19.0053   24.3953 C   0  0  0  0  0  0  0  0  0  0  0  0
  -27.1066  -25.1032   19.8584 C   0  0  0  0  0  0  0  0  0  0  0  0
  -30.0907  -24.0475   19.1490 C   0  0  0  0  0  0  0  0  0  0  0  0
  -32.1999  -21.4003   18.7133 C   0  0  0  0  0  0  0  0  0  0  0  0
  -29.3283  -13.5425   19.1321 C   0  0  0  0  0  0  0  0  0  0  0  0
  -26.4632  -30.1668   19.9179 C   0  0  0  0  0  0  0  0  0  0  0  0
  -27.5629  -23.5485   21.7900 C   0  0  0  0  0  0  0  0  0  0  0  0
  -28.2609  -22.3111   19.1965 C   0  0  0  0  0  0  0  0  0  0  0  0
  -27.3252  -29.1850   19.1284 C   0  0  0  0  0  0  0  0  0  0  0  0
  -31.5982  -13.8507   21.8577 C   0  0  0  0  0  0  0  0  0  0  0  0
  -26.4750  -28.0349   18.5981 C   0  0  0  0  0  0  0  0  0  0  0  0
  -31.1093  -15.0945   22.6020 C   0  0  0  0  0  0  0  0  0  0  0  0
  -31.4389  -13.9986   20.3462 C   0  0  0  0  0  0  0  0  0  0  0  0
  -29.5915  -15.6025   20.6433 C   0  0  0  0  0  0  0  0  0  0  0  0
  -25.8406  -27.2423   19.7474 C   0  0  1  0  0  0  0  0  0  0  0  0
  -28.1530  -24.3644   20.6439 C   0  0  1  0  0  0  0  0  0  0  0  0
  -29.6801  -15.4785   22.1740 C   0  0  2  0  0  0  0  0  0  0  0  0
  -24.6594  -11.5017   23.6902 C   0  0  0  0  0  0  0  0  0  0  0  0
  -26.6849  -10.2882   21.9545 C   0  0  0  0  0  0  0  0  0  0  0  0
  -34.5702  -20.8504   18.0993 C   0  0  0  0  0  0  0  0  0  0  0  0
  -29.4637  -24.6268   16.2196 C   0  0  0  0  0  0  0  0  0  0  0  0
  -31.4287  -23.2084   15.5909 C   0  0  0  0  0  0  0  0  0  0  0  0
  -31.7678  -25.2779   16.9418 C   0  0  0  0  0  0  0  0  0  0  0  0
  -32.6980  -20.1025   21.3261 C   0  0  0  0  0  0  0  0  0  0  0  0
  -23.6077  -14.7043   19.9913 C   0  0  0  0  0  0  0  0  0  0  0  0
  -25.6755  -13.3666   18.3887 C   0  0  0  0  0  0  0  0  0  0  0  0
  -24.0485  -16.0656   20.5406 C   0  0  0  0  0  0  0  0  0  0  0  0
  -23.1802  -17.2218   20.0424 C   0  0  0  0  0  0  0  0  0  0  0  0
  -27.1481  -13.2138   17.9929 C   0  0  0  0  0  0  0  0  0  0  0  0
  -23.6717  -18.5604   20.5764 C   0  0  0  0  0  0  0  0  0  1  0  0
  -30.7038  -23.2540   18.0206 C   0  0  1  0  0  0  0  0  0  0  0  0
  -33.5995  -21.1308   19.2359 C   0  0  2  0  0  0  0  0  0  0  0  0
  -30.8200  -24.0811   16.7092 C   0  0  0  0  0  0  0  0  0  0  0  0
  -30.1027  -17.6862   23.1890 N   0  0  0  0  0  0  0  0  0  0  0  0
  -26.1182  -11.8657   20.2230 N   0  0  0  0  0  0  0  0  0  0  0  0
  -29.2044  -16.7367   22.8765 N   0  0  0  0  0  0  0  0  0  0  0  0
  -28.9005  -23.5416   19.6908 N   0  0  0  0  0  0  0  0  0  0  0  0
  -30.0609  -14.3618   20.0069 N   0  0  0  0  0  0  0  0  0  0  0  0
  -26.9016  -16.1982   23.0092 N   0  0  0  0  0  0  0  0  0  0  0  0
  -27.1366  -20.2593   24.9709 N   0  0  0  0  0  0  0  0  0  0  0  0
  -26.8160  -26.3607   20.3522 N   0  0  0  0  0  0  0  0  0  0  0  0
  -31.9766  -22.7475   18.5223 N   0  0  0  0  0  0  0  0  0  0  0  0
  -28.0281  -13.9554   18.8684 N   0  0  0  0  0  0  0  0  0  0  0  0
  -33.5934  -19.9538   20.1500 N   0  3  0  0  0  0  0  0  0  0  0  0
  -25.7215  -18.5502   24.3921 O   0  0  0  0  0  0  0  0  0  0  0  0
  -26.6014  -24.5723   18.8763 O   0  0  0  0  0  0  0  0  0  0  0  0
  -30.6509  -25.0744   19.5403 O   0  0  0  0  0  0  0  0  0  0  0  0
  -31.3874  -20.5049   18.4927 O   0  0  0  0  0  0  0  0  0  0  0  0
  -29.7965  -12.5161   18.6278 O   0  0  0  0  0  0  0  0  0  0  0  0
  -31.7415  -23.3141   25.6768 O   0  0  0  0  0  0  0  0  0  0  0  0
  -25.0068  -18.7764   20.1211 O   0  0  0  0  0  0  0  0  0  1  0  0
  -35.3863  -25.8422   22.4013 F   0  0  0  0  0  0  0  0  0  0  0  0
  -31.3214  -25.9106   24.8256 F   0  0  0  0  0  0  0  0  0  0  0  0
  1  2  1  0  0  0  0
  1  5  2  0  0  0  0
  2  6  2  0  0  0  0
  3  8  2  0  0  0  0
  3 16  1  0  0  0  0
  4  9  1  0  0  0  0
  4 16  2  0  0  0  0
  5 18  1  0  0  0  0
  6 20  1  0  0  0  0
  7 10  2  0  0  0  0
  7 19  1  0  0  0  0
  8 24  1  0  0  0  0
  9 24  2  0  0  0  0
 10 25  1  0  0  0  0
 11 12  2  0  0  0  0
 11 26  1  0  0  0  0
 12 27  1  0  0  0  0
 13 21  1  0  0  0  0
 13 25  2  0  0  0  0
 14 22  2  0  0  0  0
 14 23  1  0  0  0  0
 15 27  2  0  0  0  0
 15 28  1  0  0  0  0
 16 29  1  0  0  0  0
 17 29  1  0  0  0  0
 17 32  2  0  0  0  0
 17 33  1  0  0  0  0
 18 20  2  0  0  0  0
 18 38  1  0  0  0  0
 19 21  2  0  0  0  0
 19 39  1  0  0  0  0
 20 47  1  0  0  0  0
 21 40  1  0  0  0  0
 22 30  1  0  0  0  0
 22 50  1  0  0  0  0
 23 31  2  0  0  0  0
 23 57  1  0  0  0  0
 24 82  1  0  0  0  0
 25 83  1  0  0  0  0
 26 28  2  0  0  0  0
 26 82  1  0  0  0  0
 27 84  1  0  0  0  0
 28 85  1  0  0  0  0
 29 66  2  0  0  0  0
 30 51  1  0  0  0  0
 30 67  2  0  0  0  0
 31 58  1  0  0  0  0
 31 67  1  0  0  0  0
 32 68  1  0  0  0  0
 32 71  1  0  0  0  0
 33 72  1  0  0  0  0
 33 77  2  0  0  0  0
 34 48  1  0  0  0  0
 34 73  1  0  0  0  0
 34 78  2  0  0  0  0
 35 63  1  0  0  0  0
 35 69  1  0  0  0  0
 35 79  2  0  0  0  0
 36 64  1  0  0  0  0
 36 74  1  0  0  0  0
 36 80  2  0  0  0  0
 37 70  1  0  0  0  0
 37 75  1  0  0  0  0
 37 81  2  0  0  0  0
 38 41  1  0  0  0  0
 39 48  1  0  0  0  0
 40 69  1  0  0  0  0
 41 43  1  0  0  0  0
 42 44  1  0  0  0  0
 42 45  1  0  0  0  0
 43 47  1  0  0  0  0
 44 49  1  0  0  0  0
 45 70  1  0  0  0  0
 46 49  1  0  0  0  0
 46 70  1  0  0  0  0
 47 73  1  0  0  0  0
 48 69  1  0  0  0  0
 49 68  1  0  0  0  0
 52 64  1  0  0  0  0
 53 65  1  0  0  0  0
 54 65  1  0  0  0  0
 55 65  1  0  0  0  0
 56 76  1  0  0  0  0
 57 59  1  0  0  0  0
 58 61  1  0  0  0  0
 59 60  1  0  0  0  0
 60 62  1  0  0  0  0
 61 75  1  0  0  0  0
 62 83  1  0  0  0  0
 63 65  1  0  0  0  0
 63 74  1  0  0  0  0
 64 76  1  0  0  0  0
 66 68  1  0  0  0  0
M  CHG  1  76   1
M  ISO  4  37 100  62 101  75 100  83 101
M  END
> <Batch ID>
0084

> <Smiles>
CNC(C)C(=O)NC(C(=O)N1Cc2cc([101O:1][101CH2:1]CCCc3cc(C)c(C)nc3CC[100NH:0][100C:0](=O)N3CCCC(n4nc(-c5ccc(Oc6ccc(F)cc6F)cc5)c(C(N)=O)c4N)C3)ccc2CC1C(=O)NC1CCCc2ccccc21)C(C)(C)C

> <Shape>
0.178

> <Color>
0.067

> <Negative vol penalty>
0.000

$$$$

  -OEChem-04052318543D

 86 94  0     1  0  0  0  0  0999 V2000
  -31.7612  -15.7490   20.0261 C   0  0  0  0  0  0  0  0  0  0  0  0
  -31.1320  -16.7168   20.8026 C   0  0  0  0  0  0  0  0  0  0  0  0
  -28.6187  -25.2371   18.9570 C   0  0  0  0  0  0  0  0  0  0  0  0
  -27.6919  -24.8714   21.1580 C   0  0  0  0  0  0  0  0  0  0  0  0
  -31.0232  -15.0096   19.1027 C   0  0  0  0  0  0  0  0  0  0  0  0
  -29.7645  -16.9465   20.6553 C   0  0  0  0  0  0  0  0  0  0  0  0
  -23.9853  -18.8543   24.4338 C   0  0  0  0  0  0  0  0  0  0  0  0
  -29.6685  -24.3684   19.2547 C   0  0  0  0  0  0  0  0  0  0  0  0
  -28.7418  -24.0026   21.4557 C   0  0  0  0  0  0  0  0  0  0  0  0
  -22.9404  -19.7771   24.4117 C   0  0  0  0  0  0  0  0  0  0  0  0
  -32.3974  -21.9672   19.3064 C   0  0  0  0  0  0  0  0  0  0  0  0
  -32.7542  -21.0262   18.3405 C   0  0  0  0  0  0  0  0  0  0  0  0
  -21.7517  -18.3844   22.8412 C   0  0  0  0  0  0  0  0  0  0  0  0
  -30.5305  -20.0864   18.4347 C   0  0  0  0  0  0  0  0  0  0  0  0
  -19.9260  -27.2967   23.8271 C   0  0  0  0  0  0  0  0  0  0  0  0
  -27.6304  -25.4887   19.9087 C   0  0  0  0  0  0  0  0  0  0  0  0
  -25.6010  -26.2558   18.5668 C   0  0  0  0  0  0  0  0  0  0  0  0
  -29.6442  -15.2237   18.9509 C   0  0  0  0  0  0  0  0  0  0  0  0
  -23.9260  -17.6930   23.6501 C   0  0  0  0  0  0  0  0  0  0  0  0
  -29.0077  -16.2102   19.7281 C   0  0  0  0  0  0  0  0  0  0  0  0
  -22.7960  -17.4472   22.8571 C   0  0  0  0  0  0  0  0  0  0  0  0
  -19.7740  -26.5612   22.6772 C   0  0  0  0  0  0  0  0  0  0  0  0
  -29.7301  -23.7511   20.5040 C   0  0  0  0  0  0  0  0  0  0  0  0
  -21.8247  -19.5436   23.6132 C   0  0  0  0  0  0  0  0  0  0  0  0
  -31.1072  -21.9677   19.8365 C   0  0  0  0  0  0  0  0  0  0  0  0
  -31.8207  -20.0859   17.9047 C   0  0  0  0  0  0  0  0  0  0  0  0
  -30.1737  -21.0273   19.4006 C   0  0  0  0  0  0  0  0  0  0  0  0
  -26.5459  -26.3865   19.6020 C   0  0  0  0  0  0  0  0  0  0  0  0
  -19.9983  -27.4833   21.6374 C   0  0  0  0  0  0  0  0  0  0  0  0
  -24.7910  -27.3570   18.7001 C   0  0  0  0  0  0  0  0  0  0  0  0
  -25.4672  -25.2305   17.5735 C   0  0  0  0  0  0  0  0  0  0  0  0
  -25.6614  -16.5037   21.2673 C   0  0  0  0  0  0  0  0  0  0  0  0
  -23.7155  -13.9367   21.6492 C   0  0  0  0  0  0  0  0  0  0  0  0
  -20.7221  -12.7057   22.7316 C   0  0  0  0  0  0  0  0  0  0  0  0
  -23.4300  -30.8788   23.3472 C   0  0  0  0  0  0  0  0  0  0  0  0
  -28.8974  -14.4326   17.9063 C   0  0  0  0  0  0  0  0  0  0  0  0
  -25.0494  -16.6944   23.7056 C   0  0  0  0  0  0  0  0  0  0  0  0
  -22.6744  -16.2059   22.0128 C   0  0  0  0  0  0  0  0  0  0  0  0
  -27.3811  -14.4772   18.0771 C   0  0  0  0  0  0  0  0  0  0  0  0
  -24.8523  -31.8856   20.2424 C   0  0  0  0  0  0  0  0  0  0  0  0
  -26.9137  -15.9080   18.3247 C   0  0  0  0  0  0  0  0  0  0  0  0
  -25.3624  -30.5786   19.6328 C   0  0  0  0  0  0  0  0  0  0  0  0
  -25.0287  -31.9075   21.7591 C   0  0  0  0  0  0  0  0  0  0  0  0
  -24.9548  -29.4461   21.8577 C   0  0  0  0  0  0  0  0  0  0  0  0
  -27.5214  -16.4714   19.6149 C   0  0  1  0  0  0  0  0  0  0  0  0
  -25.1121  -15.7965   22.4738 C   0  0  1  0  0  0  0  0  0  0  0  0
  -24.7470  -29.3540   20.3363 C   0  0  2  0  0  0  0  0  0  0  0  0
  -19.4044  -10.5749   22.8753 C   0  0  0  0  0  0  0  0  0  0  0  0
  -18.5578  -26.7173   19.7180 C   0  0  0  0  0  0  0  0  0  0  0  0
  -21.0113  -26.1556   19.7512 C   0  0  0  0  0  0  0  0  0  0  0  0
  -20.2576  -28.4745   19.2655 C   0  0  0  0  0  0  0  0  0  0  0  0
  -23.0873  -14.1270   18.6694 C   0  0  0  0  0  0  0  0  0  0  0  0
  -21.1089  -12.6441   19.0628 C   0  0  0  0  0  0  0  0  0  0  0  0
  -23.4103  -11.7978   19.5207 C   0  0  0  0  0  0  0  0  0  0  0  0
  -20.6206  -12.8316   25.6867 C   0  0  0  0  0  0  0  0  0  0  0  0
  -19.4409  -25.0946   22.5671 C   0  0  0  0  0  0  0  0  0  0  0  0
  -20.4508  -24.1763   23.2643 C   0  0  0  0  0  0  0  0  0  0  0  0
  -20.1384  -22.6910   23.0764 C   0  0  0  0  0  0  0  0  0  0  0  0
  -20.4674  -29.7017   24.2769 C   0  0  0  0  0  0  0  0  0  0  0  0
  -21.8705  -29.7022   24.8779 C   0  0  0  0  0  0  0  0  0  0  0  0
  -21.1385  -21.8117   23.8148 C   0  0  0  0  0  0  0  0  0  1  0  0
  -22.3863  -13.5080   21.0759 C   0  0  1  0  0  0  0  0  0  0  0  0
  -20.3791  -11.4998   23.5875 C   0  0  2  0  0  0  0  0  0  0  0  0
  -19.9611  -27.2342   20.1857 C   0  0  0  0  0  0  0  0  0  0  0  0
  -22.5011  -13.0437   19.5965 C   0  0  0  0  0  0  0  0  0  0  0  0
  -26.3553  -27.4843   20.3386 N   0  0  0  0  0  0  0  0  0  0  0  0
  -20.2718  -28.7110   22.0870 N   0  0  0  0  0  0  0  0  0  0  0  0
  -20.2203  -28.5653   23.4220 N   0  0  0  0  0  0  0  0  0  0  0  0
  -25.2812  -28.0534   19.7654 N   0  0  0  0  0  0  0  0  0  0  0  0
  -23.8018  -15.2628   22.0962 N   0  0  0  0  0  0  0  0  0  0  0  0
  -24.4217  -30.7201   22.3652 N   0  0  0  0  0  0  0  0  0  0  0  0
  -23.7145  -27.7878   18.0088 N   0  0  0  0  0  0  0  0  0  0  0  0
  -24.6661  -24.1181   17.8651 N   0  0  0  0  0  0  0  0  0  0  0  0
  -26.8257  -15.9488   20.7714 N   0  0  0  0  0  0  0  0  0  0  0  0
  -21.8595  -12.4929   21.9816 N   0  0  0  0  0  0  0  0  0  0  0  0
  -22.9027  -29.7022   23.8652 N   0  0  0  0  0  0  0  0  0  0  0  0
  -19.7609  -11.9351   24.8717 N   0  3  0  0  0  0  0  0  0  0  0  0
  -26.0543  -25.2910   16.4666 O   0  0  0  0  0  0  0  0  0  0  0  0
  -25.0717  -17.4797   20.8185 O   0  0  0  0  0  0  0  0  0  0  0  0
  -24.6407  -13.1228   21.7050 O   0  0  0  0  0  0  0  0  0  0  0  0
  -20.0465  -13.7324   22.7259 O   0  0  0  0  0  0  0  0  0  0  0  0
  -23.0394  -31.9869   23.7299 O   0  0  0  0  0  0  0  0  0  0  0  0
  -30.7542  -22.9031   20.7947 O   0  0  0  0  0  0  0  0  0  0  0  0
  -20.8037  -20.4430   23.5892 O   0  0  0  0  0  0  0  0  0  1  0  0
  -32.1631  -19.1833   16.9760 F   0  0  0  0  0  0  0  0  0  0  0  0
  -28.9323  -21.0237   19.9053 F   0  0  0  0  0  0  0  0  0  0  0  0
  1  2  1  0  0  0  0
  1  5  2  0  0  0  0
  2  6  2  0  0  0  0
  3  8  2  0  0  0  0
  3 16  1  0  0  0  0
  4  9  1  0  0  0  0
  4 16  2  0  0  0  0
  5 18  1  0  0  0  0
  6 20  1  0  0  0  0
  7 10  2  0  0  0  0
  7 19  1  0  0  0  0
  8 23  1  0  0  0  0
  9 23  2  0  0  0  0
 10 24  1  0  0  0  0
 11 12  2  0  0  0  0
 11 25  1  0  0  0  0
 12 26  1  0  0  0  0
 13 21  1  0  0  0  0
 13 24  2  0  0  0  0
 14 26  2  0  0  0  0
 14 27  1  0  0  0  0
 15 22  2  0  0  0  0
 15 68  1  0  0  0  0
 16 28  1  0  0  0  0
 17 28  1  0  0  0  0
 17 30  2  0  0  0  0
 17 31  1  0  0  0  0
 18 20  2  0  0  0  0
 18 36  1  0  0  0  0
 19 21  2  0  0  0  0
 19 37  1  0  0  0  0
 20 45  1  0  0  0  0
 21 38  1  0  0  0  0
 22 29  1  0  0  0  0
 22 56  1  0  0  0  0
 23 83  1  0  0  0  0
 24 84  1  0  0  0  0
 25 27  2  0  0  0  0
 25 83  1  0  0  0  0
 26 85  1  0  0  0  0
 27 86  1  0  0  0  0
 28 66  2  0  0  0  0
 29 64  1  0  0  0  0
 29 67  2  0  0  0  0
 30 69  1  0  0  0  0
 30 72  1  0  0  0  0
 31 73  1  0  0  0  0
 31 78  2  0  0  0  0
 32 46  1  0  0  0  0
 32 74  1  0  0  0  0
 32 79  2  0  0  0  0
 33 62  1  0  0  0  0
 33 70  1  0  0  0  0
 33 80  2  0  0  0  0
 34 63  1  0  0  0  0
 34 75  1  0  0  0  0
 34 81  2  0  0  0  0
 35 71  1  0  0  0  0
 35 76  1  0  0  0  0
 35 82  2  0  0  0  0
 36 39  1  0  0  0  0
 37 46  1  0  0  0  0
 38 70  1  0  0  0  0
 39 41  1  0  0  0  0
 40 42  1  0  0  0  0
 40 43  1  0  0  0  0
 41 45  1  0  0  0  0
 42 47  1  0  0  0  0
 43 71  1  0  0  0  0
 44 47  1  0  0  0  0
 44 71  1  0  0  0  0
 45 74  1  0  0  0  0
 46 70  1  0  0  0  0
 47 69  1  0  0  0  0
 48 63  1  0  0  0  0
 49 64  1  0  0  0  0
 50 64  1  0  0  0  0
 51 64  1  0  0  0  0
 52 65  1  0  0  0  0
 53 65  1  0  0  0  0
 54 65  1  0  0  0  0
 55 77  1  0  0  0  0
 56 57  1  0  0  0  0
 57 58  1  0  0  0  0
 58 61  1  0  0  0  0
 59 60  1  0  0  0  0
 59 68  1  0  0  0  0
 60 76  1  0  0  0  0
 61 84  1  0  0  0  0
 62 65  1  0  0  0  0
 62 75  1  0  0  0  0
 63 77  1  0  0  0  0
 66 69  1  0  0  0  0
 67 68  1  0  0  0  0
M  CHG  1  77   1
M  ISO  4  35 100  61 101  76 100  84 101
M  END
> <Batch ID>
0084

> <Smiles>
CNC(C)C(=O)NC(C(=O)N1Cc2cc([101O:1][101CH2:1]CCCc3cn(CC[100NH:0][100C:0](=O)N4CCCC(n5nc(-c6ccc(Oc7ccc(F)cc7F)cc6)c(C(N)=O)c5N)C4)nc3C(C)(C)C)ccc2CC1C(=O)NC1CCCc2ccccc21)C(C)(C)C

> <Shape>
0.214

> <Color>
0.061

> <Negative vol penalty>
0.000

$$$$

  -OEChem-04052318543D

 82 90  0     1  0  0  0  0  0999 V2000
  -19.3520  -33.9335   22.7759 C   0  0  0  0  0  0  0  0  0  0  0  0
  -20.6847  -33.6944   22.4561 C   0  0  0  0  0  0  0  0  0  0  0  0
  -27.5433  -17.4808   19.7308 C   0  0  0  0  0  0  0  0  0  0  0  0
  -28.9001  -17.5332   21.7291 C   0  0  0  0  0  0  0  0  0  0  0  0
  -18.5958  -32.9394   23.3954 C   0  0  0  0  0  0  0  0  0  0  0  0
  -21.2622  -32.4613   22.7566 C   0  0  0  0  0  0  0  0  0  0  0  0
  -25.5144  -29.4953   19.4964 C   0  0  0  0  0  0  0  0  0  0  0  0
  -27.3497  -16.1096   19.8982 C   0  0  0  0  0  0  0  0  0  0  0  0
  -28.7065  -16.1620   21.8965 C   0  0  0  0  0  0  0  0  0  0  0  0
  -26.8990  -29.3990   19.6280 C   0  0  0  0  0  0  0  0  0  0  0  0
  -25.4268  -14.0791   21.7988 C   0  0  0  0  0  0  0  0  0  0  0  0
  -24.1337  -13.5823   21.6358 C   0  0  0  0  0  0  0  0  0  0  0  0
  -26.6344  -27.3244   20.8301 C   0  0  0  0  0  0  0  0  0  0  0  0
  -24.9048  -12.1646   19.8379 C   0  0  0  0  0  0  0  0  0  0  0  0
  -32.1018  -29.0533   20.0717 C   0  0  0  0  0  0  0  0  0  0  0  0
  -28.3185  -18.1926   20.6463 C   0  0  0  0  0  0  0  0  0  0  0  0
  -27.7224  -20.6494   20.9876 C   0  0  0  0  0  0  0  0  0  0  0  0
  -19.1617  -31.6901   23.6949 C   0  0  0  0  0  0  0  0  0  0  0  0
  -24.6775  -28.5108   20.0412 C   0  0  0  0  0  0  0  0  0  0  0  0
  -20.5133  -31.4500   23.3819 C   0  0  0  0  0  0  0  0  0  0  0  0
  -25.2397  -27.4092   20.7019 C   0  0  0  0  0  0  0  0  0  0  0  0
  -27.9313  -15.4502   20.9810 C   0  0  0  0  0  0  0  0  0  0  0  0
  -27.4591  -28.3150   20.2974 C   0  0  0  0  0  0  0  0  0  0  0  0
  -26.4590  -13.6187   20.9812 C   0  0  0  0  0  0  0  0  0  0  0  0
  -23.8727  -12.6251   20.6554 C   0  0  0  0  0  0  0  0  0  0  0  0
  -26.1980  -12.6614   20.0008 C   0  0  0  0  0  0  0  0  0  0  0  0
  -28.5193  -19.6089   20.4736 C   0  0  0  0  0  0  0  0  0  0  0  0
  -32.9800  -29.5618   20.9865 C   0  0  0  0  0  0  0  0  0  0  0  0
  -28.3309  -21.7985   20.5453 C   0  0  0  0  0  0  0  0  0  0  0  0
  -32.3246  -27.5719   21.7014 C   0  0  0  0  0  0  0  0  0  0  0  0
  -26.5381  -20.5830   21.7930 C   0  0  0  0  0  0  0  0  0  0  0  0
  -22.4004  -28.4784   22.2587 C   0  0  0  0  0  0  0  0  0  0  0  0
  -22.0315  -25.4083   21.2786 C   0  0  0  0  0  0  0  0  0  0  0  0
  -23.4017  -22.6546   19.7998 C   0  0  0  0  0  0  0  0  0  0  0  0
  -33.6061  -23.9557   19.5288 C   0  0  0  0  0  0  0  0  0  0  0  0
  -18.3180  -30.6631   24.4078 C   0  0  0  0  0  0  0  0  0  0  0  0
  -23.1871  -28.6156   19.8674 C   0  0  0  0  0  0  0  0  0  0  0  0
  -24.3859  -26.3151   21.2870 C   0  0  0  0  0  0  0  0  0  0  0  0
  -18.8996  -29.2528   24.3532 C   0  0  0  0  0  0  0  0  0  0  0  0
  -31.4704  -22.8920   16.8860 C   0  0  0  0  0  0  0  0  0  0  0  0
  -20.3879  -29.2758   24.6869 C   0  0  0  0  0  0  0  0  0  0  0  0
  -30.4176  -22.0336   17.5895 C   0  0  0  0  0  0  0  0  0  0  0  0
  -32.8505  -22.7226   17.5176 C   0  0  0  0  0  0  0  0  0  0  0  0
  -31.8446  -22.0926   19.6774 C   0  0  0  0  0  0  0  0  0  0  0  0
  -21.1685  -30.1165   23.6694 C   0  0  1  0  0  0  0  0  0  0  0  0
  -22.4067  -27.8191   20.9086 C   0  0  1  0  0  0  0  0  0  0  0  0
  -30.4255  -22.2721   19.1115 C   0  0  2  0  0  0  0  0  0  0  0  0
  -33.7153  -30.8287   21.0223 C   0  0  0  0  0  0  0  0  0  0  0  0
  -22.8682  -20.2836   19.1745 C   0  0  0  0  0  0  0  0  0  0  0  0
  -22.3446  -24.5710   24.1959 C   0  0  0  0  0  0  0  0  0  0  0  0
  -22.7551  -22.2305   23.4075 C   0  0  0  0  0  0  0  0  0  0  0  0
  -20.5682  -23.3363   22.9411 C   0  0  0  0  0  0  0  0  0  0  0  0
  -23.8262  -23.1960   16.9213 C   0  0  0  0  0  0  0  0  0  0  0  0
  -32.1845  -26.3555   22.5403 C   0  0  0  0  0  0  0  0  0  0  0  0
  -33.5129  -25.6350   22.8591 C   0  0  0  0  0  0  0  0  0  0  0  0
  -30.7441  -26.8955   19.8440 C   0  0  0  0  0  0  0  0  0  0  0  0
  -34.2506  -25.1094   21.6295 C   0  0  0  0  0  0  0  0  0  0  0  0
  -29.3647  -26.9056   20.4937 C   0  0  0  0  0  0  0  0  0  1  0  0
  -22.6277  -24.0799   21.6771 C   0  0  1  0  0  0  0  0  0  0  0  0
  -22.8824  -21.7322   18.7117 C   0  0  2  0  0  0  0  0  0  0  0  0
  -22.0902  -23.5759   23.0462 C   0  0  0  0  0  0  0  0  0  0  0  0
  -29.5550  -20.0574   19.7592 N   0  0  0  0  0  0  0  0  0  0  0  0
  -31.7127  -27.8212   20.5391 N   0  0  0  0  0  0  0  0  0  0  0  0
  -29.4130  -21.3923   19.8212 N   0  0  0  0  0  0  0  0  0  0  0  0
  -33.0989  -28.6245   21.9841 N   0  3  0  0  0  0  0  0  0  0  0  0
  -22.9338  -26.4659   21.0967 N   0  0  0  0  0  0  0  0  0  0  0  0
  -32.7892  -22.9640   18.9611 N   0  0  0  0  0  0  0  0  0  0  0  0
  -28.0406  -23.1067   20.7090 N   0  0  0  0  0  0  0  0  0  0  0  0
  -26.0480  -19.3217   22.1579 N   0  0  0  0  0  0  0  0  0  0  0  0
  -21.3636  -29.3731   22.4431 N   0  0  0  0  0  0  0  0  0  0  0  0
  -22.3767  -23.1697   20.5649 N   0  0  0  0  0  0  0  0  0  0  0  0
  -33.4814  -24.1242   20.9024 N   0  0  0  0  0  0  0  0  0  0  0  0
  -23.7407  -21.8292   17.4973 N   0  3  0  0  0  0  0  0  0  0  0  0
  -25.9230  -21.6115   22.1639 O   0  0  0  0  0  0  0  0  0  0  0  0
  -23.2709  -28.1953   23.0735 O   0  0  0  0  0  0  0  0  0  0  0  0
  -20.8109  -25.5023   21.1271 O   0  0  0  0  0  0  0  0  0  0  0  0
  -24.5973  -22.8914   19.9578 O   0  0  0  0  0  0  0  0  0  0  0  0
  -34.3848  -24.6439   18.8601 O   0  0  0  0  0  0  0  0  0  0  0  0
  -27.7424  -14.1123   21.1448 O   0  0  0  0  0  0  0  0  0  0  0  0
  -28.8103  -28.2189   20.4278 O   0  0  0  0  0  0  0  0  0  1  0  0
  -22.6311  -12.1469   20.5001 F   0  0  0  0  0  0  0  0  0  0  0  0
  -27.1858  -12.2144   19.2132 F   0  0  0  0  0  0  0  0  0  0  0  0
  1  2  1  0  0  0  0
  1  5  2  0  0  0  0
  2  6  2  0  0  0  0
  3  8  2  0  0  0  0
  3 16  1  0  0  0  0
  4  9  1  0  0  0  0
  4 16  2  0  0  0  0
  5 18  1  0  0  0  0
  6 20  1  0  0  0  0
  7 10  2  0  0  0  0
  7 19  1  0  0  0  0
  8 22  1  0  0  0  0
  9 22  2  0  0  0  0
 10 23  1  0  0  0  0
 11 12  2  0  0  0  0
 11 24  1  0  0  0  0
 12 25  1  0  0  0  0
 13 21  1  0  0  0  0
 13 23  2  0  0  0  0
 14 25  2  0  0  0  0
 14 26  1  0  0  0  0
 15 28  2  0  0  0  0
 15 63  1  0  0  0  0
 16 27  1  0  0  0  0
 17 27  1  0  0  0  0
 17 29  2  0  0  0  0
 17 31  1  0  0  0  0
 18 20  2  0  0  0  0
 18 36  1  0  0  0  0
 19 21  2  0  0  0  0
 19 37  1  0  0  0  0
 20 45  1  0  0  0  0
 21 38  1  0  0  0  0
 22 79  1  0  0  0  0
 23 80  1  0  0  0  0
 24 26  2  0  0  0  0
 24 79  1  0  0  0  0
 25 81  1  0  0  0  0
 26 82  1  0  0  0  0
 27 62  2  0  0  0  0
 28 48  1  0  0  0  0
 28 65  1  0  0  0  0
 29 64  1  0  0  0  0
 29 68  1  0  0  0  0
 30 54  1  0  0  0  0
 30 63  1  0  0  0  0
 30 65  2  0  0  0  0
 31 69  1  0  0  0  0
 31 74  2  0  0  0  0
 32 46  1  0  0  0  0
 32 70  1  0  0  0  0
 32 75  2  0  0  0  0
 33 59  1  0  0  0  0
 33 66  1  0  0  0  0
 33 76  2  0  0  0  0
 34 60  1  0  0  0  0
 34 71  1  0  0  0  0
 34 77  2  0  0  0  0
 35 67  1  0  0  0  0
 35 72  1  0  0  0  0
 35 78  2  0  0  0  0
 36 39  1  0  0  0  0
 37 46  1  0  0  0  0
 38 66  1  0  0  0  0
 39 41  1  0  0  0  0
 40 42  1  0  0  0  0
 40 43  1  0  0  0  0
 41 45  1  0  0  0  0
 42 47  1  0  0  0  0
 43 67  1  0  0  0  0
 44 47  1  0  0  0  0
 44 67  1  0  0  0  0
 45 70  1  0  0  0  0
 46 66  1  0  0  0  0
 47 64  1  0  0  0  0
 49 60  1  0  0  0  0
 50 61  1  0  0  0  0
 51 61  1  0  0  0  0
 52 61  1  0  0  0  0
 53 73  1  0  0  0  0
 54 55  1  0  0  0  0
 55 57  1  0  0  0  0
 56 58  1  0  0  0  0
 56 63  1  0  0  0  0
 57 72  1  0  0  0  0
 58 80  1  0  0  0  0
 59 61  1  0  0  0  0
 59 71  1  0  0  0  0
 60 73  1  0  0  0  0
 62 64  1  0  0  0  0
M  CHG  2  65   1  73   1
M  ISO  4  35 100  58 101  72 100  80 101
M  END
> <Batch ID>
0084

> <Smiles>
CNC(C)C(=O)NC(C(=O)N1Cc2cc([101O:1][101CH2:1]Cn3cc(C)nc3CCC[100NH:0][100C:0](=O)N3CCCC(n4nc(-c5ccc(Oc6ccc(F)cc6F)cc5)c(C(N)=O)c4N)C3)ccc2CC1C(=O)NC1CCCc2ccccc21)C(C)(C)C

> <Shape>
0.208

> <Color>
0.083

> <Negative vol penalty>
0.000

$$$$

  -OEChem-04052318543D

 82 90  0     1  0  0  0  0  0999 V2000
  -17.2490  -32.0113   22.5734 C   0  0  0  0  0  0  0  0  0  0  0  0
  -18.4076  -32.2301   21.8350 C   0  0  0  0  0  0  0  0  0  0  0  0
  -25.4668  -12.9977   19.2723 C   0  0  0  0  0  0  0  0  0  0  0  0
  -25.0640  -14.4499   21.1607 C   0  0  0  0  0  0  0  0  0  0  0  0
  -17.2724  -31.1429   23.6639 C   0  0  0  0  0  0  0  0  0  0  0  0
  -19.5906  -31.5815   22.1875 C   0  0  0  0  0  0  0  0  0  0  0  0
  -25.5217  -28.8145   19.2751 C   0  0  0  0  0  0  0  0  0  0  0  0
  -25.2593  -11.8833   20.0851 C   0  0  0  0  0  0  0  0  0  0  0  0
  -24.8564  -13.3355   21.9734 C   0  0  0  0  0  0  0  0  0  0  0  0
  -26.9094  -28.8755   19.3941 C   0  0  0  0  0  0  0  0  0  0  0  0
  -22.6284  -10.2054   21.3875 C   0  0  0  0  0  0  0  0  0  0  0  0
  -21.8246   -9.1802   20.8891 C   0  0  0  0  0  0  0  0  0  0  0  0
  -30.0006  -24.7291   16.4713 C   0  0  0  0  0  0  0  0  0  0  0  0
  -26.8120  -27.3364   21.2490 C   0  0  0  0  0  0  0  0  0  0  0  0
  -23.6732   -7.6367   21.0826 C   0  0  0  0  0  0  0  0  0  0  0  0
  -30.8034  -25.5455   17.2369 C   0  0  0  0  0  0  0  0  0  0  0  0
  -25.3693  -14.2810   19.8101 C   0  0  0  0  0  0  0  0  0  0  0  0
  -24.8574  -15.7938   17.8209 C   0  0  0  0  0  0  0  0  0  0  0  0
  -18.4539  -30.4759   24.0240 C   0  0  0  0  0  0  0  0  0  0  0  0
  -24.7664  -28.0211   20.1506 C   0  0  0  0  0  0  0  0  0  0  0  0
  -19.6301  -30.7044   23.2847 C   0  0  0  0  0  0  0  0  0  0  0  0
  -25.4151  -27.2650   21.1374 C   0  0  0  0  0  0  0  0  0  0  0  0
  -29.0182  -24.1765   17.3295 C   0  0  0  0  0  0  0  0  0  0  0  0
  -24.9540  -12.0521   21.4356 C   0  0  0  0  0  0  0  0  0  0  0  0
  -27.5546  -28.1387   20.3830 C   0  0  0  0  0  0  0  0  0  0  0  0
  -23.9547   -9.9462   21.7335 C   0  0  0  0  0  0  0  0  0  0  0  0
  -22.3469   -7.8959   20.7366 C   0  0  0  0  0  0  0  0  0  0  0  0
  -24.4770   -8.6619   21.5810 C   0  0  0  0  0  0  0  0  0  0  0  0
  -25.5841  -15.4326   18.9712 C   0  0  0  0  0  0  0  0  0  0  0  0
  -29.2504  -24.6723   18.5935 C   0  0  0  0  0  0  0  0  0  0  0  0
  -25.4490  -16.9569   17.3922 C   0  0  0  0  0  0  0  0  0  0  0  0
  -23.7470  -15.1368   17.1957 C   0  0  0  0  0  0  0  0  0  0  0  0
  -22.4974  -28.5910   22.3025 C   0  0  0  0  0  0  0  0  0  0  0  0
  -22.3783  -25.3532   22.4608 C   0  0  0  0  0  0  0  0  0  0  0  0
  -23.9675  -22.3693   21.9944 C   0  0  0  0  0  0  0  0  0  0  0  0
  -28.4659  -21.1310   20.2785 C   0  0  0  0  0  0  0  0  0  0  0  0
  -18.4419  -29.5830   25.2395 C   0  0  0  0  0  0  0  0  0  0  0  0
  -23.2726  -27.9452   19.9921 C   0  0  0  0  0  0  0  0  0  0  0  0
  -24.6518  -26.3820   22.0894 C   0  0  0  0  0  0  0  0  0  0  0  0
  -19.6448  -28.6466   25.3193 C   0  0  0  0  0  0  0  0  0  0  0  0
  -29.6481  -19.2535   17.4193 C   0  0  0  0  0  0  0  0  0  0  0  0
  -20.9349  -29.4095   25.0357 C   0  0  0  0  0  0  0  0  0  0  0  0
  -28.6577  -18.0879   17.3903 C   0  0  0  0  0  0  0  0  0  0  0  0
  -29.9988  -19.6453   18.8517 C   0  0  0  0  0  0  0  0  0  0  0  0
  -27.8319  -18.8115   19.6781 C   0  0  0  0  0  0  0  0  0  0  0  0
  -20.9268  -30.0003   23.6207 C   0  0  1  0  0  0  0  0  0  0  0  0
  -22.5581  -27.5048   21.2660 C   0  0  1  0  0  0  0  0  0  0  0  0
  -27.4199  -18.3826   18.2581 C   0  0  2  0  0  0  0  0  0  0  0  0
  -27.9460  -23.2419   16.9340 C   0  0  0  0  0  0  0  0  0  0  0  0
  -23.6276  -19.8958   22.2469 C   0  0  0  0  0  0  0  0  0  0  0  0
  -22.7553  -25.6118   25.4776 C   0  0  0  0  0  0  0  0  0  0  0  0
  -23.3540  -23.1816   25.5409 C   0  0  0  0  0  0  0  0  0  0  0  0
  -21.0855  -23.8860   24.7791 C   0  0  0  0  0  0  0  0  0  0  0  0
  -24.3496  -21.9038   19.0968 C   0  0  0  0  0  0  0  0  0  0  0  0
  -28.5307  -24.4266   19.8613 C   0  0  0  0  0  0  0  0  0  0  0  0
  -31.0221  -27.7740   19.4470 C   0  0  0  0  0  0  0  0  0  0  0  0
  -30.9438  -26.2633   19.6781 C   0  0  0  0  0  0  0  0  0  0  0  0
  -29.2353  -23.4317   20.7999 C   0  0  0  0  0  0  0  0  0  0  0  0
  -29.6558  -28.4357   19.3094 C   0  0  0  0  0  0  0  0  0  1  0  0
  -23.0794  -24.2964   23.2797 C   0  0  1  0  0  0  0  0  0  0  0  0
  -23.5254  -21.0888   21.3093 C   0  0  2  0  0  0  0  0  0  0  0  0
  -22.5830  -24.2620   24.7528 C   0  0  0  0  0  0  0  0  0  0  0  0
  -26.5626  -16.2962   19.2552 N   0  0  0  0  0  0  0  0  0  0  0  0
  -30.3378  -25.5036   18.5252 N   0  0  0  0  0  0  0  0  0  0  0  0
  -26.4550  -17.2116   18.2772 N   0  0  0  0  0  0  0  0  0  0  0  0
  -23.1925  -26.3463   21.8981 N   0  0  0  0  0  0  0  0  0  0  0  0
  -28.7779  -19.9308   19.6187 N   0  0  0  0  0  0  0  0  0  0  0  0
  -25.2015  -17.7764   16.3484 N   0  0  0  0  0  0  0  0  0  0  0  0
  -22.4509  -15.4834   17.6012 N   0  0  0  0  0  0  0  0  0  0  0  0
  -21.2137  -28.9731   22.6425 N   0  0  0  0  0  0  0  0  0  0  0  0
  -22.9036  -23.0393   22.5605 N   0  0  0  0  0  0  0  0  0  0  0  0
  -29.4176  -22.1385   20.1791 N   0  0  0  0  0  0  0  0  0  0  0  0
  -24.3741  -20.8213   20.1139 N   0  3  0  0  0  0  0  0  0  0  0  0
  -23.8999  -14.2561   16.3156 O   0  0  0  0  0  0  0  0  0  0  0  0
  -23.5382  -29.0474   22.7610 O   0  0  0  0  0  0  0  0  0  0  0  0
  -21.1542  -25.2955   22.3195 O   0  0  0  0  0  0  0  0  0  0  0  0
  -25.1400  -22.7364   22.0276 O   0  0  0  0  0  0  0  0  0  0  0  0
  -27.4138  -21.2949   20.9057 O   0  0  0  0  0  0  0  0  0  0  0  0
  -24.7512  -10.9649   22.2289 O   0  0  0  0  0  0  0  0  0  0  0  0
  -28.9090  -28.1969   20.5017 O   0  0  0  0  0  0  0  0  0  1  0  0
  -21.5745   -6.9111   20.2594 F   0  0  0  0  0  0  0  0  0  0  0  0
  -25.7500   -8.4066   21.9128 F   0  0  0  0  0  0  0  0  0  0  0  0
  1  2  1  0  0  0  0
  1  5  2  0  0  0  0
  2  6  2  0  0  0  0
  3  8  2  0  0  0  0
  3 17  1  0  0  0  0
  4  9  1  0  0  0  0
  4 17  2  0  0  0  0
  5 19  1  0  0  0  0
  6 21  1  0  0  0  0
  7 10  2  0  0  0  0
  7 20  1  0  0  0  0
  8 24  1  0  0  0  0
  9 24  2  0  0  0  0
 10 25  1  0  0  0  0
 11 12  2  0  0  0  0
 11 26  1  0  0  0  0
 12 27  1  0  0  0  0
 13 16  2  0  0  0  0
 13 23  1  0  0  0  0
 14 22  1  0  0  0  0
 14 25  2  0  0  0  0
 15 27  2  0  0  0  0
 15 28  1  0  0  0  0
 16 64  1  0  0  0  0
 17 29  1  0  0  0  0
 18 29  1  0  0  0  0
 18 31  2  0  0  0  0
 18 32  1  0  0  0  0
 19 21  2  0  0  0  0
 19 37  1  0  0  0  0
 20 22  2  0  0  0  0
 20 38  1  0  0  0  0
 21 46  1  0  0  0  0
 22 39  1  0  0  0  0
 23 30  2  0  0  0  0
 23 49  1  0  0  0  0
 24 79  1  0  0  0  0
 25 80  1  0  0  0  0
 26 28  2  0  0  0  0
 26 79  1  0  0  0  0
 27 81  1  0  0  0  0
 28 82  1  0  0  0  0
 29 63  2  0  0  0  0
 30 55  1  0  0  0  0
 30 64  1  0  0  0  0
 31 65  1  0  0  0  0
 31 68  1  0  0  0  0
 32 69  1  0  0  0  0
 32 74  2  0  0  0  0
 33 47  1  0  0  0  0
 33 70  1  0  0  0  0
 33 75  2  0  0  0  0
 34 60  1  0  0  0  0
 34 66  1  0  0  0  0
 34 76  2  0  0  0  0
 35 61  1  0  0  0  0
 35 71  1  0  0  0  0
 35 77  2  0  0  0  0
 36 67  1  0  0  0  0
 36 72  1  0  0  0  0
 36 78  2  0  0  0  0
 37 40  1  0  0  0  0
 38 47  1  0  0  0  0
 39 66  1  0  0  0  0
 40 42  1  0  0  0  0
 41 43  1  0  0  0  0
 41 44  1  0  0  0  0
 42 46  1  0  0  0  0
 43 48  1  0  0  0  0
 44 67  1  0  0  0  0
 45 48  1  0  0  0  0
 45 67  1  0  0  0  0
 46 70  1  0  0  0  0
 47 66  1  0  0  0  0
 48 65  1  0  0  0  0
 50 61  1  0  0  0  0
 51 62  1  0  0  0  0
 52 62  1  0  0  0  0
 53 62  1  0  0  0  0
 54 73  1  0  0  0  0
 55 58  1  0  0  0  0
 56 57  1  0  0  0  0
 56 59  1  0  0  0  0
 57 64  1  0  0  0  0
 58 72  1  0  0  0  0
 59 80  1  0  0  0  0
 60 62  1  0  0  0  0
 60 71  1  0  0  0  0
 61 73  1  0  0  0  0
 63 65  1  0  0  0  0
M  CHG  1  73   1
M  ISO  4  36 100  59 101  72 100  80 101
M  END
> <Batch ID>
0084

> <Smiles>
CNC(C)C(=O)NC(C(=O)N1Cc2cc([101O:1][101CH2:1]CCn3ccc(C)c3CC[100NH:0][100C:0](=O)N3CCCC(n4nc(-c5ccc(Oc6ccc(F)cc6F)cc5)c(C(N)=O)c4N)C3)ccc2CC1C(=O)NC1CCCc2ccccc21)C(C)(C)C

> <Shape>
0.244

> <Color>
0.085

> <Negative vol penalty>
0.000

$$$$

  -OEChem-04052318543D

 86 94  0     1  0  0  0  0  0999 V2000
  -21.5715  -12.6625   19.8720 C   0  0  0  0  0  0  0  0  0  0  0  0
  -21.6148  -14.0482   19.9869 C   0  0  0  0  0  0  0  0  0  0  0  0
  -28.5780  -25.0625   23.1384 C   0  0  0  0  0  0  0  0  0  0  0  0
  -26.4655  -23.8910   23.1831 C   0  0  0  0  0  0  0  0  0  0  0  0
  -22.6822  -11.8994   20.2296 C   0  0  0  0  0  0  0  0  0  0  0  0
  -22.7687  -14.6717   20.4605 C   0  0  0  0  0  0  0  0  0  0  0  0
  -24.0557  -18.7242   17.7100 C   0  0  0  0  0  0  0  0  0  0  0  0
  -29.0806  -24.1933   24.1067 C   0  0  0  0  0  0  0  0  0  0  0  0
  -26.9681  -23.0218   24.1514 C   0  0  0  0  0  0  0  0  0  0  0  0
  -23.3384  -19.8988   17.9326 C   0  0  0  0  0  0  0  0  0  0  0  0
  -27.5280  -23.0617   27.4855 C   0  0  0  0  0  0  0  0  0  0  0  0
  -26.7146  -22.7716   28.5808 C   0  0  0  0  0  0  0  0  0  0  0  0
  -25.1343  -20.7266   19.3142 C   0  0  0  0  0  0  0  0  0  0  0  0
  -20.7069  -26.1643   21.6396 C   0  0  0  0  0  0  0  0  0  0  0  0
  -26.7605  -20.4283   27.9944 C   0  0  0  0  0  0  0  0  0  0  0  0
  -27.2705  -24.9113   22.6766 C   0  0  0  0  0  0  0  0  0  0  0  0
  -26.8087  -25.6507   20.2792 C   0  0  0  0  0  0  0  0  0  0  0  0
  -23.8537  -12.5145   20.6987 C   0  0  0  0  0  0  0  0  0  0  0  0
  -25.3151  -18.5371   18.2976 C   0  0  0  0  0  0  0  0  0  0  0  0
  -23.8957  -13.9160   20.8260 C   0  0  0  0  0  0  0  0  0  0  0  0
  -25.8667  -19.5498   19.0954 C   0  0  0  0  0  0  0  0  0  0  0  0
  -20.9846  -24.9708   22.2825 C   0  0  0  0  0  0  0  0  0  0  0  0
  -28.2756  -23.1730   24.6132 C   0  0  0  0  0  0  0  0  0  0  0  0
  -23.8764  -20.8990   18.7372 C   0  0  0  0  0  0  0  0  0  0  0  0
  -27.9576  -22.0350   26.6445 C   0  0  0  0  0  0  0  0  0  0  0  0
  -26.3308  -21.4550   28.8354 C   0  0  0  0  0  0  0  0  0  0  0  0
  -27.5738  -20.7184   26.8990 C   0  0  0  0  0  0  0  0  0  0  0  0
  -26.7506  -25.8092   21.6768 C   0  0  0  0  0  0  0  0  0  0  0  0
  -19.5621  -26.8436   22.0047 C   0  0  0  0  0  0  0  0  0  0  0  0
  -20.0992  -24.5358   23.2482 C   0  0  0  0  0  0  0  0  0  0  0  0
  -26.1791  -26.7651   19.7809 C   0  0  0  0  0  0  0  0  0  0  0  0
  -27.3804  -24.5909   19.5010 C   0  0  0  0  0  0  0  0  0  0  0  0
  -26.5378  -16.4581   20.3680 C   0  0  0  0  0  0  0  0  0  0  0  0
  -29.3111  -17.9906   19.6730 C   0  0  0  0  0  0  0  0  0  0  0  0
  -30.8557  -20.8211   18.5553 C   0  0  0  0  0  0  0  0  0  0  0  0
  -22.0555  -30.4718   22.0407 C   0  0  0  0  0  0  0  0  0  0  0  0
  -25.0124  -11.6448   21.1177 C   0  0  0  0  0  0  0  0  0  0  0  0
  -26.0878  -17.2756   18.0260 C   0  0  0  0  0  0  0  0  0  0  0  0
  -27.2237  -19.4065   19.7329 C   0  0  0  0  0  0  0  0  0  0  0  0
  -26.3275  -12.4074   21.2564 C   0  0  0  0  0  0  0  0  0  0  0  0
  -25.2881  -31.3469   20.8319 C   0  0  0  0  0  0  0  0  0  0  0  0
  -26.1154  -13.6993   22.0392 C   0  0  0  0  0  0  0  0  0  0  0  0
  -26.0347  -30.0126   20.7852 C   0  0  0  0  0  0  0  0  0  0  0  0
  -24.3427  -31.4231   22.0288 C   0  0  0  0  0  0  0  0  0  0  0  0
  -24.1369  -28.9680   22.0914 C   0  0  0  0  0  0  0  0  0  0  0  0
  -25.1379  -14.6307   21.3122 C   0  0  1  0  0  0  0  0  0  0  0  0
  -27.1377  -16.9767   19.0917 C   0  0  1  0  0  0  0  0  0  0  0  0
  -25.0609  -28.8219   20.8702 C   0  0  2  0  0  0  0  0  0  0  0  0
  -19.3184  -21.4861   25.4830 C   0  0  0  0  0  0  0  0  0  0  0  0
  -17.6912  -28.3270   21.2152 C   0  0  0  0  0  0  0  0  0  0  0  0
  -33.1331  -21.7873   18.1345 C   0  0  0  0  0  0  0  0  0  0  0  0
  -29.6830  -18.4137   22.6718 C   0  0  0  0  0  0  0  0  0  0  0  0
  -31.4044  -20.1529   22.1422 C   0  0  0  0  0  0  0  0  0  0  0  0
  -31.7674  -17.7869   21.4402 C   0  0  0  0  0  0  0  0  0  0  0  0
  -30.3037  -21.1650   15.6681 C   0  0  0  0  0  0  0  0  0  0  0  0
  -22.2226  -24.1891   21.9220 C   0  0  0  0  0  0  0  0  0  0  0  0
  -20.3326  -23.2586   23.9822 C   0  0  0  0  0  0  0  0  0  0  0  0
  -19.0896  -22.8056   24.7631 C   0  0  0  0  0  0  0  0  0  0  0  0
  -22.1055  -23.4244   20.6017 C   0  0  0  0  0  0  0  0  0  0  0  0
  -19.8316  -29.3704   22.0426 C   0  0  0  0  0  0  0  0  0  0  0  0
  -23.3901  -22.7072   20.2034 C   0  0  0  0  0  0  0  0  0  1  0  0
  -19.2171  -28.1334   21.3425 C   0  0  1  0  0  0  0  0  0  0  0  0
  -30.0414  -19.1866   20.2345 C   0  0  1  0  0  0  0  0  0  0  0  0
  -31.9589  -21.0302   17.5338 C   0  0  2  0  0  0  0  0  0  0  0  0
  -30.6976  -18.8872   21.6119 C   0  0  0  0  0  0  0  0  0  0  0  0
  -26.1331  -26.9356   22.0428 N   0  0  0  0  0  0  0  0  0  0  0  0
  -18.7134  -26.3943   22.9533 N   0  0  0  0  0  0  0  0  0  0  0  0
  -18.9865  -25.2215   23.5854 N   0  0  0  0  0  0  0  0  0  0  0  0
  -25.7975  -27.4951   20.8679 N   0  0  0  0  0  0  0  0  0  0  0  0
  -27.9375  -18.1520   19.4425 N   0  0  0  0  0  0  0  0  0  0  0  0
  -23.4449  -30.2657   22.0501 N   0  0  0  0  0  0  0  0  0  0  0  0
  -25.9205  -27.1821   18.5232 N   0  0  0  0  0  0  0  0  0  0  0  0
  -27.9884  -23.5217   20.1729 N   0  0  0  0  0  0  0  0  0  0  0  0
  -25.8001  -15.3000   20.2131 N   0  0  0  0  0  0  0  0  0  0  0  0
  -30.9827  -19.6109   19.2038 N   0  0  0  0  0  0  0  0  0  0  0  0
  -21.2766  -29.3212   22.0559 N   0  0  0  0  0  0  0  0  0  0  0  0
  -31.4462  -21.8056   16.3690 N   0  3  0  0  0  0  0  0  0  0  0  0
  -27.3674  -24.6001   18.2467 O   0  0  0  0  0  0  0  0  0  0  0  0
  -26.7313  -17.0631   21.4160 O   0  0  0  0  0  0  0  0  0  0  0  0
  -29.9376  -16.9538   19.4406 O   0  0  0  0  0  0  0  0  0  0  0  0
  -29.9719  -21.6502   18.7604 O   0  0  0  0  0  0  0  0  0  0  0  0
  -21.5469  -31.5977   22.0150 O   0  0  0  0  0  0  0  0  0  0  0  0
  -28.7657  -22.3245   25.5579 O   0  0  0  0  0  0  0  0  0  0  0  0
  -23.1780  -22.0462   18.9566 O   0  0  0  0  0  0  0  0  0  1  0  0
  -25.5510  -21.1764   29.8882 F   0  0  0  0  0  0  0  0  0  0  0  0
  -27.9844  -19.7277   26.0954 F   0  0  0  0  0  0  0  0  0  0  0  0
  1  2  1  0  0  0  0
  1  5  2  0  0  0  0
  2  6  2  0  0  0  0
  3  8  2  0  0  0  0
  3 16  1  0  0  0  0
  4  9  1  0  0  0  0
  4 16  2  0  0  0  0
  5 18  1  0  0  0  0
  6 20  1  0  0  0  0
  7 10  2  0  0  0  0
  7 19  1  0  0  0  0
  8 23  1  0  0  0  0
  9 23  2  0  0  0  0
 10 24  1  0  0  0  0
 11 12  2  0  0  0  0
 11 25  1  0  0  0  0
 12 26  1  0  0  0  0
 13 21  1  0  0  0  0
 13 24  2  0  0  0  0
 14 22  1  0  0  0  0
 14 29  2  0  0  0  0
 15 26  2  0  0  0  0
 15 27  1  0  0  0  0
 16 28  1  0  0  0  0
 17 28  1  0  0  0  0
 17 31  2  0  0  0  0
 17 32  1  0  0  0  0
 18 20  2  0  0  0  0
 18 37  1  0  0  0  0
 19 21  2  0  0  0  0
 19 38  1  0  0  0  0
 20 46  1  0  0  0  0
 21 39  1  0  0  0  0
 22 30  2  0  0  0  0
 22 56  1  0  0  0  0
 23 83  1  0  0  0  0
 24 84  1  0  0  0  0
 25 27  2  0  0  0  0
 25 83  1  0  0  0  0
 26 85  1  0  0  0  0
 27 86  1  0  0  0  0
 28 66  2  0  0  0  0
 29 62  1  0  0  0  0
 29 67  1  0  0  0  0
 30 57  1  0  0  0  0
 30 68  1  0  0  0  0
 31 69  1  0  0  0  0
 31 72  1  0  0  0  0
 32 73  1  0  0  0  0
 32 78  2  0  0  0  0
 33 47  1  0  0  0  0
 33 74  1  0  0  0  0
 33 79  2  0  0  0  0
 34 63  1  0  0  0  0
 34 70  1  0  0  0  0
 34 80  2  0  0  0  0
 35 64  1  0  0  0  0
 35 75  1  0  0  0  0
 35 81  2  0  0  0  0
 36 71  1  0  0  0  0
 36 76  1  0  0  0  0
 36 82  2  0  0  0  0
 37 40  1  0  0  0  0
 38 47  1  0  0  0  0
 39 70  1  0  0  0  0
 40 42  1  0  0  0  0
 41 43  1  0  0  0  0
 41 44  1  0  0  0  0
 42 46  1  0  0  0  0
 43 48  1  0  0  0  0
 44 71  1  0  0  0  0
 45 48  1  0  0  0  0
 45 71  1  0  0  0  0
 46 74  1  0  0  0  0
 47 70  1  0  0  0  0
 48 69  1  0  0  0  0
 49 58  1  0  0  0  0
 50 62  1  0  0  0  0
 51 64  1  0  0  0  0
 52 65  1  0  0  0  0
 53 65  1  0  0  0  0
 54 65  1  0  0  0  0
 55 77  1  0  0  0  0
 56 59  1  0  0  0  0
 57 58  1  0  0  0  0
 59 61  1  0  0  0  0
 60 62  1  0  0  0  0
 60 76  1  0  0  0  0
 61 84  1  0  0  0  0
 63 65  1  0  0  0  0
 63 75  1  0  0  0  0
 64 77  1  0  0  0  0
 66 69  1  0  0  0  0
 67 68  2  0  0  0  0
M  CHG  1  77   1
M  ISO  4  36 100  61 101  76 100  84 101
M  END
> <Batch ID>
0084

> <Smiles>
CCCc1nnc(C(C)C[100NH:0][100C:0](=O)N2CCCC(n3nc(-c4ccc(Oc5ccc(F)cc5F)cc4)c(C(N)=O)c3N)C2)cc1CC[101CH2:1][101O:1]c1ccc2c(c1)CN(C(=O)C(NC(=O)C(C)NC)C(C)(C)C)C(C(=O)NC1CCCc3ccccc31)C2

> <Shape>
0.191

> <Color>
0.066

> <Negative vol penalty>
0.000

$$$$

  -OEChem-04052318543D

 90 98  0     1  0  0  0  0  0999 V2000
  -28.9141  -12.8689   19.3146 C   0  0  0  0  0  0  0  0  0  0  0  0
  -28.5060  -14.0877   18.7824 C   0  0  0  0  0  0  0  0  0  0  0  0
  -28.1421  -25.6595   17.8669 C   0  0  0  0  0  0  0  0  0  0  0  0
  -26.7550  -24.2305   19.2347 C   0  0  0  0  0  0  0  0  0  0  0  0
  -28.0227  -12.1040   20.0658 C   0  0  0  0  0  0  0  0  0  0  0  0
  -27.2057  -14.5419   19.0001 C   0  0  0  0  0  0  0  0  0  0  0  0
  -25.4103  -20.3502   19.7395 C   0  0  0  0  0  0  0  0  0  0  0  0
  -29.1556  -24.7015   17.8937 C   0  0  0  0  0  0  0  0  0  0  0  0
  -27.7685  -23.2724   19.2615 C   0  0  0  0  0  0  0  0  0  0  0  0
  -24.8507  -21.2779   18.8621 C   0  0  0  0  0  0  0  0  0  0  0  0
  -29.8528  -20.2963   19.3902 C   0  0  0  0  0  0  0  0  0  0  0  0
  -29.4938  -18.9652   19.1787 C   0  0  0  0  0  0  0  0  0  0  0  0
  -22.6490  -20.6878   19.6518 C   0  0  0  0  0  0  0  0  0  0  0  0
  -28.6283  -19.5450   16.9988 C   0  0  0  0  0  0  0  0  0  0  0  0
  -20.0825  -28.1470   21.9102 C   0  0  0  0  0  0  0  0  0  0  0  0
  -26.9418  -25.4240   18.5375 C   0  0  0  0  0  0  0  0  0  0  0  0
  -24.8532  -26.5237   17.5699 C   0  0  0  0  0  0  0  0  0  0  0  0
  -26.7137  -12.5536   20.3009 C   0  0  0  0  0  0  0  0  0  0  0  0
  -24.5914  -19.5752   20.5733 C   0  0  0  0  0  0  0  0  0  0  0  0
  -26.2955  -13.7817   19.7540 C   0  0  0  0  0  0  0  0  0  0  0  0
  -23.2009  -19.7528   20.5408 C   0  0  0  0  0  0  0  0  0  0  0  0
  -28.9688  -23.5080   18.5910 C   0  0  0  0  0  0  0  0  0  0  0  0
  -23.4697  -21.4448   18.8160 C   0  0  0  0  0  0  0  0  0  0  0  0
  -29.5996  -21.2519   18.4060 C   0  0  0  0  0  0  0  0  0  0  0  0
  -28.8815  -18.5895   17.9830 C   0  0  0  0  0  0  0  0  0  0  0  0
  -28.9874  -20.8762   17.2103 C   0  0  0  0  0  0  0  0  0  0  0  0
  -25.8948  -26.4135   18.5106 C   0  0  0  0  0  0  0  0  0  0  0  0
  -20.0395  -28.1131   23.2754 C   0  0  0  0  0  0  0  0  0  0  0  0
  -24.1321  -27.6173   17.9827 C   0  0  0  0  0  0  0  0  0  0  0  0
  -19.1552  -26.2307   22.5170 C   0  0  0  0  0  0  0  0  0  0  0  0
  -24.5635  -25.7102   16.4254 C   0  0  0  0  0  0  0  0  0  0  0  0
  -24.0277  -16.4641   20.9007 C   0  0  0  0  0  0  0  0  0  0  0  0
  -22.2762  -17.4462   23.4482 C   0  0  0  0  0  0  0  0  0  0  0  0
  -20.5276  -19.9513   24.9694 C   0  0  0  0  0  0  0  0  0  0  0  0
  -23.4305  -30.2662   23.3065 C   0  0  0  0  0  0  0  0  0  0  0  0
  -25.7715  -11.6699   21.0793 C   0  0  0  0  0  0  0  0  0  0  0  0
  -25.2122  -18.5978   21.5334 C   0  0  0  0  0  0  0  0  0  0  0  0
  -22.2792  -18.9599   21.4298 C   0  0  0  0  0  0  0  0  0  0  0  0
  -24.5263  -12.3980   21.5789 C   0  0  0  0  0  0  0  0  0  0  0  0
  -24.6276  -31.7687   20.3088 C   0  0  0  0  0  0  0  0  0  0  0  0
  -23.9182  -13.2425   20.4636 C   0  0  0  0  0  0  0  0  0  0  0  0
  -24.9941  -30.5766   19.4232 C   0  0  0  0  0  0  0  0  0  0  0  0
  -24.9420  -31.4978   21.7784 C   0  0  0  0  0  0  0  0  0  0  0  0
  -24.7174  -29.0677   21.4345 C   0  0  0  0  0  0  0  0  0  0  0  0
  -24.9008  -14.3199   19.9891 C   0  0  1  0  0  0  0  0  0  0  0  0
  -24.2511  -17.4963   21.9696 C   0  0  1  0  0  0  0  0  0  0  0  0
  -24.3668  -29.2723   19.9508 C   0  0  2  0  0  0  0  0  0  0  0  0
  -18.8768  -24.0096   16.2987 C   0  0  0  0  0  0  0  0  0  0  0  0
  -19.1768  -20.4431   27.0262 C   0  0  0  0  0  0  0  0  0  0  0  0
  -14.7959  -23.7808   23.0124 C   0  0  0  0  0  0  0  0  0  0  0  0
  -16.4577  -22.9032   21.3605 C   0  0  0  0  0  0  0  0  0  0  0  0
  -19.9287  -15.8891   22.2758 C   0  0  0  0  0  0  0  0  0  0  0  0
  -18.4100  -17.1632   23.8050 C   0  0  0  0  0  0  0  0  0  0  0  0
  -20.1810  -15.6858   24.7556 C   0  0  0  0  0  0  0  0  0  0  0  0
  -22.4030  -22.0708   25.8353 C   0  0  0  0  0  0  0  0  0  0  0  0
  -20.4822  -29.0811   24.2822 C   0  0  0  0  0  0  0  0  0  0  0  0
  -18.5163  -24.8915   22.4825 C   0  0  0  0  0  0  0  0  0  0  0  0
  -19.0330  -24.3938   17.7635 C   0  0  0  0  0  0  0  0  0  0  0  0
  -17.0020  -24.9587   22.7704 C   0  0  0  0  0  0  0  0  0  0  0  0
  -20.4371  -25.5610   19.5937 C   0  0  0  0  0  0  0  0  0  0  0  0
  -21.6136  -24.3472   17.7354 C   0  0  0  0  0  0  0  0  0  0  0  0
  -19.3713  -26.5759   20.0199 C   0  0  0  0  0  0  0  0  0  0  0  0
  -21.9432  -28.8985   24.7474 C   0  0  0  0  0  0  0  0  0  0  0  0
  -21.6935  -22.9585   18.3583 C   0  0  0  0  0  0  0  0  0  1  0  0
  -20.8421  -17.8670   23.6613 C   0  0  1  0  0  0  0  0  0  0  0  0
  -20.5582  -20.4814   26.3915 C   0  0  2  0  0  0  0  0  0  0  0  0
  -16.2857  -23.5966   22.7128 C   0  0  0  0  0  0  0  0  0  0  0  0
  -20.3408  -25.1377   18.1093 C   0  0  1  0  0  0  0  0  0  0  0  0
  -19.8574  -16.6650   23.6062 C   0  0  0  0  0  0  0  0  0  0  0  0
  -25.8436  -27.3615   19.4500 N   0  0  0  0  0  0  0  0  0  0  0  0
  -19.5294  -26.9696   21.4675 N   0  0  0  0  0  0  0  0  0  0  0  0
  -24.7612  -28.0779   19.1017 N   0  0  0  0  0  0  0  0  0  0  0  0
  -19.4607  -26.9164   23.6233 N   0  3  0  0  0  0  0  0  0  0  0  0
  -22.9337  -18.0123   22.3469 N   0  0  0  0  0  0  0  0  0  0  0  0
  -24.3166  -30.2477   22.2167 N   0  0  0  0  0  0  0  0  0  0  0  0
  -23.0276  -28.2203   17.4939 N   0  0  0  0  0  0  0  0  0  0  0  0
  -25.4062  -24.6258   16.1458 N   0  0  0  0  0  0  0  0  0  0  0  0
  -24.9343  -15.4216   20.9269 N   0  0  0  0  0  0  0  0  0  0  0  0
  -20.8157  -18.6038   24.9202 N   0  0  0  0  0  0  0  0  0  0  0  0
  -22.8769  -29.0396   23.6525 N   0  0  0  0  0  0  0  0  0  0  0  0
  -21.0446  -21.8899   26.4090 N   0  3  0  0  0  0  0  0  0  0  0  0
  -23.5957  -25.9479   15.6636 O   0  0  0  0  0  0  0  0  0  0  0  0
  -23.1005  -16.6025   20.1116 O   0  0  0  0  0  0  0  0  0  0  0  0
  -22.7961  -16.6503   24.2343 O   0  0  0  0  0  0  0  0  0  0  0  0
  -20.2701  -20.6609   23.9994 O   0  0  0  0  0  0  0  0  0  0  0  0
  -23.1492  -31.3001   23.9219 O   0  0  0  0  0  0  0  0  0  0  0  0
  -29.9574  -22.5729   18.6172 O   0  0  0  0  0  0  0  0  0  0  0  0
  -22.9208  -22.3491   17.9600 O   0  0  0  0  0  0  0  0  0  1  0  0
  -28.5381  -17.3109   17.7795 F   0  0  0  0  0  0  0  0  0  0  0  0
  -28.7426  -21.7894   16.2607 F   0  0  0  0  0  0  0  0  0  0  0  0
  1  2  1  0  0  0  0
  1  5  2  0  0  0  0
  2  6  2  0  0  0  0
  3  8  2  0  0  0  0
  3 16  1  0  0  0  0
  4  9  1  0  0  0  0
  4 16  2  0  0  0  0
  5 18  1  0  0  0  0
  6 20  1  0  0  0  0
  7 10  2  0  0  0  0
  7 19  1  0  0  0  0
  8 22  1  0  0  0  0
  9 22  2  0  0  0  0
 10 23  1  0  0  0  0
 11 12  2  0  0  0  0
 11 24  1  0  0  0  0
 12 25  1  0  0  0  0
 13 21  1  0  0  0  0
 13 23  2  0  0  0  0
 14 25  2  0  0  0  0
 14 26  1  0  0  0  0
 15 28  2  0  0  0  0
 15 71  1  0  0  0  0
 16 27  1  0  0  0  0
 17 27  1  0  0  0  0
 17 29  2  0  0  0  0
 17 31  1  0  0  0  0
 18 20  2  0  0  0  0
 18 36  1  0  0  0  0
 19 21  2  0  0  0  0
 19 37  1  0  0  0  0
 20 45  1  0  0  0  0
 21 38  1  0  0  0  0
 22 87  1  0  0  0  0
 23 88  1  0  0  0  0
 24 26  2  0  0  0  0
 24 87  1  0  0  0  0
 25 89  1  0  0  0  0
 26 90  1  0  0  0  0
 27 70  2  0  0  0  0
 28 56  1  0  0  0  0
 28 73  1  0  0  0  0
 29 72  1  0  0  0  0
 29 76  1  0  0  0  0
 30 57  1  0  0  0  0
 30 71  1  0  0  0  0
 30 73  2  0  0  0  0
 31 77  1  0  0  0  0
 31 82  2  0  0  0  0
 32 46  1  0  0  0  0
 32 78  1  0  0  0  0
 32 83  2  0  0  0  0
 33 65  1  0  0  0  0
 33 74  1  0  0  0  0
 33 84  2  0  0  0  0
 34 66  1  0  0  0  0
 34 79  1  0  0  0  0
 34 85  2  0  0  0  0
 35 75  1  0  0  0  0
 35 80  1  0  0  0  0
 35 86  2  0  0  0  0
 36 39  1  0  0  0  0
 37 46  1  0  0  0  0
 38 74  1  0  0  0  0
 39 41  1  0  0  0  0
 40 42  1  0  0  0  0
 40 43  1  0  0  0  0
 41 45  1  0  0  0  0
 42 47  1  0  0  0  0
 43 75  1  0  0  0  0
 44 47  1  0  0  0  0
 44 75  1  0  0  0  0
 45 78  1  0  0  0  0
 46 74  1  0  0  0  0
 47 72  1  0  0  0  0
 48 58  1  0  0  0  0
 49 66  1  0  0  0  0
 50 67  1  0  0  0  0
 51 67  1  0  0  0  0
 52 69  1  0  0  0  0
 53 69  1  0  0  0  0
 54 69  1  0  0  0  0
 55 81  1  0  0  0  0
 56 63  1  0  0  0  0
 57 59  1  0  0  0  0
 58 68  1  0  0  0  0
 59 67  1  0  0  0  0
 60 62  1  0  0  0  0
 60 68  1  0  0  0  0
 61 64  1  0  0  0  0
 61 68  1  0  0  0  0
 62 71  1  0  0  0  0
 63 80  1  0  0  0  0
 64 88  1  0  0  0  0
 65 69  1  0  0  0  0
 65 79  1  0  0  0  0
 66 81  1  0  0  0  0
 70 72  1  0  0  0  0
M  CHG  2  73   1  81   1
M  ISO  4  35 100  64 101  80 100  88 101
M  END
> <Batch ID>
0084

> <Smiles>
CCC(CCn1cc(CC[100NH:0][100C:0](=O)N2CCCC(n3nc(-c4ccc(Oc5ccc(F)cc5F)cc4)c(C(N)=O)c3N)C2)nc1CCC(C)C)C[101CH2:1][101O:1]c1ccc2c(c1)CN(C(=O)C(NC(=O)C(C)NC)C(C)(C)C)C(C(=O)NC1CCCc3ccccc31)C2

> <Shape>
0.201

> <Color>
0.073

> <Negative vol penalty>
0.000

$$$$

  -OEChem-04052318543D

 84 92  0     1  0  0  0  0  0999 V2000
  -28.2500  -19.5319   31.6844 C   0  0  0  0  0  0  0  0  0  0  0  0
  -28.8868  -19.5364   30.4475 C   0  0  0  0  0  0  0  0  0  0  0  0
  -23.0082   -9.8689   19.9822 C   0  0  0  0  0  0  0  0  0  0  0  0
  -23.7392   -9.9440   22.2837 C   0  0  0  0  0  0  0  0  0  0  0  0
  -27.6905  -20.7074   32.1834 C   0  0  0  0  0  0  0  0  0  0  0  0
  -28.9636  -20.7163   29.7084 C   0  0  0  0  0  0  0  0  0  0  0  0
  -33.5711  -21.4877   27.7536 C   0  0  0  0  0  0  0  0  0  0  0  0
  -22.2540   -8.7287   20.2589 C   0  0  0  0  0  0  0  0  0  0  0  0
  -22.9850   -8.8037   22.5604 C   0  0  0  0  0  0  0  0  0  0  0  0
  -33.9090  -20.7600   26.6134 C   0  0  0  0  0  0  0  0  0  0  0  0
  -23.2621   -5.4641   22.1120 C   0  0  0  0  0  0  0  0  0  0  0  0
  -23.8621   -4.4585   22.8697 C   0  0  0  0  0  0  0  0  0  0  0  0
  -33.4115  -22.6837   25.2455 C   0  0  0  0  0  0  0  0  0  0  0  0
  -30.5545  -20.0720   23.7760 C   0  0  0  0  0  0  0  0  0  0  0  0
  -22.1405   -4.6959   24.5480 C   0  0  0  0  0  0  0  0  0  0  0  0
  -23.7508  -10.4766   20.9946 C   0  0  0  0  0  0  0  0  0  0  0  0
  -24.1099  -12.9947   20.7993 C   0  0  0  0  0  0  0  0  0  0  0  0
  -27.7690  -21.9045   31.4544 C   0  0  0  0  0  0  0  0  0  0  0  0
  -33.1397  -22.8177   27.6472 C   0  0  0  0  0  0  0  0  0  0  0  0
  -28.4035  -21.9087   30.1975 C   0  0  0  0  0  0  0  0  0  0  0  0
  -33.0712  -23.4269   26.3861 C   0  0  0  0  0  0  0  0  0  0  0  0
  -29.3636  -19.7888   24.4354 C   0  0  0  0  0  0  0  0  0  0  0  0
  -31.1331  -19.1112   22.9542 C   0  0  0  0  0  0  0  0  0  0  0  0
  -22.2424   -8.1961   21.5480 C   0  0  0  0  0  0  0  0  0  0  0  0
  -33.8265  -21.3570   25.3589 C   0  0  0  0  0  0  0  0  0  0  0  0
  -22.1013   -6.0858   22.5723 C   0  0  0  0  0  0  0  0  0  0  0  0
  -23.3013   -4.0743   24.0877 C   0  0  0  0  0  0  0  0  0  0  0  0
  -21.5405   -5.7017   23.7903 C   0  0  0  0  0  0  0  0  0  0  0  0
  -24.5305  -11.6542   20.7092 C   0  0  0  0  0  0  0  0  0  0  0  0
  -28.7958  -18.5399   24.2412 C   0  0  0  0  0  0  0  0  0  0  0  0
  -30.4863  -17.8926   22.8264 C   0  0  0  0  0  0  0  0  0  0  0  0
  -25.2112  -13.7259   20.4265 C   0  0  0  0  0  0  0  0  0  0  0  0
  -22.8375  -13.5309   21.1854 C   0  0  0  0  0  0  0  0  0  0  0  0
  -30.4624  -24.3720   28.3684 C   0  0  0  0  0  0  0  0  0  0  0  0
  -30.7177  -14.6548   20.7519 C   0  0  0  0  0  0  0  0  0  0  0  0
  -32.2072  -26.9739   27.5266 C   0  0  0  0  0  0  0  0  0  0  0  0
  -34.8320  -28.2546   25.7612 C   0  0  0  0  0  0  0  0  0  0  0  0
  -27.1080  -23.1395   32.0134 C   0  0  0  0  0  0  0  0  0  0  0  0
  -32.8044  -23.5974   28.8890 C   0  0  0  0  0  0  0  0  0  0  0  0
  -32.6333  -24.8583   26.2196 C   0  0  0  0  0  0  0  0  0  0  0  0
  -27.5603  -24.4314   31.3375 C   0  0  0  0  0  0  0  0  0  0  0  0
  -29.5699  -12.2873   18.3192 C   0  0  0  0  0  0  0  0  0  0  0  0
  -27.5533  -24.2710   29.8206 C   0  0  0  0  0  0  0  0  0  0  0  0
  -28.1322  -11.9990   18.7494 C   0  0  0  0  0  0  0  0  0  0  0  0
  -30.4765  -12.5225   19.5233 C   0  0  0  0  0  0  0  0  0  0  0  0
  -28.5604  -13.3122   20.8747 C   0  0  0  0  0  0  0  0  0  0  0  0
  -28.5290  -23.1742   29.3773 C   0  0  1  0  0  0  0  0  0  0  0  0
  -31.8853  -24.7847   28.6191 C   0  0  1  0  0  0  0  0  0  0  0  0
  -27.6047  -13.0991   19.6874 C   0  0  2  0  0  0  0  0  0  0  0  0
  -27.5175  -18.1790   24.9243 C   0  0  0  0  0  0  0  0  0  0  0  0
  -27.5470  -21.5028   24.6556 C   0  0  0  0  0  0  0  0  0  0  0  0
  -35.9851  -30.4216   25.2396 C   0  0  0  0  0  0  0  0  0  0  0  0
  -29.9544  -27.7070   25.6037 C   0  0  0  0  0  0  0  0  0  0  0  0
  -31.5339  -29.2794   24.4629 C   0  0  0  0  0  0  0  0  0  0  0  0
  -30.9280  -29.6407   26.8556 C   0  0  0  0  0  0  0  0  0  0  0  0
  -37.3708  -27.3279   26.9674 C   0  0  0  0  0  0  0  0  0  0  0  0
  -28.7386  -20.8139   25.3172 C   0  0  0  0  0  0  0  0  0  0  0  0
  -32.4247  -19.4118   22.2365 C   0  0  0  0  0  0  0  0  0  0  0  0
  -31.0618  -16.8240   21.9557 C   0  0  0  0  0  0  0  0  0  0  0  0
  -30.0840  -15.6819   21.6561 C   0  0  0  0  0  0  0  0  0  0  0  0
  -33.6498  -18.7486   22.8695 C   0  0  0  0  0  0  0  0  0  0  0  0
  -33.9388  -19.2388   24.2835 C   0  0  0  0  0  0  0  0  0  1  0  0
  -32.4566  -27.7233   26.2401 C   0  0  1  0  0  0  0  0  0  0  0  0
  -35.9424  -29.2105   26.1584 C   0  0  2  0  0  0  0  0  0  0  0  0
  -31.2246  -28.5600   25.7932 C   0  0  0  0  0  0  0  0  0  0  0  0
  -25.7999  -11.5378   20.3103 N   0  0  0  0  0  0  0  0  0  0  0  0
  -29.3284  -17.5811   23.4508 N   0  0  0  0  0  0  0  0  0  0  0  0
  -26.1864  -12.8144   20.1464 N   0  0  0  0  0  0  0  0  0  0  0  0
  -32.3100  -25.5770   27.4632 N   0  0  0  0  0  0  0  0  0  0  0  0
  -29.9295  -13.5585   20.4012 N   0  0  0  0  0  0  0  0  0  0  0  0
  -25.4309  -15.0531   20.3142 N   0  0  0  0  0  0  0  0  0  0  0  0
  -21.8158  -12.6388   21.5383 N   0  0  0  0  0  0  0  0  0  0  0  0
  -29.8899  -23.6655   29.4088 N   0  0  0  0  0  0  0  0  0  0  0  0
  -33.6670  -28.5091   26.4535 N   0  0  0  0  0  0  0  0  0  0  0  0
  -37.2640  -28.5247   26.0938 N   0  3  0  0  0  0  0  0  0  0  0  0
  -22.6083  -14.7641   21.2009 O   0  0  0  0  0  0  0  0  0  0  0  0
  -29.9234  -24.6736   27.3100 O   0  0  0  0  0  0  0  0  0  0  0  0
  -31.8776  -14.8250   20.3674 O   0  0  0  0  0  0  0  0  0  0  0  0
  -31.9382  -27.6051   28.5517 O   0  0  0  0  0  0  0  0  0  0  0  0
  -34.9819  -27.3729   24.9182 O   0  0  0  0  0  0  0  0  0  0  0  0
  -21.5064   -7.0835   21.8184 O   0  0  0  0  0  0  0  0  0  0  0  0
  -34.1551  -20.6488   24.2443 O   0  0  0  0  0  0  0  0  0  1  0  0
  -23.8767   -3.1075   24.8146 F   0  0  0  0  0  0  0  0  0  0  0  0
  -20.4248   -6.2944   24.2371 F   0  0  0  0  0  0  0  0  0  0  0  0
  1  2  1  0  0  0  0
  1  5  2  0  0  0  0
  2  6  2  0  0  0  0
  3  8  2  0  0  0  0
  3 16  1  0  0  0  0
  4  9  1  0  0  0  0
  4 16  2  0  0  0  0
  5 18  1  0  0  0  0
  6 20  1  0  0  0  0
  7 10  2  0  0  0  0
  7 19  1  0  0  0  0
  8 24  1  0  0  0  0
  9 24  2  0  0  0  0
 10 25  1  0  0  0  0
 11 12  2  0  0  0  0
 11 26  1  0  0  0  0
 12 27  1  0  0  0  0
 13 21  1  0  0  0  0
 13 25  2  0  0  0  0
 14 22  1  0  0  0  0
 14 23  2  0  0  0  0
 15 27  2  0  0  0  0
 15 28  1  0  0  0  0
 16 29  1  0  0  0  0
 17 29  1  0  0  0  0
 17 32  2  0  0  0  0
 17 33  1  0  0  0  0
 18 20  2  0  0  0  0
 18 38  1  0  0  0  0
 19 21  2  0  0  0  0
 19 39  1  0  0  0  0
 20 47  1  0  0  0  0
 21 40  1  0  0  0  0
 22 30  2  0  0  0  0
 22 57  1  0  0  0  0
 23 31  1  0  0  0  0
 23 58  1  0  0  0  0
 24 81  1  0  0  0  0
 25 82  1  0  0  0  0
 26 28  2  0  0  0  0
 26 81  1  0  0  0  0
 27 83  1  0  0  0  0
 28 84  1  0  0  0  0
 29 66  2  0  0  0  0
 30 50  1  0  0  0  0
 30 67  1  0  0  0  0
 31 59  1  0  0  0  0
 31 67  2  0  0  0  0
 32 68  1  0  0  0  0
 32 71  1  0  0  0  0
 33 72  1  0  0  0  0
 33 76  2  0  0  0  0
 34 48  1  0  0  0  0
 34 73  1  0  0  0  0
 34 77  2  0  0  0  0
 35 60  1  0  0  0  0
 35 70  1  0  0  0  0
 35 78  2  0  0  0  0
 36 63  1  0  0  0  0
 36 69  1  0  0  0  0
 36 79  2  0  0  0  0
 37 64  1  0  0  0  0
 37 74  1  0  0  0  0
 37 80  2  0  0  0  0
 38 41  1  0  0  0  0
 39 48  1  0  0  0  0
 40 69  1  0  0  0  0
 41 43  1  0  0  0  0
 42 44  1  0  0  0  0
 42 45  1  0  0  0  0
 43 47  1  0  0  0  0
 44 49  1  0  0  0  0
 45 70  1  0  0  0  0
 46 49  1  0  0  0  0
 46 70  1  0  0  0  0
 47 73  1  0  0  0  0
 48 69  1  0  0  0  0
 49 68  1  0  0  0  0
 51 57  1  0  0  0  0
 52 64  1  0  0  0  0
 53 65  1  0  0  0  0
 54 65  1  0  0  0  0
 55 65  1  0  0  0  0
 56 75  1  0  0  0  0
 58 61  1  0  0  0  0
 59 60  1  0  0  0  0
 61 62  1  0  0  0  0
 62 82  1  0  0  0  0
 63 65  1  0  0  0  0
 63 74  1  0  0  0  0
 64 75  1  0  0  0  0
 66 68  1  0  0  0  0
M  CHG  1  75   1
M  ISO  4  35 100  60 100  62 101  82 101
M  END
> <Batch ID>
0084

> <Smiles>
CCc1cc(CC[101CH2:1][101O:1]c2ccc3c(c2)CN(C(=O)C(NC(=O)C(C)NC)C(C)(C)C)C(C(=O)NC2CCCc4ccccc42)C3)c(C[100CH2:0][100C:0](=O)N2CCCC(n3nc(-c4ccc(Oc5ccc(F)cc5F)cc4)c(C(N)=O)c3N)C2)nc1C

> <Shape>
0.170

> <Color>
0.200

> <Negative vol penalty>
0.000

$$$$

  -OEChem-04052318543D

 87 95  0     1  0  0  0  0  0999 V2000
  -17.0202  -29.2839   24.4954 C   0  0  0  0  0  0  0  0  0  0  0  0
  -17.5387  -28.0506   24.1135 C   0  0  0  0  0  0  0  0  0  0  0  0
  -26.4176  -11.7179   21.0746 C   0  0  0  0  0  0  0  0  0  0  0  0
  -25.5192  -13.6709   19.9720 C   0  0  0  0  0  0  0  0  0  0  0  0
  -17.4827  -30.4511   23.8891 C   0  0  0  0  0  0  0  0  0  0  0  0
  -18.5191  -27.9839   23.1243 C   0  0  0  0  0  0  0  0  0  0  0  0
  -23.1785  -24.0211   22.8205 C   0  0  0  0  0  0  0  0  0  0  0  0
  -25.1439  -11.3966   21.5436 C   0  0  0  0  0  0  0  0  0  0  0  0
  -24.2454  -13.3496   20.4410 C   0  0  0  0  0  0  0  0  0  0  0  0
  -23.3567  -22.8356   22.1088 C   0  0  0  0  0  0  0  0  0  0  0  0
  -22.0682   -9.8649   22.7307 C   0  0  0  0  0  0  0  0  0  0  0  0
  -21.6558   -8.5363   22.6292 C   0  0  0  0  0  0  0  0  0  0  0  0
  -24.5188  -24.0544   20.3815 C   0  0  0  0  0  0  0  0  0  0  0  0
  -27.5186  -20.2780   20.8629 C   0  0  0  0  0  0  0  0  0  0  0  0
  -21.9162   -8.6387   20.2295 C   0  0  0  0  0  0  0  0  0  0  0  0
  -26.6053  -12.8551   20.2889 C   0  0  0  0  0  0  0  0  0  0  0  0
  -28.5106  -12.7760   18.5944 C   0  0  0  0  0  0  0  0  0  0  0  0
  -18.4763  -30.3994   22.8987 C   0  0  0  0  0  0  0  0  0  0  0  0
  -23.6604  -25.2359   22.3120 C   0  0  0  0  0  0  0  0  0  0  0  0
  -18.9944  -29.1514   22.5032 C   0  0  0  0  0  0  0  0  0  0  0  0
  -24.3476  -25.2535   21.0900 C   0  0  0  0  0  0  0  0  0  0  0  0
  -26.5430  -19.9567   19.8872 C   0  0  0  0  0  0  0  0  0  0  0  0
  -24.0577  -12.2125   21.2267 C   0  0  0  0  0  0  0  0  0  0  0  0
  -24.0244  -22.8525   20.8877 C   0  0  0  0  0  0  0  0  0  0  0  0
  -22.4046  -10.5804   21.5815 C   0  0  0  0  0  0  0  0  0  0  0  0
  -21.5798   -7.9232   21.3787 C   0  0  0  0  0  0  0  0  0  0  0  0
  -22.3286   -9.9673   20.3309 C   0  0  0  0  0  0  0  0  0  0  0  0
  -27.9209  -13.1878   19.8046 C   0  0  0  0  0  0  0  0  0  0  0  0
  -28.6522  -20.6830   20.1934 C   0  0  0  0  0  0  0  0  0  0  0  0
  -27.1102  -20.1750   18.6510 C   0  0  0  0  0  0  0  0  0  0  0  0
  -29.7558  -13.3556   18.6046 C   0  0  0  0  0  0  0  0  0  0  0  0
  -27.9802  -11.9442   17.5541 C   0  0  0  0  0  0  0  0  0  0  0  0
  -22.3280  -27.9810   21.4216 C   0  0  0  0  0  0  0  0  0  0  0  0
  -25.4147  -28.9263   21.1033 C   0  0  0  0  0  0  0  0  0  0  0  0
  -28.6766  -28.0516   20.6122 C   0  0  0  0  0  0  0  0  0  0  0  0
  -31.9747  -18.2035   21.3295 C   0  0  0  0  0  0  0  0  0  0  0  0
  -18.9107  -31.6840   22.2385 C   0  0  0  0  0  0  0  0  0  0  0  0
  -23.4835  -26.5018   23.1048 C   0  0  0  0  0  0  0  0  0  0  0  0
  -24.9020  -26.5282   20.5102 C   0  0  0  0  0  0  0  0  0  0  0  0
  -20.2199  -31.5581   21.4637 C   0  0  0  0  0  0  0  0  0  0  0  0
  -33.1620  -14.8586   21.6095 C   0  0  0  0  0  0  0  0  0  0  0  0
  -20.2073  -30.3049   20.5943 C   0  0  0  0  0  0  0  0  0  0  0  0
  -32.0066  -14.0139   21.0694 C   0  0  0  0  0  0  0  0  0  0  0  0
  -32.6583  -16.0713   22.3890 C   0  0  0  0  0  0  0  0  0  0  0  0
  -30.5468  -16.0792   21.1182 C   0  0  0  0  0  0  0  0  0  0  0  0
  -20.0767  -29.0401   21.4514 C   0  0  1  0  0  0  0  0  0  0  0  0
  -23.5644  -27.7605   22.2465 C   0  0  1  0  0  0  0  0  0  0  0  0
  -31.0048  -14.8753   20.2772 C   0  0  2  0  0  0  0  0  0  0  0  0
  -26.5409  -20.0012   17.2976 C   0  0  0  0  0  0  0  0  0  0  0  0
  -30.9304  -20.0997   16.0592 C   0  0  0  0  0  0  0  0  0  0  0  0
  -25.1512  -18.1162   20.8906 C   0  0  0  0  0  0  0  0  0  0  0  0
  -30.9666  -29.0467   20.3607 C   0  0  0  0  0  0  0  0  0  0  0  0
  -30.0913  -21.1470   22.2934 C   0  0  0  0  0  0  0  0  0  0  0  0
  -30.2642  -22.6037   20.2924 C   0  0  0  0  0  0  0  0  0  0  0  0
  -24.7295  -29.7765   18.2542 C   0  0  0  0  0  0  0  0  0  0  0  0
  -27.1831  -29.8582   17.7629 C   0  0  0  0  0  0  0  0  0  0  0  0
  -26.2080  -31.3697   19.4913 C   0  0  0  0  0  0  0  0  0  0  0  0
  -29.6829  -26.6328   23.0067 C   0  0  0  0  0  0  0  0  0  0  0  0
  -29.9413  -19.7206   17.1491 C   0  0  0  0  0  0  0  0  0  0  0  0
  -29.3298  -20.9589   17.8005 C   0  0  0  0  0  0  0  0  0  0  0  0
  -31.1647  -20.2595   20.2000 C   0  0  0  0  0  0  0  0  0  0  0  0
  -24.3058  -20.4918   20.9473 C   0  0  0  0  0  0  0  0  0  1  0  0
  -25.1313  -19.4631   20.1625 C   0  0  1  0  0  0  0  0  0  0  0  0
  -26.4310  -28.9006   19.9874 C   0  0  1  0  0  0  0  0  0  0  0  0
  -29.9492  -28.4645   21.3295 C   0  0  2  0  0  0  0  0  0  0  0  0
  -29.9573  -21.1271   20.7245 C   0  0  0  0  0  0  0  0  0  0  0  0
  -26.1259  -29.9524   18.8836 C   0  0  0  0  0  0  0  0  0  0  0  0
  -28.7254  -13.9684   20.5308 N   0  0  0  0  0  0  0  0  0  0  0  0
  -28.3925  -20.6160   18.8494 N   0  0  0  0  0  0  0  0  0  0  0  0
  -29.8333  -14.0518   19.7748 N   0  0  0  0  0  0  0  0  0  0  0  0
  -24.6980  -27.7408   21.3199 N   0  0  0  0  0  0  0  0  0  0  0  0
  -31.7136  -16.8465   21.5812 N   0  0  0  0  0  0  0  0  0  0  0  0
  -30.7810  -13.3325   17.7266 N   0  0  0  0  0  0  0  0  0  0  0  0
  -26.6843  -11.4316   17.7038 N   0  0  0  0  0  0  0  0  0  0  0  0
  -21.3461  -28.7111   22.0637 N   0  0  0  0  0  0  0  0  0  0  0  0
  -27.7360  -29.0597   20.6199 N   0  0  0  0  0  0  0  0  0  0  0  0
  -31.0321  -18.8629   20.5501 N   0  0  0  0  0  0  0  0  0  0  0  0
  -30.5656  -27.2897   22.0085 N   0  3  0  0  0  0  0  0  0  0  0  0
  -28.6421  -11.6503   16.5299 O   0  0  0  0  0  0  0  0  0  0  0  0
  -22.2698  -27.5239   20.2861 O   0  0  0  0  0  0  0  0  0  0  0  0
  -25.2673  -29.9579   21.7635 O   0  0  0  0  0  0  0  0  0  0  0  0
  -28.5329  -26.9467   20.0935 O   0  0  0  0  0  0  0  0  0  0  0  0
  -32.9764  -18.7831   21.7626 O   0  0  0  0  0  0  0  0  0  0  0  0
  -22.8146  -11.8992   21.6840 O   0  0  0  0  0  0  0  0  0  0  0  0
  -24.1991  -21.6969   20.1906 O   0  0  0  0  0  0  0  0  0  1  0  0
  -21.1852   -6.6468   21.2815 F   0  0  0  0  0  0  0  0  0  0  0  0
  -22.6516  -10.6493   19.2235 F   0  0  0  0  0  0  0  0  0  0  0  0
  1  2  1  0  0  0  0
  1  5  2  0  0  0  0
  2  6  2  0  0  0  0
  3  8  2  0  0  0  0
  3 16  1  0  0  0  0
  4  9  1  0  0  0  0
  4 16  2  0  0  0  0
  5 18  1  0  0  0  0
  6 20  1  0  0  0  0
  7 10  2  0  0  0  0
  7 19  1  0  0  0  0
  8 23  1  0  0  0  0
  9 23  2  0  0  0  0
 10 24  1  0  0  0  0
 11 12  2  0  0  0  0
 11 25  1  0  0  0  0
 12 26  1  0  0  0  0
 13 21  1  0  0  0  0
 13 24  2  0  0  0  0
 14 22  1  0  0  0  0
 14 29  2  0  0  0  0
 15 26  2  0  0  0  0
 15 27  1  0  0  0  0
 16 28  1  0  0  0  0
 17 28  1  0  0  0  0
 17 31  2  0  0  0  0
 17 32  1  0  0  0  0
 18 20  2  0  0  0  0
 18 37  1  0  0  0  0
 19 21  2  0  0  0  0
 19 38  1  0  0  0  0
 20 46  1  0  0  0  0
 21 39  1  0  0  0  0
 22 30  2  0  0  0  0
 22 63  1  0  0  0  0
 23 84  1  0  0  0  0
 24 85  1  0  0  0  0
 25 27  2  0  0  0  0
 25 84  1  0  0  0  0
 26 86  1  0  0  0  0
 27 87  1  0  0  0  0
 28 68  2  0  0  0  0
 29 66  1  0  0  0  0
 29 69  1  0  0  0  0
 30 49  1  0  0  0  0
 30 69  1  0  0  0  0
 31 70  1  0  0  0  0
 31 73  1  0  0  0  0
 32 74  1  0  0  0  0
 32 79  2  0  0  0  0
 33 47  1  0  0  0  0
 33 75  1  0  0  0  0
 33 80  2  0  0  0  0
 34 64  1  0  0  0  0
 34 71  1  0  0  0  0
 34 81  2  0  0  0  0
 35 65  1  0  0  0  0
 35 76  1  0  0  0  0
 35 82  2  0  0  0  0
 36 72  1  0  0  0  0
 36 77  1  0  0  0  0
 36 83  2  0  0  0  0
 37 40  1  0  0  0  0
 38 47  1  0  0  0  0
 39 71  1  0  0  0  0
 40 42  1  0  0  0  0
 41 43  1  0  0  0  0
 41 44  1  0  0  0  0
 42 46  1  0  0  0  0
 43 48  1  0  0  0  0
 44 72  1  0  0  0  0
 45 48  1  0  0  0  0
 45 72  1  0  0  0  0
 46 75  1  0  0  0  0
 47 71  1  0  0  0  0
 48 70  1  0  0  0  0
 50 59  1  0  0  0  0
 51 63  1  0  0  0  0
 52 65  1  0  0  0  0
 53 66  1  0  0  0  0
 54 66  1  0  0  0  0
 55 67  1  0  0  0  0
 56 67  1  0  0  0  0
 57 67  1  0  0  0  0
 58 78  1  0  0  0  0
 59 60  1  0  0  0  0
 60 69  1  0  0  0  0
 61 66  1  0  0  0  0
 61 77  1  0  0  0  0
 62 63  1  0  0  0  0
 62 85  1  0  0  0  0
 64 67  1  0  0  0  0
 64 76  1  0  0  0  0
 65 78  1  0  0  0  0
 68 70  1  0  0  0  0
M  CHG  1  78   1
M  ISO  4  36 100  62 101  77 100  85 101
M  END
> <Batch ID>
0084

> <Smiles>
CCCn1c(C(C)(C)C[100NH:0][100C:0](=O)N2CCCC(n3nc(-c4ccc(Oc5ccc(F)cc5F)cc4)c(C(N)=O)c3N)C2)cc(C(C)[101CH2:1][101O:1]c2ccc3c(c2)CN(C(=O)C(NC(=O)C(C)NC)C(C)(C)C)C(C(=O)NC2CCCc4ccccc42)C3)c1C

> <Shape>
0.282

> <Color>
0.081

> <Negative vol penalty>
0.000

$$$$

  -OEChem-04052318543D

 85 93  0     1  0  0  0  0  0999 V2000
  -20.5064  -31.8520   21.6228 C   0  0  0  0  0  0  0  0  0  0  0  0
  -21.7384  -31.2058   21.6287 C   0  0  0  0  0  0  0  0  0  0  0  0
  -26.2598  -12.8621   21.2891 C   0  0  0  0  0  0  0  0  0  0  0  0
  -26.2576  -13.1587   18.8914 C   0  0  0  0  0  0  0  0  0  0  0  0
  -19.3576  -31.1637   22.0106 C   0  0  0  0  0  0  0  0  0  0  0  0
  -21.8224  -29.8711   22.0236 C   0  0  0  0  0  0  0  0  0  0  0  0
  -24.7368  -27.1113   18.9357 C   0  0  0  0  0  0  0  0  0  0  0  0
  -25.0776  -12.1273   21.1994 C   0  0  0  0  0  0  0  0  0  0  0  0
  -25.0754  -12.4238   18.8016 C   0  0  0  0  0  0  0  0  0  0  0  0
  -26.1175  -27.2347   19.0844 C   0  0  0  0  0  0  0  0  0  0  0  0
  -24.1559   -8.9842   20.3600 C   0  0  0  0  0  0  0  0  0  0  0  0
  -24.0716   -7.7999   21.0920 C   0  0  0  0  0  0  0  0  0  0  0  0
  -26.1582  -25.1829   20.3524 C   0  0  0  0  0  0  0  0  0  0  0  0
  -22.1702   -8.6792   22.2955 C   0  0  0  0  0  0  0  0  0  0  0  0
  -29.0020  -25.0199   15.7837 C   0  0  0  0  0  0  0  0  0  0  0  0
  -26.8498  -13.3778   20.1352 C   0  0  0  0  0  0  0  0  0  0  0  0
  -29.3869  -13.6421   20.1646 C   0  0  0  0  0  0  0  0  0  0  0  0
  -19.4261  -29.8171   22.4012 C   0  0  0  0  0  0  0  0  0  0  0  0
  -24.0537  -26.0267   19.5045 C   0  0  0  0  0  0  0  0  0  0  0  0
  -20.6736  -29.1645   22.4183 C   0  0  0  0  0  0  0  0  0  0  0  0
  -24.7692  -25.0467   20.2073 C   0  0  0  0  0  0  0  0  0  0  0  0
  -24.4854  -11.9081   19.9556 C   0  0  0  0  0  0  0  0  0  0  0  0
  -26.8281  -26.2720   19.7953 C   0  0  0  0  0  0  0  0  0  0  0  0
  -23.2474  -10.0161   20.5958 C   0  0  0  0  0  0  0  0  0  0  0  0
  -23.0787   -7.6474   22.0598 C   0  0  0  0  0  0  0  0  0  0  0  0
  -22.2545   -9.8635   21.5635 C   0  0  0  0  0  0  0  0  0  0  0  0
  -28.0707  -14.1375   20.2273 C   0  0  0  0  0  0  0  0  0  0  0  0
  -29.2059  -23.7570   15.3035 C   0  0  0  0  0  0  0  0  0  0  0  0
  -30.1796  -14.7554   20.3007 C   0  0  0  0  0  0  0  0  0  0  0  0
  -31.1595  -24.7975   15.3409 C   0  0  0  0  0  0  0  0  0  0  0  0
  -29.8514  -12.2959   19.9981 C   0  0  0  0  0  0  0  0  0  0  0  0
  -21.7757  -25.7119   21.6988 C   0  0  0  0  0  0  0  0  0  0  0  0
  -21.9001  -22.5924   20.8180 C   0  0  0  0  0  0  0  0  0  0  0  0
  -23.7012  -20.0390   19.4459 C   0  0  0  0  0  0  0  0  0  0  0  0
  -29.2835  -20.5637   19.1558 C   0  0  0  0  0  0  0  0  0  0  0  0
  -18.1643  -29.1285   22.8574 C   0  0  0  0  0  0  0  0  0  0  0  0
  -22.5679  -25.8940   19.3123 C   0  0  0  0  0  0  0  0  0  0  0  0
  -24.0858  -23.8525   20.8200 C   0  0  0  0  0  0  0  0  0  0  0  0
  -18.2832  -27.6073   22.9037 C   0  0  0  0  0  0  0  0  0  0  0  0
  -30.2072  -19.1140   22.2738 C   0  0  0  0  0  0  0  0  0  0  0  0
  -19.5818  -27.1939   23.5889 C   0  0  0  0  0  0  0  0  0  0  0  0
  -29.8831  -17.6295   22.0972 C   0  0  0  0  0  0  0  0  0  0  0  0
  -29.1861  -20.0025   21.5666 C   0  0  0  0  0  0  0  0  0  0  0  0
  -28.6544  -18.2081   19.9631 C   0  0  0  0  0  0  0  0  0  0  0  0
  -20.8017  -27.7102   22.8165 C   0  0  1  0  0  0  0  0  0  0  0  0
  -21.9041  -25.0194   20.3715 C   0  0  1  0  0  0  0  0  0  0  0  0
  -29.6876  -17.2710   20.6117 C   0  0  2  0  0  0  0  0  0  0  0  0
  -32.6112  -25.0682   15.1916 C   0  0  0  0  0  0  0  0  0  0  0  0
  -23.5497  -17.5955   18.8947 C   0  0  0  0  0  0  0  0  0  0  0  0
  -31.0695  -26.7658   20.1168 C   0  0  0  0  0  0  0  0  0  0  0  0
  -22.2944  -21.9058   23.7647 C   0  0  0  0  0  0  0  0  0  0  0  0
  -23.0732  -19.6334   23.0591 C   0  0  0  0  0  0  0  0  0  0  0  0
  -20.7492  -20.3722   22.5339 C   0  0  0  0  0  0  0  0  0  0  0  0
  -24.0806  -20.5488   16.5554 C   0  0  0  0  0  0  0  0  0  0  0  0
  -28.2767  -22.6487   15.0692 C   0  0  0  0  0  0  0  0  0  0  0  0
  -28.0763  -21.6848   16.2697 C   0  0  0  0  0  0  0  0  0  0  0  0
  -31.1309  -27.1562   17.6407 C   0  0  0  0  0  0  0  0  0  0  0  0
  -30.4781  -27.0559   16.2551 C   0  0  0  0  0  0  0  0  0  0  0  0
  -29.3518  -20.9685   16.7082 C   0  0  0  0  0  0  0  0  0  0  0  0
  -28.8878  -27.0508   18.8969 C   0  0  0  0  0  0  0  0  0  1  0  0
  -22.6881  -21.3855   21.2666 C   0  0  1  0  0  0  0  0  0  0  0  0
  -23.3471  -19.0136   18.3840 C   0  0  2  0  0  0  0  0  0  0  0  0
  -30.3256  -26.5238   18.7972 C   0  0  2  0  0  0  0  0  0  0  0  0
  -22.2141  -20.8476   22.6463 C   0  0  0  0  0  0  0  0  0  0  0  0
  -28.0256  -15.4623   20.3907 N   0  0  0  0  0  0  0  0  0  0  0  0
  -30.2276  -25.6410   15.7965 N   0  0  0  0  0  0  0  0  0  0  0  0
  -29.3234  -15.8089   20.4320 N   0  0  0  0  0  0  0  0  0  0  0  0
  -30.5495  -23.6472   15.0375 N   0  3  0  0  0  0  0  0  0  0  0  0
  -22.6309  -23.7707   20.6100 N   0  0  0  0  0  0  0  0  0  0  0  0
  -29.0491  -19.6116   20.1615 N   0  0  0  0  0  0  0  0  0  0  0  0
  -31.5186  -14.9262   20.3199 N   0  0  0  0  0  0  0  0  0  0  0  0
  -28.9023  -11.2722   19.8731 N   0  0  0  0  0  0  0  0  0  0  0  0
  -21.0488  -26.8862   21.6526 N   0  0  0  0  0  0  0  0  0  0  0  0
  -22.5975  -20.4130   20.1829 N   0  0  0  0  0  0  0  0  0  0  0  0
  -29.1381  -20.1087   17.8510 N   0  0  0  0  0  0  0  0  0  0  0  0
  -24.1984  -19.2041   17.1757 N   0  3  0  0  0  0  0  0  0  0  0  0
  -31.0720  -12.0072   19.9777 O   0  0  0  0  0  0  0  0  0  0  0  0
  -22.2961  -25.2167   22.6915 O   0  0  0  0  0  0  0  0  0  0  0  0
  -20.6820  -22.4915   20.6511 O   0  0  0  0  0  0  0  0  0  0  0  0
  -24.8434  -20.4628   19.6080 O   0  0  0  0  0  0  0  0  0  0  0  0
  -29.6040  -21.7314   19.4024 O   0  0  0  0  0  0  0  0  0  0  0  0
  -23.3319  -11.1909   19.8676 O   0  0  0  0  0  0  0  0  0  0  0  0
  -28.1757  -26.3903   19.9424 O   0  0  0  0  0  0  0  0  0  1  0  0
  -22.9969   -6.5094   22.7616 F   0  0  0  0  0  0  0  0  0  0  0  0
  -21.3781  -10.8508   21.7936 F   0  0  0  0  0  0  0  0  0  0  0  0
  1  2  1  0  0  0  0
  1  5  2  0  0  0  0
  2  6  2  0  0  0  0
  3  8  2  0  0  0  0
  3 16  1  0  0  0  0
  4  9  1  0  0  0  0
  4 16  2  0  0  0  0
  5 18  1  0  0  0  0
  6 20  1  0  0  0  0
  7 10  2  0  0  0  0
  7 19  1  0  0  0  0
  8 22  1  0  0  0  0
  9 22  2  0  0  0  0
 10 23  1  0  0  0  0
 11 12  2  0  0  0  0
 11 24  1  0  0  0  0
 12 25  1  0  0  0  0
 13 21  1  0  0  0  0
 13 23  2  0  0  0  0
 14 25  2  0  0  0  0
 14 26  1  0  0  0  0
 15 28  2  0  0  0  0
 15 66  1  0  0  0  0
 16 27  1  0  0  0  0
 17 27  1  0  0  0  0
 17 29  2  0  0  0  0
 17 31  1  0  0  0  0
 18 20  2  0  0  0  0
 18 36  1  0  0  0  0
 19 21  2  0  0  0  0
 19 37  1  0  0  0  0
 20 45  1  0  0  0  0
 21 38  1  0  0  0  0
 22 82  1  0  0  0  0
 23 83  1  0  0  0  0
 24 26  2  0  0  0  0
 24 82  1  0  0  0  0
 25 84  1  0  0  0  0
 26 85  1  0  0  0  0
 27 65  2  0  0  0  0
 28 55  1  0  0  0  0
 28 68  1  0  0  0  0
 29 67  1  0  0  0  0
 29 71  1  0  0  0  0
 30 48  1  0  0  0  0
 30 66  1  0  0  0  0
 30 68  2  0  0  0  0
 31 72  1  0  0  0  0
 31 77  2  0  0  0  0
 32 46  1  0  0  0  0
 32 73  1  0  0  0  0
 32 78  2  0  0  0  0
 33 61  1  0  0  0  0
 33 69  1  0  0  0  0
 33 79  2  0  0  0  0
 34 62  1  0  0  0  0
 34 74  1  0  0  0  0
 34 80  2  0  0  0  0
 35 70  1  0  0  0  0
 35 75  1  0  0  0  0
 35 81  2  0  0  0  0
 36 39  1  0  0  0  0
 37 46  1  0  0  0  0
 38 69  1  0  0  0  0
 39 41  1  0  0  0  0
 40 42  1  0  0  0  0
 40 43  1  0  0  0  0
 41 45  1  0  0  0  0
 42 47  1  0  0  0  0
 43 70  1  0  0  0  0
 44 47  1  0  0  0  0
 44 70  1  0  0  0  0
 45 73  1  0  0  0  0
 46 69  1  0  0  0  0
 47 67  1  0  0  0  0
 49 62  1  0  0  0  0
 50 63  1  0  0  0  0
 51 64  1  0  0  0  0
 52 64  1  0  0  0  0
 53 64  1  0  0  0  0
 54 76  1  0  0  0  0
 55 56  1  0  0  0  0
 56 59  1  0  0  0  0
 57 58  1  0  0  0  0
 57 63  1  0  0  0  0
 58 66  1  0  0  0  0
 59 75  1  0  0  0  0
 60 63  1  0  0  0  0
 60 83  1  0  0  0  0
 61 64  1  0  0  0  0
 61 74  1  0  0  0  0
 62 76  1  0  0  0  0
 65 67  1  0  0  0  0
M  CHG  2  68   1  76   1
M  ISO  4  35 100  60 101  75 100  83 101
M  END
> <Batch ID>
0084

> <Smiles>
CNC(C)C(=O)NC(C(=O)N1Cc2cc([101O:1][101CH2:1]C(C)CCn3cc(CCC[100NH:0][100C:0](=O)N4CCCC(n5nc(-c6ccc(Oc7ccc(F)cc7F)cc6)c(C(N)=O)c5N)C4)nc3C)ccc2CC1C(=O)NC1CCCc2ccccc21)C(C)(C)C

> <Shape>
0.252

> <Color>
0.072

> <Negative vol penalty>
0.000

$$$$

  -OEChem-04052318543D

 85 93  0     1  0  0  0  0  0999 V2000
  -20.1280  -34.3984   22.4330 C   0  0  0  0  0  0  0  0  0  0  0  0
  -21.3614  -33.9323   21.9895 C   0  0  0  0  0  0  0  0  0  0  0  0
  -25.8244  -14.8130   22.3103 C   0  0  0  0  0  0  0  0  0  0  0  0
  -25.8036  -14.0003   20.0352 C   0  0  0  0  0  0  0  0  0  0  0  0
  -19.3615  -33.6215   23.3008 C   0  0  0  0  0  0  0  0  0  0  0  0
  -21.8297  -32.6895   22.4143 C   0  0  0  0  0  0  0  0  0  0  0  0
  -25.1769  -28.7130   19.1755 C   0  0  0  0  0  0  0  0  0  0  0  0
  -24.7486  -13.9801   22.6177 C   0  0  0  0  0  0  0  0  0  0  0  0
  -24.7278  -13.1674   20.3425 C   0  0  0  0  0  0  0  0  0  0  0  0
  -26.5450  -28.4465   19.1429 C   0  0  0  0  0  0  0  0  0  0  0  0
  -22.2077  -10.5616   20.6203 C   0  0  0  0  0  0  0  0  0  0  0  0
  -22.2544   -9.2449   20.1623 C   0  0  0  0  0  0  0  0  0  0  0  0
  -26.2221  -26.6300   20.6969 C   0  0  0  0  0  0  0  0  0  0  0  0
  -32.2658  -26.6250   17.1659 C   0  0  0  0  0  0  0  0  0  0  0  0
  -24.2835   -8.8789   21.4217 C   0  0  0  0  0  0  0  0  0  0  0  0
  -26.3519  -14.8231   21.0191 C   0  0  0  0  0  0  0  0  0  0  0  0
  -28.8328  -15.3747   20.7985 C   0  0  0  0  0  0  0  0  0  0  0  0
  -19.8163  -32.3643   23.7288 C   0  0  0  0  0  0  0  0  0  0  0  0
  -24.3212  -27.9456   19.9788 C   0  0  0  0  0  0  0  0  0  0  0  0
  -21.0692  -31.8956   23.2896 C   0  0  0  0  0  0  0  0  0  0  0  0
  -24.8431  -26.8871   20.7360 C   0  0  0  0  0  0  0  0  0  0  0  0
  -31.3046  -25.6321   17.0952 C   0  0  0  0  0  0  0  0  0  0  0  0
  -24.2003  -13.1573   21.6338 C   0  0  0  0  0  0  0  0  0  0  0  0
  -27.0682  -27.4067   19.9059 C   0  0  0  0  0  0  0  0  0  0  0  0
  -23.1989  -11.0370   21.4790 C   0  0  0  0  0  0  0  0  0  0  0  0
  -23.2923   -8.4036   20.5630 C   0  0  0  0  0  0  0  0  0  0  0  0
  -24.2368  -10.1956   21.8797 C   0  0  0  0  0  0  0  0  0  0  0  0
  -27.4628  -15.6837   20.7008 C   0  0  0  0  0  0  0  0  0  0  0  0
  -33.4442  -26.4339   16.4728 C   0  0  0  0  0  0  0  0  0  0  0  0
  -31.5852  -24.5139   16.3359 C   0  0  0  0  0  0  0  0  0  0  0  0
  -29.4729  -16.5169   20.3838 C   0  0  0  0  0  0  0  0  0  0  0  0
  -29.4698  -14.1633   21.2258 C   0  0  0  0  0  0  0  0  0  0  0  0
  -22.4101  -28.5580   22.4439 C   0  0  0  0  0  0  0  0  0  0  0  0
  -21.5452  -25.4575   22.0430 C   0  0  0  0  0  0  0  0  0  0  0  0
  -22.3510  -22.3520   20.8794 C   0  0  0  0  0  0  0  0  0  0  0  0
  -28.0158  -20.8360   16.8020 C   0  0  0  0  0  0  0  0  0  0  0  0
  -18.9739  -31.5812   24.7045 C   0  0  0  0  0  0  0  0  0  0  0  0
  -22.8440  -28.2288   19.9823 C   0  0  0  0  0  0  0  0  0  0  0  0
  -23.9641  -26.0207   21.5992 C   0  0  0  0  0  0  0  0  0  0  0  0
  -19.3729  -30.1116   24.8110 C   0  0  0  0  0  0  0  0  0  0  0  0
  -28.9372  -21.2587   20.1849 C   0  0  0  0  0  0  0  0  0  0  0  0
  -20.8867  -29.9776   24.9430 C   0  0  0  0  0  0  0  0  0  0  0  0
  -28.7879  -19.8350   20.7194 C   0  0  0  0  0  0  0  0  0  0  0  0
  -27.8200  -21.6252   19.2062 C   0  0  0  0  0  0  0  0  0  0  0  0
  -27.5121  -19.2394   18.6267 C   0  0  0  0  0  0  0  0  0  0  0  0
  -21.6002  -30.5418   23.7085 C   0  0  1  0  0  0  0  0  0  0  0  0
  -22.1393  -27.7113   21.2325 C   0  0  1  0  0  0  0  0  0  0  0  0
  -28.6554  -18.8255   19.5660 C   0  0  2  0  0  0  0  0  0  0  0  0
  -34.5119  -27.4727   16.5164 C   0  0  0  0  0  0  0  0  0  0  0  0
  -21.4584  -20.0115   20.7303 C   0  0  0  0  0  0  0  0  0  0  0  0
  -22.1879  -25.0270   24.9945 C   0  0  0  0  0  0  0  0  0  0  0  0
  -22.2017  -22.5613   24.5601 C   0  0  0  0  0  0  0  0  0  0  0  0
  -20.1136  -23.8777   24.2001 C   0  0  0  0  0  0  0  0  0  0  0  0
  -26.8469  -23.0807   16.8128 C   0  0  0  0  0  0  0  0  0  0  0  0
  -22.4039  -22.3964   17.9207 C   0  0  0  0  0  0  0  0  0  0  0  0
  -29.9992  -25.7910   17.8330 C   0  0  0  0  0  0  0  0  0  0  0  0
  -30.5977  -23.4029   16.2141 C   0  0  0  0  0  0  0  0  0  0  0  0
  -30.1093  -25.5457   19.3394 C   0  0  0  0  0  0  0  0  0  0  0  0
  -29.4578  -23.6696   15.2113 C   0  0  0  0  0  0  0  0  0  0  0  0
  -28.4772  -22.5097   15.0515 C   0  0  0  0  0  0  0  0  0  0  0  0
  -28.8047  -25.7920   20.0882 C   0  0  0  0  0  0  0  0  0  1  0  0
  -22.0352  -24.1332   22.5771 C   0  0  1  0  0  0  0  0  0  0  0  0
  -21.5723  -21.3593   20.0353 C   0  0  2  0  0  0  0  0  0  0  0  0
  -21.6517  -23.9172   24.0683 C   0  0  0  0  0  0  0  0  0  0  0  0
  -27.2446  -16.9251   20.2589 N   0  0  0  0  0  0  0  0  0  0  0  0
  -33.6920  -25.3293   15.7375 N   0  0  0  0  0  0  0  0  0  0  0  0
  -32.7470  -24.3536   15.6678 N   0  0  0  0  0  0  0  0  0  0  0  0
  -28.4859  -17.4062   20.0752 N   0  0  0  0  0  0  0  0  0  0  0  0
  -22.5274  -26.3412   21.5738 N   0  0  0  0  0  0  0  0  0  0  0  0
  -27.6965  -20.6121   18.1493 N   0  0  0  0  0  0  0  0  0  0  0  0
  -30.7781  -16.8374   20.2566 N   0  0  0  0  0  0  0  0  0  0  0  0
  -28.6629  -13.0867   21.6185 N   0  0  0  0  0  0  0  0  0  0  0  0
  -21.5234  -29.6050   22.6081 N   0  0  0  0  0  0  0  0  0  0  0  0
  -21.5178  -23.1118   21.6730 N   0  0  0  0  0  0  0  0  0  0  0  0
  -27.8443  -22.1384   16.3092 N   0  0  0  0  0  0  0  0  0  0  0  0
  -22.2463  -21.1553   18.7219 N   0  3  0  0  0  0  0  0  0  0  0  0
  -30.7176  -14.0449   21.2741 O   0  0  0  0  0  0  0  0  0  0  0  0
  -23.3529  -28.2811   23.1761 O   0  0  0  0  0  0  0  0  0  0  0  0
  -20.3350  -25.6960   22.0355 O   0  0  0  0  0  0  0  0  0  0  0  0
  -23.5762  -22.4418   20.8415 O   0  0  0  0  0  0  0  0  0  0  0  0
  -28.4244  -19.9211   16.0753 O   0  0  0  0  0  0  0  0  0  0  0  0
  -23.1506  -12.3442   21.9334 O   0  0  0  0  0  0  0  0  0  0  0  0
  -28.4033  -27.1449   19.8765 O   0  0  0  0  0  0  0  0  0  1  0  0
  -23.3362   -7.1387   20.1243 F   0  0  0  0  0  0  0  0  0  0  0  0
  -25.1912  -10.6463   22.7053 F   0  0  0  0  0  0  0  0  0  0  0  0
  1  2  1  0  0  0  0
  1  5  2  0  0  0  0
  2  6  2  0  0  0  0
  3  8  2  0  0  0  0
  3 16  1  0  0  0  0
  4  9  1  0  0  0  0
  4 16  2  0  0  0  0
  5 18  1  0  0  0  0
  6 20  1  0  0  0  0
  7 10  2  0  0  0  0
  7 19  1  0  0  0  0
  8 23  1  0  0  0  0
  9 23  2  0  0  0  0
 10 24  1  0  0  0  0
 11 12  2  0  0  0  0
 11 25  1  0  0  0  0
 12 26  1  0  0  0  0
 13 21  1  0  0  0  0
 13 24  2  0  0  0  0
 14 22  1  0  0  0  0
 14 29  2  0  0  0  0
 15 26  2  0  0  0  0
 15 27  1  0  0  0  0
 16 28  1  0  0  0  0
 17 28  1  0  0  0  0
 17 31  2  0  0  0  0
 17 32  1  0  0  0  0
 18 20  2  0  0  0  0
 18 37  1  0  0  0  0
 19 21  2  0  0  0  0
 19 38  1  0  0  0  0
 20 46  1  0  0  0  0
 21 39  1  0  0  0  0
 22 30  2  0  0  0  0
 22 56  1  0  0  0  0
 23 82  1  0  0  0  0
 24 83  1  0  0  0  0
 25 27  2  0  0  0  0
 25 82  1  0  0  0  0
 26 84  1  0  0  0  0
 27 85  1  0  0  0  0
 28 65  2  0  0  0  0
 29 49  1  0  0  0  0
 29 66  1  0  0  0  0
 30 57  1  0  0  0  0
 30 67  1  0  0  0  0
 31 68  1  0  0  0  0
 31 71  1  0  0  0  0
 32 72  1  0  0  0  0
 32 77  2  0  0  0  0
 33 47  1  0  0  0  0
 33 73  1  0  0  0  0
 33 78  2  0  0  0  0
 34 62  1  0  0  0  0
 34 69  1  0  0  0  0
 34 79  2  0  0  0  0
 35 63  1  0  0  0  0
 35 74  1  0  0  0  0
 35 80  2  0  0  0  0
 36 70  1  0  0  0  0
 36 75  1  0  0  0  0
 36 81  2  0  0  0  0
 37 40  1  0  0  0  0
 38 47  1  0  0  0  0
 39 69  1  0  0  0  0
 40 42  1  0  0  0  0
 41 43  1  0  0  0  0
 41 44  1  0  0  0  0
 42 46  1  0  0  0  0
 43 48  1  0  0  0  0
 44 70  1  0  0  0  0
 45 48  1  0  0  0  0
 45 70  1  0  0  0  0
 46 73  1  0  0  0  0
 47 69  1  0  0  0  0
 48 68  1  0  0  0  0
 50 63  1  0  0  0  0
 51 64  1  0  0  0  0
 52 64  1  0  0  0  0
 53 64  1  0  0  0  0
 54 75  1  0  0  0  0
 55 76  1  0  0  0  0
 56 58  1  0  0  0  0
 57 59  1  0  0  0  0
 58 61  1  0  0  0  0
 59 60  1  0  0  0  0
 60 75  1  0  0  0  0
 61 83  1  0  0  0  0
 62 64  1  0  0  0  0
 62 74  1  0  0  0  0
 63 76  1  0  0  0  0
 65 68  1  0  0  0  0
 66 67  2  0  0  0  0
M  CHG  1  76   1
M  ISO  4  36 100  61 101  75 100  83 101
M  END
> <Batch ID>
0084

> <Smiles>
CNC(C)C(=O)NC(C(=O)N1Cc2cc([101O:1][101CH2:1]CCc3cc(C)nnc3CCC[100N:0](C)[100C:0](=O)N3CCCC(n4nc(-c5ccc(Oc6ccc(F)cc6F)cc5)c(C(N)=O)c4N)C3)ccc2CC1C(=O)NC1CCCc2ccccc21)C(C)(C)C

> <Shape>
0.229

> <Color>
0.085

> <Negative vol penalty>
0.000

$$$$

  -OEChem-04052318543D

 87 95  0     1  0  0  0  0  0999 V2000
  -32.1745  -28.1494   17.5683 C   0  0  0  0  0  0  0  0  0  0  0  0
  -31.4436  -26.9752   17.7187 C   0  0  0  0  0  0  0  0  0  0  0  0
  -23.1663   -9.8001   21.5241 C   0  0  0  0  0  0  0  0  0  0  0  0
  -23.7381  -10.9127   23.5910 C   0  0  0  0  0  0  0  0  0  0  0  0
  -32.0243  -29.1854   18.4891 C   0  0  0  0  0  0  0  0  0  0  0  0
  -30.5629  -26.8360   18.7908 C   0  0  0  0  0  0  0  0  0  0  0  0
  -25.2184  -23.8457   18.8005 C   0  0  0  0  0  0  0  0  0  0  0  0
  -22.4597   -8.8337   22.2398 C   0  0  0  0  0  0  0  0  0  0  0  0
  -23.0314   -9.9463   24.3067 C   0  0  0  0  0  0  0  0  0  0  0  0
  -24.8582  -22.5700   19.2325 C   0  0  0  0  0  0  0  0  0  0  0  0
  -23.1618   -6.0703   24.0551 C   0  0  0  0  0  0  0  0  0  0  0  0
  -23.3521   -4.7347   23.7010 C   0  0  0  0  0  0  0  0  0  0  0  0
  -24.1374  -23.4941   21.3410 C   0  0  0  0  0  0  0  0  0  0  0  0
  -20.9985   -4.5336   23.1940 C   0  0  0  0  0  0  0  0  0  0  0  0
  -27.7633  -18.7337   22.8459 C   0  0  0  0  0  0  0  0  0  0  0  0
  -23.8056  -10.8396   22.1997 C   0  0  0  0  0  0  0  0  0  0  0  0
  -24.0372  -13.0498   20.9470 C   0  0  0  0  0  0  0  0  0  0  0  0
  -31.1342  -29.0626   19.5676 C   0  0  0  0  0  0  0  0  0  0  0  0
  -25.0507  -24.9555   19.6411 C   0  0  0  0  0  0  0  0  0  0  0  0
  -30.4017  -27.8709   19.7277 C   0  0  0  0  0  0  0  0  0  0  0  0
  -24.4940  -24.7831   20.9164 C   0  0  0  0  0  0  0  0  0  0  0  0
  -22.3922   -8.9068   23.6311 C   0  0  0  0  0  0  0  0  0  0  0  0
  -24.3203  -22.3936   20.5039 C   0  0  0  0  0  0  0  0  0  0  0  0
  -21.8897   -6.6376   23.9787 C   0  0  0  0  0  0  0  0  0  0  0  0
  -22.2705   -3.9663   23.2705 C   0  0  0  0  0  0  0  0  0  0  0  0
  -20.8081   -5.8693   23.5481 C   0  0  0  0  0  0  0  0  0  0  0  0
  -24.5362  -11.8379   21.4610 C   0  0  0  0  0  0  0  0  0  0  0  0
  -26.8036  -19.7105   22.6752 C   0  0  0  0  0  0  0  0  0  0  0  0
  -29.0722  -19.1580   22.7411 C   0  0  0  0  0  0  0  0  0  0  0  0
  -25.1186  -13.6341   20.3342 C   0  0  0  0  0  0  0  0  0  0  0  0
  -28.4012  -21.2930   22.3430 C   0  0  0  0  0  0  0  0  0  0  0  0
  -22.7143  -13.5982   21.0172 C   0  0  0  0  0  0  0  0  0  0  0  0
  -27.0058  -27.0891   20.9562 C   0  0  0  0  0  0  0  0  0  0  0  0
  -24.2286  -28.4666   21.9115 C   0  0  0  0  0  0  0  0  0  0  0  0
  -20.9124  -28.1042   22.6311 C   0  0  0  0  0  0  0  0  0  0  0  0
  -30.5156  -15.0544   20.3052 C   0  0  0  0  0  0  0  0  0  0  0  0
  -31.0408  -30.1911   20.5639 C   0  0  0  0  0  0  0  0  0  0  0  0
  -25.4195  -26.3287   19.1502 C   0  0  0  0  0  0  0  0  0  0  0  0
  -24.2747  -25.9448   21.8496 C   0  0  0  0  0  0  0  0  0  0  0  0
  -29.8086  -30.1108   21.4614 C   0  0  0  0  0  0  0  0  0  0  0  0
  -29.6868  -11.7623   19.2321 C   0  0  0  0  0  0  0  0  0  0  0  0
  -29.6337  -28.6955   22.0028 C   0  0  0  0  0  0  0  0  0  0  0  0
  -28.2345  -11.5865   19.6793 C   0  0  0  0  0  0  0  0  0  0  0  0
  -30.4930  -12.5782   20.2402 C   0  0  0  0  0  0  0  0  0  0  0  0
  -28.4537  -13.7094   21.0373 C   0  0  0  0  0  0  0  0  0  0  0  0
  -29.4180  -27.6918   20.8637 C   0  0  1  0  0  0  0  0  0  0  0  0
  -25.6824  -27.3172   20.2821 C   0  0  1  0  0  0  0  0  0  0  0  0
  -27.5867  -12.9406   20.0256 C   0  0  2  0  0  0  0  0  0  0  0  0
  -29.4371  -22.2556   19.6696 C   0  0  0  0  0  0  0  0  0  0  0  0
  -31.0463  -18.5083   24.1457 C   0  0  0  0  0  0  0  0  0  0  0  0
  -18.9154  -29.4010   23.4235 C   0  0  0  0  0  0  0  0  0  0  0  0
  -25.3280  -28.4159   24.7573 C   0  0  0  0  0  0  0  0  0  0  0  0
  -23.0004  -28.8140   25.5891 C   0  0  0  0  0  0  0  0  0  0  0  0
  -24.1148  -30.5153   24.1448 C   0  0  0  0  0  0  0  0  0  0  0  0
  -19.4209  -27.5569   20.1341 C   0  0  0  0  0  0  0  0  0  0  0  0
  -25.3443  -19.3434   22.7724 C   0  0  0  0  0  0  0  0  0  0  0  0
  -28.7562  -22.7149   22.0673 C   0  0  0  0  0  0  0  0  0  0  0  0
  -28.5553  -23.0848   20.5897 C   0  0  0  0  0  0  0  0  0  0  0  0
  -24.7231  -18.9295   21.4367 C   0  0  0  0  0  0  0  0  0  0  0  0
  -31.1008  -18.0308   21.6660 C   0  0  0  0  0  0  0  0  0  0  0  0
  -30.3808  -17.5301   20.4137 C   0  0  0  0  0  0  0  0  0  0  0  0
  -24.7111  -20.0499   20.4033 C   0  0  0  0  0  0  0  0  0  1  0  0
  -30.1800  -18.1733   22.9126 C   0  0  2  0  0  0  0  0  0  0  0  0
  -23.3330  -28.3403   23.1201 C   0  0  1  0  0  0  0  0  0  0  0  0
  -19.6969  -28.9124   22.2138 C   0  0  2  0  0  0  0  0  0  0  0  0
  -23.9499  -28.9990   24.3862 C   0  0  0  0  0  0  0  0  0  0  0  0
  -25.8337  -11.6616   21.1976 N   0  0  0  0  0  0  0  0  0  0  0  0
  -27.0881  -21.0047   22.4216 N   0  0  0  0  0  0  0  0  0  0  0  0
  -29.4285  -20.4347   22.4894 N   0  0  0  0  0  0  0  0  0  0  0  0
  -26.1591  -12.7702   20.5113 N   0  0  0  0  0  0  0  0  0  0  0  0
  -24.6570  -27.2667   21.3262 N   0  0  0  0  0  0  0  0  0  0  0  0
  -29.8253  -13.8508   20.5240 N   0  0  0  0  0  0  0  0  0  0  0  0
  -25.2716  -14.7974   19.6666 N   0  0  0  0  0  0  0  0  0  0  0  0
  -21.7223  -12.8668   21.6844 N   0  0  0  0  0  0  0  0  0  0  0  0
  -28.0585  -27.7683   20.3733 N   0  0  0  0  0  0  0  0  0  0  0  0
  -22.0400  -28.8916   22.7295 N   0  0  0  0  0  0  0  0  0  0  0  0
  -29.8078  -16.2148   20.5935 N   0  0  0  0  0  0  0  0  0  0  0  0
  -18.7888  -28.0844   21.3708 N   0  3  0  0  0  0  0  0  0  0  0  0
  -22.4168  -14.6965   20.4892 O   0  0  0  0  0  0  0  0  0  0  0  0
  -27.0669  -26.3527   21.9338 O   0  0  0  0  0  0  0  0  0  0  0  0
  -24.5310  -29.5885   21.4974 O   0  0  0  0  0  0  0  0  0  0  0  0
  -20.8653  -26.8960   22.8516 O   0  0  0  0  0  0  0  0  0  0  0  0
  -31.6749  -15.0922   19.8791 O   0  0  0  0  0  0  0  0  0  0  0  0
  -21.7025   -7.9640   24.3298 O   0  0  0  0  0  0  0  0  0  0  0  0
  -23.9684  -21.1494   20.9283 O   0  0  0  0  0  0  0  0  0  1  0  0
  -22.4537   -2.6841   22.9290 F   0  0  0  0  0  0  0  0  0  0  0  0
  -19.5840   -6.4091   23.4715 F   0  0  0  0  0  0  0  0  0  0  0  0
  1  2  1  0  0  0  0
  1  5  2  0  0  0  0
  2  6  2  0  0  0  0
  3  8  2  0  0  0  0
  3 16  1  0  0  0  0
  4  9  1  0  0  0  0
  4 16  2  0  0  0  0
  5 18  1  0  0  0  0
  6 20  1  0  0  0  0
  7 10  2  0  0  0  0
  7 19  1  0  0  0  0
  8 22  1  0  0  0  0
  9 22  2  0  0  0  0
 10 23  1  0  0  0  0
 11 12  2  0  0  0  0
 11 24  1  0  0  0  0
 12 25  1  0  0  0  0
 13 21  1  0  0  0  0
 13 23  2  0  0  0  0
 14 25  2  0  0  0  0
 14 26  1  0  0  0  0
 15 28  1  0  0  0  0
 15 29  2  0  0  0  0
 16 27  1  0  0  0  0
 17 27  1  0  0  0  0
 17 30  2  0  0  0  0
 17 32  1  0  0  0  0
 18 20  2  0  0  0  0
 18 37  1  0  0  0  0
 19 21  2  0  0  0  0
 19 38  1  0  0  0  0
 20 46  1  0  0  0  0
 21 39  1  0  0  0  0
 22 84  1  0  0  0  0
 23 85  1  0  0  0  0
 24 26  2  0  0  0  0
 24 84  1  0  0  0  0
 25 86  1  0  0  0  0
 26 87  1  0  0  0  0
 27 67  2  0  0  0  0
 28 56  1  0  0  0  0
 28 68  2  0  0  0  0
 29 63  1  0  0  0  0
 29 69  1  0  0  0  0
 30 70  1  0  0  0  0
 30 73  1  0  0  0  0
 31 57  1  0  0  0  0
 31 68  1  0  0  0  0
 31 69  2  0  0  0  0
 32 74  1  0  0  0  0
 32 79  2  0  0  0  0
 33 47  1  0  0  0  0
 33 75  1  0  0  0  0
 33 80  2  0  0  0  0
 34 64  1  0  0  0  0
 34 71  1  0  0  0  0
 34 81  2  0  0  0  0
 35 65  1  0  0  0  0
 35 76  1  0  0  0  0
 35 82  2  0  0  0  0
 36 72  1  0  0  0  0
 36 77  1  0  0  0  0
 36 83  2  0  0  0  0
 37 40  1  0  0  0  0
 38 47  1  0  0  0  0
 39 71  1  0  0  0  0
 40 42  1  0  0  0  0
 41 43  1  0  0  0  0
 41 44  1  0  0  0  0
 42 46  1  0  0  0  0
 43 48  1  0  0  0  0
 44 72  1  0  0  0  0
 45 48  1  0  0  0  0
 45 72  1  0  0  0  0
 46 75  1  0  0  0  0
 47 71  1  0  0  0  0
 48 70  1  0  0  0  0
 49 58  1  0  0  0  0
 50 63  1  0  0  0  0
 51 65  1  0  0  0  0
 52 66  1  0  0  0  0
 53 66  1  0  0  0  0
 54 66  1  0  0  0  0
 55 78  1  0  0  0  0
 56 59  1  0  0  0  0
 57 58  1  0  0  0  0
 59 62  1  0  0  0  0
 60 61  1  0  0  0  0
 60 63  1  0  0  0  0
 61 77  1  0  0  0  0
 62 85  1  0  0  0  0
 64 66  1  0  0  0  0
 64 76  1  0  0  0  0
 65 78  1  0  0  0  0
 67 70  1  0  0  0  0
M  CHG  1  78   1
M  ISO  4  36 100  62 101  77 100  85 101
M  END
> <Batch ID>
0084

> <Smiles>
CCCc1nc(CC[101CH2:1][101O:1]c2ccc3c(c2)CN(C(=O)C(NC(=O)C(C)NC)C(C)(C)C)C(C(=O)NC2CCCc4ccccc42)C3)cc(C(C)CC[100NH:0][100C:0](=O)N2CCCC(n3nc(-c4ccc(Oc5ccc(F)cc5F)cc4)c(C(N)=O)c3N)C2)n1

> <Shape>
0.295

> <Color>
0.143

> <Negative vol penalty>
0.000

$$$$

  -OEChem-04052318543D

 84 92  0     1  0  0  0  0  0999 V2000
  -20.5937  -20.4713   21.7330 C   0  0  0  0  0  0  0  0  0  0  0  0
  -21.9835  -20.5271   21.7584 C   0  0  0  0  0  0  0  0  0  0  0  0
  -26.2997  -14.6639   22.8347 C   0  0  0  0  0  0  0  0  0  0  0  0
  -25.6945  -14.4006   20.5106 C   0  0  0  0  0  0  0  0  0  0  0  0
  -19.8593  -21.5902   21.3420 C   0  0  0  0  0  0  0  0  0  0  0  0
  -22.6399  -21.7015   21.3919 C   0  0  0  0  0  0  0  0  0  0  0  0
  -27.8461  -23.8995   23.7520 C   0  0  0  0  0  0  0  0  0  0  0  0
  -25.3533  -13.7028   23.1900 C   0  0  0  0  0  0  0  0  0  0  0  0
  -24.7481  -13.4395   20.8659 C   0  0  0  0  0  0  0  0  0  0  0  0
  -29.1703  -23.8402   23.3199 C   0  0  0  0  0  0  0  0  0  0  0  0
  -24.7192  -10.1666   21.7075 C   0  0  0  0  0  0  0  0  0  0  0  0
  -24.6658   -8.9993   20.9458 C   0  0  0  0  0  0  0  0  0  0  0  0
  -28.9285  -26.0129   22.3001 C   0  0  0  0  0  0  0  0  0  0  0  0
  -22.3727   -9.4858   20.3610 C   0  0  0  0  0  0  0  0  0  0  0  0
  -31.9942  -23.2891   15.3608 C   0  0  0  0  0  0  0  0  0  0  0  0
  -26.4703  -15.0128   21.4950 C   0  0  0  0  0  0  0  0  0  0  0  0
  -28.7990  -15.7883   20.7999 C   0  0  0  0  0  0  0  0  0  0  0  0
  -20.5067  -22.7820   20.9798 C   0  0  0  0  0  0  0  0  0  0  0  0
  -27.0485  -25.0130   23.4514 C   0  0  0  0  0  0  0  0  0  0  0  0
  -21.9135  -22.8370   20.9945 C   0  0  0  0  0  0  0  0  0  0  0  0
  -27.5952  -26.0850   22.7317 C   0  0  0  0  0  0  0  0  0  0  0  0
  -24.5776  -13.0905   22.2056 C   0  0  0  0  0  0  0  0  0  0  0  0
  -29.7109  -24.8958   22.5914 C   0  0  0  0  0  0  0  0  0  0  0  0
  -23.5993  -10.9935   21.7960 C   0  0  0  0  0  0  0  0  0  0  0  0
  -23.4926   -8.6589   20.2725 C   0  0  0  0  0  0  0  0  0  0  0  0
  -22.4261  -10.6531   21.1227 C   0  0  0  0  0  0  0  0  0  0  0  0
  -27.4473  -16.0060   21.1274 C   0  0  0  0  0  0  0  0  0  0  0  0
  -30.7802  -23.3716   14.6528 C   0  0  0  0  0  0  0  0  0  0  0  0
  -31.7205  -22.4526   16.4153 C   0  0  0  0  0  0  0  0  0  0  0  0
  -29.2926  -17.0410   20.5286 C   0  0  0  0  0  0  0  0  0  0  0  0
  -29.5420  -14.5633   20.7457 C   0  0  0  0  0  0  0  0  0  0  0  0
  -24.3721  -25.4750   21.8001 C   0  0  0  0  0  0  0  0  0  0  0  0
  -28.7176  -22.0130   18.0310 C   0  0  0  0  0  0  0  0  0  0  0  0
  -24.6297  -28.4884   22.9730 C   0  0  0  0  0  0  0  0  0  0  0  0
  -26.6359  -30.9463   24.2303 C   0  0  0  0  0  0  0  0  0  0  0  0
  -19.6719  -23.9504   20.5189 C   0  0  0  0  0  0  0  0  0  0  0  0
  -25.6299  -25.0733   23.9477 C   0  0  0  0  0  0  0  0  0  0  0  0
  -26.7870  -27.3120   22.4004 C   0  0  0  0  0  0  0  0  0  0  0  0
  -20.4319  -25.2742   20.5052 C   0  0  0  0  0  0  0  0  0  0  0  0
  -27.2914  -21.6146   21.2940 C   0  0  0  0  0  0  0  0  0  0  0  0
  -21.7972  -25.0992   19.8479 C   0  0  0  0  0  0  0  0  0  0  0  0
  -27.2881  -20.1007   21.5019 C   0  0  0  0  0  0  0  0  0  0  0  0
  -27.0281  -21.9786   19.8361 C   0  0  0  0  0  0  0  0  0  0  0  0
  -27.9655  -19.8188   19.0756 C   0  0  0  0  0  0  0  0  0  0  0  0
  -22.6611  -24.1006   20.6278 C   0  0  1  0  0  0  0  0  0  0  0  0
  -24.7554  -26.0298   23.1428 C   0  0  1  0  0  0  0  0  0  0  0  0
  -28.2583  -19.4070   20.5293 C   0  0  2  0  0  0  0  0  0  0  0  0
  -30.5060  -24.1430   13.4288 C   0  0  0  0  0  0  0  0  0  0  0  0
  -26.5660  -33.3124   25.0632 C   0  0  0  0  0  0  0  0  0  0  0  0
  -34.2623  -25.2786   18.7381 C   0  0  0  0  0  0  0  0  0  0  0  0
  -24.4150  -29.4911   20.0992 C   0  0  0  0  0  0  0  0  0  0  0  0
  -25.2896  -31.7034   20.8795 C   0  0  0  0  0  0  0  0  0  0  0  0
  -23.1284  -30.8338   21.7715 C   0  0  0  0  0  0  0  0  0  0  0  0
  -27.5950  -30.1520   26.9151 C   0  0  0  0  0  0  0  0  0  0  0  0
  -32.5944  -21.9594   17.5413 C   0  0  0  0  0  0  0  0  0  0  0  0
  -29.6528  -21.2265   17.1473 C   0  0  0  0  0  0  0  0  0  0  0  0
  -33.6767  -22.9819   17.9023 C   0  0  0  0  0  0  0  0  0  0  0  0
  -32.6340  -23.6565   20.8354 C   0  0  0  0  0  0  0  0  0  0  0  0
  -32.0882  -24.2344   19.5284 C   0  0  0  0  0  0  0  0  0  0  0  0
  -31.5413  -23.5476   21.8930 C   0  0  0  0  0  0  0  0  0  1  0  0
  -25.2956  -29.7621   22.5111 C   0  0  1  0  0  0  0  0  0  0  0  0
  -26.4889  -31.8427   25.4465 C   0  0  2  0  0  0  0  0  0  0  0  0
  -33.1102  -24.3347   18.3769 C   0  0  1  0  0  0  0  0  0  0  0  0
  -24.5471  -30.4238   21.3197 C   0  0  0  0  0  0  0  0  0  0  0  0
  -27.1041  -17.2956   21.0702 N   0  0  0  0  0  0  0  0  0  0  0  0
  -29.8078  -22.6452   15.2103 N   0  0  0  0  0  0  0  0  0  0  0  0
  -30.4104  -22.0983   16.2797 N   0  0  0  0  0  0  0  0  0  0  0  0
  -28.2473  -17.8995   20.7036 N   0  0  0  0  0  0  0  0  0  0  0  0
  -25.4030  -27.3209   22.9024 N   0  0  0  0  0  0  0  0  0  0  0  0
  -27.9556  -21.2823   18.9427 N   0  0  0  0  0  0  0  0  0  0  0  0
  -30.5145  -17.4809   20.1599 N   0  0  0  0  0  0  0  0  0  0  0  0
  -28.8808  -13.3666   21.0542 N   0  0  0  0  0  0  0  0  0  0  0  0
  -23.2114  -24.7252   21.8116 N   0  0  0  0  0  0  0  0  0  0  0  0
  -25.4117  -30.6129   23.6905 N   0  0  0  0  0  0  0  0  0  0  0  0
  -27.5680  -31.5573   26.4339 N   0  3  0  0  0  0  0  0  0  0  0  0
  -30.7604  -14.5326   20.4489 O   0  0  0  0  0  0  0  0  0  0  0  0
  -25.0764  -25.7111   20.8254 O   0  0  0  0  0  0  0  0  0  0  0  0
  -28.6695  -23.2404   17.9149 O   0  0  0  0  0  0  0  0  0  0  0  0
  -23.4688  -28.5290   23.3880 O   0  0  0  0  0  0  0  0  0  0  0  0
  -27.7278  -30.5815   23.7998 O   0  0  0  0  0  0  0  0  0  0  0  0
  -23.6542  -12.1525   22.5520 O   0  0  0  0  0  0  0  0  0  0  0  0
  -31.0029  -24.8402   22.1679 O   0  0  0  0  0  0  0  0  0  1  0  0
  -23.4419   -7.5388   19.5399 F   0  0  0  0  0  0  0  0  0  0  0  0
  -21.3474  -11.4442   21.2030 F   0  0  0  0  0  0  0  0  0  0  0  0
  1  2  1  0  0  0  0
  1  5  2  0  0  0  0
  2  6  2  0  0  0  0
  3  8  2  0  0  0  0
  3 16  1  0  0  0  0
  4  9  1  0  0  0  0
  4 16  2  0  0  0  0
  5 18  1  0  0  0  0
  6 20  1  0  0  0  0
  7 10  2  0  0  0  0
  7 19  1  0  0  0  0
  8 22  1  0  0  0  0
  9 22  2  0  0  0  0
 10 23  1  0  0  0  0
 11 12  2  0  0  0  0
 11 24  1  0  0  0  0
 12 25  1  0  0  0  0
 13 21  1  0  0  0  0
 13 23  2  0  0  0  0
 14 25  2  0  0  0  0
 14 26  1  0  0  0  0
 15 28  1  0  0  0  0
 15 29  2  0  0  0  0
 16 27  1  0  0  0  0
 17 27  1  0  0  0  0
 17 30  2  0  0  0  0
 17 31  1  0  0  0  0
 18 20  2  0  0  0  0
 18 36  1  0  0  0  0
 19 21  2  0  0  0  0
 19 37  1  0  0  0  0
 20 45  1  0  0  0  0
 21 38  1  0  0  0  0
 22 81  1  0  0  0  0
 23 82  1  0  0  0  0
 24 26  2  0  0  0  0
 24 81  1  0  0  0  0
 25 83  1  0  0  0  0
 26 84  1  0  0  0  0
 27 65  2  0  0  0  0
 28 48  1  0  0  0  0
 28 66  2  0  0  0  0
 29 55  1  0  0  0  0
 29 67  1  0  0  0  0
 30 68  1  0  0  0  0
 30 71  1  0  0  0  0
 31 72  1  0  0  0  0
 31 76  2  0  0  0  0
 32 46  1  0  0  0  0
 32 73  1  0  0  0  0
 32 77  2  0  0  0  0
 33 56  1  0  0  0  0
 33 70  1  0  0  0  0
 33 78  2  0  0  0  0
 34 61  1  0  0  0  0
 34 69  1  0  0  0  0
 34 79  2  0  0  0  0
 35 62  1  0  0  0  0
 35 74  1  0  0  0  0
 35 80  2  0  0  0  0
 36 39  1  0  0  0  0
 37 46  1  0  0  0  0
 38 69  1  0  0  0  0
 39 41  1  0  0  0  0
 40 42  1  0  0  0  0
 40 43  1  0  0  0  0
 41 45  1  0  0  0  0
 42 47  1  0  0  0  0
 43 70  1  0  0  0  0
 44 47  1  0  0  0  0
 44 70  1  0  0  0  0
 45 73  1  0  0  0  0
 46 69  1  0  0  0  0
 47 68  1  0  0  0  0
 49 62  1  0  0  0  0
 50 63  1  0  0  0  0
 51 64  1  0  0  0  0
 52 64  1  0  0  0  0
 53 64  1  0  0  0  0
 54 75  1  0  0  0  0
 55 57  1  0  0  0  0
 56 67  1  0  0  0  0
 57 63  1  0  0  0  0
 58 59  1  0  0  0  0
 58 60  1  0  0  0  0
 59 63  1  0  0  0  0
 60 82  1  0  0  0  0
 61 64  1  0  0  0  0
 61 74  1  0  0  0  0
 62 75  1  0  0  0  0
 65 68  1  0  0  0  0
 66 67  1  0  0  0  0
M  CHG  1  75   1
M  ISO  4  33 100  56 100  60 101  82 101
M  END
> <Batch ID>
0084

> <Smiles>
CNC(C)C(=O)NC(C(=O)N1Cc2cc([101O:1][101CH2:1]CCC(C)CCc3cc(C)nn3[100CH2:0][100C:0](=O)N3CCCC(n4nc(-c5ccc(Oc6ccc(F)cc6F)cc5)c(C(N)=O)c4N)C3)ccc2CC1C(=O)NC1CCCc2ccccc21)C(C)(C)C

> <Shape>
0.206

> <Color>
0.058

> <Negative vol penalty>
0.000

$$$$

  -OEChem-04052318543D

 87 95  0     1  0  0  0  0  0999 V2000
  -30.9423  -15.6100   14.5553 C   0  0  0  0  0  0  0  0  0  0  0  0
  -30.2176  -15.8192   15.7242 C   0  0  0  0  0  0  0  0  0  0  0  0
  -23.4045   -9.6127   20.8182 C   0  0  0  0  0  0  0  0  0  0  0  0
  -24.0686  -10.3034   23.0360 C   0  0  0  0  0  0  0  0  0  0  0  0
  -31.9907  -16.4672   14.2237 C   0  0  0  0  0  0  0  0  0  0  0  0
  -30.5415  -16.8852   16.5628 C   0  0  0  0  0  0  0  0  0  0  0  0
  -26.6664  -20.2502   19.9043 C   0  0  0  0  0  0  0  0  0  0  0  0
  -22.7803   -8.4870   21.3557 C   0  0  0  0  0  0  0  0  0  0  0  0
  -23.4444   -9.1778   23.5736 C   0  0  0  0  0  0  0  0  0  0  0  0
  -26.3016  -20.2019   21.2491 C   0  0  0  0  0  0  0  0  0  0  0  0
  -24.1142   -5.8812   23.9126 C   0  0  0  0  0  0  0  0  0  0  0  0
  -24.8082   -5.1557   24.8808 C   0  0  0  0  0  0  0  0  0  0  0  0
  -27.9287  -21.9122   21.7456 C   0  0  0  0  0  0  0  0  0  0  0  0
  -29.5014  -18.8437   24.0040 C   0  0  0  0  0  0  0  0  0  0  0  0
  -23.0324   -5.5715   26.4654 C   0  0  0  0  0  0  0  0  0  0  0  0
  -24.0487  -10.5209   21.6584 C   0  0  0  0  0  0  0  0  0  0  0  0
  -24.1201  -12.9496   20.8815 C   0  0  0  0  0  0  0  0  0  0  0  0
  -32.3215  -17.5499   15.0537 C   0  0  0  0  0  0  0  0  0  0  0  0
  -27.6743  -21.1236   19.4711 C   0  0  0  0  0  0  0  0  0  0  0  0
  -31.5962  -17.7569   16.2426 C   0  0  0  0  0  0  0  0  0  0  0  0
  -28.3026  -21.9715   20.3944 C   0  0  0  0  0  0  0  0  0  0  0  0
  -28.7568  -18.6117   25.1551 C   0  0  0  0  0  0  0  0  0  0  0  0
  -28.7627  -17.3491   25.7375 C   0  0  0  0  0  0  0  0  0  0  0  0
  -22.8002   -8.2696   22.7333 C   0  0  0  0  0  0  0  0  0  0  0  0
  -26.9348  -21.0309   22.1704 C   0  0  0  0  0  0  0  0  0  0  0  0
  -22.8793   -6.4520   24.2208 C   0  0  0  0  0  0  0  0  0  0  0  0
  -24.2673   -5.0007   26.1572 C   0  0  0  0  0  0  0  0  0  0  0  0
  -22.3384   -6.2971   25.4971 C   0  0  0  0  0  0  0  0  0  0  0  0
  -24.6941  -11.6836   21.1037 C   0  0  0  0  0  0  0  0  0  0  0  0
  -30.2292  -17.7882   23.4787 C   0  0  0  0  0  0  0  0  0  0  0  0
  -29.5234  -16.3605   25.1344 C   0  0  0  0  0  0  0  0  0  0  0  0
  -25.1383  -13.6987   20.3442 C   0  0  0  0  0  0  0  0  0  0  0  0
  -22.7859  -13.4077   21.1379 C   0  0  0  0  0  0  0  0  0  0  0  0
  -30.5215  -20.7617   18.1051 C   0  0  0  0  0  0  0  0  0  0  0  0
  -30.4194  -23.9996   17.9379 C   0  0  0  0  0  0  0  0  0  0  0  0
  -29.1643  -26.9260   19.1659 C   0  0  0  0  0  0  0  0  0  0  0  0
  -30.4682  -15.3529   20.3097 C   0  0  0  0  0  0  0  0  0  0  0  0
  -33.4934  -18.4215   14.6774 C   0  0  0  0  0  0  0  0  0  0  0  0
  -28.0375  -21.1828   18.0127 C   0  0  0  0  0  0  0  0  0  0  0  0
  -29.3766  -22.9415   19.9771 C   0  0  0  0  0  0  0  0  0  0  0  0
  -33.5315  -19.7491   15.4300 C   0  0  0  0  0  0  0  0  0  0  0  0
  -29.6894  -12.3152   18.6237 C   0  0  0  0  0  0  0  0  0  0  0  0
  -33.2870  -19.5259   16.9190 C   0  0  0  0  0  0  0  0  0  0  0  0
  -28.2762  -11.9816   19.1050 C   0  0  0  0  0  0  0  0  0  0  0  0
  -30.5295  -12.9445   19.7329 C   0  0  0  0  0  0  0  0  0  0  0  0
  -28.5070  -13.7886   20.8602 C   0  0  0  0  0  0  0  0  0  0  0  0
  -31.9014  -18.9169   17.1653 C   0  0  1  0  0  0  0  0  0  0  0  0
  -29.4351  -21.7432   17.7673 C   0  0  1  0  0  0  0  0  0  0  0  0
  -27.6043  -13.2030   19.7608 C   0  0  2  0  0  0  0  0  0  0  0  0
  -27.9755  -17.0716   26.9739 C   0  0  0  0  0  0  0  0  0  0  0  0
  -32.3230  -17.1429   22.2444 C   0  0  0  0  0  0  0  0  0  0  0  0
  -30.9882  -14.5860   26.1637 C   0  0  0  0  0  0  0  0  0  0  0  0
  -29.0072  -13.9229   24.7526 C   0  0  0  0  0  0  0  0  0  0  0  0
  -29.2953  -29.4120   18.8501 C   0  0  0  0  0  0  0  0  0  0  0  0
  -33.1284  -24.0327   19.3415 C   0  0  0  0  0  0  0  0  0  0  0  0
  -32.7611  -26.4581   19.8422 C   0  0  0  0  0  0  0  0  0  0  0  0
  -32.9000  -25.6821   17.4755 C   0  0  0  0  0  0  0  0  0  0  0  0
  -26.2846  -27.1109   18.5083 C   0  0  0  0  0  0  0  0  0  0  0  0
  -27.9526  -19.7411   25.7480 C   0  0  0  0  0  0  0  0  0  0  0  0
  -26.4516  -19.6419   25.4674 C   0  0  0  0  0  0  0  0  0  0  0  0
  -30.2528  -17.7441   20.9378 C   0  0  0  0  0  0  0  0  0  0  0  0
  -26.1068  -19.7365   23.9856 C   0  0  0  0  0  0  0  0  0  1  0  0
  -31.0410  -18.0010   22.2448 C   0  0  1  0  0  0  0  0  0  0  0  0
  -29.5706  -14.9846   25.7145 C   0  0  0  0  0  0  0  0  0  0  0  0
  -30.8456  -25.1308   18.8421 C   0  0  1  0  0  0  0  0  0  0  0  0
  -28.5628  -28.1343   18.4712 C   0  0  2  0  0  0  0  0  0  0  0  0
  -32.3899  -25.3064   18.8838 C   0  0  0  0  0  0  0  0  0  0  0  0
  -25.9773  -11.6277   20.7374 N   0  0  0  0  0  0  0  0  0  0  0  0
  -30.2595  -16.5481   24.0161 N   0  0  0  0  0  0  0  0  0  0  0  0
  -26.2181  -12.8680   20.2794 N   0  0  0  0  0  0  0  0  0  0  0  0
  -29.7010  -22.9576   18.5411 N   0  0  0  0  0  0  0  0  0  0  0  0
  -29.8367  -14.0982   20.3118 N   0  0  0  0  0  0  0  0  0  0  0  0
  -25.2063  -14.9803   19.9254 N   0  0  0  0  0  0  0  0  0  0  0  0
  -21.8657  -12.5079   21.6928 N   0  0  0  0  0  0  0  0  0  0  0  0
  -30.8764  -19.9329   17.0580 N   0  0  0  0  0  0  0  0  0  0  0  0
  -30.1220  -26.3127   18.3862 N   0  0  0  0  0  0  0  0  0  0  0  0
  -29.7397  -16.3939   20.8720 N   0  0  0  0  0  0  0  0  0  0  0  0
  -27.1283  -28.2862   18.8455 N   0  3  0  0  0  0  0  0  0  0  0  0
  -22.4160  -14.5753   20.8672 O   0  0  0  0  0  0  0  0  0  0  0  0
  -31.0033  -20.7578   19.2319 O   0  0  0  0  0  0  0  0  0  0  0  0
  -30.7068  -24.0426   16.7390 O   0  0  0  0  0  0  0  0  0  0  0  0
  -28.8216  -26.5646   20.2896 O   0  0  0  0  0  0  0  0  0  0  0  0
  -31.5955  -15.5331   19.8367 O   0  0  0  0  0  0  0  0  0  0  0  0
  -22.1911   -7.1714   23.2582 O   0  0  0  0  0  0  0  0  0  0  0  0
  -26.5812  -20.9853   23.4837 O   0  0  0  0  0  0  0  0  0  1  0  0
  -24.9332   -4.3027   27.0864 F   0  0  0  0  0  0  0  0  0  0  0  0
  -21.1518   -6.8421   25.7987 F   0  0  0  0  0  0  0  0  0  0  0  0
  1  2  1  0  0  0  0
  1  5  2  0  0  0  0
  2  6  2  0  0  0  0
  3  8  2  0  0  0  0
  3 16  1  0  0  0  0
  4  9  1  0  0  0  0
  4 16  2  0  0  0  0
  5 18  1  0  0  0  0
  6 20  1  0  0  0  0
  7 10  2  0  0  0  0
  7 19  1  0  0  0  0
  8 24  1  0  0  0  0
  9 24  2  0  0  0  0
 10 25  1  0  0  0  0
 11 12  2  0  0  0  0
 11 26  1  0  0  0  0
 12 27  1  0  0  0  0
 13 21  1  0  0  0  0
 13 25  2  0  0  0  0
 14 22  1  0  0  0  0
 14 30  2  0  0  0  0
 15 27  2  0  0  0  0
 15 28  1  0  0  0  0
 16 29  1  0  0  0  0
 17 29  1  0  0  0  0
 17 32  2  0  0  0  0
 17 33  1  0  0  0  0
 18 20  2  0  0  0  0
 18 38  1  0  0  0  0
 19 21  2  0  0  0  0
 19 39  1  0  0  0  0
 20 47  1  0  0  0  0
 21 40  1  0  0  0  0
 22 23  2  0  0  0  0
 22 59  1  0  0  0  0
 23 31  1  0  0  0  0
 23 50  1  0  0  0  0
 24 84  1  0  0  0  0
 25 85  1  0  0  0  0
 26 28  2  0  0  0  0
 26 84  1  0  0  0  0
 27 86  1  0  0  0  0
 28 87  1  0  0  0  0
 29 68  2  0  0  0  0
 30 63  1  0  0  0  0
 30 69  1  0  0  0  0
 31 64  1  0  0  0  0
 31 69  2  0  0  0  0
 32 70  1  0  0  0  0
 32 73  1  0  0  0  0
 33 74  1  0  0  0  0
 33 79  2  0  0  0  0
 34 48  1  0  0  0  0
 34 75  1  0  0  0  0
 34 80  2  0  0  0  0
 35 65  1  0  0  0  0
 35 71  1  0  0  0  0
 35 81  2  0  0  0  0
 36 66  1  0  0  0  0
 36 76  1  0  0  0  0
 36 82  2  0  0  0  0
 37 72  1  0  0  0  0
 37 77  1  0  0  0  0
 37 83  2  0  0  0  0
 38 41  1  0  0  0  0
 39 48  1  0  0  0  0
 40 71  1  0  0  0  0
 41 43  1  0  0  0  0
 42 44  1  0  0  0  0
 42 45  1  0  0  0  0
 43 47  1  0  0  0  0
 44 49  1  0  0  0  0
 45 72  1  0  0  0  0
 46 49  1  0  0  0  0
 46 72  1  0  0  0  0
 47 75  1  0  0  0  0
 48 71  1  0  0  0  0
 49 70  1  0  0  0  0
 51 63  1  0  0  0  0
 52 64  1  0  0  0  0
 53 64  1  0  0  0  0
 54 66  1  0  0  0  0
 55 67  1  0  0  0  0
 56 67  1  0  0  0  0
 57 67  1  0  0  0  0
 58 78  1  0  0  0  0
 59 60  1  0  0  0  0
 60 62  1  0  0  0  0
 61 63  1  0  0  0  0
 61 77  1  0  0  0  0
 62 85  1  0  0  0  0
 65 67  1  0  0  0  0
 65 76  1  0  0  0  0
 66 78  1  0  0  0  0
 68 70  1  0  0  0  0
M  CHG  1  78   1
M  ISO  4  37 100  62 101  77 100  85 101
M  END
> <Batch ID>
0084

> <Smiles>
CNC(C)C(=O)NC(C(=O)N1Cc2cc([101O:1][101CH2:1]CCc3cc(C(C)C[100NH:0][100C:0](=O)N4CCCC(n5nc(-c6ccc(Oc7ccc(F)cc7F)cc6)c(C(N)=O)c5N)C4)nc(C(C)C)c3C)ccc2CC1C(=O)NC1CCCc2ccccc21)C(C)(C)C

> <Shape>
0.241

> <Color>
0.156

> <Negative vol penalty>
0.000

$$$$

  -OEChem-04052318543D

 86 94  0     1  0  0  0  0  0999 V2000
  -18.7765  -22.5049   24.0651 C   0  0  0  0  0  0  0  0  0  0  0  0
  -20.0700  -22.1404   24.4249 C   0  0  0  0  0  0  0  0  0  0  0  0
  -26.8254  -12.5740   20.8481 C   0  0  0  0  0  0  0  0  0  0  0  0
  -25.5863  -14.1685   19.5217 C   0  0  0  0  0  0  0  0  0  0  0  0
  -18.5734  -23.4345   23.0461 C   0  0  0  0  0  0  0  0  0  0  0  0
  -21.1612  -22.7045   23.7650 C   0  0  0  0  0  0  0  0  0  0  0  0
  -27.9276  -24.7579   24.9122 C   0  0  0  0  0  0  0  0  0  0  0  0
  -25.8930  -11.5860   20.5315 C   0  0  0  0  0  0  0  0  0  0  0  0
  -24.6540  -13.1805   19.2050 C   0  0  0  0  0  0  0  0  0  0  0  0
  -29.2090  -24.5841   24.3911 C   0  0  0  0  0  0  0  0  0  0  0  0
  -23.6420   -8.7350   20.3639 C   0  0  0  0  0  0  0  0  0  0  0  0
  -23.1858   -7.9166   21.3972 C   0  0  0  0  0  0  0  0  0  0  0  0
  -28.7392  -26.2389   22.6999 C   0  0  0  0  0  0  0  0  0  0  0  0
  -29.3431  -22.9470   20.2566 C   0  0  0  0  0  0  0  0  0  0  0  0
  -22.3347   -9.8570   22.5581 C   0  0  0  0  0  0  0  0  0  0  0  0
  -26.6720  -13.8652   20.3433 C   0  0  0  0  0  0  0  0  0  0  0  0
  -28.8072  -15.2078   19.9610 C   0  0  0  0  0  0  0  0  0  0  0  0
  -19.6629  -24.0175   22.3799 C   0  0  0  0  0  0  0  0  0  0  0  0
  -27.0371  -25.6672   24.3234 C   0  0  0  0  0  0  0  0  0  0  0  0
  -20.9725  -23.6418   22.7352 C   0  0  0  0  0  0  0  0  0  0  0  0
  -27.4479  -26.4243   23.2170 C   0  0  0  0  0  0  0  0  0  0  0  0
  -30.6879  -22.6325   20.1699 C   0  0  0  0  0  0  0  0  0  0  0  0
  -24.8073  -11.8893   19.7100 C   0  0  0  0  0  0  0  0  0  0  0  0
  -29.6140  -25.3225   23.2830 C   0  0  0  0  0  0  0  0  0  0  0  0
  -23.4447  -10.1144   20.4277 C   0  0  0  0  0  0  0  0  0  0  0  0
  -22.5321   -8.4776   22.4943 C   0  0  0  0  0  0  0  0  0  0  0  0
  -22.7909  -10.6753   21.5248 C   0  0  0  0  0  0  0  0  0  0  0  0
  -27.6345  -14.8864   20.6704 C   0  0  0  0  0  0  0  0  0  0  0  0
  -28.4282  -21.9336   20.0525 C   0  0  0  0  0  0  0  0  0  0  0  0
  -31.0288  -21.3254   19.8854 C   0  0  0  0  0  0  0  0  0  0  0  0
  -29.3684  -16.2387   20.6744 C   0  0  0  0  0  0  0  0  0  0  0  0
  -29.3415  -14.6266   18.7642 C   0  0  0  0  0  0  0  0  0  0  0  0
  -24.1998  -25.4324   22.9097 C   0  0  0  0  0  0  0  0  0  0  0  0
  -24.3690  -28.6718   22.9052 C   0  0  0  0  0  0  0  0  0  0  0  0
  -26.3191  -31.4713   22.9901 C   0  0  0  0  0  0  0  0  0  0  0  0
  -26.6386  -20.1049   24.5653 C   0  0  0  0  0  0  0  0  0  0  0  0
  -19.3926  -24.9824   21.2526 C   0  0  0  0  0  0  0  0  0  0  0  0
  -25.6675  -25.8625   24.9139 C   0  0  0  0  0  0  0  0  0  0  0  0
  -26.5369  -27.4281   22.5606 C   0  0  0  0  0  0  0  0  0  0  0  0
  -20.6103  -25.8138   20.8574 C   0  0  0  0  0  0  0  0  0  0  0  0
  -29.6554  -18.0269   25.0965 C   0  0  0  0  0  0  0  0  0  0  0  0
  -21.8433  -24.9254   20.7253 C   0  0  0  0  0  0  0  0  0  0  0  0
  -29.5307  -16.9719   23.9986 C   0  0  0  0  0  0  0  0  0  0  0  0
  -28.2920  -18.5512   25.5368 C   0  0  0  0  0  0  0  0  0  0  0  0
  -27.3323  -18.0155   23.3218 C   0  0  0  0  0  0  0  0  0  0  0  0
  -22.1823  -24.2502   22.0596 C   0  0  1  0  0  0  0  0  0  0  0  0
  -24.6656  -26.4422   23.9202 C   0  0  1  0  0  0  0  0  0  0  0  0
  -28.6906  -17.5003   22.8229 C   0  0  2  0  0  0  0  0  0  0  0  0
  -32.7827  -20.3011   18.4153 C   0  0  0  0  0  0  0  0  0  0  0  0
  -26.1735  -33.9758   22.9337 C   0  0  0  0  0  0  0  0  0  0  0  0
  -23.8349  -28.5707   19.9028 C   0  0  0  0  0  0  0  0  0  0  0  0
  -24.6333  -30.9388   19.7515 C   0  0  0  0  0  0  0  0  0  0  0  0
  -22.6202  -30.3880   21.1178 C   0  0  0  0  0  0  0  0  0  0  0  0
  -24.6026  -21.1464   23.6437 C   0  0  0  0  0  0  0  0  0  0  0  0
  -27.5628  -31.7196   25.6642 C   0  0  0  0  0  0  0  0  0  0  0  0
  -31.7288  -23.7020   20.3848 C   0  0  0  0  0  0  0  0  0  0  0  0
  -26.9678  -22.2197   20.1342 C   0  0  0  0  0  0  0  0  0  0  0  0
  -32.4578  -20.9128   19.7756 C   0  0  0  0  0  0  0  0  0  0  0  0
  -32.4118  -23.6309   21.7523 C   0  0  0  0  0  0  0  0  0  0  0  0
  -26.3608  -22.0486   21.5412 C   0  0  0  0  0  0  0  0  0  0  0  0
  -26.4533  -20.6290   22.0968 C   0  0  0  0  0  0  0  0  0  0  0  0
  -31.4567  -23.8643   22.9171 C   0  0  0  0  0  0  0  0  0  1  0  0
  -24.9085  -29.7129   21.9543 C   0  0  1  0  0  0  0  0  0  0  0  0
  -26.2246  -32.7399   23.8184 C   0  0  2  0  0  0  0  0  0  0  0  0
  -24.0160  -29.8824   20.6926 C   0  0  0  0  0  0  0  0  0  0  0  0
  -27.4600  -15.6509   21.7516 N   0  0  0  0  0  0  0  0  0  0  0  0
  -28.7903  -20.6631   19.7754 N   0  0  0  0  0  0  0  0  0  0  0  0
  -30.1120  -20.3540   19.6907 N   0  0  0  0  0  0  0  0  0  0  0  0
  -28.5305  -16.4630   21.7270 N   0  0  0  0  0  0  0  0  0  0  0  0
  -25.2055  -27.5784   23.1708 N   0  0  0  0  0  0  0  0  0  0  0  0
  -27.4978  -19.0068   24.3954 N   0  0  0  0  0  0  0  0  0  0  0  0
  -30.4919  -16.9659   20.4979 N   0  0  0  0  0  0  0  0  0  0  0  0
  -28.6378  -13.5760   18.1599 N   0  0  0  0  0  0  0  0  0  0  0  0
  -22.8408  -25.1853   22.9464 N   0  0  0  0  0  0  0  0  0  0  0  0
  -25.0752  -30.9329   22.7366 N   0  0  0  0  0  0  0  0  0  0  0  0
  -25.9018  -20.5198   23.4456 N   0  0  0  0  0  0  0  0  0  0  0  0
  -27.4036  -32.8574   24.7223 N   0  3  0  0  0  0  0  0  0  0  0  0
  -30.4197  -15.0162   18.2551 O   0  0  0  0  0  0  0  0  0  0  0  0
  -25.0131  -24.9168   22.1517 O   0  0  0  0  0  0  0  0  0  0  0  0
  -23.2496  -28.8267   23.3997 O   0  0  0  0  0  0  0  0  0  0  0  0
  -27.3891  -31.0065   22.6033 O   0  0  0  0  0  0  0  0  0  0  0  0
  -26.5431  -20.6876   25.6531 O   0  0  0  0  0  0  0  0  0  0  0  0
  -23.8975  -10.9254   19.4006 O   0  0  0  0  0  0  0  0  0  0  0  0
  -30.8639  -25.1542   22.7720 O   0  0  0  0  0  0  0  0  0  1  0  0
  -22.0927   -7.6914   23.4857 F   0  0  0  0  0  0  0  0  0  0  0  0
  -22.5973  -11.9997   21.5911 F   0  0  0  0  0  0  0  0  0  0  0  0
  1  2  1  0  0  0  0
  1  5  2  0  0  0  0
  2  6  2  0  0  0  0
  3  8  2  0  0  0  0
  3 16  1  0  0  0  0
  4  9  1  0  0  0  0
  4 16  2  0  0  0  0
  5 18  1  0  0  0  0
  6 20  1  0  0  0  0
  7 10  2  0  0  0  0
  7 19  1  0  0  0  0
  8 23  1  0  0  0  0
  9 23  2  0  0  0  0
 10 24  1  0  0  0  0
 11 12  2  0  0  0  0
 11 25  1  0  0  0  0
 12 26  1  0  0  0  0
 13 21  1  0  0  0  0
 13 24  2  0  0  0  0
 14 22  1  0  0  0  0
 14 29  2  0  0  0  0
 15 26  2  0  0  0  0
 15 27  1  0  0  0  0
 16 28  1  0  0  0  0
 17 28  1  0  0  0  0
 17 31  2  0  0  0  0
 17 32  1  0  0  0  0
 18 20  2  0  0  0  0
 18 37  1  0  0  0  0
 19 21  2  0  0  0  0
 19 38  1  0  0  0  0
 20 46  1  0  0  0  0
 21 39  1  0  0  0  0
 22 30  2  0  0  0  0
 22 56  1  0  0  0  0
 23 83  1  0  0  0  0
 24 84  1  0  0  0  0
 25 27  2  0  0  0  0
 25 83  1  0  0  0  0
 26 85  1  0  0  0  0
 27 86  1  0  0  0  0
 28 66  2  0  0  0  0
 29 57  1  0  0  0  0
 29 67  1  0  0  0  0
 30 58  1  0  0  0  0
 30 68  1  0  0  0  0
 31 69  1  0  0  0  0
 31 72  1  0  0  0  0
 32 73  1  0  0  0  0
 32 78  2  0  0  0  0
 33 47  1  0  0  0  0
 33 74  1  0  0  0  0
 33 79  2  0  0  0  0
 34 63  1  0  0  0  0
 34 70  1  0  0  0  0
 34 80  2  0  0  0  0
 35 64  1  0  0  0  0
 35 75  1  0  0  0  0
 35 81  2  0  0  0  0
 36 71  1  0  0  0  0
 36 76  1  0  0  0  0
 36 82  2  0  0  0  0
 37 40  1  0  0  0  0
 38 47  1  0  0  0  0
 39 70  1  0  0  0  0
 40 42  1  0  0  0  0
 41 43  1  0  0  0  0
 41 44  1  0  0  0  0
 42 46  1  0  0  0  0
 43 48  1  0  0  0  0
 44 71  1  0  0  0  0
 45 48  1  0  0  0  0
 45 71  1  0  0  0  0
 46 74  1  0  0  0  0
 47 70  1  0  0  0  0
 48 69  1  0  0  0  0
 49 58  1  0  0  0  0
 50 64  1  0  0  0  0
 51 65  1  0  0  0  0
 52 65  1  0  0  0  0
 53 65  1  0  0  0  0
 54 76  1  0  0  0  0
 55 77  1  0  0  0  0
 56 59  1  0  0  0  0
 57 60  1  0  0  0  0
 59 62  1  0  0  0  0
 60 61  1  0  0  0  0
 61 76  1  0  0  0  0
 62 84  1  0  0  0  0
 63 65  1  0  0  0  0
 63 75  1  0  0  0  0
 64 77  1  0  0  0  0
 66 69  1  0  0  0  0
 67 68  2  0  0  0  0
M  CHG  1  77   1
M  ISO  4  36 100  62 101  76 100  84 101
M  END
> <Batch ID>
0084

> <Smiles>
CCc1nnc(CCC[100N:0](C)[100C:0](=O)N2CCCC(n3nc(-c4ccc(Oc5ccc(F)cc5F)cc4)c(C(N)=O)c3N)C2)cc1CC[101CH2:1][101O:1]c1ccc2c(c1)CN(C(=O)C(NC(=O)C(C)NC)C(C)(C)C)C(C(=O)NC1CCCc3ccccc31)C2

> <Shape>
0.215

> <Color>
0.077

> <Negative vol penalty>
0.000

$$$$

  -OEChem-04052318543D

 86 94  0     1  0  0  0  0  0999 V2000
  -29.7436  -24.0998   18.3840 C   0  0  0  0  0  0  0  0  0  0  0  0
  -28.3620  -24.2025   18.5102 C   0  0  0  0  0  0  0  0  0  0  0  0
  -26.7009  -13.5451   20.9590 C   0  0  0  0  0  0  0  0  0  0  0  0
  -24.4247  -13.8075   20.1927 C   0  0  0  0  0  0  0  0  0  0  0  0
  -30.5752  -24.7004   19.3283 C   0  0  0  0  0  0  0  0  0  0  0  0
  -27.8111  -24.9049   19.5814 C   0  0  0  0  0  0  0  0  0  0  0  0
  -22.6871  -28.2588   19.5394 C   0  0  0  0  0  0  0  0  0  0  0  0
  -26.3365  -12.3865   21.6448 C   0  0  0  0  0  0  0  0  0  0  0  0
  -24.0602  -12.6489   20.8785 C   0  0  0  0  0  0  0  0  0  0  0  0
  -21.3818  -27.9824   19.9436 C   0  0  0  0  0  0  0  0  0  0  0  0
  -24.3006   -9.3086   20.4258 C   0  0  0  0  0  0  0  0  0  0  0  0
  -23.4927   -8.3887   19.7574 C   0  0  0  0  0  0  0  0  0  0  0  0
  -21.8280  -29.0216   22.0744 C   0  0  0  0  0  0  0  0  0  0  0  0
  -21.7977   -8.6400   21.4607 C   0  0  0  0  0  0  0  0  0  0  0  0
  -20.6427  -21.1096   21.3617 C   0  0  0  0  0  0  0  0  0  0  0  0
  -25.7450  -14.2557   20.2329 C   0  0  0  0  0  0  0  0  0  0  0  0
  -26.5784  -15.5468   18.1967 C   0  0  0  0  0  0  0  0  0  0  0  0
  -30.0344  -25.4188   20.4063 C   0  0  0  0  0  0  0  0  0  0  0  0
  -23.5775  -28.9102   20.4050 C   0  0  0  0  0  0  0  0  0  0  0  0
  -28.6363  -25.5146   20.5417 C   0  0  0  0  0  0  0  0  0  0  0  0
  -23.1433  -29.3075   21.6777 C   0  0  0  0  0  0  0  0  0  0  0  0
  -25.0161  -11.9384   21.6046 C   0  0  0  0  0  0  0  0  0  0  0  0
  -20.9529  -28.3612   21.2124 C   0  0  0  0  0  0  0  0  0  0  0  0
  -23.8572   -9.8941   21.6116 C   0  0  0  0  0  0  0  0  0  0  0  0
  -22.2412   -8.0545   20.2749 C   0  0  0  0  0  0  0  0  0  0  0  0
  -22.6058   -9.5598   22.1291 C   0  0  0  0  0  0  0  0  0  0  0  0
  -26.1207  -15.4529   19.5247 C   0  0  0  0  0  0  0  0  0  0  0  0
  -21.2615  -22.2530   20.9066 C   0  0  0  0  0  0  0  0  0  0  0  0
  -19.5383  -22.3370   22.9439 C   0  0  0  0  0  0  0  0  0  0  0  0
  -20.1577  -23.4803   22.4894 C   0  0  0  0  0  0  0  0  0  0  0  0
  -26.7974  -16.8888   18.0031 C   0  0  0  0  0  0  0  0  0  0  0  0
  -26.7868  -14.5133   17.2251 C   0  0  0  0  0  0  0  0  0  0  0  0
  -26.3488  -28.1473   21.7621 C   0  0  0  0  0  0  0  0  0  0  0  0
  -26.2665  -31.2341   22.7559 C   0  0  0  0  0  0  0  0  0  0  0  0
  -24.3972  -33.9968   23.4766 C   0  0  0  0  0  0  0  0  0  0  0  0
  -24.5353  -21.8016   20.5718 C   0  0  0  0  0  0  0  0  0  0  0  0
  -30.9728  -26.0108   21.4279 C   0  0  0  0  0  0  0  0  0  0  0  0
  -24.9742  -29.2249   19.9440 C   0  0  0  0  0  0  0  0  0  0  0  0
  -24.0541  -30.0273   22.6374 C   0  0  0  0  0  0  0  0  0  0  0  0
  -30.3147  -27.0543   22.3268 C   0  0  0  0  0  0  0  0  0  0  0  0
  -27.9671  -20.8730   20.3798 C   0  0  0  0  0  0  0  0  0  0  0  0
  -28.9694  -26.5475   22.8369 C   0  0  0  0  0  0  0  0  0  0  0  0
  -27.9244  -19.3871   20.0190 C   0  0  0  0  0  0  0  0  0  0  0  0
  -26.8313  -21.2571   21.3255 C   0  0  0  0  0  0  0  0  0  0  0  0
  -25.4403  -19.3991   20.4967 C   0  0  0  0  0  0  0  0  0  0  0  0
  -28.0012  -26.2891   21.6762 C   0  0  1  0  0  0  0  0  0  0  0  0
  -25.9510  -29.4346   21.0970 C   0  0  1  0  0  0  0  0  0  0  0  0
  -26.5333  -18.9758   19.5004 C   0  0  2  0  0  0  0  0  0  0  0  0
  -17.3049  -21.0126   25.8010 C   0  0  0  0  0  0  0  0  0  0  0  0
  -24.6075  -36.3567   24.3035 C   0  0  0  0  0  0  0  0  0  0  0  0
  -17.0176  -27.4404   22.6237 C   0  0  0  0  0  0  0  0  0  0  0  0
  -26.6777  -30.1994   25.5967 C   0  0  0  0  0  0  0  0  0  0  0  0
  -25.9377  -32.4361   26.4439 C   0  0  0  0  0  0  0  0  0  0  0  0
  -27.9881  -32.2540   25.0349 C   0  0  0  0  0  0  0  0  0  0  0  0
  -23.2681  -35.0979   20.9723 C   0  0  0  0  0  0  0  0  0  0  0  0
  -18.5751  -22.3743   24.0809 C   0  0  0  0  0  0  0  0  0  0  0  0
  -19.8902  -24.8237   23.1208 C   0  0  0  0  0  0  0  0  0  0  0  0
  -22.2196  -22.1916   19.7690 C   0  0  0  0  0  0  0  0  0  0  0  0
  -18.2608  -20.9699   24.6193 C   0  0  0  0  0  0  0  0  0  0  0  0
  -18.5847  -25.4832   22.6550 C   0  0  0  0  0  0  0  0  0  0  0  0
  -19.4663  -27.8755   23.0040 C   0  0  0  0  0  0  0  0  0  1  0  0
  -25.7177  -31.9540   23.9640 C   0  0  1  0  0  0  0  0  0  0  0  0
  -24.5586  -35.4535   23.0811 C   0  0  2  0  0  0  0  0  0  0  0  0
  -18.3129  -26.8895   23.2337 C   0  0  1  0  0  0  0  0  0  0  0  0
  -26.5635  -31.6956   25.2427 C   0  0  0  0  0  0  0  0  0  0  0  0
  -19.7699  -21.1310   22.3885 N   0  0  0  0  0  0  0  0  0  0  0  0
  -26.0527  -16.6406   20.1319 N   0  0  0  0  0  0  0  0  0  0  0  0
  -21.0302  -23.4589   21.4623 N   0  0  0  0  0  0  0  0  0  0  0  0
  -26.4707  -17.4936   19.1811 N   0  0  0  0  0  0  0  0  0  0  0  0
  -25.4122  -30.3067   22.1426 N   0  0  0  0  0  0  0  0  0  0  0  0
  -25.5395  -20.8406   20.7745 N   0  0  0  0  0  0  0  0  0  0  0  0
  -27.2358  -17.5987   16.9419 N   0  0  0  0  0  0  0  0  0  0  0  0
  -26.5121  -13.1882   17.5896 N   0  0  0  0  0  0  0  0  0  0  0  0
  -27.4489  -27.5359   21.1916 N   0  0  0  0  0  0  0  0  0  0  0  0
  -25.6151  -33.3602   23.5894 N   0  0  0  0  0  0  0  0  0  0  0  0
  -23.3438  -21.3236   20.0401 N   0  0  0  0  0  0  0  0  0  0  0  0
  -23.4201  -35.8862   22.2222 N   0  3  0  0  0  0  0  0  0  0  0  0
  -27.2200  -14.7559   16.0731 O   0  0  0  0  0  0  0  0  0  0  0  0
  -25.7063  -27.7398   22.7227 O   0  0  0  0  0  0  0  0  0  0  0  0
  -27.4085  -31.4905   22.3662 O   0  0  0  0  0  0  0  0  0  0  0  0
  -23.3005  -33.4767   23.6701 O   0  0  0  0  0  0  0  0  0  0  0  0
  -24.6910  -22.9978   20.8395 O   0  0  0  0  0  0  0  0  0  0  0  0
  -24.6602  -10.8077   22.2736 O   0  0  0  0  0  0  0  0  0  0  0  0
  -19.6795  -28.0920   21.6097 O   0  0  0  0  0  0  0  0  0  1  0  0
  -21.4648   -7.1723   19.6322 F   0  0  0  0  0  0  0  0  0  0  0  0
  -22.1738  -10.1199   23.2673 F   0  0  0  0  0  0  0  0  0  0  0  0
  1  2  1  0  0  0  0
  1  5  2  0  0  0  0
  2  6  2  0  0  0  0
  3  8  2  0  0  0  0
  3 16  1  0  0  0  0
  4  9  1  0  0  0  0
  4 16  2  0  0  0  0
  5 18  1  0  0  0  0
  6 20  1  0  0  0  0
  7 10  2  0  0  0  0
  7 19  1  0  0  0  0
  8 22  1  0  0  0  0
  9 22  2  0  0  0  0
 10 23  1  0  0  0  0
 11 12  2  0  0  0  0
 11 24  1  0  0  0  0
 12 25  1  0  0  0  0
 13 21  1  0  0  0  0
 13 23  2  0  0  0  0
 14 25  2  0  0  0  0
 14 26  1  0  0  0  0
 15 28  1  0  0  0  0
 15 66  2  0  0  0  0
 16 27  1  0  0  0  0
 17 27  1  0  0  0  0
 17 31  2  0  0  0  0
 17 32  1  0  0  0  0
 18 20  2  0  0  0  0
 18 37  1  0  0  0  0
 19 21  2  0  0  0  0
 19 38  1  0  0  0  0
 20 46  1  0  0  0  0
 21 39  1  0  0  0  0
 22 83  1  0  0  0  0
 23 84  1  0  0  0  0
 24 26  2  0  0  0  0
 24 83  1  0  0  0  0
 25 85  1  0  0  0  0
 26 86  1  0  0  0  0
 27 67  2  0  0  0  0
 28 58  1  0  0  0  0
 28 68  2  0  0  0  0
 29 30  2  0  0  0  0
 29 56  1  0  0  0  0
 29 66  1  0  0  0  0
 30 57  1  0  0  0  0
 30 68  1  0  0  0  0
 31 69  1  0  0  0  0
 31 72  1  0  0  0  0
 32 73  1  0  0  0  0
 32 78  2  0  0  0  0
 33 47  1  0  0  0  0
 33 74  1  0  0  0  0
 33 79  2  0  0  0  0
 34 62  1  0  0  0  0
 34 70  1  0  0  0  0
 34 80  2  0  0  0  0
 35 63  1  0  0  0  0
 35 75  1  0  0  0  0
 35 81  2  0  0  0  0
 36 71  1  0  0  0  0
 36 76  1  0  0  0  0
 36 82  2  0  0  0  0
 37 40  1  0  0  0  0
 38 47  1  0  0  0  0
 39 70  1  0  0  0  0
 40 42  1  0  0  0  0
 41 43  1  0  0  0  0
 41 44  1  0  0  0  0
 42 46  1  0  0  0  0
 43 48  1  0  0  0  0
 44 71  1  0  0  0  0
 45 48  1  0  0  0  0
 45 71  1  0  0  0  0
 46 74  1  0  0  0  0
 47 70  1  0  0  0  0
 48 69  1  0  0  0  0
 49 59  1  0  0  0  0
 50 63  1  0  0  0  0
 51 64  1  0  0  0  0
 52 65  1  0  0  0  0
 53 65  1  0  0  0  0
 54 65  1  0  0  0  0
 55 77  1  0  0  0  0
 56 59  1  0  0  0  0
 57 60  1  0  0  0  0
 58 76  1  0  0  0  0
 60 64  1  0  0  0  0
 61 64  1  0  0  0  0
 61 84  1  0  0  0  0
 62 65  1  0  0  0  0
 62 75  1  0  0  0  0
 63 77  1  0  0  0  0
 67 69  1  0  0  0  0
M  CHG  1  77   1
M  ISO  4  36 100  61 101  76 100  84 101
M  END
> <Batch ID>
0084

> <Smiles>
CCCc1ncc(C[100NH:0][100C:0](=O)N2CCCC(n3nc(-c4ccc(Oc5ccc(F)cc5F)cc4)c(C(N)=O)c3N)C2)nc1CCC(C)[101CH2:1][101O:1]c1ccc2c(c1)CN(C(=O)C(NC(=O)C(C)NC)C(C)(C)C)C(C(=O)NC1CCCc3ccccc31)C2

> <Shape>
0.285

> <Color>
0.071

> <Negative vol penalty>
0.000

$$$$

  -OEChem-04052318543D

 86 94  0     1  0  0  0  0  0999 V2000
  -34.6698  -29.5053   19.4140 C   0  0  0  0  0  0  0  0  0  0  0  0
  -33.7068  -29.1707   18.4675 C   0  0  0  0  0  0  0  0  0  0  0  0
  -29.8756  -18.7593   21.2930 C   0  0  0  0  0  0  0  0  0  0  0  0
  -28.0836  -18.1686   19.7841 C   0  0  0  0  0  0  0  0  0  0  0  0
  -34.5042  -29.1167   20.7427 C   0  0  0  0  0  0  0  0  0  0  0  0
  -32.5781  -28.4461   18.8489 C   0  0  0  0  0  0  0  0  0  0  0  0
  -25.6245  -27.7138   17.2906 C   0  0  0  0  0  0  0  0  0  0  0  0
  -30.5203  -17.5583   20.9975 C   0  0  0  0  0  0  0  0  0  0  0  0
  -28.7283  -16.9675   19.4886 C   0  0  0  0  0  0  0  0  0  0  0  0
  -24.6907  -26.7299   16.9686 C   0  0  0  0  0  0  0  0  0  0  0  0
  -29.7241  -13.5843   18.6096 C   0  0  0  0  0  0  0  0  0  0  0  0
  -28.9513  -12.4235   18.5814 C   0  0  0  0  0  0  0  0  0  0  0  0
  -24.4719  -26.1807   19.3074 C   0  0  0  0  0  0  0  0  0  0  0  0
  -28.3474  -12.7693   20.8951 C   0  0  0  0  0  0  0  0  0  0  0  0
  -20.4612  -22.3341   20.6051 C   0  0  0  0  0  0  0  0  0  0  0  0
  -19.3916  -20.9290   19.2280 C   0  0  0  0  0  0  0  0  0  0  0  0
  -28.6572  -19.0645   20.6863 C   0  0  0  0  0  0  0  0  0  0  0  0
  -28.1423  -21.5372   20.3282 C   0  0  0  0  0  0  0  0  0  0  0  0
  -33.3682  -28.3954   21.1425 C   0  0  0  0  0  0  0  0  0  0  0  0
  -25.9978  -27.9315   18.6246 C   0  0  0  0  0  0  0  0  0  0  0  0
  -32.3978  -28.0463   20.1839 C   0  0  0  0  0  0  0  0  0  0  0  0
  -25.4088  -27.1697   19.6439 C   0  0  0  0  0  0  0  0  0  0  0  0
  -20.1319  -21.2136   21.3353 C   0  0  0  0  0  0  0  0  0  0  0  0
  -19.4551  -20.3247   20.4642 C   0  0  0  0  0  0  0  0  0  0  0  0
  -29.9467  -16.6623   20.0954 C   0  0  0  0  0  0  0  0  0  0  0  0
  -24.1164  -25.9612   17.9768 C   0  0  0  0  0  0  0  0  0  0  0  0
  -29.8087  -14.3377   19.7805 C   0  0  0  0  0  0  0  0  0  0  0  0
  -28.2629  -12.0160   19.7241 C   0  0  0  0  0  0  0  0  0  0  0  0
  -29.1203  -13.9302   20.9232 C   0  0  0  0  0  0  0  0  0  0  0  0
  -27.9904  -20.3048   20.9915 C   0  0  0  0  0  0  0  0  0  0  0  0
  -27.2984  -22.3919   20.9944 C   0  0  0  0  0  0  0  0  0  0  0  0
  -28.9719  -21.8788   19.2099 C   0  0  0  0  0  0  0  0  0  0  0  0
  -28.7178  -27.7210   20.2558 C   0  0  0  0  0  0  0  0  0  0  0  0
  -26.9282  -28.9867   22.6469 C   0  0  0  0  0  0  0  0  0  0  0  0
  -23.8346  -29.4797   24.0009 C   0  0  0  0  0  0  0  0  0  0  0  0
  -22.3498  -21.5205   24.2506 C   0  0  0  0  0  0  0  0  0  0  0  0
  -33.2561  -27.9564   22.5810 C   0  0  0  0  0  0  0  0  0  0  0  0
  -26.9866  -29.0149   18.9579 C   0  0  0  0  0  0  0  0  0  0  0  0
  -25.7603  -27.3778   21.0935 C   0  0  0  0  0  0  0  0  0  0  0  0
  -31.8490  -27.5146   22.9752 C   0  0  0  0  0  0  0  0  0  0  0  0
  -25.3484  -23.1270   25.3012 C   0  0  0  0  0  0  0  0  0  0  0  0
  -31.2684  -26.5781   21.9203 C   0  0  0  0  0  0  0  0  0  0  0  0
  -26.3793  -22.6971   24.2560 C   0  0  0  0  0  0  0  0  0  0  0  0
  -24.3604  -22.0054   25.6140 C   0  0  0  0  0  0  0  0  0  0  0  0
  -24.7137  -21.0008   23.3914 C   0  0  0  0  0  0  0  0  0  0  0  0
  -31.1476  -27.2826   20.5636 C   0  0  1  0  0  0  0  0  0  0  0  0
  -27.6755  -28.8021   20.3023 C   0  0  1  0  0  0  0  0  0  0  0  0
  -25.6979  -22.1170   23.0019 C   0  0  2  0  0  0  0  0  0  0  0  0
  -22.6931  -30.5176   25.9801 C   0  0  0  0  0  0  0  0  0  0  0  0
  -23.6470  -22.3099   16.6123 C   0  0  0  0  0  0  0  0  0  0  0  0
  -18.2315  -18.3110   19.5734 C   0  0  0  0  0  0  0  0  0  0  0  0
  -17.8339  -19.0801   21.9370 C   0  0  0  0  0  0  0  0  0  0  0  0
  -19.9571  -17.9407   21.3246 C   0  0  0  0  0  0  0  0  0  0  0  0
  -27.8288  -26.6493   24.3892 C   0  0  0  0  0  0  0  0  0  0  0  0
  -25.9657  -27.1993   25.9686 C   0  0  0  0  0  0  0  0  0  0  0  0
  -27.7795  -28.8612   25.5552 C   0  0  0  0  0  0  0  0  0  0  0  0
  -22.2983  -31.3393   22.2861 C   0  0  0  0  0  0  0  0  0  0  0  0
  -20.4353  -20.9906   22.7629 C   0  0  0  0  0  0  0  0  0  0  0  0
  -21.2461  -22.7585   17.1792 C   0  0  0  0  0  0  0  0  0  0  0  0
  -20.1613  -23.1383   18.1966 C   0  0  0  0  0  0  0  0  0  0  0  0
  -23.1403  -23.8631   18.5255 C   0  0  0  0  0  0  0  0  0  1  0  0
  -26.0649  -28.4229   23.7496 C   0  0  1  0  0  0  0  0  0  0  0  0
  -23.1614  -30.7254   24.5482 C   0  0  2  0  0  0  0  0  0  0  0  0
  -22.6725  -22.6208   17.7556 C   0  0  2  0  0  0  0  0  0  0  0  0
  -18.9134  -18.9947   20.8060 C   0  0  0  0  0  0  0  0  0  0  0  0
  -26.9044  -27.7777   24.8882 C   0  0  0  0  0  0  0  0  0  0  0  0
  -27.1187  -20.3669   22.0016 N   0  0  0  0  0  0  0  0  0  0  0  0
  -20.0066  -22.1499   19.3254 N   0  0  0  0  0  0  0  0  0  0  0  0
  -26.7154  -21.6486   21.9781 N   0  0  0  0  0  0  0  0  0  0  0  0
  -26.7369  -28.4448   21.3680 N   0  0  0  0  0  0  0  0  0  0  0  0
  -23.7481  -21.5005   24.3827 N   0  0  0  0  0  0  0  0  0  0  0  0
  -27.0058  -23.6994   20.8290 N   0  0  0  0  0  0  0  0  0  0  0  0
  -29.7772  -20.8801   18.6457 N   0  0  0  0  0  0  0  0  0  0  0  0
  -29.9954  -28.1581   20.5495 N   0  0  0  0  0  0  0  0  0  0  0  0
  -25.2002  -29.5127   24.1887 N   0  0  0  0  0  0  0  0  0  0  0  0
  -21.8519  -21.0296   23.0497 N   0  0  0  0  0  0  0  0  0  0  0  0
  -21.9794  -31.0841   23.7145 N   0  3  0  0  0  0  0  0  0  0  0  0
  -29.0106  -23.0395   18.7356 O   0  0  0  0  0  0  0  0  0  0  0  0
  -28.3873  -26.5747   19.9756 O   0  0  0  0  0  0  0  0  0  0  0  0
  -27.7373  -29.8801   22.9093 O   0  0  0  0  0  0  0  0  0  0  0  0
  -23.2109  -28.5667   23.4641 O   0  0  0  0  0  0  0  0  0  0  0  0
  -21.6008  -21.9492   25.1350 O   0  0  0  0  0  0  0  0  0  0  0  0
  -30.5757  -15.4903   19.8067 O   0  0  0  0  0  0  0  0  0  0  0  0
  -23.2052  -24.9997   17.6652 O   0  0  0  0  0  0  0  0  0  1  0  0
  -27.5196  -10.9021   19.6965 F   0  0  0  0  0  0  0  0  0  0  0  0
  -29.1968  -14.6504   22.0507 F   0  0  0  0  0  0  0  0  0  0  0  0
  1  2  1  0  0  0  0
  1  5  2  0  0  0  0
  2  6  2  0  0  0  0
  3  8  2  0  0  0  0
  3 17  1  0  0  0  0
  4  9  1  0  0  0  0
  4 17  2  0  0  0  0
  5 19  1  0  0  0  0
  6 21  1  0  0  0  0
  7 10  2  0  0  0  0
  7 20  1  0  0  0  0
  8 25  1  0  0  0  0
  9 25  2  0  0  0  0
 10 26  1  0  0  0  0
 11 12  2  0  0  0  0
 11 27  1  0  0  0  0
 12 28  1  0  0  0  0
 13 22  1  0  0  0  0
 13 26  2  0  0  0  0
 14 28  2  0  0  0  0
 14 29  1  0  0  0  0
 15 23  2  0  0  0  0
 15 68  1  0  0  0  0
 16 24  2  0  0  0  0
 16 68  1  0  0  0  0
 17 30  1  0  0  0  0
 18 30  1  0  0  0  0
 18 31  2  0  0  0  0
 18 32  1  0  0  0  0
 19 21  2  0  0  0  0
 19 37  1  0  0  0  0
 20 22  2  0  0  0  0
 20 38  1  0  0  0  0
 21 46  1  0  0  0  0
 22 39  1  0  0  0  0
 23 24  1  0  0  0  0
 23 58  1  0  0  0  0
 24 65  1  0  0  0  0
 25 83  1  0  0  0  0
 26 84  1  0  0  0  0
 27 29  2  0  0  0  0
 27 83  1  0  0  0  0
 28 85  1  0  0  0  0
 29 86  1  0  0  0  0
 30 67  2  0  0  0  0
 31 69  1  0  0  0  0
 31 72  1  0  0  0  0
 32 73  1  0  0  0  0
 32 78  2  0  0  0  0
 33 47  1  0  0  0  0
 33 74  1  0  0  0  0
 33 79  2  0  0  0  0
 34 62  1  0  0  0  0
 34 70  1  0  0  0  0
 34 80  2  0  0  0  0
 35 63  1  0  0  0  0
 35 75  1  0  0  0  0
 35 81  2  0  0  0  0
 36 71  1  0  0  0  0
 36 76  1  0  0  0  0
 36 82  2  0  0  0  0
 37 40  1  0  0  0  0
 38 47  1  0  0  0  0
 39 70  1  0  0  0  0
 40 42  1  0  0  0  0
 41 43  1  0  0  0  0
 41 44  1  0  0  0  0
 42 46  1  0  0  0  0
 43 48  1  0  0  0  0
 44 71  1  0  0  0  0
 45 48  1  0  0  0  0
 45 71  1  0  0  0  0
 46 74  1  0  0  0  0
 47 70  1  0  0  0  0
 48 69  1  0  0  0  0
 49 63  1  0  0  0  0
 50 64  1  0  0  0  0
 51 65  1  0  0  0  0
 52 65  1  0  0  0  0
 53 65  1  0  0  0  0
 54 66  1  0  0  0  0
 55 66  1  0  0  0  0
 56 66  1  0  0  0  0
 57 77  1  0  0  0  0
 58 76  1  0  0  0  0
 59 60  1  0  0  0  0
 59 64  1  0  0  0  0
 60 68  1  0  0  0  0
 61 64  1  0  0  0  0
 61 84  1  0  0  0  0
 62 66  1  0  0  0  0
 62 75  1  0  0  0  0
 63 77  1  0  0  0  0
 67 69  1  0  0  0  0
M  CHG  1  77   1
M  ISO  4  36 100  61 101  76 100  84 101
M  END
> <Batch ID>
0084

> <Smiles>
CNC(C)C(=O)NC(C(=O)N1Cc2cc([101O:1][101CH2:1]C(C)CCn3cc(C[100NH:0][100C:0](=O)N4CCCC(n5nc(-c6ccc(Oc7ccc(F)cc7F)cc6)c(C(N)=O)c5N)C4)c(C(C)(C)C)c3)ccc2CC1C(=O)NC1CCCc2ccccc21)C(C)(C)C

> <Shape>
0.182

> <Color>
0.090

> <Negative vol penalty>
0.000

$$$$

  -OEChem-04052318543D

 87 95  0     1  0  0  0  0  0999 V2000
  -18.0737  -10.3100   21.3185 C   0  0  0  0  0  0  0  0  0  0  0  0
  -18.1863  -11.6964   21.3424 C   0  0  0  0  0  0  0  0  0  0  0  0
  -22.4026  -28.9366   21.7997 C   0  0  0  0  0  0  0  0  0  0  0  0
  -23.1964  -27.6736   23.7001 C   0  0  0  0  0  0  0  0  0  0  0  0
  -19.0736   -9.5207   21.8851 C   0  0  0  0  0  0  0  0  0  0  0  0
  -19.2985  -12.2944   21.9339 C   0  0  0  0  0  0  0  0  0  0  0  0
  -23.5441  -18.0307   21.3130 C   0  0  0  0  0  0  0  0  0  0  0  0
  -21.0914  -28.5716   22.1048 C   0  0  0  0  0  0  0  0  0  0  0  0
  -21.8852  -27.3086   24.0053 C   0  0  0  0  0  0  0  0  0  0  0  0
  -24.0519  -19.0823   22.0746 C   0  0  0  0  0  0  0  0  0  0  0  0
  -18.6919  -29.5047   24.2968 C   0  0  0  0  0  0  0  0  0  0  0  0
  -17.7161  -30.5006   24.2580 C   0  0  0  0  0  0  0  0  0  0  0  0
  -25.7553  -17.6166   22.9518 C   0  0  0  0  0  0  0  0  0  0  0  0
  -27.3997  -21.0131   20.6041 C   0  0  0  0  0  0  0  0  0  0  0  0
  -16.5244  -29.2666   22.5567 C   0  0  0  0  0  0  0  0  0  0  0  0
  -23.4551  -28.4875   22.5973 C   0  0  0  0  0  0  0  0  0  0  0  0
  -25.5069  -29.9963   22.7441 C   0  0  0  0  0  0  0  0  0  0  0  0
  -20.2032  -10.1090   22.4753 C   0  0  0  0  0  0  0  0  0  0  0  0
  -24.1324  -16.7592   21.3735 C   0  0  0  0  0  0  0  0  0  0  0  0
  -20.3138  -11.5122   22.5101 C   0  0  0  0  0  0  0  0  0  0  0  0
  -25.2546  -16.5512   22.1881 C   0  0  0  0  0  0  0  0  0  0  0  0
  -28.0633  -21.7002   21.6144 C   0  0  0  0  0  0  0  0  0  0  0  0
  -28.1045  -20.5799   19.4866 C   0  0  0  0  0  0  0  0  0  0  0  0
  -20.8327  -27.7576   23.2076 C   0  0  0  0  0  0  0  0  0  0  0  0
  -25.1559  -18.8746   22.8964 C   0  0  0  0  0  0  0  0  0  0  0  0
  -18.5841  -28.3897   23.4655 C   0  0  0  0  0  0  0  0  0  0  0  0
  -16.6323  -30.3815   23.3879 C   0  0  0  0  0  0  0  0  0  0  0  0
  -17.5003  -28.2707   22.5955 C   0  0  0  0  0  0  0  0  0  0  0  0
  -24.8099  -28.8637   22.2823 C   0  0  0  0  0  0  0  0  0  0  0  0
  -29.4215  -21.9271   21.4605 C   0  0  0  0  0  0  0  0  0  0  0  0
  -29.4608  -20.8571   19.4278 C   0  0  0  0  0  0  0  0  0  0  0  0
  -26.7468  -29.8975   22.1616 C   0  0  0  0  0  0  0  0  0  0  0  0
  -25.0724  -31.0439   23.6213 C   0  0  0  0  0  0  0  0  0  0  0  0
  -23.1467  -13.8718   22.2651 C   0  0  0  0  0  0  0  0  0  0  0  0
  -26.0483  -12.9604   21.1370 C   0  0  0  0  0  0  0  0  0  0  0  0
  -29.2667  -13.8171   20.3920 C   0  0  0  0  0  0  0  0  0  0  0  0
  -29.9272  -25.2607   20.1035 C   0  0  0  0  0  0  0  0  0  0  0  0
  -21.2353   -9.2158   23.1169 C   0  0  0  0  0  0  0  0  0  0  0  0
  -23.5891  -15.6421   20.5254 C   0  0  0  0  0  0  0  0  0  0  0  0
  -25.9351  -15.2102   22.2732 C   0  0  0  0  0  0  0  0  0  0  0  0
  -22.5625   -9.9181   23.3916 C   0  0  0  0  0  0  0  0  0  0  0  0
  -28.9318  -28.1520   18.2797 C   0  0  0  0  0  0  0  0  0  0  0  0
  -22.3230  -11.2759   24.0441 C   0  0  0  0  0  0  0  0  0  0  0  0
  -27.8254  -28.7644   19.1403 C   0  0  0  0  0  0  0  0  0  0  0  0
  -28.8935  -26.6257   18.3134 C   0  0  0  0  0  0  0  0  0  0  0  0
  -27.8073  -26.6479   20.5255 C   0  0  0  0  0  0  0  0  0  0  0  0
  -21.5172  -12.1974   23.1205 C   0  0  1  0  0  0  0  0  0  0  0  0
  -23.9512  -14.2584   21.0563 C   0  0  1  0  0  0  0  0  0  0  0  0
  -27.8400  -28.1853   20.5678 C   0  0  2  0  0  0  0  0  0  0  0  0
  -30.2680  -20.4144   18.2515 C   0  0  0  0  0  0  0  0  0  0  0  0
  -26.3040  -20.6922   17.7261 C   0  0  0  0  0  0  0  0  0  0  0  0
  -26.7997  -18.5089   18.8846 C   0  0  0  0  0  0  0  0  0  0  0  0
  -31.4116  -12.8488   19.5207 C   0  0  0  0  0  0  0  0  0  0  0  0
  -31.6136  -24.6651   23.1162 C   0  0  0  0  0  0  0  0  0  0  0  0
  -26.5381  -11.6233   23.8356 C   0  0  0  0  0  0  0  0  0  0  0  0
  -28.9732  -11.5183   23.2631 C   0  0  0  0  0  0  0  0  0  0  0  0
  -27.3100  -10.2988   21.8597 C   0  0  0  0  0  0  0  0  0  0  0  0
  -29.2815  -15.6449   18.0644 C   0  0  0  0  0  0  0  0  0  0  0  0
  -27.3048  -22.1725   22.8290 C   0  0  0  0  0  0  0  0  0  0  0  0
  -30.1867  -22.6608   22.5127 C   0  0  0  0  0  0  0  0  0  0  0  0
  -27.5408  -21.3153   24.0744 C   0  0  0  0  0  0  0  0  0  0  0  0
  -27.0524  -19.8796   23.9207 C   0  0  0  0  0  0  0  0  0  1  0  0
  -27.3993  -19.8434   18.4005 C   0  0  0  0  0  0  0  0  0  0  0  0
  -27.4299  -12.8208   21.7292 C   0  0  1  0  0  0  0  0  0  0  0  0
  -30.1177  -13.5623   19.1610 C   0  0  2  0  0  0  0  0  0  0  0  0
  -30.8529  -23.9554   22.0005 C   0  0  1  0  0  0  0  0  0  0  0  0
  -27.5490  -11.5902   22.6720 C   0  0  0  0  0  0  0  0  0  0  0  0
  -25.5458  -28.1016   21.4690 N   0  0  0  0  0  0  0  0  0  0  0  0
  -30.1399  -21.5218   20.3894 N   0  0  0  0  0  0  0  0  0  0  0  0
  -26.7181  -28.7565   21.4151 N   0  0  0  0  0  0  0  0  0  0  0  0
  -25.3628  -14.1479   21.4297 N   0  0  0  0  0  0  0  0  0  0  0  0
  -28.9113  -26.1407   19.6956 N   0  0  0  0  0  0  0  0  0  0  0  0
  -27.8479  -30.6764   22.2202 N   0  0  0  0  0  0  0  0  0  0  0  0
  -23.7676  -30.9911   24.1302 N   0  0  0  0  0  0  0  0  0  0  0  0
  -22.3677  -12.7447   22.0854 N   0  0  0  0  0  0  0  0  0  0  0  0
  -28.3569  -12.8026   20.6029 N   0  0  0  0  0  0  0  0  0  0  0  0
  -29.8739  -24.8545   21.4313 N   0  0  0  0  0  0  0  0  0  0  0  0
  -30.4608  -14.8496   18.4931 N   0  3  0  0  0  0  0  0  0  0  0  0
  -25.8136  -32.0073   23.9311 O   0  0  0  0  0  0  0  0  0  0  0  0
  -23.2280  -14.5452   23.2856 O   0  0  0  0  0  0  0  0  0  0  0  0
  -25.5969  -12.0524   20.4346 O   0  0  0  0  0  0  0  0  0  0  0  0
  -29.3985  -14.8143   21.0982 O   0  0  0  0  0  0  0  0  0  0  0  0
  -30.8190  -24.8704   19.3424 O   0  0  0  0  0  0  0  0  0  0  0  0
  -19.5533  -27.4015   23.5058 O   0  0  0  0  0  0  0  0  0  0  0  0
  -25.6531  -19.8992   23.6413 O   0  0  0  0  0  0  0  0  0  1  0  0
  -15.6945  -31.3372   23.3519 F   0  0  0  0  0  0  0  0  0  0  0  0
  -17.3907  -27.2013   21.7953 F   0  0  0  0  0  0  0  0  0  0  0  0
  1  2  1  0  0  0  0
  1  5  2  0  0  0  0
  2  6  2  0  0  0  0
  3  8  2  0  0  0  0
  3 16  1  0  0  0  0
  4  9  1  0  0  0  0
  4 16  2  0  0  0  0
  5 18  1  0  0  0  0
  6 20  1  0  0  0  0
  7 10  2  0  0  0  0
  7 19  1  0  0  0  0
  8 24  1  0  0  0  0
  9 24  2  0  0  0  0
 10 25  1  0  0  0  0
 11 12  2  0  0  0  0
 11 26  1  0  0  0  0
 12 27  1  0  0  0  0
 13 21  1  0  0  0  0
 13 25  2  0  0  0  0
 14 22  1  0  0  0  0
 14 23  2  0  0  0  0
 15 27  2  0  0  0  0
 15 28  1  0  0  0  0
 16 29  1  0  0  0  0
 17 29  1  0  0  0  0
 17 32  2  0  0  0  0
 17 33  1  0  0  0  0
 18 20  2  0  0  0  0
 18 38  1  0  0  0  0
 19 21  2  0  0  0  0
 19 39  1  0  0  0  0
 20 47  1  0  0  0  0
 21 40  1  0  0  0  0
 22 30  2  0  0  0  0
 22 59  1  0  0  0  0
 23 31  1  0  0  0  0
 23 63  1  0  0  0  0
 24 84  1  0  0  0  0
 25 85  1  0  0  0  0
 26 28  2  0  0  0  0
 26 84  1  0  0  0  0
 27 86  1  0  0  0  0
 28 87  1  0  0  0  0
 29 68  2  0  0  0  0
 30 60  1  0  0  0  0
 30 69  1  0  0  0  0
 31 50  1  0  0  0  0
 31 69  2  0  0  0  0
 32 70  1  0  0  0  0
 32 73  1  0  0  0  0
 33 74  1  0  0  0  0
 33 79  2  0  0  0  0
 34 48  1  0  0  0  0
 34 75  1  0  0  0  0
 34 80  2  0  0  0  0
 35 64  1  0  0  0  0
 35 71  1  0  0  0  0
 35 81  2  0  0  0  0
 36 65  1  0  0  0  0
 36 76  1  0  0  0  0
 36 82  2  0  0  0  0
 37 72  1  0  0  0  0
 37 77  1  0  0  0  0
 37 83  2  0  0  0  0
 38 41  1  0  0  0  0
 39 48  1  0  0  0  0
 40 71  1  0  0  0  0
 41 43  1  0  0  0  0
 42 44  1  0  0  0  0
 42 45  1  0  0  0  0
 43 47  1  0  0  0  0
 44 49  1  0  0  0  0
 45 72  1  0  0  0  0
 46 49  1  0  0  0  0
 46 72  1  0  0  0  0
 47 75  1  0  0  0  0
 48 71  1  0  0  0  0
 49 70  1  0  0  0  0
 51 63  1  0  0  0  0
 52 63  1  0  0  0  0
 53 65  1  0  0  0  0
 54 66  1  0  0  0  0
 55 67  1  0  0  0  0
 56 67  1  0  0  0  0
 57 67  1  0  0  0  0
 58 78  1  0  0  0  0
 59 61  1  0  0  0  0
 60 66  1  0  0  0  0
 61 62  1  0  0  0  0
 62 85  1  0  0  0  0
 64 67  1  0  0  0  0
 64 76  1  0  0  0  0
 65 78  1  0  0  0  0
 66 77  1  0  0  0  0
 68 70  1  0  0  0  0
M  CHG  1  78   1
M  ISO  4  37 100  62 101  77 100  85 101
M  END
> <Batch ID>
0084

> <Smiles>
CNC(C)C(=O)NC(C(=O)N1Cc2cc([101O:1][101CH2:1]CCc3cc(C(C)C)c(C)nc3CC(C)[100NH:0][100C:0](=O)N3CCCC(n4nc(-c5ccc(Oc6ccc(F)cc6F)cc5)c(C(N)=O)c4N)C3)ccc2CC1C(=O)NC1CCCc2ccccc21)C(C)(C)C

> <Shape>
0.269

> <Color>
0.069

> <Negative vol penalty>
0.000

$$$$

  -OEChem-04052318543D

 86 94  0     1  0  0  0  0  0999 V2000
  -17.7498  -28.9350   23.9847 C   0  0  0  0  0  0  0  0  0  0  0  0
  -17.7988  -27.5923   23.6239 C   0  0  0  0  0  0  0  0  0  0  0  0
  -23.2980  -10.1659   22.4130 C   0  0  0  0  0  0  0  0  0  0  0  0
  -25.6655   -9.7908   22.7157 C   0  0  0  0  0  0  0  0  0  0  0  0
  -18.5167  -29.8703   23.2913 C   0  0  0  0  0  0  0  0  0  0  0  0
  -18.6139  -27.1843   22.5687 C   0  0  0  0  0  0  0  0  0  0  0  0
  -22.6076  -21.6389   20.4204 C   0  0  0  0  0  0  0  0  0  0  0  0
  -23.0209   -9.0269   23.1689 C   0  0  0  0  0  0  0  0  0  0  0  0
  -25.3884   -8.6518   23.4717 C   0  0  0  0  0  0  0  0  0  0  0  0
  -22.7816  -20.7984   19.3217 C   0  0  0  0  0  0  0  0  0  0  0  0
  -23.0045   -5.6779   22.7120 C   0  0  0  0  0  0  0  0  0  0  0  0
  -22.0364   -4.7988   22.2269 C   0  0  0  0  0  0  0  0  0  0  0  0
  -24.1228  -22.4911   18.2470 C   0  0  0  0  0  0  0  0  0  0  0  0
  -20.7278   -5.1342   24.2300 C   0  0  0  0  0  0  0  0  0  0  0  0
  -26.5397  -18.7364   19.0898 C   0  0  0  0  0  0  0  0  0  0  0  0
  -24.6203  -10.5478   22.1863 C   0  0  0  0  0  0  0  0  0  0  0  0
  -25.0560  -13.0422   21.8764 C   0  0  0  0  0  0  0  0  0  0  0  0
  -19.3491  -29.4722   22.2333 C   0  0  0  0  0  0  0  0  0  0  0  0
  -23.1819  -22.9181   20.4360 C   0  0  0  0  0  0  0  0  0  0  0  0
  -19.3917  -28.1154   21.8596 C   0  0  0  0  0  0  0  0  0  0  0  0
  -23.9568  -23.3448   19.3482 C   0  0  0  0  0  0  0  0  0  0  0  0
  -26.6085  -18.3200   17.7828 C   0  0  0  0  0  0  0  0  0  0  0  0
  -24.0660   -8.2698   23.6983 C   0  0  0  0  0  0  0  0  0  0  0  0
  -23.5369  -21.2256   18.2335 C   0  0  0  0  0  0  0  0  0  0  0  0
  -22.8343   -6.2852   23.9562 C   0  0  0  0  0  0  0  0  0  0  0  0
  -20.8980   -4.5269   22.9858 C   0  0  0  0  0  0  0  0  0  0  0  0
  -21.6960   -6.0134   24.7152 C   0  0  0  0  0  0  0  0  0  0  0  0
  -24.9073  -11.7240   21.4051 C   0  0  0  0  0  0  0  0  0  0  0  0
  -27.9855  -18.1635   17.5353 C   0  0  0  0  0  0  0  0  0  0  0  0
  -25.3182  -13.7822   20.7494 C   0  0  0  0  0  0  0  0  0  0  0  0
  -24.9654  -13.5520   23.2133 C   0  0  0  0  0  0  0  0  0  0  0  0
  -22.0487  -25.8839   20.5893 C   0  0  0  0  0  0  0  0  0  0  0  0
  -25.1913  -26.6572   20.8085 C   0  0  0  0  0  0  0  0  0  0  0  0
  -28.4358  -25.8015   20.1857 C   0  0  0  0  0  0  0  0  0  0  0  0
  -27.9950  -14.4865   15.9033 C   0  0  0  0  0  0  0  0  0  0  0  0
  -20.1236  -30.5265   21.4827 C   0  0  0  0  0  0  0  0  0  0  0  0
  -23.0071  -23.8023   21.6402 C   0  0  0  0  0  0  0  0  0  0  0  0
  -24.6113  -24.7011   19.3243 C   0  0  0  0  0  0  0  0  0  0  0  0
  -21.2469  -29.9580   20.6194 C   0  0  0  0  0  0  0  0  0  0  0  0
  -25.0097  -12.5468   15.8540 C   0  0  0  0  0  0  0  0  0  0  0  0
  -20.7480  -28.7628   19.8134 C   0  0  0  0  0  0  0  0  0  0  0  0
  -24.7331  -12.2636   17.3315 C   0  0  0  0  0  0  0  0  0  0  0  0
  -26.5059  -12.5389   15.5483 C   0  0  0  0  0  0  0  0  0  0  0  0
  -27.0397  -13.1477   17.8760 C   0  0  0  0  0  0  0  0  0  0  0  0
  -20.2826  -27.6303   20.7366 C   0  0  1  0  0  0  0  0  0  0  0  0
  -23.2096  -25.2821   21.3294 C   0  0  1  0  0  0  0  0  0  0  0  0
  -25.5470  -13.2006   18.2441 C   0  0  2  0  0  0  0  0  0  0  0  0
  -29.5467  -18.8294   15.6798 C   0  0  0  0  0  0  0  0  0  0  0  0
  -30.7822  -26.6525   20.4456 C   0  0  0  0  0  0  0  0  0  0  0  0
  -28.3973  -16.8121   21.7376 C   0  0  0  0  0  0  0  0  0  0  0  0
  -29.5910  -18.6715   22.9139 C   0  0  0  0  0  0  0  0  0  0  0  0
  -24.7572  -28.5626   18.4652 C   0  0  0  0  0  0  0  0  0  0  0  0
  -27.2413  -28.6482   18.1649 C   0  0  0  0  0  0  0  0  0  0  0  0
  -26.2144  -29.4643   20.2867 C   0  0  0  0  0  0  0  0  0  0  0  0
  -29.1964  -23.5190   21.9091 C   0  0  0  0  0  0  0  0  0  0  0  0
  -25.4586  -18.0869   16.8356 C   0  0  0  0  0  0  0  0  0  0  0  0
  -25.2760  -19.2010   15.8026 C   0  0  0  0  0  0  0  0  0  0  0  0
  -28.2665  -19.1934   20.8472 C   0  0  0  0  0  0  0  0  0  0  0  0
  -29.4612  -16.4211   16.4195 C   0  0  0  0  0  0  0  0  0  0  0  0
  -24.9219  -20.5475   16.4230 C   0  0  0  0  0  0  0  0  0  1  0  0
  -28.6351  -17.7320   16.2852 C   0  0  1  0  0  0  0  0  0  0  0  0
  -26.2843  -26.9807   19.8186 C   0  0  1  0  0  0  0  0  0  0  0  0
  -29.6704  -25.8228   21.0687 C   0  0  2  0  0  0  0  0  0  0  0  0
  -29.1372  -18.1389   21.5533 C   0  0  0  0  0  0  0  0  0  0  0  0
  -26.1105  -28.3891   19.1832 C   0  0  0  0  0  0  0  0  0  0  0  0
  -25.0619  -11.6290   20.0818 N   0  0  0  0  0  0  0  0  0  0  0  0
  -28.7372  -18.4567   18.5997 N   0  0  0  0  0  0  0  0  0  0  0  0
  -27.8294  -18.8018   19.5286 N   0  0  0  0  0  0  0  0  0  0  0  0
  -25.3105  -12.8969   19.7119 N   0  0  0  0  0  0  0  0  0  0  0  0
  -24.4059  -25.5316   20.5225 N   0  0  0  0  0  0  0  0  0  0  0  0
  -27.2197  -13.4490   16.4472 N   0  0  0  0  0  0  0  0  0  0  0  0
  -25.5522  -15.0974   20.5545 N   0  0  0  0  0  0  0  0  0  0  0  0
  -24.6894  -12.6542   24.2536 N   0  0  0  0  0  0  0  0  0  0  0  0
  -21.4207  -26.9111   21.2675 N   0  0  0  0  0  0  0  0  0  0  0  0
  -27.5454  -26.7970   20.5285 N   0  0  0  0  0  0  0  0  0  0  0  0
  -28.6333  -15.3072   16.8251 N   0  0  0  0  0  0  0  0  0  0  0  0
  -30.1796  -24.4383   21.2806 N   0  3  0  0  0  0  0  0  0  0  0  0
  -25.1083  -14.7704   23.4756 O   0  0  0  0  0  0  0  0  0  0  0  0
  -21.7460  -25.4495   19.4841 O   0  0  0  0  0  0  0  0  0  0  0  0
  -25.0446  -27.3727   21.8026 O   0  0  0  0  0  0  0  0  0  0  0  0
  -28.2787  -24.9859   19.2798 O   0  0  0  0  0  0  0  0  0  0  0  0
  -28.1055  -14.6711   14.6865 O   0  0  0  0  0  0  0  0  0  0  0  0
  -23.7960   -7.1584   24.4362 O   0  0  0  0  0  0  0  0  0  0  0  0
  -23.7077  -20.4075   17.1595 O   0  0  0  0  0  0  0  0  0  1  0  0
  -19.9677   -3.6838   22.5191 F   0  0  0  0  0  0  0  0  0  0  0  0
  -21.5264   -6.5947   25.9106 F   0  0  0  0  0  0  0  0  0  0  0  0
  1  2  1  0  0  0  0
  1  5  2  0  0  0  0
  2  6  2  0  0  0  0
  3  8  2  0  0  0  0
  3 16  1  0  0  0  0
  4  9  1  0  0  0  0
  4 16  2  0  0  0  0
  5 18  1  0  0  0  0
  6 20  1  0  0  0  0
  7 10  2  0  0  0  0
  7 19  1  0  0  0  0
  8 23  1  0  0  0  0
  9 23  2  0  0  0  0
 10 24  1  0  0  0  0
 11 12  2  0  0  0  0
 11 25  1  0  0  0  0
 12 26  1  0  0  0  0
 13 21  1  0  0  0  0
 13 24  2  0  0  0  0
 14 26  2  0  0  0  0
 14 27  1  0  0  0  0
 15 22  2  0  0  0  0
 15 68  1  0  0  0  0
 16 28  1  0  0  0  0
 17 28  1  0  0  0  0
 17 30  2  0  0  0  0
 17 31  1  0  0  0  0
 18 20  2  0  0  0  0
 18 36  1  0  0  0  0
 19 21  2  0  0  0  0
 19 37  1  0  0  0  0
 20 45  1  0  0  0  0
 21 38  1  0  0  0  0
 22 29  1  0  0  0  0
 22 56  1  0  0  0  0
 23 83  1  0  0  0  0
 24 84  1  0  0  0  0
 25 27  2  0  0  0  0
 25 83  1  0  0  0  0
 26 85  1  0  0  0  0
 27 86  1  0  0  0  0
 28 66  2  0  0  0  0
 29 61  1  0  0  0  0
 29 67  2  0  0  0  0
 30 69  1  0  0  0  0
 30 72  1  0  0  0  0
 31 73  1  0  0  0  0
 31 78  2  0  0  0  0
 32 46  1  0  0  0  0
 32 74  1  0  0  0  0
 32 79  2  0  0  0  0
 33 62  1  0  0  0  0
 33 70  1  0  0  0  0
 33 80  2  0  0  0  0
 34 63  1  0  0  0  0
 34 75  1  0  0  0  0
 34 81  2  0  0  0  0
 35 71  1  0  0  0  0
 35 76  1  0  0  0  0
 35 82  2  0  0  0  0
 36 39  1  0  0  0  0
 37 46  1  0  0  0  0
 38 70  1  0  0  0  0
 39 41  1  0  0  0  0
 40 42  1  0  0  0  0
 40 43  1  0  0  0  0
 41 45  1  0  0  0  0
 42 47  1  0  0  0  0
 43 71  1  0  0  0  0
 44 47  1  0  0  0  0
 44 71  1  0  0  0  0
 45 74  1  0  0  0  0
 46 70  1  0  0  0  0
 47 69  1  0  0  0  0
 48 61  1  0  0  0  0
 49 63  1  0  0  0  0
 50 64  1  0  0  0  0
 51 64  1  0  0  0  0
 52 65  1  0  0  0  0
 53 65  1  0  0  0  0
 54 65  1  0  0  0  0
 55 77  1  0  0  0  0
 56 57  1  0  0  0  0
 57 60  1  0  0  0  0
 58 64  1  0  0  0  0
 58 68  1  0  0  0  0
 59 61  1  0  0  0  0
 59 76  1  0  0  0  0
 60 84  1  0  0  0  0
 62 65  1  0  0  0  0
 62 75  1  0  0  0  0
 63 77  1  0  0  0  0
 66 69  1  0  0  0  0
 67 68  1  0  0  0  0
M  CHG  1  77   1
M  ISO  4  35 100  60 101  76 100  84 101
M  END
> <Batch ID>
0084

> <Smiles>
CNC(C)C(=O)NC(C(=O)N1Cc2cc([101O:1][101CH2:1]CCc3cn(CC(C)C)nc3C(C)C[100NH:0][100C:0](=O)N3CCCC(n4nc(-c5ccc(Oc6ccc(F)cc6F)cc5)c(C(N)=O)c4N)C3)ccc2CC1C(=O)NC1CCCc2ccccc21)C(C)(C)C

> <Shape>
0.210

> <Color>
0.088

> <Negative vol penalty>
0.000

$$$$

  -OEChem-04052318543D

 89 97  0     1  0  0  0  0  0999 V2000
  -27.1900  -31.5949   28.1124 C   0  0  0  0  0  0  0  0  0  0  0  0
  -27.2422  -30.3646   27.4651 C   0  0  0  0  0  0  0  0  0  0  0  0
  -23.0494   -9.9750   21.4685 C   0  0  0  0  0  0  0  0  0  0  0  0
  -23.8926  -10.7812   23.5842 C   0  0  0  0  0  0  0  0  0  0  0  0
  -26.1128  -32.4522   27.8917 C   0  0  0  0  0  0  0  0  0  0  0  0
  -26.2167  -29.9903   26.5976 C   0  0  0  0  0  0  0  0  0  0  0  0
  -27.9553  -27.9787   22.2876 C   0  0  0  0  0  0  0  0  0  0  0  0
  -22.3107   -8.9976   22.1353 C   0  0  0  0  0  0  0  0  0  0  0  0
  -23.1539   -9.8038   24.2510 C   0  0  0  0  0  0  0  0  0  0  0  0
  -28.3903  -26.6549   22.3329 C   0  0  0  0  0  0  0  0  0  0  0  0
  -22.8805   -5.9883   23.5649 C   0  0  0  0  0  0  0  0  0  0  0  0
  -22.9090   -4.6921   23.0506 C   0  0  0  0  0  0  0  0  0  0  0  0
  -26.2900  -25.9386   21.3870 C   0  0  0  0  0  0  0  0  0  0  0  0
  -20.5139   -4.7620   22.7413 C   0  0  0  0  0  0  0  0  0  0  0  0
  -31.1238  -19.2450   21.8154 C   0  0  0  0  0  0  0  0  0  0  0  0
  -23.8404  -10.8668   22.1930 C   0  0  0  0  0  0  0  0  0  0  0  0
  -24.1874  -13.1797   21.1744 C   0  0  0  0  0  0  0  0  0  0  0  0
  -25.0783  -32.0923   27.0136 C   0  0  0  0  0  0  0  0  0  0  0  0
  -26.6779  -28.2919   21.8011 C   0  0  0  0  0  0  0  0  0  0  0  0
  -25.1240  -30.8430   26.3660 C   0  0  0  0  0  0  0  0  0  0  0  0
  -25.8420  -27.2674   21.3343 C   0  0  0  0  0  0  0  0  0  0  0  0
  -22.3629   -8.9120   23.5266 C   0  0  0  0  0  0  0  0  0  0  0  0
  -27.5566  -25.6343   21.8852 C   0  0  0  0  0  0  0  0  0  0  0  0
  -21.6686   -6.6714   23.6675 C   0  0  0  0  0  0  0  0  0  0  0  0
  -21.7257   -4.0789   22.6388 C   0  0  0  0  0  0  0  0  0  0  0  0
  -20.4854   -6.0583   23.2557 C   0  0  0  0  0  0  0  0  0  0  0  0
  -24.6042  -11.8763   21.5047 C   0  0  0  0  0  0  0  0  0  0  0  0
  -30.5088  -18.0200   21.6782 C   0  0  0  0  0  0  0  0  0  0  0  0
  -29.8646  -19.6688   23.6767 C   0  0  0  0  0  0  0  0  0  0  0  0
  -29.2490  -18.4442   23.5391 C   0  0  0  0  0  0  0  0  0  0  0  0
  -25.2684  -13.7338   20.5334 C   0  0  0  0  0  0  0  0  0  0  0  0
  -22.9351  -13.8315   21.4246 C   0  0  0  0  0  0  0  0  0  0  0  0
  -24.0756  -29.6377   23.0341 C   0  0  0  0  0  0  0  0  0  0  0  0
  -23.0004  -29.4399   19.9801 C   0  0  0  0  0  0  0  0  0  0  0  0
  -23.1919  -27.9122   16.9344 C   0  0  0  0  0  0  0  0  0  0  0  0
  -30.7593  -14.6625   20.1682 C   0  0  0  0  0  0  0  0  0  0  0  0
  -23.9109  -33.0319   26.8433 C   0  0  0  0  0  0  0  0  0  0  0  0
  -26.2338  -29.7274   21.7340 C   0  0  0  0  0  0  0  0  0  0  0  0
  -24.4694  -27.5527   20.7838 C   0  0  0  0  0  0  0  0  0  0  0  0
  -23.0515  -32.7203   25.6208 C   0  0  0  0  0  0  0  0  0  0  0  0
  -29.5260  -11.6064   18.8206 C   0  0  0  0  0  0  0  0  0  0  0  0
  -22.7522  -31.2264   25.5454 C   0  0  0  0  0  0  0  0  0  0  0  0
  -28.1042  -11.5089   19.3764 C   0  0  0  0  0  0  0  0  0  0  0  0
  -30.4873  -12.2230   19.8344 C   0  0  0  0  0  0  0  0  0  0  0  0
  -28.6403  -13.4292   20.9333 C   0  0  0  0  0  0  0  0  0  0  0  0
  -24.0431  -30.4119   25.3986 C   0  0  1  0  0  0  0  0  0  0  0  0
  -24.7165  -29.8823   21.6973 C   0  0  1  0  0  0  0  0  0  0  0  0
  -27.6231  -12.8650   19.9267 C   0  0  2  0  0  0  0  0  0  0  0  0
  -30.6442  -17.7361   19.1757 C   0  0  0  0  0  0  0  0  0  0  0  0
  -22.1603  -27.9427   14.6470 C   0  0  0  0  0  0  0  0  0  0  0  0
  -27.1930  -16.0744   26.7076 C   0  0  0  0  0  0  0  0  0  0  0  0
  -26.5072  -14.4338   24.9527 C   0  0  0  0  0  0  0  0  0  0  0  0
  -25.4422  -16.7022   25.0398 C   0  0  0  0  0  0  0  0  0  0  0  0
  -20.5458  -27.9922   21.0705 C   0  0  0  0  0  0  0  0  0  0  0  0
  -20.0475  -27.2275   18.7392 C   0  0  0  0  0  0  0  0  0  0  0  0
  -20.0591  -29.6637   19.2750 C   0  0  0  0  0  0  0  0  0  0  0  0
  -25.7706  -28.5974   15.6538 C   0  0  0  0  0  0  0  0  0  0  0  0
  -29.5071  -20.6066   24.8021 C   0  0  0  0  0  0  0  0  0  0  0  0
  -28.2010  -17.9893   24.4964 C   0  0  0  0  0  0  0  0  0  0  0  0
  -29.6480  -22.0894   24.4408 C   0  0  0  0  0  0  0  0  0  0  0  0
  -27.8832  -16.4894   24.3355 C   0  0  0  0  0  0  0  0  0  0  0  0
  -28.7010  -22.5256   23.3220 C   0  0  0  0  0  0  0  0  0  0  0  0
  -28.8972  -23.9925   22.9636 C   0  0  0  0  0  0  0  0  0  1  0  0
  -30.8786  -17.1103   20.5595 C   0  0  2  0  0  0  0  0  0  0  0  0
  -22.2501  -28.4060   19.1757 C   0  0  1  0  0  0  0  0  0  0  0  0
  -23.2789  -28.4769   15.5280 C   0  0  2  0  0  0  0  0  0  0  0  0
  -26.7535  -15.9245   25.2376 C   0  0  0  0  0  0  0  0  0  0  0  0
  -20.7507  -28.3164   19.5772 C   0  0  0  0  0  0  0  0  0  0  0  0
  -30.8128  -20.0913   22.8172 N   0  0  0  0  0  0  0  0  0  0  0  0
  -25.8525  -11.6176   21.1063 N   0  0  0  0  0  0  0  0  0  0  0  0
  -29.5603  -17.5977   22.5376 N   0  0  0  0  0  0  0  0  0  0  0  0
  -26.2295  -12.7661   20.5190 N   0  0  0  0  0  0  0  0  0  0  0  0
  -24.0782  -28.9715   20.7448 N   0  0  0  0  0  0  0  0  0  0  0  0
  -29.9734  -13.5076   20.3157 N   0  0  0  0  0  0  0  0  0  0  0  0
  -25.4812  -14.9494   19.9862 N   0  0  0  0  0  0  0  0  0  0  0  0
  -21.9327  -13.1175   22.0953 N   0  0  0  0  0  0  0  0  0  0  0  0
  -24.5280  -30.4745   24.0365 N   0  0  0  0  0  0  0  0  0  0  0  0
  -22.4743  -28.7386   17.7731 N   0  0  0  0  0  0  0  0  0  0  0  0
  -30.1949  -15.8391   20.6455 N   0  0  0  0  0  0  0  0  0  0  0  0
  -24.5827  -28.1141   14.9039 N   0  3  0  0  0  0  0  0  0  0  0  0
  -22.7058  -15.0063   21.0497 O   0  0  0  0  0  0  0  0  0  0  0  0
  -23.2320  -28.7562   23.1475 O   0  0  0  0  0  0  0  0  0  0  0  0
  -22.6478  -30.6207   19.9262 O   0  0  0  0  0  0  0  0  0  0  0  0
  -23.7058  -26.8431   17.2559 O   0  0  0  0  0  0  0  0  0  0  0  0
  -31.8786  -14.6471   19.6449 O   0  0  0  0  0  0  0  0  0  0  0  0
  -21.6421   -7.9586   24.1776 O   0  0  0  0  0  0  0  0  0  0  0  0
  -27.9785  -24.3413   21.9289 O   0  0  0  0  0  0  0  0  0  1  0  0
  -21.7535   -2.8347   22.1435 F   0  0  0  0  0  0  0  0  0  0  0  0
  -19.3183   -6.7100   23.3507 F   0  0  0  0  0  0  0  0  0  0  0  0
  1  2  1  0  0  0  0
  1  5  2  0  0  0  0
  2  6  2  0  0  0  0
  3  8  2  0  0  0  0
  3 16  1  0  0  0  0
  4  9  1  0  0  0  0
  4 16  2  0  0  0  0
  5 18  1  0  0  0  0
  6 20  1  0  0  0  0
  7 10  2  0  0  0  0
  7 19  1  0  0  0  0
  8 22  1  0  0  0  0
  9 22  2  0  0  0  0
 10 23  1  0  0  0  0
 11 12  2  0  0  0  0
 11 24  1  0  0  0  0
 12 25  1  0  0  0  0
 13 21  1  0  0  0  0
 13 23  2  0  0  0  0
 14 25  2  0  0  0  0
 14 26  1  0  0  0  0
 15 28  1  0  0  0  0
 15 69  2  0  0  0  0
 16 27  1  0  0  0  0
 17 27  1  0  0  0  0
 17 31  2  0  0  0  0
 17 32  1  0  0  0  0
 18 20  2  0  0  0  0
 18 37  1  0  0  0  0
 19 21  2  0  0  0  0
 19 38  1  0  0  0  0
 20 46  1  0  0  0  0
 21 39  1  0  0  0  0
 22 86  1  0  0  0  0
 23 87  1  0  0  0  0
 24 26  2  0  0  0  0
 24 86  1  0  0  0  0
 25 88  1  0  0  0  0
 26 89  1  0  0  0  0
 27 70  2  0  0  0  0
 28 64  1  0  0  0  0
 28 71  2  0  0  0  0
 29 30  2  0  0  0  0
 29 58  1  0  0  0  0
 29 69  1  0  0  0  0
 30 59  1  0  0  0  0
 30 71  1  0  0  0  0
 31 72  1  0  0  0  0
 31 75  1  0  0  0  0
 32 76  1  0  0  0  0
 32 81  2  0  0  0  0
 33 47  1  0  0  0  0
 33 77  1  0  0  0  0
 33 82  2  0  0  0  0
 34 65  1  0  0  0  0
 34 73  1  0  0  0  0
 34 83  2  0  0  0  0
 35 66  1  0  0  0  0
 35 78  1  0  0  0  0
 35 84  2  0  0  0  0
 36 74  1  0  0  0  0
 36 79  1  0  0  0  0
 36 85  2  0  0  0  0
 37 40  1  0  0  0  0
 38 47  1  0  0  0  0
 39 73  1  0  0  0  0
 40 42  1  0  0  0  0
 41 43  1  0  0  0  0
 41 44  1  0  0  0  0
 42 46  1  0  0  0  0
 43 48  1  0  0  0  0
 44 74  1  0  0  0  0
 45 48  1  0  0  0  0
 45 74  1  0  0  0  0
 46 77  1  0  0  0  0
 47 73  1  0  0  0  0
 48 72  1  0  0  0  0
 49 64  1  0  0  0  0
 50 66  1  0  0  0  0
 51 67  1  0  0  0  0
 52 67  1  0  0  0  0
 53 67  1  0  0  0  0
 54 68  1  0  0  0  0
 55 68  1  0  0  0  0
 56 68  1  0  0  0  0
 57 80  1  0  0  0  0
 58 60  1  0  0  0  0
 59 61  1  0  0  0  0
 60 62  1  0  0  0  0
 61 67  1  0  0  0  0
 62 63  1  0  0  0  0
 63 87  1  0  0  0  0
 64 79  1  0  0  0  0
 65 68  1  0  0  0  0
 65 78  1  0  0  0  0
 66 80  1  0  0  0  0
 70 72  1  0  0  0  0
M  CHG  1  80   1
M  ISO  4  36 100  63 101  79 100  87 101
M  END
> <Batch ID>
0084

> <Smiles>
CNC(C)C(=O)NC(C(=O)N1Cc2cc([101O:1][101CH2:1]CCCc3ncc(C(C)[100NH:0][100C:0](=O)N4CCCC(n5nc(-c6ccc(Oc7ccc(F)cc7F)cc6)c(C(N)=O)c5N)C4)nc3CCC(C)(C)C)ccc2CC1C(=O)NC1CCCc2ccccc21)C(C)(C)C

> <Shape>
0.259

> <Color>
0.173

> <Negative vol penalty>
0.000

$$$$

  -OEChem-04052318543D

 87 95  0     1  0  0  0  0  0999 V2000
  -29.9813  -23.6344   15.9028 C   0  0  0  0  0  0  0  0  0  0  0  0
  -28.6695  -23.7276   16.3566 C   0  0  0  0  0  0  0  0  0  0  0  0
  -26.4621  -13.1415   19.5634 C   0  0  0  0  0  0  0  0  0  0  0  0
  -24.3807  -13.6495   20.6801 C   0  0  0  0  0  0  0  0  0  0  0  0
  -31.0378  -23.9351   16.7614 C   0  0  0  0  0  0  0  0  0  0  0  0
  -28.4135  -24.1205   17.6698 C   0  0  0  0  0  0  0  0  0  0  0  0
  -23.6830  -27.4645   19.6563 C   0  0  0  0  0  0  0  0  0  0  0  0
  -26.4374  -11.8553   20.1025 C   0  0  0  0  0  0  0  0  0  0  0  0
  -24.3560  -12.3632   21.2192 C   0  0  0  0  0  0  0  0  0  0  0  0
  -22.4731  -27.1153   20.2545 C   0  0  0  0  0  0  0  0  0  0  0  0
  -23.5583   -9.2461   20.1858 C   0  0  0  0  0  0  0  0  0  0  0  0
  -22.3507   -8.5494   20.1412 C   0  0  0  0  0  0  0  0  0  0  0  0
  -23.4376  -27.5203   22.4281 C   0  0  0  0  0  0  0  0  0  0  0  0
  -20.0268  -24.6883   19.1387 C   0  0  0  0  0  0  0  0  0  0  0  0
  -22.3492   -8.3979   22.5525 C   0  0  0  0  0  0  0  0  0  0  0  0
  -25.4337  -14.0387   19.8523 C   0  0  0  0  0  0  0  0  0  0  0  0
  -24.9046  -15.7877   18.0723 C   0  0  0  0  0  0  0  0  0  0  0  0
  -30.7943  -24.3413   18.0829 C   0  0  0  0  0  0  0  0  0  0  0  0
  -24.7845  -27.8343   20.4414 C   0  0  0  0  0  0  0  0  0  0  0  0
  -29.4678  -24.4257   18.5473 C   0  0  0  0  0  0  0  0  0  0  0  0
  -24.6597  -27.8762   21.8374 C   0  0  0  0  0  0  0  0  0  0  0  0
  -20.8120  -23.7439   18.4869 C   0  0  0  0  0  0  0  0  0  0  0  0
  -21.6097  -22.8798   19.2287 C   0  0  0  0  0  0  0  0  0  0  0  0
  -25.3844  -11.4661   20.9303 C   0  0  0  0  0  0  0  0  0  0  0  0
  -22.3511  -27.1404   21.6407 C   0  0  0  0  0  0  0  0  0  0  0  0
  -24.1614   -9.5186   21.4137 C   0  0  0  0  0  0  0  0  0  0  0  0
  -21.7461   -8.1253   21.3245 C   0  0  0  0  0  0  0  0  0  0  0  0
  -23.5568   -9.0945   22.5970 C   0  0  0  0  0  0  0  0  0  0  0  0
  -25.4589  -15.3677   19.2962 C   0  0  0  0  0  0  0  0  0  0  0  0
  -20.0747  -24.7276   20.5229 C   0  0  0  0  0  0  0  0  0  0  0  0
  -21.5869  -23.0002   20.6088 C   0  0  0  0  0  0  0  0  0  0  0  0
  -25.1951  -17.1285   18.0059 C   0  0  0  0  0  0  0  0  0  0  0  0
  -24.1907  -15.0334   17.0838 C   0  0  0  0  0  0  0  0  0  0  0  0
  -27.7072  -26.6701   20.8959 C   0  0  0  0  0  0  0  0  0  0  0  0
  -28.0849  -29.3666   22.6589 C   0  0  0  0  0  0  0  0  0  0  0  0
  -26.6377  -31.8643   24.4794 C   0  0  0  0  0  0  0  0  0  0  0  0
  -26.3003  -21.2728   22.1837 C   0  0  0  0  0  0  0  0  0  0  0  0
  -31.9704  -24.6103   18.9880 C   0  0  0  0  0  0  0  0  0  0  0  0
  -26.0748  -28.2339   19.7797 C   0  0  0  0  0  0  0  0  0  0  0  0
  -25.8062  -28.2856   22.7242 C   0  0  0  0  0  0  0  0  0  0  0  0
  -31.6016  -25.3807   20.2532 C   0  0  0  0  0  0  0  0  0  0  0  0
  -28.4219  -20.3380   19.4815 C   0  0  0  0  0  0  0  0  0  0  0  0
  -30.3561  -24.7819   20.8989 C   0  0  0  0  0  0  0  0  0  0  0  0
  -27.8531  -18.9961   19.0172 C   0  0  0  0  0  0  0  0  0  0  0  0
  -28.3314  -20.4950   20.9978 C   0  0  0  0  0  0  0  0  0  0  0  0
  -26.4155  -18.9480   21.0980 C   0  0  0  0  0  0  0  0  0  0  0  0
  -29.1489  -24.8723   19.9576 C   0  0  1  0  0  0  0  0  0  0  0  0
  -27.2847  -28.0986   20.6990 C   0  0  1  0  0  0  0  0  0  0  0  0
  -26.4337  -18.7671   19.5705 C   0  0  2  0  0  0  0  0  0  0  0  0
  -20.7826  -23.6803   16.9955 C   0  0  0  0  0  0  0  0  0  0  0  0
  -22.0629  -20.4171   18.9400 C   0  0  0  0  0  0  0  0  0  0  0  0
  -23.9623  -22.0706   18.8228 C   0  0  0  0  0  0  0  0  0  0  0  0
  -27.2068  -33.9017   25.8293 C   0  0  0  0  0  0  0  0  0  0  0  0
  -19.1250  -28.0424   22.2793 C   0  0  0  0  0  0  0  0  0  0  0  0
  -28.9956  -27.5837   24.9614 C   0  0  0  0  0  0  0  0  0  0  0  0
  -28.6329  -29.5172   26.5101 C   0  0  0  0  0  0  0  0  0  0  0  0
  -30.3218  -29.6855   24.6820 C   0  0  0  0  0  0  0  0  0  0  0  0
  -25.1031  -33.6339   22.6704 C   0  0  0  0  0  0  0  0  0  0  0  0
  -19.2341  -25.7397   21.2652 C   0  0  0  0  0  0  0  0  0  0  0  0
  -22.4214  -22.0992   21.4594 C   0  0  0  0  0  0  0  0  0  0  0  0
  -23.3766  -22.8350   22.4181 C   0  0  0  0  0  0  0  0  0  0  0  0
  -24.1915  -21.9143   23.3240 C   0  0  0  0  0  0  0  0  0  0  0  0
  -22.4605  -21.8551   18.5568 C   0  0  0  0  0  0  0  0  0  0  0  0
  -27.8609  -29.7388   24.1047 C   0  0  1  0  0  0  0  0  0  0  0  0
  -26.8304  -33.3699   24.4552 C   0  0  2  0  0  0  0  0  0  0  0  0
  -19.9791  -27.0602   21.4876 C   0  0  2  0  0  0  0  0  0  1  0  0
  -28.9316  -29.1217   25.0482 C   0  0  0  0  0  0  0  0  0  0  0  0
  -26.0566  -16.3610   19.9595 N   0  0  0  0  0  0  0  0  0  0  0  0
  -20.8372  -23.9050   21.2775 N   0  0  0  0  0  0  0  0  0  0  0  0
  -25.8796  -17.4186   19.1494 N   0  0  0  0  0  0  0  0  0  0  0  0
  -27.0490  -28.6614   22.0301 N   0  0  0  0  0  0  0  0  0  0  0  0
  -26.9595  -20.2669   21.4580 N   0  0  0  0  0  0  0  0  0  0  0  0
  -24.9295  -18.0757   17.0815 N   0  0  0  0  0  0  0  0  0  0  0  0
  -23.9795  -13.6665   17.3103 N   0  0  0  0  0  0  0  0  0  0  0  0
  -28.6104  -26.2156   19.9540 N   0  0  0  0  0  0  0  0  0  0  0  0
  -27.7966  -31.1957   24.1459 N   0  0  0  0  0  0  0  0  0  0  0  0
  -25.0006  -20.9777   22.5764 N   0  0  0  0  0  0  0  0  0  0  0  0
  -25.5764  -34.0456   24.0171 N   0  3  0  0  0  0  0  0  0  0  0  0
  -23.7673  -15.5525   16.0233 O   0  0  0  0  0  0  0  0  0  0  0  0
  -27.2488  -26.0283   21.8337 O   0  0  0  0  0  0  0  0  0  0  0  0
  -29.1371  -29.6960   22.1057 O   0  0  0  0  0  0  0  0  0  0  0  0
  -25.5673  -31.3343   24.7690 O   0  0  0  0  0  0  0  0  0  0  0  0
  -26.8290  -22.3559   22.4565 O   0  0  0  0  0  0  0  0  0  0  0  0
  -25.3599  -10.2110   21.4563 O   0  0  0  0  0  0  0  0  0  0  0  0
  -21.1713  -26.7994   22.2271 O   0  0  0  0  0  0  0  0  0  1  0  0
  -20.5857   -7.4577   21.2817 F   0  0  0  0  0  0  0  0  0  0  0  0
  -24.1308   -9.3544   23.7797 F   0  0  0  0  0  0  0  0  0  0  0  0
  1  2  1  0  0  0  0
  1  5  2  0  0  0  0
  2  6  2  0  0  0  0
  3  8  2  0  0  0  0
  3 16  1  0  0  0  0
  4  9  1  0  0  0  0
  4 16  2  0  0  0  0
  5 18  1  0  0  0  0
  6 20  1  0  0  0  0
  7 10  2  0  0  0  0
  7 19  1  0  0  0  0
  8 24  1  0  0  0  0
  9 24  2  0  0  0  0
 10 25  1  0  0  0  0
 11 12  2  0  0  0  0
 11 26  1  0  0  0  0
 12 27  1  0  0  0  0
 13 21  1  0  0  0  0
 13 25  2  0  0  0  0
 14 22  2  0  0  0  0
 14 30  1  0  0  0  0
 15 27  2  0  0  0  0
 15 28  1  0  0  0  0
 16 29  1  0  0  0  0
 17 29  1  0  0  0  0
 17 32  2  0  0  0  0
 17 33  1  0  0  0  0
 18 20  2  0  0  0  0
 18 38  1  0  0  0  0
 19 21  2  0  0  0  0
 19 39  1  0  0  0  0
 20 47  1  0  0  0  0
 21 40  1  0  0  0  0
 22 23  1  0  0  0  0
 22 50  1  0  0  0  0
 23 31  2  0  0  0  0
 23 63  1  0  0  0  0
 24 84  1  0  0  0  0
 25 85  1  0  0  0  0
 26 28  2  0  0  0  0
 26 84  1  0  0  0  0
 27 86  1  0  0  0  0
 28 87  1  0  0  0  0
 29 68  2  0  0  0  0
 30 59  1  0  0  0  0
 30 69  2  0  0  0  0
 31 60  1  0  0  0  0
 31 69  1  0  0  0  0
 32 70  1  0  0  0  0
 32 73  1  0  0  0  0
 33 74  1  0  0  0  0
 33 79  2  0  0  0  0
 34 48  1  0  0  0  0
 34 75  1  0  0  0  0
 34 80  2  0  0  0  0
 35 64  1  0  0  0  0
 35 71  1  0  0  0  0
 35 81  2  0  0  0  0
 36 65  1  0  0  0  0
 36 76  1  0  0  0  0
 36 82  2  0  0  0  0
 37 72  1  0  0  0  0
 37 77  1  0  0  0  0
 37 83  2  0  0  0  0
 38 41  1  0  0  0  0
 39 48  1  0  0  0  0
 40 71  1  0  0  0  0
 41 43  1  0  0  0  0
 42 44  1  0  0  0  0
 42 45  1  0  0  0  0
 43 47  1  0  0  0  0
 44 49  1  0  0  0  0
 45 72  1  0  0  0  0
 46 49  1  0  0  0  0
 46 72  1  0  0  0  0
 47 75  1  0  0  0  0
 48 71  1  0  0  0  0
 49 70  1  0  0  0  0
 51 63  1  0  0  0  0
 52 63  1  0  0  0  0
 53 65  1  0  0  0  0
 54 66  1  0  0  0  0
 55 67  1  0  0  0  0
 56 67  1  0  0  0  0
 57 67  1  0  0  0  0
 58 78  1  0  0  0  0
 59 66  1  0  0  0  0
 60 61  1  0  0  0  0
 61 62  1  0  0  0  0
 62 77  1  0  0  0  0
 64 67  1  0  0  0  0
 64 76  1  0  0  0  0
 65 78  1  0  0  0  0
 66 85  1  0  0  0  0
 68 70  1  0  0  0  0
M  CHG  1  78   1
M  ISO  4  37 100  66 101  77 100  85 101
M  END
> <Batch ID>
0084

> <Smiles>
CNC(C)C(=O)NC(C(=O)N1Cc2cc([101O:1][101CH:1](C)Cc3cc(C)c(C(C)C)c(CCC[100NH:0][100C:0](=O)N4CCCC(n5nc(-c6ccc(Oc7ccc(F)cc7F)cc6)c(C(N)=O)c5N)C4)n3)ccc2CC1C(=O)NC1CCCc2ccccc21)C(C)(C)C

> <Shape>
0.252

> <Color>
0.058

> <Negative vol penalty>
0.000

$$$$

  -OEChem-04052318543D

 86 94  0     1  0  0  0  0  0999 V2000
  -25.9266  -32.5535   18.2978 C   0  0  0  0  0  0  0  0  0  0  0  0
  -26.0242  -31.1657   18.3072 C   0  0  0  0  0  0  0  0  0  0  0  0
  -23.0037   -9.8929   19.9791 C   0  0  0  0  0  0  0  0  0  0  0  0
  -23.7337   -9.9416   22.2817 C   0  0  0  0  0  0  0  0  0  0  0  0
  -26.4361  -33.2942   19.3634 C   0  0  0  0  0  0  0  0  0  0  0  0
  -26.6324  -30.5180   19.3819 C   0  0  0  0  0  0  0  0  0  0  0  0
  -24.0064  -26.4848   20.9577 C   0  0  0  0  0  0  0  0  0  0  0  0
  -27.1295  -18.5758   19.4585 C   0  0  0  0  0  0  0  0  0  0  0  0
  -22.2400   -8.7564   20.2452 C   0  0  0  0  0  0  0  0  0  0  0  0
  -22.9700   -8.8051   22.5478 C   0  0  0  0  0  0  0  0  0  0  0  0
  -24.1163  -25.3185   20.2018 C   0  0  0  0  0  0  0  0  0  0  0  0
  -23.2199   -5.4674   22.0700 C   0  0  0  0  0  0  0  0  0  0  0  0
  -23.8111   -4.4502   22.8191 C   0  0  0  0  0  0  0  0  0  0  0  0
  -28.4722  -18.2228   19.5353 C   0  0  0  0  0  0  0  0  0  0  0  0
  -25.7042  -24.4439   21.7934 C   0  0  0  0  0  0  0  0  0  0  0  0
  -22.0903   -4.6870   24.4984 C   0  0  0  0  0  0  0  0  0  0  0  0
  -23.7506  -10.4854   20.9973 C   0  0  0  0  0  0  0  0  0  0  0  0
  -24.1306  -13.0021   20.8246 C   0  0  0  0  0  0  0  0  0  0  0  0
  -27.0422  -32.6546   20.4562 C   0  0  0  0  0  0  0  0  0  0  0  0
  -24.7541  -26.6442   22.1333 C   0  0  0  0  0  0  0  0  0  0  0  0
  -27.1517  -31.2509   20.4625 C   0  0  0  0  0  0  0  0  0  0  0  0
  -25.6000  -25.6121   22.5637 C   0  0  0  0  0  0  0  0  0  0  0  0
  -26.4750  -19.0488   20.5904 C   0  0  0  0  0  0  0  0  0  0  0  0
  -22.2231   -8.2126   21.5296 C   0  0  0  0  0  0  0  0  0  0  0  0
  -24.9674  -24.2990   20.6181 C   0  0  0  0  0  0  0  0  0  0  0  0
  -22.0640   -6.0945   22.5350 C   0  0  0  0  0  0  0  0  0  0  0  0
  -23.2463   -4.0599   24.0334 C   0  0  0  0  0  0  0  0  0  0  0  0
  -21.4992   -5.7043   23.7492 C   0  0  0  0  0  0  0  0  0  0  0  0
  -24.5402  -11.6591   20.7229 C   0  0  0  0  0  0  0  0  0  0  0  0
  -29.1100  -18.3603   20.7576 C   0  0  0  0  0  0  0  0  0  0  0  0
  -27.2022  -19.1492   21.7655 C   0  0  0  0  0  0  0  0  0  0  0  0
  -25.2381  -13.7275   20.4590 C   0  0  0  0  0  0  0  0  0  0  0  0
  -22.8623  -13.5453   21.2147 C   0  0  0  0  0  0  0  0  0  0  0  0
  -26.9972  -28.6749   23.1070 C   0  0  0  0  0  0  0  0  0  0  0  0
  -26.6406  -27.1097   25.9257 C   0  0  0  0  0  0  0  0  0  0  0  0
  -25.6862  -24.2715   27.5630 C   0  0  0  0  0  0  0  0  0  0  0  0
  -30.7331  -14.6726   20.6974 C   0  0  0  0  0  0  0  0  0  0  0  0
  -27.6206  -33.5004   21.5630 C   0  0  0  0  0  0  0  0  0  0  0  0
  -24.6041  -27.8974   22.9515 C   0  0  0  0  0  0  0  0  0  0  0  0
  -26.4090  -25.7255   23.8290 C   0  0  0  0  0  0  0  0  0  0  0  0
  -27.9152  -32.7156   22.8387 C   0  0  0  0  0  0  0  0  0  0  0  0
  -29.5923  -12.2505   18.3504 C   0  0  0  0  0  0  0  0  0  0  0  0
  -28.6436  -31.4163   22.5101 C   0  0  0  0  0  0  0  0  0  0  0  0
  -28.1452  -11.9872   18.7706 C   0  0  0  0  0  0  0  0  0  0  0  0
  -30.4968  -12.4857   19.5581 C   0  0  0  0  0  0  0  0  0  0  0  0
  -28.5879  -13.2752   20.9022 C   0  0  0  0  0  0  0  0  0  0  0  0
  -27.7823  -30.5104   21.6219 C   0  0  1  0  0  0  0  0  0  0  0  0
  -25.8007  -28.1651   23.8593 C   0  0  1  0  0  0  0  0  0  0  0  0
  -27.6268  -13.0876   19.7160 C   0  0  2  0  0  0  0  0  0  0  0  0
  -26.9190  -20.5383   25.3565 C   0  0  0  0  0  0  0  0  0  0  0  0
  -31.4276  -19.2082   21.2411 C   0  0  0  0  0  0  0  0  0  0  0  0
  -25.5466  -23.2763   29.8624 C   0  0  0  0  0  0  0  0  0  0  0  0
  -29.6552  -26.6390   25.9024 C   0  0  0  0  0  0  0  0  0  0  0  0
  -29.3240  -24.8810   27.6540 C   0  0  0  0  0  0  0  0  0  0  0  0
  -28.7121  -27.2507   28.1364 C   0  0  0  0  0  0  0  0  0  0  0  0
  -22.7469  -23.9766   27.3831 C   0  0  0  0  0  0  0  0  0  0  0  0
  -25.0186  -19.4321   20.5137 C   0  0  0  0  0  0  0  0  0  0  0  0
  -26.5521  -19.6539   23.0119 C   0  0  0  0  0  0  0  0  0  0  0  0
  -27.5803  -19.9931   24.1006 C   0  0  0  0  0  0  0  0  0  0  0  0
  -24.7716  -20.7805   19.8339 C   0  0  0  0  0  0  0  0  0  0  0  0
  -30.8140  -16.8498   21.8859 C   0  0  0  0  0  0  0  0  0  0  0  0
  -25.3809  -21.9572   20.5874 C   0  0  0  0  0  0  0  0  0  1  0  0
  -30.5515  -17.9923   20.8755 C   0  0  1  0  0  0  0  0  0  0  0  0
  -27.2723  -25.8948   26.5614 C   0  0  1  0  0  0  0  0  0  0  0  0
  -24.8119  -24.0597   28.7858 C   0  0  2  0  0  0  0  0  0  0  0  0
  -28.7273  -26.1647   27.0386 C   0  0  0  0  0  0  0  0  0  0  0  0
  -25.8089  -11.5357   20.3239 N   0  0  0  0  0  0  0  0  0  0  0  0
  -28.5075  -18.8160   21.8787 N   0  0  0  0  0  0  0  0  0  0  0  0
  -26.2060  -12.8106   20.1715 N   0  0  0  0  0  0  0  0  0  0  0  0
  -26.2327  -26.9727   24.5912 N   0  0  0  0  0  0  0  0  0  0  0  0
  -29.9497  -13.5419   20.4131 N   0  0  0  0  0  0  0  0  0  0  0  0
  -25.4687  -15.0538   20.3586 N   0  0  0  0  0  0  0  0  0  0  0  0
  -21.8330  -12.6586   21.5590 N   0  0  0  0  0  0  0  0  0  0  0  0
  -26.7671  -29.8464   22.4111 N   0  0  0  0  0  0  0  0  0  0  0  0
  -26.3647  -25.4704   27.6218 N   0  0  0  0  0  0  0  0  0  0  0  0
  -30.1366  -15.6289   21.5101 N   0  0  0  0  0  0  0  0  0  0  0  0
  -23.5786  -23.3086   28.4170 N   0  3  0  0  0  0  0  0  0  0  0  0
  -22.6432  -14.7802   21.2410 O   0  0  0  0  0  0  0  0  0  0  0  0
  -28.0517  -28.0525   23.1556 O   0  0  0  0  0  0  0  0  0  0  0  0
  -26.5071  -28.1398   26.5909 O   0  0  0  0  0  0  0  0  0  0  0  0
  -25.7627  -23.4534   26.6490 O   0  0  0  0  0  0  0  0  0  0  0  0
  -31.8773  -14.8215   20.2551 O   0  0  0  0  0  0  0  0  0  0  0  0
  -21.4778   -7.1038   21.7897 O   0  0  0  0  0  0  0  0  0  0  0  0
  -25.0771  -23.1598   19.8818 O   0  0  0  0  0  0  0  0  0  1  0  0
  -23.8132   -3.0820   24.7520 F   0  0  0  0  0  0  0  0  0  0  0  0
  -20.3880   -6.3022   24.2006 F   0  0  0  0  0  0  0  0  0  0  0  0
  1  2  1  0  0  0  0
  1  5  2  0  0  0  0
  2  6  2  0  0  0  0
  3  9  2  0  0  0  0
  3 17  1  0  0  0  0
  4 10  1  0  0  0  0
  4 17  2  0  0  0  0
  5 19  1  0  0  0  0
  6 21  1  0  0  0  0
  7 11  2  0  0  0  0
  7 20  1  0  0  0  0
  8 14  2  0  0  0  0
  8 23  1  0  0  0  0
  9 24  1  0  0  0  0
 10 24  2  0  0  0  0
 11 25  1  0  0  0  0
 12 13  2  0  0  0  0
 12 26  1  0  0  0  0
 13 27  1  0  0  0  0
 14 30  1  0  0  0  0
 15 22  1  0  0  0  0
 15 25  2  0  0  0  0
 16 27  2  0  0  0  0
 16 28  1  0  0  0  0
 17 29  1  0  0  0  0
 18 29  1  0  0  0  0
 18 32  2  0  0  0  0
 18 33  1  0  0  0  0
 19 21  2  0  0  0  0
 19 38  1  0  0  0  0
 20 22  2  0  0  0  0
 20 39  1  0  0  0  0
 21 47  1  0  0  0  0
 22 40  1  0  0  0  0
 23 31  2  0  0  0  0
 23 57  1  0  0  0  0
 24 83  1  0  0  0  0
 25 84  1  0  0  0  0
 26 28  2  0  0  0  0
 26 83  1  0  0  0  0
 27 85  1  0  0  0  0
 28 86  1  0  0  0  0
 29 67  2  0  0  0  0
 30 63  1  0  0  0  0
 30 68  2  0  0  0  0
 31 58  1  0  0  0  0
 31 68  1  0  0  0  0
 32 69  1  0  0  0  0
 32 72  1  0  0  0  0
 33 73  1  0  0  0  0
 33 78  2  0  0  0  0
 34 48  1  0  0  0  0
 34 74  1  0  0  0  0
 34 79  2  0  0  0  0
 35 64  1  0  0  0  0
 35 70  1  0  0  0  0
 35 80  2  0  0  0  0
 36 65  1  0  0  0  0
 36 75  1  0  0  0  0
 36 81  2  0  0  0  0
 37 71  1  0  0  0  0
 37 76  1  0  0  0  0
 37 82  2  0  0  0  0
 38 41  1  0  0  0  0
 39 48  1  0  0  0  0
 40 70  1  0  0  0  0
 41 43  1  0  0  0  0
 42 44  1  0  0  0  0
 42 45  1  0  0  0  0
 43 47  1  0  0  0  0
 44 49  1  0  0  0  0
 45 71  1  0  0  0  0
 46 49  1  0  0  0  0
 46 71  1  0  0  0  0
 47 74  1  0  0  0  0
 48 70  1  0  0  0  0
 49 69  1  0  0  0  0
 50 59  1  0  0  0  0
 51 63  1  0  0  0  0
 52 65  1  0  0  0  0
 53 66  1  0  0  0  0
 54 66  1  0  0  0  0
 55 66  1  0  0  0  0
 56 77  1  0  0  0  0
 57 60  1  0  0  0  0
 58 59  1  0  0  0  0
 60 62  1  0  0  0  0
 61 63  1  0  0  0  0
 61 76  1  0  0  0  0
 62 84  1  0  0  0  0
 64 66  1  0  0  0  0
 64 75  1  0  0  0  0
 65 77  1  0  0  0  0
 67 69  1  0  0  0  0
M  CHG  1  77   1
M  ISO  4  37 100  62 101  76 100  84 101
M  END
> <Batch ID>
0084

> <Smiles>
CCCc1nc(C(C)C[100NH:0][100C:0](=O)N2CCCC(n3nc(-c4ccc(Oc5ccc(F)cc5F)cc4)c(C(N)=O)c3N)C2)ccc1CC[101CH2:1][101O:1]c1ccc2c(c1)CN(C(=O)C(NC(=O)C(C)NC)C(C)(C)C)C(C(=O)NC1CCCc3ccccc31)C2

> <Shape>
0.230

> <Color>
0.193

> <Negative vol penalty>
0.000

$$$$

  -OEChem-04052318543D

 89 97  0     1  0  0  0  0  0999 V2000
  -24.7336  -36.5587   23.2449 C   0  0  0  0  0  0  0  0  0  0  0  0
  -25.5646  -35.5122   22.8579 C   0  0  0  0  0  0  0  0  0  0  0  0
  -24.9617  -14.2927   21.8784 C   0  0  0  0  0  0  0  0  0  0  0  0
  -26.0948  -14.5206   19.7568 C   0  0  0  0  0  0  0  0  0  0  0  0
  -23.5142  -36.2868   23.8637 C   0  0  0  0  0  0  0  0  0  0  0  0
  -25.1771  -34.1931   23.0906 C   0  0  0  0  0  0  0  0  0  0  0  0
  -26.3366  -29.3356   19.5457 C   0  0  0  0  0  0  0  0  0  0  0  0
  -25.0189  -12.9041   21.7598 C   0  0  0  0  0  0  0  0  0  0  0  0
  -26.1520  -13.1320   19.6382 C   0  0  0  0  0  0  0  0  0  0  0  0
  -27.3064  -28.3362   19.6119 C   0  0  0  0  0  0  0  0  0  0  0  0
  -23.3531  -10.4757   20.1009 C   0  0  0  0  0  0  0  0  0  0  0  0
  -22.1989   -9.7523   20.4009 C   0  0  0  0  0  0  0  0  0  0  0  0
  -25.7401  -26.9004   20.7540 C   0  0  0  0  0  0  0  0  0  0  0  0
  -29.9385  -22.3074   21.2422 C   0  0  0  0  0  0  0  0  0  0  0  0
  -29.7782  -23.8259   19.3840 C   0  0  0  0  0  0  0  0  0  0  0  0
  -23.3889   -8.5761   22.1437 C   0  0  0  0  0  0  0  0  0  0  0  0
  -25.4996  -15.1010   20.8768 C   0  0  0  0  0  0  0  0  0  0  0  0
  -26.3953  -17.3779   21.5987 C   0  0  0  0  0  0  0  0  0  0  0  0
  -23.1071  -34.9634   24.0953 C   0  0  0  0  0  0  0  0  0  0  0  0
  -25.0626  -29.1286   20.0937 C   0  0  0  0  0  0  0  0  0  0  0  0
  -23.9516  -33.9032   23.7143 C   0  0  0  0  0  0  0  0  0  0  0  0
  -24.7551  -27.8979   20.6912 C   0  0  0  0  0  0  0  0  0  0  0  0
  -29.6803  -23.5817   20.7493 C   0  0  0  0  0  0  0  0  0  0  0  0
  -25.6140  -12.3237   20.6398 C   0  0  0  0  0  0  0  0  0  0  0  0
  -27.0092  -27.1194   20.2187 C   0  0  0  0  0  0  0  0  0  0  0  0
  -24.5253  -10.2492   20.8223 C   0  0  0  0  0  0  0  0  0  0  0  0
  -22.2167   -8.8025   21.4223 C   0  0  0  0  0  0  0  0  0  0  0  0
  -24.5432   -9.2995   21.8437 C   0  0  0  0  0  0  0  0  0  0  0  0
  -25.4403  -16.5355   20.9985 C   0  0  0  0  0  0  0  0  0  0  0  0
  -30.2879  -21.3198   20.3355 C   0  0  0  0  0  0  0  0  0  0  0  0
  -30.1351  -22.7703   18.5605 C   0  0  0  0  0  0  0  0  0  0  0  0
  -25.8762  -18.6416   21.4562 C   0  0  0  0  0  0  0  0  0  0  0  0
  -27.6402  -17.0478   22.2286 C   0  0  0  0  0  0  0  0  0  0  0  0
  -23.3671  -30.4965   22.4085 C   0  0  0  0  0  0  0  0  0  0  0  0
  -21.0361  -28.5082   21.3428 C   0  0  0  0  0  0  0  0  0  0  0  0
  -20.2073  -25.6270   19.7123 C   0  0  0  0  0  0  0  0  0  0  0  0
  -23.3667  -22.5521   18.3651 C   0  0  0  0  0  0  0  0  0  0  0  0
  -21.8016  -34.7200   24.8102 C   0  0  0  0  0  0  0  0  0  0  0  0
  -24.0191  -30.2070   19.9904 C   0  0  0  0  0  0  0  0  0  0  0  0
  -23.3959  -27.6182   21.2766 C   0  0  0  0  0  0  0  0  0  0  0  0
  -21.2952  -33.2857   24.6821 C   0  0  0  0  0  0  0  0  0  0  0  0
  -21.2816  -20.1675   19.9907 C   0  0  0  0  0  0  0  0  0  0  0  0
  -22.4239  -32.2951   24.9496 C   0  0  0  0  0  0  0  0  0  0  0  0
  -22.2553  -19.0773   20.4414 C   0  0  0  0  0  0  0  0  0  0  0  0
  -21.6811  -20.7578   18.6402 C   0  0  0  0  0  0  0  0  0  0  0  0
  -24.0425  -20.1616   19.0171 C   0  0  0  0  0  0  0  0  0  0  0  0
  -23.5550  -32.4584   23.9271 C   0  0  1  0  0  0  0  0  0  0  0  0
  -22.9179  -30.0752   21.0379 C   0  0  1  0  0  0  0  0  0  0  0  0
  -23.7126  -19.5751   20.4004 C   0  0  2  0  0  0  0  0  0  0  0  0
  -30.5705  -19.9399   20.8283 C   0  0  0  0  0  0  0  0  0  0  0  0
  -30.3294  -25.8290   21.6766 C   0  0  0  0  0  0  0  0  0  0  0  0
  -18.7369  -23.8945   18.6476 C   0  0  0  0  0  0  0  0  0  0  0  0
  -20.7434  -27.5161   24.2134 C   0  0  0  0  0  0  0  0  0  0  0  0
  -19.4817  -25.5428   23.3289 C   0  0  0  0  0  0  0  0  0  0  0  0
  -18.5826  -27.8460   22.9982 C   0  0  0  0  0  0  0  0  0  0  0  0
  -25.9849  -25.9478   16.5012 C   0  0  0  0  0  0  0  0  0  0  0  0
  -24.2404  -24.3132   15.7929 C   0  0  0  0  0  0  0  0  0  0  0  0
  -20.2566  -27.0216   17.1024 C   0  0  0  0  0  0  0  0  0  0  0  0
  -30.2514  -22.9971   17.0902 C   0  0  0  0  0  0  0  0  0  0  0  0
  -25.1686  -24.2440   18.1414 C   0  0  0  0  0  0  0  0  0  0  0  0
  -28.9547  -22.7588   16.3157 C   0  0  0  0  0  0  0  0  0  0  0  0
  -26.5819  -23.5121   16.1131 C   0  0  0  0  0  0  0  0  0  0  0  0
  -27.8900  -25.2516   21.3983 C   0  0  0  0  0  0  0  0  0  1  0  0
  -29.2915  -24.7034   21.6996 C   0  0  1  0  0  0  0  0  0  0  0  0
  -20.6000  -27.1003   21.6692 C   0  0  1  0  0  0  0  0  0  0  0  0
  -19.1938  -25.3447   18.6180 C   0  0  2  0  0  0  0  0  0  0  0  0
  -19.8783  -27.0070   23.0432 C   0  0  0  0  0  0  0  0  0  0  0  0
  -25.5106  -24.4877   16.6522 C   0  0  0  0  0  0  0  0  0  0  0  0
  -24.3938  -17.2073   20.5112 N   0  0  0  0  0  0  0  0  0  0  0  0
  -30.3933  -21.5191   19.0025 N   0  0  0  0  0  0  0  0  0  0  0  0
  -24.6880  -18.4853   20.8050 N   0  0  0  0  0  0  0  0  0  0  0  0
  -22.4115  -28.7063   21.1565 N   0  0  0  0  0  0  0  0  0  0  0  0
  -23.0734  -21.2124   18.6686 N   0  0  0  0  0  0  0  0  0  0  0  0
  -26.3247  -19.8600   21.8258 N   0  0  0  0  0  0  0  0  0  0  0  0
  -28.0220  -15.7006   22.2886 N   0  0  0  0  0  0  0  0  0  0  0  0
  -23.1919  -31.8422   22.6690 N   0  0  0  0  0  0  0  0  0  0  0  0
  -19.7944  -26.6501   20.5393 N   0  0  0  0  0  0  0  0  0  0  0  0
  -24.7104  -22.9014   18.4215 N   0  0  0  0  0  0  0  0  0  0  0  0
  -19.7858  -25.6237   17.2791 N   0  3  0  0  0  0  0  0  0  0  0  0
  -27.8744  -23.6295   16.8415 N   0  3  0  0  0  0  0  0  0  0  0  0
  -28.3840  -17.9200   22.7380 O   0  0  0  0  0  0  0  0  0  0  0  0
  -23.8364  -29.6621   23.1735 O   0  0  0  0  0  0  0  0  0  0  0  0
  -20.1868  -29.3980   21.2493 O   0  0  0  0  0  0  0  0  0  0  0  0
  -21.2583  -24.9999   19.8246 O   0  0  0  0  0  0  0  0  0  0  0  0
  -22.4951  -23.3772   18.0711 O   0  0  0  0  0  0  0  0  0  0  0  0
  -25.6702  -10.9688   20.5238 O   0  0  0  0  0  0  0  0  0  0  0  0
  -27.9541  -26.1425   20.2853 O   0  0  0  0  0  0  0  0  0  1  0  0
  -21.1078   -8.1090   21.7112 F   0  0  0  0  0  0  0  0  0  0  0  0
  -25.6660   -9.0784   22.5410 F   0  0  0  0  0  0  0  0  0  0  0  0
  1  2  1  0  0  0  0
  1  5  2  0  0  0  0
  2  6  2  0  0  0  0
  3  8  2  0  0  0  0
  3 17  1  0  0  0  0
  4  9  1  0  0  0  0
  4 17  2  0  0  0  0
  5 19  1  0  0  0  0
  6 21  1  0  0  0  0
  7 10  2  0  0  0  0
  7 20  1  0  0  0  0
  8 24  1  0  0  0  0
  9 24  2  0  0  0  0
 10 25  1  0  0  0  0
 11 12  2  0  0  0  0
 11 26  1  0  0  0  0
 12 27  1  0  0  0  0
 13 22  1  0  0  0  0
 13 25  2  0  0  0  0
 14 23  1  0  0  0  0
 14 30  2  0  0  0  0
 15 23  2  0  0  0  0
 15 31  1  0  0  0  0
 16 27  2  0  0  0  0
 16 28  1  0  0  0  0
 17 29  1  0  0  0  0
 18 29  1  0  0  0  0
 18 32  2  0  0  0  0
 18 33  1  0  0  0  0
 19 21  2  0  0  0  0
 19 38  1  0  0  0  0
 20 22  2  0  0  0  0
 20 39  1  0  0  0  0
 21 47  1  0  0  0  0
 22 40  1  0  0  0  0
 23 64  1  0  0  0  0
 24 86  1  0  0  0  0
 25 87  1  0  0  0  0
 26 28  2  0  0  0  0
 26 86  1  0  0  0  0
 27 88  1  0  0  0  0
 28 89  1  0  0  0  0
 29 69  2  0  0  0  0
 30 50  1  0  0  0  0
 30 70  1  0  0  0  0
 31 59  1  0  0  0  0
 31 70  2  0  0  0  0
 32 71  1  0  0  0  0
 32 74  1  0  0  0  0
 33 75  1  0  0  0  0
 33 81  2  0  0  0  0
 34 48  1  0  0  0  0
 34 76  1  0  0  0  0
 34 82  2  0  0  0  0
 35 65  1  0  0  0  0
 35 72  1  0  0  0  0
 35 83  2  0  0  0  0
 36 66  1  0  0  0  0
 36 77  1  0  0  0  0
 36 84  2  0  0  0  0
 37 73  1  0  0  0  0
 37 78  1  0  0  0  0
 37 85  2  0  0  0  0
 38 41  1  0  0  0  0
 39 48  1  0  0  0  0
 40 72  1  0  0  0  0
 41 43  1  0  0  0  0
 42 44  1  0  0  0  0
 42 45  1  0  0  0  0
 43 47  1  0  0  0  0
 44 49  1  0  0  0  0
 45 73  1  0  0  0  0
 46 49  1  0  0  0  0
 46 73  1  0  0  0  0
 47 76  1  0  0  0  0
 48 72  1  0  0  0  0
 49 71  1  0  0  0  0
 51 64  1  0  0  0  0
 52 66  1  0  0  0  0
 53 67  1  0  0  0  0
 54 67  1  0  0  0  0
 55 67  1  0  0  0  0
 56 68  1  0  0  0  0
 57 68  1  0  0  0  0
 58 79  1  0  0  0  0
 59 61  1  0  0  0  0
 60 68  1  0  0  0  0
 60 78  1  0  0  0  0
 61 80  1  0  0  0  0
 62 68  1  0  0  0  0
 62 80  1  0  0  0  0
 63 64  1  0  0  0  0
 63 87  1  0  0  0  0
 65 67  1  0  0  0  0
 65 77  1  0  0  0  0
 66 79  1  0  0  0  0
 69 71  1  0  0  0  0
M  CHG  2  79   1  80   1
M  ISO  4  37 100  63 101  78 100  87 101
M  END
> <Batch ID>
0084

> <Smiles>
CNC(C)C(=O)NC(C(=O)N1Cc2cc([101O:1][101CH2:1]C(C)c3cc(C)nc(CCNCC(C)(C)C[100NH:0][100C:0](=O)N4CCCC(n5nc(-c6ccc(Oc7ccc(F)cc7F)cc6)c(C(N)=O)c5N)C4)c3)ccc2CC1C(=O)NC1CCCc2ccccc21)C(C)(C)C

> <Shape>
0.264

> <Color>
0.069

> <Negative vol penalty>
0.000

$$$$

  -OEChem-04052318543D

 86 94  0     1  0  0  0  0  0999 V2000
  -23.8379   -8.2745   21.8387 C   0  0  0  0  0  0  0  0  0  0  0  0
  -24.3990   -9.2075   20.9727 C   0  0  0  0  0  0  0  0  0  0  0  0
  -22.7955  -29.2146   21.2199 C   0  0  0  0  0  0  0  0  0  0  0  0
  -23.9433  -28.4880   23.2177 C   0  0  0  0  0  0  0  0  0  0  0  0
  -22.6459   -8.5675   22.5000 C   0  0  0  0  0  0  0  0  0  0  0  0
  -23.7679  -10.4337   20.7667 C   0  0  0  0  0  0  0  0  0  0  0  0
  -27.0047  -14.3269   20.8744 C   0  0  0  0  0  0  0  0  0  0  0  0
  -21.6588  -29.4994   21.9765 C   0  0  0  0  0  0  0  0  0  0  0  0
  -22.8066  -28.7728   23.9744 C   0  0  0  0  0  0  0  0  0  0  0  0
  -27.7794  -14.5425   19.7355 C   0  0  0  0  0  0  0  0  0  0  0  0
  -19.0975  -27.7855   23.3647 C   0  0  0  0  0  0  0  0  0  0  0  0
  -17.8650  -27.3657   22.8645 C   0  0  0  0  0  0  0  0  0  0  0  0
  -26.2709  -16.2950   19.0483 C   0  0  0  0  0  0  0  0  0  0  0  0
  -30.8128  -19.9023   20.6154 C   0  0  0  0  0  0  0  0  0  0  0  0
  -31.4266  -19.3277   18.3621 C   0  0  0  0  0  0  0  0  0  0  0  0
  -17.0995  -29.6569   22.8276 C   0  0  0  0  0  0  0  0  0  0  0  0
  -23.9377  -28.7089   21.8405 C   0  0  0  0  0  0  0  0  0  0  0  0
  -26.1776  -29.2853   20.7643 C   0  0  0  0  0  0  0  0  0  0  0  0
  -22.0049   -9.8017   22.3094 C   0  0  0  0  0  0  0  0  0  0  0  0
  -25.8492  -15.0876   21.1036 C   0  0  0  0  0  0  0  0  0  0  0  0
  -22.5656  -10.7430   21.4250 C   0  0  0  0  0  0  0  0  0  0  0  0
  -25.4846  -16.0888   20.1921 C   0  0  0  0  0  0  0  0  0  0  0  0
  -31.4467  -20.2280   19.4215 C   0  0  0  0  0  0  0  0  0  0  0  0
  -21.6644  -29.2785   23.3537 C   0  0  0  0  0  0  0  0  0  0  0  0
  -27.4110  -15.5246   18.8208 C   0  0  0  0  0  0  0  0  0  0  0  0
  -19.3310  -29.1411   23.5965 C   0  0  0  0  0  0  0  0  0  0  0  0
  -16.8660  -28.3013   22.5959 C   0  0  0  0  0  0  0  0  0  0  0  0
  -18.3320  -30.0768   23.3279 C   0  0  0  0  0  0  0  0  0  0  0  0
  -25.1120  -28.4140   21.0594 C   0  0  0  0  0  0  0  0  0  0  0  0
  -30.1780  -18.6735   20.6984 C   0  0  0  0  0  0  0  0  0  0  0  0
  -30.7645  -18.1246   18.5460 C   0  0  0  0  0  0  0  0  0  0  0  0
  -27.0347  -28.5328   19.9991 C   0  0  0  0  0  0  0  0  0  0  0  0
  -26.3751  -30.6527   21.1476 C   0  0  0  0  0  0  0  0  0  0  0  0
  -22.7512  -14.4331   21.3817 C   0  0  0  0  0  0  0  0  0  0  0  0
  -22.5532  -17.5796   22.1447 C   0  0  0  0  0  0  0  0  0  0  0  0
  -23.9108  -20.7034   21.9317 C   0  0  0  0  0  0  0  0  0  0  0  0
  -29.7933  -23.8895   19.1178 C   0  0  0  0  0  0  0  0  0  0  0  0
  -20.6934  -10.0545   23.0099 C   0  0  0  0  0  0  0  0  0  0  0  0
  -25.0390  -14.8609   22.3505 C   0  0  0  0  0  0  0  0  0  0  0  0
  -24.2645  -16.9465   20.4023 C   0  0  0  0  0  0  0  0  0  0  0  0
  -20.2841  -11.5250   23.0245 C   0  0  0  0  0  0  0  0  0  0  0  0
  -26.4085  -24.0001   17.8418 C   0  0  0  0  0  0  0  0  0  0  0  0
  -20.4572  -12.1410   21.6398 C   0  0  0  0  0  0  0  0  0  0  0  0
  -25.8576  -25.2402   18.5481 C   0  0  0  0  0  0  0  0  0  0  0  0
  -27.3431  -23.2129   18.7556 C   0  0  0  0  0  0  0  0  0  0  0  0
  -27.9259  -25.2474   20.0184 C   0  0  0  0  0  0  0  0  0  0  0  0
  -21.9238  -12.0940   21.1945 C   0  0  1  0  0  0  0  0  0  0  0  0
  -23.5981  -15.3455   22.2231 C   0  0  1  0  0  0  0  0  0  0  0  0
  -26.9916  -26.0985   19.1393 C   0  0  2  0  0  0  0  0  0  0  0  0
  -29.7238  -17.1932   24.2351 C   0  0  0  0  0  0  0  0  0  0  0  0
  -33.6595  -21.3617   19.0444 C   0  0  0  0  0  0  0  0  0  0  0  0
  -23.5013  -23.0807   22.6235 C   0  0  0  0  0  0  0  0  0  0  0  0
  -20.4343  -17.8463   19.9654 C   0  0  0  0  0  0  0  0  0  0  0  0
  -20.7593  -20.3273   20.0502 C   0  0  0  0  0  0  0  0  0  0  0  0
  -19.9356  -19.1095   22.0654 C   0  0  0  0  0  0  0  0  0  0  0  0
  -26.4112  -20.7962   23.5124 C   0  0  0  0  0  0  0  0  0  0  0  0
  -29.4859  -18.2909   21.9639 C   0  0  0  0  0  0  0  0  0  0  0  0
  -30.7241  -17.1236   17.4191 C   0  0  0  0  0  0  0  0  0  0  0  0
  -30.4214  -17.5522   22.9326 C   0  0  0  0  0  0  0  0  0  0  0  0
  -29.5224  -17.2935   16.4871 C   0  0  0  0  0  0  0  0  0  0  0  0
  -31.5555  -22.4300   18.1576 C   0  0  0  0  0  0  0  0  0  0  0  0
  -28.1842  -17.0619   17.1792 C   0  0  0  0  0  0  0  0  0  1  0  0
  -32.1443  -21.5380   19.2775 C   0  0  1  0  0  0  0  0  0  0  0  0
  -22.3524  -18.8577   21.3669 C   0  0  1  0  0  0  0  0  0  0  0  0
  -24.1691  -21.7636   22.9871 C   0  0  2  0  0  0  0  0  0  0  0  0
  -20.8924  -19.0179   20.8567 C   0  0  0  0  0  0  0  0  0  0  0  0
  -25.2750  -27.2007   20.5251 N   0  0  0  0  0  0  0  0  0  0  0  0
  -30.1373  -17.7730   19.6909 N   0  0  0  0  0  0  0  0  0  0  0  0
  -26.4529  -27.3044   19.8865 N   0  0  0  0  0  0  0  0  0  0  0  0
  -23.5013  -16.6823   21.6333 N   0  0  0  0  0  0  0  0  0  0  0  0
  -28.4103  -24.0829   19.2697 N   0  0  0  0  0  0  0  0  0  0  0  0
  -28.2217  -28.8086   19.4183 N   0  0  0  0  0  0  0  0  0  0  0  0
  -25.3961  -31.2739   21.9351 N   0  0  0  0  0  0  0  0  0  0  0  0
  -22.6851  -13.1351   21.8510 N   0  0  0  0  0  0  0  0  0  0  0  0
  -22.8039  -19.9394   22.2355 N   0  0  0  0  0  0  0  0  0  0  0  0
  -30.1688  -22.7594   18.4018 N   0  0  0  0  0  0  0  0  0  0  0  0
  -25.6327  -22.0033   23.1332 N   0  3  0  0  0  0  0  0  0  0  0  0
  -27.3817  -31.3094   20.7884 O   0  0  0  0  0  0  0  0  0  0  0  0
  -22.1974  -14.8744   20.3816 O   0  0  0  0  0  0  0  0  0  0  0  0
  -21.8982  -17.3878   23.1723 O   0  0  0  0  0  0  0  0  0  0  0  0
  -24.6179  -20.5691   20.9355 O   0  0  0  0  0  0  0  0  0  0  0  0
  -30.6322  -24.6695   19.5814 O   0  0  0  0  0  0  0  0  0  0  0  0
  -20.5555  -29.5564   24.0924 O   0  0  0  0  0  0  0  0  0  0  0  0
  -28.1651  -15.7367   17.7080 O   0  0  0  0  0  0  0  0  0  1  0  0
  -15.6830  -27.8981   22.1141 F   0  0  0  0  0  0  0  0  0  0  0  0
  -18.5509  -31.3805   23.5474 F   0  0  0  0  0  0  0  0  0  0  0  0
  1  2  1  0  0  0  0
  1  5  2  0  0  0  0
  2  6  2  0  0  0  0
  3  8  2  0  0  0  0
  3 17  1  0  0  0  0
  4  9  1  0  0  0  0
  4 17  2  0  0  0  0
  5 19  1  0  0  0  0
  6 21  1  0  0  0  0
  7 10  2  0  0  0  0
  7 20  1  0  0  0  0
  8 24  1  0  0  0  0
  9 24  2  0  0  0  0
 10 25  1  0  0  0  0
 11 12  2  0  0  0  0
 11 26  1  0  0  0  0
 12 27  1  0  0  0  0
 13 22  1  0  0  0  0
 13 25  2  0  0  0  0
 14 23  2  0  0  0  0
 14 30  1  0  0  0  0
 15 23  1  0  0  0  0
 15 31  2  0  0  0  0
 16 27  2  0  0  0  0
 16 28  1  0  0  0  0
 17 29  1  0  0  0  0
 18 29  1  0  0  0  0
 18 32  2  0  0  0  0
 18 33  1  0  0  0  0
 19 21  2  0  0  0  0
 19 38  1  0  0  0  0
 20 22  2  0  0  0  0
 20 39  1  0  0  0  0
 21 47  1  0  0  0  0
 22 40  1  0  0  0  0
 23 63  1  0  0  0  0
 24 83  1  0  0  0  0
 25 84  1  0  0  0  0
 26 28  2  0  0  0  0
 26 83  1  0  0  0  0
 27 85  1  0  0  0  0
 28 86  1  0  0  0  0
 29 67  2  0  0  0  0
 30 57  1  0  0  0  0
 30 68  2  0  0  0  0
 31 58  1  0  0  0  0
 31 68  1  0  0  0  0
 32 69  1  0  0  0  0
 32 72  1  0  0  0  0
 33 73  1  0  0  0  0
 33 78  2  0  0  0  0
 34 48  1  0  0  0  0
 34 74  1  0  0  0  0
 34 79  2  0  0  0  0
 35 64  1  0  0  0  0
 35 70  1  0  0  0  0
 35 80  2  0  0  0  0
 36 65  1  0  0  0  0
 36 75  1  0  0  0  0
 36 81  2  0  0  0  0
 37 71  1  0  0  0  0
 37 76  1  0  0  0  0
 37 82  2  0  0  0  0
 38 41  1  0  0  0  0
 39 48  1  0  0  0  0
 40 70  1  0  0  0  0
 41 43  1  0  0  0  0
 42 44  1  0  0  0  0
 42 45  1  0  0  0  0
 43 47  1  0  0  0  0
 44 49  1  0  0  0  0
 45 71  1  0  0  0  0
 46 49  1  0  0  0  0
 46 71  1  0  0  0  0
 47 74  1  0  0  0  0
 48 70  1  0  0  0  0
 49 69  1  0  0  0  0
 50 59  1  0  0  0  0
 51 63  1  0  0  0  0
 52 65  1  0  0  0  0
 53 66  1  0  0  0  0
 54 66  1  0  0  0  0
 55 66  1  0  0  0  0
 56 77  1  0  0  0  0
 57 59  1  0  0  0  0
 58 60  1  0  0  0  0
 60 62  1  0  0  0  0
 61 63  1  0  0  0  0
 61 76  1  0  0  0  0
 62 84  1  0  0  0  0
 64 66  1  0  0  0  0
 64 75  1  0  0  0  0
 65 77  1  0  0  0  0
 67 69  1  0  0  0  0
M  CHG  1  77   1
M  ISO  4  37 100  62 101  76 100  84 101
M  END
> <Batch ID>
0084

> <Smiles>
CCCc1cc(C(C)C[100NH:0][100C:0](=O)N2CCCC(n3nc(-c4ccc(Oc5ccc(F)cc5F)cc4)c(C(N)=O)c3N)C2)cc(CC[101CH2:1][101O:1]c2ccc3c(c2)CN(C(=O)C(NC(=O)C(C)NC)C(C)(C)C)C(C(=O)NC2CCCc4ccccc42)C3)n1

> <Shape>
0.254

> <Color>
0.099

> <Negative vol penalty>
0.000

$$$$

  -OEChem-04052318543D

 85 93  0     1  0  0  0  0  0999 V2000
  -34.6231   -6.7667   29.4211 C   0  0  0  0  0  0  0  0  0  0  0  0
  -34.4706   -8.1475   29.4962 C   0  0  0  0  0  0  0  0  0  0  0  0
  -23.1893   -9.8194   19.9319 C   0  0  0  0  0  0  0  0  0  0  0  0
  -23.5683   -9.9999   22.3112 C   0  0  0  0  0  0  0  0  0  0  0  0
  -33.7581   -6.0131   28.6287 C   0  0  0  0  0  0  0  0  0  0  0  0
  -33.4537   -8.7756   28.7781 C   0  0  0  0  0  0  0  0  0  0  0  0
  -28.9783  -14.3563   29.1566 C   0  0  0  0  0  0  0  0  0  0  0  0
  -22.4230   -8.6729   20.1409 C   0  0  0  0  0  0  0  0  0  0  0  0
  -22.8019   -8.8533   22.5202 C   0  0  0  0  0  0  0  0  0  0  0  0
  -28.5705  -15.4623   28.4121 C   0  0  0  0  0  0  0  0  0  0  0  0
  -21.2445   -5.7697   23.6496 C   0  0  0  0  0  0  0  0  0  0  0  0
  -21.7411   -4.8098   24.5315 C   0  0  0  0  0  0  0  0  0  0  0  0
  -27.0863  -14.0501   27.1385 C   0  0  0  0  0  0  0  0  0  0  0  0
  -23.6993   -4.5456   23.1413 C   0  0  0  0  0  0  0  0  0  0  0  0
  -29.8775  -15.4445   24.2306 C   0  0  0  0  0  0  0  0  0  0  0  0
  -23.7621  -10.4829   21.0170 C   0  0  0  0  0  0  0  0  0  0  0  0
  -24.1009  -12.9995   20.7731 C   0  0  0  0  0  0  0  0  0  0  0  0
  -32.7241   -6.6313   27.9081 C   0  0  0  0  0  0  0  0  0  0  0  0
  -28.4504  -13.0849   28.8899 C   0  0  0  0  0  0  0  0  0  0  0  0
  -32.5749   -8.0297   27.9743 C   0  0  0  0  0  0  0  0  0  0  0  0
  -27.4872  -12.9300   27.8827 C   0  0  0  0  0  0  0  0  0  0  0  0
  -22.2293   -8.1898   21.4350 C   0  0  0  0  0  0  0  0  0  0  0  0
  -27.6265  -15.3088   27.4010 C   0  0  0  0  0  0  0  0  0  0  0  0
  -21.9753   -6.1174   22.5135 C   0  0  0  0  0  0  0  0  0  0  0  0
  -22.9684   -4.1978   24.2774 C   0  0  0  0  0  0  0  0  0  0  0  0
  -23.2027   -5.5054   22.2594 C   0  0  0  0  0  0  0  0  0  0  0  0
  -24.5543  -11.6671   20.8017 C   0  0  0  0  0  0  0  0  0  0  0  0
  -29.3379  -16.6026   23.7297 C   0  0  0  0  0  0  0  0  0  0  0  0
  -25.2321  -13.7421   20.5375 C   0  0  0  0  0  0  0  0  0  0  0  0
  -22.7758  -13.5196   20.9443 C   0  0  0  0  0  0  0  0  0  0  0  0
  -29.6650  -10.3066   27.9361 C   0  0  0  0  0  0  0  0  0  0  0  0
  -26.6474   -9.2462   28.4760 C   0  0  0  0  0  0  0  0  0  0  0  0
  -23.3235   -9.9748   28.7361 C   0  0  0  0  0  0  0  0  0  0  0  0
  -31.0471  -12.7516   21.5650 C   0  0  0  0  0  0  0  0  0  0  0  0
  -31.8434   -5.7803   27.0278 C   0  0  0  0  0  0  0  0  0  0  0  0
  -28.8809  -11.9066   29.7197 C   0  0  0  0  0  0  0  0  0  0  0  0
  -26.8748  -11.5900   27.5703 C   0  0  0  0  0  0  0  0  0  0  0  0
  -30.5582   -6.4803   26.5933 C   0  0  0  0  0  0  0  0  0  0  0  0
  -29.5189  -13.4690   18.4303 C   0  0  0  0  0  0  0  0  0  0  0  0
  -30.8587   -7.8949   26.1082 C   0  0  0  0  0  0  0  0  0  0  0  0
  -28.0323  -13.2088   18.6800 C   0  0  0  0  0  0  0  0  0  0  0  0
  -30.4003  -12.4796   19.1893 C   0  0  0  0  0  0  0  0  0  0  0  0
  -28.6472  -12.1370   20.8873 C   0  0  0  0  0  0  0  0  0  0  0  0
  -31.4685   -8.7448   27.2296 C   0  0  1  0  0  0  0  0  0  0  0  0
  -28.6580  -10.5695   29.0199 C   0  0  1  0  0  0  0  0  0  0  0  0
  -27.7197  -13.1449   20.1872 C   0  0  2  0  0  0  0  0  0  0  0  0
  -21.0962   -8.8942   29.1470 C   0  0  0  0  0  0  0  0  0  0  0  0
  -26.6587   -8.1463   25.6299 C   0  0  0  0  0  0  0  0  0  0  0  0
  -24.1671   -7.9468   25.7715 C   0  0  0  0  0  0  0  0  0  0  0  0
  -25.6118   -6.6373   27.3273 C   0  0  0  0  0  0  0  0  0  0  0  0
  -33.8160  -16.1359   24.8063 C   0  0  0  0  0  0  0  0  0  0  0  0
  -34.2994  -13.7211   25.1913 C   0  0  0  0  0  0  0  0  0  0  0  0
  -32.4313  -14.8468   26.4151 C   0  0  0  0  0  0  0  0  0  0  0  0
  -22.8607  -11.5873   31.1743 C   0  0  0  0  0  0  0  0  0  0  0  0
  -27.9670  -17.1875   23.9582 C   0  0  0  0  0  0  0  0  0  0  0  0
  -27.8918  -18.1286   25.1624 C   0  0  0  0  0  0  0  0  0  0  0  0
  -31.5380  -13.0028   23.9848 C   0  0  0  0  0  0  0  0  0  0  0  0
  -28.1776  -17.4351   26.4894 C   0  0  0  0  0  0  0  0  0  1  0  0
  -25.3893   -9.1350   27.6491 C   0  0  1  0  0  0  0  0  0  0  0  0
  -22.2879   -9.5961   29.7795 C   0  0  2  0  0  0  0  0  0  0  0  0
  -32.1501  -14.4212   23.8935 C   0  0  2  0  0  0  0  0  0  0  0  0
  -25.4695   -7.9914   26.5988 C   0  0  0  0  0  0  0  0  0  0  0  0
  -33.1654  -14.7547   25.0578 C   0  0  0  0  0  0  0  0  0  0  0  0
  -25.8708  -11.5658   20.6002 N   0  0  0  0  0  0  0  0  0  0  0  0
  -30.2550  -17.2299   22.9330 N   0  0  0  0  0  0  0  0  0  0  0  0
  -31.3590  -16.4909   22.9215 N   0  0  0  0  0  0  0  0  0  0  0  0
  -31.1305  -15.4208   23.6999 N   0  0  0  0  0  0  0  0  0  0  0  0
  -26.2544  -12.8442   20.4426 N   0  0  0  0  0  0  0  0  0  0  0  0
  -27.3328  -10.4672   28.4052 N   0  0  0  0  0  0  0  0  0  0  0  0
  -30.0542  -12.4685   20.6127 N   0  0  0  0  0  0  0  0  0  0  0  0
  -25.4422  -15.0689   20.4041 N   0  0  0  0  0  0  0  0  0  0  0  0
  -21.7291  -12.6174   21.1787 N   0  0  0  0  0  0  0  0  0  0  0  0
  -30.4397   -9.1823   28.1487 N   0  0  0  0  0  0  0  0  0  0  0  0
  -24.2885   -8.9998   28.5968 N   0  0  0  0  0  0  0  0  0  0  0  0
  -30.6333  -12.7263   22.8913 N   0  0  0  0  0  0  0  0  0  0  0  0
  -21.7961  -10.8123   30.4865 N   0  3  0  0  0  0  0  0  0  0  0  0
  -22.5247  -14.7466   20.8747 O   0  0  0  0  0  0  0  0  0  0  0  0
  -29.7332  -11.0668   26.9774 O   0  0  0  0  0  0  0  0  0  0  0  0
  -27.0048   -8.2874   29.1651 O   0  0  0  0  0  0  0  0  0  0  0  0
  -23.2787  -11.0285   28.1050 O   0  0  0  0  0  0  0  0  0  0  0  0
  -32.2146  -13.0131   21.2560 O   0  0  0  0  0  0  0  0  0  0  0  0
  -21.4814   -7.0711   21.6393 O   0  0  0  0  0  0  0  0  0  0  0  0
  -27.2272  -16.3866   26.6724 O   0  0  0  0  0  0  0  0  0  1  0  0
  -23.4459   -3.2772   25.1251 F   0  0  0  0  0  0  0  0  0  0  0  0
  -23.9099   -5.8362   21.1702 F   0  0  0  0  0  0  0  0  0  0  0  0
  1  2  1  0  0  0  0
  1  5  2  0  0  0  0
  2  6  2  0  0  0  0
  3  8  2  0  0  0  0
  3 16  1  0  0  0  0
  4  9  1  0  0  0  0
  4 16  2  0  0  0  0
  5 18  1  0  0  0  0
  6 20  1  0  0  0  0
  7 10  2  0  0  0  0
  7 19  1  0  0  0  0
  8 22  1  0  0  0  0
  9 22  2  0  0  0  0
 10 23  1  0  0  0  0
 11 12  2  0  0  0  0
 11 24  1  0  0  0  0
 12 25  1  0  0  0  0
 13 21  1  0  0  0  0
 13 23  2  0  0  0  0
 14 25  2  0  0  0  0
 14 26  1  0  0  0  0
 15 28  2  0  0  0  0
 15 67  1  0  0  0  0
 16 27  1  0  0  0  0
 17 27  1  0  0  0  0
 17 29  2  0  0  0  0
 17 30  1  0  0  0  0
 18 20  2  0  0  0  0
 18 35  1  0  0  0  0
 19 21  2  0  0  0  0
 19 36  1  0  0  0  0
 20 44  1  0  0  0  0
 21 37  1  0  0  0  0
 22 82  1  0  0  0  0
 23 83  1  0  0  0  0
 24 26  2  0  0  0  0
 24 82  1  0  0  0  0
 25 84  1  0  0  0  0
 26 85  1  0  0  0  0
 27 64  2  0  0  0  0
 28 55  1  0  0  0  0
 28 65  1  0  0  0  0
 29 68  1  0  0  0  0
 29 71  1  0  0  0  0
 30 72  1  0  0  0  0
 30 77  2  0  0  0  0
 31 45  1  0  0  0  0
 31 73  1  0  0  0  0
 31 78  2  0  0  0  0
 32 59  1  0  0  0  0
 32 69  1  0  0  0  0
 32 79  2  0  0  0  0
 33 60  1  0  0  0  0
 33 74  1  0  0  0  0
 33 80  2  0  0  0  0
 34 70  1  0  0  0  0
 34 75  1  0  0  0  0
 34 81  2  0  0  0  0
 35 38  1  0  0  0  0
 36 45  1  0  0  0  0
 37 69  1  0  0  0  0
 38 40  1  0  0  0  0
 39 41  1  0  0  0  0
 39 42  1  0  0  0  0
 40 44  1  0  0  0  0
 41 46  1  0  0  0  0
 42 70  1  0  0  0  0
 43 46  1  0  0  0  0
 43 70  1  0  0  0  0
 44 73  1  0  0  0  0
 45 69  1  0  0  0  0
 46 68  1  0  0  0  0
 47 60  1  0  0  0  0
 48 62  1  0  0  0  0
 49 62  1  0  0  0  0
 50 62  1  0  0  0  0
 51 63  1  0  0  0  0
 52 63  1  0  0  0  0
 53 63  1  0  0  0  0
 54 76  1  0  0  0  0
 55 56  1  0  0  0  0
 56 58  1  0  0  0  0
 57 61  1  0  0  0  0
 57 75  1  0  0  0  0
 58 83  1  0  0  0  0
 59 62  1  0  0  0  0
 59 74  1  0  0  0  0
 60 76  1  0  0  0  0
 61 63  1  0  0  0  0
 61 67  1  0  0  0  0
 64 68  1  0  0  0  0
 65 66  2  0  0  0  0
 66 67  1  0  0  0  0
M  CHG  1  76   1
M  ISO  4  34 100  58 101  75 100  83 101
M  END
> <Batch ID>
0084

> <Smiles>
CNC(C)C(=O)NC(C(=O)N1Cc2cc([101O:1][101CH2:1]CCc3cn(C(C[100NH:0][100C:0](=O)N4CCCC(n5nc(-c6ccc(Oc7ccc(F)cc7F)cc6)c(C(N)=O)c5N)C4)C(C)(C)C)nn3)ccc2CC1C(=O)NC1CCCc2ccccc21)C(C)(C)C

> <Shape>
0.152

> <Color>
0.177

> <Negative vol penalty>
0.000

$$$$

  -OEChem-04052318543D

 87 95  0     1  0  0  0  0  0999 V2000
  -28.1222   -9.1648   21.2740 C   0  0  0  0  0  0  0  0  0  0  0  0
  -28.7159  -10.3805   20.9499 C   0  0  0  0  0  0  0  0  0  0  0  0
  -19.5342  -29.0384   22.5695 C   0  0  0  0  0  0  0  0  0  0  0  0
  -20.3135  -26.7647   22.3237 C   0  0  0  0  0  0  0  0  0  0  0  0
  -26.7329   -9.0625   21.3325 C   0  0  0  0  0  0  0  0  0  0  0  0
  -27.9206  -11.4944   20.6831 C   0  0  0  0  0  0  0  0  0  0  0  0
  -29.1932  -17.3328   22.0245 C   0  0  0  0  0  0  0  0  0  0  0  0
  -18.2432  -28.5697   22.8127 C   0  0  0  0  0  0  0  0  0  0  0  0
  -19.0225  -26.2960   22.5670 C   0  0  0  0  0  0  0  0  0  0  0  0
  -29.7101  -18.3792   21.2619 C   0  0  0  0  0  0  0  0  0  0  0  0
  -15.8614  -24.5134   22.7669 C   0  0  0  0  0  0  0  0  0  0  0  0
  -15.3706  -23.5054   21.9371 C   0  0  0  0  0  0  0  0  0  0  0  0
  -27.4696  -19.1584   20.8233 C   0  0  0  0  0  0  0  0  0  0  0  0
  -15.6368  -24.9531   20.0212 C   0  0  0  0  0  0  0  0  0  0  0  0
  -30.6175  -25.9937   19.3594 C   0  0  0  0  0  0  0  0  0  0  0  0
  -20.5694  -28.1359   22.3249 C   0  0  0  0  0  0  0  0  0  0  0  0
  -22.9128  -28.8627   23.0234 C   0  0  0  0  0  0  0  0  0  0  0  0
  -25.9204  -10.1781   21.0757 C   0  0  0  0  0  0  0  0  0  0  0  0
  -27.8078  -17.1847   22.1835 C   0  0  0  0  0  0  0  0  0  0  0  0
  -26.5192  -11.4066   20.7370 C   0  0  0  0  0  0  0  0  0  0  0  0
  -26.9377  -18.1107   21.5905 C   0  0  0  0  0  0  0  0  0  0  0  0
  -17.9873  -27.1985   22.8115 C   0  0  0  0  0  0  0  0  0  0  0  0
  -28.8482  -19.2905   20.6588 C   0  0  0  0  0  0  0  0  0  0  0  0
  -16.2399  -25.7413   22.2239 C   0  0  0  0  0  0  0  0  0  0  0  0
  -15.2583  -23.7252   20.5642 C   0  0  0  0  0  0  0  0  0  0  0  0
  -16.1276  -25.9611   20.8511 C   0  0  0  0  0  0  0  0  0  0  0  0
  -21.9031  -28.6195   22.0731 C   0  0  0  0  0  0  0  0  0  0  0  0
  -29.9603  -27.1431   19.6970 C   0  0  0  0  0  0  0  0  0  0  0  0
  -23.9808  -29.3078   22.2834 C   0  0  0  0  0  0  0  0  0  0  0  0
  -30.3290  -25.9961   21.5542 C   0  0  0  0  0  0  0  0  0  0  0  0
  -22.8876  -28.7006   24.4478 C   0  0  0  0  0  0  0  0  0  0  0  0
  -25.6892  -14.9422   21.4179 C   0  0  0  0  0  0  0  0  0  0  0  0
  -23.6596  -16.8376   23.0943 C   0  0  0  0  0  0  0  0  0  0  0  0
  -22.9151  -19.9500   24.2800 C   0  0  0  0  0  0  0  0  0  0  0  0
  -27.3206  -28.9078   17.8302 C   0  0  0  0  0  0  0  0  0  0  0  0
  -24.4222  -10.0071   21.1048 C   0  0  0  0  0  0  0  0  0  0  0  0
  -27.2671  -16.0661   23.0313 C   0  0  0  0  0  0  0  0  0  0  0  0
  -25.4433  -18.0077   21.7472 C   0  0  0  0  0  0  0  0  0  0  0  0
  -23.6597  -11.3277   21.1753 C   0  0  0  0  0  0  0  0  0  0  0  0
  -24.2708  -30.7009   17.4294 C   0  0  0  0  0  0  0  0  0  0  0  0
  -24.2216  -12.3232   20.1653 C   0  0  0  0  0  0  0  0  0  0  0  0
  -23.4644  -30.3344   18.6765 C   0  0  0  0  0  0  0  0  0  0  0  0
  -25.0976  -29.5203   16.9248 C   0  0  0  0  0  0  0  0  0  0  0  0
  -25.1693  -28.5355   19.1829 C   0  0  0  0  0  0  0  0  0  0  0  0
  -25.6909  -12.6436   20.4653 C   0  0  1  0  0  0  0  0  0  0  0  0
  -25.8202  -15.7121   22.7015 C   0  0  1  0  0  0  0  0  0  0  0  0
  -24.3625  -29.7105   19.7616 C   0  0  2  0  0  0  0  0  0  0  0  0
  -25.7731  -23.4026   23.1119 C   0  0  0  0  0  0  0  0  0  0  0  0
  -30.1030  -29.6202   19.2442 C   0  0  0  0  0  0  0  0  0  0  0  0
  -21.1701  -21.1959   25.5839 C   0  0  0  0  0  0  0  0  0  0  0  0
  -21.8282  -16.8218   20.6539 C   0  0  0  0  0  0  0  0  0  0  0  0
  -20.6248  -18.7878   21.6310 C   0  0  0  0  0  0  0  0  0  0  0  0
  -20.6454  -16.6099   22.8472 C   0  0  0  0  0  0  0  0  0  0  0  0
  -24.8522  -20.6836   26.3939 C   0  0  0  0  0  0  0  0  0  0  0  0
  -30.3483  -25.6087   22.9868 C   0  0  0  0  0  0  0  0  0  0  0  0
  -26.6762  -24.4725   23.7048 C   0  0  0  0  0  0  0  0  0  0  0  0
  -28.9565  -25.5573   23.6378 C   0  0  0  0  0  0  0  0  0  0  0  0
  -28.0381  -24.5039   23.0101 C   0  0  0  0  0  0  0  0  0  0  0  0
  -30.5777  -22.7817   20.7884 C   0  0  0  0  0  0  0  0  0  0  0  0
  -29.5430  -22.6918   19.6656 C   0  0  0  0  0  0  0  0  0  0  0  0
  -31.5319  -23.9711   20.6313 C   0  0  0  0  0  0  0  0  0  0  0  0
  -28.5920  -21.5208   19.8739 C   0  0  0  0  0  0  0  0  0  1  0  0
  -29.4739  -28.2563   18.8781 C   0  0  2  0  0  0  0  0  0  0  0  0
  -22.7561  -17.9988   22.7562 C   0  0  1  0  0  0  0  0  0  0  0  0
  -22.4804  -20.4271   25.6540 C   0  0  2  0  0  0  0  0  0  0  0  0
  -21.4916  -17.5557   21.9673 C   0  0  0  0  0  0  0  0  0  0  0  0
  -22.2946  -28.8881   20.8246 N   0  0  0  0  0  0  0  0  0  0  0  0
  -30.8333  -25.3035   20.5277 N   0  0  0  0  0  0  0  0  0  0  0  0
  -23.5621  -29.3047   20.9854 N   0  0  0  0  0  0  0  0  0  0  0  0
  -29.7949  -27.1180   21.0609 N   0  3  0  0  0  0  0  0  0  0  0  0
  -24.9629  -16.8931   22.5805 N   0  0  0  0  0  0  0  0  0  0  0  0
  -25.9281  -28.9757   18.0017 N   0  0  0  0  0  0  0  0  0  0  0  0
  -25.2279  -29.6977   22.6229 N   0  0  0  0  0  0  0  0  0  0  0  0
  -21.7096  -28.2330   25.0463 N   0  0  0  0  0  0  0  0  0  0  0  0
  -25.7901  -13.5725   21.5706 N   0  0  0  0  0  0  0  0  0  0  0  0
  -22.4676  -18.6724   24.0178 N   0  0  0  0  0  0  0  0  0  0  0  0
  -28.0338  -28.3845   18.9017 N   0  0  0  0  0  0  0  0  0  0  0  0
  -23.5177  -21.3192   26.2448 N   0  3  0  0  0  0  0  0  0  0  0  0
  -23.8748  -28.9782   25.1701 O   0  0  0  0  0  0  0  0  0  0  0  0
  -25.5083  -15.5459   20.3670 O   0  0  0  0  0  0  0  0  0  0  0  0
  -23.2272  -15.9188   23.7947 O   0  0  0  0  0  0  0  0  0  0  0  0
  -23.5816  -20.6429   23.5144 O   0  0  0  0  0  0  0  0  0  0  0  0
  -27.8868  -29.2905   16.8007 O   0  0  0  0  0  0  0  0  0  0  0  0
  -16.7277  -26.7407   23.0490 O   0  0  0  0  0  0  0  0  0  0  0  0
  -29.3501  -20.3125   19.9134 O   0  0  0  0  0  0  0  0  0  1  0  0
  -14.7884  -22.7566   19.7672 F   0  0  0  0  0  0  0  0  0  0  0  0
  -16.4907  -27.1382   20.3235 F   0  0  0  0  0  0  0  0  0  0  0  0
  1  2  1  0  0  0  0
  1  5  2  0  0  0  0
  2  6  2  0  0  0  0
  3  8  2  0  0  0  0
  3 16  1  0  0  0  0
  4  9  1  0  0  0  0
  4 16  2  0  0  0  0
  5 18  1  0  0  0  0
  6 20  1  0  0  0  0
  7 10  2  0  0  0  0
  7 19  1  0  0  0  0
  8 22  1  0  0  0  0
  9 22  2  0  0  0  0
 10 23  1  0  0  0  0
 11 12  2  0  0  0  0
 11 24  1  0  0  0  0
 12 25  1  0  0  0  0
 13 21  1  0  0  0  0
 13 23  2  0  0  0  0
 14 25  2  0  0  0  0
 14 26  1  0  0  0  0
 15 28  2  0  0  0  0
 15 68  1  0  0  0  0
 16 27  1  0  0  0  0
 17 27  1  0  0  0  0
 17 29  2  0  0  0  0
 17 31  1  0  0  0  0
 18 20  2  0  0  0  0
 18 36  1  0  0  0  0
 19 21  2  0  0  0  0
 19 37  1  0  0  0  0
 20 45  1  0  0  0  0
 21 38  1  0  0  0  0
 22 84  1  0  0  0  0
 23 85  1  0  0  0  0
 24 26  2  0  0  0  0
 24 84  1  0  0  0  0
 25 86  1  0  0  0  0
 26 87  1  0  0  0  0
 27 67  2  0  0  0  0
 28 63  1  0  0  0  0
 28 70  1  0  0  0  0
 29 69  1  0  0  0  0
 29 73  1  0  0  0  0
 30 55  1  0  0  0  0
 30 68  1  0  0  0  0
 30 70  2  0  0  0  0
 31 74  1  0  0  0  0
 31 79  2  0  0  0  0
 32 46  1  0  0  0  0
 32 75  1  0  0  0  0
 32 80  2  0  0  0  0
 33 64  1  0  0  0  0
 33 71  1  0  0  0  0
 33 81  2  0  0  0  0
 34 65  1  0  0  0  0
 34 76  1  0  0  0  0
 34 82  2  0  0  0  0
 35 72  1  0  0  0  0
 35 77  1  0  0  0  0
 35 83  2  0  0  0  0
 36 39  1  0  0  0  0
 37 46  1  0  0  0  0
 38 71  1  0  0  0  0
 39 41  1  0  0  0  0
 40 42  1  0  0  0  0
 40 43  1  0  0  0  0
 41 45  1  0  0  0  0
 42 47  1  0  0  0  0
 43 72  1  0  0  0  0
 44 47  1  0  0  0  0
 44 72  1  0  0  0  0
 45 75  1  0  0  0  0
 46 71  1  0  0  0  0
 47 69  1  0  0  0  0
 48 56  1  0  0  0  0
 49 63  1  0  0  0  0
 50 65  1  0  0  0  0
 51 66  1  0  0  0  0
 52 66  1  0  0  0  0
 53 66  1  0  0  0  0
 54 78  1  0  0  0  0
 55 57  1  0  0  0  0
 56 58  1  0  0  0  0
 57 58  1  0  0  0  0
 59 60  1  0  0  0  0
 59 61  1  0  0  0  0
 60 62  1  0  0  0  0
 61 68  1  0  0  0  0
 62 85  1  0  0  0  0
 63 77  1  0  0  0  0
 64 66  1  0  0  0  0
 64 76  1  0  0  0  0
 65 78  1  0  0  0  0
 67 69  1  0  0  0  0
M  CHG  2  70   1  78   1
M  ISO  4  35 100  62 101  77 100  85 101
M  END
> <Batch ID>
0084

> <Smiles>
CCCCCc1nc(C(C)[100NH:0][100C:0](=O)N2CCCC(n3nc(-c4ccc(Oc5ccc(F)cc5F)cc4)c(C(N)=O)c3N)C2)cn1CCC[101CH2:1][101O:1]c1ccc2c(c1)CN(C(=O)C(NC(=O)C(C)NC)C(C)(C)C)C(C(=O)NC1CCCc3ccccc31)C2

> <Shape>
0.218

> <Color>
0.056

> <Negative vol penalty>
0.000

$$$$

  -OEChem-04052318543D

 86 94  0     1  0  0  0  0  0999 V2000
  -29.8841  -26.5176   33.6241 C   0  0  0  0  0  0  0  0  0  0  0  0
  -29.0450  -25.9650   32.6619 C   0  0  0  0  0  0  0  0  0  0  0  0
  -23.0003   -9.8942   19.9822 C   0  0  0  0  0  0  0  0  0  0  0  0
  -23.7299   -9.9449   22.2848 C   0  0  0  0  0  0  0  0  0  0  0  0
  -30.9217  -27.3654   33.2386 C   0  0  0  0  0  0  0  0  0  0  0  0
  -29.2423  -26.2607   31.3136 C   0  0  0  0  0  0  0  0  0  0  0  0
  -28.3252  -22.5207   26.5516 C   0  0  0  0  0  0  0  0  0  0  0  0
  -22.2352   -8.7590   20.2496 C   0  0  0  0  0  0  0  0  0  0  0  0
  -22.9648   -8.8097   22.5523 C   0  0  0  0  0  0  0  0  0  0  0  0
  -27.2652  -22.3848   25.6562 C   0  0  0  0  0  0  0  0  0  0  0  0
  -23.2108   -5.4711   22.0787 C   0  0  0  0  0  0  0  0  0  0  0  0
  -23.8006   -4.4542   22.8293 C   0  0  0  0  0  0  0  0  0  0  0  0
  -28.4183  -23.8062   24.0848 C   0  0  0  0  0  0  0  0  0  0  0  0
  -27.0669  -19.3210   20.3028 C   0  0  0  0  0  0  0  0  0  0  0  0
  -22.0798   -4.6951   24.5080 C   0  0  0  0  0  0  0  0  0  0  0  0
  -23.7478  -10.4871   20.9998 C   0  0  0  0  0  0  0  0  0  0  0  0
  -24.1308  -13.0031   20.8239 C   0  0  0  0  0  0  0  0  0  0  0  0
  -31.1377  -27.6641   31.8841 C   0  0  0  0  0  0  0  0  0  0  0  0
  -29.4367  -23.3106   26.2242 C   0  0  0  0  0  0  0  0  0  0  0  0
  -30.2829  -27.1144   30.9097 C   0  0  0  0  0  0  0  0  0  0  0  0
  -29.4922  -23.9485   24.9767 C   0  0  0  0  0  0  0  0  0  0  0  0
  -28.2773  -18.6730   20.0831 C   0  0  0  0  0  0  0  0  0  0  0  0
  -29.2507  -18.6745   21.0760 C   0  0  0  0  0  0  0  0  0  0  0  0
  -22.2174   -8.2168   21.5346 C   0  0  0  0  0  0  0  0  0  0  0  0
  -27.3103  -23.0299   24.4237 C   0  0  0  0  0  0  0  0  0  0  0  0
  -22.0555   -6.1002   22.5427 C   0  0  0  0  0  0  0  0  0  0  0  0
  -23.2351   -4.0661   24.0439 C   0  0  0  0  0  0  0  0  0  0  0  0
  -21.4900   -5.7122   23.7573 C   0  0  0  0  0  0  0  0  0  0  0  0
  -24.5388  -11.6594   20.7240 C   0  0  0  0  0  0  0  0  0  0  0  0
  -26.8806  -19.9508   21.5228 C   0  0  0  0  0  0  0  0  0  0  0  0
  -28.9667  -19.3334   22.2613 C   0  0  0  0  0  0  0  0  0  0  0  0
  -25.2393  -13.7266   20.4576 C   0  0  0  0  0  0  0  0  0  0  0  0
  -22.8631  -13.5483   21.2131 C   0  0  0  0  0  0  0  0  0  0  0  0
  -30.7667  -25.9270   27.4443 C   0  0  0  0  0  0  0  0  0  0  0  0
  -33.0490  -25.3339   25.2168 C   0  0  0  0  0  0  0  0  0  0  0  0
  -33.8891  -23.8809   22.2453 C   0  0  0  0  0  0  0  0  0  0  0  0
  -30.7354  -14.6654   20.6958 C   0  0  0  0  0  0  0  0  0  0  0  0
  -32.2430  -28.6234   31.5196 C   0  0  0  0  0  0  0  0  0  0  0  0
  -30.5838  -23.4254   27.1902 C   0  0  0  0  0  0  0  0  0  0  0  0
  -30.6718  -24.7915   24.5689 C   0  0  0  0  0  0  0  0  0  0  0  0
  -32.6163  -28.5886   30.0398 C   0  0  0  0  0  0  0  0  0  0  0  0
  -29.5920  -12.2417   18.3517 C   0  0  0  0  0  0  0  0  0  0  0  0
  -31.3622  -28.6182   29.1720 C   0  0  0  0  0  0  0  0  0  0  0  0
  -28.1446  -11.9807   18.7720 C   0  0  0  0  0  0  0  0  0  0  0  0
  -30.4966  -12.4774   19.5593 C   0  0  0  0  0  0  0  0  0  0  0  0
  -28.5885  -13.2709   20.9020 C   0  0  0  0  0  0  0  0  0  0  0  0
  -30.4802  -27.3917   29.4351 C   0  0  1  0  0  0  0  0  0  0  0  0
  -31.4350  -24.6707   26.9617 C   0  0  1  0  0  0  0  0  0  0  0  0
  -27.6273  -13.0829   19.7158 C   0  0  2  0  0  0  0  0  0  0  0  0
  -28.5071  -17.9880   18.7765 C   0  0  0  0  0  0  0  0  0  0  0  0
  -30.6890  -20.7122   23.4526 C   0  0  0  0  0  0  0  0  0  0  0  0
  -31.7412  -18.9747   20.9000 C   0  0  0  0  0  0  0  0  0  0  0  0
  -35.3584  -23.1187   20.3592 C   0  0  0  0  0  0  0  0  0  0  0  0
  -32.6613  -28.1978   24.2384 C   0  0  0  0  0  0  0  0  0  0  0  0
  -33.8667  -27.5689   22.1361 C   0  0  0  0  0  0  0  0  0  0  0  0
  -35.0430  -27.4409   24.3322 C   0  0  0  0  0  0  0  0  0  0  0  0
  -34.5030  -21.3238   23.6031 C   0  0  0  0  0  0  0  0  0  0  0  0
  -25.5799  -20.6625   21.7970 C   0  0  0  0  0  0  0  0  0  0  0  0
  -29.9722  -19.3683   23.3656 C   0  0  0  0  0  0  0  0  0  0  0  0
  -25.5843  -22.1353   21.3818 C   0  0  0  0  0  0  0  0  0  0  0  0
  -30.8187  -16.8440   21.8816 C   0  0  0  0  0  0  0  0  0  0  0  0
  -26.5893  -22.9785   22.1580 C   0  0  0  0  0  0  0  0  0  1  0  0
  -30.5575  -17.9856   20.8693 C   0  0  1  0  0  0  0  0  0  0  0  0
  -33.2659  -25.7306   23.7765 C   0  0  1  0  0  0  0  0  0  0  0  0
  -35.0664  -23.0090   21.8476 C   0  0  2  0  0  0  0  0  0  0  0  0
  -33.6860  -27.2203   23.6290 C   0  0  0  0  0  0  0  0  0  0  0  0
  -25.8074  -11.5341   20.3253 N   0  0  0  0  0  0  0  0  0  0  0  0
  -27.8026  -19.9738   22.5113 N   0  0  0  0  0  0  0  0  0  0  0  0
  -26.2061  -12.8082   20.1714 N   0  0  0  0  0  0  0  0  0  0  0  0
  -31.7657  -24.8782   25.5504 N   0  0  0  0  0  0  0  0  0  0  0  0
  -29.9506  -13.5354   20.4128 N   0  0  0  0  0  0  0  0  0  0  0  0
  -25.4715  -15.0526   20.3555 N   0  0  0  0  0  0  0  0  0  0  0  0
  -21.8327  -12.6633   21.5583 N   0  0  0  0  0  0  0  0  0  0  0  0
  -31.0223  -26.2270   28.7688 N   0  0  0  0  0  0  0  0  0  0  0  0
  -34.2306  -24.7810   23.2324 N   0  0  0  0  0  0  0  0  0  0  0  0
  -30.1398  -15.6235   21.5071 N   0  0  0  0  0  0  0  0  0  0  0  0
  -34.7846  -21.5809   22.1672 N   0  3  0  0  0  0  0  0  0  0  0  0
  -22.6455  -14.7835   21.2377 O   0  0  0  0  0  0  0  0  0  0  0  0
  -30.0720  -26.5769   26.6718 O   0  0  0  0  0  0  0  0  0  0  0  0
  -33.9858  -25.4182   26.0150 O   0  0  0  0  0  0  0  0  0  0  0  0
  -32.7786  -23.7766   21.7291 O   0  0  0  0  0  0  0  0  0  0  0  0
  -31.8798  -14.8124   20.2536 O   0  0  0  0  0  0  0  0  0  0  0  0
  -21.4707   -7.1092   21.7960 O   0  0  0  0  0  0  0  0  0  0  0  0
  -26.2768  -22.8994   23.5482 O   0  0  0  0  0  0  0  0  0  1  0  0
  -23.8007   -3.0884   24.7639 F   0  0  0  0  0  0  0  0  0  0  0  0
  -20.3795   -6.3120   24.2077 F   0  0  0  0  0  0  0  0  0  0  0  0
  1  2  1  0  0  0  0
  1  5  2  0  0  0  0
  2  6  2  0  0  0  0
  3  8  2  0  0  0  0
  3 16  1  0  0  0  0
  4  9  1  0  0  0  0
  4 16  2  0  0  0  0
  5 18  1  0  0  0  0
  6 20  1  0  0  0  0
  7 10  2  0  0  0  0
  7 19  1  0  0  0  0
  8 24  1  0  0  0  0
  9 24  2  0  0  0  0
 10 25  1  0  0  0  0
 11 12  2  0  0  0  0
 11 26  1  0  0  0  0
 12 27  1  0  0  0  0
 13 21  1  0  0  0  0
 13 25  2  0  0  0  0
 14 22  2  0  0  0  0
 14 30  1  0  0  0  0
 15 27  2  0  0  0  0
 15 28  1  0  0  0  0
 16 29  1  0  0  0  0
 17 29  1  0  0  0  0
 17 32  2  0  0  0  0
 17 33  1  0  0  0  0
 18 20  2  0  0  0  0
 18 38  1  0  0  0  0
 19 21  2  0  0  0  0
 19 39  1  0  0  0  0
 20 47  1  0  0  0  0
 21 40  1  0  0  0  0
 22 23  1  0  0  0  0
 22 50  1  0  0  0  0
 23 31  2  0  0  0  0
 23 63  1  0  0  0  0
 24 83  1  0  0  0  0
 25 84  1  0  0  0  0
 26 28  2  0  0  0  0
 26 83  1  0  0  0  0
 27 85  1  0  0  0  0
 28 86  1  0  0  0  0
 29 67  2  0  0  0  0
 30 58  1  0  0  0  0
 30 68  2  0  0  0  0
 31 59  1  0  0  0  0
 31 68  1  0  0  0  0
 32 69  1  0  0  0  0
 32 72  1  0  0  0  0
 33 73  1  0  0  0  0
 33 78  2  0  0  0  0
 34 48  1  0  0  0  0
 34 74  1  0  0  0  0
 34 79  2  0  0  0  0
 35 64  1  0  0  0  0
 35 70  1  0  0  0  0
 35 80  2  0  0  0  0
 36 65  1  0  0  0  0
 36 75  1  0  0  0  0
 36 81  2  0  0  0  0
 37 71  1  0  0  0  0
 37 76  1  0  0  0  0
 37 82  2  0  0  0  0
 38 41  1  0  0  0  0
 39 48  1  0  0  0  0
 40 70  1  0  0  0  0
 41 43  1  0  0  0  0
 42 44  1  0  0  0  0
 42 45  1  0  0  0  0
 43 47  1  0  0  0  0
 44 49  1  0  0  0  0
 45 71  1  0  0  0  0
 46 49  1  0  0  0  0
 46 71  1  0  0  0  0
 47 74  1  0  0  0  0
 48 70  1  0  0  0  0
 49 69  1  0  0  0  0
 51 59  1  0  0  0  0
 52 63  1  0  0  0  0
 53 65  1  0  0  0  0
 54 66  1  0  0  0  0
 55 66  1  0  0  0  0
 56 66  1  0  0  0  0
 57 77  1  0  0  0  0
 58 60  1  0  0  0  0
 60 62  1  0  0  0  0
 61 63  1  0  0  0  0
 61 76  1  0  0  0  0
 62 84  1  0  0  0  0
 64 66  1  0  0  0  0
 64 75  1  0  0  0  0
 65 77  1  0  0  0  0
 67 69  1  0  0  0  0
M  CHG  1  77   1
M  ISO  4  37 100  62 101  76 100  84 101
M  END
> <Batch ID>
0084

> <Smiles>
CCc1nc(CC[101CH2:1][101O:1]c2ccc3c(c2)CN(C(=O)C(NC(=O)C(C)NC)C(C)(C)C)C(C(=O)NC2CCCc4ccccc42)C3)cc(C)c1C(C)C[100NH:0][100C:0](=O)N1CCCC(n2nc(-c3ccc(Oc4ccc(F)cc4F)cc3)c(C(N)=O)c2N)C1

> <Shape>
0.200

> <Color>
0.193

> <Negative vol penalty>
0.000

$$$$

  -OEChem-04052318543D

 86 94  0     1  0  0  0  0  0999 V2000
  -32.2142  -14.8425   20.7060 C   0  0  0  0  0  0  0  0  0  0  0  0
  -31.2677  -15.4438   21.5279 C   0  0  0  0  0  0  0  0  0  0  0  0
  -28.9308  -25.5927   21.1099 C   0  0  0  0  0  0  0  0  0  0  0  0
  -26.8421  -24.4265   20.7716 C   0  0  0  0  0  0  0  0  0  0  0  0
  -31.8051  -13.9634   19.7054 C   0  0  0  0  0  0  0  0  0  0  0  0
  -29.9129  -15.1571   21.3574 C   0  0  0  0  0  0  0  0  0  0  0  0
  -24.9986  -17.4490   24.1368 C   0  0  0  0  0  0  0  0  0  0  0  0
  -29.4985  -24.4268   21.6238 C   0  0  0  0  0  0  0  0  0  0  0  0
  -27.4098  -23.2606   21.2855 C   0  0  0  0  0  0  0  0  0  0  0  0
  -24.0942  -18.4906   23.9347 C   0  0  0  0  0  0  0  0  0  0  0  0
  -29.4692  -20.8089   20.2046 C   0  0  0  0  0  0  0  0  0  0  0  0
  -29.2352  -19.6182   19.5167 C   0  0  0  0  0  0  0  0  0  0  0  0
  -22.5611  -16.9487   22.8899 C   0  0  0  0  0  0  0  0  0  0  0  0
  -28.1816  -18.6896   21.4826 C   0  0  0  0  0  0  0  0  0  0  0  0
  -19.5346  -27.2147   21.6035 C   0  0  0  0  0  0  0  0  0  0  0  0
  -27.6026  -25.5925   20.6838 C   0  0  0  0  0  0  0  0  0  0  0  0
  -26.9998  -27.2141   18.8090 C   0  0  0  0  0  0  0  0  0  0  0  0
  -30.4434  -13.6760   19.5151 C   0  0  0  0  0  0  0  0  0  0  0  0
  -24.6952  -16.1493   23.7064 C   0  0  0  0  0  0  0  0  0  0  0  0
  -29.4818  -14.2541   20.3687 C   0  0  0  0  0  0  0  0  0  0  0  0
  -23.4623  -15.8919   23.0900 C   0  0  0  0  0  0  0  0  0  0  0  0
  -28.7380  -23.2608   21.7116 C   0  0  0  0  0  0  0  0  0  0  0  0
  -22.8765  -18.2411   23.3087 C   0  0  0  0  0  0  0  0  0  0  0  0
  -29.0594  -20.9399   21.5315 C   0  0  0  0  0  0  0  0  0  0  0  0
  -28.5914  -18.5586   20.1557 C   0  0  0  0  0  0  0  0  0  0  0  0
  -28.4156  -19.8803   22.1705 C   0  0  0  0  0  0  0  0  0  0  0  0
  -27.0154  -26.7967   20.1534 C   0  0  0  0  0  0  0  0  0  0  0  0
  -19.5127  -28.3202   22.4062 C   0  0  0  0  0  0  0  0  0  0  0  0
  -26.3271  -28.4114   18.8290 C   0  0  0  0  0  0  0  0  0  0  0  0
  -18.4220  -26.6987   23.4464 C   0  0  0  0  0  0  0  0  0  0  0  0
  -27.5446  -26.5765   17.6461 C   0  0  0  0  0  0  0  0  0  0  0  0
  -25.9801  -14.1178   21.6266 C   0  0  0  0  0  0  0  0  0  0  0  0
  -23.7538  -12.0873   22.8279 C   0  0  0  0  0  0  0  0  0  0  0  0
  -20.7562  -11.6802   24.4077 C   0  0  0  0  0  0  0  0  0  0  0  0
  -22.2760  -30.7503   22.5665 C   0  0  0  0  0  0  0  0  0  0  0  0
  -30.0568  -12.7111   18.4221 C   0  0  0  0  0  0  0  0  0  0  0  0
  -25.6703  -15.0316   23.9558 C   0  0  0  0  0  0  0  0  0  0  0  0
  -23.0801  -14.5104   22.6276 C   0  0  0  0  0  0  0  0  0  0  0  0
  -28.5858  -12.8131   18.0320 C   0  0  0  0  0  0  0  0  0  0  0  0
  -25.4243  -32.1521   21.6721 C   0  0  0  0  0  0  0  0  0  0  0  0
  -27.7138  -12.7752   19.2780 C   0  0  0  0  0  0  0  0  0  0  0  0
  -26.1877  -30.9762   21.0602 C   0  0  0  0  0  0  0  0  0  0  0  0
  -24.5444  -31.7080   22.8385 C   0  0  0  0  0  0  0  0  0  0  0  0
  -24.3800  -29.4281   21.9171 C   0  0  0  0  0  0  0  0  0  0  0  0
  -28.0003  -13.9810   20.1820 C   0  0  1  0  0  0  0  0  0  0  0  0
  -25.4741  -13.8466   23.0151 C   0  0  1  0  0  0  0  0  0  0  0  0
  -25.2383  -29.8172   20.7013 C   0  0  2  0  0  0  0  0  0  0  0  0
  -17.6454  -25.9607   24.4736 C   0  0  0  0  0  0  0  0  0  0  0  0
  -19.5113  -30.4068   20.9894 C   0  0  0  0  0  0  0  0  0  0  0  0
  -19.1822   -9.9017   25.2182 C   0  0  0  0  0  0  0  0  0  0  0  0
  -19.4603  -22.4377   19.9263 C   0  0  0  0  0  0  0  0  0  0  0  0
  -22.8359  -11.5960   19.9598 C   0  0  0  0  0  0  0  0  0  0  0  0
  -20.7276  -10.6059   20.8779 C   0  0  0  0  0  0  0  0  0  0  0  0
  -22.9273   -9.5474   21.3913 C   0  0  0  0  0  0  0  0  0  0  0  0
  -20.9965  -12.5841   27.2155 C   0  0  0  0  0  0  0  0  0  0  0  0
  -21.2501  -21.5330   23.2714 C   0  0  0  0  0  0  0  0  0  0  0  0
  -20.9408  -21.5972   21.7754 C   0  0  0  0  0  0  0  0  0  0  0  0
  -19.8882  -23.9663   21.9073 C   0  0  0  0  0  0  0  0  0  0  0  0
  -18.6283  -24.8262   21.7567 C   0  0  0  0  0  0  0  0  0  0  0  0
  -22.3768  -20.5518   23.5675 C   0  0  0  0  0  0  0  0  0  1  0  0
  -20.0726  -29.6615   22.2221 C   0  0  2  0  0  0  0  0  0  0  0  0
  -22.3238  -11.7450   22.4860 C   0  0  1  0  0  0  0  0  0  0  0  0
  -20.3466  -10.8098   25.5820 C   0  0  2  0  0  0  0  0  0  0  0  0
  -19.7443  -22.5059   21.4306 C   0  0  1  0  0  0  0  0  0  0  0  0
  -22.2114  -10.9001   21.1856 C   0  0  0  0  0  0  0  0  0  0  0  0
  -26.4015  -27.6589   20.9681 N   0  0  0  0  0  0  0  0  0  0  0  0
  -18.8529  -26.2266   22.2721 N   0  0  0  0  0  0  0  0  0  0  0  0
  -25.9940  -28.6301   20.1334 N   0  0  0  0  0  0  0  0  0  0  0  0
  -18.8177  -27.9724   23.5394 N   0  3  0  0  0  0  0  0  0  0  0  0
  -24.0697  -13.4520   22.8883 N   0  0  0  0  0  0  0  0  0  0  0  0
  -23.6669  -30.6078   22.4316 N   0  0  0  0  0  0  0  0  0  0  0  0
  -25.9941  -29.2881   17.8579 N   0  0  0  0  0  0  0  0  0  0  0  0
  -28.2046  -25.3502   17.8039 N   0  0  0  0  0  0  0  0  0  0  0  0
  -27.3123  -13.8009   21.4414 N   0  0  0  0  0  0  0  0  0  0  0  0
  -21.7648  -11.0989   23.6685 N   0  0  0  0  0  0  0  0  0  0  0  0
  -21.5169  -29.6631   22.1515 N   0  0  0  0  0  0  0  0  0  0  0  0
  -19.9380  -11.6577   26.7375 N   0  3  0  0  0  0  0  0  0  0  0  0
  -27.4634  -27.0874   16.5033 O   0  0  0  0  0  0  0  0  0  0  0  0
  -25.2179  -14.5790   20.7851 O   0  0  0  0  0  0  0  0  0  0  0  0
  -24.5591  -11.1775   23.0407 O   0  0  0  0  0  0  0  0  0  0  0  0
  -20.2313  -12.7652   24.1677 O   0  0  0  0  0  0  0  0  0  0  0  0
  -21.7495  -31.7730   23.0181 O   0  0  0  0  0  0  0  0  0  0  0  0
  -29.2917  -22.1229   22.2128 O   0  0  0  0  0  0  0  0  0  0  0  0
  -21.9921  -19.2561   23.1096 O   0  0  0  0  0  0  0  0  0  1  0  0
  -28.3654  -17.4158   19.4946 F   0  0  0  0  0  0  0  0  0  0  0  0
  -28.0185  -20.0007   23.4447 F   0  0  0  0  0  0  0  0  0  0  0  0
  1  2  1  0  0  0  0
  1  5  2  0  0  0  0
  2  6  2  0  0  0  0
  3  8  2  0  0  0  0
  3 16  1  0  0  0  0
  4  9  1  0  0  0  0
  4 16  2  0  0  0  0
  5 18  1  0  0  0  0
  6 20  1  0  0  0  0
  7 10  2  0  0  0  0
  7 19  1  0  0  0  0
  8 22  1  0  0  0  0
  9 22  2  0  0  0  0
 10 23  1  0  0  0  0
 11 12  2  0  0  0  0
 11 24  1  0  0  0  0
 12 25  1  0  0  0  0
 13 21  1  0  0  0  0
 13 23  2  0  0  0  0
 14 25  2  0  0  0  0
 14 26  1  0  0  0  0
 15 28  2  0  0  0  0
 15 67  1  0  0  0  0
 16 27  1  0  0  0  0
 17 27  1  0  0  0  0
 17 29  2  0  0  0  0
 17 31  1  0  0  0  0
 18 20  2  0  0  0  0
 18 36  1  0  0  0  0
 19 21  2  0  0  0  0
 19 37  1  0  0  0  0
 20 45  1  0  0  0  0
 21 38  1  0  0  0  0
 22 83  1  0  0  0  0
 23 84  1  0  0  0  0
 24 26  2  0  0  0  0
 24 83  1  0  0  0  0
 25 85  1  0  0  0  0
 26 86  1  0  0  0  0
 27 66  2  0  0  0  0
 28 61  1  0  0  0  0
 28 69  1  0  0  0  0
 29 68  1  0  0  0  0
 29 72  1  0  0  0  0
 30 48  1  0  0  0  0
 30 67  1  0  0  0  0
 30 69  2  0  0  0  0
 31 73  1  0  0  0  0
 31 78  2  0  0  0  0
 32 46  1  0  0  0  0
 32 74  1  0  0  0  0
 32 79  2  0  0  0  0
 33 62  1  0  0  0  0
 33 70  1  0  0  0  0
 33 80  2  0  0  0  0
 34 63  1  0  0  0  0
 34 75  1  0  0  0  0
 34 81  2  0  0  0  0
 35 71  1  0  0  0  0
 35 76  1  0  0  0  0
 35 82  2  0  0  0  0
 36 39  1  0  0  0  0
 37 46  1  0  0  0  0
 38 70  1  0  0  0  0
 39 41  1  0  0  0  0
 40 42  1  0  0  0  0
 40 43  1  0  0  0  0
 41 45  1  0  0  0  0
 42 47  1  0  0  0  0
 43 71  1  0  0  0  0
 44 47  1  0  0  0  0
 44 71  1  0  0  0  0
 45 74  1  0  0  0  0
 46 70  1  0  0  0  0
 47 68  1  0  0  0  0
 49 61  1  0  0  0  0
 50 63  1  0  0  0  0
 51 64  1  0  0  0  0
 52 65  1  0  0  0  0
 53 65  1  0  0  0  0
 54 65  1  0  0  0  0
 55 77  1  0  0  0  0
 56 57  1  0  0  0  0
 56 60  1  0  0  0  0
 57 64  1  0  0  0  0
 58 59  1  0  0  0  0
 58 64  1  0  0  0  0
 59 67  1  0  0  0  0
 60 84  1  0  0  0  0
 61 76  1  0  0  0  0
 62 65  1  0  0  0  0
 62 75  1  0  0  0  0
 63 77  1  0  0  0  0
 66 68  1  0  0  0  0
M  CHG  2  69   1  77   1
M  ISO  4  35 100  60 101  76 100  84 101
M  END
> <Batch ID>
0084

> <Smiles>
CNC(C)C(=O)NC(C(=O)N1Cc2cc([101O:1][101CH2:1]CCC(C)CCn3cc(C(C)[100NH:0][100C:0](=O)N4CCCC(n5nc(-c6ccc(Oc7ccc(F)cc7F)cc6)c(C(N)=O)c5N)C4)nc3C)ccc2CC1C(=O)NC1CCCc2ccccc21)C(C)(C)C

> <Shape>
0.260

> <Color>
0.070

> <Negative vol penalty>
0.000

$$$$

  -OEChem-04052318543D

 84 92  0     1  0  0  0  0  0999 V2000
  -22.0056  -18.5171   32.5400 C   0  0  0  0  0  0  0  0  0  0  0  0
  -22.6275  -17.6272   31.6701 C   0  0  0  0  0  0  0  0  0  0  0  0
  -23.0740   -9.8689   19.9419 C   0  0  0  0  0  0  0  0  0  0  0  0
  -23.8386   -9.8744   22.2337 C   0  0  0  0  0  0  0  0  0  0  0  0
  -22.6570  -19.6902   32.9186 C   0  0  0  0  0  0  0  0  0  0  0  0
  -23.9009  -17.9105   31.1775 C   0  0  0  0  0  0  0  0  0  0  0  0
  -29.9561  -14.6592   29.1575 C   0  0  0  0  0  0  0  0  0  0  0  0
  -22.3313   -8.7151   20.1924 C   0  0  0  0  0  0  0  0  0  0  0  0
  -23.0959   -8.7206   22.4843 C   0  0  0  0  0  0  0  0  0  0  0  0
  -30.8435  -14.6062   28.0835 C   0  0  0  0  0  0  0  0  0  0  0  0
  -19.8695   -7.9203   23.0927 C   0  0  0  0  0  0  0  0  0  0  0  0
  -19.1149   -7.8790   24.2651 C   0  0  0  0  0  0  0  0  0  0  0  0
  -31.9052  -16.6249   28.8689 C   0  0  0  0  0  0  0  0  0  0  0  0
  -20.3591   -5.9417   24.9975 C   0  0  0  0  0  0  0  0  0  0  0  0
  -30.4046  -17.9108   25.3863 C   0  0  0  0  0  0  0  0  0  0  0  0
  -23.8276  -10.4486   20.9625 C   0  0  0  0  0  0  0  0  0  0  0  0
  -24.1677  -12.9740   20.8438 C   0  0  0  0  0  0  0  0  0  0  0  0
  -23.9430  -19.9834   32.4380 C   0  0  0  0  0  0  0  0  0  0  0  0
  -30.0297  -15.7033   30.0907 C   0  0  0  0  0  0  0  0  0  0  0  0
  -24.5696  -19.0893   31.5490 C   0  0  0  0  0  0  0  0  0  0  0  0
  -31.0192  -16.6875   29.9552 C   0  0  0  0  0  0  0  0  0  0  0  0
  -22.3423   -8.1409   21.4636 C   0  0  0  0  0  0  0  0  0  0  0  0
  -31.8164  -15.5907   27.9374 C   0  0  0  0  0  0  0  0  0  0  0  0
  -20.8687   -6.9723   22.8726 C   0  0  0  0  0  0  0  0  0  0  0  0
  -19.3597   -6.8897   25.2175 C   0  0  0  0  0  0  0  0  0  0  0  0
  -21.1136   -5.9830   23.8250 C   0  0  0  0  0  0  0  0  0  0  0  0
  -24.5955  -11.6401   20.7041 C   0  0  0  0  0  0  0  0  0  0  0  0
  -29.1368  -18.0947   24.9111 C   0  0  0  0  0  0  0  0  0  0  0  0
  -25.2586  -13.7245   20.4789 C   0  0  0  0  0  0  0  0  0  0  0  0
  -30.3901  -17.3524   23.2442 C   0  0  0  0  0  0  0  0  0  0  0  0
  -22.8977  -13.4887   21.2658 C   0  0  0  0  0  0  0  0  0  0  0  0
  -28.0683  -18.0270   31.0163 C   0  0  0  0  0  0  0  0  0  0  0  0
  -30.3831  -18.5710   33.2227 C   0  0  0  0  0  0  0  0  0  0  0  0
  -33.6631  -18.2684   34.1156 C   0  0  0  0  0  0  0  0  0  0  0  0
  -30.7421  -14.7468   20.6569 C   0  0  0  0  0  0  0  0  0  0  0  0
  -24.5879  -21.2867   32.8382 C   0  0  0  0  0  0  0  0  0  0  0  0
  -29.0822  -15.7315   31.2585 C   0  0  0  0  0  0  0  0  0  0  0  0
  -31.1533  -17.8182   30.9411 C   0  0  0  0  0  0  0  0  0  0  0  0
  -26.0894  -21.3319   32.5666 C   0  0  0  0  0  0  0  0  0  0  0  0
  -29.6011  -12.3635   18.2705 C   0  0  0  0  0  0  0  0  0  0  0  0
  -26.3943  -20.8123   31.1653 C   0  0  0  0  0  0  0  0  0  0  0  0
  -28.1647  -12.0685   18.7061 C   0  0  0  0  0  0  0  0  0  0  0  0
  -30.5205  -12.5839   19.4697 C   0  0  0  0  0  0  0  0  0  0  0  0
  -28.6212  -13.3127   20.8608 C   0  0  0  0  0  0  0  0  0  0  0  0
  -25.9606  -19.3494   31.0128 C   0  0  1  0  0  0  0  0  0  0  0  0
  -28.9194  -17.1229   31.8625 C   0  0  1  0  0  0  0  0  0  0  0  0
  -27.6447  -13.1384   19.6850 C   0  0  2  0  0  0  0  0  0  0  0  0
  -28.0231  -20.0168   26.1024 C   0  0  0  0  0  0  0  0  0  0  0  0
  -27.4452  -17.6432   26.7246 C   0  0  0  0  0  0  0  0  0  0  0  0
  -30.6126  -17.9669   20.8082 C   0  0  0  0  0  0  0  0  0  0  0  0
  -35.2633  -18.8430   35.9613 C   0  0  0  0  0  0  0  0  0  0  0  0
  -30.4261  -21.4723   32.2789 C   0  0  0  0  0  0  0  0  0  0  0  0
  -32.6268  -21.7448   33.4413 C   0  0  0  0  0  0  0  0  0  0  0  0
  -30.5846  -21.1791   34.7575 C   0  0  0  0  0  0  0  0  0  0  0  0
  -34.2829  -15.4192   34.6223 C   0  0  0  0  0  0  0  0  0  0  0  0
  -32.9057  -15.6087   24.5017 C   0  0  0  0  0  0  0  0  0  0  0  0
  -32.6259  -17.1099   24.4022 C   0  0  0  0  0  0  0  0  0  0  0  0
  -32.2117  -14.9420   25.6838 C   0  0  0  0  0  0  0  0  0  1  0  0
  -27.9150  -18.5647   25.5693 C   0  0  0  0  0  0  0  0  0  0  0  0
  -30.8091  -16.8964   21.8954 C   0  0  2  0  0  0  0  0  0  0  0  0
  -31.6315  -19.4182   33.2758 C   0  0  1  0  0  0  0  0  0  0  0  0
  -34.3176  -17.7926   35.4000 C   0  0  2  0  0  0  0  0  0  0  0  0
  -31.3138  -20.9335   33.4185 C   0  0  0  0  0  0  0  0  0  0  0  0
  -25.8595  -11.5454   20.2832 N   0  0  0  0  0  0  0  0  0  0  0  0
  -31.1587  -17.4506   24.3338 N   0  0  0  0  0  0  0  0  0  0  0  0
  -26.2354  -12.8293   20.1551 N   0  0  0  0  0  0  0  0  0  0  0  0
  -29.1569  -17.7418   23.5833 N   0  3  0  0  0  0  0  0  0  0  0  0
  -30.1994  -17.8055   32.0624 N   0  0  0  0  0  0  0  0  0  0  0  0
  -29.9711  -13.6114   20.3576 N   0  0  0  0  0  0  0  0  0  0  0  0
  -25.4680  -15.0561   20.4066 N   0  0  0  0  0  0  0  0  0  0  0  0
  -21.8871  -12.5786   21.6044 N   0  0  0  0  0  0  0  0  0  0  0  0
  -26.9200  -18.4693   31.6450 N   0  0  0  0  0  0  0  0  0  0  0  0
  -32.4481  -18.8746   34.3557 N   0  0  0  0  0  0  0  0  0  0  0  0
  -30.1441  -15.6745   21.5009 N   0  0  0  0  0  0  0  0  0  0  0  0
  -35.0940  -16.5445   35.1541 N   0  3  0  0  0  0  0  0  0  0  0  0
  -22.6608  -14.7191   21.3246 O   0  0  0  0  0  0  0  0  0  0  0  0
  -28.4276  -18.3040   29.8780 O   0  0  0  0  0  0  0  0  0  0  0  0
  -29.6034  -18.5824   34.1785 O   0  0  0  0  0  0  0  0  0  0  0  0
  -34.1798  -18.1207   33.0103 O   0  0  0  0  0  0  0  0  0  0  0  0
  -31.8770  -14.9233   20.2011 O   0  0  0  0  0  0  0  0  0  0  0  0
  -21.6175   -7.0152   21.7085 O   0  0  0  0  0  0  0  0  0  0  0  0
  -32.6835  -15.5416   26.8897 O   0  0  0  0  0  0  0  0  0  1  0  0
  -18.6361   -6.8510   26.3440 F   0  0  0  0  0  0  0  0  0  0  0  0
  -22.0730   -5.0703   23.6197 F   0  0  0  0  0  0  0  0  0  0  0  0
  1  2  1  0  0  0  0
  1  5  2  0  0  0  0
  2  6  2  0  0  0  0
  3  8  2  0  0  0  0
  3 16  1  0  0  0  0
  4  9  1  0  0  0  0
  4 16  2  0  0  0  0
  5 18  1  0  0  0  0
  6 20  1  0  0  0  0
  7 10  2  0  0  0  0
  7 19  1  0  0  0  0
  8 22  1  0  0  0  0
  9 22  2  0  0  0  0
 10 23  1  0  0  0  0
 11 12  2  0  0  0  0
 11 24  1  0  0  0  0
 12 25  1  0  0  0  0
 13 21  1  0  0  0  0
 13 23  2  0  0  0  0
 14 25  2  0  0  0  0
 14 26  1  0  0  0  0
 15 28  2  0  0  0  0
 15 65  1  0  0  0  0
 16 27  1  0  0  0  0
 17 27  1  0  0  0  0
 17 29  2  0  0  0  0
 17 31  1  0  0  0  0
 18 20  2  0  0  0  0
 18 36  1  0  0  0  0
 19 21  2  0  0  0  0
 19 37  1  0  0  0  0
 20 45  1  0  0  0  0
 21 38  1  0  0  0  0
 22 81  1  0  0  0  0
 23 82  1  0  0  0  0
 24 26  2  0  0  0  0
 24 81  1  0  0  0  0
 25 83  1  0  0  0  0
 26 84  1  0  0  0  0
 27 64  2  0  0  0  0
 28 59  1  0  0  0  0
 28 67  1  0  0  0  0
 29 66  1  0  0  0  0
 29 70  1  0  0  0  0
 30 60  1  0  0  0  0
 30 65  1  0  0  0  0
 30 67  2  0  0  0  0
 31 71  1  0  0  0  0
 31 76  2  0  0  0  0
 32 46  1  0  0  0  0
 32 72  1  0  0  0  0
 32 77  2  0  0  0  0
 33 61  1  0  0  0  0
 33 68  1  0  0  0  0
 33 78  2  0  0  0  0
 34 62  1  0  0  0  0
 34 73  1  0  0  0  0
 34 79  2  0  0  0  0
 35 69  1  0  0  0  0
 35 74  1  0  0  0  0
 35 80  2  0  0  0  0
 36 39  1  0  0  0  0
 37 46  1  0  0  0  0
 38 68  1  0  0  0  0
 39 41  1  0  0  0  0
 40 42  1  0  0  0  0
 40 43  1  0  0  0  0
 41 45  1  0  0  0  0
 42 47  1  0  0  0  0
 43 69  1  0  0  0  0
 44 47  1  0  0  0  0
 44 69  1  0  0  0  0
 45 72  1  0  0  0  0
 46 68  1  0  0  0  0
 47 66  1  0  0  0  0
 48 59  1  0  0  0  0
 49 59  1  0  0  0  0
 50 60  1  0  0  0  0
 51 62  1  0  0  0  0
 52 63  1  0  0  0  0
 53 63  1  0  0  0  0
 54 63  1  0  0  0  0
 55 75  1  0  0  0  0
 56 57  1  0  0  0  0
 56 58  1  0  0  0  0
 57 65  1  0  0  0  0
 58 82  1  0  0  0  0
 60 74  1  0  0  0  0
 61 63  1  0  0  0  0
 61 73  1  0  0  0  0
 62 75  1  0  0  0  0
 64 66  1  0  0  0  0
M  CHG  2  67   1  75   1
M  ISO  4  35 100  58 101  74 100  82 101
M  END
> <Batch ID>
0084

> <Smiles>
CNC(C)C(=O)NC(C(=O)N1Cc2cc([101O:1][101CH2:1]CCn3cc(C(C)C)nc3C(C)[100NH:0][100C:0](=O)N3CCCC(n4nc(-c5ccc(Oc6ccc(F)cc6F)cc5)c(C(N)=O)c4N)C3)ccc2CC1C(=O)NC1CCCc2ccccc21)C(C)(C)C

> <Shape>
0.170

> <Color>
0.187

> <Negative vol penalty>
0.000

$$$$

  -OEChem-04052318543D

 82 89  0     1  0  0  0  0  0999 V2000
  -24.7624  -11.1448   20.4547 C   0  0  0  0  0  0  0  0  0  0  0  0
  -25.1682  -11.9789   19.4178 C   0  0  0  0  0  0  0  0  0  0  0  0
  -23.8484  -29.1332   21.0795 C   0  0  0  0  0  0  0  0  0  0  0  0
  -25.7883  -30.5652   20.9261 C   0  0  0  0  0  0  0  0  0  0  0  0
  -24.5678  -11.6673   21.7326 C   0  0  0  0  0  0  0  0  0  0  0  0
  -25.3786  -13.3362   19.6580 C   0  0  0  0  0  0  0  0  0  0  0  0
  -29.5929  -16.9281   17.0419 C   0  0  0  0  0  0  0  0  0  0  0  0
  -23.3386  -29.9333   22.1020 C   0  0  0  0  0  0  0  0  0  0  0  0
  -25.2785  -31.3653   21.9486 C   0  0  0  0  0  0  0  0  0  0  0  0
  -29.5281  -17.8315   15.9820 C   0  0  0  0  0  0  0  0  0  0  0  0
  -24.3166  -33.9913   24.2718 C   0  0  0  0  0  0  0  0  0  0  0  0
  -24.3702  -35.3747   24.1017 C   0  0  0  0  0  0  0  0  0  0  0  0
  -29.2234  -19.6395   17.5496 C   0  0  0  0  0  0  0  0  0  0  0  0
  -23.0091  -35.1830   22.1148 C   0  0  0  0  0  0  0  0  0  0  0  0
  -25.0733  -29.4491   20.4916 C   0  0  0  0  0  0  0  0  0  0  0  0
  -25.3835  -28.7690   18.0526 C   0  0  0  0  0  0  0  0  0  0  0  0
  -24.7852  -13.0299   21.9908 C   0  0  0  0  0  0  0  0  0  0  0  0
  -29.4624  -17.3730   18.3653 C   0  0  0  0  0  0  0  0  0  0  0  0
  -25.1854  -13.8777   20.9403 C   0  0  0  0  0  0  0  0  0  0  0  0
  -29.2895  -18.7401   18.6246 C   0  0  0  0  0  0  0  0  0  0  0  0
  -24.0536  -31.0494   22.5366 C   0  0  0  0  0  0  0  0  0  0  0  0
  -29.3404  -19.1870   16.2356 C   0  0  0  0  0  0  0  0  0  0  0  0
  -23.6093  -33.2037   23.3634 C   0  0  0  0  0  0  0  0  0  0  0  0
  -23.7164  -35.9706   23.0232 C   0  0  0  0  0  0  0  0  0  0  0  0
  -22.9555  -33.7996   22.2849 C   0  0  0  0  0  0  0  0  0  0  0  0
  -25.6007  -28.6226   19.4357 C   0  0  0  0  0  0  0  0  0  0  0  0
  -26.0968  -27.7431   17.4825 C   0  0  0  0  0  0  0  0  0  0  0  0
  -24.6065  -29.7452   17.3462 C   0  0  0  0  0  0  0  0  0  0  0  0
  -27.4009  -16.8268   20.7224 C   0  0  0  0  0  0  0  0  0  0  0  0
  -29.4923  -18.6134   22.4419 C   0  0  0  0  0  0  0  0  0  0  0  0
  -31.9437  -20.9877   22.4589 C   0  0  0  0  0  0  0  0  0  0  0  0
  -30.8548  -24.7669   19.3155 C   0  0  0  0  0  0  0  0  0  0  0  0
  -24.5162  -13.5579   23.3777 C   0  0  0  0  0  0  0  0  0  0  0  0
  -29.5613  -16.3892   19.4988 C   0  0  0  0  0  0  0  0  0  0  0  0
  -29.1641  -19.2713   20.0284 C   0  0  0  0  0  0  0  0  0  0  0  0
  -25.1227  -14.9353   23.6333 C   0  0  0  0  0  0  0  0  0  0  0  0
  -27.6695  -23.3158   18.3957 C   0  0  0  0  0  0  0  0  0  0  0  0
  -24.8265  -15.8737   22.4678 C   0  0  0  0  0  0  0  0  0  0  0  0
  -26.7557  -24.5422   18.4290 C   0  0  0  0  0  0  0  0  0  0  0  0
  -28.7089  -23.3706   19.5114 C   0  0  0  0  0  0  0  0  0  0  0  0
  -28.6300  -25.8335   19.5511 C   0  0  0  0  0  0  0  0  0  0  0  0
  -25.4478  -15.3508   21.1669 C   0  0  1  0  0  0  0  0  0  0  0  0
  -28.9011  -16.8867   20.7811 C   0  0  1  0  0  0  0  0  0  0  0  0
  -27.5712  -25.8488   18.4337 C   0  0  2  0  0  0  0  0  0  0  0  0
  -33.4341  -22.2691   24.0190 C   0  0  0  0  0  0  0  0  0  0  0  0
  -34.8229  -21.7921   15.3022 C   0  0  0  0  0  0  0  0  0  0  0  0
  -27.1344  -20.3769   23.2421 C   0  0  0  0  0  0  0  0  0  0  0  0
  -28.7761  -22.1191   23.9755 C   0  0  0  0  0  0  0  0  0  0  0  0
  -28.7461  -19.8880   25.0908 C   0  0  0  0  0  0  0  0  0  0  0  0
  -31.2035  -20.6219   11.9982 C   0  0  0  0  0  0  0  0  0  0  0  0
  -29.1515  -21.7837   12.8240 C   0  0  0  0  0  0  0  0  0  0  0  0
  -34.3909  -19.8799   21.2168 C   0  0  0  0  0  0  0  0  0  0  0  0
  -33.4495  -23.5643   17.6247 C   0  0  0  0  0  0  0  0  0  0  0  0
  -32.9010  -22.3639   16.8417 C   0  0  0  0  0  0  0  0  0  0  0  0
  -33.0100  -23.5588   19.0863 C   0  0  0  0  0  0  0  0  0  0  0  0
  -31.2535  -21.9966   14.1376 C   0  0  0  0  0  0  0  0  0  0  0  0
  -30.0160  -19.7494   14.0258 C   0  0  0  0  0  0  0  0  0  1  0  0
  -29.6497  -20.0854   22.7378 C   0  0  1  0  0  0  0  0  0  0  0  0
  -33.2975  -21.0328   23.1440 C   0  0  2  0  0  0  0  0  0  0  0  0
  -33.3920  -22.3069   15.3903 C   0  0  2  0  0  0  0  0  0  0  0  0
  -28.5769  -20.6074   23.7349 C   0  0  0  0  0  0  0  0  0  0  0  0
  -30.4244  -21.0289   13.2626 C   0  0  0  0  0  0  0  0  0  0  0  0
  -26.3901  -27.5852   19.7267 N   0  0  0  0  0  0  0  0  0  0  0  0
  -26.6751  -27.0704   18.5185 N   0  0  0  0  0  0  0  0  0  0  0  0
  -29.2611  -18.2692   21.1025 N   0  0  0  0  0  0  0  0  0  0  0  0
  -29.4629  -24.6306   19.4483 N   0  0  0  0  0  0  0  0  0  0  0  0
  -26.2794  -27.3596   16.2011 N   0  0  0  0  0  0  0  0  0  0  0  0
  -23.9375  -30.7296   18.0864 N   0  0  0  0  0  0  0  0  0  0  0  0
  -26.8692  -15.6220   21.1410 N   0  0  0  0  0  0  0  0  0  0  0  0
  -31.0247  -20.2659   23.1908 N   0  0  0  0  0  0  0  0  0  0  0  0
  -31.5714  -23.5794   19.2315 N   0  0  0  0  0  0  0  0  0  0  0  0
  -34.3904  -21.0509   22.1310 N   0  3  0  0  0  0  0  0  0  0  0  0
  -32.5273  -21.3912   14.5968 N   0  3  0  0  0  0  0  0  0  0  0  0
  -24.4950  -29.7348   16.0968 O   0  0  0  0  0  0  0  0  0  0  0  0
  -26.7723  -17.8020   20.3281 O   0  0  0  0  0  0  0  0  0  0  0  0
  -29.5786  -17.7986   23.3639 O   0  0  0  0  0  0  0  0  0  0  0  0
  -31.7224  -21.5409   21.3839 O   0  0  0  0  0  0  0  0  0  0  0  0
  -31.4172  -25.8663   19.2696 O   0  0  0  0  0  0  0  0  0  0  0  0
  -23.5564  -31.8305   23.5341 O   0  0  0  0  0  0  0  0  0  0  0  0
  -29.2761  -20.0709   15.2028 O   0  0  0  0  0  0  0  0  0  1  0  0
  -23.7667  -37.2992   22.8608 F   0  0  0  0  0  0  0  0  0  0  0  0
  -22.2734  -33.0484   21.4096 F   0  0  0  0  0  0  0  0  0  0  0  0
  1  2  1  0  0  0  0
  1  5  2  0  0  0  0
  2  6  2  0  0  0  0
  3  8  2  0  0  0  0
  3 15  1  0  0  0  0
  4  9  1  0  0  0  0
  4 15  2  0  0  0  0
  5 17  1  0  0  0  0
  6 19  1  0  0  0  0
  7 10  2  0  0  0  0
  7 18  1  0  0  0  0
  8 21  1  0  0  0  0
  9 21  2  0  0  0  0
 10 22  1  0  0  0  0
 11 12  2  0  0  0  0
 11 23  1  0  0  0  0
 12 24  1  0  0  0  0
 13 20  1  0  0  0  0
 13 22  2  0  0  0  0
 14 24  2  0  0  0  0
 14 25  1  0  0  0  0
 15 26  1  0  0  0  0
 16 26  1  0  0  0  0
 16 27  2  0  0  0  0
 16 28  1  0  0  0  0
 17 19  2  0  0  0  0
 17 33  1  0  0  0  0
 18 20  2  0  0  0  0
 18 34  1  0  0  0  0
 19 42  1  0  0  0  0
 20 35  1  0  0  0  0
 21 79  1  0  0  0  0
 22 80  1  0  0  0  0
 23 25  2  0  0  0  0
 23 79  1  0  0  0  0
 24 81  1  0  0  0  0
 25 82  1  0  0  0  0
 26 63  2  0  0  0  0
 27 64  1  0  0  0  0
 27 67  1  0  0  0  0
 28 68  1  0  0  0  0
 28 74  2  0  0  0  0
 29 43  1  0  0  0  0
 29 69  1  0  0  0  0
 29 75  2  0  0  0  0
 30 58  1  0  0  0  0
 30 65  1  0  0  0  0
 30 76  2  0  0  0  0
 31 59  1  0  0  0  0
 31 70  1  0  0  0  0
 31 77  2  0  0  0  0
 32 66  1  0  0  0  0
 32 71  1  0  0  0  0
 32 78  2  0  0  0  0
 33 36  1  0  0  0  0
 34 43  1  0  0  0  0
 35 65  1  0  0  0  0
 36 38  1  0  0  0  0
 37 39  1  0  0  0  0
 37 40  1  0  0  0  0
 38 42  1  0  0  0  0
 39 44  1  0  0  0  0
 40 66  1  0  0  0  0
 41 44  1  0  0  0  0
 41 66  1  0  0  0  0
 42 69  1  0  0  0  0
 43 65  1  0  0  0  0
 44 64  1  0  0  0  0
 45 59  1  0  0  0  0
 46 60  1  0  0  0  0
 47 61  1  0  0  0  0
 48 61  1  0  0  0  0
 49 61  1  0  0  0  0
 50 62  1  0  0  0  0
 51 62  1  0  0  0  0
 52 72  1  0  0  0  0
 53 54  1  0  0  0  0
 53 55  1  0  0  0  0
 54 60  1  0  0  0  0
 55 71  1  0  0  0  0
 56 62  1  0  0  0  0
 56 73  1  0  0  0  0
 57 62  1  0  0  0  0
 57 80  1  0  0  0  0
 58 61  1  0  0  0  0
 58 70  1  0  0  0  0
 59 72  1  0  0  0  0
 60 73  1  0  0  0  0
 63 64  1  0  0  0  0
M  CHG  2  72   1  73   1
M  ISO  4  32 100  57 101  71 100  80 101
M  END
> <Batch ID>
0084

> <Smiles>
CNC(C)C(=O)NC(C(=O)N1Cc2cc([101O:1][101CH2:1]C(C)(C)CNC(C)CCC[100NH:0][100C:0](=O)N3CCCC(n4nc(-c5ccc(Oc6ccc(F)cc6F)cc5)c(C(N)=O)c4N)C3)ccc2CC1C(=O)NC1CCCc2ccccc21)C(C)(C)C

> <Shape>
0.195

> <Color>
0.060

> <Negative vol penalty>
0.000

$$$$

  -OEChem-04052318543D

 83 91  0     1  0  0  0  0  0999 V2000
  -22.3131  -18.1965   33.2199 C   0  0  0  0  0  0  0  0  0  0  0  0
  -22.9309  -17.3236   32.3301 C   0  0  0  0  0  0  0  0  0  0  0  0
  -23.0740   -9.8689   19.9417 C   0  0  0  0  0  0  0  0  0  0  0  0
  -23.8384   -9.8746   22.2336 C   0  0  0  0  0  0  0  0  0  0  0  0
  -22.9263  -19.4047   33.5486 C   0  0  0  0  0  0  0  0  0  0  0  0
  -24.1620  -17.6591   31.7675 C   0  0  0  0  0  0  0  0  0  0  0  0
  -30.2529  -14.6666   29.4736 C   0  0  0  0  0  0  0  0  0  0  0  0
  -22.3314   -8.7151   20.1922 C   0  0  0  0  0  0  0  0  0  0  0  0
  -23.0957   -8.7207   22.4841 C   0  0  0  0  0  0  0  0  0  0  0  0
  -31.0849  -14.6390   28.3551 C   0  0  0  0  0  0  0  0  0  0  0  0
  -19.8692   -7.9205   23.0923 C   0  0  0  0  0  0  0  0  0  0  0  0
  -19.1146   -7.8792   24.2647 C   0  0  0  0  0  0  0  0  0  0  0  0
  -32.0879  -16.7174   29.0575 C   0  0  0  0  0  0  0  0  0  0  0  0
  -20.3586   -5.9419   24.9972 C   0  0  0  0  0  0  0  0  0  0  0  0
  -30.3132  -17.9579   25.3443 C   0  0  0  0  0  0  0  0  0  0  0  0
  -23.8276  -10.4486   20.9624 C   0  0  0  0  0  0  0  0  0  0  0  0
  -24.1676  -12.9741   20.8436 C   0  0  0  0  0  0  0  0  0  0  0  0
  -24.1700  -19.7508   32.9972 C   0  0  0  0  0  0  0  0  0  0  0  0
  -30.3248  -15.7272   30.3881 C   0  0  0  0  0  0  0  0  0  0  0  0
  -24.7918  -18.8737   32.0881 C   0  0  0  0  0  0  0  0  0  0  0  0
  -31.2576  -16.7549   30.1880 C   0  0  0  0  0  0  0  0  0  0  0  0
  -31.1775  -17.4811   24.3893 C   0  0  0  0  0  0  0  0  0  0  0  0
  -22.3422   -8.1410   21.4634 C   0  0  0  0  0  0  0  0  0  0  0  0
  -32.0005  -15.6660   28.1454 C   0  0  0  0  0  0  0  0  0  0  0  0
  -20.8685   -6.9724   22.8723 C   0  0  0  0  0  0  0  0  0  0  0  0
  -19.3593   -6.8899   25.2171 C   0  0  0  0  0  0  0  0  0  0  0  0
  -21.1132   -5.9832   23.8248 C   0  0  0  0  0  0  0  0  0  0  0  0
  -24.5954  -11.6402   20.7040 C   0  0  0  0  0  0  0  0  0  0  0  0
  -30.3896  -17.3640   23.2285 C   0  0  0  0  0  0  0  0  0  0  0  0
  -25.2586  -13.7245   20.4788 C   0  0  0  0  0  0  0  0  0  0  0  0
  -22.8976  -13.4888   21.2654 C   0  0  0  0  0  0  0  0  0  0  0  0
  -28.3049  -17.9697   31.3857 C   0  0  0  0  0  0  0  0  0  0  0  0
  -30.7026  -18.6563   33.4599 C   0  0  0  0  0  0  0  0  0  0  0  0
  -34.0352  -18.5226   34.1827 C   0  0  0  0  0  0  0  0  0  0  0  0
  -30.7421  -14.7468   20.6573 C   0  0  0  0  0  0  0  0  0  0  0  0
  -24.7717  -21.0891   33.3461 C   0  0  0  0  0  0  0  0  0  0  0  0
  -29.4389  -15.7286   31.6037 C   0  0  0  0  0  0  0  0  0  0  0  0
  -31.3883  -17.9057   31.1508 C   0  0  0  0  0  0  0  0  0  0  0  0
  -26.2531  -21.2010   32.9953 C   0  0  0  0  0  0  0  0  0  0  0  0
  -29.6013  -12.3635   18.2709 C   0  0  0  0  0  0  0  0  0  0  0  0
  -26.5094  -20.6748   31.5866 C   0  0  0  0  0  0  0  0  0  0  0  0
  -28.1649  -12.0685   18.7064 C   0  0  0  0  0  0  0  0  0  0  0  0
  -30.5206  -12.5839   19.4701 C   0  0  0  0  0  0  0  0  0  0  0  0
  -28.6211  -13.3127   20.8610 C   0  0  0  0  0  0  0  0  0  0  0  0
  -26.1390  -19.1909   31.4761 C   0  0  1  0  0  0  0  0  0  0  0  0
  -29.2413  -17.1200   32.1974 C   0  0  1  0  0  0  0  0  0  0  0  0
  -27.6448  -13.1384   19.6851 C   0  0  2  0  0  0  0  0  0  0  0  0
  -27.2176  -17.5011   26.1820 C   0  0  0  0  0  0  0  0  0  0  0  0
  -30.6261  -17.9543   20.7878 C   0  0  0  0  0  0  0  0  0  0  0  0
  -35.6998  -19.2004   35.9341 C   0  0  0  0  0  0  0  0  0  0  0  0
  -30.5574  -21.5415   32.4779 C   0  0  0  0  0  0  0  0  0  0  0  0
  -32.7998  -21.9354   33.5192 C   0  0  0  0  0  0  0  0  0  0  0  0
  -30.8583  -21.2942   34.9482 C   0  0  0  0  0  0  0  0  0  0  0  0
  -34.8164  -15.7140   34.6928 C   0  0  0  0  0  0  0  0  0  0  0  0
  -32.6406  -17.1589   24.5594 C   0  0  0  0  0  0  0  0  0  0  0  0
  -32.9339  -15.6603   24.6581 C   0  0  0  0  0  0  0  0  0  0  0  0
  -27.8815  -18.5626   25.3216 C   0  0  0  0  0  0  0  0  0  0  0  0
  -32.3088  -15.0021   25.8826 C   0  0  0  0  0  0  0  0  0  1  0  0
  -30.8090  -16.8965   21.8957 C   0  0  2  0  0  0  0  0  0  0  0  0
  -31.9100  -19.5621   33.4363 C   0  0  1  0  0  0  0  0  0  0  0  0
  -34.7777  -18.0980   35.4369 C   0  0  2  0  0  0  0  0  0  0  0  0
  -31.5278  -21.0628   33.5760 C   0  0  0  0  0  0  0  0  0  0  0  0
  -25.8595  -11.5454   20.2832 N   0  0  0  0  0  0  0  0  0  0  0  0
  -29.1221  -17.7363   23.4260 N   0  0  0  0  0  0  0  0  0  0  0  0
  -29.1070  -18.0919   24.7219 N   0  0  0  0  0  0  0  0  0  0  0  0
  -26.2354  -12.8293   20.1552 N   0  0  0  0  0  0  0  0  0  0  0  0
  -30.4957  -17.8652   32.3209 N   0  0  0  0  0  0  0  0  0  0  0  0
  -29.9711  -13.6114   20.3580 N   0  0  0  0  0  0  0  0  0  0  0  0
  -25.4680  -15.0562   20.4064 N   0  0  0  0  0  0  0  0  0  0  0  0
  -21.8869  -12.5787   21.6040 N   0  0  0  0  0  0  0  0  0  0  0  0
  -27.1710  -18.3669   32.0682 N   0  0  0  0  0  0  0  0  0  0  0  0
  -32.8067  -19.0744   34.4786 N   0  0  0  0  0  0  0  0  0  0  0  0
  -30.1440  -15.6746   21.5012 N   0  0  0  0  0  0  0  0  0  0  0  0
  -35.5992  -16.8843   35.1666 N   0  3  0  0  0  0  0  0  0  0  0  0
  -22.6607  -14.7192   21.3242 O   0  0  0  0  0  0  0  0  0  0  0  0
  -28.5909  -18.2459   30.2265 O   0  0  0  0  0  0  0  0  0  0  0  0
  -29.9740  -18.6455   34.4552 O   0  0  0  0  0  0  0  0  0  0  0  0
  -34.5003  -18.3825   33.0537 O   0  0  0  0  0  0  0  0  0  0  0  0
  -31.8770  -14.9234   20.2016 O   0  0  0  0  0  0  0  0  0  0  0  0
  -21.6174   -7.0153   21.7083 O   0  0  0  0  0  0  0  0  0  0  0  0
  -32.8133  -15.6418   27.0542 O   0  0  0  0  0  0  0  0  0  1  0  0
  -18.6356   -6.8513   26.3436 F   0  0  0  0  0  0  0  0  0  0  0  0
  -22.0727   -5.0705   23.6196 F   0  0  0  0  0  0  0  0  0  0  0  0
  1  2  1  0  0  0  0
  1  5  2  0  0  0  0
  2  6  2  0  0  0  0
  3  8  2  0  0  0  0
  3 16  1  0  0  0  0
  4  9  1  0  0  0  0
  4 16  2  0  0  0  0
  5 18  1  0  0  0  0
  6 20  1  0  0  0  0
  7 10  2  0  0  0  0
  7 19  1  0  0  0  0
  8 23  1  0  0  0  0
  9 23  2  0  0  0  0
 10 24  1  0  0  0  0
 11 12  2  0  0  0  0
 11 25  1  0  0  0  0
 12 26  1  0  0  0  0
 13 21  1  0  0  0  0
 13 24  2  0  0  0  0
 14 26  2  0  0  0  0
 14 27  1  0  0  0  0
 15 22  2  0  0  0  0
 15 65  1  0  0  0  0
 16 28  1  0  0  0  0
 17 28  1  0  0  0  0
 17 30  2  0  0  0  0
 17 31  1  0  0  0  0
 18 20  2  0  0  0  0
 18 36  1  0  0  0  0
 19 21  2  0  0  0  0
 19 37  1  0  0  0  0
 20 45  1  0  0  0  0
 21 38  1  0  0  0  0
 22 29  1  0  0  0  0
 22 55  1  0  0  0  0
 23 80  1  0  0  0  0
 24 81  1  0  0  0  0
 25 27  2  0  0  0  0
 25 80  1  0  0  0  0
 26 82  1  0  0  0  0
 27 83  1  0  0  0  0
 28 63  2  0  0  0  0
 29 59  1  0  0  0  0
 29 64  2  0  0  0  0
 30 66  1  0  0  0  0
 30 69  1  0  0  0  0
 31 70  1  0  0  0  0
 31 75  2  0  0  0  0
 32 46  1  0  0  0  0
 32 71  1  0  0  0  0
 32 76  2  0  0  0  0
 33 60  1  0  0  0  0
 33 67  1  0  0  0  0
 33 77  2  0  0  0  0
 34 61  1  0  0  0  0
 34 72  1  0  0  0  0
 34 78  2  0  0  0  0
 35 68  1  0  0  0  0
 35 73  1  0  0  0  0
 35 79  2  0  0  0  0
 36 39  1  0  0  0  0
 37 46  1  0  0  0  0
 38 67  1  0  0  0  0
 39 41  1  0  0  0  0
 40 42  1  0  0  0  0
 40 43  1  0  0  0  0
 41 45  1  0  0  0  0
 42 47  1  0  0  0  0
 43 68  1  0  0  0  0
 44 47  1  0  0  0  0
 44 68  1  0  0  0  0
 45 71  1  0  0  0  0
 46 67  1  0  0  0  0
 47 66  1  0  0  0  0
 48 57  1  0  0  0  0
 49 59  1  0  0  0  0
 50 61  1  0  0  0  0
 51 62  1  0  0  0  0
 52 62  1  0  0  0  0
 53 62  1  0  0  0  0
 54 74  1  0  0  0  0
 55 56  1  0  0  0  0
 56 58  1  0  0  0  0
 57 65  1  0  0  0  0
 58 81  1  0  0  0  0
 59 73  1  0  0  0  0
 60 62  1  0  0  0  0
 60 72  1  0  0  0  0
 61 74  1  0  0  0  0
 63 66  1  0  0  0  0
 64 65  1  0  0  0  0
M  CHG  1  74   1
M  ISO  4  35 100  58 101  73 100  81 101
M  END
> <Batch ID>
0084

> <Smiles>
CCn1cc(CC[101CH2:1][101O:1]c2ccc3c(c2)CN(C(=O)C(NC(=O)C(C)NC)C(C)(C)C)C(C(=O)NC2CCCc4ccccc42)C3)c(C(C)[100NH:0][100C:0](=O)N2CCCC(n3nc(-c4ccc(Oc5ccc(F)cc5F)cc4)c(C(N)=O)c3N)C2)n1

> <Shape>
0.171

> <Color>
0.196

> <Negative vol penalty>
0.000

$$$$

  -OEChem-04052318543D

 84 92  0     1  0  0  0  0  0999 V2000
  -18.8143  -22.4036   21.6549 C   0  0  0  0  0  0  0  0  0  0  0  0
  -20.1056  -22.2030   22.1320 C   0  0  0  0  0  0  0  0  0  0  0  0
  -26.1762  -13.2575   20.7675 C   0  0  0  0  0  0  0  0  0  0  0  0
  -24.4053  -14.7512   20.0821 C   0  0  0  0  0  0  0  0  0  0  0  0
  -18.5662  -23.4069   20.7190 C   0  0  0  0  0  0  0  0  0  0  0  0
  -21.1498  -23.0049   21.6726 C   0  0  0  0  0  0  0  0  0  0  0  0
  -27.3177  -25.9272   23.8482 C   0  0  0  0  0  0  0  0  0  0  0  0
  -25.2328  -12.3954   21.3264 C   0  0  0  0  0  0  0  0  0  0  0  0
  -23.4619  -13.8891   20.6410 C   0  0  0  0  0  0  0  0  0  0  0  0
  -28.6576  -26.0182   23.4738 C   0  0  0  0  0  0  0  0  0  0  0  0
  -23.0573  -10.0441   20.2439 C   0  0  0  0  0  0  0  0  0  0  0  0
  -23.1946   -8.6797   19.9888 C   0  0  0  0  0  0  0  0  0  0  0  0
  -28.0969  -27.7725   21.9159 C   0  0  0  0  0  0  0  0  0  0  0  0
  -31.4934  -23.7687   18.6593 C   0  0  0  0  0  0  0  0  0  0  0  0
  -29.5038  -24.8232   19.5042 C   0  0  0  0  0  0  0  0  0  0  0  0
  -23.4010   -8.2574   22.3586 C   0  0  0  0  0  0  0  0  0  0  0  0
  -25.7625  -14.4354   20.1454 C   0  0  0  0  0  0  0  0  0  0  0  0
  -27.2305  -15.3078   18.2503 C   0  0  0  0  0  0  0  0  0  0  0  0
  -19.6062  -24.2278   20.2552 C   0  0  0  0  0  0  0  0  0  0  0  0
  -26.3541  -26.7521   23.2504 C   0  0  0  0  0  0  0  0  0  0  0  0
  -20.9156  -24.0192   20.7287 C   0  0  0  0  0  0  0  0  0  0  0  0
  -26.7459  -27.6918   22.2863 C   0  0  0  0  0  0  0  0  0  0  0  0
  -30.8773  -24.8442   19.2895 C   0  0  0  0  0  0  0  0  0  0  0  0
  -23.8757  -12.7111   21.2631 C   0  0  0  0  0  0  0  0  0  0  0  0
  -29.0470  -26.9389   22.5054 C   0  0  0  0  0  0  0  0  0  0  0  0
  -23.0920  -10.5152   21.5564 C   0  0  0  0  0  0  0  0  0  0  0  0
  -23.3664   -7.7863   21.0461 C   0  0  0  0  0  0  0  0  0  0  0  0
  -23.2638   -9.6218   22.6138 C   0  0  0  0  0  0  0  0  0  0  0  0
  -26.7366  -15.3267   19.5684 C   0  0  0  0  0  0  0  0  0  0  0  0
  -30.6976  -22.7048   18.2661 C   0  0  0  0  0  0  0  0  0  0  0  0
  -28.7970  -23.7121   19.0731 C   0  0  0  0  0  0  0  0  0  0  0  0
  -28.1253  -16.3488   18.2040 C   0  0  0  0  0  0  0  0  0  0  0  0
  -26.9092  -14.4280   17.1647 C   0  0  0  0  0  0  0  0  0  0  0  0
  -23.7606  -26.2536   21.4815 C   0  0  0  0  0  0  0  0  0  0  0  0
  -23.3835  -29.4566   21.8294 C   0  0  0  0  0  0  0  0  0  0  0  0
  -24.8166  -32.4931   22.4397 C   0  0  0  0  0  0  0  0  0  0  0  0
  -28.6546  -21.4137   21.3532 C   0  0  0  0  0  0  0  0  0  0  0  0
  -19.2976  -25.2684   19.2080 C   0  0  0  0  0  0  0  0  0  0  0  0
  -24.9169  -26.6601   23.6846 C   0  0  0  0  0  0  0  0  0  0  0  0
  -25.7533  -28.6144   21.6289 C   0  0  0  0  0  0  0  0  0  0  0  0
  -20.3933  -26.3200   19.0529 C   0  0  0  0  0  0  0  0  0  0  0  0
  -31.1024  -18.8540   20.9881 C   0  0  0  0  0  0  0  0  0  0  0  0
  -21.7647  -25.6558   18.9833 C   0  0  0  0  0  0  0  0  0  0  0  0
  -30.3056  -17.6581   20.4640 C   0  0  0  0  0  0  0  0  0  0  0  0
  -30.2958  -19.6724   21.9940 C   0  0  0  0  0  0  0  0  0  0  0  0
  -28.1755  -18.9166   20.9906 C   0  0  0  0  0  0  0  0  0  0  0  0
  -22.0703  -24.8848   20.2731 C   0  0  1  0  0  0  0  0  0  0  0  0
  -23.9417  -27.1935   22.6397 C   0  0  1  0  0  0  0  0  0  0  0  0
  -28.9271  -18.0928   19.9310 C   0  0  2  0  0  0  0  0  0  0  0  0
  -31.3246  -21.5325   17.5884 C   0  0  0  0  0  0  0  0  0  0  0  0
  -26.6041  -22.8985   18.1494 C   0  0  0  0  0  0  0  0  0  0  0  0
  -24.2597  -34.9332   22.6224 C   0  0  0  0  0  0  0  0  0  0  0  0
  -23.1919  -29.6379   18.7896 C   0  0  0  0  0  0  0  0  0  0  0  0
  -23.5931  -32.1017   18.9809 C   0  0  0  0  0  0  0  0  0  0  0  0
  -21.5689  -31.0847   20.0254 C   0  0  0  0  0  0  0  0  0  0  0  0
  -25.7136  -32.6058   25.2578 C   0  0  0  0  0  0  0  0  0  0  0  0
  -31.6958  -26.0280   19.7391 C   0  0  0  0  0  0  0  0  0  0  0  0
  -32.2338  -25.8987   21.1658 C   0  0  0  0  0  0  0  0  0  0  0  0
  -26.9180  -23.0398   20.6466 C   0  0  0  0  0  0  0  0  0  0  0  0
  -31.1363  -25.8388   22.2219 C   0  0  0  0  0  0  0  0  0  1  0  0
  -27.3210  -23.6568   19.2856 C   0  0  1  0  0  0  0  0  0  0  0  0
  -23.8375  -30.6759   21.0637 C   0  0  1  0  0  0  0  0  0  0  0  0
  -24.4243  -33.6222   23.3755 C   0  0  2  0  0  0  0  0  0  0  0  0
  -23.0665  -30.8565   19.7257 C   0  0  0  0  0  0  0  0  0  0  0  0
  -27.2732  -16.3022   20.3062 N   0  0  0  0  0  0  0  0  0  0  0  0
  -29.3605  -22.6486   18.4575 N   0  0  0  0  0  0  0  0  0  0  0  0
  -28.1137  -16.9060   19.4488 N   0  0  0  0  0  0  0  0  0  0  0  0
  -24.3591  -28.4819   22.0827 N   0  0  0  0  0  0  0  0  0  0  0  0
  -29.0005  -20.0543   21.4262 N   0  0  0  0  0  0  0  0  0  0  0  0
  -28.9132  -16.8326   17.2203 N   0  0  0  0  0  0  0  0  0  0  0  0
  -25.9686  -13.4123   17.3839 N   0  0  0  0  0  0  0  0  0  0  0  0
  -22.4660  -25.7964   21.3252 N   0  0  0  0  0  0  0  0  0  0  0  0
  -23.7142  -31.8034   21.9813 N   0  0  0  0  0  0  0  0  0  0  0  0
  -27.4120  -21.6891   20.7957 N   0  0  0  0  0  0  0  0  0  0  0  0
  -25.4655  -33.8107   24.4250 N   0  3  0  0  0  0  0  0  0  0  0  0
  -27.4524  -14.5290   16.0386 O   0  0  0  0  0  0  0  0  0  0  0  0
  -24.7237  -25.9656   20.7807 O   0  0  0  0  0  0  0  0  0  0  0  0
  -22.2084  -29.3753   22.1956 O   0  0  0  0  0  0  0  0  0  0  0  0
  -25.9840  -32.2498   22.1421 O   0  0  0  0  0  0  0  0  0  0  0  0
  -29.4003  -22.3155   21.7501 O   0  0  0  0  0  0  0  0  0  0  0  0
  -22.9548  -11.8700   21.8081 O   0  0  0  0  0  0  0  0  0  0  0  0
  -30.3541  -27.0293   22.1376 O   0  0  0  0  0  0  0  0  0  1  0  0
  -23.4966   -6.4759   20.8011 F   0  0  0  0  0  0  0  0  0  0  0  0
  -23.2967  -10.0683   23.8768 F   0  0  0  0  0  0  0  0  0  0  0  0
  1  2  1  0  0  0  0
  1  5  2  0  0  0  0
  2  6  2  0  0  0  0
  3  8  2  0  0  0  0
  3 17  1  0  0  0  0
  4  9  1  0  0  0  0
  4 17  2  0  0  0  0
  5 19  1  0  0  0  0
  6 21  1  0  0  0  0
  7 10  2  0  0  0  0
  7 20  1  0  0  0  0
  8 24  1  0  0  0  0
  9 24  2  0  0  0  0
 10 25  1  0  0  0  0
 11 12  2  0  0  0  0
 11 26  1  0  0  0  0
 12 27  1  0  0  0  0
 13 22  1  0  0  0  0
 13 25  2  0  0  0  0
 14 23  1  0  0  0  0
 14 30  2  0  0  0  0
 15 23  2  0  0  0  0
 15 31  1  0  0  0  0
 16 27  2  0  0  0  0
 16 28  1  0  0  0  0
 17 29  1  0  0  0  0
 18 29  1  0  0  0  0
 18 32  2  0  0  0  0
 18 33  1  0  0  0  0
 19 21  2  0  0  0  0
 19 38  1  0  0  0  0
 20 22  2  0  0  0  0
 20 39  1  0  0  0  0
 21 47  1  0  0  0  0
 22 40  1  0  0  0  0
 23 57  1  0  0  0  0
 24 81  1  0  0  0  0
 25 82  1  0  0  0  0
 26 28  2  0  0  0  0
 26 81  1  0  0  0  0
 27 83  1  0  0  0  0
 28 84  1  0  0  0  0
 29 65  2  0  0  0  0
 30 50  1  0  0  0  0
 30 66  1  0  0  0  0
 31 61  1  0  0  0  0
 31 66  2  0  0  0  0
 32 67  1  0  0  0  0
 32 70  1  0  0  0  0
 33 71  1  0  0  0  0
 33 76  2  0  0  0  0
 34 48  1  0  0  0  0
 34 72  1  0  0  0  0
 34 77  2  0  0  0  0
 35 62  1  0  0  0  0
 35 68  1  0  0  0  0
 35 78  2  0  0  0  0
 36 63  1  0  0  0  0
 36 73  1  0  0  0  0
 36 79  2  0  0  0  0
 37 69  1  0  0  0  0
 37 74  1  0  0  0  0
 37 80  2  0  0  0  0
 38 41  1  0  0  0  0
 39 48  1  0  0  0  0
 40 68  1  0  0  0  0
 41 43  1  0  0  0  0
 42 44  1  0  0  0  0
 42 45  1  0  0  0  0
 43 47  1  0  0  0  0
 44 49  1  0  0  0  0
 45 69  1  0  0  0  0
 46 49  1  0  0  0  0
 46 69  1  0  0  0  0
 47 72  1  0  0  0  0
 48 68  1  0  0  0  0
 49 67  1  0  0  0  0
 51 61  1  0  0  0  0
 52 63  1  0  0  0  0
 53 64  1  0  0  0  0
 54 64  1  0  0  0  0
 55 64  1  0  0  0  0
 56 75  1  0  0  0  0
 57 58  1  0  0  0  0
 58 60  1  0  0  0  0
 59 61  1  0  0  0  0
 59 74  1  0  0  0  0
 60 82  1  0  0  0  0
 62 64  1  0  0  0  0
 62 73  1  0  0  0  0
 63 75  1  0  0  0  0
 65 67  1  0  0  0  0
M  CHG  1  75   1
M  ISO  4  37 100  60 101  74 100  82 101
M  END
> <Batch ID>
0084

> <Smiles>
CNC(C)C(=O)NC(C(=O)N1Cc2cc([101O:1][101CH2:1]CCc3cc(C)nc(C(C)C[100NH:0][100C:0](=O)N4CCCC(n5nc(-c6ccc(Oc7ccc(F)cc7F)cc6)c(C(N)=O)c5N)C4)c3)ccc2CC1C(=O)NC1CCCc2ccccc21)C(C)(C)C

> <Shape>
0.251

> <Color>
0.056

> <Negative vol penalty>
0.000

$$$$

  -OEChem-04052318543D

 86 94  0     1  0  0  0  0  0999 V2000
  -17.5129  -26.3326   22.5978 C   0  0  0  0  0  0  0  0  0  0  0  0
  -18.8198  -25.8562   22.6206 C   0  0  0  0  0  0  0  0  0  0  0  0
  -24.1557  -15.2156   20.8281 C   0  0  0  0  0  0  0  0  0  0  0  0
  -26.1270  -16.5311   20.3587 C   0  0  0  0  0  0  0  0  0  0  0  0
  -17.2538  -27.6335   22.1683 C   0  0  0  0  0  0  0  0  0  0  0  0
  -19.8682  -26.6802   22.2129 C   0  0  0  0  0  0  0  0  0  0  0  0
  -25.5511  -26.8069   24.4921 C   0  0  0  0  0  0  0  0  0  0  0  0
  -24.7321  -14.1216   20.1829 C   0  0  0  0  0  0  0  0  0  0  0  0
  -26.7035  -15.4370   19.7134 C   0  0  0  0  0  0  0  0  0  0  0  0
  -26.7473  -26.2344   24.0618 C   0  0  0  0  0  0  0  0  0  0  0  0
  -28.2749  -12.5758   20.5878 C   0  0  0  0  0  0  0  0  0  0  0  0
  -29.6082  -12.2842   20.8755 C   0  0  0  0  0  0  0  0  0  0  0  0
  -27.3356  -28.3018   22.9667 C   0  0  0  0  0  0  0  0  0  0  0  0
  -28.2425  -23.9264   18.7027 C   0  0  0  0  0  0  0  0  0  0  0  0
  -25.8775  -24.2792   18.4445 C   0  0  0  0  0  0  0  0  0  0  0  0
  -30.1776  -12.5909   18.5477 C   0  0  0  0  0  0  0  0  0  0  0  0
  -24.8532  -16.4204   20.9160 C   0  0  0  0  0  0  0  0  0  0  0  0
  -24.3603  -17.8850   22.9457 C   0  0  0  0  0  0  0  0  0  0  0  0
  -18.3006  -28.4770   21.7643 C   0  0  0  0  0  0  0  0  0  0  0  0
  -25.2327  -28.1298   24.1532 C   0  0  0  0  0  0  0  0  0  0  0  0
  -19.6227  -27.9931   21.7764 C   0  0  0  0  0  0  0  0  0  0  0  0
  -26.1359  -28.8895   23.3961 C   0  0  0  0  0  0  0  0  0  0  0  0
  -27.0296  -23.5696   18.1243 C   0  0  0  0  0  0  0  0  0  0  0  0
  -26.0060  -14.2322   19.6255 C   0  0  0  0  0  0  0  0  0  0  0  0
  -27.6385  -26.9809   23.2965 C   0  0  0  0  0  0  0  0  0  0  0  0
  -27.8928  -12.8748   19.2799 C   0  0  0  0  0  0  0  0  0  0  0  0
  -30.5596  -12.2918   19.8555 C   0  0  0  0  0  0  0  0  0  0  0  0
  -28.8442  -12.8824   18.2599 C   0  0  0  0  0  0  0  0  0  0  0  0
  -24.2580  -17.5511   21.5819 C   0  0  0  0  0  0  0  0  0  0  0  0
  -28.2501  -24.9920   19.5883 C   0  0  0  0  0  0  0  0  0  0  0  0
  -25.9910  -25.3289   19.3418 C   0  0  0  0  0  0  0  0  0  0  0  0
  -23.6231  -19.0368   23.0734 C   0  0  0  0  0  0  0  0  0  0  0  0
  -25.0592  -17.2140   24.0026 C   0  0  0  0  0  0  0  0  0  0  0  0
  -22.9105  -29.5219   22.4879 C   0  0  0  0  0  0  0  0  0  0  0  0
  -24.3105  -32.2467   23.5546 C   0  0  0  0  0  0  0  0  0  0  0  0
  -27.1176  -33.7956   24.7242 C   0  0  0  0  0  0  0  0  0  0  0  0
  -22.3568  -23.8785   20.1631 C   0  0  0  0  0  0  0  0  0  0  0  0
  -17.9665  -29.8597   21.2632 C   0  0  0  0  0  0  0  0  0  0  0  0
  -23.9505  -28.7412   24.6478 C   0  0  0  0  0  0  0  0  0  0  0  0
  -25.8504  -30.3203   23.0225 C   0  0  0  0  0  0  0  0  0  0  0  0
  -19.1725  -30.7937   21.2028 C   0  0  0  0  0  0  0  0  0  0  0  0
  -20.0387  -21.1899   20.4354 C   0  0  0  0  0  0  0  0  0  0  0  0
  -20.3595  -30.0913   20.5514 C   0  0  0  0  0  0  0  0  0  0  0  0
  -20.8999  -20.0085   20.8856 C   0  0  0  0  0  0  0  0  0  0  0  0
  -20.7878  -22.0951   19.4601 C   0  0  0  0  0  0  0  0  0  0  0  0
  -22.9589  -21.3921   20.3907 C   0  0  0  0  0  0  0  0  0  0  0  0
  -20.7894  -28.8649   21.3653 C   0  0  1  0  0  0  0  0  0  0  0  0
  -23.4944  -29.9320   23.8103 C   0  0  1  0  0  0  0  0  0  0  0  0
  -22.2658  -20.4813   21.4185 C   0  0  2  0  0  0  0  0  0  0  0  0
  -27.9640  -36.0359   25.4738 C   0  0  0  0  0  0  0  0  0  0  0  0
  -27.4333  -21.1005   17.8301 C   0  0  0  0  0  0  0  0  0  0  0  0
  -27.8786  -22.6833   15.9242 C   0  0  0  0  0  0  0  0  0  0  0  0
  -25.5456  -22.1260   16.5784 C   0  0  0  0  0  0  0  0  0  0  0  0
  -24.4536  -33.1627   20.6476 C   0  0  0  0  0  0  0  0  0  0  0  0
  -26.1143  -34.8998   21.3496 C   0  0  0  0  0  0  0  0  0  0  0  0
  -23.7973  -34.9469   22.2725 C   0  0  0  0  0  0  0  0  0  0  0  0
  -27.7395  -32.7832   27.4347 C   0  0  0  0  0  0  0  0  0  0  0  0
  -29.5477  -25.4084   20.2338 C   0  0  0  0  0  0  0  0  0  0  0  0
  -24.7745  -26.1110   19.7097 C   0  0  0  0  0  0  0  0  0  0  0  0
  -29.8315  -24.6992   21.5596 C   0  0  0  0  0  0  0  0  0  0  0  0
  -24.0276  -25.5482   20.9245 C   0  0  0  0  0  0  0  0  0  0  0  0
  -28.8091  -25.0160   22.6448 C   0  0  0  0  0  0  0  0  0  1  0  0
  -25.4042  -33.1558   23.0481 C   0  0  1  0  0  0  0  0  0  0  0  0
  -27.3392  -34.7193   25.9083 C   0  0  2  0  0  0  0  0  0  0  0  0
  -26.9647  -22.4311   17.1634 C   0  0  0  0  0  0  0  0  0  0  0  0
  -24.9472  -34.0138   21.8347 C   0  0  0  0  0  0  0  0  0  0  0  0
  -23.5144  -18.4205   20.8926 N   0  0  0  0  0  0  0  0  0  0  0  0
  -27.1517  -25.7050   19.9240 N   0  0  0  0  0  0  0  0  0  0  0  0
  -23.1425  -19.3119   21.8270 N   0  0  0  0  0  0  0  0  0  0  0  0
  -24.5808  -30.8713   23.5245 N   0  0  0  0  0  0  0  0  0  0  0  0
  -22.0737  -22.5095   20.0263 N   0  0  0  0  0  0  0  0  0  0  0  0
  -23.3454  -19.8310   24.1291 N   0  0  0  0  0  0  0  0  0  0  0  0
  -25.7669  -16.0433   23.6977 N   0  0  0  0  0  0  0  0  0  0  0  0
  -21.5522  -29.2708   22.5263 N   0  0  0  0  0  0  0  0  0  0  0  0
  -25.8513  -33.9359   24.1970 N   0  0  0  0  0  0  0  0  0  0  0  0
  -23.5949  -24.1846   20.7146 N   0  0  0  0  0  0  0  0  0  0  0  0
  -28.2422  -34.0767   26.9046 N   0  3  0  0  0  0  0  0  0  0  0  0
  -25.0427  -17.6310   25.1855 O   0  0  0  0  0  0  0  0  0  0  0  0
  -23.6381  -29.4408   21.5053 O   0  0  0  0  0  0  0  0  0  0  0  0
  -23.2581  -32.7393   23.9685 O   0  0  0  0  0  0  0  0  0  0  0  0
  -27.9827  -33.0293   24.3061 O   0  0  0  0  0  0  0  0  0  0  0  0
  -21.5626  -24.7625   19.8242 O   0  0  0  0  0  0  0  0  0  0  0  0
  -26.5688  -13.1648   18.9960 O   0  0  0  0  0  0  0  0  0  0  0  0
  -28.8064  -26.4244   22.8746 O   0  0  0  0  0  0  0  0  0  1  0  0
  -31.8402  -12.0134   20.1322 F   0  0  0  0  0  0  0  0  0  0  0  0
  -28.4834  -13.1701   17.0018 F   0  0  0  0  0  0  0  0  0  0  0  0
  1  2  1  0  0  0  0
  1  5  2  0  0  0  0
  2  6  2  0  0  0  0
  3  8  2  0  0  0  0
  3 17  1  0  0  0  0
  4  9  1  0  0  0  0
  4 17  2  0  0  0  0
  5 19  1  0  0  0  0
  6 21  1  0  0  0  0
  7 10  2  0  0  0  0
  7 20  1  0  0  0  0
  8 24  1  0  0  0  0
  9 24  2  0  0  0  0
 10 25  1  0  0  0  0
 11 12  2  0  0  0  0
 11 26  1  0  0  0  0
 12 27  1  0  0  0  0
 13 22  1  0  0  0  0
 13 25  2  0  0  0  0
 14 23  2  0  0  0  0
 14 30  1  0  0  0  0
 15 23  1  0  0  0  0
 15 31  2  0  0  0  0
 16 27  2  0  0  0  0
 16 28  1  0  0  0  0
 17 29  1  0  0  0  0
 18 29  1  0  0  0  0
 18 32  2  0  0  0  0
 18 33  1  0  0  0  0
 19 21  2  0  0  0  0
 19 38  1  0  0  0  0
 20 22  2  0  0  0  0
 20 39  1  0  0  0  0
 21 47  1  0  0  0  0
 22 40  1  0  0  0  0
 23 65  1  0  0  0  0
 24 83  1  0  0  0  0
 25 84  1  0  0  0  0
 26 28  2  0  0  0  0
 26 83  1  0  0  0  0
 27 85  1  0  0  0  0
 28 86  1  0  0  0  0
 29 67  2  0  0  0  0
 30 58  1  0  0  0  0
 30 68  2  0  0  0  0
 31 59  1  0  0  0  0
 31 68  1  0  0  0  0
 32 69  1  0  0  0  0
 32 72  1  0  0  0  0
 33 73  1  0  0  0  0
 33 78  2  0  0  0  0
 34 48  1  0  0  0  0
 34 74  1  0  0  0  0
 34 79  2  0  0  0  0
 35 63  1  0  0  0  0
 35 70  1  0  0  0  0
 35 80  2  0  0  0  0
 36 64  1  0  0  0  0
 36 75  1  0  0  0  0
 36 81  2  0  0  0  0
 37 71  1  0  0  0  0
 37 76  1  0  0  0  0
 37 82  2  0  0  0  0
 38 41  1  0  0  0  0
 39 48  1  0  0  0  0
 40 70  1  0  0  0  0
 41 43  1  0  0  0  0
 42 44  1  0  0  0  0
 42 45  1  0  0  0  0
 43 47  1  0  0  0  0
 44 49  1  0  0  0  0
 45 71  1  0  0  0  0
 46 49  1  0  0  0  0
 46 71  1  0  0  0  0
 47 74  1  0  0  0  0
 48 70  1  0  0  0  0
 49 69  1  0  0  0  0
 50 64  1  0  0  0  0
 51 65  1  0  0  0  0
 52 65  1  0  0  0  0
 53 65  1  0  0  0  0
 54 66  1  0  0  0  0
 55 66  1  0  0  0  0
 56 66  1  0  0  0  0
 57 77  1  0  0  0  0
 58 60  1  0  0  0  0
 59 61  1  0  0  0  0
 60 62  1  0  0  0  0
 61 76  1  0  0  0  0
 62 84  1  0  0  0  0
 63 66  1  0  0  0  0
 63 75  1  0  0  0  0
 64 77  1  0  0  0  0
 67 69  1  0  0  0  0
M  CHG  1  77   1
M  ISO  4  37 100  62 101  76 100  84 101
M  END
> <Batch ID>
0084

> <Smiles>
CNC(C)C(=O)NC(C(=O)N1Cc2cc([101O:1][101CH2:1]CCc3cc(C(C)(C)C)cc(CC[100NH:0][100C:0](=O)N4CCCC(n5nc(-c6ccc(Oc7ccc(F)cc7F)cc6)c(C(N)=O)c5N)C4)n3)ccc2CC1C(=O)NC1CCCc2ccccc21)C(C)(C)C

> <Shape>
0.218

> <Color>
0.075

> <Negative vol penalty>
0.000

$$$$

  -OEChem-04052318543D

 87 95  0     1  0  0  0  0  0999 V2000
  -13.6355  -21.2069   25.2745 C   0  0  0  0  0  0  0  0  0  0  0  0
  -14.0059  -19.8913   25.0151 C   0  0  0  0  0  0  0  0  0  0  0  0
  -26.2843  -25.4991   18.3735 C   0  0  0  0  0  0  0  0  0  0  0  0
  -26.5583  -25.6637   20.7683 C   0  0  0  0  0  0  0  0  0  0  0  0
  -14.3485  -22.2573   24.6981 C   0  0  0  0  0  0  0  0  0  0  0  0
  -15.0890  -19.6252   24.1782 C   0  0  0  0  0  0  0  0  0  0  0  0
  -20.3975  -14.9062   23.2469 C   0  0  0  0  0  0  0  0  0  0  0  0
  -25.3303  -26.5159   18.4128 C   0  0  0  0  0  0  0  0  0  0  0  0
  -25.6043  -26.6806   20.8076 C   0  0  0  0  0  0  0  0  0  0  0  0
  -20.9541  -14.0917   22.2617 C   0  0  0  0  0  0  0  0  0  0  0  0
  -25.4670  -29.9918   20.1460 C   0  0  0  0  0  0  0  0  0  0  0  0
  -25.7541  -31.1183   20.9167 C   0  0  0  0  0  0  0  0  0  0  0  0
  -22.1612  -15.9873   21.3849 C   0  0  0  0  0  0  0  0  0  0  0  0
  -23.7932  -30.6966   22.2636 C   0  0  0  0  0  0  0  0  0  0  0  0
  -27.7981  -14.3037   19.8874 C   0  0  0  0  0  0  0  0  0  0  0  0
  -29.6568  -13.3354   20.6762 C   0  0  0  0  0  0  0  0  0  0  0  0
  -26.8983  -25.0730   19.5513 C   0  0  0  0  0  0  0  0  0  0  0  0
  -29.2736  -24.1663   19.3428 C   0  0  0  0  0  0  0  0  0  0  0  0
  -15.4469  -22.0041   23.8614 C   0  0  0  0  0  0  0  0  0  0  0  0
  -20.7107  -16.2720   23.3019 C   0  0  0  0  0  0  0  0  0  0  0  0
  -15.8166  -20.6731   23.5889 C   0  0  0  0  0  0  0  0  0  0  0  0
  -21.6092  -16.8165   22.3733 C   0  0  0  0  0  0  0  0  0  0  0  0
  -27.5676  -12.9465   19.9321 C   0  0  0  0  0  0  0  0  0  0  0  0
  -28.7435  -12.3338   20.4311 C   0  0  0  0  0  0  0  0  0  0  0  0
  -24.9903  -27.1067   19.6298 C   0  0  0  0  0  0  0  0  0  0  0  0
  -21.8338  -14.6328   21.3288 C   0  0  0  0  0  0  0  0  0  0  0  0
  -24.3429  -29.2177   20.4340 C   0  0  0  0  0  0  0  0  0  0  0  0
  -24.9172  -31.4707   21.9756 C   0  0  0  0  0  0  0  0  0  0  0  0
  -23.5060  -29.5701   21.4928 C   0  0  0  0  0  0  0  0  0  0  0  0
  -27.8834  -24.0223   19.5115 C   0  0  0  0  0  0  0  0  0  0  0  0
  -29.7585  -22.8817   19.3764 C   0  0  0  0  0  0  0  0  0  0  0  0
  -30.0566  -25.3550   19.1710 C   0  0  0  0  0  0  0  0  0  0  0  0
  -19.0471  -18.9673   23.0348 C   0  0  0  0  0  0  0  0  0  0  0  0
  -21.8734  -20.3347   23.8501 C   0  0  0  0  0  0  0  0  0  0  0  0
  -29.8883  -17.9353   21.7835 C   0  0  0  0  0  0  0  0  0  0  0  0
  -25.2765  -20.1054   23.9647 C   0  0  0  0  0  0  0  0  0  0  0  0
  -16.1578  -23.1713   23.2235 C   0  0  0  0  0  0  0  0  0  0  0  0
  -20.1227  -17.1316   24.3872 C   0  0  0  0  0  0  0  0  0  0  0  0
  -21.9937  -18.2724   22.4016 C   0  0  0  0  0  0  0  0  0  0  0  0
  -17.5248  -22.8110   22.6474 C   0  0  0  0  0  0  0  0  0  0  0  0
  -27.3587  -18.4407   19.2198 C   0  0  0  0  0  0  0  0  0  0  0  0
  -17.4380  -21.5255   21.8310 C   0  0  0  0  0  0  0  0  0  0  0  0
  -27.3671  -19.9622   19.0780 C   0  0  0  0  0  0  0  0  0  0  0  0
  -27.6078  -18.0102   20.6630 C   0  0  0  0  0  0  0  0  0  0  0  0
  -28.8745  -20.0890   21.1088 C   0  0  0  0  0  0  0  0  0  0  0  0
  -17.0011  -20.3445   22.7062 C   0  0  1  0  0  0  0  0  0  0  0  0
  -20.1125  -18.6157   24.0343 C   0  0  1  0  0  0  0  0  0  0  0  0
  -28.6570  -20.5639   19.6624 C   0  0  2  0  0  0  0  0  0  0  0  0
  -27.3158  -21.3968   24.6506 C   0  0  0  0  0  0  0  0  0  0  0  0
  -30.3936  -10.5993   21.2149 C   0  0  0  0  0  0  0  0  0  0  0  0
  -28.8170  -10.0715   19.3250 C   0  0  0  0  0  0  0  0  0  0  0  0
  -27.9819  -10.1945   21.6635 C   0  0  0  0  0  0  0  0  0  0  0  0
  -28.5078  -16.1001   22.7106 C   0  0  0  0  0  0  0  0  0  0  0  0
  -30.9976  -15.9077   22.6011 C   0  0  0  0  0  0  0  0  0  0  0  0
  -21.6102  -22.0708   21.3548 C   0  0  0  0  0  0  0  0  0  0  0  0
  -24.0422  -22.6257   21.5693 C   0  0  0  0  0  0  0  0  0  0  0  0
  -22.4523  -23.2742   23.3789 C   0  0  0  0  0  0  0  0  0  0  0  0
  -26.0549  -18.0487   25.9454 C   0  0  0  0  0  0  0  0  0  0  0  0
  -26.2928  -12.2522   19.5238 C   0  0  0  0  0  0  0  0  0  0  0  0
  -25.0574  -12.7180   20.3023 C   0  0  0  0  0  0  0  0  0  0  0  0
  -23.7893  -11.9490   19.9288 C   0  0  0  0  0  0  0  0  0  0  0  0
  -29.6989  -15.8252   20.4547 C   0  0  0  0  0  0  0  0  0  0  0  0
  -22.5771  -12.4653   20.6921 C   0  0  0  0  0  0  0  0  0  1  0  0
  -23.0749  -20.8410   23.0893 C   0  0  1  0  0  0  0  0  0  0  0  0
  -26.2677  -20.3823   25.0806 C   0  0  2  0  0  0  0  0  0  0  0  0
  -28.9620  -10.8906   20.6516 C   0  0  0  0  0  0  0  0  0  0  0  0
  -29.7494  -16.4366   21.8761 C   0  0  0  0  0  0  0  0  0  0  0  0
  -22.7864  -22.1759   22.3461 C   0  0  0  0  0  0  0  0  0  0  0  0
  -27.5093  -22.7467   19.6425 N   0  0  0  0  0  0  0  0  0  0  0  0
  -29.0712  -14.5286   20.3423 N   0  0  0  0  0  0  0  0  0  0  0  0
  -28.6716  -22.0776   19.5559 N   0  0  0  0  0  0  0  0  0  0  0  0
  -21.3874  -19.0732   23.4781 N   0  0  0  0  0  0  0  0  0  0  0  0
  -28.8306  -18.6263   21.1918 N   0  0  0  0  0  0  0  0  0  0  0  0
  -31.0043  -22.3728   19.2696 N   0  0  0  0  0  0  0  0  0  0  0  0
  -29.3989  -26.5926   19.1604 N   0  0  0  0  0  0  0  0  0  0  0  0
  -18.1109  -19.8689   23.5040 N   0  0  0  0  0  0  0  0  0  0  0  0
  -24.1663  -20.9183   24.0543 N   0  0  0  0  0  0  0  0  0  0  0  0
  -26.9645  -19.1263   25.4780 N   0  3  0  0  0  0  0  0  0  0  0  0
  -31.3007  -25.3197   19.0146 O   0  0  0  0  0  0  0  0  0  0  0  0
  -19.0734  -18.4595   21.9198 O   0  0  0  0  0  0  0  0  0  0  0  0
  -21.3883  -21.0296   24.7465 O   0  0  0  0  0  0  0  0  0  0  0  0
  -30.9082  -18.4735   22.2219 O   0  0  0  0  0  0  0  0  0  0  0  0
  -25.4695  -19.2557   23.0979 O   0  0  0  0  0  0  0  0  0  0  0  0
  -24.0596  -28.0991   19.6684 O   0  0  0  0  0  0  0  0  0  0  0  0
  -22.3779  -13.8401   20.3657 O   0  0  0  0  0  0  0  0  0  1  0  0
  -25.1939  -32.5517   22.7166 F   0  0  0  0  0  0  0  0  0  0  0  0
  -22.4253  -28.8296   21.7751 F   0  0  0  0  0  0  0  0  0  0  0  0
  1  2  1  0  0  0  0
  1  5  2  0  0  0  0
  2  6  2  0  0  0  0
  3  8  2  0  0  0  0
  3 17  1  0  0  0  0
  4  9  1  0  0  0  0
  4 17  2  0  0  0  0
  5 19  1  0  0  0  0
  6 21  1  0  0  0  0
  7 10  2  0  0  0  0
  7 20  1  0  0  0  0
  8 25  1  0  0  0  0
  9 25  2  0  0  0  0
 10 26  1  0  0  0  0
 11 12  2  0  0  0  0
 11 27  1  0  0  0  0
 12 28  1  0  0  0  0
 13 22  1  0  0  0  0
 13 26  2  0  0  0  0
 14 28  2  0  0  0  0
 14 29  1  0  0  0  0
 15 23  2  0  0  0  0
 15 70  1  0  0  0  0
 16 24  2  0  0  0  0
 16 70  1  0  0  0  0
 17 30  1  0  0  0  0
 18 30  1  0  0  0  0
 18 31  2  0  0  0  0
 18 32  1  0  0  0  0
 19 21  2  0  0  0  0
 19 37  1  0  0  0  0
 20 22  2  0  0  0  0
 20 38  1  0  0  0  0
 21 46  1  0  0  0  0
 22 39  1  0  0  0  0
 23 24  1  0  0  0  0
 23 59  1  0  0  0  0
 24 66  1  0  0  0  0
 25 84  1  0  0  0  0
 26 85  1  0  0  0  0
 27 29  2  0  0  0  0
 27 84  1  0  0  0  0
 28 86  1  0  0  0  0
 29 87  1  0  0  0  0
 30 69  2  0  0  0  0
 31 71  1  0  0  0  0
 31 74  1  0  0  0  0
 32 75  1  0  0  0  0
 32 79  2  0  0  0  0
 33 47  1  0  0  0  0
 33 76  1  0  0  0  0
 33 80  2  0  0  0  0
 34 64  1  0  0  0  0
 34 72  1  0  0  0  0
 34 81  2  0  0  0  0
 35 67  1  0  0  0  0
 35 73  1  0  0  0  0
 35 82  2  0  0  0  0
 36 65  1  0  0  0  0
 36 77  1  0  0  0  0
 36 83  2  0  0  0  0
 37 40  1  0  0  0  0
 38 47  1  0  0  0  0
 39 72  1  0  0  0  0
 40 42  1  0  0  0  0
 41 43  1  0  0  0  0
 41 44  1  0  0  0  0
 42 46  1  0  0  0  0
 43 48  1  0  0  0  0
 44 73  1  0  0  0  0
 45 48  1  0  0  0  0
 45 73  1  0  0  0  0
 46 76  1  0  0  0  0
 47 72  1  0  0  0  0
 48 71  1  0  0  0  0
 49 65  1  0  0  0  0
 50 66  1  0  0  0  0
 51 66  1  0  0  0  0
 52 66  1  0  0  0  0
 53 67  1  0  0  0  0
 54 67  1  0  0  0  0
 55 68  1  0  0  0  0
 56 68  1  0  0  0  0
 57 68  1  0  0  0  0
 58 78  1  0  0  0  0
 59 60  1  0  0  0  0
 60 61  1  0  0  0  0
 61 63  1  0  0  0  0
 62 67  1  0  0  0  0
 62 70  1  0  0  0  0
 63 85  1  0  0  0  0
 64 68  1  0  0  0  0
 64 77  1  0  0  0  0
 65 78  1  0  0  0  0
 69 71  1  0  0  0  0
M  CHG  1  78   1
M  ISO  4  35 100  63 101  67 100  85 101
M  END
> <Batch ID>
0084

> <Smiles>
CNC(C)C(=O)NC(C(=O)N1Cc2cc([101O:1][101CH2:1]CCCc3cn(C[100C:0](C)(C)[100C:0](=O)N4CCCC(n5nc(-c6ccc(Oc7ccc(F)cc7F)cc6)c(C(N)=O)c5N)C4)cc3C(C)(C)C)ccc2CC1C(=O)NC1CCCc2ccccc21)C(C)(C)C

> <Shape>
0.225

> <Color>
0.047

> <Negative vol penalty>
0.000

$$$$

  -OEChem-04052318543D

 86 94  0     1  0  0  0  0  0999 V2000
  -29.6848  -31.0847   22.4588 C   0  0  0  0  0  0  0  0  0  0  0  0
  -29.0526  -29.9529   22.9636 C   0  0  0  0  0  0  0  0  0  0  0  0
  -23.9391  -10.3471   23.0344 C   0  0  0  0  0  0  0  0  0  0  0  0
  -24.3308  -12.3424   24.3391 C   0  0  0  0  0  0  0  0  0  0  0  0
  -28.9658  -32.2676   22.2924 C   0  0  0  0  0  0  0  0  0  0  0  0
  -27.7011  -30.0037   23.3033 C   0  0  0  0  0  0  0  0  0  0  0  0
  -25.1282  -25.9694   21.6451 C   0  0  0  0  0  0  0  0  0  0  0  0
  -23.4435   -9.7031   24.1681 C   0  0  0  0  0  0  0  0  0  0  0  0
  -23.8351  -11.6985   25.4728 C   0  0  0  0  0  0  0  0  0  0  0  0
  -25.2593  -24.7875   22.3728 C   0  0  0  0  0  0  0  0  0  0  0  0
  -20.5669   -9.6488   25.9444 C   0  0  0  0  0  0  0  0  0  0  0  0
  -19.3899   -8.9127   25.8092 C   0  0  0  0  0  0  0  0  0  0  0  0
  -27.4551  -19.2065   25.2486 C   0  0  0  0  0  0  0  0  0  0  0  0
  -28.0450  -18.3367   24.3484 C   0  0  0  0  0  0  0  0  0  0  0  0
  -23.1483  -25.2266   23.4546 C   0  0  0  0  0  0  0  0  0  0  0  0
  -20.5591   -6.9157   26.5037 C   0  0  0  0  0  0  0  0  0  0  0  0
  -24.3828  -11.6667   23.1199 C   0  0  0  0  0  0  0  0  0  0  0  0
  -24.1651  -13.0882   21.0129 C   0  0  0  0  0  0  0  0  0  0  0  0
  -27.6024  -32.3302   22.6211 C   0  0  0  0  0  0  0  0  0  0  0  0
  -24.0096  -26.7957   21.8249 C   0  0  0  0  0  0  0  0  0  0  0  0
  -26.9635  -31.1890   23.1423 C   0  0  0  0  0  0  0  0  0  0  0  0
  -23.0042  -26.4172   22.7261 C   0  0  0  0  0  0  0  0  0  0  0  0
  -23.3915  -10.3788   25.3872 C   0  0  0  0  0  0  0  0  0  0  0  0
  -24.2707  -24.4174   23.2799 C   0  0  0  0  0  0  0  0  0  0  0  0
  -21.7401   -9.0184   26.3592 C   0  0  0  0  0  0  0  0  0  0  0  0
  -19.3859   -7.5462   26.0889 C   0  0  0  0  0  0  0  0  0  0  0  0
  -21.7361   -7.6519   26.6388 C   0  0  0  0  0  0  0  0  0  0  0  0
  -24.8955  -12.3323   21.9493 C   0  0  0  0  0  0  0  0  0  0  0  0
  -27.6870  -20.5577   25.0880 C   0  0  0  0  0  0  0  0  0  0  0  0
  -28.8273  -18.8757   23.3469 C   0  0  0  0  0  0  0  0  0  0  0  0
  -25.1033  -13.5024   20.0992 C   0  0  0  0  0  0  0  0  0  0  0  0
  -22.7638  -13.3891   20.9725 C   0  0  0  0  0  0  0  0  0  0  0  0
  -23.5626  -29.7798   22.8246 C   0  0  0  0  0  0  0  0  0  0  0  0
  -20.4916  -29.1966   21.9577 C   0  0  0  0  0  0  0  0  0  0  0  0
  -18.0285  -26.9052   21.3839 C   0  0  0  0  0  0  0  0  0  0  0  0
  -31.0193  -14.3620   20.4344 C   0  0  0  0  0  0  0  0  0  0  0  0
  -26.8785  -33.6444   22.4683 C   0  0  0  0  0  0  0  0  0  0  0  0
  -23.8702  -28.0540   21.0127 C   0  0  0  0  0  0  0  0  0  0  0  0
  -21.7740  -27.2591   22.9411 C   0  0  0  0  0  0  0  0  0  0  0  0
  -25.3582  -33.5097   22.5003 C   0  0  0  0  0  0  0  0  0  0  0  0
  -29.2930  -12.2080   18.1857 C   0  0  0  0  0  0  0  0  0  0  0  0
  -24.9260  -32.6137   23.6566 C   0  0  0  0  0  0  0  0  0  0  0  0
  -27.9043  -12.0638   18.8108 C   0  0  0  0  0  0  0  0  0  0  0  0
  -30.3860  -12.2807   19.2496 C   0  0  0  0  0  0  0  0  0  0  0  0
  -28.7918  -13.1728   20.9039 C   0  0  0  0  0  0  0  0  0  0  0  0
  -25.4928  -31.1976   23.4990 C   0  0  1  0  0  0  0  0  0  0  0  0
  -22.9375  -29.0778   21.6523 C   0  0  1  0  0  0  0  0  0  0  0  0
  -27.6513  -13.1516   19.8719 C   0  0  2  0  0  0  0  0  0  0  0  0
  -29.4837  -18.6070   20.9271 C   0  0  0  0  0  0  0  0  0  0  0  0
  -15.6134  -26.7326   20.7241 C   0  0  0  0  0  0  0  0  0  0  0  0
  -19.6656  -30.0717   24.7616 C   0  0  0  0  0  0  0  0  0  0  0  0
  -17.4392  -28.9972   24.3655 C   0  0  0  0  0  0  0  0  0  0  0  0
  -18.1774  -30.8988   22.9297 C   0  0  0  0  0  0  0  0  0  0  0  0
  -31.9507  -18.5282   22.9766 C   0  0  0  0  0  0  0  0  0  0  0  0
  -30.7944  -16.6225   24.0951 C   0  0  0  0  0  0  0  0  0  0  0  0
  -18.6836  -25.3486   18.9535 C   0  0  0  0  0  0  0  0  0  0  0  0
  -27.0699  -21.5483   26.0427 C   0  0  0  0  0  0  0  0  0  0  0  0
  -25.6920  -22.0495   25.6049 C   0  0  0  0  0  0  0  0  0  0  0  0
  -31.5061  -16.4459   21.6912 C   0  0  0  0  0  0  0  0  0  0  0  0
  -25.7213  -22.8302   24.2960 C   0  0  0  0  0  0  0  0  0  1  0  0
  -29.4818  -17.9818   22.3500 C   0  0  1  0  0  0  0  0  0  0  0  0
  -19.2728  -28.6373   22.6511 C   0  0  1  0  0  0  0  0  0  0  0  0
  -17.0526  -26.7424   20.2326 C   0  0  2  0  0  0  0  0  0  0  0  0
  -18.6628  -29.6362   23.6746 C   0  0  0  0  0  0  0  0  0  0  0  0
  -30.9126  -17.4042   22.7641 C   0  0  0  0  0  0  0  0  0  0  0  0
  -26.1973  -12.2682   21.6573 N   0  0  0  0  0  0  0  0  0  0  0  0
  -28.4573  -21.0574   24.0985 N   0  0  0  0  0  0  0  0  0  0  0  0
  -29.0367  -20.2025   23.2135 N   0  0  0  0  0  0  0  0  0  0  0  0
  -26.2922  -12.9891   20.5271 N   0  0  0  0  0  0  0  0  0  0  0  0
  -21.6867  -28.4833   22.1280 N   0  0  0  0  0  0  0  0  0  0  0  0
  -30.0868  -13.3328   20.2240 N   0  0  0  0  0  0  0  0  0  0  0  0
  -25.0189  -14.2519   18.9796 N   0  0  0  0  0  0  0  0  0  0  0  0
  -21.9425  -12.8843   21.9898 N   0  0  0  0  0  0  0  0  0  0  0  0
  -24.7297  -30.4538   22.5198 N   0  0  0  0  0  0  0  0  0  0  0  0
  -18.3537  -28.2285   21.5944 N   0  0  0  0  0  0  0  0  0  0  0  0
  -30.6546  -15.3222   21.3702 N   0  0  0  0  0  0  0  0  0  0  0  0
  -17.3114  -25.4644   19.5109 N   0  3  0  0  0  0  0  0  0  0  0  0
  -22.2525  -14.0714   20.0524 O   0  0  0  0  0  0  0  0  0  0  0  0
  -23.0250  -29.7159   23.9240 O   0  0  0  0  0  0  0  0  0  0  0  0
  -20.3857  -30.2243   21.2838 O   0  0  0  0  0  0  0  0  0  0  0  0
  -18.4564  -25.9540   22.0340 O   0  0  0  0  0  0  0  0  0  0  0  0
  -32.0948  -14.4236   19.8290 O   0  0  0  0  0  0  0  0  0  0  0  0
  -22.9076   -9.7508   26.4936 O   0  0  0  0  0  0  0  0  0  0  0  0
  -24.3964  -23.2645   23.9919 O   0  0  0  0  0  0  0  0  0  1  0  0
  -18.2552   -6.8397   25.9606 F   0  0  0  0  0  0  0  0  0  0  0  0
  -22.8598   -7.0410   27.0388 F   0  0  0  0  0  0  0  0  0  0  0  0
  1  2  1  0  0  0  0
  1  5  2  0  0  0  0
  2  6  2  0  0  0  0
  3  8  2  0  0  0  0
  3 17  1  0  0  0  0
  4  9  1  0  0  0  0
  4 17  2  0  0  0  0
  5 19  1  0  0  0  0
  6 21  1  0  0  0  0
  7 10  2  0  0  0  0
  7 20  1  0  0  0  0
  8 23  1  0  0  0  0
  9 23  2  0  0  0  0
 10 24  1  0  0  0  0
 11 12  2  0  0  0  0
 11 25  1  0  0  0  0
 12 26  1  0  0  0  0
 13 14  2  0  0  0  0
 13 29  1  0  0  0  0
 14 30  1  0  0  0  0
 15 22  1  0  0  0  0
 15 24  2  0  0  0  0
 16 26  2  0  0  0  0
 16 27  1  0  0  0  0
 17 28  1  0  0  0  0
 18 28  1  0  0  0  0
 18 31  2  0  0  0  0
 18 32  1  0  0  0  0
 19 21  2  0  0  0  0
 19 37  1  0  0  0  0
 20 22  2  0  0  0  0
 20 38  1  0  0  0  0
 21 46  1  0  0  0  0
 22 39  1  0  0  0  0
 23 83  1  0  0  0  0
 24 84  1  0  0  0  0
 25 27  2  0  0  0  0
 25 83  1  0  0  0  0
 26 85  1  0  0  0  0
 27 86  1  0  0  0  0
 28 66  2  0  0  0  0
 29 57  1  0  0  0  0
 29 67  2  0  0  0  0
 30 61  1  0  0  0  0
 30 68  2  0  0  0  0
 31 69  1  0  0  0  0
 31 72  1  0  0  0  0
 32 73  1  0  0  0  0
 32 78  2  0  0  0  0
 33 47  1  0  0  0  0
 33 74  1  0  0  0  0
 33 79  2  0  0  0  0
 34 62  1  0  0  0  0
 34 70  1  0  0  0  0
 34 80  2  0  0  0  0
 35 63  1  0  0  0  0
 35 75  1  0  0  0  0
 35 81  2  0  0  0  0
 36 71  1  0  0  0  0
 36 76  1  0  0  0  0
 36 82  2  0  0  0  0
 37 40  1  0  0  0  0
 38 47  1  0  0  0  0
 39 70  1  0  0  0  0
 40 42  1  0  0  0  0
 41 43  1  0  0  0  0
 41 44  1  0  0  0  0
 42 46  1  0  0  0  0
 43 48  1  0  0  0  0
 44 71  1  0  0  0  0
 45 48  1  0  0  0  0
 45 71  1  0  0  0  0
 46 74  1  0  0  0  0
 47 70  1  0  0  0  0
 48 69  1  0  0  0  0
 49 61  1  0  0  0  0
 50 63  1  0  0  0  0
 51 64  1  0  0  0  0
 52 64  1  0  0  0  0
 53 64  1  0  0  0  0
 54 65  1  0  0  0  0
 55 65  1  0  0  0  0
 56 77  1  0  0  0  0
 57 58  1  0  0  0  0
 58 60  1  0  0  0  0
 59 65  1  0  0  0  0
 59 76  1  0  0  0  0
 60 84  1  0  0  0  0
 61 65  1  0  0  0  0
 62 64  1  0  0  0  0
 62 75  1  0  0  0  0
 63 77  1  0  0  0  0
 66 69  1  0  0  0  0
 67 68  1  0  0  0  0
M  CHG  1  77   1
M  ISO  4  36 100  60 101  76 100  84 101
M  END
> <Batch ID>
0084

> <Smiles>
CNC(C)C(=O)NC(C(=O)N1Cc2cc([101O:1][101CH2:1]CCc3ccc(C(C)C(C)(C)C[100NH:0][100C:0](=O)N4CCCC(n5nc(-c6ccc(Oc7ccc(F)cc7F)cc6)c(C(N)=O)c5N)C4)nn3)ccc2CC1C(=O)NC1CCCc2ccccc21)C(C)(C)C

> <Shape>
0.249

> <Color>
0.088

> <Negative vol penalty>
0.000

$$$$

  -OEChem-04052318543D

 87 95  0     1  0  0  0  0  0999 V2000
  -17.0367  -29.9993   23.1112 C   0  0  0  0  0  0  0  0  0  0  0  0
  -18.0435  -29.9852   22.1513 C   0  0  0  0  0  0  0  0  0  0  0  0
  -27.8701  -12.2202   19.5941 C   0  0  0  0  0  0  0  0  0  0  0  0
  -26.1669  -13.2978   20.9263 C   0  0  0  0  0  0  0  0  0  0  0  0
  -17.1813  -29.2567   24.2823 C   0  0  0  0  0  0  0  0  0  0  0  0
  -19.1961  -29.2293   22.3624 C   0  0  0  0  0  0  0  0  0  0  0  0
  -22.4855  -26.2707   18.1278 C   0  0  0  0  0  0  0  0  0  0  0  0
  -27.3902  -10.9719   19.9902 C   0  0  0  0  0  0  0  0  0  0  0  0
  -25.6869  -12.0494   21.3224 C   0  0  0  0  0  0  0  0  0  0  0  0
  -23.6581  -26.6023   17.4505 C   0  0  0  0  0  0  0  0  0  0  0  0
  -23.7543   -9.5994   20.0249 C   0  0  0  0  0  0  0  0  0  0  0  0
  -22.3738   -9.4011   20.0040 C   0  0  0  0  0  0  0  0  0  0  0  0
  -24.9377  -25.3433   19.0620 C   0  0  0  0  0  0  0  0  0  0  0  0
  -22.4034   -8.9451   22.3764 C   0  0  0  0  0  0  0  0  0  0  0  0
  -28.7380  -25.1262   18.0585 C   0  0  0  0  0  0  0  0  0  0  0  0
  -27.2585  -13.3832   20.0622 C   0  0  0  0  0  0  0  0  0  0  0  0
  -27.3510  -15.4226   18.5325 C   0  0  0  0  0  0  0  0  0  0  0  0
  -18.3320  -28.4836   24.5036 C   0  0  0  0  0  0  0  0  0  0  0  0
  -22.5312  -25.4807   19.2854 C   0  0  0  0  0  0  0  0  0  0  0  0
  -19.3568  -28.4767   23.5382 C   0  0  0  0  0  0  0  0  0  0  0  0
  -23.7639  -25.0010   19.7507 C   0  0  0  0  0  0  0  0  0  0  0  0
  -28.9567  -26.4807   18.1209 C   0  0  0  0  0  0  0  0  0  0  0  0
  -26.2986  -10.8864   20.8543 C   0  0  0  0  0  0  0  0  0  0  0  0
  -24.8847  -26.1410   17.9192 C   0  0  0  0  0  0  0  0  0  0  0  0
  -24.4594   -9.4705   21.2216 C   0  0  0  0  0  0  0  0  0  0  0  0
  -21.6983   -9.0740   21.1797 C   0  0  0  0  0  0  0  0  0  0  0  0
  -23.7839   -9.1434   22.3973 C   0  0  0  0  0  0  0  0  0  0  0  0
  -27.7541  -14.6730   19.6539 C   0  0  0  0  0  0  0  0  0  0  0  0
  -29.9987  -26.6262   19.0562 C   0  0  0  0  0  0  0  0  0  0  0  0
  -28.1150  -16.5625   18.5888 C   0  0  0  0  0  0  0  0  0  0  0  0
  -26.3733  -15.1158   17.5297 C   0  0  0  0  0  0  0  0  0  0  0  0
  -21.7299  -25.9149   22.3306 C   0  0  0  0  0  0  0  0  0  0  0  0
  -22.4644  -22.7643   22.5679 C   0  0  0  0  0  0  0  0  0  0  0  0
  -25.0272  -20.5561   21.3136 C   0  0  0  0  0  0  0  0  0  0  0  0
  -30.3403  -20.7925   21.4699 C   0  0  0  0  0  0  0  0  0  0  0  0
  -18.4640  -27.7348   25.8061 C   0  0  0  0  0  0  0  0  0  0  0  0
  -21.2547  -25.1097   19.9893 C   0  0  0  0  0  0  0  0  0  0  0  0
  -23.8652  -24.1329   20.9773 C   0  0  0  0  0  0  0  0  0  0  0  0
  -19.5513  -26.6635   25.7853 C   0  0  0  0  0  0  0  0  0  0  0  0
  -32.1153  -17.7061   21.4657 C   0  0  0  0  0  0  0  0  0  0  0  0
  -20.8345  -27.2171   25.1739 C   0  0  0  0  0  0  0  0  0  0  0  0
  -31.1040  -16.7033   20.9076 C   0  0  0  0  0  0  0  0  0  0  0  0
  -31.4420  -18.7550   22.3480 C   0  0  0  0  0  0  0  0  0  0  0  0
  -29.3043  -18.4633   21.1569 C   0  0  0  0  0  0  0  0  0  0  0  0
  -20.6110  -27.6496   23.7198 C   0  0  1  0  0  0  0  0  0  0  0  0
  -21.4679  -24.7258   21.4503 C   0  0  1  0  0  0  0  0  0  0  0  0
  -29.9282  -17.4188   20.2156 C   0  0  2  0  0  0  0  0  0  0  0  0
  -28.5269  -27.4440   15.8406 C   0  0  0  0  0  0  0  0  0  0  0  0
  -24.9787  -18.0868   20.8688 C   0  0  0  0  0  0  0  0  0  0  0  0
  -29.6055  -28.8450   20.1823 C   0  0  0  0  0  0  0  0  0  0  0  0
  -31.2955  -28.6590   18.3260 C   0  0  0  0  0  0  0  0  0  0  0  0
  -31.7850  -27.7143   20.5731 C   0  0  0  0  0  0  0  0  0  0  0  0
  -23.6034  -22.5271   25.3886 C   0  0  0  0  0  0  0  0  0  0  0  0
  -25.0498  -20.6538   24.5719 C   0  0  0  0  0  0  0  0  0  0  0  0
  -22.5662  -20.4309   24.5027 C   0  0  0  0  0  0  0  0  0  0  0  0
  -26.4161  -27.8930   19.1552 C   0  0  0  0  0  0  0  0  0  0  0  0
  -26.0360  -28.7982   16.8681 C   0  0  0  0  0  0  0  0  0  0  0  0
  -25.8856  -20.9276   18.5058 C   0  0  0  0  0  0  0  0  0  0  0  0
  -29.7781  -23.1568   19.2070 C   0  0  0  0  0  0  0  0  0  0  0  0
  -29.1246  -22.7369   20.5210 C   0  0  0  0  0  0  0  0  0  0  0  0
  -28.2259  -27.5731   17.3445 C   0  0  1  0  0  0  0  0  0  0  0  0
  -23.7178  -21.9784   22.8683 C   0  0  1  0  0  0  0  0  0  0  0  0
  -24.8602  -19.4756   20.2605 C   0  0  2  0  0  0  0  0  0  0  0  0
  -30.6361  -27.8743   19.5112 C   0  0  0  0  0  0  0  0  0  0  0  0
  -23.7354  -21.4232   24.3205 C   0  0  0  0  0  0  0  0  0  0  0  0
  -26.6963  -27.6603   17.6625 C   0  0  0  0  0  0  0  0  0  1  0  0
  -28.7009  -15.2852   20.3701 N   0  0  0  0  0  0  0  0  0  0  0  0
  -30.4131  -25.4575   19.5524 N   0  0  0  0  0  0  0  0  0  0  0  0
  -29.6274  -24.5646   18.9266 N   0  0  0  0  0  0  0  0  0  0  0  0
  -28.8991  -16.4315   19.6971 N   0  0  0  0  0  0  0  0  0  0  0  0
  -22.5897  -23.8028   21.6343 N   0  0  0  0  0  0  0  0  0  0  0  0
  -30.3370  -19.3973   21.6323 N   0  0  0  0  0  0  0  0  0  0  0  0
  -28.1860  -17.6542   17.7978 N   0  0  0  0  0  0  0  0  0  0  0  0
  -25.6790  -13.9018   17.6227 N   0  0  0  0  0  0  0  0  0  0  0  0
  -20.5872  -26.4952   22.8472 N   0  0  0  0  0  0  0  0  0  0  0  0
  -23.8140  -20.9528   21.8352 N   0  0  0  0  0  0  0  0  0  0  0  0
  -29.2592  -21.3197   20.7741 N   0  0  0  0  0  0  0  0  0  0  0  0
  -25.9019  -19.6165   19.2041 N   0  3  0  0  0  0  0  0  0  0  0  0
  -26.1343  -15.8877   16.5703 O   0  0  0  0  0  0  0  0  0  0  0  0
  -22.8836  -26.2782   22.5278 O   0  0  0  0  0  0  0  0  0  0  0  0
  -21.4112  -22.4631   23.1351 O   0  0  0  0  0  0  0  0  0  0  0  0
  -26.1244  -21.0008   21.6435 O   0  0  0  0  0  0  0  0  0  0  0  0
  -31.2426  -21.5144   21.9077 O   0  0  0  0  0  0  0  0  0  0  0  0
  -25.8299   -9.6685   21.2409 O   0  0  0  0  0  0  0  0  0  0  0  0
  -26.0309  -26.4637   17.2604 O   0  0  0  0  0  0  0  0  0  1  0  0
  -20.3724   -8.8851   21.1598 F   0  0  0  0  0  0  0  0  0  0  0  0
  -24.4557   -9.0193   23.5502 F   0  0  0  0  0  0  0  0  0  0  0  0
  1  2  1  0  0  0  0
  1  5  2  0  0  0  0
  2  6  2  0  0  0  0
  3  8  2  0  0  0  0
  3 16  1  0  0  0  0
  4  9  1  0  0  0  0
  4 16  2  0  0  0  0
  5 18  1  0  0  0  0
  6 20  1  0  0  0  0
  7 10  2  0  0  0  0
  7 19  1  0  0  0  0
  8 23  1  0  0  0  0
  9 23  2  0  0  0  0
 10 24  1  0  0  0  0
 11 12  2  0  0  0  0
 11 25  1  0  0  0  0
 12 26  1  0  0  0  0
 13 21  1  0  0  0  0
 13 24  2  0  0  0  0
 14 26  2  0  0  0  0
 14 27  1  0  0  0  0
 15 22  2  0  0  0  0
 15 69  1  0  0  0  0
 16 28  1  0  0  0  0
 17 28  1  0  0  0  0
 17 30  2  0  0  0  0
 17 31  1  0  0  0  0
 18 20  2  0  0  0  0
 18 36  1  0  0  0  0
 19 21  2  0  0  0  0
 19 37  1  0  0  0  0
 20 45  1  0  0  0  0
 21 38  1  0  0  0  0
 22 29  1  0  0  0  0
 22 61  1  0  0  0  0
 23 84  1  0  0  0  0
 24 85  1  0  0  0  0
 25 27  2  0  0  0  0
 25 84  1  0  0  0  0
 26 86  1  0  0  0  0
 27 87  1  0  0  0  0
 28 67  2  0  0  0  0
 29 64  1  0  0  0  0
 29 68  2  0  0  0  0
 30 70  1  0  0  0  0
 30 73  1  0  0  0  0
 31 74  1  0  0  0  0
 31 79  2  0  0  0  0
 32 46  1  0  0  0  0
 32 75  1  0  0  0  0
 32 80  2  0  0  0  0
 33 62  1  0  0  0  0
 33 71  1  0  0  0  0
 33 81  2  0  0  0  0
 34 63  1  0  0  0  0
 34 76  1  0  0  0  0
 34 82  2  0  0  0  0
 35 72  1  0  0  0  0
 35 77  1  0  0  0  0
 35 83  2  0  0  0  0
 36 39  1  0  0  0  0
 37 46  1  0  0  0  0
 38 71  1  0  0  0  0
 39 41  1  0  0  0  0
 40 42  1  0  0  0  0
 40 43  1  0  0  0  0
 41 45  1  0  0  0  0
 42 47  1  0  0  0  0
 43 72  1  0  0  0  0
 44 47  1  0  0  0  0
 44 72  1  0  0  0  0
 45 75  1  0  0  0  0
 46 71  1  0  0  0  0
 47 70  1  0  0  0  0
 48 61  1  0  0  0  0
 49 63  1  0  0  0  0
 50 64  1  0  0  0  0
 51 64  1  0  0  0  0
 52 64  1  0  0  0  0
 53 65  1  0  0  0  0
 54 65  1  0  0  0  0
 55 65  1  0  0  0  0
 56 66  1  0  0  0  0
 57 66  1  0  0  0  0
 58 78  1  0  0  0  0
 59 60  1  0  0  0  0
 59 69  1  0  0  0  0
 60 77  1  0  0  0  0
 61 66  1  0  0  0  0
 62 65  1  0  0  0  0
 62 76  1  0  0  0  0
 63 78  1  0  0  0  0
 66 85  1  0  0  0  0
 67 70  1  0  0  0  0
 68 69  1  0  0  0  0
M  CHG  1  78   1
M  ISO  4  35 100  66 101  77 100  85 101
M  END
> <Batch ID>
0084

> <Smiles>
CNC(C)C(=O)NC(C(=O)N1Cc2cc([101O:1][101C:1](C)(C)C(C)c3cn(CC[100NH:0][100C:0](=O)N4CCCC(n5nc(-c6ccc(Oc7ccc(F)cc7F)cc6)c(C(N)=O)c5N)C4)nc3C(C)(C)C)ccc2CC1C(=O)NC1CCCc2ccccc21)C(C)(C)C

> <Shape>
0.220

> <Color>
0.051

> <Negative vol penalty>
0.000

$$$$

  -OEChem-04052318543D

 88 96  0     1  0  0  0  0  0999 V2000
  -32.0590  -16.9688   22.7049 C   0  0  0  0  0  0  0  0  0  0  0  0
  -30.8109  -17.5812   22.7570 C   0  0  0  0  0  0  0  0  0  0  0  0
  -24.6168  -29.7609   23.1315 C   0  0  0  0  0  0  0  0  0  0  0  0
  -24.0707  -27.5390   23.9074 C   0  0  0  0  0  0  0  0  0  0  0  0
  -32.2683  -15.8871   21.8505 C   0  0  0  0  0  0  0  0  0  0  0  0
  -29.7717  -17.1130   21.9538 C   0  0  0  0  0  0  0  0  0  0  0  0
  -23.8128  -16.9637   23.3593 C   0  0  0  0  0  0  0  0  0  0  0  0
  -23.2705  -30.1180   23.2065 C   0  0  0  0  0  0  0  0  0  0  0  0
  -22.7244  -27.8961   23.9824 C   0  0  0  0  0  0  0  0  0  0  0  0
  -22.7530  -17.8125   23.0431 C   0  0  0  0  0  0  0  0  0  0  0  0
  -20.1258  -28.2776   21.8535 C   0  0  0  0  0  0  0  0  0  0  0  0
  -19.1880  -27.3810   21.3414 C   0  0  0  0  0  0  0  0  0  0  0  0
  -22.1662  -16.3807   21.1925 C   0  0  0  0  0  0  0  0  0  0  0  0
  -18.1571  -27.2150   23.5202 C   0  0  0  0  0  0  0  0  0  0  0  0
  -23.1859  -19.9747   19.0665 C   0  0  0  0  0  0  0  0  0  0  0  0
  -25.0169  -28.4714   23.4819 C   0  0  0  0  0  0  0  0  0  0  0  0
  -27.3759  -28.2179   24.4191 C   0  0  0  0  0  0  0  0  0  0  0  0
  -31.2284  -15.3993   21.0434 C   0  0  0  0  0  0  0  0  0  0  0  0
  -24.0644  -15.8209   22.5865 C   0  0  0  0  0  0  0  0  0  0  0  0
  -29.9677  -16.0247   21.0867 C   0  0  0  0  0  0  0  0  0  0  0  0
  -23.2283  -15.5176   21.5025 C   0  0  0  0  0  0  0  0  0  0  0  0
  -22.0824  -20.7769   19.2252 C   0  0  0  0  0  0  0  0  0  0  0  0
  -22.3243  -29.1856   23.6320 C   0  0  0  0  0  0  0  0  0  0  0  0
  -21.9312  -17.5226   21.9578 C   0  0  0  0  0  0  0  0  0  0  0  0
  -20.0793  -28.6429   23.1989 C   0  0  0  0  0  0  0  0  0  0  0  0
  -18.2036  -26.8497   22.1748 C   0  0  0  0  0  0  0  0  0  0  0  0
  -19.0950  -28.1117   24.0322 C   0  0  0  0  0  0  0  0  0  0  0  0
  -26.4074  -28.1018   23.4041 C   0  0  0  0  0  0  0  0  0  0  0  0
  -22.5718  -22.0860   19.0562 C   0  0  0  0  0  0  0  0  0  0  0  0
  -28.5290  -27.7350   23.8502 C   0  0  0  0  0  0  0  0  0  0  0  0
  -27.2450  -28.7176   25.7566 C   0  0  0  0  0  0  0  0  0  0  0  0
  -26.4890  -14.8138   20.7946 C   0  0  0  0  0  0  0  0  0  0  0  0
  -24.7082  -12.1100   20.5934 C   0  0  0  0  0  0  0  0  0  0  0  0
  -21.6289  -10.6491   20.7694 C   0  0  0  0  0  0  0  0  0  0  0  0
  -29.5699  -23.9027   19.3690 C   0  0  0  0  0  0  0  0  0  0  0  0
  -31.5156  -14.2575   20.1008 C   0  0  0  0  0  0  0  0  0  0  0  0
  -25.1954  -14.9011   22.9568 C   0  0  0  0  0  0  0  0  0  0  0  0
  -23.4436  -14.2923   20.6535 C   0  0  0  0  0  0  0  0  0  0  0  0
  -30.2575  -13.5847   19.5579 C   0  0  0  0  0  0  0  0  0  0  0  0
  -30.7041  -27.2687   19.6143 C   0  0  0  0  0  0  0  0  0  0  0  0
  -29.2525  -14.6317   19.0882 C   0  0  0  0  0  0  0  0  0  0  0  0
  -29.8189  -27.8743   20.7050 C   0  0  0  0  0  0  0  0  0  0  0  0
  -29.9332  -26.2735   18.7498 C   0  0  0  0  0  0  0  0  0  0  0  0
  -28.3598  -25.8112   20.5895 C   0  0  0  0  0  0  0  0  0  0  0  0
  -28.8085  -15.5300   20.2490 C   0  0  1  0  0  0  0  0  0  0  0  0
  -25.6720  -14.0405   21.7907 C   0  0  1  0  0  0  0  0  0  0  0  0
  -29.1076  -26.7792   21.5223 C   0  0  2  0  0  0  0  0  0  0  0  0
  -22.0267  -24.1044   20.4402 C   0  0  0  0  0  0  0  0  0  0  0  0
  -20.4845   -8.4296   20.5214 C   0  0  0  0  0  0  0  0  0  0  0  0
  -26.3163  -20.6214   21.0031 C   0  0  0  0  0  0  0  0  0  0  0  0
  -24.9429  -12.3307   17.5592 C   0  0  0  0  0  0  0  0  0  0  0  0
  -23.0484  -10.7056   17.3642 C   0  0  0  0  0  0  0  0  0  0  0  0
  -25.1795  -10.0088   18.4577 C   0  0  0  0  0  0  0  0  0  0  0  0
  -28.4957  -19.3746   19.1248 C   0  0  0  0  0  0  0  0  0  0  0  0
  -28.3681  -21.4364   17.7228 C   0  0  0  0  0  0  0  0  0  0  0  0
  -20.6807  -10.6941   23.5726 C   0  0  0  0  0  0  0  0  0  0  0  0
  -20.6687  -20.3403   19.5155 C   0  0  0  0  0  0  0  0  0  0  0  0
  -21.8153  -23.3486   19.1228 C   0  0  0  0  0  0  0  0  0  0  0  0
  -20.2434  -20.5569   20.9693 C   0  0  0  0  0  0  0  0  0  0  0  0
  -25.6014  -20.4395   18.5885 C   0  0  0  0  0  0  0  0  0  0  0  0
  -29.1129  -21.5796   20.1132 C   0  0  0  0  0  0  0  0  0  0  0  0
  -21.0520  -19.7323   21.9642 C   0  0  0  0  0  0  0  0  0  1  0  0
  -23.6326  -11.6051   19.6622 C   0  0  1  0  0  0  0  0  0  0  0  0
  -21.1454   -9.4015   21.4865 C   0  0  2  0  0  0  0  0  0  0  0  0
  -26.6153  -21.0949   19.5674 C   0  0  2  0  0  0  0  0  0  0  0  0
  -24.1977  -11.1867   18.2755 C   0  0  0  0  0  0  0  0  0  0  0  0
  -28.1231  -20.8730   19.1444 C   0  0  0  0  0  0  0  0  0  0  0  0
  -26.9021  -27.5857   22.2759 N   0  0  0  0  0  0  0  0  0  0  0  0
  -23.8841  -22.1180   18.8093 N   0  0  0  0  0  0  0  0  0  0  0  0
  -24.2286  -20.8191   18.8220 N   0  0  0  0  0  0  0  0  0  0  0  0
  -28.1942  -27.3733   22.5785 N   0  0  0  0  0  0  0  0  0  0  0  0
  -24.5663  -13.4273   21.0519 N   0  0  0  0  0  0  0  0  0  0  0  0
  -29.2837  -25.2607   19.5854 N   0  0  0  0  0  0  0  0  0  0  0  0
  -29.7866  -27.5887   24.3187 N   0  0  0  0  0  0  0  0  0  0  0  0
  -25.9893  -29.1746   26.1792 N   0  0  0  0  0  0  0  0  0  0  0  0
  -27.8411  -14.8434   21.0780 N   0  0  0  0  0  0  0  0  0  0  0  0
  -22.9452  -10.5338   20.3752 N   0  0  0  0  0  0  0  0  0  0  0  0
  -28.9166  -23.0090   20.2089 N   0  0  0  0  0  0  0  0  0  0  0  0
  -20.1568   -9.7610   22.5421 N   0  3  0  0  0  0  0  0  0  0  0  0
  -28.2167  -28.7729   26.5480 O   0  0  0  0  0  0  0  0  0  0  0  0
  -25.9339  -15.3431   19.8389 O   0  0  0  0  0  0  0  0  0  0  0  0
  -25.6361  -11.3607   20.9082 O   0  0  0  0  0  0  0  0  0  0  0  0
  -20.9097  -11.6265   20.5750 O   0  0  0  0  0  0  0  0  0  0  0  0
  -30.3538  -23.5156   18.4958 O   0  0  0  0  0  0  0  0  0  0  0  0
  -21.0106  -29.5338   23.7055 O   0  0  0  0  0  0  0  0  0  0  0  0
  -20.8964  -18.3498   21.6467 O   0  0  0  0  0  0  0  0  0  1  0  0
  -17.3022  -25.9899   21.6826 F   0  0  0  0  0  0  0  0  0  0  0  0
  -19.0445  -28.4598   25.3253 F   0  0  0  0  0  0  0  0  0  0  0  0
  1  2  1  0  0  0  0
  1  5  2  0  0  0  0
  2  6  2  0  0  0  0
  3  8  2  0  0  0  0
  3 16  1  0  0  0  0
  4  9  1  0  0  0  0
  4 16  2  0  0  0  0
  5 18  1  0  0  0  0
  6 20  1  0  0  0  0
  7 10  2  0  0  0  0
  7 19  1  0  0  0  0
  8 23  1  0  0  0  0
  9 23  2  0  0  0  0
 10 24  1  0  0  0  0
 11 12  2  0  0  0  0
 11 25  1  0  0  0  0
 12 26  1  0  0  0  0
 13 21  1  0  0  0  0
 13 24  2  0  0  0  0
 14 26  2  0  0  0  0
 14 27  1  0  0  0  0
 15 22  2  0  0  0  0
 15 70  1  0  0  0  0
 16 28  1  0  0  0  0
 17 28  1  0  0  0  0
 17 30  2  0  0  0  0
 17 31  1  0  0  0  0
 18 20  2  0  0  0  0
 18 36  1  0  0  0  0
 19 21  2  0  0  0  0
 19 37  1  0  0  0  0
 20 45  1  0  0  0  0
 21 38  1  0  0  0  0
 22 29  1  0  0  0  0
 22 57  1  0  0  0  0
 23 85  1  0  0  0  0
 24 86  1  0  0  0  0
 25 27  2  0  0  0  0
 25 85  1  0  0  0  0
 26 87  1  0  0  0  0
 27 88  1  0  0  0  0
 28 68  2  0  0  0  0
 29 58  1  0  0  0  0
 29 69  2  0  0  0  0
 30 71  1  0  0  0  0
 30 74  1  0  0  0  0
 31 75  1  0  0  0  0
 31 80  2  0  0  0  0
 32 46  1  0  0  0  0
 32 76  1  0  0  0  0
 32 81  2  0  0  0  0
 33 63  1  0  0  0  0
 33 72  1  0  0  0  0
 33 82  2  0  0  0  0
 34 64  1  0  0  0  0
 34 77  1  0  0  0  0
 34 83  2  0  0  0  0
 35 73  1  0  0  0  0
 35 78  1  0  0  0  0
 35 84  2  0  0  0  0
 36 39  1  0  0  0  0
 37 46  1  0  0  0  0
 38 72  1  0  0  0  0
 39 41  1  0  0  0  0
 40 42  1  0  0  0  0
 40 43  1  0  0  0  0
 41 45  1  0  0  0  0
 42 47  1  0  0  0  0
 43 73  1  0  0  0  0
 44 47  1  0  0  0  0
 44 73  1  0  0  0  0
 45 76  1  0  0  0  0
 46 72  1  0  0  0  0
 47 71  1  0  0  0  0
 48 58  1  0  0  0  0
 49 64  1  0  0  0  0
 50 65  1  0  0  0  0
 51 66  1  0  0  0  0
 52 66  1  0  0  0  0
 53 66  1  0  0  0  0
 54 67  1  0  0  0  0
 55 67  1  0  0  0  0
 56 79  1  0  0  0  0
 57 59  1  0  0  0  0
 59 62  1  0  0  0  0
 60 65  1  0  0  0  0
 60 70  1  0  0  0  0
 61 67  1  0  0  0  0
 61 78  1  0  0  0  0
 62 86  1  0  0  0  0
 63 66  1  0  0  0  0
 63 77  1  0  0  0  0
 64 79  1  0  0  0  0
 65 67  1  0  0  0  0
 68 71  1  0  0  0  0
 69 70  1  0  0  0  0
M  CHG  1  79   1
M  ISO  4  35 100  62 101  78 100  86 101
M  END
> <Batch ID>
0084

> <Smiles>
CCc1nn(CC(C)C(C)(C)C[100NH:0][100C:0](=O)N2CCCC(n3nc(-c4ccc(Oc5ccc(F)cc5F)cc4)c(C(N)=O)c3N)C2)cc1CC[101CH2:1][101O:1]c1ccc2c(c1)CN(C(=O)C(NC(=O)C(C)NC)C(C)(C)C)C(C(=O)NC1CCCc3ccccc31)C2

> <Shape>
0.247

> <Color>
0.042

> <Negative vol penalty>
0.000

$$$$

  -OEChem-04052318543D

 79 86  0     1  0  0  0  0  0999 V2000
  -19.4315  -24.1433   22.1263 C   0  0  0  0  0  0  0  0  0  0  0  0
  -20.6468  -24.4791   21.5383 C   0  0  0  0  0  0  0  0  0  0  0  0
  -28.8154  -12.2888   18.7551 C   0  0  0  0  0  0  0  0  0  0  0  0
  -29.3894  -13.2449   20.8984 C   0  0  0  0  0  0  0  0  0  0  0  0
  -18.5664  -25.1477   22.5584 C   0  0  0  0  0  0  0  0  0  0  0  0
  -20.9972  -25.8196   21.3811 C   0  0  0  0  0  0  0  0  0  0  0  0
  -25.7943  -26.7431   22.7152 C   0  0  0  0  0  0  0  0  0  0  0  0
  -29.6044  -11.1746   19.0408 C   0  0  0  0  0  0  0  0  0  0  0  0
  -30.1784  -12.1307   21.1841 C   0  0  0  0  0  0  0  0  0  0  0  0
  -26.7884  -26.3840   21.8061 C   0  0  0  0  0  0  0  0  0  0  0  0
  -31.1797   -7.9136   19.3564 C   0  0  0  0  0  0  0  0  0  0  0  0
  -30.6501   -6.6544   19.0743 C   0  0  0  0  0  0  0  0  0  0  0  0
  -26.9392  -28.6778   21.0745 C   0  0  0  0  0  0  0  0  0  0  0  0
  -28.8197   -7.0844   20.5914 C   0  0  0  0  0  0  0  0  0  0  0  0
  -28.7079  -13.3240   19.6839 C   0  0  0  0  0  0  0  0  0  0  0  0
  -26.5265  -14.6465   19.6791 C   0  0  0  0  0  0  0  0  0  0  0  0
  -18.9106  -26.5010   22.4151 C   0  0  0  0  0  0  0  0  0  0  0  0
  -25.3567  -28.0724   22.8034 C   0  0  0  0  0  0  0  0  0  0  0  0
  -20.1352  -26.8430   21.8104 C   0  0  0  0  0  0  0  0  0  0  0  0
  -25.9412  -29.0515   21.9874 C   0  0  0  0  0  0  0  0  0  0  0  0
  -30.2859  -11.0955   20.2553 C   0  0  0  0  0  0  0  0  0  0  0  0
  -27.3590  -27.3509   20.9835 C   0  0  0  0  0  0  0  0  0  0  0  0
  -30.5292   -8.7582   20.2560 C   0  0  0  0  0  0  0  0  0  0  0  0
  -29.4701   -6.2398   19.6918 C   0  0  0  0  0  0  0  0  0  0  0  0
  -29.3492   -8.3436   20.8735 C   0  0  0  0  0  0  0  0  0  0  0  0
  -27.8934  -14.4754   19.3892 C   0  0  0  0  0  0  0  0  0  0  0  0
  -26.2283  -15.8991   19.2012 C   0  0  0  0  0  0  0  0  0  0  0  0
  -25.6084  -13.7531   20.3231 C   0  0  0  0  0  0  0  0  0  0  0  0
  -22.5867  -29.5582   22.3313 C   0  0  0  0  0  0  0  0  0  0  0  0
  -24.2122  -32.1217   23.4749 C   0  0  0  0  0  0  0  0  0  0  0  0
  -27.2198  -33.6479   23.9965 C   0  0  0  0  0  0  0  0  0  0  0  0
  -29.3529  -20.7151   18.3947 C   0  0  0  0  0  0  0  0  0  0  0  0
  -17.9220  -27.5519   22.8544 C   0  0  0  0  0  0  0  0  0  0  0  0
  -24.3023  -28.4483   23.8080 C   0  0  0  0  0  0  0  0  0  0  0  0
  -25.5212  -30.4962   22.0573 C   0  0  0  0  0  0  0  0  0  0  0  0
  -18.5335  -28.9439   22.9917 C   0  0  0  0  0  0  0  0  0  0  0  0
  -27.5379  -19.0529   15.8620 C   0  0  0  0  0  0  0  0  0  0  0  0
  -19.3943  -29.2711   21.7757 C   0  0  0  0  0  0  0  0  0  0  0  0
  -27.2941  -17.6903   16.5090 C   0  0  0  0  0  0  0  0  0  0  0  0
  -28.9402  -19.5873   16.1588 C   0  0  0  0  0  0  0  0  0  0  0  0
  -29.0284  -18.2645   18.2480 C   0  0  0  0  0  0  0  0  0  0  0  0
  -20.5618  -28.2855   21.6449 C   0  0  1  0  0  0  0  0  0  0  0  0
  -23.5709  -29.7389   23.4521 C   0  0  1  0  0  0  0  0  0  0  0  0
  -27.6059  -17.7327   18.0150 C   0  0  2  0  0  0  0  0  0  0  0  0
  -28.2267  -35.7538   24.9177 C   0  0  0  0  0  0  0  0  0  0  0  0
  -27.4943  -23.6028   17.3214 C   0  0  0  0  0  0  0  0  0  0  0  0
  -23.3596  -33.6262   20.9610 C   0  0  0  0  0  0  0  0  0  0  0  0
  -25.1272  -35.3266   21.4634 C   0  0  0  0  0  0  0  0  0  0  0  0
  -23.2509  -34.9693   23.0679 C   0  0  0  0  0  0  0  0  0  0  0  0
  -28.1348  -26.5746   17.2131 C   0  0  0  0  0  0  0  0  0  0  0  0
  -30.3612  -26.1606   18.2252 C   0  0  0  0  0  0  0  0  0  0  0  0
  -30.8026  -21.8415   16.6527 C   0  0  0  0  0  0  0  0  0  0  0  0
  -28.7296  -32.1603   26.0621 C   0  0  0  0  0  0  0  0  0  0  0  0
  -29.7070  -23.1547   18.4307 C   0  0  0  0  0  0  0  0  0  0  0  0
  -28.2807  -25.6786   19.5658 C   0  0  0  0  0  0  0  0  0  1  0  0
  -25.0572  -33.2122   22.8618 C   0  0  1  0  0  0  0  0  0  0  0  0
  -27.8071  -34.3242   25.2221 C   0  0  2  0  0  0  0  0  0  0  0  0
  -28.9101  -24.1570   17.5685 C   0  0  2  0  0  0  0  0  0  0  0  0
  -24.2055  -34.2561   22.0856 C   0  0  0  0  0  0  0  0  0  0  0  0
  -28.9115  -25.6221   18.1536 C   0  0  0  0  0  0  0  0  0  0  0  0
  -28.4266  -15.5346   18.7744 N   0  0  0  0  0  0  0  0  0  0  0  0
  -27.3894  -16.3832   18.6742 N   0  0  0  0  0  0  0  0  0  0  0  0
  -24.4821  -30.8128   23.0511 N   0  0  0  0  0  0  0  0  0  0  0  0
  -29.2141  -19.5662   17.6022 N   0  0  0  0  0  0  0  0  0  0  0  0
  -25.0887  -16.6227   19.1844 N   0  0  0  0  0  0  0  0  0  0  0  0
  -26.0805  -12.5052   20.7524 N   0  0  0  0  0  0  0  0  0  0  0  0
  -21.6095  -28.6152   22.5873 N   0  0  0  0  0  0  0  0  0  0  0  0
  -25.8478  -33.7767   23.9503 N   0  0  0  0  0  0  0  0  0  0  0  0
  -29.8670  -21.8643   17.7754 N   0  0  0  0  0  0  0  0  0  0  0  0
  -29.0026  -33.5759   25.7037 N   0  3  0  0  0  0  0  0  0  0  0  0
  -24.4012  -14.0459   20.4974 O   0  0  0  0  0  0  0  0  0  0  0  0
  -22.7041  -30.2259   21.3105 O   0  0  0  0  0  0  0  0  0  0  0  0
  -23.3496  -32.4195   24.3048 O   0  0  0  0  0  0  0  0  0  0  0  0
  -27.9096  -33.0669   23.1615 O   0  0  0  0  0  0  0  0  0  0  0  0
  -29.0424  -20.7135   19.5929 O   0  0  0  0  0  0  0  0  0  0  0  0
  -31.0558  -10.0084   20.5344 O   0  0  0  0  0  0  0  0  0  0  0  0
  -28.3291  -27.0031   20.0947 O   0  0  0  0  0  0  0  0  0  1  0  0
  -28.9609   -5.0312   19.4197 F   0  0  0  0  0  0  0  0  0  0  0  0
  -28.7192   -9.1510   21.7378 F   0  0  0  0  0  0  0  0  0  0  0  0
  1  2  1  0  0  0  0
  1  5  2  0  0  0  0
  2  6  2  0  0  0  0
  3  8  2  0  0  0  0
  3 15  1  0  0  0  0
  4  9  1  0  0  0  0
  4 15  2  0  0  0  0
  5 17  1  0  0  0  0
  6 19  1  0  0  0  0
  7 10  2  0  0  0  0
  7 18  1  0  0  0  0
  8 21  1  0  0  0  0
  9 21  2  0  0  0  0
 10 22  1  0  0  0  0
 11 12  2  0  0  0  0
 11 23  1  0  0  0  0
 12 24  1  0  0  0  0
 13 20  1  0  0  0  0
 13 22  2  0  0  0  0
 14 24  2  0  0  0  0
 14 25  1  0  0  0  0
 15 26  1  0  0  0  0
 16 26  1  0  0  0  0
 16 27  2  0  0  0  0
 16 28  1  0  0  0  0
 17 19  2  0  0  0  0
 17 33  1  0  0  0  0
 18 20  2  0  0  0  0
 18 34  1  0  0  0  0
 19 42  1  0  0  0  0
 20 35  1  0  0  0  0
 21 76  1  0  0  0  0
 22 77  1  0  0  0  0
 23 25  2  0  0  0  0
 23 76  1  0  0  0  0
 24 78  1  0  0  0  0
 25 79  1  0  0  0  0
 26 61  2  0  0  0  0
 27 62  1  0  0  0  0
 27 65  1  0  0  0  0
 28 66  1  0  0  0  0
 28 71  2  0  0  0  0
 29 43  1  0  0  0  0
 29 67  1  0  0  0  0
 29 72  2  0  0  0  0
 30 56  1  0  0  0  0
 30 63  1  0  0  0  0
 30 73  2  0  0  0  0
 31 57  1  0  0  0  0
 31 68  1  0  0  0  0
 31 74  2  0  0  0  0
 32 64  1  0  0  0  0
 32 69  1  0  0  0  0
 32 75  2  0  0  0  0
 33 36  1  0  0  0  0
 34 43  1  0  0  0  0
 35 63  1  0  0  0  0
 36 38  1  0  0  0  0
 37 39  1  0  0  0  0
 37 40  1  0  0  0  0
 38 42  1  0  0  0  0
 39 44  1  0  0  0  0
 40 64  1  0  0  0  0
 41 44  1  0  0  0  0
 41 64  1  0  0  0  0
 42 67  1  0  0  0  0
 43 63  1  0  0  0  0
 44 62  1  0  0  0  0
 45 57  1  0  0  0  0
 46 58  1  0  0  0  0
 47 59  1  0  0  0  0
 48 59  1  0  0  0  0
 49 59  1  0  0  0  0
 50 60  1  0  0  0  0
 51 60  1  0  0  0  0
 52 69  1  0  0  0  0
 53 70  1  0  0  0  0
 54 58  1  0  0  0  0
 54 69  1  0  0  0  0
 55 60  1  0  0  0  0
 55 77  1  0  0  0  0
 56 59  1  0  0  0  0
 56 68  1  0  0  0  0
 57 70  1  0  0  0  0
 58 60  1  0  0  0  0
 61 62  1  0  0  0  0
M  CHG  1  70   1
M  ISO  4  32 100  55 101  69 100  77 101
M  END
> <Batch ID>
0084

> <Smiles>
CNC(C)C(=O)NC(C(=O)N1Cc2cc([101O:1][101CH2:1]C(C)(C)C(C)C[100N:0](C)[100C:0](=O)N3CCCC(n4nc(-c5ccc(Oc6ccc(F)cc6F)cc5)c(C(N)=O)c4N)C3)ccc2CC1C(=O)NC1CCCc2ccccc21)C(C)(C)C

> <Shape>
0.271

> <Color>
0.109

> <Negative vol penalty>
0.000

$$$$
