
  -OEChem-04052318563D

 85 93  0     1  0  0  0  0  0999 V2000
  -27.6565  -33.8842   26.2488 C   0  0  0  0  0  0  0  0  0  0  0  0
  -27.8754  -32.6635   25.6185 C   0  0  0  0  0  0  0  0  0  0  0  0
  -25.8840  -13.3670   19.3379 C   0  0  0  0  0  0  0  0  0  0  0  0
  -26.2640  -13.0453   21.7020 C   0  0  0  0  0  0  0  0  0  0  0  0
  -26.3547  -34.3070   26.5141 C   0  0  0  0  0  0  0  0  0  0  0  0
  -26.7924  -31.8643   25.2540 C   0  0  0  0  0  0  0  0  0  0  0  0
  -27.2588  -29.9748   20.5788 C   0  0  0  0  0  0  0  0  0  0  0  0
  -25.1029  -12.2119   19.3062 C   0  0  0  0  0  0  0  0  0  0  0  0
  -25.4828  -11.8901   21.6704 C   0  0  0  0  0  0  0  0  0  0  0  0
  -28.1104  -28.8830   20.4154 C   0  0  0  0  0  0  0  0  0  0  0  0
  -22.1952  -11.1085   21.6369 C   0  0  0  0  0  0  0  0  0  0  0  0
  -21.2590  -10.9329   22.6559 C   0  0  0  0  0  0  0  0  0  0  0  0
  -26.2051  -27.4034   20.4242 C   0  0  0  0  0  0  0  0  0  0  0  0
  -25.3957  -23.9921   18.3019 C   0  0  0  0  0  0  0  0  0  0  0  0
  -22.3542   -8.8806   23.3083 C   0  0  0  0  0  0  0  0  0  0  0  0
  -24.1362  -21.5789   18.1135 C   0  0  0  0  0  0  0  0  0  0  0  0
  -26.4646  -13.7838   20.5358 C   0  0  0  0  0  0  0  0  0  0  0  0
  -28.4507  -15.2259   19.8407 C   0  0  0  0  0  0  0  0  0  0  0  0
  -25.2549  -33.5169   26.1440 C   0  0  0  0  0  0  0  0  0  0  0  0
  -25.8726  -29.7878   20.6773 C   0  0  0  0  0  0  0  0  0  0  0  0
  -25.4747  -32.2762   25.5158 C   0  0  0  0  0  0  0  0  0  0  0  0
  -25.3380  -28.4947   20.5863 C   0  0  0  0  0  0  0  0  0  0  0  0
  -25.6838  -22.9980   19.2304 C   0  0  0  0  0  0  0  0  0  0  0  0
  -25.0464  -21.7656   19.1414 C   0  0  0  0  0  0  0  0  0  0  0  0
  -24.9023  -11.4734   20.4724 C   0  0  0  0  0  0  0  0  0  0  0  0
  -27.5838  -27.5968   20.3409 C   0  0  0  0  0  0  0  0  0  0  0  0
  -23.2108  -10.1701   21.4536 C   0  0  0  0  0  0  0  0  0  0  0  0
  -21.3385   -9.8190   23.4917 C   0  0  0  0  0  0  0  0  0  0  0  0
  -23.2903   -9.0562   22.2893 C   0  0  0  0  0  0  0  0  0  0  0  0
  -27.2720  -14.9767   20.5690 C   0  0  0  0  0  0  0  0  0  0  0  0
  -24.4701  -23.7057   17.3114 C   0  0  0  0  0  0  0  0  0  0  0  0
  -28.8295  -16.4897   20.2227 C   0  0  0  0  0  0  0  0  0  0  0  0
  -29.1413  -14.3899   18.9027 C   0  0  0  0  0  0  0  0  0  0  0  0
  -23.6843  -30.3646   22.9095 C   0  0  0  0  0  0  0  0  0  0  0  0
  -21.6280  -29.4242   20.5836 C   0  0  0  0  0  0  0  0  0  0  0  0
  -21.1156  -27.6522   17.7124 C   0  0  0  0  0  0  0  0  0  0  0  0
  -25.3693  -20.9390   22.6244 C   0  0  0  0  0  0  0  0  0  0  0  0
  -23.8677  -33.9941   26.4942 C   0  0  0  0  0  0  0  0  0  0  0  0
  -24.9655  -30.9783   20.8267 C   0  0  0  0  0  0  0  0  0  0  0  0
  -23.8553  -28.2421   20.6662 C   0  0  0  0  0  0  0  0  0  0  0  0
  -22.7624  -33.2605   25.7389 C   0  0  0  0  0  0  0  0  0  0  0  0
  -28.5584  -19.5462   23.8859 C   0  0  0  0  0  0  0  0  0  0  0  0
  -23.0031  -31.7545   25.7706 C   0  0  0  0  0  0  0  0  0  0  0  0
  -28.6446  -18.2033   23.1627 C   0  0  0  0  0  0  0  0  0  0  0  0
  -27.1127  -19.9886   24.0903 C   0  0  0  0  0  0  0  0  0  0  0  0
  -26.3984  -18.6868   22.1131 C   0  0  0  0  0  0  0  0  0  0  0  0
  -24.3250  -31.3925   25.0829 C   0  0  1  0  0  0  0  0  0  0  0  0
  -23.6103  -30.6247   21.4315 C   0  0  1  0  0  0  0  0  0  0  0  0
  -27.8427  -18.2347   21.8499 C   0  0  2  0  0  0  0  0  0  0  0  0
  -24.1360  -24.7489   16.2981 C   0  0  0  0  0  0  0  0  0  0  0  0
  -19.3209  -27.0415   16.0681 C   0  0  0  0  0  0  0  0  0  0  0  0
  -28.8065  -22.3471   19.3564 C   0  0  0  0  0  0  0  0  0  0  0  0
  -20.4887  -27.4148   22.5772 C   0  0  0  0  0  0  0  0  0  0  0  0
  -19.4078  -26.2273   20.6563 C   0  0  0  0  0  0  0  0  0  0  0  0
  -18.7756  -28.5831   21.1791 C   0  0  0  0  0  0  0  0  0  0  0  0
  -23.3034  -21.3690   21.3491 C   0  0  0  0  0  0  0  0  0  0  0  0
  -22.5521  -28.9628   15.4813 C   0  0  0  0  0  0  0  0  0  0  0  0
  -26.6882  -23.2780   20.3220 C   0  0  0  0  0  0  0  0  0  0  0  0
  -25.3171  -20.6666   20.1093 C   0  0  0  0  0  0  0  0  0  0  0  0
  -28.9197  -24.3788   20.8779 C   0  0  0  0  0  0  0  0  0  0  0  0
  -21.0350  -28.1053   20.1501 C   0  0  1  0  0  0  0  0  0  0  0  0
  -20.4320  -28.0225   16.4085 C   0  0  2  0  0  0  0  0  0  0  0  0
  -28.1002  -23.6341   19.8043 C   0  0  1  0  0  0  0  0  0  0  0  0
  -19.9549  -27.5869   21.1411 C   0  0  0  0  0  0  0  0  0  0  0  0
  -23.8306  -22.5205   17.1929 N   0  0  0  0  0  0  0  0  0  0  0  0
  -26.9251  -15.9998   21.3543 N   0  0  0  0  0  0  0  0  0  0  0  0
  -27.8915  -16.9043   21.1218 N   0  0  0  0  0  0  0  0  0  0  0  0
  -23.0101  -29.4379   20.8186 N   0  0  0  0  0  0  0  0  0  0  0  0
  -26.3621  -19.9679   22.8344 N   0  0  0  0  0  0  0  0  0  0  0  0
  -29.8703  -17.2756   19.8739 N   0  0  0  0  0  0  0  0  0  0  0  0
  -30.1315  -13.5224   19.3837 N   0  0  0  0  0  0  0  0  0  0  0  0
  -24.1726  -31.4282   23.6441 N   0  0  0  0  0  0  0  0  0  0  0  0
  -20.5506  -28.3036   18.7883 N   0  0  0  0  0  0  0  0  0  0  0  0
  -28.2680  -25.6075   21.3082 N   0  0  0  0  0  0  0  0  0  1  0  0
  -24.6786  -20.8941   21.4039 N   0  0  0  0  0  0  0  0  0  0  0  0
  -21.4165  -28.0243   15.2898 N   0  3  0  0  0  0  0  0  0  0  0  0
  -28.8993  -14.4234   17.6723 O   0  0  0  0  0  0  0  0  0  0  0  0
  -23.3237  -29.2798   23.3508 O   0  0  0  0  0  0  0  0  0  0  0  0
  -20.8931  -30.4078   20.7023 O   0  0  0  0  0  0  0  0  0  0  0  0
  -22.0544  -26.8611   17.7710 O   0  0  0  0  0  0  0  0  0  0  0  0
  -25.1215  -21.8032   23.4752 O   0  0  0  0  0  0  0  0  0  0  0  0
  -24.1399  -10.3463   20.4419 O   0  0  0  0  0  0  0  0  0  0  0  0
  -28.4127  -26.5294   20.1820 O   0  0  0  0  0  0  0  0  0  1  0  0
  -20.4404   -9.6513   24.4711 F   0  0  0  0  0  0  0  0  0  0  0  0
  -24.2645   -8.1519   22.1187 F   0  0  0  0  0  0  0  0  0  0  0  0
  1  2  1  0  0  0  0
  1  5  2  0  0  0  0
  2  6  2  0  0  0  0
  3  8  2  0  0  0  0
  3 17  1  0  0  0  0
  4  9  1  0  0  0  0
  4 17  2  0  0  0  0
  5 19  1  0  0  0  0
  6 21  1  0  0  0  0
  7 10  2  0  0  0  0
  7 20  1  0  0  0  0
  8 25  1  0  0  0  0
  9 25  2  0  0  0  0
 10 26  1  0  0  0  0
 11 12  2  0  0  0  0
 11 27  1  0  0  0  0
 12 28  1  0  0  0  0
 13 22  1  0  0  0  0
 13 26  2  0  0  0  0
 14 23  1  0  0  0  0
 14 31  2  0  0  0  0
 15 28  2  0  0  0  0
 15 29  1  0  0  0  0
 16 24  1  0  0  0  0
 16 65  2  0  0  0  0
 17 30  1  0  0  0  0
 18 30  1  0  0  0  0
 18 32  2  0  0  0  0
 18 33  1  0  0  0  0
 19 21  2  0  0  0  0
 19 38  1  0  0  0  0
 20 22  2  0  0  0  0
 20 39  1  0  0  0  0
 21 47  1  0  0  0  0
 22 40  1  0  0  0  0
 23 24  2  0  0  0  0
 23 58  1  0  0  0  0
 24 59  1  0  0  0  0
 25 82  1  0  0  0  0
 26 83  1  0  0  0  0
 27 29  2  0  0  0  0
 27 82  1  0  0  0  0
 28 84  1  0  0  0  0
 29 85  1  0  0  0  0
 30 66  2  0  0  0  0
 31 50  1  0  0  0  0
 31 65  1  0  0  0  0
 32 67  1  0  0  0  0
 32 70  1  0  0  0  0
 33 71  1  0  0  0  0
 33 77  2  0  0  0  0
 34 48  1  0  0  0  0
 34 72  1  0  0  0  0
 34 78  2  0  0  0  0
 35 61  1  0  0  0  0
 35 68  1  0  0  0  0
 35 79  2  0  0  0  0
 36 62  1  0  0  0  0
 36 73  1  0  0  0  0
 36 80  2  0  0  0  0
 37 69  1  0  0  0  0
 37 75  1  0  0  0  0
 37 81  2  0  0  0  0
 38 41  1  0  0  0  0
 39 48  1  0  0  0  0
 40 68  1  0  0  0  0
 41 43  1  0  0  0  0
 42 44  1  0  0  0  0
 42 45  1  0  0  0  0
 43 47  1  0  0  0  0
 44 49  1  0  0  0  0
 45 69  1  0  0  0  0
 46 49  1  0  0  0  0
 46 69  1  0  0  0  0
 47 72  1  0  0  0  0
 48 68  1  0  0  0  0
 49 67  1  0  0  0  0
 51 62  1  0  0  0  0
 52 63  1  0  0  0  0
 53 64  1  0  0  0  0
 54 64  1  0  0  0  0
 55 64  1  0  0  0  0
 56 75  1  0  0  0  0
 57 76  1  0  0  0  0
 58 63  1  0  0  0  0
 59 75  1  0  0  0  0
 60 63  1  0  0  0  0
 60 74  1  0  0  0  0
 61 64  1  0  0  0  0
 61 73  1  0  0  0  0
 62 76  1  0  0  0  0
 66 67  1  0  0  0  0
 74 83  1  0  0  0  0
M  CHG  1  76   1
M  ISO  4  37 100  74 101  75 100  83 101
M  END
> <Batch ID>
0085

> <Smiles>
CNC(C)C(=O)NC(C(=O)N1Cc2cc([101O:1][101NH:1]CC(C)Cc3cc(C)ncc3C[100N:0](C)[100C:0](=O)N3CCCC(n4nc(-c5ccc(Oc6ccc(F)cc6F)cc5)c(C(N)=O)c4N)C3)ccc2CC1C(=O)NC1CCCc2ccccc21)C(C)(C)C

> <Shape>
0.248

> <Color>
0.069

> <Negative vol penalty>
0.000

$$$$

  -OEChem-04052318563D

 88 96  0     1  0  0  0  0  0999 V2000
  -34.5227  -28.5940   18.5865 C   0  0  0  0  0  0  0  0  0  0  0  0
  -33.4614  -28.1756   17.7902 C   0  0  0  0  0  0  0  0  0  0  0  0
  -26.4989  -12.5834   20.4058 C   0  0  0  0  0  0  0  0  0  0  0  0
  -24.7886  -14.2586   20.0809 C   0  0  0  0  0  0  0  0  0  0  0  0
  -34.4374  -28.4843   19.9738 C   0  0  0  0  0  0  0  0  0  0  0  0
  -32.3145  -27.6463   18.3808 C   0  0  0  0  0  0  0  0  0  0  0  0
  -25.2200  -27.2819   17.4583 C   0  0  0  0  0  0  0  0  0  0  0  0
  -25.5770  -11.7700   21.0648 C   0  0  0  0  0  0  0  0  0  0  0  0
  -23.8667  -13.4452   20.7398 C   0  0  0  0  0  0  0  0  0  0  0  0
  -24.1882  -26.3461   17.3995 C   0  0  0  0  0  0  0  0  0  0  0  0
  -23.5834   -9.0984   22.5149 C   0  0  0  0  0  0  0  0  0  0  0  0
  -23.5565   -7.7448   22.1792 C   0  0  0  0  0  0  0  0  0  0  0  0
  -24.1208  -26.2780   19.8099 C   0  0  0  0  0  0  0  0  0  0  0  0
  -25.1819  -22.3629   19.0785 C   0  0  0  0  0  0  0  0  0  0  0  0
  -23.0293   -8.3223   19.8932 C   0  0  0  0  0  0  0  0  0  0  0  0
  -26.1047  -13.8277   19.9139 C   0  0  0  0  0  0  0  0  0  0  0  0
  -27.3391  -14.6899   17.8547 C   0  0  0  0  0  0  0  0  0  0  0  0
  -33.2850  -27.9623   20.5822 C   0  0  0  0  0  0  0  0  0  0  0  0
  -25.7182  -27.7153   18.6954 C   0  0  0  0  0  0  0  0  0  0  0  0
  -32.2142  -27.5282   19.7775 C   0  0  0  0  0  0  0  0  0  0  0  0
  -25.1573  -27.2213   19.8817 C   0  0  0  0  0  0  0  0  0  0  0  0
  -24.1123  -21.6161   18.5974 C   0  0  0  0  0  0  0  0  0  0  0  0
  -24.3519  -20.5020   17.8006 C   0  0  0  0  0  0  0  0  0  0  0  0
  -24.2610  -12.2009   21.2318 C   0  0  0  0  0  0  0  0  0  0  0  0
  -23.6404  -25.8419   18.5754 C   0  0  0  0  0  0  0  0  0  0  0  0
  -23.3332  -10.0639   21.5398 C   0  0  0  0  0  0  0  0  0  0  0  0
  -23.2794   -7.3567   20.8684 C   0  0  0  0  0  0  0  0  0  0  0  0
  -23.0562   -9.6759   20.2290 C   0  0  0  0  0  0  0  0  0  0  0  0
  -27.0566  -14.6686   19.2336 C   0  0  0  0  0  0  0  0  0  0  0  0
  -26.4619  -21.9570   18.7369 C   0  0  0  0  0  0  0  0  0  0  0  0
  -25.6691  -20.1796   17.5161 C   0  0  0  0  0  0  0  0  0  0  0  0
  -28.3080  -15.6537   17.7175 C   0  0  0  0  0  0  0  0  0  0  0  0
  -26.7760  -13.9083   16.7927 C   0  0  0  0  0  0  0  0  0  0  0  0
  -28.5387  -27.5679   20.1538 C   0  0  0  0  0  0  0  0  0  0  0  0
  -27.0581  -29.4298   22.3591 C   0  0  0  0  0  0  0  0  0  0  0  0
  -24.1354  -30.4599   23.7887 C   0  0  0  0  0  0  0  0  0  0  0  0
  -29.7757  -20.4535   20.9821 C   0  0  0  0  0  0  0  0  0  0  0  0
  -33.2579  -27.8195   22.0833 C   0  0  0  0  0  0  0  0  0  0  0  0
  -26.8135  -28.7452   18.7418 C   0  0  0  0  0  0  0  0  0  0  0  0
  -25.6427  -27.6694   21.2352 C   0  0  0  0  0  0  0  0  0  0  0  0
  -31.8578  -27.5947   22.6486 C   0  0  0  0  0  0  0  0  0  0  0  0
  -31.8934  -17.7264   20.1132 C   0  0  0  0  0  0  0  0  0  0  0  0
  -31.1201  -26.5319   21.8405 C   0  0  0  0  0  0  0  0  0  0  0  0
  -30.9194  -16.6354   19.6648 C   0  0  0  0  0  0  0  0  0  0  0  0
  -31.3288  -18.5456   21.2718 C   0  0  0  0  0  0  0  0  0  0  0  0
  -29.0196  -18.0320   20.5808 C   0  0  0  0  0  0  0  0  0  0  0  0
  -30.9435  -26.9716   20.3821 C   0  0  1  0  0  0  0  0  0  0  0  0
  -27.5921  -28.7306   20.0536 C   0  0  1  0  0  0  0  0  0  0  0  0
  -29.5214  -17.2153   19.3776 C   0  0  2  0  0  0  0  0  0  0  0  0
  -23.2243  -19.6806   17.2724 C   0  0  0  0  0  0  0  0  0  0  0  0
  -25.9896  -18.9933   16.6666 C   0  0  0  0  0  0  0  0  0  0  0  0
  -23.2467  -31.9598   25.5937 C   0  0  0  0  0  0  0  0  0  0  0  0
  -29.8755  -23.2376   16.0314 C   0  0  0  0  0  0  0  0  0  0  0  0
  -28.1556  -24.7922   16.9694 C   0  0  0  0  0  0  0  0  0  0  0  0
  -27.9126  -27.3958   24.4668 C   0  0  0  0  0  0  0  0  0  0  0  0
  -26.2355  -28.4097   26.0248 C   0  0  0  0  0  0  0  0  0  0  0  0
  -28.1342  -29.7848   25.1723 C   0  0  0  0  0  0  0  0  0  0  0  0
  -22.6140  -32.0918   21.8442 C   0  0  0  0  0  0  0  0  0  0  0  0
  -22.7077  -22.0356   18.9506 C   0  0  0  0  0  0  0  0  0  0  0  0
  -21.9683  -22.7357   17.8084 C   0  0  0  0  0  0  0  0  0  0  0  0
  -28.8554  -22.7047   18.2662 C   0  0  0  0  0  0  0  0  0  0  0  0
  -28.1081  -22.2589   20.6372 C   0  0  0  0  0  0  0  0  0  0  0  0
  -22.6096  -24.0545   17.3927 C   0  0  0  0  0  0  0  0  0  1  0  0
  -27.6341  -22.7338   19.2364 C   0  0  2  0  0  0  0  0  0  0  0  0
  -26.2471  -29.1709   23.6058 C   0  0  1  0  0  0  0  0  0  0  0  0
  -23.6100  -31.8447   24.1214 C   0  0  2  0  0  0  0  0  0  0  0  0
  -28.6025  -23.3324   16.8779 C   0  0  0  0  0  0  0  0  0  0  0  0
  -27.1243  -28.6802   24.7921 C   0  0  0  0  0  0  0  0  0  0  0  0
  -27.7871  -15.5489   19.9232 N   0  0  0  0  0  0  0  0  0  0  0  0
  -26.7340  -20.8808   17.9653 N   0  0  0  0  0  0  0  0  0  0  0  0
  -28.5382  -16.1322   18.9737 N   0  0  0  0  0  0  0  0  0  0  0  0
  -26.7196  -28.6733   21.2282 N   0  0  0  0  0  0  0  0  0  0  0  0
  -30.0025  -19.0681   20.9346 N   0  0  0  0  0  0  0  0  0  0  0  0
  -28.9770  -16.1299   16.6460 N   0  0  0  0  0  0  0  0  0  0  0  0
  -25.7909  -12.9628   17.1088 N   0  0  0  0  0  0  0  0  0  0  0  0
  -29.8666  -27.9320   20.2706 N   0  0  0  0  0  0  0  0  0  0  0  0
  -25.5102  -30.4006   23.8762 N   0  0  0  0  0  0  0  0  0  0  0  0
  -28.4930  -20.8651   20.6416 N   0  0  0  0  0  0  0  0  0  0  0  0
  -22.3951  -32.1459   23.3126 N   0  3  0  0  0  0  0  0  0  0  0  0
  -27.1474  -14.0329   15.6010 O   0  0  0  0  0  0  0  0  0  0  0  0
  -28.0968  -26.4252   20.1285 O   0  0  0  0  0  0  0  0  0  0  0  0
  -27.9539  -30.2774   22.3856 O   0  0  0  0  0  0  0  0  0  0  0  0
  -23.3995  -29.5234   23.4855 O   0  0  0  0  0  0  0  0  0  0  0  0
  -30.6530  -21.2641   21.2990 O   0  0  0  0  0  0  0  0  0  0  0  0
  -23.3611  -11.4074   21.8745 O   0  0  0  0  0  0  0  0  0  0  0  0
  -22.6336  -24.9279   18.5209 O   0  0  0  0  0  0  0  0  0  1  0  0
  -23.2551   -6.0569   20.5458 F   0  0  0  0  0  0  0  0  0  0  0  0
  -22.8161  -10.5989   19.2876 F   0  0  0  0  0  0  0  0  0  0  0  0
  1  2  1  0  0  0  0
  1  5  2  0  0  0  0
  2  6  2  0  0  0  0
  3  8  2  0  0  0  0
  3 16  1  0  0  0  0
  4  9  1  0  0  0  0
  4 16  2  0  0  0  0
  5 18  1  0  0  0  0
  6 20  1  0  0  0  0
  7 10  2  0  0  0  0
  7 19  1  0  0  0  0
  8 24  1  0  0  0  0
  9 24  2  0  0  0  0
 10 25  1  0  0  0  0
 11 12  2  0  0  0  0
 11 26  1  0  0  0  0
 12 27  1  0  0  0  0
 13 21  1  0  0  0  0
 13 25  2  0  0  0  0
 14 22  1  0  0  0  0
 14 30  2  0  0  0  0
 15 27  2  0  0  0  0
 15 28  1  0  0  0  0
 16 29  1  0  0  0  0
 17 29  1  0  0  0  0
 17 32  2  0  0  0  0
 17 33  1  0  0  0  0
 18 20  2  0  0  0  0
 18 38  1  0  0  0  0
 19 21  2  0  0  0  0
 19 39  1  0  0  0  0
 20 47  1  0  0  0  0
 21 40  1  0  0  0  0
 22 23  2  0  0  0  0
 22 59  1  0  0  0  0
 23 31  1  0  0  0  0
 23 50  1  0  0  0  0
 24 85  1  0  0  0  0
 25 86  1  0  0  0  0
 26 28  2  0  0  0  0
 26 85  1  0  0  0  0
 27 87  1  0  0  0  0
 28 88  1  0  0  0  0
 29 69  2  0  0  0  0
 30 64  1  0  0  0  0
 30 70  1  0  0  0  0
 31 51  1  0  0  0  0
 31 70  2  0  0  0  0
 32 71  1  0  0  0  0
 32 74  1  0  0  0  0
 33 75  1  0  0  0  0
 33 80  2  0  0  0  0
 34 48  1  0  0  0  0
 34 76  1  0  0  0  0
 34 81  2  0  0  0  0
 35 65  1  0  0  0  0
 35 72  1  0  0  0  0
 35 82  2  0  0  0  0
 36 66  1  0  0  0  0
 36 77  1  0  0  0  0
 36 83  2  0  0  0  0
 37 73  1  0  0  0  0
 37 78  1  0  0  0  0
 37 84  2  0  0  0  0
 38 41  1  0  0  0  0
 39 48  1  0  0  0  0
 40 72  1  0  0  0  0
 41 43  1  0  0  0  0
 42 44  1  0  0  0  0
 42 45  1  0  0  0  0
 43 47  1  0  0  0  0
 44 49  1  0  0  0  0
 45 73  1  0  0  0  0
 46 49  1  0  0  0  0
 46 73  1  0  0  0  0
 47 76  1  0  0  0  0
 48 72  1  0  0  0  0
 49 71  1  0  0  0  0
 52 66  1  0  0  0  0
 53 67  1  0  0  0  0
 54 67  1  0  0  0  0
 55 68  1  0  0  0  0
 56 68  1  0  0  0  0
 57 68  1  0  0  0  0
 58 79  1  0  0  0  0
 59 60  1  0  0  0  0
 60 63  1  0  0  0  0
 61 64  1  0  0  0  0
 61 67  1  0  0  0  0
 62 64  1  0  0  0  0
 62 78  1  0  0  0  0
 63 86  1  0  0  0  0
 65 68  1  0  0  0  0
 65 77  1  0  0  0  0
 66 79  1  0  0  0  0
 69 71  1  0  0  0  0
M  CHG  1  79   1
M  ISO  4  37 100  63 101  78 100  86 101
M  END
> <Batch ID>
0085

> <Smiles>
CNC(C)C(=O)NC(C(=O)N1Cc2cc([101O:1][101CH2:1]CCc3cc(C(C[100NH:0][100C:0](=O)N4CCCC(n5nc(-c6ccc(Oc7ccc(F)cc7F)cc6)c(C(N)=O)c5N)C4)CC(C)C)nc(C)c3C)ccc2CC1C(=O)NC1CCCc2ccccc21)C(C)(C)C

> <Shape>
0.237

> <Color>
0.076

> <Negative vol penalty>
0.000

$$$$

  -OEChem-04052318563D

 82 90  0     1  0  0  0  0  0999 V2000
  -27.5910  -34.5928   24.5421 C   0  0  0  0  0  0  0  0  0  0  0  0
  -27.8368  -33.2873   24.1292 C   0  0  0  0  0  0  0  0  0  0  0  0
  -24.2569  -15.1772   22.0469 C   0  0  0  0  0  0  0  0  0  0  0  0
  -24.1966  -14.3014   19.7960 C   0  0  0  0  0  0  0  0  0  0  0  0
  -26.3108  -34.9640   24.9511 C   0  0  0  0  0  0  0  0  0  0  0  0
  -26.8028  -32.3517   24.1262 C   0  0  0  0  0  0  0  0  0  0  0  0
  -26.7117  -29.5703   19.8954 C   0  0  0  0  0  0  0  0  0  0  0  0
  -23.5598  -14.0577   22.5012 C   0  0  0  0  0  0  0  0  0  0  0  0
  -23.4995  -13.1819   20.2503 C   0  0  0  0  0  0  0  0  0  0  0  0
  -27.6394  -28.5345   19.7942 C   0  0  0  0  0  0  0  0  0  0  0  0
  -22.0192   -9.9206   20.8756 C   0  0  0  0  0  0  0  0  0  0  0  0
  -22.4280   -8.6696   20.4135 C   0  0  0  0  0  0  0  0  0  0  0  0
  -25.9331  -26.9523   20.4301 C   0  0  0  0  0  0  0  0  0  0  0  0
  -24.6153   -9.0293   21.3745 C   0  0  0  0  0  0  0  0  0  0  0  0
  -30.3706  -21.2084   17.9718 C   0  0  0  0  0  0  0  0  0  0  0  0
  -24.5753  -15.2990   20.6943 C   0  0  0  0  0  0  0  0  0  0  0  0
  -26.6912  -16.6066   20.1279 C   0  0  0  0  0  0  0  0  0  0  0  0
  -25.2583  -34.0350   24.9440 C   0  0  0  0  0  0  0  0  0  0  0  0
  -25.3882  -29.3058   20.2759 C   0  0  0  0  0  0  0  0  0  0  0  0
  -25.5077  -32.7105   24.5368 C   0  0  0  0  0  0  0  0  0  0  0  0
  -24.9899  -27.9862   20.5329 C   0  0  0  0  0  0  0  0  0  0  0  0
  -23.1811  -13.0600   21.6029 C   0  0  0  0  0  0  0  0  0  0  0  0
  -27.2509  -27.2257   20.0644 C   0  0  0  0  0  0  0  0  0  0  0  0
  -22.9085  -10.7260   21.5871 C   0  0  0  0  0  0  0  0  0  0  0  0
  -23.7260   -8.2239   20.6630 C   0  0  0  0  0  0  0  0  0  0  0  0
  -24.2065  -10.2803   21.8365 C   0  0  0  0  0  0  0  0  0  0  0  0
  -25.2949  -16.4555   20.2243 C   0  0  0  0  0  0  0  0  0  0  0  0
  -31.0061  -20.8515   16.7674 C   0  0  0  0  0  0  0  0  0  0  0  0
  -29.3558  -22.0507   17.5881 C   0  0  0  0  0  0  0  0  0  0  0  0
  -26.8658  -17.8743   19.6290 C   0  0  0  0  0  0  0  0  0  0  0  0
  -27.7370  -15.6835   20.4595 C   0  0  0  0  0  0  0  0  0  0  0  0
  -23.5391  -30.1710   22.7123 C   0  0  0  0  0  0  0  0  0  0  0  0
  -21.2492  -28.6175   21.0196 C   0  0  0  0  0  0  0  0  0  0  0  0
  -20.4763  -26.2537   18.6826 C   0  0  0  0  0  0  0  0  0  0  0  0
  -25.4942  -21.9249   16.0434 C   0  0  0  0  0  0  0  0  0  0  0  0
  -23.9022  -34.4706   25.4398 C   0  0  0  0  0  0  0  0  0  0  0  0
  -24.3929  -30.4308   20.3545 C   0  0  0  0  0  0  0  0  0  0  0  0
  -23.5760  -27.6467   20.9255 C   0  0  0  0  0  0  0  0  0  0  0  0
  -22.7761  -33.5161   25.0512 C   0  0  0  0  0  0  0  0  0  0  0  0
  -23.5631  -21.6573   19.0226 C   0  0  0  0  0  0  0  0  0  0  0  0
  -23.1813  -32.0717   25.3279 C   0  0  0  0  0  0  0  0  0  0  0  0
  -23.9519  -20.2906   19.5890 C   0  0  0  0  0  0  0  0  0  0  0  0
  -23.5083  -21.6409   17.4966 C   0  0  0  0  0  0  0  0  0  0  0  0
  -25.1206  -19.7793   17.4046 C   0  0  0  0  0  0  0  0  0  0  0  0
  -24.4064  -31.6734   24.4960 C   0  0  1  0  0  0  0  0  0  0  0  0
  -23.1997  -30.1116   21.2498 C   0  0  1  0  0  0  0  0  0  0  0  0
  -25.2436  -19.7606   18.9379 C   0  0  2  0  0  0  0  0  0  0  0  0
  -32.1676  -19.9629   16.5947 C   0  0  0  0  0  0  0  0  0  0  0  0
  -18.5172  -25.1829   17.5369 C   0  0  0  0  0  0  0  0  0  0  0  0
  -20.6722  -26.9883   23.5341 C   0  0  0  0  0  0  0  0  0  0  0  0
  -19.4314  -25.3504   22.1039 C   0  0  0  0  0  0  0  0  0  0  0  0
  -18.6391  -27.7099   22.2693 C   0  0  0  0  0  0  0  0  0  0  0  0
  -21.3826  -27.1738   16.0197 C   0  0  0  0  0  0  0  0  0  0  0  0
  -28.3111  -22.7760   18.3980 C   0  0  0  0  0  0  0  0  0  0  0  0
  -28.7459  -24.1691   18.8581 C   0  0  0  0  0  0  0  0  0  0  0  0
  -28.5885  -22.9157   15.3571 C   0  0  0  0  0  0  0  0  0  0  0  0
  -27.5392  -22.0666   14.6443 C   0  0  0  0  0  0  0  0  0  0  0  0
  -27.6530  -24.9277   19.6021 C   0  0  0  0  0  0  0  0  0  1  0  0
  -20.7412  -27.1971   20.9616 C   0  0  1  0  0  0  0  0  0  0  0  0
  -19.5551  -26.2928   17.4767 C   0  0  2  0  0  0  0  0  0  0  0  0
  -19.8982  -26.8177   22.2118 C   0  0  0  0  0  0  0  0  0  0  0  0
  -24.6297  -17.5406   19.8194 N   0  0  0  0  0  0  0  0  0  0  0  0
  -30.4422  -21.4205   15.6986 N   0  0  0  0  0  0  0  0  0  0  0  0
  -29.4417  -22.1433   16.2301 N   0  0  0  0  0  0  0  0  0  0  0  0
  -25.6122  -18.3857   19.4638 N   0  0  0  0  0  0  0  0  0  0  0  0
  -22.6414  -28.7821   20.9948 N   0  0  0  0  0  0  0  0  0  0  0  0
  -24.7640  -21.1296   16.9418 N   0  0  0  0  0  0  0  0  0  0  0  0
  -27.9677  -18.5904   19.3201 N   0  0  0  0  0  0  0  0  0  0  0  0
  -27.3820  -14.4234   20.9601 N   0  0  0  0  0  0  0  0  0  0  0  0
  -24.0208  -31.3974   23.1287 N   0  0  0  0  0  0  0  0  0  0  0  0
  -20.0248  -27.0711   19.6971 N   0  0  0  0  0  0  0  0  0  0  0  0
  -26.6758  -21.3676   15.5700 N   0  0  0  0  0  0  0  0  0  0  0  0
  -20.3400  -26.1346   16.2198 N   0  3  0  0  0  0  0  0  0  0  0  0
  -28.9506  -15.9736   20.3316 O   0  0  0  0  0  0  0  0  0  0  0  0
  -23.3747  -29.1782   23.4116 O   0  0  0  0  0  0  0  0  0  0  0  0
  -20.4404  -29.5471   21.0773 O   0  0  0  0  0  0  0  0  0  0  0  0
  -21.4928  -25.5638   18.7222 O   0  0  0  0  0  0  0  0  0  0  0  0
  -25.1236  -23.0506   15.6935 O   0  0  0  0  0  0  0  0  0  0  0  0
  -22.5010  -11.9674   22.0459 O   0  0  0  0  0  0  0  0  0  0  0  0
  -28.1546  -26.2129   19.9671 O   0  0  0  0  0  0  0  0  0  1  0  0
  -24.1178   -7.0219   20.2205 F   0  0  0  0  0  0  0  0  0  0  0  0
  -25.0650  -11.0491   22.5205 F   0  0  0  0  0  0  0  0  0  0  0  0
  1  2  1  0  0  0  0
  1  5  2  0  0  0  0
  2  6  2  0  0  0  0
  3  8  2  0  0  0  0
  3 16  1  0  0  0  0
  4  9  1  0  0  0  0
  4 16  2  0  0  0  0
  5 18  1  0  0  0  0
  6 20  1  0  0  0  0
  7 10  2  0  0  0  0
  7 19  1  0  0  0  0
  8 22  1  0  0  0  0
  9 22  2  0  0  0  0
 10 23  1  0  0  0  0
 11 12  2  0  0  0  0
 11 24  1  0  0  0  0
 12 25  1  0  0  0  0
 13 21  1  0  0  0  0
 13 23  2  0  0  0  0
 14 25  2  0  0  0  0
 14 26  1  0  0  0  0
 15 28  1  0  0  0  0
 15 29  2  0  0  0  0
 16 27  1  0  0  0  0
 17 27  1  0  0  0  0
 17 30  2  0  0  0  0
 17 31  1  0  0  0  0
 18 20  2  0  0  0  0
 18 36  1  0  0  0  0
 19 21  2  0  0  0  0
 19 37  1  0  0  0  0
 20 45  1  0  0  0  0
 21 38  1  0  0  0  0
 22 79  1  0  0  0  0
 23 80  1  0  0  0  0
 24 26  2  0  0  0  0
 24 79  1  0  0  0  0
 25 81  1  0  0  0  0
 26 82  1  0  0  0  0
 27 62  2  0  0  0  0
 28 48  1  0  0  0  0
 28 63  2  0  0  0  0
 29 54  1  0  0  0  0
 29 64  1  0  0  0  0
 30 65  1  0  0  0  0
 30 68  1  0  0  0  0
 31 69  1  0  0  0  0
 31 74  2  0  0  0  0
 32 46  1  0  0  0  0
 32 70  1  0  0  0  0
 32 75  2  0  0  0  0
 33 59  1  0  0  0  0
 33 66  1  0  0  0  0
 33 76  2  0  0  0  0
 34 60  1  0  0  0  0
 34 71  1  0  0  0  0
 34 77  2  0  0  0  0
 35 67  1  0  0  0  0
 35 72  1  0  0  0  0
 35 78  2  0  0  0  0
 36 39  1  0  0  0  0
 37 46  1  0  0  0  0
 38 66  1  0  0  0  0
 39 41  1  0  0  0  0
 40 42  1  0  0  0  0
 40 43  1  0  0  0  0
 41 45  1  0  0  0  0
 42 47  1  0  0  0  0
 43 67  1  0  0  0  0
 44 47  1  0  0  0  0
 44 67  1  0  0  0  0
 45 70  1  0  0  0  0
 46 66  1  0  0  0  0
 47 65  1  0  0  0  0
 49 60  1  0  0  0  0
 50 61  1  0  0  0  0
 51 61  1  0  0  0  0
 52 61  1  0  0  0  0
 53 73  1  0  0  0  0
 54 55  1  0  0  0  0
 55 58  1  0  0  0  0
 56 57  1  0  0  0  0
 56 64  1  0  0  0  0
 57 72  1  0  0  0  0
 58 80  1  0  0  0  0
 59 61  1  0  0  0  0
 59 71  1  0  0  0  0
 60 73  1  0  0  0  0
 62 65  1  0  0  0  0
 63 64  1  0  0  0  0
M  CHG  1  73   1
M  ISO  4  35 100  58 101  72 100  80 101
M  END
> <Batch ID>
0085

> <Smiles>
CNC(C)C(=O)NC(C(=O)N1Cc2cc([101O:1][101CH2:1]CCc3cc(C)nn3CC[100NH:0][100C:0](=O)N3CCCC(n4nc(-c5ccc(Oc6ccc(F)cc6F)cc5)c(C(N)=O)c4N)C3)ccc2CC1C(=O)NC1CCCc2ccccc21)C(C)(C)C

> <Shape>
0.248

> <Color>
0.071

> <Negative vol penalty>
0.000

$$$$

  -OEChem-04052318563D

 91 99  0     1  0  0  0  0  0999 V2000
  -26.6782  -34.3373   25.1067 C   0  0  0  0  0  0  0  0  0  0  0  0
  -27.1251  -33.1139   24.6179 C   0  0  0  0  0  0  0  0  0  0  0  0
  -23.0927   -9.9761   19.8995 C   0  0  0  0  0  0  0  0  0  0  0  0
  -24.0669   -9.7375   22.0975 C   0  0  0  0  0  0  0  0  0  0  0  0
  -25.3284  -34.5155   25.4070 C   0  0  0  0  0  0  0  0  0  0  0  0
  -26.2227  -32.0676   24.4301 C   0  0  0  0  0  0  0  0  0  0  0  0
  -26.8856  -29.7013   20.0022 C   0  0  0  0  0  0  0  0  0  0  0  0
  -22.4100   -8.7719   20.0713 C   0  0  0  0  0  0  0  0  0  0  0  0
  -23.3842   -8.5334   22.2694 C   0  0  0  0  0  0  0  0  0  0  0  0
  -27.9422  -28.7958   19.9161 C   0  0  0  0  0  0  0  0  0  0  0  0
  -20.2527   -7.5382   23.0593 C   0  0  0  0  0  0  0  0  0  0  0  0
  -19.6121   -7.3267   24.2801 C   0  0  0  0  0  0  0  0  0  0  0  0
  -26.3970  -26.9715   20.2383 C   0  0  0  0  0  0  0  0  0  0  0  0
  -27.4549  -18.4308   21.3597 C   0  0  0  0  0  0  0  0  0  0  0  0
  -20.9741   -5.3667   24.6552 C   0  0  0  0  0  0  0  0  0  0  0  0
  -23.9212  -10.4589   20.9125 C   0  0  0  0  0  0  0  0  0  0  0  0
  -24.1761  -12.9919   21.0754 C   0  0  0  0  0  0  0  0  0  0  0  0
  -24.4072  -33.4740   25.2136 C   0  0  0  0  0  0  0  0  0  0  0  0
  -25.5760  -29.2487   20.2183 C   0  0  0  0  0  0  0  0  0  0  0  0
  -24.8595  -32.2317   24.7293 C   0  0  0  0  0  0  0  0  0  0  0  0
  -25.3252  -27.8732   20.3242 C   0  0  0  0  0  0  0  0  0  0  0  0
  -28.1872  -17.3783   21.8976 C   0  0  0  0  0  0  0  0  0  0  0  0
  -27.8455  -18.9959   20.1509 C   0  0  0  0  0  0  0  0  0  0  0  0
  -22.5557   -8.0506   21.2563 C   0  0  0  0  0  0  0  0  0  0  0  0
  -27.6984  -27.4309   20.0370 C   0  0  0  0  0  0  0  0  0  0  0  0
  -21.2539   -6.6639   22.6363 C   0  0  0  0  0  0  0  0  0  0  0  0
  -19.9728   -6.2409   25.0781 C   0  0  0  0  0  0  0  0  0  0  0  0
  -21.6146   -5.5782   23.4343 C   0  0  0  0  0  0  0  0  0  0  0  0
  -24.6271  -11.7024   20.7354 C   0  0  0  0  0  0  0  0  0  0  0  0
  -29.2933  -16.9311   21.1932 C   0  0  0  0  0  0  0  0  0  0  0  0
  -28.9671  -18.4764   19.5247 C   0  0  0  0  0  0  0  0  0  0  0  0
  -25.2063  -13.8235   20.7100 C   0  0  0  0  0  0  0  0  0  0  0  0
  -22.9367  -13.4014   21.6687 C   0  0  0  0  0  0  0  0  0  0  0  0
  -23.4097  -29.6595   22.5078 C   0  0  0  0  0  0  0  0  0  0  0  0
  -30.6829  -14.9578   20.6097 C   0  0  0  0  0  0  0  0  0  0  0  0
  -21.5056  -28.0121   20.4627 C   0  0  0  0  0  0  0  0  0  0  0  0
  -21.2629  -25.8020   17.8737 C   0  0  0  0  0  0  0  0  0  0  0  0
  -22.9661  -33.6989   25.5971 C   0  0  0  0  0  0  0  0  0  0  0  0
  -24.4436  -30.2366   20.2820 C   0  0  0  0  0  0  0  0  0  0  0  0
  -23.9348  -27.3347   20.5365 C   0  0  0  0  0  0  0  0  0  0  0  0
  -22.0117  -32.6590   25.0159 C   0  0  0  0  0  0  0  0  0  0  0  0
  -29.3538  -12.9328   17.9690 C   0  0  0  0  0  0  0  0  0  0  0  0
  -22.5680  -31.2529   25.2161 C   0  0  0  0  0  0  0  0  0  0  0  0
  -27.9814  -12.5135   18.4942 C   0  0  0  0  0  0  0  0  0  0  0  0
  -30.3780  -13.0267   19.0957 C   0  0  0  0  0  0  0  0  0  0  0  0
  -28.5959  -13.5094   20.7427 C   0  0  0  0  0  0  0  0  0  0  0  0
  -23.9070  -31.0806   24.4888 C   0  0  1  0  0  0  0  0  0  0  0  0
  -23.2208  -29.6972   21.0177 C   0  0  1  0  0  0  0  0  0  0  0  0
  -27.5241  -13.4323   19.6410 C   0  0  2  0  0  0  0  0  0  0  0  0
  -27.7738  -16.7685   23.1923 C   0  0  0  0  0  0  0  0  0  0  0  0
  -27.0654  -20.1239   19.5693 C   0  0  0  0  0  0  0  0  0  0  0  0
  -29.3397  -16.8695   16.8882 C   0  0  0  0  0  0  0  0  0  0  0  0
  -31.2638  -16.2685   22.6321 C   0  0  0  0  0  0  0  0  0  0  0  0
  -19.5723  -24.6197   16.4447 C   0  0  0  0  0  0  0  0  0  0  0  0
  -31.1847  -23.3942   16.3960 C   0  0  0  0  0  0  0  0  0  0  0  0
  -20.9032  -26.0992   22.7622 C   0  0  0  0  0  0  0  0  0  0  0  0
  -20.0206  -24.4671   21.0813 C   0  0  0  0  0  0  0  0  0  0  0  0
  -18.9244  -26.6914   21.3523 C   0  0  0  0  0  0  0  0  0  0  0  0
  -22.2940  -27.0665   15.4045 C   0  0  0  0  0  0  0  0  0  0  0  0
  -31.7002  -19.8426   18.8821 C   0  0  0  0  0  0  0  0  0  0  0  0
  -30.1993  -18.0514   17.3201 C   0  0  0  0  0  0  0  0  0  0  0  0
  -29.6688  -24.6600   18.7717 C   0  0  0  0  0  0  0  0  0  0  0  0
  -29.3918  -23.2659   18.2051 C   0  0  0  0  0  0  0  0  0  0  0  0
  -30.3760  -21.1336   17.2146 C   0  0  0  0  0  0  0  0  0  0  0  0
  -28.4297  -25.2493   19.4355 C   0  0  0  0  0  0  0  0  0  1  0  0
  -30.1187  -15.8045   21.7227 C   0  0  1  0  0  0  0  0  0  0  0  0
  -29.4377  -19.0512   18.2065 C   0  0  2  0  0  0  0  0  0  0  0  0
  -21.1890  -26.5534   20.2368 C   0  0  1  0  0  0  0  0  0  0  0  0
  -20.4626  -25.8448   16.5844 C   0  0  2  0  0  0  0  0  0  0  0  0
  -30.6395  -22.6007   17.5878 C   0  0  1  0  0  0  0  0  0  0  0  0
  -20.2859  -25.9627   21.3561 C   0  0  0  0  0  0  0  0  0  0  0  0
  -25.8487  -11.7092   20.1953 N   0  0  0  0  0  0  0  0  0  0  0  0
  -29.7036  -17.4549   20.0164 N   0  0  0  0  0  0  0  0  0  0  0  0
  -26.1740  -13.0132   20.1931 N   0  0  0  0  0  0  0  0  0  0  0  0
  -22.8618  -28.3409   20.5984 N   0  0  0  0  0  0  0  0  0  0  0  0
  -29.8968  -13.8903   20.1754 N   0  0  0  0  0  0  0  0  0  0  0  0
  -25.3698  -15.1615   20.7836 N   0  0  0  0  0  0  0  0  0  0  0  0
  -21.9885  -12.4178   21.9814 N   0  0  0  0  0  0  0  0  0  0  0  0
  -23.6908  -30.8899   23.0705 N   0  0  0  0  0  0  0  0  0  0  0  0
  -20.6174  -26.4625   18.8976 N   0  0  0  0  0  0  0  0  0  0  0  0
  -21.3769  -25.8978   15.4087 N   0  3  0  0  0  0  0  0  0  0  0  0
  -30.3277  -20.2540   18.4067 N   0  3  1  0  0  0  0  0  0  0  0  0
  -22.6711  -14.6055   21.8991 O   0  0  0  0  0  0  0  0  0  0  0  0
  -23.3066  -28.5934   23.1032 O   0  0  0  0  0  0  0  0  0  0  0  0
  -31.7880  -15.2402   20.1394 O   0  0  0  0  0  0  0  0  0  0  0  0
  -20.5840  -28.8307   20.5097 O   0  0  0  0  0  0  0  0  0  0  0  0
  -22.3499  -25.2358   17.9644 O   0  0  0  0  0  0  0  0  0  0  0  0
  -21.8895   -6.8757   21.4244 O   0  0  0  0  0  0  0  0  0  0  0  0
  -28.7280  -26.5449   19.9540 O   0  0  0  0  0  0  0  0  0  1  0  0
  -19.3586   -6.0388   26.2512 F   0  0  0  0  0  0  0  0  0  0  0  0
  -22.5766   -4.7355   23.0339 F   0  0  0  0  0  0  0  0  0  0  0  0
  1  2  1  0  0  0  0
  1  5  2  0  0  0  0
  2  6  2  0  0  0  0
  3  8  2  0  0  0  0
  3 16  1  0  0  0  0
  4  9  1  0  0  0  0
  4 16  2  0  0  0  0
  5 18  1  0  0  0  0
  6 20  1  0  0  0  0
  7 10  2  0  0  0  0
  7 19  1  0  0  0  0
  8 24  1  0  0  0  0
  9 24  2  0  0  0  0
 10 25  1  0  0  0  0
 11 12  2  0  0  0  0
 11 26  1  0  0  0  0
 12 27  1  0  0  0  0
 13 21  1  0  0  0  0
 13 25  2  0  0  0  0
 14 22  2  0  0  0  0
 14 23  1  0  0  0  0
 15 27  2  0  0  0  0
 15 28  1  0  0  0  0
 16 29  1  0  0  0  0
 17 29  1  0  0  0  0
 17 32  2  0  0  0  0
 17 33  1  0  0  0  0
 18 20  2  0  0  0  0
 18 38  1  0  0  0  0
 19 21  2  0  0  0  0
 19 39  1  0  0  0  0
 20 47  1  0  0  0  0
 21 40  1  0  0  0  0
 22 30  1  0  0  0  0
 22 50  1  0  0  0  0
 23 31  2  0  0  0  0
 23 51  1  0  0  0  0
 24 88  1  0  0  0  0
 25 89  1  0  0  0  0
 26 28  2  0  0  0  0
 26 88  1  0  0  0  0
 27 90  1  0  0  0  0
 28 91  1  0  0  0  0
 29 72  2  0  0  0  0
 30 66  1  0  0  0  0
 30 73  2  0  0  0  0
 31 67  1  0  0  0  0
 31 73  1  0  0  0  0
 32 74  1  0  0  0  0
 32 77  1  0  0  0  0
 33 78  1  0  0  0  0
 33 83  2  0  0  0  0
 34 48  1  0  0  0  0
 34 79  1  0  0  0  0
 34 84  2  0  0  0  0
 35 66  1  0  0  0  0
 35 76  1  0  0  0  0
 35 85  2  0  0  0  0
 36 68  1  0  0  0  0
 36 75  1  0  0  0  0
 36 86  2  0  0  0  0
 37 69  1  0  0  0  0
 37 80  1  0  0  0  0
 37 87  2  0  0  0  0
 38 41  1  0  0  0  0
 39 48  1  0  0  0  0
 40 75  1  0  0  0  0
 41 43  1  0  0  0  0
 42 44  1  0  0  0  0
 42 45  1  0  0  0  0
 43 47  1  0  0  0  0
 44 49  1  0  0  0  0
 45 76  1  0  0  0  0
 46 49  1  0  0  0  0
 46 76  1  0  0  0  0
 47 79  1  0  0  0  0
 48 75  1  0  0  0  0
 49 74  1  0  0  0  0
 52 61  1  0  0  0  0
 53 66  1  0  0  0  0
 54 69  1  0  0  0  0
 55 70  1  0  0  0  0
 56 71  1  0  0  0  0
 57 71  1  0  0  0  0
 58 71  1  0  0  0  0
 59 81  1  0  0  0  0
 60 82  1  0  0  0  0
 61 67  1  0  0  0  0
 62 63  1  0  0  0  0
 62 65  1  0  0  0  0
 63 70  1  0  0  0  0
 64 70  1  0  0  0  0
 64 82  1  0  0  0  0
 65 89  1  0  0  0  0
 67 82  1  0  0  0  0
 68 71  1  0  0  0  0
 68 80  1  0  0  0  0
 69 81  1  0  0  0  0
 72 74  1  0  0  0  0
M  CHG  2  81   1  82   1
M  ISO  4  35 100  65 101  66 100  89 101
M  END
> <Batch ID>
0085

> <Smiles>
CCC(c1nc([100CH:0](C)[100C:0](=O)N2CCCC(n3nc(-c4ccc(Oc5ccc(F)cc5F)cc4)c(C(N)=O)c3N)C2)c(C)cc1C)N(C)CC(C)CC[101CH2:1][101O:1]c1ccc2c(c1)CN(C(=O)C(NC(=O)C(C)NC)C(C)(C)C)C(C(=O)NC1CCCc3ccccc31)C2

> <Shape>
0.409

> <Color>
0.238

> <Negative vol penalty>
0.000

$$$$

  -OEChem-04052318563D

 86 94  0     1  0  0  0  0  0999 V2000
  -16.4613  -28.6923   23.4892 C   0  0  0  0  0  0  0  0  0  0  0  0
  -17.3699  -28.0635   22.6440 C   0  0  0  0  0  0  0  0  0  0  0  0
  -25.0314  -13.4516   19.7185 C   0  0  0  0  0  0  0  0  0  0  0  0
  -27.2651  -12.8805   20.4408 C   0  0  0  0  0  0  0  0  0  0  0  0
  -16.8696  -29.7731   24.2697 C   0  0  0  0  0  0  0  0  0  0  0  0
  -18.6873  -28.5159   22.5780 C   0  0  0  0  0  0  0  0  0  0  0  0
  -23.7094  -25.1151   21.7301 C   0  0  0  0  0  0  0  0  0  0  0  0
  -24.6650  -12.1077   19.7890 C   0  0  0  0  0  0  0  0  0  0  0  0
  -26.8986  -11.5365   20.5114 C   0  0  0  0  0  0  0  0  0  0  0  0
  -24.4748  -24.8386   20.5981 C   0  0  0  0  0  0  0  0  0  0  0  0
  -23.8056   -9.8826   22.1856 C   0  0  0  0  0  0  0  0  0  0  0  0
  -22.5878   -9.5737   22.7913 C   0  0  0  0  0  0  0  0  0  0  0  0
  -25.9971  -26.6097   21.2021 C   0  0  0  0  0  0  0  0  0  0  0  0
  -27.8883  -22.5993   21.1465 C   0  0  0  0  0  0  0  0  0  0  0  0
  -21.8212   -8.5633   20.7350 C   0  0  0  0  0  0  0  0  0  0  0  0
  -30.5514  -22.2106   21.5967 C   0  0  0  0  0  0  0  0  0  0  0  0
  -26.3315  -13.8381   20.0443 C   0  0  0  0  0  0  0  0  0  0  0  0
  -26.6248  -16.1862   20.9971 C   0  0  0  0  0  0  0  0  0  0  0  0
  -18.1950  -30.2328   24.2204 C   0  0  0  0  0  0  0  0  0  0  0  0
  -24.0767  -26.1499   22.6022 C   0  0  0  0  0  0  0  0  0  0  0  0
  -19.1134  -29.6046   23.3576 C   0  0  0  0  0  0  0  0  0  0  0  0
  -25.2360  -26.8957   22.3459 C   0  0  0  0  0  0  0  0  0  0  0  0
  -28.7884  -22.7646   20.0996 C   0  0  0  0  0  0  0  0  0  0  0  0
  -30.1470  -22.5685   20.3207 C   0  0  0  0  0  0  0  0  0  0  0  0
  -25.5985  -11.1501   20.1855 C   0  0  0  0  0  0  0  0  0  0  0  0
  -25.6172  -25.5878   20.3324 C   0  0  0  0  0  0  0  0  0  0  0  0
  -24.0313   -9.5319   20.8544 C   0  0  0  0  0  0  0  0  0  0  0  0
  -21.5956   -8.9140   22.0661 C   0  0  0  0  0  0  0  0  0  0  0  0
  -23.0390   -8.8723   20.1292 C   0  0  0  0  0  0  0  0  0  0  0  0
  -26.7109  -15.2262   19.9711 C   0  0  0  0  0  0  0  0  0  0  0  0
  -28.3938  -22.2399   22.3855 C   0  0  0  0  0  0  0  0  0  0  0  0
  -27.1048  -17.3406   20.4283 C   0  0  0  0  0  0  0  0  0  0  0  0
  -26.1531  -16.0470   22.3439 C   0  0  0  0  0  0  0  0  0  0  0  0
  -22.7289  -28.8676   23.5518 C   0  0  0  0  0  0  0  0  0  0  0  0
  -25.2793  -28.9790   25.5531 C   0  0  0  0  0  0  0  0  0  0  0  0
  -28.0221  -27.6356   26.3163 C   0  0  0  0  0  0  0  0  0  0  0  0
  -30.8654  -20.0254   17.2987 C   0  0  0  0  0  0  0  0  0  0  0  0
  -18.5778  -31.4345   25.0475 C   0  0  0  0  0  0  0  0  0  0  0  0
  -23.2551  -26.4181   23.8333 C   0  0  0  0  0  0  0  0  0  0  0  0
  -25.6847  -28.0041   23.2617 C   0  0  0  0  0  0  0  0  0  0  0  0
  -20.0861  -31.6147   25.1983 C   0  0  0  0  0  0  0  0  0  0  0  0
  -28.1629  -18.4418   15.6060 C   0  0  0  0  0  0  0  0  0  0  0  0
  -20.7803  -31.4554   23.8494 C   0  0  0  0  0  0  0  0  0  0  0  0
  -27.5415  -17.5391   16.6733 C   0  0  0  0  0  0  0  0  0  0  0  0
  -29.6828  -18.5080   15.7381 C   0  0  0  0  0  0  0  0  0  0  0  0
  -29.5508  -17.9871   18.1433 C   0  0  0  0  0  0  0  0  0  0  0  0
  -20.5573  -30.0505   23.2767 C   0  0  1  0  0  0  0  0  0  0  0  0
  -23.4380  -27.8316   24.3774 C   0  0  1  0  0  0  0  0  0  0  0  0
  -28.0145  -17.9330   18.0855 C   0  0  2  0  0  0  0  0  0  0  0  0
  -26.2572  -23.1737   25.4625 C   0  0  0  0  0  0  0  0  0  0  0  0
  -30.2281  -26.8596   27.2268 C   0  0  0  0  0  0  0  0  0  0  0  0
  -25.8524  -31.7715   24.4652 C   0  0  0  0  0  0  0  0  0  0  0  0
  -28.1490  -31.6075   25.4486 C   0  0  0  0  0  0  0  0  0  0  0  0
  -26.1486  -31.5339   26.9371 C   0  0  0  0  0  0  0  0  0  0  0  0
  -26.7175  -26.0766   28.4672 C   0  0  0  0  0  0  0  0  0  0  0  0
  -28.2705  -23.1551   18.7384 C   0  0  0  0  0  0  0  0  0  0  0  0
  -27.4571  -22.0540   23.5322 C   0  0  0  0  0  0  0  0  0  0  0  0
  -27.2381  -23.3571   24.3153 C   0  0  0  0  0  0  0  0  0  0  0  0
  -28.5040  -24.6266   18.3894 C   0  0  0  0  0  0  0  0  0  0  0  0
  -31.9858  -21.4600   18.9856 C   0  0  0  0  0  0  0  0  0  0  0  0
  -27.7646  -25.5902   19.3103 C   0  0  0  0  0  0  0  0  0  1  0  0
  -31.1538  -22.7327   19.2356 C   0  0  2  0  0  0  0  0  0  0  0  0
  -26.6777  -29.5421   25.4725 C   0  0  1  0  0  0  0  0  0  0  0  0
  -28.7720  -27.1590   27.5472 C   0  0  2  0  0  0  0  0  0  0  0  0
  -26.6977  -31.0942   25.5624 C   0  0  0  0  0  0  0  0  0  0  0  0
  -29.7068  -22.0407   22.6385 N   0  0  0  0  0  0  0  0  0  0  0  0
  -27.2064  -15.7272   18.8364 N   0  0  0  0  0  0  0  0  0  0  0  0
  -27.4360  -17.0146   19.1460 N   0  0  0  0  0  0  0  0  0  0  0  0
  -24.8446  -28.2321   24.4490 N   0  0  0  0  0  0  0  0  0  0  0  0
  -30.0651  -18.8882   17.1001 N   0  0  0  0  0  0  0  0  0  0  0  0
  -27.2715  -18.5926   20.9049 N   0  0  0  0  0  0  0  0  0  0  0  0
  -25.6951  -14.7911   22.7649 N   0  0  0  0  0  0  0  0  0  0  0  0
  -21.4206  -29.0934   23.9349 N   0  0  0  0  0  0  0  0  0  0  0  0
  -27.4478  -28.8733   26.5155 N   0  0  0  0  0  0  0  0  0  0  0  0
  -31.1765  -20.3186   18.6208 N   0  0  0  0  0  0  0  0  0  0  0  0
  -32.1138  -23.8660   19.4884 N   0  3  0  0  0  0  0  0  0  0  0  0
  -28.1453  -25.9197   28.0879 N   0  3  0  0  0  0  0  0  0  0  0  0
  -26.1230  -17.0117   23.1451 O   0  0  0  0  0  0  0  0  0  0  0  0
  -23.3251  -29.4221   22.6360 O   0  0  0  0  0  0  0  0  0  0  0  0
  -24.6005  -29.1880   26.5616 O   0  0  0  0  0  0  0  0  0  0  0  0
  -27.9559  -26.9776   25.2804 O   0  0  0  0  0  0  0  0  0  0  0  0
  -31.2682  -20.7303   16.3671 O   0  0  0  0  0  0  0  0  0  0  0  0
  -25.2412   -9.8386   20.2547 O   0  0  0  0  0  0  0  0  0  0  0  0
  -26.3658  -25.3204   19.2278 O   0  0  0  0  0  0  0  0  0  1  0  0
  -20.4267   -8.6161   22.6484 F   0  0  0  0  0  0  0  0  0  0  0  0
  -23.2504   -8.5318   18.8504 F   0  0  0  0  0  0  0  0  0  0  0  0
  1  2  1  0  0  0  0
  1  5  2  0  0  0  0
  2  6  2  0  0  0  0
  3  8  2  0  0  0  0
  3 17  1  0  0  0  0
  4  9  1  0  0  0  0
  4 17  2  0  0  0  0
  5 19  1  0  0  0  0
  6 21  1  0  0  0  0
  7 10  2  0  0  0  0
  7 20  1  0  0  0  0
  8 25  1  0  0  0  0
  9 25  2  0  0  0  0
 10 26  1  0  0  0  0
 11 12  2  0  0  0  0
 11 27  1  0  0  0  0
 12 28  1  0  0  0  0
 13 22  1  0  0  0  0
 13 26  2  0  0  0  0
 14 23  2  0  0  0  0
 14 31  1  0  0  0  0
 15 28  2  0  0  0  0
 15 29  1  0  0  0  0
 16 24  2  0  0  0  0
 16 66  1  0  0  0  0
 17 30  1  0  0  0  0
 18 30  1  0  0  0  0
 18 32  2  0  0  0  0
 18 33  1  0  0  0  0
 19 21  2  0  0  0  0
 19 38  1  0  0  0  0
 20 22  2  0  0  0  0
 20 39  1  0  0  0  0
 21 47  1  0  0  0  0
 22 40  1  0  0  0  0
 23 24  1  0  0  0  0
 23 56  1  0  0  0  0
 24 62  1  0  0  0  0
 25 83  1  0  0  0  0
 26 84  1  0  0  0  0
 27 29  2  0  0  0  0
 27 83  1  0  0  0  0
 28 85  1  0  0  0  0
 29 86  1  0  0  0  0
 30 67  2  0  0  0  0
 31 57  1  0  0  0  0
 31 66  2  0  0  0  0
 32 68  1  0  0  0  0
 32 71  1  0  0  0  0
 33 72  1  0  0  0  0
 33 78  2  0  0  0  0
 34 48  1  0  0  0  0
 34 73  1  0  0  0  0
 34 79  2  0  0  0  0
 35 63  1  0  0  0  0
 35 69  1  0  0  0  0
 35 80  2  0  0  0  0
 36 64  1  0  0  0  0
 36 74  1  0  0  0  0
 36 81  2  0  0  0  0
 37 70  1  0  0  0  0
 37 75  1  0  0  0  0
 37 82  2  0  0  0  0
 38 41  1  0  0  0  0
 39 48  1  0  0  0  0
 40 69  1  0  0  0  0
 41 43  1  0  0  0  0
 42 44  1  0  0  0  0
 42 45  1  0  0  0  0
 43 47  1  0  0  0  0
 44 49  1  0  0  0  0
 45 70  1  0  0  0  0
 46 49  1  0  0  0  0
 46 70  1  0  0  0  0
 47 73  1  0  0  0  0
 48 69  1  0  0  0  0
 49 68  1  0  0  0  0
 50 58  1  0  0  0  0
 51 64  1  0  0  0  0
 52 65  1  0  0  0  0
 53 65  1  0  0  0  0
 54 65  1  0  0  0  0
 55 77  1  0  0  0  0
 56 59  1  0  0  0  0
 57 58  1  0  0  0  0
 59 61  1  0  0  0  0
 60 62  1  0  0  0  0
 60 75  1  0  0  0  0
 61 84  1  0  0  0  0
 62 76  1  0  0  0  0
 63 65  1  0  0  0  0
 63 74  1  0  0  0  0
 64 77  1  0  0  0  0
 67 68  1  0  0  0  0
M  CHG  2  76   1  77   1
M  ISO  4  37 100  61 101  75 100  84 101
M  END
> <Batch ID>
0085

> <Smiles>
CCCc1cc(CC[101CH2:1][101O:1]c2ccc3c(c2)CN(C(=O)C(NC(=O)C(C)NC)C(C)(C)C)C(C(=O)NC2CCCc4ccccc42)C3)c(C(N)C[100NH:0][100C:0](=O)N2CCCC(n3nc(-c4ccc(Oc5ccc(F)cc5F)cc4)c(C(N)=O)c3N)C2)cn1

> <Shape>
0.225

> <Color>
0.068

> <Negative vol penalty>
0.000

$$$$

  -OEChem-04052318563D

 81 89  0     1  0  0  0  0  0999 V2000
  -19.4312  -19.7645   34.6647 C   0  0  0  0  0  0  0  0  0  0  0  0
  -20.4851  -19.6209   33.7679 C   0  0  0  0  0  0  0  0  0  0  0  0
  -23.2862   -9.8004   19.9136 C   0  0  0  0  0  0  0  0  0  0  0  0
  -23.7345   -9.9423   22.2834 C   0  0  0  0  0  0  0  0  0  0  0  0
  -18.6681  -18.6548   35.0253 C   0  0  0  0  0  0  0  0  0  0  0  0
  -20.7771  -18.3671   33.2321 C   0  0  0  0  0  0  0  0  0  0  0  0
  -22.8603  -17.1649   27.6000 C   0  0  0  0  0  0  0  0  0  0  0  0
  -28.2173  -16.0765   24.2501 C   0  0  0  0  0  0  0  0  0  0  0  0
  -22.5588   -8.6286   20.1214 C   0  0  0  0  0  0  0  0  0  0  0  0
  -23.0070   -8.7705   22.4912 C   0  0  0  0  0  0  0  0  0  0  0  0
  -24.1394  -16.9092   27.1077 C   0  0  0  0  0  0  0  0  0  0  0  0
  -23.2092   -5.3541   20.6497 C   0  0  0  0  0  0  0  0  0  0  0  0
  -23.4378   -4.2875   19.7804 C   0  0  0  0  0  0  0  0  0  0  0  0
  -29.4377  -15.6278   23.7575 C   0  0  0  0  0  0  0  0  0  0  0  0
  -23.7179  -14.5389   27.2608 C   0  0  0  0  0  0  0  0  0  0  0  0
  -21.1165   -4.3347   19.1121 C   0  0  0  0  0  0  0  0  0  0  0  0
  -23.8742  -10.4572   20.9947 C   0  0  0  0  0  0  0  0  0  0  0  0
  -24.1357  -12.9869   20.7946 C   0  0  0  0  0  0  0  0  0  0  0  0
  -18.9448  -17.3885   34.4862 C   0  0  0  0  0  0  0  0  0  0  0  0
  -22.0029  -16.1077   27.9372 C   0  0  0  0  0  0  0  0  0  0  0  0
  -20.0178  -17.2391   33.5869 C   0  0  0  0  0  0  0  0  0  0  0  0
  -22.4275  -14.7839   27.7547 C   0  0  0  0  0  0  0  0  0  0  0  0
  -27.9496  -15.9904   25.6118 C   0  0  0  0  0  0  0  0  0  0  0  0
  -22.4191   -8.1136   21.4102 C   0  0  0  0  0  0  0  0  0  0  0  0
  -24.5694  -15.5961   26.9408 C   0  0  0  0  0  0  0  0  0  0  0  0
  -21.9342   -5.9109   20.7503 C   0  0  0  0  0  0  0  0  0  0  0  0
  -22.3914   -3.7778   19.0116 C   0  0  0  0  0  0  0  0  0  0  0  0
  -20.8879   -5.4013   19.9815 C   0  0  0  0  0  0  0  0  0  0  0  0
  -24.6263  -11.6675   20.7806 C   0  0  0  0  0  0  0  0  0  0  0  0
  -30.3492  -15.1053   24.6608 C   0  0  0  0  0  0  0  0  0  0  0  0
  -28.9276  -15.4515   26.4321 C   0  0  0  0  0  0  0  0  0  0  0  0
  -25.2381  -13.7658   20.5403 C   0  0  0  0  0  0  0  0  0  0  0  0
  -22.8028  -13.4657   21.0176 C   0  0  0  0  0  0  0  0  0  0  0  0
  -20.6021  -15.1226   30.6150 C   0  0  0  0  0  0  0  0  0  0  0  0
  -19.1448  -13.0216   28.6189 C   0  0  0  0  0  0  0  0  0  0  0  0
  -19.2050  -11.3128   25.6654 C   0  0  0  0  0  0  0  0  0  0  0  0
  -31.1075  -12.9188   21.3670 C   0  0  0  0  0  0  0  0  0  0  0  0
  -18.1220  -16.2097   34.9423 C   0  0  0  0  0  0  0  0  0  0  0  0
  -20.6165  -16.4003   28.4418 C   0  0  0  0  0  0  0  0  0  0  0  0
  -21.5380  -13.6135   28.0826 C   0  0  0  0  0  0  0  0  0  0  0  0
  -18.2607  -14.9851   34.0415 C   0  0  0  0  0  0  0  0  0  0  0  0
  -29.4626  -13.6574   18.2969 C   0  0  0  0  0  0  0  0  0  0  0  0
  -19.7287  -14.7204   33.7227 C   0  0  0  0  0  0  0  0  0  0  0  0
  -27.9923  -13.3502   18.5866 C   0  0  0  0  0  0  0  0  0  0  0  0
  -30.3943  -12.6778   19.0070 C   0  0  0  0  0  0  0  0  0  0  0  0
  -28.7054  -12.2509   20.7503 C   0  0  0  0  0  0  0  0  0  0  0  0
  -20.3501  -15.9000   32.9651 C   0  0  1  0  0  0  0  0  0  0  0  0
  -20.0144  -15.2465   29.2377 C   0  0  1  0  0  0  0  0  0  0  0  0
  -27.7290  -13.2464   20.1009 C   0  0  2  0  0  0  0  0  0  0  0  0
  -28.6965  -15.3371   27.9033 C   0  0  0  0  0  0  0  0  0  0  0  0
  -18.3805   -9.8318   23.8149 C   0  0  0  0  0  0  0  0  0  0  0  0
  -20.1108  -10.7914   30.4636 C   0  0  0  0  0  0  0  0  0  0  0  0
  -19.6186   -9.1576   28.6315 C   0  0  0  0  0  0  0  0  0  0  0  0
  -17.7722  -10.5104   29.6231 C   0  0  0  0  0  0  0  0  0  0  0  0
  -17.9304  -13.5836   24.2591 C   0  0  0  0  0  0  0  0  0  0  0  0
  -26.6340  -16.4718   26.1492 C   0  0  0  0  0  0  0  0  0  1  0  0
  -31.6696  -14.6160   24.1668 C   0  0  0  0  0  0  0  0  0  0  0  0
  -31.6669  -13.1338   23.7753 C   0  0  0  0  0  0  0  0  0  0  0  0
  -19.4589  -11.6347   28.1121 C   0  0  1  0  0  0  0  0  0  0  0  0
  -18.1487  -11.1179   24.5927 C   0  0  2  0  0  0  0  0  0  0  0  0
  -19.2579  -10.5454   29.2031 C   0  0  0  0  0  0  0  0  0  0  0  0
  -25.9381  -11.6076   20.5366 N   0  0  0  0  0  0  0  0  0  0  0  0
  -30.1248  -15.0053   25.9902 N   0  0  0  0  0  0  0  0  0  0  0  0
  -26.2812  -12.8992   20.3948 N   0  0  0  0  0  0  0  0  0  0  0  0
  -20.1937  -13.9511   28.5789 N   0  0  0  0  0  0  0  0  0  0  0  0
  -30.0934  -12.6276   20.4398 N   0  0  0  0  0  0  0  0  0  0  0  0
  -25.4072  -15.1005   20.4292 N   0  0  0  0  0  0  0  0  0  0  0  0
  -21.7893  -12.5297   21.2646 N   0  0  0  0  0  0  0  0  0  0  0  0
  -19.9507  -15.8742   31.5743 N   0  0  0  0  0  0  0  0  0  0  0  0
  -18.6432  -11.4420   26.9179 N   0  0  0  0  0  0  0  0  0  0  0  0
  -30.7363  -12.8545   22.7045 N   0  0  0  0  0  0  0  0  0  0  0  0
  -18.1687  -12.2578   23.6328 N   0  3  0  0  0  0  0  0  0  0  0  0
  -22.5159  -14.6863   20.9822 O   0  0  0  0  0  0  0  0  0  0  0  0
  -21.5736  -14.3975   30.7944 O   0  0  0  0  0  0  0  0  0  0  0  0
  -18.0087  -13.2729   29.0284 O   0  0  0  0  0  0  0  0  0  0  0  0
  -20.4084  -11.3434   25.4174 O   0  0  0  0  0  0  0  0  0  0  0  0
  -32.2571  -13.2195   21.0279 O   0  0  0  0  0  0  0  0  0  0  0  0
  -21.7090   -6.9703   21.6133 O   0  0  0  0  0  0  0  0  0  0  0  0
  -25.8176  -15.3437   26.4611 O   0  0  0  0  0  0  0  0  0  1  0  0
  -22.6114   -2.7546   18.1756 F   0  0  0  0  0  0  0  0  0  0  0  0
  -19.6611   -5.9328   20.0730 F   0  0  0  0  0  0  0  0  0  0  0  0
  1  2  1  0  0  0  0
  1  5  2  0  0  0  0
  2  6  2  0  0  0  0
  3  9  2  0  0  0  0
  3 17  1  0  0  0  0
  4 10  1  0  0  0  0
  4 17  2  0  0  0  0
  5 19  1  0  0  0  0
  6 21  1  0  0  0  0
  7 11  2  0  0  0  0
  7 20  1  0  0  0  0
  8 14  2  0  0  0  0
  8 23  1  0  0  0  0
  9 24  1  0  0  0  0
 10 24  2  0  0  0  0
 11 25  1  0  0  0  0
 12 13  2  0  0  0  0
 12 26  1  0  0  0  0
 13 27  1  0  0  0  0
 14 30  1  0  0  0  0
 15 22  1  0  0  0  0
 15 25  2  0  0  0  0
 16 27  2  0  0  0  0
 16 28  1  0  0  0  0
 17 29  1  0  0  0  0
 18 29  1  0  0  0  0
 18 32  2  0  0  0  0
 18 33  1  0  0  0  0
 19 21  2  0  0  0  0
 19 38  1  0  0  0  0
 20 22  2  0  0  0  0
 20 39  1  0  0  0  0
 21 47  1  0  0  0  0
 22 40  1  0  0  0  0
 23 31  2  0  0  0  0
 23 56  1  0  0  0  0
 24 78  1  0  0  0  0
 25 79  1  0  0  0  0
 26 28  2  0  0  0  0
 26 78  1  0  0  0  0
 27 80  1  0  0  0  0
 28 81  1  0  0  0  0
 29 62  2  0  0  0  0
 30 57  1  0  0  0  0
 30 63  2  0  0  0  0
 31 50  1  0  0  0  0
 31 63  1  0  0  0  0
 32 64  1  0  0  0  0
 32 67  1  0  0  0  0
 33 68  1  0  0  0  0
 33 73  2  0  0  0  0
 34 48  1  0  0  0  0
 34 69  1  0  0  0  0
 34 74  2  0  0  0  0
 35 59  1  0  0  0  0
 35 65  1  0  0  0  0
 35 75  2  0  0  0  0
 36 60  1  0  0  0  0
 36 70  1  0  0  0  0
 36 76  2  0  0  0  0
 37 66  1  0  0  0  0
 37 71  1  0  0  0  0
 37 77  2  0  0  0  0
 38 41  1  0  0  0  0
 39 48  1  0  0  0  0
 40 65  1  0  0  0  0
 41 43  1  0  0  0  0
 42 44  1  0  0  0  0
 42 45  1  0  0  0  0
 43 47  1  0  0  0  0
 44 49  1  0  0  0  0
 45 66  1  0  0  0  0
 46 49  1  0  0  0  0
 46 66  1  0  0  0  0
 47 69  1  0  0  0  0
 48 65  1  0  0  0  0
 49 64  1  0  0  0  0
 51 60  1  0  0  0  0
 52 61  1  0  0  0  0
 53 61  1  0  0  0  0
 54 61  1  0  0  0  0
 55 72  1  0  0  0  0
 56 79  1  0  0  0  0
 57 58  1  0  0  0  0
 58 71  1  0  0  0  0
 59 61  1  0  0  0  0
 59 70  1  0  0  0  0
 60 72  1  0  0  0  0
 62 64  1  0  0  0  0
M  CHG  1  72   1
M  ISO  4  37 100  56 101  71 100  79 101
M  END
> <Batch ID>
0085

> <Smiles>
CNC(C)C(=O)NC(C(=O)N1Cc2cc([101O:1][101CH2:1]c3ccc(CC[100NH:0][100C:0](=O)N4CCCC(n5nc(-c6ccc(Oc7ccc(F)cc7F)cc6)c(C(N)=O)c5N)C4)nc3C)ccc2CC1C(=O)NC1CCCc2ccccc21)C(C)(C)C

> <Shape>
0.123

> <Color>
0.178

> <Negative vol penalty>
0.000

$$$$

  -OEChem-04052318563D

 84 92  0     1  0  0  0  0  0999 V2000
  -28.9005  -33.3075   24.6885 C   0  0  0  0  0  0  0  0  0  0  0  0
  -28.0746  -32.1963   24.8250 C   0  0  0  0  0  0  0  0  0  0  0  0
  -23.1308   -9.7486   20.6837 C   0  0  0  0  0  0  0  0  0  0  0  0
  -23.8461  -10.2966   22.9254 C   0  0  0  0  0  0  0  0  0  0  0  0
  -29.7529  -33.4103   23.5899 C   0  0  0  0  0  0  0  0  0  0  0  0
  -28.0998  -31.1878   23.8624 C   0  0  0  0  0  0  0  0  0  0  0  0
  -27.3360  -24.0975   23.1836 C   0  0  0  0  0  0  0  0  0  0  0  0
  -22.4039   -8.6666   21.1801 C   0  0  0  0  0  0  0  0  0  0  0  0
  -23.1192   -9.2146   23.4218 C   0  0  0  0  0  0  0  0  0  0  0  0
  -26.6220  -23.1572   22.4422 C   0  0  0  0  0  0  0  0  0  0  0  0
  -23.0326   -5.5162   22.2310 C   0  0  0  0  0  0  0  0  0  0  0  0
  -23.1368   -4.3012   21.5540 C   0  0  0  0  0  0  0  0  0  0  0  0
  -28.1921  -23.4045   20.6277 C   0  0  0  0  0  0  0  0  0  0  0  0
  -20.7568   -4.3282   21.1392 C   0  0  0  0  0  0  0  0  0  0  0  0
  -28.0875  -19.0581   20.5410 C   0  0  0  0  0  0  0  0  0  0  0  0
  -23.8519  -10.5637   21.5563 C   0  0  0  0  0  0  0  0  0  0  0  0
  -24.1487  -13.0017   20.8666 C   0  0  0  0  0  0  0  0  0  0  0  0
  -29.7955  -32.3980   22.6183 C   0  0  0  0  0  0  0  0  0  0  0  0
  -28.4793  -24.7075   22.6475 C   0  0  0  0  0  0  0  0  0  0  0  0
  -28.9525  -31.2779   22.7490 C   0  0  0  0  0  0  0  0  0  0  0  0
  -28.9204  -24.3503   21.3653 C   0  0  0  0  0  0  0  0  0  0  0  0
  -22.3981   -8.3996   22.5492 C   0  0  0  0  0  0  0  0  0  0  0  0
  -27.0483  -22.8127   21.1629 C   0  0  0  0  0  0  0  0  0  0  0  0
  -21.7905   -6.1373   22.3622 C   0  0  0  0  0  0  0  0  0  0  0  0
  -21.9989   -3.7072   21.0080 C   0  0  0  0  0  0  0  0  0  0  0  0
  -20.6526   -5.5433   21.8163 C   0  0  0  0  0  0  0  0  0  0  0  0
  -24.6034  -11.6812   21.0441 C   0  0  0  0  0  0  0  0  0  0  0  0
  -28.9624  -18.3905   19.6631 C   0  0  0  0  0  0  0  0  0  0  0  0
  -26.8803  -19.0615   19.8860 C   0  0  0  0  0  0  0  0  0  0  0  0
  -25.2334  -13.6728   20.3573 C   0  0  0  0  0  0  0  0  0  0  0  0
  -22.8609  -13.5707   21.1379 C   0  0  0  0  0  0  0  0  0  0  0  0
  -29.2999  -27.6924   21.9263 C   0  0  0  0  0  0  0  0  0  0  0  0
  -32.1865  -26.3402   21.3253 C   0  0  0  0  0  0  0  0  0  0  0  0
  -33.9616  -23.5414   20.5110 C   0  0  0  0  0  0  0  0  0  0  0  0
  -30.6924  -14.8318   20.3868 C   0  0  0  0  0  0  0  0  0  0  0  0
  -30.6988  -32.5759   21.4237 C   0  0  0  0  0  0  0  0  0  0  0  0
  -29.2537  -25.7001   23.4705 C   0  0  0  0  0  0  0  0  0  0  0  0
  -30.1530  -24.9612   20.7520 C   0  0  0  0  0  0  0  0  0  0  0  0
  -30.9370  -31.2861   20.6428 C   0  0  0  0  0  0  0  0  0  0  0  0
  -29.6459  -11.9399   18.5929 C   0  0  0  0  0  0  0  0  0  0  0  0
  -29.6202  -30.5523   20.4095 C   0  0  0  0  0  0  0  0  0  0  0  0
  -28.2061  -11.7204   19.0606 C   0  0  0  0  0  0  0  0  0  0  0  0
  -30.5354  -12.4499   19.7245 C   0  0  0  0  0  0  0  0  0  0  0  0
  -28.5939  -13.4353   20.8793 C   0  0  0  0  0  0  0  0  0  0  0  0
  -28.9691  -30.1513   21.7387 C   0  0  1  0  0  0  0  0  0  0  0  0
  -30.1103  -26.6378   22.6254 C   0  0  1  0  0  0  0  0  0  0  0  0
  -27.6461  -12.9742   19.7589 C   0  0  2  0  0  0  0  0  0  0  0  0
  -26.2830  -19.1224   16.4883 C   0  0  0  0  0  0  0  0  0  0  0  0
  -31.2455  -19.3972   19.9761 C   0  0  0  0  0  0  0  0  0  0  0  0
  -24.6764  -18.5644   20.9938 C   0  0  0  0  0  0  0  0  0  0  0  0
  -36.3007  -22.7560   20.0536 C   0  0  0  0  0  0  0  0  0  0  0  0
  -32.0812  -27.6403   18.5669 C   0  0  0  0  0  0  0  0  0  0  0  0
  -33.9086  -26.0895   17.8430 C   0  0  0  0  0  0  0  0  0  0  0  0
  -34.3203  -27.7292   19.6773 C   0  0  0  0  0  0  0  0  0  0  0  0
  -33.8906  -21.6406   22.7782 C   0  0  0  0  0  0  0  0  0  0  0  0
  -26.1276  -18.1692   17.6608 C   0  0  0  0  0  0  0  0  0  0  0  0
  -30.6942  -17.2090   21.0996 C   0  0  0  0  0  0  0  0  0  0  0  0
  -25.6638  -20.8790   21.1635 C   0  0  0  0  0  0  0  0  0  1  0  0
  -30.3932  -18.1071   19.8656 C   0  0  1  0  0  0  0  0  0  0  0  0
  -25.5267  -19.6251   20.2892 C   0  0  1  0  0  0  0  0  0  0  0  0
  -32.8467  -25.7222   20.1164 C   0  0  1  0  0  0  0  0  0  0  0  0
  -35.2199  -22.9375   21.1080 C   0  0  2  0  0  0  0  0  0  0  0  0
  -33.2648  -26.7850   19.0614 C   0  0  0  0  0  0  0  0  0  0  0  0
  -25.8776  -11.5210   20.6772 N   0  0  0  0  0  0  0  0  0  0  0  0
  -28.3620  -17.9982   18.5363 N   0  0  0  0  0  0  0  0  0  0  0  0
  -27.0970  -18.4205   18.7018 N   0  0  0  0  0  0  0  0  0  0  0  0
  -26.2329  -12.7495   20.2640 N   0  0  0  0  0  0  0  0  0  0  0  0
  -30.8725  -25.9314   21.5938 N   0  0  0  0  0  0  0  0  0  0  0  0
  -29.9487  -13.6410   20.3435 N   0  0  0  0  0  0  0  0  0  0  0  0
  -25.4202  -14.9568   19.9846 N   0  0  0  0  0  0  0  0  0  0  0  0
  -21.8599  -12.7399   21.6596 N   0  0  0  0  0  0  0  0  0  0  0  0
  -29.6244  -28.9852   22.2910 N   0  0  0  0  0  0  0  0  0  0  0  0
  -33.9521  -24.9157   20.6226 N   0  0  0  0  0  0  0  0  0  0  0  0
  -30.0599  -15.9146   20.9852 N   0  0  0  0  0  0  0  0  0  0  0  0
  -34.9211  -21.6068   21.7087 N   0  3  0  0  0  0  0  0  0  0  0  0
  -22.6006  -14.7761   20.9087 O   0  0  0  0  0  0  0  0  0  0  0  0
  -28.4446  -27.3581   21.1149 O   0  0  0  0  0  0  0  0  0  0  0  0
  -32.8160  -27.1502   22.0103 O   0  0  0  0  0  0  0  0  0  0  0  0
  -33.0775  -22.8623   19.9937 O   0  0  0  0  0  0  0  0  0  0  0  0
  -31.8334  -14.9246   19.9216 O   0  0  0  0  0  0  0  0  0  0  0  0
  -21.6888   -7.3439   23.0340 O   0  0  0  0  0  0  0  0  0  0  0  0
  -26.3528  -21.8957   20.4368 O   0  0  0  0  0  0  0  0  0  1  0  0
  -22.0993   -2.5411   20.3566 F   0  0  0  0  0  0  0  0  0  0  0  0
  -19.4568   -6.1357   21.9381 F   0  0  0  0  0  0  0  0  0  0  0  0
  1  2  1  0  0  0  0
  1  5  2  0  0  0  0
  2  6  2  0  0  0  0
  3  8  2  0  0  0  0
  3 16  1  0  0  0  0
  4  9  1  0  0  0  0
  4 16  2  0  0  0  0
  5 18  1  0  0  0  0
  6 20  1  0  0  0  0
  7 10  2  0  0  0  0
  7 19  1  0  0  0  0
  8 22  1  0  0  0  0
  9 22  2  0  0  0  0
 10 23  1  0  0  0  0
 11 12  2  0  0  0  0
 11 24  1  0  0  0  0
 12 25  1  0  0  0  0
 13 21  1  0  0  0  0
 13 23  2  0  0  0  0
 14 25  2  0  0  0  0
 14 26  1  0  0  0  0
 15 28  1  0  0  0  0
 15 29  2  0  0  0  0
 16 27  1  0  0  0  0
 17 27  1  0  0  0  0
 17 30  2  0  0  0  0
 17 31  1  0  0  0  0
 18 20  2  0  0  0  0
 18 36  1  0  0  0  0
 19 21  2  0  0  0  0
 19 37  1  0  0  0  0
 20 45  1  0  0  0  0
 21 38  1  0  0  0  0
 22 81  1  0  0  0  0
 23 82  1  0  0  0  0
 24 26  2  0  0  0  0
 24 81  1  0  0  0  0
 25 83  1  0  0  0  0
 26 84  1  0  0  0  0
 27 64  2  0  0  0  0
 28 59  1  0  0  0  0
 28 65  2  0  0  0  0
 29 60  1  0  0  0  0
 29 66  1  0  0  0  0
 30 67  1  0  0  0  0
 30 70  1  0  0  0  0
 31 71  1  0  0  0  0
 31 76  2  0  0  0  0
 32 46  1  0  0  0  0
 32 72  1  0  0  0  0
 32 77  2  0  0  0  0
 33 61  1  0  0  0  0
 33 68  1  0  0  0  0
 33 78  2  0  0  0  0
 34 62  1  0  0  0  0
 34 73  1  0  0  0  0
 34 79  2  0  0  0  0
 35 69  1  0  0  0  0
 35 74  1  0  0  0  0
 35 80  2  0  0  0  0
 36 39  1  0  0  0  0
 37 46  1  0  0  0  0
 38 68  1  0  0  0  0
 39 41  1  0  0  0  0
 40 42  1  0  0  0  0
 40 43  1  0  0  0  0
 41 45  1  0  0  0  0
 42 47  1  0  0  0  0
 43 69  1  0  0  0  0
 44 47  1  0  0  0  0
 44 69  1  0  0  0  0
 45 72  1  0  0  0  0
 46 68  1  0  0  0  0
 47 67  1  0  0  0  0
 48 56  1  0  0  0  0
 49 59  1  0  0  0  0
 50 60  1  0  0  0  0
 51 62  1  0  0  0  0
 52 63  1  0  0  0  0
 53 63  1  0  0  0  0
 54 63  1  0  0  0  0
 55 75  1  0  0  0  0
 56 66  1  0  0  0  0
 57 59  1  0  0  0  0
 57 74  1  0  0  0  0
 58 60  1  0  0  0  0
 58 82  1  0  0  0  0
 61 63  1  0  0  0  0
 61 73  1  0  0  0  0
 62 75  1  0  0  0  0
 64 67  1  0  0  0  0
 65 66  1  0  0  0  0
M  CHG  1  75   1
M  ISO  4  35 100  58 101  74 100  82 101
M  END
> <Batch ID>
0085

> <Smiles>
CCn1nc(C(C)C[100NH:0][100C:0](=O)N2CCCC(n3nc(-c4ccc(Oc5ccc(F)cc5F)cc4)c(C(N)=O)c3N)C2)cc1C(C)[101CH2:1][101O:1]c1ccc2c(c1)CN(C(=O)C(NC(=O)C(C)NC)C(C)(C)C)C(C(=O)NC1CCCc3ccccc31)C2

> <Shape>
0.241

> <Color>
0.160

> <Negative vol penalty>
0.000

$$$$

  -OEChem-04052318563D

 83 91  0     1  0  0  0  0  0999 V2000
  -27.7520  -23.4536   18.0545 C   0  0  0  0  0  0  0  0  0  0  0  0
  -26.5620  -23.8356   18.6657 C   0  0  0  0  0  0  0  0  0  0  0  0
  -27.0365  -15.4155   20.4768 C   0  0  0  0  0  0  0  0  0  0  0  0
  -25.4175  -16.5962   19.1271 C   0  0  0  0  0  0  0  0  0  0  0  0
  -28.9662  -23.9563   18.5202 C   0  0  0  0  0  0  0  0  0  0  0  0
  -26.5857  -24.7197   19.7437 C   0  0  0  0  0  0  0  0  0  0  0  0
  -23.0537  -28.3298   19.3736 C   0  0  0  0  0  0  0  0  0  0  0  0
  -26.3734  -14.2150   20.2222 C   0  0  0  0  0  0  0  0  0  0  0  0
  -24.7544  -15.3957   18.8724 C   0  0  0  0  0  0  0  0  0  0  0  0
  -21.7454  -27.9766   19.7013 C   0  0  0  0  0  0  0  0  0  0  0  0
  -26.1670  -11.9691   17.7030 C   0  0  0  0  0  0  0  0  0  0  0  0
  -26.9418  -10.8599   17.3639 C   0  0  0  0  0  0  0  0  0  0  0  0
  -22.0230  -28.9878   21.8737 C   0  0  0  0  0  0  0  0  0  0  0  0
  -21.3345  -24.8950   22.2756 C   0  0  0  0  0  0  0  0  0  0  0  0
  -26.0911   -9.6766   19.2909 C   0  0  0  0  0  0  0  0  0  0  0  0
  -26.5585  -16.6061   19.9294 C   0  0  0  0  0  0  0  0  0  0  0  0
  -28.2864  -18.4179   19.4402 C   0  0  0  0  0  0  0  0  0  0  0  0
  -29.0040  -24.8545   19.5984 C   0  0  0  0  0  0  0  0  0  0  0  0
  -23.8614  -29.0062   20.2990 C   0  0  0  0  0  0  0  0  0  0  0  0
  -27.8017  -25.2338   20.2252 C   0  0  0  0  0  0  0  0  0  0  0  0
  -23.3404  -29.3507   21.5544 C   0  0  0  0  0  0  0  0  0  0  0  0
  -20.0640  -24.6590   22.7705 C   0  0  0  0  0  0  0  0  0  0  0  0
  -25.2324  -14.2051   19.4199 C   0  0  0  0  0  0  0  0  0  0  0  0
  -21.2308  -28.3030   20.9526 C   0  0  0  0  0  0  0  0  0  0  0  0
  -25.3544  -11.9321   18.8361 C   0  0  0  0  0  0  0  0  0  0  0  0
  -26.9038   -9.7136   18.1578 C   0  0  0  0  0  0  0  0  0  0  0  0
  -25.3164  -10.7859   19.6300 C   0  0  0  0  0  0  0  0  0  0  0  0
  -27.2427  -17.8465   20.1925 C   0  0  0  0  0  0  0  0  0  0  0  0
  -22.3941  -24.2516   22.8828 C   0  0  0  0  0  0  0  0  0  0  0  0
  -19.9372  -23.7951   23.8397 C   0  0  0  0  0  0  0  0  0  0  0  0
  -28.5862  -19.5848   20.0998 C   0  0  0  0  0  0  0  0  0  0  0  0
  -28.9274  -17.9370   18.2513 C   0  0  0  0  0  0  0  0  0  0  0  0
  -26.5941  -28.3570   21.7873 C   0  0  0  0  0  0  0  0  0  0  0  0
  -26.2957  -31.4113   22.8382 C   0  0  0  0  0  0  0  0  0  0  0  0
  -24.2468  -34.0557   23.5137 C   0  0  0  0  0  0  0  0  0  0  0  0
  -25.4173  -23.1558   23.7132 C   0  0  0  0  0  0  0  0  0  0  0  0
  -30.3442  -25.3343   20.0968 C   0  0  0  0  0  0  0  0  0  0  0  0
  -25.2618  -29.4037   19.9204 C   0  0  0  0  0  0  0  0  0  0  0  0
  -24.1598  -30.0943   22.5762 C   0  0  0  0  0  0  0  0  0  0  0  0
  -30.2538  -26.5583   21.0045 C   0  0  0  0  0  0  0  0  0  0  0  0
  -28.5040  -21.5472   24.4624 C   0  0  0  0  0  0  0  0  0  0  0  0
  -29.1565  -26.3699   22.0472 C   0  0  0  0  0  0  0  0  0  0  0  0
  -28.6249  -20.4679   23.3852 C   0  0  0  0  0  0  0  0  0  0  0  0
  -27.0567  -21.7369   24.9113 C   0  0  0  0  0  0  0  0  0  0  0  0
  -26.2199  -20.9173   22.7430 C   0  0  0  0  0  0  0  0  0  0  0  0
  -27.7844  -26.2101   21.3813 C   0  0  1  0  0  0  0  0  0  0  0  0
  -26.1640  -29.6370   21.1283 C   0  0  1  0  0  0  0  0  0  0  0  0
  -27.6536  -20.7290   22.2183 C   0  0  2  0  0  0  0  0  0  0  0  0
  -18.5997  -23.4935   24.4267 C   0  0  0  0  0  0  0  0  0  0  0  0
  -24.2877  -36.4035   24.3988 C   0  0  0  0  0  0  0  0  0  0  0  0
  -17.2539  -27.2599   22.1159 C   0  0  0  0  0  0  0  0  0  0  0  0
  -26.6110  -30.3336   25.6753 C   0  0  0  0  0  0  0  0  0  0  0  0
  -25.7097  -32.5086   26.5270 C   0  0  0  0  0  0  0  0  0  0  0  0
  -27.8383  -32.4661   25.2270 C   0  0  0  0  0  0  0  0  0  0  0  0
  -23.1943  -35.1546   20.9753 C   0  0  0  0  0  0  0  0  0  0  0  0
  -18.8702  -25.3368   22.1428 C   0  0  0  0  0  0  0  0  0  0  0  0
  -23.7827  -24.4719   22.3883 C   0  0  0  0  0  0  0  0  0  0  0  0
  -19.6798  -27.6991   22.6513 C   0  0  0  0  0  0  0  0  0  1  0  0
  -25.6465  -32.0735   24.0295 C   0  0  1  0  0  0  0  0  0  0  0  0
  -24.3512  -35.5276   23.1573 C   0  0  2  0  0  0  0  0  0  0  0  0
  -18.5211  -26.6993   22.7742 C   0  0  1  0  0  0  0  0  0  0  0  0
  -26.4363  -31.8297   25.3464 C   0  0  0  0  0  0  0  0  0  0  0  0
  -26.9025  -18.5891   21.2494 N   0  0  0  0  0  0  0  0  0  0  0  0
  -22.2407  -23.4111   23.9279 N   0  0  0  0  0  0  0  0  0  0  0  0
  -20.9920  -23.1790   24.4140 N   0  0  0  0  0  0  0  0  0  0  0  0
  -27.7372  -19.6390   21.1658 N   0  0  0  0  0  0  0  0  0  0  0  0
  -25.5253  -30.4554   22.1610 N   0  0  0  0  0  0  0  0  0  0  0  0
  -26.1879  -21.9823   23.7576 N   0  0  0  0  0  0  0  0  0  0  0  0
  -29.4906  -20.5593   19.8661 N   0  0  0  0  0  0  0  0  0  0  0  0
  -28.4964  -16.7203   17.7053 N   0  0  0  0  0  0  0  0  0  0  0  0
  -27.2786  -27.4960   20.9510 N   0  0  0  0  0  0  0  0  0  0  0  0
  -25.4892  -33.4808   23.6788 N   0  0  0  0  0  0  0  0  0  0  0  0
  -24.6263  -23.3136   22.5817 N   0  0  0  0  0  0  0  0  0  0  0  0
  -23.2382  -35.9205   22.2475 N   0  3  0  0  0  0  0  0  0  0  0  0
  -29.8661  -18.5595   17.6990 O   0  0  0  0  0  0  0  0  0  0  0  0
  -26.3260  -28.1654   22.9676 O   0  0  0  0  0  0  0  0  0  0  0  0
  -27.4413  -31.7357   22.5159 O   0  0  0  0  0  0  0  0  0  0  0  0
  -23.1707  -33.4750   23.6372 O   0  0  0  0  0  0  0  0  0  0  0  0
  -25.4370  -24.0030   24.6125 O   0  0  0  0  0  0  0  0  0  0  0  0
  -24.5852  -13.0339   19.1710 O   0  0  0  0  0  0  0  0  0  0  0  0
  -19.9544  -27.9588   21.2752 O   0  0  0  0  0  0  0  0  0  1  0  0
  -27.6466   -8.6480   17.8311 F   0  0  0  0  0  0  0  0  0  0  0  0
  -24.5367  -10.7440   20.7191 F   0  0  0  0  0  0  0  0  0  0  0  0
  1  2  1  0  0  0  0
  1  5  2  0  0  0  0
  2  6  2  0  0  0  0
  3  8  2  0  0  0  0
  3 16  1  0  0  0  0
  4  9  1  0  0  0  0
  4 16  2  0  0  0  0
  5 18  1  0  0  0  0
  6 20  1  0  0  0  0
  7 10  2  0  0  0  0
  7 19  1  0  0  0  0
  8 23  1  0  0  0  0
  9 23  2  0  0  0  0
 10 24  1  0  0  0  0
 11 12  2  0  0  0  0
 11 25  1  0  0  0  0
 12 26  1  0  0  0  0
 13 21  1  0  0  0  0
 13 24  2  0  0  0  0
 14 22  1  0  0  0  0
 14 29  2  0  0  0  0
 15 26  2  0  0  0  0
 15 27  1  0  0  0  0
 16 28  1  0  0  0  0
 17 28  1  0  0  0  0
 17 31  2  0  0  0  0
 17 32  1  0  0  0  0
 18 20  2  0  0  0  0
 18 37  1  0  0  0  0
 19 21  2  0  0  0  0
 19 38  1  0  0  0  0
 20 46  1  0  0  0  0
 21 39  1  0  0  0  0
 22 30  2  0  0  0  0
 22 56  1  0  0  0  0
 23 80  1  0  0  0  0
 24 81  1  0  0  0  0
 25 27  2  0  0  0  0
 25 80  1  0  0  0  0
 26 82  1  0  0  0  0
 27 83  1  0  0  0  0
 28 63  2  0  0  0  0
 29 57  1  0  0  0  0
 29 64  1  0  0  0  0
 30 49  1  0  0  0  0
 30 65  1  0  0  0  0
 31 66  1  0  0  0  0
 31 69  1  0  0  0  0
 32 70  1  0  0  0  0
 32 75  2  0  0  0  0
 33 47  1  0  0  0  0
 33 71  1  0  0  0  0
 33 76  2  0  0  0  0
 34 59  1  0  0  0  0
 34 67  1  0  0  0  0
 34 77  2  0  0  0  0
 35 60  1  0  0  0  0
 35 72  1  0  0  0  0
 35 78  2  0  0  0  0
 36 68  1  0  0  0  0
 36 73  1  0  0  0  0
 36 79  2  0  0  0  0
 37 40  1  0  0  0  0
 38 47  1  0  0  0  0
 39 67  1  0  0  0  0
 40 42  1  0  0  0  0
 41 43  1  0  0  0  0
 41 44  1  0  0  0  0
 42 46  1  0  0  0  0
 43 48  1  0  0  0  0
 44 68  1  0  0  0  0
 45 48  1  0  0  0  0
 45 68  1  0  0  0  0
 46 71  1  0  0  0  0
 47 67  1  0  0  0  0
 48 66  1  0  0  0  0
 50 60  1  0  0  0  0
 51 61  1  0  0  0  0
 52 62  1  0  0  0  0
 53 62  1  0  0  0  0
 54 62  1  0  0  0  0
 55 74  1  0  0  0  0
 56 61  1  0  0  0  0
 57 73  1  0  0  0  0
 58 61  1  0  0  0  0
 58 81  1  0  0  0  0
 59 62  1  0  0  0  0
 59 72  1  0  0  0  0
 60 74  1  0  0  0  0
 63 66  1  0  0  0  0
 64 65  2  0  0  0  0
M  CHG  1  74   1
M  ISO  4  36 100  58 101  73 100  81 101
M  END
> <Batch ID>
0085

> <Smiles>
CNC(C)C(=O)NC(C(=O)N1Cc2cc([101O:1][101CH2:1]C(C)Cc3cc(C[100NH:0][100C:0](=O)N4CCCC(n5nc(-c6ccc(Oc7ccc(F)cc7F)cc6)c(C(N)=O)c5N)C4)nnc3C)ccc2CC1C(=O)NC1CCCc2ccccc21)C(C)(C)C

> <Shape>
0.267

> <Color>
0.061

> <Negative vol penalty>
0.000

$$$$

  -OEChem-04052318563D

 84 92  0     1  0  0  0  0  0999 V2000
  -29.9225  -11.8499   35.5686 C   0  0  0  0  0  0  0  0  0  0  0  0
  -29.6026  -12.7761   34.5810 C   0  0  0  0  0  0  0  0  0  0  0  0
  -23.1900   -9.8193   19.9314 C   0  0  0  0  0  0  0  0  0  0  0  0
  -23.5672   -9.9996   22.3109 C   0  0  0  0  0  0  0  0  0  0  0  0
  -29.7218  -10.4895   35.3382 C   0  0  0  0  0  0  0  0  0  0  0  0
  -29.0829  -12.3423   33.3619 C   0  0  0  0  0  0  0  0  0  0  0  0
  -24.9378  -15.2222   29.8934 C   0  0  0  0  0  0  0  0  0  0  0  0
  -22.4235   -8.6727   20.1397 C   0  0  0  0  0  0  0  0  0  0  0  0
  -22.8006   -8.8530   22.5193 C   0  0  0  0  0  0  0  0  0  0  0  0
  -25.0591  -16.0345   28.7668 C   0  0  0  0  0  0  0  0  0  0  0  0
  -21.2424   -5.7694   23.6474 C   0  0  0  0  0  0  0  0  0  0  0  0
  -21.7383   -4.8095   24.5296 C   0  0  0  0  0  0  0  0  0  0  0  0
  -24.6477  -14.1241   27.3525 C   0  0  0  0  0  0  0  0  0  0  0  0
  -30.2560  -14.3734   26.4746 C   0  0  0  0  0  0  0  0  0  0  0  0
  -29.5272  -15.8940   24.7597 C   0  0  0  0  0  0  0  0  0  0  0  0
  -23.6976   -4.5453   23.1409 C   0  0  0  0  0  0  0  0  0  0  0  0
  -23.7619  -10.4828   21.0170 C   0  0  0  0  0  0  0  0  0  0  0  0
  -24.1009  -12.9994   20.7734 C   0  0  0  0  0  0  0  0  0  0  0  0
  -29.1903  -10.0396   34.1193 C   0  0  0  0  0  0  0  0  0  0  0  0
  -24.6810  -13.8503   29.7574 C   0  0  0  0  0  0  0  0  0  0  0  0
  -28.8761  -10.9745   33.1145 C   0  0  0  0  0  0  0  0  0  0  0  0
  -24.5211  -13.2970   28.4790 C   0  0  0  0  0  0  0  0  0  0  0  0
  -30.4248  -14.9340   25.2134 C   0  0  0  0  0  0  0  0  0  0  0  0
  -22.2288   -8.1896   21.4337 C   0  0  0  0  0  0  0  0  0  0  0  0
  -24.9169  -15.4850   27.4961 C   0  0  0  0  0  0  0  0  0  0  0  0
  -21.9741   -6.1172   22.5119 C   0  0  0  0  0  0  0  0  0  0  0  0
  -22.9659   -4.1975   24.2764 C   0  0  0  0  0  0  0  0  0  0  0  0
  -23.2016   -5.5052   22.2587 C   0  0  0  0  0  0  0  0  0  0  0  0
  -24.5542  -11.6669   20.8023 C   0  0  0  0  0  0  0  0  0  0  0  0
  -29.1821  -14.8036   27.2371 C   0  0  0  0  0  0  0  0  0  0  0  0
  -28.4858  -16.2560   25.5989 C   0  0  0  0  0  0  0  0  0  0  0  0
  -25.2322  -13.7420   20.5387 C   0  0  0  0  0  0  0  0  0  0  0  0
  -22.7756  -13.5194   20.9436 C   0  0  0  0  0  0  0  0  0  0  0  0
  -26.2320  -11.1892   30.5424 C   0  0  0  0  0  0  0  0  0  0  0  0
  -23.5026   -9.7619   29.5249 C   0  0  0  0  0  0  0  0  0  0  0  0
  -20.6932   -9.9262   27.5942 C   0  0  0  0  0  0  0  0  0  0  0  0
  -31.0465  -12.7515   21.5707 C   0  0  0  0  0  0  0  0  0  0  0  0
  -29.0353   -8.5557   33.8986 C   0  0  0  0  0  0  0  0  0  0  0  0
  -24.5265  -12.9927   30.9834 C   0  0  0  0  0  0  0  0  0  0  0  0
  -24.2245  -11.8339   28.2795 C   0  0  0  0  0  0  0  0  0  0  0  0
  -28.1299   -8.2064   32.7202 C   0  0  0  0  0  0  0  0  0  0  0  0
  -29.5206  -13.4691   18.4348 C   0  0  0  0  0  0  0  0  0  0  0  0
  -28.4887   -9.0519   31.5023 C   0  0  0  0  0  0  0  0  0  0  0  0
  -28.0339  -13.2088   18.6834 C   0  0  0  0  0  0  0  0  0  0  0  0
  -30.4015  -12.4796   19.1944 C   0  0  0  0  0  0  0  0  0  0  0  0
  -28.6471  -12.1370   20.8910 C   0  0  0  0  0  0  0  0  0  0  0  0
  -28.2871  -10.5449   31.7884 C   0  0  1  0  0  0  0  0  0  0  0  0
  -24.7744  -11.5121   30.7119 C   0  0  1  0  0  0  0  0  0  0  0  0
  -27.7201  -13.1448   20.1903 C   0  0  2  0  0  0  0  0  0  0  0  0
  -28.9708  -14.2251   28.5963 C   0  0  0  0  0  0  0  0  0  0  0  0
  -32.9279  -14.8534   24.9859 C   0  0  0  0  0  0  0  0  0  0  0  0
  -18.6719   -8.5907   26.9398 C   0  0  0  0  0  0  0  0  0  0  0  0
  -25.2317   -8.0526   27.6815 C   0  0  0  0  0  0  0  0  0  0  0  0
  -23.1599   -7.4501   26.4116 C   0  0  0  0  0  0  0  0  0  0  0  0
  -23.3764   -6.8161   28.8145 C   0  0  0  0  0  0  0  0  0  0  0  0
  -18.8489  -11.9507   28.7162 C   0  0  0  0  0  0  0  0  0  0  0  0
  -27.4924  -17.2929   25.1388 C   0  0  0  0  0  0  0  0  0  0  0  0
  -26.2900  -16.7067   24.3956 C   0  0  0  0  0  0  0  0  0  0  0  0
  -31.5355  -13.0026   23.9908 C   0  0  0  0  0  0  0  0  0  0  0  0
  -25.5304  -15.6621   25.2052 C   0  0  0  0  0  0  0  0  0  1  0  0
  -31.5645  -14.5079   24.3513 C   0  0  1  0  0  0  0  0  0  0  0  0
  -22.9986   -9.2396   28.2012 C   0  0  1  0  0  0  0  0  0  0  0  0
  -19.2388   -9.6210   27.9041 C   0  0  2  0  0  0  0  0  0  0  0  0
  -23.6992   -7.9169   27.7806 C   0  0  0  0  0  0  0  0  0  0  0  0
  -25.8709  -11.5657   20.6018 N   0  0  0  0  0  0  0  0  0  0  0  0
  -28.2895  -15.7338   26.8304 N   0  0  0  0  0  0  0  0  0  0  0  0
  -26.2546  -12.8441   20.4446 N   0  0  0  0  0  0  0  0  0  0  0  0
  -24.0888  -11.0355   29.5090 N   0  0  0  0  0  0  0  0  0  0  0  0
  -30.0543  -12.4685   20.6175 N   0  0  0  0  0  0  0  0  0  0  0  0
  -25.4423  -15.0688   20.4055 N   0  0  0  0  0  0  0  0  0  0  0  0
  -21.7288  -12.6172   21.1771 N   0  0  0  0  0  0  0  0  0  0  0  0
  -26.8823  -10.8867   31.7236 N   0  0  0  0  0  0  0  0  0  0  0  0
  -21.5492   -9.1336   28.3294 N   0  0  0  0  0  0  0  0  0  0  0  0
  -30.6316  -12.7262   22.8965 N   0  0  0  0  0  0  0  0  0  0  0  0
  -18.4170  -10.8602   27.8044 N   0  3  0  0  0  0  0  0  0  0  0  0
  -22.5245  -14.7464   20.8738 O   0  0  0  0  0  0  0  0  0  0  0  0
  -26.7296  -11.2114   29.4228 O   0  0  0  0  0  0  0  0  0  0  0  0
  -23.3742   -9.0686   30.5371 O   0  0  0  0  0  0  0  0  0  0  0  0
  -21.0357  -10.7795   26.7787 O   0  0  0  0  0  0  0  0  0  0  0  0
  -32.2142  -13.0131   21.2626 O   0  0  0  0  0  0  0  0  0  0  0  0
  -21.4808   -7.0709   21.6374 O   0  0  0  0  0  0  0  0  0  0  0  0
  -25.0354  -16.2755   26.3947 O   0  0  0  0  0  0  0  0  0  1  0  0
  -23.4427   -3.2768   25.1245 F   0  0  0  0  0  0  0  0  0  0  0  0
  -23.9096   -5.8361   21.1701 F   0  0  0  0  0  0  0  0  0  0  0  0
  1  2  1  0  0  0  0
  1  5  2  0  0  0  0
  2  6  2  0  0  0  0
  3  8  2  0  0  0  0
  3 17  1  0  0  0  0
  4  9  1  0  0  0  0
  4 17  2  0  0  0  0
  5 19  1  0  0  0  0
  6 21  1  0  0  0  0
  7 10  2  0  0  0  0
  7 20  1  0  0  0  0
  8 24  1  0  0  0  0
  9 24  2  0  0  0  0
 10 25  1  0  0  0  0
 11 12  2  0  0  0  0
 11 26  1  0  0  0  0
 12 27  1  0  0  0  0
 13 22  1  0  0  0  0
 13 25  2  0  0  0  0
 14 23  1  0  0  0  0
 14 30  2  0  0  0  0
 15 23  2  0  0  0  0
 15 31  1  0  0  0  0
 16 27  2  0  0  0  0
 16 28  1  0  0  0  0
 17 29  1  0  0  0  0
 18 29  1  0  0  0  0
 18 32  2  0  0  0  0
 18 33  1  0  0  0  0
 19 21  2  0  0  0  0
 19 38  1  0  0  0  0
 20 22  2  0  0  0  0
 20 39  1  0  0  0  0
 21 47  1  0  0  0  0
 22 40  1  0  0  0  0
 23 61  1  0  0  0  0
 24 81  1  0  0  0  0
 25 82  1  0  0  0  0
 26 28  2  0  0  0  0
 26 81  1  0  0  0  0
 27 83  1  0  0  0  0
 28 84  1  0  0  0  0
 29 65  2  0  0  0  0
 30 50  1  0  0  0  0
 30 66  1  0  0  0  0
 31 57  1  0  0  0  0
 31 66  2  0  0  0  0
 32 67  1  0  0  0  0
 32 70  1  0  0  0  0
 33 71  1  0  0  0  0
 33 76  2  0  0  0  0
 34 48  1  0  0  0  0
 34 72  1  0  0  0  0
 34 77  2  0  0  0  0
 35 62  1  0  0  0  0
 35 68  1  0  0  0  0
 35 78  2  0  0  0  0
 36 63  1  0  0  0  0
 36 73  1  0  0  0  0
 36 79  2  0  0  0  0
 37 69  1  0  0  0  0
 37 74  1  0  0  0  0
 37 80  2  0  0  0  0
 38 41  1  0  0  0  0
 39 48  1  0  0  0  0
 40 68  1  0  0  0  0
 41 43  1  0  0  0  0
 42 44  1  0  0  0  0
 42 45  1  0  0  0  0
 43 47  1  0  0  0  0
 44 49  1  0  0  0  0
 45 69  1  0  0  0  0
 46 49  1  0  0  0  0
 46 69  1  0  0  0  0
 47 72  1  0  0  0  0
 48 68  1  0  0  0  0
 49 67  1  0  0  0  0
 51 61  1  0  0  0  0
 52 63  1  0  0  0  0
 53 64  1  0  0  0  0
 54 64  1  0  0  0  0
 55 64  1  0  0  0  0
 56 75  1  0  0  0  0
 57 58  1  0  0  0  0
 58 60  1  0  0  0  0
 59 61  1  0  0  0  0
 59 74  1  0  0  0  0
 60 82  1  0  0  0  0
 62 64  1  0  0  0  0
 62 73  1  0  0  0  0
 63 75  1  0  0  0  0
 65 67  1  0  0  0  0
M  CHG  1  75   1
M  ISO  4  37 100  60 101  74 100  82 101
M  END
> <Batch ID>
0085

> <Smiles>
CNC(C)C(=O)NC(C(=O)N1Cc2cc([101O:1][101CH2:1]CCc3cc(C(C)C[100NH:0][100C:0](=O)N4CCCC(n5nc(-c6ccc(Oc7ccc(F)cc7F)cc6)c(C(N)=O)c5N)C4)cc(C)n3)ccc2CC1C(=O)NC1CCCc2ccccc21)C(C)(C)C

> <Shape>
0.139

> <Color>
0.182

> <Negative vol penalty>
0.000

$$$$

  -OEChem-04052318563D

 81 89  0     1  0  0  0  0  0999 V2000
  -24.9095  -32.7051   23.6472 C   0  0  0  0  0  0  0  0  0  0  0  0
  -25.2263  -31.4428   23.1554 C   0  0  0  0  0  0  0  0  0  0  0  0
  -23.1547   -9.7633   20.0362 C   0  0  0  0  0  0  0  0  0  0  0  0
  -23.7876   -9.9984   22.3559 C   0  0  0  0  0  0  0  0  0  0  0  0
  -23.6590  -32.9354   24.2191 C   0  0  0  0  0  0  0  0  0  0  0  0
  -24.2931  -30.4099   23.2363 C   0  0  0  0  0  0  0  0  0  0  0  0
  -23.4380  -25.8955   19.1873 C   0  0  0  0  0  0  0  0  0  0  0  0
  -22.4232   -8.6183   20.3518 C   0  0  0  0  0  0  0  0  0  0  0  0
  -23.0560   -8.8535   22.6716 C   0  0  0  0  0  0  0  0  0  0  0  0
  -23.8738  -24.5716   19.1525 C   0  0  0  0  0  0  0  0  0  0  0  0
  -19.8176   -8.0287   23.1745 C   0  0  0  0  0  0  0  0  0  0  0  0
  -18.9987   -8.0752   24.3027 C   0  0  0  0  0  0  0  0  0  0  0  0
  -21.7772  -23.8625   20.1120 C   0  0  0  0  0  0  0  0  0  0  0  0
  -20.2393   -6.2460   25.2786 C   0  0  0  0  0  0  0  0  0  0  0  0
  -23.8369  -10.4533   21.0383 C   0  0  0  0  0  0  0  0  0  0  0  0
  -24.1305  -12.9653   20.7044 C   0  0  0  0  0  0  0  0  0  0  0  0
  -22.7065  -31.9073   24.2984 C   0  0  0  0  0  0  0  0  0  0  0  0
  -22.1706  -26.2144   19.6956 C   0  0  0  0  0  0  0  0  0  0  0  0
  -23.0292  -30.6263   23.8111 C   0  0  0  0  0  0  0  0  0  0  0  0
  -21.3266  -25.1909   20.1497 C   0  0  0  0  0  0  0  0  0  0  0  0
  -22.3739   -8.1634   21.6695 C   0  0  0  0  0  0  0  0  0  0  0  0
  -23.0446  -23.5552   19.6176 C   0  0  0  0  0  0  0  0  0  0  0  0
  -20.8473   -7.0908   23.0983 C   0  0  0  0  0  0  0  0  0  0  0  0
  -19.2096   -7.1839   25.3547 C   0  0  0  0  0  0  0  0  0  0  0  0
  -21.0582   -6.1995   24.1503 C   0  0  0  0  0  0  0  0  0  0  0  0
  -24.5932  -11.6358   20.7128 C   0  0  0  0  0  0  0  0  0  0  0  0
  -25.2245  -13.7073   20.3316 C   0  0  0  0  0  0  0  0  0  0  0  0
  -22.8282  -13.4833   21.0068 C   0  0  0  0  0  0  0  0  0  0  0  0
  -21.1038  -27.9583   22.1297 C   0  0  0  0  0  0  0  0  0  0  0  0
  -18.2077  -27.2989   20.8258 C   0  0  0  0  0  0  0  0  0  0  0  0
  -16.3090  -25.2385   18.8774 C   0  0  0  0  0  0  0  0  0  0  0  0
  -30.6665  -14.8837   20.7133 C   0  0  0  0  0  0  0  0  0  0  0  0
  -21.3854  -32.1917   24.9681 C   0  0  0  0  0  0  0  0  0  0  0  0
  -21.7048  -27.6446   19.7014 C   0  0  0  0  0  0  0  0  0  0  0  0
  -19.9490  -25.4785   20.6862 C   0  0  0  0  0  0  0  0  0  0  0  0
  -20.3162  -31.1418   24.6765 C   0  0  0  0  0  0  0  0  0  0  0  0
  -29.7128  -12.2632   18.4997 C   0  0  0  0  0  0  0  0  0  0  0  0
  -20.8873  -29.7374   24.8444 C   0  0  0  0  0  0  0  0  0  0  0  0
  -28.2561  -18.9592   21.8141 C   0  0  0  0  0  0  0  0  0  0  0  0
  -28.6762  -19.5447   19.3938 C   0  0  0  0  0  0  0  0  0  0  0  0
  -26.7814  -19.3201   21.6454 C   0  0  0  0  0  0  0  0  0  0  0  0
  -27.2014  -19.9053   19.2252 C   0  0  0  0  0  0  0  0  0  0  0  0
  -28.2605  -11.9721   18.8817 C   0  0  0  0  0  0  0  0  0  0  0  0
  -30.5579  -12.6163   19.7217 C   0  0  0  0  0  0  0  0  0  0  0  0
  -28.5678  -13.4197   20.9332 C   0  0  0  0  0  0  0  0  0  0  0  0
  -22.0345  -29.4868   23.8583 C   0  0  1  0  0  0  0  0  0  0  0  0
  -20.5966  -27.9079   20.7162 C   0  0  1  0  0  0  0  0  0  0  0  0
  -28.8810  -18.4941   20.4925 C   0  0  0  0  0  0  0  0  0  0  0  0
  -26.5770  -20.3708   20.5466 C   0  0  0  0  0  0  0  0  0  0  0  0
  -27.6636  -13.1133   19.7271 C   0  0  2  0  0  0  0  0  0  0  0  0
  -13.9671  -24.9374   18.0276 C   0  0  0  0  0  0  0  0  0  0  0  0
  -17.3490  -26.2661   23.5654 C   0  0  0  0  0  0  0  0  0  0  0  0
  -15.4107  -25.1359   22.4546 C   0  0  0  0  0  0  0  0  0  0  0  0
  -15.6183  -27.6204   22.3717 C   0  0  0  0  0  0  0  0  0  0  0  0
  -17.1770  -25.4796   16.0583 C   0  0  0  0  0  0  0  0  0  0  0  0
  -30.3663  -18.1887   20.6761 C   0  0  0  0  0  0  0  0  0  0  0  0
  -25.0919  -20.6777   20.3631 C   0  0  0  0  0  0  0  0  0  0  0  0
  -30.6183  -17.1386   21.7487 C   0  0  0  0  0  0  0  0  0  0  0  0
  -24.8708  -22.0347   19.7125 C   0  0  0  0  0  0  0  0  0  1  0  0
  -17.1870  -26.1988   20.9895 C   0  0  1  0  0  0  0  0  0  0  0  0
  -15.3383  -25.5326   17.7479 C   0  0  2  0  0  0  0  0  0  0  0  0
  -16.4179  -26.2997   22.3370 C   0  0  0  0  0  0  0  0  0  0  0  0
  -25.8808  -11.5358   20.3721 N   0  0  0  0  0  0  0  0  0  0  0  0
  -26.2365  -12.8119   20.1462 N   0  0  0  0  0  0  0  0  0  0  0  0
  -19.5416  -26.8932   20.6771 N   0  0  0  0  0  0  0  0  0  0  0  0
  -29.9377  -13.7060   20.4791 N   0  0  0  0  0  0  0  0  0  0  0  0
  -25.4099  -15.0317   20.1475 N   0  0  0  0  0  0  0  0  0  0  0  0
  -21.8191  -12.5820   21.3726 N   0  0  0  0  0  0  0  0  0  0  0  0
  -21.5138  -29.2138   22.5359 N   0  0  0  0  0  0  0  0  0  0  0  0
  -16.3327  -26.2554   19.8083 N   0  0  0  0  0  0  0  0  0  0  0  0
  -30.0024  -15.8690   21.4336 N   0  0  0  0  0  0  0  0  0  0  0  0
  -15.8455  -24.9633   16.4675 N   0  3  0  0  0  0  0  0  0  0  0  0
  -22.5627  -14.7073   20.9381 O   0  0  0  0  0  0  0  0  0  0  0  0
  -21.1205  -26.9341   22.8024 O   0  0  0  0  0  0  0  0  0  0  0  0
  -17.8344  -28.4746   20.8225 O   0  0  0  0  0  0  0  0  0  0  0  0
  -16.9765  -24.2078   18.9306 O   0  0  0  0  0  0  0  0  0  0  0  0
  -31.8216  -15.0472   20.3058 O   0  0  0  0  0  0  0  0  0  0  0  0
  -21.6600   -7.0464   21.9778 O   0  0  0  0  0  0  0  0  0  0  0  0
  -23.4678  -22.2622   19.5854 O   0  0  0  0  0  0  0  0  0  1  0  0
  -18.4241   -7.2297   26.4387 F   0  0  0  0  0  0  0  0  0  0  0  0
  -22.0466   -5.2971   24.0833 F   0  0  0  0  0  0  0  0  0  0  0  0
  1  2  1  0  0  0  0
  1  5  2  0  0  0  0
  2  6  2  0  0  0  0
  3  8  2  0  0  0  0
  3 15  1  0  0  0  0
  4  9  1  0  0  0  0
  4 15  2  0  0  0  0
  5 17  1  0  0  0  0
  6 19  1  0  0  0  0
  7 10  2  0  0  0  0
  7 18  1  0  0  0  0
  8 21  1  0  0  0  0
  9 21  2  0  0  0  0
 10 22  1  0  0  0  0
 11 12  2  0  0  0  0
 11 23  1  0  0  0  0
 12 24  1  0  0  0  0
 13 20  1  0  0  0  0
 13 22  2  0  0  0  0
 14 24  2  0  0  0  0
 14 25  1  0  0  0  0
 15 26  1  0  0  0  0
 16 26  1  0  0  0  0
 16 27  2  0  0  0  0
 16 28  1  0  0  0  0
 17 19  2  0  0  0  0
 17 33  1  0  0  0  0
 18 20  2  0  0  0  0
 18 34  1  0  0  0  0
 19 46  1  0  0  0  0
 20 35  1  0  0  0  0
 21 78  1  0  0  0  0
 22 79  1  0  0  0  0
 23 25  2  0  0  0  0
 23 78  1  0  0  0  0
 24 80  1  0  0  0  0
 25 81  1  0  0  0  0
 26 63  2  0  0  0  0
 27 64  1  0  0  0  0
 27 67  1  0  0  0  0
 28 68  1  0  0  0  0
 28 73  2  0  0  0  0
 29 47  1  0  0  0  0
 29 69  1  0  0  0  0
 29 74  2  0  0  0  0
 30 60  1  0  0  0  0
 30 65  1  0  0  0  0
 30 75  2  0  0  0  0
 31 61  1  0  0  0  0
 31 70  1  0  0  0  0
 31 76  2  0  0  0  0
 32 66  1  0  0  0  0
 32 71  1  0  0  0  0
 32 77  2  0  0  0  0
 33 36  1  0  0  0  0
 34 47  1  0  0  0  0
 35 65  1  0  0  0  0
 36 38  1  0  0  0  0
 37 43  1  0  0  0  0
 37 44  1  0  0  0  0
 38 46  1  0  0  0  0
 39 41  1  0  0  0  0
 39 48  1  0  0  0  0
 40 42  1  0  0  0  0
 40 48  1  0  0  0  0
 41 49  1  0  0  0  0
 42 49  1  0  0  0  0
 43 50  1  0  0  0  0
 44 66  1  0  0  0  0
 45 50  1  0  0  0  0
 45 66  1  0  0  0  0
 46 69  1  0  0  0  0
 47 65  1  0  0  0  0
 48 56  1  0  0  0  0
 49 57  1  0  0  0  0
 50 64  1  0  0  0  0
 51 61  1  0  0  0  0
 52 62  1  0  0  0  0
 53 62  1  0  0  0  0
 54 62  1  0  0  0  0
 55 72  1  0  0  0  0
 56 58  1  0  0  0  0
 57 59  1  0  0  0  0
 58 71  1  0  0  0  0
 59 79  1  0  0  0  0
 60 62  1  0  0  0  0
 60 70  1  0  0  0  0
 61 72  1  0  0  0  0
 63 64  1  0  0  0  0
M  CHG  1  72   1
M  ISO  4  32 100  59 101  71 100  79 101
M  END
> <Batch ID>
0085

> <Smiles>
CNC(C)C(=O)NC(C(=O)N1Cc2cc([101O:1][101CH2:1]CC3CCC(CC[100NH:0][100C:0](=O)N4CCCC(n5nc(-c6ccc(Oc7ccc(F)cc7F)cc6)c(C(N)=O)c5N)C4)CC3)ccc2CC1C(=O)NC1CCCc2ccccc21)C(C)(C)C

> <Shape>
0.296

> <Color>
0.217

> <Negative vol penalty>
0.000

$$$$

  -OEChem-04052318563D

 80 88  0     1  0  0  0  0  0999 V2000
  -21.6790  -27.8889   11.0276 C   0  0  0  0  0  0  0  0  0  0  0  0
  -22.7966  -27.4811   11.7488 C   0  0  0  0  0  0  0  0  0  0  0  0
  -26.6745  -15.1582   21.6278 C   0  0  0  0  0  0  0  0  0  0  0  0
  -26.4309  -15.1339   19.2243 C   0  0  0  0  0  0  0  0  0  0  0  0
  -20.8953  -28.9428   11.4957 C   0  0  0  0  0  0  0  0  0  0  0  0
  -23.1317  -28.1277   12.9379 C   0  0  0  0  0  0  0  0  0  0  0  0
  -25.6284  -25.5995   17.9260 C   0  0  0  0  0  0  0  0  0  0  0  0
  -26.4356  -13.7845   21.6660 C   0  0  0  0  0  0  0  0  0  0  0  0
  -26.1920  -13.7601   19.2624 C   0  0  0  0  0  0  0  0  0  0  0  0
  -26.9412  -25.5434   18.3921 C   0  0  0  0  0  0  0  0  0  0  0  0
  -25.5334  -10.3458   22.4306 C   0  0  0  0  0  0  0  0  0  0  0  0
  -24.6556   -9.8654   23.4024 C   0  0  0  0  0  0  0  0  0  0  0  0
  -27.4788  -24.0696   22.1166 C   0  0  0  0  0  0  0  0  0  0  0  0
  -26.5178  -27.4582   19.7969 C   0  0  0  0  0  0  0  0  0  0  0  0
  -22.8888  -11.2325   22.4824 C   0  0  0  0  0  0  0  0  0  0  0  0
  -28.0617  -23.5469   24.7303 C   0  0  0  0  0  0  0  0  0  0  0  0
  -26.6722  -15.8329   20.4070 C   0  0  0  0  0  0  0  0  0  0  0  0
  -26.4612  -23.6692   22.9754 C   0  0  0  0  0  0  0  0  0  0  0  0
  -28.1635  -17.8954   20.2340 C   0  0  0  0  0  0  0  0  0  0  0  0
  -21.2155  -29.5963   12.6961 C   0  0  0  0  0  0  0  0  0  0  0  0
  -24.7522  -26.5938   18.3845 C   0  0  0  0  0  0  0  0  0  0  0  0
  -22.3523  -29.1922   13.4218 C   0  0  0  0  0  0  0  0  0  0  0  0
  -25.1937  -27.5232   19.3370 C   0  0  0  0  0  0  0  0  0  0  0  0
  -26.7501  -23.4003   24.3087 C   0  0  0  0  0  0  0  0  0  0  0  0
  -26.1943  -13.0855   20.4833 C   0  0  0  0  0  0  0  0  0  0  0  0
  -27.3869  -26.4746   19.3255 C   0  0  0  0  0  0  0  0  0  0  0  0
  -25.0889  -11.2696   21.4847 C   0  0  0  0  0  0  0  0  0  0  0  0
  -23.3333  -10.3087   23.4283 C   0  0  0  0  0  0  0  0  0  0  0  0
  -23.7666  -11.7129   21.5106 C   0  0  0  0  0  0  0  0  0  0  0  0
  -26.9184  -17.2520   20.3669 C   0  0  0  0  0  0  0  0  0  0  0  0
  -28.7581  -24.1852   22.6360 C   0  0  0  0  0  0  0  0  0  0  0  0
  -27.8612  -19.2351   20.2503 C   0  0  0  0  0  0  0  0  0  0  0  0
  -25.0955  -23.5380   22.4516 C   0  0  0  0  0  0  0  0  0  0  0  0
  -29.4759  -17.3323   20.1071 C   0  0  0  0  0  0  0  0  0  0  0  0
  -23.1613  -28.9842   17.0211 C   0  0  0  0  0  0  0  0  0  0  0  0
  -21.8625  -29.2898   19.9777 C   0  0  0  0  0  0  0  0  0  0  0  0
  -22.1461  -28.7544   23.3363 C   0  0  0  0  0  0  0  0  0  0  0  0
  -20.3654  -30.7613   13.1375 C   0  0  0  0  0  0  0  0  0  0  0  0
  -23.3313  -26.6243   17.8919 C   0  0  0  0  0  0  0  0  0  0  0  0
  -24.2866  -28.5980   19.8761 C   0  0  0  0  0  0  0  0  0  0  0  0
  -20.5744  -31.1485   14.5993 C   0  0  0  0  0  0  0  0  0  0  0  0
  -23.4142  -21.6249   19.9506 C   0  0  0  0  0  0  0  0  0  0  0  0
  -22.0628  -31.2169   14.9258 C   0  0  0  0  0  0  0  0  0  0  0  0
  -24.2655  -20.3591   19.8367 C   0  0  0  0  0  0  0  0  0  0  0  0
  -23.3580  -22.1389   21.3870 C   0  0  0  0  0  0  0  0  0  0  0  0
  -25.5347  -21.0885   21.9001 C   0  0  0  0  0  0  0  0  0  0  0  0
  -22.7342  -29.8524   14.7288 C   0  0  1  0  0  0  0  0  0  0  0  0
  -22.6763  -27.9939   18.0418 C   0  0  1  0  0  0  0  0  0  0  0  0
  -25.6590  -20.5662   20.4594 C   0  0  1  0  0  0  0  0  0  0  0  0
  -25.7012  -22.9678   25.2742 C   0  0  0  0  0  0  0  0  0  0  0  0
  -21.4654  -28.6992   25.7510 C   0  0  0  0  0  0  0  0  0  0  0  0
  -22.6978  -32.2236   19.9046 C   0  0  0  0  0  0  0  0  0  0  0  0
  -22.3476  -32.3129   22.3820 C   0  0  0  0  0  0  0  0  0  0  0  0
  -20.4284  -31.8088   20.8703 C   0  0  0  0  0  0  0  0  0  0  0  0
  -20.9706  -26.0521   23.0632 C   0  0  0  0  0  0  0  0  0  0  0  0
  -29.8864  -24.6167   21.7337 C   0  0  0  0  0  0  0  0  0  0  0  0
  -30.0942  -26.1321   21.6890 C   0  0  0  0  0  0  0  0  0  0  0  0
  -28.9040  -26.8880   21.1098 C   0  0  0  0  0  0  0  0  0  1  0  0
  -22.2179  -30.0588   21.2273 C   0  0  1  0  0  0  0  0  0  0  0  0
  -21.1724  -28.1828   24.3509 C   0  0  2  0  0  0  0  0  0  0  0  0
  -21.9408  -31.5821   21.0846 C   0  0  0  0  0  0  0  0  0  0  0  0
  -29.0769  -23.9336   23.9255 N   0  0  0  0  0  0  0  0  0  0  0  0
  -25.9009  -18.1122   20.4609 N   0  0  0  0  0  0  0  0  0  0  0  0
  -26.5062  -19.3098   20.3869 N   0  0  0  0  0  0  0  0  0  0  0  0
  -24.7055  -22.3016   21.9314 N   0  0  0  0  0  0  0  0  0  0  0  0
  -22.9082  -28.5902   19.3590 N   0  0  0  0  0  0  0  0  0  0  0  0
  -28.6249  -20.3447   20.1609 N   0  0  0  0  0  0  0  0  0  0  0  0
  -29.6073  -15.9369   20.1087 N   0  0  0  0  0  0  0  0  0  0  0  0
  -22.4385  -28.9780   15.8434 N   0  0  0  0  0  0  0  0  0  0  0  0
  -21.4931  -29.4194   22.3201 N   0  0  0  0  0  0  0  0  0  0  0  0
  -21.2590  -26.6952   24.3710 N   0  3  0  0  0  0  0  0  0  0  0  0
  -24.3947  -24.5477   22.5021 O   0  0  0  0  0  0  0  0  0  0  0  0
  -30.5034  -18.0456   20.0122 O   0  0  0  0  0  0  0  0  0  0  0  0
  -24.1195  -29.7018   17.2831 O   0  0  0  0  0  0  0  0  0  0  0  0
  -20.6984  -29.3034   19.5699 O   0  0  0  0  0  0  0  0  0  0  0  0
  -23.3644  -28.6272   23.4372 O   0  0  0  0  0  0  0  0  0  0  0  0
  -25.9613  -11.7450   20.5201 O   0  0  0  0  0  0  0  0  0  0  0  0
  -28.6680  -26.4225   19.7817 O   0  0  0  0  0  0  0  0  0  1  0  0
  -22.4901   -9.8462   24.3606 F   0  0  0  0  0  0  0  0  0  0  0  0
  -23.3335  -12.5994   20.6038 F   0  0  0  0  0  0  0  0  0  0  0  0
  1  2  1  0  0  0  0
  1  5  2  0  0  0  0
  2  6  2  0  0  0  0
  3  8  2  0  0  0  0
  3 17  1  0  0  0  0
  4  9  1  0  0  0  0
  4 17  2  0  0  0  0
  5 20  1  0  0  0  0
  6 22  1  0  0  0  0
  7 10  2  0  0  0  0
  7 21  1  0  0  0  0
  8 25  1  0  0  0  0
  9 25  2  0  0  0  0
 10 26  1  0  0  0  0
 11 12  2  0  0  0  0
 11 27  1  0  0  0  0
 12 28  1  0  0  0  0
 13 18  2  0  0  0  0
 13 31  1  0  0  0  0
 14 23  1  0  0  0  0
 14 26  2  0  0  0  0
 15 28  2  0  0  0  0
 15 29  1  0  0  0  0
 16 24  2  0  0  0  0
 16 62  1  0  0  0  0
 17 30  1  0  0  0  0
 18 24  1  0  0  0  0
 18 33  1  0  0  0  0
 19 30  1  0  0  0  0
 19 32  2  0  0  0  0
 19 34  1  0  0  0  0
 20 22  2  0  0  0  0
 20 38  1  0  0  0  0
 21 23  2  0  0  0  0
 21 39  1  0  0  0  0
 22 47  1  0  0  0  0
 23 40  1  0  0  0  0
 24 50  1  0  0  0  0
 25 77  1  0  0  0  0
 26 78  1  0  0  0  0
 27 29  2  0  0  0  0
 27 77  1  0  0  0  0
 28 79  1  0  0  0  0
 29 80  1  0  0  0  0
 30 63  2  0  0  0  0
 31 56  1  0  0  0  0
 31 62  2  0  0  0  0
 32 64  1  0  0  0  0
 32 67  1  0  0  0  0
 33 65  1  0  0  0  0
 33 72  2  0  0  0  0
 34 68  1  0  0  0  0
 34 73  2  0  0  0  0
 35 48  1  0  0  0  0
 35 69  1  0  0  0  0
 35 74  2  0  0  0  0
 36 59  1  0  0  0  0
 36 66  1  0  0  0  0
 36 75  2  0  0  0  0
 37 60  1  0  0  0  0
 37 70  1  0  0  0  0
 37 76  2  0  0  0  0
 38 41  1  0  0  0  0
 39 48  1  0  0  0  0
 40 66  1  0  0  0  0
 41 43  1  0  0  0  0
 42 44  1  0  0  0  0
 42 45  1  0  0  0  0
 43 47  1  0  0  0  0
 44 49  1  0  0  0  0
 45 65  1  0  0  0  0
 46 49  1  0  0  0  0
 46 65  1  0  0  0  0
 47 69  1  0  0  0  0
 48 66  1  0  0  0  0
 49 64  1  0  0  0  0
 51 60  1  0  0  0  0
 52 61  1  0  0  0  0
 53 61  1  0  0  0  0
 54 61  1  0  0  0  0
 55 71  1  0  0  0  0
 56 57  1  0  0  0  0
 57 58  1  0  0  0  0
 58 78  1  0  0  0  0
 59 61  1  0  0  0  0
 59 70  1  0  0  0  0
 60 71  1  0  0  0  0
 63 64  1  0  0  0  0
M  CHG  1  71   1
M  ISO  4  18 100  33 100  58 101  78 101
M  END
> <Batch ID>
0085

> <Smiles>
CNC(C)C(=O)NC(C(=O)N1Cc2cc([101O:1][101CH2:1]CCc3c[100c:0]([100C:0](=O)N4CCCC(n5nc(-c6ccc(Oc7ccc(F)cc7F)cc6)c(C(N)=O)c5N)C4)c(C)cn3)ccc2CC1C(=O)NC1CCCc2ccccc21)C(C)(C)C

> <Shape>
0.177

> <Color>
0.105

> <Negative vol penalty>
0.000

$$$$

  -OEChem-04052318563D

 82 90  0     1  0  0  0  0  0999 V2000
  -16.8477  -30.4146   23.5997 C   0  0  0  0  0  0  0  0  0  0  0  0
  -18.0447  -30.9675   24.0433 C   0  0  0  0  0  0  0  0  0  0  0  0
  -24.6910  -17.7822   21.0176 C   0  0  0  0  0  0  0  0  0  0  0  0
  -25.6935  -15.9315   19.8314 C   0  0  0  0  0  0  0  0  0  0  0  0
  -16.8390  -29.1455   23.0224 C   0  0  0  0  0  0  0  0  0  0  0  0
  -19.2337  -30.2511   23.9110 C   0  0  0  0  0  0  0  0  0  0  0  0
  -26.2391  -31.2216   22.7712 C   0  0  0  0  0  0  0  0  0  0  0  0
  -23.5029  -17.0614   21.1380 C   0  0  0  0  0  0  0  0  0  0  0  0
  -24.5054  -15.2107   19.9519 C   0  0  0  0  0  0  0  0  0  0  0  0
  -27.4763  -30.8797   23.3153 C   0  0  0  0  0  0  0  0  0  0  0  0
  -21.4809  -15.1229   18.4434 C   0  0  0  0  0  0  0  0  0  0  0  0
  -21.0110  -14.4543   17.3130 C   0  0  0  0  0  0  0  0  0  0  0  0
  -33.2038  -25.7231   20.6725 C   0  0  0  0  0  0  0  0  0  0  0  0
  -32.4177  -24.6296   20.3541 C   0  0  0  0  0  0  0  0  0  0  0  0
  -27.3522  -28.7287   22.2303 C   0  0  0  0  0  0  0  0  0  0  0  0
  -21.1499  -12.3533   18.4979 C   0  0  0  0  0  0  0  0  0  0  0  0
  -25.7863  -17.2173   20.3642 C   0  0  0  0  0  0  0  0  0  0  0  0
  -28.0970  -17.9720   21.1379 C   0  0  0  0  0  0  0  0  0  0  0  0
  -18.0299  -28.4172   22.8741 C   0  0  0  0  0  0  0  0  0  0  0  0
  -25.5428  -30.3140   21.9601 C   0  0  0  0  0  0  0  0  0  0  0  0
  -19.2408  -28.9705   23.3324 C   0  0  0  0  0  0  0  0  0  0  0  0
  -26.1074  -29.0626   21.6751 C   0  0  0  0  0  0  0  0  0  0  0  0
  -23.4101  -15.7757   20.6052 C   0  0  0  0  0  0  0  0  0  0  0  0
  -28.0317  -29.6320   23.0472 C   0  0  0  0  0  0  0  0  0  0  0  0
  -21.7853  -14.4067   19.6011 C   0  0  0  0  0  0  0  0  0  0  0  0
  -20.8455  -13.0696   17.3402 C   0  0  0  0  0  0  0  0  0  0  0  0
  -21.6198  -13.0219   19.6283 C   0  0  0  0  0  0  0  0  0  0  0  0
  -27.0137  -17.9615   20.2389 C   0  0  0  0  0  0  0  0  0  0  0  0
  -32.7212  -26.9783   20.3609 C   0  0  0  0  0  0  0  0  0  0  0  0
  -31.2010  -24.8638   19.7455 C   0  0  0  0  0  0  0  0  0  0  0  0
  -29.0072  -18.8288   20.5687 C   0  0  0  0  0  0  0  0  0  0  0  0
  -28.2655  -17.2699   22.3766 C   0  0  0  0  0  0  0  0  0  0  0  0
  -22.7388  -28.8292   22.1505 C   0  0  0  0  0  0  0  0  0  0  0  0
  -23.5018  -27.8357   19.1584 C   0  0  0  0  0  0  0  0  0  0  0  0
  -25.9321  -27.1995   16.8485 C   0  0  0  0  0  0  0  0  0  0  0  0
  -30.0907  -23.6914   18.0420 C   0  0  0  0  0  0  0  0  0  0  0  0
  -17.9638  -27.0295   22.2870 C   0  0  0  0  0  0  0  0  0  0  0  0
  -24.2216  -30.7083   21.3592 C   0  0  0  0  0  0  0  0  0  0  0  0
  -25.4097  -28.0600   20.7939 C   0  0  0  0  0  0  0  0  0  0  0  0
  -19.3212  -26.4910   21.8424 C   0  0  0  0  0  0  0  0  0  0  0  0
  -29.1654  -20.9005   15.9653 C   0  0  0  0  0  0  0  0  0  0  0  0
  -20.3718  -26.7350   22.9211 C   0  0  0  0  0  0  0  0  0  0  0  0
  -28.5772  -19.9041   16.9639 C   0  0  0  0  0  0  0  0  0  0  0  0
  -28.8577  -22.3402   16.3647 C   0  0  0  0  0  0  0  0  0  0  0  0
  -28.7119  -21.6924   18.7546 C   0  0  0  0  0  0  0  0  0  0  0  0
  -20.5548  -28.2347   23.1837 C   0  0  1  0  0  0  0  0  0  0  0  0
  -23.3629  -29.5103   20.9655 C   0  0  1  0  0  0  0  0  0  0  0  0
  -29.0275  -20.2292   18.3994 C   0  0  1  0  0  0  0  0  0  0  0  0
  -26.2515  -26.3600   14.5053 C   0  0  0  0  0  0  0  0  0  0  0  0
  -23.0163  -24.9802   20.1178 C   0  0  0  0  0  0  0  0  0  0  0  0
  -24.2400  -24.1654   18.0913 C   0  0  0  0  0  0  0  0  0  0  0  0
  -22.1339  -25.4766   17.8311 C   0  0  0  0  0  0  0  0  0  0  0  0
  -27.1484  -29.7526   15.9758 C   0  0  0  0  0  0  0  0  0  0  0  0
  -33.5386  -28.2032   20.6862 C   0  0  0  0  0  0  0  0  0  0  0  0
  -33.2596  -28.7824   22.0778 C   0  0  0  0  0  0  0  0  0  0  0  0
  -31.8203  -29.2805   22.2422 C   0  0  0  0  0  0  0  0  0  0  0  0
  -31.5792  -29.8201   23.6509 C   0  0  0  0  0  0  0  0  0  0  0  0
  -30.1638  -30.3565   23.8122 C   0  0  0  0  0  0  0  0  0  1  0  0
  -24.2421  -26.6537   18.5806 C   0  0  1  0  0  0  0  0  0  0  0  0
  -26.0569  -27.5848   15.3855 C   0  0  2  0  0  0  0  0  0  0  0  0
  -23.4206  -25.3369   18.6734 C   0  0  0  0  0  0  0  0  0  0  0  0
  -27.2153  -18.7493   19.1793 N   0  0  0  0  0  0  0  0  0  0  0  0
  -31.5266  -27.1779   19.7650 N   0  0  0  0  0  0  0  0  0  0  0  0
  -30.7539  -26.1032   19.4524 N   0  0  0  0  0  0  0  0  0  0  0  0
  -28.4358  -19.2628   19.4088 N   0  0  0  0  0  0  0  0  0  0  0  0
  -24.1173  -28.4899   20.2350 N   0  0  0  0  0  0  0  0  0  0  0  0
  -29.2645  -22.6028   17.7445 N   0  0  0  0  0  0  0  0  0  0  0  0
  -30.2325  -19.2458   20.9522 N   0  0  0  0  0  0  0  0  0  0  0  0
  -27.2323  -16.4304   22.8147 N   0  0  0  0  0  0  0  0  0  0  0  0
  -21.3570  -28.8363   22.1402 N   0  0  0  0  0  0  0  0  0  0  0  0
  -24.6155  -27.0305   17.2216 N   0  0  0  0  0  0  0  0  0  0  0  0
  -27.2197  -28.4956   15.1871 N   0  3  0  0  0  0  0  0  0  0  0  0
  -29.2948  -17.3964   23.0824 O   0  0  0  0  0  0  0  0  0  0  0  0
  -23.4576  -28.3326   23.0098 O   0  0  0  0  0  0  0  0  0  0  0  0
  -22.4207  -28.1708   18.6678 O   0  0  0  0  0  0  0  0  0  0  0  0
  -26.9055  -27.0587   17.5856 O   0  0  0  0  0  0  0  0  0  0  0  0
  -30.5231  -24.4815   17.2037 O   0  0  0  0  0  0  0  0  0  0  0  0
  -22.2510  -15.0720   20.7228 O   0  0  0  0  0  0  0  0  0  0  0  0
  -29.2390  -29.2954   23.5775 O   0  0  0  0  0  0  0  0  0  1  0  0
  -30.3762  -23.7863   19.4069 O   0  0  0  0  0  0  0  0  0  0  0  0
  -20.3928  -12.4278   16.2551 F   0  0  0  0  0  0  0  0  0  0  0  0
  -21.9095  -12.3287   20.7379 F   0  0  0  0  0  0  0  0  0  0  0  0
  1  2  1  0  0  0  0
  1  5  2  0  0  0  0
  2  6  2  0  0  0  0
  3  8  2  0  0  0  0
  3 17  1  0  0  0  0
  4  9  1  0  0  0  0
  4 17  2  0  0  0  0
  5 19  1  0  0  0  0
  6 21  1  0  0  0  0
  7 10  2  0  0  0  0
  7 20  1  0  0  0  0
  8 23  1  0  0  0  0
  9 23  2  0  0  0  0
 10 24  1  0  0  0  0
 11 12  2  0  0  0  0
 11 25  1  0  0  0  0
 12 26  1  0  0  0  0
 13 14  2  0  0  0  0
 13 29  1  0  0  0  0
 14 30  1  0  0  0  0
 15 22  1  0  0  0  0
 15 24  2  0  0  0  0
 16 26  2  0  0  0  0
 16 27  1  0  0  0  0
 17 28  1  0  0  0  0
 18 28  1  0  0  0  0
 18 31  2  0  0  0  0
 18 32  1  0  0  0  0
 19 21  2  0  0  0  0
 19 37  1  0  0  0  0
 20 22  2  0  0  0  0
 20 38  1  0  0  0  0
 21 46  1  0  0  0  0
 22 39  1  0  0  0  0
 23 78  1  0  0  0  0
 24 79  1  0  0  0  0
 25 27  2  0  0  0  0
 25 78  1  0  0  0  0
 26 81  1  0  0  0  0
 27 82  1  0  0  0  0
 28 62  2  0  0  0  0
 29 54  1  0  0  0  0
 29 63  2  0  0  0  0
 30 64  2  0  0  0  0
 30 80  1  0  0  0  0
 31 65  1  0  0  0  0
 31 68  1  0  0  0  0
 32 69  1  0  0  0  0
 32 73  2  0  0  0  0
 33 47  1  0  0  0  0
 33 70  1  0  0  0  0
 33 74  2  0  0  0  0
 34 59  1  0  0  0  0
 34 66  1  0  0  0  0
 34 75  2  0  0  0  0
 35 60  1  0  0  0  0
 35 71  1  0  0  0  0
 35 76  2  0  0  0  0
 36 67  1  0  0  0  0
 36 77  2  0  0  0  0
 36 80  1  0  0  0  0
 37 40  1  0  0  0  0
 38 47  1  0  0  0  0
 39 66  1  0  0  0  0
 40 42  1  0  0  0  0
 41 43  1  0  0  0  0
 41 44  1  0  0  0  0
 42 46  1  0  0  0  0
 43 48  1  0  0  0  0
 44 67  1  0  0  0  0
 45 48  1  0  0  0  0
 45 67  1  0  0  0  0
 46 70  1  0  0  0  0
 47 66  1  0  0  0  0
 48 65  1  0  0  0  0
 49 60  1  0  0  0  0
 50 61  1  0  0  0  0
 51 61  1  0  0  0  0
 52 61  1  0  0  0  0
 53 72  1  0  0  0  0
 54 55  1  0  0  0  0
 55 56  1  0  0  0  0
 56 57  1  0  0  0  0
 57 58  1  0  0  0  0
 58 79  1  0  0  0  0
 59 61  1  0  0  0  0
 59 71  1  0  0  0  0
 60 72  1  0  0  0  0
 62 65  1  0  0  0  0
 63 64  1  0  0  0  0
M  CHG  1  72   1
M  ISO  4  36 100  58 101  79 101  80 100
M  END
> <Batch ID>
0085

> <Smiles>
CNC(C)C(=O)NC(C(=O)N1Cc2cc([101O:1][101CH2:1]CCCCc3ccc([100O:0][100C:0](=O)N4CCCC(n5nc(-c6ccc(Oc7ccc(F)cc7F)cc6)c(C(N)=O)c5N)C4)nn3)ccc2CC1C(=O)NC1CCCc2ccccc21)C(C)(C)C

> <Shape>
0.247

> <Color>
0.103

> <Negative vol penalty>
0.000

$$$$

  -OEChem-04052318563D

 84 91  0     1  0  0  0  0  0999 V2000
  -25.5161  -25.8460   28.6325 C   0  0  0  0  0  0  0  0  0  0  0  0
  -25.6994  -24.4894   28.3846 C   0  0  0  0  0  0  0  0  0  0  0  0
  -22.9990   -9.8976   19.9861 C   0  0  0  0  0  0  0  0  0  0  0  0
  -23.7591   -9.9388   22.2790 C   0  0  0  0  0  0  0  0  0  0  0  0
  -26.6209  -26.6715   28.8370 C   0  0  0  0  0  0  0  0  0  0  0  0
  -26.9877  -23.9577   28.3401 C   0  0  0  0  0  0  0  0  0  0  0  0
  -28.7377  -18.3878   30.1893 C   0  0  0  0  0  0  0  0  0  0  0  0
  -22.2407   -8.7589   20.2579 C   0  0  0  0  0  0  0  0  0  0  0  0
  -23.0008   -8.8001   22.5509 C   0  0  0  0  0  0  0  0  0  0  0  0
  -28.9667  -17.1989   29.4980 C   0  0  0  0  0  0  0  0  0  0  0  0
  -23.2498   -5.4647   22.0571 C   0  0  0  0  0  0  0  0  0  0  0  0
  -23.8524   -4.4456   22.7945 C   0  0  0  0  0  0  0  0  0  0  0  0
  -31.3225  -17.7108   29.4103 C   0  0  0  0  0  0  0  0  0  0  0  0
  -22.1535   -4.6731   24.4972 C   0  0  0  0  0  0  0  0  0  0  0  0
  -23.7583  -10.4876   20.9966 C   0  0  0  0  0  0  0  0  0  0  0  0
  -24.1318  -13.0055   20.8285 C   0  0  0  0  0  0  0  0  0  0  0  0
  -27.9230  -26.1479   28.8046 C   0  0  0  0  0  0  0  0  0  0  0  0
  -29.7996  -19.2538   30.4872 C   0  0  0  0  0  0  0  0  0  0  0  0
  -28.1110  -24.7773   28.5431 C   0  0  0  0  0  0  0  0  0  0  0  0
  -31.1046  -18.9088   30.1078 C   0  0  0  0  0  0  0  0  0  0  0  0
  -22.2416   -8.2101   21.5403 C   0  0  0  0  0  0  0  0  0  0  0  0
  -30.2589  -16.8616   29.1058 C   0  0  0  0  0  0  0  0  0  0  0  0
  -22.0991   -6.0881   22.5397 C   0  0  0  0  0  0  0  0  0  0  0  0
  -23.3043   -4.0498   24.0146 C   0  0  0  0  0  0  0  0  0  0  0  0
  -21.5509   -5.6923   23.7597 C   0  0  0  0  0  0  0  0  0  0  0  0
  -24.5422  -11.6635   20.7163 C   0  0  0  0  0  0  0  0  0  0  0  0
  -25.2333  -13.7341   20.4511 C   0  0  0  0  0  0  0  0  0  0  0  0
  -22.8680  -13.5451   21.2373 C   0  0  0  0  0  0  0  0  0  0  0  0
  -30.5361  -22.2482   29.7159 C   0  0  0  0  0  0  0  0  0  0  0  0
  -30.7495  -14.6226   20.7189 C   0  0  0  0  0  0  0  0  0  0  0  0
  -32.9608  -21.7815   31.8196 C   0  0  0  0  0  0  0  0  0  0  0  0
  -35.0148  -19.5844   33.4322 C   0  0  0  0  0  0  0  0  0  0  0  0
  -29.0883  -27.0883   28.9846 C   0  0  0  0  0  0  0  0  0  0  0  0
  -29.5396  -20.5196   31.2570 C   0  0  0  0  0  0  0  0  0  0  0  0
  -32.2819  -19.7944   30.4212 C   0  0  0  0  0  0  0  0  0  0  0  0
  -30.4032  -26.3768   29.2929 C   0  0  0  0  0  0  0  0  0  0  0  0
  -29.5556  -12.2937   18.2713 C   0  0  0  0  0  0  0  0  0  0  0  0
  -30.6070  -25.1980   28.3464 C   0  0  0  0  0  0  0  0  0  0  0  0
  -28.1214  -12.0094   18.7158 C   0  0  0  0  0  0  0  0  0  0  0  0
  -30.4787  -12.5076   19.4668 C   0  0  0  0  0  0  0  0  0  0  0  0
  -28.5849  -13.2928   20.8520 C   0  0  0  0  0  0  0  0  0  0  0  0
  -29.4917  -24.1586   28.5116 C   0  0  1  0  0  0  0  0  0  0  0  0
  -30.6233  -21.5744   31.0561 C   0  0  1  0  0  0  0  0  0  0  0  0
  -27.6131  -13.1010   19.6742 C   0  0  2  0  0  0  0  0  0  0  0  0
  -32.7736  -12.3282   23.6390 C   0  0  0  0  0  0  0  0  0  0  0  0
  -29.3628  -16.6453   20.7883 C   0  0  0  0  0  0  0  0  0  0  0  0
  -36.9219  -19.5031   35.0612 C   0  0  0  0  0  0  0  0  0  0  0  0
  -35.1297  -14.6647   24.1386 C   0  0  0  0  0  0  0  0  0  0  0  0
  -35.2092  -16.7856   25.4644 C   0  0  0  0  0  0  0  0  0  0  0  0
  -34.8757  -22.6751   29.6186 C   0  0  0  0  0  0  0  0  0  0  0  0
  -36.7531  -21.6845   30.9460 C   0  0  0  0  0  0  0  0  0  0  0  0
  -35.4137  -23.5636   31.8936 C   0  0  0  0  0  0  0  0  0  0  0  0
  -33.4351  -18.0146   35.3814 C   0  0  0  0  0  0  0  0  0  0  0  0
  -32.3330  -13.2501   24.7660 C   0  0  0  0  0  0  0  0  0  0  0  0
  -30.0076  -14.4025   26.4438 C   0  0  0  0  0  0  0  0  0  0  0  0
  -30.9471  -15.2393   25.5599 C   0  0  0  0  0  0  0  0  0  0  0  0
  -31.2101  -16.3517   22.4746 C   0  0  0  0  0  0  0  0  0  0  0  0
  -33.2367  -16.3757   23.9624 C   0  0  0  0  0  0  0  0  0  0  0  0
  -29.4343  -15.2163   27.5996 C   0  0  0  0  0  0  0  0  0  1  0  0
  -30.1341  -15.6423   21.6438 C   0  0  2  0  0  0  0  0  0  0  0  0
  -34.3758  -21.2646   31.7225 C   0  0  1  0  0  0  0  0  0  0  0  0
  -35.4111  -19.4621   34.8925 C   0  0  2  0  0  0  0  0  0  0  0  0
  -34.2909  -15.7103   24.8729 C   0  0  0  0  0  0  0  0  0  0  0  0
  -31.4844  -14.4646   24.3221 C   0  0  1  0  0  0  0  0  0  0  0  0
  -32.1668  -15.4501   23.3071 C   0  0  1  0  0  0  0  0  0  0  0  0
  -35.3323  -22.2810   31.0374 C   0  0  0  0  0  0  0  0  0  0  0  0
  -25.8058  -11.5438   20.3001 N   0  0  0  0  0  0  0  0  0  0  0  0
  -26.1988  -12.8199   20.1474 N   0  0  0  0  0  0  0  0  0  0  0  0
  -31.9756  -21.0243   31.1702 N   0  0  0  0  0  0  0  0  0  0  0  0
  -29.9497  -13.5360   20.3645 N   0  0  0  0  0  0  0  0  0  0  0  0
  -25.4604  -15.0611   20.3527 N   0  0  0  0  0  0  0  0  0  0  0  0
  -21.8447  -12.6554   21.5917 N   0  0  0  0  0  0  0  0  0  0  0  0
  -29.7163  -23.3605   29.6978 N   0  0  0  0  0  0  0  0  0  0  0  0
  -34.7689  -20.8940   33.0777 N   0  0  0  0  0  0  0  0  0  0  0  0
  -34.9096  -18.1784   35.4595 N   0  3  0  0  0  0  0  0  0  0  0  0
  -22.6473  -14.7795   21.2711 O   0  0  0  0  0  0  0  0  0  0  0  0
  -31.1670  -21.7936   28.7689 O   0  0  0  0  0  0  0  0  0  0  0  0
  -31.9056  -14.7900   20.3220 O   0  0  0  0  0  0  0  0  0  0  0  0
  -32.7368  -22.8152   32.4545 O   0  0  0  0  0  0  0  0  0  0  0  0
  -34.9352  -18.6155   32.6802 O   0  0  0  0  0  0  0  0  0  0  0  0
  -21.5015   -7.0991   21.8060 O   0  0  0  0  0  0  0  0  0  0  0  0
  -30.4868  -15.6934   28.4253 O   0  0  0  0  0  0  0  0  0  1  0  0
  -23.8822   -3.0701   24.7219 F   0  0  0  0  0  0  0  0  0  0  0  0
  -20.4449   -6.2866   24.2279 F   0  0  0  0  0  0  0  0  0  0  0  0
  1  2  1  0  0  0  0
  1  5  2  0  0  0  0
  2  6  2  0  0  0  0
  3  8  2  0  0  0  0
  3 15  1  0  0  0  0
  4  9  1  0  0  0  0
  4 15  2  0  0  0  0
  5 17  1  0  0  0  0
  6 19  1  0  0  0  0
  7 10  2  0  0  0  0
  7 18  1  0  0  0  0
  8 21  1  0  0  0  0
  9 21  2  0  0  0  0
 10 22  1  0  0  0  0
 11 12  2  0  0  0  0
 11 23  1  0  0  0  0
 12 24  1  0  0  0  0
 13 20  1  0  0  0  0
 13 22  2  0  0  0  0
 14 24  2  0  0  0  0
 14 25  1  0  0  0  0
 15 26  1  0  0  0  0
 16 26  1  0  0  0  0
 16 27  2  0  0  0  0
 16 28  1  0  0  0  0
 17 19  2  0  0  0  0
 17 33  1  0  0  0  0
 18 20  2  0  0  0  0
 18 34  1  0  0  0  0
 19 42  1  0  0  0  0
 20 35  1  0  0  0  0
 21 81  1  0  0  0  0
 22 82  1  0  0  0  0
 23 25  2  0  0  0  0
 23 81  1  0  0  0  0
 24 83  1  0  0  0  0
 25 84  1  0  0  0  0
 26 67  2  0  0  0  0
 27 68  1  0  0  0  0
 27 71  1  0  0  0  0
 28 72  1  0  0  0  0
 28 76  2  0  0  0  0
 29 43  1  0  0  0  0
 29 73  1  0  0  0  0
 29 77  2  0  0  0  0
 30 60  1  0  0  0  0
 30 70  1  0  0  0  0
 30 78  2  0  0  0  0
 31 61  1  0  0  0  0
 31 69  1  0  0  0  0
 31 79  2  0  0  0  0
 32 62  1  0  0  0  0
 32 74  1  0  0  0  0
 32 80  2  0  0  0  0
 33 36  1  0  0  0  0
 34 43  1  0  0  0  0
 35 69  1  0  0  0  0
 36 38  1  0  0  0  0
 37 39  1  0  0  0  0
 37 40  1  0  0  0  0
 38 42  1  0  0  0  0
 39 44  1  0  0  0  0
 40 70  1  0  0  0  0
 41 44  1  0  0  0  0
 41 70  1  0  0  0  0
 42 73  1  0  0  0  0
 43 69  1  0  0  0  0
 44 68  1  0  0  0  0
 45 54  1  0  0  0  0
 46 60  1  0  0  0  0
 47 62  1  0  0  0  0
 48 63  1  0  0  0  0
 49 63  1  0  0  0  0
 50 66  1  0  0  0  0
 51 66  1  0  0  0  0
 52 66  1  0  0  0  0
 53 75  1  0  0  0  0
 54 64  1  0  0  0  0
 55 56  1  0  0  0  0
 55 59  1  0  0  0  0
 56 64  1  0  0  0  0
 57 60  1  0  0  0  0
 57 65  1  0  0  0  0
 58 63  1  0  0  0  0
 58 65  1  0  0  0  0
 59 82  1  0  0  0  0
 61 66  1  0  0  0  0
 61 74  1  0  0  0  0
 62 75  1  0  0  0  0
 64 65  1  0  0  0  0
 67 68  1  0  0  0  0
M  CHG  1  75   1
M  ISO  4  30 100  59 101  60 100  82 101
M  END
> <Batch ID>
0085

> <Smiles>
CCC(CC[101CH2:1][101O:1]c1ccc2c(c1)CN(C(=O)C(NC(=O)C(C)NC)C(C)(C)C)C(C(=O)NC1CCCc3ccccc31)C2)C(CC(C)C)C[100CH:0](C)[100C:0](=O)N1CCCC(n2nc(-c3ccc(Oc4ccc(F)cc4F)cc3)c(C(N)=O)c2N)C1

> <Shape>
0.170

> <Color>
0.151

> <Negative vol penalty>
0.000

$$$$

  -OEChem-04052318563D

 88 96  0     1  0  0  0  0  0999 V2000
  -30.7935  -22.4315   15.0923 C   0  0  0  0  0  0  0  0  0  0  0  0
  -30.3862  -22.2821   16.4141 C   0  0  0  0  0  0  0  0  0  0  0  0
  -23.6620  -11.6038   19.7114 C   0  0  0  0  0  0  0  0  0  0  0  0
  -24.7235  -11.4913   21.8787 C   0  0  0  0  0  0  0  0  0  0  0  0
  -30.9871  -23.7071   14.5637 C   0  0  0  0  0  0  0  0  0  0  0  0
  -30.1734  -23.4082   17.2085 C   0  0  0  0  0  0  0  0  0  0  0  0
  -25.9004  -23.1014   19.9090 C   0  0  0  0  0  0  0  0  0  0  0  0
  -23.5613  -10.2128   19.6884 C   0  0  0  0  0  0  0  0  0  0  0  0
  -24.6228  -10.1003   21.8559 C   0  0  0  0  0  0  0  0  0  0  0  0
  -25.9268  -22.3072   21.0545 C   0  0  0  0  0  0  0  0  0  0  0  0
  -24.3194   -6.5404   22.5293 C   0  0  0  0  0  0  0  0  0  0  0  0
  -23.8755   -5.9024   23.6876 C   0  0  0  0  0  0  0  0  0  0  0  0
  -26.2053  -24.2829   22.4105 C   0  0  0  0  0  0  0  0  0  0  0  0
  -26.9690  -18.0211   25.9753 C   0  0  0  0  0  0  0  0  0  0  0  0
  -28.2118  -19.6046   24.6592 C   0  0  0  0  0  0  0  0  0  0  0  0
  -21.7963   -7.1268   23.5652 C   0  0  0  0  0  0  0  0  0  0  0  0
  -24.2431  -12.2431   20.8065 C   0  0  0  0  0  0  0  0  0  0  0  0
  -23.4049  -14.5926   21.3399 C   0  0  0  0  0  0  0  0  0  0  0  0
  -30.7673  -24.8496   15.3492 C   0  0  0  0  0  0  0  0  0  0  0  0
  -26.0375  -24.4937   20.0048 C   0  0  0  0  0  0  0  0  0  0  0  0
  -30.3656  -24.7002   16.6903 C   0  0  0  0  0  0  0  0  0  0  0  0
  -26.1777  -25.0927   21.2649 C   0  0  0  0  0  0  0  0  0  0  0  0
  -27.1190  -19.3058   25.4652 C   0  0  0  0  0  0  0  0  0  0  0  0
  -24.0417   -9.4610   20.7607 C   0  0  0  0  0  0  0  0  0  0  0  0
  -26.0822  -22.8976   22.3053 C   0  0  0  0  0  0  0  0  0  0  0  0
  -23.5017   -7.4717   21.8890 C   0  0  0  0  0  0  0  0  0  0  0  0
  -22.6140   -6.1956   24.2055 C   0  0  0  0  0  0  0  0  0  0  0  0
  -22.2402   -7.7648   22.4070 C   0  0  0  0  0  0  0  0  0  0  0  0
  -24.3479  -13.6799   20.8305 C   0  0  0  0  0  0  0  0  0  0  0  0
  -27.9319  -17.0785   25.6524 C   0  0  0  0  0  0  0  0  0  0  0  0
  -29.1192  -18.5912   24.3954 C   0  0  0  0  0  0  0  0  0  0  0  0
  -23.9712  -15.8258   21.1275 C   0  0  0  0  0  0  0  0  0  0  0  0
  -22.1310  -14.3477   21.9506 C   0  0  0  0  0  0  0  0  0  0  0  0
  -28.1449  -26.6193   18.9350 C   0  0  0  0  0  0  0  0  0  0  0  0
  -26.0311  -28.7520   20.1620 C   0  0  0  0  0  0  0  0  0  0  0  0
  -23.5184  -29.3916   22.3810 C   0  0  0  0  0  0  0  0  0  0  0  0
  -29.6377  -17.6587   20.5097 C   0  0  0  0  0  0  0  0  0  0  0  0
  -31.0354  -26.2065   14.7478 C   0  0  0  0  0  0  0  0  0  0  0  0
  -25.9801  -25.3388   18.7618 C   0  0  0  0  0  0  0  0  0  0  0  0
  -26.3085  -26.5848   21.4235 C   0  0  0  0  0  0  0  0  0  0  0  0
  -30.4265  -27.3571   15.5450 C   0  0  0  0  0  0  0  0  0  0  0  0
  -26.9765  -18.1100   18.1879 C   0  0  0  0  0  0  0  0  0  0  0  0
  -30.7209  -27.1907   17.0325 C   0  0  0  0  0  0  0  0  0  0  0  0
  -25.9159  -17.1081   18.6478 C   0  0  0  0  0  0  0  0  0  0  0  0
  -28.3894  -17.5607   18.3723 C   0  0  0  0  0  0  0  0  0  0  0  0
  -27.6351  -16.0820   20.1939 C   0  0  0  0  0  0  0  0  0  0  0  0
  -30.1006  -25.8981   17.5764 C   0  0  1  0  0  0  0  0  0  0  0  0
  -26.6446  -26.7012   18.9343 C   0  0  1  0  0  0  0  0  0  0  0  0
  -26.1959  -16.6129   20.0795 C   0  0  2  0  0  0  0  0  0  0  0  0
  -28.9738  -15.2986   27.1015 C   0  0  0  0  0  0  0  0  0  0  0  0
  -27.6489  -14.6451   25.0588 C   0  0  0  0  0  0  0  0  0  0  0  0
  -31.4893  -19.4310   24.3542 C   0  0  0  0  0  0  0  0  0  0  0  0
  -22.0164  -31.2372   23.1778 C   0  0  0  0  0  0  0  0  0  0  0  0
  -28.3525  -29.9609   21.7303 C   0  0  0  0  0  0  0  0  0  0  0  0
  -26.6757  -31.1260   23.1791 C   0  0  0  0  0  0  0  0  0  0  0  0
  -26.7799  -31.6338   20.7391 C   0  0  0  0  0  0  0  0  0  0  0  0
  -24.0759  -19.2029   24.7411 C   0  0  0  0  0  0  0  0  0  0  0  0
  -23.9636  -21.6115   25.3690 C   0  0  0  0  0  0  0  0  0  0  0  0
  -21.0844  -27.9237   21.5565 C   0  0  0  0  0  0  0  0  0  0  0  0
  -26.0979  -20.3727   25.7847 C   0  0  0  0  0  0  0  0  0  0  0  0
  -30.7782  -17.6538   22.7139 C   0  0  0  0  0  0  0  0  0  0  0  0
  -25.3615  -20.9095   23.3933 C   0  0  0  0  0  0  0  0  0  1  0  0
  -27.8026  -15.6890   26.1807 C   0  0  0  0  0  0  0  0  0  0  0  0
  -30.3049  -18.8770   23.5355 C   0  0  1  0  0  0  0  0  0  0  0  0
  -25.8390  -29.4154   21.5044 C   0  0  1  0  0  0  0  0  0  0  0  0
  -22.1734  -30.0744   22.2104 C   0  0  2  0  0  0  0  0  0  0  0  0
  -26.9113  -30.5057   21.7854 C   0  0  0  0  0  0  0  0  0  0  0  0
  -24.8911  -20.5088   24.8099 C   0  0  0  0  0  0  0  0  0  0  0  0
  -25.4309  -14.2819   20.3319 N   0  0  0  0  0  0  0  0  0  0  0  0
  -29.0070  -17.3314   24.8728 N   0  0  0  0  0  0  0  0  0  0  0  0
  -25.1720  -15.5861   20.5269 N   0  0  0  0  0  0  0  0  0  0  0  0
  -26.2528  -27.3677   20.1779 N   0  0  0  0  0  0  0  0  0  0  0  0
  -28.5904  -17.1098   19.7515 N   0  0  0  0  0  0  0  0  0  0  0  0
  -23.5540  -17.0810   21.3978 N   0  0  0  0  0  0  0  0  0  0  0  0
  -21.7016  -13.0210   22.0913 N   0  0  0  0  0  0  0  0  0  0  0  0
  -28.6788  -26.0688   17.7855 N   0  0  0  0  0  0  0  0  0  0  0  0
  -24.4662  -29.9086   21.5233 N   0  0  0  0  0  0  0  0  0  0  0  0
  -29.7542  -17.1808   21.8092 N   0  0  0  0  0  0  0  0  0  0  0  0
  -21.0666  -29.1068   22.4548 N   0  3  0  0  0  0  0  0  0  0  0  0
  -21.3881  -15.2784   22.3446 O   0  0  0  0  0  0  0  0  0  0  0  0
  -28.7718  -27.0267   19.9059 O   0  0  0  0  0  0  0  0  0  0  0  0
  -25.9790  -29.4357   19.1366 O   0  0  0  0  0  0  0  0  0  0  0  0
  -23.7102  -28.4922   23.1965 O   0  0  0  0  0  0  0  0  0  0  0  0
  -30.4083  -18.5155   20.0635 O   0  0  0  0  0  0  0  0  0  0  0  0
  -23.9434   -8.1036   20.7388 O   0  0  0  0  0  0  0  0  0  0  0  0
  -26.1089  -22.1247   23.4250 O   0  0  0  0  0  0  0  0  0  1  0  0
  -22.1873   -5.5817   25.3169 F   0  0  0  0  0  0  0  0  0  0  0  0
  -21.4497   -8.6577   21.7956 F   0  0  0  0  0  0  0  0  0  0  0  0
  1  2  1  0  0  0  0
  1  5  2  0  0  0  0
  2  6  2  0  0  0  0
  3  8  2  0  0  0  0
  3 17  1  0  0  0  0
  4  9  1  0  0  0  0
  4 17  2  0  0  0  0
  5 19  1  0  0  0  0
  6 21  1  0  0  0  0
  7 10  2  0  0  0  0
  7 20  1  0  0  0  0
  8 24  1  0  0  0  0
  9 24  2  0  0  0  0
 10 25  1  0  0  0  0
 11 12  2  0  0  0  0
 11 26  1  0  0  0  0
 12 27  1  0  0  0  0
 13 22  1  0  0  0  0
 13 25  2  0  0  0  0
 14 23  1  0  0  0  0
 14 30  2  0  0  0  0
 15 23  2  0  0  0  0
 15 31  1  0  0  0  0
 16 27  2  0  0  0  0
 16 28  1  0  0  0  0
 17 29  1  0  0  0  0
 18 29  1  0  0  0  0
 18 32  2  0  0  0  0
 18 33  1  0  0  0  0
 19 21  2  0  0  0  0
 19 38  1  0  0  0  0
 20 22  2  0  0  0  0
 20 39  1  0  0  0  0
 21 47  1  0  0  0  0
 22 40  1  0  0  0  0
 23 60  1  0  0  0  0
 24 85  1  0  0  0  0
 25 86  1  0  0  0  0
 26 28  2  0  0  0  0
 26 85  1  0  0  0  0
 27 87  1  0  0  0  0
 28 88  1  0  0  0  0
 29 69  2  0  0  0  0
 30 63  1  0  0  0  0
 30 70  1  0  0  0  0
 31 64  1  0  0  0  0
 31 70  2  0  0  0  0
 32 71  1  0  0  0  0
 32 74  1  0  0  0  0
 33 75  1  0  0  0  0
 33 80  2  0  0  0  0
 34 48  1  0  0  0  0
 34 76  1  0  0  0  0
 34 81  2  0  0  0  0
 35 65  1  0  0  0  0
 35 72  1  0  0  0  0
 35 82  2  0  0  0  0
 36 66  1  0  0  0  0
 36 77  1  0  0  0  0
 36 83  2  0  0  0  0
 37 73  1  0  0  0  0
 37 78  1  0  0  0  0
 37 84  2  0  0  0  0
 38 41  1  0  0  0  0
 39 48  1  0  0  0  0
 40 72  1  0  0  0  0
 41 43  1  0  0  0  0
 42 44  1  0  0  0  0
 42 45  1  0  0  0  0
 43 47  1  0  0  0  0
 44 49  1  0  0  0  0
 45 73  1  0  0  0  0
 46 49  1  0  0  0  0
 46 73  1  0  0  0  0
 47 76  1  0  0  0  0
 48 72  1  0  0  0  0
 49 71  1  0  0  0  0
 50 63  1  0  0  0  0
 51 63  1  0  0  0  0
 52 64  1  0  0  0  0
 53 66  1  0  0  0  0
 54 67  1  0  0  0  0
 55 67  1  0  0  0  0
 56 67  1  0  0  0  0
 57 68  1  0  0  0  0
 58 68  1  0  0  0  0
 59 79  1  0  0  0  0
 60 68  1  0  0  0  0
 61 64  1  0  0  0  0
 61 78  1  0  0  0  0
 62 68  1  0  0  0  0
 62 86  1  0  0  0  0
 65 67  1  0  0  0  0
 65 77  1  0  0  0  0
 66 79  1  0  0  0  0
 69 71  1  0  0  0  0
M  CHG  1  79   1
M  ISO  4  37 100  62 101  78 100  86 101
M  END
> <Batch ID>
0085

> <Smiles>
CNC(C)C(=O)NC(C(=O)N1Cc2cc([101O:1][101CH2:1]C(C)(C)Cc3cc(C(C)C)nc(C(C)C[100NH:0][100C:0](=O)N4CCCC(n5nc(-c6ccc(Oc7ccc(F)cc7F)cc6)c(C(N)=O)c5N)C4)c3)ccc2CC1C(=O)NC1CCCc2ccccc21)C(C)(C)C

> <Shape>
0.241

> <Color>
0.080

> <Negative vol penalty>
0.000

$$$$

  -OEChem-04052318563D

 84 92  0     1  0  0  0  0  0999 V2000
  -30.5309  -23.7188   14.3199 C   0  0  0  0  0  0  0  0  0  0  0  0
  -29.9924  -23.3215   15.5396 C   0  0  0  0  0  0  0  0  0  0  0  0
  -23.7973   -8.9878   20.0493 C   0  0  0  0  0  0  0  0  0  0  0  0
  -23.2898   -9.6079   22.3286 C   0  0  0  0  0  0  0  0  0  0  0  0
  -30.9300  -25.0415   14.1332 C   0  0  0  0  0  0  0  0  0  0  0  0
  -29.8538  -24.2466   16.5737 C   0  0  0  0  0  0  0  0  0  0  0  0
  -25.3537  -23.9289   18.8745 C   0  0  0  0  0  0  0  0  0  0  0  0
  -23.8229   -7.6436   20.4207 C   0  0  0  0  0  0  0  0  0  0  0  0
  -23.3154   -8.2636   22.7000 C   0  0  0  0  0  0  0  0  0  0  0  0
  -25.1780  -22.8912   19.7889 C   0  0  0  0  0  0  0  0  0  0  0  0
  -22.8910   -4.9685   24.1766 C   0  0  0  0  0  0  0  0  0  0  0  0
  -21.8670   -4.5032   25.0014 C   0  0  0  0  0  0  0  0  0  0  0  0
  -25.5822  -24.4293   21.6028 C   0  0  0  0  0  0  0  0  0  0  0  0
  -28.7900  -21.8751   22.1758 C   0  0  0  0  0  0  0  0  0  0  0  0
  -20.2383   -5.1185   23.3263 C   0  0  0  0  0  0  0  0  0  0  0  0
  -23.5308   -9.9700   21.0033 C   0  0  0  0  0  0  0  0  0  0  0  0
  -22.3925  -12.0964   20.1723 C   0  0  0  0  0  0  0  0  0  0  0  0
  -30.7873  -25.9855   15.1623 C   0  0  0  0  0  0  0  0  0  0  0  0
  -25.6563  -25.2245   19.3176 C   0  0  0  0  0  0  0  0  0  0  0  0
  -30.2527  -25.5829   16.4010 C   0  0  0  0  0  0  0  0  0  0  0  0
  -25.7588  -25.4822   20.6921 C   0  0  0  0  0  0  0  0  0  0  0  0
  -29.9499  -21.9177   21.4103 C   0  0  0  0  0  0  0  0  0  0  0  0
  -28.3748  -20.6703   22.7321 C   0  0  0  0  0  0  0  0  0  0  0  0
  -23.5820   -7.2814   21.7460 C   0  0  0  0  0  0  0  0  0  0  0  0
  -25.2951  -23.1407   21.1532 C   0  0  0  0  0  0  0  0  0  0  0  0
  -22.5888   -5.5089   22.9267 C   0  0  0  0  0  0  0  0  0  0  0  0
  -20.5406   -4.5781   24.5763 C   0  0  0  0  0  0  0  0  0  0  0  0
  -21.2624   -5.5839   22.5016 C   0  0  0  0  0  0  0  0  0  0  0  0
  -23.5047  -11.3588   20.6204 C   0  0  0  0  0  0  0  0  0  0  0  0
  -30.6532  -20.7373   21.2322 C   0  0  0  0  0  0  0  0  0  0  0  0
  -29.1485  -19.5457   22.4947 C   0  0  0  0  0  0  0  0  0  0  0  0
  -22.8870  -13.3566   19.9405 C   0  0  0  0  0  0  0  0  0  0  0  0
  -21.0338  -11.6796   19.9827 C   0  0  0  0  0  0  0  0  0  0  0  0
  -28.1016  -27.2164   18.9224 C   0  0  0  0  0  0  0  0  0  0  0  0
  -26.1735  -29.2804   20.5176 C   0  0  0  0  0  0  0  0  0  0  0  0
  -23.5748  -29.7324   22.6831 C   0  0  0  0  0  0  0  0  0  0  0  0
  -27.4892  -16.2591   22.2318 C   0  0  0  0  0  0  0  0  0  0  0  0
  -31.2768  -27.3930   14.9293 C   0  0  0  0  0  0  0  0  0  0  0  0
  -25.8165  -26.3384   18.3197 C   0  0  0  0  0  0  0  0  0  0  0  0
  -26.0621  -26.8597   21.2202 C   0  0  0  0  0  0  0  0  0  0  0  0
  -30.7496  -28.3980   15.9503 C   0  0  0  0  0  0  0  0  0  0  0  0
  -26.9153  -15.6316   18.7141 C   0  0  0  0  0  0  0  0  0  0  0  0
  -30.8877  -27.8442   17.3649 C   0  0  0  0  0  0  0  0  0  0  0  0
  -25.8603  -14.5253   18.7707 C   0  0  0  0  0  0  0  0  0  0  0  0
  -27.9435  -15.4726   19.8302 C   0  0  0  0  0  0  0  0  0  0  0  0
  -26.3066  -14.3101   21.2595 C   0  0  0  0  0  0  0  0  0  0  0  0
  -30.0634  -26.5628   17.5386 C   0  0  1  0  0  0  0  0  0  0  0  0
  -26.6297  -27.5112   18.8588 C   0  0  1  0  0  0  0  0  0  0  0  0
  -25.2250  -14.4279   20.1703 C   0  0  2  0  0  0  0  0  0  0  0  0
  -30.4002  -23.2053   20.8117 C   0  0  0  0  0  0  0  0  0  0  0  0
  -31.9058  -20.7220   20.4186 C   0  0  0  0  0  0  0  0  0  0  0  0
  -29.8115  -17.6443   24.0135 C   0  0  0  0  0  0  0  0  0  0  0  0
  -22.2529  -31.5339   23.8253 C   0  0  0  0  0  0  0  0  0  0  0  0
  -28.4805  -29.7374   22.4615 C   0  0  0  0  0  0  0  0  0  0  0  0
  -26.8424  -30.7561   24.0573 C   0  0  0  0  0  0  0  0  0  0  0  0
  -27.2257  -31.8056   21.8270 C   0  0  0  0  0  0  0  0  0  0  0  0
  -21.0577  -28.8670   21.3891 C   0  0  0  0  0  0  0  0  0  0  0  0
  -27.1177  -20.6171   23.5631 C   0  0  0  0  0  0  0  0  0  0  0  0
  -25.9208  -20.0062   22.8311 C   0  0  0  0  0  0  0  0  0  0  0  0
  -25.4778  -20.8155   21.6178 C   0  0  0  0  0  0  0  0  0  1  0  0
  -28.7508  -18.2251   23.0686 C   0  0  2  0  0  0  0  0  0  0  0  0
  -25.9484  -29.6284   21.9693 C   0  0  1  0  0  0  0  0  0  0  0  0
  -22.3471  -30.6224   22.6116 C   0  0  2  0  0  0  0  0  0  0  0  0
  -27.1204  -30.4554   22.5690 C   0  0  0  0  0  0  0  0  0  0  0  0
  -24.6216  -12.0896   20.6708 N   0  0  0  0  0  0  0  0  0  0  0  0
  -30.2811  -19.5481   21.7566 N   0  0  0  0  0  0  0  0  0  0  0  0
  -24.2137  -13.2994   20.2514 N   0  0  0  0  0  0  0  0  0  0  0  0
  -26.2164  -27.9144   20.2046 N   0  0  0  0  0  0  0  0  0  0  0  0
  -27.2750  -15.4049   21.1374 N   0  0  0  0  0  0  0  0  0  0  0  0
  -22.3120  -14.4970   19.5030 N   0  0  0  0  0  0  0  0  0  0  0  0
  -20.6968  -10.3496   20.2687 N   0  0  0  0  0  0  0  0  0  0  0  0
  -28.6616  -26.8822   17.7042 N   0  0  0  0  0  0  0  0  0  0  0  0
  -24.6525  -30.2954   22.0329 N   0  0  0  0  0  0  0  0  0  0  0  0
  -28.4272  -17.2655   22.0364 N   0  0  0  0  0  0  0  0  0  0  0  0
  -21.1098  -29.7942   22.5486 N   0  3  0  0  0  0  0  0  0  0  0  0
  -20.1484  -12.4591   19.5562 O   0  0  0  0  0  0  0  0  0  0  0  0
  -28.6864  -27.2884   19.9970 O   0  0  0  0  0  0  0  0  0  0  0  0
  -26.2992  -30.1871   19.6908 O   0  0  0  0  0  0  0  0  0  0  0  0
  -23.5784  -28.6479   23.2614 O   0  0  0  0  0  0  0  0  0  0  0  0
  -26.8851  -16.1373   23.3030 O   0  0  0  0  0  0  0  0  0  0  0  0
  -23.6067   -5.9698   22.1087 O   0  0  0  0  0  0  0  0  0  0  0  0
  -25.1247  -22.1296   22.0478 O   0  0  0  0  0  0  0  0  0  1  0  0
  -19.5574   -4.1298   25.3677 F   0  0  0  0  0  0  0  0  0  0  0  0
  -20.9659   -6.1010   21.3013 F   0  0  0  0  0  0  0  0  0  0  0  0
  1  2  1  0  0  0  0
  1  5  2  0  0  0  0
  2  6  2  0  0  0  0
  3  8  2  0  0  0  0
  3 16  1  0  0  0  0
  4  9  1  0  0  0  0
  4 16  2  0  0  0  0
  5 18  1  0  0  0  0
  6 20  1  0  0  0  0
  7 10  2  0  0  0  0
  7 19  1  0  0  0  0
  8 24  1  0  0  0  0
  9 24  2  0  0  0  0
 10 25  1  0  0  0  0
 11 12  2  0  0  0  0
 11 26  1  0  0  0  0
 12 27  1  0  0  0  0
 13 21  1  0  0  0  0
 13 25  2  0  0  0  0
 14 22  2  0  0  0  0
 14 23  1  0  0  0  0
 15 27  2  0  0  0  0
 15 28  1  0  0  0  0
 16 29  1  0  0  0  0
 17 29  1  0  0  0  0
 17 32  2  0  0  0  0
 17 33  1  0  0  0  0
 18 20  2  0  0  0  0
 18 38  1  0  0  0  0
 19 21  2  0  0  0  0
 19 39  1  0  0  0  0
 20 47  1  0  0  0  0
 21 40  1  0  0  0  0
 22 30  1  0  0  0  0
 22 50  1  0  0  0  0
 23 31  2  0  0  0  0
 23 58  1  0  0  0  0
 24 81  1  0  0  0  0
 25 82  1  0  0  0  0
 26 28  2  0  0  0  0
 26 81  1  0  0  0  0
 27 83  1  0  0  0  0
 28 84  1  0  0  0  0
 29 65  2  0  0  0  0
 30 51  1  0  0  0  0
 30 66  2  0  0  0  0
 31 61  1  0  0  0  0
 31 66  1  0  0  0  0
 32 67  1  0  0  0  0
 32 70  1  0  0  0  0
 33 71  1  0  0  0  0
 33 76  2  0  0  0  0
 34 48  1  0  0  0  0
 34 72  1  0  0  0  0
 34 77  2  0  0  0  0
 35 62  1  0  0  0  0
 35 68  1  0  0  0  0
 35 78  2  0  0  0  0
 36 63  1  0  0  0  0
 36 73  1  0  0  0  0
 36 79  2  0  0  0  0
 37 69  1  0  0  0  0
 37 74  1  0  0  0  0
 37 80  2  0  0  0  0
 38 41  1  0  0  0  0
 39 48  1  0  0  0  0
 40 68  1  0  0  0  0
 41 43  1  0  0  0  0
 42 44  1  0  0  0  0
 42 45  1  0  0  0  0
 43 47  1  0  0  0  0
 44 49  1  0  0  0  0
 45 69  1  0  0  0  0
 46 49  1  0  0  0  0
 46 69  1  0  0  0  0
 47 72  1  0  0  0  0
 48 68  1  0  0  0  0
 49 67  1  0  0  0  0
 52 61  1  0  0  0  0
 53 63  1  0  0  0  0
 54 64  1  0  0  0  0
 55 64  1  0  0  0  0
 56 64  1  0  0  0  0
 57 75  1  0  0  0  0
 58 59  1  0  0  0  0
 59 60  1  0  0  0  0
 60 82  1  0  0  0  0
 61 74  1  0  0  0  0
 62 64  1  0  0  0  0
 62 73  1  0  0  0  0
 63 75  1  0  0  0  0
 65 67  1  0  0  0  0
M  CHG  1  75   1
M  ISO  4  37 100  60 101  74 100  82 101
M  END
> <Batch ID>
0085

> <Smiles>
CNC(C)C(=O)NC(C(=O)N1Cc2cc([101O:1][101CH2:1]CCc3cc(C)c(C)nc3C(C)[100NH:0][100C:0](=O)N3CCCC(n4nc(-c5ccc(Oc6ccc(F)cc6F)cc5)c(C(N)=O)c4N)C3)ccc2CC1C(=O)NC1CCCc2ccccc21)C(C)(C)C

> <Shape>
0.233

> <Color>
0.087

> <Negative vol penalty>
0.000

$$$$

  -OEChem-04052318563D

 81 88  0     1  0  0  0  0  0999 V2000
  -18.2487  -27.4072   23.4268 C   0  0  0  0  0  0  0  0  0  0  0  0
  -18.8417  -26.1537   23.3144 C   0  0  0  0  0  0  0  0  0  0  0  0
  -24.5005  -14.6245   23.7664 C   0  0  0  0  0  0  0  0  0  0  0  0
  -23.9963  -16.0461   21.8791 C   0  0  0  0  0  0  0  0  0  0  0  0
  -18.7877  -28.4959   22.7424 C   0  0  0  0  0  0  0  0  0  0  0  0
  -19.9733  -25.9880   22.5168 C   0  0  0  0  0  0  0  0  0  0  0  0
  -26.0219  -22.1691   22.1321 C   0  0  0  0  0  0  0  0  0  0  0  0
  -24.0362  -15.6125   24.6347 C   0  0  0  0  0  0  0  0  0  0  0  0
  -23.5319  -17.0341   22.7474 C   0  0  0  0  0  0  0  0  0  0  0  0
  -26.7306  -21.3606   21.2445 C   0  0  0  0  0  0  0  0  0  0  0  0
  -20.7347  -17.6607   24.5373 C   0  0  0  0  0  0  0  0  0  0  0  0
  -19.5330  -18.2914   24.2155 C   0  0  0  0  0  0  0  0  0  0  0  0
  -27.6208  -23.3293   20.1716 C   0  0  0  0  0  0  0  0  0  0  0  0
  -20.6738  -20.4193   24.1259 C   0  0  0  0  0  0  0  0  0  0  0  0
  -24.4806  -14.8413   22.3886 C   0  0  0  0  0  0  0  0  0  0  0  0
  -24.2122  -12.7815   20.9078 C   0  0  0  0  0  0  0  0  0  0  0  0
  -19.9322  -28.3454   21.9437 C   0  0  0  0  0  0  0  0  0  0  0  0
  -26.0988  -23.5662   22.0390 C   0  0  0  0  0  0  0  0  0  0  0  0
  -20.5273  -27.0754   21.8200 C   0  0  0  0  0  0  0  0  0  0  0  0
  -26.9141  -24.1532   21.0608 C   0  0  0  0  0  0  0  0  0  0  0  0
  -23.5519  -16.8173   24.1252 C   0  0  0  0  0  0  0  0  0  0  0  0
  -27.5279  -21.9407   20.2622 C   0  0  0  0  0  0  0  0  0  0  0  0
  -21.9060  -18.4093   24.6534 C   0  0  0  0  0  0  0  0  0  0  0  0
  -19.5025  -19.6707   24.0098 C   0  0  0  0  0  0  0  0  0  0  0  0
  -21.8755  -19.7885   24.4477 C   0  0  0  0  0  0  0  0  0  0  0  0
  -24.9606  -13.8213   21.4912 C   0  0  0  0  0  0  0  0  0  0  0  0
  -25.1211  -12.0911   20.1438 C   0  0  0  0  0  0  0  0  0  0  0  0
  -22.8198  -12.4679   21.0441 C   0  0  0  0  0  0  0  0  0  0  0  0
  -24.0112  -25.8949   21.4710 C   0  0  0  0  0  0  0  0  0  0  0  0
  -26.5466  -27.8025   22.1456 C   0  0  0  0  0  0  0  0  0  0  0  0
  -29.9360  -28.1692   22.3008 C   0  0  0  0  0  0  0  0  0  0  0  0
  -30.2958  -13.6464   17.5642 C   0  0  0  0  0  0  0  0  0  0  0  0
  -20.4506  -29.5416   21.1854 C   0  0  0  0  0  0  0  0  0  0  0  0
  -25.3492  -24.4241   23.0210 C   0  0  0  0  0  0  0  0  0  0  0  0
  -27.0467  -25.6480   20.9317 C   0  0  0  0  0  0  0  0  0  0  0  0
  -21.8718  -29.3597   20.6587 C   0  0  0  0  0  0  0  0  0  0  0  0
  -29.7798  -11.0252   19.9179 C   0  0  0  0  0  0  0  0  0  0  0  0
  -22.0222  -27.9984   19.9873 C   0  0  0  0  0  0  0  0  0  0  0  0
  -28.4187  -11.3508   20.5354 C   0  0  0  0  0  0  0  0  0  0  0  0
  -30.5805  -12.2904   19.6177 C   0  0  0  0  0  0  0  0  0  0  0  0
  -28.5127  -13.6155   19.4125 C   0  0  0  0  0  0  0  0  0  0  0  0
  -21.7704  -26.8607   20.9842 C   0  0  1  0  0  0  0  0  0  0  0  0
  -25.0970  -25.8386   22.5080 C   0  0  1  0  0  0  0  0  0  0  0  0
  -27.6457  -12.3736   19.6812 C   0  0  2  0  0  0  0  0  0  0  0  0
  -31.7119  -29.8547   22.8512 C   0  0  0  0  0  0  0  0  0  0  0  0
  -26.0526  -29.1917   19.4742 C   0  0  0  0  0  0  0  0  0  0  0  0
  -28.3504  -30.1721   19.6385 C   0  0  0  0  0  0  0  0  0  0  0  0
  -26.6323  -30.7302   21.3587 C   0  0  0  0  0  0  0  0  0  0  0  0
  -31.7764  -18.7903   16.1122 C   0  0  0  0  0  0  0  0  0  0  0  0
  -31.2764  -17.7122   18.3253 C   0  0  0  0  0  0  0  0  0  0  0  0
  -31.0038  -26.4987   24.4981 C   0  0  0  0  0  0  0  0  0  0  0  0
  -28.7787  -17.9937   15.5183 C   0  0  0  0  0  0  0  0  0  0  0  0
  -30.3844  -20.5078   18.5779 C   0  0  0  0  0  0  0  0  0  0  0  0
  -29.7828  -19.5755   17.5218 C   0  0  0  0  0  0  0  0  0  0  0  0
  -29.8607  -15.0432   15.5596 C   0  0  0  0  0  0  0  0  0  0  0  0
  -30.6365  -16.3425   15.6700 C   0  0  0  0  0  0  0  0  0  0  0  0
  -29.4497  -21.6715   18.8874 C   0  0  0  0  0  0  0  0  0  1  0  0
  -27.6629  -28.4216   21.3397 C   0  0  1  0  0  0  0  0  0  0  0  0
  -30.8401  -28.7284   23.3845 C   0  0  2  0  0  0  0  0  0  0  0  0
  -27.1708  -29.6007   20.4537 C   0  0  0  0  0  0  0  0  0  0  0  0
  -30.6701  -18.3880   17.0897 C   0  0  0  0  0  0  0  0  0  0  0  0
  -26.2461  -13.7974   21.1291 N   0  0  0  0  0  0  0  0  0  0  0  0
  -26.3124  -12.7341   20.3099 N   0  0  0  0  0  0  0  0  0  0  0  0
  -26.2892  -26.4443   21.9113 N   0  0  0  0  0  0  0  0  0  0  0  0
  -29.7915  -13.2178   18.8032 N   0  0  0  0  0  0  0  0  0  0  0  0
  -25.0095  -11.0028   19.3530 N   0  0  0  0  0  0  0  0  0  0  0  0
  -22.0295  -13.2805   21.8683 N   0  0  0  0  0  0  0  0  0  0  0  0
  -22.9257  -26.6689   21.8345 N   0  0  0  0  0  0  0  0  0  0  0  0
  -28.7029  -28.7862   22.2957 N   0  0  0  0  0  0  0  0  0  0  0  0
  -29.4820  -14.5198   16.8531 N   0  0  0  0  0  0  0  0  0  0  0  0
  -31.7293  -27.6591   23.9201 N   0  3  0  0  0  0  0  0  0  0  0  0
  -29.8154  -17.3641   16.4068 N   0  3  1  0  0  0  0  0  0  0  0  0
  -22.2956  -11.4860   20.4656 O   0  0  0  0  0  0  0  0  0  0  0  0
  -24.1487  -25.2827   20.4184 O   0  0  0  0  0  0  0  0  0  0  0  0
  -25.9306  -28.4964   22.9583 O   0  0  0  0  0  0  0  0  0  0  0  0
  -30.2897  -27.2771   21.5330 O   0  0  0  0  0  0  0  0  0  0  0  0
  -31.3879  -13.2739   17.1220 O   0  0  0  0  0  0  0  0  0  0  0  0
  -23.0985  -17.7815   24.9721 O   0  0  0  0  0  0  0  0  0  0  0  0
  -28.2202  -21.1539   19.3941 O   0  0  0  0  0  0  0  0  0  1  0  0
  -18.3486  -20.2760   23.6993 F   0  0  0  0  0  0  0  0  0  0  0  0
  -22.9978  -20.5128   24.5567 F   0  0  0  0  0  0  0  0  0  0  0  0
  1  2  1  0  0  0  0
  1  5  2  0  0  0  0
  2  6  2  0  0  0  0
  3  8  2  0  0  0  0
  3 15  1  0  0  0  0
  4  9  1  0  0  0  0
  4 15  2  0  0  0  0
  5 17  1  0  0  0  0
  6 19  1  0  0  0  0
  7 10  2  0  0  0  0
  7 18  1  0  0  0  0
  8 21  1  0  0  0  0
  9 21  2  0  0  0  0
 10 22  1  0  0  0  0
 11 12  2  0  0  0  0
 11 23  1  0  0  0  0
 12 24  1  0  0  0  0
 13 20  1  0  0  0  0
 13 22  2  0  0  0  0
 14 24  2  0  0  0  0
 14 25  1  0  0  0  0
 15 26  1  0  0  0  0
 16 26  1  0  0  0  0
 16 27  2  0  0  0  0
 16 28  1  0  0  0  0
 17 19  2  0  0  0  0
 17 33  1  0  0  0  0
 18 20  2  0  0  0  0
 18 34  1  0  0  0  0
 19 42  1  0  0  0  0
 20 35  1  0  0  0  0
 21 78  1  0  0  0  0
 22 79  1  0  0  0  0
 23 25  2  0  0  0  0
 23 78  1  0  0  0  0
 24 80  1  0  0  0  0
 25 81  1  0  0  0  0
 26 62  2  0  0  0  0
 27 63  1  0  0  0  0
 27 66  1  0  0  0  0
 28 67  1  0  0  0  0
 28 73  2  0  0  0  0
 29 43  1  0  0  0  0
 29 68  1  0  0  0  0
 29 74  2  0  0  0  0
 30 58  1  0  0  0  0
 30 64  1  0  0  0  0
 30 75  2  0  0  0  0
 31 59  1  0  0  0  0
 31 69  1  0  0  0  0
 31 76  2  0  0  0  0
 32 65  1  0  0  0  0
 32 70  1  0  0  0  0
 32 77  2  0  0  0  0
 33 36  1  0  0  0  0
 34 43  1  0  0  0  0
 35 64  1  0  0  0  0
 36 38  1  0  0  0  0
 37 39  1  0  0  0  0
 37 40  1  0  0  0  0
 38 42  1  0  0  0  0
 39 44  1  0  0  0  0
 40 65  1  0  0  0  0
 41 44  1  0  0  0  0
 41 65  1  0  0  0  0
 42 68  1  0  0  0  0
 43 64  1  0  0  0  0
 44 63  1  0  0  0  0
 45 59  1  0  0  0  0
 46 60  1  0  0  0  0
 47 60  1  0  0  0  0
 48 60  1  0  0  0  0
 49 61  1  0  0  0  0
 50 61  1  0  0  0  0
 51 71  1  0  0  0  0
 52 72  1  0  0  0  0
 53 54  1  0  0  0  0
 53 57  1  0  0  0  0
 54 61  1  0  0  0  0
 55 56  1  0  0  0  0
 55 70  1  0  0  0  0
 56 72  1  0  0  0  0
 57 79  1  0  0  0  0
 58 60  1  0  0  0  0
 58 69  1  0  0  0  0
 59 71  1  0  0  0  0
 61 72  1  0  0  0  0
 62 63  1  0  0  0  0
M  CHG  2  71   1  72   1
M  ISO  4  32 100  57 101  70 100  79 101
M  END
> <Batch ID>
0085

> <Smiles>
CNC(C)C(=O)NC(C(=O)N1Cc2cc([101O:1][101CH2:1]CCC(C)(C)N(C)CC[100NH:0][100C:0](=O)N3CCCC(n4nc(-c5ccc(Oc6ccc(F)cc6F)cc5)c(C(N)=O)c4N)C3)ccc2CC1C(=O)NC1CCCc2ccccc21)C(C)(C)C

> <Shape>
0.191

> <Color>
0.067

> <Negative vol penalty>
0.000

$$$$

  -OEChem-04052318563D

 84 92  0     1  0  0  0  0  0999 V2000
  -27.9319  -23.6765   17.7813 C   0  0  0  0  0  0  0  0  0  0  0  0
  -26.7501  -23.9858   18.4470 C   0  0  0  0  0  0  0  0  0  0  0  0
  -26.6849  -17.8188   18.2203 C   0  0  0  0  0  0  0  0  0  0  0  0
  -26.6318  -18.7162   20.4629 C   0  0  0  0  0  0  0  0  0  0  0  0
  -29.1387  -24.2237   18.2150 C   0  0  0  0  0  0  0  0  0  0  0  0
  -26.7747  -24.8416   19.5477 C   0  0  0  0  0  0  0  0  0  0  0  0
  -23.0679  -28.2892   19.4109 C   0  0  0  0  0  0  0  0  0  0  0  0
  -27.9416  -18.3903   18.0214 C   0  0  0  0  0  0  0  0  0  0  0  0
  -27.8886  -19.2877   20.2639 C   0  0  0  0  0  0  0  0  0  0  0  0
  -21.7910  -27.8661   19.7774 C   0  0  0  0  0  0  0  0  0  0  0  0
  -31.1124  -18.2741   20.2657 C   0  0  0  0  0  0  0  0  0  0  0  0
  -32.0547  -18.1346   21.2846 C   0  0  0  0  0  0  0  0  0  0  0  0
  -22.1055  -28.8323   21.9653 C   0  0  0  0  0  0  0  0  0  0  0  0
  -21.6894  -24.8587   23.0518 C   0  0  0  0  0  0  0  0  0  0  0  0
  -32.1843  -20.5381   21.4936 C   0  0  0  0  0  0  0  0  0  0  0  0
  -26.0299  -17.9818   19.4411 C   0  0  0  0  0  0  0  0  0  0  0  0
  -24.4512  -16.1092   20.1541 C   0  0  0  0  0  0  0  0  0  0  0  0
  -29.1767  -25.0943   19.3156 C   0  0  0  0  0  0  0  0  0  0  0  0
  -23.8787  -28.9786   20.3239 C   0  0  0  0  0  0  0  0  0  0  0  0
  -27.9833  -25.3999   19.9974 C   0  0  0  0  0  0  0  0  0  0  0  0
  -23.3913  -29.2652   21.6070 C   0  0  0  0  0  0  0  0  0  0  0  0
  -22.7078  -23.9200   22.9295 C   0  0  0  0  0  0  0  0  0  0  0  0
  -20.3627  -24.4529   22.9592 C   0  0  0  0  0  0  0  0  0  0  0  0
  -28.5435  -19.1247   19.0431 C   0  0  0  0  0  0  0  0  0  0  0  0
  -21.3107  -28.1351   21.0557 C   0  0  0  0  0  0  0  0  0  0  0  0
  -30.7061  -19.5455   19.8606 C   0  0  0  0  0  0  0  0  0  0  0  0
  -32.5907  -19.2666   21.8986 C   0  0  0  0  0  0  0  0  0  0  0  0
  -31.2421  -20.6775   20.4746 C   0  0  0  0  0  0  0  0  0  0  0  0
  -24.7315  -17.3922   19.6470 C   0  0  0  0  0  0  0  0  0  0  0  0
  -22.3497  -22.5985   22.7170 C   0  0  0  0  0  0  0  0  0  0  0  0
  -20.1096  -23.1076   22.7452 C   0  0  0  0  0  0  0  0  0  0  0  0
  -23.0798  -16.0318   20.1535 C   0  0  0  0  0  0  0  0  0  0  0  0
  -25.3500  -15.0794   20.5869 C   0  0  0  0  0  0  0  0  0  0  0  0
  -26.6940  -28.4207   21.6901 C   0  0  0  0  0  0  0  0  0  0  0  0
  -26.2957  -31.4291   22.8361 C   0  0  0  0  0  0  0  0  0  0  0  0
  -24.1545  -33.9551   23.6614 C   0  0  0  0  0  0  0  0  0  0  0  0
  -18.7622  -20.1736   20.3871 C   0  0  0  0  0  0  0  0  0  0  0  0
  -30.5115  -25.6238   19.7766 C   0  0  0  0  0  0  0  0  0  0  0  0
  -25.2435  -29.4516   19.9043 C   0  0  0  0  0  0  0  0  0  0  0  0
  -24.2144  -30.0198   22.6177 C   0  0  0  0  0  0  0  0  0  0  0  0
  -30.3999  -26.8180   20.7208 C   0  0  0  0  0  0  0  0  0  0  0  0
  -19.2355  -17.7149   17.8558 C   0  0  0  0  0  0  0  0  0  0  0  0
  -29.3537  -26.5508   21.7982 C   0  0  0  0  0  0  0  0  0  0  0  0
  -20.6724  -17.2376   18.0736 C   0  0  0  0  0  0  0  0  0  0  0  0
  -19.0901  -19.2104   18.1285 C   0  0  0  0  0  0  0  0  0  0  0  0
  -21.0150  -19.1721   19.6671 C   0  0  0  0  0  0  0  0  0  0  0  0
  -27.9657  -26.3438   21.1801 C   0  0  1  0  0  0  0  0  0  0  0  0
  -26.1800  -29.6957   21.0836 C   0  0  1  0  0  0  0  0  0  0  0  0
  -21.1995  -17.6593   19.4584 C   0  0  2  0  0  0  0  0  0  0  0  0
  -24.1312  -24.3483   23.0279 C   0  0  0  0  0  0  0  0  0  0  0  0
  -23.4007  -21.5464   22.5767 C   0  0  0  0  0  0  0  0  0  0  0  0
  -24.1210  -36.2784   24.6095 C   0  0  0  0  0  0  0  0  0  0  0  0
  -26.7702  -30.2938   25.6283 C   0  0  0  0  0  0  0  0  0  0  0  0
  -25.8030  -32.4008   26.5734 C   0  0  0  0  0  0  0  0  0  0  0  0
  -27.8793  -32.4929   25.1939 C   0  0  0  0  0  0  0  0  0  0  0  0
  -22.9547  -35.0689   21.1958 C   0  0  0  0  0  0  0  0  0  0  0  0
  -19.2535  -25.4658   23.0907 C   0  0  0  0  0  0  0  0  0  0  0  0
  -18.7034  -22.6151   22.6387 C   0  0  0  0  0  0  0  0  0  0  0  0
  -18.6071  -25.8480   21.7574 C   0  0  0  0  0  0  0  0  0  0  0  0
  -18.5845  -21.0881   22.6874 C   0  0  0  0  0  0  0  0  0  0  0  0
  -19.5684  -26.5374   20.7961 C   0  0  0  0  0  0  0  0  0  1  0  0
  -25.6632  -32.0285   24.0689 C   0  0  1  0  0  0  0  0  0  0  0  0
  -24.1769  -35.4391   23.3424 C   0  0  2  0  0  0  0  0  0  0  0  0
  -26.5139  -31.7880   25.3479 C   0  0  0  0  0  0  0  0  0  0  0  0
  -23.6270  -18.0804   19.3461 N   0  0  0  0  0  0  0  0  0  0  0  0
  -21.0723  -22.1665   22.6213 N   0  0  0  0  0  0  0  0  0  0  0  0
  -22.6393  -17.2266   19.6648 N   0  0  0  0  0  0  0  0  0  0  0  0
  -25.5447  -30.4557   22.1619 N   0  0  0  0  0  0  0  0  0  0  0  0
  -19.6068  -19.5439   19.4581 N   0  0  0  0  0  0  0  0  0  0  0  0
  -22.2199  -15.0591   20.5232 N   0  0  0  0  0  0  0  0  0  0  0  0
  -26.7283  -15.3244   20.5207 N   0  0  0  0  0  0  0  0  0  0  0  0
  -27.3848  -27.6151   20.8050 N   0  0  0  0  0  0  0  0  0  0  0  0
  -25.4276  -33.4355   23.7637 N   0  0  0  0  0  0  0  0  0  0  0  0
  -19.3291  -20.4488   21.6255 N   0  0  0  0  0  0  0  0  0  0  0  0
  -23.0124  -35.8025   22.4863 N   0  3  0  0  0  0  0  0  0  0  0  0
  -24.9432  -13.9686   21.0043 O   0  0  0  0  0  0  0  0  0  0  0  0
  -26.4811  -28.1859   22.8738 O   0  0  0  0  0  0  0  0  0  0  0  0
  -27.4118  -31.8155   22.4803 O   0  0  0  0  0  0  0  0  0  0  0  0
  -23.1120  -33.3211   23.8089 O   0  0  0  0  0  0  0  0  0  0  0  0
  -17.5881  -20.4640   20.1336 O   0  0  0  0  0  0  0  0  0  0  0  0
  -29.7700  -19.6823   18.8494 O   0  0  0  0  0  0  0  0  0  0  0  0
  -20.0650  -27.7227   21.4163 O   0  0  0  0  0  0  0  0  0  1  0  0
  -33.4944  -19.1325   22.8781 F   0  0  0  0  0  0  0  0  0  0  0  0
  -30.8547  -21.9016   20.0906 F   0  0  0  0  0  0  0  0  0  0  0  0
  1  2  1  0  0  0  0
  1  5  2  0  0  0  0
  2  6  2  0  0  0  0
  3  8  2  0  0  0  0
  3 16  1  0  0  0  0
  4  9  1  0  0  0  0
  4 16  2  0  0  0  0
  5 18  1  0  0  0  0
  6 20  1  0  0  0  0
  7 10  2  0  0  0  0
  7 19  1  0  0  0  0
  8 24  1  0  0  0  0
  9 24  2  0  0  0  0
 10 25  1  0  0  0  0
 11 12  2  0  0  0  0
 11 26  1  0  0  0  0
 12 27  1  0  0  0  0
 13 21  1  0  0  0  0
 13 25  2  0  0  0  0
 14 22  2  0  0  0  0
 14 23  1  0  0  0  0
 15 27  2  0  0  0  0
 15 28  1  0  0  0  0
 16 29  1  0  0  0  0
 17 29  1  0  0  0  0
 17 32  2  0  0  0  0
 17 33  1  0  0  0  0
 18 20  2  0  0  0  0
 18 38  1  0  0  0  0
 19 21  2  0  0  0  0
 19 39  1  0  0  0  0
 20 47  1  0  0  0  0
 21 40  1  0  0  0  0
 22 30  1  0  0  0  0
 22 50  1  0  0  0  0
 23 31  2  0  0  0  0
 23 57  1  0  0  0  0
 24 81  1  0  0  0  0
 25 82  1  0  0  0  0
 26 28  2  0  0  0  0
 26 81  1  0  0  0  0
 27 83  1  0  0  0  0
 28 84  1  0  0  0  0
 29 65  2  0  0  0  0
 30 51  1  0  0  0  0
 30 66  2  0  0  0  0
 31 58  1  0  0  0  0
 31 66  1  0  0  0  0
 32 67  1  0  0  0  0
 32 70  1  0  0  0  0
 33 71  1  0  0  0  0
 33 76  2  0  0  0  0
 34 48  1  0  0  0  0
 34 72  1  0  0  0  0
 34 77  2  0  0  0  0
 35 62  1  0  0  0  0
 35 68  1  0  0  0  0
 35 78  2  0  0  0  0
 36 63  1  0  0  0  0
 36 73  1  0  0  0  0
 36 79  2  0  0  0  0
 37 69  1  0  0  0  0
 37 74  1  0  0  0  0
 37 80  2  0  0  0  0
 38 41  1  0  0  0  0
 39 48  1  0  0  0  0
 40 68  1  0  0  0  0
 41 43  1  0  0  0  0
 42 44  1  0  0  0  0
 42 45  1  0  0  0  0
 43 47  1  0  0  0  0
 44 49  1  0  0  0  0
 45 69  1  0  0  0  0
 46 49  1  0  0  0  0
 46 69  1  0  0  0  0
 47 72  1  0  0  0  0
 48 68  1  0  0  0  0
 49 67  1  0  0  0  0
 52 63  1  0  0  0  0
 53 64  1  0  0  0  0
 54 64  1  0  0  0  0
 55 64  1  0  0  0  0
 56 75  1  0  0  0  0
 57 59  1  0  0  0  0
 58 60  1  0  0  0  0
 59 61  1  0  0  0  0
 60 74  1  0  0  0  0
 61 82  1  0  0  0  0
 62 64  1  0  0  0  0
 62 73  1  0  0  0  0
 63 75  1  0  0  0  0
 65 67  1  0  0  0  0
M  CHG  1  75   1
M  ISO  4  37 100  61 101  74 100  82 101
M  END
> <Batch ID>
0085

> <Smiles>
CNC(C)C(=O)NC(C(=O)N1Cc2cc([101O:1][101CH2:1]CCc3cc(C)c(C)nc3CC[100NH:0][100C:0](=O)N3CCCC(n4nc(-c5ccc(Oc6ccc(F)cc6F)cc5)c(C(N)=O)c4N)C3)ccc2CC1C(=O)NC1CCCc2ccccc21)C(C)(C)C

> <Shape>
0.243

> <Color>
0.070

> <Negative vol penalty>
0.000

$$$$

  -OEChem-04052318563D

 88 96  0     1  0  0  0  0  0999 V2000
  -29.7520  -29.3801   15.4689 C   0  0  0  0  0  0  0  0  0  0  0  0
  -29.4559  -28.0377   15.6827 C   0  0  0  0  0  0  0  0  0  0  0  0
  -30.4928  -19.6276   19.8778 C   0  0  0  0  0  0  0  0  0  0  0  0
  -28.1696  -19.7133   20.5354 C   0  0  0  0  0  0  0  0  0  0  0  0
  -29.5434  -30.3096   16.4870 C   0  0  0  0  0  0  0  0  0  0  0  0
  -28.9520  -27.6238   16.9153 C   0  0  0  0  0  0  0  0  0  0  0  0
  -24.5175  -22.7910   19.7953 C   0  0  0  0  0  0  0  0  0  0  0  0
  -30.4169  -20.9490   19.4375 C   0  0  0  0  0  0  0  0  0  0  0  0
  -28.0937  -21.0347   20.0952 C   0  0  0  0  0  0  0  0  0  0  0  0
  -24.4882  -21.8134   20.7890 C   0  0  0  0  0  0  0  0  0  0  0  0
  -30.4537  -24.0383   20.8114 C   0  0  0  0  0  0  0  0  0  0  0  0
  -31.4921  -24.9000   21.1647 C   0  0  0  0  0  0  0  0  0  0  0  0
  -24.0939  -23.5199   22.4478 C   0  0  0  0  0  0  0  0  0  0  0  0
  -24.2405  -14.0952   23.0854 C   0  0  0  0  0  0  0  0  0  0  0  0
  -31.9726  -25.2793   18.8275 C   0  0  0  0  0  0  0  0  0  0  0  0
  -23.0608  -15.7509   21.8511 C   0  0  0  0  0  0  0  0  0  0  0  0
  -29.3691  -19.0097   20.4267 C   0  0  0  0  0  0  0  0  0  0  0  0
  -29.7946  -17.1960   22.1694 C   0  0  0  0  0  0  0  0  0  0  0  0
  -29.0277  -29.9083   17.7295 C   0  0  0  0  0  0  0  0  0  0  0  0
  -24.3457  -24.1437   20.1224 C   0  0  0  0  0  0  0  0  0  0  0  0
  -28.7376  -28.5485   17.9514 C   0  0  0  0  0  0  0  0  0  0  0  0
  -24.1188  -24.5124   21.4561 C   0  0  0  0  0  0  0  0  0  0  0  0
  -23.9129  -15.4332   22.8965 C   0  0  0  0  0  0  0  0  0  0  0  0
  -23.7135  -13.1294   22.2351 C   0  0  0  0  0  0  0  0  0  0  0  0
  -29.2174  -21.6525   19.5462 C   0  0  0  0  0  0  0  0  0  0  0  0
  -24.2793  -22.1781   22.1158 C   0  0  0  0  0  0  0  0  0  0  0  0
  -30.1748  -23.7971   19.4661 C   0  0  0  0  0  0  0  0  0  0  0  0
  -32.2515  -25.5205   20.1728 C   0  0  0  0  0  0  0  0  0  0  0  0
  -30.9342  -24.4176   18.4742 C   0  0  0  0  0  0  0  0  0  0  0  0
  -29.4467  -17.6446   20.8812 C   0  0  0  0  0  0  0  0  0  0  0  0
  -22.8702  -13.5503   21.2195 C   0  0  0  0  0  0  0  0  0  0  0  0
  -29.7202  -15.8269   22.0879 C   0  0  0  0  0  0  0  0  0  0  0  0
  -30.1529  -17.9494   23.3354 C   0  0  0  0  0  0  0  0  0  0  0  0
  -26.1369  -26.7575   19.8701 C   0  0  0  0  0  0  0  0  0  0  0  0
  -23.4376  -28.2343   20.8974 C   0  0  0  0  0  0  0  0  0  0  0  0
  -20.4731  -28.0136   22.5735 C   0  0  0  0  0  0  0  0  0  0  0  0
  -26.5947  -11.6636   19.5555 C   0  0  0  0  0  0  0  0  0  0  0  0
  -28.8636  -30.9420   18.8154 C   0  0  0  0  0  0  0  0  0  0  0  0
  -24.3532  -25.1834   19.0354 C   0  0  0  0  0  0  0  0  0  0  0  0
  -23.9086  -25.9490   21.8569 C   0  0  0  0  0  0  0  0  0  0  0  0
  -27.9742  -30.4799   19.9668 C   0  0  0  0  0  0  0  0  0  0  0  0
  -29.8425  -12.5447   18.3927 C   0  0  0  0  0  0  0  0  0  0  0  0
  -28.3596  -29.0712   20.4070 C   0  0  0  0  0  0  0  0  0  0  0  0
  -30.1039  -13.9079   19.0356 C   0  0  0  0  0  0  0  0  0  0  0  0
  -28.3779  -12.3809   17.9927 C   0  0  0  0  0  0  0  0  0  0  0  0
  -27.6699  -13.9903   19.7196 C   0  0  0  0  0  0  0  0  0  0  0  0
  -28.1662  -28.0645   19.2665 C   0  0  1  0  0  0  0  0  0  0  0  0
  -24.6796  -26.5824   19.5489 C   0  0  1  0  0  0  0  0  0  0  0  0
  -29.1219  -14.1806   20.1908 C   0  0  2  0  0  0  0  0  0  0  0  0
  -22.2739  -12.5570   20.2763 C   0  0  0  0  0  0  0  0  0  0  0  0
  -18.5016  -29.3964   23.2795 C   0  0  0  0  0  0  0  0  0  0  0  0
  -26.6501  -17.7339   25.6018 C   0  0  0  0  0  0  0  0  0  0  0  0
  -22.8508  -10.7370   22.7130 C   0  0  0  0  0  0  0  0  0  0  0  0
  -25.0004  -11.5230   23.6707 C   0  0  0  0  0  0  0  0  0  0  0  0
  -25.1218  -29.5057   23.1012 C   0  0  0  0  0  0  0  0  0  0  0  0
  -22.9983  -30.0789   24.2972 C   0  0  0  0  0  0  0  0  0  0  0  0
  -23.4570  -31.0426   22.0425 C   0  0  0  0  0  0  0  0  0  0  0  0
  -18.5927  -26.3339   21.0237 C   0  0  0  0  0  0  0  0  0  0  0  0
  -24.4668  -16.5052   23.8017 C   0  0  0  0  0  0  0  0  0  0  0  0
  -25.7988  -17.1000   23.3240 C   0  0  0  0  0  0  0  0  0  0  0  0
  -25.4657  -19.5060   24.2319 C   0  0  0  0  0  0  0  0  0  0  0  0
  -24.8301  -11.0854   21.2021 C   0  0  0  0  0  0  0  0  0  0  0  0
  -25.0419  -20.0574   22.8754 C   0  0  0  0  0  0  0  0  0  1  0  0
  -22.8628  -28.5936   22.2462 C   0  0  1  0  0  0  0  0  0  0  0  0
  -19.0740  -28.4780   22.2110 C   0  0  2  0  0  0  0  0  0  0  0  0
  -26.3574  -18.2506   24.1881 C   0  0  1  0  0  0  0  0  0  0  0  0
  -24.0619  -11.6943   22.4307 C   0  0  0  0  0  0  0  0  0  0  0  0
  -23.6158  -29.7782   22.9148 C   0  0  0  0  0  0  0  0  0  0  0  0
  -22.5291  -14.8407   21.0047 N   0  0  0  0  0  0  0  0  0  0  0  0
  -29.1719  -16.6419   20.0427 N   0  0  0  0  0  0  0  0  0  0  0  0
  -29.3471  -15.5495   20.8057 N   0  0  0  0  0  0  0  0  0  0  0  0
  -23.9311  -26.9292   20.7587 N   0  0  0  0  0  0  0  0  0  0  0  0
  -27.4994  -12.6517   19.1332 N   0  0  0  0  0  0  0  0  0  0  0  0
  -29.9383  -14.8453   22.9886 N   0  0  0  0  0  0  0  0  0  0  0  0
  -30.1797  -19.3478   23.2452 N   0  0  0  0  0  0  0  0  0  0  0  0
  -26.7656  -27.7316   19.1183 N   0  0  0  0  0  0  0  0  0  0  0  0
  -21.4399  -28.8345   22.0325 N   0  0  0  0  0  0  0  0  0  0  0  0
  -25.8037  -11.9994   20.6475 N   0  0  0  0  0  0  0  0  0  0  0  0
  -18.1630  -27.3084   22.0594 N   0  3  0  0  0  0  0  0  0  0  0  0
  -30.4567  -17.3983   24.4205 O   0  0  0  0  0  0  0  0  0  0  0  0
  -26.6525  -26.0613   20.7369 O   0  0  0  0  0  0  0  0  0  0  0  0
  -23.4420  -29.0781   19.9976 O   0  0  0  0  0  0  0  0  0  0  0  0
  -20.6868  -27.0239   23.2701 O   0  0  0  0  0  0  0  0  0  0  0  0
  -26.5028  -10.5617   19.0039 O   0  0  0  0  0  0  0  0  0  0  0  0
  -29.1430  -22.9420   19.1170 O   0  0  0  0  0  0  0  0  0  0  0  0
  -24.2510  -21.2260   23.0877 O   0  0  0  0  0  0  0  0  0  1  0  0
  -33.2477  -26.3491   20.5122 F   0  0  0  0  0  0  0  0  0  0  0  0
  -30.6701  -24.1907   17.1801 F   0  0  0  0  0  0  0  0  0  0  0  0
  1  2  1  0  0  0  0
  1  5  2  0  0  0  0
  2  6  2  0  0  0  0
  3  8  2  0  0  0  0
  3 17  1  0  0  0  0
  4  9  1  0  0  0  0
  4 17  2  0  0  0  0
  5 19  1  0  0  0  0
  6 21  1  0  0  0  0
  7 10  2  0  0  0  0
  7 20  1  0  0  0  0
  8 25  1  0  0  0  0
  9 25  2  0  0  0  0
 10 26  1  0  0  0  0
 11 12  2  0  0  0  0
 11 27  1  0  0  0  0
 12 28  1  0  0  0  0
 13 22  1  0  0  0  0
 13 26  2  0  0  0  0
 14 23  2  0  0  0  0
 14 24  1  0  0  0  0
 15 28  2  0  0  0  0
 15 29  1  0  0  0  0
 16 23  1  0  0  0  0
 16 69  2  0  0  0  0
 17 30  1  0  0  0  0
 18 30  1  0  0  0  0
 18 32  2  0  0  0  0
 18 33  1  0  0  0  0
 19 21  2  0  0  0  0
 19 38  1  0  0  0  0
 20 22  2  0  0  0  0
 20 39  1  0  0  0  0
 21 47  1  0  0  0  0
 22 40  1  0  0  0  0
 23 59  1  0  0  0  0
 24 31  2  0  0  0  0
 24 67  1  0  0  0  0
 25 85  1  0  0  0  0
 26 86  1  0  0  0  0
 27 29  2  0  0  0  0
 27 85  1  0  0  0  0
 28 87  1  0  0  0  0
 29 88  1  0  0  0  0
 30 70  2  0  0  0  0
 31 50  1  0  0  0  0
 31 69  1  0  0  0  0
 32 71  1  0  0  0  0
 32 74  1  0  0  0  0
 33 75  1  0  0  0  0
 33 80  2  0  0  0  0
 34 48  1  0  0  0  0
 34 76  1  0  0  0  0
 34 81  2  0  0  0  0
 35 64  1  0  0  0  0
 35 72  1  0  0  0  0
 35 82  2  0  0  0  0
 36 65  1  0  0  0  0
 36 77  1  0  0  0  0
 36 83  2  0  0  0  0
 37 73  1  0  0  0  0
 37 78  1  0  0  0  0
 37 84  2  0  0  0  0
 38 41  1  0  0  0  0
 39 48  1  0  0  0  0
 40 72  1  0  0  0  0
 41 43  1  0  0  0  0
 42 44  1  0  0  0  0
 42 45  1  0  0  0  0
 43 47  1  0  0  0  0
 44 49  1  0  0  0  0
 45 73  1  0  0  0  0
 46 49  1  0  0  0  0
 46 73  1  0  0  0  0
 47 76  1  0  0  0  0
 48 72  1  0  0  0  0
 49 71  1  0  0  0  0
 51 65  1  0  0  0  0
 52 66  1  0  0  0  0
 53 67  1  0  0  0  0
 54 67  1  0  0  0  0
 55 68  1  0  0  0  0
 56 68  1  0  0  0  0
 57 68  1  0  0  0  0
 58 79  1  0  0  0  0
 59 60  1  0  0  0  0
 60 66  1  0  0  0  0
 61 63  1  0  0  0  0
 61 66  1  0  0  0  0
 62 67  1  0  0  0  0
 62 78  1  0  0  0  0
 63 86  1  0  0  0  0
 64 68  1  0  0  0  0
 64 77  1  0  0  0  0
 65 79  1  0  0  0  0
 70 71  1  0  0  0  0
M  CHG  1  79   1
M  ISO  4  37 100  63 101  78 100  86 101
M  END
> <Batch ID>
0085

> <Smiles>
CNC(C)C(=O)NC(C(=O)N1Cc2cc([101O:1][101CH2:1]CC(C)CCc3cnc(C)c(C(C)(C)C[100NH:0][100C:0](=O)N4CCCC(n5nc(-c6ccc(Oc7ccc(F)cc7F)cc6)c(C(N)=O)c5N)C4)c3)ccc2CC1C(=O)NC1CCCc2ccccc21)C(C)(C)C

> <Shape>
0.277

> <Color>
0.056

> <Negative vol penalty>
0.000

$$$$

  -OEChem-04052318563D

 88 96  0     1  0  0  0  0  0999 V2000
  -16.5920  -29.6333   23.9373 C   0  0  0  0  0  0  0  0  0  0  0  0
  -16.9842  -28.2996   23.8828 C   0  0  0  0  0  0  0  0  0  0  0  0
  -24.1169  -13.2189   21.4569 C   0  0  0  0  0  0  0  0  0  0  0  0
  -26.1978  -13.3927   20.2418 C   0  0  0  0  0  0  0  0  0  0  0  0
  -17.4290  -30.6262   23.4298 C   0  0  0  0  0  0  0  0  0  0  0  0
  -18.2133  -27.9580   23.3197 C   0  0  0  0  0  0  0  0  0  0  0  0
  -23.5116  -23.1793   23.9588 C   0  0  0  0  0  0  0  0  0  0  0  0
  -24.0298  -11.8695   21.1149 C   0  0  0  0  0  0  0  0  0  0  0  0
  -26.1108  -12.0432   19.8998 C   0  0  0  0  0  0  0  0  0  0  0  0
  -24.2468  -22.2771   23.1911 C   0  0  0  0  0  0  0  0  0  0  0  0
  -25.3909   -8.9479   22.1370 C   0  0  0  0  0  0  0  0  0  0  0  0
  -25.0406   -8.0458   23.1415 C   0  0  0  0  0  0  0  0  0  0  0  0
  -25.6451  -24.0842   22.4176 C   0  0  0  0  0  0  0  0  0  0  0  0
  -23.0944   -7.3864   21.8709 C   0  0  0  0  0  0  0  0  0  0  0  0
  -30.7237  -23.3948   20.4721 C   0  0  0  0  0  0  0  0  0  0  0  0
  -25.2009  -13.9806   21.0203 C   0  0  0  0  0  0  0  0  0  0  0  0
  -25.9099  -15.9255   22.5111 C   0  0  0  0  0  0  0  0  0  0  0  0
  -18.6732  -30.2974   22.8690 C   0  0  0  0  0  0  0  0  0  0  0  0
  -23.8314  -24.5446   23.9532 C   0  0  0  0  0  0  0  0  0  0  0  0
  -19.0672  -28.9473   22.8030 C   0  0  0  0  0  0  0  0  0  0  0  0
  -24.9141  -25.0012   23.1881 C   0  0  0  0  0  0  0  0  0  0  0  0
  -25.0268  -11.2816   20.3363 C   0  0  0  0  0  0  0  0  0  0  0  0
  -25.3119  -22.7300   22.4181 C   0  0  0  0  0  0  0  0  0  0  0  0
  -24.5928   -9.0693   20.9994 C   0  0  0  0  0  0  0  0  0  0  0  0
  -23.8924   -7.2650   23.0085 C   0  0  0  0  0  0  0  0  0  0  0  0
  -23.4446   -8.2886   20.8663 C   0  0  0  0  0  0  0  0  0  0  0  0
  -25.2910  -15.3747   21.3729 C   0  0  0  0  0  0  0  0  0  0  0  0
  -30.6626  -24.1603   19.2922 C   0  0  0  0  0  0  0  0  0  0  0  0
  -30.0204  -22.2525   20.1771 C   0  0  0  0  0  0  0  0  0  0  0  0
  -25.7225  -17.2800   22.3822 C   0  0  0  0  0  0  0  0  0  0  0  0
  -26.5931  -15.2712   23.5885 C   0  0  0  0  0  0  0  0  0  0  0  0
  -22.3102  -27.2012   23.0975 C   0  0  0  0  0  0  0  0  0  0  0  0
  -24.9282  -28.6422   24.3594 C   0  0  0  0  0  0  0  0  0  0  0  0
  -28.2273  -28.4288   25.2062 C   0  0  0  0  0  0  0  0  0  0  0  0
  -24.8123  -20.8388   17.6538 C   0  0  0  0  0  0  0  0  0  0  0  0
  -19.5230  -31.4010   22.2904 C   0  0  0  0  0  0  0  0  0  0  0  0
  -23.0453  -25.5009   24.8077 C   0  0  0  0  0  0  0  0  0  0  0  0
  -25.3108  -26.4540   23.1632 C   0  0  0  0  0  0  0  0  0  0  0  0
  -20.9734  -30.9902   22.0496 C   0  0  0  0  0  0  0  0  0  0  0  0
  -22.7044  -20.4803   20.5007 C   0  0  0  0  0  0  0  0  0  0  0  0
  -21.0357  -29.6340   21.3542 C   0  0  0  0  0  0  0  0  0  0  0  0
  -23.1841  -19.1809   21.1498 C   0  0  0  0  0  0  0  0  0  0  0  0
  -22.7633  -20.4051   18.9766 C   0  0  0  0  0  0  0  0  0  0  0  0
  -24.5543  -18.7151   19.0751 C   0  0  0  0  0  0  0  0  0  0  0  0
  -20.4038  -28.5393   22.2224 C   0  0  1  0  0  0  0  0  0  0  0  0
  -23.1364  -26.9457   24.3263 C   0  0  1  0  0  0  0  0  0  0  0  0
  -24.5661  -18.7626   20.6126 C   0  0  2  0  0  0  0  0  0  0  0  0
  -30.1016  -29.7810   26.1838 C   0  0  0  0  0  0  0  0  0  0  0  0
  -32.8094  -25.4766   19.2274 C   0  0  0  0  0  0  0  0  0  0  0  0
  -30.6917  -26.5644   20.0447 C   0  0  0  0  0  0  0  0  0  0  0  0
  -31.0152  -26.1011   17.6235 C   0  0  0  0  0  0  0  0  0  0  0  0
  -30.2558  -19.6896   20.4343 C   0  0  0  0  0  0  0  0  0  0  0  0
  -30.3880  -21.1805   22.4103 C   0  0  0  0  0  0  0  0  0  0  0  0
  -25.2245  -30.1377   21.7164 C   0  0  0  0  0  0  0  0  0  0  0  0
  -27.5676  -30.7132   22.3849 C   0  0  0  0  0  0  0  0  0  0  0  0
  -25.6467  -31.5257   23.7534 C   0  0  0  0  0  0  0  0  0  0  0  0
  -28.5365  -26.5668   27.4857 C   0  0  0  0  0  0  0  0  0  0  0  0
  -27.8369  -22.1160   17.1398 C   0  0  0  0  0  0  0  0  0  0  0  0
  -28.1743  -20.8545   21.2604 C   0  0  0  0  0  0  0  0  0  0  0  0
  -28.8160  -21.4564   18.1204 C   0  0  0  0  0  0  0  0  0  0  0  0
  -26.9300  -21.1387   16.3950 C   0  0  0  0  0  0  0  0  0  0  0  0
  -27.4053  -22.1622   21.4427 C   0  0  0  0  0  0  0  0  0  1  0  0
  -26.2713  -29.0768   23.8247 C   0  0  1  0  0  0  0  0  0  0  0  0
  -28.9682  -28.8098   26.4752 C   0  0  2  0  0  0  0  0  0  0  0  0
  -31.2521  -25.4883   19.0527 C   0  0  0  0  0  0  0  0  0  0  0  0
  -29.7078  -21.0090   21.0291 C   0  0  0  0  0  0  0  0  0  0  0  0
  -26.1691  -30.3362   22.9186 C   0  0  0  0  0  0  0  0  0  0  0  0
  -24.7508  -16.3035   20.5795 N   0  0  0  0  0  0  0  0  0  0  0  0
  -29.9749  -23.5553   18.3201 N   0  0  0  0  0  0  0  0  0  0  0  0
  -29.5975  -22.3975   18.8885 N   0  0  0  0  0  0  0  0  0  0  0  0
  -25.0295  -17.4515   21.2201 N   0  0  0  0  0  0  0  0  0  0  0  0
  -24.5077  -27.3509   24.0106 N   0  0  0  0  0  0  0  0  0  0  0  0
  -24.1006  -20.0051   18.5322 N   0  0  0  0  0  0  0  0  0  0  0  0
  -26.0845  -18.3291   23.1508 N   0  0  0  0  0  0  0  0  0  0  0  0
  -26.6949  -13.8735   23.5643 N   0  0  0  0  0  0  0  0  0  0  0  0
  -21.3133  -28.1415   23.2754 N   0  0  0  0  0  0  0  0  0  0  0  0
  -27.1381  -29.2451   24.9861 N   0  0  0  0  0  0  0  0  0  0  0  0
  -26.0746  -20.3884   17.2873 N   0  0  0  0  0  0  0  0  0  0  0  0
  -29.5433  -27.5972   27.1231 N   0  3  0  0  0  0  0  0  0  0  0  0
  -27.0841  -15.9058   24.5526 O   0  0  0  0  0  0  0  0  0  0  0  0
  -22.5597  -26.5916   22.0642 O   0  0  0  0  0  0  0  0  0  0  0  0
  -24.2793  -29.4170   25.0666 O   0  0  0  0  0  0  0  0  0  0  0  0
  -28.5817  -27.5022   24.4806 O   0  0  0  0  0  0  0  0  0  0  0  0
  -24.3587  -21.9080   17.2320 O   0  0  0  0  0  0  0  0  0  0  0  0
  -24.9423   -9.9648   20.0026 O   0  0  0  0  0  0  0  0  0  0  0  0
  -26.0307  -21.8516   21.6673 O   0  0  0  0  0  0  0  0  0  1  0  0
  -23.5570   -6.3977   23.9726 F   0  0  0  0  0  0  0  0  0  0  0  0
  -22.6747   -8.3999   19.7752 F   0  0  0  0  0  0  0  0  0  0  0  0
  1  2  1  0  0  0  0
  1  5  2  0  0  0  0
  2  6  2  0  0  0  0
  3  8  2  0  0  0  0
  3 16  1  0  0  0  0
  4  9  1  0  0  0  0
  4 16  2  0  0  0  0
  5 18  1  0  0  0  0
  6 20  1  0  0  0  0
  7 10  2  0  0  0  0
  7 19  1  0  0  0  0
  8 22  1  0  0  0  0
  9 22  2  0  0  0  0
 10 23  1  0  0  0  0
 11 12  2  0  0  0  0
 11 24  1  0  0  0  0
 12 25  1  0  0  0  0
 13 21  1  0  0  0  0
 13 23  2  0  0  0  0
 14 25  2  0  0  0  0
 14 26  1  0  0  0  0
 15 28  1  0  0  0  0
 15 29  2  0  0  0  0
 16 27  1  0  0  0  0
 17 27  1  0  0  0  0
 17 30  2  0  0  0  0
 17 31  1  0  0  0  0
 18 20  2  0  0  0  0
 18 36  1  0  0  0  0
 19 21  2  0  0  0  0
 19 37  1  0  0  0  0
 20 45  1  0  0  0  0
 21 38  1  0  0  0  0
 22 85  1  0  0  0  0
 23 86  1  0  0  0  0
 24 26  2  0  0  0  0
 24 85  1  0  0  0  0
 25 87  1  0  0  0  0
 26 88  1  0  0  0  0
 27 68  2  0  0  0  0
 28 65  1  0  0  0  0
 28 69  2  0  0  0  0
 29 66  1  0  0  0  0
 29 70  1  0  0  0  0
 30 71  1  0  0  0  0
 30 74  1  0  0  0  0
 31 75  1  0  0  0  0
 31 80  2  0  0  0  0
 32 46  1  0  0  0  0
 32 76  1  0  0  0  0
 32 81  2  0  0  0  0
 33 63  1  0  0  0  0
 33 72  1  0  0  0  0
 33 82  2  0  0  0  0
 34 64  1  0  0  0  0
 34 77  1  0  0  0  0
 34 83  2  0  0  0  0
 35 73  1  0  0  0  0
 35 78  1  0  0  0  0
 35 84  2  0  0  0  0
 36 39  1  0  0  0  0
 37 46  1  0  0  0  0
 38 72  1  0  0  0  0
 39 41  1  0  0  0  0
 40 42  1  0  0  0  0
 40 43  1  0  0  0  0
 41 45  1  0  0  0  0
 42 47  1  0  0  0  0
 43 73  1  0  0  0  0
 44 47  1  0  0  0  0
 44 73  1  0  0  0  0
 45 76  1  0  0  0  0
 46 72  1  0  0  0  0
 47 71  1  0  0  0  0
 48 64  1  0  0  0  0
 49 65  1  0  0  0  0
 50 65  1  0  0  0  0
 51 65  1  0  0  0  0
 52 66  1  0  0  0  0
 53 66  1  0  0  0  0
 54 67  1  0  0  0  0
 55 67  1  0  0  0  0
 56 67  1  0  0  0  0
 57 79  1  0  0  0  0
 58 60  1  0  0  0  0
 58 61  1  0  0  0  0
 59 62  1  0  0  0  0
 59 66  1  0  0  0  0
 60 70  1  0  0  0  0
 61 78  1  0  0  0  0
 62 86  1  0  0  0  0
 63 67  1  0  0  0  0
 63 77  1  0  0  0  0
 64 79  1  0  0  0  0
 68 71  1  0  0  0  0
 69 70  1  0  0  0  0
M  CHG  1  79   1
M  ISO  4  35 100  62 101  78 100  86 101
M  END
> <Batch ID>
0085

> <Smiles>
CNC(C)C(=O)NC(C(=O)N1Cc2cc([101O:1][101CH2:1]CC(C)(C)c3cc(C(C)(C)C)nn3CCC[100NH:0][100C:0](=O)N3CCCC(n4nc(-c5ccc(Oc6ccc(F)cc6F)cc5)c(C(N)=O)c4N)C3)ccc2CC1C(=O)NC1CCCc2ccccc21)C(C)(C)C

> <Shape>
0.227

> <Color>
0.047

> <Negative vol penalty>
0.000

$$$$

  -OEChem-04052318563D

 80 88  0     1  0  0  0  0  0999 V2000
  -19.3079  -28.5412   23.8048 C   0  0  0  0  0  0  0  0  0  0  0  0
  -19.7877  -27.2354   23.8097 C   0  0  0  0  0  0  0  0  0  0  0  0
  -27.5795  -23.3930   20.3969 C   0  0  0  0  0  0  0  0  0  0  0  0
  -29.2837  -23.4688   18.6860 C   0  0  0  0  0  0  0  0  0  0  0  0
  -18.5445  -28.9981   22.7313 C   0  0  0  0  0  0  0  0  0  0  0  0
  -19.5034  -26.3853   22.7415 C   0  0  0  0  0  0  0  0  0  0  0  0
  -23.1394  -22.0315   20.4328 C   0  0  0  0  0  0  0  0  0  0  0  0
  -27.6660  -24.7773   20.5444 C   0  0  0  0  0  0  0  0  0  0  0  0
  -29.3701  -24.8531   18.8335 C   0  0  0  0  0  0  0  0  0  0  0  0
  -23.1864  -20.6510   20.6220 C   0  0  0  0  0  0  0  0  0  0  0  0
  -26.5532  -27.5292   18.9252 C   0  0  0  0  0  0  0  0  0  0  0  0
  -25.3607  -28.2488   19.0004 C   0  0  0  0  0  0  0  0  0  0  0  0
  -21.8559  -20.3393   18.6341 C   0  0  0  0  0  0  0  0  0  0  0  0
  -25.9856  -29.0556   21.1903 C   0  0  0  0  0  0  0  0  0  0  0  0
  -26.2691  -15.1105   22.6024 C   0  0  0  0  0  0  0  0  0  0  0  0
  -27.0590  -14.4485   20.5060 C   0  0  0  0  0  0  0  0  0  0  0  0
  -28.3884  -22.7387   19.4678 C   0  0  0  0  0  0  0  0  0  0  0  0
  -27.3549  -14.8880   21.7803 C   0  0  0  0  0  0  0  0  0  0  0  0
  -27.4552  -20.5974   18.4422 C   0  0  0  0  0  0  0  0  0  0  0  0
  -18.2589  -28.1562   21.6449 C   0  0  0  0  0  0  0  0  0  0  0  0
  -22.4399  -22.5777   19.3470 C   0  0  0  0  0  0  0  0  0  0  0  0
  -18.7344  -26.8310   21.6531 C   0  0  0  0  0  0  0  0  0  0  0  0
  -21.8037  -21.7269   18.4319 C   0  0  0  0  0  0  0  0  0  0  0  0
  -28.5613  -25.5074   19.7627 C   0  0  0  0  0  0  0  0  0  0  0  0
  -22.5422  -19.8048   19.7242 C   0  0  0  0  0  0  0  0  0  0  0  0
  -27.4619  -27.5727   19.9826 C   0  0  0  0  0  0  0  0  0  0  0  0
  -25.0769  -29.0120   20.1329 C   0  0  0  0  0  0  0  0  0  0  0  0
  -27.1781  -28.3359   21.1151 C   0  0  0  0  0  0  0  0  0  0  0  0
  -28.3000  -21.3086   19.3154 C   0  0  0  0  0  0  0  0  0  0  0  0
  -27.7514  -19.2771   18.6776 C   0  0  0  0  0  0  0  0  0  0  0  0
  -24.8309  -14.4917   20.9544 C   0  0  0  0  0  0  0  0  0  0  0  0
  -28.7352  -15.1051   22.2325 C   0  0  0  0  0  0  0  0  0  0  0  0
  -26.4893  -21.0865   17.5024 C   0  0  0  0  0  0  0  0  0  0  0  0
  -19.9433  -24.5203   19.0354 C   0  0  0  0  0  0  0  0  0  0  0  0
  -20.7089  -24.3640   15.8871 C   0  0  0  0  0  0  0  0  0  0  0  0
  -22.2130  -22.6424   13.3533 C   0  0  0  0  0  0  0  0  0  0  0  0
  -17.3899  -28.6803   20.5292 C   0  0  0  0  0  0  0  0  0  0  0  0
  -22.4212  -24.0677   19.1419 C   0  0  0  0  0  0  0  0  0  0  0  0
  -21.0564  -22.2621   17.2387 C   0  0  0  0  0  0  0  0  0  0  0  0
  -17.4487  -27.8320   19.2614 C   0  0  0  0  0  0  0  0  0  0  0  0
  -31.5110  -17.1500   21.3078 C   0  0  0  0  0  0  0  0  0  0  0  0
  -17.3153  -26.3514   19.6032 C   0  0  0  0  0  0  0  0  0  0  0  0
  -30.8556  -18.3667   20.6521 C   0  0  0  0  0  0  0  0  0  0  0  0
  -30.6758  -16.6176   22.4695 C   0  0  0  0  0  0  0  0  0  0  0  0
  -28.6108  -17.5339   21.4691 C   0  0  0  0  0  0  0  0  0  0  0  0
  -18.4681  -25.8864   20.5011 C   0  0  1  0  0  0  0  0  0  0  0  0
  -21.2473  -24.5387   18.2891 C   0  0  1  0  0  0  0  0  0  0  0  0
  -29.3956  -18.0707   20.2609 C   0  0  1  0  0  0  0  0  0  0  0  0
  -22.6413  -22.7476   10.8829 C   0  0  0  0  0  0  0  0  0  0  0  0
  -17.8193  -23.5421   15.3537 C   0  0  0  0  0  0  0  0  0  0  0  0
  -18.5347  -22.7558   13.0869 C   0  0  0  0  0  0  0  0  0  0  0  0
  -18.7651  -25.1627   13.7004 C   0  0  0  0  0  0  0  0  0  0  0  0
  -25.1461  -22.6824   13.7460 C   0  0  0  0  0  0  0  0  0  0  0  0
  -23.4139  -14.2699   20.4889 C   0  0  0  0  0  0  0  0  0  0  0  0
  -22.6590  -15.5638   20.1647 C   0  0  0  0  0  0  0  0  0  0  0  0
  -23.2789  -16.3440   19.0046 C   0  0  0  0  0  0  0  0  0  0  0  0
  -22.5268  -17.6408   18.7379 C   0  0  0  0  0  0  0  0  0  1  0  0
  -20.3253  -23.4646   14.7370 C   0  0  1  0  0  0  0  0  0  0  0  0
  -23.1750  -23.0863   12.2660 C   0  0  2  0  0  0  0  0  0  0  0  0
  -18.8735  -23.7210   14.2430 C   0  0  0  0  0  0  0  0  0  0  0  0
  -24.9889  -14.9219   22.2208 N   0  0  0  0  0  0  0  0  0  0  0  0
  -25.8037  -14.2390   20.0580 N   0  0  0  0  0  0  0  0  0  0  0  0
  -29.0746  -20.5066   20.0507 N   0  0  0  0  0  0  0  0  0  0  0  0
  -28.7177  -19.2777   19.6402 N   0  0  0  0  0  0  0  0  0  0  0  0
  -29.2983  -16.3698   22.0455 N   0  0  0  0  0  0  0  0  0  0  0  0
  -21.0615  -23.7263   17.0850 N   0  0  0  0  0  0  0  0  0  0  0  0
  -27.2770  -18.1272   18.1531 N   0  0  0  0  0  0  0  0  0  0  0  0
  -26.3110  -22.4719   17.3873 N   0  0  0  0  0  0  0  0  0  0  0  0
  -19.6699  -25.6895   19.7193 N   0  0  0  0  0  0  0  0  0  0  0  0
  -21.3470  -23.6533   13.7128 N   0  0  0  0  0  0  0  0  0  0  0  0
  -24.4952  -22.4164   12.4374 N   0  3  0  0  0  0  0  0  0  0  0  0
  -29.3002  -14.1364   22.7379 O   0  0  0  0  0  0  0  0  0  0  0  0
  -25.7928  -20.3173   16.7976 O   0  0  0  0  0  0  0  0  0  0  0  0
  -19.2369  -23.5199   18.9928 O   0  0  0  0  0  0  0  0  0  0  0  0
  -20.7031  -25.5870   15.7265 O   0  0  0  0  0  0  0  0  0  0  0  0
  -22.2259  -21.5108   13.8328 O   0  0  0  0  0  0  0  0  0  0  0  0
  -28.6457  -26.8583   19.9061 O   0  0  0  0  0  0  0  0  0  0  0  0
  -22.5860  -18.4570   19.9070 O   0  0  0  0  0  0  0  0  0  1  0  0
  -23.9324  -29.7043   20.2043 F   0  0  0  0  0  0  0  0  0  0  0  0
  -28.0478  -28.3825   22.1336 F   0  0  0  0  0  0  0  0  0  0  0  0
  1  2  1  0  0  0  0
  1  5  2  0  0  0  0
  2  6  2  0  0  0  0
  3  8  2  0  0  0  0
  3 17  1  0  0  0  0
  4  9  1  0  0  0  0
  4 17  2  0  0  0  0
  5 20  1  0  0  0  0
  6 22  1  0  0  0  0
  7 10  2  0  0  0  0
  7 21  1  0  0  0  0
  8 24  1  0  0  0  0
  9 24  2  0  0  0  0
 10 25  1  0  0  0  0
 11 12  2  0  0  0  0
 11 26  1  0  0  0  0
 12 27  1  0  0  0  0
 13 23  1  0  0  0  0
 13 25  2  0  0  0  0
 14 27  2  0  0  0  0
 14 28  1  0  0  0  0
 15 18  1  0  0  0  0
 15 61  2  0  0  0  0
 16 18  2  0  0  0  0
 16 62  1  0  0  0  0
 17 29  1  0  0  0  0
 18 32  1  0  0  0  0
 19 29  1  0  0  0  0
 19 30  2  0  0  0  0
 19 33  1  0  0  0  0
 20 22  2  0  0  0  0
 20 37  1  0  0  0  0
 21 23  2  0  0  0  0
 21 38  1  0  0  0  0
 22 46  1  0  0  0  0
 23 39  1  0  0  0  0
 24 77  1  0  0  0  0
 25 78  1  0  0  0  0
 26 28  2  0  0  0  0
 26 77  1  0  0  0  0
 27 79  1  0  0  0  0
 28 80  1  0  0  0  0
 29 63  2  0  0  0  0
 30 64  1  0  0  0  0
 30 67  1  0  0  0  0
 31 54  1  0  0  0  0
 31 61  1  0  0  0  0
 31 62  2  0  0  0  0
 32 65  1  0  0  0  0
 32 72  2  0  0  0  0
 33 68  1  0  0  0  0
 33 73  2  0  0  0  0
 34 47  1  0  0  0  0
 34 69  1  0  0  0  0
 34 74  2  0  0  0  0
 35 58  1  0  0  0  0
 35 66  1  0  0  0  0
 35 75  2  0  0  0  0
 36 59  1  0  0  0  0
 36 70  1  0  0  0  0
 36 76  2  0  0  0  0
 37 40  1  0  0  0  0
 38 47  1  0  0  0  0
 39 66  1  0  0  0  0
 40 42  1  0  0  0  0
 41 43  1  0  0  0  0
 41 44  1  0  0  0  0
 42 46  1  0  0  0  0
 43 48  1  0  0  0  0
 44 65  1  0  0  0  0
 45 48  1  0  0  0  0
 45 65  1  0  0  0  0
 46 69  1  0  0  0  0
 47 66  1  0  0  0  0
 48 64  1  0  0  0  0
 49 59  1  0  0  0  0
 50 60  1  0  0  0  0
 51 60  1  0  0  0  0
 52 60  1  0  0  0  0
 53 71  1  0  0  0  0
 54 55  1  0  0  0  0
 55 56  1  0  0  0  0
 56 57  1  0  0  0  0
 57 78  1  0  0  0  0
 58 60  1  0  0  0  0
 58 70  1  0  0  0  0
 59 71  1  0  0  0  0
 63 64  1  0  0  0  0
M  CHG  1  71   1
M  ISO  4  18 100  32 100  57 101  78 101
M  END
> <Batch ID>
0085

> <Smiles>
CNC(C)C(=O)NC(C(=O)N1Cc2cc([101O:1][101CH2:1]CCCc3nc[100c:0]([100C:0](=O)N4CCCC(n5nc(-c6ccc(Oc7ccc(F)cc7F)cc6)c(C(N)=O)c5N)C4)cn3)ccc2CC1C(=O)NC1CCCc2ccccc21)C(C)(C)C

> <Shape>
0.196

> <Color>
0.078

> <Negative vol penalty>
0.000

$$$$

  -OEChem-04052318563D

 82 90  0     1  0  0  0  0  0999 V2000
  -18.6437  -21.7371   24.5989 C   0  0  0  0  0  0  0  0  0  0  0  0
  -19.9916  -21.8420   24.9266 C   0  0  0  0  0  0  0  0  0  0  0  0
  -26.5976  -13.6234   21.7943 C   0  0  0  0  0  0  0  0  0  0  0  0
  -25.9973  -14.0090   19.4860 C   0  0  0  0  0  0  0  0  0  0  0  0
  -18.1381  -22.4329   23.5015 C   0  0  0  0  0  0  0  0  0  0  0  0
  -20.8351  -22.6418   24.1564 C   0  0  0  0  0  0  0  0  0  0  0  0
  -25.6009  -25.9398   26.1354 C   0  0  0  0  0  0  0  0  0  0  0  0
  -25.7397  -12.5243   21.8338 C   0  0  0  0  0  0  0  0  0  0  0  0
  -25.1395  -12.9099   19.5255 C   0  0  0  0  0  0  0  0  0  0  0  0
  -26.9735  -25.6950   26.1406 C   0  0  0  0  0  0  0  0  0  0  0  0
  -25.7743   -9.2997   20.8172 C   0  0  0  0  0  0  0  0  0  0  0  0
  -26.2469   -8.1296   21.4113 C   0  0  0  0  0  0  0  0  0  0  0  0
  -27.1972  -26.9405   24.0868 C   0  0  0  0  0  0  0  0  0  0  0  0
  -24.4550   -8.2272   23.0290 C   0  0  0  0  0  0  0  0  0  0  0  0
  -29.2082  -24.7787   20.2276 C   0  0  0  0  0  0  0  0  0  0  0  0
  -26.7264  -14.3658   20.6204 C   0  0  0  0  0  0  0  0  0  0  0  0
  -28.9745  -15.5049   20.2251 C   0  0  0  0  0  0  0  0  0  0  0  0
  -18.9738  -23.2493   22.7232 C   0  0  0  0  0  0  0  0  0  0  0  0
  -25.0136  -26.6787   25.0984 C   0  0  0  0  0  0  0  0  0  0  0  0
  -20.3405  -23.3481   23.0468 C   0  0  0  0  0  0  0  0  0  0  0  0
  -25.8174  -27.1954   24.0721 C   0  0  0  0  0  0  0  0  0  0  0  0
  -25.0107  -12.1675   20.6994 C   0  0  0  0  0  0  0  0  0  0  0  0
  -27.7714  -26.1930   25.1147 C   0  0  0  0  0  0  0  0  0  0  0  0
  -24.6421   -9.9337   21.3290 C   0  0  0  0  0  0  0  0  0  0  0  0
  -25.5872   -7.5933   22.5172 C   0  0  0  0  0  0  0  0  0  0  0  0
  -23.9824   -9.3974   22.4348 C   0  0  0  0  0  0  0  0  0  0  0  0
  -27.6119  -15.5017   20.5791 C   0  0  0  0  0  0  0  0  0  0  0  0
  -28.1514  -25.3863   19.5974 C   0  0  0  0  0  0  0  0  0  0  0  0
  -29.3571  -16.8186   20.3442 C   0  0  0  0  0  0  0  0  0  0  0  0
  -29.8188  -14.4176   19.8244 C   0  0  0  0  0  0  0  0  0  0  0  0
  -22.8314  -26.0714   22.8684 C   0  0  0  0  0  0  0  0  0  0  0  0
  -23.1480  -29.2398   22.2492 C   0  0  0  0  0  0  0  0  0  0  0  0
  -25.0815  -32.0466   22.4223 C   0  0  0  0  0  0  0  0  0  0  0  0
  -26.3034  -21.8560   19.9493 C   0  0  0  0  0  0  0  0  0  0  0  0
  -18.3916  -23.9447   21.5182 C   0  0  0  0  0  0  0  0  0  0  0  0
  -23.5356  -26.9567   25.1215 C   0  0  0  0  0  0  0  0  0  0  0  0
  -25.2387  -28.0118   22.9465 C   0  0  0  0  0  0  0  0  0  0  0  0
  -19.2741  -25.0665   20.9769 C   0  0  0  0  0  0  0  0  0  0  0  0
  -28.3234  -20.8153   22.7661 C   0  0  0  0  0  0  0  0  0  0  0  0
  -20.7235  -24.6026   20.8730 C   0  0  0  0  0  0  0  0  0  0  0  0
  -28.4965  -19.3223   22.4811 C   0  0  0  0  0  0  0  0  0  0  0  0
  -26.9284  -21.2944   22.3756 C   0  0  0  0  0  0  0  0  0  0  0  0
  -26.7271  -19.5238   20.6732 C   0  0  0  0  0  0  0  0  0  0  0  0
  -21.2821  -24.2252   22.2504 C   0  0  1  0  0  0  0  0  0  0  0  0
  -22.9677  -27.2848   23.7441 C   0  0  1  0  0  0  0  0  0  0  0  0
  -28.1247  -18.9829   21.0255 C   0  0  2  0  0  0  0  0  0  0  0  0
  -25.0855  -34.4775   21.7991 C   0  0  0  0  0  0  0  0  0  0  0  0
  -30.2625  -23.9424   24.4974 C   0  0  0  0  0  0  0  0  0  0  0  0
  -23.6795  -28.4905   19.3395 C   0  0  0  0  0  0  0  0  0  0  0  0
  -24.5943  -30.7940   18.9862 C   0  0  0  0  0  0  0  0  0  0  0  0
  -22.2091  -30.4895   19.6501 C   0  0  0  0  0  0  0  0  0  0  0  0
  -25.3357  -32.8900   25.2478 C   0  0  0  0  0  0  0  0  0  0  0  0
  -27.1632  -24.8045   18.6800 C   0  0  0  0  0  0  0  0  0  0  0  0
  -30.6943  -26.1188   23.3011 C   0  0  0  0  0  0  0  0  0  0  0  0
  -30.9795  -25.7112   21.8484 C   0  0  0  0  0  0  0  0  0  0  0  0
  -25.9074  -24.2367   19.3730 C   0  0  0  0  0  0  0  0  0  0  0  0
  -24.0323  -30.0704   21.3508 C   0  0  1  0  0  0  0  0  0  0  0  0
  -24.7682  -33.4588   22.8828 C   0  0  2  0  0  0  0  0  0  0  0  0
  -29.6466  -25.2445   24.0012 C   0  0  2  0  0  0  0  0  0  1  0  0
  -23.6397  -29.9441   19.8517 C   0  0  0  0  0  0  0  0  0  0  0  0
  -27.1595  -16.7169   20.8992 N   0  0  0  0  0  0  0  0  0  0  0  0
  -28.1070  -26.7078   19.9457 N   0  0  0  0  0  0  0  0  0  0  0  0
  -29.1134  -26.9440   20.7802 N   0  0  0  0  0  0  0  0  0  0  0  0
  -29.7725  -25.7861   20.9478 N   0  0  0  0  0  0  0  0  0  0  0  0
  -28.2439  -17.4960   20.7469 N   0  0  0  0  0  0  0  0  0  0  0  0
  -23.7874  -28.2511   23.0103 N   0  0  0  0  0  0  0  0  0  0  0  0
  -26.6441  -20.9570   20.9736 N   0  0  0  0  0  0  0  0  0  0  0  0
  -30.5338  -17.4489   20.1427 N   0  0  0  0  0  0  0  0  0  0  0  0
  -29.2647  -13.1321   19.7545 N   0  0  0  0  0  0  0  0  0  0  0  0
  -21.6228  -25.4149   23.0008 N   0  0  0  0  0  0  0  0  0  0  0  0
  -23.9773  -31.4327   21.8702 N   0  0  0  0  0  0  0  0  0  0  0  0
  -26.2395  -23.1941   20.3183 N   0  0  0  0  0  0  0  0  0  0  0  0
  -25.5667  -33.7977   24.0946 N   0  3  0  0  0  0  0  0  0  0  0  0
  -31.0328  -14.5784   19.5526 O   0  0  0  0  0  0  0  0  0  0  0  0
  -23.7539  -25.7552   22.1263 O   0  0  0  0  0  0  0  0  0  0  0  0
  -21.9355  -29.4649   22.2800 O   0  0  0  0  0  0  0  0  0  0  0  0
  -26.1955  -31.5403   22.5373 O   0  0  0  0  0  0  0  0  0  0  0  0
  -26.0780  -21.4935   18.7896 O   0  0  0  0  0  0  0  0  0  0  0  0
  -24.1737  -11.0949   20.7375 O   0  0  0  0  0  0  0  0  0  0  0  0
  -29.1113  -25.9550   25.1169 O   0  0  0  0  0  0  0  0  0  1  0  0
  -26.0403   -6.4687   23.0867 F   0  0  0  0  0  0  0  0  0  0  0  0
  -22.8935  -10.0013   22.9303 F   0  0  0  0  0  0  0  0  0  0  0  0
  1  2  1  0  0  0  0
  1  5  2  0  0  0  0
  2  6  2  0  0  0  0
  3  8  2  0  0  0  0
  3 16  1  0  0  0  0
  4  9  1  0  0  0  0
  4 16  2  0  0  0  0
  5 18  1  0  0  0  0
  6 20  1  0  0  0  0
  7 10  2  0  0  0  0
  7 19  1  0  0  0  0
  8 22  1  0  0  0  0
  9 22  2  0  0  0  0
 10 23  1  0  0  0  0
 11 12  2  0  0  0  0
 11 24  1  0  0  0  0
 12 25  1  0  0  0  0
 13 21  1  0  0  0  0
 13 23  2  0  0  0  0
 14 25  2  0  0  0  0
 14 26  1  0  0  0  0
 15 28  2  0  0  0  0
 15 64  1  0  0  0  0
 16 27  1  0  0  0  0
 17 27  1  0  0  0  0
 17 29  2  0  0  0  0
 17 30  1  0  0  0  0
 18 20  2  0  0  0  0
 18 35  1  0  0  0  0
 19 21  2  0  0  0  0
 19 36  1  0  0  0  0
 20 44  1  0  0  0  0
 21 37  1  0  0  0  0
 22 79  1  0  0  0  0
 23 80  1  0  0  0  0
 24 26  2  0  0  0  0
 24 79  1  0  0  0  0
 25 81  1  0  0  0  0
 26 82  1  0  0  0  0
 27 61  2  0  0  0  0
 28 53  1  0  0  0  0
 28 62  1  0  0  0  0
 29 65  1  0  0  0  0
 29 68  1  0  0  0  0
 30 69  1  0  0  0  0
 30 74  2  0  0  0  0
 31 45  1  0  0  0  0
 31 70  1  0  0  0  0
 31 75  2  0  0  0  0
 32 57  1  0  0  0  0
 32 66  1  0  0  0  0
 32 76  2  0  0  0  0
 33 58  1  0  0  0  0
 33 71  1  0  0  0  0
 33 77  2  0  0  0  0
 34 67  1  0  0  0  0
 34 72  1  0  0  0  0
 34 78  2  0  0  0  0
 35 38  1  0  0  0  0
 36 45  1  0  0  0  0
 37 66  1  0  0  0  0
 38 40  1  0  0  0  0
 39 41  1  0  0  0  0
 39 42  1  0  0  0  0
 40 44  1  0  0  0  0
 41 46  1  0  0  0  0
 42 67  1  0  0  0  0
 43 46  1  0  0  0  0
 43 67  1  0  0  0  0
 44 70  1  0  0  0  0
 45 66  1  0  0  0  0
 46 65  1  0  0  0  0
 47 58  1  0  0  0  0
 48 59  1  0  0  0  0
 49 60  1  0  0  0  0
 50 60  1  0  0  0  0
 51 60  1  0  0  0  0
 52 73  1  0  0  0  0
 53 56  1  0  0  0  0
 54 55  1  0  0  0  0
 54 59  1  0  0  0  0
 55 64  1  0  0  0  0
 56 72  1  0  0  0  0
 57 60  1  0  0  0  0
 57 71  1  0  0  0  0
 58 73  1  0  0  0  0
 59 80  1  0  0  0  0
 61 65  1  0  0  0  0
 62 63  2  0  0  0  0
 63 64  1  0  0  0  0
M  CHG  1  73   1
M  ISO  4  34 100  59 101  72 100  80 101
M  END
> <Batch ID>
0085

> <Smiles>
CNC(C)C(=O)NC(C(=O)N1Cc2cc([101O:1][101CH:1](C)CCn3cc(CC[100NH:0][100C:0](=O)N4CCCC(n5nc(-c6ccc(Oc7ccc(F)cc7F)cc6)c(C(N)=O)c5N)C4)nn3)ccc2CC1C(=O)NC1CCCc2ccccc21)C(C)(C)C

> <Shape>
0.212

> <Color>
0.078

> <Negative vol penalty>
0.000

$$$$

  -OEChem-04052318563D

 88 96  0     1  0  0  0  0  0999 V2000
  -20.3123  -32.4202   29.7852 C   0  0  0  0  0  0  0  0  0  0  0  0
  -21.2660  -31.5179   29.3249 C   0  0  0  0  0  0  0  0  0  0  0  0
  -24.4232   -9.3122   22.2126 C   0  0  0  0  0  0  0  0  0  0  0  0
  -23.6911   -9.4707   19.9157 C   0  0  0  0  0  0  0  0  0  0  0  0
  -19.7467  -33.3435   28.9069 C   0  0  0  0  0  0  0  0  0  0  0  0
  -21.6537  -31.5377   27.9856 C   0  0  0  0  0  0  0  0  0  0  0  0
  -27.2300  -30.3502   25.7494 C   0  0  0  0  0  0  0  0  0  0  0  0
  -23.3167   -8.5170   22.5105 C   0  0  0  0  0  0  0  0  0  0  0  0
  -22.5845   -8.6753   20.2135 C   0  0  0  0  0  0  0  0  0  0  0  0
  -27.7878  -29.2070   25.1788 C   0  0  0  0  0  0  0  0  0  0  0  0
  -22.3889   -5.2900   22.1124 C   0  0  0  0  0  0  0  0  0  0  0  0
  -22.6008   -4.1468   22.8830 C   0  0  0  0  0  0  0  0  0  0  0  0
  -27.2889  -30.0678   22.9812 C   0  0  0  0  0  0  0  0  0  0  0  0
  -21.0901   -5.0001   24.5643 C   0  0  0  0  0  0  0  0  0  0  0  0
  -28.9922  -21.2198   19.0845 C   0  0  0  0  0  0  0  0  0  0  0  0
  -29.2803  -21.0397   21.2979 C   0  0  0  0  0  0  0  0  0  0  0  0
  -24.6104   -9.7892   20.9152 C   0  0  0  0  0  0  0  0  0  0  0  0
  -27.0199  -10.1775   20.1731 C   0  0  0  0  0  0  0  0  0  0  0  0
  -20.1348  -33.3810   27.5583 C   0  0  0  0  0  0  0  0  0  0  0  0
  -26.6867  -31.3575   24.9392 C   0  0  0  0  0  0  0  0  0  0  0  0
  -21.0917  -32.4615   27.0881 C   0  0  0  0  0  0  0  0  0  0  0  0
  -26.7270  -31.2240   23.5440 C   0  0  0  0  0  0  0  0  0  0  0  0
  -29.2073  -19.8884   19.3643 C   0  0  0  0  0  0  0  0  0  0  0  0
  -29.3897  -19.7744   20.7646 C   0  0  0  0  0  0  0  0  0  0  0  0
  -22.3974   -8.1985   21.5110 C   0  0  0  0  0  0  0  0  0  0  0  0
  -27.8147  -29.0643   23.7945 C   0  0  0  0  0  0  0  0  0  0  0  0
  -21.5276   -6.2883   22.5678 C   0  0  0  0  0  0  0  0  0  0  0  0
  -21.9514   -4.0018   24.1089 C   0  0  0  0  0  0  0  0  0  0  0  0
  -20.8782   -6.1433   23.7937 C   0  0  0  0  0  0  0  0  0  0  0  0
  -25.7529  -10.6112   20.6070 C   0  0  0  0  0  0  0  0  0  0  0  0
  -27.7451  -11.3340   20.0208 C   0  0  0  0  0  0  0  0  0  0  0  0
  -27.4986   -8.8482   19.9293 C   0  0  0  0  0  0  0  0  0  0  0  0
  -23.7960  -32.6285   24.5757 C   0  0  0  0  0  0  0  0  0  0  0  0
  -25.3703  -34.6769   22.6140 C   0  0  0  0  0  0  0  0  0  0  0  0
  -28.0671  -35.2723   20.6092 C   0  0  0  0  0  0  0  0  0  0  0  0
  -28.1450  -16.5931   18.6063 C   0  0  0  0  0  0  0  0  0  0  0  0
  -19.4608  -34.3659   26.6361 C   0  0  0  0  0  0  0  0  0  0  0  0
  -26.1127  -32.5967   25.5695 C   0  0  0  0  0  0  0  0  0  0  0  0
  -26.1753  -32.2859   22.6294 C   0  0  0  0  0  0  0  0  0  0  0  0
  -20.2002  -34.5687   25.3161 C   0  0  0  0  0  0  0  0  0  0  0  0
  -25.3649  -15.5302   20.8954 C   0  0  0  0  0  0  0  0  0  0  0  0
  -20.6011  -33.2244   24.7168 C   0  0  0  0  0  0  0  0  0  0  0  0
  -26.4475  -14.6131   21.4646 C   0  0  0  0  0  0  0  0  0  0  0  0
  -25.9300  -16.5002   19.8516 C   0  0  0  0  0  0  0  0  0  0  0  0
  -26.9802  -14.4432   18.9676 C   0  0  0  0  0  0  0  0  0  0  0  0
  -21.5564  -32.4682   25.6479 C   0  0  1  0  0  0  0  0  0  0  0  0
  -25.1244  -33.3250   24.6638 C   0  0  1  0  0  0  0  0  0  0  0  0
  -27.2092  -13.8377   20.3636 C   0  0  2  0  0  0  0  0  0  0  0  0
  -28.5353  -18.2067   22.5439 C   0  0  0  0  0  0  0  0  0  0  0  0
  -31.0157  -18.5455   22.2478 C   0  0  0  0  0  0  0  0  0  0  0  0
  -29.0584  -37.0231   19.1094 C   0  0  0  0  0  0  0  0  0  0  0  0
  -23.3330  -33.9761   20.4534 C   0  0  0  0  0  0  0  0  0  0  0  0
  -24.8866  -34.9744   18.7628 C   0  0  0  0  0  0  0  0  0  0  0  0
  -23.9336  -36.4008   20.5738 C   0  0  0  0  0  0  0  0  0  0  0  0
  -26.7357  -23.6517   18.9990 C   0  0  0  0  0  0  0  0  0  0  0  0
  -26.5203  -23.2798   21.4610 C   0  0  0  0  0  0  0  0  0  0  0  0
  -26.8105  -18.6502   17.9693 C   0  0  0  0  0  0  0  0  0  0  0  0
  -30.5013  -35.4895   22.2784 C   0  0  0  0  0  0  0  0  0  0  0  0
  -29.2383  -18.7904   18.3777 C   0  0  0  0  0  0  0  0  0  0  0  0
  -27.9348  -26.0055   21.8898 C   0  0  0  0  0  0  0  0  0  0  0  0
  -27.3868  -25.4879   20.5563 C   0  0  0  0  0  0  0  0  0  0  0  0
  -28.8493  -23.4034   20.4136 C   0  0  0  0  0  0  0  0  0  0  0  0
  -27.8206  -27.5226   21.9837 C   0  0  0  0  0  0  0  0  0  1  0  0
  -29.6496  -18.5351   21.5233 C   0  0  0  0  0  0  0  0  0  0  0  0
  -25.7136  -34.6984   21.1441 C   0  0  1  0  0  0  0  0  0  0  0  0
  -29.0139  -36.4555   20.5196 C   0  0  2  0  0  0  0  0  0  0  0  0
  -24.4754  -34.9913   20.2505 C   0  0  0  0  0  0  0  0  0  0  0  0
  -27.3863  -23.9381   20.3703 C   0  0  0  0  0  0  0  0  0  0  0  0
  -25.6744  -11.9395   20.7231 N   0  0  0  0  0  0  0  0  0  0  0  0
  -29.0384  -21.9102   20.2675 N   0  0  0  0  0  0  0  0  0  0  0  0
  -26.9013  -12.3505   20.3600 N   0  0  0  0  0  0  0  0  0  0  0  0
  -25.6190  -33.4761   23.2938 N   0  0  0  0  0  0  0  0  0  0  0  0
  -27.0002  -15.9032   19.0393 N   0  0  0  0  0  0  0  0  0  0  0  0
  -29.0159  -11.5704   19.6313 N   0  0  0  0  0  0  0  0  0  0  0  0
  -26.6220   -7.7742   20.1354 N   0  0  0  0  0  0  0  0  0  0  0  0
  -22.8940  -33.0121   25.5497 N   0  0  0  0  0  0  0  0  0  0  0  0
  -26.8006  -35.6596   20.9928 N   0  0  0  0  0  0  0  0  0  0  0  0
  -28.0314  -17.9753   18.3989 N   0  0  0  0  0  0  0  0  0  0  0  0
  -30.3938  -36.0450   20.9047 N   0  3  0  0  0  0  0  0  0  0  0  0
  -28.6739   -8.6185   19.5560 O   0  0  0  0  0  0  0  0  0  0  0  0
  -23.6030  -31.8052   23.6888 O   0  0  0  0  0  0  0  0  0  0  0  0
  -24.9054  -35.6906   23.1413 O   0  0  0  0  0  0  0  0  0  0  0  0
  -28.4151  -34.1202   20.3599 O   0  0  0  0  0  0  0  0  0  0  0  0
  -29.2207  -16.0060   18.4290 O   0  0  0  0  0  0  0  0  0  0  0  0
  -21.3176   -7.4223   21.8012 O   0  0  0  0  0  0  0  0  0  0  0  0
  -28.3580  -27.9492   23.2349 O   0  0  0  0  0  0  0  0  0  1  0  0
  -22.1538   -2.9033   24.8481 F   0  0  0  0  0  0  0  0  0  0  0  0
  -20.0487   -7.0985   24.2359 F   0  0  0  0  0  0  0  0  0  0  0  0
  1  2  1  0  0  0  0
  1  5  2  0  0  0  0
  2  6  2  0  0  0  0
  3  8  2  0  0  0  0
  3 17  1  0  0  0  0
  4  9  1  0  0  0  0
  4 17  2  0  0  0  0
  5 19  1  0  0  0  0
  6 21  1  0  0  0  0
  7 10  2  0  0  0  0
  7 20  1  0  0  0  0
  8 25  1  0  0  0  0
  9 25  2  0  0  0  0
 10 26  1  0  0  0  0
 11 12  2  0  0  0  0
 11 27  1  0  0  0  0
 12 28  1  0  0  0  0
 13 22  1  0  0  0  0
 13 26  2  0  0  0  0
 14 28  2  0  0  0  0
 14 29  1  0  0  0  0
 15 23  2  0  0  0  0
 15 70  1  0  0  0  0
 16 24  2  0  0  0  0
 16 70  1  0  0  0  0
 17 30  1  0  0  0  0
 18 30  1  0  0  0  0
 18 31  2  0  0  0  0
 18 32  1  0  0  0  0
 19 21  2  0  0  0  0
 19 37  1  0  0  0  0
 20 22  2  0  0  0  0
 20 38  1  0  0  0  0
 21 46  1  0  0  0  0
 22 39  1  0  0  0  0
 23 24  1  0  0  0  0
 23 59  1  0  0  0  0
 24 64  1  0  0  0  0
 25 85  1  0  0  0  0
 26 86  1  0  0  0  0
 27 29  2  0  0  0  0
 27 85  1  0  0  0  0
 28 87  1  0  0  0  0
 29 88  1  0  0  0  0
 30 69  2  0  0  0  0
 31 71  1  0  0  0  0
 31 74  1  0  0  0  0
 32 75  1  0  0  0  0
 32 80  2  0  0  0  0
 33 47  1  0  0  0  0
 33 76  1  0  0  0  0
 33 81  2  0  0  0  0
 34 65  1  0  0  0  0
 34 72  1  0  0  0  0
 34 82  2  0  0  0  0
 35 66  1  0  0  0  0
 35 77  1  0  0  0  0
 35 83  2  0  0  0  0
 36 73  1  0  0  0  0
 36 78  1  0  0  0  0
 36 84  2  0  0  0  0
 37 40  1  0  0  0  0
 38 47  1  0  0  0  0
 39 72  1  0  0  0  0
 40 42  1  0  0  0  0
 41 43  1  0  0  0  0
 41 44  1  0  0  0  0
 42 46  1  0  0  0  0
 43 48  1  0  0  0  0
 44 73  1  0  0  0  0
 45 48  1  0  0  0  0
 45 73  1  0  0  0  0
 46 76  1  0  0  0  0
 47 72  1  0  0  0  0
 48 71  1  0  0  0  0
 49 64  1  0  0  0  0
 50 64  1  0  0  0  0
 51 66  1  0  0  0  0
 52 67  1  0  0  0  0
 53 67  1  0  0  0  0
 54 67  1  0  0  0  0
 55 68  1  0  0  0  0
 56 68  1  0  0  0  0
 57 78  1  0  0  0  0
 58 79  1  0  0  0  0
 59 78  1  0  0  0  0
 60 61  1  0  0  0  0
 60 63  1  0  0  0  0
 61 68  1  0  0  0  0
 62 68  1  0  0  0  0
 62 70  1  0  0  0  0
 63 86  1  0  0  0  0
 65 67  1  0  0  0  0
 65 77  1  0  0  0  0
 66 79  1  0  0  0  0
 69 71  1  0  0  0  0
M  CHG  1  79   1
M  ISO  4  36 100  63 101  78 100  86 101
M  END
> <Batch ID>
0085

> <Smiles>
CNC(C)C(=O)NC(C(=O)N1Cc2cc([101O:1][101CH2:1]CCC(C)(C)Cn3cc(C[100N:0](C)[100C:0](=O)N4CCCC(n5nc(-c6ccc(Oc7ccc(F)cc7F)cc6)c(C(N)=O)c5N)C4)c(C(C)C)c3)ccc2CC1C(=O)NC1CCCc2ccccc21)C(C)(C)C

> <Shape>
0.263

> <Color>
0.082

> <Negative vol penalty>
0.000

$$$$

  -OEChem-04052318563D

 80 88  0     1  0  0  0  0  0999 V2000
  -20.8167  -13.8849   32.0101 C   0  0  0  0  0  0  0  0  0  0  0  0
  -22.0818  -13.8442   31.4328 C   0  0  0  0  0  0  0  0  0  0  0  0
  -23.1909   -9.8191   19.9316 C   0  0  0  0  0  0  0  0  0  0  0  0
  -23.5685   -9.9994   22.3111 C   0  0  0  0  0  0  0  0  0  0  0  0
  -20.6659  -14.3197   33.3262 C   0  0  0  0  0  0  0  0  0  0  0  0
  -23.1968  -14.2394   32.1711 C   0  0  0  0  0  0  0  0  0  0  0  0
  -27.0950  -11.0473   31.6617 C   0  0  0  0  0  0  0  0  0  0  0  0
  -22.4247   -8.6723   20.1401 C   0  0  0  0  0  0  0  0  0  0  0  0
  -22.8023   -8.8527   22.5196 C   0  0  0  0  0  0  0  0  0  0  0  0
  -27.8460  -11.1411   30.4908 C   0  0  0  0  0  0  0  0  0  0  0  0
  -23.2039   -5.5061   22.2555 C   0  0  0  0  0  0  0  0  0  0  0  0
  -23.7022   -4.5448   23.1348 C   0  0  0  0  0  0  0  0  0  0  0  0
  -29.5203  -12.4126   31.6737 C   0  0  0  0  0  0  0  0  0  0  0  0
  -21.7452   -4.8044   24.5276 C   0  0  0  0  0  0  0  0  0  0  0  0
  -30.0678  -12.4120   26.0267 C   0  0  0  0  0  0  0  0  0  0  0  0
  -23.7629  -10.4827   21.0171 C   0  0  0  0  0  0  0  0  0  0  0  0
  -24.1013  -12.9994   20.7735 C   0  0  0  0  0  0  0  0  0  0  0  0
  -21.7807  -14.7113   34.0841 C   0  0  0  0  0  0  0  0  0  0  0  0
  -27.5466  -11.6458   32.8468 C   0  0  0  0  0  0  0  0  0  0  0  0
  -23.0606  -14.6812   33.4981 C   0  0  0  0  0  0  0  0  0  0  0  0
  -28.7744  -12.3228   32.8589 C   0  0  0  0  0  0  0  0  0  0  0  0
  -22.2304   -8.1891   21.4340 C   0  0  0  0  0  0  0  0  0  0  0  0
  -29.0574  -11.8263   30.4959 C   0  0  0  0  0  0  0  0  0  0  0  0
  -21.9763   -6.1166   22.5122 C   0  0  0  0  0  0  0  0  0  0  0  0
  -22.9729   -4.1939   24.2708 C   0  0  0  0  0  0  0  0  0  0  0  0
  -21.2470   -5.7658   23.6483 C   0  0  0  0  0  0  0  0  0  0  0  0
  -24.5549  -11.6670   20.8023 C   0  0  0  0  0  0  0  0  0  0  0  0
  -31.1680  -12.3058   25.2235 C   0  0  0  0  0  0  0  0  0  0  0  0
  -25.2324  -13.7422   20.5386 C   0  0  0  0  0  0  0  0  0  0  0  0
  -31.4044  -10.8777   26.8984 C   0  0  0  0  0  0  0  0  0  0  0  0
  -22.7760  -13.5191   20.9440 C   0  0  0  0  0  0  0  0  0  0  0  0
  -26.4486  -13.9291   34.7664 C   0  0  0  0  0  0  0  0  0  0  0  0
  -28.9713  -13.0534   36.6080 C   0  0  0  0  0  0  0  0  0  0  0  0
  -32.0623  -11.6190   36.7949 C   0  0  0  0  0  0  0  0  0  0  0  0
  -31.0471  -12.7530   21.5693 C   0  0  0  0  0  0  0  0  0  0  0  0
  -21.5625  -15.2189   35.4874 C   0  0  0  0  0  0  0  0  0  0  0  0
  -26.7377  -11.5127   34.1079 C   0  0  0  0  0  0  0  0  0  0  0  0
  -29.3134  -12.9655   34.1099 C   0  0  0  0  0  0  0  0  0  0  0  0
  -22.8387  -15.2650   36.3238 C   0  0  0  0  0  0  0  0  0  0  0  0
  -29.5204  -13.4703   18.4338 C   0  0  0  0  0  0  0  0  0  0  0  0
  -23.9753  -15.8998   35.5289 C   0  0  0  0  0  0  0  0  0  0  0  0
  -28.0338  -13.2097   18.6827 C   0  0  0  0  0  0  0  0  0  0  0  0
  -30.4017  -12.4810   19.1932 C   0  0  0  0  0  0  0  0  0  0  0  0
  -28.6477  -12.1379   20.8902 C   0  0  0  0  0  0  0  0  0  0  0  0
  -24.2973  -15.0783   34.2746 C   0  0  1  0  0  0  0  0  0  0  0  0
  -27.0457  -12.5999   35.1329 C   0  0  1  0  0  0  0  0  0  0  0  0
  -27.7203  -13.1456   20.1896 C   0  0  2  0  0  0  0  0  0  0  0  0
  -31.9739   -9.8322   27.7846 C   0  0  0  0  0  0  0  0  0  0  0  0
  -31.6662  -14.5357   24.1554 C   0  0  0  0  0  0  0  0  0  0  0  0
  -33.8889  -11.0814   38.4295 C   0  0  0  0  0  0  0  0  0  0  0  0
  -29.8196  -15.9842   36.6201 C   0  0  0  0  0  0  0  0  0  0  0  0
  -32.0772  -15.2552   37.4202 C   0  0  0  0  0  0  0  0  0  0  0  0
  -30.0591  -14.8198   38.8204 C   0  0  0  0  0  0  0  0  0  0  0  0
  -31.8286   -8.7142   36.2783 C   0  0  0  0  0  0  0  0  0  0  0  0
  -29.2664  -11.2932   28.1808 C   0  0  0  0  0  0  0  0  0  1  0  0
  -31.5366  -13.0041   23.9893 C   0  0  2  0  0  0  0  0  0  0  0  0
  -30.4175  -13.4742   36.7102 C   0  0  1  0  0  0  0  0  0  0  0  0
  -32.6329  -10.5749   37.7377 C   0  0  2  0  0  0  0  0  0  0  0  0
  -30.5826  -14.8730   37.3685 C   0  0  0  0  0  0  0  0  0  0  0  0
  -25.8715  -11.5661   20.6015 N   0  0  0  0  0  0  0  0  0  0  0  0
  -30.2404  -11.5168   27.0547 N   0  0  0  0  0  0  0  0  0  0  0  0
  -26.2549  -12.8445   20.4442 N   0  0  0  0  0  0  0  0  0  0  0  0
  -31.9781  -11.3496   25.7868 N   0  3  0  0  0  0  0  0  0  0  0  0
  -28.4828  -12.8132   35.3159 N   0  0  0  0  0  0  0  0  0  0  0  0
  -30.0548  -12.4698   20.6164 N   0  0  0  0  0  0  0  0  0  0  0  0
  -25.4422  -15.0691   20.4054 N   0  0  0  0  0  0  0  0  0  0  0  0
  -21.7294  -12.6167   21.1777 N   0  0  0  0  0  0  0  0  0  0  0  0
  -25.0745  -13.9081   34.6226 N   0  0  0  0  0  0  0  0  0  0  0  0
  -31.1071  -12.3978   37.4132 N   0  0  0  0  0  0  0  0  0  0  0  0
  -30.6325  -12.7275   22.8953 N   0  0  0  0  0  0  0  0  0  0  0  0
  -32.9772   -9.3334   36.9885 N   0  3  0  0  0  0  0  0  0  0  0  0
  -22.5246  -14.7461   20.8743 O   0  0  0  0  0  0  0  0  0  0  0  0
  -27.1803  -14.9020   34.6260 O   0  0  0  0  0  0  0  0  0  0  0  0
  -28.3018  -12.9349   37.6372 O   0  0  0  0  0  0  0  0  0  0  0  0
  -32.4300  -11.7347   35.6279 O   0  0  0  0  0  0  0  0  0  0  0  0
  -32.2147  -13.0148   21.2610 O   0  0  0  0  0  0  0  0  0  0  0  0
  -21.4826   -7.0703   21.6379 O   0  0  0  0  0  0  0  0  0  0  0  0
  -29.7921  -11.9199   29.3543 O   0  0  0  0  0  0  0  0  0  1  0  0
  -23.4507   -3.2696   25.1143 F   0  0  0  0  0  0  0  0  0  0  0  0
  -20.0665   -6.3480   23.8996 F   0  0  0  0  0  0  0  0  0  0  0  0
  1  2  1  0  0  0  0
  1  5  2  0  0  0  0
  2  6  2  0  0  0  0
  3  8  2  0  0  0  0
  3 16  1  0  0  0  0
  4  9  1  0  0  0  0
  4 16  2  0  0  0  0
  5 18  1  0  0  0  0
  6 20  1  0  0  0  0
  7 10  2  0  0  0  0
  7 19  1  0  0  0  0
  8 22  1  0  0  0  0
  9 22  2  0  0  0  0
 10 23  1  0  0  0  0
 11 12  2  0  0  0  0
 11 24  1  0  0  0  0
 12 25  1  0  0  0  0
 13 21  1  0  0  0  0
 13 23  2  0  0  0  0
 14 25  2  0  0  0  0
 14 26  1  0  0  0  0
 15 28  2  0  0  0  0
 15 61  1  0  0  0  0
 16 27  1  0  0  0  0
 17 27  1  0  0  0  0
 17 29  2  0  0  0  0
 17 31  1  0  0  0  0
 18 20  2  0  0  0  0
 18 36  1  0  0  0  0
 19 21  2  0  0  0  0
 19 37  1  0  0  0  0
 20 45  1  0  0  0  0
 21 38  1  0  0  0  0
 22 77  1  0  0  0  0
 23 78  1  0  0  0  0
 24 26  2  0  0  0  0
 24 77  1  0  0  0  0
 25 79  1  0  0  0  0
 26 80  1  0  0  0  0
 27 60  2  0  0  0  0
 28 56  1  0  0  0  0
 28 63  1  0  0  0  0
 29 62  1  0  0  0  0
 29 66  1  0  0  0  0
 30 48  1  0  0  0  0
 30 61  1  0  0  0  0
 30 63  2  0  0  0  0
 31 67  1  0  0  0  0
 31 72  2  0  0  0  0
 32 46  1  0  0  0  0
 32 68  1  0  0  0  0
 32 73  2  0  0  0  0
 33 57  1  0  0  0  0
 33 64  1  0  0  0  0
 33 74  2  0  0  0  0
 34 58  1  0  0  0  0
 34 69  1  0  0  0  0
 34 75  2  0  0  0  0
 35 65  1  0  0  0  0
 35 70  1  0  0  0  0
 35 76  2  0  0  0  0
 36 39  1  0  0  0  0
 37 46  1  0  0  0  0
 38 64  1  0  0  0  0
 39 41  1  0  0  0  0
 40 42  1  0  0  0  0
 40 43  1  0  0  0  0
 41 45  1  0  0  0  0
 42 47  1  0  0  0  0
 43 65  1  0  0  0  0
 44 47  1  0  0  0  0
 44 65  1  0  0  0  0
 45 68  1  0  0  0  0
 46 64  1  0  0  0  0
 47 62  1  0  0  0  0
 49 56  1  0  0  0  0
 50 58  1  0  0  0  0
 51 59  1  0  0  0  0
 52 59  1  0  0  0  0
 53 59  1  0  0  0  0
 54 71  1  0  0  0  0
 55 61  1  0  0  0  0
 55 78  1  0  0  0  0
 56 70  1  0  0  0  0
 57 59  1  0  0  0  0
 57 69  1  0  0  0  0
 58 71  1  0  0  0  0
 60 62  1  0  0  0  0
M  CHG  2  63   1  71   1
M  ISO  4  35 100  55 101  70 100  78 101
M  END
> <Batch ID>
0085

> <Smiles>
CNC(C)C(=O)NC(C(=O)N1Cc2cc([101O:1][101CH2:1]n3cc(C(C)[100NH:0][100C:0](=O)N4CCCC(n5nc(-c6ccc(Oc7ccc(F)cc7F)cc6)c(C(N)=O)c5N)C4)nc3C)ccc2CC1C(=O)NC1CCCc2ccccc21)C(C)(C)C

> <Shape>
0.142

> <Color>
0.182

> <Negative vol penalty>
0.000

$$$$

  -OEChem-04052318563D

 84 92  0     1  0  0  0  0  0999 V2000
  -33.5632  -31.3823   27.0482 C   0  0  0  0  0  0  0  0  0  0  0  0
  -32.9114  -30.1700   27.2506 C   0  0  0  0  0  0  0  0  0  0  0  0
  -23.0671   -9.7729   19.9912 C   0  0  0  0  0  0  0  0  0  0  0  0
  -23.8067   -9.8645   22.2894 C   0  0  0  0  0  0  0  0  0  0  0  0
  -33.3922  -32.0728   25.8491 C   0  0  0  0  0  0  0  0  0  0  0  0
  -32.0872  -29.6481   26.2542 C   0  0  0  0  0  0  0  0  0  0  0  0
  -32.8443  -24.6977   25.5024 C   0  0  0  0  0  0  0  0  0  0  0  0
  -31.2157  -17.4990   24.1617 C   0  0  0  0  0  0  0  0  0  0  0  0
  -30.8076  -17.9593   25.4136 C   0  0  0  0  0  0  0  0  0  0  0  0
  -22.3297   -8.6233   20.2743 C   0  0  0  0  0  0  0  0  0  0  0  0
  -23.0692   -8.7148   22.5725 C   0  0  0  0  0  0  0  0  0  0  0  0
  -32.2750  -23.8194   26.4234 C   0  0  0  0  0  0  0  0  0  0  0  0
  -19.3748   -7.8541   21.7269 C   0  0  0  0  0  0  0  0  0  0  0  0
  -18.0726   -7.7811   21.2324 C   0  0  0  0  0  0  0  0  0  0  0  0
  -30.4605  -23.3978   24.8907 C   0  0  0  0  0  0  0  0  0  0  0  0
  -28.9682  -17.7870   23.3232 C   0  0  0  0  0  0  0  0  0  0  0  0
  -18.6584   -5.7982   19.9825 C   0  0  0  0  0  0  0  0  0  0  0  0
  -23.8057  -10.3935   20.9988 C   0  0  0  0  0  0  0  0  0  0  0  0
  -24.1297  -12.9156   20.7949 C   0  0  0  0  0  0  0  0  0  0  0  0
  -32.5731  -31.5543   24.8338 C   0  0  0  0  0  0  0  0  0  0  0  0
  -32.2193  -24.9413   24.2710 C   0  0  0  0  0  0  0  0  0  0  0  0
  -31.9039  -30.3329   25.0409 C   0  0  0  0  0  0  0  0  0  0  0  0
  -31.0253  -24.2776   23.9548 C   0  0  0  0  0  0  0  0  0  0  0  0
  -30.2960  -17.4129   23.1165 C   0  0  0  0  0  0  0  0  0  0  0  0
  -29.4799  -18.3334   25.6203 C   0  0  0  0  0  0  0  0  0  0  0  0
  -28.5601  -18.2472   24.5751 C   0  0  0  0  0  0  0  0  0  0  0  0
  -22.3307   -8.0943   21.5650 C   0  0  0  0  0  0  0  0  0  0  0  0
  -31.0814  -23.1715   26.1189 C   0  0  0  0  0  0  0  0  0  0  0  0
  -20.3189   -6.8992   21.3492 C   0  0  0  0  0  0  0  0  0  0  0  0
  -17.7144   -6.7532   20.3602 C   0  0  0  0  0  0  0  0  0  0  0  0
  -19.9607   -5.8713   20.4770 C   0  0  0  0  0  0  0  0  0  0  0  0
  -24.5681  -11.5808   20.7068 C   0  0  0  0  0  0  0  0  0  0  0  0
  -25.2194  -13.6607   20.4155 C   0  0  0  0  0  0  0  0  0  0  0  0
  -22.8518  -13.4356   21.1850 C   0  0  0  0  0  0  0  0  0  0  0  0
  -30.9869  -27.5032   22.8490 C   0  0  0  0  0  0  0  0  0  0  0  0
  -30.6636  -25.4731   20.3397 C   0  0  0  0  0  0  0  0  0  0  0  0
  -30.3768  -22.2576   19.2328 C   0  0  0  0  0  0  0  0  0  0  0  0
  -30.6935  -14.7281   20.6155 C   0  0  0  0  0  0  0  0  0  0  0  0
  -32.3815  -32.3600   23.5732 C   0  0  0  0  0  0  0  0  0  0  0  0
  -32.8601  -25.8711   23.2774 C   0  0  0  0  0  0  0  0  0  0  0  0
  -30.3251  -24.4892   22.6382 C   0  0  0  0  0  0  0  0  0  0  0  0
  -31.7873  -31.5550   22.4203 C   0  0  0  0  0  0  0  0  0  0  0  0
  -29.5948  -12.2543   18.3025 C   0  0  0  0  0  0  0  0  0  0  0  0
  -30.5964  -30.7322   22.9016 C   0  0  0  0  0  0  0  0  0  0  0  0
  -28.1558  -11.9645   18.7330 C   0  0  0  0  0  0  0  0  0  0  0  0
  -30.4996  -12.5233   19.5029 C   0  0  0  0  0  0  0  0  0  0  0  0
  -28.5803  -13.2868   20.8472 C   0  0  0  0  0  0  0  0  0  0  0  0
  -31.0212  -29.7221   23.9743 C   0  0  1  0  0  0  0  0  0  0  0  0
  -31.8701  -26.4375   22.2643 C   0  0  1  0  0  0  0  0  0  0  0  0
  -27.6179  -13.0643   19.6680 C   0  0  2  0  0  0  0  0  0  0  0  0
  -26.3387  -17.5800   25.5272 C   0  0  0  0  0  0  0  0  0  0  0  0
  -30.5312  -17.9591   20.6654 C   0  0  0  0  0  0  0  0  0  0  0  0
  -30.2322  -20.3638   17.5927 C   0  0  0  0  0  0  0  0  0  0  0  0
  -27.7172  -26.2601   20.2438 C   0  0  0  0  0  0  0  0  0  0  0  0
  -27.2980  -24.2476   18.8148 C   0  0  0  0  0  0  0  0  0  0  0  0
  -28.8155  -26.0549   18.0064 C   0  0  0  0  0  0  0  0  0  0  0  0
  -33.3205  -21.9698   19.1288 C   0  0  0  0  0  0  0  0  0  0  0  0
  -29.0621  -18.8267   26.9825 C   0  0  0  0  0  0  0  0  0  0  0  0
  -27.1333  -18.6419   24.7731 C   0  0  0  0  0  0  0  0  0  0  0  0
  -29.8382  -20.0574   27.4566 C   0  0  0  0  0  0  0  0  0  0  0  0
  -29.7543  -21.2333   26.4903 C   0  0  0  0  0  0  0  0  0  1  0  0
  -30.7324  -16.9203   21.7783 C   0  0  2  0  0  0  0  0  0  0  0  0
  -29.5902  -24.5243   19.8636 C   0  0  1  0  0  0  0  0  0  0  0  0
  -31.0837  -21.5097   18.1169 C   0  0  2  0  0  0  0  0  0  0  0  0
  -28.3672  -25.2690   19.2578 C   0  0  0  0  0  0  0  0  0  0  0  0
  -25.8373  -11.4805   20.3029 N   0  0  0  0  0  0  0  0  0  0  0  0
  -26.2057  -12.7618   20.1338 N   0  0  0  0  0  0  0  0  0  0  0  0
  -30.9879  -25.4126   21.7025 N   0  0  0  0  0  0  0  0  0  0  0  0
  -29.9336  -13.5774   20.3482 N   0  0  0  0  0  0  0  0  0  0  0  0
  -25.4205  -14.9904   20.2985 N   0  0  0  0  0  0  0  0  0  0  0  0
  -21.8437  -12.5307   21.5447 N   0  0  0  0  0  0  0  0  0  0  0  0
  -31.6758  -28.5839   23.3657 N   0  0  0  0  0  0  0  0  0  0  0  0
  -30.2423  -23.5990   18.9432 N   0  0  0  0  0  0  0  0  0  0  0  0
  -30.0800  -15.6806   21.4200 N   0  0  0  0  0  0  0  0  0  0  0  0
  -32.3755  -20.9498   18.6058 N   0  3  0  0  0  0  0  0  0  0  0  0
  -22.6058  -14.6656   21.1980 O   0  0  0  0  0  0  0  0  0  0  0  0
  -29.7704  -27.3565   22.8314 O   0  0  0  0  0  0  0  0  0  0  0  0
  -31.1997  -26.2347   19.5309 O   0  0  0  0  0  0  0  0  0  0  0  0
  -29.9800  -21.7064   20.2571 O   0  0  0  0  0  0  0  0  0  0  0  0
  -31.8321  -14.8967   20.1658 O   0  0  0  0  0  0  0  0  0  0  0  0
  -21.6111   -6.9726   21.8416 O   0  0  0  0  0  0  0  0  0  0  0  0
  -30.5233  -22.3142   27.0163 O   0  0  0  0  0  0  0  0  0  1  0  0
  -16.4635   -6.6823   19.8866 F   0  0  0  0  0  0  0  0  0  0  0  0
  -20.8629   -4.9503   20.1115 F   0  0  0  0  0  0  0  0  0  0  0  0
  1  2  1  0  0  0  0
  1  5  2  0  0  0  0
  2  6  2  0  0  0  0
  3 10  2  0  0  0  0
  3 18  1  0  0  0  0
  4 11  1  0  0  0  0
  4 18  2  0  0  0  0
  5 20  1  0  0  0  0
  6 22  1  0  0  0  0
  7 12  2  0  0  0  0
  7 21  1  0  0  0  0
  8  9  2  0  0  0  0
  8 24  1  0  0  0  0
  9 25  1  0  0  0  0
 10 27  1  0  0  0  0
 11 27  2  0  0  0  0
 12 28  1  0  0  0  0
 13 14  2  0  0  0  0
 13 29  1  0  0  0  0
 14 30  1  0  0  0  0
 15 23  1  0  0  0  0
 15 28  2  0  0  0  0
 16 24  2  0  0  0  0
 16 26  1  0  0  0  0
 17 30  2  0  0  0  0
 17 31  1  0  0  0  0
 18 32  1  0  0  0  0
 19 32  1  0  0  0  0
 19 33  2  0  0  0  0
 19 34  1  0  0  0  0
 20 22  2  0  0  0  0
 20 39  1  0  0  0  0
 21 23  2  0  0  0  0
 21 40  1  0  0  0  0
 22 48  1  0  0  0  0
 23 41  1  0  0  0  0
 24 62  1  0  0  0  0
 25 26  2  0  0  0  0
 25 58  1  0  0  0  0
 26 59  1  0  0  0  0
 27 81  1  0  0  0  0
 28 82  1  0  0  0  0
 29 31  2  0  0  0  0
 29 81  1  0  0  0  0
 30 83  1  0  0  0  0
 31 84  1  0  0  0  0
 32 66  2  0  0  0  0
 33 67  1  0  0  0  0
 33 70  1  0  0  0  0
 34 71  1  0  0  0  0
 34 76  2  0  0  0  0
 35 49  1  0  0  0  0
 35 72  1  0  0  0  0
 35 77  2  0  0  0  0
 36 63  1  0  0  0  0
 36 68  1  0  0  0  0
 36 78  2  0  0  0  0
 37 64  1  0  0  0  0
 37 73  1  0  0  0  0
 37 79  2  0  0  0  0
 38 69  1  0  0  0  0
 38 74  1  0  0  0  0
 38 80  2  0  0  0  0
 39 42  1  0  0  0  0
 40 49  1  0  0  0  0
 41 68  1  0  0  0  0
 42 44  1  0  0  0  0
 43 45  1  0  0  0  0
 43 46  1  0  0  0  0
 44 48  1  0  0  0  0
 45 50  1  0  0  0  0
 46 69  1  0  0  0  0
 47 50  1  0  0  0  0
 47 69  1  0  0  0  0
 48 72  1  0  0  0  0
 49 68  1  0  0  0  0
 50 67  1  0  0  0  0
 51 59  1  0  0  0  0
 52 62  1  0  0  0  0
 53 64  1  0  0  0  0
 54 65  1  0  0  0  0
 55 65  1  0  0  0  0
 56 65  1  0  0  0  0
 57 75  1  0  0  0  0
 58 60  1  0  0  0  0
 60 61  1  0  0  0  0
 61 82  1  0  0  0  0
 62 74  1  0  0  0  0
 63 65  1  0  0  0  0
 63 73  1  0  0  0  0
 64 75  1  0  0  0  0
 66 67  1  0  0  0  0
M  CHG  1  75   1
M  ISO  4  38 100  61 101  74 100  82 101
M  END
> <Batch ID>
0085

> <Smiles>
CCc1cc(C(C)[100NH:0][100C:0](=O)N2CCCC(n3nc(-c4ccc(Oc5ccc(F)cc5F)cc4)c(C(N)=O)c3N)C2)ccc1CC[101CH2:1][101O:1]c1ccc2c(c1)CN(C(=O)C(NC(=O)C(C)NC)C(C)(C)C)C(C(=O)NC1CCCc3ccccc31)C2

> <Shape>
0.208

> <Color>
0.206

> <Negative vol penalty>
0.000

$$$$

  -OEChem-04052318563D

 85 93  0     1  0  0  0  0  0999 V2000
  -28.3371  -32.0499   22.6047 C   0  0  0  0  0  0  0  0  0  0  0  0
  -29.0295  -30.8647   22.3786 C   0  0  0  0  0  0  0  0  0  0  0  0
  -23.0819   -9.8629   19.9439 C   0  0  0  0  0  0  0  0  0  0  0  0
  -23.8429   -9.8776   22.2369 C   0  0  0  0  0  0  0  0  0  0  0  0
  -27.2003  -32.0486   23.4119 C   0  0  0  0  0  0  0  0  0  0  0  0
  -28.5861  -29.6776   22.9605 C   0  0  0  0  0  0  0  0  0  0  0  0
  -28.6111  -25.7935   19.7111 C   0  0  0  0  0  0  0  0  0  0  0  0
  -22.3430   -8.7071   20.1965 C   0  0  0  0  0  0  0  0  0  0  0  0
  -23.1040   -8.7219   22.4895 C   0  0  0  0  0  0  0  0  0  0  0  0
  -29.8414  -25.1947   19.4440 C   0  0  0  0  0  0  0  0  0  0  0  0
  -19.8795   -7.9116   23.0953 C   0  0  0  0  0  0  0  0  0  0  0  0
  -19.1234   -7.8709   24.2667 C   0  0  0  0  0  0  0  0  0  0  0  0
  -29.3056  -23.4197   20.9873 C   0  0  0  0  0  0  0  0  0  0  0  0
  -20.3733   -5.9402   25.0064 C   0  0  0  0  0  0  0  0  0  0  0  0
  -32.1630  -20.1815   19.1227 C   0  0  0  0  0  0  0  0  0  0  0  0
  -23.8319  -10.4481   20.9640 C   0  0  0  0  0  0  0  0  0  0  0  0
  -24.1630  -12.9745   20.8388 C   0  0  0  0  0  0  0  0  0  0  0  0
  -26.7371  -30.8592   23.9961 C   0  0  0  0  0  0  0  0  0  0  0  0
  -27.7218  -25.2148   20.6279 C   0  0  0  0  0  0  0  0  0  0  0  0
  -27.4428  -29.6606   23.7773 C   0  0  0  0  0  0  0  0  0  0  0  0
  -28.0635  -24.0119   21.2623 C   0  0  0  0  0  0  0  0  0  0  0  0
  -31.3531  -19.1322   18.7483 C   0  0  0  0  0  0  0  0  0  0  0  0
  -30.7823  -19.4646   17.4950 C   0  0  0  0  0  0  0  0  0  0  0  0
  -22.3540   -8.1366   21.4693 C   0  0  0  0  0  0  0  0  0  0  0  0
  -30.1901  -24.0091   20.0844 C   0  0  0  0  0  0  0  0  0  0  0  0
  -20.8826   -6.9666   22.8794 C   0  0  0  0  0  0  0  0  0  0  0  0
  -19.3702   -6.8852   25.2222 C   0  0  0  0  0  0  0  0  0  0  0  0
  -21.1295   -5.9809   23.8349 C   0  0  0  0  0  0  0  0  0  0  0  0
  -24.5958  -11.6417   20.7035 C   0  0  0  0  0  0  0  0  0  0  0  0
  -31.2609  -20.7069   17.1415 C   0  0  0  0  0  0  0  0  0  0  0  0
  -25.2518  -13.7278   20.4734 C   0  0  0  0  0  0  0  0  0  0  0  0
  -22.8905  -13.4857   21.2573 C   0  0  0  0  0  0  0  0  0  0  0  0
  -26.4416  -26.1249   23.3914 C   0  0  0  0  0  0  0  0  0  0  0  0
  -24.7529  -23.3742   23.0683 C   0  0  0  0  0  0  0  0  0  0  0  0
  -24.5373  -20.2490   21.7142 C   0  0  0  0  0  0  0  0  0  0  0  0
  -30.7312  -14.7704   20.6570 C   0  0  0  0  0  0  0  0  0  0  0  0
  -25.5308  -30.9158   24.8995 C   0  0  0  0  0  0  0  0  0  0  0  0
  -26.3872  -25.8591   20.8849 C   0  0  0  0  0  0  0  0  0  0  0  0
  -27.1357  -23.3395   22.2398 C   0  0  0  0  0  0  0  0  0  0  0  0
  -24.9113  -29.5481   25.1749 C   0  0  0  0  0  0  0  0  0  0  0  0
  -29.6025  -12.3763   18.2756 C   0  0  0  0  0  0  0  0  0  0  0  0
  -25.9935  -28.5338   25.5310 C   0  0  0  0  0  0  0  0  0  0  0  0
  -28.1666  -12.0774   18.7098 C   0  0  0  0  0  0  0  0  0  0  0  0
  -30.5193  -12.6034   19.4755 C   0  0  0  0  0  0  0  0  0  0  0  0
  -28.6152  -13.3292   20.8616 C   0  0  0  0  0  0  0  0  0  0  0  0
  -26.9788  -28.3481   24.3708 C   0  0  1  0  0  0  0  0  0  0  0  0
  -25.7761  -25.4545   22.2229 C   0  0  1  0  0  0  0  0  0  0  0  0
  -27.6412  -13.1482   19.6848 C   0  0  2  0  0  0  0  0  0  0  0  0
  -30.9932  -21.5260   15.9405 C   0  0  0  0  0  0  0  0  0  0  0  0
  -30.5431  -17.4830   15.9775 C   0  0  0  0  0  0  0  0  0  0  0  0
  -23.0579  -18.2227   21.6617 C   0  0  0  0  0  0  0  0  0  0  0  0
  -29.0172  -18.3980   20.8472 C   0  0  0  0  0  0  0  0  0  0  0  0
  -25.7134  -22.6036   25.8600 C   0  0  0  0  0  0  0  0  0  0  0  0
  -25.0216  -20.2475   25.3720 C   0  0  0  0  0  0  0  0  0  0  0  0
  -23.3151  -22.0669   25.3969 C   0  0  0  0  0  0  0  0  0  0  0  0
  -24.1390  -20.4723   18.7901 C   0  0  0  0  0  0  0  0  0  0  0  0
  -31.1285  -17.8936   19.5202 C   0  0  0  0  0  0  0  0  0  0  0  0
  -29.8461  -18.6339   16.7098 C   0  0  0  0  0  0  0  0  0  0  0  0
  -32.8464  -22.4442   18.1662 C   0  0  0  0  0  0  0  0  0  0  0  0
  -30.7886  -16.9237   21.8895 C   0  0  0  0  0  0  0  0  0  0  0  0
  -31.9426  -23.6188   18.5248 C   0  0  0  0  0  0  0  0  0  1  0  0
  -24.9608  -21.9372   23.4819 C   0  0  1  0  0  0  0  0  0  0  0  0
  -23.4069  -19.5412   20.9891 C   0  0  2  0  0  0  0  0  0  0  0  0
  -30.5186  -18.1014   20.9380 C   0  0  2  0  0  0  0  0  0  0  0  0
  -24.7713  -21.7273   25.0108 C   0  0  0  0  0  0  0  0  0  0  0  0
  -25.8608  -11.5504   20.2848 N   0  0  0  0  0  0  0  0  0  0  0  0
  -32.0995  -21.1329   18.1383 N   0  0  0  0  0  0  0  0  0  0  0  0
  -26.2322  -12.8353   20.1537 N   0  0  0  0  0  0  0  0  0  0  0  0
  -25.8449  -24.0116   22.4624 N   0  0  0  0  0  0  0  0  0  0  0  0
  -29.9649  -13.6314   20.3597 N   0  0  0  0  0  0  0  0  0  0  0  0
  -25.4565  -15.0600   20.3977 N   0  0  0  0  0  0  0  0  0  0  0  0
  -21.8826  -12.5730   21.5969 N   0  0  0  0  0  0  0  0  0  0  0  0
  -26.4003  -27.5054   23.3464 N   0  0  0  0  0  0  0  0  0  0  0  0
  -24.0628  -21.1400   22.6534 N   0  0  0  0  0  0  0  0  0  0  0  0
  -30.1286  -15.6984   21.4975 N   0  0  0  0  0  0  0  0  0  0  0  0
  -23.7925  -19.2609   19.5771 N   0  3  0  0  0  0  0  0  0  0  0  0
  -22.6491  -14.7155   21.3123 O   0  0  0  0  0  0  0  0  0  0  0  0
  -26.9533  -25.4403   24.2695 O   0  0  0  0  0  0  0  0  0  0  0  0
  -23.6596  -23.9090   23.2688 O   0  0  0  0  0  0  0  0  0  0  0  0
  -25.7227  -20.0304   21.4742 O   0  0  0  0  0  0  0  0  0  0  0  0
  -31.8662  -14.9497   20.2024 O   0  0  0  0  0  0  0  0  0  0  0  0
  -21.6330   -7.0089   21.7163 O   0  0  0  0  0  0  0  0  0  0  0  0
  -31.3907  -23.4228   19.8261 O   0  0  0  0  0  0  0  0  0  1  0  0
  -18.6450   -6.8471   26.3477 F   0  0  0  0  0  0  0  0  0  0  0  0
  -22.0925   -5.0711   23.6337 F   0  0  0  0  0  0  0  0  0  0  0  0
  1  2  1  0  0  0  0
  1  5  2  0  0  0  0
  2  6  2  0  0  0  0
  3  8  2  0  0  0  0
  3 16  1  0  0  0  0
  4  9  1  0  0  0  0
  4 16  2  0  0  0  0
  5 18  1  0  0  0  0
  6 20  1  0  0  0  0
  7 10  2  0  0  0  0
  7 19  1  0  0  0  0
  8 24  1  0  0  0  0
  9 24  2  0  0  0  0
 10 25  1  0  0  0  0
 11 12  2  0  0  0  0
 11 26  1  0  0  0  0
 12 27  1  0  0  0  0
 13 21  1  0  0  0  0
 13 25  2  0  0  0  0
 14 27  2  0  0  0  0
 14 28  1  0  0  0  0
 15 22  2  0  0  0  0
 15 67  1  0  0  0  0
 16 29  1  0  0  0  0
 17 29  1  0  0  0  0
 17 31  2  0  0  0  0
 17 32  1  0  0  0  0
 18 20  2  0  0  0  0
 18 37  1  0  0  0  0
 19 21  2  0  0  0  0
 19 38  1  0  0  0  0
 20 46  1  0  0  0  0
 21 39  1  0  0  0  0
 22 23  1  0  0  0  0
 22 57  1  0  0  0  0
 23 30  2  0  0  0  0
 23 58  1  0  0  0  0
 24 82  1  0  0  0  0
 25 83  1  0  0  0  0
 26 28  2  0  0  0  0
 26 82  1  0  0  0  0
 27 84  1  0  0  0  0
 28 85  1  0  0  0  0
 29 66  2  0  0  0  0
 30 49  1  0  0  0  0
 30 67  1  0  0  0  0
 31 68  1  0  0  0  0
 31 71  1  0  0  0  0
 32 72  1  0  0  0  0
 32 77  2  0  0  0  0
 33 47  1  0  0  0  0
 33 73  1  0  0  0  0
 33 78  2  0  0  0  0
 34 62  1  0  0  0  0
 34 69  1  0  0  0  0
 34 79  2  0  0  0  0
 35 63  1  0  0  0  0
 35 74  1  0  0  0  0
 35 80  2  0  0  0  0
 36 70  1  0  0  0  0
 36 75  1  0  0  0  0
 36 81  2  0  0  0  0
 37 40  1  0  0  0  0
 38 47  1  0  0  0  0
 39 69  1  0  0  0  0
 40 42  1  0  0  0  0
 41 43  1  0  0  0  0
 41 44  1  0  0  0  0
 42 46  1  0  0  0  0
 43 48  1  0  0  0  0
 44 70  1  0  0  0  0
 45 48  1  0  0  0  0
 45 70  1  0  0  0  0
 46 73  1  0  0  0  0
 47 69  1  0  0  0  0
 48 68  1  0  0  0  0
 50 58  1  0  0  0  0
 51 63  1  0  0  0  0
 52 64  1  0  0  0  0
 53 65  1  0  0  0  0
 54 65  1  0  0  0  0
 55 65  1  0  0  0  0
 56 76  1  0  0  0  0
 57 64  1  0  0  0  0
 59 61  1  0  0  0  0
 59 67  1  0  0  0  0
 60 64  1  0  0  0  0
 60 75  1  0  0  0  0
 61 83  1  0  0  0  0
 62 65  1  0  0  0  0
 62 74  1  0  0  0  0
 63 76  1  0  0  0  0
 66 68  1  0  0  0  0
M  CHG  1  76   1
M  ISO  4  36 100  61 101  75 100  83 101
M  END
> <Batch ID>
0085

> <Smiles>
CCc1c(CC(C)C[100NH:0][100C:0](=O)N2CCCC(n3nc(-c4ccc(Oc5ccc(F)cc5F)cc4)c(C(N)=O)c3N)C2)cn(C[101CH2:1][101O:1]c2ccc3c(c2)CN(C(=O)C(NC(=O)C(C)NC)C(C)(C)C)C(C(=O)NC2CCCc4ccccc42)C3)c1C

> <Shape>
0.258

> <Color>
0.192

> <Negative vol penalty>
0.000

$$$$

  -OEChem-04052318563D

 89 97  0     1  0  0  0  0  0999 V2000
  -27.1964  -31.6278   21.8448 C   0  0  0  0  0  0  0  0  0  0  0  0
  -28.4409  -31.0410   21.6392 C   0  0  0  0  0  0  0  0  0  0  0  0
  -24.1173   -9.5983   20.5317 C   0  0  0  0  0  0  0  0  0  0  0  0
  -24.6756  -10.2263   22.7968 C   0  0  0  0  0  0  0  0  0  0  0  0
  -26.0406  -30.9769   21.4154 C   0  0  0  0  0  0  0  0  0  0  0  0
  -28.5303  -29.8023   21.0052 C   0  0  0  0  0  0  0  0  0  0  0  0
  -32.8074  -26.0572   16.6467 C   0  0  0  0  0  0  0  0  0  0  0  0
  -23.7540   -8.3263   20.9738 C   0  0  0  0  0  0  0  0  0  0  0  0
  -24.3123   -8.9543   23.2390 C   0  0  0  0  0  0  0  0  0  0  0  0
  -33.4416  -24.8184   16.5633 C   0  0  0  0  0  0  0  0  0  0  0  0
  -25.6615   -5.8545   23.2889 C   0  0  0  0  0  0  0  0  0  0  0  0
  -26.5141   -5.2126   24.1869 C   0  0  0  0  0  0  0  0  0  0  0  0
  -31.3834  -23.8233   15.7934 C   0  0  0  0  0  0  0  0  0  0  0  0
  -27.8088  -19.5068   21.9538 C   0  0  0  0  0  0  0  0  0  0  0  0
  -24.7289   -5.1143   25.8118 C   0  0  0  0  0  0  0  0  0  0  0  0
  -24.5781  -10.5484   21.4431 C   0  0  0  0  0  0  0  0  0  0  0  0
  -24.1240  -12.9942   20.8779 C   0  0  0  0  0  0  0  0  0  0  0  0
  -26.1165  -29.7341   20.7672 C   0  0  0  0  0  0  0  0  0  0  0  0
  -31.4513  -26.1864   16.3139 C   0  0  0  0  0  0  0  0  0  0  0  0
  -27.3743  -29.1335   20.5680 C   0  0  0  0  0  0  0  0  0  0  0  0
  -30.7350  -25.0653   15.8710 C   0  0  0  0  0  0  0  0  0  0  0  0
  -27.8444  -20.8810   22.1625 C   0  0  0  0  0  0  0  0  0  0  0  0
  -28.9353  -21.6184   21.7158 C   0  0  0  0  0  0  0  0  0  0  0  0
  -23.8515   -8.0042   22.3275 C   0  0  0  0  0  0  0  0  0  0  0  0
  -32.7288  -23.7006   16.1393 C   0  0  0  0  0  0  0  0  0  0  0  0
  -24.3425   -6.1265   23.6523 C   0  0  0  0  0  0  0  0  0  0  0  0
  -26.0478   -4.8425   25.4484 C   0  0  0  0  0  0  0  0  0  0  0  0
  -23.8762   -5.7563   24.9138 C   0  0  0  0  0  0  0  0  0  0  0  0
  -24.9540  -11.8624   20.9869 C   0  0  0  0  0  0  0  0  0  0  0  0
  -29.9567  -20.9396   21.0710 C   0  0  0  0  0  0  0  0  0  0  0  0
  -28.8806  -18.9225   21.2981 C   0  0  0  0  0  0  0  0  0  0  0  0
  -24.9509  -13.9818   20.4012 C   0  0  0  0  0  0  0  0  0  0  0  0
  -22.7301  -13.1397   21.1807 C   0  0  0  0  0  0  0  0  0  0  0  0
  -28.8270  -27.0439   17.8891 C   0  0  0  0  0  0  0  0  0  0  0  0
  -27.4630  -26.8210   14.9545 C   0  0  0  0  0  0  0  0  0  0  0  0
  -27.5467  -25.4869   11.8144 C   0  0  0  0  0  0  0  0  0  0  0  0
  -29.7934  -16.7294   20.4596 C   0  0  0  0  0  0  0  0  0  0  0  0
  -24.8363  -29.0466   20.3632 C   0  0  0  0  0  0  0  0  0  0  0  0
  -30.7888  -27.5349   16.3837 C   0  0  0  0  0  0  0  0  0  0  0  0
  -29.2825  -25.1550   15.4827 C   0  0  0  0  0  0  0  0  0  0  0  0
  -25.0437  -27.9110   19.3645 C   0  0  0  0  0  0  0  0  0  0  0  0
  -29.6539  -13.7297   18.5465 C   0  0  0  0  0  0  0  0  0  0  0  0
  -26.1982  -27.0167   19.8051 C   0  0  0  0  0  0  0  0  0  0  0  0
  -28.3505  -13.0696   19.0019 C   0  0  0  0  0  0  0  0  0  0  0  0
  -30.3663  -14.4337   19.7001 C   0  0  0  0  0  0  0  0  0  0  0  0
  -28.2373  -14.7302   20.9037 C   0  0  0  0  0  0  0  0  0  0  0  0
  -27.5139  -27.8024   19.8618 C   0  0  1  0  0  0  0  0  0  0  0  0
  -29.2710  -27.4491   16.5120 C   0  0  1  0  0  0  0  0  0  0  0  0
  -27.4512  -14.0636   19.7629 C   0  0  2  0  0  0  0  0  0  0  0  0
  -26.7043  -21.5393   22.8666 C   0  0  0  0  0  0  0  0  0  0  0  0
  -28.1153  -23.8586   20.9442 C   0  0  0  0  0  0  0  0  0  0  0  0
  -26.2757  -25.4603    9.6509 C   0  0  0  0  0  0  0  0  0  0  0  0
  -34.1741  -21.9447   20.2915 C   0  0  0  0  0  0  0  0  0  0  0  0
  -25.3939  -24.9534   16.1958 C   0  0  0  0  0  0  0  0  0  0  0  0
  -24.7629  -24.2291   13.8838 C   0  0  0  0  0  0  0  0  0  0  0  0
  -24.4622  -26.6087   14.5690 C   0  0  0  0  0  0  0  0  0  0  0  0
  -32.4643  -18.9381   17.0723 C   0  0  0  0  0  0  0  0  0  0  0  0
  -34.4555  -19.7658   15.8252 C   0  0  0  0  0  0  0  0  0  0  0  0
  -29.8328  -26.6309   10.3232 C   0  0  0  0  0  0  0  0  0  0  0  0
  -29.0009  -23.0940   21.9245 C   0  0  0  0  0  0  0  0  0  0  0  0
  -31.1661  -21.6863   20.5655 C   0  0  0  0  0  0  0  0  0  0  0  0
  -32.0059  -20.8207   19.6188 C   0  0  0  0  0  0  0  0  0  0  0  0
  -34.0846  -20.6074   18.1582 C   0  0  0  0  0  0  0  0  0  0  0  0
  -32.5359  -21.3339   16.2711 C   0  0  0  0  0  0  0  0  0  1  0  0
  -26.7947  -25.7200   14.1670 C   0  0  1  0  0  0  0  0  0  0  0  0
  -27.3903  -26.1232   10.4451 C   0  0  2  0  0  0  0  0  0  0  0  0
  -33.2823  -21.5300   19.1133 C   0  0  2  0  0  0  0  0  0  0  0  0
  -25.3803  -25.3754   14.7130 C   0  0  0  0  0  0  0  0  0  0  0  0
  -33.3667  -20.1631   16.8478 C   0  0  0  0  0  0  0  0  0  0  0  0
  -26.2117  -12.1071   20.6096 N   0  0  0  0  0  0  0  0  0  0  0  0
  -29.9575  -19.6059   20.8499 N   0  0  0  0  0  0  0  0  0  0  0  0
  -26.1781  -13.4040   20.2588 N   0  0  0  0  0  0  0  0  0  0  0  0
  -28.6776  -26.4941   15.5739 N   0  0  0  0  0  0  0  0  0  0  0  0
  -29.4544  -15.3626   20.3713 N   0  0  0  0  0  0  0  0  0  0  0  0
  -24.7407  -15.2794   20.0940 N   0  0  0  0  0  0  0  0  0  0  0  0
  -22.0308  -12.0244   21.6615 N   0  0  0  0  0  0  0  0  0  0  0  0
  -28.8348  -17.5216   21.0905 N   0  0  0  0  0  0  0  0  0  0  0  0
  -28.0489  -27.9890   18.5301 N   0  0  0  0  0  0  0  0  0  0  0  0
  -26.8088  -26.1490   12.7727 N   0  0  0  0  0  0  0  0  0  0  0  0
  -28.6569  -26.0011    9.6694 N   0  3  0  0  0  0  0  0  0  0  0  0
  -22.1189  -14.2224   21.0138 O   0  0  0  0  0  0  0  0  0  0  0  0
  -29.1640  -25.9539   18.3364 O   0  0  0  0  0  0  0  0  0  0  0  0
  -26.9306  -27.9323   15.0118 O   0  0  0  0  0  0  0  0  0  0  0  0
  -28.2501  -24.4988   12.0134 O   0  0  0  0  0  0  0  0  0  0  0  0
  -30.8435  -17.1695   19.9846 O   0  0  0  0  0  0  0  0  0  0  0  0
  -23.4970   -6.7632   22.7594 O   0  0  0  0  0  0  0  0  0  0  0  0
  -33.3493  -22.4823   16.0571 O   0  0  0  0  0  0  0  0  0  1  0  0
  -26.8663   -4.2246   26.3100 F   0  0  0  0  0  0  0  0  0  0  0  0
  -22.6097   -6.0138   25.2682 F   0  0  0  0  0  0  0  0  0  0  0  0
  1  2  1  0  0  0  0
  1  5  2  0  0  0  0
  2  6  2  0  0  0  0
  3  8  2  0  0  0  0
  3 16  1  0  0  0  0
  4  9  1  0  0  0  0
  4 16  2  0  0  0  0
  5 18  1  0  0  0  0
  6 20  1  0  0  0  0
  7 10  2  0  0  0  0
  7 19  1  0  0  0  0
  8 24  1  0  0  0  0
  9 24  2  0  0  0  0
 10 25  1  0  0  0  0
 11 12  2  0  0  0  0
 11 26  1  0  0  0  0
 12 27  1  0  0  0  0
 13 21  1  0  0  0  0
 13 25  2  0  0  0  0
 14 22  2  0  0  0  0
 14 31  1  0  0  0  0
 15 27  2  0  0  0  0
 15 28  1  0  0  0  0
 16 29  1  0  0  0  0
 17 29  1  0  0  0  0
 17 32  2  0  0  0  0
 17 33  1  0  0  0  0
 18 20  2  0  0  0  0
 18 38  1  0  0  0  0
 19 21  2  0  0  0  0
 19 39  1  0  0  0  0
 20 47  1  0  0  0  0
 21 40  1  0  0  0  0
 22 23  1  0  0  0  0
 22 50  1  0  0  0  0
 23 30  2  0  0  0  0
 23 60  1  0  0  0  0
 24 86  1  0  0  0  0
 25 87  1  0  0  0  0
 26 28  2  0  0  0  0
 26 86  1  0  0  0  0
 27 88  1  0  0  0  0
 28 89  1  0  0  0  0
 29 70  2  0  0  0  0
 30 61  1  0  0  0  0
 30 71  1  0  0  0  0
 31 71  2  0  0  0  0
 31 77  1  0  0  0  0
 32 72  1  0  0  0  0
 32 75  1  0  0  0  0
 33 76  1  0  0  0  0
 33 81  2  0  0  0  0
 34 48  1  0  0  0  0
 34 78  1  0  0  0  0
 34 82  2  0  0  0  0
 35 65  1  0  0  0  0
 35 73  1  0  0  0  0
 35 83  2  0  0  0  0
 36 66  1  0  0  0  0
 36 79  1  0  0  0  0
 36 84  2  0  0  0  0
 37 74  1  0  0  0  0
 37 77  1  0  0  0  0
 37 85  2  0  0  0  0
 38 41  1  0  0  0  0
 39 48  1  0  0  0  0
 40 73  1  0  0  0  0
 41 43  1  0  0  0  0
 42 44  1  0  0  0  0
 42 45  1  0  0  0  0
 43 47  1  0  0  0  0
 44 49  1  0  0  0  0
 45 74  1  0  0  0  0
 46 49  1  0  0  0  0
 46 74  1  0  0  0  0
 47 78  1  0  0  0  0
 48 73  1  0  0  0  0
 49 72  1  0  0  0  0
 51 60  1  0  0  0  0
 52 66  1  0  0  0  0
 53 67  1  0  0  0  0
 54 68  1  0  0  0  0
 55 68  1  0  0  0  0
 56 68  1  0  0  0  0
 57 69  1  0  0  0  0
 58 69  1  0  0  0  0
 59 80  1  0  0  0  0
 61 62  1  0  0  0  0
 62 67  1  0  0  0  0
 63 67  1  0  0  0  0
 63 69  1  0  0  0  0
 64 69  1  0  0  0  0
 64 87  1  0  0  0  0
 65 68  1  0  0  0  0
 65 79  1  0  0  0  0
 66 80  1  0  0  0  0
 70 72  1  0  0  0  0
M  CHG  1  80   1
M  ISO  4  37 100  64 101  77 100  87 101
M  END
> <Batch ID>
0085

> <Smiles>
CCc1c(C)cc([100NH:0][100C:0](=O)N2CCCC(n3nc(-c4ccc(Oc5ccc(F)cc5F)cc4)c(C(N)=O)c3N)C2)nc1CCC(C)CC(C)(C)[101CH2:1][101O:1]c1ccc2c(c1)CN(C(=O)C(NC(=O)C(C)NC)C(C)(C)C)C(C(=O)NC1CCCc3ccccc31)C2

> <Shape>
0.211

> <Color>
0.116

> <Negative vol penalty>
0.000

$$$$

  -OEChem-04052318563D

 85 93  0     1  0  0  0  0  0999 V2000
  -32.4201  -27.4840   14.5724 C   0  0  0  0  0  0  0  0  0  0  0  0
  -31.3076  -26.6764   14.7861 C   0  0  0  0  0  0  0  0  0  0  0  0
  -29.6619  -18.3778   21.8846 C   0  0  0  0  0  0  0  0  0  0  0  0
  -27.8995  -17.8853   20.3072 C   0  0  0  0  0  0  0  0  0  0  0  0
  -32.9920  -28.1771   15.6384 C   0  0  0  0  0  0  0  0  0  0  0  0
  -30.7671  -26.5606   16.0662 C   0  0  0  0  0  0  0  0  0  0  0  0
  -24.8543  -25.9041   17.5202 C   0  0  0  0  0  0  0  0  0  0  0  0
  -30.3965  -17.2947   21.4022 C   0  0  0  0  0  0  0  0  0  0  0  0
  -28.6342  -16.8021   19.8246 C   0  0  0  0  0  0  0  0  0  0  0  0
  -24.0863  -24.7862   17.8431 C   0  0  0  0  0  0  0  0  0  0  0  0
  -29.8851  -13.6913   18.4218 C   0  0  0  0  0  0  0  0  0  0  0  0
  -29.2079  -12.4897   18.2139 C   0  0  0  0  0  0  0  0  0  0  0  0
  -24.4252  -25.2383   20.1883 C   0  0  0  0  0  0  0  0  0  0  0  0
  -19.9510  -18.1134   21.5827 C   0  0  0  0  0  0  0  0  0  0  0  0
  -28.6151  -12.4188   20.5550 C   0  0  0  0  0  0  0  0  0  0  0  0
  -19.1882  -19.7056   20.1852 C   0  0  0  0  0  0  0  0  0  0  0  0
  -28.4134  -18.6731   21.3372 C   0  0  0  0  0  0  0  0  0  0  0  0
  -27.6954  -21.1207   21.3738 C   0  0  0  0  0  0  0  0  0  0  0  0
  -32.4523  -28.0773   16.9305 C   0  0  0  0  0  0  0  0  0  0  0  0
  -25.4235  -26.6925   18.5305 C   0  0  0  0  0  0  0  0  0  0  0  0
  -31.3331  -27.2520   17.1508 C   0  0  0  0  0  0  0  0  0  0  0  0
  -25.1979  -26.3671   19.8756 C   0  0  0  0  0  0  0  0  0  0  0  0
  -19.5517  -18.3786   20.2495 C   0  0  0  0  0  0  0  0  0  0  0  0
  -29.8827  -16.5069   20.3722 C   0  0  0  0  0  0  0  0  0  0  0  0
  -23.8740  -24.4515   19.1773 C   0  0  0  0  0  0  0  0  0  0  0  0
  -29.9273  -14.2566   19.6963 C   0  0  0  0  0  0  0  0  0  0  0  0
  -28.5729  -11.8535   19.2805 C   0  0  0  0  0  0  0  0  0  0  0  0
  -29.2923  -13.6204   20.7629 C   0  0  0  0  0  0  0  0  0  0  0  0
  -27.6538  -19.7915   21.8355 C   0  0  0  0  0  0  0  0  0  0  0  0
  -19.8191  -19.2865   22.2925 C   0  0  0  0  0  0  0  0  0  0  0  0
  -26.7961  -21.7886   22.1686 C   0  0  0  0  0  0  0  0  0  0  0  0
  -28.4769  -21.6999   20.3205 C   0  0  0  0  0  0  0  0  0  0  0  0
  -28.3910  -27.4550   19.3770 C   0  0  0  0  0  0  0  0  0  0  0  0
  -26.8745  -29.4105   21.4742 C   0  0  0  0  0  0  0  0  0  0  0  0
  -24.0573  -30.1046   23.2710 C   0  0  0  0  0  0  0  0  0  0  0  0
  -21.9861  -20.0156   25.2624 C   0  0  0  0  0  0  0  0  0  0  0  0
  -33.1336  -28.8082   18.0602 C   0  0  0  0  0  0  0  0  0  0  0  0
  -26.2272  -27.9106   18.1660 C   0  0  0  0  0  0  0  0  0  0  0  0
  -25.7700  -27.1927   20.9980 C   0  0  0  0  0  0  0  0  0  0  0  0
  -32.2734  -28.9264   19.3157 C   0  0  0  0  0  0  0  0  0  0  0  0
  -24.8620  -21.6786   26.5433 C   0  0  0  0  0  0  0  0  0  0  0  0
  -31.6300  -27.5844   19.6502 C   0  0  0  0  0  0  0  0  0  0  0  0
  -25.9074  -21.5035   25.4403 C   0  0  0  0  0  0  0  0  0  0  0  0
  -23.9726  -20.4447   26.6789 C   0  0  0  0  0  0  0  0  0  0  0  0
  -24.3703  -19.8324   24.3250 C   0  0  0  0  0  0  0  0  0  0  0  0
  -30.7029  -27.1202   18.5204 C   0  0  1  0  0  0  0  0  0  0  0  0
  -27.1860  -28.3461   19.2698 C   0  0  1  0  0  0  0  0  0  0  0  0
  -25.2551  -21.0727   24.1128 C   0  0  2  0  0  0  0  0  0  0  0  0
  -23.1309  -31.7489   24.9249 C   0  0  0  0  0  0  0  0  0  0  0  0
  -18.5823  -16.2015   19.4331 C   0  0  0  0  0  0  0  0  0  0  0  0
  -20.9510  -16.8210   18.8485 C   0  0  0  0  0  0  0  0  0  0  0  0
  -19.0413  -17.9726   17.7494 C   0  0  0  0  0  0  0  0  0  0  0  0
  -28.5262  -28.1117   23.6867 C   0  0  0  0  0  0  0  0  0  0  0  0
  -26.9248  -29.0757   25.3524 C   0  0  0  0  0  0  0  0  0  0  0  0
  -28.2685  -30.5905   23.8955 C   0  0  0  0  0  0  0  0  0  0  0  0
  -21.8920  -30.9184   21.4247 C   0  0  0  0  0  0  0  0  0  0  0  0
  -20.0971  -19.5697   23.7158 C   0  0  0  0  0  0  0  0  0  0  0  0
  -20.3171  -22.5654   21.8725 C   0  0  0  0  0  0  0  0  0  0  0  0
  -21.1500  -22.5483   20.5898 C   0  0  0  0  0  0  0  0  0  0  0  0
  -19.0654  -21.6845   21.7870 C   0  0  0  0  0  0  0  0  0  0  0  0
  -22.4015  -23.4052   20.7242 C   0  0  0  0  0  0  0  0  0  1  0  0
  -26.3621  -29.2709   22.8874 C   0  0  1  0  0  0  0  0  0  0  0  0
  -23.2703  -31.3898   23.4538 C   0  0  2  0  0  0  0  0  0  0  0  0
  -19.5294  -17.4126   19.1346 C   0  0  0  0  0  0  0  0  0  0  0  0
  -27.5111  -29.2453   23.9346 C   0  0  0  0  0  0  0  0  0  0  0  0
  -26.7962  -19.6231   22.8455 N   0  0  0  0  0  0  0  0  0  0  0  0
  -19.3544  -20.2474   21.4330 N   0  0  0  0  0  0  0  0  0  0  0  0
  -26.2906  -20.8552   23.0250 N   0  0  0  0  0  0  0  0  0  0  0  0
  -26.5540  -28.3703   20.5904 N   0  0  0  0  0  0  0  0  0  0  0  0
  -23.3834  -20.0901   25.3854 N   0  0  0  0  0  0  0  0  0  0  0  0
  -26.3965  -23.0773   22.2115 N   0  0  0  0  0  0  0  0  0  0  0  0
  -29.3510  -20.8712   19.6038 N   0  0  0  0  0  0  0  0  0  0  0  0
  -29.4465  -27.8366   18.5709 N   0  0  0  0  0  0  0  0  0  0  0  0
  -25.4006  -30.3509   23.0815 N   0  0  0  0  0  0  0  0  0  0  0  0
  -21.5104  -19.6794   24.0009 N   0  0  0  0  0  0  0  0  0  0  0  0
  -21.9051  -31.2482   22.8732 N   0  3  0  0  0  0  0  0  0  0  0  0
  -28.4144  -22.9196   20.0344 O   0  0  0  0  0  0  0  0  0  0  0  0
  -28.3656  -26.4932   20.1360 O   0  0  0  0  0  0  0  0  0  0  0  0
  -27.5288  -30.4091   21.1641 O   0  0  0  0  0  0  0  0  0  0  0  0
  -23.5333  -28.9932   23.2976 O   0  0  0  0  0  0  0  0  0  0  0  0
  -21.2192  -20.2379   26.2055 O   0  0  0  0  0  0  0  0  0  0  0  0
  -30.5993  -15.4500   19.9009 O   0  0  0  0  0  0  0  0  0  0  0  0
  -23.1254  -23.3605   19.4952 O   0  0  0  0  0  0  0  0  0  1  0  0
  -27.9213  -10.7004   19.0804 F   0  0  0  0  0  0  0  0  0  0  0  0
  -29.3284  -14.1593   21.9893 F   0  0  0  0  0  0  0  0  0  0  0  0
  1  2  1  0  0  0  0
  1  5  2  0  0  0  0
  2  6  2  0  0  0  0
  3  8  2  0  0  0  0
  3 17  1  0  0  0  0
  4  9  1  0  0  0  0
  4 17  2  0  0  0  0
  5 19  1  0  0  0  0
  6 21  1  0  0  0  0
  7 10  2  0  0  0  0
  7 20  1  0  0  0  0
  8 24  1  0  0  0  0
  9 24  2  0  0  0  0
 10 25  1  0  0  0  0
 11 12  2  0  0  0  0
 11 26  1  0  0  0  0
 12 27  1  0  0  0  0
 13 22  1  0  0  0  0
 13 25  2  0  0  0  0
 14 23  1  0  0  0  0
 14 30  2  0  0  0  0
 15 27  2  0  0  0  0
 15 28  1  0  0  0  0
 16 23  2  0  0  0  0
 16 67  1  0  0  0  0
 17 29  1  0  0  0  0
 18 29  1  0  0  0  0
 18 31  2  0  0  0  0
 18 32  1  0  0  0  0
 19 21  2  0  0  0  0
 19 37  1  0  0  0  0
 20 22  2  0  0  0  0
 20 38  1  0  0  0  0
 21 46  1  0  0  0  0
 22 39  1  0  0  0  0
 23 64  1  0  0  0  0
 24 82  1  0  0  0  0
 25 83  1  0  0  0  0
 26 28  2  0  0  0  0
 26 82  1  0  0  0  0
 27 84  1  0  0  0  0
 28 85  1  0  0  0  0
 29 66  2  0  0  0  0
 30 57  1  0  0  0  0
 30 67  1  0  0  0  0
 31 68  1  0  0  0  0
 31 71  1  0  0  0  0
 32 72  1  0  0  0  0
 32 77  2  0  0  0  0
 33 47  1  0  0  0  0
 33 73  1  0  0  0  0
 33 78  2  0  0  0  0
 34 62  1  0  0  0  0
 34 69  1  0  0  0  0
 34 79  2  0  0  0  0
 35 63  1  0  0  0  0
 35 74  1  0  0  0  0
 35 80  2  0  0  0  0
 36 70  1  0  0  0  0
 36 75  1  0  0  0  0
 36 81  2  0  0  0  0
 37 40  1  0  0  0  0
 38 47  1  0  0  0  0
 39 69  1  0  0  0  0
 40 42  1  0  0  0  0
 41 43  1  0  0  0  0
 41 44  1  0  0  0  0
 42 46  1  0  0  0  0
 43 48  1  0  0  0  0
 44 70  1  0  0  0  0
 45 48  1  0  0  0  0
 45 70  1  0  0  0  0
 46 73  1  0  0  0  0
 47 69  1  0  0  0  0
 48 68  1  0  0  0  0
 49 63  1  0  0  0  0
 50 64  1  0  0  0  0
 51 64  1  0  0  0  0
 52 64  1  0  0  0  0
 53 65  1  0  0  0  0
 54 65  1  0  0  0  0
 55 65  1  0  0  0  0
 56 76  1  0  0  0  0
 57 75  1  0  0  0  0
 58 59  1  0  0  0  0
 58 60  1  0  0  0  0
 59 61  1  0  0  0  0
 60 67  1  0  0  0  0
 61 83  1  0  0  0  0
 62 65  1  0  0  0  0
 62 74  1  0  0  0  0
 63 76  1  0  0  0  0
 66 68  1  0  0  0  0
M  CHG  1  76   1
M  ISO  4  36 100  61 101  75 100  83 101
M  END
> <Batch ID>
0085

> <Smiles>
CNC(C)C(=O)NC(C(=O)N1Cc2cc([101O:1][101CH2:1]CCCn3cc(C(C)(C)C)cc3C[100NH:0][100C:0](=O)N3CCCC(n4nc(-c5ccc(Oc6ccc(F)cc6F)cc5)c(C(N)=O)c4N)C3)ccc2CC1C(=O)NC1CCCc2ccccc21)C(C)(C)C

> <Shape>
0.190

> <Color>
0.068

> <Negative vol penalty>
0.000

$$$$

  -OEChem-04052318563D

 86 94  0     1  0  0  0  0  0999 V2000
  -32.4273  -12.9201   21.4471 C   0  0  0  0  0  0  0  0  0  0  0  0
  -32.0189  -14.2339   21.6534 C   0  0  0  0  0  0  0  0  0  0  0  0
  -28.4775  -26.0912   19.3917 C   0  0  0  0  0  0  0  0  0  0  0  0
  -26.5271  -24.6723   19.5325 C   0  0  0  0  0  0  0  0  0  0  0  0
  -31.6288  -12.0517   20.7040 C   0  0  0  0  0  0  0  0  0  0  0  0
  -30.8123  -14.6804   21.1158 C   0  0  0  0  0  0  0  0  0  0  0  0
  -25.4225  -19.1966   22.4836 C   0  0  0  0  0  0  0  0  0  0  0  0
  -29.2529  -24.9895   19.0304 C   0  0  0  0  0  0  0  0  0  0  0  0
  -27.3026  -23.5705   19.1712 C   0  0  0  0  0  0  0  0  0  0  0  0
  -24.7106  -20.2362   21.8867 C   0  0  0  0  0  0  0  0  0  0  0  0
  -28.8388  -20.3202   18.6367 C   0  0  0  0  0  0  0  0  0  0  0  0
  -28.6659  -19.1404   19.3603 C   0  0  0  0  0  0  0  0  0  0  0  0
  -23.3752  -18.6247   20.6870 C   0  0  0  0  0  0  0  0  0  0  0  0
  -19.0726  -25.1519   21.2835 C   0  0  0  0  0  0  0  0  0  0  0  0
  -29.3182  -20.2865   21.3847 C   0  0  0  0  0  0  0  0  0  0  0  0
  -27.1146  -25.9326   19.6428 C   0  0  0  0  0  0  0  0  0  0  0  0
  -26.1004  -28.2431   19.2678 C   0  0  0  0  0  0  0  0  0  0  0  0
  -30.4071  -12.4850   20.1652 C   0  0  0  0  0  0  0  0  0  0  0  0
  -25.1228  -17.8613   22.1778 C   0  0  0  0  0  0  0  0  0  0  0  0
  -29.9973  -13.8173   20.3637 C   0  0  0  0  0  0  0  0  0  0  0  0
  -24.0831  -17.5700   21.2833 C   0  0  0  0  0  0  0  0  0  0  0  0
  -18.6140  -23.8252   21.0918 C   0  0  0  0  0  0  0  0  0  0  0  0
  -28.6655  -23.7292   18.9201 C   0  0  0  0  0  0  0  0  0  0  0  0
  -23.6887  -19.9504   20.9861 C   0  0  0  0  0  0  0  0  0  0  0  0
  -29.2514  -21.4832   19.2870 C   0  0  0  0  0  0  0  0  0  0  0  0
  -28.9056  -19.1235   20.7343 C   0  0  0  0  0  0  0  0  0  0  0  0
  -29.4911  -21.4663   20.6610 C   0  0  0  0  0  0  0  0  0  0  0  0
  -26.3131  -27.0701   20.0166 C   0  0  0  0  0  0  0  0  0  0  0  0
  -18.9547  -25.4378   22.6258 C   0  0  0  0  0  0  0  0  0  0  0  0
  -18.2298  -23.3409   22.3227 C   0  0  0  0  0  0  0  0  0  0  0  0
  -25.2726  -29.0069   20.0539 C   0  0  0  0  0  0  0  0  0  0  0  0
  -26.6058  -28.6095   17.9771 C   0  0  0  0  0  0  0  0  0  0  0  0
  -26.7195  -15.4490   20.8604 C   0  0  0  0  0  0  0  0  0  0  0  0
  -24.0672  -13.7646   21.6668 C   0  0  0  0  0  0  0  0  0  0  0  0
  -20.7299  -13.7818   22.3804 C   0  0  0  0  0  0  0  0  0  0  0  0
  -21.3427  -27.6466   24.3615 C   0  0  0  0  0  0  0  0  0  0  0  0
  -29.6006  -11.5232   19.3290 C   0  0  0  0  0  0  0  0  0  0  0  0
  -25.8823  -16.7508   22.8505 C   0  0  0  0  0  0  0  0  0  0  0  0
  -23.7087  -16.1529   20.9367 C   0  0  0  0  0  0  0  0  0  0  0  0
  -28.1571  -11.9689   19.1100 C   0  0  0  0  0  0  0  0  0  0  0  0
  -24.1545  -29.8135   24.6353 C   0  0  0  0  0  0  0  0  0  0  0  0
  -28.1074  -13.4403   18.7108 C   0  0  0  0  0  0  0  0  0  0  0  0
  -25.0074  -29.4619   23.4151 C   0  0  0  0  0  0  0  0  0  0  0  0
  -23.4707  -28.5797   25.2203 C   0  0  0  0  0  0  0  0  0  0  0  0
  -23.5323  -27.4425   23.0347 C   0  0  0  0  0  0  0  0  0  0  0  0
  -28.6831  -14.3320   19.8176 C   0  0  1  0  0  0  0  0  0  0  0  0
  -25.8342  -15.4383   22.0744 C   0  0  1  0  0  0  0  0  0  0  0  0
  -24.1975  -28.6632   22.3762 C   0  0  2  0  0  0  0  0  0  0  0  0
  -17.6793  -22.0208   22.6974 C   0  0  0  0  0  0  0  0  0  0  0  0
  -18.4969  -27.9048   22.8829 C   0  0  0  0  0  0  0  0  0  0  0  0
  -18.8322  -12.2468   22.9633 C   0  0  0  0  0  0  0  0  0  0  0  0
  -17.0901  -25.2130   25.1156 C   0  0  0  0  0  0  0  0  0  0  0  0
  -19.4354  -24.3455   25.5071 C   0  0  0  0  0  0  0  0  0  0  0  0
  -23.9140  -12.8537   18.7588 C   0  0  0  0  0  0  0  0  0  0  0  0
  -21.5511  -12.1408   19.1794 C   0  0  0  0  0  0  0  0  0  0  0  0
  -23.4185  -11.0685   20.4386 C   0  0  0  0  0  0  0  0  0  0  0  0
  -20.2898  -15.1245   24.9809 C   0  0  0  0  0  0  0  0  0  0  0  0
  -18.5605  -23.0864   19.7783 C   0  0  0  0  0  0  0  0  0  0  0  0
  -19.3760  -21.7886   19.7643 C   0  0  0  0  0  0  0  0  0  0  0  0
  -20.8491  -22.0034   20.1144 C   0  0  0  0  0  0  0  0  0  0  0  0
  -21.6344  -20.7004   20.0515 C   0  0  0  0  0  0  0  0  0  1  0  0
  -19.2895  -26.6735   23.3632 C   0  0  2  0  0  0  0  0  0  0  0  0
  -22.7564  -13.4456   20.9894 C   0  0  1  0  0  0  0  0  0  0  0  0
  -19.9370  -13.1406   23.5049 C   0  0  2  0  0  0  0  0  0  0  0  0
  -18.1644  -24.2214   24.6647 C   0  0  0  0  0  0  0  0  0  0  0  0
  -22.9181  -12.4040   19.8464 C   0  0  0  0  0  0  0  0  0  0  0  0
  -25.6723  -27.0832   21.1884 N   0  0  0  0  0  0  0  0  0  0  0  0
  -18.4410  -24.3298   23.2476 N   0  0  0  0  0  0  0  0  0  0  0  0
  -25.0488  -28.2737   21.1819 N   0  0  0  0  0  0  0  0  0  0  0  0
  -24.4848  -15.1021   21.6157 N   0  0  0  0  0  0  0  0  0  0  0  0
  -22.7183  -27.8682   24.1841 N   0  0  0  0  0  0  0  0  0  0  0  0
  -24.7217  -30.2274   19.8833 N   0  0  0  0  0  0  0  0  0  0  0  0
  -25.8582  -28.2623   16.8436 N   0  0  0  0  0  0  0  0  0  0  0  0
  -27.7205  -14.4968   20.8857 N   0  0  0  0  0  0  0  0  0  0  0  0
  -21.8397  -13.0344   22.0472 N   0  0  0  0  0  0  0  0  0  0  0  0
  -20.7042  -26.9705   23.3291 N   0  0  0  0  0  0  0  0  0  0  0  0
  -19.3155  -14.1883   24.3633 N   0  3  0  0  0  0  0  0  0  0  0  0
  -27.6965  -29.2120   17.8322 O   0  0  0  0  0  0  0  0  0  0  0  0
  -26.5091  -16.2602   19.9663 O   0  0  0  0  0  0  0  0  0  0  0  0
  -24.6939  -12.8618   22.2270 O   0  0  0  0  0  0  0  0  0  0  0  0
  -20.3961  -14.8381   21.8481 O   0  0  0  0  0  0  0  0  0  0  0  0
  -20.7279  -28.0280   25.3633 O   0  0  0  0  0  0  0  0  0  0  0  0
  -29.4218  -22.6540   18.5673 O   0  0  0  0  0  0  0  0  0  0  0  0
  -22.9926  -20.9632   20.4016 O   0  0  0  0  0  0  0  0  0  1  0  0
  -28.7380  -17.9908   21.4294 F   0  0  0  0  0  0  0  0  0  0  0  0
  -29.8865  -22.5807   21.2915 F   0  0  0  0  0  0  0  0  0  0  0  0
  1  2  1  0  0  0  0
  1  5  2  0  0  0  0
  2  6  2  0  0  0  0
  3  8  2  0  0  0  0
  3 16  1  0  0  0  0
  4  9  1  0  0  0  0
  4 16  2  0  0  0  0
  5 18  1  0  0  0  0
  6 20  1  0  0  0  0
  7 10  2  0  0  0  0
  7 19  1  0  0  0  0
  8 23  1  0  0  0  0
  9 23  2  0  0  0  0
 10 24  1  0  0  0  0
 11 12  2  0  0  0  0
 11 25  1  0  0  0  0
 12 26  1  0  0  0  0
 13 21  1  0  0  0  0
 13 24  2  0  0  0  0
 14 22  1  0  0  0  0
 14 29  2  0  0  0  0
 15 26  2  0  0  0  0
 15 27  1  0  0  0  0
 16 28  1  0  0  0  0
 17 28  1  0  0  0  0
 17 31  2  0  0  0  0
 17 32  1  0  0  0  0
 18 20  2  0  0  0  0
 18 37  1  0  0  0  0
 19 21  2  0  0  0  0
 19 38  1  0  0  0  0
 20 46  1  0  0  0  0
 21 39  1  0  0  0  0
 22 30  2  0  0  0  0
 22 58  1  0  0  0  0
 23 83  1  0  0  0  0
 24 84  1  0  0  0  0
 25 27  2  0  0  0  0
 25 83  1  0  0  0  0
 26 85  1  0  0  0  0
 27 86  1  0  0  0  0
 28 67  2  0  0  0  0
 29 62  1  0  0  0  0
 29 68  1  0  0  0  0
 30 49  1  0  0  0  0
 30 68  1  0  0  0  0
 31 69  1  0  0  0  0
 31 72  1  0  0  0  0
 32 73  1  0  0  0  0
 32 78  2  0  0  0  0
 33 47  1  0  0  0  0
 33 74  1  0  0  0  0
 33 79  2  0  0  0  0
 34 63  1  0  0  0  0
 34 70  1  0  0  0  0
 34 80  2  0  0  0  0
 35 64  1  0  0  0  0
 35 75  1  0  0  0  0
 35 81  2  0  0  0  0
 36 71  1  0  0  0  0
 36 76  1  0  0  0  0
 36 82  2  0  0  0  0
 37 40  1  0  0  0  0
 38 47  1  0  0  0  0
 39 70  1  0  0  0  0
 40 42  1  0  0  0  0
 41 43  1  0  0  0  0
 41 44  1  0  0  0  0
 42 46  1  0  0  0  0
 43 48  1  0  0  0  0
 44 71  1  0  0  0  0
 45 48  1  0  0  0  0
 45 71  1  0  0  0  0
 46 74  1  0  0  0  0
 47 70  1  0  0  0  0
 48 69  1  0  0  0  0
 50 62  1  0  0  0  0
 51 64  1  0  0  0  0
 52 65  1  0  0  0  0
 53 65  1  0  0  0  0
 54 66  1  0  0  0  0
 55 66  1  0  0  0  0
 56 66  1  0  0  0  0
 57 77  1  0  0  0  0
 58 59  1  0  0  0  0
 59 60  1  0  0  0  0
 60 61  1  0  0  0  0
 61 84  1  0  0  0  0
 62 76  1  0  0  0  0
 63 66  1  0  0  0  0
 63 75  1  0  0  0  0
 64 77  1  0  0  0  0
 65 68  1  0  0  0  0
 67 69  1  0  0  0  0
M  CHG  1  77   1
M  ISO  4  36 100  61 101  76 100  84 101
M  END
> <Batch ID>
0085

> <Smiles>
CNC(C)C(=O)NC(C(=O)N1Cc2cc([101O:1][101CH2:1]CCCc3cc(C(C)[100NH:0][100C:0](=O)N4CCCC(n5nc(-c6ccc(Oc7ccc(F)cc7F)cc6)c(C(N)=O)c5N)C4)n(C(C)C)c3C)ccc2CC1C(=O)NC1CCCc2ccccc21)C(C)(C)C

> <Shape>
0.235

> <Color>
0.066

> <Negative vol penalty>
0.000

$$$$

  -OEChem-04052318562D

  0  0  0     0  0  0  0  0  0999 V2000
M  END
$$$$

  -OEChem-04052318563D

 87 95  0     1  0  0  0  0  0999 V2000
  -29.6107  -24.3606   18.0714 C   0  0  0  0  0  0  0  0  0  0  0  0
  -28.2369  -24.4135   18.2839 C   0  0  0  0  0  0  0  0  0  0  0  0
  -26.2504  -18.4921   18.3644 C   0  0  0  0  0  0  0  0  0  0  0  0
  -25.6340  -19.3897   20.5212 C   0  0  0  0  0  0  0  0  0  0  0  0
  -30.4786  -24.9751   18.9730 C   0  0  0  0  0  0  0  0  0  0  0  0
  -27.7302  -25.0801   19.3990 C   0  0  0  0  0  0  0  0  0  0  0  0
  -22.5039  -28.2553   19.7299 C   0  0  0  0  0  0  0  0  0  0  0  0
  -27.5784  -18.8517   18.5943 C   0  0  0  0  0  0  0  0  0  0  0  0
  -26.9620  -19.7492   20.7511 C   0  0  0  0  0  0  0  0  0  0  0  0
  -21.2361  -27.9278   20.2088 C   0  0  0  0  0  0  0  0  0  0  0  0
  -30.2513  -20.5785   22.0592 C   0  0  0  0  0  0  0  0  0  0  0  0
  -30.7937  -20.2926   23.3120 C   0  0  0  0  0  0  0  0  0  0  0  0
  -21.7785  -28.9492   22.3258 C   0  0  0  0  0  0  0  0  0  0  0  0
  -30.3688  -17.9405   22.9592 C   0  0  0  0  0  0  0  0  0  0  0  0
  -17.1785  -23.7733   22.6077 C   0  0  0  0  0  0  0  0  0  0  0  0
  -25.2782  -18.7612   19.3278 C   0  0  0  0  0  0  0  0  0  0  0  0
  -23.2858  -17.1709   19.4211 C   0  0  0  0  0  0  0  0  0  0  0  0
  -29.9819  -25.6578   20.0945 C   0  0  0  0  0  0  0  0  0  0  0  0
  -23.4239  -28.9237   20.5505 C   0  0  0  0  0  0  0  0  0  0  0  0
  -28.5924  -25.7032   20.3172 C   0  0  0  0  0  0  0  0  0  0  0  0
  -23.0563  -29.2863   21.8541 C   0  0  0  0  0  0  0  0  0  0  0  0
  -27.9342  -19.4801   19.7877 C   0  0  0  0  0  0  0  0  0  0  0  0
  -20.8742  -28.2722   21.5078 C   0  0  0  0  0  0  0  0  0  0  0  0
  -29.7675  -19.5455   21.2564 C   0  0  0  0  0  0  0  0  0  0  0  0
  -30.8525  -18.9736   23.7620 C   0  0  0  0  0  0  0  0  0  0  0  0
  -29.8263  -18.2265   21.7064 C   0  0  0  0  0  0  0  0  0  0  0  0
  -23.9062  -18.3906   19.0907 C   0  0  0  0  0  0  0  0  0  0  0  0
  -18.0807  -24.7916   22.8390 C   0  0  0  0  0  0  0  0  0  0  0  0
  -17.7279  -22.5242   22.4026 C   0  0  0  0  0  0  0  0  0  0  0  0
  -21.9897  -17.3172   18.9908 C   0  0  0  0  0  0  0  0  0  0  0  0
  -19.8299  -23.3515   22.6558 C   0  0  0  0  0  0  0  0  0  0  0  0
  -23.8322  -16.0095   20.0601 C   0  0  0  0  0  0  0  0  0  0  0  0
  -26.2980  -28.2364   21.7213 C   0  0  0  0  0  0  0  0  0  0  0  0
  -26.1740  -31.3030   22.7716 C   0  0  0  0  0  0  0  0  0  0  0  0
  -24.2613  -33.9882   23.6537 C   0  0  0  0  0  0  0  0  0  0  0  0
  -17.8500  -21.3414   18.5622 C   0  0  0  0  0  0  0  0  0  0  0  0
  -30.9614  -26.2662   21.0667 C   0  0  0  0  0  0  0  0  0  0  0  0
  -24.7780  -29.2935   20.0101 C   0  0  0  0  0  0  0  0  0  0  0  0
  -24.0001  -30.0224   22.7684 C   0  0  0  0  0  0  0  0  0  0  0  0
  -30.3257  -27.2726   22.0223 C   0  0  0  0  0  0  0  0  0  0  0  0
  -19.7118  -20.2527   15.7294 C   0  0  0  0  0  0  0  0  0  0  0  0
  -29.0323  -26.7119   22.6052 C   0  0  0  0  0  0  0  0  0  0  0  0
  -20.9255  -19.5482   16.3381 C   0  0  0  0  0  0  0  0  0  0  0  0
  -19.2933  -21.4686   16.5530 C   0  0  0  0  0  0  0  0  0  0  0  0
  -20.2739  -20.4925   18.5925 C   0  0  0  0  0  0  0  0  0  0  0  0
  -28.0032  -26.4379   21.5018 C   0  0  1  0  0  0  0  0  0  0  0  0
  -25.8168  -29.5192   21.1043 C   0  0  1  0  0  0  0  0  0  0  0  0
  -20.6989  -19.2273   17.8277 C   0  0  2  0  0  0  0  0  0  0  0  0
  -24.1594  -23.7478   20.1217 C   0  0  0  0  0  0  0  0  0  0  0  0
  -24.4432  -36.3411   24.5069 C   0  0  0  0  0  0  0  0  0  0  0  0
  -15.6106  -19.9285   20.4473 C   0  0  0  0  0  0  0  0  0  0  0  0
  -26.7949  -30.2399   25.5635 C   0  0  0  0  0  0  0  0  0  0  0  0
  -26.0342  -32.4366   26.4932 C   0  0  0  0  0  0  0  0  0  0  0  0
  -27.9984  -32.3469   24.9580 C   0  0  0  0  0  0  0  0  0  0  0  0
  -22.9429  -35.0877   21.2429 C   0  0  0  0  0  0  0  0  0  0  0  0
  -17.5755  -26.1926   23.0750 C   0  0  0  0  0  0  0  0  0  0  0  0
  -16.8307  -21.3598   22.1463 C   0  0  0  0  0  0  0  0  0  0  0  0
  -21.3021  -23.1158   22.6860 C   0  0  0  0  0  0  0  0  0  0  0  0
  -23.4932  -23.3111   21.4167 C   0  0  0  0  0  0  0  0  0  0  0  0
  -17.4348  -27.0202   21.7957 C   0  0  0  0  0  0  0  0  0  0  0  0
  -21.9906  -23.5914   21.3962 C   0  0  0  0  0  0  0  0  0  0  0  0
  -18.7613  -27.2654   21.0861 C   0  0  0  0  0  0  0  0  0  1  0  0
  -25.6772  -31.9850   24.0235 C   0  0  1  0  0  0  0  0  0  0  0  0
  -24.3489  -35.4554   23.2743 C   0  0  2  0  0  0  0  0  0  0  0  0
  -16.5247  -21.1328   20.6501 C   0  0  1  0  0  0  0  0  0  0  0  0
  -26.6088  -31.7365   25.2432 C   0  0  0  0  0  0  0  0  0  0  0  0
  -23.0728  -19.2485   18.4960 N   0  0  0  0  0  0  0  0  0  0  0  0
  -19.4180  -24.6156   22.8701 N   0  0  0  0  0  0  0  0  0  0  0  0
  -19.0540  -22.2764   22.4196 N   0  0  0  0  0  0  0  0  0  0  0  0
  -21.9155  -18.5669   18.4494 N   0  0  0  0  0  0  0  0  0  0  0  0
  -25.3149  -30.3561   22.1960 N   0  0  0  0  0  0  0  0  0  0  0  0
  -19.0929  -21.0962   17.9555 N   0  0  0  0  0  0  0  0  0  0  0  0
  -20.9177  -16.4975   19.0263 N   0  0  0  0  0  0  0  0  0  0  0  0
  -25.1818  -16.0273   20.4376 N   0  0  0  0  0  0  0  0  0  0  0  0
  -27.3805  -27.6721   21.0737 N   0  0  0  0  0  0  0  0  0  0  0  0
  -25.5045  -33.3924   23.6804 N   0  0  0  0  0  0  0  0  0  0  0  0
  -17.7425  -20.9522   19.8918 N   0  0  0  0  0  0  0  0  0  0  0  0
  -23.1455  -35.8616   22.4947 N   0  3  0  0  0  0  0  0  0  0  0  0
  -23.1482  -14.9801   20.2747 O   0  0  0  0  0  0  0  0  0  0  0  0
  -25.7303  -27.7924   22.7123 O   0  0  0  0  0  0  0  0  0  0  0  0
  -27.2804  -31.6046   22.3171 O   0  0  0  0  0  0  0  0  0  0  0  0
  -23.1968  -33.4276   23.9051 O   0  0  0  0  0  0  0  0  0  0  0  0
  -16.9044  -21.8632   17.9619 O   0  0  0  0  0  0  0  0  0  0  0  0
  -29.2300  -19.8309   20.0125 O   0  0  0  0  0  0  0  0  0  0  0  0
  -19.6377  -27.9531   21.9779 O   0  0  0  0  0  0  0  0  0  1  0  0
  -31.3748  -18.6990   24.9645 F   0  0  0  0  0  0  0  0  0  0  0  0
  -29.3642  -17.2297   20.9391 F   0  0  0  0  0  0  0  0  0  0  0  0
  1  2  1  0  0  0  0
  1  5  2  0  0  0  0
  2  6  2  0  0  0  0
  3  8  2  0  0  0  0
  3 16  1  0  0  0  0
  4  9  1  0  0  0  0
  4 16  2  0  0  0  0
  5 18  1  0  0  0  0
  6 20  1  0  0  0  0
  7 10  2  0  0  0  0
  7 19  1  0  0  0  0
  8 22  1  0  0  0  0
  9 22  2  0  0  0  0
 10 23  1  0  0  0  0
 11 12  2  0  0  0  0
 11 24  1  0  0  0  0
 12 25  1  0  0  0  0
 13 21  1  0  0  0  0
 13 23  2  0  0  0  0
 14 25  2  0  0  0  0
 14 26  1  0  0  0  0
 15 28  1  0  0  0  0
 15 29  2  0  0  0  0
 16 27  1  0  0  0  0
 17 27  1  0  0  0  0
 17 30  2  0  0  0  0
 17 32  1  0  0  0  0
 18 20  2  0  0  0  0
 18 37  1  0  0  0  0
 19 21  2  0  0  0  0
 19 38  1  0  0  0  0
 20 46  1  0  0  0  0
 21 39  1  0  0  0  0
 22 84  1  0  0  0  0
 23 85  1  0  0  0  0
 24 26  2  0  0  0  0
 24 84  1  0  0  0  0
 25 86  1  0  0  0  0
 26 87  1  0  0  0  0
 27 67  2  0  0  0  0
 28 56  1  0  0  0  0
 28 68  2  0  0  0  0
 29 57  1  0  0  0  0
 29 69  1  0  0  0  0
 30 70  1  0  0  0  0
 30 73  1  0  0  0  0
 31 58  1  0  0  0  0
 31 68  1  0  0  0  0
 31 69  2  0  0  0  0
 32 74  1  0  0  0  0
 32 79  2  0  0  0  0
 33 47  1  0  0  0  0
 33 75  1  0  0  0  0
 33 80  2  0  0  0  0
 34 63  1  0  0  0  0
 34 71  1  0  0  0  0
 34 81  2  0  0  0  0
 35 64  1  0  0  0  0
 35 76  1  0  0  0  0
 35 82  2  0  0  0  0
 36 72  1  0  0  0  0
 36 77  1  0  0  0  0
 36 83  2  0  0  0  0
 37 40  1  0  0  0  0
 38 47  1  0  0  0  0
 39 71  1  0  0  0  0
 40 42  1  0  0  0  0
 41 43  1  0  0  0  0
 41 44  1  0  0  0  0
 42 46  1  0  0  0  0
 43 48  1  0  0  0  0
 44 72  1  0  0  0  0
 45 48  1  0  0  0  0
 45 72  1  0  0  0  0
 46 75  1  0  0  0  0
 47 71  1  0  0  0  0
 48 70  1  0  0  0  0
 49 59  1  0  0  0  0
 50 64  1  0  0  0  0
 51 65  1  0  0  0  0
 52 66  1  0  0  0  0
 53 66  1  0  0  0  0
 54 66  1  0  0  0  0
 55 78  1  0  0  0  0
 56 60  1  0  0  0  0
 57 65  1  0  0  0  0
 58 61  1  0  0  0  0
 59 61  1  0  0  0  0
 60 62  1  0  0  0  0
 62 85  1  0  0  0  0
 63 66  1  0  0  0  0
 63 76  1  0  0  0  0
 64 78  1  0  0  0  0
 65 77  1  0  0  0  0
 67 70  1  0  0  0  0
M  CHG  1  78   1
M  ISO  4  36 100  62 101  77 100  85 101
M  END
> <Batch ID>
0085

> <Smiles>
CCCCc1nc(CC[101CH2:1][101O:1]c2ccc3c(c2)CN(C(=O)C(NC(=O)C(C)NC)C(C)(C)C)C(C(=O)NC2CCCc4ccccc42)C3)cc(CC(C)[100NH:0][100C:0](=O)N2CCCC(n3nc(-c4ccc(Oc5ccc(F)cc5F)cc4)c(C(N)=O)c3N)C2)n1

> <Shape>
0.240

> <Color>
0.070

> <Negative vol penalty>
0.000

$$$$

  -OEChem-04052318563D

 84 92  0     1  0  0  0  0  0999 V2000
  -22.6035  -11.1931   19.9588 C   0  0  0  0  0  0  0  0  0  0  0  0
  -22.3355  -12.4107   19.3416 C   0  0  0  0  0  0  0  0  0  0  0  0
  -24.1756  -29.1562   22.2812 C   0  0  0  0  0  0  0  0  0  0  0  0
  -25.4716  -30.9020   21.2277 C   0  0  0  0  0  0  0  0  0  0  0  0
  -23.5134  -11.1328   21.0135 C   0  0  0  0  0  0  0  0  0  0  0  0
  -22.9764  -13.5691   19.7795 C   0  0  0  0  0  0  0  0  0  0  0  0
  -24.7622  -18.3123   16.3417 C   0  0  0  0  0  0  0  0  0  0  0  0
  -23.5907  -30.0999   23.1255 C   0  0  0  0  0  0  0  0  0  0  0  0
  -24.8866  -31.8457   22.0719 C   0  0  0  0  0  0  0  0  0  0  0  0
  -24.1850  -19.5553   16.0859 C   0  0  0  0  0  0  0  0  0  0  0  0
  -24.0021  -34.6634   24.1905 C   0  0  0  0  0  0  0  0  0  0  0  0
  -24.8379  -35.6104   24.7821 C   0  0  0  0  0  0  0  0  0  0  0  0
  -25.5427  -20.5362   17.8219 C   0  0  0  0  0  0  0  0  0  0  0  0
  -26.0810  -33.8405   25.8590 C   0  0  0  0  0  0  0  0  0  0  0  0
  -28.7173  -23.3566   14.7780 C   0  0  0  0  0  0  0  0  0  0  0  0
  -25.1161  -29.5572   21.3323 C   0  0  0  0  0  0  0  0  0  0  0  0
  -25.2563  -28.1665   19.1983 C   0  0  0  0  0  0  0  0  0  0  0  0
  -24.1731  -12.2894   21.4582 C   0  0  0  0  0  0  0  0  0  0  0  0
  -25.7278  -18.1695   17.3485 C   0  0  0  0  0  0  0  0  0  0  0  0
  -23.8950  -13.5245   20.8420 C   0  0  0  0  0  0  0  0  0  0  0  0
  -26.1325  -19.2908   18.0867 C   0  0  0  0  0  0  0  0  0  0  0  0
  -23.9461  -31.4447   23.0209 C   0  0  0  0  0  0  0  0  0  0  0  0
  -24.5731  -20.6670   16.8280 C   0  0  0  0  0  0  0  0  0  0  0  0
  -24.2056  -33.3049   24.4331 C   0  0  0  0  0  0  0  0  0  0  0  0
  -25.8774  -35.1990   25.6163 C   0  0  0  0  0  0  0  0  0  0  0  0
  -25.2451  -32.8935   25.2673 C   0  0  0  0  0  0  0  0  0  0  0  0
  -25.7211  -28.5827   20.4603 C   0  0  0  0  0  0  0  0  0  0  0  0
  -29.6707  -24.3434   14.7635 C   0  0  0  0  0  0  0  0  0  0  0  0
  -26.1762  -27.2346   18.7838 C   0  0  0  0  0  0  0  0  0  0  0  0
  -24.0967  -28.5849   18.4662 C   0  0  0  0  0  0  0  0  0  0  0  0
  -25.9173  -16.5154   20.0562 C   0  0  0  0  0  0  0  0  0  0  0  0
  -28.9544  -17.6546   20.0837 C   0  0  0  0  0  0  0  0  0  0  0  0
  -31.1591  -20.0514   19.0631 C   0  0  0  0  0  0  0  0  0  0  0  0
  -31.4628  -25.5638   18.1464 C   0  0  0  0  0  0  0  0  0  0  0  0
  -25.1130  -12.1828   22.6329 C   0  0  0  0  0  0  0  0  0  0  0  0
  -26.3602  -16.8271   17.5940 C   0  0  0  0  0  0  0  0  0  0  0  0
  -27.1798  -19.1946   19.1649 C   0  0  0  0  0  0  0  0  0  0  0  0
  -26.0304  -13.3926   22.7907 C   0  0  0  0  0  0  0  0  0  0  0  0
  -29.9302  -24.9670   21.3042 C   0  0  0  0  0  0  0  0  0  0  0  0
  -25.2343  -14.6871   22.6587 C   0  0  0  0  0  0  0  0  0  0  0  0
  -28.6642  -25.8247   21.2642 C   0  0  0  0  0  0  0  0  0  0  0  0
  -31.0973  -25.6503   20.5949 C   0  0  0  0  0  0  0  0  0  0  0  0
  -29.5501  -26.9370   19.1722 C   0  0  0  0  0  0  0  0  0  0  0  0
  -24.5887  -14.7988   21.2723 C   0  0  1  0  0  0  0  0  0  0  0  0
  -26.9608  -16.6958   18.9902 C   0  0  1  0  0  0  0  0  0  0  0  0
  -28.3305  -26.2653   19.8263 C   0  0  2  0  0  0  0  0  0  0  0  0
  -33.5639  -20.7355   19.2775 C   0  0  0  0  0  0  0  0  0  0  0  0
  -28.4038  -18.6999   22.8969 C   0  0  0  0  0  0  0  0  0  0  0  0
  -30.4317  -20.1519   22.6790 C   0  0  0  0  0  0  0  0  0  0  0  0
  -30.6618  -17.6696   22.5903 C   0  0  0  0  0  0  0  0  0  0  0  0
  -22.8374  -24.4563   15.8773 C   0  0  0  0  0  0  0  0  0  0  0  0
  -23.1796  -23.8663   13.4746 C   0  0  0  0  0  0  0  0  0  0  0  0
  -31.6138  -19.7896   16.1505 C   0  0  0  0  0  0  0  0  0  0  0  0
  -31.0948  -24.2584   15.1119 C   0  0  0  0  0  0  0  0  0  0  0  0
  -25.1723  -24.1481   15.0365 C   0  0  0  0  0  0  0  0  0  0  0  0
  -26.2106  -23.4099   14.1812 C   0  0  0  0  0  0  0  0  0  0  0  0
  -31.6919  -25.5646   15.6752 C   0  0  0  0  0  0  0  0  0  0  0  0
  -23.5806  -22.1380   15.2447 C   0  0  0  0  0  0  0  0  0  1  0  0
  -29.6282  -18.8894   20.6317 C   0  0  1  0  0  0  0  0  0  0  0  0
  -32.5489  -19.9508   18.4610 C   0  0  2  0  0  0  0  0  0  0  0  0
  -29.7602  -18.8545   22.1805 C   0  0  0  0  0  0  0  0  0  0  0  0
  -23.7099  -23.6376   14.9012 C   0  0  0  0  0  0  0  0  0  0  0  0
  -26.8486  -27.9657   20.8237 N   0  0  0  0  0  0  0  0  0  0  0  0
  -29.1085  -25.5194   14.3507 N   0  0  0  0  0  0  0  0  0  0  0  0
  -27.8223  -25.2934   14.1064 N   0  0  0  0  0  0  0  0  0  0  0  0
  -27.5897  -23.9960   14.3634 N   0  0  0  0  0  0  0  0  0  0  0  0
  -27.0999  -27.1523   19.7839 N   0  0  0  0  0  0  0  0  0  0  0  0
  -27.7641  -17.8592   19.3716 N   0  0  0  0  0  0  0  0  0  0  0  0
  -30.7158  -26.0416   19.2358 N   0  0  0  0  0  0  0  0  0  0  0  0
  -26.2769  -26.4857   17.6652 N   0  0  0  0  0  0  0  0  0  0  0  0
  -23.2583  -29.5514   19.0381 N   0  0  0  0  0  0  0  0  0  0  0  0
  -25.5715  -15.1977   20.2877 N   0  0  0  0  0  0  0  0  0  0  0  0
  -30.8996  -19.0078   19.9262 N   0  0  0  0  0  0  0  0  0  0  0  0
  -31.0299  -25.9776   16.8925 N   0  0  0  0  0  0  0  0  0  0  0  0
  -32.5506  -20.4854   17.0699 N   0  3  0  0  0  0  0  0  0  0  0  0
  -23.8036  -28.1035   17.3455 O   0  0  0  0  0  0  0  0  0  0  0  0
  -25.4609  -17.4988   20.6275 O   0  0  0  0  0  0  0  0  0  0  0  0
  -29.4692  -16.5498   20.2741 O   0  0  0  0  0  0  0  0  0  0  0  0
  -30.3827  -20.9664   18.7976 O   0  0  0  0  0  0  0  0  0  0  0  0
  -32.4396  -24.8190   18.2808 O   0  0  0  0  0  0  0  0  0  0  0  0
  -23.3754  -32.3659   23.8444 O   0  0  0  0  0  0  0  0  0  0  0  0
  -24.0108  -21.8813   16.5809 O   0  0  0  0  0  0  0  0  0  1  0  0
  -26.6810  -36.1085   26.1832 F   0  0  0  0  0  0  0  0  0  0  0  0
  -25.4463  -31.5898   25.5032 F   0  0  0  0  0  0  0  0  0  0  0  0
  1  2  1  0  0  0  0
  1  5  2  0  0  0  0
  2  6  2  0  0  0  0
  3  8  2  0  0  0  0
  3 16  1  0  0  0  0
  4  9  1  0  0  0  0
  4 16  2  0  0  0  0
  5 18  1  0  0  0  0
  6 20  1  0  0  0  0
  7 10  2  0  0  0  0
  7 19  1  0  0  0  0
  8 22  1  0  0  0  0
  9 22  2  0  0  0  0
 10 23  1  0  0  0  0
 11 12  2  0  0  0  0
 11 24  1  0  0  0  0
 12 25  1  0  0  0  0
 13 21  1  0  0  0  0
 13 23  2  0  0  0  0
 14 25  2  0  0  0  0
 14 26  1  0  0  0  0
 15 28  2  0  0  0  0
 15 66  1  0  0  0  0
 16 27  1  0  0  0  0
 17 27  1  0  0  0  0
 17 29  2  0  0  0  0
 17 30  1  0  0  0  0
 18 20  2  0  0  0  0
 18 35  1  0  0  0  0
 19 21  2  0  0  0  0
 19 36  1  0  0  0  0
 20 44  1  0  0  0  0
 21 37  1  0  0  0  0
 22 81  1  0  0  0  0
 23 82  1  0  0  0  0
 24 26  2  0  0  0  0
 24 81  1  0  0  0  0
 25 83  1  0  0  0  0
 26 84  1  0  0  0  0
 27 63  2  0  0  0  0
 28 54  1  0  0  0  0
 28 64  1  0  0  0  0
 29 67  1  0  0  0  0
 29 70  1  0  0  0  0
 30 71  1  0  0  0  0
 30 76  2  0  0  0  0
 31 45  1  0  0  0  0
 31 72  1  0  0  0  0
 31 77  2  0  0  0  0
 32 59  1  0  0  0  0
 32 68  1  0  0  0  0
 32 78  2  0  0  0  0
 33 60  1  0  0  0  0
 33 73  1  0  0  0  0
 33 79  2  0  0  0  0
 34 69  1  0  0  0  0
 34 74  1  0  0  0  0
 34 80  2  0  0  0  0
 35 38  1  0  0  0  0
 36 45  1  0  0  0  0
 37 68  1  0  0  0  0
 38 40  1  0  0  0  0
 39 41  1  0  0  0  0
 39 42  1  0  0  0  0
 40 44  1  0  0  0  0
 41 46  1  0  0  0  0
 42 69  1  0  0  0  0
 43 46  1  0  0  0  0
 43 69  1  0  0  0  0
 44 72  1  0  0  0  0
 45 68  1  0  0  0  0
 46 67  1  0  0  0  0
 47 60  1  0  0  0  0
 48 61  1  0  0  0  0
 49 61  1  0  0  0  0
 50 61  1  0  0  0  0
 51 62  1  0  0  0  0
 52 62  1  0  0  0  0
 53 75  1  0  0  0  0
 54 57  1  0  0  0  0
 55 56  1  0  0  0  0
 55 62  1  0  0  0  0
 56 66  1  0  0  0  0
 57 74  1  0  0  0  0
 58 62  1  0  0  0  0
 58 82  1  0  0  0  0
 59 61  1  0  0  0  0
 59 73  1  0  0  0  0
 60 75  1  0  0  0  0
 63 67  1  0  0  0  0
 64 65  2  0  0  0  0
 65 66  1  0  0  0  0
M  CHG  1  75   1
M  ISO  4  34 100  58 101  74 100  82 101
M  END
> <Batch ID>
0085

> <Smiles>
CNC(C)C(=O)NC(C(=O)N1Cc2cc([101O:1][101CH2:1]C(C)(C)CCn3cc(CC[100NH:0][100C:0](=O)N4CCCC(n5nc(-c6ccc(Oc7ccc(F)cc7F)cc6)c(C(N)=O)c5N)C4)nn3)ccc2CC1C(=O)NC1CCCc2ccccc21)C(C)(C)C

> <Shape>
0.223

> <Color>
0.058

> <Negative vol penalty>
0.000

$$$$

  -OEChem-04052318563D

 83 91  0     1  0  0  0  0  0999 V2000
  -25.5606  -29.9399   23.1143 C   0  0  0  0  0  0  0  0  0  0  0  0
  -25.2744  -28.6208   23.4514 C   0  0  0  0  0  0  0  0  0  0  0  0
  -20.1871  -22.9372   20.8766 C   0  0  0  0  0  0  0  0  0  0  0  0
  -21.5731  -22.2469   22.7313 C   0  0  0  0  0  0  0  0  0  0  0  0
  -26.0221  -30.2468   21.8349 C   0  0  0  0  0  0  0  0  0  0  0  0
  -25.4485  -27.6080   22.5089 C   0  0  0  0  0  0  0  0  0  0  0  0
  -27.2835  -20.7015   22.0100 C   0  0  0  0  0  0  0  0  0  0  0  0
  -19.6021  -23.9171   21.6785 C   0  0  0  0  0  0  0  0  0  0  0  0
  -20.9881  -23.2269   23.5332 C   0  0  0  0  0  0  0  0  0  0  0  0
  -26.8233  -19.5010   21.4707 C   0  0  0  0  0  0  0  0  0  0  0  0
  -20.3919  -27.0005   22.8194 C   0  0  0  0  0  0  0  0  0  0  0  0
  -20.2354  -28.2752   22.2751 C   0  0  0  0  0  0  0  0  0  0  0  0
  -27.7015  -20.1392   19.3165 C   0  0  0  0  0  0  0  0  0  0  0  0
  -17.8452  -28.1158   22.5889 C   0  0  0  0  0  0  0  0  0  0  0  0
  -28.4911  -12.8935   21.3711 C   0  0  0  0  0  0  0  0  0  0  0  0
  -21.1726  -22.1020   21.4030 C   0  0  0  0  0  0  0  0  0  0  0  0
  -22.9230  -21.2226   19.7689 C   0  0  0  0  0  0  0  0  0  0  0  0
  -26.2111  -29.2360   20.8793 C   0  0  0  0  0  0  0  0  0  0  0  0
  -27.9477  -21.6362   21.2028 C   0  0  0  0  0  0  0  0  0  0  0  0
  -25.9116  -27.9018   21.2152 C   0  0  0  0  0  0  0  0  0  0  0  0
  -28.1714  -21.3496   19.8485 C   0  0  0  0  0  0  0  0  0  0  0  0
  -20.0026  -24.0620   23.0068 C   0  0  0  0  0  0  0  0  0  0  0  0
  -27.0297  -19.2210   20.1231 C   0  0  0  0  0  0  0  0  0  0  0  0
  -19.2750  -26.2834   23.2485 C   0  0  0  0  0  0  0  0  0  0  0  0
  -18.9621  -28.8328   22.1599 C   0  0  0  0  0  0  0  0  0  0  0  0
  -18.0017  -26.8410   23.1333 C   0  0  0  0  0  0  0  0  0  0  0  0
  -21.7769  -21.0891   20.5754 C   0  0  0  0  0  0  0  0  0  0  0  0
  -28.4404  -13.8452   20.3921 C   0  0  0  0  0  0  0  0  0  0  0  0
  -23.0821  -19.9868   19.1911 C   0  0  0  0  0  0  0  0  0  0  0  0
  -26.5646  -13.9672   21.5613 C   0  0  0  0  0  0  0  0  0  0  0  0
  -23.7682  -22.3619   19.5606 C   0  0  0  0  0  0  0  0  0  0  0  0
  -27.3814  -24.6343   20.3117 C   0  0  0  0  0  0  0  0  0  0  0  0
  -30.3313  -24.3858   18.9857 C   0  0  0  0  0  0  0  0  0  0  0  0
  -32.7829  -22.3710   17.7298 C   0  0  0  0  0  0  0  0  0  0  0  0
  -21.3898  -14.4779   20.8157 C   0  0  0  0  0  0  0  0  0  0  0  0
  -26.6669  -29.6222   19.4945 C   0  0  0  0  0  0  0  0  0  0  0  0
  -28.4615  -22.9147   21.8058 C   0  0  0  0  0  0  0  0  0  0  0  0
  -28.8968  -22.3108   18.9439 C   0  0  0  0  0  0  0  0  0  0  0  0
  -27.1812  -28.4438   18.6717 C   0  0  0  0  0  0  0  0  0  0  0  0
  -20.5778  -16.1604   17.7848 C   0  0  0  0  0  0  0  0  0  0  0  0
  -26.2250  -27.2602   18.7788 C   0  0  0  0  0  0  0  0  0  0  0  0
  -20.8964  -17.6264   18.0835 C   0  0  0  0  0  0  0  0  0  0  0  0
  -20.0027  -15.4475   19.0067 C   0  0  0  0  0  0  0  0  0  0  0  0
  -21.1420  -17.0179   20.5265 C   0  0  0  0  0  0  0  0  0  0  0  0
  -26.1113  -26.7722   20.2281 C   0  0  1  0  0  0  0  0  0  0  0  0
  -28.6718  -24.0194   20.7748 C   0  0  1  0  0  0  0  0  0  0  0  0
  -21.7766  -17.7640   19.3403 C   0  0  2  0  0  0  0  0  0  0  0  0
  -29.4142  -14.1908   19.3494 C   0  0  0  0  0  0  0  0  0  0  0  0
  -35.0630  -22.4596   16.6856 C   0  0  0  0  0  0  0  0  0  0  0  0
  -25.4611  -15.2417   18.9154 C   0  0  0  0  0  0  0  0  0  0  0  0
  -29.0876  -25.2975   16.3529 C   0  0  0  0  0  0  0  0  0  0  0  0
  -31.1357  -24.4655   15.1776 C   0  0  0  0  0  0  0  0  0  0  0  0
  -31.3219  -26.3029   16.8545 C   0  0  0  0  0  0  0  0  0  0  0  0
  -33.9788  -20.7934   19.9297 C   0  0  0  0  0  0  0  0  0  0  0  0
  -25.2256  -14.3756   22.0538 C   0  0  0  0  0  0  0  0  0  0  0  0
  -24.1850  -13.2357   22.1147 C   0  0  0  0  0  0  0  0  0  0  0  0
  -22.8254  -13.6585   22.6669 C   0  0  0  0  0  0  0  0  0  0  0  0
  -26.5223  -16.9231   20.4672 C   0  0  0  0  0  0  0  0  0  1  0  0
  -30.8671  -23.9449   17.6450 C   0  0  1  0  0  0  0  0  0  0  0  0
  -34.2792  -22.3281   17.9821 C   0  0  2  0  0  0  0  0  0  0  0  0
  -26.7395  -15.6356   19.6605 C   0  0  1  0  0  0  0  0  0  0  0  0
  -30.5876  -24.9852   16.5238 C   0  0  0  0  0  0  0  0  0  0  0  0
  -21.2455  -19.8651   20.5176 N   0  0  0  0  0  0  0  0  0  0  0  0
  -27.2374  -14.4941   20.5331 N   0  0  0  0  0  0  0  0  0  0  0  0
  -22.0612  -19.2182   19.6678 N   0  0  0  0  0  0  0  0  0  0  0  0
  -27.3179  -12.9918   22.0795 N   0  3  0  0  0  0  0  0  0  0  0  0
  -29.3745  -23.5501   19.5790 N   0  0  0  0  0  0  0  0  0  0  0  0
  -20.8857  -15.6152   20.1635 N   0  0  0  0  0  0  0  0  0  0  0  0
  -23.9942  -19.4934   18.3268 N   0  0  0  0  0  0  0  0  0  0  0  0
  -23.4614  -23.5531   20.2323 N   0  0  0  0  0  0  0  0  0  0  0  0
  -27.2700  -25.9836   20.5883 N   0  0  0  0  0  0  0  0  0  0  0  0
  -32.2815  -23.6500   17.8475 N   0  0  0  0  0  0  0  0  0  0  0  0
  -22.2242  -14.7259   21.8987 N   0  0  0  0  0  0  0  0  0  0  0  0
  -34.6582  -21.0417   18.6321 N   0  3  0  0  0  0  0  0  0  0  0  0
  -24.7565  -22.3293   18.7888 O   0  0  0  0  0  0  0  0  0  0  0  0
  -26.5491  -23.9367   19.7441 O   0  0  0  0  0  0  0  0  0  0  0  0
  -30.7517  -25.4295   19.4914 O   0  0  0  0  0  0  0  0  0  0  0  0
  -32.1253  -21.3705   17.4520 O   0  0  0  0  0  0  0  0  0  0  0  0
  -21.1207  -13.3267   20.4560 O   0  0  0  0  0  0  0  0  0  0  0  0
  -19.4321  -25.0183   23.7894 O   0  0  0  0  0  0  0  0  0  0  0  0
  -26.5809  -18.0503   19.5940 O   0  0  0  0  0  0  0  0  0  1  0  0
  -18.8121  -30.0575   21.6385 F   0  0  0  0  0  0  0  0  0  0  0  0
  -16.9251  -26.1574   23.5448 F   0  0  0  0  0  0  0  0  0  0  0  0
  1  2  1  0  0  0  0
  1  5  2  0  0  0  0
  2  6  2  0  0  0  0
  3  8  2  0  0  0  0
  3 16  1  0  0  0  0
  4  9  1  0  0  0  0
  4 16  2  0  0  0  0
  5 18  1  0  0  0  0
  6 20  1  0  0  0  0
  7 10  2  0  0  0  0
  7 19  1  0  0  0  0
  8 22  1  0  0  0  0
  9 22  2  0  0  0  0
 10 23  1  0  0  0  0
 11 12  2  0  0  0  0
 11 24  1  0  0  0  0
 12 25  1  0  0  0  0
 13 21  1  0  0  0  0
 13 23  2  0  0  0  0
 14 25  2  0  0  0  0
 14 26  1  0  0  0  0
 15 28  2  0  0  0  0
 15 66  1  0  0  0  0
 16 27  1  0  0  0  0
 17 27  1  0  0  0  0
 17 29  2  0  0  0  0
 17 31  1  0  0  0  0
 18 20  2  0  0  0  0
 18 36  1  0  0  0  0
 19 21  2  0  0  0  0
 19 37  1  0  0  0  0
 20 45  1  0  0  0  0
 21 38  1  0  0  0  0
 22 80  1  0  0  0  0
 23 81  1  0  0  0  0
 24 26  2  0  0  0  0
 24 80  1  0  0  0  0
 25 82  1  0  0  0  0
 26 83  1  0  0  0  0
 27 63  2  0  0  0  0
 28 48  1  0  0  0  0
 28 64  1  0  0  0  0
 29 65  1  0  0  0  0
 29 69  1  0  0  0  0
 30 55  1  0  0  0  0
 30 64  1  0  0  0  0
 30 66  2  0  0  0  0
 31 70  1  0  0  0  0
 31 75  2  0  0  0  0
 32 46  1  0  0  0  0
 32 71  1  0  0  0  0
 32 76  2  0  0  0  0
 33 59  1  0  0  0  0
 33 67  1  0  0  0  0
 33 77  2  0  0  0  0
 34 60  1  0  0  0  0
 34 72  1  0  0  0  0
 34 78  2  0  0  0  0
 35 68  1  0  0  0  0
 35 73  1  0  0  0  0
 35 79  2  0  0  0  0
 36 39  1  0  0  0  0
 37 46  1  0  0  0  0
 38 67  1  0  0  0  0
 39 41  1  0  0  0  0
 40 42  1  0  0  0  0
 40 43  1  0  0  0  0
 41 45  1  0  0  0  0
 42 47  1  0  0  0  0
 43 68  1  0  0  0  0
 44 47  1  0  0  0  0
 44 68  1  0  0  0  0
 45 71  1  0  0  0  0
 46 67  1  0  0  0  0
 47 65  1  0  0  0  0
 49 60  1  0  0  0  0
 50 61  1  0  0  0  0
 51 62  1  0  0  0  0
 52 62  1  0  0  0  0
 53 62  1  0  0  0  0
 54 74  1  0  0  0  0
 55 56  1  0  0  0  0
 56 57  1  0  0  0  0
 57 73  1  0  0  0  0
 58 61  1  0  0  0  0
 58 81  1  0  0  0  0
 59 62  1  0  0  0  0
 59 72  1  0  0  0  0
 60 74  1  0  0  0  0
 61 64  1  0  0  0  0
 63 65  1  0  0  0  0
M  CHG  2  66   1  74   1
M  ISO  4  35 100  58 101  73 100  81 101
M  END
> <Batch ID>
0085

> <Smiles>
CNC(C)C(=O)NC(C(=O)N1Cc2cc([101O:1][101CH2:1]C(C)n3c(C)cnc3CCC[100NH:0][100C:0](=O)N3CCCC(n4nc(-c5ccc(Oc6ccc(F)cc6F)cc5)c(C(N)=O)c4N)C3)ccc2CC1C(=O)NC1CCCc2ccccc21)C(C)(C)C

> <Shape>
0.195

> <Color>
0.054

> <Negative vol penalty>
0.000

$$$$

  -OEChem-04052318563D

 85 93  0     1  0  0  0  0  0999 V2000
  -19.8177  -15.2542   25.2941 C   0  0  0  0  0  0  0  0  0  0  0  0
  -21.1907  -15.1375   25.4859 C   0  0  0  0  0  0  0  0  0  0  0  0
  -23.2880   -9.7990   19.9131 C   0  0  0  0  0  0  0  0  0  0  0  0
  -23.7389   -9.9390   22.2826 C   0  0  0  0  0  0  0  0  0  0  0  0
  -18.9552  -15.2024   26.3883 C   0  0  0  0  0  0  0  0  0  0  0  0
  -21.7020  -14.9700   26.7723 C   0  0  0  0  0  0  0  0  0  0  0  0
  -25.2667  -11.3799   26.9937 C   0  0  0  0  0  0  0  0  0  0  0  0
  -22.5616   -8.6265   20.1206 C   0  0  0  0  0  0  0  0  0  0  0  0
  -23.0124   -8.7665   22.4901 C   0  0  0  0  0  0  0  0  0  0  0  0
  -26.5405  -11.7185   26.5393 C   0  0  0  0  0  0  0  0  0  0  0  0
  -19.7653   -7.8556   22.7073 C   0  0  0  0  0  0  0  0  0  0  0  0
  -18.8630   -7.8337   23.7707 C   0  0  0  0  0  0  0  0  0  0  0  0
  -27.2582  -12.0520   28.8181 C   0  0  0  0  0  0  0  0  0  0  0  0
  -28.5823  -15.4805   25.8374 C   0  0  0  0  0  0  0  0  0  0  0  0
  -20.0687   -5.9861   24.7557 C   0  0  0  0  0  0  0  0  0  0  0  0
  -29.5270  -15.8267   23.8231 C   0  0  0  0  0  0  0  0  0  0  0  0
  -23.8767  -10.4552   20.9941 C   0  0  0  0  0  0  0  0  0  0  0  0
  -24.1363  -12.9853   20.7961 C   0  0  0  0  0  0  0  0  0  0  0  0
  -19.4556  -15.0245   27.6878 C   0  0  0  0  0  0  0  0  0  0  0  0
  -24.9756  -11.3854   28.3655 C   0  0  0  0  0  0  0  0  0  0  0  0
  -20.8455  -14.9171   27.8851 C   0  0  0  0  0  0  0  0  0  0  0  0
  -25.9807  -11.7106   29.2875 C   0  0  0  0  0  0  0  0  0  0  0  0
  -28.4000  -16.0881   24.5707 C   0  0  0  0  0  0  0  0  0  0  0  0
  -22.4237   -8.1102   21.4091 C   0  0  0  0  0  0  0  0  0  0  0  0
  -27.5357  -12.0574   27.4513 C   0  0  0  0  0  0  0  0  0  0  0  0
  -20.8193   -6.9427   22.6680 C   0  0  0  0  0  0  0  0  0  0  0  0
  -19.0147   -6.8990   24.7949 C   0  0  0  0  0  0  0  0  0  0  0  0
  -20.9710   -6.0080   23.6922 C   0  0  0  0  0  0  0  0  0  0  0  0
  -24.6277  -11.6662   20.7803 C   0  0  0  0  0  0  0  0  0  0  0  0
  -29.8152  -14.8664   25.8255 C   0  0  0  0  0  0  0  0  0  0  0  0
  -25.2378  -13.7652   20.5413 C   0  0  0  0  0  0  0  0  0  0  0  0
  -22.8033  -13.4629   21.0211 C   0  0  0  0  0  0  0  0  0  0  0  0
  -22.9664  -12.9998   30.2257 C   0  0  0  0  0  0  0  0  0  0  0  0
  -24.0509  -10.9606   32.5034 C   0  0  0  0  0  0  0  0  0  0  0  0
  -26.5349   -8.8889   33.5920 C   0  0  0  0  0  0  0  0  0  0  0  0
  -31.1088  -12.9216   21.3605 C   0  0  0  0  0  0  0  0  0  0  0  0
  -18.4876  -15.0221   28.8443 C   0  0  0  0  0  0  0  0  0  0  0  0
  -23.6040  -10.9917   28.8411 C   0  0  0  0  0  0  0  0  0  0  0  0
  -25.7250  -11.7119   30.7718 C   0  0  0  0  0  0  0  0  0  0  0  0
  -19.0829  -14.4667   30.1356 C   0  0  0  0  0  0  0  0  0  0  0  0
  -29.4598  -13.6618   18.2930 C   0  0  0  0  0  0  0  0  0  0  0  0
  -20.4612  -15.0684   30.3901 C   0  0  0  0  0  0  0  0  0  0  0  0
  -27.9901  -13.3533   18.5841 C   0  0  0  0  0  0  0  0  0  0  0  0
  -30.3930  -12.6822   19.0011 C   0  0  0  0  0  0  0  0  0  0  0  0
  -28.7064  -12.2525   20.7459 C   0  0  0  0  0  0  0  0  0  0  0  0
  -21.4366  -14.7095   29.2626 C   0  0  1  0  0  0  0  0  0  0  0  0
  -23.2762  -11.5295   30.2306 C   0  0  1  0  0  0  0  0  0  0  0  0
  -27.7285  -13.2479   20.0986 C   0  0  2  0  0  0  0  0  0  0  0  0
  -31.4241  -14.9710   27.7573 C   0  0  0  0  0  0  0  0  0  0  0  0
  -27.1516   -7.3900   35.5078 C   0  0  0  0  0  0  0  0  0  0  0  0
  -26.9751  -18.1123   25.0375 C   0  0  0  0  0  0  0  0  0  0  0  0
  -25.9132  -15.9982   24.1779 C   0  0  0  0  0  0  0  0  0  0  0  0
  -27.2769  -17.4260   22.6669 C   0  0  0  0  0  0  0  0  0  0  0  0
  -24.7114  -13.4076   34.2022 C   0  0  0  0  0  0  0  0  0  0  0  0
  -26.1525  -11.9407   35.6303 C   0  0  0  0  0  0  0  0  0  0  0  0
  -23.7025  -11.5007   35.4674 C   0  0  0  0  0  0  0  0  0  0  0  0
  -26.6655   -6.5082   31.8387 C   0  0  0  0  0  0  0  0  0  0  0  0
  -31.6767  -14.6091   24.1635 C   0  0  0  0  0  0  0  0  0  0  0  0
  -31.6707  -13.1347   23.7684 C   0  0  0  0  0  0  0  0  0  0  0  0
  -29.5255  -13.3114   27.8036 C   0  0  0  0  0  0  0  0  0  1  0  0
  -30.5190  -14.0698   26.9129 C   0  0  1  0  0  0  0  0  0  0  0  0
  -25.1907  -10.9717   33.4932 C   0  0  1  0  0  0  0  0  0  0  0  0
  -26.4987   -7.4725   34.1368 C   0  0  2  0  0  0  0  0  0  0  0  0
  -27.2210  -16.8587   24.1317 C   0  0  0  0  0  0  0  0  0  0  0  0
  -24.9439  -11.9571   34.6703 C   0  0  0  0  0  0  0  0  0  0  0  0
  -25.9393  -11.6075   20.5347 N   0  0  0  0  0  0  0  0  0  0  0  0
  -30.3806  -15.0837   24.5961 N   0  0  0  0  0  0  0  0  0  0  0  0
  -26.2814  -12.8995   20.3938 N   0  0  0  0  0  0  0  0  0  0  0  0
  -24.3662  -11.3260   31.1870 N   0  0  0  0  0  0  0  0  0  0  0  0
  -30.0938  -12.6305   20.4342 N   0  0  0  0  0  0  0  0  0  0  0  0
  -25.4058  -15.1001   20.4312 N   0  0  0  0  0  0  0  0  0  0  0  0
  -21.7906  -12.5260   21.2684 N   0  0  0  0  0  0  0  0  0  0  0  0
  -21.9044  -13.3482   29.4132 N   0  0  0  0  0  0  0  0  0  0  0  0
  -25.3872   -9.5860   33.9052 N   0  0  0  0  0  0  0  0  0  0  0  0
  -30.7391  -12.8557   22.6983 N   0  0  0  0  0  0  0  0  0  0  0  0
  -27.2173   -6.5454   33.2175 N   0  3  0  0  0  0  0  0  0  0  0  0
  -22.5155  -14.6834   20.9871 O   0  0  0  0  0  0  0  0  0  0  0  0
  -23.6400  -13.7614   30.9097 O   0  0  0  0  0  0  0  0  0  0  0  0
  -22.9239  -10.6326   32.8826 O   0  0  0  0  0  0  0  0  0  0  0  0
  -27.4877   -9.3338   32.9558 O   0  0  0  0  0  0  0  0  0  0  0  0
  -32.2578  -13.2234   21.0204 O   0  0  0  0  0  0  0  0  0  0  0  0
  -21.7148   -6.9662   21.6119 O   0  0  0  0  0  0  0  0  0  0  0  0
  -28.7797  -12.3890   27.0104 O   0  0  0  0  0  0  0  0  0  1  0  0
  -18.1490   -6.8791   25.8169 F   0  0  0  0  0  0  0  0  0  0  0  0
  -21.9822   -5.1293   23.6606 F   0  0  0  0  0  0  0  0  0  0  0  0
  1  2  1  0  0  0  0
  1  5  2  0  0  0  0
  2  6  2  0  0  0  0
  3  8  2  0  0  0  0
  3 17  1  0  0  0  0
  4  9  1  0  0  0  0
  4 17  2  0  0  0  0
  5 19  1  0  0  0  0
  6 21  1  0  0  0  0
  7 10  2  0  0  0  0
  7 20  1  0  0  0  0
  8 24  1  0  0  0  0
  9 24  2  0  0  0  0
 10 25  1  0  0  0  0
 11 12  2  0  0  0  0
 11 26  1  0  0  0  0
 12 27  1  0  0  0  0
 13 22  1  0  0  0  0
 13 25  2  0  0  0  0
 14 23  1  0  0  0  0
 14 30  2  0  0  0  0
 15 27  2  0  0  0  0
 15 28  1  0  0  0  0
 16 23  2  0  0  0  0
 16 67  1  0  0  0  0
 17 29  1  0  0  0  0
 18 29  1  0  0  0  0
 18 31  2  0  0  0  0
 18 32  1  0  0  0  0
 19 21  2  0  0  0  0
 19 37  1  0  0  0  0
 20 22  2  0  0  0  0
 20 38  1  0  0  0  0
 21 46  1  0  0  0  0
 22 39  1  0  0  0  0
 23 64  1  0  0  0  0
 24 82  1  0  0  0  0
 25 83  1  0  0  0  0
 26 28  2  0  0  0  0
 26 82  1  0  0  0  0
 27 84  1  0  0  0  0
 28 85  1  0  0  0  0
 29 66  2  0  0  0  0
 30 61  1  0  0  0  0
 30 67  1  0  0  0  0
 31 68  1  0  0  0  0
 31 71  1  0  0  0  0
 32 72  1  0  0  0  0
 32 77  2  0  0  0  0
 33 47  1  0  0  0  0
 33 73  1  0  0  0  0
 33 78  2  0  0  0  0
 34 62  1  0  0  0  0
 34 69  1  0  0  0  0
 34 79  2  0  0  0  0
 35 63  1  0  0  0  0
 35 74  1  0  0  0  0
 35 80  2  0  0  0  0
 36 70  1  0  0  0  0
 36 75  1  0  0  0  0
 36 81  2  0  0  0  0
 37 40  1  0  0  0  0
 38 47  1  0  0  0  0
 39 69  1  0  0  0  0
 40 42  1  0  0  0  0
 41 43  1  0  0  0  0
 41 44  1  0  0  0  0
 42 46  1  0  0  0  0
 43 48  1  0  0  0  0
 44 70  1  0  0  0  0
 45 48  1  0  0  0  0
 45 70  1  0  0  0  0
 46 73  1  0  0  0  0
 47 69  1  0  0  0  0
 48 68  1  0  0  0  0
 49 61  1  0  0  0  0
 50 63  1  0  0  0  0
 51 64  1  0  0  0  0
 52 64  1  0  0  0  0
 53 64  1  0  0  0  0
 54 65  1  0  0  0  0
 55 65  1  0  0  0  0
 56 65  1  0  0  0  0
 57 76  1  0  0  0  0
 58 59  1  0  0  0  0
 58 67  1  0  0  0  0
 59 75  1  0  0  0  0
 60 61  1  0  0  0  0
 60 83  1  0  0  0  0
 62 65  1  0  0  0  0
 62 74  1  0  0  0  0
 63 76  1  0  0  0  0
 66 68  1  0  0  0  0
M  CHG  1  76   1
M  ISO  4  36 100  60 101  75 100  83 101
M  END
> <Batch ID>
0085

> <Smiles>
CNC(C)C(=O)NC(C(=O)N1Cc2cc([101O:1][101CH2:1]C(C)c3cc(C(C)(C)C)cn3CC[100NH:0][100C:0](=O)N3CCCC(n4nc(-c5ccc(Oc6ccc(F)cc6F)cc5)c(C(N)=O)c4N)C3)ccc2CC1C(=O)NC1CCCc2ccccc21)C(C)(C)C

> <Shape>
0.136

> <Color>
0.174

> <Negative vol penalty>
0.000

$$$$

  -OEChem-04052318563D

 84 92  0     1  0  0  0  0  0999 V2000
  -29.0500  -13.7531   20.6503 C   0  0  0  0  0  0  0  0  0  0  0  0
  -28.5186  -15.0252   20.4642 C   0  0  0  0  0  0  0  0  0  0  0  0
  -27.6630  -25.2311   17.8922 C   0  0  0  0  0  0  0  0  0  0  0  0
  -26.1648  -23.9294   19.2700 C   0  0  0  0  0  0  0  0  0  0  0  0
  -28.1997  -12.6555   20.7781 C   0  0  0  0  0  0  0  0  0  0  0  0
  -27.1365  -15.2004   20.4046 C   0  0  0  0  0  0  0  0  0  0  0  0
  -23.9414  -19.9995   22.4699 C   0  0  0  0  0  0  0  0  0  0  0  0
  -28.5832  -24.1830   17.9025 C   0  0  0  0  0  0  0  0  0  0  0  0
  -27.0851  -22.8812   19.2803 C   0  0  0  0  0  0  0  0  0  0  0  0
  -23.4182  -21.1229   21.8313 C   0  0  0  0  0  0  0  0  0  0  0  0
  -29.1923  -20.0011   19.9687 C   0  0  0  0  0  0  0  0  0  0  0  0
  -29.4479  -19.3746   21.1885 C   0  0  0  0  0  0  0  0  0  0  0  0
  -21.2840  -20.0144   21.6426 C   0  0  0  0  0  0  0  0  0  0  0  0
  -30.2122  -21.4745   22.1068 C   0  0  0  0  0  0  0  0  0  0  0  0
  -19.6551  -27.0512   23.4328 C   0  0  0  0  0  0  0  0  0  0  0  0
  -26.4538  -25.1044   18.5760 C   0  0  0  0  0  0  0  0  0  0  0  0
  -24.4655  -26.3989   17.6386 C   0  0  0  0  0  0  0  0  0  0  0  0
  -26.8063  -12.8186   20.7297 C   0  0  0  0  0  0  0  0  0  0  0  0
  -23.1415  -18.8690   22.6903 C   0  0  0  0  0  0  0  0  0  0  0  0
  -26.2668  -14.1038   20.5304 C   0  0  0  0  0  0  0  0  0  0  0  0
  -21.7987  -18.8788   22.2865 C   0  0  0  0  0  0  0  0  0  0  0  0
  -28.2943  -23.0080   18.5965 C   0  0  0  0  0  0  0  0  0  0  0  0
  -22.0901  -21.1295   21.4150 C   0  0  0  0  0  0  0  0  0  0  0  0
  -29.4468  -21.3642   19.8179 C   0  0  0  0  0  0  0  0  0  0  0  0
  -29.9578  -20.1113   22.2575 C   0  0  0  0  0  0  0  0  0  0  0  0
  -29.9567  -22.1010   20.8870 C   0  0  0  0  0  0  0  0  0  0  0  0
  -25.5031  -26.1870   18.5662 C   0  0  0  0  0  0  0  0  0  0  0  0
  -19.8821  -28.3980   23.3963 C   0  0  0  0  0  0  0  0  0  0  0  0
  -23.8540  -27.5525   18.0649 C   0  0  0  0  0  0  0  0  0  0  0  0
  -19.0518  -27.7916   21.4358 C   0  0  0  0  0  0  0  0  0  0  0  0
  -24.0883  -25.6223   16.4939 C   0  0  0  0  0  0  0  0  0  0  0  0
  -23.2380  -15.8346   21.7484 C   0  0  0  0  0  0  0  0  0  0  0  0
  -20.7389  -15.5270   23.7935 C   0  0  0  0  0  0  0  0  0  0  0  0
  -18.1478  -17.0112   25.4459 C   0  0  0  0  0  0  0  0  0  0  0  0
  -23.4631  -30.2248   23.4088 C   0  0  0  0  0  0  0  0  0  0  0  0
  -25.9285  -11.5959   20.8253 C   0  0  0  0  0  0  0  0  0  0  0  0
  -23.7134  -17.6751   23.4045 C   0  0  0  0  0  0  0  0  0  0  0  0
  -20.8924  -17.6982   22.5177 C   0  0  0  0  0  0  0  0  0  0  0  0
  -24.4668  -11.9174   21.1260 C   0  0  0  0  0  0  0  0  0  0  0  0
  -24.7602  -31.6266   20.4040 C   0  0  0  0  0  0  0  0  0  0  0  0
  -23.9752  -13.0522   20.2330 C   0  0  0  0  0  0  0  0  0  0  0  0
  -25.0041  -30.4106   19.5085 C   0  0  0  0  0  0  0  0  0  0  0  0
  -25.0649  -31.3192   21.8685 C   0  0  0  0  0  0  0  0  0  0  0  0
  -24.6113  -28.9226   21.5161 C   0  0  0  0  0  0  0  0  0  0  0  0
  -24.7724  -14.3377   20.4852 C   0  0  1  0  0  0  0  0  0  0  0  0
  -22.9514  -16.3852   23.1168 C   0  0  1  0  0  0  0  0  0  0  0  0
  -24.2642  -29.1672   20.0376 C   0  0  2  0  0  0  0  0  0  0  0  0
  -18.5495  -27.8576   20.0407 C   0  0  0  0  0  0  0  0  0  0  0  0
  -19.5208  -29.4132   25.6685 C   0  0  0  0  0  0  0  0  0  0  0  0
  -16.2583  -16.4955   27.0146 C   0  0  0  0  0  0  0  0  0  0  0  0
  -19.1688  -14.2859   21.4904 C   0  0  0  0  0  0  0  0  0  0  0  0
  -17.0725  -14.6706   22.8041 C   0  0  0  0  0  0  0  0  0  0  0  0
  -18.8444  -13.1605   23.7001 C   0  0  0  0  0  0  0  0  0  0  0  0
  -19.2202  -18.8294   27.5202 C   0  0  0  0  0  0  0  0  0  0  0  0
  -19.8654  -24.2755   21.9343 C   0  0  0  0  0  0  0  0  0  0  0  0
  -21.0493  -24.5557   21.0073 C   0  0  0  0  0  0  0  0  0  0  0  0
  -18.7402  -25.3077   21.7993 C   0  0  0  0  0  0  0  0  0  0  0  0
  -21.8716  -28.9931   24.8612 C   0  0  0  0  0  0  0  0  0  0  0  0
  -22.1302  -23.4918   21.1435 C   0  0  0  0  0  0  0  0  0  1  0  0
  -20.4172  -29.3172   24.4039 C   0  0  1  0  0  0  0  0  0  0  0  0
  -19.2395  -15.6576   23.6765 C   0  0  1  0  0  0  0  0  0  0  0  0
  -17.7071  -16.9425   26.8969 C   0  0  2  0  0  0  0  0  0  0  0  0
  -18.5986  -14.4653   22.9115 C   0  0  0  0  0  0  0  0  0  0  0  0
  -25.5510  -27.1304   19.5105 N   0  0  0  0  0  0  0  0  0  0  0  0
  -19.1409  -26.7031   22.2070 N   0  0  0  0  0  0  0  0  0  0  0  0
  -24.5361  -27.9463   19.1784 N   0  0  0  0  0  0  0  0  0  0  0  0
  -19.5001  -28.8298   22.1490 N   0  3  0  0  0  0  0  0  0  0  0  0
  -21.4999  -16.5523   23.2144 N   0  0  0  0  0  0  0  0  0  0  0  0
  -24.3310  -30.1303   22.3084 N   0  0  0  0  0  0  0  0  0  0  0  0
  -22.8049  -28.2583   17.5922 N   0  0  0  0  0  0  0  0  0  0  0  0
  -24.8233  -24.4659   16.1993 N   0  0  0  0  0  0  0  0  0  0  0  0
  -24.3232  -14.9804   21.7016 N   0  0  0  0  0  0  0  0  0  0  0  0
  -18.7380  -15.8347   25.0350 N   0  0  0  0  0  0  0  0  0  0  0  0
  -22.8018  -29.0530   23.7558 N   0  0  0  0  0  0  0  0  0  0  0  0
  -17.8406  -18.2789   27.5426 N   0  3  0  0  0  0  0  0  0  0  0  0
  -23.1381  -25.9533   15.7448 O   0  0  0  0  0  0  0  0  0  0  0  0
  -22.5263  -16.1595   20.8052 O   0  0  0  0  0  0  0  0  0  0  0  0
  -21.2171  -14.5549   24.3833 O   0  0  0  0  0  0  0  0  0  0  0  0
  -17.9816  -18.0075   24.7457 O   0  0  0  0  0  0  0  0  0  0  0  0
  -23.2862  -31.2769   24.0323 O   0  0  0  0  0  0  0  0  0  0  0  0
  -29.1919  -21.9849   18.6066 O   0  0  0  0  0  0  0  0  0  0  0  0
  -21.5771  -22.2245   20.7908 O   0  0  0  0  0  0  0  0  0  1  0  0
  -30.2016  -19.5099   23.4293 F   0  0  0  0  0  0  0  0  0  0  0  0
  -30.2021  -23.4111   20.7485 F   0  0  0  0  0  0  0  0  0  0  0  0
  1  2  1  0  0  0  0
  1  5  2  0  0  0  0
  2  6  2  0  0  0  0
  3  8  2  0  0  0  0
  3 16  1  0  0  0  0
  4  9  1  0  0  0  0
  4 16  2  0  0  0  0
  5 18  1  0  0  0  0
  6 20  1  0  0  0  0
  7 10  2  0  0  0  0
  7 19  1  0  0  0  0
  8 22  1  0  0  0  0
  9 22  2  0  0  0  0
 10 23  1  0  0  0  0
 11 12  2  0  0  0  0
 11 24  1  0  0  0  0
 12 25  1  0  0  0  0
 13 21  1  0  0  0  0
 13 23  2  0  0  0  0
 14 25  2  0  0  0  0
 14 26  1  0  0  0  0
 15 28  2  0  0  0  0
 15 65  1  0  0  0  0
 16 27  1  0  0  0  0
 17 27  1  0  0  0  0
 17 29  2  0  0  0  0
 17 31  1  0  0  0  0
 18 20  2  0  0  0  0
 18 36  1  0  0  0  0
 19 21  2  0  0  0  0
 19 37  1  0  0  0  0
 20 45  1  0  0  0  0
 21 38  1  0  0  0  0
 22 81  1  0  0  0  0
 23 82  1  0  0  0  0
 24 26  2  0  0  0  0
 24 81  1  0  0  0  0
 25 83  1  0  0  0  0
 26 84  1  0  0  0  0
 27 64  2  0  0  0  0
 28 60  1  0  0  0  0
 28 67  1  0  0  0  0
 29 66  1  0  0  0  0
 29 70  1  0  0  0  0
 30 48  1  0  0  0  0
 30 65  1  0  0  0  0
 30 67  2  0  0  0  0
 31 71  1  0  0  0  0
 31 76  2  0  0  0  0
 32 46  1  0  0  0  0
 32 72  1  0  0  0  0
 32 77  2  0  0  0  0
 33 61  1  0  0  0  0
 33 68  1  0  0  0  0
 33 78  2  0  0  0  0
 34 62  1  0  0  0  0
 34 73  1  0  0  0  0
 34 79  2  0  0  0  0
 35 69  1  0  0  0  0
 35 74  1  0  0  0  0
 35 80  2  0  0  0  0
 36 39  1  0  0  0  0
 37 46  1  0  0  0  0
 38 68  1  0  0  0  0
 39 41  1  0  0  0  0
 40 42  1  0  0  0  0
 40 43  1  0  0  0  0
 41 45  1  0  0  0  0
 42 47  1  0  0  0  0
 43 69  1  0  0  0  0
 44 47  1  0  0  0  0
 44 69  1  0  0  0  0
 45 72  1  0  0  0  0
 46 68  1  0  0  0  0
 47 66  1  0  0  0  0
 49 60  1  0  0  0  0
 50 62  1  0  0  0  0
 51 63  1  0  0  0  0
 52 63  1  0  0  0  0
 53 63  1  0  0  0  0
 54 75  1  0  0  0  0
 55 56  1  0  0  0  0
 55 57  1  0  0  0  0
 56 59  1  0  0  0  0
 57 65  1  0  0  0  0
 58 60  1  0  0  0  0
 58 74  1  0  0  0  0
 59 82  1  0  0  0  0
 61 63  1  0  0  0  0
 61 73  1  0  0  0  0
 62 75  1  0  0  0  0
 64 66  1  0  0  0  0
M  CHG  2  67   1  75   1
M  ISO  4  35 100  59 101  74 100  82 101
M  END
> <Batch ID>
0085

> <Smiles>
CNC(C)C(=O)NC(C(=O)N1Cc2cc([101O:1][101CH2:1]CCCn3cc(C(C)C[100NH:0][100C:0](=O)N4CCCC(n5nc(-c6ccc(Oc7ccc(F)cc7F)cc6)c(C(N)=O)c5N)C4)nc3C)ccc2CC1C(=O)NC1CCCc2ccccc21)C(C)(C)C

> <Shape>
0.201

> <Color>
0.071

> <Negative vol penalty>
0.000

$$$$

  -OEChem-04052318563D

 90 98  0     1  0  0  0  0  0999 V2000
  -23.3131  -32.2288   17.1560 C   0  0  0  0  0  0  0  0  0  0  0  0
  -23.2093  -30.8624   17.3958 C   0  0  0  0  0  0  0  0  0  0  0  0
  -26.4304  -12.5370   21.6380 C   0  0  0  0  0  0  0  0  0  0  0  0
  -25.8146  -13.6536   19.5859 C   0  0  0  0  0  0  0  0  0  0  0  0
  -23.3253  -33.1240   18.2249 C   0  0  0  0  0  0  0  0  0  0  0  0
  -23.1189  -30.3902   18.7047 C   0  0  0  0  0  0  0  0  0  0  0  0
  -19.9206  -25.5467   20.6585 C   0  0  0  0  0  0  0  0  0  0  0  0
  -25.2013  -11.8775   21.6479 C   0  0  0  0  0  0  0  0  0  0  0  0
  -24.5856  -12.9940   19.5958 C   0  0  0  0  0  0  0  0  0  0  0  0
  -20.2883  -24.2320   20.9415 C   0  0  0  0  0  0  0  0  0  0  0  0
  -23.7854   -9.2246   20.1019 C   0  0  0  0  0  0  0  0  0  0  0  0
  -23.7849   -7.8589   20.3854 C   0  0  0  0  0  0  0  0  0  0  0  0
  -20.5049  -24.8015   23.2756 C   0  0  0  0  0  0  0  0  0  0  0  0
  -26.3283  -20.3737   22.1856 C   0  0  0  0  0  0  0  0  0  0  0  0
  -22.3710   -8.2576   22.3035 C   0  0  0  0  0  0  0  0  0  0  0  0
  -25.5459  -19.1158   23.8813 C   0  0  0  0  0  0  0  0  0  0  0  0
  -26.7370  -13.4251   20.6070 C   0  0  0  0  0  0  0  0  0  0  0  0
  -29.2024  -13.6678   19.9982 C   0  0  0  0  0  0  0  0  0  0  0  0
  -23.2253  -32.6632   19.5471 C   0  0  0  0  0  0  0  0  0  0  0  0
  -19.8527  -26.5029   21.6820 C   0  0  0  0  0  0  0  0  0  0  0  0
  -23.1312  -31.2800   19.7923 C   0  0  0  0  0  0  0  0  0  0  0  0
  -20.1335  -26.1271   23.0033 C   0  0  0  0  0  0  0  0  0  0  0  0
  -25.3325  -19.4378   22.5592 C   0  0  0  0  0  0  0  0  0  0  0  0
  -24.2789  -12.1060   20.6269 C   0  0  0  0  0  0  0  0  0  0  0  0
  -20.5834  -23.8599   22.2498 C   0  0  0  0  0  0  0  0  0  0  0  0
  -23.0788  -10.1069   20.9193 C   0  0  0  0  0  0  0  0  0  0  0  0
  -23.0777   -7.3754   21.4861 C   0  0  0  0  0  0  0  0  0  0  0  0
  -22.3716   -9.6234   22.0201 C   0  0  0  0  0  0  0  0  0  0  0  0
  -28.0062  -14.1071   20.5964 C   0  0  0  0  0  0  0  0  0  0  0  0
  -27.1201  -20.5949   23.2908 C   0  0  0  0  0  0  0  0  0  0  0  0
  -30.1077  -14.6649   20.2681 C   0  0  0  0  0  0  0  0  0  0  0  0
  -29.4712  -12.4659   19.2641 C   0  0  0  0  0  0  0  0  0  0  0  0
  -21.3580  -29.2322   22.3054 C   0  0  0  0  0  0  0  0  0  0  0  0
  -19.2069  -29.4134   24.7266 C   0  0  0  0  0  0  0  0  0  0  0  0
  -29.3158  -20.4445   21.3836 C   0  0  0  0  0  0  0  0  0  0  0  0
  -17.0922  -27.7825   26.8514 C   0  0  0  0  0  0  0  0  0  0  0  0
  -23.2904  -33.6657   20.6721 C   0  0  0  0  0  0  0  0  0  0  0  0
  -19.4284  -27.9105   21.3642 C   0  0  0  0  0  0  0  0  0  0  0  0
  -20.0558  -27.1108   24.1412 C   0  0  0  0  0  0  0  0  0  0  0  0
  -22.8131  -33.1101   22.0114 C   0  0  0  0  0  0  0  0  0  0  0  0
  -31.1010  -18.0640   23.4748 C   0  0  0  0  0  0  0  0  0  0  0  0
  -23.4302  -31.7395   22.2713 C   0  0  0  0  0  0  0  0  0  0  0  0
  -30.5885  -16.7323   22.9280 C   0  0  0  0  0  0  0  0  0  0  0  0
  -30.0155  -19.1368   23.4481 C   0  0  0  0  0  0  0  0  0  0  0  0
  -28.8921  -18.0126   21.5511 C   0  0  0  0  0  0  0  0  0  0  0  0
  -23.0061  -30.7308   21.1970 C   0  0  1  0  0  0  0  0  0  0  0  0
  -19.8910  -28.9238   22.4067 C   0  0  1  0  0  0  0  0  0  0  0  0
  -29.9657  -16.9117   21.5325 C   0  0  2  0  0  0  0  0  0  0  0  0
  -15.4975  -28.1947   28.7446 C   0  0  0  0  0  0  0  0  0  0  0  0
  -26.8459  -19.7166   28.7065 C   0  0  0  0  0  0  0  0  0  0  0  0
  -26.9505  -22.2164   28.6706 C   0  0  0  0  0  0  0  0  0  0  0  0
  -24.8777  -18.1601   20.4544 C   0  0  0  0  0  0  0  0  0  0  0  0
  -23.3133  -17.8345   22.3489 C   0  0  0  0  0  0  0  0  0  0  0  0
  -30.5358  -22.3125   22.4933 C   0  0  0  0  0  0  0  0  0  0  0  0
  -21.5643  -29.7987   26.6251 C   0  0  0  0  0  0  0  0  0  0  0  0
  -20.0309  -29.2545   28.5280 C   0  0  0  0  0  0  0  0  0  0  0  0
  -19.5891  -31.2555   27.1055 C   0  0  0  0  0  0  0  0  0  0  0  0
  -14.8075  -26.6936   25.3173 C   0  0  0  0  0  0  0  0  0  0  0  0
  -28.2958  -21.4749   23.4539 C   0  0  0  0  0  0  0  0  0  0  0  0
  -22.5431  -20.8274   22.1501 C   0  0  0  0  0  0  0  0  0  0  0  0
  -23.3172  -20.0291   21.0942 C   0  0  0  0  0  0  0  0  0  0  0  0
  -26.7831  -20.9779   26.4914 C   0  0  0  0  0  0  0  0  0  0  0  0
  -27.1767  -19.7585   25.6553 C   0  0  0  0  0  0  0  0  0  0  0  0
  -21.6237  -21.8561   21.5026 C   0  0  0  0  0  0  0  0  0  1  0  0
  -19.1712  -28.9474   26.1621 C   0  0  1  0  0  0  0  0  0  0  0  0
  -15.6489  -28.0502   27.2383 C   0  0  2  0  0  0  0  0  0  0  0  0
  -27.3383  -20.9364   27.9264 C   0  0  0  0  0  0  0  0  0  0  0  0
  -24.2167  -18.8827   21.6554 C   0  0  0  0  0  0  0  0  0  0  0  0
  -29.1643  -21.7136   22.1838 C   0  0  2  0  0  0  0  0  0  0  0  0
  -20.0923  -29.7957   27.0837 C   0  0  0  0  0  0  0  0  0  0  0  0
  -28.1365  -15.2911   21.2009 N   0  0  0  0  0  0  0  0  0  0  0  0
  -26.6353  -19.8248   24.3156 N   0  0  0  0  0  0  0  0  0  0  0  0
  -29.4253  -15.6041   20.9840 N   0  0  0  0  0  0  0  0  0  0  0  0
  -19.6424  -28.4765   23.7788 N   0  0  0  0  0  0  0  0  0  0  0  0
  -29.4285  -19.2577   22.1083 N   0  0  0  0  0  0  0  0  0  0  0  0
  -31.4128  -14.8210   19.9606 N   0  0  0  0  0  0  0  0  0  0  0  0
  -28.4278  -11.5486   19.0790 N   0  0  0  0  0  0  0  0  0  0  0  0
  -21.6567  -30.2689   21.4420 N   0  0  0  0  0  0  0  0  0  0  0  0
  -17.7667  -28.9484   26.5567 N   0  0  0  0  0  0  0  0  0  0  0  0
  -28.4441  -22.7021   21.3105 N   0  3  0  0  0  0  0  0  0  0  0  0
  -14.7747  -26.9324   26.7832 N   0  3  0  0  0  0  0  0  0  0  0  0
  -30.6073  -12.2052   18.8006 O   0  0  0  0  0  0  0  0  0  0  0  0
  -22.1596  -28.5789   22.9630 O   0  0  0  0  0  0  0  0  0  0  0  0
  -18.8544  -30.5640   24.4554 O   0  0  0  0  0  0  0  0  0  0  0  0
  -29.3359  -20.5083   20.1517 O   0  0  0  0  0  0  0  0  0  0  0  0
  -17.5741  -26.6524   26.8178 O   0  0  0  0  0  0  0  0  0  0  0  0
  -23.0797  -11.4624   20.6361 O   0  0  0  0  0  0  0  0  0  0  0  0
  -20.9433  -22.5775   22.5287 O   0  0  0  0  0  0  0  0  0  1  0  0
  -23.0760   -6.0637   21.7573 F   0  0  0  0  0  0  0  0  0  0  0  0
  -21.6900  -10.4659   22.8083 F   0  0  0  0  0  0  0  0  0  0  0  0
  1  2  1  0  0  0  0
  1  5  2  0  0  0  0
  2  6  2  0  0  0  0
  3  8  2  0  0  0  0
  3 17  1  0  0  0  0
  4  9  1  0  0  0  0
  4 17  2  0  0  0  0
  5 19  1  0  0  0  0
  6 21  1  0  0  0  0
  7 10  2  0  0  0  0
  7 20  1  0  0  0  0
  8 24  1  0  0  0  0
  9 24  2  0  0  0  0
 10 25  1  0  0  0  0
 11 12  2  0  0  0  0
 11 26  1  0  0  0  0
 12 27  1  0  0  0  0
 13 22  1  0  0  0  0
 13 25  2  0  0  0  0
 14 23  1  0  0  0  0
 14 30  2  0  0  0  0
 15 27  2  0  0  0  0
 15 28  1  0  0  0  0
 16 23  2  0  0  0  0
 16 72  1  0  0  0  0
 17 29  1  0  0  0  0
 18 29  1  0  0  0  0
 18 31  2  0  0  0  0
 18 32  1  0  0  0  0
 19 21  2  0  0  0  0
 19 37  1  0  0  0  0
 20 22  2  0  0  0  0
 20 38  1  0  0  0  0
 21 46  1  0  0  0  0
 22 39  1  0  0  0  0
 23 68  1  0  0  0  0
 24 87  1  0  0  0  0
 25 88  1  0  0  0  0
 26 28  2  0  0  0  0
 26 87  1  0  0  0  0
 27 89  1  0  0  0  0
 28 90  1  0  0  0  0
 29 71  2  0  0  0  0
 30 59  1  0  0  0  0
 30 72  1  0  0  0  0
 31 73  1  0  0  0  0
 31 76  1  0  0  0  0
 32 77  1  0  0  0  0
 32 82  2  0  0  0  0
 33 47  1  0  0  0  0
 33 78  1  0  0  0  0
 33 83  2  0  0  0  0
 34 65  1  0  0  0  0
 34 74  1  0  0  0  0
 34 84  2  0  0  0  0
 35 69  1  0  0  0  0
 35 75  1  0  0  0  0
 35 85  2  0  0  0  0
 36 66  1  0  0  0  0
 36 79  1  0  0  0  0
 36 86  2  0  0  0  0
 37 40  1  0  0  0  0
 38 47  1  0  0  0  0
 39 74  1  0  0  0  0
 40 42  1  0  0  0  0
 41 43  1  0  0  0  0
 41 44  1  0  0  0  0
 42 46  1  0  0  0  0
 43 48  1  0  0  0  0
 44 75  1  0  0  0  0
 45 48  1  0  0  0  0
 45 75  1  0  0  0  0
 46 78  1  0  0  0  0
 47 74  1  0  0  0  0
 48 73  1  0  0  0  0
 49 66  1  0  0  0  0
 50 67  1  0  0  0  0
 51 67  1  0  0  0  0
 52 68  1  0  0  0  0
 53 68  1  0  0  0  0
 54 69  1  0  0  0  0
 55 70  1  0  0  0  0
 56 70  1  0  0  0  0
 57 70  1  0  0  0  0
 58 81  1  0  0  0  0
 59 69  1  0  0  0  0
 60 61  1  0  0  0  0
 60 64  1  0  0  0  0
 61 68  1  0  0  0  0
 62 63  1  0  0  0  0
 62 67  1  0  0  0  0
 63 72  1  0  0  0  0
 64 88  1  0  0  0  0
 65 70  1  0  0  0  0
 65 79  1  0  0  0  0
 66 81  1  0  0  0  0
 69 80  1  0  0  0  0
 71 73  1  0  0  0  0
M  CHG  2  80   1  81   1
M  ISO  4  35 100  64 101  69 100  88 101
M  END
> <Batch ID>
0085

> <Smiles>
CNC(C)C(=O)NC(C(=O)N1Cc2cc([101O:1][101CH2:1]CCC(C)(C)c3cc(C[100C:0](C)(N)[100C:0](=O)N4CCCC(n5nc(-c6ccc(Oc7ccc(F)cc7F)cc6)c(C(N)=O)c5N)C4)n(CCC(C)C)c3)ccc2CC1C(=O)NC1CCCc2ccccc21)C(C)(C)C

> <Shape>
0.230

> <Color>
0.088

> <Negative vol penalty>
0.000

$$$$

  -OEChem-04052318563D

 85 93  0     1  0  0  0  0  0999 V2000
  -16.7904  -29.5661   24.5638 C   0  0  0  0  0  0  0  0  0  0  0  0
  -17.2997  -28.3791   24.0471 C   0  0  0  0  0  0  0  0  0  0  0  0
  -30.1372  -22.3229   21.7316 C   0  0  0  0  0  0  0  0  0  0  0  0
  -28.3478  -22.5397   20.1228 C   0  0  0  0  0  0  0  0  0  0  0  0
  -17.2947  -30.7894   24.1244 C   0  0  0  0  0  0  0  0  0  0  0  0
  -18.3129  -28.4148   23.0897 C   0  0  0  0  0  0  0  0  0  0  0  0
  -22.9083  -24.4186   22.4423 C   0  0  0  0  0  0  0  0  0  0  0  0
  -22.9820  -16.3544   19.3864 C   0  0  0  0  0  0  0  0  0  0  0  0
  -30.8413  -23.3388   21.0853 C   0  0  0  0  0  0  0  0  0  0  0  0
  -29.0520  -23.5557   19.4765 C   0  0  0  0  0  0  0  0  0  0  0  0
  -23.0900  -23.3277   21.5933 C   0  0  0  0  0  0  0  0  0  0  0  0
  -30.5378  -25.9587   17.1901 C   0  0  0  0  0  0  0  0  0  0  0  0
  -30.6039  -25.9171   15.7975 C   0  0  0  0  0  0  0  0  0  0  0  0
  -22.8026  -17.4298   18.5234 C   0  0  0  0  0  0  0  0  0  0  0  0
  -24.3336  -24.7267   20.0717 C   0  0  0  0  0  0  0  0  0  0  0  0
  -31.6993  -23.7668   15.9136 C   0  0  0  0  0  0  0  0  0  0  0  0
  -28.8904  -21.9233   21.2503 C   0  0  0  0  0  0  0  0  0  0  0  0
  -27.2358  -21.0161   22.9670 C   0  0  0  0  0  0  0  0  0  0  0  0
  -18.3213  -30.8399   23.1683 C   0  0  0  0  0  0  0  0  0  0  0  0
  -23.4294  -25.6764   22.1064 C   0  0  0  0  0  0  0  0  0  0  0  0
  -18.8305  -29.6399   22.6361 C   0  0  0  0  0  0  0  0  0  0  0  0
  -24.1593  -25.8313   20.9193 C   0  0  0  0  0  0  0  0  0  0  0  0
  -22.4190  -16.3886   20.6573 C   0  0  0  0  0  0  0  0  0  0  0  0
  -30.2987  -23.9552   19.9578 C   0  0  0  0  0  0  0  0  0  0  0  0
  -23.8003  -23.4822   20.4065 C   0  0  0  0  0  0  0  0  0  0  0  0
  -31.0526  -24.9044   17.9446 C   0  0  0  0  0  0  0  0  0  0  0  0
  -31.1846  -24.8212   15.1592 C   0  0  0  0  0  0  0  0  0  0  0  0
  -31.6333  -23.8084   17.3063 C   0  0  0  0  0  0  0  0  0  0  0  0
  -28.1628  -20.8735   21.9171 C   0  0  0  0  0  0  0  0  0  0  0  0
  -22.0577  -18.5070   18.9757 C   0  0  0  0  0  0  0  0  0  0  0  0
  -21.6915  -17.5126   21.0141 C   0  0  0  0  0  0  0  0  0  0  0  0
  -26.8305  -19.7333   23.2437 C   0  0  0  0  0  0  0  0  0  0  0  0
  -26.7818  -22.2021   23.6325 C   0  0  0  0  0  0  0  0  0  0  0  0
  -22.1785  -28.5402   21.5252 C   0  0  0  0  0  0  0  0  0  0  0  0
  -25.2909  -29.4491   21.4289 C   0  0  0  0  0  0  0  0  0  0  0  0
  -28.5519  -28.5704   20.9382 C   0  0  0  0  0  0  0  0  0  0  0  0
  -25.0411  -14.8088   21.0382 C   0  0  0  0  0  0  0  0  0  0  0  0
  -18.8016  -32.1869   22.6893 C   0  0  0  0  0  0  0  0  0  0  0  0
  -23.2475  -26.8369   23.0458 C   0  0  0  0  0  0  0  0  0  0  0  0
  -24.7564  -27.1559   20.5226 C   0  0  0  0  0  0  0  0  0  0  0  0
  -20.1348  -32.1299   21.9478 C   0  0  0  0  0  0  0  0  0  0  0  0
  -28.6511  -15.2821   21.7053 C   0  0  0  0  0  0  0  0  0  0  0  0
  -20.1302  -30.9957   20.9278 C   0  0  0  0  0  0  0  0  0  0  0  0
  -28.7700  -16.7998   21.8335 C   0  0  0  0  0  0  0  0  0  0  0  0
  -27.4961  -14.8786   20.7939 C   0  0  0  0  0  0  0  0  0  0  0  0
  -26.3043  -16.9813   21.3157 C   0  0  0  0  0  0  0  0  0  0  0  0
  -19.9469  -29.6369   21.6145 C   0  0  1  0  0  0  0  0  0  0  0  0
  -23.3810  -28.1909   22.3556 C   0  0  1  0  0  0  0  0  0  0  0  0
  -27.4298  -17.4205   22.2644 C   0  0  2  0  0  0  0  0  0  0  0  0
  -21.0613  -17.6033   22.3652 C   0  0  0  0  0  0  0  0  0  0  0  0
  -30.8667  -29.5381   20.8883 C   0  0  0  0  0  0  0  0  0  0  0  0
  -24.7215  -30.6638   18.6884 C   0  0  0  0  0  0  0  0  0  0  0  0
  -27.1919  -30.7517   18.2913 C   0  0  0  0  0  0  0  0  0  0  0  0
  -26.1840  -32.0566   20.1633 C   0  0  0  0  0  0  0  0  0  0  0  0
  -24.3590  -15.4925   23.3069 C   0  0  0  0  0  0  0  0  0  0  0  0
  -29.4480  -26.8415   23.1668 C   0  0  0  0  0  0  0  0  0  0  0  0
  -21.8415  -19.6896   18.0656 C   0  0  0  0  0  0  0  0  0  0  0  0
  -22.9176  -20.7700   18.1935 C   0  0  0  0  0  0  0  0  0  0  0  0
  -22.0445  -13.9269   21.0142 C   0  0  0  0  0  0  0  0  0  0  0  0
  -22.9597  -21.4202   19.5715 C   0  0  0  0  0  0  0  0  0  1  0  0
  -22.6089  -15.2402   21.5867 C   0  0  1  0  0  0  0  0  0  0  0  0
  -26.3451  -29.5405   20.3522 C   0  0  1  0  0  0  0  0  0  0  0  0
  -29.8057  -28.8620   21.7427 C   0  0  2  0  0  0  0  0  0  0  0  0
  -26.0979  -30.7285   19.3801 C   0  0  0  0  0  0  0  0  0  0  0  0
  -28.3363  -19.6006   21.5518 N   0  0  0  0  0  0  0  0  0  0  0  0
  -21.4955  -18.5763   20.2032 N   0  0  0  0  0  0  0  0  0  0  0  0
  -27.5129  -18.9315   22.3767 N   0  0  0  0  0  0  0  0  0  0  0  0
  -24.5460  -28.2620   21.4712 N   0  0  0  0  0  0  0  0  0  0  0  0
  -26.2434  -15.5166   21.2001 N   0  0  0  0  0  0  0  0  0  0  0  0
  -25.9605  -19.2242   24.1416 N   0  0  0  0  0  0  0  0  0  0  0  0
  -27.3005  -23.4381   23.2233 N   0  0  0  0  0  0  0  0  0  0  0  0
  -21.1880  -29.2059   22.2216 N   0  0  0  0  0  0  0  0  0  0  0  0
  -27.6298  -29.5903   21.0419 N   0  0  0  0  0  0  0  0  0  0  0  0
  -24.0133  -15.0757   21.9553 N   0  0  0  0  0  0  0  0  0  0  0  0
  -22.2138  -12.8195   21.9896 N   0  3  0  0  0  0  0  0  0  0  0  0
  -30.3767  -27.5982   22.2884 N   0  3  0  0  0  0  0  0  0  0  0  0
  -25.9532  -22.1653   24.5736 O   0  0  0  0  0  0  0  0  0  0  0  0
  -22.1520  -28.2300   20.3399 O   0  0  0  0  0  0  0  0  0  0  0  0
  -25.1390  -30.3931   22.2082 O   0  0  0  0  0  0  0  0  0  0  0  0
  -28.4067  -27.5424   20.2803 O   0  0  0  0  0  0  0  0  0  0  0  0
  -24.8980  -13.9783   20.1317 O   0  0  0  0  0  0  0  0  0  0  0  0
  -30.9855  -24.9467   19.3271 O   0  0  0  0  0  0  0  0  0  0  0  0
  -23.9786  -22.4192   19.5757 O   0  0  0  0  0  0  0  0  0  1  0  0
  -31.2466  -24.7807   13.8218 F   0  0  0  0  0  0  0  0  0  0  0  0
  -32.1284  -22.7920   18.0257 F   0  0  0  0  0  0  0  0  0  0  0  0
  1  2  1  0  0  0  0
  1  5  2  0  0  0  0
  2  6  2  0  0  0  0
  3  9  2  0  0  0  0
  3 17  1  0  0  0  0
  4 10  1  0  0  0  0
  4 17  2  0  0  0  0
  5 19  1  0  0  0  0
  6 21  1  0  0  0  0
  7 11  2  0  0  0  0
  7 20  1  0  0  0  0
  8 14  2  0  0  0  0
  8 23  1  0  0  0  0
  9 24  1  0  0  0  0
 10 24  2  0  0  0  0
 11 25  1  0  0  0  0
 12 13  2  0  0  0  0
 12 26  1  0  0  0  0
 13 27  1  0  0  0  0
 14 30  1  0  0  0  0
 15 22  1  0  0  0  0
 15 25  2  0  0  0  0
 16 27  2  0  0  0  0
 16 28  1  0  0  0  0
 17 29  1  0  0  0  0
 18 29  1  0  0  0  0
 18 32  2  0  0  0  0
 18 33  1  0  0  0  0
 19 21  2  0  0  0  0
 19 38  1  0  0  0  0
 20 22  2  0  0  0  0
 20 39  1  0  0  0  0
 21 47  1  0  0  0  0
 22 40  1  0  0  0  0
 23 31  2  0  0  0  0
 23 61  1  0  0  0  0
 24 82  1  0  0  0  0
 25 83  1  0  0  0  0
 26 28  2  0  0  0  0
 26 82  1  0  0  0  0
 27 84  1  0  0  0  0
 28 85  1  0  0  0  0
 29 65  2  0  0  0  0
 30 57  1  0  0  0  0
 30 66  2  0  0  0  0
 31 50  1  0  0  0  0
 31 66  1  0  0  0  0
 32 67  1  0  0  0  0
 32 70  1  0  0  0  0
 33 71  1  0  0  0  0
 33 77  2  0  0  0  0
 34 48  1  0  0  0  0
 34 72  1  0  0  0  0
 34 78  2  0  0  0  0
 35 62  1  0  0  0  0
 35 68  1  0  0  0  0
 35 79  2  0  0  0  0
 36 63  1  0  0  0  0
 36 73  1  0  0  0  0
 36 80  2  0  0  0  0
 37 69  1  0  0  0  0
 37 74  1  0  0  0  0
 37 81  2  0  0  0  0
 38 41  1  0  0  0  0
 39 48  1  0  0  0  0
 40 68  1  0  0  0  0
 41 43  1  0  0  0  0
 42 44  1  0  0  0  0
 42 45  1  0  0  0  0
 43 47  1  0  0  0  0
 44 49  1  0  0  0  0
 45 69  1  0  0  0  0
 46 49  1  0  0  0  0
 46 69  1  0  0  0  0
 47 72  1  0  0  0  0
 48 68  1  0  0  0  0
 49 67  1  0  0  0  0
 51 63  1  0  0  0  0
 52 64  1  0  0  0  0
 53 64  1  0  0  0  0
 54 64  1  0  0  0  0
 55 74  1  0  0  0  0
 56 76  1  0  0  0  0
 57 58  1  0  0  0  0
 58 60  1  0  0  0  0
 59 61  1  0  0  0  0
 59 75  1  0  0  0  0
 60 83  1  0  0  0  0
 61 74  1  0  0  0  0
 62 64  1  0  0  0  0
 62 73  1  0  0  0  0
 63 76  1  0  0  0  0
 65 67  1  0  0  0  0
M  CHG  2  75   1  76   1
M  ISO  4  37 100  60 101  74 100  83 101
M  END
> <Batch ID>
0085

> <Smiles>
CNC(C)C(=O)NC(C(=O)N1Cc2cc([101O:1][101CH2:1]CCc3ccc(C(CN)[100N:0](C)[100C:0](=O)N4CCCC(n5nc(-c6ccc(Oc7ccc(F)cc7F)cc6)c(C(N)=O)c5N)C4)c(C)n3)ccc2CC1C(=O)NC1CCCc2ccccc21)C(C)(C)C

> <Shape>
0.199

> <Color>
0.084

> <Negative vol penalty>
0.000

$$$$

  -OEChem-04052318563D

 88 96  0     1  0  0  0  0  0999 V2000
  -16.9694  -29.3216   24.5032 C   0  0  0  0  0  0  0  0  0  0  0  0
  -17.4190  -28.1394   23.9239 C   0  0  0  0  0  0  0  0  0  0  0  0
  -26.2254  -12.9633   20.4150 C   0  0  0  0  0  0  0  0  0  0  0  0
  -24.4617  -14.6084   20.2728 C   0  0  0  0  0  0  0  0  0  0  0  0
  -17.5328  -30.5398   24.1257 C   0  0  0  0  0  0  0  0  0  0  0  0
  -18.4317  -28.1749   22.9659 C   0  0  0  0  0  0  0  0  0  0  0  0
  -22.8240  -23.9967   22.0958 C   0  0  0  0  0  0  0  0  0  0  0  0
  -28.4218  -21.6382   15.8302 C   0  0  0  0  0  0  0  0  0  0  0  0
  -25.3645  -12.0987   21.0909 C   0  0  0  0  0  0  0  0  0  0  0  0
  -23.6007  -13.7437   20.9487 C   0  0  0  0  0  0  0  0  0  0  0  0
  -22.9509  -22.9437   21.1909 C   0  0  0  0  0  0  0  0  0  0  0  0
  -23.5244   -9.3163   22.5356 C   0  0  0  0  0  0  0  0  0  0  0  0
  -23.5065   -7.9788   22.1401 C   0  0  0  0  0  0  0  0  0  0  0  0
  -27.2072  -20.9675   15.9214 C   0  0  0  0  0  0  0  0  0  0  0  0
  -24.2601  -24.3569   19.7391 C   0  0  0  0  0  0  0  0  0  0  0  0
  -22.8255   -8.6444   19.9197 C   0  0  0  0  0  0  0  0  0  0  0  0
  -25.7740  -14.2182   20.0060 C   0  0  0  0  0  0  0  0  0  0  0  0
  -26.8587  -15.2018   17.9171 C   0  0  0  0  0  0  0  0  0  0  0  0
  -18.5596  -30.5893   23.1698 C   0  0  0  0  0  0  0  0  0  0  0  0
  -23.4060  -25.2431   21.8235 C   0  0  0  0  0  0  0  0  0  0  0  0
  -19.0085  -29.3950   22.5744 C   0  0  0  0  0  0  0  0  0  0  0  0
  -24.1413  -25.4234   20.6433 C   0  0  0  0  0  0  0  0  0  0  0  0
  -28.9119  -22.3301   16.9322 C   0  0  0  0  0  0  0  0  0  0  0  0
  -24.0522  -12.4889   21.3577 C   0  0  0  0  0  0  0  0  0  0  0  0
  -23.6666  -23.1245   20.0110 C   0  0  0  0  0  0  0  0  0  0  0  0
  -23.1927  -10.3179   21.6231 C   0  0  0  0  0  0  0  0  0  0  0  0
  -23.1571   -7.6428   20.8322 C   0  0  0  0  0  0  0  0  0  0  0  0
  -22.8433   -9.9819   20.3152 C   0  0  0  0  0  0  0  0  0  0  0  0
  -26.6630  -15.1120   19.3083 C   0  0  0  0  0  0  0  0  0  0  0  0
  -26.5268  -21.0191   17.1273 C   0  0  0  0  0  0  0  0  0  0  0  0
  -28.1551  -22.3209   18.0928 C   0  0  0  0  0  0  0  0  0  0  0  0
  -27.7957  -16.1946   17.7655 C   0  0  0  0  0  0  0  0  0  0  0  0
  -26.2480  -14.4547   16.8566 C   0  0  0  0  0  0  0  0  0  0  0  0
  -22.2971  -28.1912   21.3958 C   0  0  0  0  0  0  0  0  0  0  0  0
  -29.3203  -20.8405   21.2588 C   0  0  0  0  0  0  0  0  0  0  0  0
  -25.4503  -28.9499   21.3352 C   0  0  0  0  0  0  0  0  0  0  0  0
  -28.6635  -27.9387   20.7878 C   0  0  0  0  0  0  0  0  0  0  0  0
  -19.1051  -31.9342   22.7593 C   0  0  0  0  0  0  0  0  0  0  0  0
  -23.2826  -26.3610   22.8223 C   0  0  0  0  0  0  0  0  0  0  0  0
  -24.8025  -26.7359   20.3135 C   0  0  0  0  0  0  0  0  0  0  0  0
  -20.4330  -31.8502   22.0110 C   0  0  0  0  0  0  0  0  0  0  0  0
  -31.4709  -18.2600   20.0115 C   0  0  0  0  0  0  0  0  0  0  0  0
  -20.3715  -30.7720   20.9337 C   0  0  0  0  0  0  0  0  0  0  0  0
  -30.5010  -17.1570   19.5897 C   0  0  0  0  0  0  0  0  0  0  0  0
  -30.9714  -18.9998   21.2485 C   0  0  0  0  0  0  0  0  0  0  0  0
  -28.6234  -18.4626   20.6829 C   0  0  0  0  0  0  0  0  0  0  0  0
  -20.1223  -29.3901   21.5499 C   0  0  1  0  0  0  0  0  0  0  0  0
  -23.4818  -27.7407   22.2026 C   0  0  1  0  0  0  0  0  0  0  0  0
  -29.0752  -17.7104   19.4186 C   0  0  2  0  0  0  0  0  0  0  0  0
  -22.6478  -19.1151   16.0435 C   0  0  0  0  0  0  0  0  0  0  0  0
  -30.1880  -24.1805   15.7913 C   0  0  0  0  0  0  0  0  0  0  0  0
  -31.3946  -22.1044   16.5587 C   0  0  0  0  0  0  0  0  0  0  0  0
  -27.1273  -21.0662   22.3394 C   0  0  0  0  0  0  0  0  0  0  0  0
  -31.0231  -28.7929   20.7795 C   0  0  0  0  0  0  0  0  0  0  0  0
  -24.9383  -30.3315   18.6633 C   0  0  0  0  0  0  0  0  0  0  0  0
  -27.4096  -30.3185   18.2623 C   0  0  0  0  0  0  0  0  0  0  0  0
  -26.4693  -31.5725   20.2029 C   0  0  0  0  0  0  0  0  0  0  0  0
  -29.4759  -26.0547   22.9207 C   0  0  0  0  0  0  0  0  0  0  0  0
  -25.2053  -20.3006   17.2625 C   0  0  0  0  0  0  0  0  0  0  0  0
  -28.6335  -23.0444   19.3087 C   0  0  0  0  0  0  0  0  0  0  0  0
  -22.6770  -20.3448   16.9407 C   0  0  0  0  0  0  0  0  0  0  0  0
  -27.8308  -22.7393   20.5896 C   0  0  0  0  0  0  0  0  0  0  0  0
  -23.9151  -22.4423   17.7464 C   0  0  0  0  0  0  0  0  0  1  0  0
  -30.2119  -23.0515   16.8402 C   0  0  0  0  0  0  0  0  0  0  0  0
  -27.8925  -21.2713   21.0355 C   0  0  1  0  0  0  0  0  0  0  0  0
  -26.5065  -29.0452   20.2608 C   0  0  1  0  0  0  0  0  0  0  0  0
  -29.9311  -28.1264   21.6017 C   0  0  2  0  0  0  0  0  0  0  0  0
  -23.9846  -21.1689   16.8881 C   0  0  1  0  0  0  0  0  0  0  0  0
  -26.3170  -30.2927   19.3523 C   0  0  0  0  0  0  0  0  0  0  0  0
  -27.4154  -15.9785   19.9918 N   0  0  0  0  0  0  0  0  0  0  0  0
  -26.9710  -21.6809   18.2192 N   0  0  0  0  0  0  0  0  0  0  0  0
  -28.0930  -16.6222   19.0260 N   0  0  0  0  0  0  0  0  0  0  0  0
  -24.6479  -27.8003   21.3188 N   0  0  0  0  0  0  0  0  0  0  0  0
  -29.6058  -19.4904   21.0542 N   0  0  0  0  0  0  0  0  0  0  0  0
  -28.3861  -16.7347   16.6782 N   0  0  0  0  0  0  0  0  0  0  0  0
  -25.3055  -13.4718   17.1885 N   0  0  0  0  0  0  0  0  0  0  0  0
  -21.3413  -28.8678   22.1293 N   0  0  0  0  0  0  0  0  0  0  0  0
  -27.7928  -28.9959   20.9474 N   0  0  0  0  0  0  0  0  0  0  0  0
  -30.4398  -26.8095   22.0792 N   0  3  0  0  0  0  0  0  0  0  0  0
  -26.5418  -14.6415   15.6515 O   0  0  0  0  0  0  0  0  0  0  0  0
  -22.2540  -27.9445   20.1962 O   0  0  0  0  0  0  0  0  0  0  0  0
  -30.1560  -21.6807   21.6018 O   0  0  0  0  0  0  0  0  0  0  0  0
  -25.3459  -29.8586   22.1629 O   0  0  0  0  0  0  0  0  0  0  0  0
  -28.4671  -26.9547   20.0781 O   0  0  0  0  0  0  0  0  0  0  0  0
  -23.2117  -11.6453   22.0170 O   0  0  0  0  0  0  0  0  0  0  0  0
  -23.7914  -22.0985   19.1258 O   0  0  0  0  0  0  0  0  0  1  0  0
  -23.1414   -6.3585   20.4522 F   0  0  0  0  0  0  0  0  0  0  0  0
  -22.5250  -10.9398   19.4338 F   0  0  0  0  0  0  0  0  0  0  0  0
  1  2  1  0  0  0  0
  1  5  2  0  0  0  0
  2  6  2  0  0  0  0
  3  9  2  0  0  0  0
  3 17  1  0  0  0  0
  4 10  1  0  0  0  0
  4 17  2  0  0  0  0
  5 19  1  0  0  0  0
  6 21  1  0  0  0  0
  7 11  2  0  0  0  0
  7 20  1  0  0  0  0
  8 14  2  0  0  0  0
  8 23  1  0  0  0  0
  9 24  1  0  0  0  0
 10 24  2  0  0  0  0
 11 25  1  0  0  0  0
 12 13  2  0  0  0  0
 12 26  1  0  0  0  0
 13 27  1  0  0  0  0
 14 30  1  0  0  0  0
 15 22  1  0  0  0  0
 15 25  2  0  0  0  0
 16 27  2  0  0  0  0
 16 28  1  0  0  0  0
 17 29  1  0  0  0  0
 18 29  1  0  0  0  0
 18 32  2  0  0  0  0
 18 33  1  0  0  0  0
 19 21  2  0  0  0  0
 19 38  1  0  0  0  0
 20 22  2  0  0  0  0
 20 39  1  0  0  0  0
 21 47  1  0  0  0  0
 22 40  1  0  0  0  0
 23 31  2  0  0  0  0
 23 64  1  0  0  0  0
 24 85  1  0  0  0  0
 25 86  1  0  0  0  0
 26 28  2  0  0  0  0
 26 85  1  0  0  0  0
 27 87  1  0  0  0  0
 28 88  1  0  0  0  0
 29 70  2  0  0  0  0
 30 59  1  0  0  0  0
 30 71  2  0  0  0  0
 31 60  1  0  0  0  0
 31 71  1  0  0  0  0
 32 72  1  0  0  0  0
 32 75  1  0  0  0  0
 33 76  1  0  0  0  0
 33 80  2  0  0  0  0
 34 48  1  0  0  0  0
 34 77  1  0  0  0  0
 34 81  2  0  0  0  0
 35 65  1  0  0  0  0
 35 74  1  0  0  0  0
 35 82  2  0  0  0  0
 36 66  1  0  0  0  0
 36 73  1  0  0  0  0
 36 83  2  0  0  0  0
 37 67  1  0  0  0  0
 37 78  1  0  0  0  0
 37 84  2  0  0  0  0
 38 41  1  0  0  0  0
 39 48  1  0  0  0  0
 40 73  1  0  0  0  0
 41 43  1  0  0  0  0
 42 44  1  0  0  0  0
 42 45  1  0  0  0  0
 43 47  1  0  0  0  0
 44 49  1  0  0  0  0
 45 74  1  0  0  0  0
 46 49  1  0  0  0  0
 46 74  1  0  0  0  0
 47 77  1  0  0  0  0
 48 73  1  0  0  0  0
 49 72  1  0  0  0  0
 50 61  1  0  0  0  0
 51 64  1  0  0  0  0
 52 64  1  0  0  0  0
 53 65  1  0  0  0  0
 54 67  1  0  0  0  0
 55 69  1  0  0  0  0
 56 69  1  0  0  0  0
 57 69  1  0  0  0  0
 58 79  1  0  0  0  0
 59 68  1  0  0  0  0
 60 62  1  0  0  0  0
 61 68  1  0  0  0  0
 62 65  1  0  0  0  0
 63 68  1  0  0  0  0
 63 86  1  0  0  0  0
 66 69  1  0  0  0  0
 66 78  1  0  0  0  0
 67 79  1  0  0  0  0
 70 72  1  0  0  0  0
M  CHG  1  79   1
M  ISO  4  35 100  63 101  65 100  86 101
M  END
> <Batch ID>
0085

> <Smiles>
CCC(Cc1ccc(C(C)C)c(CC[100CH:0](C)[100C:0](=O)N2CCCC(n3nc(-c4ccc(Oc5ccc(F)cc5F)cc4)c(C(N)=O)c3N)C2)n1)[101CH2:1][101O:1]c1ccc2c(c1)CN(C(=O)C(NC(=O)C(C)NC)C(C)(C)C)C(C(=O)NC1CCCc3ccccc31)C2

> <Shape>
0.249

> <Color>
0.079

> <Negative vol penalty>
0.000

$$$$

  -OEChem-04052318563D

 85 93  0     1  0  0  0  0  0999 V2000
  -30.3968  -24.6050   18.6779 C   0  0  0  0  0  0  0  0  0  0  0  0
  -29.0223  -24.5333   18.8805 C   0  0  0  0  0  0  0  0  0  0  0  0
  -27.9154  -14.7530   21.3670 C   0  0  0  0  0  0  0  0  0  0  0  0
  -26.1718  -15.4965   19.8690 C   0  0  0  0  0  0  0  0  0  0  0  0
  -31.1895  -25.3574   19.5436 C   0  0  0  0  0  0  0  0  0  0  0  0
  -28.4399  -25.2130   19.9496 C   0  0  0  0  0  0  0  0  0  0  0  0
  -22.9203  -27.8641   20.0586 C   0  0  0  0  0  0  0  0  0  0  0  0
  -27.4139  -13.4529   21.3056 C   0  0  0  0  0  0  0  0  0  0  0  0
  -25.6702  -14.1964   19.8076 C   0  0  0  0  0  0  0  0  0  0  0  0
  -21.6863  -27.4415   20.5510 C   0  0  0  0  0  0  0  0  0  0  0  0
  -23.7150  -11.1443   19.5401 C   0  0  0  0  0  0  0  0  0  0  0  0
  -22.3349  -10.9758   19.6522 C   0  0  0  0  0  0  0  0  0  0  0  0
  -22.1015  -28.6400   22.6029 C   0  0  0  0  0  0  0  0  0  0  0  0
  -22.3882  -11.9966   21.8414 C   0  0  0  0  0  0  0  0  0  0  0  0
  -22.1556  -22.8397   19.8197 C   0  0  0  0  0  0  0  0  0  0  0  0
  -27.2944  -15.7748   20.6488 C   0  0  0  0  0  0  0  0  0  0  0  0
  -28.7809  -17.6965   19.8708 C   0  0  0  0  0  0  0  0  0  0  0  0
  -30.6153  -26.0546   20.6182 C   0  0  0  0  0  0  0  0  0  0  0  0
  -23.7603  -28.6702   20.8402 C   0  0  0  0  0  0  0  0  0  0  0  0
  -29.2258  -25.9744   20.8313 C   0  0  0  0  0  0  0  0  0  0  0  0
  -23.3445  -29.0736   22.1171 C   0  0  0  0  0  0  0  0  0  0  0  0
  -26.2913  -13.1746   20.5259 C   0  0  0  0  0  0  0  0  0  0  0  0
  -21.2780  -27.8271   21.8245 C   0  0  0  0  0  0  0  0  0  0  0  0
  -24.4317  -11.7388   20.5787 C   0  0  0  0  0  0  0  0  0  0  0  0
  -21.6715  -11.4020   20.8028 C   0  0  0  0  0  0  0  0  0  0  0  0
  -23.7683  -12.1650   21.7293 C   0  0  0  0  0  0  0  0  0  0  0  0
  -27.8117  -17.1181   20.7122 C   0  0  0  0  0  0  0  0  0  0  0  0
  -22.3748  -22.9411   21.1645 C   0  0  0  0  0  0  0  0  0  0  0  0
  -28.9226  -18.9791   20.3412 C   0  0  0  0  0  0  0  0  0  0  0  0
  -20.4116  -21.9633   20.8642 C   0  0  0  0  0  0  0  0  0  0  0  0
  -29.4897  -17.1254   18.7631 C   0  0  0  0  0  0  0  0  0  0  0  0
  -26.6758  -28.3469   22.0646 C   0  0  0  0  0  0  0  0  0  0  0  0
  -26.2359  -31.4444   22.9218 C   0  0  0  0  0  0  0  0  0  0  0  0
  -24.0561  -33.9740   23.6264 C   0  0  0  0  0  0  0  0  0  0  0  0
  -25.2880  -22.6259   23.3978 C   0  0  0  0  0  0  0  0  0  0  0  0
  -31.5189  -26.8164   21.5552 C   0  0  0  0  0  0  0  0  0  0  0  0
  -25.0766  -29.1396   20.2841 C   0  0  0  0  0  0  0  0  0  0  0  0
  -24.2005  -29.9551   22.9881 C   0  0  0  0  0  0  0  0  0  0  0  0
  -30.7759  -27.8110   22.4435 C   0  0  0  0  0  0  0  0  0  0  0  0
  -28.5478  -21.5590   24.3530 C   0  0  0  0  0  0  0  0  0  0  0  0
  -29.5386  -27.1606   23.0541 C   0  0  0  0  0  0  0  0  0  0  0  0
  -28.8162  -20.3521   23.4524 C   0  0  0  0  0  0  0  0  0  0  0  0
  -27.0839  -21.6284   24.7822 C   0  0  0  0  0  0  0  0  0  0  0  0
  -26.3797  -20.3865   22.7732 C   0  0  0  0  0  0  0  0  0  0  0  0
  -28.5538  -26.7178   21.9652 C   0  0  1  0  0  0  0  0  0  0  0  0
  -26.0759  -29.5348   21.3669 C   0  0  1  0  0  0  0  0  0  0  0  0
  -27.8308  -20.3052   22.2691 C   0  0  2  0  0  0  0  0  0  0  0  0
  -19.1023  -21.3085   21.1080 C   0  0  0  0  0  0  0  0  0  0  0  0
  -24.2183  -24.6624   21.1659 C   0  0  0  0  0  0  0  0  0  0  0  0
  -23.9938  -36.3812   24.3326 C   0  0  0  0  0  0  0  0  0  0  0  0
  -18.9160  -28.2291   24.2220 C   0  0  0  0  0  0  0  0  0  0  0  0
  -26.9294  -30.6222   25.7771 C   0  0  0  0  0  0  0  0  0  0  0  0
  -25.9440  -32.7847   26.5650 C   0  0  0  0  0  0  0  0  0  0  0  0
  -27.9237  -32.7978   25.0473 C   0  0  0  0  0  0  0  0  0  0  0  0
  -22.6609  -34.7860   21.1459 C   0  0  0  0  0  0  0  0  0  0  0  0
  -20.5858  -24.7787   23.5350 C   0  0  0  0  0  0  0  0  0  0  0  0
  -20.1392  -23.3478   23.8544 C   0  0  0  0  0  0  0  0  0  0  0  0
  -19.5722  -25.8035   24.0569 C   0  0  0  0  0  0  0  0  0  0  0  0
  -21.0789  -22.2832   23.2770 C   0  0  0  0  0  0  0  0  0  0  0  0
  -23.5114  -23.5038   21.9037 C   0  0  2  0  0  0  0  0  0  0  0  0
  -25.6603  -32.1489   24.1265 C   0  0  1  0  0  0  0  0  0  0  0  0
  -24.0014  -35.4166   23.1569 C   0  0  2  0  0  0  0  0  0  0  0  0
  -19.9652  -27.2462   23.7206 C   0  0  1  0  0  0  0  0  0  1  0  0
  -26.5989  -32.0702   25.3636 C   0  0  0  0  0  0  0  0  0  0  0  0
  -27.3691  -17.9639   21.6465 N   0  0  0  0  0  0  0  0  0  0  0  0
  -21.2797  -22.3915   21.7865 N   0  0  0  0  0  0  0  0  0  0  0  0
  -28.0633  -19.0868   21.3949 N   0  0  0  0  0  0  0  0  0  0  0  0
  -20.9338  -22.2307   19.6629 N   0  3  0  0  0  0  0  0  0  0  0  0
  -25.4816  -30.3829   22.4022 N   0  0  0  0  0  0  0  0  0  0  0  0
  -26.2020  -21.5813   23.6134 N   0  0  0  0  0  0  0  0  0  0  0  0
  -29.6971  -20.0141   19.9522 N   0  0  0  0  0  0  0  0  0  0  0  0
  -29.2232  -15.7945   18.4139 N   0  0  0  0  0  0  0  0  0  0  0  0
  -27.8159  -27.8550   21.4584 N   0  0  0  0  0  0  0  0  0  0  0  0
  -25.3521  -33.5083   23.6958 N   0  0  0  0  0  0  0  0  0  0  0  0
  -24.4944  -22.5062   22.2635 N   0  0  0  0  0  0  0  0  0  0  0  0
  -22.7720  -35.6518   22.3481 N   0  3  0  0  0  0  0  0  0  0  0  0
  -30.3463  -17.7709   18.1127 O   0  0  0  0  0  0  0  0  0  0  0  0
  -26.1444  -27.9100   23.0787 O   0  0  0  0  0  0  0  0  0  0  0  0
  -27.3116  -31.8266   22.4544 O   0  0  0  0  0  0  0  0  0  0  0  0
  -23.0501  -33.3263   23.9073 O   0  0  0  0  0  0  0  0  0  0  0  0
  -25.1905  -23.5961   24.1567 O   0  0  0  0  0  0  0  0  0  0  0  0
  -25.8017  -11.9060   20.4656 O   0  0  0  0  0  0  0  0  0  0  0  0
  -20.0743  -27.4155   22.3078 O   0  0  0  0  0  0  0  0  0  1  0  0
  -20.3460  -11.2416   20.9097 F   0  0  0  0  0  0  0  0  0  0  0  0
  -24.4513  -12.7379   22.7298 F   0  0  0  0  0  0  0  0  0  0  0  0
  1  2  1  0  0  0  0
  1  5  2  0  0  0  0
  2  6  2  0  0  0  0
  3  8  2  0  0  0  0
  3 16  1  0  0  0  0
  4  9  1  0  0  0  0
  4 16  2  0  0  0  0
  5 18  1  0  0  0  0
  6 20  1  0  0  0  0
  7 10  2  0  0  0  0
  7 19  1  0  0  0  0
  8 22  1  0  0  0  0
  9 22  2  0  0  0  0
 10 23  1  0  0  0  0
 11 12  2  0  0  0  0
 11 24  1  0  0  0  0
 12 25  1  0  0  0  0
 13 21  1  0  0  0  0
 13 23  2  0  0  0  0
 14 25  2  0  0  0  0
 14 26  1  0  0  0  0
 15 28  2  0  0  0  0
 15 68  1  0  0  0  0
 16 27  1  0  0  0  0
 17 27  1  0  0  0  0
 17 29  2  0  0  0  0
 17 31  1  0  0  0  0
 18 20  2  0  0  0  0
 18 36  1  0  0  0  0
 19 21  2  0  0  0  0
 19 37  1  0  0  0  0
 20 45  1  0  0  0  0
 21 38  1  0  0  0  0
 22 82  1  0  0  0  0
 23 83  1  0  0  0  0
 24 26  2  0  0  0  0
 24 82  1  0  0  0  0
 25 84  1  0  0  0  0
 26 85  1  0  0  0  0
 27 65  2  0  0  0  0
 28 60  1  0  0  0  0
 28 66  1  0  0  0  0
 29 67  1  0  0  0  0
 29 71  1  0  0  0  0
 30 48  1  0  0  0  0
 30 66  1  0  0  0  0
 30 68  2  0  0  0  0
 31 72  1  0  0  0  0
 31 77  2  0  0  0  0
 32 46  1  0  0  0  0
 32 73  1  0  0  0  0
 32 78  2  0  0  0  0
 33 61  1  0  0  0  0
 33 69  1  0  0  0  0
 33 79  2  0  0  0  0
 34 62  1  0  0  0  0
 34 74  1  0  0  0  0
 34 80  2  0  0  0  0
 35 70  1  0  0  0  0
 35 75  1  0  0  0  0
 35 81  2  0  0  0  0
 36 39  1  0  0  0  0
 37 46  1  0  0  0  0
 38 69  1  0  0  0  0
 39 41  1  0  0  0  0
 40 42  1  0  0  0  0
 40 43  1  0  0  0  0
 41 45  1  0  0  0  0
 42 47  1  0  0  0  0
 43 70  1  0  0  0  0
 44 47  1  0  0  0  0
 44 70  1  0  0  0  0
 45 73  1  0  0  0  0
 46 69  1  0  0  0  0
 47 67  1  0  0  0  0
 49 60  1  0  0  0  0
 50 62  1  0  0  0  0
 51 63  1  0  0  0  0
 52 64  1  0  0  0  0
 53 64  1  0  0  0  0
 54 64  1  0  0  0  0
 55 76  1  0  0  0  0
 56 57  1  0  0  0  0
 56 58  1  0  0  0  0
 57 59  1  0  0  0  0
 58 63  1  0  0  0  0
 59 66  1  0  0  0  0
 60 75  1  0  0  0  0
 61 64  1  0  0  0  0
 61 74  1  0  0  0  0
 62 76  1  0  0  0  0
 63 83  1  0  0  0  0
 65 67  1  0  0  0  0
M  CHG  2  68   1  76   1
M  ISO  4  35 100  63 101  75 100  83 101
M  END
> <Batch ID>
0085

> <Smiles>
CNC(C)C(=O)NC(C(=O)N1Cc2cc([101O:1][101CH:1](C)CCCCn3c(C(C)[100NH:0][100C:0](=O)N4CCCC(n5nc(-c6ccc(Oc7ccc(F)cc7F)cc6)c(C(N)=O)c5N)C4)cnc3C)ccc2CC1C(=O)NC1CCCc2ccccc21)C(C)(C)C

> <Shape>
0.281

> <Color>
0.067

> <Negative vol penalty>
0.000

$$$$

  -OEChem-04052318563D

 83 91  0     1  0  0  0  0  0999 V2000
  -32.4078  -12.1248   21.1668 C   0  0  0  0  0  0  0  0  0  0  0  0
  -32.1109  -13.3890   21.6659 C   0  0  0  0  0  0  0  0  0  0  0  0
  -27.1346  -24.1518   19.1390 C   0  0  0  0  0  0  0  0  0  0  0  0
  -24.7843  -23.8411   18.6735 C   0  0  0  0  0  0  0  0  0  0  0  0
  -31.5312  -11.5042   20.2777 C   0  0  0  0  0  0  0  0  0  0  0  0
  -30.9378  -14.0338   21.2753 C   0  0  0  0  0  0  0  0  0  0  0  0
  -25.9537  -18.5418   23.7559 C   0  0  0  0  0  0  0  0  0  0  0  0
  -27.2788  -22.7775   19.3285 C   0  0  0  0  0  0  0  0  0  0  0  0
  -24.9285  -22.4667   18.8630 C   0  0  0  0  0  0  0  0  0  0  0  0
  -25.3214  -19.7384   23.4211 C   0  0  0  0  0  0  0  0  0  0  0  0
  -27.5652  -20.0138   17.4015 C   0  0  0  0  0  0  0  0  0  0  0  0
  -28.6617  -19.3891   16.8073 C   0  0  0  0  0  0  0  0  0  0  0  0
  -23.8431  -18.5363   21.9417 C   0  0  0  0  0  0  0  0  0  0  0  0
  -29.4390  -18.6837   18.9834 C   0  0  0  0  0  0  0  0  0  0  0  0
  -20.2599  -27.4131   23.3449 C   0  0  0  0  0  0  0  0  0  0  0  0
  -25.8874  -24.6837   18.8116 C   0  0  0  0  0  0  0  0  0  0  0  0
  -25.8821  -26.8156   17.4106 C   0  0  0  0  0  0  0  0  0  0  0  0
  -30.3421  -12.1376   19.8836 C   0  0  0  0  0  0  0  0  0  0  0  0
  -25.5419  -17.3329   23.1768 C   0  0  0  0  0  0  0  0  0  0  0  0
  -30.0452  -13.4216   20.3792 C   0  0  0  0  0  0  0  0  0  0  0  0
  -24.4702  -17.3254   22.2727 C   0  0  0  0  0  0  0  0  0  0  0  0
  -26.1758  -21.9349   19.1904 C   0  0  0  0  0  0  0  0  0  0  0  0
  -24.2678  -19.7362   22.5117 C   0  0  0  0  0  0  0  0  0  0  0  0
  -27.4057  -19.9736   18.7866 C   0  0  0  0  0  0  0  0  0  0  0  0
  -29.5986  -18.7240   17.5982 C   0  0  0  0  0  0  0  0  0  0  0  0
  -28.3426  -19.3085   19.5776 C   0  0  0  0  0  0  0  0  0  0  0  0
  -25.7377  -26.1034   18.6163 C   0  0  0  0  0  0  0  0  0  0  0  0
  -19.3509  -28.3346   22.8892 C   0  0  0  0  0  0  0  0  0  0  0  0
  -25.6405  -28.1235   17.7533 C   0  0  0  0  0  0  0  0  0  0  0  0
  -26.2057  -26.3375   16.0982 C   0  0  0  0  0  0  0  0  0  0  0  0
  -26.9186  -15.1521   21.3187 C   0  0  0  0  0  0  0  0  0  0  0  0
  -24.1483  -13.5411   21.8210 C   0  0  0  0  0  0  0  0  0  0  0  0
  -20.8333  -13.6582   22.6234 C   0  0  0  0  0  0  0  0  0  0  0  0
  -22.5240  -30.6676   22.1879 C   0  0  0  0  0  0  0  0  0  0  0  0
  -29.4487  -11.4471   18.8837 C   0  0  0  0  0  0  0  0  0  0  0  0
  -26.2169  -16.0471   23.5687 C   0  0  0  0  0  0  0  0  0  0  0  0
  -23.9767  -16.0516   21.6384 C   0  0  0  0  0  0  0  0  0  0  0  0
  -28.0437  -12.0396   18.8110 C   0  0  0  0  0  0  0  0  0  0  0  0
  -25.9723  -31.1499   21.4440 C   0  0  0  0  0  0  0  0  0  0  0  0
  -28.1093  -13.5620   18.7426 C   0  0  0  0  0  0  0  0  0  0  0  0
  -26.3162  -29.9755   20.5262 C   0  0  0  0  0  0  0  0  0  0  0  0
  -24.9764  -30.7456   22.5288 C   0  0  0  0  0  0  0  0  0  0  0  0
  -24.0862  -28.9355   21.1128 C   0  0  0  0  0  0  0  0  0  0  0  0
  -28.7704  -14.1427   19.9985 C   0  0  1  0  0  0  0  0  0  0  0  0
  -26.0514  -14.9440   22.5279 C   0  0  1  0  0  0  0  0  0  0  0  0
  -25.0444  -29.3084   19.9687 C   0  0  2  0  0  0  0  0  0  0  0  0
  -18.8243  -12.1835   22.9170 C   0  0  0  0  0  0  0  0  0  0  0  0
  -23.8829  -13.3034   18.7907 C   0  0  0  0  0  0  0  0  0  0  0  0
  -21.4754  -12.6996   19.1187 C   0  0  0  0  0  0  0  0  0  0  0  0
  -23.2653  -11.2373   20.0572 C   0  0  0  0  0  0  0  0  0  0  0  0
  -20.5386  -14.4289   25.4656 C   0  0  0  0  0  0  0  0  0  0  0  0
  -19.4083  -29.8006   22.9547 C   0  0  0  0  0  0  0  0  0  0  0  0
  -21.4400  -22.8456   22.2771 C   0  0  0  0  0  0  0  0  0  0  0  0
  -20.8450  -24.2278   22.0002 C   0  0  0  0  0  0  0  0  0  0  0  0
  -22.0018  -22.2168   20.9986 C   0  0  0  0  0  0  0  0  0  0  0  0
  -20.2471  -24.8390   23.2694 C   0  0  0  0  0  0  0  0  0  0  0  0
  -20.0910  -30.4662   21.7419 C   0  0  0  0  0  0  0  0  0  0  0  0
  -22.5769  -20.8272   21.2442 C   0  0  0  0  0  0  0  0  0  1  0  0
  -22.8070  -13.4798   21.1310 C   0  0  1  0  0  0  0  0  0  0  0  0
  -20.0054  -12.8493   23.6056 C   0  0  2  0  0  0  0  0  0  0  0  0
  -22.8680  -12.7045   19.7847 C   0  0  0  0  0  0  0  0  0  0  0  0
  -25.4284  -26.8934   19.6479 N   0  0  0  0  0  0  0  0  0  0  0  0
  -18.2922  -27.6893   22.3128 N   0  0  0  0  0  0  0  0  0  0  0  0
  -18.5156  -26.3824   22.3971 N   0  0  0  0  0  0  0  0  0  0  0  0
  -19.6959  -26.2189   23.0165 N   0  0  0  0  0  0  0  0  0  0  0  0
  -25.3766  -28.1156   19.0914 N   0  0  0  0  0  0  0  0  0  0  0  0
  -24.6731  -14.8211   22.0488 N   0  0  0  0  0  0  0  0  0  0  0  0
  -23.7926  -30.1207   21.9338 N   0  0  0  0  0  0  0  0  0  0  0  0
  -25.6301  -29.2680   17.0376 N   0  0  0  0  0  0  0  0  0  0  0  0
  -26.4229  -24.9642   15.9220 N   0  0  0  0  0  0  0  0  0  0  0  0
  -27.8387  -14.1433   21.1058 N   0  0  0  0  0  0  0  0  0  0  0  0
  -21.8737  -12.9188   22.1019 N   0  0  0  0  0  0  0  0  0  0  0  0
  -21.4563  -30.0183   21.5804 N   0  0  0  0  0  0  0  0  0  0  0  0
  -19.4830  -13.7283   24.6897 N   0  3  0  0  0  0  0  0  0  0  0  0
  -26.3155  -27.1076   15.1141 O   0  0  0  0  0  0  0  0  0  0  0  0
  -26.7635  -16.1530   20.6289 O   0  0  0  0  0  0  0  0  0  0  0  0
  -24.7064  -12.4921   22.1523 O   0  0  0  0  0  0  0  0  0  0  0  0
  -20.5799  -14.8279   22.3436 O   0  0  0  0  0  0  0  0  0  0  0  0
  -22.3559  -31.6641   22.8990 O   0  0  0  0  0  0  0  0  0  0  0  0
  -26.3162  -20.5937   19.3750 O   0  0  0  0  0  0  0  0  0  0  0  0
  -23.6493  -20.9028   22.1827 O   0  0  0  0  0  0  0  0  0  1  0  0
  -30.6506  -18.1227   17.0274 F   0  0  0  0  0  0  0  0  0  0  0  0
  -28.1940  -19.2655   20.9087 F   0  0  0  0  0  0  0  0  0  0  0  0
  1  2  1  0  0  0  0
  1  5  2  0  0  0  0
  2  6  2  0  0  0  0
  3  8  2  0  0  0  0
  3 16  1  0  0  0  0
  4  9  1  0  0  0  0
  4 16  2  0  0  0  0
  5 18  1  0  0  0  0
  6 20  1  0  0  0  0
  7 10  2  0  0  0  0
  7 19  1  0  0  0  0
  8 22  1  0  0  0  0
  9 22  2  0  0  0  0
 10 23  1  0  0  0  0
 11 12  2  0  0  0  0
 11 24  1  0  0  0  0
 12 25  1  0  0  0  0
 13 21  1  0  0  0  0
 13 23  2  0  0  0  0
 14 25  2  0  0  0  0
 14 26  1  0  0  0  0
 15 28  2  0  0  0  0
 15 65  1  0  0  0  0
 16 27  1  0  0  0  0
 17 27  1  0  0  0  0
 17 29  2  0  0  0  0
 17 30  1  0  0  0  0
 18 20  2  0  0  0  0
 18 35  1  0  0  0  0
 19 21  2  0  0  0  0
 19 36  1  0  0  0  0
 20 44  1  0  0  0  0
 21 37  1  0  0  0  0
 22 80  1  0  0  0  0
 23 81  1  0  0  0  0
 24 26  2  0  0  0  0
 24 80  1  0  0  0  0
 25 82  1  0  0  0  0
 26 83  1  0  0  0  0
 27 62  2  0  0  0  0
 28 52  1  0  0  0  0
 28 63  1  0  0  0  0
 29 66  1  0  0  0  0
 29 69  1  0  0  0  0
 30 70  1  0  0  0  0
 30 75  2  0  0  0  0
 31 45  1  0  0  0  0
 31 71  1  0  0  0  0
 31 76  2  0  0  0  0
 32 59  1  0  0  0  0
 32 67  1  0  0  0  0
 32 77  2  0  0  0  0
 33 60  1  0  0  0  0
 33 72  1  0  0  0  0
 33 78  2  0  0  0  0
 34 68  1  0  0  0  0
 34 73  1  0  0  0  0
 34 79  2  0  0  0  0
 35 38  1  0  0  0  0
 36 45  1  0  0  0  0
 37 67  1  0  0  0  0
 38 40  1  0  0  0  0
 39 41  1  0  0  0  0
 39 42  1  0  0  0  0
 40 44  1  0  0  0  0
 41 46  1  0  0  0  0
 42 68  1  0  0  0  0
 43 46  1  0  0  0  0
 43 68  1  0  0  0  0
 44 71  1  0  0  0  0
 45 67  1  0  0  0  0
 46 66  1  0  0  0  0
 47 60  1  0  0  0  0
 48 61  1  0  0  0  0
 49 61  1  0  0  0  0
 50 61  1  0  0  0  0
 51 74  1  0  0  0  0
 52 57  1  0  0  0  0
 53 54  1  0  0  0  0
 53 55  1  0  0  0  0
 54 56  1  0  0  0  0
 55 58  1  0  0  0  0
 56 65  1  0  0  0  0
 57 73  1  0  0  0  0
 58 81  1  0  0  0  0
 59 61  1  0  0  0  0
 59 72  1  0  0  0  0
 60 74  1  0  0  0  0
 62 66  1  0  0  0  0
 63 64  2  0  0  0  0
 64 65  1  0  0  0  0
M  CHG  1  74   1
M  ISO  4  34 100  58 101  73 100  81 101
M  END
> <Batch ID>
0085

> <Smiles>
CNC(C)C(=O)NC(C(=O)N1Cc2cc([101O:1][101CH2:1]CCCCn3cc(CC[100NH:0][100C:0](=O)N4CCCC(n5nc(-c6ccc(Oc7ccc(F)cc7F)cc6)c(C(N)=O)c5N)C4)nn3)ccc2CC1C(=O)NC1CCCc2ccccc21)C(C)(C)C

> <Shape>
0.233

> <Color>
0.078

> <Negative vol penalty>
0.000

$$$$

  -OEChem-04052318562D

  0  0  0     0  0  0  0  0  0999 V2000
M  END
$$$$

  -OEChem-04052318563D

 86 94  0     1  0  0  0  0  0999 V2000
  -19.4652  -19.6643   29.5001 C   0  0  0  0  0  0  0  0  0  0  0  0
  -20.5025  -19.1020   28.7630 C   0  0  0  0  0  0  0  0  0  0  0  0
  -23.2877   -9.7999   19.9136 C   0  0  0  0  0  0  0  0  0  0  0  0
  -23.7401   -9.9402   22.2827 C   0  0  0  0  0  0  0  0  0  0  0  0
  -18.3400  -20.1659   28.8473 C   0  0  0  0  0  0  0  0  0  0  0  0
  -20.4146  -19.0400   27.3727 C   0  0  0  0  0  0  0  0  0  0  0  0
  -24.7135  -20.4379   25.0901 C   0  0  0  0  0  0  0  0  0  0  0  0
  -22.5612   -8.6275   20.1217 C   0  0  0  0  0  0  0  0  0  0  0  0
  -23.0136   -8.7678   22.4909 C   0  0  0  0  0  0  0  0  0  0  0  0
  -25.7501  -19.5060   25.0590 C   0  0  0  0  0  0  0  0  0  0  0  0
  -19.7666   -7.8573   22.7104 C   0  0  0  0  0  0  0  0  0  0  0  0
  -18.8649   -7.8357   23.7744 C   0  0  0  0  0  0  0  0  0  0  0  0
  -25.1634  -18.9384   22.7890 C   0  0  0  0  0  0  0  0  0  0  0  0
  -20.0710   -5.9882   24.7588 C   0  0  0  0  0  0  0  0  0  0  0  0
  -29.1199  -15.4989   25.4455 C   0  0  0  0  0  0  0  0  0  0  0  0
  -23.8772  -10.4563   20.9941 C   0  0  0  0  0  0  0  0  0  0  0  0
  -24.1369  -12.9862   20.7956 C   0  0  0  0  0  0  0  0  0  0  0  0
  -18.2425  -20.1188   27.4477 C   0  0  0  0  0  0  0  0  0  0  0  0
  -23.8859  -20.6196   23.9728 C   0  0  0  0  0  0  0  0  0  0  0  0
  -19.2864  -19.5402   26.7007 C   0  0  0  0  0  0  0  0  0  0  0  0
  -24.1186  -19.8750   22.8076 C   0  0  0  0  0  0  0  0  0  0  0  0
  -22.4242   -8.1115   21.4104 C   0  0  0  0  0  0  0  0  0  0  0  0
  -25.9733  -18.7540   23.9093 C   0  0  0  0  0  0  0  0  0  0  0  0
  -20.8204   -6.9443   22.6705 C   0  0  0  0  0  0  0  0  0  0  0  0
  -19.0172   -6.9012   24.7987 C   0  0  0  0  0  0  0  0  0  0  0  0
  -20.9726   -6.0098   23.6947 C   0  0  0  0  0  0  0  0  0  0  0  0
  -24.6282  -11.6671   20.7797 C   0  0  0  0  0  0  0  0  0  0  0  0
  -30.2436  -14.9891   24.7680 C   0  0  0  0  0  0  0  0  0  0  0  0
  -28.8470  -16.6868   24.8125 C   0  0  0  0  0  0  0  0  0  0  0  0
  -25.2384  -13.7659   20.5400 C   0  0  0  0  0  0  0  0  0  0  0  0
  -22.8041  -13.4641   21.0214 C   0  0  0  0  0  0  0  0  0  0  0  0
  -20.7813  -20.2526   23.3976 C   0  0  0  0  0  0  0  0  0  0  0  0
  -21.5524  -21.5751   20.5377 C   0  0  0  0  0  0  0  0  0  0  0  0
  -23.9459  -22.2043   18.1879 C   0  0  0  0  0  0  0  0  0  0  0  0
  -31.1098  -12.9217   21.3554 C   0  0  0  0  0  0  0  0  0  0  0  0
  -16.9856  -20.6308   26.7898 C   0  0  0  0  0  0  0  0  0  0  0  0
  -22.7889  -21.6478   24.0132 C   0  0  0  0  0  0  0  0  0  0  0  0
  -23.2713  -20.0466   21.5744 C   0  0  0  0  0  0  0  0  0  0  0  0
  -17.1362  -20.8663   25.2891 C   0  0  0  0  0  0  0  0  0  0  0  0
  -29.4589  -13.6618   18.2889 C   0  0  0  0  0  0  0  0  0  0  0  0
  -17.8258  -19.6768   24.6286 C   0  0  0  0  0  0  0  0  0  0  0  0
  -27.9893  -13.3535   18.5809 C   0  0  0  0  0  0  0  0  0  0  0  0
  -30.3925  -12.6821   18.9965 C   0  0  0  0  0  0  0  0  0  0  0  0
  -28.7070  -12.2529   20.7425 C   0  0  0  0  0  0  0  0  0  0  0  0
  -19.2390  -19.4772   25.1895 C   0  0  1  0  0  0  0  0  0  0  0  0
  -21.6845  -21.3837   22.9945 C   0  0  1  0  0  0  0  0  0  0  0  0
  -27.7288  -13.2483   20.0956 C   0  0  2  0  0  0  0  0  0  0  0  0
  -24.2668  -23.2724   15.9398 C   0  0  0  0  0  0  0  0  0  0  0  0
  -28.7360  -19.9126   20.9002 C   0  0  0  0  0  0  0  0  0  0  0  0
  -29.0141  -18.1850   19.1116 C   0  0  0  0  0  0  0  0  0  0  0  0
  -30.0952  -12.5544   25.6323 C   0  0  0  0  0  0  0  0  0  0  0  0
  -32.0945  -13.9461   26.1037 C   0  0  0  0  0  0  0  0  0  0  0  0
  -20.2194  -19.1734   19.2091 C   0  0  0  0  0  0  0  0  0  0  0  0
  -21.3803  -19.7953   17.0798 C   0  0  0  0  0  0  0  0  0  0  0  0
  -19.7437  -21.3698   18.1119 C   0  0  0  0  0  0  0  0  0  0  0  0
  -25.8882  -24.1602   19.2653 C   0  0  0  0  0  0  0  0  0  0  0  0
  -27.7766  -17.7099   25.0555 C   0  0  0  0  0  0  0  0  0  1  0  0
  -29.3887  -17.5234   21.5058 C   0  0  0  0  0  0  0  0  0  0  0  0
  -29.9204  -17.8987   22.8907 C   0  0  0  0  0  0  0  0  0  0  0  0
  -31.6734  -13.1350   23.7629 C   0  0  0  0  0  0  0  0  0  0  0  0
  -22.0023  -21.0409   19.1994 C   0  0  1  0  0  0  0  0  0  0  0  0
  -24.3199  -23.4749   17.4461 C   0  0  2  0  0  0  0  0  0  0  0  0
  -29.5102  -18.6630   20.4784 C   0  0  0  0  0  0  0  0  0  0  0  0
  -30.9604  -13.7315   25.0386 C   0  0  0  0  0  0  0  0  0  0  0  0
  -20.8513  -20.3400   18.4238 C   0  0  0  0  0  0  0  0  0  0  0  0
  -25.9396  -11.6082   20.5332 N   0  0  0  0  0  0  0  0  0  0  0  0
  -30.6562  -15.7878   23.7801 N   0  0  0  0  0  0  0  0  0  0  0  0
  -29.7870  -16.8114   23.8323 N   0  0  0  0  0  0  0  0  0  0  0  0
  -26.2817  -12.9001   20.3919 N   0  0  0  0  0  0  0  0  0  0  0  0
  -22.2071  -21.0599   21.6655 N   0  0  0  0  0  0  0  0  0  0  0  0
  -30.0942  -12.6306   20.4297 N   0  0  0  0  0  0  0  0  0  0  0  0
  -25.4065  -15.1008   20.4295 N   0  0  0  0  0  0  0  0  0  0  0  0
  -21.7916  -12.5273   21.2695 N   0  0  0  0  0  0  0  0  0  0  0  0
  -20.1521  -20.4409   24.6134 N   0  0  0  0  0  0  0  0  0  0  0  0
  -22.6013  -22.1668   18.4909 N   0  0  0  0  0  0  0  0  0  0  0  0
  -30.7410  -12.8561   22.6935 N   0  0  0  0  0  0  0  0  0  0  0  0
  -25.6990  -23.9029   17.8145 N   0  3  0  0  0  0  0  0  0  0  0  0
  -22.5165  -14.6846   20.9874 O   0  0  0  0  0  0  0  0  0  0  0  0
  -20.6629  -19.2815   22.6595 O   0  0  0  0  0  0  0  0  0  0  0  0
  -20.6580  -22.4236   20.5806 O   0  0  0  0  0  0  0  0  0  0  0  0
  -24.7640  -21.3306   18.4670 O   0  0  0  0  0  0  0  0  0  0  0  0
  -32.2586  -13.2233   21.0145 O   0  0  0  0  0  0  0  0  0  0  0  0
  -21.7152   -6.9676   21.6138 O   0  0  0  0  0  0  0  0  0  0  0  0
  -26.9839  -17.8433   23.8764 O   0  0  0  0  0  0  0  0  0  1  0  0
  -18.1522   -6.8815   25.8212 F   0  0  0  0  0  0  0  0  0  0  0  0
  -21.9838   -5.1309   23.6625 F   0  0  0  0  0  0  0  0  0  0  0  0
  1  2  1  0  0  0  0
  1  5  2  0  0  0  0
  2  6  2  0  0  0  0
  3  8  2  0  0  0  0
  3 16  1  0  0  0  0
  4  9  1  0  0  0  0
  4 16  2  0  0  0  0
  5 18  1  0  0  0  0
  6 20  1  0  0  0  0
  7 10  2  0  0  0  0
  7 19  1  0  0  0  0
  8 22  1  0  0  0  0
  9 22  2  0  0  0  0
 10 23  1  0  0  0  0
 11 12  2  0  0  0  0
 11 24  1  0  0  0  0
 12 25  1  0  0  0  0
 13 21  1  0  0  0  0
 13 23  2  0  0  0  0
 14 25  2  0  0  0  0
 14 26  1  0  0  0  0
 15 28  1  0  0  0  0
 15 29  2  0  0  0  0
 16 27  1  0  0  0  0
 17 27  1  0  0  0  0
 17 30  2  0  0  0  0
 17 31  1  0  0  0  0
 18 20  2  0  0  0  0
 18 36  1  0  0  0  0
 19 21  2  0  0  0  0
 19 37  1  0  0  0  0
 20 45  1  0  0  0  0
 21 38  1  0  0  0  0
 22 83  1  0  0  0  0
 23 84  1  0  0  0  0
 24 26  2  0  0  0  0
 24 83  1  0  0  0  0
 25 85  1  0  0  0  0
 26 86  1  0  0  0  0
 27 66  2  0  0  0  0
 28 64  1  0  0  0  0
 28 67  2  0  0  0  0
 29 57  1  0  0  0  0
 29 68  1  0  0  0  0
 30 69  1  0  0  0  0
 30 72  1  0  0  0  0
 31 73  1  0  0  0  0
 31 78  2  0  0  0  0
 32 46  1  0  0  0  0
 32 74  1  0  0  0  0
 32 79  2  0  0  0  0
 33 61  1  0  0  0  0
 33 70  1  0  0  0  0
 33 80  2  0  0  0  0
 34 62  1  0  0  0  0
 34 75  1  0  0  0  0
 34 81  2  0  0  0  0
 35 71  1  0  0  0  0
 35 76  1  0  0  0  0
 35 82  2  0  0  0  0
 36 39  1  0  0  0  0
 37 46  1  0  0  0  0
 38 70  1  0  0  0  0
 39 41  1  0  0  0  0
 40 42  1  0  0  0  0
 40 43  1  0  0  0  0
 41 45  1  0  0  0  0
 42 47  1  0  0  0  0
 43 71  1  0  0  0  0
 44 47  1  0  0  0  0
 44 71  1  0  0  0  0
 45 74  1  0  0  0  0
 46 70  1  0  0  0  0
 47 69  1  0  0  0  0
 48 62  1  0  0  0  0
 49 63  1  0  0  0  0
 50 63  1  0  0  0  0
 51 64  1  0  0  0  0
 52 64  1  0  0  0  0
 53 65  1  0  0  0  0
 54 65  1  0  0  0  0
 55 65  1  0  0  0  0
 56 77  1  0  0  0  0
 57 84  1  0  0  0  0
 58 59  1  0  0  0  0
 58 63  1  0  0  0  0
 59 68  1  0  0  0  0
 60 64  1  0  0  0  0
 60 76  1  0  0  0  0
 61 65  1  0  0  0  0
 61 75  1  0  0  0  0
 62 77  1  0  0  0  0
 66 69  1  0  0  0  0
 67 68  1  0  0  0  0
M  CHG  1  77   1
M  ISO  4  35 100  57 101  76 100  84 101
M  END
> <Batch ID>
0085

> <Smiles>
CNC(C)C(=O)NC(C(=O)N1Cc2cc([101O:1][101CH2:1]c3cc(C(C)(C)C[100NH:0][100C:0](=O)N4CCCC(n5nc(-c6ccc(Oc7ccc(F)cc7F)cc6)c(C(N)=O)c5N)C4)nn3CCC(C)C)ccc2CC1C(=O)NC1CCCc2ccccc21)C(C)(C)C

> <Shape>
0.167

> <Color>
0.170

> <Negative vol penalty>
0.000

$$$$

  -OEChem-04052318563D

 82 90  0     1  0  0  0  0  0999 V2000
  -18.6586  -26.2421   22.2212 C   0  0  0  0  0  0  0  0  0  0  0  0
  -18.3163  -24.9462   21.8485 C   0  0  0  0  0  0  0  0  0  0  0  0
  -27.5656  -26.2997   18.7788 C   0  0  0  0  0  0  0  0  0  0  0  0
  -29.0838  -26.0068   20.6352 C   0  0  0  0  0  0  0  0  0  0  0  0
  -19.9998  -26.5912   22.3731 C   0  0  0  0  0  0  0  0  0  0  0  0
  -19.3152  -23.9989   21.6264 C   0  0  0  0  0  0  0  0  0  0  0  0
  -20.5963  -16.9804   22.2711 C   0  0  0  0  0  0  0  0  0  0  0  0
  -27.2477  -27.5770   19.2403 C   0  0  0  0  0  0  0  0  0  0  0  0
  -28.7659  -27.2841   21.0967 C   0  0  0  0  0  0  0  0  0  0  0  0
  -21.0455  -15.8942   21.5213 C   0  0  0  0  0  0  0  0  0  0  0  0
  -25.2938  -28.9449   21.6352 C   0  0  0  0  0  0  0  0  0  0  0  0
  -23.9474  -29.3085   21.6576 C   0  0  0  0  0  0  0  0  0  0  0  0
  -23.3256  -16.5896   21.8910 C   0  0  0  0  0  0  0  0  0  0  0  0
  -27.3981  -13.4939   20.6430 C   0  0  0  0  0  0  0  0  0  0  0  0
  -24.4169  -31.1394   20.1527 C   0  0  0  0  0  0  0  0  0  0  0  0
  -26.9936  -11.8829   18.9550 C   0  0  0  0  0  0  0  0  0  0  0  0
  -28.4836  -25.5146   19.4762 C   0  0  0  0  0  0  0  0  0  0  0  0
  -29.8404  -23.8456   18.1045 C   0  0  0  0  0  0  0  0  0  0  0  0
  -21.0153  -25.6452   22.1622 C   0  0  0  0  0  0  0  0  0  0  0  0
  -21.5096  -17.8870   22.8282 C   0  0  0  0  0  0  0  0  0  0  0  0
  -20.6714  -24.3361   21.7743 C   0  0  0  0  0  0  0  0  0  0  0  0
  -22.8856  -17.6850   22.6496 C   0  0  0  0  0  0  0  0  0  0  0  0
  -26.6369  -12.4414   20.1659 C   0  0  0  0  0  0  0  0  0  0  0  0
  -27.8478  -28.0692   20.3992 C   0  0  0  0  0  0  0  0  0  0  0  0
  -22.4102  -15.7003   21.3287 C   0  0  0  0  0  0  0  0  0  0  0  0
  -26.2018  -29.6785   20.8716 C   0  0  0  0  0  0  0  0  0  0  0  0
  -23.5089  -30.4058   20.9163 C   0  0  0  0  0  0  0  0  0  0  0  0
  -25.7633  -30.7757   20.1303 C   0  0  0  0  0  0  0  0  0  0  0  0
  -28.8120  -24.1948   19.0003 C   0  0  0  0  0  0  0  0  0  0  0  0
  -28.4659  -13.9181   19.8778 C   0  0  0  0  0  0  0  0  0  0  0  0
  -29.7356  -22.4822   17.9761 C   0  0  0  0  0  0  0  0  0  0  0  0
  -30.8042  -24.6792   17.4473 C   0  0  0  0  0  0  0  0  0  0  0  0
  -22.0811  -20.9945   22.4807 C   0  0  0  0  0  0  0  0  0  0  0  0
  -24.1598  -20.4877   24.9188 C   0  0  0  0  0  0  0  0  0  0  0  0
  -26.1161  -18.2908   26.6489 C   0  0  0  0  0  0  0  0  0  0  0  0
  -29.1828  -17.5217   20.2200 C   0  0  0  0  0  0  0  0  0  0  0  0
  -22.4529  -26.0821   22.2926 C   0  0  0  0  0  0  0  0  0  0  0  0
  -21.0100  -19.0386   23.6569 C   0  0  0  0  0  0  0  0  0  0  0  0
  -23.9078  -18.6181   23.2437 C   0  0  0  0  0  0  0  0  0  0  0  0
  -23.4354  -24.9190   22.4032 C   0  0  0  0  0  0  0  0  0  0  0  0
  -26.1127  -19.2981   19.5017 C   0  0  0  0  0  0  0  0  0  0  0  0
  -23.1286  -23.8591   21.3499 C   0  0  0  0  0  0  0  0  0  0  0  0
  -26.6345  -20.7105   19.2319 C   0  0  0  0  0  0  0  0  0  0  0  0
  -26.8985  -18.6230   20.6219 C   0  0  0  0  0  0  0  0  0  0  0  0
  -28.8943  -19.9815   20.1272 C   0  0  0  0  0  0  0  0  0  0  0  0
  -21.7252  -23.2738   21.5486 C   0  0  1  0  0  0  0  0  0  0  0  0
  -22.0092  -20.1880   23.7464 C   0  0  1  0  0  0  0  0  0  0  0  0
  -28.1555  -20.7091   18.9893 C   0  0  2  0  0  0  0  0  0  0  0  0
  -30.0015  -14.7615   21.6922 C   0  0  0  0  0  0  0  0  0  0  0  0
  -27.7288  -18.1783   28.5683 C   0  0  0  0  0  0  0  0  0  0  0  0
  -26.3189  -21.7570   23.1760 C   0  0  0  0  0  0  0  0  0  0  0  0
  -28.0365  -20.7735   24.7093 C   0  0  0  0  0  0  0  0  0  0  0  0
  -26.3907  -22.4320   25.5830 C   0  0  0  0  0  0  0  0  0  0  0  0
  -24.3905  -16.4040   28.1392 C   0  0  0  0  0  0  0  0  0  0  0  0
  -25.4548  -11.9210   20.9439 C   0  0  0  0  0  0  0  0  0  0  0  0
  -24.1356  -12.6147   20.5973 C   0  0  0  0  0  0  0  0  0  0  0  0
  -24.1259  -14.0998   20.9407 C   0  0  0  0  0  0  0  0  0  1  0  0
  -29.3178  -15.0473   20.3467 C   0  0  2  0  0  0  0  0  0  0  0  0
  -25.6134  -20.0931   25.0199 C   0  0  1  0  0  0  0  0  0  0  0  0
  -26.2767  -18.0414   28.1376 C   0  0  2  0  0  0  0  0  0  0  0  0
  -26.5708  -21.2472   24.6091 C   0  0  0  0  0  0  0  0  0  0  0  0
  -28.0439  -12.3183   18.2272 N   0  0  0  0  0  0  0  0  0  0  0  0
  -28.1058  -23.1384   19.4118 N   0  0  0  0  0  0  0  0  0  0  0  0
  -28.7922  -13.3525   18.6964 N   0  0  0  0  0  0  0  0  0  0  0  0
  -28.6913  -22.1120   18.7716 N   0  0  0  0  0  0  0  0  0  0  0  0
  -23.3695  -19.7328   24.0406 N   0  0  0  0  0  0  0  0  0  0  0  0
  -28.3369  -18.6387   20.3207 N   0  0  0  0  0  0  0  0  0  0  0  0
  -30.4357  -21.5758   17.2615 N   0  0  0  0  0  0  0  0  0  0  0  0
  -30.7710  -26.0590   17.6912 N   0  0  0  0  0  0  0  0  0  0  0  0
  -21.7248  -22.3204   22.6373 N   0  0  0  0  0  0  0  0  0  0  0  0
  -25.8111  -19.6087   26.3818 N   0  0  0  0  0  0  0  0  0  0  0  0
  -28.5781  -16.2874   20.4237 N   0  0  0  0  0  0  0  0  0  0  0  0
  -25.8104  -16.6696   28.4863 N   0  3  0  0  0  0  0  0  0  0  0  0
  -31.6587  -24.2163   16.6542 O   0  0  0  0  0  0  0  0  0  0  0  0
  -22.4351  -20.4542   21.4393 O   0  0  0  0  0  0  0  0  0  0  0  0
  -23.7393  -21.4266   25.5996 O   0  0  0  0  0  0  0  0  0  0  0  0
  -26.2517  -17.4059   25.8068 O   0  0  0  0  0  0  0  0  0  0  0  0
  -30.3876  -17.6168   19.9621 O   0  0  0  0  0  0  0  0  0  0  0  0
  -27.5380  -29.3157   20.8498 O   0  0  0  0  0  0  0  0  0  0  0  0
  -22.8512  -14.6412   20.5967 O   0  0  0  0  0  0  0  0  0  1  0  0
  -22.2156  -30.7540   20.9367 F   0  0  0  0  0  0  0  0  0  0  0  0
  -26.6307  -31.4836   19.3939 F   0  0  0  0  0  0  0  0  0  0  0  0
  1  2  1  0  0  0  0
  1  5  2  0  0  0  0
  2  6  2  0  0  0  0
  3  8  2  0  0  0  0
  3 17  1  0  0  0  0
  4  9  1  0  0  0  0
  4 17  2  0  0  0  0
  5 19  1  0  0  0  0
  6 21  1  0  0  0  0
  7 10  2  0  0  0  0
  7 20  1  0  0  0  0
  8 24  1  0  0  0  0
  9 24  2  0  0  0  0
 10 25  1  0  0  0  0
 11 12  2  0  0  0  0
 11 26  1  0  0  0  0
 12 27  1  0  0  0  0
 13 22  1  0  0  0  0
 13 25  2  0  0  0  0
 14 23  2  0  0  0  0
 14 30  1  0  0  0  0
 15 27  2  0  0  0  0
 15 28  1  0  0  0  0
 16 23  1  0  0  0  0
 16 62  2  0  0  0  0
 17 29  1  0  0  0  0
 18 29  1  0  0  0  0
 18 31  2  0  0  0  0
 18 32  1  0  0  0  0
 19 21  2  0  0  0  0
 19 37  1  0  0  0  0
 20 22  2  0  0  0  0
 20 38  1  0  0  0  0
 21 46  1  0  0  0  0
 22 39  1  0  0  0  0
 23 55  1  0  0  0  0
 24 79  1  0  0  0  0
 25 80  1  0  0  0  0
 26 28  2  0  0  0  0
 26 79  1  0  0  0  0
 27 81  1  0  0  0  0
 28 82  1  0  0  0  0
 29 63  2  0  0  0  0
 30 58  1  0  0  0  0
 30 64  2  0  0  0  0
 31 65  1  0  0  0  0
 31 68  1  0  0  0  0
 32 69  1  0  0  0  0
 32 74  2  0  0  0  0
 33 47  1  0  0  0  0
 33 70  1  0  0  0  0
 33 75  2  0  0  0  0
 34 59  1  0  0  0  0
 34 66  1  0  0  0  0
 34 76  2  0  0  0  0
 35 60  1  0  0  0  0
 35 71  1  0  0  0  0
 35 77  2  0  0  0  0
 36 67  1  0  0  0  0
 36 72  1  0  0  0  0
 36 78  2  0  0  0  0
 37 40  1  0  0  0  0
 38 47  1  0  0  0  0
 39 66  1  0  0  0  0
 40 42  1  0  0  0  0
 41 43  1  0  0  0  0
 41 44  1  0  0  0  0
 42 46  1  0  0  0  0
 43 48  1  0  0  0  0
 44 67  1  0  0  0  0
 45 48  1  0  0  0  0
 45 67  1  0  0  0  0
 46 70  1  0  0  0  0
 47 66  1  0  0  0  0
 48 65  1  0  0  0  0
 49 58  1  0  0  0  0
 50 60  1  0  0  0  0
 51 61  1  0  0  0  0
 52 61  1  0  0  0  0
 53 61  1  0  0  0  0
 54 73  1  0  0  0  0
 55 56  1  0  0  0  0
 56 57  1  0  0  0  0
 57 80  1  0  0  0  0
 58 72  1  0  0  0  0
 59 61  1  0  0  0  0
 59 71  1  0  0  0  0
 60 73  1  0  0  0  0
 62 64  1  0  0  0  0
 63 65  1  0  0  0  0
M  CHG  1  73   1
M  ISO  4  36 100  57 101  72 100  80 101
M  END
> <Batch ID>
0085

> <Smiles>
CNC(C)C(=O)NC(C(=O)N1Cc2cc([101O:1][101CH2:1]CCc3cnnc(C(C)[100NH:0][100C:0](=O)N4CCCC(n5nc(-c6ccc(Oc7ccc(F)cc7F)cc6)c(C(N)=O)c5N)C4)c3)ccc2CC1C(=O)NC1CCCc2ccccc21)C(C)(C)C

> <Shape>
0.235

> <Color>
0.062

> <Negative vol penalty>
0.000

$$$$

  -OEChem-04052318563D

 80 87  0     1  0  0  0  0  0999 V2000
  -23.0186  -35.4257   19.9399 C   0  0  0  0  0  0  0  0  0  0  0  0
  -24.0294  -34.4785   20.0690 C   0  0  0  0  0  0  0  0  0  0  0  0
  -27.0805  -12.2792   21.3489 C   0  0  0  0  0  0  0  0  0  0  0  0
  -26.7155  -13.2253   19.1561 C   0  0  0  0  0  0  0  0  0  0  0  0
  -21.8773  -35.3385   20.7360 C   0  0  0  0  0  0  0  0  0  0  0  0
  -23.8999  -33.4441   20.9951 C   0  0  0  0  0  0  0  0  0  0  0  0
  -25.2285  -28.9470   19.0831 C   0  0  0  0  0  0  0  0  0  0  0  0
  -26.3640  -11.1416   20.9774 C   0  0  0  0  0  0  0  0  0  0  0  0
  -25.9990  -12.0877   18.7845 C   0  0  0  0  0  0  0  0  0  0  0  0
  -26.5923  -28.6760   18.9819 C   0  0  0  0  0  0  0  0  0  0  0  0
  -24.3232   -8.1426   20.7229 C   0  0  0  0  0  0  0  0  0  0  0  0
  -23.3849   -7.6419   21.6254 C   0  0  0  0  0  0  0  0  0  0  0  0
  -26.4760  -27.3667   21.0047 C   0  0  0  0  0  0  0  0  0  0  0  0
  -22.1844   -9.7368   21.5395 C   0  0  0  0  0  0  0  0  0  0  0  0
  -27.2563  -13.3211   20.4383 C   0  0  0  0  0  0  0  0  0  0  0  0
  -29.3802  -14.7125   20.6841 C   0  0  0  0  0  0  0  0  0  0  0  0
  -21.7295  -34.2970   21.6655 C   0  0  0  0  0  0  0  0  0  0  0  0
  -24.4791  -28.4381   20.1536 C   0  0  0  0  0  0  0  0  0  0  0  0
  -22.7561  -33.3437   21.8053 C   0  0  0  0  0  0  0  0  0  0  0  0
  -25.1023  -27.6307   21.1158 C   0  0  0  0  0  0  0  0  0  0  0  0
  -25.8232  -11.0458   19.6952 C   0  0  0  0  0  0  0  0  0  0  0  0
  -27.2169  -27.8881   19.9444 C   0  0  0  0  0  0  0  0  0  0  0  0
  -24.1922   -9.4404   20.2288 C   0  0  0  0  0  0  0  0  0  0  0  0
  -22.3154   -8.4389   22.0336 C   0  0  0  0  0  0  0  0  0  0  0  0
  -23.1227  -10.2375   20.6370 C   0  0  0  0  0  0  0  0  0  0  0  0
  -27.9959  -14.4967   20.8216 C   0  0  0  0  0  0  0  0  0  0  0  0
  -29.5835  -15.9721   21.1928 C   0  0  0  0  0  0  0  0  0  0  0  0
  -30.3918  -13.8515   20.1447 C   0  0  0  0  0  0  0  0  0  0  0  0
  -22.8158  -29.7226   22.5383 C   0  0  0  0  0  0  0  0  0  0  0  0
  -28.0313  -21.3338   21.5555 C   0  0  0  0  0  0  0  0  0  0  0  0
  -21.9926  -26.6372   23.1085 C   0  0  0  0  0  0  0  0  0  0  0  0
  -22.7529  -23.3269   22.7759 C   0  0  0  0  0  0  0  0  0  0  0  0
  -20.4989  -34.2712   22.5372 C   0  0  0  0  0  0  0  0  0  0  0  0
  -23.0034  -28.7175   20.2338 C   0  0  0  0  0  0  0  0  0  0  0  0
  -24.3384  -27.0435   22.2734 C   0  0  0  0  0  0  0  0  0  0  0  0
  -20.2717  -32.9304   23.2307 C   0  0  0  0  0  0  0  0  0  0  0  0
  -26.5172  -19.0058   23.8200 C   0  0  0  0  0  0  0  0  0  0  0  0
  -21.5693  -32.4245   23.8529 C   0  0  0  0  0  0  0  0  0  0  0  0
  -26.8549  -17.6442   23.2140 C   0  0  0  0  0  0  0  0  0  0  0  0
  -26.2768  -20.0543   22.7383 C   0  0  0  0  0  0  0  0  0  0  0  0
  -27.7449  -18.8369   21.1621 C   0  0  0  0  0  0  0  0  0  0  0  0
  -22.6413  -32.1927   22.7812 C   0  0  1  0  0  0  0  0  0  0  0  0
  -22.4437  -28.5727   21.6456 C   0  0  1  0  0  0  0  0  0  0  0  0
  -28.0254  -17.7560   22.2211 C   0  0  2  0  0  0  0  0  0  0  0  0
  -21.9089  -21.0417   23.3782 C   0  0  0  0  0  0  0  0  0  0  0  0
  -30.7820  -23.0427   21.4956 C   0  0  0  0  0  0  0  0  0  0  0  0
  -31.6160  -24.1296   17.3926 C   0  0  0  0  0  0  0  0  0  0  0  0
  -22.9448  -27.0446   25.9786 C   0  0  0  0  0  0  0  0  0  0  0  0
  -22.9761  -24.5557   26.2477 C   0  0  0  0  0  0  0  0  0  0  0  0
  -20.8296  -25.7286   25.7581 C   0  0  0  0  0  0  0  0  0  0  0  0
  -22.5014  -22.5436   19.9330 C   0  0  0  0  0  0  0  0  0  0  0  0
  -31.5539  -21.7314   18.9683 C   0  0  0  0  0  0  0  0  0  0  0  0
  -29.1834  -21.3153   20.5828 C   0  0  0  0  0  0  0  0  0  0  0  0
  -30.2805  -26.5979   18.5085 C   0  0  0  0  0  0  0  0  0  0  0  0
  -29.8550  -25.1707   18.8779 C   0  0  0  0  0  0  0  0  0  0  0  0
  -29.1073  -27.5715   18.5364 C   0  0  0  0  0  0  0  0  0  1  0  0
  -22.5679  -25.5125   23.9350 C   0  0  1  0  0  0  0  0  0  0  0  0
  -21.9171  -22.1415   22.3279 C   0  0  2  0  0  0  0  0  0  0  0  0
  -29.7726  -22.7120   20.4056 C   0  0  2  0  0  0  0  0  0  0  0  0
  -30.9965  -24.1516   18.7839 C   0  0  1  0  0  0  0  0  0  0  0  0
  -22.3447  -25.7229   25.4592 C   0  0  0  0  0  0  0  0  0  0  0  0
  -27.3645  -15.5358   21.3745 N   0  0  0  0  0  0  0  0  0  0  0  0
  -28.3565  -16.4167   21.5889 N   0  0  0  0  0  0  0  0  0  0  0  0
  -22.8991  -27.3506   22.3115 N   0  0  0  0  0  0  0  0  0  0  0  0
  -27.4010  -20.1141   21.8025 N   0  0  0  0  0  0  0  0  0  0  0  0
  -30.6904  -16.7316   21.3354 N   0  0  0  0  0  0  0  0  0  0  0  0
  -30.0103  -12.5910   19.6653 N   0  0  0  0  0  0  0  0  0  0  0  0
  -22.3915  -30.9538   22.0761 N   0  0  0  0  0  0  0  0  0  0  0  0
  -21.9865  -24.2816   23.4102 N   0  0  0  0  0  0  0  0  0  0  0  0
  -22.4580  -21.5761   21.0595 N   0  3  0  0  0  0  0  0  0  0  0  0
  -30.4822  -22.7850   19.0784 N   0  3  1  0  0  0  0  0  0  0  0  0
  -31.6009  -14.1834   20.1047 O   0  0  0  0  0  0  0  0  0  0  0  0
  -23.4401  -29.5086   23.5708 O   0  0  0  0  0  0  0  0  0  0  0  0
  -27.7045  -22.4010   22.0814 O   0  0  0  0  0  0  0  0  0  0  0  0
  -20.7823  -26.8696   23.1626 O   0  0  0  0  0  0  0  0  0  0  0  0
  -23.9651  -23.3971   22.5857 O   0  0  0  0  0  0  0  0  0  0  0  0
  -25.1241   -9.9358   19.3323 O   0  0  0  0  0  0  0  0  0  0  0  0
  -28.5481  -27.6226   19.8483 O   0  0  0  0  0  0  0  0  0  1  0  0
  -21.4136   -7.9574   22.8991 F   0  0  0  0  0  0  0  0  0  0  0  0
  -22.9909  -11.4847   20.1648 F   0  0  0  0  0  0  0  0  0  0  0  0
  1  2  1  0  0  0  0
  1  5  2  0  0  0  0
  2  6  2  0  0  0  0
  3  8  2  0  0  0  0
  3 15  1  0  0  0  0
  4  9  1  0  0  0  0
  4 15  2  0  0  0  0
  5 17  1  0  0  0  0
  6 19  1  0  0  0  0
  7 10  2  0  0  0  0
  7 18  1  0  0  0  0
  8 21  1  0  0  0  0
  9 21  2  0  0  0  0
 10 22  1  0  0  0  0
 11 12  2  0  0  0  0
 11 23  1  0  0  0  0
 12 24  1  0  0  0  0
 13 20  1  0  0  0  0
 13 22  2  0  0  0  0
 14 24  2  0  0  0  0
 14 25  1  0  0  0  0
 15 26  1  0  0  0  0
 16 26  1  0  0  0  0
 16 27  2  0  0  0  0
 16 28  1  0  0  0  0
 17 19  2  0  0  0  0
 17 33  1  0  0  0  0
 18 20  2  0  0  0  0
 18 34  1  0  0  0  0
 19 42  1  0  0  0  0
 20 35  1  0  0  0  0
 21 77  1  0  0  0  0
 22 78  1  0  0  0  0
 23 25  2  0  0  0  0
 23 77  1  0  0  0  0
 24 79  1  0  0  0  0
 25 80  1  0  0  0  0
 26 62  2  0  0  0  0
 27 63  1  0  0  0  0
 27 66  1  0  0  0  0
 28 67  1  0  0  0  0
 28 72  2  0  0  0  0
 29 43  1  0  0  0  0
 29 68  1  0  0  0  0
 29 73  2  0  0  0  0
 30 53  1  0  0  0  0
 30 65  1  0  0  0  0
 30 74  2  0  0  0  0
 31 57  1  0  0  0  0
 31 64  1  0  0  0  0
 31 75  2  0  0  0  0
 32 58  1  0  0  0  0
 32 69  1  0  0  0  0
 32 76  2  0  0  0  0
 33 36  1  0  0  0  0
 34 43  1  0  0  0  0
 35 64  1  0  0  0  0
 36 38  1  0  0  0  0
 37 39  1  0  0  0  0
 37 40  1  0  0  0  0
 38 42  1  0  0  0  0
 39 44  1  0  0  0  0
 40 65  1  0  0  0  0
 41 44  1  0  0  0  0
 41 65  1  0  0  0  0
 42 68  1  0  0  0  0
 43 64  1  0  0  0  0
 44 63  1  0  0  0  0
 45 58  1  0  0  0  0
 46 59  1  0  0  0  0
 47 60  1  0  0  0  0
 48 61  1  0  0  0  0
 49 61  1  0  0  0  0
 50 61  1  0  0  0  0
 51 70  1  0  0  0  0
 52 71  1  0  0  0  0
 53 59  1  0  0  0  0
 54 55  1  0  0  0  0
 54 56  1  0  0  0  0
 55 60  1  0  0  0  0
 56 78  1  0  0  0  0
 57 61  1  0  0  0  0
 57 69  1  0  0  0  0
 58 70  1  0  0  0  0
 59 71  1  0  0  0  0
 60 71  1  0  0  0  0
 62 63  1  0  0  0  0
M  CHG  2  70   1  71   1
M  ISO  4  30 100  53 100  56 101  78 101
M  END
> <Batch ID>
0085

> <Smiles>
CNC(C)C(=O)NC(C(=O)N1Cc2cc([101O:1][101CH2:1]CCC(C)N(C)C(C)[100CH2:0][100C:0](=O)N3CCCC(n4nc(-c5ccc(Oc6ccc(F)cc6F)cc5)c(C(N)=O)c4N)C3)ccc2CC1C(=O)NC1CCCc2ccccc21)C(C)(C)C

> <Shape>
0.237

> <Color>
0.077

> <Negative vol penalty>
0.000

$$$$

  -OEChem-04052318562D

  0  0  0     0  0  0  0  0  0999 V2000
M  END
$$$$

  -OEChem-04052318563D

 83 91  0     1  0  0  0  0  0999 V2000
  -24.6068  -18.7558   25.8209 C   0  0  0  0  0  0  0  0  0  0  0  0
  -25.2562  -19.6081   24.9337 C   0  0  0  0  0  0  0  0  0  0  0  0
  -25.6082  -16.5934   19.3588 C   0  0  0  0  0  0  0  0  0  0  0  0
  -24.3948  -17.9787   20.9227 C   0  0  0  0  0  0  0  0  0  0  0  0
  -23.2204  -18.8164   25.9555 C   0  0  0  0  0  0  0  0  0  0  0  0
  -24.5194  -20.5208   24.1796 C   0  0  0  0  0  0  0  0  0  0  0  0
  -26.6222  -25.1271   24.1075 C   0  0  0  0  0  0  0  0  0  0  0  0
  -24.7305  -15.5392   19.6116 C   0  0  0  0  0  0  0  0  0  0  0  0
  -23.5171  -16.9245   21.1755 C   0  0  0  0  0  0  0  0  0  0  0  0
  -27.7118  -25.3164   23.2586 C   0  0  0  0  0  0  0  0  0  0  0  0
  -24.2685  -13.2042   22.0113 C   0  0  0  0  0  0  0  0  0  0  0  0
  -24.8182  -11.9379   22.2109 C   0  0  0  0  0  0  0  0  0  0  0  0
  -26.2604  -26.3586   21.6379 C   0  0  0  0  0  0  0  0  0  0  0  0
  -23.5759  -11.0999   20.3157 C   0  0  0  0  0  0  0  0  0  0  0  0
  -31.1403  -24.5196   18.3362 C   0  0  0  0  0  0  0  0  0  0  0  0
  -25.4404  -17.8132   20.0144 C   0  0  0  0  0  0  0  0  0  0  0  0
  -27.7401  -18.9158   19.9570 C   0  0  0  0  0  0  0  0  0  0  0  0
  -22.4672  -19.7368   25.2098 C   0  0  0  0  0  0  0  0  0  0  0  0
  -25.3394  -25.5430   23.7227 C   0  0  0  0  0  0  0  0  0  0  0  0
  -23.1215  -20.5928   24.3033 C   0  0  0  0  0  0  0  0  0  0  0  0
  -25.1566  -26.1758   22.4849 C   0  0  0  0  0  0  0  0  0  0  0  0
  -31.3103  -25.2049   17.1440 C   0  0  0  0  0  0  0  0  0  0  0  0
  -31.3008  -26.5947   17.1852 C   0  0  0  0  0  0  0  0  0  0  0  0
  -31.1241  -27.2475   18.4001 C   0  0  0  0  0  0  0  0  0  0  0  0
  -23.6849  -15.7047   20.5199 C   0  0  0  0  0  0  0  0  0  0  0  0
  -27.5306  -25.9296   22.0224 C   0  0  0  0  0  0  0  0  0  0  0  0
  -23.3724  -13.4184   20.9640 C   0  0  0  0  0  0  0  0  0  0  0  0
  -24.4720  -10.8857   21.3631 C   0  0  0  0  0  0  0  0  0  0  0  0
  -23.0262  -12.3662   20.1162 C   0  0  0  0  0  0  0  0  0  0  0  0
  -26.3471  -18.9023   19.7541 C   0  0  0  0  0  0  0  0  0  0  0  0
  -30.9623  -26.4708   19.5360 C   0  0  0  0  0  0  0  0  0  0  0  0
  -28.1327  -20.1706   19.5598 C   0  0  0  0  0  0  0  0  0  0  0  0
  -28.6020  -17.8862   20.4596 C   0  0  0  0  0  0  0  0  0  0  0  0
  -22.5673  -24.0767   23.2043 C   0  0  0  0  0  0  0  0  0  0  0  0
  -21.4688  -27.1112   22.8762 C   0  0  0  0  0  0  0  0  0  0  0  0
  -22.1507  -30.3779   22.1618 C   0  0  0  0  0  0  0  0  0  0  0  0
  -27.9313  -24.4156   15.9425 C   0  0  0  0  0  0  0  0  0  0  0  0
  -20.9660  -19.7328   25.3546 C   0  0  0  0  0  0  0  0  0  0  0  0
  -24.1790  -25.3557   24.6612 C   0  0  0  0  0  0  0  0  0  0  0  0
  -23.8034  -26.6588   22.0334 C   0  0  0  0  0  0  0  0  0  0  0  0
  -20.2966  -20.9852   24.7944 C   0  0  0  0  0  0  0  0  0  0  0  0
  -25.3978  -24.2759   18.4402 C   0  0  0  0  0  0  0  0  0  0  0  0
  -20.8564  -21.3180   23.4150 C   0  0  0  0  0  0  0  0  0  0  0  0
  -25.5298  -22.8651   19.0166 C   0  0  0  0  0  0  0  0  0  0  0  0
  -25.6655  -24.2986   16.9369 C   0  0  0  0  0  0  0  0  0  0  0  0
  -27.0813  -22.2883   17.1037 C   0  0  0  0  0  0  0  0  0  0  0  0
  -22.3595  -21.6133   23.4861 C   0  0  1  0  0  0  0  0  0  0  0  0
  -22.8294  -25.3546   23.9498 C   0  0  1  0  0  0  0  0  0  0  0  0
  -26.8752  -22.2237   18.6268 C   0  0  2  0  0  0  0  0  0  0  0  0
  -31.4800  -27.3819   15.9267 C   0  0  0  0  0  0  0  0  0  0  0  0
  -31.1110  -28.7373   18.4774 C   0  0  0  0  0  0  0  0  0  0  0  0
  -21.0422  -32.6180   21.9366 C   0  0  0  0  0  0  0  0  0  0  0  0
  -20.3312  -26.2737   20.1716 C   0  0  0  0  0  0  0  0  0  0  0  0
  -20.0960  -28.6993   19.5977 C   0  0  0  0  0  0  0  0  0  0  0  0
  -18.8294  -27.7467   21.5241 C   0  0  0  0  0  0  0  0  0  0  0  0
  -23.7885  -31.5366   24.3375 C   0  0  0  0  0  0  0  0  0  0  0  0
  -31.4953  -24.4527   15.8716 C   0  0  0  0  0  0  0  0  0  0  0  0
  -30.7655  -27.1221   20.8833 C   0  0  0  0  0  0  0  0  0  0  0  0
  -30.2299  -24.3839   15.0072 C   0  0  0  0  0  0  0  0  0  0  0  0
  -29.8698  -26.2971   21.8009 C   0  0  0  0  0  0  0  0  0  1  0  0
  -21.3276  -28.0785   21.7259 C   0  0  1  0  0  0  0  0  0  0  0  0
  -21.7704  -31.6648   22.8715 C   0  0  2  0  0  0  0  0  0  0  0  0
  -20.1714  -27.6888   20.7622 C   0  0  0  0  0  0  0  0  0  0  0  0
  -30.9659  -25.1189   19.5354 N   0  0  0  0  0  0  0  0  0  0  0  0
  -25.8859  -20.0569   19.2660 N   0  0  0  0  0  0  0  0  0  0  0  0
  -26.9954  -20.8077   19.1590 N   0  0  0  0  0  0  0  0  0  0  0  0
  -22.6990  -26.4471   22.9836 N   0  0  0  0  0  0  0  0  0  0  0  0
  -26.9572  -23.6773   16.6346 N   0  0  0  0  0  0  0  0  0  0  0  0
  -29.3365  -20.7801   19.5178 N   0  0  0  0  0  0  0  0  0  0  0  0
  -28.8325  -17.8229   21.8406 N   0  0  0  0  0  0  0  0  0  0  0  0
  -22.5888  -22.9468   23.9995 N   0  0  0  0  0  0  0  0  0  0  0  0
  -21.1885  -29.4032   22.3212 N   0  0  0  0  0  0  0  0  0  0  0  0
  -29.1294  -23.7541   15.7023 N   0  0  0  0  0  0  0  0  0  0  0  0
  -22.9884  -32.3513   23.3873 N   0  3  0  0  0  0  0  0  0  0  0  0
  -29.1645  -17.0572   19.7046 O   0  0  0  0  0  0  0  0  0  0  0  0
  -22.3594  -24.1132   21.9971 O   0  0  0  0  0  0  0  0  0  0  0  0
  -20.5249  -26.9559   23.6550 O   0  0  0  0  0  0  0  0  0  0  0  0
  -23.1950  -30.2513   21.5262 O   0  0  0  0  0  0  0  0  0  0  0  0
  -27.7489  -25.5800   15.5712 O   0  0  0  0  0  0  0  0  0  0  0  0
  -22.8282  -14.6764   20.7666 O   0  0  0  0  0  0  0  0  0  0  0  0
  -28.5923  -26.1150   21.1916 O   0  0  0  0  0  0  0  0  0  1  0  0
  -25.0011   -9.6701   21.5539 F   0  0  0  0  0  0  0  0  0  0  0  0
  -22.1668  -12.5662   19.1076 F   0  0  0  0  0  0  0  0  0  0  0  0
  1  2  1  0  0  0  0
  1  5  2  0  0  0  0
  2  6  2  0  0  0  0
  3  8  2  0  0  0  0
  3 16  1  0  0  0  0
  4  9  1  0  0  0  0
  4 16  2  0  0  0  0
  5 18  1  0  0  0  0
  6 20  1  0  0  0  0
  7 10  2  0  0  0  0
  7 19  1  0  0  0  0
  8 25  1  0  0  0  0
  9 25  2  0  0  0  0
 10 26  1  0  0  0  0
 11 12  2  0  0  0  0
 11 27  1  0  0  0  0
 12 28  1  0  0  0  0
 13 21  1  0  0  0  0
 13 26  2  0  0  0  0
 14 28  2  0  0  0  0
 14 29  1  0  0  0  0
 15 22  1  0  0  0  0
 15 64  2  0  0  0  0
 16 30  1  0  0  0  0
 17 30  1  0  0  0  0
 17 32  2  0  0  0  0
 17 33  1  0  0  0  0
 18 20  2  0  0  0  0
 18 38  1  0  0  0  0
 19 21  2  0  0  0  0
 19 39  1  0  0  0  0
 20 47  1  0  0  0  0
 21 40  1  0  0  0  0
 22 23  2  0  0  0  0
 22 57  1  0  0  0  0
 23 24  1  0  0  0  0
 23 50  1  0  0  0  0
 24 31  2  0  0  0  0
 24 51  1  0  0  0  0
 25 80  1  0  0  0  0
 26 81  1  0  0  0  0
 27 29  2  0  0  0  0
 27 80  1  0  0  0  0
 28 82  1  0  0  0  0
 29 83  1  0  0  0  0
 30 65  2  0  0  0  0
 31 58  1  0  0  0  0
 31 64  1  0  0  0  0
 32 66  1  0  0  0  0
 32 69  1  0  0  0  0
 33 70  1  0  0  0  0
 33 75  2  0  0  0  0
 34 48  1  0  0  0  0
 34 71  1  0  0  0  0
 34 76  2  0  0  0  0
 35 61  1  0  0  0  0
 35 67  1  0  0  0  0
 35 77  2  0  0  0  0
 36 62  1  0  0  0  0
 36 72  1  0  0  0  0
 36 78  2  0  0  0  0
 37 68  1  0  0  0  0
 37 73  1  0  0  0  0
 37 79  2  0  0  0  0
 38 41  1  0  0  0  0
 39 48  1  0  0  0  0
 40 67  1  0  0  0  0
 41 43  1  0  0  0  0
 42 44  1  0  0  0  0
 42 45  1  0  0  0  0
 43 47  1  0  0  0  0
 44 49  1  0  0  0  0
 45 68  1  0  0  0  0
 46 49  1  0  0  0  0
 46 68  1  0  0  0  0
 47 71  1  0  0  0  0
 48 67  1  0  0  0  0
 49 66  1  0  0  0  0
 52 62  1  0  0  0  0
 53 63  1  0  0  0  0
 54 63  1  0  0  0  0
 55 63  1  0  0  0  0
 56 74  1  0  0  0  0
 57 59  1  0  0  0  0
 58 60  1  0  0  0  0
 59 73  1  0  0  0  0
 60 81  1  0  0  0  0
 61 63  1  0  0  0  0
 61 72  1  0  0  0  0
 62 74  1  0  0  0  0
 65 66  1  0  0  0  0
M  CHG  1  74   1
M  ISO  4  37 100  60 101  73 100  81 101
M  END
> <Batch ID>
0085

> <Smiles>
CNC(C)C(=O)NC(C(=O)N1Cc2cc([101O:1][101CH2:1]Cc3ncc(CC[100NH:0][100C:0](=O)N4CCCC(n5nc(-c6ccc(Oc7ccc(F)cc7F)cc6)c(C(N)=O)c5N)C4)c(C)c3C)ccc2CC1C(=O)NC1CCCc2ccccc21)C(C)(C)C

> <Shape>
0.181

> <Color>
0.075

> <Negative vol penalty>
0.000

$$$$

  -OEChem-04052318563D

 86 94  0     1  0  0  0  0  0999 V2000
  -32.0989  -26.8775   13.9526 C   0  0  0  0  0  0  0  0  0  0  0  0
  -31.2078  -26.0270   14.5992 C   0  0  0  0  0  0  0  0  0  0  0  0
  -22.9730   -9.9873   19.9323 C   0  0  0  0  0  0  0  0  0  0  0  0
  -24.0316   -9.5735   22.0642 C   0  0  0  0  0  0  0  0  0  0  0  0
  -32.6430  -27.9647   14.6351 C   0  0  0  0  0  0  0  0  0  0  0  0
  -30.8611  -26.2627   15.9291 C   0  0  0  0  0  0  0  0  0  0  0  0
  -25.8853  -25.8033   16.7505 C   0  0  0  0  0  0  0  0  0  0  0  0
  -22.2559   -8.7975   20.0574 C   0  0  0  0  0  0  0  0  0  0  0  0
  -23.3145   -8.3837   22.1894 C   0  0  0  0  0  0  0  0  0  0  0  0
  -25.3737  -24.5105   16.8538 C   0  0  0  0  0  0  0  0  0  0  0  0
  -20.1864   -7.4420   23.0548 C   0  0  0  0  0  0  0  0  0  0  0  0
  -19.5917   -7.1721   24.2873 C   0  0  0  0  0  0  0  0  0  0  0  0
  -25.3773  -24.7076   19.2580 C   0  0  0  0  0  0  0  0  0  0  0  0
  -26.5006  -18.9125   21.9708 C   0  0  0  0  0  0  0  0  0  0  0  0
  -28.3216  -18.3879   20.4898 C   0  0  0  0  0  0  0  0  0  0  0  0
  -20.8979   -5.1482   24.4743 C   0  0  0  0  0  0  0  0  0  0  0  0
  -23.8609  -10.3753   20.9357 C   0  0  0  0  0  0  0  0  0  0  0  0
  -24.2127  -12.8825   21.2486 C   0  0  0  0  0  0  0  0  0  0  0  0
  -32.2953  -28.2194   15.9711 C   0  0  0  0  0  0  0  0  0  0  0  0
  -26.1575  -26.5552   17.9024 C   0  0  0  0  0  0  0  0  0  0  0  0
  -31.4021  -27.3536   16.6306 C   0  0  0  0  0  0  0  0  0  0  0  0
  -25.8900  -26.0107   19.1665 C   0  0  0  0  0  0  0  0  0  0  0  0
  -26.9823  -18.7081   20.6826 C   0  0  0  0  0  0  0  0  0  0  0  0
  -22.4266   -7.9957   21.1860 C   0  0  0  0  0  0  0  0  0  0  0  0
  -25.1223  -23.9614   18.1077 C   0  0  0  0  0  0  0  0  0  0  0  0
  -21.1368   -6.5650   22.5320 C   0  0  0  0  0  0  0  0  0  0  0  0
  -19.9475   -6.0253   24.9971 C   0  0  0  0  0  0  0  0  0  0  0  0
  -21.4925   -5.4181   23.2418 C   0  0  0  0  0  0  0  0  0  0  0  0
  -24.6024  -11.6040   20.8067 C   0  0  0  0  0  0  0  0  0  0  0  0
  -27.3918  -18.7860   23.0241 C   0  0  0  0  0  0  0  0  0  0  0  0
  -29.1313  -18.2850   21.6095 C   0  0  0  0  0  0  0  0  0  0  0  0
  -25.2552  -13.7020   20.8909 C   0  0  0  0  0  0  0  0  0  0  0  0
  -23.0153  -13.2926   21.9222 C   0  0  0  0  0  0  0  0  0  0  0  0
  -28.7719  -27.8335   19.1809 C   0  0  0  0  0  0  0  0  0  0  0  0
  -26.6511  -29.1065   21.2795 C   0  0  0  0  0  0  0  0  0  0  0  0
  -23.5949  -28.9142   22.7859 C   0  0  0  0  0  0  0  0  0  0  0  0
  -30.7265  -14.7437   20.5368 C   0  0  0  0  0  0  0  0  0  0  0  0
  -32.9458  -29.3798   16.6819 C   0  0  0  0  0  0  0  0  0  0  0  0
  -26.6840  -27.9582   17.7733 C   0  0  0  0  0  0  0  0  0  0  0  0
  -26.1458  -26.7840   20.4334 C   0  0  0  0  0  0  0  0  0  0  0  0
  -32.2380  -29.7761   17.9750 C   0  0  0  0  0  0  0  0  0  0  0  0
  -29.2539  -12.8348   17.9168 C   0  0  0  0  0  0  0  0  0  0  0  0
  -31.9258  -28.5403   18.8130 C   0  0  0  0  0  0  0  0  0  0  0  0
  -27.8836  -12.4450   18.4740 C   0  0  0  0  0  0  0  0  0  0  0  0
  -30.3253  -12.8387   19.0050 C   0  0  0  0  0  0  0  0  0  0  0  0
  -28.6336  -13.2695   20.7447 C   0  0  0  0  0  0  0  0  0  0  0  0
  -30.9825  -27.5905   18.0651 C   0  0  1  0  0  0  0  0  0  0  0  0
  -27.4071  -28.4427   19.0262 C   0  0  1  0  0  0  0  0  0  0  0  0
  -27.5094  -13.3059   19.6954 C   0  0  2  0  0  0  0  0  0  0  0  0
  -26.4085  -17.7058   25.0620 C   0  0  0  0  0  0  0  0  0  0  0  0
  -31.4950  -19.0829   21.9258 C   0  0  0  0  0  0  0  0  0  0  0  0
  -22.1595  -30.0764   24.4848 C   0  0  0  0  0  0  0  0  0  0  0  0
  -28.3475  -27.9199   23.5210 C   0  0  0  0  0  0  0  0  0  0  0  0
  -26.4169  -28.2743   25.0752 C   0  0  0  0  0  0  0  0  0  0  0  0
  -27.4984  -30.2297   23.9663 C   0  0  0  0  0  0  0  0  0  0  0  0
  -21.4810  -29.4698   20.7905 C   0  0  0  0  0  0  0  0  0  0  0  0
  -26.0558  -18.8321   19.4994 C   0  0  0  0  0  0  0  0  0  0  0  0
  -26.9097  -18.9967   24.4205 C   0  0  0  0  0  0  0  0  0  0  0  0
  -25.9867  -20.2464   18.9126 C   0  0  0  0  0  0  0  0  0  0  0  0
  -24.9850  -20.3696   17.7636 C   0  0  0  0  0  0  0  0  0  0  0  0
  -30.9811  -16.6240   22.1363 C   0  0  0  0  0  0  0  0  0  0  0  0
  -24.9730  -21.7763   17.1808 C   0  0  0  0  0  0  0  0  0  1  0  0
  -30.5742  -17.9447   21.4395 C   0  0  1  0  0  0  0  0  0  0  0  0
  -26.0563  -28.6691   22.5962 C   0  0  1  0  0  0  0  0  0  0  0  0
  -22.5154  -29.9575   23.0111 C   0  0  2  0  0  0  0  0  0  0  0  0
  -27.0766  -28.7577   23.7660 C   0  0  0  0  0  0  0  0  0  0  0  0
  -25.7991  -11.6061   20.2134 N   0  0  0  0  0  0  0  0  0  0  0  0
  -28.6994  -18.4764   22.8762 N   0  0  0  0  0  0  0  0  0  0  0  0
  -26.1703  -12.8960   20.2800 N   0  0  0  0  0  0  0  0  0  0  0  0
  -26.6668  -28.1494   20.2551 N   0  0  0  0  0  0  0  0  0  0  0  0
  -29.9094  -13.6745   20.1339 N   0  0  0  0  0  0  0  0  0  0  0  0
  -25.4693  -15.0263   21.0424 N   0  0  0  0  0  0  0  0  0  0  0  0
  -22.0470  -12.3223   22.2138 N   0  0  0  0  0  0  0  0  0  0  0  0
  -29.6223  -28.0817   18.1204 N   0  0  0  0  0  0  0  0  0  0  0  0
  -24.8549  -29.4741   22.7890 N   0  0  0  0  0  0  0  0  0  0  0  0
  -30.2555  -15.4892   21.6106 N   0  0  0  0  0  0  0  0  0  0  0  0
  -21.2815  -29.5972   22.2572 N   0  3  0  0  0  0  0  0  0  0  0  0
  -22.8029  -14.4871   22.2410 O   0  0  0  0  0  0  0  0  0  0  0  0
  -29.0344  -27.1873   20.1885 O   0  0  0  0  0  0  0  0  0  0  0  0
  -27.0794  -30.2574   21.1619 O   0  0  0  0  0  0  0  0  0  0  0  0
  -23.3455  -27.7212   22.6272 O   0  0  0  0  0  0  0  0  0  0  0  0
  -31.7938  -15.0171   19.9774 O   0  0  0  0  0  0  0  0  0  0  0  0
  -21.7268   -6.8347   21.3086 O   0  0  0  0  0  0  0  0  0  0  0  0
  -24.6236  -22.6995   18.2114 O   0  0  0  0  0  0  0  0  0  1  0  0
  -19.3775   -5.7670   26.1814 F   0  0  0  0  0  0  0  0  0  0  0  0
  -22.4058   -4.5725   22.7452 F   0  0  0  0  0  0  0  0  0  0  0  0
  1  2  1  0  0  0  0
  1  5  2  0  0  0  0
  2  6  2  0  0  0  0
  3  8  2  0  0  0  0
  3 17  1  0  0  0  0
  4  9  1  0  0  0  0
  4 17  2  0  0  0  0
  5 19  1  0  0  0  0
  6 21  1  0  0  0  0
  7 10  2  0  0  0  0
  7 20  1  0  0  0  0
  8 24  1  0  0  0  0
  9 24  2  0  0  0  0
 10 25  1  0  0  0  0
 11 12  2  0  0  0  0
 11 26  1  0  0  0  0
 12 27  1  0  0  0  0
 13 22  1  0  0  0  0
 13 25  2  0  0  0  0
 14 23  2  0  0  0  0
 14 30  1  0  0  0  0
 15 23  1  0  0  0  0
 15 31  2  0  0  0  0
 16 27  2  0  0  0  0
 16 28  1  0  0  0  0
 17 29  1  0  0  0  0
 18 29  1  0  0  0  0
 18 32  2  0  0  0  0
 18 33  1  0  0  0  0
 19 21  2  0  0  0  0
 19 38  1  0  0  0  0
 20 22  2  0  0  0  0
 20 39  1  0  0  0  0
 21 47  1  0  0  0  0
 22 40  1  0  0  0  0
 23 57  1  0  0  0  0
 24 83  1  0  0  0  0
 25 84  1  0  0  0  0
 26 28  2  0  0  0  0
 26 83  1  0  0  0  0
 27 85  1  0  0  0  0
 28 86  1  0  0  0  0
 29 67  2  0  0  0  0
 30 58  1  0  0  0  0
 30 68  2  0  0  0  0
 31 63  1  0  0  0  0
 31 68  1  0  0  0  0
 32 69  1  0  0  0  0
 32 72  1  0  0  0  0
 33 73  1  0  0  0  0
 33 78  2  0  0  0  0
 34 48  1  0  0  0  0
 34 74  1  0  0  0  0
 34 79  2  0  0  0  0
 35 64  1  0  0  0  0
 35 70  1  0  0  0  0
 35 80  2  0  0  0  0
 36 65  1  0  0  0  0
 36 75  1  0  0  0  0
 36 81  2  0  0  0  0
 37 71  1  0  0  0  0
 37 76  1  0  0  0  0
 37 82  2  0  0  0  0
 38 41  1  0  0  0  0
 39 48  1  0  0  0  0
 40 70  1  0  0  0  0
 41 43  1  0  0  0  0
 42 44  1  0  0  0  0
 42 45  1  0  0  0  0
 43 47  1  0  0  0  0
 44 49  1  0  0  0  0
 45 71  1  0  0  0  0
 46 49  1  0  0  0  0
 46 71  1  0  0  0  0
 47 74  1  0  0  0  0
 48 70  1  0  0  0  0
 49 69  1  0  0  0  0
 50 58  1  0  0  0  0
 51 63  1  0  0  0  0
 52 65  1  0  0  0  0
 53 66  1  0  0  0  0
 54 66  1  0  0  0  0
 55 66  1  0  0  0  0
 56 77  1  0  0  0  0
 57 59  1  0  0  0  0
 59 60  1  0  0  0  0
 60 62  1  0  0  0  0
 61 63  1  0  0  0  0
 61 76  1  0  0  0  0
 62 84  1  0  0  0  0
 64 66  1  0  0  0  0
 64 75  1  0  0  0  0
 65 77  1  0  0  0  0
 67 69  1  0  0  0  0
M  CHG  1  77   1
M  ISO  4  37 100  62 101  76 100  84 101
M  END
> <Batch ID>
0085

> <Smiles>
CCc1cc(CCC[101CH2:1][101O:1]c2ccc3c(c2)CN(C(=O)C(NC(=O)C(C)NC)C(C)(C)C)C(C(=O)NC2CCCc4ccccc42)C3)cc(C(C)C[100NH:0][100C:0](=O)N2CCCC(n3nc(-c4ccc(Oc5ccc(F)cc5F)cc4)c(C(N)=O)c3N)C2)n1

> <Shape>
0.294

> <Color>
0.200

> <Negative vol penalty>
0.000

$$$$

  -OEChem-04052318563D

 85 93  0     1  0  0  0  0  0999 V2000
  -18.8551  -32.8980   22.8924 C   0  0  0  0  0  0  0  0  0  0  0  0
  -20.0669  -32.3249   23.2648 C   0  0  0  0  0  0  0  0  0  0  0  0
  -25.6662  -12.9658   22.1263 C   0  0  0  0  0  0  0  0  0  0  0  0
  -26.3791  -13.2888   19.8405 C   0  0  0  0  0  0  0  0  0  0  0  0
  -17.7041  -32.1136   22.8307 C   0  0  0  0  0  0  0  0  0  0  0  0
  -20.1280  -30.9672   23.5768 C   0  0  0  0  0  0  0  0  0  0  0  0
  -24.1098  -28.6645   21.4583 C   0  0  0  0  0  0  0  0  0  0  0  0
  -24.5852  -12.2047   21.6816 C   0  0  0  0  0  0  0  0  0  0  0  0
  -25.2981  -12.5276   19.3959 C   0  0  0  0  0  0  0  0  0  0  0  0
  -25.3510  -28.8524   22.0648 C   0  0  0  0  0  0  0  0  0  0  0  0
  -24.0401   -9.0504   20.5924 C   0  0  0  0  0  0  0  0  0  0  0  0
  -23.7694   -7.8565   21.2608 C   0  0  0  0  0  0  0  0  0  0  0  0
  -25.1460  -26.7012   23.1370 C   0  0  0  0  0  0  0  0  0  0  0  0
  -21.5718   -8.6777   21.8379 C   0  0  0  0  0  0  0  0  0  0  0  0
  -29.3201  -27.0656   19.7907 C   0  0  0  0  0  0  0  0  0  0  0  0
  -26.5631  -13.5080   21.2057 C   0  0  0  0  0  0  0  0  0  0  0  0
  -28.9657  -13.8310   21.9998 C   0  0  0  0  0  0  0  0  0  0  0  0
  -17.7531  -30.7436   23.1328 C   0  0  0  0  0  0  0  0  0  0  0  0
  -23.3712  -27.4963   21.6955 C   0  0  0  0  0  0  0  0  0  0  0  0
  -18.9763  -30.1640   23.5204 C   0  0  0  0  0  0  0  0  0  0  0  0
  -23.8968  -26.4998   22.5302 C   0  0  0  0  0  0  0  0  0  0  0  0
  -24.4012  -11.9855   20.3164 C   0  0  0  0  0  0  0  0  0  0  0  0
  -25.8680  -27.8720   22.9066 C   0  0  0  0  0  0  0  0  0  0  0  0
  -23.0767  -10.0581   20.5468 C   0  0  0  0  0  0  0  0  0  0  0  0
  -22.5353   -7.6701   21.8835 C   0  0  0  0  0  0  0  0  0  0  0  0
  -21.8425   -9.8718   21.1696 C   0  0  0  0  0  0  0  0  0  0  0  0
  -27.6796  -14.2948   21.6644 C   0  0  0  0  0  0  0  0  0  0  0  0
  -29.8069  -25.8835   19.2921 C   0  0  0  0  0  0  0  0  0  0  0  0
  -29.6519  -14.9609   22.3726 C   0  0  0  0  0  0  0  0  0  0  0  0
  -29.4931  -12.4979   21.9764 C   0  0  0  0  0  0  0  0  0  0  0  0
  -20.5360  -26.8578   22.9831 C   0  0  0  0  0  0  0  0  0  0  0  0
  -21.2002  -23.8416   21.9911 C   0  0  0  0  0  0  0  0  0  0  0  0
  -23.5564  -21.5275   21.1309 C   0  0  0  0  0  0  0  0  0  0  0  0
  -28.9673  -20.6399   20.9110 C   0  0  0  0  0  0  0  0  0  0  0  0
  -16.4733  -29.9463   23.0978 C   0  0  0  0  0  0  0  0  0  0  0  0
  -22.0460  -27.2971   21.0125 C   0  0  0  0  0  0  0  0  0  0  0  0
  -23.1527  -25.2187   22.8015 C   0  0  0  0  0  0  0  0  0  0  0  0
  -16.6967  -28.4363   23.0811 C   0  0  0  0  0  0  0  0  0  0  0  0
  -28.9695  -19.3003   24.2730 C   0  0  0  0  0  0  0  0  0  0  0  0
  -17.7300  -28.0378   24.1301 C   0  0  0  0  0  0  0  0  0  0  0  0
  -28.7593  -17.8087   24.0062 C   0  0  0  0  0  0  0  0  0  0  0  0
  -28.1621  -20.1549   23.3004 C   0  0  0  0  0  0  0  0  0  0  0  0
  -28.2175  -18.3783   21.5933 C   0  0  0  0  0  0  0  0  0  0  0  0
  -19.0879  -28.6896   23.8423 C   0  0  1  0  0  0  0  0  0  0  0  0
  -21.1480  -26.2950   21.7315 C   0  0  1  0  0  0  0  0  0  0  0  0
  -29.0248  -17.4607   22.5295 C   0  0  2  0  0  0  0  0  0  0  0  0
  -23.7970  -19.1384   20.4018 C   0  0  0  0  0  0  0  0  0  0  0  0
  -20.6664  -22.9180   24.8498 C   0  0  0  0  0  0  0  0  0  0  0  0
  -21.8191  -20.7657   24.2956 C   0  0  0  0  0  0  0  0  0  0  0  0
  -19.7410  -21.4151   23.0780 C   0  0  0  0  0  0  0  0  0  0  0  0
  -31.9509  -28.4108   22.8660 C   0  0  0  0  0  0  0  0  0  0  0  0
  -30.6629  -30.5346   22.9921 C   0  0  0  0  0  0  0  0  0  0  0  0
  -24.8150  -22.3142   18.5705 C   0  0  0  0  0  0  0  0  0  0  0  0
  -29.0785  -24.7792   18.6543 C   0  0  0  0  0  0  0  0  0  0  0  0
  -28.5725  -23.6761   19.6202 C   0  0  0  0  0  0  0  0  0  0  0  0
  -29.4338  -28.3598   23.1720 C   0  0  0  0  0  0  0  0  0  0  0  0
  -30.5151  -29.0555   20.9161 C   0  0  0  0  0  0  0  0  0  0  0  0
  -29.6865  -22.9533   20.3745 C   0  0  0  0  0  0  0  0  0  0  0  0
  -28.0358  -28.8438   22.7964 C   0  0  0  0  0  0  0  0  0  1  0  0
  -21.8960  -22.6461   22.5959 C   0  0  1  0  0  0  0  0  0  0  0  0
  -23.6550  -20.5825   19.9469 C   0  0  2  0  0  0  0  0  0  0  0  0
  -21.0440  -21.9611   23.7014 C   0  0  0  0  0  0  0  0  0  0  0  0
  -30.6162  -29.0816   22.4715 C   0  0  0  0  0  0  0  0  0  0  0  0
  -27.5535  -15.6164   21.8113 N   0  0  0  0  0  0  0  0  0  0  0  0
  -31.1628  -25.8366   19.4623 N   0  0  0  0  0  0  0  0  0  0  0  0
  -31.5385  -26.9632   20.0579 N   0  0  0  0  0  0  0  0  0  0  0  0
  -30.4322  -27.6986   20.2541 N   0  0  0  0  0  0  0  0  0  0  0  0
  -28.7693  -15.9926   22.2432 N   0  0  0  0  0  0  0  0  0  0  0  0
  -21.8582  -25.0734   22.1154 N   0  0  0  0  0  0  0  0  0  0  0  0
  -28.4751  -19.7865   21.9124 N   0  0  0  0  0  0  0  0  0  0  0  0
  -30.9180  -15.1627   22.7952 N   0  0  0  0  0  0  0  0  0  0  0  0
  -28.6523  -11.4538   21.5674 N   0  0  0  0  0  0  0  0  0  0  0  0
  -19.7691  -27.9883   22.7752 N   0  0  0  0  0  0  0  0  0  0  0  0
  -22.2455  -21.7707   21.4824 N   0  0  0  0  0  0  0  0  0  0  0  0
  -29.1775  -21.9592   21.2930 N   0  0  0  0  0  0  0  0  0  0  0  0
  -24.8352  -20.9283   19.1052 N   0  3  0  0  0  0  0  0  0  0  0  0
  -30.6701  -12.2381   22.3240 O   0  0  0  0  0  0  0  0  0  0  0  0
  -20.7431  -26.3062   24.0576 O   0  0  0  0  0  0  0  0  0  0  0  0
  -20.1163  -23.6869   21.4230 O   0  0  0  0  0  0  0  0  0  0  0  0
  -24.5436  -21.9994   21.6905 O   0  0  0  0  0  0  0  0  0  0  0  0
  -29.2070  -20.2533   19.7619 O   0  0  0  0  0  0  0  0  0  0  0  0
  -23.3466  -11.2426   19.8822 O   0  0  0  0  0  0  0  0  0  0  0  0
  -27.0789  -28.0532   23.5004 O   0  0  0  0  0  0  0  0  0  1  0  0
  -22.2749   -6.5229   22.5240 F   0  0  0  0  0  0  0  0  0  0  0  0
  -20.9126  -10.8357   21.1282 F   0  0  0  0  0  0  0  0  0  0  0  0
  1  2  1  0  0  0  0
  1  5  2  0  0  0  0
  2  6  2  0  0  0  0
  3  8  2  0  0  0  0
  3 16  1  0  0  0  0
  4  9  1  0  0  0  0
  4 16  2  0  0  0  0
  5 18  1  0  0  0  0
  6 20  1  0  0  0  0
  7 10  2  0  0  0  0
  7 19  1  0  0  0  0
  8 22  1  0  0  0  0
  9 22  2  0  0  0  0
 10 23  1  0  0  0  0
 11 12  2  0  0  0  0
 11 24  1  0  0  0  0
 12 25  1  0  0  0  0
 13 21  1  0  0  0  0
 13 23  2  0  0  0  0
 14 25  2  0  0  0  0
 14 26  1  0  0  0  0
 15 28  2  0  0  0  0
 15 67  1  0  0  0  0
 16 27  1  0  0  0  0
 17 27  1  0  0  0  0
 17 29  2  0  0  0  0
 17 30  1  0  0  0  0
 18 20  2  0  0  0  0
 18 35  1  0  0  0  0
 19 21  2  0  0  0  0
 19 36  1  0  0  0  0
 20 44  1  0  0  0  0
 21 37  1  0  0  0  0
 22 82  1  0  0  0  0
 23 83  1  0  0  0  0
 24 26  2  0  0  0  0
 24 82  1  0  0  0  0
 25 84  1  0  0  0  0
 26 85  1  0  0  0  0
 27 64  2  0  0  0  0
 28 54  1  0  0  0  0
 28 65  1  0  0  0  0
 29 68  1  0  0  0  0
 29 71  1  0  0  0  0
 30 72  1  0  0  0  0
 30 77  2  0  0  0  0
 31 45  1  0  0  0  0
 31 73  1  0  0  0  0
 31 78  2  0  0  0  0
 32 60  1  0  0  0  0
 32 69  1  0  0  0  0
 32 79  2  0  0  0  0
 33 61  1  0  0  0  0
 33 74  1  0  0  0  0
 33 80  2  0  0  0  0
 34 70  1  0  0  0  0
 34 75  1  0  0  0  0
 34 81  2  0  0  0  0
 35 38  1  0  0  0  0
 36 45  1  0  0  0  0
 37 69  1  0  0  0  0
 38 40  1  0  0  0  0
 39 41  1  0  0  0  0
 39 42  1  0  0  0  0
 40 44  1  0  0  0  0
 41 46  1  0  0  0  0
 42 70  1  0  0  0  0
 43 46  1  0  0  0  0
 43 70  1  0  0  0  0
 44 73  1  0  0  0  0
 45 69  1  0  0  0  0
 46 68  1  0  0  0  0
 47 61  1  0  0  0  0
 48 62  1  0  0  0  0
 49 62  1  0  0  0  0
 50 62  1  0  0  0  0
 51 63  1  0  0  0  0
 52 63  1  0  0  0  0
 53 76  1  0  0  0  0
 54 55  1  0  0  0  0
 55 58  1  0  0  0  0
 56 59  1  0  0  0  0
 56 63  1  0  0  0  0
 57 63  1  0  0  0  0
 57 67  1  0  0  0  0
 58 75  1  0  0  0  0
 59 83  1  0  0  0  0
 60 62  1  0  0  0  0
 60 74  1  0  0  0  0
 61 76  1  0  0  0  0
 64 68  1  0  0  0  0
 65 66  2  0  0  0  0
 66 67  1  0  0  0  0
M  CHG  1  76   1
M  ISO  4  34 100  59 101  75 100  83 101
M  END
> <Batch ID>
0085

> <Smiles>
CNC(C)C(=O)NC(C(=O)N1Cc2cc([101O:1][101CH2:1]CC(C)(C)Cn3cc(CCC[100NH:0][100C:0](=O)N4CCCC(n5nc(-c6ccc(Oc7ccc(F)cc7F)cc6)c(C(N)=O)c5N)C4)nn3)ccc2CC1C(=O)NC1CCCc2ccccc21)C(C)(C)C

> <Shape>
0.243

> <Color>
0.081

> <Negative vol penalty>
0.000

$$$$

  -OEChem-04052318563D

 84 92  0     1  0  0  0  0  0999 V2000
  -16.2121  -27.2400   21.4139 C   0  0  0  0  0  0  0  0  0  0  0  0
  -17.4404  -26.6030   21.5587 C   0  0  0  0  0  0  0  0  0  0  0  0
  -24.5296  -13.7399   20.9048 C   0  0  0  0  0  0  0  0  0  0  0  0
  -26.8177  -13.2240   20.3255 C   0  0  0  0  0  0  0  0  0  0  0  0
  -16.1650  -28.6012   21.1159 C   0  0  0  0  0  0  0  0  0  0  0  0
  -18.6223  -27.3267   21.4046 C   0  0  0  0  0  0  0  0  0  0  0  0
  -22.0194  -26.2904   25.0145 C   0  0  0  0  0  0  0  0  0  0  0  0
  -24.1454  -12.4509   20.5353 C   0  0  0  0  0  0  0  0  0  0  0  0
  -26.4335  -11.9349   19.9560 C   0  0  0  0  0  0  0  0  0  0  0  0
  -22.7388  -25.1027   24.8897 C   0  0  0  0  0  0  0  0  0  0  0  0
  -24.2536   -9.3427   21.8622 C   0  0  0  0  0  0  0  0  0  0  0  0
  -23.3938   -8.6526   22.7166 C   0  0  0  0  0  0  0  0  0  0  0  0
  -24.6105  -26.3370   23.9995 C   0  0  0  0  0  0  0  0  0  0  0  0
  -21.7622   -8.4887   20.9423 C   0  0  0  0  0  0  0  0  0  0  0  0
  -28.0965  -24.1830   25.8350 C   0  0  0  0  0  0  0  0  0  0  0  0
  -25.8657  -14.1264   20.7999 C   0  0  0  0  0  0  0  0  0  0  0  0
  -26.6827  -15.8884   22.4538 C   0  0  0  0  0  0  0  0  0  0  0  0
  -17.3469  -29.3440   20.9676 C   0  0  0  0  0  0  0  0  0  0  0  0
  -22.5871  -27.5110   24.6218 C   0  0  0  0  0  0  0  0  0  0  0  0
  -18.5910  -28.6988   21.1031 C   0  0  0  0  0  0  0  0  0  0  0  0
  -23.8972  -27.5391   24.1227 C   0  0  0  0  0  0  0  0  0  0  0  0
  -25.0973  -11.5484   20.0610 C   0  0  0  0  0  0  0  0  0  0  0  0
  -24.0335  -25.1255   24.3795 C   0  0  0  0  0  0  0  0  0  0  0  0
  -23.8677   -9.6059   20.5478 C   0  0  0  0  0  0  0  0  0  0  0  0
  -22.1481   -8.2256   22.2567 C   0  0  0  0  0  0  0  0  0  0  0  0
  -22.6220   -9.1789   20.0879 C   0  0  0  0  0  0  0  0  0  0  0  0
  -26.2631  -15.4580   21.1808 C   0  0  0  0  0  0  0  0  0  0  0  0
  -29.2884  -24.8512   25.8334 C   0  0  0  0  0  0  0  0  0  0  0  0
  -26.9451  -17.2271   22.2944 C   0  0  0  0  0  0  0  0  0  0  0  0
  -29.4019  -23.2478   24.3112 C   0  0  0  0  0  0  0  0  0  0  0  0
  -26.8229  -15.1446   23.6715 C   0  0  0  0  0  0  0  0  0  0  0  0
  -21.8793  -29.7172   22.4457 C   0  0  0  0  0  0  0  0  0  0  0  0
  -24.3120  -31.3321   23.8587 C   0  0  0  0  0  0  0  0  0  0  0  0
  -27.1772  -31.2164   25.7091 C   0  0  0  0  0  0  0  0  0  0  0  0
  -29.1709  -21.4375   19.3851 C   0  0  0  0  0  0  0  0  0  0  0  0
  -17.2459  -30.8030   20.5990 C   0  0  0  0  0  0  0  0  0  0  0  0
  -21.8077  -28.7867   24.7877 C   0  0  0  0  0  0  0  0  0  0  0  0
  -24.5596  -28.8259   23.7059 C   0  0  0  0  0  0  0  0  0  0  0  0
  -18.5418  -31.5786   20.8215 C   0  0  0  0  0  0  0  0  0  0  0  0
  -25.9118  -20.3497   18.4514 C   0  0  0  0  0  0  0  0  0  0  0  0
  -19.7302  -30.8050   20.2593 C   0  0  0  0  0  0  0  0  0  0  0  0
  -25.7501  -19.0133   19.1780 C   0  0  0  0  0  0  0  0  0  0  0  0
  -27.3438  -20.5568   17.9630 C   0  0  0  0  0  0  0  0  0  0  0  0
  -28.2180  -19.0775   19.7296 C   0  0  0  0  0  0  0  0  0  0  0  0
  -19.8948  -29.4551   20.9679 C   0  0  1  0  0  0  0  0  0  0  0  0
  -22.2965  -29.9084   23.8765 C   0  0  1  0  0  0  0  0  0  0  0  0
  -26.8038  -18.8484   20.2897 C   0  0  2  0  0  0  0  0  0  0  0  0
  -29.7621  -25.9875   26.6277 C   0  0  0  0  0  0  0  0  0  0  0  0
  -28.9616  -32.6951   26.6716 C   0  0  0  0  0  0  0  0  0  0  0  0
  -24.9864  -24.1366   21.8750 C   0  0  0  0  0  0  0  0  0  0  0  0
  -25.5606  -31.6233   21.0899 C   0  0  0  0  0  0  0  0  0  0  0  0
  -27.7186  -32.2324   22.2037 C   0  0  0  0  0  0  0  0  0  0  0  0
  -25.7047  -33.6700   22.5198 C   0  0  0  0  0  0  0  0  0  0  0  0
  -26.5247  -30.3982   28.4774 C   0  0  0  0  0  0  0  0  0  0  0  0
  -29.9184  -22.3626   23.2377 C   0  0  0  0  0  0  0  0  0  0  0  0
  -30.4187  -23.1015   21.9770 C   0  0  0  0  0  0  0  0  0  0  0  0
  -26.3778  -22.5259   23.2257 C   0  0  0  0  0  0  0  0  0  0  0  0
  -27.1059  -22.2114   24.5405 C   0  0  0  0  0  0  0  0  0  0  0  0
  -30.9906  -22.1832   20.8990 C   0  0  0  0  0  0  0  0  0  0  0  0
  -25.8052  -31.4114   23.6514 C   0  0  1  0  0  0  0  0  0  0  0  0
  -27.6261  -32.0120   26.9215 C   0  0  2  0  0  0  0  0  0  0  0  0
  -25.6969  -23.9000   23.2017 C   0  0  2  0  0  0  0  0  0  1  0  0
  -26.1844  -32.2096   22.3721 C   0  0  0  0  0  0  0  0  0  0  0  0
  -26.2576  -16.4434   20.2793 N   0  0  0  0  0  0  0  0  0  0  0  0
  -28.1946  -23.1967   24.8833 N   0  0  0  0  0  0  0  0  0  0  0  0
  -26.6768  -17.5064   20.9866 N   0  0  0  0  0  0  0  0  0  0  0  0
  -30.0769  -24.2512   24.8814 N   0  3  0  0  0  0  0  0  0  0  0  0
  -23.7543  -30.0459   23.8814 N   0  0  0  0  0  0  0  0  0  0  0  0
  -28.2933  -20.3883   19.0656 N   0  0  0  0  0  0  0  0  0  0  0  0
  -27.3767  -18.1809   23.1467 N   0  0  0  0  0  0  0  0  0  0  0  0
  -26.5110  -13.7782   23.6595 N   0  0  0  0  0  0  0  0  0  0  0  0
  -20.5118  -29.6367   22.2644 N   0  0  0  0  0  0  0  0  0  0  0  0
  -26.3599  -31.9599   24.8843 N   0  0  0  0  0  0  0  0  0  0  0  0
  -30.0337  -21.1977   20.4476 N   0  0  0  0  0  0  0  0  0  0  0  0
  -27.7701  -31.1169   28.1042 N   0  3  0  0  0  0  0  0  0  0  0  0
  -27.1974  -15.6794   24.7426 O   0  0  0  0  0  0  0  0  0  0  0  0
  -22.7347  -29.6494   21.5708 O   0  0  0  0  0  0  0  0  0  0  0  0
  -23.6653  -32.3726   24.0025 O   0  0  0  0  0  0  0  0  0  0  0  0
  -27.5205  -30.0529   25.5115 O   0  0  0  0  0  0  0  0  0  0  0  0
  -29.1809  -22.5106   18.7726 O   0  0  0  0  0  0  0  0  0  0  0  0
  -24.7228  -10.2905   19.7005 O   0  0  0  0  0  0  0  0  0  0  0  0
  -24.7377  -23.9676   24.2560 O   0  0  0  0  0  0  0  0  0  1  0  0
  -21.3232   -7.5615   23.0768 F   0  0  0  0  0  0  0  0  0  0  0  0
  -22.2463   -9.4277   18.8258 F   0  0  0  0  0  0  0  0  0  0  0  0
  1  2  1  0  0  0  0
  1  5  2  0  0  0  0
  2  6  2  0  0  0  0
  3  8  2  0  0  0  0
  3 16  1  0  0  0  0
  4  9  1  0  0  0  0
  4 16  2  0  0  0  0
  5 18  1  0  0  0  0
  6 20  1  0  0  0  0
  7 10  2  0  0  0  0
  7 19  1  0  0  0  0
  8 22  1  0  0  0  0
  9 22  2  0  0  0  0
 10 23  1  0  0  0  0
 11 12  2  0  0  0  0
 11 24  1  0  0  0  0
 12 25  1  0  0  0  0
 13 21  1  0  0  0  0
 13 23  2  0  0  0  0
 14 25  2  0  0  0  0
 14 26  1  0  0  0  0
 15 28  2  0  0  0  0
 15 65  1  0  0  0  0
 16 27  1  0  0  0  0
 17 27  1  0  0  0  0
 17 29  2  0  0  0  0
 17 31  1  0  0  0  0
 18 20  2  0  0  0  0
 18 36  1  0  0  0  0
 19 21  2  0  0  0  0
 19 37  1  0  0  0  0
 20 45  1  0  0  0  0
 21 38  1  0  0  0  0
 22 81  1  0  0  0  0
 23 82  1  0  0  0  0
 24 26  2  0  0  0  0
 24 81  1  0  0  0  0
 25 83  1  0  0  0  0
 26 84  1  0  0  0  0
 27 64  2  0  0  0  0
 28 48  1  0  0  0  0
 28 67  1  0  0  0  0
 29 66  1  0  0  0  0
 29 70  1  0  0  0  0
 30 55  1  0  0  0  0
 30 65  1  0  0  0  0
 30 67  2  0  0  0  0
 31 71  1  0  0  0  0
 31 76  2  0  0  0  0
 32 46  1  0  0  0  0
 32 72  1  0  0  0  0
 32 77  2  0  0  0  0
 33 60  1  0  0  0  0
 33 68  1  0  0  0  0
 33 78  2  0  0  0  0
 34 61  1  0  0  0  0
 34 73  1  0  0  0  0
 34 79  2  0  0  0  0
 35 69  1  0  0  0  0
 35 74  1  0  0  0  0
 35 80  2  0  0  0  0
 36 39  1  0  0  0  0
 37 46  1  0  0  0  0
 38 68  1  0  0  0  0
 39 41  1  0  0  0  0
 40 42  1  0  0  0  0
 40 43  1  0  0  0  0
 41 45  1  0  0  0  0
 42 47  1  0  0  0  0
 43 69  1  0  0  0  0
 44 47  1  0  0  0  0
 44 69  1  0  0  0  0
 45 72  1  0  0  0  0
 46 68  1  0  0  0  0
 47 66  1  0  0  0  0
 49 61  1  0  0  0  0
 50 62  1  0  0  0  0
 51 63  1  0  0  0  0
 52 63  1  0  0  0  0
 53 63  1  0  0  0  0
 54 75  1  0  0  0  0
 55 56  1  0  0  0  0
 56 59  1  0  0  0  0
 57 58  1  0  0  0  0
 57 62  1  0  0  0  0
 58 65  1  0  0  0  0
 59 74  1  0  0  0  0
 60 63  1  0  0  0  0
 60 73  1  0  0  0  0
 61 75  1  0  0  0  0
 62 82  1  0  0  0  0
 64 66  1  0  0  0  0
M  CHG  2  67   1  75   1
M  ISO  4  35 100  62 101  74 100  82 101
M  END
> <Batch ID>
0085

> <Smiles>
CNC(C)C(=O)NC(C(=O)N1Cc2cc([101O:1][101CH:1](C)CCn3cc(C)nc3CCC[100NH:0][100C:0](=O)N3CCCC(n4nc(-c5ccc(Oc6ccc(F)cc6F)cc5)c(C(N)=O)c4N)C3)ccc2CC1C(=O)NC1CCCc2ccccc21)C(C)(C)C

> <Shape>
0.230

> <Color>
0.075

> <Negative vol penalty>
0.000

$$$$

  -OEChem-04052318563D

 80 87  0     1  0  0  0  0  0999 V2000
  -37.6739  -28.4225   27.1339 C   0  0  0  0  0  0  0  0  0  0  0  0
  -36.6632  -27.4706   27.0447 C   0  0  0  0  0  0  0  0  0  0  0  0
  -23.0465   -9.8709   20.0246 C   0  0  0  0  0  0  0  0  0  0  0  0
  -23.7070  -10.0382   22.3425 C   0  0  0  0  0  0  0  0  0  0  0  0
  -37.3496  -29.7756   27.2232 C   0  0  0  0  0  0  0  0  0  0  0  0
  -35.3276  -27.8713   27.0457 C   0  0  0  0  0  0  0  0  0  0  0  0
  -32.5825  -25.4903   23.5187 C   0  0  0  0  0  0  0  0  0  0  0  0
  -22.2905   -8.7371   20.3218 C   0  0  0  0  0  0  0  0  0  0  0  0
  -22.9509   -8.9044   22.6398 C   0  0  0  0  0  0  0  0  0  0  0  0
  -32.1833  -24.1838   23.7971 C   0  0  0  0  0  0  0  0  0  0  0  0
  -23.2593   -5.5520   22.3279 C   0  0  0  0  0  0  0  0  0  0  0  0
  -23.8415   -4.5798   23.1412 C   0  0  0  0  0  0  0  0  0  0  0  0
  -29.9982  -24.9913   24.4236 C   0  0  0  0  0  0  0  0  0  0  0  0
  -22.0685   -4.8698   24.7567 C   0  0  0  0  0  0  0  0  0  0  0  0
  -23.7549  -10.5214   21.0349 C   0  0  0  0  0  0  0  0  0  0  0  0
  -24.1063  -13.0325   20.7544 C   0  0  0  0  0  0  0  0  0  0  0  0
  -36.0095  -30.1937   27.2156 C   0  0  0  0  0  0  0  0  0  0  0  0
  -31.6944  -26.5601   23.7013 C   0  0  0  0  0  0  0  0  0  0  0  0
  -34.9850  -29.2311   27.1363 C   0  0  0  0  0  0  0  0  0  0  0  0
  -30.3878  -26.3102   24.1443 C   0  0  0  0  0  0  0  0  0  0  0  0
  -22.2426   -8.2538   21.6294 C   0  0  0  0  0  0  0  0  0  0  0  0
  -30.8919  -23.9344   24.2524 C   0  0  0  0  0  0  0  0  0  0  0  0
  -22.0818   -6.1832   22.7289 C   0  0  0  0  0  0  0  0  0  0  0  0
  -23.2460   -4.2387   24.3556 C   0  0  0  0  0  0  0  0  0  0  0  0
  -21.4864   -5.8420   23.9433 C   0  0  0  0  0  0  0  0  0  0  0  0
  -24.5366  -11.6924   20.7283 C   0  0  0  0  0  0  0  0  0  0  0  0
  -25.2144  -13.7562   20.3873 C   0  0  0  0  0  0  0  0  0  0  0  0
  -22.8199  -13.5748   21.0813 C   0  0  0  0  0  0  0  0  0  0  0  0
  -31.6533  -29.1522   25.5406 C   0  0  0  0  0  0  0  0  0  0  0  0
  -28.9992  -29.8586   23.8147 C   0  0  0  0  0  0  0  0  0  0  0  0
  -26.4025  -28.7386   21.9043 C   0  0  0  0  0  0  0  0  0  0  0  0
  -30.6869  -14.7921   20.7403 C   0  0  0  0  0  0  0  0  0  0  0  0
  -35.7070  -31.6640   27.3618 C   0  0  0  0  0  0  0  0  0  0  0  0
  -32.1320  -27.9607   23.3710 C   0  0  0  0  0  0  0  0  0  0  0  0
  -29.3897  -27.4215   24.3375 C   0  0  0  0  0  0  0  0  0  0  0  0
  -34.2759  -32.0324   26.9789 C   0  0  0  0  0  0  0  0  0  0  0  0
  -29.6487  -12.2460   18.4784 C   0  0  0  0  0  0  0  0  0  0  0  0
  -33.2867  -31.0578   27.6101 C   0  0  0  0  0  0  0  0  0  0  0  0
  -28.1934  -11.9815   18.8684 C   0  0  0  0  0  0  0  0  0  0  0  0
  -30.5136  -12.5509   19.6994 C   0  0  0  0  0  0  0  0  0  0  0  0
  -28.5553  -13.3745   20.9486 C   0  0  0  0  0  0  0  0  0  0  0  0
  -33.5250  -29.6281   27.1094 C   0  0  1  0  0  0  0  0  0  0  0  0
  -31.3073  -29.0281   24.0837 C   0  0  1  0  0  0  0  0  0  0  0  0
  -27.6324  -13.1173   19.7451 C   0  0  2  0  0  0  0  0  0  0  0  0
  -28.6922  -19.0258   20.5262 C   0  0  0  0  0  0  0  0  0  0  0  0
  -30.6586  -16.9769   24.9267 C   0  0  0  0  0  0  0  0  0  0  0  0
  -24.3750  -29.5479   20.6667 C   0  0  0  0  0  0  0  0  0  0  0  0
  -27.5179  -30.1882   26.4618 C   0  0  0  0  0  0  0  0  0  0  0  0
  -25.3637  -30.0479   25.1938 C   0  0  0  0  0  0  0  0  0  0  0  0
  -26.9609  -31.9079   24.7335 C   0  0  0  0  0  0  0  0  0  0  0  0
  -27.4437  -27.7489   19.3168 C   0  0  0  0  0  0  0  0  0  0  0  0
  -28.5420  -18.4177   21.9149 C   0  0  0  0  0  0  0  0  0  0  0  0
  -29.4812  -17.4184   24.0635 C   0  0  0  0  0  0  0  0  0  0  0  0
  -30.1316  -20.4517   23.6477 C   0  0  0  0  0  0  0  0  0  0  0  0
  -30.7319  -19.3070   22.8245 C   0  0  0  0  0  0  0  0  0  0  0  0
  -30.7034  -17.0235   21.8264 C   0  0  0  0  0  0  0  0  0  0  0  0
  -31.1086  -21.6158   23.7701 C   0  0  0  0  0  0  0  0  0  1  0  0
  -27.5242  -29.5693   23.9552 C   0  0  1  0  0  0  0  0  0  0  0  0
  -25.8553  -29.2134   20.5702 C   0  0  2  0  0  0  0  0  0  0  0  0
  -26.8609  -30.4074   25.0844 C   0  0  0  0  0  0  0  0  0  0  0  0
  -29.8505  -18.0167   22.6720 C   0  0  0  0  0  0  0  0  0  0  0  0
  -25.8181  -11.5691   20.3726 N   0  0  0  0  0  0  0  0  0  0  0  0
  -26.2026  -12.8411   20.1717 N   0  0  0  0  0  0  0  0  0  0  0  0
  -29.8671  -28.7744   24.0070 N   0  0  0  0  0  0  0  0  0  0  0  0
  -29.9274  -13.6379   20.4872 N   0  0  0  0  0  0  0  0  0  0  0  0
  -25.4303  -15.0796   20.2310 N   0  0  0  0  0  0  0  0  0  0  0  0
  -21.7927  -12.6901   21.4371 N   0  0  0  0  0  0  0  0  0  0  0  0
  -32.9789  -29.4607   25.7797 N   0  0  0  0  0  0  0  0  0  0  0  0
  -26.9398  -29.7774   22.6347 N   0  0  0  0  0  0  0  0  0  0  0  0
  -30.0538  -15.7765   21.4892 N   0  0  0  0  0  0  0  0  0  0  0  0
  -26.0321  -28.1581   19.5328 N   0  3  0  0  0  0  0  0  0  0  0  0
  -22.5837  -14.8061   21.0427 O   0  0  0  0  0  0  0  0  0  0  0  0
  -30.7819  -28.9822   26.3852 O   0  0  0  0  0  0  0  0  0  0  0  0
  -29.3673  -31.0028   23.5372 O   0  0  0  0  0  0  0  0  0  0  0  0
  -26.3544  -27.5645   22.2642 O   0  0  0  0  0  0  0  0  0  0  0  0
  -31.8416  -14.9369   20.3250 O   0  0  0  0  0  0  0  0  0  0  0  0
  -21.5047   -7.1476   21.9199 O   0  0  0  0  0  0  0  0  0  0  0  0
  -30.4971  -22.6509   24.5276 O   0  0  0  0  0  0  0  0  0  1  0  0
  -23.8043   -3.3040   25.1359 F   0  0  0  0  0  0  0  0  0  0  0  0
  -20.3545   -6.4441   24.3334 F   0  0  0  0  0  0  0  0  0  0  0  0
  1  2  1  0  0  0  0
  1  5  2  0  0  0  0
  2  6  2  0  0  0  0
  3  8  2  0  0  0  0
  3 15  1  0  0  0  0
  4  9  1  0  0  0  0
  4 15  2  0  0  0  0
  5 17  1  0  0  0  0
  6 19  1  0  0  0  0
  7 10  2  0  0  0  0
  7 18  1  0  0  0  0
  8 21  1  0  0  0  0
  9 21  2  0  0  0  0
 10 22  1  0  0  0  0
 11 12  2  0  0  0  0
 11 23  1  0  0  0  0
 12 24  1  0  0  0  0
 13 20  1  0  0  0  0
 13 22  2  0  0  0  0
 14 24  2  0  0  0  0
 14 25  1  0  0  0  0
 15 26  1  0  0  0  0
 16 26  1  0  0  0  0
 16 27  2  0  0  0  0
 16 28  1  0  0  0  0
 17 19  2  0  0  0  0
 17 33  1  0  0  0  0
 18 20  2  0  0  0  0
 18 34  1  0  0  0  0
 19 42  1  0  0  0  0
 20 35  1  0  0  0  0
 21 77  1  0  0  0  0
 22 78  1  0  0  0  0
 23 25  2  0  0  0  0
 23 77  1  0  0  0  0
 24 79  1  0  0  0  0
 25 80  1  0  0  0  0
 26 62  2  0  0  0  0
 27 63  1  0  0  0  0
 27 66  1  0  0  0  0
 28 67  1  0  0  0  0
 28 72  2  0  0  0  0
 29 43  1  0  0  0  0
 29 68  1  0  0  0  0
 29 73  2  0  0  0  0
 30 58  1  0  0  0  0
 30 64  1  0  0  0  0
 30 74  2  0  0  0  0
 31 59  1  0  0  0  0
 31 69  1  0  0  0  0
 31 75  2  0  0  0  0
 32 65  1  0  0  0  0
 32 70  1  0  0  0  0
 32 76  2  0  0  0  0
 33 36  1  0  0  0  0
 34 43  1  0  0  0  0
 35 64  1  0  0  0  0
 36 38  1  0  0  0  0
 37 39  1  0  0  0  0
 37 40  1  0  0  0  0
 38 42  1  0  0  0  0
 39 44  1  0  0  0  0
 40 65  1  0  0  0  0
 41 44  1  0  0  0  0
 41 65  1  0  0  0  0
 42 68  1  0  0  0  0
 43 64  1  0  0  0  0
 44 63  1  0  0  0  0
 45 52  1  0  0  0  0
 46 53  1  0  0  0  0
 47 59  1  0  0  0  0
 48 60  1  0  0  0  0
 49 60  1  0  0  0  0
 50 60  1  0  0  0  0
 51 71  1  0  0  0  0
 52 61  1  0  0  0  0
 53 61  1  0  0  0  0
 54 55  1  0  0  0  0
 54 57  1  0  0  0  0
 55 61  1  0  0  0  0
 56 61  1  0  0  0  0
 56 70  1  0  0  0  0
 57 78  1  0  0  0  0
 58 60  1  0  0  0  0
 58 69  1  0  0  0  0
 59 71  1  0  0  0  0
 62 63  1  0  0  0  0
M  CHG  1  71   1
M  ISO  4  32 100  57 101  70 100  78 101
M  END
> <Batch ID>
0085

> <Smiles>
CCC(CC)(CC[101CH2:1][101O:1]c1ccc2c(c1)CN(C(=O)C(NC(=O)C(C)NC)C(C)(C)C)C(C(=O)NC1CCCc3ccccc31)C2)C[100NH:0][100C:0](=O)N1CCCC(n2nc(-c3ccc(Oc4ccc(F)cc4F)cc3)c(C(N)=O)c2N)C1

> <Shape>
0.257

> <Color>
0.191

> <Negative vol penalty>
0.000

$$$$

  -OEChem-04052318563D

 83 91  0     1  0  0  0  0  0999 V2000
  -30.3593  -24.3056   16.9777 C   0  0  0  0  0  0  0  0  0  0  0  0
  -29.5661  -23.4529   17.7388 C   0  0  0  0  0  0  0  0  0  0  0  0
  -24.5860  -12.1636   20.0826 C   0  0  0  0  0  0  0  0  0  0  0  0
  -25.2344  -12.7012   22.3470 C   0  0  0  0  0  0  0  0  0  0  0  0
  -30.4721  -25.6500   17.3294 C   0  0  0  0  0  0  0  0  0  0  0  0
  -28.8862  -23.9440   18.8528 C   0  0  0  0  0  0  0  0  0  0  0  0
  -23.3873  -22.1730   20.8855 C   0  0  0  0  0  0  0  0  0  0  0  0
  -24.8134  -10.8115   20.3385 C   0  0  0  0  0  0  0  0  0  0  0  0
  -25.4618  -11.3490   22.6029 C   0  0  0  0  0  0  0  0  0  0  0  0
  -22.9992  -21.2942   21.8959 C   0  0  0  0  0  0  0  0  0  0  0  0
  -23.2110   -8.2641   21.8801 C   0  0  0  0  0  0  0  0  0  0  0  0
  -22.2522   -7.3511   21.4412 C   0  0  0  0  0  0  0  0  0  0  0  0
  -22.7592  -23.1543   23.4130 C   0  0  0  0  0  0  0  0  0  0  0  0
  -23.9153   -6.2658   20.0653 C   0  0  0  0  0  0  0  0  0  0  0  0
  -26.3857  -21.6376   24.4802 C   0  0  0  0  0  0  0  0  0  0  0  0
  -26.9227  -20.0929   25.9575 C   0  0  0  0  0  0  0  0  0  0  0  0
  -24.7965  -13.1085   21.0869 C   0  0  0  0  0  0  0  0  0  0  0  0
  -23.3587  -15.2139   20.9998 C   0  0  0  0  0  0  0  0  0  0  0  0
  -29.7856  -26.1599   18.4426 C   0  0  0  0  0  0  0  0  0  0  0  0
  -23.4750  -23.5502   21.1347 C   0  0  0  0  0  0  0  0  0  0  0  0
  -28.9910  -25.2962   19.2205 C   0  0  0  0  0  0  0  0  0  0  0  0
  -23.1462  -24.0487   22.4034 C   0  0  0  0  0  0  0  0  0  0  0  0
  -25.2513  -10.4041   21.5986 C   0  0  0  0  0  0  0  0  0  0  0  0
  -22.6878  -21.7845   23.1607 C   0  0  0  0  0  0  0  0  0  0  0  0
  -24.5221   -8.1780   21.4115 C   0  0  0  0  0  0  0  0  0  0  0  0
  -22.6043   -6.3520   20.5339 C   0  0  0  0  0  0  0  0  0  0  0  0
  -24.8742   -7.1788   20.5041 C   0  0  0  0  0  0  0  0  0  0  0  0
  -24.5623  -14.5055   20.8230 C   0  0  0  0  0  0  0  0  0  0  0  0
  -27.6309  -21.1118   24.2281 C   0  0  0  0  0  0  0  0  0  0  0  0
  -23.6554  -16.4974   20.6110 C   0  0  0  0  0  0  0  0  0  0  0  0
  -22.0862  -14.7530   21.4731 C   0  0  0  0  0  0  0  0  0  0  0  0
  -25.8190  -25.6962   21.0729 C   0  0  0  0  0  0  0  0  0  0  0  0
  -23.3961  -27.7833   21.6167 C   0  0  0  0  0  0  0  0  0  0  0  0
  -20.2471  -28.3172   22.8189 C   0  0  0  0  0  0  0  0  0  0  0  0
  -28.7649  -19.6105   20.3828 C   0  0  0  0  0  0  0  0  0  0  0  0
  -29.9760  -27.6099   18.8113 C   0  0  0  0  0  0  0  0  0  0  0  0
  -23.8694  -24.4877   20.0266 C   0  0  0  0  0  0  0  0  0  0  0  0
  -23.2049  -25.5207   22.7166 C   0  0  0  0  0  0  0  0  0  0  0  0
  -28.9253  -28.1333   19.7873 C   0  0  0  0  0  0  0  0  0  0  0  0
  -26.5369  -18.9520   17.6848 C   0  0  0  0  0  0  0  0  0  0  0  0
  -28.7262  -27.1493   20.9357 C   0  0  0  0  0  0  0  0  0  0  0  0
  -25.6696  -17.8017   18.1991 C   0  0  0  0  0  0  0  0  0  0  0  0
  -27.9808  -18.8292   18.1667 C   0  0  0  0  0  0  0  0  0  0  0  0
  -27.2693  -17.5366   20.1407 C   0  0  0  0  0  0  0  0  0  0  0  0
  -28.2183  -25.7968   20.4215 C   0  0  1  0  0  0  0  0  0  0  0  0
  -24.4209  -25.8159   20.5357 C   0  0  1  0  0  0  0  0  0  0  0  0
  -25.7918  -17.6470   19.7270 C   0  0  2  0  0  0  0  0  0  0  0  0
  -29.4826  -22.6542   23.5095 C   0  0  0  0  0  0  0  0  0  0  0  0
  -18.5513  -30.1349   23.1619 C   0  0  0  0  0  0  0  0  0  0  0  0
  -22.6208  -18.5516   24.2540 C   0  0  0  0  0  0  0  0  0  0  0  0
  -24.9856  -28.8112   24.0098 C   0  0  0  0  0  0  0  0  0  0  0  0
  -22.8930  -29.9059   24.8410 C   0  0  0  0  0  0  0  0  0  0  0  0
  -23.8736  -30.5934   22.6528 C   0  0  0  0  0  0  0  0  0  0  0  0
  -18.2836  -26.9779   21.0554 C   0  0  0  0  0  0  0  0  0  0  0  0
  -23.5946  -20.0784   26.0076 C   0  0  0  0  0  0  0  0  0  0  0  0
  -24.6241  -21.1824   26.2889 C   0  0  0  0  0  0  0  0  0  0  0  0
  -29.4575  -20.2771   22.6708 C   0  0  0  0  0  0  0  0  0  0  0  0
  -28.5635  -21.4594   23.1451 C   0  0  1  0  0  0  0  0  0  0  0  0
  -22.7275  -28.3482   22.8467 C   0  0  1  0  0  0  0  0  0  0  0  0
  -19.0531  -29.0448   22.2278 C   0  0  2  0  0  0  0  0  0  0  0  0
  -23.2422  -19.9162   24.5238 C   0  0  2  0  0  0  0  0  0  1  0  0
  -23.6206  -29.3867   23.5825 C   0  0  0  0  0  0  0  0  0  0  0  0
  -27.9592  -20.1506   25.1510 N   0  0  0  0  0  0  0  0  0  0  0  0
  -25.5500  -15.2751   20.3580 N   0  0  0  0  0  0  0  0  0  0  0  0
  -25.9444  -20.9748   25.5907 N   0  0  0  0  0  0  0  0  0  0  0  0
  -24.9675  -16.4804   20.2392 N   0  0  0  0  0  0  0  0  0  0  0  0
  -23.6021  -26.3965   21.6018 N   0  0  0  0  0  0  0  0  0  0  0  0
  -28.0269  -18.6872   19.6239 N   0  0  0  0  0  0  0  0  0  0  0  0
  -22.9192  -17.6276   20.5543 N   0  0  0  0  0  0  0  0  0  0  0  0
  -21.9548  -13.4041   21.8301 N   0  0  0  0  0  0  0  0  0  0  0  0
  -26.8047  -25.8693   20.1200 N   0  0  0  0  0  0  0  0  0  0  0  0
  -21.4395  -28.8732   22.4065 N   0  0  0  0  0  0  0  0  0  0  0  0
  -28.7508  -19.4072   21.7573 N   0  0  0  0  0  0  0  0  0  0  0  0
  -17.9366  -28.0899   21.9773 N   0  3  0  0  0  0  0  0  0  0  0  0
  -21.0906  -15.5110   21.5608 O   0  0  0  0  0  0  0  0  0  0  0  0
  -25.9909  -25.4653   22.2641 O   0  0  0  0  0  0  0  0  0  0  0  0
  -23.7171  -28.5434   20.6998 O   0  0  0  0  0  0  0  0  0  0  0  0
  -20.1332  -27.3543   23.5743 O   0  0  0  0  0  0  0  0  0  0  0  0
  -29.3858  -20.5497   19.8736 O   0  0  0  0  0  0  0  0  0  0  0  0
  -25.4731   -9.0847   21.8487 O   0  0  0  0  0  0  0  0  0  0  0  0
  -22.3093  -20.9289   24.1489 O   0  0  0  0  0  0  0  0  0  1  0  0
  -21.6838   -5.4743   20.1137 F   0  0  0  0  0  0  0  0  0  0  0  0
  -26.1323   -7.0904   20.0513 F   0  0  0  0  0  0  0  0  0  0  0  0
  1  2  1  0  0  0  0
  1  5  2  0  0  0  0
  2  6  2  0  0  0  0
  3  8  2  0  0  0  0
  3 17  1  0  0  0  0
  4  9  1  0  0  0  0
  4 17  2  0  0  0  0
  5 19  1  0  0  0  0
  6 21  1  0  0  0  0
  7 10  2  0  0  0  0
  7 20  1  0  0  0  0
  8 23  1  0  0  0  0
  9 23  2  0  0  0  0
 10 24  1  0  0  0  0
 11 12  2  0  0  0  0
 11 25  1  0  0  0  0
 12 26  1  0  0  0  0
 13 22  1  0  0  0  0
 13 24  2  0  0  0  0
 14 26  2  0  0  0  0
 14 27  1  0  0  0  0
 15 29  2  0  0  0  0
 15 65  1  0  0  0  0
 16 63  2  0  0  0  0
 16 65  1  0  0  0  0
 17 28  1  0  0  0  0
 18 28  1  0  0  0  0
 18 30  2  0  0  0  0
 18 31  1  0  0  0  0
 19 21  2  0  0  0  0
 19 36  1  0  0  0  0
 20 22  2  0  0  0  0
 20 37  1  0  0  0  0
 21 45  1  0  0  0  0
 22 38  1  0  0  0  0
 23 80  1  0  0  0  0
 24 81  1  0  0  0  0
 25 27  2  0  0  0  0
 25 80  1  0  0  0  0
 26 82  1  0  0  0  0
 27 83  1  0  0  0  0
 28 64  2  0  0  0  0
 29 58  1  0  0  0  0
 29 63  1  0  0  0  0
 30 66  1  0  0  0  0
 30 69  1  0  0  0  0
 31 70  1  0  0  0  0
 31 75  2  0  0  0  0
 32 46  1  0  0  0  0
 32 71  1  0  0  0  0
 32 76  2  0  0  0  0
 33 59  1  0  0  0  0
 33 67  1  0  0  0  0
 33 77  2  0  0  0  0
 34 60  1  0  0  0  0
 34 72  1  0  0  0  0
 34 78  2  0  0  0  0
 35 68  1  0  0  0  0
 35 73  1  0  0  0  0
 35 79  2  0  0  0  0
 36 39  1  0  0  0  0
 37 46  1  0  0  0  0
 38 67  1  0  0  0  0
 39 41  1  0  0  0  0
 40 42  1  0  0  0  0
 40 43  1  0  0  0  0
 41 45  1  0  0  0  0
 42 47  1  0  0  0  0
 43 68  1  0  0  0  0
 44 47  1  0  0  0  0
 44 68  1  0  0  0  0
 45 71  1  0  0  0  0
 46 67  1  0  0  0  0
 47 66  1  0  0  0  0
 48 58  1  0  0  0  0
 49 60  1  0  0  0  0
 50 61  1  0  0  0  0
 51 62  1  0  0  0  0
 52 62  1  0  0  0  0
 53 62  1  0  0  0  0
 54 74  1  0  0  0  0
 55 56  1  0  0  0  0
 55 61  1  0  0  0  0
 56 65  1  0  0  0  0
 57 58  1  0  0  0  0
 57 73  1  0  0  0  0
 59 62  1  0  0  0  0
 59 72  1  0  0  0  0
 60 74  1  0  0  0  0
 61 81  1  0  0  0  0
 64 66  1  0  0  0  0
M  CHG  1  74   1
M  ISO  4  35 100  61 101  73 100  81 101
M  END
> <Batch ID>
0085

> <Smiles>
CNC(C)C(=O)NC(C(=O)N1Cc2cc([101O:1][101CH:1](C)CCn3cnc(C(C)C[100NH:0][100C:0](=O)N4CCCC(n5nc(-c6ccc(Oc7ccc(F)cc7F)cc6)c(C(N)=O)c5N)C4)c3)ccc2CC1C(=O)NC1CCCc2ccccc21)C(C)(C)C

> <Shape>
0.219

> <Color>
0.070

> <Negative vol penalty>
0.000

$$$$

  -OEChem-04052318563D

 83 91  0     1  0  0  0  0  0999 V2000
  -17.6070  -27.8819   25.8800 C   0  0  0  0  0  0  0  0  0  0  0  0
  -18.1692  -26.6101   25.9238 C   0  0  0  0  0  0  0  0  0  0  0  0
  -19.3622  -18.0402   23.2390 C   0  0  0  0  0  0  0  0  0  0  0  0
  -21.2179  -19.3106   22.3561 C   0  0  0  0  0  0  0  0  0  0  0  0
  -17.8321  -28.7047   24.7772 C   0  0  0  0  0  0  0  0  0  0  0  0
  -18.9560  -26.1600   24.8641 C   0  0  0  0  0  0  0  0  0  0  0  0
  -24.6253  -22.0011   23.4936 C   0  0  0  0  0  0  0  0  0  0  0  0
  -19.1454  -19.0259   24.2018 C   0  0  0  0  0  0  0  0  0  0  0  0
  -21.0011  -20.2963   23.3189 C   0  0  0  0  0  0  0  0  0  0  0  0
  -25.0084  -20.9367   22.6786 C   0  0  0  0  0  0  0  0  0  0  0  0
  -17.8769  -21.3800   26.6643 C   0  0  0  0  0  0  0  0  0  0  0  0
  -16.5628  -21.7913   26.8868 C   0  0  0  0  0  0  0  0  0  0  0  0
  -25.3940  -22.4751   20.8610 C   0  0  0  0  0  0  0  0  0  0  0  0
  -27.5574  -17.3963   19.9759 C   0  0  0  0  0  0  0  0  0  0  0  0
  -16.3925  -22.4940   24.5815 C   0  0  0  0  0  0  0  0  0  0  0  0
  -20.3985  -18.1825   22.3162 C   0  0  0  0  0  0  0  0  0  0  0  0
  -20.0588  -17.0945   20.0340 C   0  0  0  0  0  0  0  0  0  0  0  0
  -18.6300  -28.2681   23.7078 C   0  0  0  0  0  0  0  0  0  0  0  0
  -24.6132  -23.3114   22.9942 C   0  0  0  0  0  0  0  0  0  0  0  0
  -19.1908  -26.9772   23.7454 C   0  0  0  0  0  0  0  0  0  0  0  0
  -25.0128  -23.5546   21.6724 C   0  0  0  0  0  0  0  0  0  0  0  0
  -27.7621  -18.5192   19.1935 C   0  0  0  0  0  0  0  0  0  0  0  0
  -19.9648  -20.1539   24.2418 C   0  0  0  0  0  0  0  0  0  0  0  0
  -25.3901  -21.1733   21.3613 C   0  0  0  0  0  0  0  0  0  0  0  0
  -18.4489  -21.5257   25.4005 C   0  0  0  0  0  0  0  0  0  0  0  0
  -15.8206  -22.3483   25.8454 C   0  0  0  0  0  0  0  0  0  0  0  0
  -17.7067  -22.0827   24.3591 C   0  0  0  0  0  0  0  0  0  0  0  0
  -20.6233  -17.1644   21.3217 C   0  0  0  0  0  0  0  0  0  0  0  0
  -28.6562  -16.8243   20.5850 C   0  0  0  0  0  0  0  0  0  0  0  0
  -29.0520  -18.9958   19.0722 C   0  0  0  0  0  0  0  0  0  0  0  0
  -20.5856  -15.9486   19.4899 C   0  0  0  0  0  0  0  0  0  0  0  0
  -19.1405  -17.9857   19.3874 C   0  0  0  0  0  0  0  0  0  0  0  0
  -22.3741  -25.5249   22.5577 C   0  0  0  0  0  0  0  0  0  0  0  0
  -24.9130  -27.3772   21.7543 C   0  0  0  0  0  0  0  0  0  0  0  0
  -28.1268  -27.5537   20.6199 C   0  0  0  0  0  0  0  0  0  0  0  0
  -25.6085  -12.8668   20.5501 C   0  0  0  0  0  0  0  0  0  0  0  0
  -18.8060  -29.1752   22.5158 C   0  0  0  0  0  0  0  0  0  0  0  0
  -24.2229  -24.4517   23.8941 C   0  0  0  0  0  0  0  0  0  0  0  0
  -25.0365  -24.9452   21.0942 C   0  0  0  0  0  0  0  0  0  0  0  0
  -19.9592  -28.7652   21.6035 C   0  0  0  0  0  0  0  0  0  0  0  0
  -22.2690  -11.6453   20.7303 C   0  0  0  0  0  0  0  0  0  0  0  0
  -19.9156  -27.2653   21.3293 C   0  0  0  0  0  0  0  0  0  0  0  0
  -21.4176  -12.9150   20.7861 C   0  0  0  0  0  0  0  0  0  0  0  0
  -23.5787  -11.8098   21.4983 C   0  0  0  0  0  0  0  0  0  0  0  0
  -23.5328  -14.2507   21.1609 C   0  0  0  0  0  0  0  0  0  0  0  0
  -20.0704  -26.4625   22.6266 C   0  0  1  0  0  0  0  0  0  0  0  0
  -23.7552  -25.6849   23.1273 C   0  0  1  0  0  0  0  0  0  0  0  0
  -22.2271  -14.1523   20.3537 C   0  0  2  0  0  0  0  0  0  0  0  0
  -29.3489  -20.2008   18.2450 C   0  0  0  0  0  0  0  0  0  0  0  0
  -29.9194  -29.2077   20.0297 C   0  0  0  0  0  0  0  0  0  0  0  0
  -23.4654  -28.0110   19.1442 C   0  0  0  0  0  0  0  0  0  0  0  0
  -25.6377  -28.8491   18.2240 C   0  0  0  0  0  0  0  0  0  0  0  0
  -24.6099  -29.9660   20.2037 C   0  0  0  0  0  0  0  0  0  0  0  0
  -29.9563  -26.4834   22.6853 C   0  0  0  0  0  0  0  0  0  0  0  0
  -26.5948  -19.1841   18.5055 C   0  0  0  0  0  0  0  0  0  0  0  0
  -28.4900  -15.6133   21.4377 C   0  0  0  0  0  0  0  0  0  0  0  0
  -28.6153  -14.2761   20.6802 C   0  0  0  0  0  0  0  0  0  0  0  0
  -27.5600  -14.0671   19.5962 C   0  0  0  0  0  0  0  0  0  0  0  0
  -26.1429  -20.4507   19.2242 C   0  0  0  0  0  0  0  0  0  1  0  0
  -25.6535  -27.6791   20.4739 C   0  0  1  0  0  0  0  0  0  0  0  0
  -29.3313  -28.3289   21.1226 C   0  0  2  0  0  0  0  0  0  0  0  0
  -24.8394  -28.5998   19.5215 C   0  0  0  0  0  0  0  0  0  0  0  0
  -21.4455  -16.1441   21.5804 N   0  0  0  0  0  0  0  0  0  0  0  0
  -29.9074  -17.3121   20.4487 N   0  0  0  0  0  0  0  0  0  0  0  0
  -30.1085  -18.4159   19.6800 N   0  0  0  0  0  0  0  0  0  0  0  0
  -21.4015  -15.4221   20.4477 N   0  0  0  0  0  0  0  0  0  0  0  0
  -24.6403  -26.0262   22.0118 N   0  0  0  0  0  0  0  0  0  0  0  0
  -24.2985  -13.0002   21.0393 N   0  0  0  0  0  0  0  0  0  0  0  0
  -20.4257  -15.3500   18.2905 N   0  0  0  0  0  0  0  0  0  0  0  0
  -18.6998  -19.1158   20.0894 N   0  0  0  0  0  0  0  0  0  0  0  0
  -21.4563  -26.4369   23.0428 N   0  0  0  0  0  0  0  0  0  0  0  0
  -26.9478  -28.2237   20.8695 N   0  0  0  0  0  0  0  0  0  0  0  0
  -26.2163  -14.0435   20.1298 N   0  0  0  0  0  0  0  0  0  0  0  0
  -30.3905  -27.3922   21.5933 N   0  3  0  0  0  0  0  0  0  0  0  0
  -18.7104  -17.7770   18.2276 O   0  0  0  0  0  0  0  0  0  0  0  0
  -22.1575  -24.6404   21.7376 O   0  0  0  0  0  0  0  0  0  0  0  0
  -24.5947  -28.3052   22.5020 O   0  0  0  0  0  0  0  0  0  0  0  0
  -28.2226  -26.4647   20.0583 O   0  0  0  0  0  0  0  0  0  0  0  0
  -26.1911  -11.7789   20.4873 O   0  0  0  0  0  0  0  0  0  0  0  0
  -19.7534  -21.1161   25.1810 O   0  0  0  0  0  0  0  0  0  0  0  0
  -25.7639  -20.1361   20.5635 O   0  0  0  0  0  0  0  0  0  1  0  0
  -14.5582  -22.7419   26.0588 F   0  0  0  0  0  0  0  0  0  0  0  0
  -18.2504  -22.2241   23.1424 F   0  0  0  0  0  0  0  0  0  0  0  0
  1  2  1  0  0  0  0
  1  5  2  0  0  0  0
  2  6  2  0  0  0  0
  3  8  2  0  0  0  0
  3 16  1  0  0  0  0
  4  9  1  0  0  0  0
  4 16  2  0  0  0  0
  5 18  1  0  0  0  0
  6 20  1  0  0  0  0
  7 10  2  0  0  0  0
  7 19  1  0  0  0  0
  8 23  1  0  0  0  0
  9 23  2  0  0  0  0
 10 24  1  0  0  0  0
 11 12  2  0  0  0  0
 11 25  1  0  0  0  0
 12 26  1  0  0  0  0
 13 21  1  0  0  0  0
 13 24  2  0  0  0  0
 14 22  1  0  0  0  0
 14 29  2  0  0  0  0
 15 26  2  0  0  0  0
 15 27  1  0  0  0  0
 16 28  1  0  0  0  0
 17 28  1  0  0  0  0
 17 31  2  0  0  0  0
 17 32  1  0  0  0  0
 18 20  2  0  0  0  0
 18 37  1  0  0  0  0
 19 21  2  0  0  0  0
 19 38  1  0  0  0  0
 20 46  1  0  0  0  0
 21 39  1  0  0  0  0
 22 30  2  0  0  0  0
 22 55  1  0  0  0  0
 23 80  1  0  0  0  0
 24 81  1  0  0  0  0
 25 27  2  0  0  0  0
 25 80  1  0  0  0  0
 26 82  1  0  0  0  0
 27 83  1  0  0  0  0
 28 63  2  0  0  0  0
 29 56  1  0  0  0  0
 29 64  1  0  0  0  0
 30 49  1  0  0  0  0
 30 65  1  0  0  0  0
 31 66  1  0  0  0  0
 31 69  1  0  0  0  0
 32 70  1  0  0  0  0
 32 75  2  0  0  0  0
 33 47  1  0  0  0  0
 33 71  1  0  0  0  0
 33 76  2  0  0  0  0
 34 60  1  0  0  0  0
 34 67  1  0  0  0  0
 34 77  2  0  0  0  0
 35 61  1  0  0  0  0
 35 72  1  0  0  0  0
 35 78  2  0  0  0  0
 36 68  1  0  0  0  0
 36 73  1  0  0  0  0
 36 79  2  0  0  0  0
 37 40  1  0  0  0  0
 38 47  1  0  0  0  0
 39 67  1  0  0  0  0
 40 42  1  0  0  0  0
 41 43  1  0  0  0  0
 41 44  1  0  0  0  0
 42 46  1  0  0  0  0
 43 48  1  0  0  0  0
 44 68  1  0  0  0  0
 45 48  1  0  0  0  0
 45 68  1  0  0  0  0
 46 71  1  0  0  0  0
 47 67  1  0  0  0  0
 48 66  1  0  0  0  0
 50 61  1  0  0  0  0
 51 62  1  0  0  0  0
 52 62  1  0  0  0  0
 53 62  1  0  0  0  0
 54 74  1  0  0  0  0
 55 59  1  0  0  0  0
 56 57  1  0  0  0  0
 57 58  1  0  0  0  0
 58 73  1  0  0  0  0
 59 81  1  0  0  0  0
 60 62  1  0  0  0  0
 60 72  1  0  0  0  0
 61 74  1  0  0  0  0
 63 66  1  0  0  0  0
 64 65  2  0  0  0  0
M  CHG  1  74   1
M  ISO  4  36 100  59 101  73 100  81 101
M  END
> <Batch ID>
0085

> <Smiles>
CNC(C)C(=O)NC(C(=O)N1Cc2cc([101O:1][101CH2:1]Cc3cc(CCC[100NH:0][100C:0](=O)N4CCCC(n5nc(-c6ccc(Oc7ccc(F)cc7F)cc6)c(C(N)=O)c5N)C4)nnc3C)ccc2CC1C(=O)NC1CCCc2ccccc21)C(C)(C)C

> <Shape>
0.182

> <Color>
0.079

> <Negative vol penalty>
0.000

$$$$

  -OEChem-04052318563D

 87 95  0     1  0  0  0  0  0999 V2000
  -37.4427  -28.5993   29.3882 C   0  0  0  0  0  0  0  0  0  0  0  0
  -36.1863  -28.0050   29.3285 C   0  0  0  0  0  0  0  0  0  0  0  0
  -23.0811   -9.8601   19.9399 C   0  0  0  0  0  0  0  0  0  0  0  0
  -23.8401   -9.8729   22.2335 C   0  0  0  0  0  0  0  0  0  0  0  0
  -37.5580  -29.9883   29.3521 C   0  0  0  0  0  0  0  0  0  0  0  0
  -35.0442  -28.7995   29.2338 C   0  0  0  0  0  0  0  0  0  0  0  0
  -31.7601  -27.0773   25.7851 C   0  0  0  0  0  0  0  0  0  0  0  0
  -22.3411   -8.7048   20.1911 C   0  0  0  0  0  0  0  0  0  0  0  0
  -23.1000   -8.7175   22.4848 C   0  0  0  0  0  0  0  0  0  0  0  0
  -30.9655  -25.9911   26.1492 C   0  0  0  0  0  0  0  0  0  0  0  0
  -19.8743   -7.9096   23.0872 C   0  0  0  0  0  0  0  0  0  0  0  0
  -19.1170   -7.8687   24.2578 C   0  0  0  0  0  0  0  0  0  0  0  0
  -29.1326  -27.4921   26.6040 C   0  0  0  0  0  0  0  0  0  0  0  0
  -20.3647   -5.9365   24.9975 C   0  0  0  0  0  0  0  0  0  0  0  0
  -23.8307  -10.4441   20.9611 C   0  0  0  0  0  0  0  0  0  0  0  0
  -24.1640  -12.9702   20.8376 C   0  0  0  0  0  0  0  0  0  0  0  0
  -36.4174  -30.7999   29.2472 C   0  0  0  0  0  0  0  0  0  0  0  0
  -31.2495  -28.3823   25.8382 C   0  0  0  0  0  0  0  0  0  0  0  0
  -35.1443  -30.2007   29.1977 C   0  0  0  0  0  0  0  0  0  0  0  0
  -29.9220  -28.5929   26.2376 C   0  0  0  0  0  0  0  0  0  0  0  0
  -22.3505   -8.1335   21.4636 C   0  0  0  0  0  0  0  0  0  0  0  0
  -29.6525  -26.1987   26.5615 C   0  0  0  0  0  0  0  0  0  0  0  0
  -20.8768   -6.9639   22.8716 C   0  0  0  0  0  0  0  0  0  0  0  0
  -19.3622   -6.8822   25.2130 C   0  0  0  0  0  0  0  0  0  0  0  0
  -21.1220   -5.9774   23.8268 C   0  0  0  0  0  0  0  0  0  0  0  0
  -24.5958  -11.6372   20.7020 C   0  0  0  0  0  0  0  0  0  0  0  0
  -25.2537  -13.7229   20.4738 C   0  0  0  0  0  0  0  0  0  0  0  0
  -22.8916  -13.4823   21.2553 C   0  0  0  0  0  0  0  0  0  0  0  0
  -31.9883  -31.0159   27.4575 C   0  0  0  0  0  0  0  0  0  0  0  0
  -29.7246  -32.3513   25.5562 C   0  0  0  0  0  0  0  0  0  0  0  0
  -26.9456  -31.9242   23.6220 C   0  0  0  0  0  0  0  0  0  0  0  0
  -30.7339  -14.7609   20.6629 C   0  0  0  0  0  0  0  0  0  0  0  0
  -36.5890  -32.2982   29.2593 C   0  0  0  0  0  0  0  0  0  0  0  0
  -32.1111  -29.5408   25.4166 C   0  0  0  0  0  0  0  0  0  0  0  0
  -29.3198  -29.9724   26.2927 C   0  0  0  0  0  0  0  0  0  0  0  0
  -35.3538  -33.0567   28.7805 C   0  0  0  0  0  0  0  0  0  0  0  0
  -29.6054  -12.3692   18.2790 C   0  0  0  0  0  0  0  0  0  0  0  0
  -34.0964  -32.5004   29.4410 C   0  0  0  0  0  0  0  0  0  0  0  0
  -28.9825  -18.3451   20.8402 C   0  0  0  0  0  0  0  0  0  0  0  0
  -31.2819  -19.3190   21.2542 C   0  0  0  0  0  0  0  0  0  0  0  0
  -28.1688  -12.0712   18.7118 C   0  0  0  0  0  0  0  0  0  0  0  0
  -28.4521  -19.0654   22.0800 C   0  0  0  0  0  0  0  0  0  0  0  0
  -30.7548  -20.0408   22.4945 C   0  0  0  0  0  0  0  0  0  0  0  0
  -30.5213  -12.5948   19.4800 C   0  0  0  0  0  0  0  0  0  0  0  0
  -28.6165  -13.3213   20.8648 C   0  0  0  0  0  0  0  0  0  0  0  0
  -33.8835  -31.0279   29.0696 C   0  0  1  0  0  0  0  0  0  0  0  0
  -31.6494  -30.8724   26.0007 C   0  0  1  0  0  0  0  0  0  0  0  0
  -30.4882  -18.0480   20.9143 C   0  0  0  0  0  0  0  0  0  0  0  0
  -27.6434  -13.1418   19.6870 C   0  0  2  0  0  0  0  0  0  0  0  0
  -29.2609  -20.3271   22.3687 C   0  0  0  0  0  0  0  0  0  0  0  0
  -29.4665  -23.2107   23.0202 C   0  0  0  0  0  0  0  0  0  0  0  0
  -25.2994  -33.2068   22.2282 C   0  0  0  0  0  0  0  0  0  0  0  0
  -27.0311  -20.8232   26.0895 C   0  0  0  0  0  0  0  0  0  0  0  0
  -28.3700  -33.3666   28.0948 C   0  0  0  0  0  0  0  0  0  0  0  0
  -26.3061  -33.7875   26.7417 C   0  0  0  0  0  0  0  0  0  0  0  0
  -28.4153  -35.0080   26.2085 C   0  0  0  0  0  0  0  0  0  0  0  0
  -27.6740  -30.4266   21.1754 C   0  0  0  0  0  0  0  0  0  0  0  0
  -30.7919  -16.9134   21.8968 C   0  0  0  0  0  0  0  0  0  0  0  0
  -26.8604  -23.8841   26.4716 C   0  0  0  0  0  0  0  0  0  0  0  0
  -27.4751  -23.1913   25.2537 C   0  0  0  0  0  0  0  0  0  0  0  0
  -29.6287  -22.1077   24.0431 C   0  0  0  0  0  0  0  0  0  0  0  0
  -27.3316  -21.2509   23.6072 C   0  0  0  0  0  0  0  0  0  0  0  0
  -27.4705  -25.2625   26.6971 C   0  0  0  0  0  0  0  0  0  1  0  0
  -28.2309  -32.5492   25.6497 C   0  0  1  0  0  0  0  0  0  0  0  0
  -26.6015  -32.4210   22.2294 C   0  0  2  0  0  0  0  0  0  0  0  0
  -26.8349  -21.8221   24.9445 C   0  0  1  0  0  0  0  0  0  0  0  0
  -27.8422  -33.6519   26.6746 C   0  0  0  0  0  0  0  0  0  0  0  0
  -25.8612  -11.5451   20.2843 N   0  0  0  0  0  0  0  0  0  0  0  0
  -26.2338  -12.8298   20.1544 N   0  0  0  0  0  0  0  0  0  0  0  0
  -30.2043  -31.0733   25.8767 N   0  0  0  0  0  0  0  0  0  0  0  0
  -29.9669  -13.6227   20.3643 N   0  0  0  0  0  0  0  0  0  0  0  0
  -25.4596  -15.0550   20.3990 N   0  0  0  0  0  0  0  0  0  0  0  0
  -21.8826  -12.5702   21.5934 N   0  0  0  0  0  0  0  0  0  0  0  0
  -33.3387  -30.9173   27.7334 N   0  0  0  0  0  0  0  0  0  0  0  0
  -27.7675  -32.8066   24.2905 N   0  0  0  0  0  0  0  0  0  0  0  0
  -30.1312  -15.6888   21.5034 N   0  0  0  0  0  0  0  0  0  0  0  0
  -26.4582  -31.2726   21.2904 N   0  3  0  0  0  0  0  0  0  0  0  0
  -28.7777  -20.9274   23.6408 N   0  3  1  0  0  0  0  0  0  0  0  0
  -22.6511  -14.7122   21.3108 O   0  0  0  0  0  0  0  0  0  0  0  0
  -31.0911  -31.2036   28.2709 O   0  0  0  0  0  0  0  0  0  0  0  0
  -30.4387  -33.2937   25.2048 O   0  0  0  0  0  0  0  0  0  0  0  0
  -26.5242  -30.8614   24.0731 O   0  0  0  0  0  0  0  0  0  0  0  0
  -31.8694  -14.9396   20.2095 O   0  0  0  0  0  0  0  0  0  0  0  0
  -21.6283   -7.0063   21.7092 O   0  0  0  0  0  0  0  0  0  0  0  0
  -28.8749  -25.1403   26.9181 O   0  0  0  0  0  0  0  0  0  1  0  0
  -18.6359   -6.8440   26.3378 F   0  0  0  0  0  0  0  0  0  0  0  0
  -22.0845   -5.0669   23.6258 F   0  0  0  0  0  0  0  0  0  0  0  0
  1  2  1  0  0  0  0
  1  5  2  0  0  0  0
  2  6  2  0  0  0  0
  3  8  2  0  0  0  0
  3 15  1  0  0  0  0
  4  9  1  0  0  0  0
  4 15  2  0  0  0  0
  5 17  1  0  0  0  0
  6 19  1  0  0  0  0
  7 10  2  0  0  0  0
  7 18  1  0  0  0  0
  8 21  1  0  0  0  0
  9 21  2  0  0  0  0
 10 22  1  0  0  0  0
 11 12  2  0  0  0  0
 11 23  1  0  0  0  0
 12 24  1  0  0  0  0
 13 20  1  0  0  0  0
 13 22  2  0  0  0  0
 14 24  2  0  0  0  0
 14 25  1  0  0  0  0
 15 26  1  0  0  0  0
 16 26  1  0  0  0  0
 16 27  2  0  0  0  0
 16 28  1  0  0  0  0
 17 19  2  0  0  0  0
 17 33  1  0  0  0  0
 18 20  2  0  0  0  0
 18 34  1  0  0  0  0
 19 46  1  0  0  0  0
 20 35  1  0  0  0  0
 21 84  1  0  0  0  0
 22 85  1  0  0  0  0
 23 25  2  0  0  0  0
 23 84  1  0  0  0  0
 24 86  1  0  0  0  0
 25 87  1  0  0  0  0
 26 68  2  0  0  0  0
 27 69  1  0  0  0  0
 27 72  1  0  0  0  0
 28 73  1  0  0  0  0
 28 79  2  0  0  0  0
 29 47  1  0  0  0  0
 29 74  1  0  0  0  0
 29 80  2  0  0  0  0
 30 64  1  0  0  0  0
 30 70  1  0  0  0  0
 30 81  2  0  0  0  0
 31 65  1  0  0  0  0
 31 75  1  0  0  0  0
 31 82  2  0  0  0  0
 32 71  1  0  0  0  0
 32 76  1  0  0  0  0
 32 83  2  0  0  0  0
 33 36  1  0  0  0  0
 34 47  1  0  0  0  0
 35 70  1  0  0  0  0
 36 38  1  0  0  0  0
 37 41  1  0  0  0  0
 37 44  1  0  0  0  0
 38 46  1  0  0  0  0
 39 42  1  0  0  0  0
 39 48  1  0  0  0  0
 40 43  1  0  0  0  0
 40 48  1  0  0  0  0
 41 49  1  0  0  0  0
 42 50  1  0  0  0  0
 43 50  1  0  0  0  0
 44 71  1  0  0  0  0
 45 49  1  0  0  0  0
 45 71  1  0  0  0  0
 46 74  1  0  0  0  0
 47 70  1  0  0  0  0
 48 58  1  0  0  0  0
 49 69  1  0  0  0  0
 50 78  1  0  0  0  0
 51 61  1  0  0  0  0
 52 65  1  0  0  0  0
 53 66  1  0  0  0  0
 54 67  1  0  0  0  0
 55 67  1  0  0  0  0
 56 67  1  0  0  0  0
 57 77  1  0  0  0  0
 58 76  1  0  0  0  0
 59 60  1  0  0  0  0
 59 63  1  0  0  0  0
 60 66  1  0  0  0  0
 61 78  1  0  0  0  0
 62 66  1  0  0  0  0
 62 78  1  0  0  0  0
 63 85  1  0  0  0  0
 64 67  1  0  0  0  0
 64 75  1  0  0  0  0
 65 77  1  0  0  0  0
 68 69  1  0  0  0  0
M  CHG  2  77   1  78   1
M  ISO  4  32 100  63 101  76 100  85 101
M  END
> <Batch ID>
0085

> <Smiles>
CCN(CC(C)CC[101CH2:1][101O:1]c1ccc2c(c1)CN(C(=O)C(NC(=O)C(C)NC)C(C)(C)C)C(C(=O)NC1CCCc3ccccc31)C2)C1CCC(C[100NH:0][100C:0](=O)N2CCCC(n3nc(-c4ccc(Oc5ccc(F)cc5F)cc4)c(C(N)=O)c3N)C2)CC1

> <Shape>
0.239

> <Color>
0.188

> <Negative vol penalty>
0.000

$$$$

  -OEChem-04052318563D

 86 94  0     1  0  0  0  0  0999 V2000
  -22.8721  -26.1318   19.5858 C   0  0  0  0  0  0  0  0  0  0  0  0
  -23.4509  -24.9047   19.2782 C   0  0  0  0  0  0  0  0  0  0  0  0
  -26.3412  -28.2134   18.9218 C   0  0  0  0  0  0  0  0  0  0  0  0
  -26.4082  -27.4806   21.2230 C   0  0  0  0  0  0  0  0  0  0  0  0
  -22.4170  -26.3818   20.8798 C   0  0  0  0  0  0  0  0  0  0  0  0
  -23.5760  -23.9272   20.2648 C   0  0  0  0  0  0  0  0  0  0  0  0
  -23.1419  -17.8644   19.5163 C   0  0  0  0  0  0  0  0  0  0  0  0
  -25.2561  -29.0388   19.2163 C   0  0  0  0  0  0  0  0  0  0  0  0
  -25.3231  -28.3060   21.5175 C   0  0  0  0  0  0  0  0  0  0  0  0
  -24.1042  -16.8654   19.3755 C   0  0  0  0  0  0  0  0  0  0  0  0
  -24.7815  -31.5886   22.1107 C   0  0  0  0  0  0  0  0  0  0  0  0
  -24.8518  -32.3596   23.2710 C   0  0  0  0  0  0  0  0  0  0  0  0
  -23.9592  -16.4011   21.7383 C   0  0  0  0  0  0  0  0  0  0  0  0
  -30.2175  -17.3633   23.2732 C   0  0  0  0  0  0  0  0  0  0  0  0
  -22.8715  -31.2650   24.1181 C   0  0  0  0  0  0  0  0  0  0  0  0
  -26.9173  -27.4342   19.9252 C   0  0  0  0  0  0  0  0  0  0  0  0
  -29.4037  -26.9153   19.6885 C   0  0  0  0  0  0  0  0  0  0  0  0
  -22.5278  -25.4033   21.8803 C   0  0  0  0  0  0  0  0  0  0  0  0
  -22.5881  -18.1471   20.7732 C   0  0  0  0  0  0  0  0  0  0  0  0
  -23.1232  -24.1648   21.5737 C   0  0  0  0  0  0  0  0  0  0  0  0
  -22.9882  -17.4025   21.8919 C   0  0  0  0  0  0  0  0  0  0  0  0
  -29.8991  -16.2694   22.4761 C   0  0  0  0  0  0  0  0  0  0  0  0
  -29.0065  -15.3115   22.9443 C   0  0  0  0  0  0  0  0  0  0  0  0
  -24.7470  -29.0852   20.5141 C   0  0  0  0  0  0  0  0  0  0  0  0
  -24.5151  -16.1356   20.4871 C   0  0  0  0  0  0  0  0  0  0  0  0
  -23.7562  -30.6559   21.9540 C   0  0  0  0  0  0  0  0  0  0  0  0
  -23.8968  -32.1977   24.2747 C   0  0  0  0  0  0  0  0  0  0  0  0
  -22.8013  -30.4941   22.9577 C   0  0  0  0  0  0  0  0  0  0  0  0
  -28.0379  -26.5809   19.6215 C   0  0  0  0  0  0  0  0  0  0  0  0
  -29.6210  -17.4524   24.5206 C   0  0  0  0  0  0  0  0  0  0  0  0
  -28.4644  -15.4924   24.2065 C   0  0  0  0  0  0  0  0  0  0  0  0
  -30.0569  -25.7694   19.3054 C   0  0  0  0  0  0  0  0  0  0  0  0
  -30.0263  -28.1512   20.0634 C   0  0  0  0  0  0  0  0  0  0  0  0
  -22.5360  -20.6890   22.6811 C   0  0  0  0  0  0  0  0  0  0  0  0
  -20.5221  -18.8465   24.4339 C   0  0  0  0  0  0  0  0  0  0  0  0
  -19.4408  -15.7181   25.2649 C   0  0  0  0  0  0  0  0  0  0  0  0
  -28.5046  -20.0797   19.5754 C   0  0  0  0  0  0  0  0  0  0  0  0
  -22.0645  -25.7368   23.2763 C   0  0  0  0  0  0  0  0  0  0  0  0
  -21.5316  -19.2098   20.9037 C   0  0  0  0  0  0  0  0  0  0  0  0
  -22.4096  -17.6532   23.2597 C   0  0  0  0  0  0  0  0  0  0  0  0
  -21.8937  -24.5114   24.1704 C   0  0  0  0  0  0  0  0  0  0  0  0
  -29.4955  -21.8686   16.5895 C   0  0  0  0  0  0  0  0  0  0  0  0
  -23.1009  -23.5873   24.0459 C   0  0  0  0  0  0  0  0  0  0  0  0
  -29.3603  -23.3221   17.0469 C   0  0  0  0  0  0  0  0  0  0  0  0
  -28.3903  -20.9981   17.1804 C   0  0  0  0  0  0  0  0  0  0  0  0
  -28.1652  -22.4933   19.1265 C   0  0  0  0  0  0  0  0  0  0  0  0
  -23.2541  -23.0702   22.6104 C   0  0  1  0  0  0  0  0  0  0  0  0
  -21.4104  -19.7610   22.3210 C   0  0  1  0  0  0  0  0  0  0  0  0
  -29.2667  -23.4204   18.5811 C   0  0  2  0  0  0  0  0  0  0  0  0
  -29.9382  -18.6136   25.4026 C   0  0  0  0  0  0  0  0  0  0  0  0
  -26.7807  -15.0208   26.0035 C   0  0  0  0  0  0  0  0  0  0  0  0
  -17.8084  -14.5291   26.7545 C   0  0  0  0  0  0  0  0  0  0  0  0
  -22.3390  -19.3601   26.8307 C   0  0  0  0  0  0  0  0  0  0  0  0
  -21.2318  -17.4390   27.9933 C   0  0  0  0  0  0  0  0  0  0  0  0
  -19.8919  -19.4394   27.3407 C   0  0  0  0  0  0  0  0  0  0  0  0
  -18.0261  -14.5237   22.9560 C   0  0  0  0  0  0  0  0  0  0  0  0
  -30.5288  -16.1458   21.1281 C   0  0  0  0  0  0  0  0  0  0  0  0
  -28.6405  -14.1161   22.1014 C   0  0  0  0  0  0  0  0  0  0  0  0
  -27.4986  -14.4979   24.7631 C   0  0  0  0  0  0  0  0  0  0  0  0
  -30.3103  -17.3634   20.2094 C   0  0  0  0  0  0  0  0  0  0  0  0
  -27.6554  -14.4352   20.9747 C   0  0  0  0  0  0  0  0  0  0  0  0
  -28.8475  -17.6397   19.8687 C   0  0  0  0  0  0  0  0  0  0  0  0
  -26.2970  -14.9105   21.4770 C   0  0  0  0  0  0  0  0  0  1  0  0
  -20.6889  -17.8431   25.5494 C   0  0  1  0  0  0  0  0  0  0  0  0
  -18.0452  -15.1318   25.3785 C   0  0  2  0  0  0  0  0  0  0  0  0
  -21.0504  -18.5167   26.9032 C   0  0  0  0  0  0  0  0  0  0  0  0
  -27.8342  -25.3212   19.2269 N   0  0  0  0  0  0  0  0  0  0  0  0
  -28.7496  -16.5419   25.0096 N   0  0  0  0  0  0  0  0  0  0  0  0
  -29.0807  -24.8540   19.0423 N   0  0  0  0  0  0  0  0  0  0  0  0
  -21.3843  -18.7069   23.3371 N   0  0  0  0  0  0  0  0  0  0  0  0
  -28.3671  -21.1228   18.6446 N   0  0  0  0  0  0  0  0  0  0  0  0
  -31.3654  -25.4656   19.1713 N   0  0  0  0  0  0  0  0  0  0  0  0
  -29.2071  -29.2279   20.4294 N   0  0  0  0  0  0  0  0  0  0  0  0
  -22.3033  -22.0104   22.3509 N   0  0  0  0  0  0  0  0  0  0  0  0
  -19.4584  -17.0600   25.5814 N   0  0  0  0  0  0  0  0  0  0  0  0
  -28.6853  -18.8115   19.0370 N   0  0  0  0  0  0  0  0  0  0  0  0
  -17.8470  -14.0645   24.3574 N   0  3  0  0  0  0  0  0  0  0  0  0
  -31.2717  -28.3014   20.0579 O   0  0  0  0  0  0  0  0  0  0  0  0
  -23.5406  -20.2395   23.2202 O   0  0  0  0  0  0  0  0  0  0  0  0
  -19.6538  -19.7176   24.5288 O   0  0  0  0  0  0  0  0  0  0  0  0
  -20.4183  -15.0514   24.9325 O   0  0  0  0  0  0  0  0  0  0  0  0
  -28.4742  -20.2654   20.7967 O   0  0  0  0  0  0  0  0  0  0  0  0
  -23.6883  -29.8907   20.8018 O   0  0  0  0  0  0  0  0  0  0  0  0
  -25.4546  -15.1604   20.3526 O   0  0  0  0  0  0  0  0  0  1  0  0
  -23.9652  -32.9370   25.3896 F   0  0  0  0  0  0  0  0  0  0  0  0
  -21.8146  -29.5988   22.8134 F   0  0  0  0  0  0  0  0  0  0  0  0
  1  2  1  0  0  0  0
  1  5  2  0  0  0  0
  2  6  2  0  0  0  0
  3  8  2  0  0  0  0
  3 16  1  0  0  0  0
  4  9  1  0  0  0  0
  4 16  2  0  0  0  0
  5 18  1  0  0  0  0
  6 20  1  0  0  0  0
  7 10  2  0  0  0  0
  7 19  1  0  0  0  0
  8 24  1  0  0  0  0
  9 24  2  0  0  0  0
 10 25  1  0  0  0  0
 11 12  2  0  0  0  0
 11 26  1  0  0  0  0
 12 27  1  0  0  0  0
 13 21  1  0  0  0  0
 13 25  2  0  0  0  0
 14 22  2  0  0  0  0
 14 30  1  0  0  0  0
 15 27  2  0  0  0  0
 15 28  1  0  0  0  0
 16 29  1  0  0  0  0
 17 29  1  0  0  0  0
 17 32  2  0  0  0  0
 17 33  1  0  0  0  0
 18 20  2  0  0  0  0
 18 38  1  0  0  0  0
 19 21  2  0  0  0  0
 19 39  1  0  0  0  0
 20 47  1  0  0  0  0
 21 40  1  0  0  0  0
 22 23  1  0  0  0  0
 22 57  1  0  0  0  0
 23 31  2  0  0  0  0
 23 58  1  0  0  0  0
 24 83  1  0  0  0  0
 25 84  1  0  0  0  0
 26 28  2  0  0  0  0
 26 83  1  0  0  0  0
 27 85  1  0  0  0  0
 28 86  1  0  0  0  0
 29 67  2  0  0  0  0
 30 50  1  0  0  0  0
 30 68  2  0  0  0  0
 31 59  1  0  0  0  0
 31 68  1  0  0  0  0
 32 69  1  0  0  0  0
 32 72  1  0  0  0  0
 33 73  1  0  0  0  0
 33 78  2  0  0  0  0
 34 48  1  0  0  0  0
 34 74  1  0  0  0  0
 34 79  2  0  0  0  0
 35 64  1  0  0  0  0
 35 70  1  0  0  0  0
 35 80  2  0  0  0  0
 36 65  1  0  0  0  0
 36 75  1  0  0  0  0
 36 81  2  0  0  0  0
 37 71  1  0  0  0  0
 37 76  1  0  0  0  0
 37 82  2  0  0  0  0
 38 41  1  0  0  0  0
 39 48  1  0  0  0  0
 40 70  1  0  0  0  0
 41 43  1  0  0  0  0
 42 44  1  0  0  0  0
 42 45  1  0  0  0  0
 43 47  1  0  0  0  0
 44 49  1  0  0  0  0
 45 71  1  0  0  0  0
 46 49  1  0  0  0  0
 46 71  1  0  0  0  0
 47 74  1  0  0  0  0
 48 70  1  0  0  0  0
 49 69  1  0  0  0  0
 51 59  1  0  0  0  0
 52 65  1  0  0  0  0
 53 66  1  0  0  0  0
 54 66  1  0  0  0  0
 55 66  1  0  0  0  0
 56 77  1  0  0  0  0
 57 60  1  0  0  0  0
 58 61  1  0  0  0  0
 60 62  1  0  0  0  0
 61 63  1  0  0  0  0
 62 76  1  0  0  0  0
 63 84  1  0  0  0  0
 64 66  1  0  0  0  0
 64 75  1  0  0  0  0
 65 77  1  0  0  0  0
 67 69  1  0  0  0  0
M  CHG  1  77   1
M  ISO  4  37 100  63 101  76 100  84 101
M  END
> <Batch ID>
0085

> <Smiles>
CCc1nc(C)cc(CCC[100NH:0][100C:0](=O)N2CCCC(n3nc(-c4ccc(Oc5ccc(F)cc5F)cc4)c(C(N)=O)c3N)C2)c1CC[101CH2:1][101O:1]c1ccc2c(c1)CN(C(=O)C(NC(=O)C(C)NC)C(C)(C)C)C(C(=O)NC1CCCc3ccccc31)C2

> <Shape>
0.198

> <Color>
0.054

> <Negative vol penalty>
0.000

$$$$

  -OEChem-04052318563D

 86 94  0     1  0  0  0  0  0999 V2000
  -28.2676  -33.5957   21.9226 C   0  0  0  0  0  0  0  0  0  0  0  0
  -28.4037  -32.2156   22.0324 C   0  0  0  0  0  0  0  0  0  0  0  0
  -23.3829  -11.0066   23.0397 C   0  0  0  0  0  0  0  0  0  0  0  0
  -24.5224   -9.2613   21.8179 C   0  0  0  0  0  0  0  0  0  0  0  0
  -27.0520  -34.2023   22.2364 C   0  0  0  0  0  0  0  0  0  0  0  0
  -27.3246  -31.4412   22.4571 C   0  0  0  0  0  0  0  0  0  0  0  0
  -26.6974  -27.2753   19.6470 C   0  0  0  0  0  0  0  0  0  0  0  0
  -22.8856  -10.0571   23.9323 C   0  0  0  0  0  0  0  0  0  0  0  0
  -24.0251   -8.3118   22.7106 C   0  0  0  0  0  0  0  0  0  0  0  0
  -27.5546  -26.2043   19.8959 C   0  0  0  0  0  0  0  0  0  0  0  0
  -21.1183   -6.6665   23.2341 C   0  0  0  0  0  0  0  0  0  0  0  0
  -20.5932   -5.4890   22.7018 C   0  0  0  0  0  0  0  0  0  0  0  0
  -25.8304  -25.1355   21.2013 C   0  0  0  0  0  0  0  0  0  0  0  0
  -22.2358   -4.2047   23.9223 C   0  0  0  0  0  0  0  0  0  0  0  0
  -24.2013  -10.6087   21.9824 C   0  0  0  0  0  0  0  0  0  0  0  0
  -23.9694  -12.4543   20.2367 C   0  0  0  0  0  0  0  0  0  0  0  0
  -25.9546  -33.4340   22.6559 C   0  0  0  0  0  0  0  0  0  0  0  0
  -25.4018  -27.2896   20.1833 C   0  0  0  0  0  0  0  0  0  0  0  0
  -26.0937  -32.0382   22.7781 C   0  0  0  0  0  0  0  0  0  0  0  0
  -24.9578  -26.2067   20.9555 C   0  0  0  0  0  0  0  0  0  0  0  0
  -23.2067   -8.7097   23.7678 C   0  0  0  0  0  0  0  0  0  0  0  0
  -27.1222  -25.1356   20.6756 C   0  0  0  0  0  0  0  0  0  0  0  0
  -22.2022   -6.6131   24.1105 C   0  0  0  0  0  0  0  0  0  0  0  0
  -21.1519   -4.2581   23.0459 C   0  0  0  0  0  0  0  0  0  0  0  0
  -22.7609   -5.3823   24.4546 C   0  0  0  0  0  0  0  0  0  0  0  0
  -24.7148  -11.5889   21.0597 C   0  0  0  0  0  0  0  0  0  0  0  0
  -24.9157  -13.1812   19.5566 C   0  0  0  0  0  0  0  0  0  0  0  0
  -22.5486  -12.5890   20.0993 C   0  0  0  0  0  0  0  0  0  0  0  0
  -23.8323  -29.1724   22.2070 C   0  0  0  0  0  0  0  0  0  0  0  0
  -21.3168  -27.2917   21.3959 C   0  0  0  0  0  0  0  0  0  0  0  0
  -20.2071  -24.2904   20.2096 C   0  0  0  0  0  0  0  0  0  0  0  0
  -30.5973  -14.6271   20.7732 C   0  0  0  0  0  0  0  0  0  0  0  0
  -24.6749  -34.1394   23.0294 C   0  0  0  0  0  0  0  0  0  0  0  0
  -24.4802  -28.4398   19.8833 C   0  0  0  0  0  0  0  0  0  0  0  0
  -23.5694  -26.1642   21.5376 C   0  0  0  0  0  0  0  0  0  0  0  0
  -23.4681  -33.2083   23.1126 C   0  0  0  0  0  0  0  0  0  0  0  0
  -29.3983  -12.8813   17.9112 C   0  0  0  0  0  0  0  0  0  0  0  0
  -23.8180  -31.9499   23.9003 C   0  0  0  0  0  0  0  0  0  0  0  0
  -30.8528  -21.4962   22.6905 C   0  0  0  0  0  0  0  0  0  0  0  0
  -30.0791  -20.3633   20.5705 C   0  0  0  0  0  0  0  0  0  0  0  0
  -30.1340  -22.7765   22.2686 C   0  0  0  0  0  0  0  0  0  0  0  0
  -29.3604  -21.6436   20.1486 C   0  0  0  0  0  0  0  0  0  0  0  0
  -27.9948  -12.4302   18.3193 C   0  0  0  0  0  0  0  0  0  0  0  0
  -30.3724  -12.8273   19.0860 C   0  0  0  0  0  0  0  0  0  0  0  0
  -28.5288  -13.1066   20.6975 C   0  0  0  0  0  0  0  0  0  0  0  0
  -24.9387  -31.1617   23.2116 C   0  0  1  0  0  0  0  0  0  0  0  0
  -23.3581  -28.5889   20.9061 C   0  0  1  0  0  0  0  0  0  0  0  0
  -30.1854  -20.2494   22.0964 C   0  0  0  0  0  0  0  0  0  0  0  0
  -30.0279  -22.8904   20.7426 C   0  0  0  0  0  0  0  0  0  0  0  0
  -27.4978  -13.1971   19.5595 C   0  0  2  0  0  0  0  0  0  0  0  0
  -29.6881  -18.8616   24.7806 C   0  0  0  0  0  0  0  0  0  0  0  0
  -18.0965  -23.0346   19.6941 C   0  0  0  0  0  0  0  0  0  0  0  0
  -32.3832  -19.0926   21.9123 C   0  0  0  0  0  0  0  0  0  0  0  0
  -29.9511  -25.3951   20.9070 C   0  0  0  0  0  0  0  0  0  0  0  0
  -29.1230  -24.2520   18.8294 C   0  0  0  0  0  0  0  0  0  0  0  0
  -20.8843  -26.8000   24.3761 C   0  0  0  0  0  0  0  0  0  0  0  0
  -19.4313  -24.8524   23.7728 C   0  0  0  0  0  0  0  0  0  0  0  0
  -18.7863  -27.1549   23.0621 C   0  0  0  0  0  0  0  0  0  0  0  0
  -20.9151  -24.0449   17.3465 C   0  0  0  0  0  0  0  0  0  0  0  0
  -31.0221  -18.9170   24.0458 C   0  0  0  0  0  0  0  0  0  0  0  0
  -30.2849  -17.7243   21.8668 C   0  0  0  0  0  0  0  0  0  0  0  0
  -30.6710  -16.3952   22.5132 C   0  0  0  0  0  0  0  0  0  0  0  0
  -20.7295  -26.0054   21.9244 C   0  0  1  0  0  0  0  0  0  0  0  0
  -19.1832  -23.9450   19.1435 C   0  0  2  0  0  0  0  0  0  0  0  0
  -30.9508  -18.9878   22.4913 C   0  0  1  0  0  0  0  0  0  0  0  0
  -29.2625  -24.1520   20.3477 C   0  0  0  0  0  0  0  0  0  1  0  0
  -19.9848  -26.2046   23.2746 C   0  0  0  0  0  0  0  0  0  0  0  0
  -26.0330  -11.7499   20.9169 N   0  0  0  0  0  0  0  0  0  0  0  0
  -26.1234  -12.7247   19.9962 N   0  0  0  0  0  0  0  0  0  0  0  0
  -22.7078  -27.3153   21.2212 N   0  0  0  0  0  0  0  0  0  0  0  0
  -29.8425  -13.5750   20.2289 N   0  0  0  0  0  0  0  0  0  0  0  0
  -24.8243  -14.1600   18.6313 N   0  0  0  0  0  0  0  0  0  0  0  0
  -21.8929  -11.8056   19.1398 N   0  0  0  0  0  0  0  0  0  0  0  0
  -24.4156  -30.4191   22.0850 N   0  0  0  0  0  0  0  0  0  0  0  0
  -19.8949  -25.4681   20.8552 N   0  0  0  0  0  0  0  0  0  0  0  0
  -30.0192  -15.2877   21.8504 N   0  0  0  0  0  0  0  0  0  0  0  0
  -19.8404  -23.2533   17.9987 N   0  3  0  0  0  0  0  0  0  0  0  0
  -21.8826  -13.3926   20.7951 O   0  0  0  0  0  0  0  0  0  0  0  0
  -23.6789  -28.5391   23.2448 O   0  0  0  0  0  0  0  0  0  0  0  0
  -20.5682  -28.2383   21.1406 O   0  0  0  0  0  0  0  0  0  0  0  0
  -21.1841  -23.5840   20.4486 O   0  0  0  0  0  0  0  0  0  0  0  0
  -31.7020  -14.9571   20.3285 O   0  0  0  0  0  0  0  0  0  0  0  0
  -22.7219   -7.7830   24.6388 O   0  0  0  0  0  0  0  0  0  0  0  0
  -27.9571  -24.0893   20.9207 O   0  0  0  0  0  0  0  0  0  1  0  0
  -20.6466   -3.1274   22.5358 F   0  0  0  0  0  0  0  0  0  0  0  0
  -23.8015   -5.3246   25.2970 F   0  0  0  0  0  0  0  0  0  0  0  0
  1  2  1  0  0  0  0
  1  5  2  0  0  0  0
  2  6  2  0  0  0  0
  3  8  2  0  0  0  0
  3 15  1  0  0  0  0
  4  9  1  0  0  0  0
  4 15  2  0  0  0  0
  5 17  1  0  0  0  0
  6 19  1  0  0  0  0
  7 10  2  0  0  0  0
  7 18  1  0  0  0  0
  8 21  1  0  0  0  0
  9 21  2  0  0  0  0
 10 22  1  0  0  0  0
 11 12  2  0  0  0  0
 11 23  1  0  0  0  0
 12 24  1  0  0  0  0
 13 20  1  0  0  0  0
 13 22  2  0  0  0  0
 14 24  2  0  0  0  0
 14 25  1  0  0  0  0
 15 26  1  0  0  0  0
 16 26  1  0  0  0  0
 16 27  2  0  0  0  0
 16 28  1  0  0  0  0
 17 19  2  0  0  0  0
 17 33  1  0  0  0  0
 18 20  2  0  0  0  0
 18 34  1  0  0  0  0
 19 46  1  0  0  0  0
 20 35  1  0  0  0  0
 21 83  1  0  0  0  0
 22 84  1  0  0  0  0
 23 25  2  0  0  0  0
 23 83  1  0  0  0  0
 24 85  1  0  0  0  0
 25 86  1  0  0  0  0
 26 68  2  0  0  0  0
 27 69  1  0  0  0  0
 27 72  1  0  0  0  0
 28 73  1  0  0  0  0
 28 78  2  0  0  0  0
 29 47  1  0  0  0  0
 29 74  1  0  0  0  0
 29 79  2  0  0  0  0
 30 63  1  0  0  0  0
 30 70  1  0  0  0  0
 30 80  2  0  0  0  0
 31 64  1  0  0  0  0
 31 75  1  0  0  0  0
 31 81  2  0  0  0  0
 32 71  1  0  0  0  0
 32 76  1  0  0  0  0
 32 82  2  0  0  0  0
 33 36  1  0  0  0  0
 34 47  1  0  0  0  0
 35 70  1  0  0  0  0
 36 38  1  0  0  0  0
 37 43  1  0  0  0  0
 37 44  1  0  0  0  0
 38 46  1  0  0  0  0
 39 41  1  0  0  0  0
 39 48  1  0  0  0  0
 40 42  1  0  0  0  0
 40 48  1  0  0  0  0
 41 49  1  0  0  0  0
 42 49  1  0  0  0  0
 43 50  1  0  0  0  0
 44 71  1  0  0  0  0
 45 50  1  0  0  0  0
 45 71  1  0  0  0  0
 46 74  1  0  0  0  0
 47 70  1  0  0  0  0
 48 65  1  0  0  0  0
 49 66  1  0  0  0  0
 50 69  1  0  0  0  0
 51 60  1  0  0  0  0
 52 64  1  0  0  0  0
 53 65  1  0  0  0  0
 54 66  1  0  0  0  0
 55 66  1  0  0  0  0
 56 67  1  0  0  0  0
 57 67  1  0  0  0  0
 58 67  1  0  0  0  0
 59 77  1  0  0  0  0
 60 65  1  0  0  0  0
 61 62  1  0  0  0  0
 61 65  1  0  0  0  0
 62 76  1  0  0  0  0
 63 67  1  0  0  0  0
 63 75  1  0  0  0  0
 64 77  1  0  0  0  0
 66 84  1  0  0  0  0
 68 69  1  0  0  0  0
M  CHG  1  77   1
M  ISO  4  32 100  66 101  76 100  84 101
M  END
> <Batch ID>
0085

> <Smiles>
CCC(C)(CC[100NH:0][100C:0](=O)N1CCCC(n2nc(-c3ccc(Oc4ccc(F)cc4F)cc3)c(C(N)=O)c2N)C1)C1CCC([101C:1](C)(C)[101O:1]c2ccc3c(c2)CN(C(=O)C(NC(=O)C(C)NC)C(C)(C)C)C(C(=O)NC2CCCc4ccccc42)C3)CC1

> <Shape>
0.321

> <Color>
0.106

> <Negative vol penalty>
0.000

$$$$

  -OEChem-04052318563D

 87 95  0     1  0  0  0  0  0999 V2000
  -21.4351  -22.4761   16.2067 C   0  0  0  0  0  0  0  0  0  0  0  0
  -22.6590  -22.1827   16.7995 C   0  0  0  0  0  0  0  0  0  0  0  0
  -19.4909  -28.5928   21.5374 C   0  0  0  0  0  0  0  0  0  0  0  0
  -20.3786  -27.9553   23.6921 C   0  0  0  0  0  0  0  0  0  0  0  0
  -20.2707  -21.8709   16.6778 C   0  0  0  0  0  0  0  0  0  0  0  0
  -22.7191  -21.2846   17.8645 C   0  0  0  0  0  0  0  0  0  0  0  0
  -26.5250  -17.9759   17.4033 C   0  0  0  0  0  0  0  0  0  0  0  0
  -18.2883  -27.9564   21.8445 C   0  0  0  0  0  0  0  0  0  0  0  0
  -19.1760  -27.3189   23.9993 C   0  0  0  0  0  0  0  0  0  0  0  0
  -27.8044  -18.4286   17.7223 C   0  0  0  0  0  0  0  0  0  0  0  0
  -17.0870  -24.7977   21.9056 C   0  0  0  0  0  0  0  0  0  0  0  0
  -16.5132  -23.9896   20.9242 C   0  0  0  0  0  0  0  0  0  0  0  0
  -27.6345  -17.3682   19.8823 C   0  0  0  0  0  0  0  0  0  0  0  0
  -14.5373  -25.3799   20.9348 C   0  0  0  0  0  0  0  0  0  0  0  0
  -29.9446  -23.9313   21.1067 C   0  0  0  0  0  0  0  0  0  0  0  0
  -20.5361  -28.5923   22.4612 C   0  0  0  0  0  0  0  0  0  0  0  0
  -22.1209  -30.5903   22.4004 C   0  0  0  0  0  0  0  0  0  0  0  0
  -20.3179  -20.9576   17.7428 C   0  0  0  0  0  0  0  0  0  0  0  0
  -25.7851  -17.2238   18.3271 C   0  0  0  0  0  0  0  0  0  0  0  0
  -21.5541  -20.6676   18.3511 C   0  0  0  0  0  0  0  0  0  0  0  0
  -26.3469  -16.9049   19.5716 C   0  0  0  0  0  0  0  0  0  0  0  0
  -28.9154  -23.8844   22.0150 C   0  0  0  0  0  0  0  0  0  0  0  0
  -18.1308  -27.3195   23.0755 C   0  0  0  0  0  0  0  0  0  0  0  0
  -28.3583  -18.1272   18.9631 C   0  0  0  0  0  0  0  0  0  0  0  0
  -16.3860  -25.8968   22.4018 C   0  0  0  0  0  0  0  0  0  0  0  0
  -15.2383  -24.2807   20.4387 C   0  0  0  0  0  0  0  0  0  0  0  0
  -15.1111  -26.1879   21.9163 C   0  0  0  0  0  0  0  0  0  0  0  0
  -21.7788  -29.2490   22.1443 C   0  0  0  0  0  0  0  0  0  0  0  0
  -27.9779  -23.0060   21.4395 C   0  0  0  0  0  0  0  0  0  0  0  0
  -23.3985  -30.7179   21.9127 C   0  0  0  0  0  0  0  0  0  0  0  0
  -21.3525  -31.6281   23.0235 C   0  0  0  0  0  0  0  0  0  0  0  0
  -23.0269  -17.6302   19.8538 C   0  0  0  0  0  0  0  0  0  0  0  0
  -23.5819  -14.5954   20.8560 C   0  0  0  0  0  0  0  0  0  0  0  0
  -25.8443  -12.1153   21.4704 C   0  0  0  0  0  0  0  0  0  0  0  0
  -27.8262  -26.7916   21.0014 C   0  0  0  0  0  0  0  0  0  0  0  0
  -19.0265  -20.3646   18.2482 C   0  0  0  0  0  0  0  0  0  0  0  0
  -24.4169  -16.7203   17.9575 C   0  0  0  0  0  0  0  0  0  0  0  0
  -25.6020  -16.0836   20.5909 C   0  0  0  0  0  0  0  0  0  0  0  0
  -19.2256  -19.1393   19.1367 C   0  0  0  0  0  0  0  0  0  0  0  0
  -26.3305  -28.9314   18.5806 C   0  0  0  0  0  0  0  0  0  0  0  0
  -20.3164  -19.4009   20.1703 C   0  0  0  0  0  0  0  0  0  0  0  0
  -25.0252  -29.3765   19.2425 C   0  0  0  0  0  0  0  0  0  0  0  0
  -26.6709  -27.4824   18.9219 C   0  0  0  0  0  0  0  0  0  0  0  0
  -25.3958  -27.6217   21.0263 C   0  0  0  0  0  0  0  0  0  0  0  0
  -21.6633  -19.6798   19.4924 C   0  0  1  0  0  0  0  0  0  0  0  0
  -23.5506  -16.3983   19.1713 C   0  0  1  0  0  0  0  0  0  0  0  0
  -25.0395  -29.0937   20.7568 C   0  0  2  0  0  0  0  0  0  0  0  0
  -29.9311  -24.1702   24.2977 C   0  0  0  0  0  0  0  0  0  0  0  0
  -26.0026   -9.7597   22.3209 C   0  0  0  0  0  0  0  0  0  0  0  0
  -25.7193  -23.8097   22.2133 C   0  0  0  0  0  0  0  0  0  0  0  0
  -26.8282  -21.8696   23.3718 C   0  0  0  0  0  0  0  0  0  0  0  0
  -25.8445  -21.5871   21.1060 C   0  0  0  0  0  0  0  0  0  0  0  0
  -23.2145  -15.6045   23.7119 C   0  0  0  0  0  0  0  0  0  0  0  0
  -24.2975  -13.4975   24.5217 C   0  0  0  0  0  0  0  0  0  0  0  0
  -22.1572  -13.3867   23.2450 C   0  0  0  0  0  0  0  0  0  0  0  0
  -26.9518  -11.1402   18.9049 C   0  0  0  0  0  0  0  0  0  0  0  0
  -31.5044  -21.8108   19.0419 C   0  0  0  0  0  0  0  0  0  0  0  0
  -31.0195  -20.4787   19.6160 C   0  0  0  0  0  0  0  0  0  0  0  0
  -30.3717  -22.8226   18.8344 C   0  0  0  0  0  0  0  0  0  0  0  0
  -28.8517  -26.1483   23.1679 C   0  0  0  0  0  0  0  0  0  0  0  0
  -30.0317  -19.7935   18.6814 C   0  0  0  0  0  0  0  0  0  1  0  0
  -28.8250  -24.5985   23.2997 C   0  0  1  0  0  0  0  0  0  0  0  0
  -24.2962  -13.9711   22.0303 C   0  0  1  0  0  0  0  0  0  0  0  0
  -25.8543  -10.6449   21.0932 C   0  0  2  0  0  0  0  0  0  0  0  0
  -26.6755  -22.5891   21.9883 C   0  0  0  0  0  0  0  0  0  0  0  0
  -23.5049  -14.1321   23.3590 C   0  0  0  0  0  0  0  0  0  0  0  0
  -22.7599  -28.5729   21.5406 N   0  0  0  0  0  0  0  0  0  0  0  0
  -28.3761  -22.5293   20.2570 N   0  0  0  0  0  0  0  0  0  0  0  0
  -29.5752  -23.1103   20.0821 N   0  0  0  0  0  0  0  0  0  0  0  0
  -23.7310  -29.4931   21.4133 N   0  0  0  0  0  0  0  0  0  0  0  0
  -24.2650  -15.6196   20.1850 N   0  0  0  0  0  0  0  0  0  0  0  0
  -26.6694  -27.2813   20.3729 N   0  0  0  0  0  0  0  0  0  0  0  0
  -24.2588  -31.7573   21.8666 N   0  0  0  0  0  0  0  0  0  0  0  0
  -20.0577  -31.3263   23.4668 N   0  0  0  0  0  0  0  0  0  0  0  0
  -22.2656  -18.4449   19.0376 N   0  0  0  0  0  0  0  0  0  0  0  0
  -24.5618  -12.5860   21.6572 N   0  0  0  0  0  0  0  0  0  0  0  0
  -27.7421  -26.6363   22.3797 N   0  0  0  0  0  0  0  0  0  0  0  0
  -26.9845  -10.3556   20.1660 N   0  3  0  0  0  0  0  0  0  0  0  0
  -21.7948  -32.7931   23.1676 O   0  0  0  0  0  0  0  0  0  0  0  0
  -23.2925  -17.8262   21.0339 O   0  0  0  0  0  0  0  0  0  0  0  0
  -22.4623  -14.1844   20.5411 O   0  0  0  0  0  0  0  0  0  0  0  0
  -26.8717  -12.7790   21.5911 O   0  0  0  0  0  0  0  0  0  0  0  0
  -28.8593  -26.5184   20.3810 O   0  0  0  0  0  0  0  0  0  0  0  0
  -16.9574  -26.6986   23.3756 O   0  0  0  0  0  0  0  0  0  0  0  0
  -29.6067  -18.5685   19.2773 O   0  0  0  0  0  0  0  0  0  1  0  0
  -14.6880  -23.5055   19.4951 F   0  0  0  0  0  0  0  0  0  0  0  0
  -14.4333  -27.2432   22.3882 F   0  0  0  0  0  0  0  0  0  0  0  0
  1  2  1  0  0  0  0
  1  5  2  0  0  0  0
  2  6  2  0  0  0  0
  3  8  2  0  0  0  0
  3 16  1  0  0  0  0
  4  9  1  0  0  0  0
  4 16  2  0  0  0  0
  5 18  1  0  0  0  0
  6 20  1  0  0  0  0
  7 10  2  0  0  0  0
  7 19  1  0  0  0  0
  8 23  1  0  0  0  0
  9 23  2  0  0  0  0
 10 24  1  0  0  0  0
 11 12  2  0  0  0  0
 11 25  1  0  0  0  0
 12 26  1  0  0  0  0
 13 21  1  0  0  0  0
 13 24  2  0  0  0  0
 14 26  2  0  0  0  0
 14 27  1  0  0  0  0
 15 22  2  0  0  0  0
 15 69  1  0  0  0  0
 16 28  1  0  0  0  0
 17 28  1  0  0  0  0
 17 30  2  0  0  0  0
 17 31  1  0  0  0  0
 18 20  2  0  0  0  0
 18 36  1  0  0  0  0
 19 21  2  0  0  0  0
 19 37  1  0  0  0  0
 20 45  1  0  0  0  0
 21 38  1  0  0  0  0
 22 29  1  0  0  0  0
 22 62  1  0  0  0  0
 23 84  1  0  0  0  0
 24 85  1  0  0  0  0
 25 27  2  0  0  0  0
 25 84  1  0  0  0  0
 26 86  1  0  0  0  0
 27 87  1  0  0  0  0
 28 67  2  0  0  0  0
 29 65  1  0  0  0  0
 29 68  2  0  0  0  0
 30 70  1  0  0  0  0
 30 73  1  0  0  0  0
 31 74  1  0  0  0  0
 31 79  2  0  0  0  0
 32 46  1  0  0  0  0
 32 75  1  0  0  0  0
 32 80  2  0  0  0  0
 33 63  1  0  0  0  0
 33 71  1  0  0  0  0
 33 81  2  0  0  0  0
 34 64  1  0  0  0  0
 34 76  1  0  0  0  0
 34 82  2  0  0  0  0
 35 72  1  0  0  0  0
 35 77  1  0  0  0  0
 35 83  2  0  0  0  0
 36 39  1  0  0  0  0
 37 46  1  0  0  0  0
 38 71  1  0  0  0  0
 39 41  1  0  0  0  0
 40 42  1  0  0  0  0
 40 43  1  0  0  0  0
 41 45  1  0  0  0  0
 42 47  1  0  0  0  0
 43 72  1  0  0  0  0
 44 47  1  0  0  0  0
 44 72  1  0  0  0  0
 45 75  1  0  0  0  0
 46 71  1  0  0  0  0
 47 70  1  0  0  0  0
 48 62  1  0  0  0  0
 49 64  1  0  0  0  0
 50 65  1  0  0  0  0
 51 65  1  0  0  0  0
 52 65  1  0  0  0  0
 53 66  1  0  0  0  0
 54 66  1  0  0  0  0
 55 66  1  0  0  0  0
 56 78  1  0  0  0  0
 57 58  1  0  0  0  0
 57 59  1  0  0  0  0
 58 61  1  0  0  0  0
 59 69  1  0  0  0  0
 60 62  1  0  0  0  0
 60 77  1  0  0  0  0
 61 85  1  0  0  0  0
 63 66  1  0  0  0  0
 63 76  1  0  0  0  0
 64 78  1  0  0  0  0
 67 70  1  0  0  0  0
 68 69  1  0  0  0  0
M  CHG  1  78   1
M  ISO  4  35 100  61 101  77 100  85 101
M  END
> <Batch ID>
0085

> <Smiles>
CNC(C)C(=O)NC(C(=O)N1Cc2cc([101O:1][101CH2:1]CCCn3cc(C(C)C[100NH:0][100C:0](=O)N4CCCC(n5nc(-c6ccc(Oc7ccc(F)cc7F)cc6)c(C(N)=O)c5N)C4)c(C(C)(C)C)n3)ccc2CC1C(=O)NC1CCCc2ccccc21)C(C)(C)C

> <Shape>
0.206

> <Color>
0.069

> <Negative vol penalty>
0.000

$$$$

  -OEChem-04052318563D

 89 97  0     1  0  0  0  0  0999 V2000
  -24.1352   -8.2499   21.8513 C   0  0  0  0  0  0  0  0  0  0  0  0
  -24.7565   -9.3180   21.2122 C   0  0  0  0  0  0  0  0  0  0  0  0
  -21.2729  -29.0694   20.2943 C   0  0  0  0  0  0  0  0  0  0  0  0
  -21.6131  -27.6119   22.1908 C   0  0  0  0  0  0  0  0  0  0  0  0
  -22.7843   -8.3300   22.1869 C   0  0  0  0  0  0  0  0  0  0  0  0
  -24.0269  -10.4665   20.9072 C   0  0  0  0  0  0  0  0  0  0  0  0
  -26.5245  -14.7181   22.0609 C   0  0  0  0  0  0  0  0  0  0  0  0
  -19.9446  -28.6518   20.2116 C   0  0  0  0  0  0  0  0  0  0  0  0
  -20.2848  -27.1943   22.1082 C   0  0  0  0  0  0  0  0  0  0  0  0
  -27.5243  -15.1281   21.1801 C   0  0  0  0  0  0  0  0  0  0  0  0
  -18.4563  -25.0613   20.2273 C   0  0  0  0  0  0  0  0  0  0  0  0
  -18.1988  -23.6946   20.3341 C   0  0  0  0  0  0  0  0  0  0  0  0
  -26.0022  -16.7257   20.2053 C   0  0  0  0  0  0  0  0  0  0  0  0
  -16.8254  -24.1054   22.2789 C   0  0  0  0  0  0  0  0  0  0  0  0
  -30.1436  -21.7496   21.6692 C   0  0  0  0  0  0  0  0  0  0  0  0
  -22.1072  -28.5494   21.2838 C   0  0  0  0  0  0  0  0  0  0  0  0
  -23.9858  -30.0637   22.1117 C   0  0  0  0  0  0  0  0  0  0  0  0
  -22.0402   -9.4838   21.8946 C   0  0  0  0  0  0  0  0  0  0  0  0
  -25.2505  -15.3022   22.0132 C   0  0  0  0  0  0  0  0  0  0  0  0
  -22.6644  -10.5616   21.2380 C   0  0  0  0  0  0  0  0  0  0  0  0
  -24.9886  -16.3231   21.0884 C   0  0  0  0  0  0  0  0  0  0  0  0
  -19.4505  -27.7143   21.1186 C   0  0  0  0  0  0  0  0  0  0  0  0
  -27.2624  -16.1300   20.2502 C   0  0  0  0  0  0  0  0  0  0  0  0
  -17.8984  -25.9501   21.1463 C   0  0  0  0  0  0  0  0  0  0  0  0
  -17.3833  -23.2167   21.3599 C   0  0  0  0  0  0  0  0  0  0  0  0
  -17.0829  -25.4721   22.1720 C   0  0  0  0  0  0  0  0  0  0  0  0
  -23.4795  -28.9800   21.3694 C   0  0  0  0  0  0  0  0  0  0  0  0
  -29.3241  -22.8374   21.7787 C   0  0  0  0  0  0  0  0  0  0  0  0
  -25.3361  -30.0509   21.8607 C   0  0  0  0  0  0  0  0  0  0  0  0
  -28.0817  -21.1026   21.1895 C   0  0  0  0  0  0  0  0  0  0  0  0
  -23.2970  -30.9983   22.9530 C   0  0  0  0  0  0  0  0  0  0  0  0
  -22.3141  -14.2350   21.4279 C   0  0  0  0  0  0  0  0  0  0  0  0
  -21.4705  -17.2531   22.2659 C   0  0  0  0  0  0  0  0  0  0  0  0
  -22.3664  -20.5316   22.5749 C   0  0  0  0  0  0  0  0  0  0  0  0
  -29.1362  -25.7272   20.2128 C   0  0  0  0  0  0  0  0  0  0  0  0
  -20.5709   -9.5055   22.2343 C   0  0  0  0  0  0  0  0  0  0  0  0
  -24.1908  -14.8673   22.9881 C   0  0  0  0  0  0  0  0  0  0  0  0
  -23.6436  -16.9962   21.0100 C   0  0  0  0  0  0  0  0  0  0  0  0
  -19.9613  -10.9048   22.2126 C   0  0  0  0  0  0  0  0  0  0  0  0
  -28.5099  -28.7905   18.5097 C   0  0  0  0  0  0  0  0  0  0  0  0
  -20.3904  -11.6547   20.9554 C   0  0  0  0  0  0  0  0  0  0  0  0
  -27.1953  -29.2842   19.1165 C   0  0  0  0  0  0  0  0  0  0  0  0
  -28.5316  -27.2699   18.3713 C   0  0  0  0  0  0  0  0  0  0  0  0
  -26.9195  -27.0244   20.2192 C   0  0  0  0  0  0  0  0  0  0  0  0
  -21.9127  -11.8341   20.9128 C   0  0  1  0  0  0  0  0  0  0  0  0
  -22.7754  -15.1726   22.5077 C   0  0  1  0  0  0  0  0  0  0  0  0
  -26.8726  -28.5474   20.4303 C   0  0  2  0  0  0  0  0  0  0  0  0
  -29.5157  -24.5151   23.6522 C   0  0  0  0  0  0  0  0  0  0  0  0
  -21.4512  -22.7685   23.2502 C   0  0  0  0  0  0  0  0  0  0  0  0
  -25.6227  -22.0801   17.5799 C   0  0  0  0  0  0  0  0  0  0  0  0
  -24.8861  -22.4266   19.9459 C   0  0  0  0  0  0  0  0  0  0  0  0
  -19.9632  -17.4327   19.6191 C   0  0  0  0  0  0  0  0  0  0  0  0
  -19.8898  -19.9183   19.9096 C   0  0  0  0  0  0  0  0  0  0  0  0
  -18.7657  -18.4365   21.5718 C   0  0  0  0  0  0  0  0  0  0  0  0
  -30.4343  -17.4044   17.6829 C   0  0  0  0  0  0  0  0  0  0  0  0
  -31.9110  -17.3578   19.6967 C   0  0  0  0  0  0  0  0  0  0  0  0
  -24.3388  -20.8074   24.7641 C   0  0  0  0  0  0  0  0  0  0  0  0
  -26.9058  -20.2782   20.8146 C   0  0  0  0  0  0  0  0  0  0  0  0
  -26.4681  -20.5145   19.3541 C   0  0  0  0  0  0  0  0  0  0  0  0
  -29.9407  -18.9677   19.5713 C   0  0  0  0  0  0  0  0  0  0  0  0
  -29.8342  -19.2803   21.0698 C   0  0  0  0  0  0  0  0  0  0  0  0
  -29.5857  -16.4345   19.8431 C   0  0  0  0  0  0  0  0  0  1  0  0
  -29.6065  -24.2301   22.1355 C   0  0  2  0  0  0  0  0  0  0  0  0
  -21.2907  -18.5571   21.5268 C   0  0  1  0  0  0  0  0  0  0  0  0
  -22.1889  -21.5214   23.7121 C   0  0  2  0  0  0  0  0  0  0  0  0
  -26.0342  -21.9605   19.0495 C   0  0  0  0  0  0  0  0  0  0  0  0
  -20.0022  -18.5723   20.6568 C   0  0  0  0  0  0  0  0  0  0  0  0
  -30.4594  -17.5446   19.2205 C   0  0  0  0  0  0  0  0  0  0  0  0
  -24.4307  -28.3264   20.6970 N   0  0  0  0  0  0  0  0  0  0  0  0
  -29.3483  -20.6902   21.3040 N   0  0  0  0  0  0  0  0  0  0  0  0
  -25.5482  -29.0014   21.0159 N   0  0  0  0  0  0  0  0  0  0  0  0
  -28.0544  -22.4081   21.4761 N   0  3  0  0  0  0  0  0  0  0  0  0
  -22.6384  -16.5317   21.9802 N   0  0  0  0  0  0  0  0  0  0  0  0
  -28.2193  -26.6318   19.6524 N   0  0  0  0  0  0  0  0  0  0  0  0
  -26.3507  -30.8352   22.2823 N   0  0  0  0  0  0  0  0  0  0  0  0
  -21.9094  -30.8678   23.1007 N   0  0  0  0  0  0  0  0  0  0  0  0
  -22.3206  -12.9038   21.7982 N   0  0  0  0  0  0  0  0  0  0  0  0
  -21.3424  -19.6090   22.5364 N   0  0  0  0  0  0  0  0  0  0  0  0
  -28.7655  -25.1725   21.4316 N   0  0  0  0  0  0  0  0  0  0  0  0
  -23.5154  -21.9330   24.2524 N   0  3  0  0  0  0  0  0  0  0  0  0
  -23.8921  -31.9319   23.5429 O   0  0  0  0  0  0  0  0  0  0  0  0
  -21.9758  -14.6862   20.3399 O   0  0  0  0  0  0  0  0  0  0  0  0
  -20.6101  -16.8914   23.0724 O   0  0  0  0  0  0  0  0  0  0  0  0
  -23.3163  -20.5750   21.7963 O   0  0  0  0  0  0  0  0  0  0  0  0
  -30.2083  -25.4396   19.6699 O   0  0  0  0  0  0  0  0  0  0  0  0
  -18.1544  -27.3067   21.0383 O   0  0  0  0  0  0  0  0  0  0  0  0
  -28.2364  -16.5317   19.3888 O   0  0  0  0  0  0  0  0  0  1  0  0
  -17.1349  -21.9044   21.4615 F   0  0  0  0  0  0  0  0  0  0  0  0
  -16.5431  -26.3213   23.0571 F   0  0  0  0  0  0  0  0  0  0  0  0
  1  2  1  0  0  0  0
  1  5  2  0  0  0  0
  2  6  2  0  0  0  0
  3  8  2  0  0  0  0
  3 16  1  0  0  0  0
  4  9  1  0  0  0  0
  4 16  2  0  0  0  0
  5 18  1  0  0  0  0
  6 20  1  0  0  0  0
  7 10  2  0  0  0  0
  7 19  1  0  0  0  0
  8 22  1  0  0  0  0
  9 22  2  0  0  0  0
 10 23  1  0  0  0  0
 11 12  2  0  0  0  0
 11 24  1  0  0  0  0
 12 25  1  0  0  0  0
 13 21  1  0  0  0  0
 13 23  2  0  0  0  0
 14 25  2  0  0  0  0
 14 26  1  0  0  0  0
 15 28  2  0  0  0  0
 15 70  1  0  0  0  0
 16 27  1  0  0  0  0
 17 27  1  0  0  0  0
 17 29  2  0  0  0  0
 17 31  1  0  0  0  0
 18 20  2  0  0  0  0
 18 36  1  0  0  0  0
 19 21  2  0  0  0  0
 19 37  1  0  0  0  0
 20 45  1  0  0  0  0
 21 38  1  0  0  0  0
 22 86  1  0  0  0  0
 23 87  1  0  0  0  0
 24 26  2  0  0  0  0
 24 86  1  0  0  0  0
 25 88  1  0  0  0  0
 26 89  1  0  0  0  0
 27 69  2  0  0  0  0
 28 63  1  0  0  0  0
 28 72  1  0  0  0  0
 29 71  1  0  0  0  0
 29 75  1  0  0  0  0
 30 58  1  0  0  0  0
 30 70  1  0  0  0  0
 30 72  2  0  0  0  0
 31 76  1  0  0  0  0
 31 81  2  0  0  0  0
 32 46  1  0  0  0  0
 32 77  1  0  0  0  0
 32 82  2  0  0  0  0
 33 64  1  0  0  0  0
 33 73  1  0  0  0  0
 33 83  2  0  0  0  0
 34 65  1  0  0  0  0
 34 78  1  0  0  0  0
 34 84  2  0  0  0  0
 35 74  1  0  0  0  0
 35 79  1  0  0  0  0
 35 85  2  0  0  0  0
 36 39  1  0  0  0  0
 37 46  1  0  0  0  0
 38 73  1  0  0  0  0
 39 41  1  0  0  0  0
 40 42  1  0  0  0  0
 40 43  1  0  0  0  0
 41 45  1  0  0  0  0
 42 47  1  0  0  0  0
 43 74  1  0  0  0  0
 44 47  1  0  0  0  0
 44 74  1  0  0  0  0
 45 77  1  0  0  0  0
 46 73  1  0  0  0  0
 47 71  1  0  0  0  0
 48 63  1  0  0  0  0
 49 65  1  0  0  0  0
 50 66  1  0  0  0  0
 51 66  1  0  0  0  0
 52 67  1  0  0  0  0
 53 67  1  0  0  0  0
 54 67  1  0  0  0  0
 55 68  1  0  0  0  0
 56 68  1  0  0  0  0
 57 80  1  0  0  0  0
 58 59  1  0  0  0  0
 59 66  1  0  0  0  0
 60 61  1  0  0  0  0
 60 68  1  0  0  0  0
 61 70  1  0  0  0  0
 62 68  1  0  0  0  0
 62 87  1  0  0  0  0
 63 79  1  0  0  0  0
 64 67  1  0  0  0  0
 64 78  1  0  0  0  0
 65 80  1  0  0  0  0
 69 71  1  0  0  0  0
M  CHG  2  72   1  80   1
M  ISO  4  35 100  62 101  79 100  87 101
M  END
> <Batch ID>
0085

> <Smiles>
CNC(C)C(=O)NC(C(=O)N1Cc2cc([101O:1][101CH2:1]C(C)(C)CCn3cc(C(C)[100NH:0][100C:0](=O)N4CCCC(n5nc(-c6ccc(Oc7ccc(F)cc7F)cc6)c(C(N)=O)c5N)C4)nc3CCC(C)C)ccc2CC1C(=O)NC1CCCc2ccccc21)C(C)(C)C

> <Shape>
0.231

> <Color>
0.083

> <Negative vol penalty>
0.000

$$$$

  -OEChem-04052318563D

 83 91  0     1  0  0  0  0  0999 V2000
  -24.4713  -23.8978   20.4656 C   0  0  0  0  0  0  0  0  0  0  0  0
  -25.2240  -22.8140   20.0278 C   0  0  0  0  0  0  0  0  0  0  0  0
  -26.9121  -29.6408   18.8487 C   0  0  0  0  0  0  0  0  0  0  0  0
  -25.8263  -28.8767   20.8672 C   0  0  0  0  0  0  0  0  0  0  0  0
  -23.5067  -23.7175   21.4547 C   0  0  0  0  0  0  0  0  0  0  0  0
  -25.0043  -21.5474   20.5703 C   0  0  0  0  0  0  0  0  0  0  0  0
  -27.4069  -17.7837   18.5050 C   0  0  0  0  0  0  0  0  0  0  0  0
  -25.7816  -30.3908   18.5245 C   0  0  0  0  0  0  0  0  0  0  0  0
  -24.6959  -29.6267   20.5430 C   0  0  0  0  0  0  0  0  0  0  0  0
  -28.7788  -17.5895   18.6595 C   0  0  0  0  0  0  0  0  0  0  0  0
  -22.0354  -29.3559   18.4743 C   0  0  0  0  0  0  0  0  0  0  0  0
  -20.7896  -28.7450   18.6168 C   0  0  0  0  0  0  0  0  0  0  0  0
  -28.3442  -15.8296   20.2512 C   0  0  0  0  0  0  0  0  0  0  0  0
  -20.1394  -30.4422   20.2085 C   0  0  0  0  0  0  0  0  0  0  0  0
  -30.3833  -18.6430   22.7816 C   0  0  0  0  0  0  0  0  0  0  0  0
  -26.9344  -28.8836   20.0200 C   0  0  0  0  0  0  0  0  0  0  0  0
  -29.2124  -28.5276   21.1116 C   0  0  0  0  0  0  0  0  0  0  0  0
  -23.2843  -22.4501   22.0179 C   0  0  0  0  0  0  0  0  0  0  0  0
  -26.4919  -17.0084   19.2317 C   0  0  0  0  0  0  0  0  0  0  0  0
  -24.0188  -21.3405   21.5525 C   0  0  0  0  0  0  0  0  0  0  0  0
  -26.9611  -16.0143   20.1021 C   0  0  0  0  0  0  0  0  0  0  0  0
  -31.7082  -18.4767   22.4602 C   0  0  0  0  0  0  0  0  0  0  0  0
  -24.6735  -30.3838   19.3716 C   0  0  0  0  0  0  0  0  0  0  0  0
  -29.2477  -16.6143   19.5349 C   0  0  0  0  0  0  0  0  0  0  0  0
  -22.3333  -30.5099   19.1989 C   0  0  0  0  0  0  0  0  0  0  0  0
  -19.8416  -29.2881   19.4839 C   0  0  0  0  0  0  0  0  0  0  0  0
  -21.3853  -31.0531   20.0660 C   0  0  0  0  0  0  0  0  0  0  0  0
  -28.1017  -28.1082   20.3551 C   0  0  0  0  0  0  0  0  0  0  0  0
  -32.3121  -19.6982   22.8141 C   0  0  0  0  0  0  0  0  0  0  0  0
  -30.0400  -27.4318   21.1429 C   0  0  0  0  0  0  0  0  0  0  0  0
  -29.4729  -29.7943   21.7306 C   0  0  0  0  0  0  0  0  0  0  0  0
  -24.2520  -17.6277   21.4004 C   0  0  0  0  0  0  0  0  0  0  0  0
  -23.5934  -14.4705   21.0525 C   0  0  0  0  0  0  0  0  0  0  0  0
  -24.6883  -11.3636   20.1608 C   0  0  0  0  0  0  0  0  0  0  0  0
  -29.0438  -21.5530   20.5962 C   0  0  0  0  0  0  0  0  0  0  0  0
  -22.2223  -22.3102   23.0799 C   0  0  0  0  0  0  0  0  0  0  0  0
  -25.0149  -17.2122   19.0336 C   0  0  0  0  0  0  0  0  0  0  0  0
  -26.0200  -15.1417   20.8903 C   0  0  0  0  0  0  0  0  0  0  0  0
  -22.3687  -21.0343   23.9026 C   0  0  0  0  0  0  0  0  0  0  0  0
  -31.2128  -23.5515   18.6016 C   0  0  0  0  0  0  0  0  0  0  0  0
  -22.5339  -19.8365   22.9793 C   0  0  0  0  0  0  0  0  0  0  0  0
  -30.7617  -24.9837   18.8931 C   0  0  0  0  0  0  0  0  0  0  0  0
  -30.0325  -22.5830   18.5718 C   0  0  0  0  0  0  0  0  0  0  0  0
  -28.7251  -24.0453   20.0638 C   0  0  0  0  0  0  0  0  0  0  0  0
  -23.8184  -19.9594   22.1498 C   0  0  1  0  0  0  0  0  0  0  0  0
  -24.1800  -16.7143   20.2094 C   0  0  1  0  0  0  0  0  0  0  0  0
  -29.8867  -25.0493   20.1593 C   0  0  2  0  0  0  0  0  0  0  0  0
  -33.7305  -20.0754   22.6841 C   0  0  0  0  0  0  0  0  0  0  0  0
  -23.9339   -8.9744   20.0200 C   0  0  0  0  0  0  0  0  0  0  0  0
  -28.5053  -19.7914   24.9783 C   0  0  0  0  0  0  0  0  0  0  0  0
  -23.8694  -14.2074   24.0798 C   0  0  0  0  0  0  0  0  0  0  0  0
  -24.0556  -11.7291   23.7774 C   0  0  0  0  0  0  0  0  0  0  0  0
  -21.9716  -12.9147   23.0891 C   0  0  0  0  0  0  0  0  0  0  0  0
  -25.1204  -11.2783   17.2343 C   0  0  0  0  0  0  0  0  0  0  0  0
  -32.3576  -17.2543   21.8623 C   0  0  0  0  0  0  0  0  0  0  0  0
  -32.6726  -17.3912   20.3711 C   0  0  0  0  0  0  0  0  0  0  0  0
  -28.0038  -20.6703   22.6694 C   0  0  0  0  0  0  0  0  0  0  0  0
  -31.4299  -17.5592   19.5045 C   0  0  0  0  0  0  0  0  0  1  0  0
  -24.0723  -13.1996   21.7114 C   0  0  1  0  0  0  0  0  0  0  0  0
  -24.0728  -10.2939   19.2769 C   0  0  2  0  0  0  0  0  0  0  0  0
  -29.0723  -20.5381   23.7662 C   0  0  2  0  0  0  0  0  0  0  0  0
  -23.5103  -13.0303   23.1512 C   0  0  0  0  0  0  0  0  0  0  0  0
  -28.2106  -26.8447   19.9360 N   0  0  0  0  0  0  0  0  0  0  0  0
  -31.4422  -20.5756   23.3212 N   0  0  0  0  0  0  0  0  0  0  0  0
  -30.2781  -19.9049   23.2883 N   0  0  0  0  0  0  0  0  0  0  0  0
  -29.3997  -26.4607   20.4308 N   0  0  0  0  0  0  0  0  0  0  0  0
  -24.5851  -15.3836   20.6669 N   0  0  0  0  0  0  0  0  0  0  0  0
  -29.2444  -22.6939   19.8016 N   0  0  0  0  0  0  0  0  0  0  0  0
  -31.2456  -27.2139   21.7098 N   0  0  0  0  0  0  0  0  0  0  0  0
  -28.5168  -30.8108   21.6003 N   0  0  0  0  0  0  0  0  0  0  0  0
  -23.8327  -18.9193   21.1449 N   0  0  0  0  0  0  0  0  0  0  0  0
  -23.7247  -12.1125   20.8026 N   0  0  0  0  0  0  0  0  0  0  0  0
  -28.2908  -21.7468   21.7477 N   0  0  0  0  0  0  0  0  0  0  0  0
  -24.9195  -10.0677   18.0716 N   0  3  0  0  0  0  0  0  0  0  0  0
  -30.5297  -30.0234   22.3663 O   0  0  0  0  0  0  0  0  0  0  0  0
  -24.6564  -17.1923   22.4721 O   0  0  0  0  0  0  0  0  0  0  0  0
  -22.3843  -14.6436   20.8796 O   0  0  0  0  0  0  0  0  0  0  0  0
  -25.9025  -11.5169   20.2738 O   0  0  0  0  0  0  0  0  0  0  0  0
  -29.5063  -20.4451   20.3039 O   0  0  0  0  0  0  0  0  0  0  0  0
  -23.5703  -31.1157   19.0557 O   0  0  0  0  0  0  0  0  0  0  0  0
  -30.5863  -16.4230   19.6881 O   0  0  0  0  0  0  0  0  0  1  0  0
  -18.6447  -28.7022   19.6195 F   0  0  0  0  0  0  0  0  0  0  0  0
  -21.6652  -32.1623   20.7640 F   0  0  0  0  0  0  0  0  0  0  0  0
  1  2  1  0  0  0  0
  1  5  2  0  0  0  0
  2  6  2  0  0  0  0
  3  8  2  0  0  0  0
  3 16  1  0  0  0  0
  4  9  1  0  0  0  0
  4 16  2  0  0  0  0
  5 18  1  0  0  0  0
  6 20  1  0  0  0  0
  7 10  2  0  0  0  0
  7 19  1  0  0  0  0
  8 23  1  0  0  0  0
  9 23  2  0  0  0  0
 10 24  1  0  0  0  0
 11 12  2  0  0  0  0
 11 25  1  0  0  0  0
 12 26  1  0  0  0  0
 13 21  1  0  0  0  0
 13 24  2  0  0  0  0
 14 26  2  0  0  0  0
 14 27  1  0  0  0  0
 15 22  2  0  0  0  0
 15 65  1  0  0  0  0
 16 28  1  0  0  0  0
 17 28  1  0  0  0  0
 17 30  2  0  0  0  0
 17 31  1  0  0  0  0
 18 20  2  0  0  0  0
 18 36  1  0  0  0  0
 19 21  2  0  0  0  0
 19 37  1  0  0  0  0
 20 45  1  0  0  0  0
 21 38  1  0  0  0  0
 22 29  1  0  0  0  0
 22 55  1  0  0  0  0
 23 80  1  0  0  0  0
 24 81  1  0  0  0  0
 25 27  2  0  0  0  0
 25 80  1  0  0  0  0
 26 82  1  0  0  0  0
 27 83  1  0  0  0  0
 28 63  2  0  0  0  0
 29 48  1  0  0  0  0
 29 64  2  0  0  0  0
 30 66  1  0  0  0  0
 30 69  1  0  0  0  0
 31 70  1  0  0  0  0
 31 75  2  0  0  0  0
 32 46  1  0  0  0  0
 32 71  1  0  0  0  0
 32 76  2  0  0  0  0
 33 59  1  0  0  0  0
 33 67  1  0  0  0  0
 33 77  2  0  0  0  0
 34 60  1  0  0  0  0
 34 72  1  0  0  0  0
 34 78  2  0  0  0  0
 35 68  1  0  0  0  0
 35 73  1  0  0  0  0
 35 79  2  0  0  0  0
 36 39  1  0  0  0  0
 37 46  1  0  0  0  0
 38 67  1  0  0  0  0
 39 41  1  0  0  0  0
 40 42  1  0  0  0  0
 40 43  1  0  0  0  0
 41 45  1  0  0  0  0
 42 47  1  0  0  0  0
 43 68  1  0  0  0  0
 44 47  1  0  0  0  0
 44 68  1  0  0  0  0
 45 71  1  0  0  0  0
 46 67  1  0  0  0  0
 47 66  1  0  0  0  0
 49 60  1  0  0  0  0
 50 61  1  0  0  0  0
 51 62  1  0  0  0  0
 52 62  1  0  0  0  0
 53 62  1  0  0  0  0
 54 74  1  0  0  0  0
 55 56  1  0  0  0  0
 56 58  1  0  0  0  0
 57 61  1  0  0  0  0
 57 73  1  0  0  0  0
 58 81  1  0  0  0  0
 59 62  1  0  0  0  0
 59 72  1  0  0  0  0
 60 74  1  0  0  0  0
 61 65  1  0  0  0  0
 63 66  1  0  0  0  0
 64 65  1  0  0  0  0
M  CHG  1  74   1
M  ISO  4  35 100  58 101  73 100  81 101
M  END
> <Batch ID>
0085

> <Smiles>
CNC(C)C(=O)NC(C(=O)N1Cc2cc([101O:1][101CH2:1]CCc3cn(C(C)C[100NH:0][100C:0](=O)N4CCCC(n5nc(-c6ccc(Oc7ccc(F)cc7F)cc6)c(C(N)=O)c5N)C4)nc3C)ccc2CC1C(=O)NC1CCCc2ccccc21)C(C)(C)C

> <Shape>
0.195

> <Color>
0.078

> <Negative vol penalty>
0.000

$$$$

  -OEChem-04052318563D

 83 91  0     1  0  0  0  0  0999 V2000
  -26.5061  -33.8002   25.8181 C   0  0  0  0  0  0  0  0  0  0  0  0
  -26.9789  -32.6756   25.1494 C   0  0  0  0  0  0  0  0  0  0  0  0
  -25.2322  -14.1739   20.9545 C   0  0  0  0  0  0  0  0  0  0  0  0
  -25.5583  -14.1736   18.5606 C   0  0  0  0  0  0  0  0  0  0  0  0
  -25.1858  -33.8406   26.2644 C   0  0  0  0  0  0  0  0  0  0  0  0
  -26.1319  -31.5903   24.9275 C   0  0  0  0  0  0  0  0  0  0  0  0
  -26.4863  -29.7817   20.2107 C   0  0  0  0  0  0  0  0  0  0  0  0
  -24.3483  -13.1016   20.8343 C   0  0  0  0  0  0  0  0  0  0  0  0
  -24.6744  -13.1012   18.4404 C   0  0  0  0  0  0  0  0  0  0  0  0
  -27.5850  -28.9746   19.9192 C   0  0  0  0  0  0  0  0  0  0  0  0
  -24.5382   -9.7527   20.4085 C   0  0  0  0  0  0  0  0  0  0  0  0
  -24.6762   -8.6950   21.3073 C   0  0  0  0  0  0  0  0  0  0  0  0
  -26.2037  -27.0132   20.1719 C   0  0  0  0  0  0  0  0  0  0  0  0
  -22.4233   -9.0706   22.0951 C   0  0  0  0  0  0  0  0  0  0  0  0
  -29.4295  -22.5247   17.8311 C   0  0  0  0  0  0  0  0  0  0  0  0
  -25.8372  -14.7100   19.8176 C   0  0  0  0  0  0  0  0  0  0  0  0
  -28.1434  -15.7545   20.1307 C   0  0  0  0  0  0  0  0  0  0  0  0
  -24.3195  -32.7592   26.0394 C   0  0  0  0  0  0  0  0  0  0  0  0
  -25.2384  -29.2093   20.4962 C   0  0  0  0  0  0  0  0  0  0  0  0
  -24.7992  -31.6158   25.3724 C   0  0  0  0  0  0  0  0  0  0  0  0
  -25.0900  -27.8153   20.4642 C   0  0  0  0  0  0  0  0  0  0  0  0
  -24.0694  -12.5652   19.5772 C   0  0  0  0  0  0  0  0  0  0  0  0
  -27.4445  -27.5900   19.9025 C   0  0  0  0  0  0  0  0  0  0  0  0
  -23.3428  -10.4694   20.3530 C   0  0  0  0  0  0  0  0  0  0  0  0
  -23.6187   -8.3540   22.1506 C   0  0  0  0  0  0  0  0  0  0  0  0
  -22.2854  -10.1284   21.1963 C   0  0  0  0  0  0  0  0  0  0  0  0
  -26.7499  -15.8180   19.9411 C   0  0  0  0  0  0  0  0  0  0  0  0
  -28.8435  -21.8725   16.7832 C   0  0  0  0  0  0  0  0  0  0  0  0
  -28.5428  -17.0675   20.1841 C   0  0  0  0  0  0  0  0  0  0  0  0
  -30.6215  -22.9433   16.0133 C   0  0  0  0  0  0  0  0  0  0  0  0
  -29.0001  -14.6108   20.2481 C   0  0  0  0  0  0  0  0  0  0  0  0
  -23.2983  -29.1995   23.0141 C   0  0  0  0  0  0  0  0  0  0  0  0
  -21.3043  -27.6456   20.9814 C   0  0  0  0  0  0  0  0  0  0  0  0
  -20.9397  -25.7208   18.1870 C   0  0  0  0  0  0  0  0  0  0  0  0
  -25.6845  -22.0101   17.9618 C   0  0  0  0  0  0  0  0  0  0  0  0
  -22.9141  -32.8298   26.5821 C   0  0  0  0  0  0  0  0  0  0  0  0
  -24.0567  -30.0947   20.7826 C   0  0  0  0  0  0  0  0  0  0  0  0
  -23.7670  -27.1520   20.7438 C   0  0  0  0  0  0  0  0  0  0  0  0
  -21.9745  -31.7900   25.9770 C   0  0  0  0  0  0  0  0  0  0  0  0
  -26.9818  -21.4231   21.3785 C   0  0  0  0  0  0  0  0  0  0  0  0
  -22.6390  -30.4171   25.9577 C   0  0  0  0  0  0  0  0  0  0  0  0
  -27.1165  -19.9021   21.4269 C   0  0  0  0  0  0  0  0  0  0  0  0
  -25.8821  -21.8649   20.4177 C   0  0  0  0  0  0  0  0  0  0  0  0
  -26.1650  -19.7986   19.0893 C   0  0  0  0  0  0  0  0  0  0  0  0
  -23.9040  -30.4286   25.0909 C   0  0  1  0  0  0  0  0  0  0  0  0
  -22.9542  -29.3859   21.5633 C   0  0  1  0  0  0  0  0  0  0  0  0
  -27.2958  -19.3220   20.0132 C   0  0  2  0  0  0  0  0  0  0  0  0
  -31.6601  -23.4590   15.0870 C   0  0  0  0  0  0  0  0  0  0  0  0
  -19.1912  -24.5767   16.7974 C   0  0  0  0  0  0  0  0  0  0  0  0
  -21.0688  -25.4515   23.0886 C   0  0  0  0  0  0  0  0  0  0  0  0
  -20.1254  -23.9510   21.3204 C   0  0  0  0  0  0  0  0  0  0  0  0
  -18.9204  -26.0417   21.9526 C   0  0  0  0  0  0  0  0  0  0  0  0
  -26.0640  -22.5289   15.5814 C   0  0  0  0  0  0  0  0  0  0  0  0
  -21.6255  -27.3237   15.7954 C   0  0  0  0  0  0  0  0  0  0  0  0
  -27.6528  -21.0214   16.7166 C   0  0  0  0  0  0  0  0  0  0  0  0
  -30.7938  -25.1727   18.8897 C   0  0  0  0  0  0  0  0  0  0  0  0
  -30.1461  -26.2021   17.9624 C   0  0  0  0  0  0  0  0  0  0  0  0
  -31.4771  -24.0286   18.1321 C   0  0  0  0  0  0  0  0  0  0  0  0
  -29.5089  -27.3401   18.7484 C   0  0  0  0  0  0  0  0  0  1  0  0
  -21.0618  -26.2006   20.6179 C   0  0  1  0  0  0  0  0  0  0  0  0
  -20.0094  -25.8434   16.9937 C   0  0  2  0  0  0  0  0  0  0  0  0
  -20.3196  -25.4233   21.7415 C   0  0  0  0  0  0  0  0  0  0  0  0
  -26.2947  -17.0722   19.8784 N   0  0  0  0  0  0  0  0  0  0  0  0
  -30.5275  -23.1785   17.3261 N   0  0  0  0  0  0  0  0  0  0  0  0
  -27.4085  -17.8088   20.0295 N   0  0  0  0  0  0  0  0  0  0  0  0
  -29.6018  -22.1493   15.6712 N   0  3  0  0  0  0  0  0  0  0  0  0
  -22.6429  -28.0603   21.0247 N   0  0  0  0  0  0  0  0  0  0  0  0
  -26.0526  -21.2649   19.0940 N   0  0  0  0  0  0  0  0  0  0  0  0
  -29.7502  -17.6488   20.3477 N   0  0  0  0  0  0  0  0  0  0  0  0
  -28.4255  -13.3348   20.1708 N   0  0  0  0  0  0  0  0  0  0  0  0
  -23.5552  -30.3786   23.6873 N   0  0  0  0  0  0  0  0  0  0  0  0
  -20.3619  -26.2137   19.3378 N   0  0  0  0  0  0  0  0  0  0  0  0
  -26.4010  -21.7726   16.7790 N   0  0  0  0  0  0  0  0  0  0  0  0
  -20.7919  -26.0949   15.7505 N   0  3  0  0  0  0  0  0  0  0  0  0
  -30.2362  -14.7173   20.4329 O   0  0  0  0  0  0  0  0  0  0  0  0
  -23.3269  -28.0698   23.4880 O   0  0  0  0  0  0  0  0  0  0  0  0
  -20.3411  -28.3812   21.2113 O   0  0  0  0  0  0  0  0  0  0  0  0
  -22.0650  -25.2329   18.1070 O   0  0  0  0  0  0  0  0  0  0  0  0
  -24.7740  -22.8473   18.0081 O   0  0  0  0  0  0  0  0  0  0  0  0
  -23.2072  -11.5187   19.4596 O   0  0  0  0  0  0  0  0  0  0  0  0
  -28.5156  -26.7998   19.6189 O   0  0  0  0  0  0  0  0  0  1  0  0
  -23.7508   -7.3373   23.0126 F   0  0  0  0  0  0  0  0  0  0  0  0
  -21.1341  -10.8125   21.1467 F   0  0  0  0  0  0  0  0  0  0  0  0
  1  2  1  0  0  0  0
  1  5  2  0  0  0  0
  2  6  2  0  0  0  0
  3  8  2  0  0  0  0
  3 16  1  0  0  0  0
  4  9  1  0  0  0  0
  4 16  2  0  0  0  0
  5 18  1  0  0  0  0
  6 20  1  0  0  0  0
  7 10  2  0  0  0  0
  7 19  1  0  0  0  0
  8 22  1  0  0  0  0
  9 22  2  0  0  0  0
 10 23  1  0  0  0  0
 11 12  2  0  0  0  0
 11 24  1  0  0  0  0
 12 25  1  0  0  0  0
 13 21  1  0  0  0  0
 13 23  2  0  0  0  0
 14 25  2  0  0  0  0
 14 26  1  0  0  0  0
 15 28  2  0  0  0  0
 15 64  1  0  0  0  0
 16 27  1  0  0  0  0
 17 27  1  0  0  0  0
 17 29  2  0  0  0  0
 17 31  1  0  0  0  0
 18 20  2  0  0  0  0
 18 36  1  0  0  0  0
 19 21  2  0  0  0  0
 19 37  1  0  0  0  0
 20 45  1  0  0  0  0
 21 38  1  0  0  0  0
 22 80  1  0  0  0  0
 23 81  1  0  0  0  0
 24 26  2  0  0  0  0
 24 80  1  0  0  0  0
 25 82  1  0  0  0  0
 26 83  1  0  0  0  0
 27 63  2  0  0  0  0
 28 55  1  0  0  0  0
 28 66  1  0  0  0  0
 29 65  1  0  0  0  0
 29 69  1  0  0  0  0
 30 48  1  0  0  0  0
 30 64  1  0  0  0  0
 30 66  2  0  0  0  0
 31 70  1  0  0  0  0
 31 75  2  0  0  0  0
 32 46  1  0  0  0  0
 32 71  1  0  0  0  0
 32 76  2  0  0  0  0
 33 60  1  0  0  0  0
 33 67  1  0  0  0  0
 33 77  2  0  0  0  0
 34 61  1  0  0  0  0
 34 72  1  0  0  0  0
 34 78  2  0  0  0  0
 35 68  1  0  0  0  0
 35 73  1  0  0  0  0
 35 79  2  0  0  0  0
 36 39  1  0  0  0  0
 37 46  1  0  0  0  0
 38 67  1  0  0  0  0
 39 41  1  0  0  0  0
 40 42  1  0  0  0  0
 40 43  1  0  0  0  0
 41 45  1  0  0  0  0
 42 47  1  0  0  0  0
 43 68  1  0  0  0  0
 44 47  1  0  0  0  0
 44 68  1  0  0  0  0
 45 71  1  0  0  0  0
 46 67  1  0  0  0  0
 47 65  1  0  0  0  0
 49 61  1  0  0  0  0
 50 62  1  0  0  0  0
 51 62  1  0  0  0  0
 52 62  1  0  0  0  0
 53 73  1  0  0  0  0
 54 74  1  0  0  0  0
 55 73  1  0  0  0  0
 56 57  1  0  0  0  0
 56 58  1  0  0  0  0
 57 59  1  0  0  0  0
 58 64  1  0  0  0  0
 59 81  1  0  0  0  0
 60 62  1  0  0  0  0
 60 72  1  0  0  0  0
 61 74  1  0  0  0  0
 63 65  1  0  0  0  0
M  CHG  2  66   1  74   1
M  ISO  4  35 100  59 101  73 100  81 101
M  END
> <Batch ID>
0085

> <Smiles>
CNC(C)C(=O)NC(C(=O)N1Cc2cc([101O:1][101CH2:1]CCCn3cc(C[100N:0](C)[100C:0](=O)N4CCCC(n5nc(-c6ccc(Oc7ccc(F)cc7F)cc6)c(C(N)=O)c5N)C4)nc3C)ccc2CC1C(=O)NC1CCCc2ccccc21)C(C)(C)C

> <Shape>
0.271

> <Color>
0.079

> <Negative vol penalty>
0.000

$$$$

  -OEChem-04052318563D

 87 95  0     1  0  0  0  0  0999 V2000
  -18.4047  -24.6376   24.3941 C   0  0  0  0  0  0  0  0  0  0  0  0
  -19.7419  -24.3323   24.1615 C   0  0  0  0  0  0  0  0  0  0  0  0
  -26.8082  -13.4286   18.9938 C   0  0  0  0  0  0  0  0  0  0  0  0
  -25.7946  -13.8374   21.1484 C   0  0  0  0  0  0  0  0  0  0  0  0
  -17.8810  -25.8520   23.9527 C   0  0  0  0  0  0  0  0  0  0  0  0
  -20.5560  -25.2410   23.4862 C   0  0  0  0  0  0  0  0  0  0  0  0
  -26.5114  -26.2815   24.4641 C   0  0  0  0  0  0  0  0  0  0  0  0
  -25.8170  -12.4906   18.7054 C   0  0  0  0  0  0  0  0  0  0  0  0
  -24.8033  -12.8994   20.8600 C   0  0  0  0  0  0  0  0  0  0  0  0
  -27.6612  -25.8269   23.8199 C   0  0  0  0  0  0  0  0  0  0  0  0
  -24.4862   -9.5333   20.8481 C   0  0  0  0  0  0  0  0  0  0  0  0
  -24.1537   -8.6149   21.8438 C   0  0  0  0  0  0  0  0  0  0  0  0
  -27.7118  -27.8448   22.4990 C   0  0  0  0  0  0  0  0  0  0  0  0
  -30.5144  -20.7470   21.4922 C   0  0  0  0  0  0  0  0  0  0  0  0
  -21.8794   -9.4301   21.8362 C   0  0  0  0  0  0  0  0  0  0  0  0
  -26.7971  -14.1019   20.2153 C   0  0  0  0  0  0  0  0  0  0  0  0
  -28.1124  -16.2477   19.7989 C   0  0  0  0  0  0  0  0  0  0  0  0
  -18.6915  -26.7801   23.2802 C   0  0  0  0  0  0  0  0  0  0  0  0
  -25.9460  -27.5184   24.1224 C   0  0  0  0  0  0  0  0  0  0  0  0
  -20.0423  -26.4684   23.0342 C   0  0  0  0  0  0  0  0  0  0  0  0
  -26.5562  -28.3140   23.1422 C   0  0  0  0  0  0  0  0  0  0  0  0
  -29.4293  -21.3623   20.8779 C   0  0  0  0  0  0  0  0  0  0  0  0
  -28.2283  -21.4905   21.5667 C   0  0  0  0  0  0  0  0  0  0  0  0
  -24.8145  -12.2260   19.6385 C   0  0  0  0  0  0  0  0  0  0  0  0
  -28.2599  -26.6072   22.8351 C   0  0  0  0  0  0  0  0  0  0  0  0
  -23.5154  -10.4003   20.3464 C   0  0  0  0  0  0  0  0  0  0  0  0
  -22.8503   -8.5633   22.3378 C   0  0  0  0  0  0  0  0  0  0  0  0
  -22.2119  -10.3486   20.8404 C   0  0  0  0  0  0  0  0  0  0  0  0
  -27.8211  -15.0706   20.5141 C   0  0  0  0  0  0  0  0  0  0  0  0
  -30.3484  -20.2806   22.7863 C   0  0  0  0  0  0  0  0  0  0  0  0
  -28.1646  -20.9907   22.8574 C   0  0  0  0  0  0  0  0  0  0  0  0
  -29.1606  -16.8140   20.4823 C   0  0  0  0  0  0  0  0  0  0  0  0
  -27.4910  -16.7814   18.6222 C   0  0  0  0  0  0  0  0  0  0  0  0
  -23.1564  -28.4540   22.9197 C   0  0  0  0  0  0  0  0  0  0  0  0
  -24.3474  -31.4172   23.4883 C   0  0  0  0  0  0  0  0  0  0  0  0
  -27.0881  -33.4037   23.9233 C   0  0  0  0  0  0  0  0  0  0  0  0
  -31.1804  -18.2652   25.5942 C   0  0  0  0  0  0  0  0  0  0  0  0
  -18.0689  -28.0596   22.7802 C   0  0  0  0  0  0  0  0  0  0  0  0
  -24.7207  -28.0066   24.8455 C   0  0  0  0  0  0  0  0  0  0  0  0
  -26.0002  -29.6586   22.7530 C   0  0  0  0  0  0  0  0  0  0  0  0
  -19.0919  -29.1278   22.4024 C   0  0  0  0  0  0  0  0  0  0  0  0
  -32.0930  -14.9773   24.1596 C   0  0  0  0  0  0  0  0  0  0  0  0
  -20.2054  -28.5237   21.5527 C   0  0  0  0  0  0  0  0  0  0  0  0
  -31.0367  -14.7832   23.0730 C   0  0  0  0  0  0  0  0  0  0  0  0
  -31.5780  -15.8469   25.3025 C   0  0  0  0  0  0  0  0  0  0  0  0
  -29.9900  -16.9717   23.7769 C   0  0  0  0  0  0  0  0  0  0  0  0
  -20.9635  -27.4388   22.3270 C   0  0  1  0  0  0  0  0  0  0  0  0
  -23.9374  -29.0510   24.0561 C   0  0  1  0  0  0  0  0  0  0  0  0
  -30.4927  -16.1384   22.5885 C   0  0  2  0  0  0  0  0  0  0  0  0
  -27.0483  -22.1482   20.9341 C   0  0  0  0  0  0  0  0  0  0  0  0
  -26.7176  -19.9295   24.6086 C   0  0  0  0  0  0  0  0  0  0  0  0
  -27.7461  -35.7905   24.3330 C   0  0  0  0  0  0  0  0  0  0  0  0
  -23.7545  -32.0792   20.5694 C   0  0  0  0  0  0  0  0  0  0  0  0
  -25.2621  -34.0663   20.7864 C   0  0  0  0  0  0  0  0  0  0  0  0
  -23.2035  -33.9060   22.1861 C   0  0  0  0  0  0  0  0  0  0  0  0
  -31.4440  -20.7151   25.6855 C   0  0  0  0  0  0  0  0  0  0  0  0
  -28.3945  -32.7244   26.4906 C   0  0  0  0  0  0  0  0  0  0  0  0
  -29.5791  -21.8750   19.4747 C   0  0  0  0  0  0  0  0  0  0  0  0
  -26.9020  -21.1004   23.6483 C   0  0  0  0  0  0  0  0  0  0  0  0
  -31.4919  -19.6161   23.4774 C   0  0  0  0  0  0  0  0  0  0  0  0
  -30.3730  -23.1735   19.3742 C   0  0  0  0  0  0  0  0  0  0  0  0
  -30.4036  -25.5592   20.1136 C   0  0  0  0  0  0  0  0  0  0  0  0
  -29.5802  -26.5923   20.8571 C   0  0  0  0  0  0  0  0  0  1  0  0
  -25.1728  -32.4067   22.7018 C   0  0  1  0  0  0  0  0  0  0  0  0
  -27.4173  -34.4504   24.9724 C   0  0  2  0  0  0  0  0  0  0  0  0
  -24.3578  -33.0884   21.5667 C   0  0  0  0  0  0  0  0  0  0  0  0
  -28.6198  -14.8981   21.5706 N   0  0  0  0  0  0  0  0  0  0  0  0
  -29.1973  -20.3870   23.4873 N   0  0  0  0  0  0  0  0  0  0  0  0
  -29.4234  -15.9743   21.5244 N   0  0  0  0  0  0  0  0  0  0  0  0
  -24.7972  -30.0892   23.4842 N   0  0  0  0  0  0  0  0  0  0  0  0
  -31.0273  -17.1100   24.8100 N   0  0  0  0  0  0  0  0  0  0  0  0
  -29.8740  -17.9434   20.2874 N   0  0  0  0  0  0  0  0  0  0  0  0
  -26.4057  -17.6545   18.7773 N   0  0  0  0  0  0  0  0  0  0  0  0
  -21.8849  -28.0395   23.2675 N   0  0  0  0  0  0  0  0  0  0  0  0
  -25.7332  -33.3366   23.6763 N   0  0  0  0  0  0  0  0  0  0  0  0
  -31.2729  -19.4905   24.9168 N   0  0  0  0  0  0  0  0  0  0  0  0
  -28.5886  -34.0178   25.7860 N   0  3  0  0  0  0  0  0  0  0  0  0
  -29.6747  -24.2657   20.1045 N   0  3  0  0  0  0  0  0  0  0  0  0
  -27.8761  -16.4798   17.4671 O   0  0  0  0  0  0  0  0  0  0  0  0
  -23.6688  -28.3767   21.8092 O   0  0  0  0  0  0  0  0  0  0  0  0
  -23.3447  -31.8095   24.0902 O   0  0  0  0  0  0  0  0  0  0  0  0
  -27.9474  -32.7171   23.3749 O   0  0  0  0  0  0  0  0  0  0  0  0
  -31.2410  -18.2039   26.8289 O   0  0  0  0  0  0  0  0  0  0  0  0
  -23.8469  -11.3110   19.3573 O   0  0  0  0  0  0  0  0  0  0  0  0
  -29.3819  -26.1655   22.2043 O   0  0  0  0  0  0  0  0  0  1  0  0
  -22.5307   -7.6802   23.2929 F   0  0  0  0  0  0  0  0  0  0  0  0
  -21.2747  -11.1781   20.3616 F   0  0  0  0  0  0  0  0  0  0  0  0
  1  2  1  0  0  0  0
  1  5  2  0  0  0  0
  2  6  2  0  0  0  0
  3  8  2  0  0  0  0
  3 16  1  0  0  0  0
  4  9  1  0  0  0  0
  4 16  2  0  0  0  0
  5 18  1  0  0  0  0
  6 20  1  0  0  0  0
  7 10  2  0  0  0  0
  7 19  1  0  0  0  0
  8 24  1  0  0  0  0
  9 24  2  0  0  0  0
 10 25  1  0  0  0  0
 11 12  2  0  0  0  0
 11 26  1  0  0  0  0
 12 27  1  0  0  0  0
 13 21  1  0  0  0  0
 13 25  2  0  0  0  0
 14 22  2  0  0  0  0
 14 30  1  0  0  0  0
 15 27  2  0  0  0  0
 15 28  1  0  0  0  0
 16 29  1  0  0  0  0
 17 29  1  0  0  0  0
 17 32  2  0  0  0  0
 17 33  1  0  0  0  0
 18 20  2  0  0  0  0
 18 38  1  0  0  0  0
 19 21  2  0  0  0  0
 19 39  1  0  0  0  0
 20 47  1  0  0  0  0
 21 40  1  0  0  0  0
 22 23  1  0  0  0  0
 22 58  1  0  0  0  0
 23 31  2  0  0  0  0
 23 50  1  0  0  0  0
 24 84  1  0  0  0  0
 25 85  1  0  0  0  0
 26 28  2  0  0  0  0
 26 84  1  0  0  0  0
 27 86  1  0  0  0  0
 28 87  1  0  0  0  0
 29 67  2  0  0  0  0
 30 60  1  0  0  0  0
 30 68  2  0  0  0  0
 31 59  1  0  0  0  0
 31 68  1  0  0  0  0
 32 69  1  0  0  0  0
 32 72  1  0  0  0  0
 33 73  1  0  0  0  0
 33 79  2  0  0  0  0
 34 48  1  0  0  0  0
 34 74  1  0  0  0  0
 34 80  2  0  0  0  0
 35 64  1  0  0  0  0
 35 70  1  0  0  0  0
 35 81  2  0  0  0  0
 36 65  1  0  0  0  0
 36 75  1  0  0  0  0
 36 82  2  0  0  0  0
 37 71  1  0  0  0  0
 37 76  1  0  0  0  0
 37 83  2  0  0  0  0
 38 41  1  0  0  0  0
 39 48  1  0  0  0  0
 40 70  1  0  0  0  0
 41 43  1  0  0  0  0
 42 44  1  0  0  0  0
 42 45  1  0  0  0  0
 43 47  1  0  0  0  0
 44 49  1  0  0  0  0
 45 71  1  0  0  0  0
 46 49  1  0  0  0  0
 46 71  1  0  0  0  0
 47 74  1  0  0  0  0
 48 70  1  0  0  0  0
 49 69  1  0  0  0  0
 51 59  1  0  0  0  0
 52 65  1  0  0  0  0
 53 66  1  0  0  0  0
 54 66  1  0  0  0  0
 55 66  1  0  0  0  0
 56 76  1  0  0  0  0
 57 77  1  0  0  0  0
 58 61  1  0  0  0  0
 60 76  1  0  0  0  0
 61 78  1  0  0  0  0
 62 63  1  0  0  0  0
 62 78  1  0  0  0  0
 63 85  1  0  0  0  0
 64 66  1  0  0  0  0
 64 75  1  0  0  0  0
 65 77  1  0  0  0  0
 67 69  1  0  0  0  0
M  CHG  2  77   1  78   1
M  ISO  4  37 100  63 101  76 100  85 101
M  END
> <Batch ID>
0085

> <Smiles>
CCc1nc(C[100N:0](C)[100C:0](=O)N2CCCC(n3nc(-c4ccc(Oc5ccc(F)cc5F)cc4)c(C(N)=O)c3N)C2)cc(CCNC[101CH2:1][101O:1]c2ccc3c(c2)CN(C(=O)C(NC(=O)C(C)NC)C(C)(C)C)C(C(=O)NC2CCCc4ccccc42)C3)c1C

> <Shape>
0.269

> <Color>
0.083

> <Negative vol penalty>
0.000

$$$$

  -OEChem-04052318563D

 85 93  0     1  0  0  0  0  0999 V2000
  -30.2651  -31.7123   20.1309 C   0  0  0  0  0  0  0  0  0  0  0  0
  -29.9443  -30.7532   21.0861 C   0  0  0  0  0  0  0  0  0  0  0  0
  -23.0714   -9.8850   19.9280 C   0  0  0  0  0  0  0  0  0  0  0  0
  -23.8434   -9.8640   22.2173 C   0  0  0  0  0  0  0  0  0  0  0  0
  -30.0851  -31.4333   18.7767 C   0  0  0  0  0  0  0  0  0  0  0  0
  -29.4423  -29.5147   20.6878 C   0  0  0  0  0  0  0  0  0  0  0  0
  -30.4615  -24.0979   23.3570 C   0  0  0  0  0  0  0  0  0  0  0  0
  -22.3295   -8.7284   20.1675 C   0  0  0  0  0  0  0  0  0  0  0  0
  -23.1014   -8.7074   22.4569 C   0  0  0  0  0  0  0  0  0  0  0  0
  -29.7124  -23.3391   24.2553 C   0  0  0  0  0  0  0  0  0  0  0  0
  -19.8769   -7.9001   23.0663 C   0  0  0  0  0  0  0  0  0  0  0  0
  -19.1262   -7.8452   24.2406 C   0  0  0  0  0  0  0  0  0  0  0  0
  -28.8155  -22.0598   22.4173 C   0  0  0  0  0  0  0  0  0  0  0  0
  -20.3725   -5.8995   24.9464 C   0  0  0  0  0  0  0  0  0  0  0  0
  -29.8302  -18.3195   25.7301 C   0  0  0  0  0  0  0  0  0  0  0  0
  -23.8284  -10.4528   20.9529 C   0  0  0  0  0  0  0  0  0  0  0  0
  -24.1682  -12.9795   20.8624 C   0  0  0  0  0  0  0  0  0  0  0  0
  -29.5898  -30.1873   18.3611 C   0  0  0  0  0  0  0  0  0  0  0  0
  -30.3848  -23.8501   21.9790 C   0  0  0  0  0  0  0  0  0  0  0  0
  -29.2543  -29.2193   19.3269 C   0  0  0  0  0  0  0  0  0  0  0  0
  -29.5666  -22.8152   21.5039 C   0  0  0  0  0  0  0  0  0  0  0  0
  -22.3445   -8.1396   21.4319 C   0  0  0  0  0  0  0  0  0  0  0  0
  -28.8870  -22.3218   23.7852 C   0  0  0  0  0  0  0  0  0  0  0  0
  -20.8755   -6.9547   22.8320 C   0  0  0  0  0  0  0  0  0  0  0  0
  -19.3740   -6.8449   25.1807 C   0  0  0  0  0  0  0  0  0  0  0  0
  -21.1233   -5.9544   23.7721 C   0  0  0  0  0  0  0  0  0  0  0  0
  -24.5954  -11.6473   20.7059 C   0  0  0  0  0  0  0  0  0  0  0  0
  -29.7773  -17.2646   24.8633 C   0  0  0  0  0  0  0  0  0  0  0  0
  -25.2580  -13.7341   20.5028 C   0  0  0  0  0  0  0  0  0  0  0  0
  -27.7769  -18.2118   24.9098 C   0  0  0  0  0  0  0  0  0  0  0  0
  -22.8996  -13.4892   21.2944 C   0  0  0  0  0  0  0  0  0  0  0  0
  -29.4588  -25.5319   19.4456 C   0  0  0  0  0  0  0  0  0  0  0  0
  -30.5726  -22.9573   17.8166 C   0  0  0  0  0  0  0  0  0  0  0  0
  -31.3248  -19.6285   17.8226 C   0  0  0  0  0  0  0  0  0  0  0  0
  -30.7420  -14.7542   20.6750 C   0  0  0  0  0  0  0  0  0  0  0  0
  -29.3678  -29.9489   16.8885 C   0  0  0  0  0  0  0  0  0  0  0  0
  -31.2196  -24.6600   21.0253 C   0  0  0  0  0  0  0  0  0  0  0  0
  -29.4643  -22.4957   20.0356 C   0  0  0  0  0  0  0  0  0  0  0  0
  -29.1837  -28.4764   16.5308 C   0  0  0  0  0  0  0  0  0  0  0  0
  -29.5933  -12.3988   18.2648 C   0  0  0  0  0  0  0  0  0  0  0  0
  -28.2046  -27.8116   17.4932 C   0  0  0  0  0  0  0  0  0  0  0  0
  -28.1583  -12.0988   18.7016 C   0  0  0  0  0  0  0  0  0  0  0  0
  -30.5166  -12.6053   19.4635 C   0  0  0  0  0  0  0  0  0  0  0  0
  -28.6217  -13.3179   20.8690 C   0  0  0  0  0  0  0  0  0  0  0  0
  -28.7306  -27.8552   18.9329 C   0  0  1  0  0  0  0  0  0  0  0  0
  -30.6714  -24.6583   19.6016 C   0  0  1  0  0  0  0  0  0  0  0  0
  -27.6415  -13.1573   19.6945 C   0  0  2  0  0  0  0  0  0  0  0  0
  -32.1819  -17.8000   16.3330 C   0  0  0  0  0  0  0  0  0  0  0  0
  -23.9085  -18.3209   25.3506 C   0  0  0  0  0  0  0  0  0  0  0  0
  -25.5112  -16.4881   25.9301 C   0  0  0  0  0  0  0  0  0  0  0  0
  -27.8573  -22.8158   16.4320 C   0  0  0  0  0  0  0  0  0  0  0  0
  -28.4260  -20.4876   15.7078 C   0  0  0  0  0  0  0  0  0  0  0  0
  -29.8160  -22.4080   14.9314 C   0  0  0  0  0  0  0  0  0  0  0  0
  -33.6747  -19.1570   19.5588 C   0  0  0  0  0  0  0  0  0  0  0  0
  -30.7984  -16.2981   24.4512 C   0  0  0  0  0  0  0  0  0  0  0  0
  -26.3478  -18.4931   24.6249 C   0  0  0  0  0  0  0  0  0  0  0  0
  -31.6377  -16.7067   23.2106 C   0  0  0  0  0  0  0  0  0  0  0  0
  -28.1773  -20.0891   26.5593 C   0  0  0  0  0  0  0  0  0  0  0  0
  -30.8132  -16.8893   21.9381 C   0  0  0  0  0  0  0  0  0  0  0  0
  -28.6955  -21.3952   25.9671 C   0  0  0  0  0  0  0  0  0  1  0  0
  -29.9773  -21.6547   17.3394 C   0  0  1  0  0  0  0  0  0  0  0  0
  -32.5517  -18.8722   17.3460 C   0  0  2  0  0  0  0  0  0  0  0  0
  -25.3598  -17.9958   25.7131 C   0  0  0  0  0  0  0  0  0  0  0  0
  -29.0194  -21.8486   16.1302 C   0  0  0  0  0  0  0  0  0  0  0  0
  -25.8581  -11.5574   20.2799 N   0  0  0  0  0  0  0  0  0  0  0  0
  -28.5791  -18.8876   25.7389 N   0  0  0  0  0  0  0  0  0  0  0  0
  -26.2336  -12.8427   20.1655 N   0  0  0  0  0  0  0  0  0  0  0  0
  -28.4952  -17.2214   24.3708 N   0  3  0  0  0  0  0  0  0  0  0  0
  -30.2953  -23.3198   19.1423 N   0  0  0  0  0  0  0  0  0  0  0  0
  -29.9701  -13.6223   20.3651 N   0  0  0  0  0  0  0  0  0  0  0  0
  -25.4672  -15.0665   20.4452 N   0  0  0  0  0  0  0  0  0  0  0  0
  -21.8900  -12.5753   21.6256 N   0  0  0  0  0  0  0  0  0  0  0  0
  -29.7486  -26.8455   19.1298 N   0  0  0  0  0  0  0  0  0  0  0  0
  -31.1024  -20.7648   17.0738 N   0  0  0  0  0  0  0  0  0  0  0  0
  -30.1468  -15.6721   21.5316 N   0  0  0  0  0  0  0  0  0  0  0  0
  -33.2351  -18.2162   18.4965 N   0  3  0  0  0  0  0  0  0  0  0  0
  -22.6630  -14.7189   21.3682 O   0  0  0  0  0  0  0  0  0  0  0  0
  -28.3428  -25.0494   19.5988 O   0  0  0  0  0  0  0  0  0  0  0  0
  -31.2643  -23.6251   17.0437 O   0  0  0  0  0  0  0  0  0  0  0  0
  -30.6308  -19.2474   18.7626 O   0  0  0  0  0  0  0  0  0  0  0  0
  -31.8755  -14.9360   20.2176 O   0  0  0  0  0  0  0  0  0  0  0  0
  -21.6205   -7.0111   21.6661 O   0  0  0  0  0  0  0  0  0  0  0  0
  -28.1542  -21.5801   24.6598 O   0  0  0  0  0  0  0  0  0  1  0  0
  -18.6540   -6.7932   26.3090 F   0  0  0  0  0  0  0  0  0  0  0  0
  -22.0820   -5.0441   23.5531 F   0  0  0  0  0  0  0  0  0  0  0  0
  1  2  1  0  0  0  0
  1  5  2  0  0  0  0
  2  6  2  0  0  0  0
  3  8  2  0  0  0  0
  3 16  1  0  0  0  0
  4  9  1  0  0  0  0
  4 16  2  0  0  0  0
  5 18  1  0  0  0  0
  6 20  1  0  0  0  0
  7 10  2  0  0  0  0
  7 19  1  0  0  0  0
  8 22  1  0  0  0  0
  9 22  2  0  0  0  0
 10 23  1  0  0  0  0
 11 12  2  0  0  0  0
 11 24  1  0  0  0  0
 12 25  1  0  0  0  0
 13 21  1  0  0  0  0
 13 23  2  0  0  0  0
 14 25  2  0  0  0  0
 14 26  1  0  0  0  0
 15 28  2  0  0  0  0
 15 66  1  0  0  0  0
 16 27  1  0  0  0  0
 17 27  1  0  0  0  0
 17 29  2  0  0  0  0
 17 31  1  0  0  0  0
 18 20  2  0  0  0  0
 18 36  1  0  0  0  0
 19 21  2  0  0  0  0
 19 37  1  0  0  0  0
 20 45  1  0  0  0  0
 21 38  1  0  0  0  0
 22 82  1  0  0  0  0
 23 83  1  0  0  0  0
 24 26  2  0  0  0  0
 24 82  1  0  0  0  0
 25 84  1  0  0  0  0
 26 85  1  0  0  0  0
 27 65  2  0  0  0  0
 28 55  1  0  0  0  0
 28 68  1  0  0  0  0
 29 67  1  0  0  0  0
 29 71  1  0  0  0  0
 30 56  1  0  0  0  0
 30 66  1  0  0  0  0
 30 68  2  0  0  0  0
 31 72  1  0  0  0  0
 31 77  2  0  0  0  0
 32 46  1  0  0  0  0
 32 73  1  0  0  0  0
 32 78  2  0  0  0  0
 33 61  1  0  0  0  0
 33 69  1  0  0  0  0
 33 79  2  0  0  0  0
 34 62  1  0  0  0  0
 34 74  1  0  0  0  0
 34 80  2  0  0  0  0
 35 70  1  0  0  0  0
 35 75  1  0  0  0  0
 35 81  2  0  0  0  0
 36 39  1  0  0  0  0
 37 46  1  0  0  0  0
 38 69  1  0  0  0  0
 39 41  1  0  0  0  0
 40 42  1  0  0  0  0
 40 43  1  0  0  0  0
 41 45  1  0  0  0  0
 42 47  1  0  0  0  0
 43 70  1  0  0  0  0
 44 47  1  0  0  0  0
 44 70  1  0  0  0  0
 45 73  1  0  0  0  0
 46 69  1  0  0  0  0
 47 67  1  0  0  0  0
 48 62  1  0  0  0  0
 49 63  1  0  0  0  0
 50 63  1  0  0  0  0
 51 64  1  0  0  0  0
 52 64  1  0  0  0  0
 53 64  1  0  0  0  0
 54 76  1  0  0  0  0
 55 57  1  0  0  0  0
 56 63  1  0  0  0  0
 57 59  1  0  0  0  0
 58 60  1  0  0  0  0
 58 66  1  0  0  0  0
 59 75  1  0  0  0  0
 60 83  1  0  0  0  0
 61 64  1  0  0  0  0
 61 74  1  0  0  0  0
 62 76  1  0  0  0  0
 65 67  1  0  0  0  0
M  CHG  2  68   1  76   1
M  ISO  4  35 100  60 101  75 100  83 101
M  END
> <Batch ID>
0085

> <Smiles>
CNC(C)C(=O)NC(C(=O)N1Cc2cc([101O:1][101CH2:1]Cn3cc(CCC[100NH:0][100C:0](=O)N4CCCC(n5nc(-c6ccc(Oc7ccc(F)cc7F)cc6)c(C(N)=O)c5N)C4)nc3CC(C)C)ccc2CC1C(=O)NC1CCCc2ccccc21)C(C)(C)C

> <Shape>
0.237

> <Color>
0.190

> <Negative vol penalty>
0.000

$$$$

  -OEChem-04052318563D

 86 94  0     1  0  0  0  0  0999 V2000
  -27.5582  -30.5934   26.6388 C   0  0  0  0  0  0  0  0  0  0  0  0
  -26.5848  -30.0002   25.8413 C   0  0  0  0  0  0  0  0  0  0  0  0
  -26.1221  -16.7201   23.6034 C   0  0  0  0  0  0  0  0  0  0  0  0
  -25.7110  -18.3913   21.9078 C   0  0  0  0  0  0  0  0  0  0  0  0
  -28.8303  -30.8338   26.1213 C   0  0  0  0  0  0  0  0  0  0  0  0
  -26.8827  -29.6481   24.5253 C   0  0  0  0  0  0  0  0  0  0  0  0
  -25.1830  -25.0333   23.3169 C   0  0  0  0  0  0  0  0  0  0  0  0
  -26.2409  -15.7448   22.6134 C   0  0  0  0  0  0  0  0  0  0  0  0
  -25.8298  -17.4160   20.9177 C   0  0  0  0  0  0  0  0  0  0  0  0
  -23.8233  -24.9093   23.0347 C   0  0  0  0  0  0  0  0  0  0  0  0
  -24.1769  -13.9077   20.6669 C   0  0  0  0  0  0  0  0  0  0  0  0
  -23.5221  -12.6933   20.8725 C   0  0  0  0  0  0  0  0  0  0  0  0
  -24.3166  -24.9416   20.6736 C   0  0  0  0  0  0  0  0  0  0  0  0
  -25.6384  -11.5333   20.7597 C   0  0  0  0  0  0  0  0  0  0  0  0
  -20.5607  -27.9772   21.6350 C   0  0  0  0  0  0  0  0  0  0  0  0
  -25.8571  -18.0434   23.2506 C   0  0  0  0  0  0  0  0  0  0  0  0
  -26.7624  -19.8487   24.8092 C   0  0  0  0  0  0  0  0  0  0  0  0
  -29.1469  -30.4756   24.8014 C   0  0  0  0  0  0  0  0  0  0  0  0
  -26.1203  -25.1235   22.2778 C   0  0  0  0  0  0  0  0  0  0  0  0
  -28.1598  -29.8851   23.9893 C   0  0  0  0  0  0  0  0  0  0  0  0
  -25.6879  -25.0641   20.9453 C   0  0  0  0  0  0  0  0  0  0  0  0
  -20.1731  -28.5568   22.8229 C   0  0  0  0  0  0  0  0  0  0  0  0
  -19.3148  -27.6411   23.4802 C   0  0  0  0  0  0  0  0  0  0  0  0
  -26.0948  -16.0927   21.2705 C   0  0  0  0  0  0  0  0  0  0  0  0
  -23.3897  -24.8663   21.7129 C   0  0  0  0  0  0  0  0  0  0  0  0
  -25.5624  -13.9348   20.5075 C   0  0  0  0  0  0  0  0  0  0  0  0
  -24.2529  -11.5061   20.9190 C   0  0  0  0  0  0  0  0  0  0  0  0
  -26.2931  -12.7476   20.5539 C   0  0  0  0  0  0  0  0  0  0  0  0
  -25.7336  -19.0513   24.2729 C   0  0  0  0  0  0  0  0  0  0  0  0
  -19.2042  -26.5297   22.6740 C   0  0  0  0  0  0  0  0  0  0  0  0
  -26.1341  -20.6396   25.7398 C   0  0  0  0  0  0  0  0  0  0  0  0
  -28.1609  -19.8724   24.4941 C   0  0  0  0  0  0  0  0  0  0  0  0
  -28.2183  -27.3168   21.3335 C   0  0  0  0  0  0  0  0  0  0  0  0
  -29.1154  -24.9986   19.2494 C   0  0  0  0  0  0  0  0  0  0  0  0
  -28.2839  -22.1741   17.5239 C   0  0  0  0  0  0  0  0  0  0  0  0
  -20.4841  -22.5299   26.3366 C   0  0  0  0  0  0  0  0  0  0  0  0
  -30.5215  -30.7984   24.2714 C   0  0  0  0  0  0  0  0  0  0  0  0
  -27.5859  -25.2301   22.5990 C   0  0  0  0  0  0  0  0  0  0  0  0
  -26.6557  -25.1366   19.7935 C   0  0  0  0  0  0  0  0  0  0  0  0
  -30.8687  -30.0535   22.9850 C   0  0  0  0  0  0  0  0  0  0  0  0
  -22.3808  -20.6693   28.7067 C   0  0  0  0  0  0  0  0  0  0  0  0
  -29.7111  -30.1304   21.9945 C   0  0  0  0  0  0  0  0  0  0  0  0
  -23.5480  -20.1156   27.8876 C   0  0  0  0  0  0  0  0  0  0  0  0
  -21.0873  -20.7018   27.8957 C   0  0  0  0  0  0  0  0  0  0  0  0
  -22.3508  -20.8541   25.7852 C   0  0  0  0  0  0  0  0  0  0  0  0
  -28.4521  -29.4663   22.5648 C   0  0  1  0  0  0  0  0  0  0  0  0
  -28.4048  -25.8313   21.4610 C   0  0  1  0  0  0  0  0  0  0  0  0
  -23.6895  -20.8540   26.5430 C   0  0  2  0  0  0  0  0  0  0  0  0
  -18.6582  -27.8392   24.7889 C   0  0  0  0  0  0  0  0  0  0  0  0
  -20.1191  -31.0389   22.3874 C   0  0  0  0  0  0  0  0  0  0  0  0
  -22.1075  -30.0046   23.5412 C   0  0  0  0  0  0  0  0  0  0  0  0
  -28.6002  -20.1689   16.0486 C   0  0  0  0  0  0  0  0  0  0  0  0
  -19.5978  -26.3808   19.0930 C   0  0  0  0  0  0  0  0  0  0  0  0
  -28.7337  -27.0373   17.0115 C   0  0  0  0  0  0  0  0  0  0  0  0
  -28.7383  -25.1405   15.3774 C   0  0  0  0  0  0  0  0  0  0  0  0
  -30.7587  -25.5898   16.7698 C   0  0  0  0  0  0  0  0  0  0  0  0
  -29.0815  -20.4729   19.8105 C   0  0  0  0  0  0  0  0  0  0  0  0
  -18.4394  -25.2802   22.8716 C   0  0  0  0  0  0  0  0  0  0  0  0
  -19.2766  -24.0746   23.3600 C   0  0  0  0  0  0  0  0  0  0  0  0
  -20.0053  -24.3151   24.6805 C   0  0  0  0  0  0  0  0  0  0  0  0
  -21.5973  -25.3383   20.2228 C   0  0  0  0  0  0  0  0  0  1  0  0
  -20.5830  -29.8888   23.3108 C   0  0  0  0  0  0  0  0  0  0  0  0
  -28.7019  -24.5970   17.8541 C   0  0  1  0  0  0  0  0  0  0  0  0
  -29.0106  -20.8536   17.3430 C   0  0  2  0  0  0  0  0  0  0  0  0
  -20.1370  -25.7789   20.3936 C   0  0  1  0  0  0  0  0  0  0  0  0
  -29.2145  -25.5917   16.7747 C   0  0  0  0  0  0  0  0  0  0  0  0
  -24.5422  -19.3117   24.8177 N   0  0  0  0  0  0  0  0  0  0  0  0
  -19.9659  -26.7451   21.5553 N   0  0  0  0  0  0  0  0  0  0  0  0
  -24.8185  -20.2816   25.7061 N   0  0  0  0  0  0  0  0  0  0  0  0
  -28.0776  -25.2466   20.1589 N   0  0  0  0  0  0  0  0  0  0  0  0
  -21.2889  -21.4176   26.6335 N   0  0  0  0  0  0  0  0  0  0  0  0
  -26.5842  -21.5994   26.5757 N   0  0  0  0  0  0  0  0  0  0  0  0
  -28.6398  -18.9936   23.5129 N   0  0  0  0  0  0  0  0  0  0  0  0
  -28.5541  -28.0257   22.4711 N   0  0  0  0  0  0  0  0  0  0  0  0
  -29.1639  -23.2255   17.6703 N   0  0  0  0  0  0  0  0  0  0  0  0
  -20.7452  -23.1544   25.1231 N   0  0  0  0  0  0  0  0  0  0  0  0
  -28.7070  -19.9357   18.4771 N   0  3  0  0  0  0  0  0  0  0  0  0
  -28.9650  -20.6384   25.0774 O   0  0  0  0  0  0  0  0  0  0  0  0
  -27.8020  -27.7853   20.2804 O   0  0  0  0  0  0  0  0  0  0  0  0
  -30.3151  -25.0821   19.5241 O   0  0  0  0  0  0  0  0  0  0  0  0
  -27.0582  -22.2644   17.5306 O   0  0  0  0  0  0  0  0  0  0  0  0
  -19.6021  -22.9395   27.0989 O   0  0  0  0  0  0  0  0  0  0  0  0
  -26.2110  -15.1413   20.3041 O   0  0  0  0  0  0  0  0  0  0  0  0
  -22.0630  -24.7460   21.4346 O   0  0  0  0  0  0  0  0  0  1  0  0
  -23.6242  -10.3402   21.1181 F   0  0  0  0  0  0  0  0  0  0  0  0
  -27.6245  -12.7675   20.4027 F   0  0  0  0  0  0  0  0  0  0  0  0
  1  2  1  0  0  0  0
  1  5  2  0  0  0  0
  2  6  2  0  0  0  0
  3  8  2  0  0  0  0
  3 16  1  0  0  0  0
  4  9  1  0  0  0  0
  4 16  2  0  0  0  0
  5 18  1  0  0  0  0
  6 20  1  0  0  0  0
  7 10  2  0  0  0  0
  7 19  1  0  0  0  0
  8 24  1  0  0  0  0
  9 24  2  0  0  0  0
 10 25  1  0  0  0  0
 11 12  2  0  0  0  0
 11 26  1  0  0  0  0
 12 27  1  0  0  0  0
 13 21  1  0  0  0  0
 13 25  2  0  0  0  0
 14 27  2  0  0  0  0
 14 28  1  0  0  0  0
 15 22  2  0  0  0  0
 15 68  1  0  0  0  0
 16 29  1  0  0  0  0
 17 29  1  0  0  0  0
 17 31  2  0  0  0  0
 17 32  1  0  0  0  0
 18 20  2  0  0  0  0
 18 37  1  0  0  0  0
 19 21  2  0  0  0  0
 19 38  1  0  0  0  0
 20 46  1  0  0  0  0
 21 39  1  0  0  0  0
 22 23  1  0  0  0  0
 22 62  1  0  0  0  0
 23 30  2  0  0  0  0
 23 49  1  0  0  0  0
 24 83  1  0  0  0  0
 25 84  1  0  0  0  0
 26 28  2  0  0  0  0
 26 83  1  0  0  0  0
 27 85  1  0  0  0  0
 28 86  1  0  0  0  0
 29 67  2  0  0  0  0
 30 58  1  0  0  0  0
 30 68  1  0  0  0  0
 31 69  1  0  0  0  0
 31 72  1  0  0  0  0
 32 73  1  0  0  0  0
 32 78  2  0  0  0  0
 33 47  1  0  0  0  0
 33 74  1  0  0  0  0
 33 79  2  0  0  0  0
 34 63  1  0  0  0  0
 34 70  1  0  0  0  0
 34 80  2  0  0  0  0
 35 64  1  0  0  0  0
 35 75  1  0  0  0  0
 35 81  2  0  0  0  0
 36 71  1  0  0  0  0
 36 76  1  0  0  0  0
 36 82  2  0  0  0  0
 37 40  1  0  0  0  0
 38 47  1  0  0  0  0
 39 70  1  0  0  0  0
 40 42  1  0  0  0  0
 41 43  1  0  0  0  0
 41 44  1  0  0  0  0
 42 46  1  0  0  0  0
 43 48  1  0  0  0  0
 44 71  1  0  0  0  0
 45 48  1  0  0  0  0
 45 71  1  0  0  0  0
 46 74  1  0  0  0  0
 47 70  1  0  0  0  0
 48 69  1  0  0  0  0
 50 62  1  0  0  0  0
 51 62  1  0  0  0  0
 52 64  1  0  0  0  0
 53 65  1  0  0  0  0
 54 66  1  0  0  0  0
 55 66  1  0  0  0  0
 56 66  1  0  0  0  0
 57 77  1  0  0  0  0
 58 59  1  0  0  0  0
 59 60  1  0  0  0  0
 60 76  1  0  0  0  0
 61 65  1  0  0  0  0
 61 84  1  0  0  0  0
 63 66  1  0  0  0  0
 63 75  1  0  0  0  0
 64 77  1  0  0  0  0
 65 68  1  0  0  0  0
 67 69  1  0  0  0  0
M  CHG  1  77   1
M  ISO  4  36 100  61 101  76 100  84 101
M  END
> <Batch ID>
0085

> <Smiles>
CNC(C)C(=O)NC(C(=O)N1Cc2cc([101O:1][101CH2:1]C(C)n3cc(C(C)C)c(C)c3CCC[100NH:0][100C:0](=O)N3CCCC(n4nc(-c5ccc(Oc6ccc(F)cc6F)cc5)c(C(N)=O)c4N)C3)ccc2CC1C(=O)NC1CCCc2ccccc21)C(C)(C)C

> <Shape>
0.186

> <Color>
0.060

> <Negative vol penalty>
0.000

$$$$

  -OEChem-04052318563D

 86 94  0     1  0  0  0  0  0999 V2000
  -25.6318  -36.7011   18.7449 C   0  0  0  0  0  0  0  0  0  0  0  0
  -26.2982  -35.5237   19.0690 C   0  0  0  0  0  0  0  0  0  0  0  0
  -26.0035  -16.2753   22.2831 C   0  0  0  0  0  0  0  0  0  0  0  0
  -25.5410  -15.9849   19.9296 C   0  0  0  0  0  0  0  0  0  0  0  0
  -24.5251  -37.1027   19.4918 C   0  0  0  0  0  0  0  0  0  0  0  0
  -25.8590  -34.7477   20.1411 C   0  0  0  0  0  0  0  0  0  0  0  0
  -25.7093  -29.8089   19.0319 C   0  0  0  0  0  0  0  0  0  0  0  0
  -25.3458  -15.0769   22.5603 C   0  0  0  0  0  0  0  0  0  0  0  0
  -24.8833  -14.7865   20.2068 C   0  0  0  0  0  0  0  0  0  0  0  0
  -26.9203  -29.1181   19.0374 C   0  0  0  0  0  0  0  0  0  0  0  0
  -25.7247  -11.5864   20.8938 C   0  0  0  0  0  0  0  0  0  0  0  0
  -26.0055  -10.4909   20.0773 C   0  0  0  0  0  0  0  0  0  0  0  0
  -26.4150  -28.2620   21.2353 C   0  0  0  0  0  0  0  0  0  0  0  0
  -23.6791  -10.3722   19.4365 C   0  0  0  0  0  0  0  0  0  0  0  0
  -31.8785  -23.3072   18.8478 C   0  0  0  0  0  0  0  0  0  0  0  0
  -26.1011  -16.7293   20.9678 C   0  0  0  0  0  0  0  0  0  0  0  0
  -28.1466  -18.1403   20.3908 C   0  0  0  0  0  0  0  0  0  0  0  0
  -24.0663  -36.3263   20.5676 C   0  0  0  0  0  0  0  0  0  0  0  0
  -24.8456  -29.7401   20.1344 C   0  0  0  0  0  0  0  0  0  0  0  0
  -24.7460  -35.1400   20.9040 C   0  0  0  0  0  0  0  0  0  0  0  0
  -25.1925  -28.9508   21.2403 C   0  0  0  0  0  0  0  0  0  0  0  0
  -24.7857  -14.3325   21.5221 C   0  0  0  0  0  0  0  0  0  0  0  0
  -27.2746  -28.3468   20.1404 C   0  0  0  0  0  0  0  0  0  0  0  0
  -24.4210  -12.0748   20.9817 C   0  0  0  0  0  0  0  0  0  0  0  0
  -24.9827   -9.8839   19.3486 C   0  0  0  0  0  0  0  0  0  0  0  0
  -23.3982  -11.4677   20.2530 C   0  0  0  0  0  0  0  0  0  0  0  0
  -26.7799  -17.9675   20.6809 C   0  0  0  0  0  0  0  0  0  0  0  0
  -32.0136  -22.8432   17.5697 C   0  0  0  0  0  0  0  0  0  0  0  0
  -28.2878  -19.4924   20.1953 C   0  0  0  0  0  0  0  0  0  0  0  0
  -30.5071  -24.4652   17.5521 C   0  0  0  0  0  0  0  0  0  0  0  0
  -29.1947  -17.1656   20.3055 C   0  0  0  0  0  0  0  0  0  0  0  0
  -23.6799  -31.8504   22.2060 C   0  0  0  0  0  0  0  0  0  0  0  0
  -21.9407  -29.3078   23.2220 C   0  0  0  0  0  0  0  0  0  0  0  0
  -21.6305  -25.9172   23.4555 C   0  0  0  0  0  0  0  0  0  0  0  0
  -26.5117  -24.3032   17.9936 C   0  0  0  0  0  0  0  0  0  0  0  0
  -22.8944  -36.8254   21.3753 C   0  0  0  0  0  0  0  0  0  0  0  0
  -23.5307  -30.4697   20.1019 C   0  0  0  0  0  0  0  0  0  0  0  0
  -24.2911  -28.8276   22.4406 C   0  0  0  0  0  0  0  0  0  0  0  0
  -22.2655  -35.7540   22.2623 C   0  0  0  0  0  0  0  0  0  0  0  0
  -25.0845  -23.3017   21.0979 C   0  0  0  0  0  0  0  0  0  0  0  0
  -23.3450  -34.9833   23.0155 C   0  0  0  0  0  0  0  0  0  0  0  0
  -25.5057  -21.8379   21.2388 C   0  0  0  0  0  0  0  0  0  0  0  0
  -24.7803  -23.6641   19.6459 C   0  0  0  0  0  0  0  0  0  0  0  0
  -26.2801  -21.8863   18.8312 C   0  0  0  0  0  0  0  0  0  0  0  0
  -24.2847  -34.2585   22.0443 C   0  0  1  0  0  0  0  0  0  0  0  0
  -22.9627  -30.7400   21.4917 C   0  0  1  0  0  0  0  0  0  0  0  0
  -26.6513  -21.4883   20.2700 C   0  0  2  0  0  0  0  0  0  0  0  0
  -33.8787  -22.3102   15.9601 C   0  0  0  0  0  0  0  0  0  0  0  0
  -32.0555  -20.6208   16.3809 C   0  0  0  0  0  0  0  0  0  0  0  0
  -20.1208  -24.1359   24.3748 C   0  0  0  0  0  0  0  0  0  0  0  0
  -31.2040  -28.7830   21.1526 C   0  0  0  0  0  0  0  0  0  0  0  0
  -22.9907  -29.8710   26.0310 C   0  0  0  0  0  0  0  0  0  0  0  0
  -22.2472  -27.5741   26.6940 C   0  0  0  0  0  0  0  0  0  0  0  0
  -20.5696  -29.2531   25.9266 C   0  0  0  0  0  0  0  0  0  0  0  0
  -21.1296  -24.7904   20.7651 C   0  0  0  0  0  0  0  0  0  0  0  0
  -29.4950  -25.4386   17.0715 C   0  0  0  0  0  0  0  0  0  0  0  0
  -31.0537  -26.5318   20.0589 C   0  0  0  0  0  0  0  0  0  0  0  0
  -30.4753  -25.1112   19.9979 C   0  0  0  0  0  0  0  0  0  0  0  0
  -28.3044  -24.7910   16.3481 C   0  0  0  0  0  0  0  0  0  0  0  0
  -29.0773  -27.4651   21.4167 C   0  0  0  0  0  0  0  0  0  1  0  0
  -32.8609  -21.7885   17.0073 C   0  0  0  0  0  0  0  0  0  0  0  0
  -22.1425  -28.2135   24.2423 C   0  0  1  0  0  0  0  0  0  0  0  0
  -20.4643  -24.9899   23.1643 C   0  0  2  0  0  0  0  0  0  0  0  0
  -30.6024  -27.3767   21.2706 C   0  0  2  0  0  0  0  0  0  0  0  0
  -22.0056  -28.7316   25.7018 C   0  0  0  0  0  0  0  0  0  0  0  0
  -26.1014  -19.1179   20.6718 N   0  0  0  0  0  0  0  0  0  0  0  0
  -30.9405  -24.3105   18.8074 N   0  0  0  0  0  0  0  0  0  0  0  0
  -27.0456  -20.0266   20.3736 N   0  0  0  0  0  0  0  0  0  0  0  0
  -31.1532  -23.5773   16.7894 N   0  3  0  0  0  0  0  0  0  0  0  0
  -23.0192  -29.5649   22.3637 N   0  0  0  0  0  0  0  0  0  0  0  0
  -25.9069  -23.3086   18.7797 N   0  0  0  0  0  0  0  0  0  0  0  0
  -29.3521  -20.2647   19.8901 N   0  0  0  0  0  0  0  0  0  0  0  0
  -28.8762  -15.8202   20.5349 N   0  0  0  0  0  0  0  0  0  0  0  0
  -23.6571  -33.0581   21.5348 N   0  0  0  0  0  0  0  0  0  0  0  0
  -21.2035  -27.1527   23.8942 N   0  0  0  0  0  0  0  0  0  0  0  0
  -27.5767  -23.8828   17.2063 N   0  0  0  0  0  0  0  0  0  0  0  0
  -20.7943  -24.0838   22.0281 N   0  3  0  0  0  0  0  0  0  0  0  0
  -30.3817  -17.4806   20.0501 O   0  0  0  0  0  0  0  0  0  0  0  0
  -24.2132  -31.6284   23.2867 O   0  0  0  0  0  0  0  0  0  0  0  0
  -20.8633  -29.9072   23.1832 O   0  0  0  0  0  0  0  0  0  0  0  0
  -22.8031  -25.5781   23.3120 O   0  0  0  0  0  0  0  0  0  0  0  0
  -26.1342  -25.4798   17.9973 O   0  0  0  0  0  0  0  0  0  0  0  0
  -24.1440  -13.1629   21.7922 O   0  0  0  0  0  0  0  0  0  0  0  0
  -28.4564  -27.6721   20.1486 O   0  0  0  0  0  0  0  0  0  1  0  0
  -25.2528   -8.8329   18.5634 F   0  0  0  0  0  0  0  0  0  0  0  0
  -22.1441  -11.9331   20.3325 F   0  0  0  0  0  0  0  0  0  0  0  0
  1  2  1  0  0  0  0
  1  5  2  0  0  0  0
  2  6  2  0  0  0  0
  3  8  2  0  0  0  0
  3 16  1  0  0  0  0
  4  9  1  0  0  0  0
  4 16  2  0  0  0  0
  5 18  1  0  0  0  0
  6 20  1  0  0  0  0
  7 10  2  0  0  0  0
  7 19  1  0  0  0  0
  8 22  1  0  0  0  0
  9 22  2  0  0  0  0
 10 23  1  0  0  0  0
 11 12  2  0  0  0  0
 11 24  1  0  0  0  0
 12 25  1  0  0  0  0
 13 21  1  0  0  0  0
 13 23  2  0  0  0  0
 14 25  2  0  0  0  0
 14 26  1  0  0  0  0
 15 28  2  0  0  0  0
 15 67  1  0  0  0  0
 16 27  1  0  0  0  0
 17 27  1  0  0  0  0
 17 29  2  0  0  0  0
 17 31  1  0  0  0  0
 18 20  2  0  0  0  0
 18 36  1  0  0  0  0
 19 21  2  0  0  0  0
 19 37  1  0  0  0  0
 20 45  1  0  0  0  0
 21 38  1  0  0  0  0
 22 83  1  0  0  0  0
 23 84  1  0  0  0  0
 24 26  2  0  0  0  0
 24 83  1  0  0  0  0
 25 85  1  0  0  0  0
 26 86  1  0  0  0  0
 27 66  2  0  0  0  0
 28 61  1  0  0  0  0
 28 69  1  0  0  0  0
 29 68  1  0  0  0  0
 29 72  1  0  0  0  0
 30 56  1  0  0  0  0
 30 67  1  0  0  0  0
 30 69  2  0  0  0  0
 31 73  1  0  0  0  0
 31 78  2  0  0  0  0
 32 46  1  0  0  0  0
 32 74  1  0  0  0  0
 32 79  2  0  0  0  0
 33 62  1  0  0  0  0
 33 70  1  0  0  0  0
 33 80  2  0  0  0  0
 34 63  1  0  0  0  0
 34 75  1  0  0  0  0
 34 81  2  0  0  0  0
 35 71  1  0  0  0  0
 35 76  1  0  0  0  0
 35 82  2  0  0  0  0
 36 39  1  0  0  0  0
 37 46  1  0  0  0  0
 38 70  1  0  0  0  0
 39 41  1  0  0  0  0
 40 42  1  0  0  0  0
 40 43  1  0  0  0  0
 41 45  1  0  0  0  0
 42 47  1  0  0  0  0
 43 71  1  0  0  0  0
 44 47  1  0  0  0  0
 44 71  1  0  0  0  0
 45 74  1  0  0  0  0
 46 70  1  0  0  0  0
 47 68  1  0  0  0  0
 48 61  1  0  0  0  0
 49 61  1  0  0  0  0
 50 63  1  0  0  0  0
 51 64  1  0  0  0  0
 52 65  1  0  0  0  0
 53 65  1  0  0  0  0
 54 65  1  0  0  0  0
 55 77  1  0  0  0  0
 56 59  1  0  0  0  0
 57 58  1  0  0  0  0
 57 64  1  0  0  0  0
 58 67  1  0  0  0  0
 59 76  1  0  0  0  0
 60 64  1  0  0  0  0
 60 84  1  0  0  0  0
 62 65  1  0  0  0  0
 62 75  1  0  0  0  0
 63 77  1  0  0  0  0
 66 68  1  0  0  0  0
M  CHG  2  69   1  77   1
M  ISO  4  35 100  60 101  76 100  84 101
M  END
> <Batch ID>
0085

> <Smiles>
CNC(C)C(=O)NC(C(=O)N1Cc2cc([101O:1][101CH2:1]C(C)CCn3cc(C(C)C)nc3CC[100NH:0][100C:0](=O)N3CCCC(n4nc(-c5ccc(Oc6ccc(F)cc6F)cc5)c(C(N)=O)c4N)C3)ccc2CC1C(=O)NC1CCCc2ccccc21)C(C)(C)C

> <Shape>
0.233

> <Color>
0.069

> <Negative vol penalty>
0.000

$$$$

  -OEChem-04052318563D

 84 92  0     1  0  0  0  0  0999 V2000
  -16.7802  -24.9997   23.6687 C   0  0  0  0  0  0  0  0  0  0  0  0
  -17.4672  -24.3481   22.6495 C   0  0  0  0  0  0  0  0  0  0  0  0
  -25.8872  -14.7595   21.3016 C   0  0  0  0  0  0  0  0  0  0  0  0
  -25.2225  -16.0384   19.3627 C   0  0  0  0  0  0  0  0  0  0  0  0
  -17.1005  -26.3175   23.9921 C   0  0  0  0  0  0  0  0  0  0  0  0
  -18.4742  -25.0145   21.9521 C   0  0  0  0  0  0  0  0  0  0  0  0
  -23.6229  -22.5804   19.7000 C   0  0  0  0  0  0  0  0  0  0  0  0
  -24.5763  -14.3077   21.4531 C   0  0  0  0  0  0  0  0  0  0  0  0
  -23.9116  -15.5865   19.5140 C   0  0  0  0  0  0  0  0  0  0  0  0
  -23.9754  -22.1482   18.4222 C   0  0  0  0  0  0  0  0  0  0  0  0
  -22.5660  -11.9798   20.0486 C   0  0  0  0  0  0  0  0  0  0  0  0
  -22.3738  -10.6224   20.3054 C   0  0  0  0  0  0  0  0  0  0  0  0
  -25.0123  -24.2835   17.9925 C   0  0  0  0  0  0  0  0  0  0  0  0
  -21.2861  -11.1712   22.3918 C   0  0  0  0  0  0  0  0  0  0  0  0
  -28.1765  -22.6760   14.4837 C   0  0  0  0  0  0  0  0  0  0  0  0
  -28.4666  -21.3868   16.2412 C   0  0  0  0  0  0  0  0  0  0  0  0
  -26.2104  -15.6249   20.2564 C   0  0  0  0  0  0  0  0  0  0  0  0
  -28.5907  -15.4884   19.3493 C   0  0  0  0  0  0  0  0  0  0  0  0
  -18.1186  -26.9972   23.3049 C   0  0  0  0  0  0  0  0  0  0  0  0
  -23.9535  -23.8734   20.1304 C   0  0  0  0  0  0  0  0  0  0  0  0
  -18.8076  -26.3431   22.2657 C   0  0  0  0  0  0  0  0  0  0  0  0
  -24.6652  -24.7288   19.2772 C   0  0  0  0  0  0  0  0  0  0  0  0
  -27.5729  -21.6470   15.2312 C   0  0  0  0  0  0  0  0  0  0  0  0
  -23.5885  -14.7212   20.5593 C   0  0  0  0  0  0  0  0  0  0  0  0
  -24.6676  -23.0008   17.5672 C   0  0  0  0  0  0  0  0  0  0  0  0
  -22.1184  -12.9330   20.9634 C   0  0  0  0  0  0  0  0  0  0  0  0
  -21.7338  -10.2181   21.4770 C   0  0  0  0  0  0  0  0  0  0  0  0
  -21.4784  -12.5287   22.1350 C   0  0  0  0  0  0  0  0  0  0  0  0
  -27.5642  -16.0924   20.0998 C   0  0  0  0  0  0  0  0  0  0  0  0
  -29.6741  -16.3148   19.5219 C   0  0  0  0  0  0  0  0  0  0  0  0
  -28.5670  -14.2877   18.5661 C   0  0  0  0  0  0  0  0  0  0  0  0
  -22.2946  -26.4254   21.0464 C   0  0  0  0  0  0  0  0  0  0  0  0
  -25.2367  -27.6103   21.7264 C   0  0  0  0  0  0  0  0  0  0  0  0
  -28.5977  -27.5331   21.1395 C   0  0  0  0  0  0  0  0  0  0  0  0
  -30.1965  -22.1252   20.8700 C   0  0  0  0  0  0  0  0  0  0  0  0
  -18.3971  -28.4367   23.6582 C   0  0  0  0  0  0  0  0  0  0  0  0
  -23.5896  -24.3151   21.5214 C   0  0  0  0  0  0  0  0  0  0  0  0
  -25.0616  -26.1194   19.6986 C   0  0  0  0  0  0  0  0  0  0  0  0
  -19.7319  -28.9481   23.1225 C   0  0  0  0  0  0  0  0  0  0  0  0
  -31.5838  -19.3788   22.6613 C   0  0  0  0  0  0  0  0  0  0  0  0
  -19.9085  -28.5494   21.6608 C   0  0  0  0  0  0  0  0  0  0  0  0
  -30.8036  -18.1706   22.1403 C   0  0  0  0  0  0  0  0  0  0  0  0
  -30.6982  -20.6180   22.7708 C   0  0  0  0  0  0  0  0  0  0  0  0
  -29.1943  -19.7649   21.0146 C   0  0  0  0  0  0  0  0  0  0  0  0
  -19.9231  -27.0241   21.5029 C   0  0  1  0  0  0  0  0  0  0  0  0
  -23.5266  -25.8322   21.6693 C   0  0  1  0  0  0  0  0  0  0  0  0
  -30.0585  -18.5051   20.8341 C   0  0  2  0  0  0  0  0  0  0  0  0
  -26.4099  -19.4828   14.6878 C   0  0  0  0  0  0  0  0  0  0  0  0
  -31.0269  -28.0876   21.4381 C   0  0  0  0  0  0  0  0  0  0  0  0
  -24.5223  -30.0288   20.0087 C   0  0  0  0  0  0  0  0  0  0  0  0
  -26.9560  -30.6129   19.9424 C   0  0  0  0  0  0  0  0  0  0  0  0
  -25.7434  -30.5742   22.1220 C   0  0  0  0  0  0  0  0  0  0  0  0
  -30.7396  -24.8852   17.1370 C   0  0  0  0  0  0  0  0  0  0  0  0
  -32.1202  -23.4330   18.6131 C   0  0  0  0  0  0  0  0  0  0  0  0
  -28.9584  -25.3929   23.1516 C   0  0  0  0  0  0  0  0  0  0  0  0
  -30.6988  -22.3438   16.8576 C   0  0  0  0  0  0  0  0  0  0  0  0
  -29.6115  -23.5120   18.8967 C   0  0  0  0  0  0  0  0  0  0  0  0
  -25.2568  -21.1864   16.1471 C   0  0  0  0  0  0  0  0  0  1  0  0
  -26.2319  -20.9752   14.9808 C   0  0  1  0  0  0  0  0  0  0  0  0
  -26.2772  -28.3923   20.9618 C   0  0  1  0  0  0  0  0  0  0  0  0
  -29.7848  -27.4949   22.0850 C   0  0  2  0  0  0  0  0  0  0  0  0
  -25.8657  -29.8766   20.7498 C   0  0  0  0  0  0  0  0  0  0  0  0
  -30.7683  -23.5278   17.8691 C   0  0  0  0  0  0  0  0  0  0  0  0
  -29.3619  -23.0443   14.9768 N   0  0  0  0  0  0  0  0  0  0  0  0
  -27.9601  -17.2157   20.7044 N   0  0  0  0  0  0  0  0  0  0  0  0
  -29.5103  -22.2425   16.0451 N   0  0  0  0  0  0  0  0  0  0  0  0
  -29.2474  -17.3240   20.3340 N   0  0  0  0  0  0  0  0  0  0  0  0
  -24.6774  -26.5072   21.0660 N   0  0  0  0  0  0  0  0  0  0  0  0
  -30.0216  -20.8812   21.4984 N   0  0  0  0  0  0  0  0  0  0  0  0
  -30.9406  -16.2692   19.0568 N   0  0  0  0  0  0  0  0  0  0  0  0
  -27.3718  -13.5591   18.4962 N   0  0  0  0  0  0  0  0  0  0  0  0
  -21.2079  -26.4874   21.8977 N   0  0  0  0  0  0  0  0  0  0  0  0
  -27.5322  -28.2176   21.6849 N   0  0  0  0  0  0  0  0  0  0  0  0
  -29.5250  -22.2899   19.6647 N   0  0  0  0  0  0  0  0  0  0  0  0
  -30.0861  -26.0903   22.4816 N   0  3  0  0  0  0  0  0  0  0  0  0
  -29.5803  -13.8644   17.9598 O   0  0  0  0  0  0  0  0  0  0  0  0
  -22.3280  -26.8005   19.8803 O   0  0  0  0  0  0  0  0  0  0  0  0
  -24.9366  -27.9608   22.8704 O   0  0  0  0  0  0  0  0  0  0  0  0
  -28.6154  -27.0115   20.0268 O   0  0  0  0  0  0  0  0  0  0  0  0
  -30.9032  -23.0207   21.3450 O   0  0  0  0  0  0  0  0  0  0  0  0
  -22.3093  -14.2803   20.7066 O   0  0  0  0  0  0  0  0  0  0  0  0
  -25.0123  -22.5817   16.3192 O   0  0  0  0  0  0  0  0  0  1  0  0
  -21.5479   -8.9145   21.7228 F   0  0  0  0  0  0  0  0  0  0  0  0
  -21.0451  -13.4398   23.0170 F   0  0  0  0  0  0  0  0  0  0  0  0
  1  2  1  0  0  0  0
  1  5  2  0  0  0  0
  2  6  2  0  0  0  0
  3  8  2  0  0  0  0
  3 17  1  0  0  0  0
  4  9  1  0  0  0  0
  4 17  2  0  0  0  0
  5 19  1  0  0  0  0
  6 21  1  0  0  0  0
  7 10  2  0  0  0  0
  7 20  1  0  0  0  0
  8 24  1  0  0  0  0
  9 24  2  0  0  0  0
 10 25  1  0  0  0  0
 11 12  2  0  0  0  0
 11 26  1  0  0  0  0
 12 27  1  0  0  0  0
 13 22  1  0  0  0  0
 13 25  2  0  0  0  0
 14 27  2  0  0  0  0
 14 28  1  0  0  0  0
 15 23  1  0  0  0  0
 15 64  2  0  0  0  0
 16 23  2  0  0  0  0
 16 66  1  0  0  0  0
 17 29  1  0  0  0  0
 18 29  1  0  0  0  0
 18 30  2  0  0  0  0
 18 31  1  0  0  0  0
 19 21  2  0  0  0  0
 19 36  1  0  0  0  0
 20 22  2  0  0  0  0
 20 37  1  0  0  0  0
 21 45  1  0  0  0  0
 22 38  1  0  0  0  0
 23 59  1  0  0  0  0
 24 81  1  0  0  0  0
 25 82  1  0  0  0  0
 26 28  2  0  0  0  0
 26 81  1  0  0  0  0
 27 83  1  0  0  0  0
 28 84  1  0  0  0  0
 29 65  2  0  0  0  0
 30 67  1  0  0  0  0
 30 70  1  0  0  0  0
 31 71  1  0  0  0  0
 31 76  2  0  0  0  0
 32 46  1  0  0  0  0
 32 72  1  0  0  0  0
 32 77  2  0  0  0  0
 33 60  1  0  0  0  0
 33 68  1  0  0  0  0
 33 78  2  0  0  0  0
 34 61  1  0  0  0  0
 34 73  1  0  0  0  0
 34 79  2  0  0  0  0
 35 69  1  0  0  0  0
 35 74  1  0  0  0  0
 35 80  2  0  0  0  0
 36 39  1  0  0  0  0
 37 46  1  0  0  0  0
 38 68  1  0  0  0  0
 39 41  1  0  0  0  0
 40 42  1  0  0  0  0
 40 43  1  0  0  0  0
 41 45  1  0  0  0  0
 42 47  1  0  0  0  0
 43 69  1  0  0  0  0
 44 47  1  0  0  0  0
 44 69  1  0  0  0  0
 45 72  1  0  0  0  0
 46 68  1  0  0  0  0
 47 67  1  0  0  0  0
 48 59  1  0  0  0  0
 49 61  1  0  0  0  0
 50 62  1  0  0  0  0
 51 62  1  0  0  0  0
 52 62  1  0  0  0  0
 53 63  1  0  0  0  0
 54 63  1  0  0  0  0
 55 75  1  0  0  0  0
 56 63  1  0  0  0  0
 56 66  1  0  0  0  0
 57 63  1  0  0  0  0
 57 74  1  0  0  0  0
 58 59  1  0  0  0  0
 58 82  1  0  0  0  0
 60 62  1  0  0  0  0
 60 73  1  0  0  0  0
 61 75  1  0  0  0  0
 64 66  1  0  0  0  0
 65 67  1  0  0  0  0
M  CHG  1  75   1
M  ISO  4  35 100  58 101  74 100  82 101
M  END
> <Batch ID>
0085

> <Smiles>
CNC(C)C(=O)NC(C(=O)N1Cc2cc([101O:1][101CH2:1]C(C)c3cnn(CC(C)(C)C[100NH:0][100C:0](=O)N4CCCC(n5nc(-c6ccc(Oc7ccc(F)cc7F)cc6)c(C(N)=O)c5N)C4)c3)ccc2CC1C(=O)NC1CCCc2ccccc21)C(C)(C)C

> <Shape>
0.251

> <Color>
0.053

> <Negative vol penalty>
0.000

$$$$

  -OEChem-04052318563D

 85 93  0     1  0  0  0  0  0999 V2000
  -23.0192   -8.1472   20.6670 C   0  0  0  0  0  0  0  0  0  0  0  0
  -22.8888   -9.1743   19.7377 C   0  0  0  0  0  0  0  0  0  0  0  0
  -22.5375  -28.5840   20.6017 C   0  0  0  0  0  0  0  0  0  0  0  0
  -23.5082  -26.7622   21.8571 C   0  0  0  0  0  0  0  0  0  0  0  0
  -23.4472   -8.4316   21.9631 C   0  0  0  0  0  0  0  0  0  0  0  0
  -23.1853  -10.4865   20.1043 C   0  0  0  0  0  0  0  0  0  0  0  0
  -25.8233  -16.5762   17.4075 C   0  0  0  0  0  0  0  0  0  0  0  0
  -28.6303  -20.5122   16.4650 C   0  0  0  0  0  0  0  0  0  0  0  0
  -21.2739  -28.2435   21.0846 C   0  0  0  0  0  0  0  0  0  0  0  0
  -22.2446  -26.4217   22.3399 C   0  0  0  0  0  0  0  0  0  0  0  0
  -25.5102  -17.9304   17.2981 C   0  0  0  0  0  0  0  0  0  0  0  0
  -19.4984  -28.6647   23.9311 C   0  0  0  0  0  0  0  0  0  0  0  0
  -18.6783  -29.6973   24.3859 C   0  0  0  0  0  0  0  0  0  0  0  0
  -29.9627  -20.1164   16.4316 C   0  0  0  0  0  0  0  0  0  0  0  0
  -26.3171  -18.2922   19.5424 C   0  0  0  0  0  0  0  0  0  0  0  0
  -17.0209  -29.1108   22.7288 C   0  0  0  0  0  0  0  0  0  0  0  0
  -23.6546  -27.8433   20.9879 C   0  0  0  0  0  0  0  0  0  0  0  0
  -25.8811  -29.0857   21.0710 C   0  0  0  0  0  0  0  0  0  0  0  0
  -23.7584   -9.7467   22.3430 C   0  0  0  0  0  0  0  0  0  0  0  0
  -26.3765  -16.0670   18.5912 C   0  0  0  0  0  0  0  0  0  0  0  0
  -23.6166  -10.7890   21.4071 C   0  0  0  0  0  0  0  0  0  0  0  0
  -26.6387  -16.9317   19.6635 C   0  0  0  0  0  0  0  0  0  0  0  0
  -28.3072  -21.8170   16.8208 C   0  0  0  0  0  0  0  0  0  0  0  0
  -21.1275  -27.1624   21.9537 C   0  0  0  0  0  0  0  0  0  0  0  0
  -25.7544  -18.7881   18.3666 C   0  0  0  0  0  0  0  0  0  0  0  0
  -19.0797  -27.8552   22.8751 C   0  0  0  0  0  0  0  0  0  0  0  0
  -17.4395  -29.9204   23.7847 C   0  0  0  0  0  0  0  0  0  0  0  0
  -17.8410  -28.0783   22.2739 C   0  0  0  0  0  0  0  0  0  0  0  0
  -24.9600  -28.1942   20.4890 C   0  0  0  0  0  0  0  0  0  0  0  0
  -30.9268  -21.0558   16.7600 C   0  0  0  0  0  0  0  0  0  0  0  0
  -29.3453  -22.6802   17.1320 C   0  0  0  0  0  0  0  0  0  0  0  0
  -26.9582  -29.0713   20.2189 C   0  0  0  0  0  0  0  0  0  0  0  0
  -25.7728  -29.8577   22.2743 C   0  0  0  0  0  0  0  0  0  0  0  0
  -25.4651  -13.9203   20.7510 C   0  0  0  0  0  0  0  0  0  0  0  0
  -28.9148  -24.9629   16.2939 C   0  0  0  0  0  0  0  0  0  0  0  0
  -28.4299  -14.4492   21.9563 C   0  0  0  0  0  0  0  0  0  0  0  0
  -31.1074  -16.5450   22.2477 C   0  0  0  0  0  0  0  0  0  0  0  0
  -24.1719  -10.0117   23.7690 C   0  0  0  0  0  0  0  0  0  0  0  0
  -26.7334  -14.6088   18.6837 C   0  0  0  0  0  0  0  0  0  0  0  0
  -27.2500  -16.4386   20.9486 C   0  0  0  0  0  0  0  0  0  0  0  0
  -24.8252  -11.3767   23.9700 C   0  0  0  0  0  0  0  0  0  0  0  0
  -28.1050  -28.3902   15.6320 C   0  0  0  0  0  0  0  0  0  0  0  0
  -24.0146  -12.4645   23.2726 C   0  0  0  0  0  0  0  0  0  0  0  0
  -27.2665  -28.8011   16.8417 C   0  0  0  0  0  0  0  0  0  0  0  0
  -27.8539  -26.9358   15.2466 C   0  0  0  0  0  0  0  0  0  0  0  0
  -27.2296  -26.3747   17.5740 C   0  0  0  0  0  0  0  0  0  0  0  0
  -23.9524  -12.2218   21.7598 C   0  0  1  0  0  0  0  0  0  0  0  0
  -26.8168  -14.1041   20.1210 C   0  0  1  0  0  0  0  0  0  0  0  0
  -27.4760  -27.8282   18.0156 C   0  0  2  0  0  0  0  0  0  0  0  0
  -32.3670  -20.6656   16.7329 C   0  0  0  0  0  0  0  0  0  0  0  0
  -33.3661  -16.7169   23.3276 C   0  0  0  0  0  0  0  0  0  0  0  0
  -31.3273  -24.7925   20.6518 C   0  0  0  0  0  0  0  0  0  0  0  0
  -28.9445  -24.0332   20.6105 C   0  0  0  0  0  0  0  0  0  0  0  0
  -27.0996  -15.0217   24.6419 C   0  0  0  0  0  0  0  0  0  0  0  0
  -29.2368  -16.0863   25.3948 C   0  0  0  0  0  0  0  0  0  0  0  0
  -29.1976  -13.6679   24.7845 C   0  0  0  0  0  0  0  0  0  0  0  0
  -32.4707  -16.7646   19.6301 C   0  0  0  0  0  0  0  0  0  0  0  0
  -26.8639  -22.2518   16.8602 C   0  0  0  0  0  0  0  0  0  0  0  0
  -26.2906  -22.3569   18.2750 C   0  0  0  0  0  0  0  0  0  0  0  0
  -30.1129  -24.7396   18.4519 C   0  0  0  0  0  0  0  0  0  0  0  0
  -26.2512  -21.0227   19.0111 C   0  0  0  0  0  0  0  0  0  1  0  0
  -29.0581  -24.0942   17.5181 C   0  0  2  0  0  0  0  0  0  0  0  0
  -29.0201  -15.4096   22.9604 C   0  0  1  0  0  0  0  0  0  0  0  0
  -32.5972  -16.3050   22.0819 C   0  0  2  0  0  0  0  0  0  0  0  0
  -30.2598  -24.0629   19.8311 C   0  0  0  0  0  0  0  0  0  0  0  0
  -28.6252  -15.0556   24.4220 C   0  0  0  0  0  0  0  0  0  0  0  0
  -25.4124  -27.6530   19.3548 N   0  0  0  0  0  0  0  0  0  0  0  0
  -30.6515  -22.3321   17.1106 N   0  0  0  0  0  0  0  0  0  0  0  0
  -26.6294  -28.2060   19.2171 N   0  0  0  0  0  0  0  0  0  0  0  0
  -27.5754  -15.0034   20.9927 N   0  0  0  0  0  0  0  0  0  0  0  0
  -28.0413  -26.0460   16.3939 N   0  0  0  0  0  0  0  0  0  0  0  0
  -28.1449  -29.7145   20.2361 N   0  0  0  0  0  0  0  0  0  0  0  0
  -24.5977  -29.7541   23.0311 N   0  0  0  0  0  0  0  0  0  0  0  0
  -25.1943  -12.6201   21.1325 N   0  0  0  0  0  0  0  0  0  0  0  0
  -30.4584  -15.4224   22.7165 N   0  0  0  0  0  0  0  0  0  0  0  0
  -33.1221  -17.0857   20.9260 N   0  3  0  0  0  0  0  0  0  0  0  0
  -26.6842  -30.6294   22.6581 O   0  0  0  0  0  0  0  0  0  0  0  0
  -24.7234  -14.8868   20.8826 O   0  0  0  0  0  0  0  0  0  0  0  0
  -29.5629  -24.6873   15.2808 O   0  0  0  0  0  0  0  0  0  0  0  0
  -28.7221  -13.2524   22.0200 O   0  0  0  0  0  0  0  0  0  0  0  0
  -30.5736  -17.6218   21.9909 O   0  0  0  0  0  0  0  0  0  0  0  0
  -19.8947  -26.8300   22.4252 O   0  0  0  0  0  0  0  0  0  0  0  0
  -25.4491  -20.1101   18.2627 O   0  0  0  0  0  0  0  0  0  1  0  0
  -16.6515  -30.9110   24.2226 F   0  0  0  0  0  0  0  0  0  0  0  0
  -17.4329  -27.3031   21.2598 F   0  0  0  0  0  0  0  0  0  0  0  0
  1  2  1  0  0  0  0
  1  5  2  0  0  0  0
  2  6  2  0  0  0  0
  3  9  2  0  0  0  0
  3 17  1  0  0  0  0
  4 10  1  0  0  0  0
  4 17  2  0  0  0  0
  5 19  1  0  0  0  0
  6 21  1  0  0  0  0
  7 11  2  0  0  0  0
  7 20  1  0  0  0  0
  8 14  2  0  0  0  0
  8 23  1  0  0  0  0
  9 24  1  0  0  0  0
 10 24  2  0  0  0  0
 11 25  1  0  0  0  0
 12 13  2  0  0  0  0
 12 26  1  0  0  0  0
 13 27  1  0  0  0  0
 14 30  1  0  0  0  0
 15 22  1  0  0  0  0
 15 25  2  0  0  0  0
 16 27  2  0  0  0  0
 16 28  1  0  0  0  0
 17 29  1  0  0  0  0
 18 29  1  0  0  0  0
 18 32  2  0  0  0  0
 18 33  1  0  0  0  0
 19 21  2  0  0  0  0
 19 38  1  0  0  0  0
 20 22  2  0  0  0  0
 20 39  1  0  0  0  0
 21 47  1  0  0  0  0
 22 40  1  0  0  0  0
 23 31  2  0  0  0  0
 23 58  1  0  0  0  0
 24 82  1  0  0  0  0
 25 83  1  0  0  0  0
 26 28  2  0  0  0  0
 26 82  1  0  0  0  0
 27 84  1  0  0  0  0
 28 85  1  0  0  0  0
 29 67  2  0  0  0  0
 30 50  1  0  0  0  0
 30 68  2  0  0  0  0
 31 62  1  0  0  0  0
 31 68  1  0  0  0  0
 32 69  1  0  0  0  0
 32 72  1  0  0  0  0
 33 73  1  0  0  0  0
 33 77  2  0  0  0  0
 34 48  1  0  0  0  0
 34 74  1  0  0  0  0
 34 78  2  0  0  0  0
 35 62  1  0  0  0  0
 35 71  1  0  0  0  0
 35 79  2  0  0  0  0
 36 63  1  0  0  0  0
 36 70  1  0  0  0  0
 36 80  2  0  0  0  0
 37 64  1  0  0  0  0
 37 75  1  0  0  0  0
 37 81  2  0  0  0  0
 38 41  1  0  0  0  0
 39 48  1  0  0  0  0
 40 70  1  0  0  0  0
 41 43  1  0  0  0  0
 42 44  1  0  0  0  0
 42 45  1  0  0  0  0
 43 47  1  0  0  0  0
 44 49  1  0  0  0  0
 45 71  1  0  0  0  0
 46 49  1  0  0  0  0
 46 71  1  0  0  0  0
 47 74  1  0  0  0  0
 48 70  1  0  0  0  0
 49 69  1  0  0  0  0
 51 64  1  0  0  0  0
 52 65  1  0  0  0  0
 53 65  1  0  0  0  0
 54 66  1  0  0  0  0
 55 66  1  0  0  0  0
 56 66  1  0  0  0  0
 57 76  1  0  0  0  0
 58 59  1  0  0  0  0
 59 61  1  0  0  0  0
 60 62  1  0  0  0  0
 60 65  1  0  0  0  0
 61 83  1  0  0  0  0
 63 66  1  0  0  0  0
 63 75  1  0  0  0  0
 64 76  1  0  0  0  0
 67 69  1  0  0  0  0
M  CHG  1  76   1
M  ISO  4  35 100  61 101  62 100  83 101
M  END
> <Batch ID>
0085

> <Smiles>
CNC(C)C(=O)NC(C(=O)N1Cc2cc([101O:1][101CH2:1]CCc3ccc(C)nc3[100CH:0](CC(C)C)[100C:0](=O)N3CCCC(n4nc(-c5ccc(Oc6ccc(F)cc6F)cc5)c(C(N)=O)c4N)C3)ccc2CC1C(=O)NC1CCCc2ccccc21)C(C)(C)C

> <Shape>
0.254

> <Color>
0.058

> <Negative vol penalty>
0.000

$$$$

  -OEChem-04052318563D

 87 95  0     1  0  0  0  0  0999 V2000
  -31.3894  -32.9226   18.8276 C   0  0  0  0  0  0  0  0  0  0  0  0
  -30.9510  -31.6732   19.2546 C   0  0  0  0  0  0  0  0  0  0  0  0
  -24.5923   -9.3402   21.3317 C   0  0  0  0  0  0  0  0  0  0  0  0
  -22.6950  -10.6650   20.6371 C   0  0  0  0  0  0  0  0  0  0  0  0
  -30.8174  -34.0790   19.3562 C   0  0  0  0  0  0  0  0  0  0  0  0
  -29.9409  -31.5796   20.2114 C   0  0  0  0  0  0  0  0  0  0  0  0
  -26.4505  -28.1100   19.0182 C   0  0  0  0  0  0  0  0  0  0  0  0
  -23.7509   -8.2492   21.5490 C   0  0  0  0  0  0  0  0  0  0  0  0
  -21.8536   -9.5740   20.8544 C   0  0  0  0  0  0  0  0  0  0  0  0
  -26.7780  -26.7737   19.2436 C   0  0  0  0  0  0  0  0  0  0  0  0
  -22.2090   -5.8833   19.6894 C   0  0  0  0  0  0  0  0  0  0  0  0
  -22.6246   -4.6394   19.2143 C   0  0  0  0  0  0  0  0  0  0  0  0
  -25.5040  -26.8132   21.2917 C   0  0  0  0  0  0  0  0  0  0  0  0
  -22.5690   -3.7614   21.4644 C   0  0  0  0  0  0  0  0  0  0  0  0
  -24.0644  -10.5482   20.8758 C   0  0  0  0  0  0  0  0  0  0  0  0
  -25.6023  -12.0094   19.4589 C   0  0  0  0  0  0  0  0  0  0  0  0
  -29.7931  -33.9994   20.3129 C   0  0  0  0  0  0  0  0  0  0  0  0
  -25.6549  -28.8123   19.9349 C   0  0  0  0  0  0  0  0  0  0  0  0
  -29.3555  -32.7360   20.7543 C   0  0  0  0  0  0  0  0  0  0  0  0
  -25.1657  -28.1576   21.0743 C   0  0  0  0  0  0  0  0  0  0  0  0
  -22.3816   -8.3660   21.3104 C   0  0  0  0  0  0  0  0  0  0  0  0
  -26.3071  -26.1259   20.3820 C   0  0  0  0  0  0  0  0  0  0  0  0
  -21.9735   -6.0662   21.0520 C   0  0  0  0  0  0  0  0  0  0  0  0
  -22.8046   -3.5785   20.1017 C   0  0  0  0  0  0  0  0  0  0  0  0
  -22.1535   -5.0053   21.9395 C   0  0  0  0  0  0  0  0  0  0  0  0
  -24.9329  -11.6758   20.6516 C   0  0  0  0  0  0  0  0  0  0  0  0
  -26.9815  -21.5374   25.4655 C   0  0  0  0  0  0  0  0  0  0  0  0
  -26.6313  -20.6593   24.4671 C   0  0  0  0  0  0  0  0  0  0  0  0
  -26.2921  -13.1577   19.7620 C   0  0  0  0  0  0  0  0  0  0  0  0
  -28.5882  -21.5918   24.0705 C   0  0  0  0  0  0  0  0  0  0  0  0
  -25.6005  -11.3410   18.1905 C   0  0  0  0  0  0  0  0  0  0  0  0
  -26.0803  -31.3663   21.7787 C   0  0  0  0  0  0  0  0  0  0  0  0
  -22.9242  -30.9561   22.4057 C   0  0  0  0  0  0  0  0  0  0  0  0
  -20.2441  -28.8466   22.5238 C   0  0  0  0  0  0  0  0  0  0  0  0
  -25.4335  -17.4470   23.5662 C   0  0  0  0  0  0  0  0  0  0  0  0
  -29.2380  -35.2774   20.8902 C   0  0  0  0  0  0  0  0  0  0  0  0
  -25.2885  -30.2456   19.6637 C   0  0  0  0  0  0  0  0  0  0  0  0
  -24.2915  -28.8610   22.0790 C   0  0  0  0  0  0  0  0  0  0  0  0
  -27.9131  -35.0890   21.6246 C   0  0  0  0  0  0  0  0  0  0  0  0
  -28.3432  -15.4513   23.4150 C   0  0  0  0  0  0  0  0  0  0  0  0
  -27.9865  -33.8846   22.5577 C   0  0  0  0  0  0  0  0  0  0  0  0
  -27.8582  -14.2728   22.5720 C   0  0  0  0  0  0  0  0  0  0  0  0
  -27.2799  -15.9230   24.4086 C   0  0  0  0  0  0  0  0  0  0  0  0
  -25.4879  -15.0513   22.9419 C   0  0  0  0  0  0  0  0  0  0  0  0
  -28.2449  -32.5932   21.7722 C   0  0  1  0  0  0  0  0  0  0  0  0
  -24.8967  -31.0109   20.9240 C   0  0  1  0  0  0  0  0  0  0  0  0
  -26.5156  -14.5967   21.8942 C   0  0  2  0  0  0  0  0  0  0  0  0
  -26.2299  -21.8875   26.6812 C   0  0  0  0  0  0  0  0  0  0  0  0
  -29.3354  -24.3636   23.0676 C   0  0  0  0  0  0  0  0  0  0  0  0
  -17.8050  -28.7914   23.1113 C   0  0  0  0  0  0  0  0  0  0  0  0
  -23.6410  -30.9602   25.3716 C   0  0  0  0  0  0  0  0  0  0  0  0
  -21.3899  -29.9720   25.8455 C   0  0  0  0  0  0  0  0  0  0  0  0
  -21.5638  -32.2295   24.7986 C   0  0  0  0  0  0  0  0  0  0  0  0
  -25.9586  -18.0770   25.9604 C   0  0  0  0  0  0  0  0  0  0  0  0
  -19.4793  -28.0772   19.7702 C   0  0  0  0  0  0  0  0  0  0  0  0
  -25.4434  -19.8072   24.2790 C   0  0  0  0  0  0  0  0  0  0  0  0
  -29.8517  -21.8883   23.3641 C   0  0  0  0  0  0  0  0  0  0  0  0
  -30.3288  -23.3369   23.5880 C   0  0  0  0  0  0  0  0  0  0  0  0
  -27.2976  -21.9723   20.9105 C   0  0  0  0  0  0  0  0  0  0  0  0
  -26.9148  -20.5176   21.1905 C   0  0  0  0  0  0  0  0  0  0  0  0
  -26.4564  -22.5586   19.7729 C   0  0  0  0  0  0  0  0  0  0  0  0
  -27.7829  -19.9189   22.2995 C   0  0  0  0  0  0  0  0  0  0  0  0
  -26.8377  -23.9999   19.4576 C   0  0  0  0  0  0  0  0  0  1  0  0
  -22.1294  -30.1812   23.4288 C   0  0  1  0  0  0  0  0  0  0  0  0
  -18.8259  -28.9896   22.0016 C   0  0  2  0  0  0  0  0  0  0  0  0
  -22.1991  -30.8227   24.8434 C   0  0  0  0  0  0  0  0  0  0  0  0
  -25.1758  -12.5420   21.6388 N   0  0  0  0  0  0  0  0  0  0  0  0
  -28.2006  -22.1148   25.2125 N   0  0  0  0  0  0  0  0  0  0  0  0
  -27.6700  -20.7052   23.5805 N   0  0  0  0  0  0  0  0  0  0  0  0
  -26.0055  -13.4313   21.0671 N   0  0  0  0  0  0  0  0  0  0  0  0
  -23.9662  -30.2638   21.7726 N   0  0  0  0  0  0  0  0  0  0  0  0
  -26.0024  -16.1752   23.7281 N   0  0  0  0  0  0  0  0  0  0  0  0
  -27.1099  -13.9500   19.0369 N   0  0  0  0  0  0  0  0  0  0  0  0
  -24.8373  -10.1738   18.0513 N   0  0  0  0  0  0  0  0  0  0  0  0
  -27.0284  -32.1377   21.1342 N   0  0  0  0  0  0  0  0  0  0  0  0
  -20.7779  -30.0634   22.8920 N   0  0  0  0  0  0  0  0  0  0  0  0
  -25.7018  -18.4017   24.5587 N   0  0  0  0  0  0  0  0  0  0  0  0
  -18.5625  -27.9824   20.9353 N   0  3  0  0  0  0  0  0  0  0  0  0
  -26.2693  -11.7573   17.2143 O   0  0  0  0  0  0  0  0  0  0  0  0
  -26.1289  -30.9712   22.9377 O   0  0  0  0  0  0  0  0  0  0  0  0
  -22.6268  -32.1301   22.1716 O   0  0  0  0  0  0  0  0  0  0  0  0
  -20.8194  -27.7632   22.6010 O   0  0  0  0  0  0  0  0  0  0  0  0
  -24.7178  -17.7142   22.5923 O   0  0  0  0  0  0  0  0  0  0  0  0
  -21.5603   -7.3015   21.5221 O   0  0  0  0  0  0  0  0  0  0  0  0
  -26.6258  -24.8218   20.6048 O   0  0  0  0  0  0  0  0  0  1  0  0
  -23.2021   -2.3836   19.6451 F   0  0  0  0  0  0  0  0  0  0  0  0
  -21.9277   -5.1746   23.2495 F   0  0  0  0  0  0  0  0  0  0  0  0
  1  2  1  0  0  0  0
  1  5  2  0  0  0  0
  2  6  2  0  0  0  0
  3  8  2  0  0  0  0
  3 15  1  0  0  0  0
  4  9  1  0  0  0  0
  4 15  2  0  0  0  0
  5 17  1  0  0  0  0
  6 19  1  0  0  0  0
  7 10  2  0  0  0  0
  7 18  1  0  0  0  0
  8 21  1  0  0  0  0
  9 21  2  0  0  0  0
 10 22  1  0  0  0  0
 11 12  2  0  0  0  0
 11 23  1  0  0  0  0
 12 24  1  0  0  0  0
 13 20  1  0  0  0  0
 13 22  2  0  0  0  0
 14 24  2  0  0  0  0
 14 25  1  0  0  0  0
 15 26  1  0  0  0  0
 16 26  1  0  0  0  0
 16 29  2  0  0  0  0
 16 31  1  0  0  0  0
 17 19  2  0  0  0  0
 17 36  1  0  0  0  0
 18 20  2  0  0  0  0
 18 37  1  0  0  0  0
 19 45  1  0  0  0  0
 20 38  1  0  0  0  0
 21 84  1  0  0  0  0
 22 85  1  0  0  0  0
 23 25  2  0  0  0  0
 23 84  1  0  0  0  0
 24 86  1  0  0  0  0
 25 87  1  0  0  0  0
 26 67  2  0  0  0  0
 27 28  2  0  0  0  0
 27 48  1  0  0  0  0
 27 68  1  0  0  0  0
 28 56  1  0  0  0  0
 28 69  1  0  0  0  0
 29 70  1  0  0  0  0
 29 73  1  0  0  0  0
 30 57  1  0  0  0  0
 30 68  2  0  0  0  0
 30 69  1  0  0  0  0
 31 74  1  0  0  0  0
 31 79  2  0  0  0  0
 32 46  1  0  0  0  0
 32 75  1  0  0  0  0
 32 80  2  0  0  0  0
 33 64  1  0  0  0  0
 33 71  1  0  0  0  0
 33 81  2  0  0  0  0
 34 65  1  0  0  0  0
 34 76  1  0  0  0  0
 34 82  2  0  0  0  0
 35 72  1  0  0  0  0
 35 77  1  0  0  0  0
 35 83  2  0  0  0  0
 36 39  1  0  0  0  0
 37 46  1  0  0  0  0
 38 71  1  0  0  0  0
 39 41  1  0  0  0  0
 40 42  1  0  0  0  0
 40 43  1  0  0  0  0
 41 45  1  0  0  0  0
 42 47  1  0  0  0  0
 43 72  1  0  0  0  0
 44 47  1  0  0  0  0
 44 72  1  0  0  0  0
 45 75  1  0  0  0  0
 46 71  1  0  0  0  0
 47 70  1  0  0  0  0
 49 58  1  0  0  0  0
 50 65  1  0  0  0  0
 51 66  1  0  0  0  0
 52 66  1  0  0  0  0
 53 66  1  0  0  0  0
 54 77  1  0  0  0  0
 55 78  1  0  0  0  0
 56 77  1  0  0  0  0
 57 58  1  0  0  0  0
 59 60  1  0  0  0  0
 59 61  1  0  0  0  0
 60 62  1  0  0  0  0
 61 63  1  0  0  0  0
 62 69  1  0  0  0  0
 63 85  1  0  0  0  0
 64 66  1  0  0  0  0
 64 76  1  0  0  0  0
 65 78  1  0  0  0  0
 67 70  1  0  0  0  0
M  CHG  1  78   1
M  ISO  4  35 100  63 101  77 100  85 101
M  END
> <Batch ID>
0085

> <Smiles>
CCCc1nc(C)c(C[100N:0](C)[100C:0](=O)N2CCCC(n3nc(-c4ccc(Oc5ccc(F)cc5F)cc4)c(C(N)=O)c3N)C2)n1CCCC[101CH2:1][101O:1]c1ccc2c(c1)CN(C(=O)C(NC(=O)C(C)NC)C(C)(C)C)C(C(=O)NC1CCCc3ccccc31)C2

> <Shape>
0.209

> <Color>
0.084

> <Negative vol penalty>
0.000

$$$$

  -OEChem-04052318563D

 83 91  0     1  0  0  0  0  0999 V2000
  -27.5636  -31.4170   16.1389 C   0  0  0  0  0  0  0  0  0  0  0  0
  -27.3822  -30.0739   15.8246 C   0  0  0  0  0  0  0  0  0  0  0  0
  -24.4653   -9.6027   21.4541 C   0  0  0  0  0  0  0  0  0  0  0  0
  -24.8350  -10.6976   23.5758 C   0  0  0  0  0  0  0  0  0  0  0  0
  -27.4706  -31.8403   17.4641 C   0  0  0  0  0  0  0  0  0  0  0  0
  -27.1088  -29.1532   16.8355 C   0  0  0  0  0  0  0  0  0  0  0  0
  -23.4789  -23.0955   18.0371 C   0  0  0  0  0  0  0  0  0  0  0  0
  -24.1646   -8.4144   22.1197 C   0  0  0  0  0  0  0  0  0  0  0  0
  -24.5343   -9.5092   24.2414 C   0  0  0  0  0  0  0  0  0  0  0  0
  -23.6662  -21.8100   18.5434 C   0  0  0  0  0  0  0  0  0  0  0  0
  -22.9482   -5.1882   23.2719 C   0  0  0  0  0  0  0  0  0  0  0  0
  -21.8336   -4.4683   22.8420 C   0  0  0  0  0  0  0  0  0  0  0  0
  -23.4500  -22.6687   20.7873 C   0  0  0  0  0  0  0  0  0  0  0  0
  -27.3386  -21.2760   20.9873 C   0  0  0  0  0  0  0  0  0  0  0  0
  -20.4179   -6.3610   23.3431 C   0  0  0  0  0  0  0  0  0  0  0  0
  -24.8005  -10.7443   22.1822 C   0  0  0  0  0  0  0  0  0  0  0  0
  -24.2133  -12.9910   21.1262 C   0  0  0  0  0  0  0  0  0  0  0  0
  -27.1863  -30.9259   18.4906 C   0  0  0  0  0  0  0  0  0  0  0  0
  -23.2863  -24.1808   18.9040 C   0  0  0  0  0  0  0  0  0  0  0  0
  -27.0132  -29.5645   18.1758 C   0  0  0  0  0  0  0  0  0  0  0  0
  -23.2580  -23.9665   20.2894 C   0  0  0  0  0  0  0  0  0  0  0  0
  -27.3785  -19.8950   21.0664 C   0  0  0  0  0  0  0  0  0  0  0  0
  -24.1991   -8.3676   23.5133 C   0  0  0  0  0  0  0  0  0  0  0  0
  -23.6546  -21.5969   19.9187 C   0  0  0  0  0  0  0  0  0  0  0  0
  -22.7978   -6.4945   23.7375 C   0  0  0  0  0  0  0  0  0  0  0  0
  -20.5684   -5.0547   22.8776 C   0  0  0  0  0  0  0  0  0  0  0  0
  -21.5326   -7.0809   23.7730 C   0  0  0  0  0  0  0  0  0  0  0  0
  -25.1118  -11.9720   21.4952 C   0  0  0  0  0  0  0  0  0  0  0  0
  -28.4319  -21.9241   20.4486 C   0  0  0  0  0  0  0  0  0  0  0  0
  -28.5089  -19.2536   20.6012 C   0  0  0  0  0  0  0  0  0  0  0  0
  -24.9976  -13.9320   20.5049 C   0  0  0  0  0  0  0  0  0  0  0  0
  -22.7964  -13.0792   21.3271 C   0  0  0  0  0  0  0  0  0  0  0  0
  -24.8627  -26.8732   19.5119 C   0  0  0  0  0  0  0  0  0  0  0  0
  -22.2865  -27.5013   21.3803 C   0  0  0  0  0  0  0  0  0  0  0  0
  -19.6497  -26.2951   23.1801 C   0  0  0  0  0  0  0  0  0  0  0  0
  -29.6234  -17.0210   20.2548 C   0  0  0  0  0  0  0  0  0  0  0  0
  -27.1422  -31.4229   19.9138 C   0  0  0  0  0  0  0  0  0  0  0  0
  -23.0591  -25.5570   18.3412 C   0  0  0  0  0  0  0  0  0  0  0  0
  -23.0348  -25.0948   21.2619 C   0  0  0  0  0  0  0  0  0  0  0  0
  -26.4785  -30.4452   20.8801 C   0  0  0  0  0  0  0  0  0  0  0  0
  -29.8140  -13.7082   18.9642 C   0  0  0  0  0  0  0  0  0  0  0  0
  -27.0089  -29.0323   20.6583 C   0  0  0  0  0  0  0  0  0  0  0  0
  -28.5337  -13.0450   19.4772 C   0  0  0  0  0  0  0  0  0  0  0  0
  -30.4016  -14.6760   19.9897 C   0  0  0  0  0  0  0  0  0  0  0  0
  -28.1857  -15.0257   21.0078 C   0  0  0  0  0  0  0  0  0  0  0  0
  -26.6905  -28.5396   19.2414 C   0  0  1  0  0  0  0  0  0  0  0  0
  -23.3848  -26.6694   19.3331 C   0  0  1  0  0  0  0  0  0  0  0  0
  -27.5213  -14.0909   19.9839 C   0  0  2  0  0  0  0  0  0  0  0  0
  -28.5287  -23.8957   18.8811 C   0  0  0  0  0  0  0  0  0  0  0  0
  -29.5631  -24.0566   21.1744 C   0  0  0  0  0  0  0  0  0  0  0  0
  -17.7438  -27.0487   24.6282 C   0  0  0  0  0  0  0  0  0  0  0  0
  -24.2309  -27.9918   23.6800 C   0  0  0  0  0  0  0  0  0  0  0  0
  -22.3002  -27.7966   25.2620 C   0  0  0  0  0  0  0  0  0  0  0  0
  -22.3326  -29.6151   23.5547 C   0  0  0  0  0  0  0  0  0  0  0  0
  -17.6410  -25.1523   21.3313 C   0  0  0  0  0  0  0  0  0  0  0  0
  -26.2055  -19.1474   21.6483 C   0  0  0  0  0  0  0  0  0  0  0  0
  -25.3246  -18.4690   20.5970 C   0  0  0  0  0  0  0  0  0  0  0  0
  -24.6486  -19.4532   19.6495 C   0  0  0  0  0  0  0  0  0  1  0  0
  -28.4397  -23.4104   20.3409 C   0  0  0  0  0  0  0  0  0  0  0  0
  -21.9183  -27.2319   22.8194 C   0  0  1  0  0  0  0  0  0  0  0  0
  -18.1865  -26.6977   23.2162 C   0  0  2  0  0  0  0  0  0  0  0  0
  -22.7017  -28.1377   23.8110 C   0  0  0  0  0  0  0  0  0  0  0  0
  -26.3705  -12.2403   21.1380 N   0  0  0  0  0  0  0  0  0  0  0  0
  -29.5250  -21.2707   20.0011 N   0  0  0  0  0  0  0  0  0  0  0  0
  -29.5640  -19.9135   20.0785 N   0  0  0  0  0  0  0  0  0  0  0  0
  -26.2686  -13.4384   20.5380 N   0  0  0  0  0  0  0  0  0  0  0  0
  -22.8238  -26.4230   20.6630 N   0  0  0  0  0  0  0  0  0  0  0  0
  -29.3868  -15.6400   20.4207 N   0  0  0  0  0  0  0  0  0  0  0  0
  -24.7171  -15.1250   19.9390 N   0  0  0  0  0  0  0  0  0  0  0  0
  -22.1478  -12.0244   21.9836 N   0  0  0  0  0  0  0  0  0  0  0  0
  -28.5741  -17.8399   20.6710 N   0  0  0  0  0  0  0  0  0  0  0  0
  -25.3054  -28.1306   19.1480 N   0  0  0  0  0  0  0  0  0  0  0  0
  -20.4683  -27.3694   22.9023 N   0  0  0  0  0  0  0  0  0  0  0  0
  -17.3304  -25.5840   22.7185 N   0  3  0  0  0  0  0  0  0  0  0  0
  -22.1229  -14.0566   20.9215 O   0  0  0  0  0  0  0  0  0  0  0  0
  -25.5503  -25.9579   19.9492 O   0  0  0  0  0  0  0  0  0  0  0  0
  -22.0975  -28.6250   20.9079 O   0  0  0  0  0  0  0  0  0  0  0  0
  -20.0289  -25.1436   23.3820 O   0  0  0  0  0  0  0  0  0  0  0  0
  -30.6680  -17.4449   19.7536 O   0  0  0  0  0  0  0  0  0  0  0  0
  -23.9055   -7.2082   24.1631 O   0  0  0  0  0  0  0  0  0  0  0  0
  -23.8378  -20.3433   20.4155 O   0  0  0  0  0  0  0  0  0  1  0  0
  -19.4983   -4.3638   22.4633 F   0  0  0  0  0  0  0  0  0  0  0  0
  -21.3820   -8.3359   24.2181 F   0  0  0  0  0  0  0  0  0  0  0  0
  1  2  1  0  0  0  0
  1  5  2  0  0  0  0
  2  6  2  0  0  0  0
  3  8  2  0  0  0  0
  3 16  1  0  0  0  0
  4  9  1  0  0  0  0
  4 16  2  0  0  0  0
  5 18  1  0  0  0  0
  6 20  1  0  0  0  0
  7 10  2  0  0  0  0
  7 19  1  0  0  0  0
  8 23  1  0  0  0  0
  9 23  2  0  0  0  0
 10 24  1  0  0  0  0
 11 12  2  0  0  0  0
 11 25  1  0  0  0  0
 12 26  1  0  0  0  0
 13 21  1  0  0  0  0
 13 24  2  0  0  0  0
 14 22  1  0  0  0  0
 14 29  2  0  0  0  0
 15 26  2  0  0  0  0
 15 27  1  0  0  0  0
 16 28  1  0  0  0  0
 17 28  1  0  0  0  0
 17 31  2  0  0  0  0
 17 32  1  0  0  0  0
 18 20  2  0  0  0  0
 18 37  1  0  0  0  0
 19 21  2  0  0  0  0
 19 38  1  0  0  0  0
 20 46  1  0  0  0  0
 21 39  1  0  0  0  0
 22 30  2  0  0  0  0
 22 56  1  0  0  0  0
 23 80  1  0  0  0  0
 24 81  1  0  0  0  0
 25 27  2  0  0  0  0
 25 80  1  0  0  0  0
 26 82  1  0  0  0  0
 27 83  1  0  0  0  0
 28 63  2  0  0  0  0
 29 59  1  0  0  0  0
 29 64  1  0  0  0  0
 30 65  1  0  0  0  0
 30 71  1  0  0  0  0
 31 66  1  0  0  0  0
 31 69  1  0  0  0  0
 32 70  1  0  0  0  0
 32 75  2  0  0  0  0
 33 47  1  0  0  0  0
 33 72  1  0  0  0  0
 33 76  2  0  0  0  0
 34 60  1  0  0  0  0
 34 67  1  0  0  0  0
 34 77  2  0  0  0  0
 35 61  1  0  0  0  0
 35 73  1  0  0  0  0
 35 78  2  0  0  0  0
 36 68  1  0  0  0  0
 36 71  1  0  0  0  0
 36 79  2  0  0  0  0
 37 40  1  0  0  0  0
 38 47  1  0  0  0  0
 39 67  1  0  0  0  0
 40 42  1  0  0  0  0
 41 43  1  0  0  0  0
 41 44  1  0  0  0  0
 42 46  1  0  0  0  0
 43 48  1  0  0  0  0
 44 68  1  0  0  0  0
 45 48  1  0  0  0  0
 45 68  1  0  0  0  0
 46 72  1  0  0  0  0
 47 67  1  0  0  0  0
 48 66  1  0  0  0  0
 49 59  1  0  0  0  0
 50 59  1  0  0  0  0
 51 61  1  0  0  0  0
 52 62  1  0  0  0  0
 53 62  1  0  0  0  0
 54 62  1  0  0  0  0
 55 74  1  0  0  0  0
 56 57  1  0  0  0  0
 57 58  1  0  0  0  0
 58 81  1  0  0  0  0
 60 62  1  0  0  0  0
 60 73  1  0  0  0  0
 61 74  1  0  0  0  0
 63 66  1  0  0  0  0
 64 65  2  0  0  0  0
M  CHG  1  74   1
M  ISO  4  36 100  58 101  71 100  81 101
M  END
> <Batch ID>
0085

> <Smiles>
CNC(C)C(=O)NC(C(=O)N1Cc2cc([101O:1][101CH2:1]CCc3cc(C(C)C)nnc3[100NH:0][100C:0](=O)N3CCCC(n4nc(-c5ccc(Oc6ccc(F)cc6F)cc5)c(C(N)=O)c4N)C3)ccc2CC1C(=O)NC1CCCc2ccccc21)C(C)(C)C

> <Shape>
0.272

> <Color>
0.122

> <Negative vol penalty>
0.000

$$$$

  -OEChem-04052318563D

 81 89  0     1  0  0  0  0  0999 V2000
  -23.2346  -17.2111   27.5594 C   0  0  0  0  0  0  0  0  0  0  0  0
  -24.3403  -17.9983   27.2543 C   0  0  0  0  0  0  0  0  0  0  0  0
  -25.7279  -13.6187   21.4587 C   0  0  0  0  0  0  0  0  0  0  0  0
  -24.8081  -14.4473   19.3840 C   0  0  0  0  0  0  0  0  0  0  0  0
  -22.0311  -17.4098   26.8840 C   0  0  0  0  0  0  0  0  0  0  0  0
  -24.2435  -18.9840   26.2727 C   0  0  0  0  0  0  0  0  0  0  0  0
  -27.0705  -24.4164   26.2192 C   0  0  0  0  0  0  0  0  0  0  0  0
  -24.7015  -12.6775   21.5378 C   0  0  0  0  0  0  0  0  0  0  0  0
  -23.7817  -13.5061   19.4631 C   0  0  0  0  0  0  0  0  0  0  0  0
  -28.2256  -24.8665   25.5813 C   0  0  0  0  0  0  0  0  0  0  0  0
  -22.5278   -9.8185   22.1005 C   0  0  0  0  0  0  0  0  0  0  0  0
  -22.8718   -8.5112   22.4439 C   0  0  0  0  0  0  0  0  0  0  0  0
  -26.8811  -25.7527   23.7852 C   0  0  0  0  0  0  0  0  0  0  0  0
  -24.2980   -8.3754   20.4985 C   0  0  0  0  0  0  0  0  0  0  0  0
  -28.6241  -25.0714   18.9876 C   0  0  0  0  0  0  0  0  0  0  0  0
  -25.7812  -14.5037   20.3818 C   0  0  0  0  0  0  0  0  0  0  0  0
  -28.0948  -15.3174   19.6801 C   0  0  0  0  0  0  0  0  0  0  0  0
  -21.9168  -18.4049   25.9004 C   0  0  0  0  0  0  0  0  0  0  0  0
  -25.8107  -24.6219   25.6386 C   0  0  0  0  0  0  0  0  0  0  0  0
  -23.0378  -19.1953   25.5826 C   0  0  0  0  0  0  0  0  0  0  0  0
  -25.7113  -25.3065   24.4190 C   0  0  0  0  0  0  0  0  0  0  0  0
  -23.7284  -12.6212   20.5400 C   0  0  0  0  0  0  0  0  0  0  0  0
  -28.1312  -25.5322   24.3627 C   0  0  0  0  0  0  0  0  0  0  0  0
  -23.0688  -10.4044   20.9560 C   0  0  0  0  0  0  0  0  0  0  0  0
  -23.7570   -7.7896   21.6430 C   0  0  0  0  0  0  0  0  0  0  0  0
  -23.9539   -9.6828   20.1550 C   0  0  0  0  0  0  0  0  0  0  0  0
  -26.8408  -15.4765   20.2998 C   0  0  0  0  0  0  0  0  0  0  0  0
  -28.2396  -23.8317   18.5420 C   0  0  0  0  0  0  0  0  0  0  0  0
  -28.7302  -16.5191   19.8773 C   0  0  0  0  0  0  0  0  0  0  0  0
  -28.6368  -14.1848   18.9879 C   0  0  0  0  0  0  0  0  0  0  0  0
  -23.4919  -22.7226   24.5803 C   0  0  0  0  0  0  0  0  0  0  0  0
  -21.8985  -25.5238   24.2107 C   0  0  0  0  0  0  0  0  0  0  0  0
  -22.0463  -28.9060   23.7797 C   0  0  0  0  0  0  0  0  0  0  0  0
  -26.7292  -22.0811   20.8315 C   0  0  0  0  0  0  0  0  0  0  0  0
  -20.6087  -18.5508   25.1641 C   0  0  0  0  0  0  0  0  0  0  0  0
  -24.5722  -24.1538   26.3525 C   0  0  0  0  0  0  0  0  0  0  0  0
  -24.3811  -25.5702   23.7637 C   0  0  0  0  0  0  0  0  0  0  0  0
  -20.4830  -19.8668   24.4007 C   0  0  0  0  0  0  0  0  0  0  0  0
  -28.9120  -20.2026   22.9252 C   0  0  0  0  0  0  0  0  0  0  0  0
  -21.7561  -20.1486   23.6092 C   0  0  0  0  0  0  0  0  0  0  0  0
  -28.7418  -18.7640   22.4338 C   0  0  0  0  0  0  0  0  0  0  0  0
  -27.5966  -20.9764   22.8720 C   0  0  0  0  0  0  0  0  0  0  0  0
  -26.7522  -19.5239   21.0690 C   0  0  0  0  0  0  0  0  0  0  0  0
  -22.9652  -20.2912   24.5415 C   0  0  1  0  0  0  0  0  0  0  0  0
  -23.3803  -23.9641   25.4193 C   0  0  1  0  0  0  0  0  0  0  0  0
  -28.0637  -18.7202   21.0512 C   0  0  2  0  0  0  0  0  0  0  0  0
  -20.5793  -30.9186   23.4721 C   0  0  0  0  0  0  0  0  0  0  0  0
  -21.3931  -24.7098   21.3138 C   0  0  0  0  0  0  0  0  0  0  0  0
  -20.7920  -27.0901   20.8229 C   0  0  0  0  0  0  0  0  0  0  0  0
  -19.4387  -25.7748   22.4543 C   0  0  0  0  0  0  0  0  0  0  0  0
  -23.0594  -30.1674   26.2579 C   0  0  0  0  0  0  0  0  0  0  0  0
  -27.0227  -23.4468   17.8155 C   0  0  0  0  0  0  0  0  0  0  0  0
  -30.6424  -25.8165   21.7848 C   0  0  0  0  0  0  0  0  0  0  0  0
  -30.7298  -25.8386   20.2571 C   0  0  0  0  0  0  0  0  0  0  0  0
  -25.8421  -23.0395   18.7211 C   0  0  0  0  0  0  0  0  0  0  0  0
  -29.2282  -26.0296   22.3120 C   0  0  0  0  0  0  0  0  0  1  0  0
  -21.7612  -26.5372   23.1002 C   0  0  1  0  0  0  0  0  0  0  0  0
  -21.3168  -30.0426   24.4728 C   0  0  2  0  0  0  0  0  0  0  0  0
  -20.8716  -26.0214   21.9339 C   0  0  0  0  0  0  0  0  0  0  0  0
  -26.6869  -16.6840   20.8497 N   0  0  0  0  0  0  0  0  0  0  0  0
  -29.1936  -22.9091   18.8706 N   0  0  0  0  0  0  0  0  0  0  0  0
  -30.1689  -23.5417   19.5137 N   0  0  0  0  0  0  0  0  0  0  0  0
  -29.8255  -24.8380   19.5830 N   0  0  0  0  0  0  0  0  0  0  0  0
  -27.8525  -17.2945   20.5763 N   0  0  0  0  0  0  0  0  0  0  0  0
  -23.1997  -25.0876   24.4977 N   0  0  0  0  0  0  0  0  0  0  0  0
  -27.0060  -20.8966   21.5338 N   0  0  0  0  0  0  0  0  0  0  0  0
  -29.9485  -16.9774   19.5194 N   0  0  0  0  0  0  0  0  0  0  0  0
  -27.8498  -13.0304   18.8766 N   0  0  0  0  0  0  0  0  0  0  0  0
  -22.9642  -21.5924   25.1750 N   0  0  0  0  0  0  0  0  0  0  0  0
  -21.2763  -27.7635   23.7242 N   0  0  0  0  0  0  0  0  0  0  0  0
  -26.1761  -21.9158   19.5676 N   0  0  0  0  0  0  0  0  0  0  0  0
  -22.2812  -30.8958   25.2231 N   0  3  0  0  0  0  0  0  0  0  0  0
  -29.7913  -14.1904   18.4973 O   0  0  0  0  0  0  0  0  0  0  0  0
  -24.0165  -22.7858   23.4746 O   0  0  0  0  0  0  0  0  0  0  0  0
  -20.8892  -25.1391   24.8065 O   0  0  0  0  0  0  0  0  0  0  0  0
  -23.1839  -29.0214   23.3289 O   0  0  0  0  0  0  0  0  0  0  0  0
  -26.9631  -23.2028   21.2942 O   0  0  0  0  0  0  0  0  0  0  0  0
  -22.7269  -11.7027   20.6168 O   0  0  0  0  0  0  0  0  0  0  0  0
  -29.2572  -25.9719   23.7376 O   0  0  0  0  0  0  0  0  0  1  0  0
  -24.0885   -6.5347   21.9737 F   0  0  0  0  0  0  0  0  0  0  0  0
  -24.4779  -10.2407   19.0550 F   0  0  0  0  0  0  0  0  0  0  0  0
  1  2  1  0  0  0  0
  1  5  2  0  0  0  0
  2  6  2  0  0  0  0
  3  8  2  0  0  0  0
  3 16  1  0  0  0  0
  4  9  1  0  0  0  0
  4 16  2  0  0  0  0
  5 18  1  0  0  0  0
  6 20  1  0  0  0  0
  7 10  2  0  0  0  0
  7 19  1  0  0  0  0
  8 22  1  0  0  0  0
  9 22  2  0  0  0  0
 10 23  1  0  0  0  0
 11 12  2  0  0  0  0
 11 24  1  0  0  0  0
 12 25  1  0  0  0  0
 13 21  1  0  0  0  0
 13 23  2  0  0  0  0
 14 25  2  0  0  0  0
 14 26  1  0  0  0  0
 15 28  2  0  0  0  0
 15 63  1  0  0  0  0
 16 27  1  0  0  0  0
 17 27  1  0  0  0  0
 17 29  2  0  0  0  0
 17 30  1  0  0  0  0
 18 20  2  0  0  0  0
 18 35  1  0  0  0  0
 19 21  2  0  0  0  0
 19 36  1  0  0  0  0
 20 44  1  0  0  0  0
 21 37  1  0  0  0  0
 22 78  1  0  0  0  0
 23 79  1  0  0  0  0
 24 26  2  0  0  0  0
 24 78  1  0  0  0  0
 25 80  1  0  0  0  0
 26 81  1  0  0  0  0
 27 60  2  0  0  0  0
 28 52  1  0  0  0  0
 28 61  1  0  0  0  0
 29 64  1  0  0  0  0
 29 67  1  0  0  0  0
 30 68  1  0  0  0  0
 30 73  2  0  0  0  0
 31 45  1  0  0  0  0
 31 69  1  0  0  0  0
 31 74  2  0  0  0  0
 32 57  1  0  0  0  0
 32 65  1  0  0  0  0
 32 75  2  0  0  0  0
 33 58  1  0  0  0  0
 33 70  1  0  0  0  0
 33 76  2  0  0  0  0
 34 66  1  0  0  0  0
 34 71  1  0  0  0  0
 34 77  2  0  0  0  0
 35 38  1  0  0  0  0
 36 45  1  0  0  0  0
 37 65  1  0  0  0  0
 38 40  1  0  0  0  0
 39 41  1  0  0  0  0
 39 42  1  0  0  0  0
 40 44  1  0  0  0  0
 41 46  1  0  0  0  0
 42 66  1  0  0  0  0
 43 46  1  0  0  0  0
 43 66  1  0  0  0  0
 44 69  1  0  0  0  0
 45 65  1  0  0  0  0
 46 64  1  0  0  0  0
 47 58  1  0  0  0  0
 48 59  1  0  0  0  0
 49 59  1  0  0  0  0
 50 59  1  0  0  0  0
 51 72  1  0  0  0  0
 52 55  1  0  0  0  0
 53 54  1  0  0  0  0
 53 56  1  0  0  0  0
 54 63  1  0  0  0  0
 55 71  1  0  0  0  0
 56 79  1  0  0  0  0
 57 59  1  0  0  0  0
 57 70  1  0  0  0  0
 58 72  1  0  0  0  0
 60 64  1  0  0  0  0
 61 62  2  0  0  0  0
 62 63  1  0  0  0  0
M  CHG  1  72   1
M  ISO  4  34 100  56 101  71 100  79 101
M  END
> <Batch ID>
0085

> <Smiles>
CNC(C)C(=O)NC(C(=O)N1Cc2cc([101O:1][101CH2:1]CCn3cc(CC[100NH:0][100C:0](=O)N4CCCC(n5nc(-c6ccc(Oc7ccc(F)cc7F)cc6)c(C(N)=O)c5N)C4)nn3)ccc2CC1C(=O)NC1CCCc2ccccc21)C(C)(C)C

> <Shape>
0.178

> <Color>
0.070

> <Negative vol penalty>
0.000

$$$$

  -OEChem-04052318563D

 79 86  0     1  0  0  0  0  0999 V2000
  -18.7733  -23.7617   15.3300 C   0  0  0  0  0  0  0  0  0  0  0  0
  -19.9469  -23.0575   15.0811 C   0  0  0  0  0  0  0  0  0  0  0  0
  -23.2805   -9.8058   19.9160 C   0  0  0  0  0  0  0  0  0  0  0  0
  -23.7261   -9.9486   22.2862 C   0  0  0  0  0  0  0  0  0  0  0  0
  -18.5597  -24.3383   16.5814 C   0  0  0  0  0  0  0  0  0  0  0  0
  -20.9083  -22.9303   16.0831 C   0  0  0  0  0  0  0  0  0  0  0  0
  -25.8562  -18.3619   18.5250 C   0  0  0  0  0  0  0  0  0  0  0  0
  -22.5439   -8.6398   20.1247 C   0  0  0  0  0  0  0  0  0  0  0  0
  -22.9895   -8.7826   22.4949 C   0  0  0  0  0  0  0  0  0  0  0  0
  -27.2081  -18.3179   18.8632 C   0  0  0  0  0  0  0  0  0  0  0  0
  -19.7344   -7.8991   22.7059 C   0  0  0  0  0  0  0  0  0  0  0  0
  -18.8291   -7.8876   23.7669 C   0  0  0  0  0  0  0  0  0  0  0  0
  -26.6960  -19.2883   21.0115 C   0  0  0  0  0  0  0  0  0  0  0  0
  -20.0168   -6.0330   24.7602 C   0  0  0  0  0  0  0  0  0  0  0  0
  -23.8717  -10.4601   20.9967 C   0  0  0  0  0  0  0  0  0  0  0  0
  -24.1526  -12.9874   20.7925 C   0  0  0  0  0  0  0  0  0  0  0  0
  -19.5147  -24.2099   17.6023 C   0  0  0  0  0  0  0  0  0  0  0  0
  -24.9139  -18.8803   19.4249 C   0  0  0  0  0  0  0  0  0  0  0  0
  -20.7079  -23.5068   17.3489 C   0  0  0  0  0  0  0  0  0  0  0  0
  -25.3325  -19.3354   20.6834 C   0  0  0  0  0  0  0  0  0  0  0  0
  -22.3983   -8.1283   21.4142 C   0  0  0  0  0  0  0  0  0  0  0  0
  -27.6285  -18.7838   20.1055 C   0  0  0  0  0  0  0  0  0  0  0  0
  -20.7809   -6.9775   22.6719 C   0  0  0  0  0  0  0  0  0  0  0  0
  -18.9703   -6.9546   24.7941 C   0  0  0  0  0  0  0  0  0  0  0  0
  -20.9221   -6.0445   23.6991 C   0  0  0  0  0  0  0  0  0  0  0  0
  -24.6333  -11.6642   20.7817 C   0  0  0  0  0  0  0  0  0  0  0  0
  -25.2612  -13.7574   20.5385 C   0  0  0  0  0  0  0  0  0  0  0  0
  -22.8230  -13.4766   21.0126 C   0  0  0  0  0  0  0  0  0  0  0  0
  -22.8886  -21.3299   19.3881 C   0  0  0  0  0  0  0  0  0  0  0  0
  -21.8904  -20.0428   22.1934 C   0  0  0  0  0  0  0  0  0  0  0  0
  -22.6044  -18.0978   24.9052 C   0  0  0  0  0  0  0  0  0  0  0  0
  -31.0102  -12.8111   21.4920 C   0  0  0  0  0  0  0  0  0  0  0  0
  -19.2605  -24.8906   18.9239 C   0  0  0  0  0  0  0  0  0  0  0  0
  -23.4560  -18.8961   19.0553 C   0  0  0  0  0  0  0  0  0  0  0  0
  -24.3581  -19.8827   21.6931 C   0  0  0  0  0  0  0  0  0  0  0  0
  -20.1622  -24.3911   20.0498 C   0  0  0  0  0  0  0  0  0  0  0  0
  -29.4919  -13.6097   18.3054 C   0  0  0  0  0  0  0  0  0  0  0  0
  -21.6113  -24.3155   19.5795 C   0  0  0  0  0  0  0  0  0  0  0  0
  -28.0167  -13.3224   18.5908 C   0  0  0  0  0  0  0  0  0  0  0  0
  -30.3972  -12.6018   19.0074 C   0  0  0  0  0  0  0  0  0  0  0  0
  -28.7149  -12.2203   20.7675 C   0  0  0  0  0  0  0  0  0  0  0  0
  -21.7635  -23.3259   18.4180 C   0  0  1  0  0  0  0  0  0  0  0  0
  -22.6496  -19.9198   19.8486 C   0  0  1  0  0  0  0  0  0  0  0  0
  -27.7487  -13.2185   20.1040 C   0  0  2  0  0  0  0  0  0  0  0  0
  -21.6025  -17.2627   27.0491 C   0  0  0  0  0  0  0  0  0  0  0  0
  -22.3264  -22.7834   23.4618 C   0  0  0  0  0  0  0  0  0  0  0  0
  -22.2391  -21.6805   25.7078 C   0  0  0  0  0  0  0  0  0  0  0  0
  -20.2483  -21.6079   24.2064 C   0  0  0  0  0  0  0  0  0  0  0  0
  -22.8422  -15.2740   24.0517 C   0  0  0  0  0  0  0  0  0  0  0  0
  -33.0425  -17.0084   24.7196 C   0  0  0  0  0  0  0  0  0  0  0  0
  -33.4276  -14.8901   22.4160 C   0  0  0  0  0  0  0  0  0  0  0  0
  -30.5971  -17.8578   21.9376 C   0  0  0  0  0  0  0  0  0  0  0  0
  -33.3495  -13.4082   22.0650 C   0  0  0  0  0  0  0  0  0  0  0  0
  -32.1382  -15.4031   23.0445 C   0  0  0  0  0  0  0  0  0  0  0  0
  -31.0363  -17.6119   23.3731 C   0  0  0  0  0  0  0  0  0  0  0  0
  -29.2643  -18.5870   21.8205 C   0  0  0  0  0  0  0  0  0  1  0  0
  -22.2771  -20.2084   23.6432 C   0  0  1  0  0  0  0  0  0  0  0  0
  -21.8289  -16.9764   25.5727 C   0  0  2  0  0  0  0  0  0  0  0  0
  -21.7916  -21.5616   24.2352 C   0  0  0  0  0  0  0  0  0  0  0  0
  -25.9450  -11.5941   20.5398 N   0  0  0  0  0  0  0  0  0  0  0  0
  -26.2980  -12.8828   20.3962 N   0  0  0  0  0  0  0  0  0  0  0  0
  -22.9442  -19.8830   21.2825 N   0  0  0  0  0  0  0  0  0  0  0  0
  -30.1040  -12.5651   20.4471 N   0  0  0  0  0  0  0  0  0  0  0  0
  -25.4406  -15.0906   20.4252 N   0  0  0  0  0  0  0  0  0  0  0  0
  -21.8020  -12.5488   21.2597 N   0  0  0  0  0  0  0  0  0  0  0  0
  -21.7583  -21.9648   18.9099 N   0  0  0  0  0  0  0  0  0  0  0  0
  -21.7643  -19.0333   24.3393 N   0  0  0  0  0  0  0  0  0  0  0  0
  -32.3072  -13.1241   21.1038 N   0  0  0  0  0  0  0  0  0  0  0  0
  -22.5713  -15.6899   25.4519 N   0  3  0  0  0  0  0  0  0  0  0  0
  -32.3118  -16.8585   23.4069 N   0  3  1  0  0  0  0  0  0  0  0  0
  -22.5454  -14.6993   20.9745 O   0  0  0  0  0  0  0  0  0  0  0  0
  -24.0148  -21.8071   19.4627 O   0  0  0  0  0  0  0  0  0  0  0  0
  -20.6969  -20.0476   21.8815 O   0  0  0  0  0  0  0  0  0  0  0  0
  -23.8326  -18.1415   24.8907 O   0  0  0  0  0  0  0  0  0  0  0  0
  -30.6861  -12.7609   22.6834 O   0  0  0  0  0  0  0  0  0  0  0  0
  -21.6794   -6.9907   21.6182 O   0  0  0  0  0  0  0  0  0  0  0  0
  -28.9475  -18.7426   20.4379 O   0  0  0  0  0  0  0  0  0  1  0  0
  -18.1017   -6.9446   25.8137 F   0  0  0  0  0  0  0  0  0  0  0  0
  -21.9262   -5.1573   23.6726 F   0  0  0  0  0  0  0  0  0  0  0  0
  1  2  1  0  0  0  0
  1  5  2  0  0  0  0
  2  6  2  0  0  0  0
  3  8  2  0  0  0  0
  3 15  1  0  0  0  0
  4  9  1  0  0  0  0
  4 15  2  0  0  0  0
  5 17  1  0  0  0  0
  6 19  1  0  0  0  0
  7 10  2  0  0  0  0
  7 18  1  0  0  0  0
  8 21  1  0  0  0  0
  9 21  2  0  0  0  0
 10 22  1  0  0  0  0
 11 12  2  0  0  0  0
 11 23  1  0  0  0  0
 12 24  1  0  0  0  0
 13 20  1  0  0  0  0
 13 22  2  0  0  0  0
 14 24  2  0  0  0  0
 14 25  1  0  0  0  0
 15 26  1  0  0  0  0
 16 26  1  0  0  0  0
 16 27  2  0  0  0  0
 16 28  1  0  0  0  0
 17 19  2  0  0  0  0
 17 33  1  0  0  0  0
 18 20  2  0  0  0  0
 18 34  1  0  0  0  0
 19 42  1  0  0  0  0
 20 35  1  0  0  0  0
 21 76  1  0  0  0  0
 22 77  1  0  0  0  0
 23 25  2  0  0  0  0
 23 76  1  0  0  0  0
 24 78  1  0  0  0  0
 25 79  1  0  0  0  0
 26 60  2  0  0  0  0
 27 61  1  0  0  0  0
 27 64  1  0  0  0  0
 28 65  1  0  0  0  0
 28 71  2  0  0  0  0
 29 43  1  0  0  0  0
 29 66  1  0  0  0  0
 29 72  2  0  0  0  0
 30 57  1  0  0  0  0
 30 62  1  0  0  0  0
 30 73  2  0  0  0  0
 31 58  1  0  0  0  0
 31 67  1  0  0  0  0
 31 74  2  0  0  0  0
 32 63  1  0  0  0  0
 32 68  1  0  0  0  0
 32 75  2  0  0  0  0
 33 36  1  0  0  0  0
 34 43  1  0  0  0  0
 35 62  1  0  0  0  0
 36 38  1  0  0  0  0
 37 39  1  0  0  0  0
 37 40  1  0  0  0  0
 38 42  1  0  0  0  0
 39 44  1  0  0  0  0
 40 63  1  0  0  0  0
 41 44  1  0  0  0  0
 41 63  1  0  0  0  0
 42 66  1  0  0  0  0
 43 62  1  0  0  0  0
 44 61  1  0  0  0  0
 45 58  1  0  0  0  0
 46 59  1  0  0  0  0
 47 59  1  0  0  0  0
 48 59  1  0  0  0  0
 49 69  1  0  0  0  0
 50 70  1  0  0  0  0
 51 53  1  0  0  0  0
 51 54  1  0  0  0  0
 52 55  1  0  0  0  0
 52 56  1  0  0  0  0
 53 68  1  0  0  0  0
 54 70  1  0  0  0  0
 55 70  1  0  0  0  0
 56 77  1  0  0  0  0
 57 59  1  0  0  0  0
 57 67  1  0  0  0  0
 58 69  1  0  0  0  0
 60 61  1  0  0  0  0
M  CHG  2  69   1  70   1
M  ISO  4  32 100  56 101  68 100  77 101
M  END
> <Batch ID>
0085

> <Smiles>
CNC(C)C(=O)NC(C(=O)N1Cc2cc([101O:1][101CH2:1]CCN(C)CCC[100NH:0][100C:0](=O)N3CCCC(n4nc(-c5ccc(Oc6ccc(F)cc6F)cc5)c(C(N)=O)c4N)C3)ccc2CC1C(=O)NC1CCCc2ccccc21)C(C)(C)C

> <Shape>
0.172

> <Color>
0.179

> <Negative vol penalty>
0.000

$$$$

  -OEChem-04052318563D

 86 94  0     1  0  0  0  0  0999 V2000
  -17.0215   -9.7684   20.1218 C   0  0  0  0  0  0  0  0  0  0  0  0
  -17.6877  -10.7120   19.3464 C   0  0  0  0  0  0  0  0  0  0  0  0
  -23.0938   -9.8652   19.9407 C   0  0  0  0  0  0  0  0  0  0  0  0
  -23.6901   -9.9621   22.2799 C   0  0  0  0  0  0  0  0  0  0  0  0
  -15.6284   -9.7735   20.1798 C   0  0  0  0  0  0  0  0  0  0  0  0
  -16.9611  -11.6606   18.6277 C   0  0  0  0  0  0  0  0  0  0  0  0
  -18.8956  -16.3212   19.0545 C   0  0  0  0  0  0  0  0  0  0  0  0
  -22.3351   -8.7199   20.1815 C   0  0  0  0  0  0  0  0  0  0  0  0
  -22.9313   -8.8167   22.5208 C   0  0  0  0  0  0  0  0  0  0  0  0
  -20.0230  -16.6152   18.2888 C   0  0  0  0  0  0  0  0  0  0  0  0
  -23.2633   -5.4770   22.1126 C   0  0  0  0  0  0  0  0  0  0  0  0
  -23.8275   -4.4819   22.9107 C   0  0  0  0  0  0  0  0  0  0  0  0
  -18.6268  -17.7427   16.6768 C   0  0  0  0  0  0  0  0  0  0  0  0
  -26.1390  -13.8870   17.1024 C   0  0  0  0  0  0  0  0  0  0  0  0
  -22.0098   -4.7144   24.4853 C   0  0  0  0  0  0  0  0  0  0  0  0
  -28.3186  -14.4347   15.5548 C   0  0  0  0  0  0  0  0  0  0  0  0
  -23.7714  -10.4863   20.9899 C   0  0  0  0  0  0  0  0  0  0  0  0
  -24.1189  -13.0063   20.7979 C   0  0  0  0  0  0  0  0  0  0  0  0
  -14.8848  -10.7287   19.4691 C   0  0  0  0  0  0  0  0  0  0  0  0
  -17.6219  -16.7269   18.6308 C   0  0  0  0  0  0  0  0  0  0  0  0
  -15.5568  -11.6777   18.6752 C   0  0  0  0  0  0  0  0  0  0  0  0
  -17.4851  -17.4548   17.4402 C   0  0  0  0  0  0  0  0  0  0  0  0
  -27.2026  -12.9918   17.0809 C   0  0  0  0  0  0  0  0  0  0  0  0
  -28.3170  -13.2634   16.2950 C   0  0  0  0  0  0  0  0  0  0  0  0
  -22.2538   -8.1956   21.4715 C   0  0  0  0  0  0  0  0  0  0  0  0
  -19.8884  -17.3235   17.0983 C   0  0  0  0  0  0  0  0  0  0  0  0
  -22.0725   -6.0909   22.5008 C   0  0  0  0  0  0  0  0  0  0  0  0
  -23.2007   -4.1005   24.0971 C   0  0  0  0  0  0  0  0  0  0  0  0
  -21.4457   -5.7095   23.6871 C   0  0  0  0  0  0  0  0  0  0  0  0
  -24.5558  -11.6692   20.7417 C   0  0  0  0  0  0  0  0  0  0  0  0
  -26.2382  -15.0305   16.3262 C   0  0  0  0  0  0  0  0  0  0  0  0
  -25.2334  -13.7451   20.4841 C   0  0  0  0  0  0  0  0  0  0  0  0
  -22.8216  -13.5332   21.1063 C   0  0  0  0  0  0  0  0  0  0  0  0
  -14.9380  -15.2220   17.8337 C   0  0  0  0  0  0  0  0  0  0  0  0
  -13.7496  -18.2369   17.6909 C   0  0  0  0  0  0  0  0  0  0  0  0
  -14.3507  -21.5718   17.2865 C   0  0  0  0  0  0  0  0  0  0  0  0
  -30.2114  -12.0180   17.3680 C   0  0  0  0  0  0  0  0  0  0  0  0
  -13.3790  -10.6650   19.5253 C   0  0  0  0  0  0  0  0  0  0  0  0
  -16.4187  -16.4252   19.4816 C   0  0  0  0  0  0  0  0  0  0  0  0
  -16.1423  -17.9308   16.9515 C   0  0  0  0  0  0  0  0  0  0  0  0
  -12.6966  -11.9380   19.0311 C   0  0  0  0  0  0  0  0  0  0  0  0
  -30.0076  -13.6359   20.6897 C   0  0  0  0  0  0  0  0  0  0  0  0
  -13.3195  -12.4025   17.7184 C   0  0  0  0  0  0  0  0  0  0  0  0
  -28.5689  -13.3523   21.1176 C   0  0  0  0  0  0  0  0  0  0  0  0
  -30.5461  -12.5526   19.7602 C   0  0  0  0  0  0  0  0  0  0  0  0
  -28.2496  -12.0377   18.9842 C   0  0  0  0  0  0  0  0  0  0  0  0
  -14.8046  -12.7383   17.9009 C   0  0  1  0  0  0  0  0  0  0  0  0
  -15.1116  -16.4408   18.6951 C   0  0  1  0  0  0  0  0  0  0  0  0
  -27.6703  -13.1356   19.8888 C   0  0  1  0  0  0  0  0  0  0  0  0
  -26.7984  -10.5173   17.0718 C   0  0  0  0  0  0  0  0  0  0  0  0
  -13.1756  -23.7866   17.1806 C   0  0  0  0  0  0  0  0  0  0  0  0
  -12.7950  -17.5927   14.8653 C   0  0  0  0  0  0  0  0  0  0  0  0
  -12.5039  -20.0491   14.4786 C   0  0  0  0  0  0  0  0  0  0  0  0
  -11.1679  -18.8992   16.2437 C   0  0  0  0  0  0  0  0  0  0  0  0
  -21.9755  -16.2990   13.9256 C   0  0  0  0  0  0  0  0  0  0  0  0
  -23.4021  -18.1343   14.8658 C   0  0  0  0  0  0  0  0  0  0  0  0
  -29.9741  -12.0129   14.9235 C   0  0  0  0  0  0  0  0  0  0  0  0
  -15.8221  -22.5960   19.6413 C   0  0  0  0  0  0  0  0  0  0  0  0
  -27.1231  -11.7510   17.9086 C   0  0  0  0  0  0  0  0  0  0  0  0
  -25.1022  -16.0249   16.3245 C   0  0  0  0  0  0  0  0  0  0  0  0
  -24.0775  -15.7011   15.2283 C   0  0  0  0  0  0  0  0  0  0  0  0
  -22.0753  -16.6902   16.4112 C   0  0  0  0  0  0  0  0  0  1  0  0
  -13.6374  -19.2920   16.6171 C   0  0  1  0  0  0  0  0  0  0  0  0
  -13.8850  -22.7822   18.0755 C   0  0  2  0  0  0  0  0  0  0  0  0
  -12.5513  -18.9477   15.5591 C   0  0  0  0  0  0  0  0  0  0  0  0
  -22.8927  -16.7004   15.0959 C   0  0  0  0  0  0  0  0  0  0  0  0
  -27.3043  -15.3285   15.5502 N   0  0  0  0  0  0  0  0  0  0  0  0
  -25.8471  -11.5619   20.4175 N   0  0  0  0  0  0  0  0  0  0  0  0
  -26.2311  -12.8410   20.2671 N   0  0  0  0  0  0  0  0  0  0  0  0
  -14.9953  -17.6055   17.8153 N   0  0  0  0  0  0  0  0  0  0  0  0
  -29.6504  -12.3152   18.6270 N   0  0  0  0  0  0  0  0  0  0  0  0
  -25.4474  -15.0736   20.3753 N   0  0  0  0  0  0  0  0  0  0  0  0
  -21.7891  -12.6341   21.4059 N   0  0  0  0  0  0  0  0  0  0  0  0
  -14.9564  -14.0308   18.5340 N   0  0  0  0  0  0  0  0  0  0  0  0
  -13.4173  -20.5572   17.3094 N   0  0  0  0  0  0  0  0  0  0  0  0
  -29.4460  -12.3673   16.2391 N   0  0  0  0  0  0  0  0  0  0  0  0
  -15.0467  -23.4615   18.7157 N   0  3  0  0  0  0  0  0  0  0  0  0
  -22.5810  -14.7643   21.0998 O   0  0  0  0  0  0  0  0  0  0  0  0
  -14.7962  -15.3526   16.6235 O   0  0  0  0  0  0  0  0  0  0  0  0
  -12.7702  -17.9872   18.3981 O   0  0  0  0  0  0  0  0  0  0  0  0
  -15.4326  -21.5319   16.7047 O   0  0  0  0  0  0  0  0  0  0  0  0
  -31.2948  -11.4311   17.2564 O   0  0  0  0  0  0  0  0  0  0  0  0
  -21.5133   -7.0781   21.7069 O   0  0  0  0  0  0  0  0  0  0  0  0
  -20.9871  -17.6112   16.3487 O   0  0  0  0  0  0  0  0  0  1  0  0
  -23.7417   -3.1438   24.8627 F   0  0  0  0  0  0  0  0  0  0  0  0
  -20.3008   -6.2948   24.0647 F   0  0  0  0  0  0  0  0  0  0  0  0
  1  2  1  0  0  0  0
  1  5  2  0  0  0  0
  2  6  2  0  0  0  0
  3  8  2  0  0  0  0
  3 17  1  0  0  0  0
  4  9  1  0  0  0  0
  4 17  2  0  0  0  0
  5 19  1  0  0  0  0
  6 21  1  0  0  0  0
  7 10  2  0  0  0  0
  7 20  1  0  0  0  0
  8 25  1  0  0  0  0
  9 25  2  0  0  0  0
 10 26  1  0  0  0  0
 11 12  2  0  0  0  0
 11 27  1  0  0  0  0
 12 28  1  0  0  0  0
 13 22  1  0  0  0  0
 13 26  2  0  0  0  0
 14 23  1  0  0  0  0
 14 31  2  0  0  0  0
 15 28  2  0  0  0  0
 15 29  1  0  0  0  0
 16 24  1  0  0  0  0
 16 67  2  0  0  0  0
 17 30  1  0  0  0  0
 18 30  1  0  0  0  0
 18 32  2  0  0  0  0
 18 33  1  0  0  0  0
 19 21  2  0  0  0  0
 19 38  1  0  0  0  0
 20 22  2  0  0  0  0
 20 39  1  0  0  0  0
 21 47  1  0  0  0  0
 22 40  1  0  0  0  0
 23 24  2  0  0  0  0
 23 59  1  0  0  0  0
 24 76  1  0  0  0  0
 25 83  1  0  0  0  0
 26 84  1  0  0  0  0
 27 29  2  0  0  0  0
 27 83  1  0  0  0  0
 28 85  1  0  0  0  0
 29 86  1  0  0  0  0
 30 68  2  0  0  0  0
 31 60  1  0  0  0  0
 31 67  1  0  0  0  0
 32 69  1  0  0  0  0
 32 72  1  0  0  0  0
 33 73  1  0  0  0  0
 33 78  2  0  0  0  0
 34 48  1  0  0  0  0
 34 74  1  0  0  0  0
 34 79  2  0  0  0  0
 35 63  1  0  0  0  0
 35 70  1  0  0  0  0
 35 80  2  0  0  0  0
 36 64  1  0  0  0  0
 36 75  1  0  0  0  0
 36 81  2  0  0  0  0
 37 71  1  0  0  0  0
 37 76  1  0  0  0  0
 37 82  2  0  0  0  0
 38 41  1  0  0  0  0
 39 48  1  0  0  0  0
 40 70  1  0  0  0  0
 41 43  1  0  0  0  0
 42 44  1  0  0  0  0
 42 45  1  0  0  0  0
 43 47  1  0  0  0  0
 44 49  1  0  0  0  0
 45 71  1  0  0  0  0
 46 49  1  0  0  0  0
 46 71  1  0  0  0  0
 47 74  1  0  0  0  0
 48 70  1  0  0  0  0
 49 69  1  0  0  0  0
 50 59  1  0  0  0  0
 51 64  1  0  0  0  0
 52 65  1  0  0  0  0
 53 65  1  0  0  0  0
 54 65  1  0  0  0  0
 55 66  1  0  0  0  0
 56 66  1  0  0  0  0
 57 76  1  0  0  0  0
 58 77  1  0  0  0  0
 60 61  1  0  0  0  0
 61 66  1  0  0  0  0
 62 66  1  0  0  0  0
 62 84  1  0  0  0  0
 63 65  1  0  0  0  0
 63 75  1  0  0  0  0
 64 77  1  0  0  0  0
 68 69  1  0  0  0  0
M  CHG  1  77   1
M  ISO  4  37 100  62 101  76 100  84 101
M  END
> <Batch ID>
0085

> <Smiles>
CCc1cc(CCC(C)(C)[101CH2:1][101O:1]c2ccc3c(c2)CN(C(=O)C(NC(=O)C(C)NC)C(C)(C)C)C(C(=O)NC2CCCc4ccccc42)C3)ncc1[100N:0](C)[100C:0](=O)N1CCCC(n2nc(-c3ccc(Oc4ccc(F)cc4F)cc3)c(C(N)=O)c2N)C1

> <Shape>
0.156

> <Color>
0.176

> <Negative vol penalty>
0.000

$$$$

  -OEChem-04052318563D

 88 96  0     1  0  0  0  0  0999 V2000
  -26.5750  -24.3002   13.8397 C   0  0  0  0  0  0  0  0  0  0  0  0
  -25.8895  -24.2810   15.0501 C   0  0  0  0  0  0  0  0  0  0  0  0
  -26.5333  -12.4821   21.5195 C   0  0  0  0  0  0  0  0  0  0  0  0
  -25.2130  -14.1952   20.4428 C   0  0  0  0  0  0  0  0  0  0  0  0
  -27.8920  -24.7553   13.7929 C   0  0  0  0  0  0  0  0  0  0  0  0
  -26.5211  -24.7160   16.2147 C   0  0  0  0  0  0  0  0  0  0  0  0
  -23.5696  -27.7308   19.0155 C   0  0  0  0  0  0  0  0  0  0  0  0
  -25.3868  -11.7067   21.6917 C   0  0  0  0  0  0  0  0  0  0  0  0
  -24.0664  -13.4197   20.6149 C   0  0  0  0  0  0  0  0  0  0  0  0
  -22.5838  -27.1179   19.7876 C   0  0  0  0  0  0  0  0  0  0  0  0
  -23.4536   -9.6669   19.8115 C   0  0  0  0  0  0  0  0  0  0  0  0
  -23.5373   -8.3089   19.5043 C   0  0  0  0  0  0  0  0  0  0  0  0
  -23.9961  -27.3116   21.7337 C   0  0  0  0  0  0  0  0  0  0  0  0
  -22.9494   -7.7575   21.7819 C   0  0  0  0  0  0  0  0  0  0  0  0
  -23.4122  -20.6809   22.9178 C   0  0  0  0  0  0  0  0  0  0  0  0
  -26.4465  -13.7264   20.8951 C   0  0  0  0  0  0  0  0  0  0  0  0
  -28.5092  -14.5146   19.6177 C   0  0  0  0  0  0  0  0  0  0  0  0
  -28.5369  -25.2051   14.9558 C   0  0  0  0  0  0  0  0  0  0  0  0
  -24.7825  -28.1295   19.5954 C   0  0  0  0  0  0  0  0  0  0  0  0
  -27.8485  -25.1762   16.1837 C   0  0  0  0  0  0  0  0  0  0  0  0
  -24.9947  -27.9317   20.9672 C   0  0  0  0  0  0  0  0  0  0  0  0
  -24.1533  -12.1754   21.2394 C   0  0  0  0  0  0  0  0  0  0  0  0
  -22.7981  -26.9056   21.1463 C   0  0  0  0  0  0  0  0  0  0  0  0
  -23.1178  -10.0703   21.1039 C   0  0  0  0  0  0  0  0  0  0  0  0
  -23.2852   -7.3542   20.4895 C   0  0  0  0  0  0  0  0  0  0  0  0
  -22.8657   -9.1156   22.0891 C   0  0  0  0  0  0  0  0  0  0  0  0
  -27.6304  -14.5282   20.7174 C   0  0  0  0  0  0  0  0  0  0  0  0
  -24.4832  -20.0581   23.5257 C   0  0  0  0  0  0  0  0  0  0  0  0
  -23.6389  -21.9716   22.4856 C   0  0  0  0  0  0  0  0  0  0  0  0
  -29.4654  -15.4495   19.9308 C   0  0  0  0  0  0  0  0  0  0  0  0
  -25.7825  -21.9010   23.2383 C   0  0  0  0  0  0  0  0  0  0  0  0
  -28.4650  -13.7273   18.4203 C   0  0  0  0  0  0  0  0  0  0  0  0
  -27.8348  -27.3497   19.1718 C   0  0  0  0  0  0  0  0  0  0  0  0
  -28.3393  -29.7598   21.2835 C   0  0  0  0  0  0  0  0  0  0  0  0
  -27.1184  -31.6990   23.8124 C   0  0  0  0  0  0  0  0  0  0  0  0
  -29.4449  -20.2728   23.4785 C   0  0  0  0  0  0  0  0  0  0  0  0
  -29.9770  -25.6436   14.8639 C   0  0  0  0  0  0  0  0  0  0  0  0
  -25.8251  -28.8136   18.7542 C   0  0  0  0  0  0  0  0  0  0  0  0
  -26.2714  -28.3596   21.6421 C   0  0  0  0  0  0  0  0  0  0  0  0
  -30.4501  -26.4391   16.0779 C   0  0  0  0  0  0  0  0  0  0  0  0
  -31.6360  -17.4739   23.6833 C   0  0  0  0  0  0  0  0  0  0  0  0
  -30.0192  -25.7500   17.3687 C   0  0  0  0  0  0  0  0  0  0  0  0
  -30.9372  -16.4003   22.8472 C   0  0  0  0  0  0  0  0  0  0  0  0
  -30.6337  -18.3305   24.4537 C   0  0  0  0  0  0  0  0  0  0  0  0
  -28.8753  -17.8646   22.7909 C   0  0  0  0  0  0  0  0  0  0  0  0
  -28.4912  -25.6632   17.4642 C   0  0  1  0  0  0  0  0  0  0  0  0
  -27.2285  -28.7137   19.3440 C   0  0  1  0  0  0  0  0  0  0  0  0
  -29.8421  -17.0112   21.9523 C   0  0  2  0  0  0  0  0  0  0  0  0
  -24.3339  -18.6603   24.0257 C   0  0  0  0  0  0  0  0  0  0  0  0
  -28.7494  -21.9314   19.9250 C   0  0  0  0  0  0  0  0  0  0  0  0
  -27.7775  -33.5588   25.3629 C   0  0  0  0  0  0  0  0  0  0  0  0
  -29.9624  -27.7887   22.9539 C   0  0  0  0  0  0  0  0  0  0  0  0
  -29.7817  -29.3789   24.8792 C   0  0  0  0  0  0  0  0  0  0  0  0
  -30.9517  -30.0798   22.7905 C   0  0  0  0  0  0  0  0  0  0  0  0
  -19.6769  -24.9843   23.3626 C   0  0  0  0  0  0  0  0  0  0  0  0
  -19.5316  -23.3503   21.4661 C   0  0  0  0  0  0  0  0  0  0  0  0
  -25.0139  -33.4875   22.7488 C   0  0  0  0  0  0  0  0  0  0  0  0
  -22.5270  -22.7345   21.8065 C   0  0  0  0  0  0  0  0  0  0  0  0
  -27.0998  -22.5779   23.4127 C   0  0  0  0  0  0  0  0  0  0  0  0
  -27.7255  -22.3835   20.9586 C   0  0  0  0  0  0  0  0  0  0  0  0
  -21.6854  -23.5188   22.8228 C   0  0  0  0  0  0  0  0  0  0  0  0
  -20.9875  -25.3668   21.2467 C   0  0  0  0  0  0  0  0  0  1  0  0
  -28.4328  -29.8620   22.7867 C   0  0  1  0  0  0  0  0  0  0  0  0
  -27.1390  -33.2012   24.0298 C   0  0  2  0  0  0  0  0  0  0  0  0
  -28.1760  -22.1144   22.4027 C   0  0  2  0  0  0  0  0  0  0  0  0
  -29.7588  -29.2674   23.3397 C   0  0  0  0  0  0  0  0  0  0  0  0
  -20.4708  -24.2946   22.2374 C   0  0  0  0  0  0  0  0  0  0  0  0
  -27.9960  -15.4023   21.6588 N   0  0  0  0  0  0  0  0  0  0  0  0
  -25.6871  -20.6407   23.7031 N   0  0  0  0  0  0  0  0  0  0  0  0
  -24.8160  -22.6148   22.6302 N   0  0  0  0  0  0  0  0  0  0  0  0
  -29.1151  -15.9466   21.1515 N   0  0  0  0  0  0  0  0  0  0  0  0
  -27.2629  -29.0185   20.7759 N   0  0  0  0  0  0  0  0  0  0  0  0
  -29.6232  -18.8812   23.5472 N   0  0  0  0  0  0  0  0  0  0  0  0
  -30.5634  -15.8865   19.2782 N   0  0  0  0  0  0  0  0  0  0  0  0
  -27.4136  -12.8146   18.2591 N   0  0  0  0  0  0  0  0  0  0  0  0
  -27.9359  -26.9411   17.8556 N   0  0  0  0  0  0  0  0  0  0  0  0
  -28.2265  -31.2687   23.1138 N   0  0  0  0  0  0  0  0  0  0  0  0
  -28.4712  -20.7113   22.5896 N   0  0  0  0  0  0  0  0  0  0  0  0
  -25.7521  -33.7463   24.0118 N   0  3  0  0  0  0  0  0  0  0  0  0
  -29.3412  -13.8183   17.5273 O   0  0  0  0  0  0  0  0  0  0  0  0
  -28.1862  -26.7155   20.1598 O   0  0  0  0  0  0  0  0  0  0  0  0
  -29.1859  -30.3231   20.5852 O   0  0  0  0  0  0  0  0  0  0  0  0
  -26.2118  -30.9787   24.2247 O   0  0  0  0  0  0  0  0  0  0  0  0
  -30.1082  -21.0659   24.1552 O   0  0  0  0  0  0  0  0  0  0  0  0
  -23.0343  -11.4189   21.4070 O   0  0  0  0  0  0  0  0  0  0  0  0
  -21.8378  -26.3069   21.9022 O   0  0  0  0  0  0  0  0  0  1  0  0
  -23.3642   -6.0501   20.1940 F   0  0  0  0  0  0  0  0  0  0  0  0
  -22.5416   -9.4970   23.3322 F   0  0  0  0  0  0  0  0  0  0  0  0
  1  2  1  0  0  0  0
  1  5  2  0  0  0  0
  2  6  2  0  0  0  0
  3  8  2  0  0  0  0
  3 16  1  0  0  0  0
  4  9  1  0  0  0  0
  4 16  2  0  0  0  0
  5 18  1  0  0  0  0
  6 20  1  0  0  0  0
  7 10  2  0  0  0  0
  7 19  1  0  0  0  0
  8 22  1  0  0  0  0
  9 22  2  0  0  0  0
 10 23  1  0  0  0  0
 11 12  2  0  0  0  0
 11 24  1  0  0  0  0
 12 25  1  0  0  0  0
 13 21  1  0  0  0  0
 13 23  2  0  0  0  0
 14 25  2  0  0  0  0
 14 26  1  0  0  0  0
 15 28  1  0  0  0  0
 15 29  2  0  0  0  0
 16 27  1  0  0  0  0
 17 27  1  0  0  0  0
 17 30  2  0  0  0  0
 17 32  1  0  0  0  0
 18 20  2  0  0  0  0
 18 37  1  0  0  0  0
 19 21  2  0  0  0  0
 19 38  1  0  0  0  0
 20 46  1  0  0  0  0
 21 39  1  0  0  0  0
 22 85  1  0  0  0  0
 23 86  1  0  0  0  0
 24 26  2  0  0  0  0
 24 85  1  0  0  0  0
 25 87  1  0  0  0  0
 26 88  1  0  0  0  0
 27 68  2  0  0  0  0
 28 49  1  0  0  0  0
 28 69  2  0  0  0  0
 29 58  1  0  0  0  0
 29 70  1  0  0  0  0
 30 71  1  0  0  0  0
 30 74  1  0  0  0  0
 31 59  1  0  0  0  0
 31 69  1  0  0  0  0
 31 70  2  0  0  0  0
 32 75  1  0  0  0  0
 32 80  2  0  0  0  0
 33 47  1  0  0  0  0
 33 76  1  0  0  0  0
 33 81  2  0  0  0  0
 34 63  1  0  0  0  0
 34 72  1  0  0  0  0
 34 82  2  0  0  0  0
 35 64  1  0  0  0  0
 35 77  1  0  0  0  0
 35 83  2  0  0  0  0
 36 73  1  0  0  0  0
 36 78  1  0  0  0  0
 36 84  2  0  0  0  0
 37 40  1  0  0  0  0
 38 47  1  0  0  0  0
 39 72  1  0  0  0  0
 40 42  1  0  0  0  0
 41 43  1  0  0  0  0
 41 44  1  0  0  0  0
 42 46  1  0  0  0  0
 43 48  1  0  0  0  0
 44 73  1  0  0  0  0
 45 48  1  0  0  0  0
 45 73  1  0  0  0  0
 46 76  1  0  0  0  0
 47 72  1  0  0  0  0
 48 71  1  0  0  0  0
 50 60  1  0  0  0  0
 51 64  1  0  0  0  0
 52 66  1  0  0  0  0
 53 66  1  0  0  0  0
 54 66  1  0  0  0  0
 55 67  1  0  0  0  0
 56 67  1  0  0  0  0
 57 79  1  0  0  0  0
 58 61  1  0  0  0  0
 59 65  1  0  0  0  0
 60 65  1  0  0  0  0
 61 67  1  0  0  0  0
 62 67  1  0  0  0  0
 62 86  1  0  0  0  0
 63 66  1  0  0  0  0
 63 77  1  0  0  0  0
 64 79  1  0  0  0  0
 65 78  1  0  0  0  0
 68 71  1  0  0  0  0
M  CHG  1  79   1
M  ISO  4  36 100  62 101  78 100  86 101
M  END
> <Batch ID>
0085

> <Smiles>
CCC(Cc1nc(C)cc(CCC(C)(C)[101CH2:1][101O:1]c2ccc3c(c2)CN(C(=O)C(NC(=O)C(C)NC)C(C)(C)C)C(C(=O)NC2CCCc4ccccc42)C3)n1)[100NH:0][100C:0](=O)N1CCCC(n2nc(-c3ccc(Oc4ccc(F)cc4F)cc3)c(C(N)=O)c2N)C1

> <Shape>
0.228

> <Color>
0.079

> <Negative vol penalty>
0.000

$$$$

  -OEChem-04052318563D

 85 93  0     1  0  0  0  0  0999 V2000
  -23.4631  -21.7266   17.1546 C   0  0  0  0  0  0  0  0  0  0  0  0
  -24.6052  -22.2155   17.7806 C   0  0  0  0  0  0  0  0  0  0  0  0
  -25.7395  -14.0143   21.4083 C   0  0  0  0  0  0  0  0  0  0  0  0
  -26.3286  -14.1355   19.0684 C   0  0  0  0  0  0  0  0  0  0  0  0
  -22.7043  -22.5643   16.3382 C   0  0  0  0  0  0  0  0  0  0  0  0
  -24.9898  -23.5422   17.5898 C   0  0  0  0  0  0  0  0  0  0  0  0
  -26.3381  -25.8147   21.9098 C   0  0  0  0  0  0  0  0  0  0  0  0
  -24.7529  -13.0741   21.1112 C   0  0  0  0  0  0  0  0  0  0  0  0
  -25.3420  -13.1953   18.7713 C   0  0  0  0  0  0  0  0  0  0  0  0
  -27.6066  -25.5268   22.4117 C   0  0  0  0  0  0  0  0  0  0  0  0
  -24.5879   -9.7651   20.4357 C   0  0  0  0  0  0  0  0  0  0  0  0
  -24.4973   -8.6397   21.2547 C   0  0  0  0  0  0  0  0  0  0  0  0
  -28.4332  -27.5995   21.4953 C   0  0  0  0  0  0  0  0  0  0  0  0
  -31.7718  -22.4998   18.6815 C   0  0  0  0  0  0  0  0  0  0  0  0
  -22.2316   -9.2449   21.8356 C   0  0  0  0  0  0  0  0  0  0  0  0
  -30.3046  -24.3385   18.3305 C   0  0  0  0  0  0  0  0  0  0  0  0
  -26.5273  -14.5451   20.3869 C   0  0  0  0  0  0  0  0  0  0  0  0
  -28.8922  -15.2633   21.0186 C   0  0  0  0  0  0  0  0  0  0  0  0
  -23.0744  -23.9046   16.1449 C   0  0  0  0  0  0  0  0  0  0  0  0
  -26.1099  -26.9940   21.1862 C   0  0  0  0  0  0  0  0  0  0  0  0
  -24.2360  -24.3982   16.7690 C   0  0  0  0  0  0  0  0  0  0  0  0
  -27.1604  -27.9013   20.9874 C   0  0  0  0  0  0  0  0  0  0  0  0
  -30.7626  -23.0932   17.9314 C   0  0  0  0  0  0  0  0  0  0  0  0
  -32.2850  -23.1606   19.7921 C   0  0  0  0  0  0  0  0  0  0  0  0
  -24.5542  -12.6646   19.7927 C   0  0  0  0  0  0  0  0  0  0  0  0
  -28.6550  -26.4178   22.2021 C   0  0  0  0  0  0  0  0  0  0  0  0
  -23.5004  -10.6305   20.3166 C   0  0  0  0  0  0  0  0  0  0  0  0
  -23.3191   -8.3796   21.9546 C   0  0  0  0  0  0  0  0  0  0  0  0
  -22.3222  -10.3704   21.0165 C   0  0  0  0  0  0  0  0  0  0  0  0
  -27.5463  -15.5167   20.6930 C   0  0  0  0  0  0  0  0  0  0  0  0
  -31.7590  -24.4030   20.1078 C   0  0  0  0  0  0  0  0  0  0  0  0
  -29.4371  -16.5080   21.2194 C   0  0  0  0  0  0  0  0  0  0  0  0
  -29.5877  -14.0144   21.1295 C   0  0  0  0  0  0  0  0  0  0  0  0
  -25.1820  -27.6619   18.2203 C   0  0  0  0  0  0  0  0  0  0  0  0
  -25.1643  -30.7105   19.3284 C   0  0  0  0  0  0  0  0  0  0  0  0
  -26.3302  -32.9740   21.6009 C   0  0  0  0  0  0  0  0  0  0  0  0
  -27.9856  -21.9643   19.2263 C   0  0  0  0  0  0  0  0  0  0  0  0
  -22.2490  -24.7589   15.2157 C   0  0  0  0  0  0  0  0  0  0  0  0
  -24.7296  -27.3028   20.6743 C   0  0  0  0  0  0  0  0  0  0  0  0
  -26.9628  -29.1908   20.2347 C   0  0  0  0  0  0  0  0  0  0  0  0
  -22.5165  -26.2544   15.3644 C   0  0  0  0  0  0  0  0  0  0  0  0
  -28.2610  -20.9286   22.6216 C   0  0  0  0  0  0  0  0  0  0  0  0
  -24.0168  -26.5271   15.4031 C   0  0  0  0  0  0  0  0  0  0  0  0
  -28.2305  -19.4012   22.5417 C   0  0  0  0  0  0  0  0  0  0  0  0
  -27.3394  -21.5665   21.5844 C   0  0  0  0  0  0  0  0  0  0  0  0
  -27.5389  -19.5969   20.1164 C   0  0  0  0  0  0  0  0  0  0  0  0
  -24.6719  -25.8382   16.6063 C   0  0  1  0  0  0  0  0  0  0  0  0
  -24.7308  -28.2880   19.5095 C   0  0  1  0  0  0  0  0  0  0  0  0
  -28.4951  -18.9095   21.1060 C   0  0  2  0  0  0  0  0  0  0  0  0
  -33.3651  -22.5297   20.6013 C   0  0  0  0  0  0  0  0  0  0  0  0
  -26.1639  -35.3974   22.2307 C   0  0  0  0  0  0  0  0  0  0  0  0
  -30.8066  -21.0074   16.4004 C   0  0  0  0  0  0  0  0  0  0  0  0
  -30.4356  -23.2688   15.4495 C   0  0  0  0  0  0  0  0  0  0  0  0
  -26.9681  -31.4424   16.9788 C   0  0  0  0  0  0  0  0  0  0  0  0
  -27.5278  -33.5760   18.1633 C   0  0  0  0  0  0  0  0  0  0  0  0
  -25.1747  -33.1127   17.4770 C   0  0  0  0  0  0  0  0  0  0  0  0
  -25.2472  -32.3238   24.2773 C   0  0  0  0  0  0  0  0  0  0  0  0
  -32.2770  -25.1664   21.3004 C   0  0  0  0  0  0  0  0  0  0  0  0
  -31.7640  -24.6364   22.6412 C   0  0  0  0  0  0  0  0  0  0  0  0
  -28.6383  -22.2009   16.8437 C   0  0  0  0  0  0  0  0  0  0  0  0
  -30.2535  -24.7624   22.8022 C   0  0  0  0  0  0  0  0  0  1  0  0
  -26.1792  -31.8253   19.4072 C   0  0  1  0  0  0  0  0  0  0  0  0
  -25.6129  -33.9988   22.4609 C   0  0  2  0  0  0  0  0  0  0  0  0
  -30.1931  -22.4131   16.7376 C   0  0  0  0  0  0  0  0  0  0  0  0
  -26.4670  -32.4640   18.0191 C   0  0  0  0  0  0  0  0  0  0  0  0
  -30.7785  -25.0111   19.4032 N   0  0  0  0  0  0  0  0  0  0  0  0
  -27.2539  -16.8200   20.6864 N   0  0  0  0  0  0  0  0  0  0  0  0
  -28.4238  -17.3966   21.0104 N   0  0  0  0  0  0  0  0  0  0  0  0
  -25.5965  -29.4446   19.7484 N   0  0  0  0  0  0  0  0  0  0  0  0
  -27.6434  -21.0590   20.2443 N   0  0  0  0  0  0  0  0  0  0  0  0
  -30.6794  -16.9180   21.5527 N   0  0  0  0  0  0  0  0  0  0  0  0
  -28.8772  -12.8304   20.8900 N   0  0  0  0  0  0  0  0  0  0  0  0
  -24.4142  -26.5855   17.8186 N   0  0  0  0  0  0  0  0  0  0  0  0
  -25.6774  -32.7644   20.4046 N   0  0  0  0  0  0  0  0  0  0  0  0
  -28.2649  -21.3996   17.9879 N   0  0  0  0  0  0  0  0  0  0  0  0
  -25.7691  -33.6639   23.9046 N   0  3  0  0  0  0  0  0  0  0  0  0
  -30.7993  -13.9496   21.4480 O   0  0  0  0  0  0  0  0  0  0  0  0
  -26.1538  -28.1223   17.6326 O   0  0  0  0  0  0  0  0  0  0  0  0
  -24.0277  -30.9555   18.9163 O   0  0  0  0  0  0  0  0  0  0  0  0
  -27.3681  -32.4180   21.9533 O   0  0  0  0  0  0  0  0  0  0  0  0
  -28.0435  -23.1851   19.4091 O   0  0  0  0  0  0  0  0  0  0  0  0
  -23.5917  -11.7470   19.5025 O   0  0  0  0  0  0  0  0  0  0  0  0
  -29.8942  -26.1389   22.6904 O   0  0  0  0  0  0  0  0  0  1  0  0
  -23.2317   -7.2980   22.7399 F   0  0  0  0  0  0  0  0  0  0  0  0
  -21.2737  -11.1975   20.9052 F   0  0  0  0  0  0  0  0  0  0  0  0
  1  2  1  0  0  0  0
  1  5  2  0  0  0  0
  2  6  2  0  0  0  0
  3  8  2  0  0  0  0
  3 17  1  0  0  0  0
  4  9  1  0  0  0  0
  4 17  2  0  0  0  0
  5 19  1  0  0  0  0
  6 21  1  0  0  0  0
  7 10  2  0  0  0  0
  7 20  1  0  0  0  0
  8 25  1  0  0  0  0
  9 25  2  0  0  0  0
 10 26  1  0  0  0  0
 11 12  2  0  0  0  0
 11 27  1  0  0  0  0
 12 28  1  0  0  0  0
 13 22  1  0  0  0  0
 13 26  2  0  0  0  0
 14 23  2  0  0  0  0
 14 24  1  0  0  0  0
 15 28  2  0  0  0  0
 15 29  1  0  0  0  0
 16 23  1  0  0  0  0
 16 66  2  0  0  0  0
 17 30  1  0  0  0  0
 18 30  1  0  0  0  0
 18 32  2  0  0  0  0
 18 33  1  0  0  0  0
 19 21  2  0  0  0  0
 19 38  1  0  0  0  0
 20 22  2  0  0  0  0
 20 39  1  0  0  0  0
 21 47  1  0  0  0  0
 22 40  1  0  0  0  0
 23 64  1  0  0  0  0
 24 31  2  0  0  0  0
 24 50  1  0  0  0  0
 25 82  1  0  0  0  0
 26 83  1  0  0  0  0
 27 29  2  0  0  0  0
 27 82  1  0  0  0  0
 28 84  1  0  0  0  0
 29 85  1  0  0  0  0
 30 67  2  0  0  0  0
 31 58  1  0  0  0  0
 31 66  1  0  0  0  0
 32 68  1  0  0  0  0
 32 71  1  0  0  0  0
 33 72  1  0  0  0  0
 33 77  2  0  0  0  0
 34 48  1  0  0  0  0
 34 73  1  0  0  0  0
 34 78  2  0  0  0  0
 35 62  1  0  0  0  0
 35 69  1  0  0  0  0
 35 79  2  0  0  0  0
 36 63  1  0  0  0  0
 36 74  1  0  0  0  0
 36 80  2  0  0  0  0
 37 70  1  0  0  0  0
 37 75  1  0  0  0  0
 37 81  2  0  0  0  0
 38 41  1  0  0  0  0
 39 48  1  0  0  0  0
 40 69  1  0  0  0  0
 41 43  1  0  0  0  0
 42 44  1  0  0  0  0
 42 45  1  0  0  0  0
 43 47  1  0  0  0  0
 44 49  1  0  0  0  0
 45 70  1  0  0  0  0
 46 49  1  0  0  0  0
 46 70  1  0  0  0  0
 47 73  1  0  0  0  0
 48 69  1  0  0  0  0
 49 68  1  0  0  0  0
 51 63  1  0  0  0  0
 52 64  1  0  0  0  0
 53 64  1  0  0  0  0
 54 65  1  0  0  0  0
 55 65  1  0  0  0  0
 56 65  1  0  0  0  0
 57 76  1  0  0  0  0
 58 59  1  0  0  0  0
 59 61  1  0  0  0  0
 60 64  1  0  0  0  0
 60 75  1  0  0  0  0
 61 83  1  0  0  0  0
 62 65  1  0  0  0  0
 62 74  1  0  0  0  0
 63 76  1  0  0  0  0
 67 68  1  0  0  0  0
M  CHG  1  76   1
M  ISO  4  37 100  61 101  75 100  83 101
M  END
> <Batch ID>
0085

> <Smiles>
CNC(C)C(=O)NC(C(=O)N1Cc2cc([101O:1][101CH2:1]CCc3ncc(C(C)(C)C[100NH:0][100C:0](=O)N4CCCC(n5nc(-c6ccc(Oc7ccc(F)cc7F)cc6)c(C(N)=O)c5N)C4)cc3C)ccc2CC1C(=O)NC1CCCc2ccccc21)C(C)(C)C

> <Shape>
0.238

> <Color>
0.080

> <Negative vol penalty>
0.000

$$$$

  -OEChem-04052318563D

 85 93  0     1  0  0  0  0  0999 V2000
  -36.3752  -28.8495   15.7705 C   0  0  0  0  0  0  0  0  0  0  0  0
  -35.7328  -27.8076   16.4318 C   0  0  0  0  0  0  0  0  0  0  0  0
  -23.0753   -9.8675   19.9423 C   0  0  0  0  0  0  0  0  0  0  0  0
  -23.8387   -9.8752   22.2345 C   0  0  0  0  0  0  0  0  0  0  0  0
  -37.6101  -29.3075   16.2277 C   0  0  0  0  0  0  0  0  0  0  0  0
  -36.3256  -27.2223   17.5500 C   0  0  0  0  0  0  0  0  0  0  0  0
  -33.0433  -26.5112   21.3403 C   0  0  0  0  0  0  0  0  0  0  0  0
  -22.3331   -8.7136   20.1933 C   0  0  0  0  0  0  0  0  0  0  0  0
  -23.0964   -8.7212   22.4855 C   0  0  0  0  0  0  0  0  0  0  0  0
  -32.1786  -25.4224   21.2378 C   0  0  0  0  0  0  0  0  0  0  0  0
  -19.8700   -7.9200   23.0929 C   0  0  0  0  0  0  0  0  0  0  0  0
  -19.1149   -7.8792   24.2650 C   0  0  0  0  0  0  0  0  0  0  0  0
  -33.5998  -24.1615   22.7243 C   0  0  0  0  0  0  0  0  0  0  0  0
  -27.2549  -19.5369   19.8172 C   0  0  0  0  0  0  0  0  0  0  0  0
  -20.3595   -5.9430   24.9994 C   0  0  0  0  0  0  0  0  0  0  0  0
  -23.8282  -10.4483   20.9629 C   0  0  0  0  0  0  0  0  0  0  0  0
  -24.1671  -12.9739   20.8425 C   0  0  0  0  0  0  0  0  0  0  0  0
  -38.2138  -28.7341   17.3579 C   0  0  0  0  0  0  0  0  0  0  0  0
  -34.2005  -26.4295   22.1282 C   0  0  0  0  0  0  0  0  0  0  0  0
  -37.5704  -27.6723   18.0220 C   0  0  0  0  0  0  0  0  0  0  0  0
  -34.4763  -25.2516   22.8371 C   0  0  0  0  0  0  0  0  0  0  0  0
  -28.6084  -19.2502   19.8440 C   0  0  0  0  0  0  0  0  0  0  0  0
  -22.3436   -8.1404   21.4649 C   0  0  0  0  0  0  0  0  0  0  0  0
  -32.4583  -24.2463   21.9276 C   0  0  0  0  0  0  0  0  0  0  0  0
  -20.8698   -6.9722   22.8741 C   0  0  0  0  0  0  0  0  0  0  0  0
  -19.3596   -6.8907   25.2182 C   0  0  0  0  0  0  0  0  0  0  0  0
  -21.1146   -5.9838   23.8273 C   0  0  0  0  0  0  0  0  0  0  0  0
  -24.5956  -11.6401   20.7040 C   0  0  0  0  0  0  0  0  0  0  0  0
  -26.4534  -18.9618   20.7827 C   0  0  0  0  0  0  0  0  0  0  0  0
  -29.0709  -18.4076   20.8349 C   0  0  0  0  0  0  0  0  0  0  0  0
  -25.2579  -13.7245   20.4776 C   0  0  0  0  0  0  0  0  0  0  0  0
  -22.8968  -13.4883   21.2634 C   0  0  0  0  0  0  0  0  0  0  0  0
  -37.3211  -26.6296   21.5580 C   0  0  0  0  0  0  0  0  0  0  0  0
  -37.5262  -26.4786   24.7918 C   0  0  0  0  0  0  0  0  0  0  0  0
  -36.1047  -25.5225   27.7435 C   0  0  0  0  0  0  0  0  0  0  0  0
  -30.7409  -14.7494   20.6576 C   0  0  0  0  0  0  0  0  0  0  0  0
  -39.5716  -29.2313   17.7866 C   0  0  0  0  0  0  0  0  0  0  0  0
  -35.1091  -27.6220   22.2494 C   0  0  0  0  0  0  0  0  0  0  0  0
  -35.6948  -25.1197   23.7125 C   0  0  0  0  0  0  0  0  0  0  0  0
  -39.9565  -28.8078   19.2018 C   0  0  0  0  0  0  0  0  0  0  0  0
  -29.6022  -12.3638   18.2724 C   0  0  0  0  0  0  0  0  0  0  0  0
  -39.6657  -27.3254   19.4130 C   0  0  0  0  0  0  0  0  0  0  0  0
  -28.1657  -12.0685   18.7076 C   0  0  0  0  0  0  0  0  0  0  0  0
  -30.5209  -12.5856   19.4719 C   0  0  0  0  0  0  0  0  0  0  0  0
  -28.6205  -13.3145   20.8615 C   0  0  0  0  0  0  0  0  0  0  0  0
  -38.1698  -27.0284   19.2533 C   0  0  1  0  0  0  0  0  0  0  0  0
  -36.5275  -27.2519   22.6719 C   0  0  1  0  0  0  0  0  0  0  0  0
  -27.6447  -13.1390   19.6853 C   0  0  2  0  0  0  0  0  0  0  0  0
  -24.6355  -20.4568   21.6467 C   0  0  0  0  0  0  0  0  0  0  0  0
  -36.5277  -25.4982   30.2169 C   0  0  0  0  0  0  0  0  0  0  0  0
  -39.4638  -24.1487   24.4352 C   0  0  0  0  0  0  0  0  0  0  0  0
  -39.1055  -23.5727   26.8452 C   0  0  0  0  0  0  0  0  0  0  0  0
  -40.1039  -25.7731   26.2256 C   0  0  0  0  0  0  0  0  0  0  0  0
  -33.7341  -27.2103   28.2827 C   0  0  0  0  0  0  0  0  0  0  0  0
  -29.5286  -19.8527   18.8125 C   0  0  0  0  0  0  0  0  0  0  0  0
  -24.9890  -19.2379   20.7978 C   0  0  0  0  0  0  0  0  0  0  0  0
  -30.5166  -18.0529   20.9260 C   0  0  0  0  0  0  0  0  0  0  0  0
  -29.8592  -21.3280   19.0641 C   0  0  0  0  0  0  0  0  0  0  0  0
  -30.6191  -21.5568   20.3714 C   0  0  0  0  0  0  0  0  0  0  0  0
  -30.8063  -16.9000   21.8946 C   0  0  0  0  0  0  0  0  0  0  0  0
  -30.8946  -23.0358   20.6064 C   0  0  0  0  0  0  0  0  0  1  0  0
  -37.6445  -25.3655   25.8047 C   0  0  1  0  0  0  0  0  0  0  0  0
  -35.9121  -26.2623   29.0550 C   0  0  2  0  0  0  0  0  0  0  0  0
  -39.0574  -24.7165   25.8097 C   0  0  0  0  0  0  0  0  0  0  0  0
  -25.8599  -11.5456   20.2838 N   0  0  0  0  0  0  0  0  0  0  0  0
  -26.9332  -18.1407   21.7408 N   0  0  0  0  0  0  0  0  0  0  0  0
  -28.2635  -17.8592   21.7674 N   0  0  0  0  0  0  0  0  0  0  0  0
  -26.2353  -12.8296   20.1550 N   0  0  0  0  0  0  0  0  0  0  0  0
  -36.5559  -26.3111   23.7936 N   0  0  0  0  0  0  0  0  0  0  0  0
  -29.9706  -13.6134   20.3588 N   0  0  0  0  0  0  0  0  0  0  0  0
  -25.4668  -15.0562   20.4043 N   0  0  0  0  0  0  0  0  0  0  0  0
  -21.8863  -12.5780   21.6021 N   0  0  0  0  0  0  0  0  0  0  0  0
  -37.4451  -27.4314   20.4394 N   0  0  0  0  0  0  0  0  0  0  0  0
  -37.2444  -25.9358   27.0866 N   0  0  0  0  0  0  0  0  0  0  0  0
  -30.1420  -15.6775   21.5006 N   0  0  0  0  0  0  0  0  0  0  0  0
  -34.4606  -26.4527   29.3340 N   0  3  0  0  0  0  0  0  0  0  0  0
  -22.6593  -14.7187   21.3211 O   0  0  0  0  0  0  0  0  0  0  0  0
  -37.7878  -25.5058   21.7033 O   0  0  0  0  0  0  0  0  0  0  0  0
  -38.2624  -27.4637   24.8871 O   0  0  0  0  0  0  0  0  0  0  0  0
  -35.3243  -24.6613   27.3437 O   0  0  0  0  0  0  0  0  0  0  0  0
  -31.8759  -14.9261   20.2023 O   0  0  0  0  0  0  0  0  0  0  0  0
  -21.6192   -7.0146   21.7103 O   0  0  0  0  0  0  0  0  0  0  0  0
  -31.6162  -23.1819   21.8288 O   0  0  0  0  0  0  0  0  0  1  0  0
  -18.6355   -6.8526   26.3444 F   0  0  0  0  0  0  0  0  0  0  0  0
  -22.0746   -5.0713   23.6232 F   0  0  0  0  0  0  0  0  0  0  0  0
  1  2  1  0  0  0  0
  1  5  2  0  0  0  0
  2  6  2  0  0  0  0
  3  8  2  0  0  0  0
  3 16  1  0  0  0  0
  4  9  1  0  0  0  0
  4 16  2  0  0  0  0
  5 18  1  0  0  0  0
  6 20  1  0  0  0  0
  7 10  2  0  0  0  0
  7 19  1  0  0  0  0
  8 23  1  0  0  0  0
  9 23  2  0  0  0  0
 10 24  1  0  0  0  0
 11 12  2  0  0  0  0
 11 25  1  0  0  0  0
 12 26  1  0  0  0  0
 13 21  1  0  0  0  0
 13 24  2  0  0  0  0
 14 22  2  0  0  0  0
 14 29  1  0  0  0  0
 15 26  2  0  0  0  0
 15 27  1  0  0  0  0
 16 28  1  0  0  0  0
 17 28  1  0  0  0  0
 17 31  2  0  0  0  0
 17 32  1  0  0  0  0
 18 20  2  0  0  0  0
 18 37  1  0  0  0  0
 19 21  2  0  0  0  0
 19 38  1  0  0  0  0
 20 46  1  0  0  0  0
 21 39  1  0  0  0  0
 22 30  1  0  0  0  0
 22 55  1  0  0  0  0
 23 82  1  0  0  0  0
 24 83  1  0  0  0  0
 25 27  2  0  0  0  0
 25 82  1  0  0  0  0
 26 84  1  0  0  0  0
 27 85  1  0  0  0  0
 28 65  2  0  0  0  0
 29 56  1  0  0  0  0
 29 66  2  0  0  0  0
 30 57  1  0  0  0  0
 30 67  2  0  0  0  0
 31 68  1  0  0  0  0
 31 71  1  0  0  0  0
 32 72  1  0  0  0  0
 32 77  2  0  0  0  0
 33 47  1  0  0  0  0
 33 73  1  0  0  0  0
 33 78  2  0  0  0  0
 34 62  1  0  0  0  0
 34 69  1  0  0  0  0
 34 79  2  0  0  0  0
 35 63  1  0  0  0  0
 35 74  1  0  0  0  0
 35 80  2  0  0  0  0
 36 70  1  0  0  0  0
 36 75  1  0  0  0  0
 36 81  2  0  0  0  0
 37 40  1  0  0  0  0
 38 47  1  0  0  0  0
 39 69  1  0  0  0  0
 40 42  1  0  0  0  0
 41 43  1  0  0  0  0
 41 44  1  0  0  0  0
 42 46  1  0  0  0  0
 43 48  1  0  0  0  0
 44 70  1  0  0  0  0
 45 48  1  0  0  0  0
 45 70  1  0  0  0  0
 46 73  1  0  0  0  0
 47 69  1  0  0  0  0
 48 68  1  0  0  0  0
 49 56  1  0  0  0  0
 50 63  1  0  0  0  0
 51 64  1  0  0  0  0
 52 64  1  0  0  0  0
 53 64  1  0  0  0  0
 54 76  1  0  0  0  0
 55 58  1  0  0  0  0
 57 60  1  0  0  0  0
 58 59  1  0  0  0  0
 59 61  1  0  0  0  0
 60 75  1  0  0  0  0
 61 83  1  0  0  0  0
 62 64  1  0  0  0  0
 62 74  1  0  0  0  0
 63 76  1  0  0  0  0
 65 68  1  0  0  0  0
 66 67  1  0  0  0  0
M  CHG  1  76   1
M  ISO  4  36 100  61 101  75 100  83 101
M  END
> <Batch ID>
0085

> <Smiles>
CCc1cc(CCC[101CH2:1][101O:1]c2ccc3c(c2)CN(C(=O)C(NC(=O)C(C)NC)C(C)(C)C)C(C(=O)NC2CCCc4ccccc42)C3)c(CC[100NH:0][100C:0](=O)N2CCCC(n3nc(-c4ccc(Oc5ccc(F)cc5F)cc4)c(C(N)=O)c3N)C2)nn1

> <Shape>
0.208

> <Color>
0.186

> <Negative vol penalty>
0.000

$$$$

  -OEChem-04052318563D

 85 93  0     1  0  0  0  0  0999 V2000
  -17.1006  -29.8378   24.6364 C   0  0  0  0  0  0  0  0  0  0  0  0
  -17.6448  -28.5593   24.5664 C   0  0  0  0  0  0  0  0  0  0  0  0
  -30.4044  -21.2333   17.6311 C   0  0  0  0  0  0  0  0  0  0  0  0
  -29.3536  -21.5544   19.7828 C   0  0  0  0  0  0  0  0  0  0  0  0
  -17.4589  -30.7992   23.6924 C   0  0  0  0  0  0  0  0  0  0  0  0
  -18.5468  -28.2413   23.5517 C   0  0  0  0  0  0  0  0  0  0  0  0
  -23.3488  -24.4609   23.9461 C   0  0  0  0  0  0  0  0  0  0  0  0
  -21.2200  -17.4858   19.8066 C   0  0  0  0  0  0  0  0  0  0  0  0
  -30.2464  -22.5906   17.3514 C   0  0  0  0  0  0  0  0  0  0  0  0
  -29.1957  -22.9118   19.5031 C   0  0  0  0  0  0  0  0  0  0  0  0
  -23.5261  -23.1282   23.5774 C   0  0  0  0  0  0  0  0  0  0  0  0
  -27.7681  -24.6519   16.3349 C   0  0  0  0  0  0  0  0  0  0  0  0
  -27.2933  -25.0014   15.0708 C   0  0  0  0  0  0  0  0  0  0  0  0
  -21.0350  -16.4714   18.8738 C   0  0  0  0  0  0  0  0  0  0  0  0
  -24.4908  -23.8418   21.4847 C   0  0  0  0  0  0  0  0  0  0  0  0
  -29.3180  -26.2528   14.6564 C   0  0  0  0  0  0  0  0  0  0  0  0
  -29.9579  -20.7152   18.8468 C   0  0  0  0  0  0  0  0  0  0  0  0
  -31.2186  -18.6963   19.7647 C   0  0  0  0  0  0  0  0  0  0  0  0
  -18.3732  -30.4957   22.6713 C   0  0  0  0  0  0  0  0  0  0  0  0
  -23.7318  -25.4959   23.0809 C   0  0  0  0  0  0  0  0  0  0  0  0
  -18.9167  -29.1993   22.5924 C   0  0  0  0  0  0  0  0  0  0  0  0
  -24.3197  -25.1869   21.8459 C   0  0  0  0  0  0  0  0  0  0  0  0
  -22.0026  -17.2533   20.9321 C   0  0  0  0  0  0  0  0  0  0  0  0
  -29.6421  -23.4299   18.2874 C   0  0  0  0  0  0  0  0  0  0  0  0
  -24.0945  -22.8184   22.3453 C   0  0  0  0  0  0  0  0  0  0  0  0
  -29.0178  -25.1030   16.7599 C   0  0  0  0  0  0  0  0  0  0  0  0
  -28.0683  -25.8018   14.2315 C   0  0  0  0  0  0  0  0  0  0  0  0
  -29.7928  -25.9034   15.9206 C   0  0  0  0  0  0  0  0  0  0  0  0
  -30.1203  -19.3130   19.1361 C   0  0  0  0  0  0  0  0  0  0  0  0
  -21.6493  -15.2523   19.1109 C   0  0  0  0  0  0  0  0  0  0  0  0
  -22.5735  -15.9991   21.0772 C   0  0  0  0  0  0  0  0  0  0  0  0
  -30.8884  -17.3637   19.8033 C   0  0  0  0  0  0  0  0  0  0  0  0
  -32.4291  -19.2762   20.2688 C   0  0  0  0  0  0  0  0  0  0  0  0
  -22.2065  -27.8507   21.5869 C   0  0  0  0  0  0  0  0  0  0  0  0
  -25.2110  -28.7406   20.7482 C   0  0  0  0  0  0  0  0  0  0  0  0
  -28.4619  -27.8394   20.2323 C   0  0  0  0  0  0  0  0  0  0  0  0
  -25.6538  -14.4571   19.7581 C   0  0  0  0  0  0  0  0  0  0  0  0
  -18.6938  -31.5541   21.6458 C   0  0  0  0  0  0  0  0  0  0  0  0
  -23.5584  -26.9286   23.5048 C   0  0  0  0  0  0  0  0  0  0  0  0
  -24.7665  -26.2611   20.8894 C   0  0  0  0  0  0  0  0  0  0  0  0
  -19.9428  -31.2470   20.8236 C   0  0  0  0  0  0  0  0  0  0  0  0
  -28.3383  -14.0683   17.4519 C   0  0  0  0  0  0  0  0  0  0  0  0
  -19.9209  -29.8006   20.3395 C   0  0  0  0  0  0  0  0  0  0  0  0
  -29.1985  -15.3128   17.6787 C   0  0  0  0  0  0  0  0  0  0  0  0
  -26.8495  -14.3786   17.5900 C   0  0  0  0  0  0  0  0  0  0  0  0
  -27.3291  -16.2820   19.0802 C   0  0  0  0  0  0  0  0  0  0  0  0
  -19.9173  -28.8233   21.5212 C   0  0  1  0  0  0  0  0  0  0  0  0
  -23.5127  -27.8985   22.3281 C   0  0  1  0  0  0  0  0  0  0  0  0
  -28.8408  -16.0073   19.0065 C   0  0  2  0  0  0  0  0  0  0  0  0
  -22.5473  -14.1510   17.0452 C   0  0  0  0  0  0  0  0  0  0  0  0
  -22.5879  -15.2046   23.4631 C   0  0  0  0  0  0  0  0  0  0  0  0
  -30.6759  -28.7773   19.5139 C   0  0  0  0  0  0  0  0  0  0  0  0
  -24.2657  -28.7439   17.8471 C   0  0  0  0  0  0  0  0  0  0  0  0
  -26.6667  -28.7418   17.1377 C   0  0  0  0  0  0  0  0  0  0  0  0
  -25.7602  -30.6533   18.4595 C   0  0  0  0  0  0  0  0  0  0  0  0
  -29.7182  -27.1707   22.8272 C   0  0  0  0  0  0  0  0  0  0  0  0
  -22.2059  -18.3490   21.9479 C   0  0  0  0  0  0  0  0  0  0  0  0
  -21.4734  -14.1419   18.1295 C   0  0  0  0  0  0  0  0  0  0  0  0
  -23.2014  -19.4231   21.5044 C   0  0  0  0  0  0  0  0  0  0  0  0
  -24.5455  -14.6669   21.9687 C   0  0  0  0  0  0  0  0  0  0  0  0
  -23.3358  -20.5697   22.4997 C   0  0  0  0  0  0  0  0  0  1  0  0
  -23.4263  -15.6934   22.2646 C   0  0  1  0  0  0  0  0  0  0  0  0
  -26.1369  -28.4274   19.5977 C   0  0  1  0  0  0  0  0  0  0  0  0
  -29.7660  -28.4658   20.6920 C   0  0  2  0  0  0  0  0  0  0  0  0
  -25.6973  -29.1211   18.2775 C   0  0  0  0  0  0  0  0  0  0  0  0
  -29.1639  -18.4435   18.7994 N   0  0  0  0  0  0  0  0  0  0  0  0
  -22.4165  -14.9891   20.1924 N   0  0  0  0  0  0  0  0  0  0  0  0
  -29.6603  -17.2669   19.2179 N   0  0  0  0  0  0  0  0  0  0  0  0
  -24.5700  -27.6467   21.3467 N   0  0  0  0  0  0  0  0  0  0  0  0
  -26.5771  -15.0348   18.8711 N   0  0  0  0  0  0  0  0  0  0  0  0
  -31.5316  -16.2769   20.2804 N   0  0  0  0  0  0  0  0  0  0  0  0
  -32.6072  -20.6612   20.1483 N   0  0  0  0  0  0  0  0  0  0  0  0
  -21.2448  -28.7083   22.0860 N   0  0  0  0  0  0  0  0  0  0  0  0
  -27.4785  -28.7873   20.0437 N   0  0  0  0  0  0  0  0  0  0  0  0
  -25.4590  -15.1398   20.9526 N   0  0  0  0  0  0  0  0  0  0  0  0
  -30.4881  -27.5425   21.6123 N   0  3  0  0  0  0  0  0  0  0  0  0
  -33.3334  -18.5845   20.7953 O   0  0  0  0  0  0  0  0  0  0  0  0
  -22.0811  -27.0930   20.6320 O   0  0  0  0  0  0  0  0  0  0  0  0
  -25.0676  -29.9120   21.1074 O   0  0  0  0  0  0  0  0  0  0  0  0
  -28.3300  -26.6304   20.0543 O   0  0  0  0  0  0  0  0  0  0  0  0
  -25.0519  -13.4076   19.5067 O   0  0  0  0  0  0  0  0  0  0  0  0
  -29.4880  -24.7545   18.0149 O   0  0  0  0  0  0  0  0  0  0  0  0
  -24.2681  -21.5183   21.9826 O   0  0  0  0  0  0  0  0  0  1  0  0
  -27.6130  -26.1360   13.0170 F   0  0  0  0  0  0  0  0  0  0  0  0
  -30.9946  -26.3387   16.3228 F   0  0  0  0  0  0  0  0  0  0  0  0
  1  2  1  0  0  0  0
  1  5  2  0  0  0  0
  2  6  2  0  0  0  0
  3  9  2  0  0  0  0
  3 17  1  0  0  0  0
  4 10  1  0  0  0  0
  4 17  2  0  0  0  0
  5 19  1  0  0  0  0
  6 21  1  0  0  0  0
  7 11  2  0  0  0  0
  7 20  1  0  0  0  0
  8 14  2  0  0  0  0
  8 23  1  0  0  0  0
  9 24  1  0  0  0  0
 10 24  2  0  0  0  0
 11 25  1  0  0  0  0
 12 13  2  0  0  0  0
 12 26  1  0  0  0  0
 13 27  1  0  0  0  0
 14 30  1  0  0  0  0
 15 22  1  0  0  0  0
 15 25  2  0  0  0  0
 16 27  2  0  0  0  0
 16 28  1  0  0  0  0
 17 29  1  0  0  0  0
 18 29  1  0  0  0  0
 18 32  2  0  0  0  0
 18 33  1  0  0  0  0
 19 21  2  0  0  0  0
 19 38  1  0  0  0  0
 20 22  2  0  0  0  0
 20 39  1  0  0  0  0
 21 47  1  0  0  0  0
 22 40  1  0  0  0  0
 23 31  2  0  0  0  0
 23 57  1  0  0  0  0
 24 82  1  0  0  0  0
 25 83  1  0  0  0  0
 26 28  2  0  0  0  0
 26 82  1  0  0  0  0
 27 84  1  0  0  0  0
 28 85  1  0  0  0  0
 29 66  2  0  0  0  0
 30 58  1  0  0  0  0
 30 67  2  0  0  0  0
 31 62  1  0  0  0  0
 31 67  1  0  0  0  0
 32 68  1  0  0  0  0
 32 71  1  0  0  0  0
 33 72  1  0  0  0  0
 33 77  2  0  0  0  0
 34 48  1  0  0  0  0
 34 73  1  0  0  0  0
 34 78  2  0  0  0  0
 35 63  1  0  0  0  0
 35 69  1  0  0  0  0
 35 79  2  0  0  0  0
 36 64  1  0  0  0  0
 36 74  1  0  0  0  0
 36 80  2  0  0  0  0
 37 70  1  0  0  0  0
 37 75  1  0  0  0  0
 37 81  2  0  0  0  0
 38 41  1  0  0  0  0
 39 48  1  0  0  0  0
 40 69  1  0  0  0  0
 41 43  1  0  0  0  0
 42 44  1  0  0  0  0
 42 45  1  0  0  0  0
 43 47  1  0  0  0  0
 44 49  1  0  0  0  0
 45 70  1  0  0  0  0
 46 49  1  0  0  0  0
 46 70  1  0  0  0  0
 47 73  1  0  0  0  0
 48 69  1  0  0  0  0
 49 68  1  0  0  0  0
 50 58  1  0  0  0  0
 51 62  1  0  0  0  0
 52 64  1  0  0  0  0
 53 65  1  0  0  0  0
 54 65  1  0  0  0  0
 55 65  1  0  0  0  0
 56 76  1  0  0  0  0
 57 59  1  0  0  0  0
 59 61  1  0  0  0  0
 60 62  1  0  0  0  0
 60 75  1  0  0  0  0
 61 83  1  0  0  0  0
 63 65  1  0  0  0  0
 63 74  1  0  0  0  0
 64 76  1  0  0  0  0
 66 68  1  0  0  0  0
M  CHG  1  76   1
M  ISO  4  37 100  61 101  75 100  83 101
M  END
> <Batch ID>
0085

> <Smiles>
CCc1ccc(CC[101CH2:1][101O:1]c2ccc3c(c2)CN(C(=O)C(NC(=O)C(C)NC)C(C)(C)C)C(C(=O)NC2CCCc4ccccc42)C3)c(C(C)C[100NH:0][100C:0](=O)N2CCCC(n3nc(-c4ccc(Oc5ccc(F)cc5F)cc4)c(C(N)=O)c3N)C2)n1

> <Shape>
0.187

> <Color>
0.078

> <Negative vol penalty>
0.000

$$$$

  -OEChem-04052318563D

 88 96  0     1  0  0  0  0  0999 V2000
  -31.0149  -34.0831   18.7124 C   0  0  0  0  0  0  0  0  0  0  0  0
  -31.2887  -33.0446   19.5967 C   0  0  0  0  0  0  0  0  0  0  0  0
  -23.6219   -9.6666   19.9500 C   0  0  0  0  0  0  0  0  0  0  0  0
  -23.7129  -10.0383   22.3355 C   0  0  0  0  0  0  0  0  0  0  0  0
  -29.7832  -34.7344   18.7638 C   0  0  0  0  0  0  0  0  0  0  0  0
  -30.3313  -32.6574   20.5336 C   0  0  0  0  0  0  0  0  0  0  0  0
  -27.8085  -25.9118   20.6873 C   0  0  0  0  0  0  0  0  0  0  0  0
  -22.9960   -8.4388   20.1651 C   0  0  0  0  0  0  0  0  0  0  0  0
  -23.0870   -8.8105   22.5507 C   0  0  0  0  0  0  0  0  0  0  0  0
  -27.4318  -24.5883   20.9166 C   0  0  0  0  0  0  0  0  0  0  0  0
  -19.9515   -7.5573   22.4142 C   0  0  0  0  0  0  0  0  0  0  0  0
  -18.9133   -7.5151   23.3448 C   0  0  0  0  0  0  0  0  0  0  0  0
  -25.9540  -25.3052   22.6915 C   0  0  0  0  0  0  0  0  0  0  0  0
  -20.1469   -5.8971   24.6476 C   0  0  0  0  0  0  0  0  0  0  0  0
  -26.9000  -19.1248   19.3645 C   0  0  0  0  0  0  0  0  0  0  0  0
  -23.9805  -10.4663   21.0351 C   0  0  0  0  0  0  0  0  0  0  0  0
  -24.0077  -12.9867   20.6422 C   0  0  0  0  0  0  0  0  0  0  0  0
  -28.8065  -34.3486   19.6954 C   0  0  0  0  0  0  0  0  0  0  0  0
  -27.2471  -26.9398   21.4499 C   0  0  0  0  0  0  0  0  0  0  0  0
  -29.0858  -33.3051   20.5984 C   0  0  0  0  0  0  0  0  0  0  0  0
  -26.3181  -26.6340   22.4580 C   0  0  0  0  0  0  0  0  0  0  0  0
  -26.0798  -19.0132   18.2684 C   0  0  0  0  0  0  0  0  0  0  0  0
  -22.7285   -8.0107   21.4655 C   0  0  0  0  0  0  0  0  0  0  0  0
  -26.5070  -24.2858   21.9164 C   0  0  0  0  0  0  0  0  0  0  0  0
  -21.0873   -6.7693   22.6002 C   0  0  0  0  0  0  0  0  0  0  0  0
  -19.0110   -6.6851   24.4615 C   0  0  0  0  0  0  0  0  0  0  0  0
  -21.1851   -5.9392   23.7170 C   0  0  0  0  0  0  0  0  0  0  0  0
  -24.6276  -11.7345   20.8135 C   0  0  0  0  0  0  0  0  0  0  0  0
  -26.5474  -17.8693   17.5941 C   0  0  0  0  0  0  0  0  0  0  0  0
  -25.0495  -13.8644   20.4666 C   0  0  0  0  0  0  0  0  0  0  0  0
  -22.6147  -13.3263   20.6420 C   0  0  0  0  0  0  0  0  0  0  0  0
  -27.0574  -30.6242   22.1317 C   0  0  0  0  0  0  0  0  0  0  0  0
  -24.1977  -29.5323   22.3331 C   0  0  0  0  0  0  0  0  0  0  0  0
  -21.1564  -28.0135   22.0484 C   0  0  0  0  0  0  0  0  0  0  0  0
  -30.1244  -15.5547   22.3916 C   0  0  0  0  0  0  0  0  0  0  0  0
  -27.5077  -35.1137   19.7444 C   0  0  0  0  0  0  0  0  0  0  0  0
  -27.6695  -28.3737   21.2789 C   0  0  0  0  0  0  0  0  0  0  0  0
  -25.7662  -27.7689   23.2767 C   0  0  0  0  0  0  0  0  0  0  0  0
  -26.4060  -34.3945   20.5185 C   0  0  0  0  0  0  0  0  0  0  0  0
  -29.9686  -13.0468   19.6735 C   0  0  0  0  0  0  0  0  0  0  0  0
  -26.9443  -33.8624   21.8429 C   0  0  0  0  0  0  0  0  0  0  0  0
  -28.5304  -12.5403   19.7696 C   0  0  0  0  0  0  0  0  0  0  0  0
  -30.4896  -13.5341   21.0221 C   0  0  0  0  0  0  0  0  0  0  0  0
  -28.1884  -14.0552   21.7618 C   0  0  0  0  0  0  0  0  0  0  0  0
  -28.0635  -32.8398   21.6126 C   0  0  1  0  0  0  0  0  0  0  0  0
  -26.5198  -29.3723   21.5031 C   0  0  1  0  0  0  0  0  0  0  0  0
  -27.6173  -13.6000   20.4105 C   0  0  2  0  0  0  0  0  0  0  0  0
  -26.0295  -17.2820   16.3459 C   0  0  0  0  0  0  0  0  0  0  0  0
  -18.6975  -28.4778   22.2361 C   0  0  0  0  0  0  0  0  0  0  0  0
  -24.4339  -29.5344   25.3741 C   0  0  0  0  0  0  0  0  0  0  0  0
  -21.9820  -29.0427   25.4941 C   0  0  0  0  0  0  0  0  0  0  0  0
  -22.7770  -31.1666   24.4551 C   0  0  0  0  0  0  0  0  0  0  0  0
  -23.0498  -18.2754   18.3732 C   0  0  0  0  0  0  0  0  0  0  0  0
  -22.5507  -20.6848   18.0102 C   0  0  0  0  0  0  0  0  0  0  0  0
  -29.9486  -17.8866   23.1733 C   0  0  0  0  0  0  0  0  0  0  0  0
  -20.6846  -27.2831   19.2195 C   0  0  0  0  0  0  0  0  0  0  0  0
  -24.9349  -19.9225   17.8837 C   0  0  0  0  0  0  0  0  0  0  0  0
  -24.2082  -21.2858   20.6100 C   0  0  0  0  0  0  0  0  0  0  0  0
  -24.3039  -21.4177   22.1362 C   0  0  0  0  0  0  0  0  0  0  0  0
  -23.6692  -19.9215   20.1588 C   0  0  0  0  0  0  0  0  0  0  0  0
  -28.8342  -17.7778   20.2152 C   0  0  0  0  0  0  0  0  0  0  0  0
  -28.3331  -17.0951   21.4853 C   0  0  0  0  0  0  0  0  0  0  0  0
  -24.8207  -22.7656   22.6255 C   0  0  0  0  0  0  0  0  0  1  0  0
  -23.1132  -28.9834   23.2252 C   0  0  1  0  0  0  0  0  0  0  0  0
  -19.8963  -28.4136   21.3025 C   0  0  2  0  0  0  0  0  0  0  0  0
  -23.0940  -29.6646   24.6227 C   0  0  0  0  0  0  0  0  0  0  0  0
  -23.5779  -19.7057   18.6205 C   0  0  0  0  0  0  0  0  0  0  0  0
  -25.9599  -11.8060   20.7521 N   0  0  0  0  0  0  0  0  0  0  0  0
  -27.5843  -17.2953   18.2101 N   0  0  0  0  0  0  0  0  0  0  0  0
  -27.7751  -18.0819   19.2830 N   0  0  0  0  0  0  0  0  0  0  0  0
  -26.1858  -13.1137   20.5401 N   0  0  0  0  0  0  0  0  0  0  0  0
  -25.4502  -28.9106   22.4042 N   0  0  0  0  0  0  0  0  0  0  0  0
  -29.5813  -14.5078   21.6287 N   0  0  0  0  0  0  0  0  0  0  0  0
  -25.0952  -15.1974   20.2578 N   0  0  0  0  0  0  0  0  0  0  0  0
  -21.6775  -12.3025   20.8365 N   0  0  0  0  0  0  0  0  0  0  0  0
  -27.5080  -31.5618   21.2221 N   0  0  0  0  0  0  0  0  0  0  0  0
  -21.8661  -29.1143   22.4795 N   0  0  0  0  0  0  0  0  0  0  0  0
  -29.4196  -16.7679   22.4061 N   0  0  0  0  0  0  0  0  0  0  0  0
  -19.5990  -27.4302   20.2229 N   0  3  0  0  0  0  0  0  0  0  0  0
  -22.2124  -14.5001   20.4579 O   0  0  0  0  0  0  0  0  0  0  0  0
  -27.0621  -30.7334   23.3523 O   0  0  0  0  0  0  0  0  0  0  0  0
  -23.9455  -30.4899   21.5964 O   0  0  0  0  0  0  0  0  0  0  0  0
  -21.4771  -26.8415   22.2335 O   0  0  0  0  0  0  0  0  0  0  0  0
  -31.1840  -15.4160   23.0160 O   0  0  0  0  0  0  0  0  0  0  0  0
  -22.1175   -6.8128   21.6758 O   0  0  0  0  0  0  0  0  0  0  0  0
  -26.1403  -22.9920   22.1319 O   0  0  0  0  0  0  0  0  0  1  0  0
  -18.0147   -6.6459   25.3559 F   0  0  0  0  0  0  0  0  0  0  0  0
  -22.2743   -5.1808   23.9017 F   0  0  0  0  0  0  0  0  0  0  0  0
  1  2  1  0  0  0  0
  1  5  2  0  0  0  0
  2  6  2  0  0  0  0
  3  8  2  0  0  0  0
  3 16  1  0  0  0  0
  4  9  1  0  0  0  0
  4 16  2  0  0  0  0
  5 18  1  0  0  0  0
  6 20  1  0  0  0  0
  7 10  2  0  0  0  0
  7 19  1  0  0  0  0
  8 23  1  0  0  0  0
  9 23  2  0  0  0  0
 10 24  1  0  0  0  0
 11 12  2  0  0  0  0
 11 25  1  0  0  0  0
 12 26  1  0  0  0  0
 13 21  1  0  0  0  0
 13 24  2  0  0  0  0
 14 26  2  0  0  0  0
 14 27  1  0  0  0  0
 15 22  2  0  0  0  0
 15 70  1  0  0  0  0
 16 28  1  0  0  0  0
 17 28  1  0  0  0  0
 17 30  2  0  0  0  0
 17 31  1  0  0  0  0
 18 20  2  0  0  0  0
 18 36  1  0  0  0  0
 19 21  2  0  0  0  0
 19 37  1  0  0  0  0
 20 45  1  0  0  0  0
 21 38  1  0  0  0  0
 22 29  1  0  0  0  0
 22 57  1  0  0  0  0
 23 85  1  0  0  0  0
 24 86  1  0  0  0  0
 25 27  2  0  0  0  0
 25 85  1  0  0  0  0
 26 87  1  0  0  0  0
 27 88  1  0  0  0  0
 28 68  2  0  0  0  0
 29 48  1  0  0  0  0
 29 69  2  0  0  0  0
 30 71  1  0  0  0  0
 30 74  1  0  0  0  0
 31 75  1  0  0  0  0
 31 80  2  0  0  0  0
 32 46  1  0  0  0  0
 32 76  1  0  0  0  0
 32 81  2  0  0  0  0
 33 64  1  0  0  0  0
 33 72  1  0  0  0  0
 33 82  2  0  0  0  0
 34 65  1  0  0  0  0
 34 77  1  0  0  0  0
 34 83  2  0  0  0  0
 35 73  1  0  0  0  0
 35 78  1  0  0  0  0
 35 84  2  0  0  0  0
 36 39  1  0  0  0  0
 37 46  1  0  0  0  0
 38 72  1  0  0  0  0
 39 41  1  0  0  0  0
 40 42  1  0  0  0  0
 40 43  1  0  0  0  0
 41 45  1  0  0  0  0
 42 47  1  0  0  0  0
 43 73  1  0  0  0  0
 44 47  1  0  0  0  0
 44 73  1  0  0  0  0
 45 76  1  0  0  0  0
 46 72  1  0  0  0  0
 47 71  1  0  0  0  0
 49 65  1  0  0  0  0
 50 66  1  0  0  0  0
 51 66  1  0  0  0  0
 52 66  1  0  0  0  0
 53 67  1  0  0  0  0
 54 67  1  0  0  0  0
 55 78  1  0  0  0  0
 56 79  1  0  0  0  0
 57 67  1  0  0  0  0
 58 59  1  0  0  0  0
 58 60  1  0  0  0  0
 59 63  1  0  0  0  0
 60 67  1  0  0  0  0
 61 62  1  0  0  0  0
 61 70  1  0  0  0  0
 62 78  1  0  0  0  0
 63 86  1  0  0  0  0
 64 66  1  0  0  0  0
 64 77  1  0  0  0  0
 65 79  1  0  0  0  0
 68 71  1  0  0  0  0
 69 70  1  0  0  0  0
M  CHG  1  79   1
M  ISO  4  35 100  63 101  78 100  86 101
M  END
> <Batch ID>
0085

> <Smiles>
CNC(C)C(=O)NC(C(=O)N1Cc2cc([101O:1][101CH2:1]CCCC(C)(C)Cc3cn(CC[100N:0](C)[100C:0](=O)N4CCCC(n5nc(-c6ccc(Oc7ccc(F)cc7F)cc6)c(C(N)=O)c5N)C4)nc3C)ccc2CC1C(=O)NC1CCCc2ccccc21)C(C)(C)C

> <Shape>
0.262

> <Color>
0.154

> <Negative vol penalty>
0.000

$$$$

  -OEChem-04052318563D

 86 94  0     1  0  0  0  0  0999 V2000
  -33.0053  -24.1308   17.7102 C   0  0  0  0  0  0  0  0  0  0  0  0
  -31.8497  -24.4921   17.0249 C   0  0  0  0  0  0  0  0  0  0  0  0
  -24.9410  -15.1518   19.2116 C   0  0  0  0  0  0  0  0  0  0  0  0
  -22.9976  -14.7229   20.5815 C   0  0  0  0  0  0  0  0  0  0  0  0
  -32.9592  -23.9147   19.0868 C   0  0  0  0  0  0  0  0  0  0  0  0
  -30.6471  -24.6364   17.7158 C   0  0  0  0  0  0  0  0  0  0  0  0
  -24.6000  -28.4764   17.6553 C   0  0  0  0  0  0  0  0  0  0  0  0
  -25.5045  -13.9478   19.6340 C   0  0  0  0  0  0  0  0  0  0  0  0
  -23.5611  -13.5188   21.0038 C   0  0  0  0  0  0  0  0  0  0  0  0
  -23.2162  -28.3066   17.6616 C   0  0  0  0  0  0  0  0  0  0  0  0
  -23.9485  -10.3898   19.7875 C   0  0  0  0  0  0  0  0  0  0  0  0
  -23.1262   -9.2633   19.8084 C   0  0  0  0  0  0  0  0  0  0  0  0
  -23.2727  -27.9850   20.0517 C   0  0  0  0  0  0  0  0  0  0  0  0
  -23.5039   -9.0317   22.1835 C   0  0  0  0  0  0  0  0  0  0  0  0
  -23.6875  -15.5394   19.6854 C   0  0  0  0  0  0  0  0  0  0  0  0
  -22.2727  -16.9873   18.1331 C   0  0  0  0  0  0  0  0  0  0  0  0
  -31.7574  -24.0658   19.7964 C   0  0  0  0  0  0  0  0  0  0  0  0
  -25.3331  -28.3908   18.8477 C   0  0  0  0  0  0  0  0  0  0  0  0
  -30.5846  -24.4208   19.1030 C   0  0  0  0  0  0  0  0  0  0  0  0
  -24.6654  -28.1566   20.0582 C   0  0  0  0  0  0  0  0  0  0  0  0
  -20.6592  -28.3192   23.1690 C   0  0  0  0  0  0  0  0  0  0  0  0
  -24.8146  -13.1313   20.5301 C   0  0  0  0  0  0  0  0  0  0  0  0
  -22.5527  -28.0580   18.8596 C   0  0  0  0  0  0  0  0  0  0  0  0
  -24.5486  -10.8372   20.9646 C   0  0  0  0  0  0  0  0  0  0  0  0
  -22.9039   -8.5843   21.0064 C   0  0  0  0  0  0  0  0  0  0  0  0
  -24.3262  -10.1582   22.1625 C   0  0  0  0  0  0  0  0  0  0  0  0
  -23.1052  -16.7833   19.2499 C   0  0  0  0  0  0  0  0  0  0  0  0
  -21.3729  -27.8068   24.2332 C   0  0  0  0  0  0  0  0  0  0  0  0
  -20.0698  -27.3860   22.3408 C   0  0  0  0  0  0  0  0  0  0  0  0
  -21.9910  -18.3313   18.1558 C   0  0  0  0  0  0  0  0  0  0  0  0
  -20.8859  -25.6786   23.6001 C   0  0  0  0  0  0  0  0  0  0  0  0
  -21.7966  -16.0459   17.1621 C   0  0  0  0  0  0  0  0  0  0  0  0
  -27.6369  -26.4884   19.9327 C   0  0  0  0  0  0  0  0  0  0  0  0
  -27.6421  -28.5649   22.4248 C   0  0  0  0  0  0  0  0  0  0  0  0
  -25.9446  -30.8793   24.2711 C   0  0  0  0  0  0  0  0  0  0  0  0
  -21.8311  -22.2427   22.5752 C   0  0  0  0  0  0  0  0  0  0  0  0
  -31.7468  -23.7754   21.2764 C   0  0  0  0  0  0  0  0  0  0  0  0
  -26.8221  -28.6028   18.8276 C   0  0  0  0  0  0  0  0  0  0  0  0
  -25.4039  -28.0755   21.3684 C   0  0  0  0  0  0  0  0  0  0  0  0
  -30.5120  -24.3144   21.9940 C   0  0  0  0  0  0  0  0  0  0  0  0
  -23.8273  -22.5191   19.5692 C   0  0  0  0  0  0  0  0  0  0  0  0
  -29.2477  -23.9691   21.2135 C   0  0  0  0  0  0  0  0  0  0  0  0
  -23.7838  -21.0837   19.0421 C   0  0  0  0  0  0  0  0  0  0  0  0
  -23.9054  -22.5465   21.0928 C   0  0  0  0  0  0  0  0  0  0  0  0
  -22.7674  -20.3664   21.2540 C   0  0  0  0  0  0  0  0  0  0  0  0
  -29.2663  -24.6113   19.8211 C   0  0  1  0  0  0  0  0  0  0  0  0
  -27.5300  -27.9840   20.0291 C   0  0  1  0  0  0  0  0  0  0  0  0
  -22.6651  -20.2712   19.7208 C   0  0  2  0  0  0  0  0  0  0  0  0
  -22.0542  -28.7217   25.1972 C   0  0  0  0  0  0  0  0  0  0  0  0
  -21.4413  -30.2727   21.8056 C   0  0  0  0  0  0  0  0  0  0  0  0
  -20.1733  -24.2755   18.6060 C   0  0  0  0  0  0  0  0  0  0  0  0
  -26.1983  -32.3762   26.2691 C   0  0  0  0  0  0  0  0  0  0  0  0
  -27.2970  -26.1584   24.2686 C   0  0  0  0  0  0  0  0  0  0  0  0
  -26.6129  -27.7376   26.0869 C   0  0  0  0  0  0  0  0  0  0  0  0
  -28.8993  -27.8889   25.1008 C   0  0  0  0  0  0  0  0  0  0  0  0
  -25.5247  -33.3157   22.6443 C   0  0  0  0  0  0  0  0  0  0  0  0
  -20.5323  -29.7822   22.9316 C   0  0  0  0  0  0  0  0  0  0  0  0
  -19.2650  -27.8263   21.1441 C   0  0  0  0  0  0  0  0  0  0  0  0
  -21.0095  -24.2123   23.8411 C   0  0  0  0  0  0  0  0  0  0  0  0
  -20.6397  -25.6605   18.1759 C   0  0  0  0  0  0  0  0  0  0  0  0
  -19.3114  -26.8396   19.9683 C   0  0  0  0  0  0  0  0  0  0  0  0
  -26.9101  -28.6562   23.7419 C   0  0  1  0  0  0  0  0  0  0  0  0
  -26.3359  -32.2625   24.7589 C   0  0  2  0  0  0  0  0  0  0  0  0
  -20.7049  -26.6437   19.3509 C   0  0  2  0  0  0  0  0  0  1  0  0
  -27.4159  -27.6098   24.7747 C   0  0  0  0  0  0  0  0  0  0  0  0
  -23.3373  -17.9078   19.9322 N   0  0  0  0  0  0  0  0  0  0  0  0
  -21.5074  -26.4872   24.4797 N   0  0  0  0  0  0  0  0  0  0  0  0
  -20.1631  -26.0530   22.5273 N   0  0  0  0  0  0  0  0  0  0  0  0
  -22.6466  -18.8313   19.2422 N   0  0  0  0  0  0  0  0  0  0  0  0
  -26.8595  -28.2835   21.2960 N   0  0  0  0  0  0  0  0  0  0  0  0
  -22.8023  -21.7705   21.6767 N   0  0  0  0  0  0  0  0  0  0  0  0
  -21.2490  -19.1225   17.3521 N   0  0  0  0  0  0  0  0  0  0  0  0
  -22.1819  -14.7042   17.2874 N   0  0  0  0  0  0  0  0  0  0  0  0
  -28.9358  -26.0176   19.9088 N   0  0  0  0  0  0  0  0  0  0  0  0
  -27.0358  -30.0409   24.1837 N   0  0  0  0  0  0  0  0  0  0  0  0
  -21.9390  -23.5817   22.9305 N   0  0  0  0  0  0  0  0  0  0  0  0
  -25.4693  -33.2984   24.1287 N   0  3  0  0  0  0  0  0  0  0  0  0
  -21.0649  -16.3874   16.2022 O   0  0  0  0  0  0  0  0  0  0  0  0
  -26.6164  -25.8115   19.8853 O   0  0  0  0  0  0  0  0  0  0  0  0
  -28.8623  -28.7441   22.3974 O   0  0  0  0  0  0  0  0  0  0  0  0
  -24.7862  -30.5720   23.9987 O   0  0  0  0  0  0  0  0  0  0  0  0
  -20.9306  -21.5251   23.0239 O   0  0  0  0  0  0  0  0  0  0  0  0
  -25.3640  -11.9563   20.9423 O   0  0  0  0  0  0  0  0  0  0  0  0
  -21.2021  -27.8912   18.8685 O   0  0  0  0  0  0  0  0  0  1  0  0
  -22.1130   -7.5034   21.0266 F   0  0  0  0  0  0  0  0  0  0  0  0
  -24.8990  -10.5841   23.2967 F   0  0  0  0  0  0  0  0  0  0  0  0
  1  2  1  0  0  0  0
  1  5  2  0  0  0  0
  2  6  2  0  0  0  0
  3  8  2  0  0  0  0
  3 15  1  0  0  0  0
  4  9  1  0  0  0  0
  4 15  2  0  0  0  0
  5 17  1  0  0  0  0
  6 19  1  0  0  0  0
  7 10  2  0  0  0  0
  7 18  1  0  0  0  0
  8 22  1  0  0  0  0
  9 22  2  0  0  0  0
 10 23  1  0  0  0  0
 11 12  2  0  0  0  0
 11 24  1  0  0  0  0
 12 25  1  0  0  0  0
 13 20  1  0  0  0  0
 13 23  2  0  0  0  0
 14 25  2  0  0  0  0
 14 26  1  0  0  0  0
 15 27  1  0  0  0  0
 16 27  1  0  0  0  0
 16 30  2  0  0  0  0
 16 32  1  0  0  0  0
 17 19  2  0  0  0  0
 17 37  1  0  0  0  0
 18 20  2  0  0  0  0
 18 38  1  0  0  0  0
 19 46  1  0  0  0  0
 20 39  1  0  0  0  0
 21 28  1  0  0  0  0
 21 29  2  0  0  0  0
 21 57  1  0  0  0  0
 22 83  1  0  0  0  0
 23 84  1  0  0  0  0
 24 26  2  0  0  0  0
 24 83  1  0  0  0  0
 25 85  1  0  0  0  0
 26 86  1  0  0  0  0
 27 66  2  0  0  0  0
 28 49  1  0  0  0  0
 28 67  2  0  0  0  0
 29 58  1  0  0  0  0
 29 68  1  0  0  0  0
 30 69  1  0  0  0  0
 30 72  1  0  0  0  0
 31 59  1  0  0  0  0
 31 67  1  0  0  0  0
 31 68  2  0  0  0  0
 32 73  1  0  0  0  0
 32 78  2  0  0  0  0
 33 47  1  0  0  0  0
 33 74  1  0  0  0  0
 33 79  2  0  0  0  0
 34 62  1  0  0  0  0
 34 70  1  0  0  0  0
 34 80  2  0  0  0  0
 35 63  1  0  0  0  0
 35 75  1  0  0  0  0
 35 81  2  0  0  0  0
 36 71  1  0  0  0  0
 36 76  1  0  0  0  0
 36 82  2  0  0  0  0
 37 40  1  0  0  0  0
 38 47  1  0  0  0  0
 39 70  1  0  0  0  0
 40 42  1  0  0  0  0
 41 43  1  0  0  0  0
 41 44  1  0  0  0  0
 42 46  1  0  0  0  0
 43 48  1  0  0  0  0
 44 71  1  0  0  0  0
 45 48  1  0  0  0  0
 45 71  1  0  0  0  0
 46 74  1  0  0  0  0
 47 70  1  0  0  0  0
 48 69  1  0  0  0  0
 50 57  1  0  0  0  0
 51 60  1  0  0  0  0
 52 63  1  0  0  0  0
 53 65  1  0  0  0  0
 54 65  1  0  0  0  0
 55 65  1  0  0  0  0
 56 77  1  0  0  0  0
 58 61  1  0  0  0  0
 59 76  1  0  0  0  0
 60 64  1  0  0  0  0
 61 64  1  0  0  0  0
 62 65  1  0  0  0  0
 62 75  1  0  0  0  0
 63 77  1  0  0  0  0
 64 84  1  0  0  0  0
 66 69  1  0  0  0  0
M  CHG  1  77   1
M  ISO  4  36 100  64 101  76 100  84 101
M  END
> <Batch ID>
0085

> <Smiles>
CCc1c(C)nc(C[100NH:0][100C:0](=O)N2CCCC(n3nc(-c4ccc(Oc5ccc(F)cc5F)cc4)c(C(N)=O)c3N)C2)nc1CC[101CH:1](CC)[101O:1]c1ccc2c(c1)CN(C(=O)C(NC(=O)C(C)NC)C(C)(C)C)C(C(=O)NC1CCCc3ccccc31)C2

> <Shape>
0.236

> <Color>
0.054

> <Negative vol penalty>
0.000

$$$$

  -OEChem-04052318563D

 86 94  0     1  0  0  0  0  0999 V2000
  -22.4344  -20.0654   23.5185 C   0  0  0  0  0  0  0  0  0  0  0  0
  -23.5919  -20.5817   22.9448 C   0  0  0  0  0  0  0  0  0  0  0  0
  -27.6631  -14.4864   22.2470 C   0  0  0  0  0  0  0  0  0  0  0  0
  -28.4023  -14.2239   19.9619 C   0  0  0  0  0  0  0  0  0  0  0  0
  -21.2362  -20.7720   23.4244 C   0  0  0  0  0  0  0  0  0  0  0  0
  -23.5515  -21.8045   22.2758 C   0  0  0  0  0  0  0  0  0  0  0  0
  -27.9721  -26.0382   22.0736 C   0  0  0  0  0  0  0  0  0  0  0  0
  -26.7950  -13.4060   22.0904 C   0  0  0  0  0  0  0  0  0  0  0  0
  -27.5342  -13.1434   19.8052 C   0  0  0  0  0  0  0  0  0  0  0  0
  -28.9462  -26.3323   21.1206 C   0  0  0  0  0  0  0  0  0  0  0  0
  -24.2320  -12.6586   19.2655 C   0  0  0  0  0  0  0  0  0  0  0  0
  -23.4655  -12.6067   18.1013 C   0  0  0  0  0  0  0  0  0  0  0  0
  -27.5173  -28.0422   20.1966 C   0  0  0  0  0  0  0  0  0  0  0  0
  -29.8947  -25.4515   13.3643 C   0  0  0  0  0  0  0  0  0  0  0  0
  -24.4825  -10.4921   17.5259 C   0  0  0  0  0  0  0  0  0  0  0  0
  -31.5876  -25.3296   14.8438 C   0  0  0  0  0  0  0  0  0  0  0  0
  -28.4668  -14.8955   21.1828 C   0  0  0  0  0  0  0  0  0  0  0  0
  -30.7009  -15.9718   21.7809 C   0  0  0  0  0  0  0  0  0  0  0  0
  -21.1831  -22.0087   22.7623 C   0  0  0  0  0  0  0  0  0  0  0  0
  -26.7567  -26.7376   22.0885 C   0  0  0  0  0  0  0  0  0  0  0  0
  -22.3511  -22.5277   22.1717 C   0  0  0  0  0  0  0  0  0  0  0  0
  -26.5304  -27.7568   21.1525 C   0  0  0  0  0  0  0  0  0  0  0  0
  -30.7340  -26.2103   14.2170 C   0  0  0  0  0  0  0  0  0  0  0  0
  -26.7306  -12.7344   20.8695 C   0  0  0  0  0  0  0  0  0  0  0  0
  -28.7178  -27.3325   20.1801 C   0  0  0  0  0  0  0  0  0  0  0  0
  -25.1240  -11.6273   19.5598 C   0  0  0  0  0  0  0  0  0  0  0  0
  -23.5907  -11.5234   17.2315 C   0  0  0  0  0  0  0  0  0  0  0  0
  -25.2492  -10.5440   18.6900 C   0  0  0  0  0  0  0  0  0  0  0  0
  -29.3633  -16.0119   21.3438 C   0  0  0  0  0  0  0  0  0  0  0  0
  -30.2609  -24.1302   13.4962 C   0  0  0  0  0  0  0  0  0  0  0  0
  -31.1080  -17.2835   21.7610 C   0  0  0  0  0  0  0  0  0  0  0  0
  -31.5036  -14.8494   22.1700 C   0  0  0  0  0  0  0  0  0  0  0  0
  -23.7030  -25.9365   21.7187 C   0  0  0  0  0  0  0  0  0  0  0  0
  -23.1964  -29.0388   22.5195 C   0  0  0  0  0  0  0  0  0  0  0  0
  -24.4078  -32.2254   22.6766 C   0  0  0  0  0  0  0  0  0  0  0  0
  -29.2838  -22.0725   18.6646 C   0  0  0  0  0  0  0  0  0  0  0  0
  -19.8548  -22.7132   22.6456 C   0  0  0  0  0  0  0  0  0  0  0  0
  -25.7270  -26.4264   23.1398 C   0  0  0  0  0  0  0  0  0  0  0  0
  -25.2506  -28.5508   21.1385 C   0  0  0  0  0  0  0  0  0  0  0  0
  -19.9769  -24.1807   22.2435 C   0  0  0  0  0  0  0  0  0  0  0  0
  -29.4160  -21.7365   22.2067 C   0  0  0  0  0  0  0  0  0  0  0  0
  -20.9454  -24.3353   21.0752 C   0  0  0  0  0  0  0  0  0  0  0  0
  -29.5382  -20.2276   22.4266 C   0  0  0  0  0  0  0  0  0  0  0  0
  -28.5133  -22.0624   21.0189 C   0  0  0  0  0  0  0  0  0  0  0  0
  -29.0047  -19.8832   19.9781 C   0  0  0  0  0  0  0  0  0  0  0  0
  -22.3528  -23.8627   21.4591 C   0  0  1  0  0  0  0  0  0  0  0  0
  -24.3175  -26.8516   22.7399 C   0  0  1  0  0  0  0  0  0  0  0  0
  -29.9500  -19.5036   21.1307 C   0  0  2  0  0  0  0  0  0  0  0  0
  -29.7153  -22.9250   12.8382 C   0  0  0  0  0  0  0  0  0  0  0  0
  -23.7477  -34.5532   23.3423 C   0  0  0  0  0  0  0  0  0  0  0  0
  -21.5435  -29.2973   19.9678 C   0  0  0  0  0  0  0  0  0  0  0  0
  -21.7179  -31.7849   20.1898 C   0  0  0  0  0  0  0  0  0  0  0  0
  -20.5724  -30.4536   21.9613 C   0  0  0  0  0  0  0  0  0  0  0  0
  -31.9071  -23.2812   17.3479 C   0  0  0  0  0  0  0  0  0  0  0  0
  -32.4328  -21.0176   16.4571 C   0  0  0  0  0  0  0  0  0  0  0  0
  -26.5349  -32.3662   24.7295 C   0  0  0  0  0  0  0  0  0  0  0  0
  -30.7004  -27.7062   14.4044 C   0  0  0  0  0  0  0  0  0  0  0  0
  -29.7634  -28.1688   15.5256 C   0  0  0  0  0  0  0  0  0  0  0  0
  -30.1861  -27.6635   16.9058 C   0  0  0  0  0  0  0  0  0  0  0  0
  -31.9716  -22.8655   14.8257 C   0  0  0  0  0  0  0  0  0  0  0  0
  -30.0781  -21.9213   16.3182 C   0  0  0  0  0  0  0  0  0  0  0  0
  -29.2112  -28.1092   17.9871 C   0  0  0  0  0  0  0  0  0  1  0  0
  -23.0896  -30.3364   21.7555 C   0  0  1  0  0  0  0  0  0  0  0  0
  -24.3960  -33.2536   23.7934 C   0  0  2  0  0  0  0  0  0  0  0  0
  -21.7543  -30.4520   20.9674 C   0  0  0  0  0  0  0  0  0  0  0  0
  -31.5789  -22.2842   16.2177 C   0  0  0  0  0  0  0  0  0  0  0  0
  -28.9483  -17.2508   21.0667 N   0  0  0  0  0  0  0  0  0  0  0  0
  -31.2907  -24.0680   14.3983 N   0  0  0  0  0  0  0  0  0  0  0  0
  -30.0314  -18.0015   21.3304 N   0  0  0  0  0  0  0  0  0  0  0  0
  -24.2720  -28.2050   22.1827 N   0  0  0  0  0  0  0  0  0  0  0  0
  -28.9588  -21.3454   19.8216 N   0  0  0  0  0  0  0  0  0  0  0  0
  -32.2783  -17.8811   22.0702 N   0  0  0  0  0  0  0  0  0  0  0  0
  -30.9289  -13.5717   22.1317 N   0  0  0  0  0  0  0  0  0  0  0  0
  -23.0209  -24.8645   22.2620 N   0  0  0  0  0  0  0  0  0  0  0  0
  -23.3030  -31.4020   22.7289 N   0  0  0  0  0  0  0  0  0  0  0  0
  -29.7032  -21.3164   17.5769 N   0  0  0  0  0  0  0  0  0  0  0  0
  -25.7869  -33.5518   24.2376 N   0  3  0  0  0  0  0  0  0  0  0  0
  -32.6901  -14.9775   22.5564 O   0  0  0  0  0  0  0  0  0  0  0  0
  -23.8365  -26.1854   20.5263 O   0  0  0  0  0  0  0  0  0  0  0  0
  -22.3604  -28.7780   23.3883 O   0  0  0  0  0  0  0  0  0  0  0  0
  -25.3052  -32.1617   21.8393 O   0  0  0  0  0  0  0  0  0  0  0  0
  -29.2110  -23.3047   18.6069 O   0  0  0  0  0  0  0  0  0  0  0  0
  -25.8838  -11.6799   20.7163 O   0  0  0  0  0  0  0  0  0  0  0  0
  -29.6666  -27.6212   19.2483 O   0  0  0  0  0  0  0  0  0  1  0  0
  -22.8533  -11.4730   16.1144 F   0  0  0  0  0  0  0  0  0  0  0  0
  -26.1035   -9.5497   18.9680 F   0  0  0  0  0  0  0  0  0  0  0  0
  1  2  1  0  0  0  0
  1  5  2  0  0  0  0
  2  6  2  0  0  0  0
  3  8  2  0  0  0  0
  3 17  1  0  0  0  0
  4  9  1  0  0  0  0
  4 17  2  0  0  0  0
  5 19  1  0  0  0  0
  6 21  1  0  0  0  0
  7 10  2  0  0  0  0
  7 20  1  0  0  0  0
  8 24  1  0  0  0  0
  9 24  2  0  0  0  0
 10 25  1  0  0  0  0
 11 12  2  0  0  0  0
 11 26  1  0  0  0  0
 12 27  1  0  0  0  0
 13 22  1  0  0  0  0
 13 25  2  0  0  0  0
 14 23  1  0  0  0  0
 14 30  2  0  0  0  0
 15 27  2  0  0  0  0
 15 28  1  0  0  0  0
 16 23  2  0  0  0  0
 16 68  1  0  0  0  0
 17 29  1  0  0  0  0
 18 29  1  0  0  0  0
 18 31  2  0  0  0  0
 18 32  1  0  0  0  0
 19 21  2  0  0  0  0
 19 37  1  0  0  0  0
 20 22  2  0  0  0  0
 20 38  1  0  0  0  0
 21 46  1  0  0  0  0
 22 39  1  0  0  0  0
 23 57  1  0  0  0  0
 24 83  1  0  0  0  0
 25 84  1  0  0  0  0
 26 28  2  0  0  0  0
 26 83  1  0  0  0  0
 27 85  1  0  0  0  0
 28 86  1  0  0  0  0
 29 67  2  0  0  0  0
 30 49  1  0  0  0  0
 30 68  1  0  0  0  0
 31 69  1  0  0  0  0
 31 72  1  0  0  0  0
 32 73  1  0  0  0  0
 32 78  2  0  0  0  0
 33 47  1  0  0  0  0
 33 74  1  0  0  0  0
 33 79  2  0  0  0  0
 34 63  1  0  0  0  0
 34 70  1  0  0  0  0
 34 80  2  0  0  0  0
 35 64  1  0  0  0  0
 35 75  1  0  0  0  0
 35 81  2  0  0  0  0
 36 71  1  0  0  0  0
 36 76  1  0  0  0  0
 36 82  2  0  0  0  0
 37 40  1  0  0  0  0
 38 47  1  0  0  0  0
 39 70  1  0  0  0  0
 40 42  1  0  0  0  0
 41 43  1  0  0  0  0
 41 44  1  0  0  0  0
 42 46  1  0  0  0  0
 43 48  1  0  0  0  0
 44 71  1  0  0  0  0
 45 48  1  0  0  0  0
 45 71  1  0  0  0  0
 46 74  1  0  0  0  0
 47 70  1  0  0  0  0
 48 69  1  0  0  0  0
 50 64  1  0  0  0  0
 51 65  1  0  0  0  0
 52 65  1  0  0  0  0
 53 65  1  0  0  0  0
 54 66  1  0  0  0  0
 55 66  1  0  0  0  0
 56 77  1  0  0  0  0
 57 58  1  0  0  0  0
 58 59  1  0  0  0  0
 59 62  1  0  0  0  0
 60 66  1  0  0  0  0
 60 68  1  0  0  0  0
 61 66  1  0  0  0  0
 61 76  1  0  0  0  0
 62 84  1  0  0  0  0
 63 65  1  0  0  0  0
 63 75  1  0  0  0  0
 64 77  1  0  0  0  0
 67 69  1  0  0  0  0
M  CHG  1  77   1
M  ISO  4  36 100  62 101  76 100  84 101
M  END
> <Batch ID>
0085

> <Smiles>
CNC(C)C(=O)NC(C(=O)N1Cc2cc([101O:1][101CH2:1]CCCc3cc(C)n(CC(C)(C)C[100NH:0][100C:0](=O)N4CCCC(n5nc(-c6ccc(Oc7ccc(F)cc7F)cc6)c(C(N)=O)c5N)C4)c3)ccc2CC1C(=O)NC1CCCc2ccccc21)C(C)(C)C

> <Shape>
0.215

> <Color>
0.059

> <Negative vol penalty>
0.000

$$$$

  -OEChem-04052318563D

 87 95  0     1  0  0  0  0  0999 V2000
  -32.2984  -14.0113   20.5800 C   0  0  0  0  0  0  0  0  0  0  0  0
  -31.7122  -15.2723   20.6227 C   0  0  0  0  0  0  0  0  0  0  0  0
  -28.2248  -26.0253   18.8174 C   0  0  0  0  0  0  0  0  0  0  0  0
  -26.7676  -24.6037   20.1185 C   0  0  0  0  0  0  0  0  0  0  0  0
  -31.5216  -12.8924   20.2827 C   0  0  0  0  0  0  0  0  0  0  0  0
  -30.3489  -15.4151   20.3669 C   0  0  0  0  0  0  0  0  0  0  0  0
  -26.5179  -19.4298   22.9575 C   0  0  0  0  0  0  0  0  0  0  0  0
  -28.9958  -24.9163   18.4693 C   0  0  0  0  0  0  0  0  0  0  0  0
  -27.5386  -23.4947   19.7703 C   0  0  0  0  0  0  0  0  0  0  0  0
  -26.0239  -20.6628   22.5337 C   0  0  0  0  0  0  0  0  0  0  0  0
  -27.8944  -21.4480   17.1048 C   0  0  0  0  0  0  0  0  0  0  0  0
  -27.2222  -20.2914   16.7098 C   0  0  0  0  0  0  0  0  0  0  0  0
  -24.0356  -19.5752   21.7072 C   0  0  0  0  0  0  0  0  0  0  0  0
  -20.5291  -25.6695   23.3737 C   0  0  0  0  0  0  0  0  0  0  0  0
  -28.2387  -19.0775   18.5346 C   0  0  0  0  0  0  0  0  0  0  0  0
  -20.3043  -27.4172   21.2903 C   0  0  0  0  0  0  0  0  0  0  0  0
  -27.1106  -25.8690   19.6421 C   0  0  0  0  0  0  0  0  0  0  0  0
  -25.6235  -27.8777   19.1311 C   0  0  0  0  0  0  0  0  0  0  0  0
  -30.1462  -13.0204   20.0327 C   0  0  0  0  0  0  0  0  0  0  0  0
  -25.7781  -18.2569   22.7492 C   0  0  0  0  0  0  0  0  0  0  0  0
  -29.5532  -14.2970   20.0646 C   0  0  0  0  0  0  0  0  0  0  0  0
  -24.5213  -18.3290   22.1316 C   0  0  0  0  0  0  0  0  0  0  0  0
  -20.2188  -27.0004   23.6303 C   0  0  0  0  0  0  0  0  0  0  0  0
  -20.1025  -27.8974   22.5742 C   0  0  0  0  0  0  0  0  0  0  0  0
  -28.6528  -23.6510   18.9457 C   0  0  0  0  0  0  0  0  0  0  0  0
  -24.7839  -20.7352   21.9058 C   0  0  0  0  0  0  0  0  0  0  0  0
  -28.7388  -21.4193   18.2146 C   0  0  0  0  0  0  0  0  0  0  0  0
  -27.3943  -19.1062   17.4247 C   0  0  0  0  0  0  0  0  0  0  0  0
  -28.9109  -20.2341   18.9296 C   0  0  0  0  0  0  0  0  0  0  0  0
  -26.3140  -27.0143   20.0025 C   0  0  0  0  0  0  0  0  0  0  0  0
  -20.7116  -25.2890   22.0540 C   0  0  0  0  0  0  0  0  0  0  0  0
  -25.0267  -28.7964   19.9596 C   0  0  0  0  0  0  0  0  0  0  0  0
  -25.5297  -27.8516   17.7006 C   0  0  0  0  0  0  0  0  0  0  0  0
  -26.2483  -15.5676   21.1213 C   0  0  0  0  0  0  0  0  0  0  0  0
  -23.4806  -14.6733   22.5573 C   0  0  0  0  0  0  0  0  0  0  0  0
  -20.5544  -15.6080   24.0440 C   0  0  0  0  0  0  0  0  0  0  0  0
  -23.3277  -28.6136   25.6981 C   0  0  0  0  0  0  0  0  0  0  0  0
  -29.3567  -11.7878   19.6691 C   0  0  0  0  0  0  0  0  0  0  0  0
  -26.3130  -16.9382   23.2363 C   0  0  0  0  0  0  0  0  0  0  0  0
  -23.6788  -17.1017   21.9025 C   0  0  0  0  0  0  0  0  0  0  0  0
  -27.8460  -11.9778   19.7788 C   0  0  0  0  0  0  0  0  0  0  0  0
  -25.5856  -30.9275   24.2066 C   0  0  0  0  0  0  0  0  0  0  0  0
  -27.4234  -13.2874   19.1208 C   0  0  0  0  0  0  0  0  0  0  0  0
  -25.9660  -30.2649   22.8814 C   0  0  0  0  0  0  0  0  0  0  0  0
  -25.4115  -29.8993   25.3221 C   0  0  0  0  0  0  0  0  0  0  0  0
  -24.8549  -28.1404   23.6881 C   0  0  0  0  0  0  0  0  0  0  0  0
  -28.0726  -14.4894   19.8173 C   0  0  1  0  0  0  0  0  0  0  0  0
  -25.7044  -15.7420   22.5110 C   0  0  1  0  0  0  0  0  0  0  0  0
  -24.9868  -29.1320   22.5195 C   0  0  2  0  0  0  0  0  0  0  0  0
  -18.8100  -26.7376   25.6967 C   0  0  0  0  0  0  0  0  0  0  0  0
  -18.4789  -14.6523   25.0816 C   0  0  0  0  0  0  0  0  0  0  0  0
  -19.7050  -30.1119   21.4413 C   0  0  0  0  0  0  0  0  0  0  0  0
  -20.8463  -30.0335   23.6835 C   0  0  0  0  0  0  0  0  0  0  0  0
  -18.4033  -29.6099   23.4993 C   0  0  0  0  0  0  0  0  0  0  0  0
  -22.3994  -14.0140   19.7813 C   0  0  0  0  0  0  0  0  0  0  0  0
  -20.0956  -13.9875   20.7612 C   0  0  0  0  0  0  0  0  0  0  0  0
  -21.8051  -12.3529   21.5539 C   0  0  0  0  0  0  0  0  0  0  0  0
  -21.1405  -16.8683   26.6569 C   0  0  0  0  0  0  0  0  0  0  0  0
  -21.0495  -23.8539   21.7381 C   0  0  0  0  0  0  0  0  0  0  0  0
  -22.5522  -23.5662   21.7123 C   0  0  0  0  0  0  0  0  0  0  0  0
  -21.2668  -27.2509   25.9319 C   0  0  0  0  0  0  0  0  0  0  0  0
  -22.8817  -22.0967   21.4771 C   0  0  0  0  0  0  0  0  0  1  0  0
  -20.0156  -27.4423   25.0416 C   0  0  1  0  0  0  0  0  0  0  0  0
  -22.0144  -14.7841   22.2154 C   0  0  1  0  0  0  0  0  0  0  0  0
  -19.8909  -15.1580   25.3331 C   0  0  2  0  0  0  0  0  0  0  0  0
  -19.7728  -29.3332   22.7925 C   0  0  0  0  0  0  0  0  0  0  0  0
  -21.5951  -13.8077   21.0804 C   0  0  0  0  0  0  0  0  0  0  0  0
  -20.6069  -26.1316   21.0019 N   0  0  0  0  0  0  0  0  0  0  0  0
  -26.1703  -27.3541   21.2862 N   0  0  0  0  0  0  0  0  0  0  0  0
  -25.3826  -28.4414   21.2275 N   0  0  0  0  0  0  0  0  0  0  0  0
  -24.2480  -15.8349   22.3910 N   0  0  0  0  0  0  0  0  0  0  0  0
  -24.4696  -28.8535   24.9160 N   0  0  0  0  0  0  0  0  0  0  0  0
  -24.2377  -29.8652   19.7199 N   0  0  0  0  0  0  0  0  0  0  0  0
  -24.4884  -27.1208   17.1125 N   0  0  0  0  0  0  0  0  0  0  0  0
  -27.3865  -14.7868   21.0564 N   0  0  0  0  0  0  0  0  0  0  0  0
  -21.2880  -14.5935   23.4662 N   0  0  0  0  0  0  0  0  0  0  0  0
  -22.4841  -27.6096   25.2389 N   0  0  0  0  0  0  0  0  0  0  0  0
  -19.8196  -16.2889   26.3011 N   0  3  0  0  0  0  0  0  0  0  0  0
  -26.3549  -28.4449   16.9653 O   0  0  0  0  0  0  0  0  0  0  0  0
  -25.6768  -16.1008   20.1775 O   0  0  0  0  0  0  0  0  0  0  0  0
  -23.9271  -13.5977   22.9640 O   0  0  0  0  0  0  0  0  0  0  0  0
  -20.4310  -16.7445   23.5928 O   0  0  0  0  0  0  0  0  0  0  0  0
  -23.0759  -29.2509   26.7265 O   0  0  0  0  0  0  0  0  0  0  0  0
  -29.4049  -22.5686   18.6060 O   0  0  0  0  0  0  0  0  0  0  0  0
  -24.2997  -21.9373   21.4906 O   0  0  0  0  0  0  0  0  0  1  0  0
  -26.7475  -17.9959   17.0462 F   0  0  0  0  0  0  0  0  0  0  0  0
  -29.7199  -20.2007   19.9974 F   0  0  0  0  0  0  0  0  0  0  0  0
  1  2  1  0  0  0  0
  1  5  2  0  0  0  0
  2  6  2  0  0  0  0
  3  8  2  0  0  0  0
  3 17  1  0  0  0  0
  4  9  1  0  0  0  0
  4 17  2  0  0  0  0
  5 19  1  0  0  0  0
  6 21  1  0  0  0  0
  7 10  2  0  0  0  0
  7 20  1  0  0  0  0
  8 25  1  0  0  0  0
  9 25  2  0  0  0  0
 10 26  1  0  0  0  0
 11 12  2  0  0  0  0
 11 27  1  0  0  0  0
 12 28  1  0  0  0  0
 13 22  1  0  0  0  0
 13 26  2  0  0  0  0
 14 23  2  0  0  0  0
 14 31  1  0  0  0  0
 15 28  2  0  0  0  0
 15 29  1  0  0  0  0
 16 24  2  0  0  0  0
 16 68  1  0  0  0  0
 17 30  1  0  0  0  0
 18 30  1  0  0  0  0
 18 32  2  0  0  0  0
 18 33  1  0  0  0  0
 19 21  2  0  0  0  0
 19 38  1  0  0  0  0
 20 22  2  0  0  0  0
 20 39  1  0  0  0  0
 21 47  1  0  0  0  0
 22 40  1  0  0  0  0
 23 24  1  0  0  0  0
 23 63  1  0  0  0  0
 24 66  1  0  0  0  0
 25 84  1  0  0  0  0
 26 85  1  0  0  0  0
 27 29  2  0  0  0  0
 27 84  1  0  0  0  0
 28 86  1  0  0  0  0
 29 87  1  0  0  0  0
 30 69  2  0  0  0  0
 31 59  1  0  0  0  0
 31 68  2  0  0  0  0
 32 70  1  0  0  0  0
 32 73  1  0  0  0  0
 33 74  1  0  0  0  0
 33 79  2  0  0  0  0
 34 48  1  0  0  0  0
 34 75  1  0  0  0  0
 34 80  2  0  0  0  0
 35 64  1  0  0  0  0
 35 71  1  0  0  0  0
 35 81  2  0  0  0  0
 36 65  1  0  0  0  0
 36 76  1  0  0  0  0
 36 82  2  0  0  0  0
 37 72  1  0  0  0  0
 37 77  1  0  0  0  0
 37 83  2  0  0  0  0
 38 41  1  0  0  0  0
 39 48  1  0  0  0  0
 40 71  1  0  0  0  0
 41 43  1  0  0  0  0
 42 44  1  0  0  0  0
 42 45  1  0  0  0  0
 43 47  1  0  0  0  0
 44 49  1  0  0  0  0
 45 72  1  0  0  0  0
 46 49  1  0  0  0  0
 46 72  1  0  0  0  0
 47 75  1  0  0  0  0
 48 71  1  0  0  0  0
 49 70  1  0  0  0  0
 50 63  1  0  0  0  0
 51 65  1  0  0  0  0
 52 66  1  0  0  0  0
 53 66  1  0  0  0  0
 54 66  1  0  0  0  0
 55 67  1  0  0  0  0
 56 67  1  0  0  0  0
 57 67  1  0  0  0  0
 58 78  1  0  0  0  0
 59 60  1  0  0  0  0
 60 62  1  0  0  0  0
 61 63  1  0  0  0  0
 61 77  1  0  0  0  0
 62 85  1  0  0  0  0
 64 67  1  0  0  0  0
 64 76  1  0  0  0  0
 65 78  1  0  0  0  0
 69 70  1  0  0  0  0
M  CHG  1  78   1
M  ISO  4  37 100  62 101  77 100  85 101
M  END
> <Batch ID>
0085

> <Smiles>
CNC(C)C(=O)NC(C(=O)N1Cc2cc([101O:1][101CH2:1]CCc3cc(C(C)C[100NH:0][100C:0](=O)N4CCCC(n5nc(-c6ccc(Oc7ccc(F)cc7F)cc6)c(C(N)=O)c5N)C4)c(C(C)(C)C)cn3)ccc2CC1C(=O)NC1CCCc2ccccc21)C(C)(C)C

> <Shape>
0.224

> <Color>
0.049

> <Negative vol penalty>
0.000

$$$$

  -OEChem-04052318563D

 91 99  0     1  0  0  0  0  0999 V2000
  -19.7978  -24.1829   20.8715 C   0  0  0  0  0  0  0  0  0  0  0  0
  -21.0977  -24.2010   21.3668 C   0  0  0  0  0  0  0  0  0  0  0  0
  -24.2651   -9.4180   21.4593 C   0  0  0  0  0  0  0  0  0  0  0  0
  -24.7975  -10.4772   23.5645 C   0  0  0  0  0  0  0  0  0  0  0  0
  -19.2679  -25.3216   20.2661 C   0  0  0  0  0  0  0  0  0  0  0  0
  -21.8689  -25.3574   21.2559 C   0  0  0  0  0  0  0  0  0  0  0  0
  -24.3434  -26.4601   25.5344 C   0  0  0  0  0  0  0  0  0  0  0  0
  -23.8965   -8.2561   22.1371 C   0  0  0  0  0  0  0  0  0  0  0  0
  -24.4288   -9.3152   24.2424 C   0  0  0  0  0  0  0  0  0  0  0  0
  -25.4964  -25.7264   25.8103 C   0  0  0  0  0  0  0  0  0  0  0  0
  -21.2315   -7.1338   23.8898 C   0  0  0  0  0  0  0  0  0  0  0  0
  -20.0467   -6.5068   23.5043 C   0  0  0  0  0  0  0  0  0  0  0  0
  -26.8460  -27.5522   24.9953 C   0  0  0  0  0  0  0  0  0  0  0  0
  -21.2846   -4.5067   22.9527 C   0  0  0  0  0  0  0  0  0  0  0  0
  -29.7476  -19.1318   24.1717 C   0  0  0  0  0  0  0  0  0  0  0  0
  -29.2883  -18.0474   22.2670 C   0  0  0  0  0  0  0  0  0  0  0  0
  -24.7157  -10.5286   22.1730 C   0  0  0  0  0  0  0  0  0  0  0  0
  -24.2689  -12.8162   21.1362 C   0  0  0  0  0  0  0  0  0  0  0  0
  -20.0296  -26.4956   20.1564 C   0  0  0  0  0  0  0  0  0  0  0  0
  -24.4329  -27.7432   24.9758 C   0  0  0  0  0  0  0  0  0  0  0  0
  -21.3491  -26.5125   20.6472 C   0  0  0  0  0  0  0  0  0  0  0  0
  -25.6927  -28.3011   24.7157 C   0  0  0  0  0  0  0  0  0  0  0  0
  -29.5398  -20.0825   23.1969 C   0  0  0  0  0  0  0  0  0  0  0  0
  -29.2493  -19.3965   21.9919 C   0  0  0  0  0  0  0  0  0  0  0  0
  -23.9782   -8.2046   23.5286 C   0  0  0  0  0  0  0  0  0  0  0  0
  -26.7478  -26.2712   25.5381 C   0  0  0  0  0  0  0  0  0  0  0  0
  -22.4430   -6.4473   23.8066 C   0  0  0  0  0  0  0  0  0  0  0  0
  -20.0732   -5.1933   23.0358 C   0  0  0  0  0  0  0  0  0  0  0  0
  -22.4695   -5.1338   23.3381 C   0  0  0  0  0  0  0  0  0  0  0  0
  -25.0973  -11.7290   21.4734 C   0  0  0  0  0  0  0  0  0  0  0  0
  -25.1015  -13.6934   20.4853 C   0  0  0  0  0  0  0  0  0  0  0  0
  -22.8716  -13.0153   21.3888 C   0  0  0  0  0  0  0  0  0  0  0  0
  -23.4551  -29.0823   22.2640 C   0  0  0  0  0  0  0  0  0  0  0  0
  -24.5484  -31.7961   23.6648 C   0  0  0  0  0  0  0  0  0  0  0  0
  -26.6258  -33.2398   25.9555 C   0  0  0  0  0  0  0  0  0  0  0  0
  -31.0188  -14.5910   20.6606 C   0  0  0  0  0  0  0  0  0  0  0  0
  -19.4301  -27.6867   19.4515 C   0  0  0  0  0  0  0  0  0  0  0  0
  -23.1805  -28.5323   24.7090 C   0  0  0  0  0  0  0  0  0  0  0  0
  -25.8436  -29.6826   24.1350 C   0  0  0  0  0  0  0  0  0  0  0  0
  -20.1830  -28.9894   19.7092 C   0  0  0  0  0  0  0  0  0  0  0  0
  -29.0565  -13.8061   17.7953 C   0  0  0  0  0  0  0  0  0  0  0  0
  -21.6854  -28.7778   19.5514 C   0  0  0  0  0  0  0  0  0  0  0  0
  -27.7446  -13.2829   18.3826 C   0  0  0  0  0  0  0  0  0  0  0  0
  -30.2594  -13.3830   18.6356 C   0  0  0  0  0  0  0  0  0  0  0  0
  -28.8559  -13.2060   20.6537 C   0  0  0  0  0  0  0  0  0  0  0  0
  -22.2083  -27.7557   20.5679 C   0  0  1  0  0  0  0  0  0  0  0  0
  -23.3746  -29.6254   23.6626 C   0  0  1  0  0  0  0  0  0  0  0  0
  -27.6093  -13.6540   19.8717 C   0  0  2  0  0  0  0  0  0  0  0  0
  -27.3245  -35.4799   26.8447 C   0  0  0  0  0  0  0  0  0  0  0  0
  -29.1386  -16.7437   25.7036 C   0  0  0  0  0  0  0  0  0  0  0  0
  -28.0968  -23.5406   27.0882 C   0  0  0  0  0  0  0  0  0  0  0  0
  -28.6856  -18.9174   19.5839 C   0  0  0  0  0  0  0  0  0  0  0  0
  -30.1491  -20.8809   20.1660 C   0  0  0  0  0  0  0  0  0  0  0  0
  -27.7064  -20.9527   20.6233 C   0  0  0  0  0  0  0  0  0  0  0  0
  -26.2251  -32.2650   21.1591 C   0  0  0  0  0  0  0  0  0  0  0  0
  -27.5722  -33.9294   22.4566 C   0  0  0  0  0  0  0  0  0  0  0  0
  -25.1362  -34.3173   22.0849 C   0  0  0  0  0  0  0  0  0  0  0  0
  -32.2418  -16.8668   24.9109 C   0  0  0  0  0  0  0  0  0  0  0  0
  -31.1646  -14.6276   24.9604 C   0  0  0  0  0  0  0  0  0  0  0  0
  -25.6884  -32.5786   28.6837 C   0  0  0  0  0  0  0  0  0  0  0  0
  -29.6098  -21.5765   23.3897 C   0  0  0  0  0  0  0  0  0  0  0  0
  -28.6724  -22.1041   24.4823 C   0  0  0  0  0  0  0  0  0  0  0  0
  -28.7521  -23.6271   24.6557 C   0  0  0  0  0  0  0  0  0  0  0  0
  -31.6404  -15.7559   22.7620 C   0  0  0  0  0  0  0  0  0  0  0  0
  -25.8723  -32.5204   23.7040 C   0  0  1  0  0  0  0  0  0  0  0  0
  -26.3779  -34.3014   27.0118 C   0  0  2  0  0  0  0  0  0  0  0  0
  -29.7251  -16.6343   24.2825 C   0  0  2  0  0  0  0  0  0  0  0  0
  -27.7779  -24.1357   25.7231 C   0  0  2  0  0  0  0  0  0  1  0  0
  -28.9576  -20.0036   20.6783 C   0  0  0  0  0  0  0  0  0  0  0  0
  -26.1989  -33.2312   22.3603 C   0  0  0  0  0  0  0  0  0  0  0  0
  -31.1694  -15.9915   24.2252 C   0  0  0  0  0  0  0  0  0  0  0  0
  -26.3593  -11.8979   21.0699 N   0  0  0  0  0  0  0  0  0  0  0  0
  -29.5918  -17.8983   23.5951 N   0  0  0  0  0  0  0  0  0  0  0  0
  -26.3301  -13.1013   20.4724 N   0  0  0  0  0  0  0  0  0  0  0  0
  -24.5893  -30.4121   23.8857 N   0  0  0  0  0  0  0  0  0  0  0  0
  -30.0687  -13.7657   20.0368 N   0  0  0  0  0  0  0  0  0  0  0  0
  -24.8952  -14.9057   19.9284 N   0  0  0  0  0  0  0  0  0  0  0  0
  -22.1665  -12.0138   22.0701 N   0  0  0  0  0  0  0  0  0  0  0  0
  -22.3406  -28.3642   21.8743 N   0  0  0  0  0  0  0  0  0  0  0  0
  -25.8141  -33.4153   24.8547 N   0  0  0  0  0  0  0  0  0  0  0  0
  -30.7588  -14.9111   21.9875 N   0  0  0  0  0  0  0  0  0  0  0  0
  -26.5731  -33.7314   28.3749 N   0  3  0  0  0  0  0  0  0  0  0  0
  -22.2628  -14.0433   21.0069 O   0  0  0  0  0  0  0  0  0  0  0  0
  -24.4536  -29.2999   21.5878 O   0  0  0  0  0  0  0  0  0  0  0  0
  -23.5151  -32.4358   23.4534 O   0  0  0  0  0  0  0  0  0  0  0  0
  -27.4588  -32.3464   26.0915 O   0  0  0  0  0  0  0  0  0  0  0  0
  -32.0216  -15.0158   20.0767 O   0  0  0  0  0  0  0  0  0  0  0  0
  -23.6183   -7.0710   24.1904 O   0  0  0  0  0  0  0  0  0  0  0  0
  -27.8748  -25.5570   25.8058 O   0  0  0  0  0  0  0  0  0  1  0  0
  -18.9351   -4.5907   22.6672 F   0  0  0  0  0  0  0  0  0  0  0  0
  -23.6301   -4.4688   23.2571 F   0  0  0  0  0  0  0  0  0  0  0  0
  1  2  1  0  0  0  0
  1  5  2  0  0  0  0
  2  6  2  0  0  0  0
  3  8  2  0  0  0  0
  3 17  1  0  0  0  0
  4  9  1  0  0  0  0
  4 17  2  0  0  0  0
  5 19  1  0  0  0  0
  6 21  1  0  0  0  0
  7 10  2  0  0  0  0
  7 20  1  0  0  0  0
  8 25  1  0  0  0  0
  9 25  2  0  0  0  0
 10 26  1  0  0  0  0
 11 12  2  0  0  0  0
 11 27  1  0  0  0  0
 12 28  1  0  0  0  0
 13 22  1  0  0  0  0
 13 26  2  0  0  0  0
 14 28  2  0  0  0  0
 14 29  1  0  0  0  0
 15 23  2  0  0  0  0
 15 73  1  0  0  0  0
 16 24  2  0  0  0  0
 16 73  1  0  0  0  0
 17 30  1  0  0  0  0
 18 30  1  0  0  0  0
 18 31  2  0  0  0  0
 18 32  1  0  0  0  0
 19 21  2  0  0  0  0
 19 37  1  0  0  0  0
 20 22  2  0  0  0  0
 20 38  1  0  0  0  0
 21 46  1  0  0  0  0
 22 39  1  0  0  0  0
 23 24  1  0  0  0  0
 23 61  1  0  0  0  0
 24 69  1  0  0  0  0
 25 88  1  0  0  0  0
 26 89  1  0  0  0  0
 27 29  2  0  0  0  0
 27 88  1  0  0  0  0
 28 90  1  0  0  0  0
 29 91  1  0  0  0  0
 30 72  2  0  0  0  0
 31 74  1  0  0  0  0
 31 77  1  0  0  0  0
 32 78  1  0  0  0  0
 32 83  2  0  0  0  0
 33 47  1  0  0  0  0
 33 79  1  0  0  0  0
 33 84  2  0  0  0  0
 34 65  1  0  0  0  0
 34 75  1  0  0  0  0
 34 85  2  0  0  0  0
 35 66  1  0  0  0  0
 35 80  1  0  0  0  0
 35 86  2  0  0  0  0
 36 76  1  0  0  0  0
 36 81  1  0  0  0  0
 36 87  2  0  0  0  0
 37 40  1  0  0  0  0
 38 47  1  0  0  0  0
 39 75  1  0  0  0  0
 40 42  1  0  0  0  0
 41 43  1  0  0  0  0
 41 44  1  0  0  0  0
 42 46  1  0  0  0  0
 43 48  1  0  0  0  0
 44 76  1  0  0  0  0
 45 48  1  0  0  0  0
 45 76  1  0  0  0  0
 46 79  1  0  0  0  0
 47 75  1  0  0  0  0
 48 74  1  0  0  0  0
 49 66  1  0  0  0  0
 50 67  1  0  0  0  0
 51 68  1  0  0  0  0
 52 69  1  0  0  0  0
 53 69  1  0  0  0  0
 54 69  1  0  0  0  0
 55 70  1  0  0  0  0
 56 70  1  0  0  0  0
 57 70  1  0  0  0  0
 58 71  1  0  0  0  0
 59 71  1  0  0  0  0
 60 82  1  0  0  0  0
 61 62  1  0  0  0  0
 62 63  1  0  0  0  0
 63 68  1  0  0  0  0
 64 71  1  0  0  0  0
 64 81  1  0  0  0  0
 65 70  1  0  0  0  0
 65 80  1  0  0  0  0
 66 82  1  0  0  0  0
 67 71  1  0  0  0  0
 67 73  1  0  0  0  0
 68 89  1  0  0  0  0
 72 74  1  0  0  0  0
M  CHG  1  82   1
M  ISO  4  36 100  68 101  81 100  89 101
M  END
> <Batch ID>
0085

> <Smiles>
CNC(C)C(=O)NC(C(=O)N1Cc2cc([101O:1][101CH:1](C)CCCc3cn(C(C)C(C)(C)C[100NH:0][100C:0](=O)N4CCCC(n5nc(-c6ccc(Oc7ccc(F)cc7F)cc6)c(C(N)=O)c5N)C4)cc3C(C)(C)C)ccc2CC1C(=O)NC1CCCc2ccccc21)C(C)(C)C

> <Shape>
0.282

> <Color>
0.148

> <Negative vol penalty>
0.000

$$$$

  -OEChem-04052318563D

 86 94  0     1  0  0  0  0  0999 V2000
  -25.9116  -17.3814   23.3106 C   0  0  0  0  0  0  0  0  0  0  0  0
  -27.1140  -16.8875   23.8064 C   0  0  0  0  0  0  0  0  0  0  0  0
  -23.2877   -9.7989   19.9138 C   0  0  0  0  0  0  0  0  0  0  0  0
  -23.7401   -9.9399   22.2829 C   0  0  0  0  0  0  0  0  0  0  0  0
  -25.8673  -17.9625   22.0440 C   0  0  0  0  0  0  0  0  0  0  0  0
  -28.2726  -16.9733   23.0352 C   0  0  0  0  0  0  0  0  0  0  0  0
  -32.2731  -18.5522   25.7088 C   0  0  0  0  0  0  0  0  0  0  0  0
  -36.0367  -12.0219   25.2343 C   0  0  0  0  0  0  0  0  0  0  0  0
  -22.5618   -8.6262   20.1222 C   0  0  0  0  0  0  0  0  0  0  0  0
  -23.0142   -8.7671   22.4913 C   0  0  0  0  0  0  0  0  0  0  0  0
  -32.8987  -17.6164   26.5314 C   0  0  0  0  0  0  0  0  0  0  0  0
  -19.7676   -7.8551   22.7111 C   0  0  0  0  0  0  0  0  0  0  0  0
  -18.8660   -7.8333   23.7752 C   0  0  0  0  0  0  0  0  0  0  0  0
  -35.9202  -12.7439   26.4169 C   0  0  0  0  0  0  0  0  0  0  0  0
  -34.6081  -17.2981   24.8594 C   0  0  0  0  0  0  0  0  0  0  0  0
  -20.0731   -5.9865   24.7599 C   0  0  0  0  0  0  0  0  0  0  0  0
  -23.8769  -10.4557   20.9942 C   0  0  0  0  0  0  0  0  0  0  0  0
  -24.1354  -12.9858   20.7951 C   0  0  0  0  0  0  0  0  0  0  0  0
  -27.0279  -18.0642   21.2609 C   0  0  0  0  0  0  0  0  0  0  0  0
  -32.8053  -18.8605   24.4485 C   0  0  0  0  0  0  0  0  0  0  0  0
  -28.2435  -17.5551   21.7564 C   0  0  0  0  0  0  0  0  0  0  0  0
  -33.9888  -18.2401   24.0237 C   0  0  0  0  0  0  0  0  0  0  0  0
  -34.8981  -11.7198   24.4956 C   0  0  0  0  0  0  0  0  0  0  0  0
  -22.4251   -8.1103   21.4109 C   0  0  0  0  0  0  0  0  0  0  0  0
  -34.0647  -16.9871   26.1056 C   0  0  0  0  0  0  0  0  0  0  0  0
  -20.8219   -6.9426   22.6714 C   0  0  0  0  0  0  0  0  0  0  0  0
  -19.0188   -6.8990   24.7996 C   0  0  0  0  0  0  0  0  0  0  0  0
  -20.9746   -6.0084   23.6958 C   0  0  0  0  0  0  0  0  0  0  0  0
  -24.6273  -11.6669   20.7795 C   0  0  0  0  0  0  0  0  0  0  0  0
  -34.6525  -13.1375   26.8142 C   0  0  0  0  0  0  0  0  0  0  0  0
  -33.6762  -12.1591   24.9790 C   0  0  0  0  0  0  0  0  0  0  0  0
  -25.2364  -13.7660   20.5393 C   0  0  0  0  0  0  0  0  0  0  0  0
  -22.8023  -13.4630   21.0209 C   0  0  0  0  0  0  0  0  0  0  0  0
  -31.7766  -18.5934   21.4528 C   0  0  0  0  0  0  0  0  0  0  0  0
  -34.5132  -20.2005   20.7818 C   0  0  0  0  0  0  0  0  0  0  0  0
  -37.6826  -21.0450   21.7245 C   0  0  0  0  0  0  0  0  0  0  0  0
  -31.1083  -12.9248   21.3547 C   0  0  0  0  0  0  0  0  0  0  0  0
  -26.9212  -18.6577   19.8785 C   0  0  0  0  0  0  0  0  0  0  0  0
  -32.1332  -19.8919   23.5842 C   0  0  0  0  0  0  0  0  0  0  0  0
  -34.6118  -18.5508   22.6881 C   0  0  0  0  0  0  0  0  0  0  0  0
  -28.2690  -19.0482   19.2775 C   0  0  0  0  0  0  0  0  0  0  0  0
  -29.4569  -13.6635   18.2881 C   0  0  0  0  0  0  0  0  0  0  0  0
  -29.2847  -17.9267   19.4709 C   0  0  0  0  0  0  0  0  0  0  0  0
  -27.9875  -13.3545   18.5803 C   0  0  0  0  0  0  0  0  0  0  0  0
  -30.3910  -12.6844   18.9958 C   0  0  0  0  0  0  0  0  0  0  0  0
  -28.7058  -12.2547   20.7420 C   0  0  0  0  0  0  0  0  0  0  0  0
  -29.5267  -17.6522   20.9600 C   0  0  1  0  0  0  0  0  0  0  0  0
  -32.4799  -19.7498   22.1054 C   0  0  1  0  0  0  0  0  0  0  0  0
  -27.7270  -13.2495   20.0950 C   0  0  2  0  0  0  0  0  0  0  0  0
  -35.0165  -10.9455   23.2287 C   0  0  0  0  0  0  0  0  0  0  0  0
  -33.9674  -11.8063   29.5327 C   0  0  0  0  0  0  0  0  0  0  0  0
  -31.4583  -10.9752   25.0377 C   0  0  0  0  0  0  0  0  0  0  0  0
  -39.6885  -22.3400   20.9520 C   0  0  0  0  0  0  0  0  0  0  0  0
  -35.8224  -14.2181   28.8535 C   0  0  0  0  0  0  0  0  0  0  0  0
  -35.1943  -17.9684   18.8162 C   0  0  0  0  0  0  0  0  0  0  0  0
  -37.5567  -18.7971   18.8014 C   0  0  0  0  0  0  0  0  0  0  0  0
  -35.7138  -20.2737   17.9976 C   0  0  0  0  0  0  0  0  0  0  0  0
  -37.5611  -22.8531   24.0644 C   0  0  0  0  0  0  0  0  0  0  0  0
  -33.5228  -13.2019   29.1038 C   0  0  0  0  0  0  0  0  0  0  0  0
  -31.6718  -13.1389   23.7621 C   0  0  0  0  0  0  0  0  0  0  0  0
  -33.8443  -15.3208   27.7881 C   0  0  0  0  0  0  0  0  0  1  0  0
  -32.4200  -11.8666   24.2259 C   0  0  1  0  0  0  0  0  0  0  0  0
  -35.9368  -19.8049   20.4720 C   0  0  1  0  0  0  0  0  0  0  0  0
  -38.4005  -22.3821   21.7596 C   0  0  2  0  0  0  0  0  0  0  0  0
  -34.4855  -13.9414   28.1197 C   0  0  2  0  0  0  0  0  0  0  0  0
  -36.0879  -19.2035   19.0462 C   0  0  0  0  0  0  0  0  0  0  0  0
  -25.9387  -11.6086   20.5330 N   0  0  0  0  0  0  0  0  0  0  0  0
  -33.5235  -12.8627   26.1233 N   0  0  0  0  0  0  0  0  0  0  0  0
  -26.2802  -12.9007   20.3913 N   0  0  0  0  0  0  0  0  0  0  0  0
  -33.9139  -19.5616   21.8765 N   0  0  0  0  0  0  0  0  0  0  0  0
  -30.0928  -12.6330   20.4291 N   0  0  0  0  0  0  0  0  0  0  0  0
  -25.4039  -15.1010   20.4286 N   0  0  0  0  0  0  0  0  0  0  0  0
  -21.7902  -12.5258   21.2692 N   0  0  0  0  0  0  0  0  0  0  0  0
  -30.3982  -18.6602   21.5247 N   0  0  0  0  0  0  0  0  0  0  0  0
  -36.7511  -20.9919   20.7092 N   0  0  0  0  0  0  0  0  0  0  0  0
  -30.7396  -12.8593   22.6928 N   0  0  0  0  0  0  0  0  0  0  0  0
  -38.7378  -22.7523   23.1632 N   0  3  0  0  0  0  0  0  0  0  0  0
  -22.5141  -14.6834   20.9867 O   0  0  0  0  0  0  0  0  0  0  0  0
  -32.4356  -17.7070   20.9221 O   0  0  0  0  0  0  0  0  0  0  0  0
  -33.9560  -21.0505   20.0827 O   0  0  0  0  0  0  0  0  0  0  0  0
  -37.9265  -20.1370   22.5161 O   0  0  0  0  0  0  0  0  0  0  0  0
  -32.2569  -13.2269   21.0137 O   0  0  0  0  0  0  0  0  0  0  0  0
  -21.7166   -6.9661   21.6147 O   0  0  0  0  0  0  0  0  0  0  0  0
  -34.6769  -16.0728   26.9063 O   0  0  0  0  0  0  0  0  0  1  0  0
  -18.1538   -6.8791   25.8221 F   0  0  0  0  0  0  0  0  0  0  0  0
  -21.9862   -5.1300   23.6637 F   0  0  0  0  0  0  0  0  0  0  0  0
  1  2  1  0  0  0  0
  1  5  2  0  0  0  0
  2  6  2  0  0  0  0
  3  9  2  0  0  0  0
  3 17  1  0  0  0  0
  4 10  1  0  0  0  0
  4 17  2  0  0  0  0
  5 19  1  0  0  0  0
  6 21  1  0  0  0  0
  7 11  2  0  0  0  0
  7 20  1  0  0  0  0
  8 14  2  0  0  0  0
  8 23  1  0  0  0  0
  9 24  1  0  0  0  0
 10 24  2  0  0  0  0
 11 25  1  0  0  0  0
 12 13  2  0  0  0  0
 12 26  1  0  0  0  0
 13 27  1  0  0  0  0
 14 30  1  0  0  0  0
 15 22  1  0  0  0  0
 15 25  2  0  0  0  0
 16 27  2  0  0  0  0
 16 28  1  0  0  0  0
 17 29  1  0  0  0  0
 18 29  1  0  0  0  0
 18 32  2  0  0  0  0
 18 33  1  0  0  0  0
 19 21  2  0  0  0  0
 19 38  1  0  0  0  0
 20 22  2  0  0  0  0
 20 39  1  0  0  0  0
 21 47  1  0  0  0  0
 22 40  1  0  0  0  0
 23 31  2  0  0  0  0
 23 50  1  0  0  0  0
 24 83  1  0  0  0  0
 25 84  1  0  0  0  0
 26 28  2  0  0  0  0
 26 83  1  0  0  0  0
 27 85  1  0  0  0  0
 28 86  1  0  0  0  0
 29 67  2  0  0  0  0
 30 65  1  0  0  0  0
 30 68  2  0  0  0  0
 31 62  1  0  0  0  0
 31 68  1  0  0  0  0
 32 69  1  0  0  0  0
 32 72  1  0  0  0  0
 33 73  1  0  0  0  0
 33 78  2  0  0  0  0
 34 48  1  0  0  0  0
 34 74  1  0  0  0  0
 34 79  2  0  0  0  0
 35 63  1  0  0  0  0
 35 70  1  0  0  0  0
 35 80  2  0  0  0  0
 36 64  1  0  0  0  0
 36 75  1  0  0  0  0
 36 81  2  0  0  0  0
 37 71  1  0  0  0  0
 37 76  1  0  0  0  0
 37 82  2  0  0  0  0
 38 41  1  0  0  0  0
 39 48  1  0  0  0  0
 40 70  1  0  0  0  0
 41 43  1  0  0  0  0
 42 44  1  0  0  0  0
 42 45  1  0  0  0  0
 43 47  1  0  0  0  0
 44 49  1  0  0  0  0
 45 71  1  0  0  0  0
 46 49  1  0  0  0  0
 46 71  1  0  0  0  0
 47 74  1  0  0  0  0
 48 70  1  0  0  0  0
 49 69  1  0  0  0  0
 51 59  1  0  0  0  0
 52 62  1  0  0  0  0
 53 64  1  0  0  0  0
 54 65  1  0  0  0  0
 55 66  1  0  0  0  0
 56 66  1  0  0  0  0
 57 66  1  0  0  0  0
 58 77  1  0  0  0  0
 59 65  1  0  0  0  0
 60 62  1  0  0  0  0
 60 76  1  0  0  0  0
 61 65  1  0  0  0  0
 61 84  1  0  0  0  0
 63 66  1  0  0  0  0
 63 75  1  0  0  0  0
 64 77  1  0  0  0  0
 67 69  1  0  0  0  0
M  CHG  1  77   1
M  ISO  4  37 100  61 101  76 100  84 101
M  END
> <Batch ID>
0085

> <Smiles>
CCC(C)(c1ccc(C)c(C(C)C[100NH:0][100C:0](=O)N2CCCC(n3nc(-c4ccc(Oc5ccc(F)cc5F)cc4)c(C(N)=O)c3N)C2)n1)[101CH2:1][101O:1]c1ccc2c(c1)CN(C(=O)C(NC(=O)C(C)NC)C(C)(C)C)C(C(=O)NC1CCCc3ccccc31)C2

> <Shape>
0.171

> <Color>
0.167

> <Negative vol penalty>
0.000

$$$$

  -OEChem-04052318563D

 83 91  0     1  0  0  0  0  0999 V2000
  -31.4076  -29.1395   18.8437 C   0  0  0  0  0  0  0  0  0  0  0  0
  -30.3181  -28.3952   18.4057 C   0  0  0  0  0  0  0  0  0  0  0  0
  -28.4119  -20.7538   21.4596 C   0  0  0  0  0  0  0  0  0  0  0  0
  -29.7966  -19.9412   19.6543 C   0  0  0  0  0  0  0  0  0  0  0  0
  -31.6277  -29.3087   20.2090 C   0  0  0  0  0  0  0  0  0  0  0  0
  -29.4416  -27.8299   19.3326 C   0  0  0  0  0  0  0  0  0  0  0  0
  -24.6343  -24.1750   18.5207 C   0  0  0  0  0  0  0  0  0  0  0  0
  -28.2794  -21.9791   20.8065 C   0  0  0  0  0  0  0  0  0  0  0  0
  -29.6641  -21.1665   19.0011 C   0  0  0  0  0  0  0  0  0  0  0  0
  -24.3783  -22.8051   18.4802 C   0  0  0  0  0  0  0  0  0  0  0  0
  -29.9874  -24.2025   17.0292 C   0  0  0  0  0  0  0  0  0  0  0  0
  -31.1368  -24.7738   16.4832 C   0  0  0  0  0  0  0  0  0  0  0  0
  -23.7116  -22.8673   20.7977 C   0  0  0  0  0  0  0  0  0  0  0  0
  -21.8735  -13.5563   23.0438 C   0  0  0  0  0  0  0  0  0  0  0  0
  -32.1471  -24.8376   18.6769 C   0  0  0  0  0  0  0  0  0  0  0  0
  -29.1705  -19.7348   20.8835 C   0  0  0  0  0  0  0  0  0  0  0  0
  -29.8590  -18.2407   22.8332 C   0  0  0  0  0  0  0  0  0  0  0  0
  -30.7600  -28.7344   21.1526 C   0  0  0  0  0  0  0  0  0  0  0  0
  -24.4409  -24.9005   19.7050 C   0  0  0  0  0  0  0  0  0  0  0  0
  -29.6332  -28.0094   20.7145 C   0  0  0  0  0  0  0  0  0  0  0  0
  -23.9634  -24.2468   20.8499 C   0  0  0  0  0  0  0  0  0  0  0  0
  -23.1009  -13.9909   22.5752 C   0  0  0  0  0  0  0  0  0  0  0  0
  -28.9055  -22.1855   19.5773 C   0  0  0  0  0  0  0  0  0  0  0  0
  -23.9196  -22.1505   19.6196 C   0  0  0  0  0  0  0  0  0  0  0  0
  -29.9178  -23.9489   18.3991 C   0  0  0  0  0  0  0  0  0  0  0  0
  -32.2167  -25.0913   17.3070 C   0  0  0  0  0  0  0  0  0  0  0  0
  -30.9977  -24.2664   19.2229 C   0  0  0  0  0  0  0  0  0  0  0  0
  -29.3082  -18.4690   21.5579 C   0  0  0  0  0  0  0  0  0  0  0  0
  -21.5302  -12.2368   22.8286 C   0  0  0  0  0  0  0  0  0  0  0  0
  -23.9037  -13.0771   21.9225 C   0  0  0  0  0  0  0  0  0  0  0  0
  -29.7584  -16.8827   23.0126 C   0  0  0  0  0  0  0  0  0  0  0  0
  -30.4120  -19.1728   23.7718 C   0  0  0  0  0  0  0  0  0  0  0  0
  -26.3233  -26.5779   21.6407 C   0  0  0  0  0  0  0  0  0  0  0  0
  -23.5183  -27.3102   23.0962 C   0  0  0  0  0  0  0  0  0  0  0  0
  -20.2736  -26.4614   23.7271 C   0  0  0  0  0  0  0  0  0  0  0  0
  -26.1078  -12.7260   20.7542 C   0  0  0  0  0  0  0  0  0  0  0  0
  -31.0410  -28.9558   22.6179 C   0  0  0  0  0  0  0  0  0  0  0  0
  -24.6962  -26.3827   19.7249 C   0  0  0  0  0  0  0  0  0  0  0  0
  -23.7202  -24.9839   22.1406 C   0  0  0  0  0  0  0  0  0  0  0  0
  -30.3211  -27.9575   23.5187 C   0  0  0  0  0  0  0  0  0  0  0  0
  -29.6620  -12.7770   20.5491 C   0  0  0  0  0  0  0  0  0  0  0  0
  -28.8502  -27.8804   23.1379 C   0  0  0  0  0  0  0  0  0  0  0  0
  -30.0251  -14.2201   20.9065 C   0  0  0  0  0  0  0  0  0  0  0  0
  -28.3730  -12.7021   19.7327 C   0  0  0  0  0  0  0  0  0  0  0  0
  -27.5830  -14.8319   20.6861 C   0  0  0  0  0  0  0  0  0  0  0  0
  -28.6837  -27.3596   21.7047 C   0  0  1  0  0  0  0  0  0  0  0  0
  -24.9548  -26.9257   21.1269 C   0  0  1  0  0  0  0  0  0  0  0  0
  -28.8394  -14.9533   21.5638 C   0  0  2  0  0  0  0  0  0  0  0  0
  -20.2197  -11.7183   23.3129 C   0  0  0  0  0  0  0  0  0  0  0  0
  -18.2428  -27.2365   24.9812 C   0  0  0  0  0  0  0  0  0  0  0  0
  -24.7656  -26.3445   25.7080 C   0  0  0  0  0  0  0  0  0  0  0  0
  -22.4640  -26.2419   26.6881 C   0  0  0  0  0  0  0  0  0  0  0  0
  -23.3920  -28.4242   25.9142 C   0  0  0  0  0  0  0  0  0  0  0  0
  -18.6914  -26.7160   21.2390 C   0  0  0  0  0  0  0  0  0  0  0  0
  -23.5153  -15.4251   22.7889 C   0  0  0  0  0  0  0  0  0  0  0  0
  -23.3431  -16.3109   21.5497 C   0  0  0  0  0  0  0  0  0  0  0  0
  -23.6963  -17.7789   21.8086 C   0  0  0  0  0  0  0  0  0  0  0  0
  -23.5399  -18.6173   20.5411 C   0  0  0  0  0  0  0  0  0  0  0  0
  -23.8479  -20.0857   20.7975 C   0  0  0  0  0  0  0  0  0  1  0  0
  -22.6967  -26.6967   24.2042 C   0  0  1  0  0  0  0  0  0  0  0  0
  -18.9895  -27.2680   23.6567 C   0  0  2  0  0  0  0  0  0  0  0  0
  -23.3359  -26.9123   25.6050 C   0  0  0  0  0  0  0  0  0  0  0  0
  -28.8890  -17.3460   20.9688 N   0  0  0  0  0  0  0  0  0  0  0  0
  -22.3358  -11.3644   22.1865 N   0  0  0  0  0  0  0  0  0  0  0  0
  -23.5422  -11.7915   21.7263 N   0  0  0  0  0  0  0  0  0  0  0  0
  -29.1765  -16.3989   21.8779 N   0  0  0  0  0  0  0  0  0  0  0  0
  -23.9905  -26.4309   22.1115 N   0  0  0  0  0  0  0  0  0  0  0  0
  -27.2929  -13.4144   20.4190 N   0  0  0  0  0  0  0  0  0  0  0  0
  -30.1120  -16.0671   24.0286 N   0  0  0  0  0  0  0  0  0  0  0  0
  -31.7825  -19.4579   23.7018 N   0  0  0  0  0  0  0  0  0  0  0  0
  -25.1654  -13.4975   21.4333 N   0  0  0  0  0  0  0  0  0  0  0  0
  -27.2992  -27.4984   21.3099 N   0  0  0  0  0  0  0  0  0  0  0  0
  -21.3529  -27.2484   24.0693 N   0  0  0  0  0  0  0  0  0  0  0  0
  -18.0927  -26.7228   22.5986 N   0  3  0  0  0  0  0  0  0  0  0  0
  -29.7147  -19.7238   24.6571 O   0  0  0  0  0  0  0  0  0  0  0  0
  -26.4816  -25.5511   22.2906 O   0  0  0  0  0  0  0  0  0  0  0  0
  -23.7273  -28.5259   23.1003 O   0  0  0  0  0  0  0  0  0  0  0  0
  -20.3144  -25.2533   23.5048 O   0  0  0  0  0  0  0  0  0  0  0  0
  -25.9524  -11.5322   20.4846 O   0  0  0  0  0  0  0  0  0  0  0  0
  -28.7763  -23.3810   18.9396 O   0  0  0  0  0  0  0  0  0  0  0  0
  -23.6696  -20.8133   19.5830 O   0  0  0  0  0  0  0  0  0  1  0  0
  -33.3210  -25.6384   16.7823 F   0  0  0  0  0  0  0  0  0  0  0  0
  -30.9371  -24.0240   20.5395 F   0  0  0  0  0  0  0  0  0  0  0  0
  1  2  1  0  0  0  0
  1  5  2  0  0  0  0
  2  6  2  0  0  0  0
  3  8  2  0  0  0  0
  3 16  1  0  0  0  0
  4  9  1  0  0  0  0
  4 16  2  0  0  0  0
  5 18  1  0  0  0  0
  6 20  1  0  0  0  0
  7 10  2  0  0  0  0
  7 19  1  0  0  0  0
  8 23  1  0  0  0  0
  9 23  2  0  0  0  0
 10 24  1  0  0  0  0
 11 12  2  0  0  0  0
 11 25  1  0  0  0  0
 12 26  1  0  0  0  0
 13 21  1  0  0  0  0
 13 24  2  0  0  0  0
 14 22  1  0  0  0  0
 14 29  2  0  0  0  0
 15 26  2  0  0  0  0
 15 27  1  0  0  0  0
 16 28  1  0  0  0  0
 17 28  1  0  0  0  0
 17 31  2  0  0  0  0
 17 32  1  0  0  0  0
 18 20  2  0  0  0  0
 18 37  1  0  0  0  0
 19 21  2  0  0  0  0
 19 38  1  0  0  0  0
 20 46  1  0  0  0  0
 21 39  1  0  0  0  0
 22 30  2  0  0  0  0
 22 55  1  0  0  0  0
 23 80  1  0  0  0  0
 24 81  1  0  0  0  0
 25 27  2  0  0  0  0
 25 80  1  0  0  0  0
 26 82  1  0  0  0  0
 27 83  1  0  0  0  0
 28 63  2  0  0  0  0
 29 49  1  0  0  0  0
 29 64  1  0  0  0  0
 30 65  1  0  0  0  0
 30 71  1  0  0  0  0
 31 66  1  0  0  0  0
 31 69  1  0  0  0  0
 32 70  1  0  0  0  0
 32 75  2  0  0  0  0
 33 47  1  0  0  0  0
 33 72  1  0  0  0  0
 33 76  2  0  0  0  0
 34 60  1  0  0  0  0
 34 67  1  0  0  0  0
 34 77  2  0  0  0  0
 35 61  1  0  0  0  0
 35 73  1  0  0  0  0
 35 78  2  0  0  0  0
 36 68  1  0  0  0  0
 36 71  1  0  0  0  0
 36 79  2  0  0  0  0
 37 40  1  0  0  0  0
 38 47  1  0  0  0  0
 39 67  1  0  0  0  0
 40 42  1  0  0  0  0
 41 43  1  0  0  0  0
 41 44  1  0  0  0  0
 42 46  1  0  0  0  0
 43 48  1  0  0  0  0
 44 68  1  0  0  0  0
 45 48  1  0  0  0  0
 45 68  1  0  0  0  0
 46 72  1  0  0  0  0
 47 67  1  0  0  0  0
 48 66  1  0  0  0  0
 50 61  1  0  0  0  0
 51 62  1  0  0  0  0
 52 62  1  0  0  0  0
 53 62  1  0  0  0  0
 54 74  1  0  0  0  0
 55 56  1  0  0  0  0
 56 57  1  0  0  0  0
 57 58  1  0  0  0  0
 58 59  1  0  0  0  0
 59 81  1  0  0  0  0
 60 62  1  0  0  0  0
 60 73  1  0  0  0  0
 61 74  1  0  0  0  0
 63 66  1  0  0  0  0
 64 65  2  0  0  0  0
M  CHG  1  74   1
M  ISO  4  36 100  59 101  71 100  81 101
M  END
> <Batch ID>
0085

> <Smiles>
CNC(C)C(=O)NC(C(=O)N1Cc2cc([101O:1][101CH2:1]CCCCc3cc(C)nnc3[100NH:0][100C:0](=O)N3CCCC(n4nc(-c5ccc(Oc6ccc(F)cc6F)cc5)c(C(N)=O)c4N)C3)ccc2CC1C(=O)NC1CCCc2ccccc21)C(C)(C)C

> <Shape>
0.222

> <Color>
0.050

> <Negative vol penalty>
0.000

$$$$

  -OEChem-04052318563D

 85 93  0     1  0  0  0  0  0999 V2000
  -26.8062  -11.0200   23.2691 C   0  0  0  0  0  0  0  0  0  0  0  0
  -27.5981  -12.1501   23.0927 C   0  0  0  0  0  0  0  0  0  0  0  0
  -24.1103  -27.4473   22.5807 C   0  0  0  0  0  0  0  0  0  0  0  0
  -24.3259  -29.5654   21.4388 C   0  0  0  0  0  0  0  0  0  0  0  0
  -25.7008  -10.8094   22.4459 C   0  0  0  0  0  0  0  0  0  0  0  0
  -27.2857  -13.0698   22.0921 C   0  0  0  0  0  0  0  0  0  0  0  0
  -28.0338  -19.1442   22.3112 C   0  0  0  0  0  0  0  0  0  0  0  0
  -22.8097  -27.7825   22.9570 C   0  0  0  0  0  0  0  0  0  0  0  0
  -23.0253  -29.9007   21.8151 C   0  0  0  0  0  0  0  0  0  0  0  0
  -29.0293  -19.9851   21.8158 C   0  0  0  0  0  0  0  0  0  0  0  0
  -19.3053  -27.9287   23.9125 C   0  0  0  0  0  0  0  0  0  0  0  0
  -18.3172  -26.9547   23.7691 C   0  0  0  0  0  0  0  0  0  0  0  0
  -27.6910  -20.4033   19.8528 C   0  0  0  0  0  0  0  0  0  0  0  0
  -31.9123  -25.6844   16.9446 C   0  0  0  0  0  0  0  0  0  0  0  0
  -33.7357  -25.9362   18.4926 C   0  0  0  0  0  0  0  0  0  0  0  0
  -18.7521  -26.8633   21.3943 C   0  0  0  0  0  0  0  0  0  0  0  0
  -24.8684  -28.3387   21.8216 C   0  0  0  0  0  0  0  0  0  0  0  0
  -26.6125  -27.3216   20.2624 C   0  0  0  0  0  0  0  0  0  0  0  0
  -25.3691  -11.7318   21.4410 C   0  0  0  0  0  0  0  0  0  0  0  0
  -26.8621  -18.9176   21.5748 C   0  0  0  0  0  0  0  0  0  0  0  0
  -26.1756  -12.8706   21.2538 C   0  0  0  0  0  0  0  0  0  0  0  0
  -26.6809  -19.5611   20.3423 C   0  0  0  0  0  0  0  0  0  0  0  0
  -32.8445  -25.1182   17.8071 C   0  0  0  0  0  0  0  0  0  0  0  0
  -22.2672  -29.0092   22.5742 C   0  0  0  0  0  0  0  0  0  0  0  0
  -28.8593  -20.6126   20.5851 C   0  0  0  0  0  0  0  0  0  0  0  0
  -20.0168  -28.3701   22.7968 C   0  0  0  0  0  0  0  0  0  0  0  0
  -18.0406  -26.4219   22.5100 C   0  0  0  0  0  0  0  0  0  0  0  0
  -19.7402  -27.8373   21.5377 C   0  0  0  0  0  0  0  0  0  0  0  0
  -26.2122  -27.9932   21.4330 C   0  0  0  0  0  0  0  0  0  0  0  0
  -31.9126  -27.0627   16.8036 C   0  0  0  0  0  0  0  0  0  0  0  0
  -33.6545  -27.3033   18.2821 C   0  0  0  0  0  0  0  0  0  0  0  0
  -27.9797  -27.2385   20.3647 C   0  0  0  0  0  0  0  0  0  0  0  0
  -25.8195  -26.8179   19.1793 C   0  0  0  0  0  0  0  0  0  0  0  0
  -25.4952  -16.3648   20.2637 C   0  0  0  0  0  0  0  0  0  0  0  0
  -23.0859  -18.4503   19.6565 C   0  0  0  0  0  0  0  0  0  0  0  0
  -22.1012  -21.6854   19.1970 C   0  0  0  0  0  0  0  0  0  0  0  0
  -32.9208  -29.5476   21.5473 C   0  0  0  0  0  0  0  0  0  0  0  0
  -24.1922  -11.4373   20.5450 C   0  0  0  0  0  0  0  0  0  0  0  0
  -25.7860  -18.0286   22.1354 C   0  0  0  0  0  0  0  0  0  0  0  0
  -25.4326  -19.3669   19.5222 C   0  0  0  0  0  0  0  0  0  0  0  0
  -23.7115  -12.6502   19.7525 C   0  0  0  0  0  0  0  0  0  0  0  0
  -31.0540  -28.2022   24.2642 C   0  0  0  0  0  0  0  0  0  0  0  0
  -24.8940  -13.3787   19.1219 C   0  0  0  0  0  0  0  0  0  0  0  0
  -29.6601  -27.9785   23.6751 C   0  0  0  0  0  0  0  0  0  0  0  0
  -31.7072  -29.4643   23.7052 C   0  0  0  0  0  0  0  0  0  0  0  0
  -30.3652  -29.3110   21.6438 C   0  0  0  0  0  0  0  0  0  0  0  0
  -25.8547  -13.9038   20.1957 C   0  0  1  0  0  0  0  0  0  0  0  0
  -24.8577  -17.4655   21.0637 C   0  0  1  0  0  0  0  0  0  0  0  0
  -29.6889  -28.0198   22.1353 C   0  0  2  0  0  0  0  0  0  0  0  0
  -30.9251  -27.7053   15.8877 C   0  0  0  0  0  0  0  0  0  0  0  0
  -35.9223  -28.3888   18.2311 C   0  0  0  0  0  0  0  0  0  0  0  0
  -20.0758  -23.0734   18.6788 C   0  0  0  0  0  0  0  0  0  0  0  0
  -23.2527  -17.5974   16.7316 C   0  0  0  0  0  0  0  0  0  0  0  0
  -21.9271  -19.6355   16.1341 C   0  0  0  0  0  0  0  0  0  0  0  0
  -20.9264  -17.8854   17.6033 C   0  0  0  0  0  0  0  0  0  0  0  0
  -22.3023  -23.1459   21.7632 C   0  0  0  0  0  0  0  0  0  0  0  0
  -32.8879  -23.6232   17.9992 C   0  0  0  0  0  0  0  0  0  0  0  0
  -31.9919  -23.1187   19.1358 C   0  0  0  0  0  0  0  0  0  0  0  0
  -32.1079  -21.6111   19.3654 C   0  0  0  0  0  0  0  0  0  0  0  0
  -33.9944  -29.6023   19.3104 C   0  0  0  0  0  0  0  0  0  0  0  0
  -31.1754  -21.1411   20.4736 C   0  0  0  0  0  0  0  0  0  1  0  0
  -34.5968  -28.2109   18.9999 C   0  0  1  0  0  0  0  0  0  0  0  0
  -22.7419  -19.3856   18.5225 C   0  0  1  0  0  0  0  0  0  0  0  0
  -20.9435  -22.4780   19.7767 C   0  0  2  0  0  0  0  0  0  0  0  0
  -22.2365  -18.6283   17.2622 C   0  0  0  0  0  0  0  0  0  0  0  0
  -27.2418  -28.3139   22.2212 N   0  0  0  0  0  0  0  0  0  0  0  0
  -32.7626  -27.8898   17.4524 N   0  0  0  0  0  0  0  0  0  0  0  0
  -28.3025  -27.8416   21.5446 N   0  0  0  0  0  0  0  0  0  0  0  0
  -24.4122  -18.4835   20.1101 N   0  0  0  0  0  0  0  0  0  0  0  0
  -31.7039  -29.4401   22.2405 N   0  0  0  0  0  0  0  0  0  0  0  0
  -28.9251  -26.7090   19.5596 N   0  0  0  0  0  0  0  0  0  0  0  0
  -24.4294  -26.9879   19.2336 N   0  0  0  0  0  0  0  0  0  0  0  0
  -25.3244  -15.1048   20.8046 N   0  0  0  0  0  0  0  0  0  0  0  0
  -21.7890  -20.3491   19.0629 N   0  0  0  0  0  0  0  0  0  0  0  0
  -32.8290  -29.5096   20.1614 N   0  0  0  0  0  0  0  0  0  0  0  0
  -21.4521  -23.5898   20.6287 N   0  3  0  0  0  0  0  0  0  0  0  0
  -26.3270  -26.2199   18.2004 O   0  0  0  0  0  0  0  0  0  0  0  0
  -26.0961  -16.6384   19.2314 O   0  0  0  0  0  0  0  0  0  0  0  0
  -22.2084  -17.7223   20.1273 O   0  0  0  0  0  0  0  0  0  0  0  0
  -23.1739  -22.2009   18.8901 O   0  0  0  0  0  0  0  0  0  0  0  0
  -34.0091  -29.6631   22.1211 O   0  0  0  0  0  0  0  0  0  0  0  0
  -20.9980  -29.3366   22.9410 O   0  0  0  0  0  0  0  0  0  0  0  0
  -29.8298  -21.4334   20.0990 O   0  0  0  0  0  0  0  0  0  1  0  0
  -17.0928  -25.4855   22.3726 F   0  0  0  0  0  0  0  0  0  0  0  0
  -20.4212  -28.2565   20.4624 F   0  0  0  0  0  0  0  0  0  0  0  0
  1  2  1  0  0  0  0
  1  5  2  0  0  0  0
  2  6  2  0  0  0  0
  3  8  2  0  0  0  0
  3 17  1  0  0  0  0
  4  9  1  0  0  0  0
  4 17  2  0  0  0  0
  5 19  1  0  0  0  0
  6 21  1  0  0  0  0
  7 10  2  0  0  0  0
  7 20  1  0  0  0  0
  8 24  1  0  0  0  0
  9 24  2  0  0  0  0
 10 25  1  0  0  0  0
 11 12  2  0  0  0  0
 11 26  1  0  0  0  0
 12 27  1  0  0  0  0
 13 22  1  0  0  0  0
 13 25  2  0  0  0  0
 14 23  1  0  0  0  0
 14 30  2  0  0  0  0
 15 23  2  0  0  0  0
 15 31  1  0  0  0  0
 16 27  2  0  0  0  0
 16 28  1  0  0  0  0
 17 29  1  0  0  0  0
 18 29  1  0  0  0  0
 18 32  2  0  0  0  0
 18 33  1  0  0  0  0
 19 21  2  0  0  0  0
 19 38  1  0  0  0  0
 20 22  2  0  0  0  0
 20 39  1  0  0  0  0
 21 47  1  0  0  0  0
 22 40  1  0  0  0  0
 23 57  1  0  0  0  0
 24 82  1  0  0  0  0
 25 83  1  0  0  0  0
 26 28  2  0  0  0  0
 26 82  1  0  0  0  0
 27 84  1  0  0  0  0
 28 85  1  0  0  0  0
 29 66  2  0  0  0  0
 30 50  1  0  0  0  0
 30 67  1  0  0  0  0
 31 62  1  0  0  0  0
 31 67  2  0  0  0  0
 32 68  1  0  0  0  0
 32 71  1  0  0  0  0
 33 72  1  0  0  0  0
 33 77  2  0  0  0  0
 34 48  1  0  0  0  0
 34 73  1  0  0  0  0
 34 78  2  0  0  0  0
 35 63  1  0  0  0  0
 35 69  1  0  0  0  0
 35 79  2  0  0  0  0
 36 64  1  0  0  0  0
 36 74  1  0  0  0  0
 36 80  2  0  0  0  0
 37 70  1  0  0  0  0
 37 75  1  0  0  0  0
 37 81  2  0  0  0  0
 38 41  1  0  0  0  0
 39 48  1  0  0  0  0
 40 69  1  0  0  0  0
 41 43  1  0  0  0  0
 42 44  1  0  0  0  0
 42 45  1  0  0  0  0
 43 47  1  0  0  0  0
 44 49  1  0  0  0  0
 45 70  1  0  0  0  0
 46 49  1  0  0  0  0
 46 70  1  0  0  0  0
 47 73  1  0  0  0  0
 48 69  1  0  0  0  0
 49 68  1  0  0  0  0
 51 62  1  0  0  0  0
 52 64  1  0  0  0  0
 53 65  1  0  0  0  0
 54 65  1  0  0  0  0
 55 65  1  0  0  0  0
 56 76  1  0  0  0  0
 57 58  1  0  0  0  0
 58 59  1  0  0  0  0
 59 61  1  0  0  0  0
 60 62  1  0  0  0  0
 60 75  1  0  0  0  0
 61 83  1  0  0  0  0
 63 65  1  0  0  0  0
 63 74  1  0  0  0  0
 64 76  1  0  0  0  0
 66 68  1  0  0  0  0
M  CHG  1  76   1
M  ISO  4  37 100  61 101  75 100  83 101
M  END
> <Batch ID>
0085

> <Smiles>
CNC(C)C(=O)NC(C(=O)N1Cc2cc([101O:1][101CH2:1]CCCc3cc(C)nc(C(C)C[100NH:0][100C:0](=O)N4CCCC(n5nc(-c6ccc(Oc7ccc(F)cc7F)cc6)c(C(N)=O)c5N)C4)c3)ccc2CC1C(=O)NC1CCCc2ccccc21)C(C)(C)C

> <Shape>
0.182

> <Color>
0.068

> <Negative vol penalty>
0.000

$$$$

  -OEChem-04052318563D

 89 97  0     1  0  0  0  0  0999 V2000
  -27.7446  -35.3934   22.4070 C   0  0  0  0  0  0  0  0  0  0  0  0
  -28.0042  -34.0329   22.2770 C   0  0  0  0  0  0  0  0  0  0  0  0
  -26.6956  -15.4024   21.4429 C   0  0  0  0  0  0  0  0  0  0  0  0
  -26.6932  -15.2756   19.0302 C   0  0  0  0  0  0  0  0  0  0  0  0
  -26.5513  -35.8219   22.9870 C   0  0  0  0  0  0  0  0  0  0  0  0
  -27.0710  -33.1000   22.7279 C   0  0  0  0  0  0  0  0  0  0  0  0
  -26.3299  -29.3384   19.4193 C   0  0  0  0  0  0  0  0  0  0  0  0
  -26.3333  -14.0573   21.5140 C   0  0  0  0  0  0  0  0  0  0  0  0
  -26.3309  -13.9305   19.1013 C   0  0  0  0  0  0  0  0  0  0  0  0
  -27.2971  -28.3356   19.3683 C   0  0  0  0  0  0  0  0  0  0  0  0
  -23.5217  -12.2138   21.1665 C   0  0  0  0  0  0  0  0  0  0  0  0
  -22.5101  -11.8622   22.0601 C   0  0  0  0  0  0  0  0  0  0  0  0
  -25.8932  -26.9208   20.7272 C   0  0  0  0  0  0  0  0  0  0  0  0
  -24.0434  -10.3993   23.2203 C   0  0  0  0  0  0  0  0  0  0  0  0
  -26.9330  -24.9554   15.8239 C   0  0  0  0  0  0  0  0  0  0  0  0
  -26.8755  -16.0116   20.2010 C   0  0  0  0  0  0  0  0  0  0  0  0
  -28.5534  -17.9304   20.0976 C   0  0  0  0  0  0  0  0  0  0  0  0
  -25.5987  -34.8938   23.4364 C   0  0  0  0  0  0  0  0  0  0  0  0
  -25.1398  -29.1438   20.1350 C   0  0  0  0  0  0  0  0  0  0  0  0
  -25.8644  -33.5164   23.3156 C   0  0  0  0  0  0  0  0  0  0  0  0
  -24.9114  -27.9218   20.7837 C   0  0  0  0  0  0  0  0  0  0  0  0
  -26.1510  -13.3213   20.3432 C   0  0  0  0  0  0  0  0  0  0  0  0
  -27.0801  -27.1276   20.0247 C   0  0  0  0  0  0  0  0  0  0  0  0
  -24.7942  -11.6581   21.2997 C   0  0  0  0  0  0  0  0  0  0  0  0
  -22.7709  -10.9550   23.0870 C   0  0  0  0  0  0  0  0  0  0  0  0
  -25.0550  -10.7509   22.3266 C   0  0  0  0  0  0  0  0  0  0  0  0
  -27.2492  -17.4012   20.1269 C   0  0  0  0  0  0  0  0  0  0  0  0
  -26.0168  -24.0398   15.3890 C   0  0  0  0  0  0  0  0  0  0  0  0
  -28.3708  -19.2898   20.0255 C   0  0  0  0  0  0  0  0  0  0  0  0
  -28.0350  -23.1776   15.0990 C   0  0  0  0  0  0  0  0  0  0  0  0
  -29.8169  -17.2536   20.1324 C   0  0  0  0  0  0  0  0  0  0  0  0
  -23.7722  -30.5473   22.6377 C   0  0  0  0  0  0  0  0  0  0  0  0
  -21.3143  -28.5566   21.9179 C   0  0  0  0  0  0  0  0  0  0  0  0
  -20.2673  -25.6594   20.4492 C   0  0  0  0  0  0  0  0  0  0  0  0
  -23.8860  -22.6996   17.9981 C   0  0  0  0  0  0  0  0  0  0  0  0
  -24.3442  -35.4046   24.0997 C   0  0  0  0  0  0  0  0  0  0  0  0
  -24.0949  -30.2254   20.1581 C   0  0  0  0  0  0  0  0  0  0  0  0
  -23.6417  -27.6553   21.5488 C   0  0  0  0  0  0  0  0  0  0  0  0
  -23.2429  -34.3534   24.2110 C   0  0  0  0  0  0  0  0  0  0  0  0
  -25.2825  -22.7244   21.2731 C   0  0  0  0  0  0  0  0  0  0  0  0
  -23.8119  -33.0371   24.7309 C   0  0  0  0  0  0  0  0  0  0  0  0
  -26.0626  -21.4107   21.3481 C   0  0  0  0  0  0  0  0  0  0  0  0
  -23.9931  -22.5701   20.4696 C   0  0  0  0  0  0  0  0  0  0  0  0
  -24.9491  -20.6906   19.1939 C   0  0  0  0  0  0  0  0  0  0  0  0
  -24.8660  -32.4739   23.7701 C   0  0  1  0  0  0  0  0  0  0  0  0
  -23.1429  -30.1113   21.3448 C   0  0  1  0  0  0  0  0  0  0  0  0
  -26.2851  -20.8100   19.9471 C   0  0  2  0  0  0  0  0  0  0  0  0
  -24.0062  -24.7362   14.0487 C   0  0  0  0  0  0  0  0  0  0  0  0
  -18.2063  -24.2826   20.0570 C   0  0  0  0  0  0  0  0  0  0  0  0
  -29.8541  -18.5590   15.8799 C   0  0  0  0  0  0  0  0  0  0  0  0
  -30.1129  -19.5556   13.5995 C   0  0  0  0  0  0  0  0  0  0  0  0
  -30.1228  -24.1292   19.7279 C   0  0  0  0  0  0  0  0  0  0  0  0
  -21.4045  -27.6009   24.8141 C   0  0  0  0  0  0  0  0  0  0  0  0
  -20.0306  -25.6225   24.1311 C   0  0  0  0  0  0  0  0  0  0  0  0
  -19.1019  -27.9256   23.8940 C   0  0  0  0  0  0  0  0  0  0  0  0
  -20.5246  -25.9006   17.5107 C   0  0  0  0  0  0  0  0  0  0  0  0
  -29.1219  -22.2346   14.7355 C   0  0  0  0  0  0  0  0  0  0  0  0
  -28.9922  -20.8829   15.4679 C   0  0  0  0  0  0  0  0  0  0  0  0
  -30.1445  -24.5108   17.2499 C   0  0  0  0  0  0  0  0  0  0  0  0
  -29.4851  -25.0563   15.9756 C   0  0  0  0  0  0  0  0  0  0  0  0
  -23.8663  -22.6916   15.5164 C   0  0  0  0  0  0  0  0  0  0  0  0
  -28.8401  -26.0885   18.8087 C   0  0  0  0  0  0  0  0  0  1  0  0
  -24.5528  -24.0805   15.3460 C   0  0  1  0  0  0  0  0  0  0  0  0
  -20.9218  -27.1547   22.3174 C   0  0  1  0  0  0  0  0  0  0  0  0
  -19.1160  -25.3683   19.5035 C   0  0  2  0  0  0  0  0  0  0  0  0
  -30.0789  -19.8560   15.0987 C   0  0  0  0  0  0  0  0  0  0  0  0
  -29.3057  -24.6513   18.5392 C   0  0  2  0  0  0  0  0  0  0  0  0
  -20.3896  -27.0814   23.7764 C   0  0  0  0  0  0  0  0  0  0  0  0
  -26.3076  -18.3473   20.0777 N   0  0  0  0  0  0  0  0  0  0  0  0
  -28.1732  -24.3954   15.6332 N   0  0  0  0  0  0  0  0  0  0  0  0
  -27.0209  -19.4846   20.0167 N   0  0  0  0  0  0  0  0  0  0  0  0
  -26.7266  -22.9499   14.9457 N   0  3  0  0  0  0  0  0  0  0  0  0
  -22.6531  -28.7463   21.5472 N   0  0  0  0  0  0  0  0  0  0  0  0
  -24.2738  -21.9970   19.1510 N   0  0  0  0  0  0  0  0  0  0  0  0
  -29.2348  -20.3255   19.9695 N   0  0  0  0  0  0  0  0  0  0  0  0
  -29.8234  -15.8541   20.2067 N   0  0  0  0  0  0  0  0  0  0  0  0
  -24.2290  -31.8514   22.6295 N   0  0  0  0  0  0  0  0  0  0  0  0
  -19.9713  -26.6944   21.3108 N   0  0  0  0  0  0  0  0  0  0  0  0
  -24.1954  -22.0889   16.7890 N   0  0  0  0  0  0  0  0  0  0  0  0
  -19.6336  -24.9184   18.1804 N   0  3  0  0  0  0  0  0  0  0  0  0
  -30.9078  -17.8726   20.1151 O   0  0  0  0  0  0  0  0  0  0  0  0
  -23.8370  -29.7593   23.5740 O   0  0  0  0  0  0  0  0  0  0  0  0
  -20.4626  -29.4489   21.9272 O   0  0  0  0  0  0  0  0  0  0  0  0
  -21.3222  -25.0291   20.4282 O   0  0  0  0  0  0  0  0  0  0  0  0
  -23.3116  -23.7927   18.0430 O   0  0  0  0  0  0  0  0  0  0  0  0
  -25.7977  -12.0087   20.4122 O   0  0  0  0  0  0  0  0  0  0  0  0
  -28.0227  -26.1474   19.9770 O   0  0  0  0  0  0  0  0  0  1  0  0
  -21.7998  -10.6186   23.9460 F   0  0  0  0  0  0  0  0  0  0  0  0
  -26.2758  -10.2146   22.4604 F   0  0  0  0  0  0  0  0  0  0  0  0
  1  2  1  0  0  0  0
  1  5  2  0  0  0  0
  2  6  2  0  0  0  0
  3  8  2  0  0  0  0
  3 16  1  0  0  0  0
  4  9  1  0  0  0  0
  4 16  2  0  0  0  0
  5 18  1  0  0  0  0
  6 20  1  0  0  0  0
  7 10  2  0  0  0  0
  7 19  1  0  0  0  0
  8 22  1  0  0  0  0
  9 22  2  0  0  0  0
 10 23  1  0  0  0  0
 11 12  2  0  0  0  0
 11 24  1  0  0  0  0
 12 25  1  0  0  0  0
 13 21  1  0  0  0  0
 13 23  2  0  0  0  0
 14 25  2  0  0  0  0
 14 26  1  0  0  0  0
 15 28  2  0  0  0  0
 15 70  1  0  0  0  0
 16 27  1  0  0  0  0
 17 27  1  0  0  0  0
 17 29  2  0  0  0  0
 17 31  1  0  0  0  0
 18 20  2  0  0  0  0
 18 36  1  0  0  0  0
 19 21  2  0  0  0  0
 19 37  1  0  0  0  0
 20 45  1  0  0  0  0
 21 38  1  0  0  0  0
 22 86  1  0  0  0  0
 23 87  1  0  0  0  0
 24 26  2  0  0  0  0
 24 86  1  0  0  0  0
 25 88  1  0  0  0  0
 26 89  1  0  0  0  0
 27 69  2  0  0  0  0
 28 63  1  0  0  0  0
 28 72  1  0  0  0  0
 29 71  1  0  0  0  0
 29 75  1  0  0  0  0
 30 57  1  0  0  0  0
 30 70  1  0  0  0  0
 30 72  2  0  0  0  0
 31 76  1  0  0  0  0
 31 81  2  0  0  0  0
 32 46  1  0  0  0  0
 32 77  1  0  0  0  0
 32 82  2  0  0  0  0
 33 64  1  0  0  0  0
 33 73  1  0  0  0  0
 33 83  2  0  0  0  0
 34 65  1  0  0  0  0
 34 78  1  0  0  0  0
 34 84  2  0  0  0  0
 35 74  1  0  0  0  0
 35 79  1  0  0  0  0
 35 85  2  0  0  0  0
 36 39  1  0  0  0  0
 37 46  1  0  0  0  0
 38 73  1  0  0  0  0
 39 41  1  0  0  0  0
 40 42  1  0  0  0  0
 40 43  1  0  0  0  0
 41 45  1  0  0  0  0
 42 47  1  0  0  0  0
 43 74  1  0  0  0  0
 44 47  1  0  0  0  0
 44 74  1  0  0  0  0
 45 77  1  0  0  0  0
 46 73  1  0  0  0  0
 47 71  1  0  0  0  0
 48 63  1  0  0  0  0
 49 65  1  0  0  0  0
 50 66  1  0  0  0  0
 51 66  1  0  0  0  0
 52 67  1  0  0  0  0
 53 68  1  0  0  0  0
 54 68  1  0  0  0  0
 55 68  1  0  0  0  0
 56 80  1  0  0  0  0
 57 58  1  0  0  0  0
 58 66  1  0  0  0  0
 59 60  1  0  0  0  0
 59 67  1  0  0  0  0
 60 70  1  0  0  0  0
 61 63  1  0  0  0  0
 61 79  1  0  0  0  0
 62 67  1  0  0  0  0
 62 87  1  0  0  0  0
 64 68  1  0  0  0  0
 64 78  1  0  0  0  0
 65 80  1  0  0  0  0
 69 71  1  0  0  0  0
M  CHG  2  72   1  80   1
M  ISO  4  35 100  62 101  79 100  87 101
M  END
> <Batch ID>
0085

> <Smiles>
CNC(C)C(=O)NC(C(=O)N1Cc2cc([101O:1][101CH2:1]C(C)CCn3cc(C(C)C[100NH:0][100C:0](=O)N4CCCC(n5nc(-c6ccc(Oc7ccc(F)cc7F)cc6)c(C(N)=O)c5N)C4)nc3CCC(C)C)ccc2CC1C(=O)NC1CCCc2ccccc21)C(C)(C)C

> <Shape>
0.265

> <Color>
0.084

> <Negative vol penalty>
0.000

$$$$

  -OEChem-04052318563D

 87 95  0     1  0  0  0  0  0999 V2000
  -23.2797  -29.7840   18.9045 C   0  0  0  0  0  0  0  0  0  0  0  0
  -22.9616  -28.4365   19.0398 C   0  0  0  0  0  0  0  0  0  0  0  0
  -30.4269  -20.0023   19.5303 C   0  0  0  0  0  0  0  0  0  0  0  0
  -28.2477  -20.1895   20.5566 C   0  0  0  0  0  0  0  0  0  0  0  0
  -24.5264  -30.2498   19.3201 C   0  0  0  0  0  0  0  0  0  0  0  0
  -23.8904  -27.5537   19.5897 C   0  0  0  0  0  0  0  0  0  0  0  0
  -22.7049  -22.6812   23.1053 C   0  0  0  0  0  0  0  0  0  0  0  0
  -30.2072  -21.1977   18.8459 C   0  0  0  0  0  0  0  0  0  0  0  0
  -28.0280  -21.3849   19.8722 C   0  0  0  0  0  0  0  0  0  0  0  0
  -22.6109  -21.3197   22.8205 C   0  0  0  0  0  0  0  0  0  0  0  0
  -30.3669  -24.3855   17.1059 C   0  0  0  0  0  0  0  0  0  0  0  0
  -31.4040  -25.3179   17.0798 C   0  0  0  0  0  0  0  0  0  0  0  0
  -24.9062  -21.0249   23.5014 C   0  0  0  0  0  0  0  0  0  0  0  0
  -31.3522  -25.4430   19.4921 C   0  0  0  0  0  0  0  0  0  0  0  0
  -22.9492  -15.7644   19.0513 C   0  0  0  0  0  0  0  0  0  0  0  0
  -29.4471  -19.4982   20.3856 C   0  0  0  0  0  0  0  0  0  0  0  0
  -30.2579  -18.1057   22.3633 C   0  0  0  0  0  0  0  0  0  0  0  0
  -25.4674  -29.3741   19.8843 C   0  0  0  0  0  0  0  0  0  0  0  0
  -23.9056  -23.2277   23.5808 C   0  0  0  0  0  0  0  0  0  0  0  0
  -25.1513  -28.0080   20.0120 C   0  0  0  0  0  0  0  0  0  0  0  0
  -25.0121  -22.3932   23.7939 C   0  0  0  0  0  0  0  0  0  0  0  0
  -23.6838  -14.6041   19.0289 C   0  0  0  0  0  0  0  0  0  0  0  0
  -29.0078  -21.8890   19.0169 C   0  0  0  0  0  0  0  0  0  0  0  0
  -23.7125  -20.4918   23.0158 C   0  0  0  0  0  0  0  0  0  0  0  0
  -29.8223  -23.9819   18.3251 C   0  0  0  0  0  0  0  0  0  0  0  0
  -31.8967  -25.8466   18.2729 C   0  0  0  0  0  0  0  0  0  0  0  0
  -30.3151  -24.5106   19.5181 C   0  0  0  0  0  0  0  0  0  0  0  0
  -29.6731  -18.2631   21.0925 C   0  0  0  0  0  0  0  0  0  0  0  0
  -23.1006  -13.7990   20.0257 C   0  0  0  0  0  0  0  0  0  0  0  0
  -30.2437  -16.7499   22.5823 C   0  0  0  0  0  0  0  0  0  0  0  0
  -30.7683  -19.0965   23.2653 C   0  0  0  0  0  0  0  0  0  0  0  0
  -25.9560  -25.4087   22.5118 C   0  0  0  0  0  0  0  0  0  0  0  0
  -27.3427  -24.9595   25.4097 C   0  0  0  0  0  0  0  0  0  0  0  0
  -27.8392  -22.9175   28.0987 C   0  0  0  0  0  0  0  0  0  0  0  0
  -26.8183  -12.3148   20.4732 C   0  0  0  0  0  0  0  0  0  0  0  0
  -26.8197  -29.9154   20.2754 C   0  0  0  0  0  0  0  0  0  0  0  0
  -23.9827  -24.6936   23.9086 C   0  0  0  0  0  0  0  0  0  0  0  0
  -26.3179  -22.9269   24.3218 C   0  0  0  0  0  0  0  0  0  0  0  0
  -27.6068  -28.9832   21.1928 C   0  0  0  0  0  0  0  0  0  0  0  0
  -30.3616  -12.5777   20.2434 C   0  0  0  0  0  0  0  0  0  0  0  0
  -27.5619  -27.5524   20.6658 C   0  0  0  0  0  0  0  0  0  0  0  0
  -30.6397  -14.0504   20.5496 C   0  0  0  0  0  0  0  0  0  0  0  0
  -29.0710  -12.4010   19.4464 C   0  0  0  0  0  0  0  0  0  0  0  0
  -28.1585  -14.5025   20.3545 C   0  0  0  0  0  0  0  0  0  0  0  0
  -26.1229  -27.0239   20.6266 C   0  0  1  0  0  0  0  0  0  0  0  0
  -25.4096  -25.2334   23.9005 C   0  0  1  0  0  0  0  0  0  0  0  0
  -29.4206  -14.7268   21.2049 C   0  0  2  0  0  0  0  0  0  0  0  0
  -24.8244  -14.2861   18.1533 C   0  0  0  0  0  0  0  0  0  0  0  0
  -29.0513  -22.8100   30.2933 C   0  0  0  0  0  0  0  0  0  0  0  0
  -23.2723  -17.9190   24.7578 C   0  0  0  0  0  0  0  0  0  0  0  0
  -29.9604  -24.4278   23.9351 C   0  0  0  0  0  0  0  0  0  0  0  0
  -30.8611  -23.4181   26.0417 C   0  0  0  0  0  0  0  0  0  0  0  0
  -30.1903  -25.8204   25.9996 C   0  0  0  0  0  0  0  0  0  0  0  0
  -25.3106  -22.6597   29.6148 C   0  0  0  0  0  0  0  0  0  0  0  0
  -21.4893  -17.7334   21.3002 C   0  0  0  0  0  0  0  0  0  0  0  0
  -22.1401  -17.2472   22.6023 C   0  0  0  0  0  0  0  0  0  0  0  0
  -20.9532  -16.5868   20.4349 C   0  0  0  0  0  0  0  0  0  0  0  0
  -24.5811  -12.3848   21.5451 C   0  0  0  0  0  0  0  0  0  0  0  0
  -23.4942  -12.4387   20.4327 C   0  0  1  0  0  0  0  0  0  0  0  0
  -28.4024  -24.0334   25.9558 C   0  0  1  0  0  0  0  0  0  0  0  0
  -27.7536  -23.1791   29.5915 C   0  0  2  0  0  0  0  0  0  0  0  0
  -22.6476  -18.4121   23.4596 C   0  0  2  0  0  0  0  0  0  1  0  0
  -22.2913  -11.5705   20.8777 C   0  0  0  0  0  0  0  0  0  0  0  0
  -29.8297  -24.4149   25.4712 C   0  0  0  0  0  0  0  0  0  0  0  0
  -29.3138  -17.1001   20.5426 N   0  0  0  0  0  0  0  0  0  0  0  0
  -22.0747  -14.3973   20.6369 N   0  0  0  0  0  0  0  0  0  0  0  0
  -22.0076  -15.5907   20.0226 N   0  0  0  0  0  0  0  0  0  0  0  0
  -29.6738  -16.1990   21.4724 N   0  0  0  0  0  0  0  0  0  0  0  0
  -26.3454  -24.3681   24.6214 N   0  0  0  0  0  0  0  0  0  0  0  0
  -27.9535  -13.0641   20.1226 N   0  0  0  0  0  0  0  0  0  0  0  0
  -30.6633  -15.9870   23.6140 N   0  0  0  0  0  0  0  0  0  0  0  0
  -30.7050  -20.4436   22.8835 N   0  0  0  0  0  0  0  0  0  0  0  0
  -25.6877  -26.6439   21.9535 N   0  0  0  0  0  0  0  0  0  0  0  0
  -28.2421  -24.0395   27.4058 N   0  0  0  0  0  0  0  0  0  0  0  0
  -25.8079  -13.0189   21.1166 N   0  0  0  0  0  0  0  0  0  0  0  0
  -26.6494  -22.3805   30.1949 N   0  3  0  0  0  0  0  0  0  0  0  0
  -31.2807  -18.7949   24.3698 O   0  0  0  0  0  0  0  0  0  0  0  0
  -26.5764  -24.4918   21.9865 O   0  0  0  0  0  0  0  0  0  0  0  0
  -27.3937  -26.1623   25.6788 O   0  0  0  0  0  0  0  0  0  0  0  0
  -27.5785  -21.8259   27.5977 O   0  0  0  0  0  0  0  0  0  0  0  0
  -26.7154  -11.1065   20.2357 O   0  0  0  0  0  0  0  0  0  0  0  0
  -28.7933  -23.0556   18.3494 O   0  0  0  0  0  0  0  0  0  0  0  0
  -23.6236  -19.1626   22.7380 O   0  0  0  0  0  0  0  0  0  1  0  0
  -32.8937  -26.7407   18.2477 F   0  0  0  0  0  0  0  0  0  0  0  0
  -29.7968  -24.1258   20.6925 F   0  0  0  0  0  0  0  0  0  0  0  0
  -21.6406  -12.1588   21.9104 F   0  0  0  0  0  0  0  0  0  0  0  0
  -21.4064  -11.4747   19.8539 F   0  0  0  0  0  0  0  0  0  0  0  0
  1  2  1  0  0  0  0
  1  5  2  0  0  0  0
  2  6  2  0  0  0  0
  3  8  2  0  0  0  0
  3 16  1  0  0  0  0
  4  9  1  0  0  0  0
  4 16  2  0  0  0  0
  5 18  1  0  0  0  0
  6 20  1  0  0  0  0
  7 10  2  0  0  0  0
  7 19  1  0  0  0  0
  8 23  1  0  0  0  0
  9 23  2  0  0  0  0
 10 24  1  0  0  0  0
 11 12  2  0  0  0  0
 11 25  1  0  0  0  0
 12 26  1  0  0  0  0
 13 21  1  0  0  0  0
 13 24  2  0  0  0  0
 14 26  2  0  0  0  0
 14 27  1  0  0  0  0
 15 22  2  0  0  0  0
 15 67  1  0  0  0  0
 16 28  1  0  0  0  0
 17 28  1  0  0  0  0
 17 30  2  0  0  0  0
 17 31  1  0  0  0  0
 18 20  2  0  0  0  0
 18 36  1  0  0  0  0
 19 21  2  0  0  0  0
 19 37  1  0  0  0  0
 20 45  1  0  0  0  0
 21 38  1  0  0  0  0
 22 29  1  0  0  0  0
 22 48  1  0  0  0  0
 23 82  1  0  0  0  0
 24 83  1  0  0  0  0
 25 27  2  0  0  0  0
 25 82  1  0  0  0  0
 26 84  1  0  0  0  0
 27 85  1  0  0  0  0
 28 65  2  0  0  0  0
 29 59  1  0  0  0  0
 29 66  2  0  0  0  0
 30 68  1  0  0  0  0
 30 71  1  0  0  0  0
 31 72  1  0  0  0  0
 31 77  2  0  0  0  0
 32 46  1  0  0  0  0
 32 73  1  0  0  0  0
 32 78  2  0  0  0  0
 33 60  1  0  0  0  0
 33 69  1  0  0  0  0
 33 79  2  0  0  0  0
 34 61  1  0  0  0  0
 34 74  1  0  0  0  0
 34 80  2  0  0  0  0
 35 70  1  0  0  0  0
 35 75  1  0  0  0  0
 35 81  2  0  0  0  0
 36 39  1  0  0  0  0
 37 46  1  0  0  0  0
 38 69  1  0  0  0  0
 39 41  1  0  0  0  0
 40 42  1  0  0  0  0
 40 43  1  0  0  0  0
 41 45  1  0  0  0  0
 42 47  1  0  0  0  0
 43 70  1  0  0  0  0
 44 47  1  0  0  0  0
 44 70  1  0  0  0  0
 45 73  1  0  0  0  0
 46 69  1  0  0  0  0
 47 68  1  0  0  0  0
 49 61  1  0  0  0  0
 50 62  1  0  0  0  0
 51 64  1  0  0  0  0
 52 64  1  0  0  0  0
 53 64  1  0  0  0  0
 54 76  1  0  0  0  0
 55 56  1  0  0  0  0
 55 57  1  0  0  0  0
 56 62  1  0  0  0  0
 57 67  1  0  0  0  0
 58 59  1  0  0  0  0
 58 75  1  0  0  0  0
 59 63  1  0  0  0  0
 60 64  1  0  0  0  0
 60 74  1  0  0  0  0
 61 76  1  0  0  0  0
 62 83  1  0  0  0  0
 63 86  1  0  0  0  0
 63 87  1  0  0  0  0
 65 68  1  0  0  0  0
 66 67  1  0  0  0  0
M  CHG  1  76   1
M  ISO  4  35 100  62 101  75 100  83 101
M  END
> <Batch ID>
0085

> <Smiles>
CNC(C)C(=O)NC(C(=O)N1Cc2cc([101O:1][101CH:1](C)CCCn3cc(C)c(C(C[100NH:0][100C:0](=O)N4CCCC(n5nc(-c6ccc(Oc7ccc(F)cc7F)cc6)c(C(N)=O)c5N)C4)C(F)F)n3)ccc2CC1C(=O)NC1CCCc2ccccc21)C(C)(C)C

> <Shape>
0.220

> <Color>
0.062

> <Negative vol penalty>
0.000

$$$$

  -OEChem-04052318563D

 83 91  0     1  0  0  0  0  0999 V2000
  -23.8608  -23.2988   20.4914 C   0  0  0  0  0  0  0  0  0  0  0  0
  -25.0715  -22.6243   20.3709 C   0  0  0  0  0  0  0  0  0  0  0  0
  -26.3025  -29.6373   20.4007 C   0  0  0  0  0  0  0  0  0  0  0  0
  -27.0481  -28.8587   22.5629 C   0  0  0  0  0  0  0  0  0  0  0  0
  -22.8133  -22.7254   21.2109 C   0  0  0  0  0  0  0  0  0  0  0  0
  -25.2358  -21.3762   20.9708 C   0  0  0  0  0  0  0  0  0  0  0  0
  -28.5311  -16.6734   18.8424 C   0  0  0  0  0  0  0  0  0  0  0  0
  -25.2300  -30.2921   21.0064 C   0  0  0  0  0  0  0  0  0  0  0  0
  -25.9757  -29.5135   23.1685 C   0  0  0  0  0  0  0  0  0  0  0  0
  -29.8147  -16.2172   19.1388 C   0  0  0  0  0  0  0  0  0  0  0  0
  -23.6384  -31.2794   25.3219 C   0  0  0  0  0  0  0  0  0  0  0  0
  -23.8973  -32.0195   26.4755 C   0  0  0  0  0  0  0  0  0  0  0  0
  -28.8834  -14.6251   20.6935 C   0  0  0  0  0  0  0  0  0  0  0  0
  -25.4376  -33.4098   25.2378 C   0  0  0  0  0  0  0  0  0  0  0  0
  -30.9812  -17.0101   23.2229 C   0  0  0  0  0  0  0  0  0  0  0  0
  -27.2115  -28.9206   21.1790 C   0  0  0  0  0  0  0  0  0  0  0  0
  -29.6014  -28.7664   20.3002 C   0  0  0  0  0  0  0  0  0  0  0  0
  -22.9615  -21.4654   21.8118 C   0  0  0  0  0  0  0  0  0  0  0  0
  -27.4128  -16.1154   19.4785 C   0  0  0  0  0  0  0  0  0  0  0  0
  -24.1897  -20.7860   21.7002 C   0  0  0  0  0  0  0  0  0  0  0  0
  -27.5864  -15.0742   20.4015 C   0  0  0  0  0  0  0  0  0  0  0  0
  -25.0667  -30.2302   22.3902 C   0  0  0  0  0  0  0  0  0  0  0  0
  -29.9913  -15.1949   20.0667 C   0  0  0  0  0  0  0  0  0  0  0  0
  -24.2792  -31.6045   24.1262 C   0  0  0  0  0  0  0  0  0  0  0  0
  -24.7969  -33.0847   26.4334 C   0  0  0  0  0  0  0  0  0  0  0  0
  -25.1787  -32.6697   24.0842 C   0  0  0  0  0  0  0  0  0  0  0  0
  -28.3192  -28.2435   20.5539 C   0  0  0  0  0  0  0  0  0  0  0  0
  -31.0028  -18.3215   23.6264 C   0  0  0  0  0  0  0  0  0  0  0  0
  -30.2791  -27.7357   19.6962 C   0  0  0  0  0  0  0  0  0  0  0  0
  -30.1323  -30.0674   20.5851 C   0  0  0  0  0  0  0  0  0  0  0  0
  -25.1378  -17.2274   21.3998 C   0  0  0  0  0  0  0  0  0  0  0  0
  -23.9016  -14.2531   21.0152 C   0  0  0  0  0  0  0  0  0  0  0  0
  -24.4389  -10.9665   20.2694 C   0  0  0  0  0  0  0  0  0  0  0  0
  -29.6268  -21.7856   19.8458 C   0  0  0  0  0  0  0  0  0  0  0  0
  -21.8166  -20.9070   22.6194 C   0  0  0  0  0  0  0  0  0  0  0  0
  -26.0328  -16.6003   19.1278 C   0  0  0  0  0  0  0  0  0  0  0  0
  -26.4172  -14.4278   21.0969 C   0  0  0  0  0  0  0  0  0  0  0  0
  -21.9467  -19.4139   22.9090 C   0  0  0  0  0  0  0  0  0  0  0  0
  -29.5605  -23.8748   16.9635 C   0  0  0  0  0  0  0  0  0  0  0  0
  -23.3563  -19.0842   23.3899 C   0  0  0  0  0  0  0  0  0  0  0  0
  -29.3506  -25.2785   17.5339 C   0  0  0  0  0  0  0  0  0  0  0  0
  -28.7901  -22.8220   17.7572 C   0  0  0  0  0  0  0  0  0  0  0  0
  -28.8418  -24.2301   19.7791 C   0  0  0  0  0  0  0  0  0  0  0  0
  -24.3981  -19.4193   22.3157 C   0  0  1  0  0  0  0  0  0  0  0  0
  -25.0036  -16.3115   20.2162 C   0  0  1  0  0  0  0  0  0  0  0  0
  -29.6436  -25.3190   19.0458 C   0  0  2  0  0  0  0  0  0  0  0  0
  -23.2417   -8.7697   20.0738 C   0  0  0  0  0  0  0  0  0  0  0  0
  -23.8193  -14.0300   24.0571 C   0  0  0  0  0  0  0  0  0  0  0  0
  -23.5374  -11.5557   23.7983 C   0  0  0  0  0  0  0  0  0  0  0  0
  -21.8095  -13.1080   22.8887 C   0  0  0  0  0  0  0  0  0  0  0  0
  -25.1325  -10.7116   17.4035 C   0  0  0  0  0  0  0  0  0  0  0  0
  -29.8765  -19.2212   23.9074 C   0  0  0  0  0  0  0  0  0  0  0  0
  -33.3874  -15.3258   21.2668 C   0  0  0  0  0  0  0  0  0  0  0  0
  -32.8933  -15.3609   22.7147 C   0  0  0  0  0  0  0  0  0  0  0  0
  -30.4521  -20.8937   22.0097 C   0  0  0  0  0  0  0  0  0  0  0  0
  -32.3100  -15.6900   20.2519 C   0  0  0  0  0  0  0  0  0  1  0  0
  -24.0505  -12.9326   21.7315 C   0  0  1  0  0  0  0  0  0  0  0  0
  -23.7132  -10.0136   19.3367 C   0  0  2  0  0  0  0  0  0  0  0  0
  -29.3783  -20.0360   22.6837 C   0  0  1  0  0  0  0  0  0  0  0  0
  -23.3265  -12.9199   23.1074 C   0  0  0  0  0  0  0  0  0  0  0  0
  -28.1877  -26.9790   20.1444 N   0  0  0  0  0  0  0  0  0  0  0  0
  -32.2976  -18.7415   23.7549 N   0  0  0  0  0  0  0  0  0  0  0  0
  -33.0903  -17.7228   23.4400 N   0  0  0  0  0  0  0  0  0  0  0  0
  -32.2990  -16.6858   23.1211 N   0  0  0  0  0  0  0  0  0  0  0  0
  -29.3960  -26.6986   19.6272 N   0  0  0  0  0  0  0  0  0  0  0  0
  -25.0884  -14.9411   20.7250 N   0  0  0  0  0  0  0  0  0  0  0  0
  -29.1142  -22.9129   19.1829 N   0  0  0  0  0  0  0  0  0  0  0  0
  -31.5384  -27.6244   19.2226 N   0  0  0  0  0  0  0  0  0  0  0  0
  -29.3002  -31.0066   21.2095 N   0  0  0  0  0  0  0  0  0  0  0  0
  -24.4128  -18.3986   21.2899 N   0  0  0  0  0  0  0  0  0  0  0  0
  -23.5851  -11.9092   20.8018 N   0  0  0  0  0  0  0  0  0  0  0  0
  -29.9132  -21.9593   21.1943 N   0  0  0  0  0  0  0  0  0  0  0  0
  -28.8145  -19.0980   21.6657 N   0  3  0  0  0  0  0  0  0  0  0  0
  -24.6129   -9.5895   18.2269 N   0  3  0  0  0  0  0  0  0  0  0  0
  -31.3047  -30.3929   20.2798 O   0  0  0  0  0  0  0  0  0  0  0  0
  -25.8456  -16.8954   22.3435 O   0  0  0  0  0  0  0  0  0  0  0  0
  -22.7743  -14.6559   20.7175 O   0  0  0  0  0  0  0  0  0  0  0  0
  -25.6421  -10.8807   20.5050 O   0  0  0  0  0  0  0  0  0  0  0  0
  -29.8204  -20.7060   19.2767 O   0  0  0  0  0  0  0  0  0  0  0  0
  -24.0205  -30.8692   22.9816 O   0  0  0  0  0  0  0  0  0  0  0  0
  -31.2432  -14.7483   20.3583 O   0  0  0  0  0  0  0  0  0  1  0  0
  -25.0442  -33.7963   27.5410 F   0  0  0  0  0  0  0  0  0  0  0  0
  -25.7964  -32.9874   22.9382 F   0  0  0  0  0  0  0  0  0  0  0  0
  1  2  1  0  0  0  0
  1  5  2  0  0  0  0
  2  6  2  0  0  0  0
  3  8  2  0  0  0  0
  3 16  1  0  0  0  0
  4  9  1  0  0  0  0
  4 16  2  0  0  0  0
  5 18  1  0  0  0  0
  6 20  1  0  0  0  0
  7 10  2  0  0  0  0
  7 19  1  0  0  0  0
  8 22  1  0  0  0  0
  9 22  2  0  0  0  0
 10 23  1  0  0  0  0
 11 12  2  0  0  0  0
 11 24  1  0  0  0  0
 12 25  1  0  0  0  0
 13 21  1  0  0  0  0
 13 23  2  0  0  0  0
 14 25  2  0  0  0  0
 14 26  1  0  0  0  0
 15 28  2  0  0  0  0
 15 64  1  0  0  0  0
 16 27  1  0  0  0  0
 17 27  1  0  0  0  0
 17 29  2  0  0  0  0
 17 30  1  0  0  0  0
 18 20  2  0  0  0  0
 18 35  1  0  0  0  0
 19 21  2  0  0  0  0
 19 36  1  0  0  0  0
 20 44  1  0  0  0  0
 21 37  1  0  0  0  0
 22 80  1  0  0  0  0
 23 81  1  0  0  0  0
 24 26  2  0  0  0  0
 24 80  1  0  0  0  0
 25 82  1  0  0  0  0
 26 83  1  0  0  0  0
 27 61  2  0  0  0  0
 28 52  1  0  0  0  0
 28 62  1  0  0  0  0
 29 65  1  0  0  0  0
 29 68  1  0  0  0  0
 30 69  1  0  0  0  0
 30 75  2  0  0  0  0
 31 45  1  0  0  0  0
 31 70  1  0  0  0  0
 31 76  2  0  0  0  0
 32 57  1  0  0  0  0
 32 66  1  0  0  0  0
 32 77  2  0  0  0  0
 33 58  1  0  0  0  0
 33 71  1  0  0  0  0
 33 78  2  0  0  0  0
 34 67  1  0  0  0  0
 34 72  1  0  0  0  0
 34 79  2  0  0  0  0
 35 38  1  0  0  0  0
 36 45  1  0  0  0  0
 37 66  1  0  0  0  0
 38 40  1  0  0  0  0
 39 41  1  0  0  0  0
 39 42  1  0  0  0  0
 40 44  1  0  0  0  0
 41 46  1  0  0  0  0
 42 67  1  0  0  0  0
 43 46  1  0  0  0  0
 43 67  1  0  0  0  0
 44 70  1  0  0  0  0
 45 66  1  0  0  0  0
 46 65  1  0  0  0  0
 47 58  1  0  0  0  0
 48 60  1  0  0  0  0
 49 60  1  0  0  0  0
 50 60  1  0  0  0  0
 51 74  1  0  0  0  0
 52 59  1  0  0  0  0
 53 54  1  0  0  0  0
 53 56  1  0  0  0  0
 54 64  1  0  0  0  0
 55 59  1  0  0  0  0
 55 72  1  0  0  0  0
 56 81  1  0  0  0  0
 57 60  1  0  0  0  0
 57 71  1  0  0  0  0
 58 74  1  0  0  0  0
 59 73  1  0  0  0  0
 61 65  1  0  0  0  0
 62 63  2  0  0  0  0
 63 64  1  0  0  0  0
M  CHG  2  73   1  74   1
M  ISO  4  34 100  56 101  72 100  81 101
M  END
> <Batch ID>
0085

> <Smiles>
CNC(C)C(=O)NC(C(=O)N1Cc2cc([101O:1][101CH2:1]CCn3cc(CC(N)C[100NH:0][100C:0](=O)N4CCCC(n5nc(-c6ccc(Oc7ccc(F)cc7F)cc6)c(C(N)=O)c5N)C4)nn3)ccc2CC1C(=O)NC1CCCc2ccccc21)C(C)(C)C

> <Shape>
0.242

> <Color>
0.065

> <Negative vol penalty>
0.000

$$$$

  -OEChem-04052318563D

 85 93  0     1  0  0  0  0  0999 V2000
  -21.5567  -23.6371   21.4128 C   0  0  0  0  0  0  0  0  0  0  0  0
  -22.8712  -23.2603   21.1571 C   0  0  0  0  0  0  0  0  0  0  0  0
  -23.4823  -28.0100   20.4346 C   0  0  0  0  0  0  0  0  0  0  0  0
  -24.7192  -28.3262   22.4857 C   0  0  0  0  0  0  0  0  0  0  0  0
  -20.7228  -22.7972   22.1498 C   0  0  0  0  0  0  0  0  0  0  0  0
  -23.3530  -22.0438   21.6392 C   0  0  0  0  0  0  0  0  0  0  0  0
  -27.4079  -18.3502   18.9150 C   0  0  0  0  0  0  0  0  0  0  0  0
  -22.3110  -28.4070   21.0797 C   0  0  0  0  0  0  0  0  0  0  0  0
  -23.5479  -28.7233   23.1308 C   0  0  0  0  0  0  0  0  0  0  0  0
  -28.7802  -18.1745   19.0872 C   0  0  0  0  0  0  0  0  0  0  0  0
  -20.0425  -27.0461   23.1835 C   0  0  0  0  0  0  0  0  0  0  0  0
  -18.8937  -26.2857   22.9653 C   0  0  0  0  0  0  0  0  0  0  0  0
  -28.3508  -16.3148   20.5625 C   0  0  0  0  0  0  0  0  0  0  0  0
  -17.7789  -28.2295   22.0618 C   0  0  0  0  0  0  0  0  0  0  0  0
  -34.1424  -21.5951   21.3465 C   0  0  0  0  0  0  0  0  0  0  0  0
  -24.6864  -27.9695   21.1376 C   0  0  0  0  0  0  0  0  0  0  0  0
  -26.8140  -28.3821   19.7920 C   0  0  0  0  0  0  0  0  0  0  0  0
  -21.1917  -21.5654   22.6329 C   0  0  0  0  0  0  0  0  0  0  0  0
  -26.4950  -17.5150   19.5750 C   0  0  0  0  0  0  0  0  0  0  0  0
  -22.5250  -21.1873   22.3845 C   0  0  0  0  0  0  0  0  0  0  0  0
  -26.9675  -16.4803   20.3949 C   0  0  0  0  0  0  0  0  0  0  0  0
  -33.7385  -20.6377   22.2447 C   0  0  0  0  0  0  0  0  0  0  0  0
  -22.3438  -28.7637   22.4277 C   0  0  0  0  0  0  0  0  0  0  0  0
  -29.2518  -17.1585   19.9133 C   0  0  0  0  0  0  0  0  0  0  0  0
  -20.0596  -28.3981   22.8409 C   0  0  0  0  0  0  0  0  0  0  0  0
  -17.7619  -26.8774   22.4044 C   0  0  0  0  0  0  0  0  0  0  0  0
  -18.9278  -28.9898   22.2801 C   0  0  0  0  0  0  0  0  0  0  0  0
  -25.8965  -27.5589   20.4720 C   0  0  0  0  0  0  0  0  0  0  0  0
  -33.3103  -21.3685   23.3692 C   0  0  0  0  0  0  0  0  0  0  0  0
  -27.7824  -27.5183   19.3421 C   0  0  0  0  0  0  0  0  0  0  0  0
  -26.7928  -29.8008   19.5856 C   0  0  0  0  0  0  0  0  0  0  0  0
  -24.1991  -17.9594   21.7279 C   0  0  0  0  0  0  0  0  0  0  0  0
  -23.6146  -14.8160   21.1801 C   0  0  0  0  0  0  0  0  0  0  0  0
  -24.7928  -11.7901   20.1302 C   0  0  0  0  0  0  0  0  0  0  0  0
  -31.2258  -23.2063   20.1760 C   0  0  0  0  0  0  0  0  0  0  0  0
  -20.2672  -20.7126   23.4652 C   0  0  0  0  0  0  0  0  0  0  0  0
  -25.0183  -17.7007   19.3576 C   0  0  0  0  0  0  0  0  0  0  0  0
  -26.0293  -15.5438   21.1099 C   0  0  0  0  0  0  0  0  0  0  0  0
  -20.7437  -19.2707   23.6206 C   0  0  0  0  0  0  0  0  0  0  0  0
  -27.8807  -22.4626   19.2097 C   0  0  0  0  0  0  0  0  0  0  0  0
  -22.2260  -19.2339   23.9784 C   0  0  0  0  0  0  0  0  0  0  0  0
  -27.1413  -23.7879   19.4018 C   0  0  0  0  0  0  0  0  0  0  0  0
  -28.9439  -22.2486   20.2848 C   0  0  0  0  0  0  0  0  0  0  0  0
  -29.1698  -24.6794   20.6221 C   0  0  0  0  0  0  0  0  0  0  0  0
  -23.0770  -19.8643   22.8694 C   0  0  1  0  0  0  0  0  0  0  0  0
  -24.1705  -17.1172   20.4838 C   0  0  1  0  0  0  0  0  0  0  0  0
  -28.1257  -24.9659   19.5293 C   0  0  2  0  0  0  0  0  0  0  0  0
  -32.7736  -20.8432   24.6368 C   0  0  0  0  0  0  0  0  0  0  0  0
  -24.0922   -9.3989   19.8324 C   0  0  0  0  0  0  0  0  0  0  0  0
  -23.8349  -14.3789   24.1918 C   0  0  0  0  0  0  0  0  0  0  0  0
  -24.0796  -11.9271   23.7477 C   0  0  0  0  0  0  0  0  0  0  0  0
  -21.9853  -13.1098   23.0860 C   0  0  0  0  0  0  0  0  0  0  0  0
  -33.8755  -25.2682   22.3679 C   0  0  0  0  0  0  0  0  0  0  0  0
  -35.7325  -24.2016   21.1149 C   0  0  0  0  0  0  0  0  0  0  0  0
  -25.2857  -11.8876   17.2137 C   0  0  0  0  0  0  0  0  0  0  0  0
  -33.7555  -19.1417   22.0561 C   0  0  0  0  0  0  0  0  0  0  0  0
  -32.3760  -18.5380   21.7703 C   0  0  0  0  0  0  0  0  0  0  0  0
  -32.4014  -17.0129   21.6585 C   0  0  0  0  0  0  0  0  0  0  0  0
  -33.4447  -24.3140   20.0819 C   0  0  0  0  0  0  0  0  0  0  0  0
  -31.0227  -16.4531   21.3353 C   0  0  0  0  0  0  0  0  0  1  0  0
  -24.1069  -13.5179   21.7730 C   0  0  1  0  0  0  0  0  0  0  0  0
  -24.2181  -10.7628   19.1717 C   0  0  2  0  0  0  0  0  0  0  0  0
  -23.5196  -13.2521   23.1878 C   0  0  0  0  0  0  0  0  0  0  0  0
  -34.2171  -24.0990   21.4120 C   0  0  0  0  0  0  0  0  0  0  0  0
  -26.2503  -26.2710   20.4577 N   0  0  0  0  0  0  0  0  0  0  0  0
  -33.4311  -22.6883   23.2030 N   0  0  0  0  0  0  0  0  0  0  0  0
  -33.9398  -22.7943   21.9637 N   0  0  0  0  0  0  0  0  0  0  0  0
  -27.4008  -26.2784   19.7633 N   0  0  0  0  0  0  0  0  0  0  0  0
  -24.5943  -15.7699   20.8704 N   0  0  0  0  0  0  0  0  0  0  0  0
  -29.8460  -23.4007   20.3533 N   0  0  0  0  0  0  0  0  0  0  0  0
  -28.9146  -27.7059   18.6313 N   0  0  0  0  0  0  0  0  0  0  0  0
  -25.7244  -30.5371   20.1154 N   0  0  0  0  0  0  0  0  0  0  0  0
  -23.2293  -18.9431   21.7637 N   0  0  0  0  0  0  0  0  0  0  0  0
  -23.8008  -12.4801   20.7943 N   0  0  0  0  0  0  0  0  0  0  0  0
  -32.0090  -24.3517   20.2498 N   0  0  0  0  0  0  0  0  0  0  0  0
  -25.0936  -10.6256   17.9735 N   0  3  0  0  0  0  0  0  0  0  0  0
  -27.6860  -30.3955   18.9360 O   0  0  0  0  0  0  0  0  0  0  0  0
  -25.0378  -17.7325   22.5920 O   0  0  0  0  0  0  0  0  0  0  0  0
  -22.4059  -14.9749   20.9919 O   0  0  0  0  0  0  0  0  0  0  0  0
  -26.0010  -11.9605   20.2781 O   0  0  0  0  0  0  0  0  0  0  0  0
  -31.7224  -22.0951   19.9621 O   0  0  0  0  0  0  0  0  0  0  0  0
  -21.2012  -29.1515   23.0575 O   0  0  0  0  0  0  0  0  0  0  0  0
  -30.5908  -16.9852   20.0837 O   0  0  0  0  0  0  0  0  0  1  0  0
  -16.6592  -26.1468   22.1935 F   0  0  0  0  0  0  0  0  0  0  0  0
  -18.9385  -30.2880   21.9478 F   0  0  0  0  0  0  0  0  0  0  0  0
  1  2  1  0  0  0  0
  1  5  2  0  0  0  0
  2  6  2  0  0  0  0
  3  8  2  0  0  0  0
  3 16  1  0  0  0  0
  4  9  1  0  0  0  0
  4 16  2  0  0  0  0
  5 18  1  0  0  0  0
  6 20  1  0  0  0  0
  7 10  2  0  0  0  0
  7 19  1  0  0  0  0
  8 23  1  0  0  0  0
  9 23  2  0  0  0  0
 10 24  1  0  0  0  0
 11 12  2  0  0  0  0
 11 25  1  0  0  0  0
 12 26  1  0  0  0  0
 13 21  1  0  0  0  0
 13 24  2  0  0  0  0
 14 26  2  0  0  0  0
 14 27  1  0  0  0  0
 15 22  2  0  0  0  0
 15 67  1  0  0  0  0
 16 28  1  0  0  0  0
 17 28  1  0  0  0  0
 17 30  2  0  0  0  0
 17 31  1  0  0  0  0
 18 20  2  0  0  0  0
 18 36  1  0  0  0  0
 19 21  2  0  0  0  0
 19 37  1  0  0  0  0
 20 45  1  0  0  0  0
 21 38  1  0  0  0  0
 22 29  1  0  0  0  0
 22 56  1  0  0  0  0
 23 82  1  0  0  0  0
 24 83  1  0  0  0  0
 25 27  2  0  0  0  0
 25 82  1  0  0  0  0
 26 84  1  0  0  0  0
 27 85  1  0  0  0  0
 28 65  2  0  0  0  0
 29 48  1  0  0  0  0
 29 66  2  0  0  0  0
 30 68  1  0  0  0  0
 30 71  1  0  0  0  0
 31 72  1  0  0  0  0
 31 77  2  0  0  0  0
 32 46  1  0  0  0  0
 32 73  1  0  0  0  0
 32 78  2  0  0  0  0
 33 61  1  0  0  0  0
 33 69  1  0  0  0  0
 33 79  2  0  0  0  0
 34 62  1  0  0  0  0
 34 74  1  0  0  0  0
 34 80  2  0  0  0  0
 35 70  1  0  0  0  0
 35 75  1  0  0  0  0
 35 81  2  0  0  0  0
 36 39  1  0  0  0  0
 37 46  1  0  0  0  0
 38 69  1  0  0  0  0
 39 41  1  0  0  0  0
 40 42  1  0  0  0  0
 40 43  1  0  0  0  0
 41 45  1  0  0  0  0
 42 47  1  0  0  0  0
 43 70  1  0  0  0  0
 44 47  1  0  0  0  0
 44 70  1  0  0  0  0
 45 73  1  0  0  0  0
 46 69  1  0  0  0  0
 47 68  1  0  0  0  0
 49 62  1  0  0  0  0
 50 63  1  0  0  0  0
 51 63  1  0  0  0  0
 52 63  1  0  0  0  0
 53 64  1  0  0  0  0
 54 64  1  0  0  0  0
 55 76  1  0  0  0  0
 56 57  1  0  0  0  0
 57 58  1  0  0  0  0
 58 60  1  0  0  0  0
 59 64  1  0  0  0  0
 59 75  1  0  0  0  0
 60 83  1  0  0  0  0
 61 63  1  0  0  0  0
 61 74  1  0  0  0  0
 62 76  1  0  0  0  0
 64 67  1  0  0  0  0
 65 68  1  0  0  0  0
 66 67  1  0  0  0  0
M  CHG  1  76   1
M  ISO  4  35 100  60 101  75 100  83 101
M  END
> <Batch ID>
0085

> <Smiles>
CNC(C)C(=O)NC(C(=O)N1Cc2cc([101O:1][101CH2:1]CCCc3cn(C(C)(C)C[100NH:0][100C:0](=O)N4CCCC(n5nc(-c6ccc(Oc7ccc(F)cc7F)cc6)c(C(N)=O)c5N)C4)nc3C)ccc2CC1C(=O)NC1CCCc2ccccc21)C(C)(C)C

> <Shape>
0.205

> <Color>
0.061

> <Negative vol penalty>
0.000

$$$$

  -OEChem-04052318563D

 91 99  0     1  0  0  0  0  0999 V2000
  -18.1199  -16.6999   22.4648 C   0  0  0  0  0  0  0  0  0  0  0  0
  -19.2249  -17.3978   21.9881 C   0  0  0  0  0  0  0  0  0  0  0  0
  -23.9879  -30.7738   22.6065 C   0  0  0  0  0  0  0  0  0  0  0  0
  -23.8765  -28.6994   23.8401 C   0  0  0  0  0  0  0  0  0  0  0  0
  -18.2976  -15.4956   23.1445 C   0  0  0  0  0  0  0  0  0  0  0  0
  -20.5084  -16.8923   22.1918 C   0  0  0  0  0  0  0  0  0  0  0  0
  -23.3876  -17.1681   18.0350 C   0  0  0  0  0  0  0  0  0  0  0  0
  -22.5954  -30.8535   22.6148 C   0  0  0  0  0  0  0  0  0  0  0  0
  -22.4840  -28.7792   23.8485 C   0  0  0  0  0  0  0  0  0  0  0  0
  -23.9349  -18.4113   17.7209 C   0  0  0  0  0  0  0  0  0  0  0  0
  -18.8883  -28.2500   23.8829 C   0  0  0  0  0  0  0  0  0  0  0  0
  -18.1708  -27.0918   23.5837 C   0  0  0  0  0  0  0  0  0  0  0  0
  -26.0371  -17.7220   18.6823 C   0  0  0  0  0  0  0  0  0  0  0  0
  -27.6830  -22.4020   19.7276 C   0  0  0  0  0  0  0  0  0  0  0  0
  -19.2214  -27.0025   21.4099 C   0  0  0  0  0  0  0  0  0  0  0  0
  -24.6285  -29.6967   23.2191 C   0  0  0  0  0  0  0  0  0  0  0  0
  -26.9546  -30.1362   24.1698 C   0  0  0  0  0  0  0  0  0  0  0  0
  -19.5833  -14.9702   23.3482 C   0  0  0  0  0  0  0  0  0  0  0  0
  -24.1590  -16.1947   18.6860 C   0  0  0  0  0  0  0  0  0  0  0  0
  -20.7036  -15.6805   22.8761 C   0  0  0  0  0  0  0  0  0  0  0  0
  -25.4980  -16.4663   19.0013 C   0  0  0  0  0  0  0  0  0  0  0  0
  -26.3046  -22.2672   19.4294 C   0  0  0  0  0  0  0  0  0  0  0  0
  -21.8434  -29.8562   23.2358 C   0  0  0  0  0  0  0  0  0  0  0  0
  -25.2590  -18.6894   18.0471 C   0  0  0  0  0  0  0  0  0  0  0  0
  -19.7724  -28.7844   22.9456 C   0  0  0  0  0  0  0  0  0  0  0  0
  -18.3374  -26.4681   22.3473 C   0  0  0  0  0  0  0  0  0  0  0  0
  -19.9389  -28.1607   21.7091 C   0  0  0  0  0  0  0  0  0  0  0  0
  -26.0669  -29.6135   23.2103 C   0  0  0  0  0  0  0  0  0  0  0  0
  -27.8225  -22.2799   21.0924 C   0  0  0  0  0  0  0  0  0  0  0  0
  -25.6436  -22.0670   20.6212 C   0  0  0  0  0  0  0  0  0  0  0  0
  -28.2014  -29.7931   23.7071 C   0  0  0  0  0  0  0  0  0  0  0  0
  -26.6768  -30.8666   25.3720 C   0  0  0  0  0  0  0  0  0  0  0  0
  -23.9738  -14.6821   21.4755 C   0  0  0  0  0  0  0  0  0  0  0  0
  -26.4814  -13.0014   20.2882 C   0  0  0  0  0  0  0  0  0  0  0  0
  -29.1251  -12.8761   18.1337 C   0  0  0  0  0  0  0  0  0  0  0  0
  -30.1592  -25.4071   20.1320 C   0  0  0  0  0  0  0  0  0  0  0  0
  -19.7283  -13.6886   24.1300 C   0  0  0  0  0  0  0  0  0  0  0  0
  -23.5617  -14.8491   18.9939 C   0  0  0  0  0  0  0  0  0  0  0  0
  -26.3746  -15.4482   19.6822 C   0  0  0  0  0  0  0  0  0  0  0  0
  -21.0985  -13.0332   23.9766 C   0  0  0  0  0  0  0  0  0  0  0  0
  -30.5770  -28.9098   19.6491 C   0  0  0  0  0  0  0  0  0  0  0  0
  -22.2067  -14.0691   24.1370 C   0  0  0  0  0  0  0  0  0  0  0  0
  -29.5486  -29.5345   20.5936 C   0  0  0  0  0  0  0  0  0  0  0  0
  -30.0558  -27.6190   19.0214 C   0  0  0  0  0  0  0  0  0  0  0  0
  -28.5438  -27.2375   20.9298 C   0  0  0  0  0  0  0  0  0  0  0  0
  -22.1102  -15.1521   23.0557 C   0  0  1  0  0  0  0  0  0  0  0  0
  -24.2867  -14.1169   20.1190 C   0  0  1  0  0  0  0  0  0  0  0  0
  -29.0454  -28.5120   21.6302 C   0  0  2  0  0  0  0  0  0  0  0  0
  -31.0138  -11.3870   17.4176 C   0  0  0  0  0  0  0  0  0  0  0  0
  -21.4586  -24.3010   22.2780 C   0  0  0  0  0  0  0  0  0  0  0  0
  -21.2407  -22.5898   20.4657 C   0  0  0  0  0  0  0  0  0  0  0  0
  -26.6511  -23.1412   23.8515 C   0  0  0  0  0  0  0  0  0  0  0  0
  -26.9502  -20.6407   23.5981 C   0  0  0  0  0  0  0  0  0  0  0  0
  -31.3826  -23.2791   22.2627 C   0  0  0  0  0  0  0  0  0  0  0  0
  -26.6958  -22.5703   16.8928 C   0  0  0  0  0  0  0  0  0  0  0  0
  -24.6679  -23.5091   17.9808 C   0  0  0  0  0  0  0  0  0  0  0  0
  -27.9981  -13.7011   22.8417 C   0  0  0  0  0  0  0  0  0  0  0  0
  -30.1151  -13.0318   21.6847 C   0  0  0  0  0  0  0  0  0  0  0  0
  -28.3116  -11.3484   22.0536 C   0  0  0  0  0  0  0  0  0  0  0  0
  -28.1193  -12.7427   15.3535 C   0  0  0  0  0  0  0  0  0  0  0  0
  -29.0389  -22.3399   21.9287 C   0  0  0  0  0  0  0  0  0  0  0  0
  -24.2035  -21.8672   20.8900 C   0  0  0  0  0  0  0  0  0  0  0  0
  -23.5274  -23.1356   21.4566 C   0  0  0  0  0  0  0  0  0  0  0  0
  -24.9069  -21.0187   17.7207 C   0  0  0  0  0  0  0  0  0  1  0  0
  -27.9827  -13.1571   20.3178 C   0  0  1  0  0  0  0  0  0  0  0  0
  -29.5764  -11.8079   17.1540 C   0  0  2  0  0  0  0  0  0  0  0  0
  -22.0174  -22.9892   21.7212 C   0  0  0  0  0  0  0  0  0  0  0  0
  -26.2898  -21.8999   23.0335 C   0  0  0  0  0  0  0  0  0  0  0  0
  -30.1567  -23.2478   21.3554 C   0  0  1  0  0  0  0  0  0  0  0  0
  -25.6703  -22.3330   18.0274 C   0  0  0  0  0  0  0  0  0  0  0  0
  -28.5850  -12.8297   21.7134 C   0  0  0  0  0  0  0  0  0  0  0  0
  -26.6964  -28.9862   22.2132 N   0  0  0  0  0  0  0  0  0  0  0  0
  -26.5763  -22.0769   21.6253 N   0  0  0  0  0  0  0  0  0  0  0  0
  -27.9930  -29.1126   22.5437 N   0  0  0  0  0  0  0  0  0  0  0  0
  -25.7429  -14.1495   19.9683 N   0  0  0  0  0  0  0  0  0  0  0  0
  -29.5958  -26.6917   20.0579 N   0  0  0  0  0  0  0  0  0  0  0  0
  -29.4448  -30.0103   24.1859 N   0  0  0  0  0  0  0  0  0  0  0  0
  -25.3401  -31.1331   25.6981 N   0  0  0  0  0  0  0  0  0  0  0  0
  -22.6305  -14.6589   21.7985 N   0  0  0  0  0  0  0  0  0  0  0  0
  -28.5004  -12.3286   19.2343 N   0  0  0  0  0  0  0  0  0  0  0  0
  -29.6711  -24.5938   21.1475 N   0  0  0  0  0  0  0  0  0  0  0  0
  -29.4840  -12.3152   15.7558 N   0  3  0  0  0  0  0  0  0  0  0  0
  -27.5879  -31.2850   26.1259 O   0  0  0  0  0  0  0  0  0  0  0  0
  -24.8840  -15.1065   22.1778 O   0  0  0  0  0  0  0  0  0  0  0  0
  -25.9827  -11.9000   20.5328 O   0  0  0  0  0  0  0  0  0  0  0  0
  -29.3117  -14.0759   17.9436 O   0  0  0  0  0  0  0  0  0  0  0  0
  -31.0364  -25.0160   19.3545 O   0  0  0  0  0  0  0  0  0  0  0  0
  -20.4845  -29.9338   23.2444 O   0  0  0  0  0  0  0  0  0  0  0  0
  -25.7955  -19.9023   17.7423 O   0  0  0  0  0  0  0  0  0  1  0  0
  -17.6495  -25.3551   22.0607 F   0  0  0  0  0  0  0  0  0  0  0  0
  -20.7876  -28.6688   20.8050 F   0  0  0  0  0  0  0  0  0  0  0  0
  1  2  1  0  0  0  0
  1  5  2  0  0  0  0
  2  6  2  0  0  0  0
  3  8  2  0  0  0  0
  3 16  1  0  0  0  0
  4  9  1  0  0  0  0
  4 16  2  0  0  0  0
  5 18  1  0  0  0  0
  6 20  1  0  0  0  0
  7 10  2  0  0  0  0
  7 19  1  0  0  0  0
  8 23  1  0  0  0  0
  9 23  2  0  0  0  0
 10 24  1  0  0  0  0
 11 12  2  0  0  0  0
 11 25  1  0  0  0  0
 12 26  1  0  0  0  0
 13 21  1  0  0  0  0
 13 24  2  0  0  0  0
 14 22  1  0  0  0  0
 14 29  2  0  0  0  0
 15 26  2  0  0  0  0
 15 27  1  0  0  0  0
 16 28  1  0  0  0  0
 17 28  1  0  0  0  0
 17 31  2  0  0  0  0
 17 32  1  0  0  0  0
 18 20  2  0  0  0  0
 18 37  1  0  0  0  0
 19 21  2  0  0  0  0
 19 38  1  0  0  0  0
 20 46  1  0  0  0  0
 21 39  1  0  0  0  0
 22 30  2  0  0  0  0
 22 70  1  0  0  0  0
 23 88  1  0  0  0  0
 24 89  1  0  0  0  0
 25 27  2  0  0  0  0
 25 88  1  0  0  0  0
 26 90  1  0  0  0  0
 27 91  1  0  0  0  0
 28 72  2  0  0  0  0
 29 61  1  0  0  0  0
 29 73  1  0  0  0  0
 30 62  1  0  0  0  0
 30 73  1  0  0  0  0
 31 74  1  0  0  0  0
 31 77  1  0  0  0  0
 32 78  1  0  0  0  0
 32 83  2  0  0  0  0
 33 47  1  0  0  0  0
 33 79  1  0  0  0  0
 33 84  2  0  0  0  0
 34 65  1  0  0  0  0
 34 75  1  0  0  0  0
 34 85  2  0  0  0  0
 35 66  1  0  0  0  0
 35 80  1  0  0  0  0
 35 86  2  0  0  0  0
 36 76  1  0  0  0  0
 36 81  1  0  0  0  0
 36 87  2  0  0  0  0
 37 40  1  0  0  0  0
 38 47  1  0  0  0  0
 39 75  1  0  0  0  0
 40 42  1  0  0  0  0
 41 43  1  0  0  0  0
 41 44  1  0  0  0  0
 42 46  1  0  0  0  0
 43 48  1  0  0  0  0
 44 76  1  0  0  0  0
 45 48  1  0  0  0  0
 45 76  1  0  0  0  0
 46 79  1  0  0  0  0
 47 75  1  0  0  0  0
 48 74  1  0  0  0  0
 49 66  1  0  0  0  0
 50 67  1  0  0  0  0
 51 67  1  0  0  0  0
 52 68  1  0  0  0  0
 53 68  1  0  0  0  0
 54 69  1  0  0  0  0
 55 70  1  0  0  0  0
 56 70  1  0  0  0  0
 57 71  1  0  0  0  0
 58 71  1  0  0  0  0
 59 71  1  0  0  0  0
 60 82  1  0  0  0  0
 61 69  1  0  0  0  0
 62 63  1  0  0  0  0
 63 67  1  0  0  0  0
 64 70  1  0  0  0  0
 64 89  1  0  0  0  0
 65 71  1  0  0  0  0
 65 80  1  0  0  0  0
 66 82  1  0  0  0  0
 68 73  1  0  0  0  0
 69 81  1  0  0  0  0
 72 74  1  0  0  0  0
M  CHG  1  82   1
M  ISO  4  36 100  64 101  81 100  89 101
M  END
> <Batch ID>
0085

> <Smiles>
CNC(C)C(=O)NC(C(=O)N1Cc2cc([101O:1][101CH2:1]C(C)(C)c3cc(CC(C)[100NH:0][100C:0](=O)N4CCCC(n5nc(-c6ccc(Oc7ccc(F)cc7F)cc6)c(C(N)=O)c5N)C4)n(C(C)C)c3CCC(C)C)ccc2CC1C(=O)NC1CCCc2ccccc21)C(C)(C)C

> <Shape>
0.249

> <Color>
0.051

> <Negative vol penalty>
0.000

$$$$

  -OEChem-04052318563D

 87 95  0     1  0  0  0  0  0999 V2000
  -28.4375  -20.2775   15.2967 C   0  0  0  0  0  0  0  0  0  0  0  0
  -28.0956  -20.3176   16.6446 C   0  0  0  0  0  0  0  0  0  0  0  0
  -23.9069  -10.9731   23.4800 C   0  0  0  0  0  0  0  0  0  0  0  0
  -24.3014  -13.1356   24.4825 C   0  0  0  0  0  0  0  0  0  0  0  0
  -28.8979  -21.4299   14.6610 C   0  0  0  0  0  0  0  0  0  0  0  0
  -28.2148  -21.5098   17.3579 C   0  0  0  0  0  0  0  0  0  0  0  0
  -24.1848  -22.4361   20.2812 C   0  0  0  0  0  0  0  0  0  0  0  0
  -23.3908  -10.5067   24.6890 C   0  0  0  0  0  0  0  0  0  0  0  0
  -23.7852  -12.6692   25.6915 C   0  0  0  0  0  0  0  0  0  0  0  0
  -24.0950  -21.7347   21.4827 C   0  0  0  0  0  0  0  0  0  0  0  0
  -20.7410  -12.0996   27.0440 C   0  0  0  0  0  0  0  0  0  0  0  0
  -19.8445  -12.9231   27.7248 C   0  0  0  0  0  0  0  0  0  0  0  0
  -24.9327  -23.6636   22.6645 C   0  0  0  0  0  0  0  0  0  0  0  0
  -27.7028  -21.3432   24.1417 C   0  0  0  0  0  0  0  0  0  0  0  0
  -27.6582  -19.1277   23.2068 C   0  0  0  0  0  0  0  0  0  0  0  0
  -21.3393  -12.9819   29.6220 C   0  0  0  0  0  0  0  0  0  0  0  0
  -24.3623  -12.2875   23.3768 C   0  0  0  0  0  0  0  0  0  0  0  0
  -24.1849  -13.3852   21.0808 C   0  0  0  0  0  0  0  0  0  0  0  0
  -29.0137  -22.6391   15.3645 C   0  0  0  0  0  0  0  0  0  0  0  0
  -24.6603  -23.7552   20.2609 C   0  0  0  0  0  0  0  0  0  0  0  0
  -28.6785  -22.6790   16.7313 C   0  0  0  0  0  0  0  0  0  0  0  0
  -25.0251  -24.3805   21.4617 C   0  0  0  0  0  0  0  0  0  0  0  0
  -27.0689  -20.1152   23.9885 C   0  0  0  0  0  0  0  0  0  0  0  0
  -23.3299  -11.3548   25.7948 C   0  0  0  0  0  0  0  0  0  0  0  0
  -24.4717  -22.3474   22.6742 C   0  0  0  0  0  0  0  0  0  0  0  0
  -21.9367  -11.7171   27.6522 C   0  0  0  0  0  0  0  0  0  0  0  0
  -20.1436  -13.3643   29.0138 C   0  0  0  0  0  0  0  0  0  0  0  0
  -22.2358  -12.1583   28.9411 C   0  0  0  0  0  0  0  0  0  0  0  0
  -24.8961  -12.7697   22.1283 C   0  0  0  0  0  0  0  0  0  0  0  0
  -28.9149  -21.5323   23.4976 C   0  0  0  0  0  0  0  0  0  0  0  0
  -28.8721  -19.4160   22.6043 C   0  0  0  0  0  0  0  0  0  0  0  0
  -25.1385  -13.6533   20.1294 C   0  0  0  0  0  0  0  0  0  0  0  0
  -22.7872  -13.6877   20.9772 C   0  0  0  0  0  0  0  0  0  0  0  0
  -27.1425  -25.2245   18.9255 C   0  0  0  0  0  0  0  0  0  0  0  0
  -25.6937  -27.8854   20.0844 C   0  0  0  0  0  0  0  0  0  0  0  0
  -23.5642  -29.2635   22.3676 C   0  0  0  0  0  0  0  0  0  0  0  0
  -31.0579  -14.5073   20.4170 C   0  0  0  0  0  0  0  0  0  0  0  0
  -29.5610  -23.8472   14.6463 C   0  0  0  0  0  0  0  0  0  0  0  0
  -24.7259  -24.5072   18.9599 C   0  0  0  0  0  0  0  0  0  0  0  0
  -25.5228  -25.8016   21.4965 C   0  0  0  0  0  0  0  0  0  0  0  0
  -29.3028  -25.1607   15.3800 C   0  0  0  0  0  0  0  0  0  0  0  0
  -29.3394  -12.0593   18.4854 C   0  0  0  0  0  0  0  0  0  0  0  0
  -29.6471  -25.0223   16.8596 C   0  0  0  0  0  0  0  0  0  0  0  0
  -27.9416  -12.0193   19.1055 C   0  0  0  0  0  0  0  0  0  0  0  0
  -30.4195  -12.2793   19.5423 C   0  0  0  0  0  0  0  0  0  0  0  0
  -28.8132  -13.4173   21.0251 C   0  0  0  0  0  0  0  0  0  0  0  0
  -28.7706  -23.9594   17.5329 C   0  0  1  0  0  0  0  0  0  0  0  0
  -25.7099  -25.6726   18.9923 C   0  0  1  0  0  0  0  0  0  0  0  0
  -27.6857  -13.2533   19.9916 C   0  0  2  0  0  0  0  0  0  0  0  0
  -29.6245  -22.8371   23.6408 C   0  0  0  0  0  0  0  0  0  0  0  0
  -29.5576  -18.7920   20.2593 C   0  0  0  0  0  0  0  0  0  0  0  0
  -22.6094  -31.4687   23.0905 C   0  0  0  0  0  0  0  0  0  0  0  0
  -23.2717  -19.5894   24.2812 C   0  0  0  0  0  0  0  0  0  0  0  0
  -28.3379  -28.5841   21.4371 C   0  0  0  0  0  0  0  0  0  0  0  0
  -27.0931  -30.2158   22.8711 C   0  0  0  0  0  0  0  0  0  0  0  0
  -27.1535  -30.5254   20.3966 C   0  0  0  0  0  0  0  0  0  0  0  0
  -31.9972  -18.9949   22.3319 C   0  0  0  0  0  0  0  0  0  0  0  0
  -30.8085  -17.2834   23.7021 C   0  0  0  0  0  0  0  0  0  0  0  0
  -20.7981  -28.3895   21.7813 C   0  0  0  0  0  0  0  0  0  0  0  0
  -25.7460  -19.8546   24.6693 C   0  0  0  0  0  0  0  0  0  0  0  0
  -31.5488  -16.7497   21.3604 C   0  0  0  0  0  0  0  0  0  0  0  0
  -29.5321  -18.3801   21.7570 C   0  0  1  0  0  0  0  0  0  0  0  0
  -25.7579  -28.6600   21.3785 C   0  0  1  0  0  0  0  0  0  0  0  0
  -22.4158  -30.2437   22.2104 C   0  0  2  0  0  0  0  0  0  0  0  0
  -24.5543  -20.2489   23.7903 C   0  0  2  0  0  0  0  0  0  1  0  0
  -27.0781  -29.4689   21.5203 C   0  0  0  0  0  0  0  0  0  0  0  0
  -30.9510  -17.8599   22.2724 C   0  0  0  0  0  0  0  0  0  0  0  0
  -26.2008  -12.6534   21.8671 N   0  0  0  0  0  0  0  0  0  0  0  0
  -29.5181  -20.5970   22.7301 N   0  0  0  0  0  0  0  0  0  0  0  0
  -26.3170  -13.1994   20.6446 N   0  0  0  0  0  0  0  0  0  0  0  0
  -25.5749  -26.4930   20.1977 N   0  0  0  0  0  0  0  0  0  0  0  0
  -30.1182  -13.4656   20.3472 N   0  0  0  0  0  0  0  0  0  0  0  0
  -25.0756  -14.2305   18.9107 N   0  0  0  0  0  0  0  0  0  0  0  0
  -21.9482  -13.3443   22.0461 N   0  0  0  0  0  0  0  0  0  0  0  0
  -27.4495  -24.4874   17.7977 N   0  0  0  0  0  0  0  0  0  0  0  0
  -24.5493  -29.4757   21.4264 N   0  0  0  0  0  0  0  0  0  0  0  0
  -30.6906  -15.5975   21.1963 N   0  0  0  0  0  0  0  0  0  0  0  0
  -21.1268  -29.5956   22.5841 N   0  3  0  0  0  0  0  0  0  0  0  0
  -22.2942  -14.2310   19.9597 O   0  0  0  0  0  0  0  0  0  0  0  0
  -27.9128  -25.5265   19.8295 O   0  0  0  0  0  0  0  0  0  0  0  0
  -25.7399  -28.4940   19.0124 O   0  0  0  0  0  0  0  0  0  0  0  0
  -23.5871  -28.3986   23.2405 O   0  0  0  0  0  0  0  0  0  0  0  0
  -32.1415  -14.4710   19.8241 O   0  0  0  0  0  0  0  0  0  0  0  0
  -22.8261  -10.9001   26.9746 O   0  0  0  0  0  0  0  0  0  0  0  0
  -24.3857  -21.6648   23.8483 O   0  0  0  0  0  0  0  0  0  1  0  0
  -19.2832  -14.1564   29.6669 F   0  0  0  0  0  0  0  0  0  0  0  0
  -23.3834  -11.7952   29.5302 F   0  0  0  0  0  0  0  0  0  0  0  0
  1  2  1  0  0  0  0
  1  5  2  0  0  0  0
  2  6  2  0  0  0  0
  3  8  2  0  0  0  0
  3 17  1  0  0  0  0
  4  9  1  0  0  0  0
  4 17  2  0  0  0  0
  5 19  1  0  0  0  0
  6 21  1  0  0  0  0
  7 10  2  0  0  0  0
  7 20  1  0  0  0  0
  8 24  1  0  0  0  0
  9 24  2  0  0  0  0
 10 25  1  0  0  0  0
 11 12  2  0  0  0  0
 11 26  1  0  0  0  0
 12 27  1  0  0  0  0
 13 22  1  0  0  0  0
 13 25  2  0  0  0  0
 14 23  1  0  0  0  0
 14 30  2  0  0  0  0
 15 23  2  0  0  0  0
 15 31  1  0  0  0  0
 16 27  2  0  0  0  0
 16 28  1  0  0  0  0
 17 29  1  0  0  0  0
 18 29  1  0  0  0  0
 18 32  2  0  0  0  0
 18 33  1  0  0  0  0
 19 21  2  0  0  0  0
 19 38  1  0  0  0  0
 20 22  2  0  0  0  0
 20 39  1  0  0  0  0
 21 47  1  0  0  0  0
 22 40  1  0  0  0  0
 23 60  1  0  0  0  0
 24 84  1  0  0  0  0
 25 85  1  0  0  0  0
 26 28  2  0  0  0  0
 26 84  1  0  0  0  0
 27 86  1  0  0  0  0
 28 87  1  0  0  0  0
 29 68  2  0  0  0  0
 30 50  1  0  0  0  0
 30 69  1  0  0  0  0
 31 62  1  0  0  0  0
 31 69  2  0  0  0  0
 32 70  1  0  0  0  0
 32 73  1  0  0  0  0
 33 74  1  0  0  0  0
 33 79  2  0  0  0  0
 34 48  1  0  0  0  0
 34 75  1  0  0  0  0
 34 80  2  0  0  0  0
 35 63  1  0  0  0  0
 35 71  1  0  0  0  0
 35 81  2  0  0  0  0
 36 64  1  0  0  0  0
 36 76  1  0  0  0  0
 36 82  2  0  0  0  0
 37 72  1  0  0  0  0
 37 77  1  0  0  0  0
 37 83  2  0  0  0  0
 38 41  1  0  0  0  0
 39 48  1  0  0  0  0
 40 71  1  0  0  0  0
 41 43  1  0  0  0  0
 42 44  1  0  0  0  0
 42 45  1  0  0  0  0
 43 47  1  0  0  0  0
 44 49  1  0  0  0  0
 45 72  1  0  0  0  0
 46 49  1  0  0  0  0
 46 72  1  0  0  0  0
 47 75  1  0  0  0  0
 48 71  1  0  0  0  0
 49 70  1  0  0  0  0
 51 62  1  0  0  0  0
 52 64  1  0  0  0  0
 53 65  1  0  0  0  0
 54 66  1  0  0  0  0
 55 66  1  0  0  0  0
 56 66  1  0  0  0  0
 57 67  1  0  0  0  0
 58 67  1  0  0  0  0
 59 78  1  0  0  0  0
 60 65  1  0  0  0  0
 61 67  1  0  0  0  0
 61 77  1  0  0  0  0
 62 67  1  0  0  0  0
 63 66  1  0  0  0  0
 63 76  1  0  0  0  0
 64 78  1  0  0  0  0
 65 85  1  0  0  0  0
 68 70  1  0  0  0  0
M  CHG  1  78   1
M  ISO  4  37 100  65 101  77 100  85 101
M  END
> <Batch ID>
0085

> <Smiles>
CNC(C)C(=O)NC(C(=O)N1Cc2cc([101O:1][101CH:1](C)Cc3cc(C)nc(C(C)C(C)(C)C[100NH:0][100C:0](=O)N4CCCC(n5nc(-c6ccc(Oc7ccc(F)cc7F)cc6)c(C(N)=O)c5N)C4)c3)ccc2CC1C(=O)NC1CCCc2ccccc21)C(C)(C)C

> <Shape>
0.208

> <Color>
0.109

> <Negative vol penalty>
0.000

$$$$

  -OEChem-04052318563D

 89 97  0     1  0  0  0  0  0999 V2000
  -26.4129  -31.6407   18.0804 C   0  0  0  0  0  0  0  0  0  0  0  0
  -26.7325  -30.3007   17.8865 C   0  0  0  0  0  0  0  0  0  0  0  0
  -29.4284  -24.0488   21.8251 C   0  0  0  0  0  0  0  0  0  0  0  0
  -27.9150  -23.2836   20.1043 C   0  0  0  0  0  0  0  0  0  0  0  0
  -25.6462  -32.0211   19.1811 C   0  0  0  0  0  0  0  0  0  0  0  0
  -26.2865  -29.3403   18.7938 C   0  0  0  0  0  0  0  0  0  0  0  0
  -24.1557  -22.5077   19.0942 C   0  0  0  0  0  0  0  0  0  0  0  0
  -29.2827  -25.3594   21.3705 C   0  0  0  0  0  0  0  0  0  0  0  0
  -27.7692  -24.5942   19.6497 C   0  0  0  0  0  0  0  0  0  0  0  0
  -24.4202  -21.3264   19.7859 C   0  0  0  0  0  0  0  0  0  0  0  0
  -29.5890  -28.8603   20.4360 C   0  0  0  0  0  0  0  0  0  0  0  0
  -30.7417  -29.6346   20.3042 C   0  0  0  0  0  0  0  0  0  0  0  0
  -23.0356  -22.0901   21.6077 C   0  0  0  0  0  0  0  0  0  0  0  0
  -26.4456  -13.8301   21.2901 C   0  0  0  0  0  0  0  0  0  0  0  0
  -31.6281  -28.0446   18.7157 C   0  0  0  0  0  0  0  0  0  0  0  0
  -25.6761  -12.5737   19.5874 C   0  0  0  0  0  0  0  0  0  0  0  0
  -28.7446  -23.0109   21.1919 C   0  0  0  0  0  0  0  0  0  0  0  0
  -28.1174  -21.0030   22.6352 C   0  0  0  0  0  0  0  0  0  0  0  0
  -25.1825  -31.0637   20.0971 C   0  0  0  0  0  0  0  0  0  0  0  0
  -23.3366  -23.4954   19.6598 C   0  0  0  0  0  0  0  0  0  0  0  0
  -25.5141  -29.7084   19.9085 C   0  0  0  0  0  0  0  0  0  0  0  0
  -22.7602  -23.2820   20.9201 C   0  0  0  0  0  0  0  0  0  0  0  0
  -25.2753  -13.3664   20.6402 C   0  0  0  0  0  0  0  0  0  0  0  0
  -28.4531  -25.6321   20.2828 C   0  0  0  0  0  0  0  0  0  0  0  0
  -23.8625  -21.1187   21.0440 C   0  0  0  0  0  0  0  0  0  0  0  0
  -29.4558  -27.6781   19.7077 C   0  0  0  0  0  0  0  0  0  0  0  0
  -31.7612  -29.2267   19.4441 C   0  0  0  0  0  0  0  0  0  0  0  0
  -30.4753  -27.2703   18.8476 C   0  0  0  0  0  0  0  0  0  0  0  0
  -28.8951  -21.6567   21.6607 C   0  0  0  0  0  0  0  0  0  0  0  0
  -27.5260  -13.3068   20.6146 C   0  0  0  0  0  0  0  0  0  0  0  0
  -28.6585  -19.7434   22.7181 C   0  0  0  0  0  0  0  0  0  0  0  0
  -27.0051  -21.4908   23.3972 C   0  0  0  0  0  0  0  0  0  0  0  0
  -23.7523  -26.5220   20.5377 C   0  0  0  0  0  0  0  0  0  0  0  0
  -20.5530  -26.4024   21.0593 C   0  0  0  0  0  0  0  0  0  0  0  0
  -17.7940  -24.5051   21.7191 C   0  0  0  0  0  0  0  0  0  0  0  0
  -30.7001  -15.1538   20.2865 C   0  0  0  0  0  0  0  0  0  0  0  0
  -24.3966  -31.5285   21.2975 C   0  0  0  0  0  0  0  0  0  0  0  0
  -23.0395  -24.7526   18.8893 C   0  0  0  0  0  0  0  0  0  0  0  0
  -21.8577  -24.3024   21.5624 C   0  0  0  0  0  0  0  0  0  0  0  0
  -23.6477  -30.4039   22.0079 C   0  0  0  0  0  0  0  0  0  0  0  0
  -32.9460  -17.8690   20.7969 C   0  0  0  0  0  0  0  0  0  0  0  0
  -24.5590  -29.1966   22.2045 C   0  0  0  0  0  0  0  0  0  0  0  0
  -32.0280  -19.0432   21.1412 C   0  0  0  0  0  0  0  0  0  0  0  0
  -32.3190  -16.9505   19.7503 C   0  0  0  0  0  0  0  0  0  0  0  0
  -30.0510  -17.6346   20.4298 C   0  0  0  0  0  0  0  0  0  0  0  0
  -25.0280  -28.6342   20.8572 C   0  0  1  0  0  0  0  0  0  0  0  0
  -22.6062  -25.9118   19.7815 C   0  0  1  0  0  0  0  0  0  0  0  0
  -30.6163  -18.5583   21.5223 C   0  0  2  0  0  0  0  0  0  0  0  0
  -29.4098  -12.9604   22.2555 C   0  0  0  0  0  0  0  0  0  0  0  0
  -15.3254  -24.6939   22.1287 C   0  0  0  0  0  0  0  0  0  0  0  0
  -22.8368  -13.6991   19.8436 C   0  0  0  0  0  0  0  0  0  0  0  0
  -23.3254  -12.5816   22.0011 C   0  0  0  0  0  0  0  0  0  0  0  0
  -21.1018  -27.4187   23.8835 C   0  0  0  0  0  0  0  0  0  0  0  0
  -18.7926  -26.6900   24.5195 C   0  0  0  0  0  0  0  0  0  0  0  0
  -19.1086  -28.4444   22.7746 C   0  0  0  0  0  0  0  0  0  0  0  0
  -26.9255  -11.0848   17.6217 C   0  0  0  0  0  0  0  0  0  0  0  0
  -28.7343  -10.7869   19.3594 C   0  0  0  0  0  0  0  0  0  0  0  0
  -28.7977  -12.7095   17.7881 C   0  0  0  0  0  0  0  0  0  0  0  0
  -17.1569  -22.8445   19.3536 C   0  0  0  0  0  0  0  0  0  0  0  0
  -24.1402  -16.2818   20.9519 C   0  0  0  0  0  0  0  0  0  0  0  0
  -23.9196  -17.5757   21.7362 C   0  0  0  0  0  0  0  0  0  0  0  0
  -23.7271  -15.0570   21.7816 C   0  0  0  0  0  0  0  0  0  0  0  0
  -24.3648  -18.7963   20.9431 C   0  0  0  0  0  0  0  0  0  1  0  0
  -28.9724  -13.4699   20.8685 C   0  0  2  0  0  0  0  0  0  0  0  0
  -19.6737  -26.0406   22.2320 C   0  0  1  0  0  0  0  0  0  0  0  0
  -16.4136  -24.4811   21.0879 C   0  0  2  0  0  0  0  0  0  0  0  0
  -23.8227  -13.6879   21.0366 C   0  0  0  0  0  0  0  0  0  0  0  0
  -19.6877  -27.1298   23.3414 C   0  0  0  0  0  0  0  0  0  0  0  0
  -27.8475  -11.8157   18.6229 C   0  0  0  0  0  0  0  0  0  0  0  0
  -29.8572  -20.8769   21.1606 N   0  0  0  0  0  0  0  0  0  0  0  0
  -27.0463  -12.5450   19.5813 N   0  0  0  0  0  0  0  0  0  0  0  0
  -29.6877  -19.7202   21.8234 N   0  0  0  0  0  0  0  0  0  0  0  0
  -21.6024  -25.5180   20.7722 N   0  0  0  0  0  0  0  0  0  0  0  0
  -30.9825  -16.5251   20.1731 N   0  0  0  0  0  0  0  0  0  0  0  0
  -28.3498  -18.6645   23.4685 N   0  0  0  0  0  0  0  0  0  0  0  0
  -26.5783  -22.8092   23.1873 N   0  0  0  0  0  0  0  0  0  0  0  0
  -23.9765  -27.8531   20.2419 N   0  0  0  0  0  0  0  0  0  0  0  0
  -18.3511  -25.7658   21.6810 N   0  0  0  0  0  0  0  0  0  0  0  0
  -29.4117  -14.8371   20.6991 N   0  0  0  0  0  0  0  0  0  0  0  0
  -16.1732  -23.1719   20.4176 N   0  3  0  0  0  0  0  0  0  0  0  0
  -26.4178  -20.7839   24.2509 O   0  0  0  0  0  0  0  0  0  0  0  0
  -24.3854  -25.8363   21.3319 O   0  0  0  0  0  0  0  0  0  0  0  0
  -20.3130  -27.4279   20.4173 O   0  0  0  0  0  0  0  0  0  0  0  0
  -18.3235  -23.5062   22.2012 O   0  0  0  0  0  0  0  0  0  0  0  0
  -31.5360  -14.2768   20.0435 O   0  0  0  0  0  0  0  0  0  0  0  0
  -28.3105  -26.9109   19.8391 O   0  0  0  0  0  0  0  0  0  0  0  0
  -24.1195  -19.9669   21.7216 O   0  0  0  0  0  0  0  0  0  1  0  0
  -32.8674  -29.9712   19.3164 F   0  0  0  0  0  0  0  0  0  0  0  0
  -30.3526  -26.1361   18.1444 F   0  0  0  0  0  0  0  0  0  0  0  0
  1  2  1  0  0  0  0
  1  5  2  0  0  0  0
  2  6  2  0  0  0  0
  3  8  2  0  0  0  0
  3 17  1  0  0  0  0
  4  9  1  0  0  0  0
  4 17  2  0  0  0  0
  5 19  1  0  0  0  0
  6 21  1  0  0  0  0
  7 10  2  0  0  0  0
  7 20  1  0  0  0  0
  8 24  1  0  0  0  0
  9 24  2  0  0  0  0
 10 25  1  0  0  0  0
 11 12  2  0  0  0  0
 11 26  1  0  0  0  0
 12 27  1  0  0  0  0
 13 22  1  0  0  0  0
 13 25  2  0  0  0  0
 14 23  1  0  0  0  0
 14 30  2  0  0  0  0
 15 27  2  0  0  0  0
 15 28  1  0  0  0  0
 16 23  2  0  0  0  0
 16 71  1  0  0  0  0
 17 29  1  0  0  0  0
 18 29  1  0  0  0  0
 18 31  2  0  0  0  0
 18 32  1  0  0  0  0
 19 21  2  0  0  0  0
 19 37  1  0  0  0  0
 20 22  2  0  0  0  0
 20 38  1  0  0  0  0
 21 46  1  0  0  0  0
 22 39  1  0  0  0  0
 23 67  1  0  0  0  0
 24 86  1  0  0  0  0
 25 87  1  0  0  0  0
 26 28  2  0  0  0  0
 26 86  1  0  0  0  0
 27 88  1  0  0  0  0
 28 89  1  0  0  0  0
 29 70  2  0  0  0  0
 30 64  1  0  0  0  0
 30 71  1  0  0  0  0
 31 72  1  0  0  0  0
 31 75  1  0  0  0  0
 32 76  1  0  0  0  0
 32 81  2  0  0  0  0
 33 47  1  0  0  0  0
 33 77  1  0  0  0  0
 33 82  2  0  0  0  0
 34 65  1  0  0  0  0
 34 73  1  0  0  0  0
 34 83  2  0  0  0  0
 35 66  1  0  0  0  0
 35 78  1  0  0  0  0
 35 84  2  0  0  0  0
 36 74  1  0  0  0  0
 36 79  1  0  0  0  0
 36 85  2  0  0  0  0
 37 40  1  0  0  0  0
 38 47  1  0  0  0  0
 39 73  1  0  0  0  0
 40 42  1  0  0  0  0
 41 43  1  0  0  0  0
 41 44  1  0  0  0  0
 42 46  1  0  0  0  0
 43 48  1  0  0  0  0
 44 74  1  0  0  0  0
 45 48  1  0  0  0  0
 45 74  1  0  0  0  0
 46 77  1  0  0  0  0
 47 73  1  0  0  0  0
 48 72  1  0  0  0  0
 49 64  1  0  0  0  0
 50 66  1  0  0  0  0
 51 67  1  0  0  0  0
 52 67  1  0  0  0  0
 53 68  1  0  0  0  0
 54 68  1  0  0  0  0
 55 68  1  0  0  0  0
 56 69  1  0  0  0  0
 57 69  1  0  0  0  0
 58 69  1  0  0  0  0
 59 80  1  0  0  0  0
 60 61  1  0  0  0  0
 60 62  1  0  0  0  0
 61 63  1  0  0  0  0
 62 67  1  0  0  0  0
 63 87  1  0  0  0  0
 64 79  1  0  0  0  0
 65 68  1  0  0  0  0
 65 78  1  0  0  0  0
 66 80  1  0  0  0  0
 69 71  1  0  0  0  0
 70 72  1  0  0  0  0
M  CHG  1  80   1
M  ISO  4  36 100  63 101  79 100  87 101
M  END
> <Batch ID>
0085

> <Smiles>
CNC(C)C(=O)NC(C(=O)N1Cc2cc([101O:1][101CH2:1]CCCC(C)(C)c3cc(C(C)[100NH:0][100C:0](=O)N4CCCC(n5nc(-c6ccc(Oc7ccc(F)cc7F)cc6)c(C(N)=O)c5N)C4)n(C(C)(C)C)c3)ccc2CC1C(=O)NC1CCCc2ccccc21)C(C)(C)C

> <Shape>
0.245

> <Color>
0.057

> <Negative vol penalty>
0.000

$$$$

  -OEChem-04052318563D

 82 90  0     1  0  0  0  0  0999 V2000
  -16.9073  -31.1854   23.7589 C   0  0  0  0  0  0  0  0  0  0  0  0
  -18.0243  -31.6697   23.0858 C   0  0  0  0  0  0  0  0  0  0  0  0
  -27.0744  -17.1476   22.3857 C   0  0  0  0  0  0  0  0  0  0  0  0
  -26.6250  -18.3399   20.3330 C   0  0  0  0  0  0  0  0  0  0  0  0
  -17.0123  -30.0407   24.5480 C   0  0  0  0  0  0  0  0  0  0  0  0
  -19.2474  -31.0102   23.2023 C   0  0  0  0  0  0  0  0  0  0  0  0
  -25.1675  -29.5232   19.4530 C   0  0  0  0  0  0  0  0  0  0  0  0
  -26.2155  -16.1261   21.9804 C   0  0  0  0  0  0  0  0  0  0  0  0
  -25.7661  -17.3183   19.9276 C   0  0  0  0  0  0  0  0  0  0  0  0
  -26.5551  -29.6204   19.5476 C   0  0  0  0  0  0  0  0  0  0  0  0
  -26.3149  -13.4710   19.8890 C   0  0  0  0  0  0  0  0  0  0  0  0
  -26.7477  -12.1556   20.0563 C   0  0  0  0  0  0  0  0  0  0  0  0
  -26.5996  -27.6069   20.8754 C   0  0  0  0  0  0  0  0  0  0  0  0
  -24.8548  -11.7154   21.4917 C   0  0  0  0  0  0  0  0  0  0  0  0
  -30.6094  -25.2326   18.2758 C   0  0  0  0  0  0  0  0  0  0  0  0
  -27.2792  -18.2546   21.5620 C   0  0  0  0  0  0  0  0  0  0  0  0
  -29.5485  -19.4071   21.7337 C   0  0  0  0  0  0  0  0  0  0  0  0
  -18.2351  -29.3614   24.6665 C   0  0  0  0  0  0  0  0  0  0  0  0
  -24.4834  -28.4714   20.0791 C   0  0  0  0  0  0  0  0  0  0  0  0
  -19.3692  -29.8562   23.9948 C   0  0  0  0  0  0  0  0  0  0  0  0
  -25.2035  -27.4972   20.7851 C   0  0  0  0  0  0  0  0  0  0  0  0
  -30.2943  -26.5557   17.9124 C   0  0  0  0  0  0  0  0  0  0  0  0
  -25.5613  -16.2114   20.7514 C   0  0  0  0  0  0  0  0  0  0  0  0
  -27.2711  -28.6638   20.2613 C   0  0  0  0  0  0  0  0  0  0  0  0
  -25.1521  -13.9086   20.5231 C   0  0  0  0  0  0  0  0  0  0  0  0
  -26.0176  -11.2778   20.8576 C   0  0  0  0  0  0  0  0  0  0  0  0
  -24.4220  -13.0308   21.3244 C   0  0  0  0  0  0  0  0  0  0  0  0
  -28.1659  -19.3104   21.9804 C   0  0  0  0  0  0  0  0  0  0  0  0
  -30.7652  -27.3189   18.9527 C   0  0  0  0  0  0  0  0  0  0  0  0
  -29.9229  -20.5842   22.3344 C   0  0  0  0  0  0  0  0  0  0  0  0
  -30.4166  -18.5130   21.0248 C   0  0  0  0  0  0  0  0  0  0  0  0
  -22.2818  -28.2726   22.3633 C   0  0  0  0  0  0  0  0  0  0  0  0
  -22.3080  -25.1263   21.5743 C   0  0  0  0  0  0  0  0  0  0  0  0
  -23.9615  -22.0596   20.6371 C   0  0  0  0  0  0  0  0  0  0  0  0
  -29.0464  -25.9875   23.4209 C   0  0  0  0  0  0  0  0  0  0  0  0
  -18.3109  -28.1552   25.5689 C   0  0  0  0  0  0  0  0  0  0  0  0
  -22.9889  -28.3660   19.9452 C   0  0  0  0  0  0  0  0  0  0  0  0
  -24.5183  -26.3372   21.4584 C   0  0  0  0  0  0  0  0  0  0  0  0
  -19.5551  -27.3008   25.3403 C   0  0  0  0  0  0  0  0  0  0  0  0
  -27.3960  -23.6144   25.4996 C   0  0  0  0  0  0  0  0  0  0  0  0
  -20.7987  -28.1802   25.2571 C   0  0  0  0  0  0  0  0  0  0  0  0
  -27.5578  -22.2930   24.7461 C   0  0  0  0  0  0  0  0  0  0  0  0
  -27.1926  -24.7879   24.5438 C   0  0  0  0  0  0  0  0  0  0  0  0
  -28.3860  -23.5994   22.7446 C   0  0  0  0  0  0  0  0  0  0  0  0
  -20.7075  -29.1544   24.0764 C   0  0  1  0  0  0  0  0  0  0  0  0
  -22.3466  -27.5382   21.0541 C   0  0  1  0  0  0  0  0  0  0  0  0
  -28.6496  -22.3947   23.6641 C   0  0  2  0  0  0  0  0  0  0  0  0
  -29.6127  -27.0127   16.6899 C   0  0  0  0  0  0  0  0  0  0  0  0
  -31.5452  -29.5572   18.1080 C   0  0  0  0  0  0  0  0  0  0  0  0
  -23.0185  -19.8011   20.0829 C   0  0  0  0  0  0  0  0  0  0  0  0
  -22.7964  -24.5191   24.5244 C   0  0  0  0  0  0  0  0  0  0  0  0
  -23.5007  -22.2100   23.8607 C   0  0  0  0  0  0  0  0  0  0  0  0
  -21.1749  -22.9841   23.3979 C   0  0  0  0  0  0  0  0  0  0  0  0
  -25.3328  -22.0021   18.0151 C   0  0  0  0  0  0  0  0  0  0  0  0
  -31.9406  -26.7600   21.1024 C   0  0  0  0  0  0  0  0  0  0  0  0
  -30.9345  -27.0524   22.2125 C   0  0  0  0  0  0  0  0  0  0  0  0
  -29.3121  -29.3697   19.2653 C   0  0  0  0  0  0  0  0  0  1  0  0
  -30.7434  -28.8215   19.1853 C   0  0  1  0  0  0  0  0  0  0  0  0
  -23.0865  -23.9161   22.0307 C   0  0  1  0  0  0  0  0  0  0  0  0
  -23.5538  -21.1105   19.5247 C   0  0  2  0  0  0  0  0  0  0  0  0
  -22.6527  -23.4301   23.4425 C   0  0  0  0  0  0  0  0  0  0  0  0
  -31.2325  -25.1562   19.4548 N   0  0  0  0  0  0  0  0  0  0  0  0
  -27.6940  -20.3435   22.6832 N   0  0  0  0  0  0  0  0  0  0  0  0
  -31.3128  -26.4409   19.8412 N   0  0  0  0  0  0  0  0  0  0  0  0
  -28.7862  -21.1006   22.8833 N   0  0  0  0  0  0  0  0  0  0  0  0
  -23.0553  -26.2814   21.3040 N   0  0  0  0  0  0  0  0  0  0  0  0
  -28.2623  -24.8286   23.5438 N   0  0  0  0  0  0  0  0  0  0  0  0
  -31.1103  -21.2174   22.4414 N   0  0  0  0  0  0  0  0  0  0  0  0
  -29.8679  -17.3490   20.4696 N   0  0  0  0  0  0  0  0  0  0  0  0
  -20.9979  -28.4714   22.8340 N   0  0  0  0  0  0  0  0  0  0  0  0
  -22.9355  -22.9140   20.9813 N   0  0  0  0  0  0  0  0  0  0  0  0
  -30.0424  -25.9402   22.4532 N   0  0  0  0  0  0  0  0  0  0  0  0
  -24.7211  -20.8062   18.6496 N   0  3  0  0  0  0  0  0  0  0  0  0
  -31.6457  -18.7315   20.9018 O   0  0  0  0  0  0  0  0  0  0  0  0
  -23.3199  -28.6309   22.9070 O   0  0  0  0  0  0  0  0  0  0  0  0
  -21.0828  -25.0475   21.4550 O   0  0  0  0  0  0  0  0  0  0  0  0
  -25.0774  -22.0421   21.1521 O   0  0  0  0  0  0  0  0  0  0  0  0
  -28.8752  -26.9882   24.1254 O   0  0  0  0  0  0  0  0  0  0  0  0
  -24.7233  -15.2147   20.3554 O   0  0  0  0  0  0  0  0  0  0  0  0
  -28.6255  -28.7566   20.3557 O   0  0  0  0  0  0  0  0  0  1  0  0
  -26.4325  -10.0142   21.0170 F   0  0  0  0  0  0  0  0  0  0  0  0
  -23.3035  -13.4452   21.9352 F   0  0  0  0  0  0  0  0  0  0  0  0
  1  2  1  0  0  0  0
  1  5  2  0  0  0  0
  2  6  2  0  0  0  0
  3  8  2  0  0  0  0
  3 16  1  0  0  0  0
  4  9  1  0  0  0  0
  4 16  2  0  0  0  0
  5 18  1  0  0  0  0
  6 20  1  0  0  0  0
  7 10  2  0  0  0  0
  7 19  1  0  0  0  0
  8 23  1  0  0  0  0
  9 23  2  0  0  0  0
 10 24  1  0  0  0  0
 11 12  2  0  0  0  0
 11 25  1  0  0  0  0
 12 26  1  0  0  0  0
 13 21  1  0  0  0  0
 13 24  2  0  0  0  0
 14 26  2  0  0  0  0
 14 27  1  0  0  0  0
 15 22  1  0  0  0  0
 15 62  2  0  0  0  0
 16 28  1  0  0  0  0
 17 28  1  0  0  0  0
 17 30  2  0  0  0  0
 17 31  1  0  0  0  0
 18 20  2  0  0  0  0
 18 36  1  0  0  0  0
 19 21  2  0  0  0  0
 19 37  1  0  0  0  0
 20 45  1  0  0  0  0
 21 38  1  0  0  0  0
 22 29  2  0  0  0  0
 22 48  1  0  0  0  0
 23 79  1  0  0  0  0
 24 80  1  0  0  0  0
 25 27  2  0  0  0  0
 25 79  1  0  0  0  0
 26 81  1  0  0  0  0
 27 82  1  0  0  0  0
 28 63  2  0  0  0  0
 29 58  1  0  0  0  0
 29 64  1  0  0  0  0
 30 65  1  0  0  0  0
 30 68  1  0  0  0  0
 31 69  1  0  0  0  0
 31 74  2  0  0  0  0
 32 46  1  0  0  0  0
 32 70  1  0  0  0  0
 32 75  2  0  0  0  0
 33 59  1  0  0  0  0
 33 66  1  0  0  0  0
 33 76  2  0  0  0  0
 34 60  1  0  0  0  0
 34 71  1  0  0  0  0
 34 77  2  0  0  0  0
 35 67  1  0  0  0  0
 35 72  1  0  0  0  0
 35 78  2  0  0  0  0
 36 39  1  0  0  0  0
 37 46  1  0  0  0  0
 38 66  1  0  0  0  0
 39 41  1  0  0  0  0
 40 42  1  0  0  0  0
 40 43  1  0  0  0  0
 41 45  1  0  0  0  0
 42 47  1  0  0  0  0
 43 67  1  0  0  0  0
 44 47  1  0  0  0  0
 44 67  1  0  0  0  0
 45 70  1  0  0  0  0
 46 66  1  0  0  0  0
 47 65  1  0  0  0  0
 49 58  1  0  0  0  0
 50 60  1  0  0  0  0
 51 61  1  0  0  0  0
 52 61  1  0  0  0  0
 53 61  1  0  0  0  0
 54 73  1  0  0  0  0
 55 56  1  0  0  0  0
 55 64  1  0  0  0  0
 56 72  1  0  0  0  0
 57 58  1  0  0  0  0
 57 80  1  0  0  0  0
 59 61  1  0  0  0  0
 59 71  1  0  0  0  0
 60 73  1  0  0  0  0
 62 64  1  0  0  0  0
 63 65  1  0  0  0  0
M  CHG  1  73   1
M  ISO  4  35 100  57 101  72 100  80 101
M  END
> <Batch ID>
0085

> <Smiles>
CNC(C)C(=O)NC(C(=O)N1Cc2cc([101O:1][101CH2:1]C(C)c3c(C)cnn3CC[100NH:0][100C:0](=O)N3CCCC(n4nc(-c5ccc(Oc6ccc(F)cc6F)cc5)c(C(N)=O)c4N)C3)ccc2CC1C(=O)NC1CCCc2ccccc21)C(C)(C)C

> <Shape>
0.202

> <Color>
0.089

> <Negative vol penalty>
0.000

$$$$

  -OEChem-04052318563D

 87 95  0     1  0  0  0  0  0999 V2000
  -20.1993  -22.3427   20.8994 C   0  0  0  0  0  0  0  0  0  0  0  0
  -21.4941  -22.3317   20.3907 C   0  0  0  0  0  0  0  0  0  0  0  0
  -22.9836  -29.7958   20.0645 C   0  0  0  0  0  0  0  0  0  0  0  0
  -23.1113  -28.7056   22.2168 C   0  0  0  0  0  0  0  0  0  0  0  0
  -19.8287  -21.4227   21.8794 C   0  0  0  0  0  0  0  0  0  0  0  0
  -22.4195  -21.4013   20.8626 C   0  0  0  0  0  0  0  0  0  0  0  0
  -28.0340  -17.5176   18.6923 C   0  0  0  0  0  0  0  0  0  0  0  0
  -21.7871  -30.4043   20.4437 C   0  0  0  0  0  0  0  0  0  0  0  0
  -21.9148  -29.3142   22.5960 C   0  0  0  0  0  0  0  0  0  0  0  0
  -29.3546  -17.2428   19.0452 C   0  0  0  0  0  0  0  0  0  0  0  0
  -18.6081  -28.8578   22.0590 C   0  0  0  0  0  0  0  0  0  0  0  0
  -17.6511  -28.0661   22.6938 C   0  0  0  0  0  0  0  0  0  0  0  0
  -28.5793  -15.6501   20.6827 C   0  0  0  0  0  0  0  0  0  0  0  0
  -29.8653  -17.7244   24.2270 C   0  0  0  0  0  0  0  0  0  0  0  0
  -17.7495  -29.5026   24.6339 C   0  0  0  0  0  0  0  0  0  0  0  0
  -28.4015  -19.3193   23.6078 C   0  0  0  0  0  0  0  0  0  0  0  0
  -23.6456  -28.9464   20.9510 C   0  0  0  0  0  0  0  0  0  0  0  0
  -26.1845  -28.8193   20.7370 C   0  0  0  0  0  0  0  0  0  0  0  0
  -20.7472  -20.4744   22.3565 C   0  0  0  0  0  0  0  0  0  0  0  0
  -26.9741  -16.8676   19.3407 C   0  0  0  0  0  0  0  0  0  0  0  0
  -22.0612  -20.4687   21.8508 C   0  0  0  0  0  0  0  0  0  0  0  0
  -27.2463  -15.9165   20.3344 C   0  0  0  0  0  0  0  0  0  0  0  0
  -28.6274  -18.3356   24.5451 C   0  0  0  0  0  0  0  0  0  0  0  0
  -21.2527  -30.1635   21.7094 C   0  0  0  0  0  0  0  0  0  0  0  0
  -29.6273  -16.3111   20.0425 C   0  0  0  0  0  0  0  0  0  0  0  0
  -19.1359  -29.9719   22.7117 C   0  0  0  0  0  0  0  0  0  0  0  0
  -17.2218  -28.3885   23.9812 C   0  0  0  0  0  0  0  0  0  0  0  0
  -18.7066  -30.2943   23.9991 C   0  0  0  0  0  0  0  0  0  0  0  0
  -24.8813  -28.3171   20.5597 C   0  0  0  0  0  0  0  0  0  0  0  0
  -30.3582  -18.3533   23.1050 C   0  0  0  0  0  0  0  0  0  0  0  0
  -27.0005  -27.8536   20.2004 C   0  0  0  0  0  0  0  0  0  0  0  0
  -26.6185  -30.0487   21.3335 C   0  0  0  0  0  0  0  0  0  0  0  0
  -24.5263  -17.8106   21.1359 C   0  0  0  0  0  0  0  0  0  0  0  0
  -23.6725  -14.6883   20.9245 C   0  0  0  0  0  0  0  0  0  0  0  0
  -24.6267  -11.4522   20.4105 C   0  0  0  0  0  0  0  0  0  0  0  0
  -28.4198  -22.4965   19.5427 C   0  0  0  0  0  0  0  0  0  0  0  0
  -20.3142  -19.5307   23.4504 C   0  0  0  0  0  0  0  0  0  0  0  0
  -25.5561  -17.1555   18.9299 C   0  0  0  0  0  0  0  0  0  0  0  0
  -26.1448  -15.1764   21.0468 C   0  0  0  0  0  0  0  0  0  0  0  0
  -21.2461  -18.3347   23.6274 C   0  0  0  0  0  0  0  0  0  0  0  0
  -25.8917  -23.7922   17.3964 C   0  0  0  0  0  0  0  0  0  0  0  0
  -22.7018  -18.7902   23.6446 C   0  0  0  0  0  0  0  0  0  0  0  0
  -25.5070  -25.1226   18.0460 C   0  0  0  0  0  0  0  0  0  0  0  0
  -26.2128  -22.7260   18.4414 C   0  0  0  0  0  0  0  0  0  0  0  0
  -26.8433  -24.4500   20.0857 C   0  0  0  0  0  0  0  0  0  0  0  0
  -23.0864  -19.4589   22.3194 C   0  0  1  0  0  0  0  0  0  0  0  0
  -24.5386  -16.8118   20.0134 C   0  0  1  0  0  0  0  0  0  0  0  0
  -26.5648  -25.5726   19.0715 C   0  0  2  0  0  0  0  0  0  0  0  0
  -23.7116   -9.1167   20.3366 C   0  0  0  0  0  0  0  0  0  0  0  0
  -31.7415  -14.2427   21.7464 C   0  0  0  0  0  0  0  0  0  0  0  0
  -28.4601  -18.1612   27.0526 C   0  0  0  0  0  0  0  0  0  0  0  0
  -27.2640  -16.4948   25.5936 C   0  0  0  0  0  0  0  0  0  0  0  0
  -26.4200  -18.8247   25.7957 C   0  0  0  0  0  0  0  0  0  0  0  0
  -23.5302  -14.6504   23.9721 C   0  0  0  0  0  0  0  0  0  0  0  0
  -23.5588  -12.1488   23.8728 C   0  0  0  0  0  0  0  0  0  0  0  0
  -21.6819  -13.4155   22.8260 C   0  0  0  0  0  0  0  0  0  0  0  0
  -25.4284  -11.1033   17.5830 C   0  0  0  0  0  0  0  0  0  0  0  0
  -31.6337  -18.1068   22.3395 C   0  0  0  0  0  0  0  0  0  0  0  0
  -32.1165  -16.6500   22.3933 C   0  0  0  0  0  0  0  0  0  0  0  0
  -30.5331  -21.4015   21.8619 C   0  0  0  0  0  0  0  0  0  0  0  0
  -29.5927  -20.2156   21.6084 C   0  0  0  0  0  0  0  0  0  0  0  0
  -30.6039  -22.4109   20.7180 C   0  0  0  0  0  0  0  0  0  0  0  0
  -23.9601  -13.4444   21.7301 C   0  0  1  0  0  0  0  0  0  0  0  0
  -24.0494  -10.3599   19.5284 C   0  0  2  0  0  0  0  0  0  0  0  0
  -31.1556  -15.6490   21.7400 C   0  0  1  0  0  0  0  0  0  1  0  0
  -27.7424  -17.9841   25.6719 C   0  0  0  0  0  0  0  0  0  0  0  0
  -23.2037  -13.4300   23.0884 C   0  0  0  0  0  0  0  0  0  0  0  0
  -24.8656  -27.1251   19.9574 N   0  0  0  0  0  0  0  0  0  0  0  0
  -29.4603  -19.3213   22.7376 N   0  0  0  0  0  0  0  0  0  0  0  0
  -26.1689  -26.8702   19.7515 N   0  0  0  0  0  0  0  0  0  0  0  0
  -24.7747  -15.4974   20.6140 N   0  0  0  0  0  0  0  0  0  0  0  0
  -27.2235  -23.2150   19.3822 N   0  0  0  0  0  0  0  0  0  0  0  0
  -28.3411  -27.7583   20.0734 N   0  0  0  0  0  0  0  0  0  0  0  0
  -25.6483  -30.9270   21.8351 N   0  0  0  0  0  0  0  0  0  0  0  0
  -23.3175  -18.4603   21.2977 N   0  0  0  0  0  0  0  0  0  0  0  0
  -23.6495  -12.3144   20.8611 N   0  0  0  0  0  0  0  0  0  0  0  0
  -29.3264  -23.0324   20.4492 N   0  0  0  0  0  0  0  0  0  0  0  0
  -25.0256   -9.9803   18.4682 N   0  3  0  0  0  0  0  0  0  0  0  0
  -27.8299  -30.3667   21.4044 O   0  0  0  0  0  0  0  0  0  0  0  0
  -25.5381  -17.9783   21.8065 O   0  0  0  0  0  0  0  0  0  0  0  0
  -22.5137  -14.9294   20.5772 O   0  0  0  0  0  0  0  0  0  0  0  0
  -25.8240  -11.5305   20.6763 O   0  0  0  0  0  0  0  0  0  0  0  0
  -28.6642  -21.4574   18.9202 O   0  0  0  0  0  0  0  0  0  0  0  0
  -20.0853  -30.7573   22.0799 O   0  0  0  0  0  0  0  0  0  0  0  0
  -30.9152  -16.0414   20.3893 O   0  0  0  0  0  0  0  0  0  1  0  0
  -16.3016  -27.6290   24.5900 F   0  0  0  0  0  0  0  0  0  0  0  0
  -19.2091  -31.3640   24.6307 F   0  0  0  0  0  0  0  0  0  0  0  0
  1  2  1  0  0  0  0
  1  5  2  0  0  0  0
  2  6  2  0  0  0  0
  3  8  2  0  0  0  0
  3 17  1  0  0  0  0
  4  9  1  0  0  0  0
  4 17  2  0  0  0  0
  5 19  1  0  0  0  0
  6 21  1  0  0  0  0
  7 10  2  0  0  0  0
  7 20  1  0  0  0  0
  8 24  1  0  0  0  0
  9 24  2  0  0  0  0
 10 25  1  0  0  0  0
 11 12  2  0  0  0  0
 11 26  1  0  0  0  0
 12 27  1  0  0  0  0
 13 22  1  0  0  0  0
 13 25  2  0  0  0  0
 14 23  1  0  0  0  0
 14 30  2  0  0  0  0
 15 27  2  0  0  0  0
 15 28  1  0  0  0  0
 16 23  2  0  0  0  0
 16 69  1  0  0  0  0
 17 29  1  0  0  0  0
 18 29  1  0  0  0  0
 18 31  2  0  0  0  0
 18 32  1  0  0  0  0
 19 21  2  0  0  0  0
 19 37  1  0  0  0  0
 20 22  2  0  0  0  0
 20 38  1  0  0  0  0
 21 46  1  0  0  0  0
 22 39  1  0  0  0  0
 23 66  1  0  0  0  0
 24 84  1  0  0  0  0
 25 85  1  0  0  0  0
 26 28  2  0  0  0  0
 26 84  1  0  0  0  0
 27 86  1  0  0  0  0
 28 87  1  0  0  0  0
 29 68  2  0  0  0  0
 30 58  1  0  0  0  0
 30 69  1  0  0  0  0
 31 70  1  0  0  0  0
 31 73  1  0  0  0  0
 32 74  1  0  0  0  0
 32 79  2  0  0  0  0
 33 47  1  0  0  0  0
 33 75  1  0  0  0  0
 33 80  2  0  0  0  0
 34 63  1  0  0  0  0
 34 71  1  0  0  0  0
 34 81  2  0  0  0  0
 35 64  1  0  0  0  0
 35 76  1  0  0  0  0
 35 82  2  0  0  0  0
 36 72  1  0  0  0  0
 36 77  1  0  0  0  0
 36 83  2  0  0  0  0
 37 40  1  0  0  0  0
 38 47  1  0  0  0  0
 39 71  1  0  0  0  0
 40 42  1  0  0  0  0
 41 43  1  0  0  0  0
 41 44  1  0  0  0  0
 42 46  1  0  0  0  0
 43 48  1  0  0  0  0
 44 72  1  0  0  0  0
 45 48  1  0  0  0  0
 45 72  1  0  0  0  0
 46 75  1  0  0  0  0
 47 71  1  0  0  0  0
 48 70  1  0  0  0  0
 49 64  1  0  0  0  0
 50 65  1  0  0  0  0
 51 66  1  0  0  0  0
 52 66  1  0  0  0  0
 53 66  1  0  0  0  0
 54 67  1  0  0  0  0
 55 67  1  0  0  0  0
 56 67  1  0  0  0  0
 57 78  1  0  0  0  0
 58 59  1  0  0  0  0
 59 65  1  0  0  0  0
 60 61  1  0  0  0  0
 60 62  1  0  0  0  0
 61 69  1  0  0  0  0
 62 77  1  0  0  0  0
 63 67  1  0  0  0  0
 63 76  1  0  0  0  0
 64 78  1  0  0  0  0
 65 85  1  0  0  0  0
 68 70  1  0  0  0  0
M  CHG  1  78   1
M  ISO  4  36 100  65 101  77 100  85 101
M  END
> <Batch ID>
0085

> <Smiles>
CNC(C)C(=O)NC(C(=O)N1Cc2cc([101O:1][101CH:1](C)CCc3cc(C(C)(C)C)cn3CCC[100NH:0][100C:0](=O)N3CCCC(n4nc(-c5ccc(Oc6ccc(F)cc6F)cc5)c(C(N)=O)c4N)C3)ccc2CC1C(=O)NC1CCCc2ccccc21)C(C)(C)C

> <Shape>
0.241

> <Color>
0.080

> <Negative vol penalty>
0.000

$$$$

  -OEChem-04052318563D

 89 97  0     1  0  0  0  0  0999 V2000
  -29.3365  -10.4768   16.8866 C   0  0  0  0  0  0  0  0  0  0  0  0
  -28.6149  -11.4287   16.1734 C   0  0  0  0  0  0  0  0  0  0  0  0
  -25.7520  -28.9698   21.5212 C   0  0  0  0  0  0  0  0  0  0  0  0
  -23.6013  -29.2409   20.4544 C   0  0  0  0  0  0  0  0  0  0  0  0
  -29.6224  -10.6867   18.2349 C   0  0  0  0  0  0  0  0  0  0  0  0
  -28.1777  -12.5906   16.8085 C   0  0  0  0  0  0  0  0  0  0  0  0
  -27.7014  -18.1768   14.3441 C   0  0  0  0  0  0  0  0  0  0  0  0
  -25.4736  -30.0510   22.3573 C   0  0  0  0  0  0  0  0  0  0  0  0
  -23.3229  -30.3220   21.2906 C   0  0  0  0  0  0  0  0  0  0  0  0
  -26.6189  -18.8811   13.8189 C   0  0  0  0  0  0  0  0  0  0  0  0
  -25.4967  -33.4249   22.1566 C   0  0  0  0  0  0  0  0  0  0  0  0
  -26.5027  -34.3724   22.3463 C   0  0  0  0  0  0  0  0  0  0  0  0
  -26.3189  -19.9899   15.9402 C   0  0  0  0  0  0  0  0  0  0  0  0
  -26.4853  -33.9157   24.7188 C   0  0  0  0  0  0  0  0  0  0  0  0
  -28.0260  -22.9110   10.9664 C   0  0  0  0  0  0  0  0  0  0  0  0
  -24.8159  -28.5647   20.5697 C   0  0  0  0  0  0  0  0  0  0  0  0
  -24.8134  -26.0916   19.9443 C   0  0  0  0  0  0  0  0  0  0  0  0
  -29.1969  -11.8562   18.8844 C   0  0  0  0  0  0  0  0  0  0  0  0
  -28.0947  -18.3660   15.6767 C   0  0  0  0  0  0  0  0  0  0  0  0
  -28.4571  -12.8157   18.1672 C   0  0  0  0  0  0  0  0  0  0  0  0
  -27.4084  -19.2887   16.4791 C   0  0  0  0  0  0  0  0  0  0  0  0
  -28.4906  -23.3237    9.7372 C   0  0  0  0  0  0  0  0  0  0  0  0
  -27.6801  -24.4086    9.3210 C   0  0  0  0  0  0  0  0  0  0  0  0
  -24.2590  -30.7271   22.2420 C   0  0  0  0  0  0  0  0  0  0  0  0
  -25.9256  -19.7857   14.6178 C   0  0  0  0  0  0  0  0  0  0  0  0
  -24.9850  -32.7229   23.2480 C   0  0  0  0  0  0  0  0  0  0  0  0
  -26.9970  -34.6178   23.6274 C   0  0  0  0  0  0  0  0  0  0  0  0
  -25.4794  -32.9683   24.5290 C   0  0  0  0  0  0  0  0  0  0  0  0
  -25.1032  -27.4483   19.7053 C   0  0  0  0  0  0  0  0  0  0  0  0
  -26.7449  -24.6259   10.3087 C   0  0  0  0  0  0  0  0  0  0  0  0
  -25.2826  -25.4389   18.8306 C   0  0  0  0  0  0  0  0  0  0  0  0
  -24.1769  -25.4763   21.0721 C   0  0  0  0  0  0  0  0  0  0  0  0
  -28.2771  -16.5054   18.2474 C   0  0  0  0  0  0  0  0  0  0  0  0
  -29.6605  -19.1264   19.5662 C   0  0  0  0  0  0  0  0  0  0  0  0
  -30.0623  -22.5153   19.5358 C   0  0  0  0  0  0  0  0  0  0  0  0
  -26.0904  -27.2379   13.2658 C   0  0  0  0  0  0  0  0  0  0  0  0
  -29.4891  -12.0170   20.3553 C   0  0  0  0  0  0  0  0  0  0  0  0
  -29.2812  -17.6183   16.2203 C   0  0  0  0  0  0  0  0  0  0  0  0
  -27.8033  -19.5432   17.9101 C   0  0  0  0  0  0  0  0  0  0  0  0
  -29.3129  -13.4474   20.8585 C   0  0  0  0  0  0  0  0  0  0  0  0
  -28.6157  -25.7857   15.4133 C   0  0  0  0  0  0  0  0  0  0  0  0
  -28.0019  -14.0357   20.3466 C   0  0  0  0  0  0  0  0  0  0  0  0
  -27.9608  -25.9232   16.7889 C   0  0  0  0  0  0  0  0  0  0  0  0
  -28.3104  -26.9937   14.5325 C   0  0  0  0  0  0  0  0  0  0  0  0
  -26.2016  -27.4181   15.7352 C   0  0  0  0  0  0  0  0  0  0  0  0
  -27.9871  -14.1002   18.8146 C   0  0  1  0  0  0  0  0  0  0  0  0
  -29.2734  -17.5102   17.7420 C   0  0  1  0  0  0  0  0  0  0  0  0
  -26.4541  -26.2176   16.6653 C   0  0  2  0  0  0  0  0  0  0  0  0
  -29.6256  -22.7353    8.9984 C   0  0  0  0  0  0  0  0  0  0  0  0
  -31.2238  -24.3723   20.7604 C   0  0  0  0  0  0  0  0  0  0  0  0
  -26.2821  -23.6486    6.6958 C   0  0  0  0  0  0  0  0  0  0  0  0
  -27.8696  -25.1859    5.5211 C   0  0  0  0  0  0  0  0  0  0  0  0
  -27.6082  -18.9238   21.8150 C   0  0  0  0  0  0  0  0  0  0  0  0
  -28.1863  -21.2729   22.4600 C   0  0  0  0  0  0  0  0  0  0  0  0
  -29.9261  -19.4884   22.5656 C   0  0  0  0  0  0  0  0  0  0  0  0
  -23.6928  -24.0725   14.2260 C   0  0  0  0  0  0  0  0  0  0  0  0
  -22.5785  -22.0759   13.2208 C   0  0  0  0  0  0  0  0  0  0  0  0
  -31.5953  -23.2998   17.1289 C   0  0  0  0  0  0  0  0  0  0  0  0
  -27.8113  -25.1683    8.0606 C   0  0  0  0  0  0  0  0  0  0  0  0
  -25.6604  -25.6270   10.3919 C   0  0  0  0  0  0  0  0  0  0  0  0
  -24.8266  -22.8867   12.3386 C   0  0  0  0  0  0  0  0  0  0  0  0
  -26.1716  -23.5840   12.5822 C   0  0  0  0  0  0  0  0  0  0  0  0
  -26.1353  -27.0345   10.7933 C   0  0  0  0  0  0  0  0  0  0  0  0
  -24.6168  -21.7711   14.6469 C   0  0  0  0  0  0  0  0  0  1  0  0
  -29.1586  -20.3392   20.3120 C   0  0  1  0  0  0  0  0  0  0  0  0
  -31.3058  -23.3829   19.6084 C   0  0  2  0  0  0  0  0  0  0  0  0
  -27.6550  -24.3218    6.7663 C   0  0  0  0  0  0  0  0  0  0  0  0
  -28.7109  -20.0001   21.7618 C   0  0  0  0  0  0  0  0  0  0  0  0
  -23.9411  -22.6828   13.6002 C   0  0  0  0  0  0  0  0  0  0  0  0
  -25.7097  -27.6471   18.5320 N   0  0  0  0  0  0  0  0  0  0  0  0
  -26.9649  -23.7099   11.3041 N   0  0  0  0  0  0  0  0  0  0  0  0
  -25.8049  -26.4067   18.0238 N   0  0  0  0  0  0  0  0  0  0  0  0
  -28.9662  -18.7831   18.3975 N   0  0  0  0  0  0  0  0  0  0  0  0
  -26.8593  -27.2080   14.4411 N   0  0  0  0  0  0  0  0  0  0  0  0
  -25.2954  -24.1374   18.4726 N   0  0  0  0  0  0  0  0  0  0  0  0
  -23.7561  -26.2938   22.1300 N   0  0  0  0  0  0  0  0  0  0  0  0
  -28.7756  -15.2206   18.3483 N   0  0  0  0  0  0  0  0  0  0  0  0
  -30.2209  -21.3359   20.2324 N   0  0  0  0  0  0  0  0  0  0  0  0
  -26.7904  -27.0372   12.0824 N   0  0  0  0  0  0  0  0  0  0  0  0
  -31.4774  -24.1493   18.3419 N   0  3  0  0  0  0  0  0  0  0  0  0
  -24.0018  -24.2365   21.1472 O   0  0  0  0  0  0  0  0  0  0  0  0
  -27.1407  -16.8692   18.5267 O   0  0  0  0  0  0  0  0  0  0  0  0
  -30.6371  -18.5107   20.0006 O   0  0  0  0  0  0  0  0  0  0  0  0
  -29.0499  -22.8519   18.9256 O   0  0  0  0  0  0  0  0  0  0  0  0
  -24.8688  -27.4243   13.2709 O   0  0  0  0  0  0  0  0  0  0  0  0
  -23.9869  -31.7820   23.0579 O   0  0  0  0  0  0  0  0  0  0  0  0
  -24.8682  -20.4740   14.1079 O   0  0  0  0  0  0  0  0  0  1  0  0
  -27.9641  -35.5266   23.8092 F   0  0  0  0  0  0  0  0  0  0  0  0
  -24.9926  -32.2961   25.5812 F   0  0  0  0  0  0  0  0  0  0  0  0
  1  2  1  0  0  0  0
  1  5  2  0  0  0  0
  2  6  2  0  0  0  0
  3  8  2  0  0  0  0
  3 16  1  0  0  0  0
  4  9  1  0  0  0  0
  4 16  2  0  0  0  0
  5 18  1  0  0  0  0
  6 20  1  0  0  0  0
  7 10  2  0  0  0  0
  7 19  1  0  0  0  0
  8 24  1  0  0  0  0
  9 24  2  0  0  0  0
 10 25  1  0  0  0  0
 11 12  2  0  0  0  0
 11 26  1  0  0  0  0
 12 27  1  0  0  0  0
 13 21  1  0  0  0  0
 13 25  2  0  0  0  0
 14 27  2  0  0  0  0
 14 28  1  0  0  0  0
 15 22  2  0  0  0  0
 15 71  1  0  0  0  0
 16 29  1  0  0  0  0
 17 29  1  0  0  0  0
 17 31  2  0  0  0  0
 17 32  1  0  0  0  0
 18 20  2  0  0  0  0
 18 37  1  0  0  0  0
 19 21  2  0  0  0  0
 19 38  1  0  0  0  0
 20 46  1  0  0  0  0
 21 39  1  0  0  0  0
 22 23  1  0  0  0  0
 22 49  1  0  0  0  0
 23 30  2  0  0  0  0
 23 59  1  0  0  0  0
 24 86  1  0  0  0  0
 25 87  1  0  0  0  0
 26 28  2  0  0  0  0
 26 86  1  0  0  0  0
 27 88  1  0  0  0  0
 28 89  1  0  0  0  0
 29 70  2  0  0  0  0
 30 60  1  0  0  0  0
 30 71  1  0  0  0  0
 31 72  1  0  0  0  0
 31 75  1  0  0  0  0
 32 76  1  0  0  0  0
 32 81  2  0  0  0  0
 33 47  1  0  0  0  0
 33 77  1  0  0  0  0
 33 82  2  0  0  0  0
 34 65  1  0  0  0  0
 34 73  1  0  0  0  0
 34 83  2  0  0  0  0
 35 66  1  0  0  0  0
 35 78  1  0  0  0  0
 35 84  2  0  0  0  0
 36 74  1  0  0  0  0
 36 79  1  0  0  0  0
 36 85  2  0  0  0  0
 37 40  1  0  0  0  0
 38 47  1  0  0  0  0
 39 73  1  0  0  0  0
 40 42  1  0  0  0  0
 41 43  1  0  0  0  0
 41 44  1  0  0  0  0
 42 46  1  0  0  0  0
 43 48  1  0  0  0  0
 44 74  1  0  0  0  0
 45 48  1  0  0  0  0
 45 74  1  0  0  0  0
 46 77  1  0  0  0  0
 47 73  1  0  0  0  0
 48 72  1  0  0  0  0
 50 66  1  0  0  0  0
 51 67  1  0  0  0  0
 52 67  1  0  0  0  0
 53 68  1  0  0  0  0
 54 68  1  0  0  0  0
 55 68  1  0  0  0  0
 56 69  1  0  0  0  0
 57 69  1  0  0  0  0
 58 80  1  0  0  0  0
 59 67  1  0  0  0  0
 60 63  1  0  0  0  0
 61 62  1  0  0  0  0
 61 69  1  0  0  0  0
 62 71  1  0  0  0  0
 63 79  1  0  0  0  0
 64 69  1  0  0  0  0
 64 87  1  0  0  0  0
 65 68  1  0  0  0  0
 65 78  1  0  0  0  0
 66 80  1  0  0  0  0
 70 72  1  0  0  0  0
M  CHG  1  80   1
M  ISO  4  36 100  64 101  79 100  87 101
M  END
> <Batch ID>
0085

> <Smiles>
CNC(C)C(=O)NC(C(=O)N1Cc2cc([101O:1][101CH2:1]C(C)(C)CCn3cc(C)c(CC(C)C)c3CC[100NH:0][100C:0](=O)N3CCCC(n4nc(-c5ccc(Oc6ccc(F)cc6F)cc5)c(C(N)=O)c4N)C3)ccc2CC1C(=O)NC1CCCc2ccccc21)C(C)(C)C

> <Shape>
0.199

> <Color>
0.064

> <Negative vol penalty>
0.000

$$$$

  -OEChem-04052318563D

 89 97  0     1  0  0  0  0  0999 V2000
  -34.4795  -29.3346   18.3391 C   0  0  0  0  0  0  0  0  0  0  0  0
  -33.2603  -28.6968   18.1337 C   0  0  0  0  0  0  0  0  0  0  0  0
  -23.3588  -10.0230   22.2712 C   0  0  0  0  0  0  0  0  0  0  0  0
  -24.0502   -9.3708   20.0500 C   0  0  0  0  0  0  0  0  0  0  0  0
  -34.7515  -29.9374   19.5666 C   0  0  0  0  0  0  0  0  0  0  0  0
  -32.3127  -28.6606   19.1561 C   0  0  0  0  0  0  0  0  0  0  0  0
  -26.2231  -28.8684   18.5405 C   0  0  0  0  0  0  0  0  0  0  0  0
  -22.5011   -8.9245   22.3268 C   0  0  0  0  0  0  0  0  0  0  0  0
  -23.1925   -8.2722   20.1056 C   0  0  0  0  0  0  0  0  0  0  0  0
  -25.2462  -27.8737   18.5368 C   0  0  0  0  0  0  0  0  0  0  0  0
  -22.7452   -5.5997   22.8918 C   0  0  0  0  0  0  0  0  0  0  0  0
  -22.7400   -4.8400   24.0616 C   0  0  0  0  0  0  0  0  0  0  0  0
  -24.8407  -28.2717   20.8812 C   0  0  0  0  0  0  0  0  0  0  0  0
  -26.1430  -24.3721   21.1029 C   0  0  0  0  0  0  0  0  0  0  0  0
  -27.8861  -22.8018   20.5261 C   0  0  0  0  0  0  0  0  0  0  0  0
  -20.3936   -5.3277   24.3679 C   0  0  0  0  0  0  0  0  0  0  0  0
  -24.1333  -10.2462   21.1327 C   0  0  0  0  0  0  0  0  0  0  0  0
  -26.3664  -11.4297   21.4794 C   0  0  0  0  0  0  0  0  0  0  0  0
  -33.8030  -29.9169   20.6012 C   0  0  0  0  0  0  0  0  0  0  0  0
  -26.5242  -29.5659   19.7191 C   0  0  0  0  0  0  0  0  0  0  0  0
  -32.5728  -29.2625   20.3989 C   0  0  0  0  0  0  0  0  0  0  0  0
  -25.8200  -29.2766   20.8966 C   0  0  0  0  0  0  0  0  0  0  0  0
  -27.4956  -24.0367   21.0440 C   0  0  0  0  0  0  0  0  0  0  0  0
  -25.1807  -23.4726   20.6439 C   0  0  0  0  0  0  0  0  0  0  0  0
  -26.9238  -21.9023   20.0671 C   0  0  0  0  0  0  0  0  0  0  0  0
  -25.5712  -22.2377   20.1260 C   0  0  0  0  0  0  0  0  0  0  0  0
  -22.4179   -8.0490   21.2441 C   0  0  0  0  0  0  0  0  0  0  0  0
  -24.5568  -27.5732   19.7080 C   0  0  0  0  0  0  0  0  0  0  0  0
  -21.5747   -6.2235   22.4601 C   0  0  0  0  0  0  0  0  0  0  0  0
  -21.5642   -4.7039   24.7996 C   0  0  0  0  0  0  0  0  0  0  0  0
  -20.3989   -6.0875   23.1981 C   0  0  0  0  0  0  0  0  0  0  0  0
  -25.0190  -11.3812   21.0744 C   0  0  0  0  0  0  0  0  0  0  0  0
  -26.7565  -12.7209   21.2207 C   0  0  0  0  0  0  0  0  0  0  0  0
  -27.1917  -10.3995   22.0392 C   0  0  0  0  0  0  0  0  0  0  0  0
  -29.1132  -29.8899   21.5347 C   0  0  0  0  0  0  0  0  0  0  0  0
  -27.2655  -32.0445   23.1051 C   0  0  0  0  0  0  0  0  0  0  0  0
  -24.1328  -33.1398   23.9012 C   0  0  0  0  0  0  0  0  0  0  0  0
  -27.0274  -17.0895   18.0897 C   0  0  0  0  0  0  0  0  0  0  0  0
  -34.1609  -30.5412   21.9267 C   0  0  0  0  0  0  0  0  0  0  0  0
  -27.5620  -30.6545   19.7002 C   0  0  0  0  0  0  0  0  0  0  0  0
  -26.0914  -30.0104   22.1836 C   0  0  0  0  0  0  0  0  0  0  0  0
  -32.9554  -30.7828   22.8315 C   0  0  0  0  0  0  0  0  0  0  0  0
  -24.0565  -16.8021   19.9773 C   0  0  0  0  0  0  0  0  0  0  0  0
  -32.0602  -29.5483   22.8690 C   0  0  0  0  0  0  0  0  0  0  0  0
  -24.1451  -15.3559   20.4626 C   0  0  0  0  0  0  0  0  0  0  0  0
  -24.5318  -16.9530   18.5310 C   0  0  0  0  0  0  0  0  0  0  0  0
  -25.9720  -14.9553   18.7704 C   0  0  0  0  0  0  0  0  0  0  0  0
  -31.5096  -29.2235   21.4751 C   0  0  1  0  0  0  0  0  0  0  0  0
  -28.1470  -30.9464   21.0786 C   0  0  1  0  0  0  0  0  0  0  0  0
  -25.5569  -14.7864   20.2400 C   0  0  2  0  0  0  0  0  0  0  0  0
  -28.5243  -24.9981   21.5354 C   0  0  0  0  0  0  0  0  0  0  0  0
  -24.5393  -21.2736   19.6335 C   0  0  0  0  0  0  0  0  0  0  0  0
  -28.4346  -19.8610   21.7474 C   0  0  0  0  0  0  0  0  0  0  0  0
  -22.9412  -34.9009   25.2337 C   0  0  0  0  0  0  0  0  0  0  0  0
  -28.6041  -21.6802   17.5003 C   0  0  0  0  0  0  0  0  0  0  0  0
  -27.8893  -30.5199   25.6734 C   0  0  0  0  0  0  0  0  0  0  0  0
  -25.9712  -31.7058   26.7609 C   0  0  0  0  0  0  0  0  0  0  0  0
  -27.9180  -33.0098   25.9053 C   0  0  0  0  0  0  0  0  0  0  0  0
  -25.8350  -18.5291   16.3836 C   0  0  0  0  0  0  0  0  0  0  0  0
  -22.8415  -34.2591   21.4848 C   0  0  0  0  0  0  0  0  0  0  0  0
  -23.7254  -23.8601   20.7177 C   0  0  0  0  0  0  0  0  0  0  0  0
  -28.6405  -20.0504   20.2471 C   0  0  0  0  0  0  0  0  0  0  0  0
  -23.1293  -24.2746   19.3707 C   0  0  0  0  0  0  0  0  0  0  0  0
  -27.9761  -19.2499   17.3746 C   0  0  0  0  0  0  0  0  0  0  0  0
  -23.7726  -25.5264   18.7853 C   0  0  0  0  0  0  0  0  0  1  0  0
  -27.3680  -20.5863   19.5169 C   0  0  2  0  0  0  0  0  0  0  0  0
  -26.2965  -31.9807   24.2609 C   0  0  1  0  0  0  0  0  0  0  0  0
  -23.5135  -34.5255   23.8757 C   0  0  2  0  0  0  0  0  0  0  0  0
  -27.5812  -20.6264   17.9529 C   0  0  1  0  0  0  0  0  0  0  0  0
  -27.0147  -31.7887   25.6265 C   0  0  0  0  0  0  0  0  0  0  0  0
  -24.5824  -12.5489   20.5950 N   0  0  0  0  0  0  0  0  0  0  0  0
  -25.6615  -13.3433   20.6972 N   0  0  0  0  0  0  0  0  0  0  0  0
  -27.1197  -31.0619   22.1157 N   0  0  0  0  0  0  0  0  0  0  0  0
  -25.8617  -16.3547   18.3517 N   0  0  0  0  0  0  0  0  0  0  0  0
  -27.9258  -13.3734   21.3922 N   0  0  0  0  0  0  0  0  0  0  0  0
  -26.6324   -9.1300   22.2388 N   0  0  0  0  0  0  0  0  0  0  0  0
  -30.4189  -30.1145   21.1423 N   0  0  0  0  0  0  0  0  0  0  0  0
  -25.4826  -33.1887   24.1785 N   0  0  0  0  0  0  0  0  0  0  0  0
  -26.8844  -18.2863   17.3716 N   0  0  0  0  0  0  0  0  0  0  0  0
  -22.4149  -34.5835   22.8704 N   0  3  0  0  0  0  0  0  0  0  0  0
  -28.3848  -10.6034   22.3685 O   0  0  0  0  0  0  0  0  0  0  0  0
  -28.7045  -28.9420   22.1951 O   0  0  0  0  0  0  0  0  0  0  0  0
  -28.1158  -32.9378   23.0774 O   0  0  0  0  0  0  0  0  0  0  0  0
  -23.4834  -32.1161   23.6992 O   0  0  0  0  0  0  0  0  0  0  0  0
  -28.1376  -16.6949   18.4691 O   0  0  0  0  0  0  0  0  0  0  0  0
  -21.5813   -6.9768   21.2981 O   0  0  0  0  0  0  0  0  0  0  0  0
  -23.6033  -26.6023   19.7073 O   0  0  0  0  0  0  0  0  0  1  0  0
  -21.5590   -3.9730   25.9221 F   0  0  0  0  0  0  0  0  0  0  0  0
  -19.2709   -6.6834   22.7877 F   0  0  0  0  0  0  0  0  0  0  0  0
  1  2  1  0  0  0  0
  1  5  2  0  0  0  0
  2  6  2  0  0  0  0
  3  8  2  0  0  0  0
  3 17  1  0  0  0  0
  4  9  1  0  0  0  0
  4 17  2  0  0  0  0
  5 19  1  0  0  0  0
  6 21  1  0  0  0  0
  7 10  2  0  0  0  0
  7 20  1  0  0  0  0
  8 27  1  0  0  0  0
  9 27  2  0  0  0  0
 10 28  1  0  0  0  0
 11 12  2  0  0  0  0
 11 29  1  0  0  0  0
 12 30  1  0  0  0  0
 13 22  1  0  0  0  0
 13 28  2  0  0  0  0
 14 23  1  0  0  0  0
 14 24  2  0  0  0  0
 15 23  2  0  0  0  0
 15 25  1  0  0  0  0
 16 30  2  0  0  0  0
 16 31  1  0  0  0  0
 17 32  1  0  0  0  0
 18 32  1  0  0  0  0
 18 33  2  0  0  0  0
 18 34  1  0  0  0  0
 19 21  2  0  0  0  0
 19 39  1  0  0  0  0
 20 22  2  0  0  0  0
 20 40  1  0  0  0  0
 21 48  1  0  0  0  0
 22 41  1  0  0  0  0
 23 51  1  0  0  0  0
 24 26  1  0  0  0  0
 24 61  1  0  0  0  0
 25 26  2  0  0  0  0
 25 66  1  0  0  0  0
 26 52  1  0  0  0  0
 27 86  1  0  0  0  0
 28 87  1  0  0  0  0
 29 31  2  0  0  0  0
 29 86  1  0  0  0  0
 30 88  1  0  0  0  0
 31 89  1  0  0  0  0
 32 71  2  0  0  0  0
 33 72  1  0  0  0  0
 33 75  1  0  0  0  0
 34 76  1  0  0  0  0
 34 81  2  0  0  0  0
 35 49  1  0  0  0  0
 35 77  1  0  0  0  0
 35 82  2  0  0  0  0
 36 67  1  0  0  0  0
 36 73  1  0  0  0  0
 36 83  2  0  0  0  0
 37 68  1  0  0  0  0
 37 78  1  0  0  0  0
 37 84  2  0  0  0  0
 38 74  1  0  0  0  0
 38 79  1  0  0  0  0
 38 85  2  0  0  0  0
 39 42  1  0  0  0  0
 40 49  1  0  0  0  0
 41 73  1  0  0  0  0
 42 44  1  0  0  0  0
 43 45  1  0  0  0  0
 43 46  1  0  0  0  0
 44 48  1  0  0  0  0
 45 50  1  0  0  0  0
 46 74  1  0  0  0  0
 47 50  1  0  0  0  0
 47 74  1  0  0  0  0
 48 77  1  0  0  0  0
 49 73  1  0  0  0  0
 50 72  1  0  0  0  0
 53 62  1  0  0  0  0
 54 68  1  0  0  0  0
 55 69  1  0  0  0  0
 56 70  1  0  0  0  0
 57 70  1  0  0  0  0
 58 70  1  0  0  0  0
 59 79  1  0  0  0  0
 60 80  1  0  0  0  0
 61 63  1  0  0  0  0
 62 66  1  0  0  0  0
 63 65  1  0  0  0  0
 64 69  1  0  0  0  0
 64 79  1  0  0  0  0
 65 87  1  0  0  0  0
 66 69  1  0  0  0  0
 67 70  1  0  0  0  0
 67 78  1  0  0  0  0
 68 80  1  0  0  0  0
 71 72  1  0  0  0  0
M  CHG  1  80   1
M  ISO  4  38 100  65 101  79 100  87 101
M  END
> <Batch ID>
0085

> <Smiles>
CCC(c1cc(C)cc(CC[101CH2:1][101O:1]c2ccc3c(c2)CN(C(=O)C(NC(=O)C(C)NC)C(C)(C)C)C(C(=O)NC2CCCc4ccccc42)C3)c1C)C(C)C[100N:0](C)[100C:0](=O)N1CCCC(n2nc(-c3ccc(Oc4ccc(F)cc4F)cc3)c(C(N)=O)c2N)C1

> <Shape>
0.243

> <Color>
0.129

> <Negative vol penalty>
0.000

$$$$

  -OEChem-04052318563D

 85 93  0     1  0  0  0  0  0999 V2000
  -30.9098  -20.5312   21.8251 C   0  0  0  0  0  0  0  0  0  0  0  0
  -20.6733   -8.3419   18.3429 C   0  0  0  0  0  0  0  0  0  0  0  0
  -20.3740   -9.6796   18.5804 C   0  0  0  0  0  0  0  0  0  0  0  0
  -22.1808  -28.2833   21.0345 C   0  0  0  0  0  0  0  0  0  0  0  0
  -23.3130  -27.4645   23.0054 C   0  0  0  0  0  0  0  0  0  0  0  0
  -21.6212   -7.6903   19.1308 C   0  0  0  0  0  0  0  0  0  0  0  0
  -21.0216  -10.3662   19.6069 C   0  0  0  0  0  0  0  0  0  0  0  0
  -23.4306  -16.8957   21.3036 C   0  0  0  0  0  0  0  0  0  0  0  0
  -26.2963  -20.7399   22.4304 C   0  0  0  0  0  0  0  0  0  0  0  0
  -20.9521  -28.1307   21.6768 C   0  0  0  0  0  0  0  0  0  0  0  0
  -22.0843  -27.3119   23.6479 C   0  0  0  0  0  0  0  0  0  0  0  0
  -23.3487  -17.8424   22.3238 C   0  0  0  0  0  0  0  0  0  0  0  0
  -19.1177  -29.8014   23.9739 C   0  0  0  0  0  0  0  0  0  0  0  0
  -18.1966  -30.8434   23.8673 C   0  0  0  0  0  0  0  0  0  0  0  0
  -27.4128  -20.7262   21.6018 C   0  0  0  0  0  0  0  0  0  0  0  0
  -25.0258  -16.6364   23.5695 C   0  0  0  0  0  0  0  0  0  0  0  0
  -16.6197  -29.3422   22.8199 C   0  0  0  0  0  0  0  0  0  0  0  0
  -23.3613  -27.9502   21.6988 C   0  0  0  0  0  0  0  0  0  0  0  0
  -25.4550  -29.2483   21.0364 C   0  0  0  0  0  0  0  0  0  0  0  0
  -22.2878   -8.3719   20.1612 C   0  0  0  0  0  0  0  0  0  0  0  0
  -24.3043  -15.8044   21.4138 C   0  0  0  0  0  0  0  0  0  0  0  0
  -21.9784   -9.7227   20.4102 C   0  0  0  0  0  0  0  0  0  0  0  0
  -25.1188  -15.6786   22.5483 C   0  0  0  0  0  0  0  0  0  0  0  0
  -26.3799  -21.3208   23.6909 C   0  0  0  0  0  0  0  0  0  0  0  0
  -20.9039  -27.6450   22.9835 C   0  0  0  0  0  0  0  0  0  0  0  0
  -24.1442  -17.7114   23.4582 C   0  0  0  0  0  0  0  0  0  0  0  0
  -18.7899  -28.5298   23.5035 C   0  0  0  0  0  0  0  0  0  0  0  0
  -16.9476  -30.6138   23.2903 C   0  0  0  0  0  0  0  0  0  0  0  0
  -17.5409  -28.3002   22.9265 C   0  0  0  0  0  0  0  0  0  0  0  0
  -24.6308  -28.1071   21.0355 C   0  0  0  0  0  0  0  0  0  0  0  0
  -28.5800  -21.3021   22.0769 C   0  0  0  0  0  0  0  0  0  0  0  0
  -27.5934  -21.8699   24.0725 C   0  0  0  0  0  0  0  0  0  0  0  0
  -26.5362  -28.8916   20.2681 C   0  0  0  0  0  0  0  0  0  0  0  0
  -25.2608  -30.5174   21.6747 C   0  0  0  0  0  0  0  0  0  0  0  0
  -23.9486  -12.6473   21.5137 C   0  0  0  0  0  0  0  0  0  0  0  0
  -27.1908  -12.6698   21.4159 C   0  0  0  0  0  0  0  0  0  0  0  0
  -30.0956  -14.3600   22.0095 C   0  0  0  0  0  0  0  0  0  0  0  0
  -29.0144  -23.6107   18.9185 C   0  0  0  0  0  0  0  0  0  0  0  0
  -23.2703   -7.6123   21.0169 C   0  0  0  0  0  0  0  0  0  0  0  0
  -24.4003  -14.8063   20.2927 C   0  0  0  0  0  0  0  0  0  0  0  0
  -26.0878  -14.5364   22.7061 C   0  0  0  0  0  0  0  0  0  0  0  0
  -24.1838   -8.5147   21.8425 C   0  0  0  0  0  0  0  0  0  0  0  0
  -27.7666  -26.0370   16.6310 C   0  0  0  0  0  0  0  0  0  0  0  0
  -23.3738   -9.6104   22.5282 C   0  0  0  0  0  0  0  0  0  0  0  0
  -26.8958  -26.9457   17.5005 C   0  0  0  0  0  0  0  0  0  0  0  0
  -27.6758  -24.5778   17.0721 C   0  0  0  0  0  0  0  0  0  0  0  0
  -27.0912  -25.2521   19.3693 C   0  0  0  0  0  0  0  0  0  0  0  0
  -22.6777  -10.5083   21.4983 C   0  0  1  0  0  0  0  0  0  0  0  0
  -24.9514  -13.4560   20.7404 C   0  0  1  0  0  0  0  0  0  0  0  0
  -27.1932  -26.7415   18.9982 C   0  0  2  0  0  0  0  0  0  0  0  0
  -27.7410  -22.5101   25.4138 C   0  0  0  0  0  0  0  0  0  0  0  0
  -32.5879  -14.1047   21.8656 C   0  0  0  0  0  0  0  0  0  0  0  0
  -27.1537  -10.9211   23.9160 C   0  0  0  0  0  0  0  0  0  0  0  0
  -29.5681  -11.4858   24.2622 C   0  0  0  0  0  0  0  0  0  0  0  0
  -28.8573  -10.2627   22.2076 C   0  0  0  0  0  0  0  0  0  0  0  0
  -30.3317  -16.6065   20.0974 C   0  0  0  0  0  0  0  0  0  0  0  0
  -25.1729  -21.3375   24.5944 C   0  0  0  0  0  0  0  0  0  0  0  0
  -25.2330  -20.3044   25.7216 C   0  0  0  0  0  0  0  0  0  0  0  0
  -30.2728  -22.7379   20.8713 C   0  0  0  0  0  0  0  0  0  0  0  0
  -25.2478  -18.8648   25.2211 C   0  0  0  0  0  0  0  0  0  1  0  0
  -29.7971  -21.3066   21.2133 C   0  0  1  0  0  0  0  0  0  0  0  0
  -28.2913  -12.7149   22.4483 C   0  0  1  0  0  0  0  0  0  0  0  0
  -31.3297  -14.5741   21.1518 C   0  0  2  0  0  0  0  0  0  0  0  0
  -28.4480  -11.3667   23.2067 C   0  0  0  0  0  0  0  0  0  0  0  0
  -31.7675  -19.9216   22.3148 N   0  0  0  0  0  0  0  0  0  0  0  0
  -25.1442  -27.1007   20.3231 N   0  0  0  0  0  0  0  0  0  0  0  0
  -28.6996  -21.8757   23.2952 N   0  0  0  0  0  0  0  0  0  0  0  0
  -26.3028  -27.6085   19.8690 N   0  0  0  0  0  0  0  0  0  0  0  0
  -26.1405  -13.5829   21.5855 N   0  0  0  0  0  0  0  0  0  0  0  0
  -27.9704  -24.4528   18.5016 N   0  0  0  0  0  0  0  0  0  0  0  0
  -27.6543  -29.5535   19.9017 N   0  0  0  0  0  0  0  0  0  0  0  0
  -24.0945  -30.7158   22.4262 N   0  0  0  0  0  0  0  0  0  0  0  0
  -23.6212  -11.4422   20.9221 N   0  0  0  0  0  0  0  0  0  0  0  0
  -29.4937  -13.1480   21.7447 N   0  0  0  0  0  0  0  0  0  0  0  0
  -29.2310  -23.5547   20.2898 N   0  0  0  0  0  0  0  0  0  0  0  0
  -31.4874  -16.0190   20.8227 N   0  3  0  0  0  0  0  0  0  0  0  0
  -26.0889  -31.4535   21.5679 O   0  0  0  0  0  0  0  0  0  0  0  0
  -23.5058  -13.0837   22.5697 O   0  0  0  0  0  0  0  0  0  0  0  0
  -27.2642  -11.8592   20.4889 O   0  0  0  0  0  0  0  0  0  0  0  0
  -29.7068  -15.1837   22.8346 O   0  0  0  0  0  0  0  0  0  0  0  0
  -29.7060  -22.9611   18.1268 O   0  0  0  0  0  0  0  0  0  0  0  0
  -19.7051  -27.4962   23.6107 O   0  0  0  0  0  0  0  0  0  0  0  0
  -24.0658  -18.6337   24.4557 O   0  0  0  0  0  0  0  0  0  1  0  0
  -16.0626  -31.6142   23.1894 F   0  0  0  0  0  0  0  0  0  0  0  0
  -17.2198  -27.0805   22.4738 F   0  0  0  0  0  0  0  0  0  0  0  0
  1 61  1  0  0  0  0
  1 65  3  0  0  0  0
  2  3  1  0  0  0  0
  2  6  2  0  0  0  0
  3  7  2  0  0  0  0
  4 10  2  0  0  0  0
  4 18  1  0  0  0  0
  5 11  1  0  0  0  0
  5 18  2  0  0  0  0
  6 20  1  0  0  0  0
  7 22  1  0  0  0  0
  8 12  2  0  0  0  0
  8 21  1  0  0  0  0
  9 15  2  0  0  0  0
  9 24  1  0  0  0  0
 10 25  1  0  0  0  0
 11 25  2  0  0  0  0
 12 26  1  0  0  0  0
 13 14  2  0  0  0  0
 13 27  1  0  0  0  0
 14 28  1  0  0  0  0
 15 31  1  0  0  0  0
 16 23  1  0  0  0  0
 16 26  2  0  0  0  0
 17 28  2  0  0  0  0
 17 29  1  0  0  0  0
 18 30  1  0  0  0  0
 19 30  1  0  0  0  0
 19 33  2  0  0  0  0
 19 34  1  0  0  0  0
 20 22  2  0  0  0  0
 20 39  1  0  0  0  0
 21 23  2  0  0  0  0
 21 40  1  0  0  0  0
 22 48  1  0  0  0  0
 23 41  1  0  0  0  0
 24 32  2  0  0  0  0
 24 57  1  0  0  0  0
 25 82  1  0  0  0  0
 26 83  1  0  0  0  0
 27 29  2  0  0  0  0
 27 82  1  0  0  0  0
 28 84  1  0  0  0  0
 29 85  1  0  0  0  0
 30 66  2  0  0  0  0
 31 61  1  0  0  0  0
 31 67  2  0  0  0  0
 32 51  1  0  0  0  0
 32 67  1  0  0  0  0
 33 68  1  0  0  0  0
 33 71  1  0  0  0  0
 34 72  1  0  0  0  0
 34 77  2  0  0  0  0
 35 49  1  0  0  0  0
 35 73  1  0  0  0  0
 35 78  2  0  0  0  0
 36 62  1  0  0  0  0
 36 69  1  0  0  0  0
 36 79  2  0  0  0  0
 37 63  1  0  0  0  0
 37 74  1  0  0  0  0
 37 80  2  0  0  0  0
 38 70  1  0  0  0  0
 38 75  1  0  0  0  0
 38 81  2  0  0  0  0
 39 42  1  0  0  0  0
 40 49  1  0  0  0  0
 41 69  1  0  0  0  0
 42 44  1  0  0  0  0
 43 45  1  0  0  0  0
 43 46  1  0  0  0  0
 44 48  1  0  0  0  0
 45 50  1  0  0  0  0
 46 70  1  0  0  0  0
 47 50  1  0  0  0  0
 47 70  1  0  0  0  0
 48 73  1  0  0  0  0
 49 69  1  0  0  0  0
 50 68  1  0  0  0  0
 52 63  1  0  0  0  0
 53 64  1  0  0  0  0
 54 64  1  0  0  0  0
 55 64  1  0  0  0  0
 56 76  1  0  0  0  0
 57 58  1  0  0  0  0
 58 60  1  0  0  0  0
 59 61  1  0  0  0  0
 59 75  1  0  0  0  0
 60 83  1  0  0  0  0
 62 64  1  0  0  0  0
 62 74  1  0  0  0  0
 63 76  1  0  0  0  0
 66 68  1  0  0  0  0
M  CHG  1  76   1
M  ISO  4  38 100  60 101  75 100  83 101
M  END
> <Batch ID>
0085

> <Smiles>
CNC(C)C(=O)NC(C(=O)N1Cc2cc([101O:1][101CH2:1]CCc3ccc(C(C#N)C[100NH:0][100C:0](=O)N4CCCC(n5nc(-c6ccc(Oc7ccc(F)cc7F)cc6)c(C(N)=O)c5N)C4)nc3C)ccc2CC1C(=O)NC1CCCc2ccccc21)C(C)(C)C

> <Shape>
0.276

> <Color>
0.059

> <Negative vol penalty>
0.000

$$$$

  -OEChem-04052318563D

 82 90  0     1  0  0  0  0  0999 V2000
  -28.8605  -20.7451   25.3132 C   0  0  0  0  0  0  0  0  0  0  0  0
  -29.0396  -21.7754   24.3957 C   0  0  0  0  0  0  0  0  0  0  0  0
  -24.4064  -13.6348   21.0568 C   0  0  0  0  0  0  0  0  0  0  0  0
  -26.5283  -13.0033   20.0893 C   0  0  0  0  0  0  0  0  0  0  0  0
  -27.5802  -20.2566   25.5701 C   0  0  0  0  0  0  0  0  0  0  0  0
  -27.9384  -22.3171   23.7337 C   0  0  0  0  0  0  0  0  0  0  0  0
  -28.0478  -27.3783   23.6014 C   0  0  0  0  0  0  0  0  0  0  0  0
  -23.8803  -12.3887   20.7163 C   0  0  0  0  0  0  0  0  0  0  0  0
  -26.0022  -11.7572   19.7488 C   0  0  0  0  0  0  0  0  0  0  0  0
  -28.8935  -27.9727   22.6659 C   0  0  0  0  0  0  0  0  0  0  0  0
  -22.0857   -9.2408   20.4237 C   0  0  0  0  0  0  0  0  0  0  0  0
  -21.3296   -8.5713   21.3857 C   0  0  0  0  0  0  0  0  0  0  0  0
  -27.0087  -28.3439   21.2068 C   0  0  0  0  0  0  0  0  0  0  0  0
  -23.2340   -8.5566   22.8723 C   0  0  0  0  0  0  0  0  0  0  0  0
  -29.2789  -25.3988   17.9030 C   0  0  0  0  0  0  0  0  0  0  0  0
  -25.7304  -13.9421   20.7433 C   0  0  0  0  0  0  0  0  0  0  0  0
  -26.9251  -15.5793   22.2926 C   0  0  0  0  0  0  0  0  0  0  0  0
  -26.4617  -20.7992   24.9180 C   0  0  0  0  0  0  0  0  0  0  0  0
  -26.6755  -27.2523   23.3416 C   0  0  0  0  0  0  0  0  0  0  0  0
  -26.6420  -21.8345   23.9811 C   0  0  0  0  0  0  0  0  0  0  0  0
  -26.1473  -27.7499   22.1418 C   0  0  0  0  0  0  0  0  0  0  0  0
  -24.6782  -11.4498   20.0623 C   0  0  0  0  0  0  0  0  0  0  0  0
  -28.3745  -28.4530   21.4671 C   0  0  0  0  0  0  0  0  0  0  0  0
  -23.4161   -9.5682   20.6859 C   0  0  0  0  0  0  0  0  0  0  0  0
  -21.9037   -8.2292   22.6100 C   0  0  0  0  0  0  0  0  0  0  0  0
  -23.9902   -9.2262   21.9102 C   0  0  0  0  0  0  0  0  0  0  0  0
  -26.2743  -15.2294   21.0943 C   0  0  0  0  0  0  0  0  0  0  0  0
  -30.1748  -24.3649   17.7963 C   0  0  0  0  0  0  0  0  0  0  0  0
  -27.2480  -16.9047   22.1336 C   0  0  0  0  0  0  0  0  0  0  0  0
  -27.2120  -14.7777   23.4462 C   0  0  0  0  0  0  0  0  0  0  0  0
  -24.6671  -24.8086   23.0283 C   0  0  0  0  0  0  0  0  0  0  0  0
  -22.4405  -27.1628   22.8790 C   0  0  0  0  0  0  0  0  0  0  0  0
  -21.7170  -30.4272   22.1955 C   0  0  0  0  0  0  0  0  0  0  0  0
  -29.3305  -20.9639   19.1115 C   0  0  0  0  0  0  0  0  0  0  0  0
  -25.1025  -20.2063   25.1933 C   0  0  0  0  0  0  0  0  0  0  0  0
  -25.7724  -26.6327   24.3725 C   0  0  0  0  0  0  0  0  0  0  0  0
  -24.6781  -27.6572   21.8234 C   0  0  0  0  0  0  0  0  0  0  0  0
  -23.9473  -21.0888   24.7275 C   0  0  0  0  0  0  0  0  0  0  0  0
  -25.8189  -20.2446   18.6131 C   0  0  0  0  0  0  0  0  0  0  0  0
  -24.2035  -21.6014   23.3139 C   0  0  0  0  0  0  0  0  0  0  0  0
  -25.6816  -18.8947   19.3196 C   0  0  0  0  0  0  0  0  0  0  0  0
  -27.1567  -20.3555   17.8878 C   0  0  0  0  0  0  0  0  0  0  0  0
  -28.2127  -18.7797   19.4612 C   0  0  0  0  0  0  0  0  0  0  0  0
  -25.4696  -22.4650   23.2612 C   0  0  1  0  0  0  0  0  0  0  0  0
  -24.4730  -26.0938   23.7821 C   0  0  1  0  0  0  0  0  0  0  0  0
  -26.8904  -18.6144   20.2320 C   0  0  2  0  0  0  0  0  0  0  0  0
  -19.8026  -32.0482   22.1281 C   0  0  0  0  0  0  0  0  0  0  0  0
  -30.8329  -30.2532   18.4584 C   0  0  0  0  0  0  0  0  0  0  0  0
  -21.4823  -25.9188   20.2628 C   0  0  0  0  0  0  0  0  0  0  0  0
  -20.2625  -28.0505   19.7768 C   0  0  0  0  0  0  0  0  0  0  0  0
  -19.6525  -26.6954   21.7804 C   0  0  0  0  0  0  0  0  0  0  0  0
  -22.9588  -32.1580   24.2499 C   0  0  0  0  0  0  0  0  0  0  0  0
  -30.3349  -23.1873   18.6591 C   0  0  0  0  0  0  0  0  0  0  0  0
  -29.7455  -28.7416   16.7793 C   0  0  0  0  0  0  0  0  0  0  0  0
  -28.9217  -27.4908   16.4428 C   0  0  0  0  0  0  0  0  0  0  0  0
  -28.8307  -28.9107   19.1784 C   0  0  0  0  0  0  0  0  0  1  0  0
  -21.8269  -27.9853   21.7717 C   0  0  1  0  0  0  0  0  0  0  0  0
  -20.9282  -31.4676   22.9699 C   0  0  2  0  0  0  0  0  0  0  0  0
  -30.0723  -28.9334   18.2767 C   0  0  2  0  0  0  0  0  0  0  0  0
  -20.8341  -27.1626   20.9028 C   0  0  0  0  0  0  0  0  0  0  0  0
  -26.1880  -16.2503   20.2373 N   0  0  0  0  0  0  0  0  0  0  0  0
  -30.9731  -24.5596   16.7034 N   0  0  0  0  0  0  0  0  0  0  0  0
  -30.5989  -25.6938   16.1215 N   0  0  0  0  0  0  0  0  0  0  0  0
  -29.5831  -26.1955   16.8424 N   0  0  0  0  0  0  0  0  0  0  0  0
  -26.7886  -17.2547   20.8980 N   0  0  0  0  0  0  0  0  0  0  0  0
  -23.8368  -27.0374   22.8606 N   0  0  0  0  0  0  0  0  0  0  0  0
  -28.2662  -20.0959   18.8162 N   0  0  0  0  0  0  0  0  0  0  0  0
  -27.8771  -17.7934   22.9317 N   0  0  0  0  0  0  0  0  0  0  0  0
  -26.8104  -13.4350   23.4436 N   0  0  0  0  0  0  0  0  0  0  0  0
  -25.2026  -23.7861   23.7881 N   0  0  0  0  0  0  0  0  0  0  0  0
  -21.2336  -29.1541   22.4122 N   0  0  0  0  0  0  0  0  0  0  0  0
  -29.3106  -22.1875   18.4535 N   0  0  0  0  0  0  0  0  0  0  0  0
  -21.8203  -32.5829   23.3955 N   0  3  0  0  0  0  0  0  0  0  0  0
  -27.7924  -15.2429   24.4563 O   0  0  0  0  0  0  0  0  0  0  0  0
  -24.3527  -24.7485   21.8454 O   0  0  0  0  0  0  0  0  0  0  0  0
  -21.7084  -26.6563   23.7329 O   0  0  0  0  0  0  0  0  0  0  0  0
  -22.6647  -30.7154   21.4679 O   0  0  0  0  0  0  0  0  0  0  0  0
  -30.2298  -20.6721   19.9072 O   0  0  0  0  0  0  0  0  0  0  0  0
  -24.1652  -10.2337   19.7301 O   0  0  0  0  0  0  0  0  0  0  0  0
  -29.1978  -29.0330   20.5520 O   0  0  0  0  0  0  0  0  0  1  0  0
  -21.1770   -7.5876   23.5344 F   0  0  0  0  0  0  0  0  0  0  0  0
  -25.2674   -9.5391   22.1684 F   0  0  0  0  0  0  0  0  0  0  0  0
  1  2  1  0  0  0  0
  1  5  2  0  0  0  0
  2  6  2  0  0  0  0
  3  8  2  0  0  0  0
  3 16  1  0  0  0  0
  4  9  1  0  0  0  0
  4 16  2  0  0  0  0
  5 18  1  0  0  0  0
  6 20  1  0  0  0  0
  7 10  2  0  0  0  0
  7 19  1  0  0  0  0
  8 22  1  0  0  0  0
  9 22  2  0  0  0  0
 10 23  1  0  0  0  0
 11 12  2  0  0  0  0
 11 24  1  0  0  0  0
 12 25  1  0  0  0  0
 13 21  1  0  0  0  0
 13 23  2  0  0  0  0
 14 25  2  0  0  0  0
 14 26  1  0  0  0  0
 15 28  2  0  0  0  0
 15 64  1  0  0  0  0
 16 27  1  0  0  0  0
 17 27  1  0  0  0  0
 17 29  2  0  0  0  0
 17 30  1  0  0  0  0
 18 20  2  0  0  0  0
 18 35  1  0  0  0  0
 19 21  2  0  0  0  0
 19 36  1  0  0  0  0
 20 44  1  0  0  0  0
 21 37  1  0  0  0  0
 22 79  1  0  0  0  0
 23 80  1  0  0  0  0
 24 26  2  0  0  0  0
 24 79  1  0  0  0  0
 25 81  1  0  0  0  0
 26 82  1  0  0  0  0
 27 61  2  0  0  0  0
 28 53  1  0  0  0  0
 28 62  1  0  0  0  0
 29 65  1  0  0  0  0
 29 68  1  0  0  0  0
 30 69  1  0  0  0  0
 30 74  2  0  0  0  0
 31 45  1  0  0  0  0
 31 70  1  0  0  0  0
 31 75  2  0  0  0  0
 32 57  1  0  0  0  0
 32 66  1  0  0  0  0
 32 76  2  0  0  0  0
 33 58  1  0  0  0  0
 33 71  1  0  0  0  0
 33 77  2  0  0  0  0
 34 67  1  0  0  0  0
 34 72  1  0  0  0  0
 34 78  2  0  0  0  0
 35 38  1  0  0  0  0
 36 45  1  0  0  0  0
 37 66  1  0  0  0  0
 38 40  1  0  0  0  0
 39 41  1  0  0  0  0
 39 42  1  0  0  0  0
 40 44  1  0  0  0  0
 41 46  1  0  0  0  0
 42 67  1  0  0  0  0
 43 46  1  0  0  0  0
 43 67  1  0  0  0  0
 44 70  1  0  0  0  0
 45 66  1  0  0  0  0
 46 65  1  0  0  0  0
 47 58  1  0  0  0  0
 48 59  1  0  0  0  0
 49 60  1  0  0  0  0
 50 60  1  0  0  0  0
 51 60  1  0  0  0  0
 52 73  1  0  0  0  0
 53 72  1  0  0  0  0
 54 55  1  0  0  0  0
 54 59  1  0  0  0  0
 55 64  1  0  0  0  0
 56 59  1  0  0  0  0
 56 80  1  0  0  0  0
 57 60  1  0  0  0  0
 57 71  1  0  0  0  0
 58 73  1  0  0  0  0
 61 65  1  0  0  0  0
 62 63  2  0  0  0  0
 63 64  1  0  0  0  0
M  CHG  1  73   1
M  ISO  4  34 100  56 101  72 100  80 101
M  END
> <Batch ID>
0085

> <Smiles>
CNC(C)C(=O)NC(C(=O)N1Cc2cc([101O:1][101CH2:1]C(C)CCn3cc(C[100NH:0][100C:0](=O)N4CCCC(n5nc(-c6ccc(Oc7ccc(F)cc7F)cc6)c(C(N)=O)c5N)C4)nn3)ccc2CC1C(=O)NC1CCCc2ccccc21)C(C)(C)C

> <Shape>
0.204

> <Color>
0.056

> <Negative vol penalty>
0.000

$$$$

  -OEChem-04052318563D

 87 95  0     1  0  0  0  0  0999 V2000
  -31.5222  -13.0576   16.7926 C   0  0  0  0  0  0  0  0  0  0  0  0
  -30.7633  -14.2228   16.7507 C   0  0  0  0  0  0  0  0  0  0  0  0
  -29.1577  -28.8072   20.1766 C   0  0  0  0  0  0  0  0  0  0  0  0
  -27.2709  -27.3761   19.6982 C   0  0  0  0  0  0  0  0  0  0  0  0
  -31.1658  -12.0257   17.6598 C   0  0  0  0  0  0  0  0  0  0  0  0
  -29.6468  -14.3563   17.5754 C   0  0  0  0  0  0  0  0  0  0  0  0
  -27.6144  -19.4942   20.2169 C   0  0  0  0  0  0  0  0  0  0  0  0
  -30.0180  -27.7172   20.0446 C   0  0  0  0  0  0  0  0  0  0  0  0
  -28.1312  -26.2861   19.5661 C   0  0  0  0  0  0  0  0  0  0  0  0
  -26.6067  -20.3926   19.8688 C   0  0  0  0  0  0  0  0  0  0  0  0
  -30.2356  -25.0444   17.2316 C   0  0  0  0  0  0  0  0  0  0  0  0
  -30.0386  -24.1933   16.1442 C   0  0  0  0  0  0  0  0  0  0  0  0
  -25.0826  -19.2462   21.3459 C   0  0  0  0  0  0  0  0  0  0  0  0
  -20.2283  -27.4111   23.4803 C   0  0  0  0  0  0  0  0  0  0  0  0
  -29.6681  -22.3463   17.6569 C   0  0  0  0  0  0  0  0  0  0  0  0
  -27.7842  -28.6367   20.0034 C   0  0  0  0  0  0  0  0  0  0  0  0
  -26.4810  -30.6466   19.1262 C   0  0  0  0  0  0  0  0  0  0  0  0
  -30.0500  -12.1505   18.5024 C   0  0  0  0  0  0  0  0  0  0  0  0
  -27.3603  -18.4567   21.1254 C   0  0  0  0  0  0  0  0  0  0  0  0
  -29.2743  -13.3246   18.4537 C   0  0  0  0  0  0  0  0  0  0  0  0
  -26.0895  -18.3375   21.7059 C   0  0  0  0  0  0  0  0  0  0  0  0
  -19.7431  -26.4683   22.5808 C   0  0  0  0  0  0  0  0  0  0  0  0
  -18.8566  -26.8591   21.5834 C   0  0  0  0  0  0  0  0  0  0  0  0
  -29.5047  -26.4566   19.7393 C   0  0  0  0  0  0  0  0  0  0  0  0
  -25.3398  -20.2670   20.4311 C   0  0  0  0  0  0  0  0  0  0  0  0
  -30.1489  -24.5464   18.5317 C   0  0  0  0  0  0  0  0  0  0  0  0
  -29.7549  -22.8442   16.3568 C   0  0  0  0  0  0  0  0  0  0  0  0
  -29.8651  -23.1974   18.7444 C   0  0  0  0  0  0  0  0  0  0  0  0
  -26.8950  -29.7621   20.1402 C   0  0  0  0  0  0  0  0  0  0  0  0
  -19.7996  -28.7212   23.3410 C   0  0  0  0  0  0  0  0  0  0  0  0
  -18.4891  -28.1939   21.5291 C   0  0  0  0  0  0  0  0  0  0  0  0
  -25.6465  -31.5325   19.7629 C   0  0  0  0  0  0  0  0  0  0  0  0
  -26.8203  -30.6657   17.7333 C   0  0  0  0  0  0  0  0  0  0  0  0
  -27.4170  -15.2819   20.9780 C   0  0  0  0  0  0  0  0  0  0  0  0
  -26.8629  -15.5128   24.1658 C   0  0  0  0  0  0  0  0  0  0  0  0
  -25.6553  -17.3579   26.7704 C   0  0  0  0  0  0  0  0  0  0  0  0
  -22.3112  -31.1492   24.7207 C   0  0  0  0  0  0  0  0  0  0  0  0
  -29.6763  -10.9891   19.3891 C   0  0  0  0  0  0  0  0  0  0  0  0
  -28.4654  -17.5119   21.5108 C   0  0  0  0  0  0  0  0  0  0  0  0
  -25.7710  -17.2533   22.7017 C   0  0  0  0  0  0  0  0  0  0  0  0
  -28.6973  -11.3610   20.4997 C   0  0  0  0  0  0  0  0  0  0  0  0
  -24.8684  -33.5311   24.0397 C   0  0  0  0  0  0  0  0  0  0  0  0
  -27.5522  -12.2010   19.9429 C   0  0  0  0  0  0  0  0  0  0  0  0
  -25.6404  -32.9151   22.8716 C   0  0  0  0  0  0  0  0  0  0  0  0
  -24.3875  -32.4659   25.0227 C   0  0  0  0  0  0  0  0  0  0  0  0
  -24.3786  -30.7553   23.2486 C   0  0  0  0  0  0  0  0  0  0  0  0
  -28.0707  -13.5170   19.3506 C   0  0  1  0  0  0  0  0  0  0  0  0
  -27.9522  -16.1824   22.0552 C   0  0  1  0  0  0  0  0  0  0  0  0
  -24.8358  -31.7852   22.2014 C   0  0  2  0  0  0  0  0  0  0  0  0
  -18.3216  -25.8703   20.6029 C   0  0  0  0  0  0  0  0  0  0  0  0
  -18.1823  -29.7126   19.5408 C   0  0  0  0  0  0  0  0  0  0  0  0
  -16.2407  -29.2404   21.0777 C   0  0  0  0  0  0  0  0  0  0  0  0
  -25.3040  -17.2663   29.2535 C   0  0  0  0  0  0  0  0  0  0  0  0
  -24.4679  -13.6672   23.7563 C   0  0  0  0  0  0  0  0  0  0  0  0
  -23.6305  -14.3689   26.0090 C   0  0  0  0  0  0  0  0  0  0  0  0
  -25.8173  -13.1860   25.8062 C   0  0  0  0  0  0  0  0  0  0  0  0
  -27.4215  -19.6890   27.2232 C   0  0  0  0  0  0  0  0  0  0  0  0
  -20.1902  -25.0339   22.7098 C   0  0  0  0  0  0  0  0  0  0  0  0
  -20.3006  -29.7602   24.2878 C   0  0  0  0  0  0  0  0  0  0  0  0
  -21.2783  -24.6316   21.7078 C   0  0  0  0  0  0  0  0  0  0  0  0
  -21.7732  -23.1953   21.9050 C   0  0  0  0  0  0  0  0  0  0  0  0
  -22.8328  -22.8279   20.8675 C   0  0  0  0  0  0  0  0  0  0  0  0
  -23.3619  -21.4167   21.0806 C   0  0  0  0  0  0  0  0  0  1  0  0
  -17.5411  -28.6741   20.4791 C   0  0  0  0  0  0  0  0  0  0  0  0
  -25.6302  -15.5861   25.0341 C   0  0  1  0  0  0  0  0  0  0  0  0
  -26.2425  -17.6833   28.1319 C   0  0  2  0  0  0  0  0  0  0  0  0
  -24.8916  -14.2214   25.1312 C   0  0  0  0  0  0  0  0  0  0  0  0
  -26.3672  -30.0592   21.3307 N   0  0  0  0  0  0  0  0  0  0  0  0
  -18.9394  -29.1385   22.3851 N   0  0  0  0  0  0  0  0  0  0  0  0
  -25.6130  -31.1403   21.0688 N   0  0  0  0  0  0  0  0  0  0  0  0
  -26.8831  -16.3504   23.0416 N   0  0  0  0  0  0  0  0  0  0  0  0
  -23.6301  -31.4249   24.3239 N   0  0  0  0  0  0  0  0  0  0  0  0
  -24.9456  -32.6009   19.3276 N   0  0  0  0  0  0  0  0  0  0  0  0
  -27.6911  -29.6823   17.2442 N   0  0  0  0  0  0  0  0  0  0  0  0
  -28.3703  -14.4623   20.4047 N   0  0  0  0  0  0  0  0  0  0  0  0
  -26.0671  -16.1218   26.3188 N   0  0  0  0  0  0  0  0  0  0  0  0
  -21.6626  -30.1525   24.0018 N   0  0  0  0  0  0  0  0  0  0  0  0
  -26.4953  -19.1472   28.2505 N   0  3  0  0  0  0  0  0  0  0  0  0
  -26.3777  -31.5389   16.9490 O   0  0  0  0  0  0  0  0  0  0  0  0
  -26.2268  -15.3265   20.6894 O   0  0  0  0  0  0  0  0  0  0  0  0
  -27.7775  -14.7459   24.4776 O   0  0  0  0  0  0  0  0  0  0  0  0
  -24.9033  -18.1219   26.1694 O   0  0  0  0  0  0  0  0  0  0  0  0
  -21.7511  -31.7506   25.6435 O   0  0  0  0  0  0  0  0  0  0  0  0
  -30.3439  -25.3928   19.6102 O   0  0  0  0  0  0  0  0  0  0  0  0
  -24.3542  -21.1421   20.0925 O   0  0  0  0  0  0  0  0  0  1  0  0
  -29.5642  -22.0274   15.3126 F   0  0  0  0  0  0  0  0  0  0  0  0
  -29.7793  -22.7135   19.9911 F   0  0  0  0  0  0  0  0  0  0  0  0
  1  2  1  0  0  0  0
  1  5  2  0  0  0  0
  2  6  2  0  0  0  0
  3  8  2  0  0  0  0
  3 16  1  0  0  0  0
  4  9  1  0  0  0  0
  4 16  2  0  0  0  0
  5 18  1  0  0  0  0
  6 20  1  0  0  0  0
  7 10  2  0  0  0  0
  7 19  1  0  0  0  0
  8 24  1  0  0  0  0
  9 24  2  0  0  0  0
 10 25  1  0  0  0  0
 11 12  2  0  0  0  0
 11 26  1  0  0  0  0
 12 27  1  0  0  0  0
 13 21  1  0  0  0  0
 13 25  2  0  0  0  0
 14 22  1  0  0  0  0
 14 30  2  0  0  0  0
 15 27  2  0  0  0  0
 15 28  1  0  0  0  0
 16 29  1  0  0  0  0
 17 29  1  0  0  0  0
 17 32  2  0  0  0  0
 17 33  1  0  0  0  0
 18 20  2  0  0  0  0
 18 38  1  0  0  0  0
 19 21  2  0  0  0  0
 19 39  1  0  0  0  0
 20 47  1  0  0  0  0
 21 40  1  0  0  0  0
 22 23  2  0  0  0  0
 22 58  1  0  0  0  0
 23 31  1  0  0  0  0
 23 50  1  0  0  0  0
 24 84  1  0  0  0  0
 25 85  1  0  0  0  0
 26 28  2  0  0  0  0
 26 84  1  0  0  0  0
 27 86  1  0  0  0  0
 28 87  1  0  0  0  0
 29 68  2  0  0  0  0
 30 59  1  0  0  0  0
 30 69  1  0  0  0  0
 31 64  1  0  0  0  0
 31 69  2  0  0  0  0
 32 70  1  0  0  0  0
 32 73  1  0  0  0  0
 33 74  1  0  0  0  0
 33 79  2  0  0  0  0
 34 48  1  0  0  0  0
 34 75  1  0  0  0  0
 34 80  2  0  0  0  0
 35 65  1  0  0  0  0
 35 71  1  0  0  0  0
 35 81  2  0  0  0  0
 36 66  1  0  0  0  0
 36 76  1  0  0  0  0
 36 82  2  0  0  0  0
 37 72  1  0  0  0  0
 37 77  1  0  0  0  0
 37 83  2  0  0  0  0
 38 41  1  0  0  0  0
 39 48  1  0  0  0  0
 40 71  1  0  0  0  0
 41 43  1  0  0  0  0
 42 44  1  0  0  0  0
 42 45  1  0  0  0  0
 43 47  1  0  0  0  0
 44 49  1  0  0  0  0
 45 72  1  0  0  0  0
 46 49  1  0  0  0  0
 46 72  1  0  0  0  0
 47 75  1  0  0  0  0
 48 71  1  0  0  0  0
 49 70  1  0  0  0  0
 51 64  1  0  0  0  0
 52 64  1  0  0  0  0
 53 66  1  0  0  0  0
 54 67  1  0  0  0  0
 55 67  1  0  0  0  0
 56 67  1  0  0  0  0
 57 78  1  0  0  0  0
 58 60  1  0  0  0  0
 59 77  1  0  0  0  0
 60 61  1  0  0  0  0
 61 62  1  0  0  0  0
 62 63  1  0  0  0  0
 63 85  1  0  0  0  0
 65 67  1  0  0  0  0
 65 76  1  0  0  0  0
 66 78  1  0  0  0  0
 68 70  1  0  0  0  0
M  CHG  1  78   1
M  ISO  4  37 100  63 101  77 100  85 101
M  END
> <Batch ID>
0085

> <Smiles>
CNC(C)C(=O)NC(C(=O)N1Cc2cc([101O:1][101CH2:1]CCCCc3cc(C[100NH:0][100C:0](=O)N4CCCC(n5nc(-c6ccc(Oc7ccc(F)cc7F)cc6)c(C(N)=O)c5N)C4)nc(C(C)C)c3C)ccc2CC1C(=O)NC1CCCc2ccccc21)C(C)(C)C

> <Shape>
0.243

> <Color>
0.056

> <Negative vol penalty>
0.000

$$$$

  -OEChem-04052318563D

 85 93  0     1  0  0  0  0  0999 V2000
  -31.6926  -16.1569   14.0409 C   0  0  0  0  0  0  0  0  0  0  0  0
  -31.0373  -16.4712   15.2271 C   0  0  0  0  0  0  0  0  0  0  0  0
  -23.3460   -9.7718   19.9872 C   0  0  0  0  0  0  0  0  0  0  0  0
  -23.7446  -10.0347   22.3555 C   0  0  0  0  0  0  0  0  0  0  0  0
  -32.7209  -16.9756   13.5759 C   0  0  0  0  0  0  0  0  0  0  0  0
  -31.4106  -17.6039   15.9497 C   0  0  0  0  0  0  0  0  0  0  0  0
  -27.4259  -20.2869   17.5522 C   0  0  0  0  0  0  0  0  0  0  0  0
  -22.6361   -8.5974   20.2370 C   0  0  0  0  0  0  0  0  0  0  0  0
  -23.0347   -8.8603   22.6054 C   0  0  0  0  0  0  0  0  0  0  0  0
  -26.7435  -19.8078   18.6696 C   0  0  0  0  0  0  0  0  0  0  0  0
  -23.3357   -5.3648   20.9335 C   0  0  0  0  0  0  0  0  0  0  0  0
  -23.6010   -4.2628   20.1207 C   0  0  0  0  0  0  0  0  0  0  0  0
  -27.9068  -21.4027   20.0562 C   0  0  0  0  0  0  0  0  0  0  0  0
  -21.2929   -4.2335   19.4072 C   0  0  0  0  0  0  0  0  0  0  0  0
  -26.5671  -14.3012   24.4222 C   0  0  0  0  0  0  0  0  0  0  0  0
  -28.1236  -15.8491   24.8648 C   0  0  0  0  0  0  0  0  0  0  0  0
  -23.9003  -10.4904   21.0465 C   0  0  0  0  0  0  0  0  0  0  0  0
  -24.1195  -13.0123   20.7306 C   0  0  0  0  0  0  0  0  0  0  0  0
  -33.1006  -18.1242   14.2881 C   0  0  0  0  0  0  0  0  0  0  0  0
  -28.3634  -21.3218   17.6803 C   0  0  0  0  0  0  0  0  0  0  0  0
  -32.4459  -18.4379   15.4945 C   0  0  0  0  0  0  0  0  0  0  0  0
  -28.5978  -21.8948   18.9384 C   0  0  0  0  0  0  0  0  0  0  0  0
  -25.9087  -15.4483   24.8066 C   0  0  0  0  0  0  0  0  0  0  0  0
  -26.8933  -16.4276   25.0867 C   0  0  0  0  0  0  0  0  0  0  0  0
  -22.4804   -8.1417   21.5460 C   0  0  0  0  0  0  0  0  0  0  0  0
  -26.9861  -20.3638   19.9223 C   0  0  0  0  0  0  0  0  0  0  0  0
  -22.0491   -5.9012   20.9833 C   0  0  0  0  0  0  0  0  0  0  0  0
  -22.5796   -3.6972   19.3575 C   0  0  0  0  0  0  0  0  0  0  0  0
  -21.0277   -5.3356   20.2201 C   0  0  0  0  0  0  0  0  0  0  0  0
  -24.6343  -11.7034   20.7890 C   0  0  0  0  0  0  0  0  0  0  0  0
  -25.2122  -13.7993   20.4602 C   0  0  0  0  0  0  0  0  0  0  0  0
  -22.7739  -13.4755   20.9053 C   0  0  0  0  0  0  0  0  0  0  0  0
  -31.4847  -21.5996   17.1477 C   0  0  0  0  0  0  0  0  0  0  0  0
  -30.9296  -24.7200   17.8385 C   0  0  0  0  0  0  0  0  0  0  0  0
  -28.9673  -27.0381   19.3951 C   0  0  0  0  0  0  0  0  0  0  0  0
  -31.1312  -12.5666   21.4527 C   0  0  0  0  0  0  0  0  0  0  0  0
  -34.2497  -18.9526   13.7704 C   0  0  0  0  0  0  0  0  0  0  0  0
  -29.0715  -21.8454   16.4609 C   0  0  0  0  0  0  0  0  0  0  0  0
  -29.5795  -23.0216   19.1261 C   0  0  0  0  0  0  0  0  0  0  0  0
  -34.3330  -20.3402   14.4012 C   0  0  0  0  0  0  0  0  0  0  0  0
  -29.4883  -13.6857   18.3302 C   0  0  0  0  0  0  0  0  0  0  0  0
  -34.1752  -20.2485   15.9156 C   0  0  0  0  0  0  0  0  0  0  0  0
  -28.0211  -13.3443   18.5849 C   0  0  0  0  0  0  0  0  0  0  0  0
  -30.4275  -12.7579   19.0948 C   0  0  0  0  0  0  0  0  0  0  0  0
  -28.6937  -12.3617   20.8126 C   0  0  0  0  0  0  0  0  0  0  0  0
  -32.8056  -19.6717   16.2937 C   0  0  1  0  0  0  0  0  0  0  0  0
  -30.3816  -22.5547   16.7892 C   0  0  1  0  0  0  0  0  0  0  0  0
  -27.7203  -13.3076   20.0933 C   0  0  2  0  0  0  0  0  0  0  0  0
  -24.4449  -15.6152   24.9035 C   0  0  0  0  0  0  0  0  0  0  0  0
  -27.2386  -18.0732   26.9468 C   0  0  0  0  0  0  0  0  0  0  0  0
  -28.7886  -29.5059   19.8136 C   0  0  0  0  0  0  0  0  0  0  0  0
  -33.1545  -24.5260   19.9174 C   0  0  0  0  0  0  0  0  0  0  0  0
  -32.3021  -26.6530   20.9263 C   0  0  0  0  0  0  0  0  0  0  0  0
  -33.1557  -26.6408   18.5823 C   0  0  0  0  0  0  0  0  0  0  0  0
  -31.9946  -13.0411   23.7130 C   0  0  0  0  0  0  0  0  0  0  0  0
  -26.3563  -27.2013   18.0112 C   0  0  0  0  0  0  0  0  0  0  0  0
  -26.5092  -18.8670   23.1932 C   0  0  0  0  0  0  0  0  0  0  0  0
  -27.1985  -18.9120   24.5647 C   0  0  0  0  0  0  0  0  0  0  0  0
  -28.9510  -13.6088   24.1255 C   0  0  0  0  0  0  0  0  0  0  0  0
  -29.8803  -14.1077   23.0221 C   0  0  0  0  0  0  0  0  0  0  0  0
  -26.9987  -19.9759   22.2686 C   0  0  0  0  0  0  0  0  0  1  0  0
  -26.6506  -17.8546   25.5474 C   0  0  1  0  0  0  0  0  0  0  0  0
  -30.9322  -25.5531   19.0974 C   0  0  1  0  0  0  0  0  0  0  0  0
  -28.3829  -28.3523   18.9096 C   0  0  2  0  0  0  0  0  0  0  0  0
  -32.3690  -25.8207   19.6280 C   0  0  0  0  0  0  0  0  0  0  0  0
  -25.9515  -11.6572   20.5730 N   0  0  0  0  0  0  0  0  0  0  0  0
  -27.9130  -14.5566   24.4610 N   0  0  0  0  0  0  0  0  0  0  0  0
  -26.2737  -12.9470   20.3761 N   0  0  0  0  0  0  0  0  0  0  0  0
  -30.2514  -23.4946   17.9045 N   0  0  0  0  0  0  0  0  0  0  0  0
  -30.0922  -12.7084   20.5182 N   0  0  0  0  0  0  0  0  0  0  0  0
  -25.3590  -15.1302   20.2886 N   0  0  0  0  0  0  0  0  0  0  0  0
  -21.7729  -12.5330   21.1776 N   0  0  0  0  0  0  0  0  0  0  0  0
  -31.7772  -20.6808   16.1578 N   0  0  0  0  0  0  0  0  0  0  0  0
  -30.1745  -26.7611   18.7890 N   0  0  0  0  0  0  0  0  0  0  0  0
  -30.9411  -13.1511   22.7140 N   0  0  0  0  0  0  0  0  0  0  0  0
  -26.8947  -28.2783   18.8813 N   0  3  0  0  0  0  0  0  0  0  0  0
  -22.4654  -14.6873   20.8061 O   0  0  0  0  0  0  0  0  0  0  0  0
  -32.0312  -21.6904   18.2408 O   0  0  0  0  0  0  0  0  0  0  0  0
  -31.5018  -25.1442   16.8314 O   0  0  0  0  0  0  0  0  0  0  0  0
  -28.4106  -26.3299   20.2312 O   0  0  0  0  0  0  0  0  0  0  0  0
  -32.1734  -11.9608   21.1722 O   0  0  0  0  0  0  0  0  0  0  0  0
  -21.7875   -6.9958   21.7902 O   0  0  0  0  0  0  0  0  0  0  0  0
  -26.3219  -19.8976   21.0148 O   0  0  0  0  0  0  0  0  0  1  0  0
  -22.8347   -2.6398   18.5758 F   0  0  0  0  0  0  0  0  0  0  0  0
  -19.7898   -5.8472   20.2629 F   0  0  0  0  0  0  0  0  0  0  0  0
  1  2  1  0  0  0  0
  1  5  2  0  0  0  0
  2  6  2  0  0  0  0
  3  8  2  0  0  0  0
  3 17  1  0  0  0  0
  4  9  1  0  0  0  0
  4 17  2  0  0  0  0
  5 19  1  0  0  0  0
  6 21  1  0  0  0  0
  7 10  2  0  0  0  0
  7 20  1  0  0  0  0
  8 25  1  0  0  0  0
  9 25  2  0  0  0  0
 10 26  1  0  0  0  0
 11 12  2  0  0  0  0
 11 27  1  0  0  0  0
 12 28  1  0  0  0  0
 13 22  1  0  0  0  0
 13 26  2  0  0  0  0
 14 28  2  0  0  0  0
 14 29  1  0  0  0  0
 15 23  2  0  0  0  0
 15 67  1  0  0  0  0
 16 24  2  0  0  0  0
 16 67  1  0  0  0  0
 17 30  1  0  0  0  0
 18 30  1  0  0  0  0
 18 31  2  0  0  0  0
 18 32  1  0  0  0  0
 19 21  2  0  0  0  0
 19 37  1  0  0  0  0
 20 22  2  0  0  0  0
 20 38  1  0  0  0  0
 21 46  1  0  0  0  0
 22 39  1  0  0  0  0
 23 24  1  0  0  0  0
 23 49  1  0  0  0  0
 24 62  1  0  0  0  0
 25 82  1  0  0  0  0
 26 83  1  0  0  0  0
 27 29  2  0  0  0  0
 27 82  1  0  0  0  0
 28 84  1  0  0  0  0
 29 85  1  0  0  0  0
 30 66  2  0  0  0  0
 31 68  1  0  0  0  0
 31 71  1  0  0  0  0
 32 72  1  0  0  0  0
 32 77  2  0  0  0  0
 33 47  1  0  0  0  0
 33 73  1  0  0  0  0
 33 78  2  0  0  0  0
 34 63  1  0  0  0  0
 34 69  1  0  0  0  0
 34 79  2  0  0  0  0
 35 64  1  0  0  0  0
 35 74  1  0  0  0  0
 35 80  2  0  0  0  0
 36 70  1  0  0  0  0
 36 75  1  0  0  0  0
 36 81  2  0  0  0  0
 37 40  1  0  0  0  0
 38 47  1  0  0  0  0
 39 69  1  0  0  0  0
 40 42  1  0  0  0  0
 41 43  1  0  0  0  0
 41 44  1  0  0  0  0
 42 46  1  0  0  0  0
 43 48  1  0  0  0  0
 44 70  1  0  0  0  0
 45 48  1  0  0  0  0
 45 70  1  0  0  0  0
 46 73  1  0  0  0  0
 47 69  1  0  0  0  0
 48 68  1  0  0  0  0
 50 62  1  0  0  0  0
 51 64  1  0  0  0  0
 52 65  1  0  0  0  0
 53 65  1  0  0  0  0
 54 65  1  0  0  0  0
 55 75  1  0  0  0  0
 56 76  1  0  0  0  0
 57 58  1  0  0  0  0
 57 61  1  0  0  0  0
 58 62  1  0  0  0  0
 59 60  1  0  0  0  0
 59 67  1  0  0  0  0
 60 75  1  0  0  0  0
 61 83  1  0  0  0  0
 63 65  1  0  0  0  0
 63 74  1  0  0  0  0
 64 76  1  0  0  0  0
 66 68  1  0  0  0  0
M  CHG  1  76   1
M  ISO  4  36 100  61 101  75 100  83 101
M  END
> <Batch ID>
0085

> <Smiles>
CNC(C)C(=O)NC(C(=O)N1Cc2cc([101O:1][101CH2:1]CCC(C)c3cn(CC[100N:0](C)[100C:0](=O)N4CCCC(n5nc(-c6ccc(Oc7ccc(F)cc7F)cc6)c(C(N)=O)c5N)C4)cc3C)ccc2CC1C(=O)NC1CCCc2ccccc21)C(C)(C)C

> <Shape>
0.210

> <Color>
0.198

> <Negative vol penalty>
0.000

$$$$

  -OEChem-04052318563D

 85 93  0     1  0  0  0  0  0999 V2000
  -21.6903  -11.8571   21.1956 C   0  0  0  0  0  0  0  0  0  0  0  0
  -21.8525  -13.0802   21.8384 C   0  0  0  0  0  0  0  0  0  0  0  0
  -25.0128  -28.0367   19.1107 C   0  0  0  0  0  0  0  0  0  0  0  0
  -25.7754  -27.9975   21.4029 C   0  0  0  0  0  0  0  0  0  0  0  0
  -22.7786  -11.2494   20.5710 C   0  0  0  0  0  0  0  0  0  0  0  0
  -23.1035  -13.6958   21.8579 C   0  0  0  0  0  0  0  0  0  0  0  0
  -22.8478  -18.6481   20.8311 C   0  0  0  0  0  0  0  0  0  0  0  0
  -26.1799  -28.7010   18.7338 C   0  0  0  0  0  0  0  0  0  0  0  0
  -26.9425  -28.6618   21.0259 C   0  0  0  0  0  0  0  0  0  0  0  0
  -22.4253  -19.4904   21.8586 C   0  0  0  0  0  0  0  0  0  0  0  0
  -30.2861  -30.0272   20.6078 C   0  0  0  0  0  0  0  0  0  0  0  0
  -31.4954  -29.5556   21.1184 C   0  0  0  0  0  0  0  0  0  0  0  0
  -24.7204  -20.0795   22.3112 C   0  0  0  0  0  0  0  0  0  0  0  0
  -19.0955  -22.8256   26.2958 C   0  0  0  0  0  0  0  0  0  0  0  0
  -31.1004  -27.4128   20.0745 C   0  0  0  0  0  0  0  0  0  0  0  0
  -17.2373  -21.3748   24.9219 C   0  0  0  0  0  0  0  0  0  0  0  0
  -24.8105  -27.6850   20.4453 C   0  0  0  0  0  0  0  0  0  0  0  0
  -23.3952  -25.6079   20.8816 C   0  0  0  0  0  0  0  0  0  0  0  0
  -24.0414  -11.8626   20.5745 C   0  0  0  0  0  0  0  0  0  0  0  0
  -24.2128  -18.5066   20.5426 C   0  0  0  0  0  0  0  0  0  0  0  0
  -24.2100  -13.0951   21.2338 C   0  0  0  0  0  0  0  0  0  0  0  0
  -25.1574  -19.2367   21.2778 C   0  0  0  0  0  0  0  0  0  0  0  0
  -19.3259  -21.4757   26.0549 C   0  0  0  0  0  0  0  0  0  0  0  0
  -27.1448  -29.0136   19.6914 C   0  0  0  0  0  0  0  0  0  0  0  0
  -23.3618  -20.2040   22.6008 C   0  0  0  0  0  0  0  0  0  0  0  0
  -29.4838  -29.1917   19.8307 C   0  0  0  0  0  0  0  0  0  0  0  0
  -18.3841  -20.7294   25.3556 C   0  0  0  0  0  0  0  0  0  0  0  0
  -31.9026  -28.2484   20.8518 C   0  0  0  0  0  0  0  0  0  0  0  0
  -29.8910  -27.8845   19.5640 C   0  0  0  0  0  0  0  0  0  0  0  0
  -23.6049  -26.9992   20.8354 C   0  0  0  0  0  0  0  0  0  0  0  0
  -17.9169  -23.3772   25.8199 C   0  0  0  0  0  0  0  0  0  0  0  0
  -22.0981  -25.4702   21.3117 C   0  0  0  0  0  0  0  0  0  0  0  0
  -24.2928  -24.5358   20.5642 C   0  0  0  0  0  0  0  0  0  0  0  0
  -26.2768  -16.0898   20.5909 C   0  0  0  0  0  0  0  0  0  0  0  0
  -28.2768  -18.2822   19.2810 C   0  0  0  0  0  0  0  0  0  0  0  0
  -29.0785  -21.5689   18.8316 C   0  0  0  0  0  0  0  0  0  0  0  0
  -17.9275  -26.9001   24.7332 C   0  0  0  0  0  0  0  0  0  0  0  0
  -25.1987  -11.1447   19.9265 C   0  0  0  0  0  0  0  0  0  0  0  0
  -24.6505  -17.6144   19.4135 C   0  0  0  0  0  0  0  0  0  0  0  0
  -26.6332  -19.1355   20.9946 C   0  0  0  0  0  0  0  0  0  0  0  0
  -26.4063  -12.0428   19.6705 C   0  0  0  0  0  0  0  0  0  0  0  0
  -18.4198  -28.9034   21.8313 C   0  0  0  0  0  0  0  0  0  0  0  0
  -26.7185  -12.8822   20.9053 C   0  0  0  0  0  0  0  0  0  0  0  0
  -19.7973  -28.4763   21.3214 C   0  0  0  0  0  0  0  0  0  0  0  0
  -18.3612  -28.9138   23.3572 C   0  0  0  0  0  0  0  0  0  0  0  0
  -20.1521  -27.2261   23.4916 C   0  0  0  0  0  0  0  0  0  0  0  0
  -25.5457  -13.8061   21.2553 C   0  0  1  0  0  0  0  0  0  0  0  0
  -26.0986  -17.1526   19.5438 C   0  0  1  0  0  0  0  0  0  0  0  0
  -20.2434  -27.1463   21.9581 C   0  0  2  0  0  0  0  0  0  0  0  0
  -30.7901  -23.0483   17.7458 C   0  0  0  0  0  0  0  0  0  0  0  0
  -16.9257  -17.7680   24.4675 C   0  0  0  0  0  0  0  0  0  0  0  0
  -18.2734  -17.5415   26.5851 C   0  0  0  0  0  0  0  0  0  0  0  0
  -30.2555  -17.6235   21.5083 C   0  0  0  0  0  0  0  0  0  0  0  0
  -31.4786  -19.7358   20.9513 C   0  0  0  0  0  0  0  0  0  0  0  0
  -31.2879  -17.9214   19.2501 C   0  0  0  0  0  0  0  0  0  0  0  0
  -27.0458  -22.8466   17.1012 C   0  0  0  0  0  0  0  0  0  0  0  0
  -20.5973  -20.8394   26.5573 C   0  0  0  0  0  0  0  0  0  0  0  0
  -17.6364  -24.8234   26.0605 C   0  0  0  0  0  0  0  0  0  0  0  0
  -21.8309  -21.1837   25.7199 C   0  0  0  0  0  0  0  0  0  0  0  0
  -21.7509  -20.6696   24.2872 C   0  0  0  0  0  0  0  0  0  1  0  0
  -29.2489  -19.3016   19.8240 C   0  0  1  0  0  0  0  0  0  0  0  0
  -29.4462  -22.3548   17.5859 C   0  0  2  0  0  0  0  0  0  0  0  0
  -17.5949  -18.5016   25.6199 C   0  0  0  0  0  0  0  0  0  0  0  0
  -30.5401  -18.6462   20.3903 C   0  0  0  0  0  0  0  0  0  0  0  0
  -16.9785  -22.6841   25.1368 N   0  0  0  0  0  0  0  0  0  0  0  0
  -22.5272  -27.6956   21.2064 N   0  0  0  0  0  0  0  0  0  0  0  0
  -21.6278  -26.7380   21.4897 N   0  0  0  0  0  0  0  0  0  0  0  0
  -27.0119  -18.2452   19.8848 N   0  0  0  0  0  0  0  0  0  0  0  0
  -18.7949  -27.6233   23.8979 N   0  0  0  0  0  0  0  0  0  0  0  0
  -21.3253  -24.3895   21.5511 N   0  0  0  0  0  0  0  0  0  0  0  0
  -25.5893  -24.8541   20.1375 N   0  0  0  0  0  0  0  0  0  0  0  0
  -25.5239  -14.9520   20.3716 N   0  0  0  0  0  0  0  0  0  0  0  0
  -29.4862  -20.2545   18.7451 N   0  0  0  0  0  0  0  0  0  0  0  0
  -18.4141  -25.6841   25.1972 N   0  0  0  0  0  0  0  0  0  0  0  0
  -28.4131  -23.3911   17.3036 N   0  3  0  0  0  0  0  0  0  0  0  0
  -23.9498  -23.3316   20.6405 O   0  0  0  0  0  0  0  0  0  0  0  0
  -27.0420  -16.2867   21.5276 O   0  0  0  0  0  0  0  0  0  0  0  0
  -28.6244  -17.5507   18.3506 O   0  0  0  0  0  0  0  0  0  0  0  0
  -28.4919  -22.0716   19.7874 O   0  0  0  0  0  0  0  0  0  0  0  0
  -16.8008  -27.3055   25.0383 O   0  0  0  0  0  0  0  0  0  0  0  0
  -28.2839  -29.6616   19.3238 O   0  0  0  0  0  0  0  0  0  0  0  0
  -22.9522  -21.0264   23.6047 O   0  0  0  0  0  0  0  0  0  1  0  0
  -18.5668  -19.4093   25.0983 O   0  0  0  0  0  0  0  0  0  0  0  0
  -33.0646  -27.7961   21.3408 F   0  0  0  0  0  0  0  0  0  0  0  0
  -29.1252  -27.0775   18.8170 F   0  0  0  0  0  0  0  0  0  0  0  0
  1  2  1  0  0  0  0
  1  5  2  0  0  0  0
  2  6  2  0  0  0  0
  3  8  2  0  0  0  0
  3 17  1  0  0  0  0
  4  9  1  0  0  0  0
  4 17  2  0  0  0  0
  5 19  1  0  0  0  0
  6 21  1  0  0  0  0
  7 10  2  0  0  0  0
  7 20  1  0  0  0  0
  8 24  1  0  0  0  0
  9 24  2  0  0  0  0
 10 25  1  0  0  0  0
 11 12  2  0  0  0  0
 11 26  1  0  0  0  0
 12 28  1  0  0  0  0
 13 22  1  0  0  0  0
 13 25  2  0  0  0  0
 14 23  1  0  0  0  0
 14 31  2  0  0  0  0
 15 28  2  0  0  0  0
 15 29  1  0  0  0  0
 16 27  1  0  0  0  0
 16 65  2  0  0  0  0
 17 30  1  0  0  0  0
 18 30  1  0  0  0  0
 18 32  2  0  0  0  0
 18 33  1  0  0  0  0
 19 21  2  0  0  0  0
 19 38  1  0  0  0  0
 20 22  2  0  0  0  0
 20 39  1  0  0  0  0
 21 47  1  0  0  0  0
 22 40  1  0  0  0  0
 23 27  2  0  0  0  0
 23 57  1  0  0  0  0
 24 81  1  0  0  0  0
 25 82  1  0  0  0  0
 26 29  2  0  0  0  0
 26 81  1  0  0  0  0
 27 83  1  0  0  0  0
 28 84  1  0  0  0  0
 29 85  1  0  0  0  0
 30 66  2  0  0  0  0
 31 58  1  0  0  0  0
 31 65  1  0  0  0  0
 32 67  1  0  0  0  0
 32 70  1  0  0  0  0
 33 71  1  0  0  0  0
 33 76  2  0  0  0  0
 34 48  1  0  0  0  0
 34 72  1  0  0  0  0
 34 77  2  0  0  0  0
 35 61  1  0  0  0  0
 35 68  1  0  0  0  0
 35 78  2  0  0  0  0
 36 62  1  0  0  0  0
 36 73  1  0  0  0  0
 36 79  2  0  0  0  0
 37 69  1  0  0  0  0
 37 74  1  0  0  0  0
 37 80  2  0  0  0  0
 38 41  1  0  0  0  0
 39 48  1  0  0  0  0
 40 68  1  0  0  0  0
 41 43  1  0  0  0  0
 42 44  1  0  0  0  0
 42 45  1  0  0  0  0
 43 47  1  0  0  0  0
 44 49  1  0  0  0  0
 45 69  1  0  0  0  0
 46 49  1  0  0  0  0
 46 69  1  0  0  0  0
 47 72  1  0  0  0  0
 48 68  1  0  0  0  0
 49 67  1  0  0  0  0
 50 62  1  0  0  0  0
 51 63  1  0  0  0  0
 52 63  1  0  0  0  0
 53 64  1  0  0  0  0
 54 64  1  0  0  0  0
 55 64  1  0  0  0  0
 56 75  1  0  0  0  0
 57 59  1  0  0  0  0
 58 74  1  0  0  0  0
 59 60  1  0  0  0  0
 60 82  1  0  0  0  0
 61 64  1  0  0  0  0
 61 73  1  0  0  0  0
 62 75  1  0  0  0  0
 63 83  1  0  0  0  0
 66 67  1  0  0  0  0
M  CHG  1  75   1
M  ISO  4  37 100  60 101  74 100  82 101
M  END
> <Batch ID>
0085

> <Smiles>
CNC(C)C(=O)NC(C(=O)N1Cc2cc([101O:1][101CH2:1]CCc3cc(C[100NH:0][100C:0](=O)N4CCCC(n5nc(-c6ccc(Oc7ccc(F)cc7F)cc6)c(C(N)=O)c5N)C4)ncc3OC(C)C)ccc2CC1C(=O)NC1CCCc2ccccc21)C(C)(C)C

> <Shape>
0.204

> <Color>
0.074

> <Negative vol penalty>
0.000

$$$$

  -OEChem-04052318563D

 83 91  0     1  0  0  0  0  0999 V2000
  -30.2944  -19.6230   25.4881 C   0  0  0  0  0  0  0  0  0  0  0  0
  -30.5901  -20.3071   24.3144 C   0  0  0  0  0  0  0  0  0  0  0  0
  -23.0439   -9.9080   19.9759 C   0  0  0  0  0  0  0  0  0  0  0  0
  -23.8126   -9.9272   22.2662 C   0  0  0  0  0  0  0  0  0  0  0  0
  -29.2247  -20.0353   26.2799 C   0  0  0  0  0  0  0  0  0  0  0  0
  -29.8238  -21.4108   23.9383 C   0  0  0  0  0  0  0  0  0  0  0  0
  -31.3717  -23.9828   20.0406 C   0  0  0  0  0  0  0  0  0  0  0  0
  -22.2692   -8.7799   20.2453 C   0  0  0  0  0  0  0  0  0  0  0  0
  -23.0378   -8.7991   22.5357 C   0  0  0  0  0  0  0  0  0  0  0  0
  -31.2814  -23.5010   18.7354 C   0  0  0  0  0  0  0  0  0  0  0  0
  -19.7910   -8.1007   23.1611 C   0  0  0  0  0  0  0  0  0  0  0  0
  -19.0378   -8.0991   24.3351 C   0  0  0  0  0  0  0  0  0  0  0  0
  -29.3844  -24.9385   18.3426 C   0  0  0  0  0  0  0  0  0  0  0  0
  -20.2275   -6.1386   25.0957 C   0  0  0  0  0  0  0  0  0  0  0  0
  -28.7167  -19.3766   18.4257 C   0  0  0  0  0  0  0  0  0  0  0  0
  -23.8157  -10.4817   20.9863 C   0  0  0  0  0  0  0  0  0  0  0  0
  -24.2274  -12.9943   20.8280 C   0  0  0  0  0  0  0  0  0  0  0  0
  -28.4376  -21.1370   25.9061 C   0  0  0  0  0  0  0  0  0  0  0  0
  -30.4608  -24.9397   20.5108 C   0  0  0  0  0  0  0  0  0  0  0  0
  -28.7549  -21.8570   24.7364 C   0  0  0  0  0  0  0  0  0  0  0  0
  -29.4669  -25.4327   19.6533 C   0  0  0  0  0  0  0  0  0  0  0  0
  -22.2661   -8.2254   21.5253 C   0  0  0  0  0  0  0  0  0  0  0  0
  -30.2858  -23.9767   17.8871 C   0  0  0  0  0  0  0  0  0  0  0  0
  -20.7624   -7.1213   22.9543 C   0  0  0  0  0  0  0  0  0  0  0  0
  -19.2561   -7.1181   25.3024 C   0  0  0  0  0  0  0  0  0  0  0  0
  -20.9807   -6.1403   23.9216 C   0  0  0  0  0  0  0  0  0  0  0  0
  -24.6167  -11.6467   20.7084 C   0  0  0  0  0  0  0  0  0  0  0  0
  -28.9616  -19.3936   19.7758 C   0  0  0  0  0  0  0  0  0  0  0  0
  -25.3386  -13.7075   20.4500 C   0  0  0  0  0  0  0  0  0  0  0  0
  -22.9735  -13.5515   21.2437 C   0  0  0  0  0  0  0  0  0  0  0  0
  -28.2814  -25.0159   22.8233 C   0  0  0  0  0  0  0  0  0  0  0  0
  -28.0342  -28.1313   21.9540 C   0  0  0  0  0  0  0  0  0  0  0  0
  -28.4513  -30.5075   19.5402 C   0  0  0  0  0  0  0  0  0  0  0  0
  -30.8494  -14.5755   20.6043 C   0  0  0  0  0  0  0  0  0  0  0  0
  -27.2965  -21.5449   26.8043 C   0  0  0  0  0  0  0  0  0  0  0  0
  -30.5883  -25.4690   21.9129 C   0  0  0  0  0  0  0  0  0  0  0  0
  -28.4770  -26.4750   20.1031 C   0  0  0  0  0  0  0  0  0  0  0  0
  -26.2785  -22.4387   26.1035 C   0  0  0  0  0  0  0  0  0  0  0  0
  -29.6364  -12.1892   18.2568 C   0  0  0  0  0  0  0  0  0  0  0  0
  -26.9911  -23.5785   25.3909 C   0  0  0  0  0  0  0  0  0  0  0  0
  -28.1930  -11.9421   18.6990 C   0  0  0  0  0  0  0  0  0  0  0  0
  -30.5640  -12.4018   19.4511 C   0  0  0  0  0  0  0  0  0  0  0  0
  -28.6888  -13.2059   20.8334 C   0  0  0  0  0  0  0  0  0  0  0  0
  -27.9163  -23.0416   24.2915 C   0  0  1  0  0  0  0  0  0  0  0  0
  -29.2894  -26.0647   22.4471 C   0  0  1  0  0  0  0  0  0  0  0  0
  -27.7056  -13.0414   19.6618 C   0  0  2  0  0  0  0  0  0  0  0  0
  -28.1263  -32.9587   19.1119 C   0  0  0  0  0  0  0  0  0  0  0  0
  -31.7927  -22.1920   15.3980 C   0  0  0  0  0  0  0  0  0  0  0  0
  -25.0333  -27.6763   21.6419 C   0  0  0  0  0  0  0  0  0  0  0  0
  -24.9166  -29.8082   20.3342 C   0  0  0  0  0  0  0  0  0  0  0  0
  -25.6529  -29.8475   22.7173 C   0  0  0  0  0  0  0  0  0  0  0  0
  -31.3424  -30.9263   19.0652 C   0  0  0  0  0  0  0  0  0  0  0  0
  -29.2321  -18.2689   20.6806 C   0  0  0  0  0  0  0  0  0  0  0  0
  -30.7281  -17.8886   20.8333 C   0  0  0  0  0  0  0  0  0  0  0  0
  -29.4580  -21.3455   15.8306 C   0  0  0  0  0  0  0  0  0  0  0  0
  -28.2408  -21.2870   16.7648 C   0  0  0  0  0  0  0  0  0  0  0  0
  -30.9800  -16.7412   21.8092 C   0  0  0  0  0  0  0  0  0  0  0  0
  -27.2011  -28.9002   20.9572 C   0  0  1  0  0  0  0  0  0  0  0  0
  -29.0932  -31.8826   19.5807 C   0  0  2  0  0  0  0  0  0  0  0  0
  -30.6293  -22.1682   16.3813 C   0  0  2  0  0  0  0  0  0  1  0  0
  -25.7183  -29.0370   21.4045 C   0  0  0  0  0  0  0  0  0  0  0  0
  -25.8768  -11.5094   20.2872 N   0  0  0  0  0  0  0  0  0  0  0  0
  -28.9283  -20.6818   20.2327 N   0  0  0  0  0  0  0  0  0  0  0  0
  -28.6669  -21.4748   19.1993 N   0  0  0  0  0  0  0  0  0  0  0  0
  -28.5402  -20.6903   18.1168 N   0  0  0  0  0  0  0  0  0  0  0  0
  -26.2889  -12.7800   20.1387 N   0  0  0  0  0  0  0  0  0  0  0  0
  -28.6389  -26.9565   21.4850 N   0  0  0  0  0  0  0  0  0  0  0  0
  -30.0458  -13.4581   20.3238 N   0  0  0  0  0  0  0  0  0  0  0  0
  -25.5858  -15.0314   20.3567 N   0  0  0  0  0  0  0  0  0  0  0  0
  -21.9379  -12.6760   21.5978 N   0  0  0  0  0  0  0  0  0  0  0  0
  -28.7257  -24.1273   23.7838 N   0  0  0  0  0  0  0  0  0  0  0  0
  -27.8829  -30.1734   20.7512 N   0  0  0  0  0  0  0  0  0  0  0  0
  -30.2796  -15.5329   21.4347 N   0  0  0  0  0  0  0  0  0  0  0  0
  -30.2973  -31.9182   18.7032 N   0  3  0  0  0  0  0  0  0  0  0  0
  -22.7719  -14.7889   21.2838 O   0  0  0  0  0  0  0  0  0  0  0  0
  -27.1813  -25.0140   22.2833 O   0  0  0  0  0  0  0  0  0  0  0  0
  -28.1502  -28.5611   23.1045 O   0  0  0  0  0  0  0  0  0  0  0  0
  -28.4508  -29.8020   18.5339 O   0  0  0  0  0  0  0  0  0  0  0  0
  -31.9880  -14.7125   20.1442 O   0  0  0  0  0  0  0  0  0  0  0  0
  -21.5099   -7.1248   21.7886 O   0  0  0  0  0  0  0  0  0  0  0  0
  -30.1950  -23.5077   16.6129 O   0  0  0  0  0  0  0  0  0  1  0  0
  -18.5337   -7.1175   26.4304 F   0  0  0  0  0  0  0  0  0  0  0  0
  -21.9134   -5.1975   23.7291 F   0  0  0  0  0  0  0  0  0  0  0  0
  1  2  1  0  0  0  0
  1  5  2  0  0  0  0
  2  6  2  0  0  0  0
  3  8  2  0  0  0  0
  3 16  1  0  0  0  0
  4  9  1  0  0  0  0
  4 16  2  0  0  0  0
  5 18  1  0  0  0  0
  6 20  1  0  0  0  0
  7 10  2  0  0  0  0
  7 19  1  0  0  0  0
  8 22  1  0  0  0  0
  9 22  2  0  0  0  0
 10 23  1  0  0  0  0
 11 12  2  0  0  0  0
 11 24  1  0  0  0  0
 12 25  1  0  0  0  0
 13 21  1  0  0  0  0
 13 23  2  0  0  0  0
 14 25  2  0  0  0  0
 14 26  1  0  0  0  0
 15 28  2  0  0  0  0
 15 65  1  0  0  0  0
 16 27  1  0  0  0  0
 17 27  1  0  0  0  0
 17 29  2  0  0  0  0
 17 30  1  0  0  0  0
 18 20  2  0  0  0  0
 18 35  1  0  0  0  0
 19 21  2  0  0  0  0
 19 36  1  0  0  0  0
 20 44  1  0  0  0  0
 21 37  1  0  0  0  0
 22 80  1  0  0  0  0
 23 81  1  0  0  0  0
 24 26  2  0  0  0  0
 24 80  1  0  0  0  0
 25 82  1  0  0  0  0
 26 83  1  0  0  0  0
 27 62  2  0  0  0  0
 28 53  1  0  0  0  0
 28 63  1  0  0  0  0
 29 66  1  0  0  0  0
 29 69  1  0  0  0  0
 30 70  1  0  0  0  0
 30 75  2  0  0  0  0
 31 45  1  0  0  0  0
 31 71  1  0  0  0  0
 31 76  2  0  0  0  0
 32 58  1  0  0  0  0
 32 67  1  0  0  0  0
 32 77  2  0  0  0  0
 33 59  1  0  0  0  0
 33 72  1  0  0  0  0
 33 78  2  0  0  0  0
 34 68  1  0  0  0  0
 34 73  1  0  0  0  0
 34 79  2  0  0  0  0
 35 38  1  0  0  0  0
 36 45  1  0  0  0  0
 37 67  1  0  0  0  0
 38 40  1  0  0  0  0
 39 41  1  0  0  0  0
 39 42  1  0  0  0  0
 40 44  1  0  0  0  0
 41 46  1  0  0  0  0
 42 68  1  0  0  0  0
 43 46  1  0  0  0  0
 43 68  1  0  0  0  0
 44 71  1  0  0  0  0
 45 67  1  0  0  0  0
 46 66  1  0  0  0  0
 47 59  1  0  0  0  0
 48 60  1  0  0  0  0
 49 61  1  0  0  0  0
 50 61  1  0  0  0  0
 51 61  1  0  0  0  0
 52 74  1  0  0  0  0
 53 54  1  0  0  0  0
 54 57  1  0  0  0  0
 55 56  1  0  0  0  0
 55 60  1  0  0  0  0
 56 65  1  0  0  0  0
 57 73  1  0  0  0  0
 58 61  1  0  0  0  0
 58 72  1  0  0  0  0
 59 74  1  0  0  0  0
 60 81  1  0  0  0  0
 62 66  1  0  0  0  0
 63 64  2  0  0  0  0
 64 65  1  0  0  0  0
M  CHG  1  74   1
M  ISO  4  34 100  60 101  73 100  81 101
M  END
> <Batch ID>
0085

> <Smiles>
CNC(C)C(=O)NC(C(=O)N1Cc2cc([101O:1][101CH:1](C)CCn3cc(CCC[100NH:0][100C:0](=O)N4CCCC(n5nc(-c6ccc(Oc7ccc(F)cc7F)cc6)c(C(N)=O)c5N)C4)nn3)ccc2CC1C(=O)NC1CCCc2ccccc21)C(C)(C)C

> <Shape>
0.296

> <Color>
0.209

> <Negative vol penalty>
0.000

$$$$

  -OEChem-04052318563D

 85 93  0     1  0  0  0  0  0999 V2000
  -19.1904  -24.6432   23.1458 C   0  0  0  0  0  0  0  0  0  0  0  0
  -20.5696  -24.4796   23.2270 C   0  0  0  0  0  0  0  0  0  0  0  0
  -26.9045  -14.9058   21.7567 C   0  0  0  0  0  0  0  0  0  0  0  0
  -26.3168  -15.0242   19.4163 C   0  0  0  0  0  0  0  0  0  0  0  0
  -18.6590  -25.8111   22.6003 C   0  0  0  0  0  0  0  0  0  0  0  0
  -21.4182  -25.4835   22.7616 C   0  0  0  0  0  0  0  0  0  0  0  0
  -26.8501  -27.0859   25.0924 C   0  0  0  0  0  0  0  0  0  0  0  0
  -26.6033  -13.5439   21.7635 C   0  0  0  0  0  0  0  0  0  0  0  0
  -26.0157  -13.6623   19.4230 C   0  0  0  0  0  0  0  0  0  0  0  0
  -28.1577  -26.7665   24.7292 C   0  0  0  0  0  0  0  0  0  0  0  0
  -23.8376  -11.6057   21.8989 C   0  0  0  0  0  0  0  0  0  0  0  0
  -23.0833  -11.1148   22.9646 C   0  0  0  0  0  0  0  0  0  0  0  0
  -28.3004  -28.8154   23.4640 C   0  0  0  0  0  0  0  0  0  0  0  0
  -29.1355  -24.5070   20.2344 C   0  0  0  0  0  0  0  0  0  0  0  0
  -24.8884   -9.6211   23.5541 C   0  0  0  0  0  0  0  0  0  0  0  0
  -26.7612  -15.6460   20.5831 C   0  0  0  0  0  0  0  0  0  0  0  0
  -28.3161  -17.6475   20.2931 C   0  0  0  0  0  0  0  0  0  0  0  0
  -19.5015  -26.8339   22.1369 C   0  0  0  0  0  0  0  0  0  0  0  0
  -26.2531  -28.2692   24.6344 C   0  0  0  0  0  0  0  0  0  0  0  0
  -20.8976  -26.6656   22.2082 C   0  0  0  0  0  0  0  0  0  0  0  0
  -26.9860  -29.1488   23.8248 C   0  0  0  0  0  0  0  0  0  0  0  0
  -30.3199  -23.8045   20.3711 C   0  0  0  0  0  0  0  0  0  0  0  0
  -26.1589  -12.9221   20.5967 C   0  0  0  0  0  0  0  0  0  0  0  0
  -28.8821  -27.6298   23.9125 C   0  0  0  0  0  0  0  0  0  0  0  0
  -25.1172  -11.1042   21.6608 C   0  0  0  0  0  0  0  0  0  0  0  0
  -23.6087  -10.1225   23.7922 C   0  0  0  0  0  0  0  0  0  0  0  0
  -25.6426  -10.1119   22.4884 C   0  0  0  0  0  0  0  0  0  0  0  0
  -27.0717  -17.0530   20.5757 C   0  0  0  0  0  0  0  0  0  0  0  0
  -28.7193  -24.8295   18.9584 C   0  0  0  0  0  0  0  0  0  0  0  0
  -31.0094  -23.4707   19.2228 C   0  0  0  0  0  0  0  0  0  0  0  0
  -28.0884  -18.9963   20.4176 C   0  0  0  0  0  0  0  0  0  0  0  0
  -29.5660  -17.0353   19.9487 C   0  0  0  0  0  0  0  0  0  0  0  0
  -23.7320  -28.9547   22.8239 C   0  0  0  0  0  0  0  0  0  0  0  0
  -24.4474  -32.0050   23.6642 C   0  0  0  0  0  0  0  0  0  0  0  0
  -26.7945  -34.2424   24.7282 C   0  0  0  0  0  0  0  0  0  0  0  0
  -24.9469  -23.5098   19.4666 C   0  0  0  0  0  0  0  0  0  0  0  0
  -18.8810  -28.0582   21.5118 C   0  0  0  0  0  0  0  0  0  0  0  0
  -24.8509  -28.6123   25.0570 C   0  0  0  0  0  0  0  0  0  0  0  0
  -26.3979  -30.4414   23.3232 C   0  0  0  0  0  0  0  0  0  0  0  0
  -19.8470  -29.2333   21.3848 C   0  0  0  0  0  0  0  0  0  0  0  0
  -24.1151  -21.5055   22.2893 C   0  0  0  0  0  0  0  0  0  0  0  0
  -21.1821  -28.7673   20.8127 C   0  0  0  0  0  0  0  0  0  0  0  0
  -24.9076  -20.2158   22.0685 C   0  0  0  0  0  0  0  0  0  0  0  0
  -23.5961  -22.0812   20.9736 C   0  0  0  0  0  0  0  0  0  0  0  0
  -25.4188  -20.9977   19.7177 C   0  0  0  0  0  0  0  0  0  0  0  0
  -21.8507  -27.7424   21.7368 C   0  0  1  0  0  0  0  0  0  0  0  0
  -24.1656  -29.5948   24.1123 C   0  0  1  0  0  0  0  0  0  0  0  0
  -26.0102  -20.4095   21.0102 C   0  0  2  0  0  0  0  0  0  0  0  0
  -32.2933  -22.7150   19.2923 C   0  0  0  0  0  0  0  0  0  0  0  0
  -27.6977  -26.9630   18.1049 C   0  0  0  0  0  0  0  0  0  0  0  0
  -27.0901  -36.6706   25.2885 C   0  0  0  0  0  0  0  0  0  0  0  0
  -24.4742  -32.6855   20.6899 C   0  0  0  0  0  0  0  0  0  0  0  0
  -25.6776  -34.8064   21.2572 C   0  0  0  0  0  0  0  0  0  0  0  0
  -23.3810  -34.4023   22.1431 C   0  0  0  0  0  0  0  0  0  0  0  0
  -27.5407  -33.6257   27.5250 C   0  0  0  0  0  0  0  0  0  0  0  0
  -30.8196  -23.4264   21.7427 C   0  0  0  0  0  0  0  0  0  0  0  0
  -31.9772  -24.2981   22.2419 C   0  0  0  0  0  0  0  0  0  0  0  0
  -31.5889  -25.7671   22.4154 C   0  0  0  0  0  0  0  0  0  0  0  0
  -26.3959  -24.8115   17.9288 C   0  0  0  0  0  0  0  0  0  0  0  0
  -30.4855  -25.9351   23.4512 C   0  0  0  0  0  0  0  0  0  1  0  0
  -27.4511  -25.5858   18.7564 C   0  0  1  0  0  0  0  0  0  0  0  0
  -25.3241  -33.0935   23.0935 C   0  0  1  0  0  0  0  0  0  0  0  0
  -26.7641  -35.2871   25.8292 C   0  0  2  0  0  0  0  0  0  0  0  0
  -24.7249  -33.7217   21.8036 C   0  0  0  0  0  0  0  0  0  0  0  0
  -26.1238  -17.9505   20.8585 N   0  0  0  0  0  0  0  0  0  0  0  0
  -29.4144  -24.4900   17.8521 N   0  0  0  0  0  0  0  0  0  0  0  0
  -30.5782  -23.7992   17.9866 N   0  0  0  0  0  0  0  0  0  0  0  0
  -26.7728  -19.1227   20.7544 N   0  0  0  0  0  0  0  0  0  0  0  0
  -25.0213  -30.7292   23.7587 N   0  0  0  0  0  0  0  0  0  0  0  0
  -24.6914  -22.2418   20.0142 N   0  0  0  0  0  0  0  0  0  0  0  0
  -28.8873  -20.0746   20.2708 N   0  0  0  0  0  0  0  0  0  0  0  0
  -29.6244  -15.6375   19.8641 N   0  0  0  0  0  0  0  0  0  0  0  0
  -22.4646  -28.4057   22.8670 N   0  0  0  0  0  0  0  0  0  0  0  0
  -25.5467  -34.0472   24.1748 N   0  0  0  0  0  0  0  0  0  0  0  0
  -26.0068  -23.5756   18.5705 N   0  0  0  0  0  0  0  0  0  0  0  0
  -27.7560  -34.9512   26.8895 N   0  3  0  0  0  0  0  0  0  0  0  0
  -30.6044  -17.7070   19.7388 O   0  0  0  0  0  0  0  0  0  0  0  0
  -24.4905  -28.9598   21.8614 O   0  0  0  0  0  0  0  0  0  0  0  0
  -23.2983  -32.2782   24.0198 O   0  0  0  0  0  0  0  0  0  0  0  0
  -27.8230  -33.6606   24.3902 O   0  0  0  0  0  0  0  0  0  0  0  0
  -24.2832  -24.5103   19.7590 O   0  0  0  0  0  0  0  0  0  0  0  0
  -25.8652  -11.5931   20.6028 O   0  0  0  0  0  0  0  0  0  0  0  0
  -30.1584  -27.3201   23.5560 O   0  0  0  0  0  0  0  0  0  1  0  0
  -22.8848   -9.6523   24.8165 F   0  0  0  0  0  0  0  0  0  0  0  0
  -26.8719   -9.6271   22.2653 F   0  0  0  0  0  0  0  0  0  0  0  0
  1  2  1  0  0  0  0
  1  5  2  0  0  0  0
  2  6  2  0  0  0  0
  3  8  2  0  0  0  0
  3 16  1  0  0  0  0
  4  9  1  0  0  0  0
  4 16  2  0  0  0  0
  5 18  1  0  0  0  0
  6 20  1  0  0  0  0
  7 10  2  0  0  0  0
  7 19  1  0  0  0  0
  8 23  1  0  0  0  0
  9 23  2  0  0  0  0
 10 24  1  0  0  0  0
 11 12  2  0  0  0  0
 11 25  1  0  0  0  0
 12 26  1  0  0  0  0
 13 21  1  0  0  0  0
 13 24  2  0  0  0  0
 14 22  1  0  0  0  0
 14 29  2  0  0  0  0
 15 26  2  0  0  0  0
 15 27  1  0  0  0  0
 16 28  1  0  0  0  0
 17 28  1  0  0  0  0
 17 31  2  0  0  0  0
 17 32  1  0  0  0  0
 18 20  2  0  0  0  0
 18 37  1  0  0  0  0
 19 21  2  0  0  0  0
 19 38  1  0  0  0  0
 20 46  1  0  0  0  0
 21 39  1  0  0  0  0
 22 30  2  0  0  0  0
 22 56  1  0  0  0  0
 23 82  1  0  0  0  0
 24 83  1  0  0  0  0
 25 27  2  0  0  0  0
 25 82  1  0  0  0  0
 26 84  1  0  0  0  0
 27 85  1  0  0  0  0
 28 65  2  0  0  0  0
 29 61  1  0  0  0  0
 29 66  1  0  0  0  0
 30 49  1  0  0  0  0
 30 67  1  0  0  0  0
 31 68  1  0  0  0  0
 31 71  1  0  0  0  0
 32 72  1  0  0  0  0
 32 77  2  0  0  0  0
 33 47  1  0  0  0  0
 33 73  1  0  0  0  0
 33 78  2  0  0  0  0
 34 62  1  0  0  0  0
 34 69  1  0  0  0  0
 34 79  2  0  0  0  0
 35 63  1  0  0  0  0
 35 74  1  0  0  0  0
 35 80  2  0  0  0  0
 36 70  1  0  0  0  0
 36 75  1  0  0  0  0
 36 81  2  0  0  0  0
 37 40  1  0  0  0  0
 38 47  1  0  0  0  0
 39 69  1  0  0  0  0
 40 42  1  0  0  0  0
 41 43  1  0  0  0  0
 41 44  1  0  0  0  0
 42 46  1  0  0  0  0
 43 48  1  0  0  0  0
 44 70  1  0  0  0  0
 45 48  1  0  0  0  0
 45 70  1  0  0  0  0
 46 73  1  0  0  0  0
 47 69  1  0  0  0  0
 48 68  1  0  0  0  0
 50 61  1  0  0  0  0
 51 63  1  0  0  0  0
 52 64  1  0  0  0  0
 53 64  1  0  0  0  0
 54 64  1  0  0  0  0
 55 76  1  0  0  0  0
 56 57  1  0  0  0  0
 57 58  1  0  0  0  0
 58 60  1  0  0  0  0
 59 61  1  0  0  0  0
 59 75  1  0  0  0  0
 60 83  1  0  0  0  0
 62 64  1  0  0  0  0
 62 74  1  0  0  0  0
 63 76  1  0  0  0  0
 65 68  1  0  0  0  0
 66 67  2  0  0  0  0
M  CHG  1  76   1
M  ISO  4  36 100  60 101  75 100  83 101
M  END
> <Batch ID>
0085

> <Smiles>
CNC(C)C(=O)NC(C(=O)N1Cc2cc([101O:1][101CH2:1]CCCc3cc(C(C)C[100NH:0][100C:0](=O)N4CCCC(n5nc(-c6ccc(Oc7ccc(F)cc7F)cc6)c(C(N)=O)c5N)C4)nnc3C)ccc2CC1C(=O)NC1CCCc2ccccc21)C(C)(C)C

> <Shape>
0.237

> <Color>
0.090

> <Negative vol penalty>
0.000

$$$$
