
  -OEChem-04052318593D

 89 97  0     1  0  0  0  0  0999 V2000
  -32.2607  -27.5605   14.7267 C   0  0  0  0  0  0  0  0  0  0  0  0
  -31.1237  -26.7884   14.9421 C   0  0  0  0  0  0  0  0  0  0  0  0
  -21.3708  -13.9139   21.6038 C   0  0  0  0  0  0  0  0  0  0  0  0
  -22.0651  -15.0627   19.5950 C   0  0  0  0  0  0  0  0  0  0  0  0
  -32.8556  -28.2356   15.7918 C   0  0  0  0  0  0  0  0  0  0  0  0
  -30.5816  -26.6899   16.2230 C   0  0  0  0  0  0  0  0  0  0  0  0
  -24.6531  -26.2198   17.6853 C   0  0  0  0  0  0  0  0  0  0  0  0
  -20.1167  -14.5182   21.5160 C   0  0  0  0  0  0  0  0  0  0  0  0
  -20.8110  -15.6670   19.5072 C   0  0  0  0  0  0  0  0  0  0  0  0
  -23.8508  -25.1266   18.0095 C   0  0  0  0  0  0  0  0  0  0  0  0
  -19.1831  -18.2500   20.9594 C   0  0  0  0  0  0  0  0  0  0  0  0
  -19.1399  -19.6151   20.6762 C   0  0  0  0  0  0  0  0  0  0  0  0
  -24.2070  -25.5684   20.3542 C   0  0  0  0  0  0  0  0  0  0  0  0
  -27.9641  -19.5448   20.1291 C   0  0  0  0  0  0  0  0  0  0  0  0
  -17.8708  -19.1591   18.6716 C   0  0  0  0  0  0  0  0  0  0  0  0
  -22.3450  -14.1861   20.6434 C   0  0  0  0  0  0  0  0  0  0  0  0
  -24.0350  -12.3353   20.1680 C   0  0  0  0  0  0  0  0  0  0  0  0
  -32.3148  -28.1531   17.0846 C   0  0  0  0  0  0  0  0  0  0  0  0
  -25.2482  -26.9902   18.6946 C   0  0  0  0  0  0  0  0  0  0  0  0
  -31.1705  -27.3634   17.3067 C   0  0  0  0  0  0  0  0  0  0  0  0
  -25.0143  -26.6724   20.0401 C   0  0  0  0  0  0  0  0  0  0  0  0
  -27.5052  -20.7089   20.7353 C   0  0  0  0  0  0  0  0  0  0  0  0
  -28.3584  -21.7985   20.8708 C   0  0  0  0  0  0  0  0  0  0  0  0
  -19.8368  -15.3948   20.4677 C   0  0  0  0  0  0  0  0  0  0  0  0
  -23.6300  -24.7991   19.3441 C   0  0  0  0  0  0  0  0  0  0  0  0
  -18.5701  -17.3394   20.0986 C   0  0  0  0  0  0  0  0  0  0  0  0
  -18.4838  -20.0697   19.5324 C   0  0  0  0  0  0  0  0  0  0  0  0
  -17.9140  -17.7940   18.9548 C   0  0  0  0  0  0  0  0  0  0  0  0
  -23.6408  -13.5626   20.7338 C   0  0  0  0  0  0  0  0  0  0  0  0
  -29.2742  -19.5212   19.6787 C   0  0  0  0  0  0  0  0  0  0  0  0
  -29.6509  -21.6739   20.3874 C   0  0  0  0  0  0  0  0  0  0  0  0
  -25.3495  -12.1924   20.5396 C   0  0  0  0  0  0  0  0  0  0  0  0
  -23.2804  -11.4075   19.3771 C   0  0  0  0  0  0  0  0  0  0  0  0
  -28.2393  -27.6593   19.5368 C   0  0  0  0  0  0  0  0  0  0  0  0
  -26.7879  -29.6619   21.6356 C   0  0  0  0  0  0  0  0  0  0  0  0
  -23.9963  -30.4446   23.4359 C   0  0  0  0  0  0  0  0  0  0  0  0
  -29.6143  -16.1201   22.0346 C   0  0  0  0  0  0  0  0  0  0  0  0
  -33.0203  -28.8626   18.2132 C   0  0  0  0  0  0  0  0  0  0  0  0
  -26.0893  -28.1823   18.3286 C   0  0  0  0  0  0  0  0  0  0  0  0
  -25.6136  -27.4798   21.1614 C   0  0  0  0  0  0  0  0  0  0  0  0
  -32.1659  -29.0080   19.4698 C   0  0  0  0  0  0  0  0  0  0  0  0
  -28.4143  -13.4091   24.0062 C   0  0  0  0  0  0  0  0  0  0  0  0
  -31.4811  -27.6870   19.8056 C   0  0  0  0  0  0  0  0  0  0  0  0
  -27.0904  -13.0303   23.3401 C   0  0  0  0  0  0  0  0  0  0  0  0
  -28.6509  -14.9174   23.9742 C   0  0  0  0  0  0  0  0  0  0  0  0
  -27.2366  -15.1514   21.9695 C   0  0  0  0  0  0  0  0  0  0  0  0
  -30.5384  -27.2518   18.6771 C   0  0  1  0  0  0  0  0  0  0  0  0
  -27.0628  -28.5878   19.4310 C   0  0  1  0  0  0  0  0  0  0  0  0
  -26.9802  -13.6352   21.9275 C   0  0  2  0  0  0  0  0  0  0  0  0
  -27.8930  -23.0610   21.5147 C   0  0  0  0  0  0  0  0  0  0  0  0
  -30.6132  -22.8107   20.5028 C   0  0  0  0  0  0  0  0  0  0  0  0
  -30.6498  -15.4987   18.2011 C   0  0  0  0  0  0  0  0  0  0  0  0
  -23.1243  -32.1175   25.0907 C   0  0  0  0  0  0  0  0  0  0  0  0
  -23.2508  -19.6657   21.2583 C   0  0  0  0  0  0  0  0  0  0  0  0
  -28.4010  -28.3124   23.8462 C   0  0  0  0  0  0  0  0  0  0  0  0
  -26.8329  -29.3266   25.5137 C   0  0  0  0  0  0  0  0  0  0  0  0
  -28.2216  -30.7981   24.0546 C   0  0  0  0  0  0  0  0  0  0  0  0
  -21.8552  -31.3256   21.5924 C   0  0  0  0  0  0  0  0  0  0  0  0
  -26.0839  -20.7628   21.2380 C   0  0  0  0  0  0  0  0  0  0  0  0
  -29.8005  -18.2890   19.0218 C   0  0  0  0  0  0  0  0  0  0  0  0
  -31.3732  -16.3108   19.2681 C   0  0  0  0  0  0  0  0  0  0  0  0
  -25.0428  -21.0286   20.1419 C   0  0  0  0  0  0  0  0  0  0  0  0
  -22.5500  -21.3593   19.5090 C   0  0  0  0  0  0  0  0  0  0  0  0
  -22.8216  -22.6461   18.7381 C   0  0  0  0  0  0  0  0  0  1  0  0
  -26.2733  -29.5388   23.0494 C   0  0  1  0  0  0  0  0  0  0  0  0
  -23.2503  -31.7539   23.6194 C   0  0  2  0  0  0  0  0  0  0  0  0
  -23.5718  -21.0176   20.6098 C   0  0  1  0  0  0  0  0  0  0  0  0
  -30.4447  -17.2865   20.0075 C   0  0  2  0  0  0  0  0  0  0  0  0
  -27.4223  -29.4774   24.0951 C   0  0  0  0  0  0  0  0  0  0  0  0
  -24.6252  -14.1569   21.4134 N   0  0  0  0  0  0  0  0  0  0  0  0
  -30.1325  -20.5594   19.7927 N   0  0  0  0  0  0  0  0  0  0  0  0
  -25.6509  -13.2994   21.2770 N   0  0  0  0  0  0  0  0  0  0  0  0
  -26.4336  -28.6321   20.7525 N   0  0  0  0  0  0  0  0  0  0  0  0
  -28.5339  -15.4280   22.6061 N   0  0  0  0  0  0  0  0  0  0  0  0
  -26.2654  -11.2289   20.3043 N   0  0  0  0  0  0  0  0  0  0  0  0
  -21.9426  -11.7093   19.0882 N   0  0  0  0  0  0  0  0  0  0  0  0
  -29.3052  -28.0074   18.7292 N   0  0  0  0  0  0  0  0  0  0  0  0
  -25.3465  -30.6485   23.2446 N   0  0  0  0  0  0  0  0  0  0  0  0
  -29.4227  -16.5646   20.7322 N   0  0  0  0  0  0  0  0  0  0  0  0
  -21.8805  -31.6552   23.0408 N   0  3  0  0  0  0  0  0  0  0  0  0
  -23.7730  -10.3345   18.9534 O   0  0  0  0  0  0  0  0  0  0  0  0
  -28.1848  -26.6990   20.2961 O   0  0  0  0  0  0  0  0  0  0  0  0
  -27.4727  -30.6395   21.3242 O   0  0  0  0  0  0  0  0  0  0  0  0
  -23.4377  -29.3502   23.4636 O   0  0  0  0  0  0  0  0  0  0  0  0
  -30.6734  -16.3220   22.6384 O   0  0  0  0  0  0  0  0  0  0  0  0
  -18.6132  -15.9845   20.3816 O   0  0  0  0  0  0  0  0  0  0  0  0
  -22.8478  -23.7322   19.6633 O   0  0  0  0  0  0  0  0  0  1  0  0
  -18.4411  -21.3807   19.2614 F   0  0  0  0  0  0  0  0  0  0  0  0
  -17.3223  -16.9241   18.1247 F   0  0  0  0  0  0  0  0  0  0  0  0
  1  2  1  0  0  0  0
  1  5  2  0  0  0  0
  2  6  2  0  0  0  0
  3  8  2  0  0  0  0
  3 16  1  0  0  0  0
  4  9  1  0  0  0  0
  4 16  2  0  0  0  0
  5 18  1  0  0  0  0
  6 20  1  0  0  0  0
  7 10  2  0  0  0  0
  7 19  1  0  0  0  0
  8 24  1  0  0  0  0
  9 24  2  0  0  0  0
 10 25  1  0  0  0  0
 11 12  2  0  0  0  0
 11 26  1  0  0  0  0
 12 27  1  0  0  0  0
 13 21  1  0  0  0  0
 13 25  2  0  0  0  0
 14 22  2  0  0  0  0
 14 30  1  0  0  0  0
 15 27  2  0  0  0  0
 15 28  1  0  0  0  0
 16 29  1  0  0  0  0
 17 29  1  0  0  0  0
 17 32  2  0  0  0  0
 17 33  1  0  0  0  0
 18 20  2  0  0  0  0
 18 38  1  0  0  0  0
 19 21  2  0  0  0  0
 19 39  1  0  0  0  0
 20 47  1  0  0  0  0
 21 40  1  0  0  0  0
 22 23  1  0  0  0  0
 22 59  1  0  0  0  0
 23 31  2  0  0  0  0
 23 50  1  0  0  0  0
 24 86  1  0  0  0  0
 25 87  1  0  0  0  0
 26 28  2  0  0  0  0
 26 86  1  0  0  0  0
 27 88  1  0  0  0  0
 28 89  1  0  0  0  0
 29 70  2  0  0  0  0
 30 60  1  0  0  0  0
 30 71  2  0  0  0  0
 31 51  1  0  0  0  0
 31 71  1  0  0  0  0
 32 72  1  0  0  0  0
 32 75  1  0  0  0  0
 33 76  1  0  0  0  0
 33 81  2  0  0  0  0
 34 48  1  0  0  0  0
 34 77  1  0  0  0  0
 34 82  2  0  0  0  0
 35 65  1  0  0  0  0
 35 73  1  0  0  0  0
 35 83  2  0  0  0  0
 36 66  1  0  0  0  0
 36 78  1  0  0  0  0
 36 84  2  0  0  0  0
 37 74  1  0  0  0  0
 37 79  1  0  0  0  0
 37 85  2  0  0  0  0
 38 41  1  0  0  0  0
 39 48  1  0  0  0  0
 40 73  1  0  0  0  0
 41 43  1  0  0  0  0
 42 44  1  0  0  0  0
 42 45  1  0  0  0  0
 43 47  1  0  0  0  0
 44 49  1  0  0  0  0
 45 74  1  0  0  0  0
 46 49  1  0  0  0  0
 46 74  1  0  0  0  0
 47 77  1  0  0  0  0
 48 73  1  0  0  0  0
 49 72  1  0  0  0  0
 52 61  1  0  0  0  0
 53 66  1  0  0  0  0
 54 67  1  0  0  0  0
 55 69  1  0  0  0  0
 56 69  1  0  0  0  0
 57 69  1  0  0  0  0
 58 80  1  0  0  0  0
 59 62  1  0  0  0  0
 60 68  1  0  0  0  0
 61 68  1  0  0  0  0
 62 67  1  0  0  0  0
 63 64  1  0  0  0  0
 63 67  1  0  0  0  0
 64 87  1  0  0  0  0
 65 69  1  0  0  0  0
 65 78  1  0  0  0  0
 66 80  1  0  0  0  0
 68 79  1  0  0  0  0
 70 72  1  0  0  0  0
M  CHG  1  80   1
M  ISO  4  37 100  64 101  79 100  87 101
M  END
> <Batch ID>
0086

> <Smiles>
CCC(Cc1cc(CCC(C)C[101CH2:1][101O:1]c2ccc3c(c2)CN(C(=O)C(NC(=O)C(C)NC)C(C)(C)C)C(C(=O)NC2CCCc4ccccc42)C3)c(C)c(C)n1)[100NH:0][100C:0](=O)N1CCCC(n2nc(-c3ccc(Oc4ccc(F)cc4F)cc3)c(C(N)=O)c2N)C1

> <Shape>
0.217

> <Color>
0.076

> <Negative vol penalty>
0.000

$$$$

  -OEChem-04052318593D

 88 96  0     1  0  0  0  0  0999 V2000
  -18.6807  -10.3954   25.7533 C   0  0  0  0  0  0  0  0  0  0  0  0
  -19.4768  -11.4751   25.3847 C   0  0  0  0  0  0  0  0  0  0  0  0
  -23.0002   -9.8995   19.9869 C   0  0  0  0  0  0  0  0  0  0  0  0
  -23.7307   -9.9558   22.2891 C   0  0  0  0  0  0  0  0  0  0  0  0
  -17.6032  -10.0197   24.9522 C   0  0  0  0  0  0  0  0  0  0  0  0
  -19.1964  -12.1791   24.2141 C   0  0  0  0  0  0  0  0  0  0  0  0
  -19.4198  -17.1964   24.8636 C   0  0  0  0  0  0  0  0  0  0  0  0
  -22.2336   -8.7662   20.2578 C   0  0  0  0  0  0  0  0  0  0  0  0
  -22.9640   -8.8225   22.5600 C   0  0  0  0  0  0  0  0  0  0  0  0
  -20.6864  -17.7778   24.9013 C   0  0  0  0  0  0  0  0  0  0  0  0
  -23.2052   -5.4822   22.0959 C   0  0  0  0  0  0  0  0  0  0  0  0
  -23.7938   -4.4665   22.8492 C   0  0  0  0  0  0  0  0  0  0  0  0
  -20.4357  -18.4586   22.6007 C   0  0  0  0  0  0  0  0  0  0  0  0
  -27.4683  -17.8932   22.7341 C   0  0  0  0  0  0  0  0  0  0  0  0
  -22.0739   -4.7148   24.5278 C   0  0  0  0  0  0  0  0  0  0  0  0
  -23.7488  -10.4943   21.0025 C   0  0  0  0  0  0  0  0  0  0  0  0
  -24.1353  -13.0092   20.8193 C   0  0  0  0  0  0  0  0  0  0  0  0
  -17.3037  -10.7254   23.7763 C   0  0  0  0  0  0  0  0  0  0  0  0
  -18.6548  -17.2323   23.6889 C   0  0  0  0  0  0  0  0  0  0  0  0
  -18.1147  -11.8116   23.3958 C   0  0  0  0  0  0  0  0  0  0  0  0
  -19.1586  -17.8792   22.5514 C   0  0  0  0  0  0  0  0  0  0  0  0
  -26.3110  -18.2943   22.0902 C   0  0  0  0  0  0  0  0  0  0  0  0
  -22.2154   -8.2277   21.5444 C   0  0  0  0  0  0  0  0  0  0  0  0
  -21.1957  -18.4065   23.7689 C   0  0  0  0  0  0  0  0  0  0  0  0
  -22.0509   -6.1143   22.5586 C   0  0  0  0  0  0  0  0  0  0  0  0
  -23.2282   -4.0828   24.0652 C   0  0  0  0  0  0  0  0  0  0  0  0
  -21.4853   -5.7305   23.7745 C   0  0  0  0  0  0  0  0  0  0  0  0
  -24.5414  -11.6647   20.7231 C   0  0  0  0  0  0  0  0  0  0  0  0
  -28.6760  -18.1801   22.1304 C   0  0  0  0  0  0  0  0  0  0  0  0
  -26.4380  -18.9561   20.8854 C   0  0  0  0  0  0  0  0  0  0  0  0
  -25.2447  -13.7302   20.4506 C   0  0  0  0  0  0  0  0  0  0  0  0
  -22.8686  -13.5574   21.2074 C   0  0  0  0  0  0  0  0  0  0  0  0
  -17.4634  -15.0396   21.7200 C   0  0  0  0  0  0  0  0  0  0  0  0
  -16.0523  -17.6118   20.3361 C   0  0  0  0  0  0  0  0  0  0  0  0
  -16.0773  -20.9783   19.7768 C   0  0  0  0  0  0  0  0  0  0  0  0
  -30.7422  -14.6619   20.6842 C   0  0  0  0  0  0  0  0  0  0  0  0
  -16.1572  -10.2526   22.9180 C   0  0  0  0  0  0  0  0  0  0  0  0
  -17.2793  -16.6238   23.6725 C   0  0  0  0  0  0  0  0  0  0  0  0
  -18.3690  -17.9629   21.2716 C   0  0  0  0  0  0  0  0  0  0  0  0
  -15.7014  -11.2834   21.8885 C   0  0  0  0  0  0  0  0  0  0  0  0
  -29.5946  -12.2331   18.3474 C   0  0  0  0  0  0  0  0  0  0  0  0
  -16.9033  -11.8835   21.1658 C   0  0  0  0  0  0  0  0  0  0  0  0
  -28.1469  -11.9754   18.7689 C   0  0  0  0  0  0  0  0  0  0  0  0
  -30.4999  -12.4710   19.5540 C   0  0  0  0  0  0  0  0  0  0  0  0
  -28.5934  -13.2710   20.8951 C   0  0  0  0  0  0  0  0  0  0  0  0
  -17.8276  -12.6155   22.1462 C   0  0  1  0  0  0  0  0  0  0  0  0
  -16.7988  -16.2706   22.2683 C   0  0  1  0  0  0  0  0  0  0  0  0
  -27.6315  -13.0810   19.7098 C   0  0  2  0  0  0  0  0  0  0  0  0
  -14.8157  -22.7851   18.5762 C   0  0  0  0  0  0  0  0  0  0  0  0
  -29.7995  -17.0176   24.1511 C   0  0  0  0  0  0  0  0  0  0  0  0
  -30.8254  -19.0240   23.1130 C   0  0  0  0  0  0  0  0  0  0  0  0
  -24.3916  -20.4221   20.9786 C   0  0  0  0  0  0  0  0  0  0  0  0
  -24.3065  -18.2201   19.7621 C   0  0  0  0  0  0  0  0  0  0  0  0
  -25.5279  -20.1520   18.7837 C   0  0  0  0  0  0  0  0  0  0  0  0
  -17.2612  -16.6938   17.6893 C   0  0  0  0  0  0  0  0  0  0  0  0
  -16.7882  -18.9714   16.7634 C   0  0  0  0  0  0  0  0  0  0  0  0
  -14.9072  -17.5229   17.5292 C   0  0  0  0  0  0  0  0  0  0  0  0
  -15.4748  -22.3970   22.3033 C   0  0  0  0  0  0  0  0  0  0  0  0
  -24.9653  -18.0065   22.7066 C   0  0  0  0  0  0  0  0  0  0  0  0
  -24.7847  -18.6105   24.1010 C   0  0  0  0  0  0  0  0  0  0  0  0
  -30.8290  -16.8438   21.8637 C   0  0  0  0  0  0  0  0  0  0  0  0
  -23.3924  -18.3873   24.6799 C   0  0  0  0  0  0  0  0  0  1  0  0
  -16.4337  -18.5817   19.2440 C   0  0  1  0  0  0  0  0  0  0  0  0
  -14.9831  -22.0252   19.8828 C   0  0  2  0  0  0  0  0  0  0  0  0
  -29.9518  -17.7693   22.7822 C   0  0  0  0  0  0  0  0  0  0  0  0
  -25.2351  -19.4175   20.1340 C   0  0  0  0  0  0  0  0  0  0  0  0
  -16.3635  -17.9394   17.8298 C   0  0  0  0  0  0  0  0  0  0  0  0
  -25.8097  -11.5365   20.3244 N   0  0  0  0  0  0  0  0  0  0  0  0
  -28.7707  -18.8291   20.9506 N   0  0  0  0  0  0  0  0  0  0  0  0
  -27.6332  -19.2237   20.3180 N   0  0  0  0  0  0  0  0  0  0  0  0
  -26.2101  -12.8096   20.1666 N   0  0  0  0  0  0  0  0  0  0  0  0
  -17.0319  -17.3473   21.3037 N   0  0  0  0  0  0  0  0  0  0  0  0
  -29.9557  -13.5322   20.4046 N   0  0  0  0  0  0  0  0  0  0  0  0
  -25.4787  -15.0555   20.3446 N   0  0  0  0  0  0  0  0  0  0  0  0
  -21.8370  -12.6748   21.5555 N   0  0  0  0  0  0  0  0  0  0  0  0
  -17.2764  -13.9084   22.4912 N   0  0  0  0  0  0  0  0  0  0  0  0
  -15.5729  -19.7472   19.4143 N   0  0  0  0  0  0  0  0  0  0  0  0
  -30.1483  -15.6231   21.4930 N   0  0  0  0  0  0  0  0  0  0  0  0
  -15.3061  -23.0049   20.9583 N   0  3  0  0  0  0  0  0  0  0  0  0
  -22.6527  -14.7929   21.2285 O   0  0  0  0  0  0  0  0  0  0  0  0
  -18.0976  -15.1106   20.6738 O   0  0  0  0  0  0  0  0  0  0  0  0
  -14.9241  -17.1128   20.3349 O   0  0  0  0  0  0  0  0  0  0  0  0
  -17.2615  -21.2285   19.9902 O   0  0  0  0  0  0  0  0  0  0  0  0
  -31.8867  -14.8060   20.2411 O   0  0  0  0  0  0  0  0  0  0  0  0
  -21.4673   -7.1219   21.8092 O   0  0  0  0  0  0  0  0  0  0  0  0
  -22.4320  -18.9742   23.8027 O   0  0  0  0  0  0  0  0  0  1  0  0
  -23.7926   -3.1063   24.7877 F   0  0  0  0  0  0  0  0  0  0  0  0
  -20.3758   -6.3332   24.2235 F   0  0  0  0  0  0  0  0  0  0  0  0
  1  2  1  0  0  0  0
  1  5  2  0  0  0  0
  2  6  2  0  0  0  0
  3  8  2  0  0  0  0
  3 16  1  0  0  0  0
  4  9  1  0  0  0  0
  4 16  2  0  0  0  0
  5 18  1  0  0  0  0
  6 20  1  0  0  0  0
  7 10  2  0  0  0  0
  7 19  1  0  0  0  0
  8 23  1  0  0  0  0
  9 23  2  0  0  0  0
 10 24  1  0  0  0  0
 11 12  2  0  0  0  0
 11 25  1  0  0  0  0
 12 26  1  0  0  0  0
 13 21  1  0  0  0  0
 13 24  2  0  0  0  0
 14 22  1  0  0  0  0
 14 29  2  0  0  0  0
 15 26  2  0  0  0  0
 15 27  1  0  0  0  0
 16 28  1  0  0  0  0
 17 28  1  0  0  0  0
 17 31  2  0  0  0  0
 17 32  1  0  0  0  0
 18 20  2  0  0  0  0
 18 37  1  0  0  0  0
 19 21  2  0  0  0  0
 19 38  1  0  0  0  0
 20 46  1  0  0  0  0
 21 39  1  0  0  0  0
 22 30  2  0  0  0  0
 22 59  1  0  0  0  0
 23 85  1  0  0  0  0
 24 86  1  0  0  0  0
 25 27  2  0  0  0  0
 25 85  1  0  0  0  0
 26 87  1  0  0  0  0
 27 88  1  0  0  0  0
 28 68  2  0  0  0  0
 29 65  1  0  0  0  0
 29 69  1  0  0  0  0
 30 66  1  0  0  0  0
 30 70  1  0  0  0  0
 31 71  1  0  0  0  0
 31 74  1  0  0  0  0
 32 75  1  0  0  0  0
 32 80  2  0  0  0  0
 33 47  1  0  0  0  0
 33 76  1  0  0  0  0
 33 81  2  0  0  0  0
 34 63  1  0  0  0  0
 34 72  1  0  0  0  0
 34 82  2  0  0  0  0
 35 64  1  0  0  0  0
 35 77  1  0  0  0  0
 35 83  2  0  0  0  0
 36 73  1  0  0  0  0
 36 78  1  0  0  0  0
 36 84  2  0  0  0  0
 37 40  1  0  0  0  0
 38 47  1  0  0  0  0
 39 72  1  0  0  0  0
 40 42  1  0  0  0  0
 41 43  1  0  0  0  0
 41 44  1  0  0  0  0
 42 46  1  0  0  0  0
 43 48  1  0  0  0  0
 44 73  1  0  0  0  0
 45 48  1  0  0  0  0
 45 73  1  0  0  0  0
 46 76  1  0  0  0  0
 47 72  1  0  0  0  0
 48 71  1  0  0  0  0
 49 64  1  0  0  0  0
 50 65  1  0  0  0  0
 51 65  1  0  0  0  0
 52 66  1  0  0  0  0
 53 66  1  0  0  0  0
 54 66  1  0  0  0  0
 55 67  1  0  0  0  0
 56 67  1  0  0  0  0
 57 67  1  0  0  0  0
 58 79  1  0  0  0  0
 59 60  1  0  0  0  0
 60 62  1  0  0  0  0
 61 65  1  0  0  0  0
 61 78  1  0  0  0  0
 62 86  1  0  0  0  0
 63 67  1  0  0  0  0
 63 77  1  0  0  0  0
 64 79  1  0  0  0  0
 68 71  1  0  0  0  0
 69 70  2  0  0  0  0
M  CHG  1  79   1
M  ISO  4  36 100  62 101  78 100  86 101
M  END
> <Batch ID>
0086

> <Smiles>
CNC(C)C(=O)NC(C(=O)N1Cc2cc([101O:1][101CH2:1]CCc3cc(C(C)(C)C[100NH:0][100C:0](=O)N4CCCC(n5nc(-c6ccc(Oc7ccc(F)cc7F)cc6)c(C(N)=O)c5N)C4)nnc3C(C)(C)C)ccc2CC1C(=O)NC1CCCc2ccccc21)C(C)(C)C

> <Shape>
0.185

> <Color>
0.189

> <Negative vol penalty>
0.000

$$$$

  -OEChem-04052318593D

 86 94  0     1  0  0  0  0  0999 V2000
  -32.2619  -13.8931   20.9678 C   0  0  0  0  0  0  0  0  0  0  0  0
  -31.5338  -15.0690   21.1185 C   0  0  0  0  0  0  0  0  0  0  0  0
  -26.1406  -30.9476   21.5780 C   0  0  0  0  0  0  0  0  0  0  0  0
  -26.2611  -29.3116   23.3516 C   0  0  0  0  0  0  0  0  0  0  0  0
  -31.6429  -12.7514   20.4606 C   0  0  0  0  0  0  0  0  0  0  0  0
  -30.1865  -15.1040   20.7609 C   0  0  0  0  0  0  0  0  0  0  0  0
  -27.3186  -17.4398   24.2198 C   0  0  0  0  0  0  0  0  0  0  0  0
  -26.3055  -31.9713   22.5110 C   0  0  0  0  0  0  0  0  0  0  0  0
  -26.4261  -30.3352   24.2847 C   0  0  0  0  0  0  0  0  0  0  0  0
  -27.3443  -18.8337   24.2320 C   0  0  0  0  0  0  0  0  0  0  0  0
  -26.3347  -35.0349   24.4698 C   0  0  0  0  0  0  0  0  0  0  0  0
  -25.5033  -36.1500   24.3651 C   0  0  0  0  0  0  0  0  0  0  0  0
  -25.2615  -18.8766   23.0156 C   0  0  0  0  0  0  0  0  0  0  0  0
  -27.3267  -20.1509   17.0980 C   0  0  0  0  0  0  0  0  0  0  0  0
  -23.5678  -34.7348   24.6620 C   0  0  0  0  0  0  0  0  0  0  0  0
  -26.1183  -29.6177   21.9983 C   0  0  0  0  0  0  0  0  0  0  0  0
  -26.9594  -27.8756   20.3354 C   0  0  0  0  0  0  0  0  0  0  0  0
  -30.2849  -12.7698   20.1057 C   0  0  0  0  0  0  0  0  0  0  0  0
  -26.2680  -16.7527   23.5949 C   0  0  0  0  0  0  0  0  0  0  0  0
  -29.5491  -13.9619   20.2471 C   0  0  0  0  0  0  0  0  0  0  0  0
  -25.2236  -17.4740   22.9992 C   0  0  0  0  0  0  0  0  0  0  0  0
  -28.3881  -19.6993   17.8743 C   0  0  0  0  0  0  0  0  0  0  0  0
  -28.6487  -20.2982   19.1018 C   0  0  0  0  0  0  0  0  0  0  0  0
  -26.4483  -31.6651   23.8643 C   0  0  0  0  0  0  0  0  0  0  0  0
  -26.3171  -19.5523   23.6273 C   0  0  0  0  0  0  0  0  0  0  0  0
  -25.7827  -33.7697   24.6705 C   0  0  0  0  0  0  0  0  0  0  0  0
  -24.1199  -36.0000   24.4612 C   0  0  0  0  0  0  0  0  0  0  0  0
  -24.3992  -33.6197   24.7666 C   0  0  0  0  0  0  0  0  0  0  0  0
  -25.9475  -28.5599   21.0351 C   0  0  0  0  0  0  0  0  0  0  0  0
  -26.5619  -21.1962   17.5902 C   0  0  0  0  0  0  0  0  0  0  0  0
  -27.8248  -21.3371   19.5042 C   0  0  0  0  0  0  0  0  0  0  0  0
  -26.2841  -26.9734   19.5502 C   0  0  0  0  0  0  0  0  0  0  0  0
  -28.3826  -28.0407   20.3904 C   0  0  0  0  0  0  0  0  0  0  0  0
  -26.0501  -14.7275   21.1546 C   0  0  0  0  0  0  0  0  0  0  0  0
  -22.9538  -14.5294   22.1014 C   0  0  0  0  0  0  0  0  0  0  0  0
  -20.3216  -15.9754   23.7223 C   0  0  0  0  0  0  0  0  0  0  0  0
  -22.2840  -23.1395   18.8825 C   0  0  0  0  0  0  0  0  0  0  0  0
  -29.6714  -11.5240   19.5173 C   0  0  0  0  0  0  0  0  0  0  0  0
  -26.2414  -15.2489   23.6138 C   0  0  0  0  0  0  0  0  0  0  0  0
  -24.0625  -16.7838   22.3327 C   0  0  0  0  0  0  0  0  0  0  0  0
  -28.1450  -11.5401   19.5134 C   0  0  0  0  0  0  0  0  0  0  0  0
  -21.3507  -26.5556   18.5141 C   0  0  0  0  0  0  0  0  0  0  0  0
  -27.6265  -12.8770   18.9931 C   0  0  0  0  0  0  0  0  0  0  0  0
  -22.5437  -27.3243   19.0849 C   0  0  0  0  0  0  0  0  0  0  0  0
  -21.0848  -25.2682   19.2912 C   0  0  0  0  0  0  0  0  0  0  0  0
  -23.4430  -25.1427   19.9962 C   0  0  0  0  0  0  0  0  0  0  0  0
  -28.0793  -14.0326   19.8937 C   0  0  1  0  0  0  0  0  0  0  0  0
  -25.3859  -14.6524   22.5004 C   0  0  1  0  0  0  0  0  0  0  0  0
  -23.7848  -26.4205   19.2109 C   0  0  2  0  0  0  0  0  0  0  0  0
  -29.2295  -18.5736   17.3698 C   0  0  0  0  0  0  0  0  0  0  0  0
  -29.7837  -19.8259   19.9494 C   0  0  0  0  0  0  0  0  0  0  0  0
  -17.9095  -15.5896   24.2969 C   0  0  0  0  0  0  0  0  0  0  0  0
  -22.1641  -15.2130   19.2345 C   0  0  0  0  0  0  0  0  0  0  0  0
  -19.8637  -15.7431   20.0685 C   0  0  0  0  0  0  0  0  0  0  0  0
  -20.7718  -13.4316   20.3036 C   0  0  0  0  0  0  0  0  0  0  0  0
  -20.8811  -16.0524   26.6274 C   0  0  0  0  0  0  0  0  0  0  0  0
  -25.4143  -21.7065   16.7844 C   0  0  0  0  0  0  0  0  0  0  0  0
  -24.0727  -21.0040   17.0702 C   0  0  0  0  0  0  0  0  0  0  0  0
  -27.5234  -22.8713   22.9135 C   0  0  0  0  0  0  0  0  0  0  0  0
  -23.6215  -21.0794   18.5273 C   0  0  0  0  0  0  0  0  0  0  0  0
  -27.1058  -22.7146   21.4564 C   0  0  0  0  0  0  0  0  0  0  0  0
  -27.6213  -21.5409   23.6508 C   0  0  0  0  0  0  0  0  0  1  0  0
  -21.6848  -15.2772   21.7707 C   0  0  1  0  0  0  0  0  0  0  0  0
  -19.3511  -15.4295   24.7540 C   0  0  2  0  0  0  0  0  0  0  0  0
  -21.1438  -14.9295   20.3551 C   0  0  0  0  0  0  0  0  0  0  0  0
  -24.7225  -28.1294   20.7219 N   0  0  0  0  0  0  0  0  0  0  0  0
  -26.7844  -21.8031   18.7775 N   0  0  0  0  0  0  0  0  0  0  0  0
  -24.9603  -27.1649   19.8167 N   0  0  0  0  0  0  0  0  0  0  0  0
  -24.0851  -15.3123   22.3719 N   0  0  0  0  0  0  0  0  0  0  0  0
  -22.3010  -24.4557   19.3728 N   0  0  0  0  0  0  0  0  0  0  0  0
  -26.6995  -26.0430   18.6647 N   0  0  0  0  0  0  0  0  0  0  0  0
  -28.9096  -29.0134   21.2508 N   0  0  0  0  0  0  0  0  0  0  0  0
  -28.0794  -21.9388   20.7267 N   0  0  0  0  0  0  0  0  0  0  0  0
  -27.2717  -14.0846   21.0935 N   0  0  0  0  0  0  0  0  0  0  0  0
  -20.7497  -14.9935   22.8540 N   0  0  0  0  0  0  0  0  0  0  0  0
  -23.4802  -22.4411   18.9927 N   0  0  0  0  0  0  0  0  0  0  0  0
  -19.5155  -16.1464   26.0501 N   0  3  0  0  0  0  0  0  0  0  0  0
  -29.1629  -27.3574   19.6849 O   0  0  0  0  0  0  0  0  0  0  0  0
  -25.4946  -15.3233   20.2391 O   0  0  0  0  0  0  0  0  0  0  0  0
  -22.9401  -13.2961   22.1260 O   0  0  0  0  0  0  0  0  0  0  0  0
  -20.6627  -17.1556   23.6875 O   0  0  0  0  0  0  0  0  0  0  0  0
  -21.2790  -22.6267   18.3787 O   0  0  0  0  0  0  0  0  0  0  0  0
  -26.6094  -32.6637   24.7750 O   0  0  0  0  0  0  0  0  0  0  0  0
  -26.3400  -20.9129   23.6372 O   0  0  0  0  0  0  0  0  0  1  0  0
  -23.3217  -37.0711   24.3622 F   0  0  0  0  0  0  0  0  0  0  0  0
  -23.8631  -32.4069   24.9606 F   0  0  0  0  0  0  0  0  0  0  0  0
  1  2  1  0  0  0  0
  1  5  2  0  0  0  0
  2  6  2  0  0  0  0
  3  8  2  0  0  0  0
  3 16  1  0  0  0  0
  4  9  1  0  0  0  0
  4 16  2  0  0  0  0
  5 18  1  0  0  0  0
  6 20  1  0  0  0  0
  7 10  2  0  0  0  0
  7 19  1  0  0  0  0
  8 24  1  0  0  0  0
  9 24  2  0  0  0  0
 10 25  1  0  0  0  0
 11 12  2  0  0  0  0
 11 26  1  0  0  0  0
 12 27  1  0  0  0  0
 13 21  1  0  0  0  0
 13 25  2  0  0  0  0
 14 22  2  0  0  0  0
 14 30  1  0  0  0  0
 15 27  2  0  0  0  0
 15 28  1  0  0  0  0
 16 29  1  0  0  0  0
 17 29  1  0  0  0  0
 17 32  2  0  0  0  0
 17 33  1  0  0  0  0
 18 20  2  0  0  0  0
 18 38  1  0  0  0  0
 19 21  2  0  0  0  0
 19 39  1  0  0  0  0
 20 47  1  0  0  0  0
 21 40  1  0  0  0  0
 22 23  1  0  0  0  0
 22 50  1  0  0  0  0
 23 31  2  0  0  0  0
 23 51  1  0  0  0  0
 24 83  1  0  0  0  0
 25 84  1  0  0  0  0
 26 28  2  0  0  0  0
 26 83  1  0  0  0  0
 27 85  1  0  0  0  0
 28 86  1  0  0  0  0
 29 66  2  0  0  0  0
 30 57  1  0  0  0  0
 30 67  2  0  0  0  0
 31 67  1  0  0  0  0
 31 73  1  0  0  0  0
 32 68  1  0  0  0  0
 32 71  1  0  0  0  0
 33 72  1  0  0  0  0
 33 78  2  0  0  0  0
 34 48  1  0  0  0  0
 34 74  1  0  0  0  0
 34 79  2  0  0  0  0
 35 63  1  0  0  0  0
 35 69  1  0  0  0  0
 35 80  2  0  0  0  0
 36 64  1  0  0  0  0
 36 75  1  0  0  0  0
 36 81  2  0  0  0  0
 37 70  1  0  0  0  0
 37 76  1  0  0  0  0
 37 82  2  0  0  0  0
 38 41  1  0  0  0  0
 39 48  1  0  0  0  0
 40 69  1  0  0  0  0
 41 43  1  0  0  0  0
 42 44  1  0  0  0  0
 42 45  1  0  0  0  0
 43 47  1  0  0  0  0
 44 49  1  0  0  0  0
 45 70  1  0  0  0  0
 46 49  1  0  0  0  0
 46 70  1  0  0  0  0
 47 74  1  0  0  0  0
 48 69  1  0  0  0  0
 49 68  1  0  0  0  0
 52 64  1  0  0  0  0
 53 65  1  0  0  0  0
 54 65  1  0  0  0  0
 55 65  1  0  0  0  0
 56 77  1  0  0  0  0
 57 58  1  0  0  0  0
 58 60  1  0  0  0  0
 59 61  1  0  0  0  0
 59 62  1  0  0  0  0
 60 76  1  0  0  0  0
 61 73  1  0  0  0  0
 62 84  1  0  0  0  0
 63 65  1  0  0  0  0
 63 75  1  0  0  0  0
 64 77  1  0  0  0  0
 66 68  1  0  0  0  0
M  CHG  1  77   1
M  ISO  4  37 100  62 101  76 100  84 101
M  END
> <Batch ID>
0086

> <Smiles>
CNC(C)C(=O)NC(C(=O)N1Cc2cc([101O:1][101CH2:1]CCNc3nc(CCC[100NH:0][100C:0](=O)N4CCCC(n5nc(-c6ccc(Oc7ccc(F)cc7F)cc6)c(C(N)=O)c5N)C4)cc(C)c3C)ccc2CC1C(=O)NC1CCCc2ccccc21)C(C)(C)C

> <Shape>
0.236

> <Color>
0.056

> <Negative vol penalty>
0.000

$$$$

  -OEChem-04052318593D

 86 94  0     1  0  0  0  0  0999 V2000
  -25.1700  -28.7641   20.7572 C   0  0  0  0  0  0  0  0  0  0  0  0
  -24.7923  -27.5099   20.2886 C   0  0  0  0  0  0  0  0  0  0  0  0
  -23.5492  -15.7939   23.3082 C   0  0  0  0  0  0  0  0  0  0  0  0
  -25.9316  -15.6352   23.6767 C   0  0  0  0  0  0  0  0  0  0  0  0
  -26.5069  -29.1554   20.6985 C   0  0  0  0  0  0  0  0  0  0  0  0
  -25.7512  -26.6465   19.7600 C   0  0  0  0  0  0  0  0  0  0  0  0
  -25.2350  -21.9007   21.4499 C   0  0  0  0  0  0  0  0  0  0  0  0
  -23.4023  -16.4396   24.5358 C   0  0  0  0  0  0  0  0  0  0  0  0
  -25.7848  -16.2810   24.9043 C   0  0  0  0  0  0  0  0  0  0  0  0
  -24.2297  -21.1254   20.8736 C   0  0  0  0  0  0  0  0  0  0  0  0
  -23.8697  -19.5453   25.7883 C   0  0  0  0  0  0  0  0  0  0  0  0
  -23.0541  -20.6760   25.8325 C   0  0  0  0  0  0  0  0  0  0  0  0
  -25.8709  -20.0532   19.4679 C   0  0  0  0  0  0  0  0  0  0  0  0
  -23.7331  -20.4610   14.4579 C   0  0  0  0  0  0  0  0  0  0  0  0
  -21.6310  -19.5860   27.4524 C   0  0  0  0  0  0  0  0  0  0  0  0
  -24.8138  -15.3916   22.8786 C   0  0  0  0  0  0  0  0  0  0  0  0
  -24.3781  -13.5079   21.2144 C   0  0  0  0  0  0  0  0  0  0  0  0
  -27.4842  -28.2926   20.1778 C   0  0  0  0  0  0  0  0  0  0  0  0
  -26.5664  -21.7656   21.0312 C   0  0  0  0  0  0  0  0  0  0  0  0
  -27.1023  -27.0271   19.6931 C   0  0  0  0  0  0  0  0  0  0  0  0
  -26.8916  -20.8261   20.0423 C   0  0  0  0  0  0  0  0  0  0  0  0
  -22.8177  -21.3893   14.9413 C   0  0  0  0  0  0  0  0  0  0  0  0
  -22.0905  -21.1060   16.0920 C   0  0  0  0  0  0  0  0  0  0  0  0
  -24.5201  -16.6832   25.3338 C   0  0  0  0  0  0  0  0  0  0  0  0
  -24.5472  -20.2035   19.8804 C   0  0  0  0  0  0  0  0  0  0  0  0
  -23.5659  -18.4350   26.5761 C   0  0  0  0  0  0  0  0  0  0  0  0
  -21.9347  -20.6964   26.6646 C   0  0  0  0  0  0  0  0  0  0  0  0
  -22.4466  -18.4554   27.4082 C   0  0  0  0  0  0  0  0  0  0  0  0
  -24.9661  -14.7240   21.6109 C   0  0  0  0  0  0  0  0  0  0  0  0
  -23.8830  -19.2738   15.1563 C   0  0  0  0  0  0  0  0  0  0  0  0
  -22.3138  -19.8898   16.7172 C   0  0  0  0  0  0  0  0  0  0  0  0
  -24.8318  -13.3087   19.9334 C   0  0  0  0  0  0  0  0  0  0  0  0
  -23.5002  -12.6364   21.9393 C   0  0  0  0  0  0  0  0  0  0  0  0
  -28.6985  -23.6948   19.6762 C   0  0  0  0  0  0  0  0  0  0  0  0
  -30.6974  -21.1864   20.1610 C   0  0  0  0  0  0  0  0  0  0  0  0
  -31.0700  -17.8251   20.6184 C   0  0  0  0  0  0  0  0  0  0  0  0
  -26.7736  -17.0368   15.6695 C   0  0  0  0  0  0  0  0  0  0  0  0
  -28.9095  -28.7781   20.0915 C   0  0  0  0  0  0  0  0  0  0  0  0
  -27.6430  -22.5904   21.6817 C   0  0  0  0  0  0  0  0  0  0  0  0
  -28.3086  -20.6283   19.5717 C   0  0  0  0  0  0  0  0  0  0  0  0
  -29.9214  -27.6586   19.8614 C   0  0  0  0  0  0  0  0  0  0  0  0
  -28.5456  -14.2902   17.0812 C   0  0  0  0  0  0  0  0  0  0  0  0
  -29.4419  -26.7247   18.7548 C   0  0  0  0  0  0  0  0  0  0  0  0
  -27.7761  -13.9802   18.3664 C   0  0  0  0  0  0  0  0  0  0  0  0
  -28.5920  -15.7903   16.7991 C   0  0  0  0  0  0  0  0  0  0  0  0
  -26.5074  -16.1477   18.0643 C   0  0  0  0  0  0  0  0  0  0  0  0
  -28.1171  -26.0528   19.1354 C   0  0  1  0  0  0  0  0  0  0  0  0
  -28.8907  -22.7344   20.8157 C   0  0  1  0  0  0  0  0  0  0  0  0
  -26.3856  -14.6433   18.3612 C   0  0  2  0  0  0  0  0  0  0  0  0
  -21.1034  -22.0838   16.6351 C   0  0  0  0  0  0  0  0  0  0  0  0
  -21.1413  -24.0073   12.6520 C   0  0  0  0  0  0  0  0  0  0  0  0
  -21.3017  -18.0140   18.0546 C   0  0  0  0  0  0  0  0  0  0  0  0
  -24.2343  -17.2627   13.6752 C   0  0  0  0  0  0  0  0  0  0  0  0
  -32.8279  -16.0648   20.9485 C   0  0  0  0  0  0  0  0  0  0  0  0
  -31.3947  -21.3299   17.1940 C   0  0  0  0  0  0  0  0  0  0  0  0
  -32.3714  -19.0324   17.3838 C   0  0  0  0  0  0  0  0  0  0  0  0
  -33.3435  -20.9120   18.7046 C   0  0  0  0  0  0  0  0  0  0  0  0
  -29.9806  -17.0684   23.2641 C   0  0  0  0  0  0  0  0  0  0  0  0
  -22.6331  -22.6764   14.2075 C   0  0  0  0  0  0  0  0  0  0  0  0
  -21.3449  -22.6835   13.3716 C   0  0  0  0  0  0  0  0  0  0  0  0
  -22.2626  -20.0185   19.2462 C   0  0  0  0  0  0  0  0  0  1  0  0
  -21.5504  -19.5231   17.9801 C   0  0  1  0  0  0  0  0  0  0  0  0
  -24.8574  -18.2547   14.6675 C   0  0  2  0  0  0  0  0  0  0  0  0
  -31.0940  -19.9661   19.3656 C   0  0  1  0  0  0  0  0  0  0  0  0
  -31.8716  -17.0292   21.6327 C   0  0  2  0  0  0  0  0  0  0  0  0
  -32.0238  -20.3150   18.1693 C   0  0  0  0  0  0  0  0  0  0  0  0
  -25.7348  -15.2596   20.6589 N   0  0  0  0  0  0  0  0  0  0  0  0
  -23.1945  -18.9631   16.2775 N   0  0  0  0  0  0  0  0  0  0  0  0
  -25.6330  -14.3758   19.6516 N   0  0  0  0  0  0  0  0  0  0  0  0
  -29.3248  -21.4628   20.2339 N   0  0  0  0  0  0  0  0  0  0  0  0
  -27.2414  -16.3576   16.8065 N   0  0  0  0  0  0  0  0  0  0  0  0
  -24.6195  -12.3265   19.0320 N   0  0  0  0  0  0  0  0  0  0  0  0
  -22.1180  -12.8443   21.8369 N   0  0  0  0  0  0  0  0  0  0  0  0
  -28.3486  -24.9722   20.0699 N   0  0  0  0  0  0  0  0  0  0  0  0
  -31.6746  -19.0278   20.3199 N   0  0  0  0  0  0  0  0  0  0  0  0
  -25.4806  -17.5379   15.7577 N   0  0  0  0  0  0  0  0  0  0  0  0
  -30.9601  -16.2431   22.5114 N   0  3  0  0  0  0  0  0  0  0  0  0
  -23.9294  -11.7112   22.6696 O   0  0  0  0  0  0  0  0  0  0  0  0
  -28.8575  -23.3059   18.5250 O   0  0  0  0  0  0  0  0  0  0  0  0
  -31.5728  -21.8652   20.7038 O   0  0  0  0  0  0  0  0  0  0  0  0
  -30.0152  -17.4186   20.1362 O   0  0  0  0  0  0  0  0  0  0  0  0
  -27.4556  -17.1810   14.6492 O   0  0  0  0  0  0  0  0  0  0  0  0
  -24.3771  -17.3135   26.5317 O   0  0  0  0  0  0  0  0  0  0  0  0
  -23.5678  -19.4460   19.3157 O   0  0  0  0  0  0  0  0  0  1  0  0
  -21.1524  -21.7828   26.7081 F   0  0  0  0  0  0  0  0  0  0  0  0
  -22.1504  -17.3921   28.1682 F   0  0  0  0  0  0  0  0  0  0  0  0
  1  2  1  0  0  0  0
  1  5  2  0  0  0  0
  2  6  2  0  0  0  0
  3  8  2  0  0  0  0
  3 16  1  0  0  0  0
  4  9  1  0  0  0  0
  4 16  2  0  0  0  0
  5 18  1  0  0  0  0
  6 20  1  0  0  0  0
  7 10  2  0  0  0  0
  7 19  1  0  0  0  0
  8 24  1  0  0  0  0
  9 24  2  0  0  0  0
 10 25  1  0  0  0  0
 11 12  2  0  0  0  0
 11 26  1  0  0  0  0
 12 27  1  0  0  0  0
 13 21  1  0  0  0  0
 13 25  2  0  0  0  0
 14 22  1  0  0  0  0
 14 30  2  0  0  0  0
 15 27  2  0  0  0  0
 15 28  1  0  0  0  0
 16 29  1  0  0  0  0
 17 29  1  0  0  0  0
 17 32  2  0  0  0  0
 17 33  1  0  0  0  0
 18 20  2  0  0  0  0
 18 38  1  0  0  0  0
 19 21  2  0  0  0  0
 19 39  1  0  0  0  0
 20 47  1  0  0  0  0
 21 40  1  0  0  0  0
 22 23  2  0  0  0  0
 22 59  1  0  0  0  0
 23 31  1  0  0  0  0
 23 50  1  0  0  0  0
 24 83  1  0  0  0  0
 25 84  1  0  0  0  0
 26 28  2  0  0  0  0
 26 83  1  0  0  0  0
 27 85  1  0  0  0  0
 28 86  1  0  0  0  0
 29 67  2  0  0  0  0
 30 63  1  0  0  0  0
 30 68  1  0  0  0  0
 31 62  1  0  0  0  0
 31 68  2  0  0  0  0
 32 69  1  0  0  0  0
 32 72  1  0  0  0  0
 33 73  1  0  0  0  0
 33 78  2  0  0  0  0
 34 48  1  0  0  0  0
 34 74  1  0  0  0  0
 34 79  2  0  0  0  0
 35 64  1  0  0  0  0
 35 70  1  0  0  0  0
 35 80  2  0  0  0  0
 36 65  1  0  0  0  0
 36 75  1  0  0  0  0
 36 81  2  0  0  0  0
 37 71  1  0  0  0  0
 37 76  1  0  0  0  0
 37 82  2  0  0  0  0
 38 41  1  0  0  0  0
 39 48  1  0  0  0  0
 40 70  1  0  0  0  0
 41 43  1  0  0  0  0
 42 44  1  0  0  0  0
 42 45  1  0  0  0  0
 43 47  1  0  0  0  0
 44 49  1  0  0  0  0
 45 71  1  0  0  0  0
 46 49  1  0  0  0  0
 46 71  1  0  0  0  0
 47 74  1  0  0  0  0
 48 70  1  0  0  0  0
 49 69  1  0  0  0  0
 51 60  1  0  0  0  0
 52 62  1  0  0  0  0
 53 63  1  0  0  0  0
 54 65  1  0  0  0  0
 55 66  1  0  0  0  0
 56 66  1  0  0  0  0
 57 66  1  0  0  0  0
 58 77  1  0  0  0  0
 59 60  1  0  0  0  0
 61 62  1  0  0  0  0
 61 84  1  0  0  0  0
 63 76  1  0  0  0  0
 64 66  1  0  0  0  0
 64 75  1  0  0  0  0
 65 77  1  0  0  0  0
 67 69  1  0  0  0  0
M  CHG  1  77   1
M  ISO  4  37 100  61 101  76 100  84 101
M  END
> <Batch ID>
0086

> <Smiles>
CCCc1cc(C(C)[100NH:0][100C:0](=O)N2CCCC(n3nc(-c4ccc(Oc5ccc(F)cc5F)cc4)c(C(N)=O)c3N)C2)nc(C(C)[101CH2:1][101O:1]c2ccc3c(c2)CN(C(=O)C(NC(=O)C(C)NC)C(C)(C)C)C(C(=O)NC2CCCc4ccccc42)C3)c1C

> <Shape>
0.156

> <Color>
0.083

> <Negative vol penalty>
0.000

$$$$

  -OEChem-04052318593D

 89 97  0     1  0  0  0  0  0999 V2000
  -16.6614  -29.3074   24.0805 C   0  0  0  0  0  0  0  0  0  0  0  0
  -17.0468  -28.2213   23.3013 C   0  0  0  0  0  0  0  0  0  0  0  0
  -24.9052  -13.5971   21.9435 C   0  0  0  0  0  0  0  0  0  0  0  0
  -26.1820  -13.6485   19.8931 C   0  0  0  0  0  0  0  0  0  0  0  0
  -17.4546  -30.4534   24.1180 C   0  0  0  0  0  0  0  0  0  0  0  0
  -18.2253  -28.2810   22.5583 C   0  0  0  0  0  0  0  0  0  0  0  0
  -23.5548  -24.1158   20.1994 C   0  0  0  0  0  0  0  0  0  0  0  0
  -24.1059  -12.5808   21.4203 C   0  0  0  0  0  0  0  0  0  0  0  0
  -25.3827  -12.6322   19.3699 C   0  0  0  0  0  0  0  0  0  0  0  0
  -24.2238  -23.7866   19.0213 C   0  0  0  0  0  0  0  0  0  0  0  0
  -24.3195   -9.2404   20.9417 C   0  0  0  0  0  0  0  0  0  0  0  0
  -24.0352   -8.1507   21.7646 C   0  0  0  0  0  0  0  0  0  0  0  0
  -25.5553  -25.7878   19.2254 C   0  0  0  0  0  0  0  0  0  0  0  0
  -30.8629  -23.1641   18.0495 C   0  0  0  0  0  0  0  0  0  0  0  0
  -21.6742   -8.6306   21.5845 C   0  0  0  0  0  0  0  0  0  0  0  0
  -30.3028  -25.4737   18.1436 C   0  0  0  0  0  0  0  0  0  0  0  0
  -25.9433  -14.1310   21.1799 C   0  0  0  0  0  0  0  0  0  0  0  0
  -27.9591  -15.0330   22.4568 C   0  0  0  0  0  0  0  0  0  0  0  0
  -18.6483  -30.5235   23.3827 C   0  0  0  0  0  0  0  0  0  0  0  0
  -23.8740  -25.2910   20.8946 C   0  0  0  0  0  0  0  0  0  0  0  0
  -19.0346  -29.4295   22.5850 C   0  0  0  0  0  0  0  0  0  0  0  0
  -24.8906  -26.1284   20.4134 C   0  0  0  0  0  0  0  0  0  0  0  0
  -30.2206  -24.2590   17.4821 C   0  0  0  0  0  0  0  0  0  0  0  0
  -31.5579  -23.3153   19.2443 C   0  0  0  0  0  0  0  0  0  0  0  0
  -24.3446  -12.0983   20.1335 C   0  0  0  0  0  0  0  0  0  0  0  0
  -25.2222  -24.6242   18.5326 C   0  0  0  0  0  0  0  0  0  0  0  0
  -23.2811  -10.0254   20.4402 C   0  0  0  0  0  0  0  0  0  0  0  0
  -22.7126   -7.8457   22.0860 C   0  0  0  0  0  0  0  0  0  0  0  0
  -21.9585   -9.7204   20.7616 C   0  0  0  0  0  0  0  0  0  0  0  0
  -26.7690  -15.1812   21.7196 C   0  0  0  0  0  0  0  0  0  0  0  0
  -31.5803  -24.5722   19.8268 C   0  0  0  0  0  0  0  0  0  0  0  0
  -28.3539  -16.3190   22.7338 C   0  0  0  0  0  0  0  0  0  0  0  0
  -28.6464  -13.8395   22.8554 C   0  0  0  0  0  0  0  0  0  0  0  0
  -22.2896  -27.9314   21.6832 C   0  0  0  0  0  0  0  0  0  0  0  0
  -25.0034  -28.6008   23.3293 C   0  0  0  0  0  0  0  0  0  0  0  0
  -28.3607  -28.1144   23.7015 C   0  0  0  0  0  0  0  0  0  0  0  0
  -29.1933  -21.6019   21.1425 C   0  0  0  0  0  0  0  0  0  0  0  0
  -19.4486  -31.8014   23.4178 C   0  0  0  0  0  0  0  0  0  0  0  0
  -23.1614  -25.6183   22.1782 C   0  0  0  0  0  0  0  0  0  0  0  0
  -25.2850  -27.3912   21.1332 C   0  0  0  0  0  0  0  0  0  0  0  0
  -20.8740  -31.6420   22.8953 C   0  0  0  0  0  0  0  0  0  0  0  0
  -25.9038  -20.7084   22.1710 C   0  0  0  0  0  0  0  0  0  0  0  0
  -20.8780  -30.8606   21.5852 C   0  0  0  0  0  0  0  0  0  0  0  0
  -25.9323  -19.1793   22.1999 C   0  0  0  0  0  0  0  0  0  0  0  0
  -26.7417  -21.2669   21.0230 C   0  0  0  0  0  0  0  0  0  0  0  0
  -28.1625  -19.2532   21.0086 C   0  0  0  0  0  0  0  0  0  0  0  0
  -20.3187  -29.4467   21.7845 C   0  0  1  0  0  0  0  0  0  0  0  0
  -23.2137  -27.1020   22.5292 C   0  0  1  0  0  0  0  0  0  0  0  0
  -27.3771  -18.6449   22.1831 C   0  0  2  0  0  0  0  0  0  0  0  0
  -30.3098  -28.8266   25.1125 C   0  0  0  0  0  0  0  0  0  0  0  0
  -35.2183  -27.2442   22.0352 C   0  0  0  0  0  0  0  0  0  0  0  0
  -33.2344  -26.5936   23.4140 C   0  0  0  0  0  0  0  0  0  0  0  0
  -33.7978  -22.2960   20.0446 C   0  0  0  0  0  0  0  0  0  0  0  0
  -32.0758  -20.8762   18.9608 C   0  0  0  0  0  0  0  0  0  0  0  0
  -25.0828  -31.2764   21.8648 C   0  0  0  0  0  0  0  0  0  0  0  0
  -27.4733  -31.5125   22.5706 C   0  0  0  0  0  0  0  0  0  0  0  0
  -25.6718  -31.3980   24.2923 C   0  0  0  0  0  0  0  0  0  0  0  0
  -28.8546  -25.3455   24.6224 C   0  0  0  0  0  0  0  0  0  0  0  0
  -29.4594  -24.1290   16.1870 C   0  0  0  0  0  0  0  0  0  0  0  0
  -32.3120  -24.7939   21.1102 C   0  0  0  0  0  0  0  0  0  0  0  0
  -27.9848  -23.7651   16.3732 C   0  0  0  0  0  0  0  0  0  0  0  0
  -33.4007  -25.8732   20.9723 C   0  0  0  0  0  0  0  0  0  0  0  0
  -31.6656  -21.7751   21.2712 C   0  0  0  0  0  0  0  0  0  0  0  0
  -27.2281  -24.7464   17.2608 C   0  0  0  0  0  0  0  0  0  1  0  0
  -26.2984  -29.3092   23.0131 C   0  0  1  0  0  0  0  0  0  0  0  0
  -29.2035  -27.8003   24.9244 C   0  0  2  0  0  0  0  0  0  0  0  0
  -34.1635  -26.1619   22.2786 C   0  0  0  0  0  0  0  0  0  0  0  0
  -32.2468  -22.1459   19.8586 C   0  0  0  0  0  0  0  0  0  0  0  0
  -26.1231  -30.8513   22.9203 C   0  0  0  0  0  0  0  0  0  0  0  0
  -30.9684  -25.6592   19.3055 N   0  0  0  0  0  0  0  0  0  0  0  0
  -26.4298  -16.4605   21.5399 N   0  0  0  0  0  0  0  0  0  0  0  0
  -27.4127  -17.1279   22.1681 N   0  0  0  0  0  0  0  0  0  0  0  0
  -24.5547  -27.6710   22.3806 N   0  0  0  0  0  0  0  0  0  0  0  0
  -28.1009  -20.7222   21.0653 N   0  0  0  0  0  0  0  0  0  0  0  0
  -29.4107  -16.8256   23.4038 N   0  0  0  0  0  0  0  0  0  0  0  0
  -28.1033  -12.6011   22.4870 N   0  0  0  0  0  0  0  0  0  0  0  0
  -21.3114  -28.5928   22.4009 N   0  0  0  0  0  0  0  0  0  0  0  0
  -27.2577  -28.8766   24.0236 N   0  0  0  0  0  0  0  0  0  0  0  0
  -30.4463  -21.0028   21.1848 N   0  0  0  0  0  0  0  0  0  0  0  0
  -29.8290  -26.4542   24.7905 N   0  3  0  0  0  0  0  0  0  0  0  0
  -29.7019  -13.8700   23.5326 O   0  0  0  0  0  0  0  0  0  0  0  0
  -22.4530  -27.9698   20.4693 O   0  0  0  0  0  0  0  0  0  0  0  0
  -24.4153  -28.8576   24.3828 O   0  0  0  0  0  0  0  0  0  0  0  0
  -28.6537  -27.7260   22.5729 O   0  0  0  0  0  0  0  0  0  0  0  0
  -29.0614  -22.8300   21.1769 O   0  0  0  0  0  0  0  0  0  0  0  0
  -23.5649  -11.1065   19.6227 O   0  0  0  0  0  0  0  0  0  0  0  0
  -25.8764  -24.3056   17.3826 O   0  0  0  0  0  0  0  0  0  1  0  0
  -22.4396   -6.7983   22.8750 F   0  0  0  0  0  0  0  0  0  0  0  0
  -20.9566  -10.4701   20.2819 F   0  0  0  0  0  0  0  0  0  0  0  0
  1  2  1  0  0  0  0
  1  5  2  0  0  0  0
  2  6  2  0  0  0  0
  3  8  2  0  0  0  0
  3 17  1  0  0  0  0
  4  9  1  0  0  0  0
  4 17  2  0  0  0  0
  5 19  1  0  0  0  0
  6 21  1  0  0  0  0
  7 10  2  0  0  0  0
  7 20  1  0  0  0  0
  8 25  1  0  0  0  0
  9 25  2  0  0  0  0
 10 26  1  0  0  0  0
 11 12  2  0  0  0  0
 11 27  1  0  0  0  0
 12 28  1  0  0  0  0
 13 22  1  0  0  0  0
 13 26  2  0  0  0  0
 14 23  2  0  0  0  0
 14 24  1  0  0  0  0
 15 28  2  0  0  0  0
 15 29  1  0  0  0  0
 16 23  1  0  0  0  0
 16 70  2  0  0  0  0
 17 30  1  0  0  0  0
 18 30  1  0  0  0  0
 18 32  2  0  0  0  0
 18 33  1  0  0  0  0
 19 21  2  0  0  0  0
 19 38  1  0  0  0  0
 20 22  2  0  0  0  0
 20 39  1  0  0  0  0
 21 47  1  0  0  0  0
 22 40  1  0  0  0  0
 23 59  1  0  0  0  0
 24 31  2  0  0  0  0
 24 68  1  0  0  0  0
 25 86  1  0  0  0  0
 26 87  1  0  0  0  0
 27 29  2  0  0  0  0
 27 86  1  0  0  0  0
 28 88  1  0  0  0  0
 29 89  1  0  0  0  0
 30 71  2  0  0  0  0
 31 60  1  0  0  0  0
 31 70  1  0  0  0  0
 32 72  1  0  0  0  0
 32 75  1  0  0  0  0
 33 76  1  0  0  0  0
 33 81  2  0  0  0  0
 34 48  1  0  0  0  0
 34 77  1  0  0  0  0
 34 82  2  0  0  0  0
 35 65  1  0  0  0  0
 35 73  1  0  0  0  0
 35 83  2  0  0  0  0
 36 66  1  0  0  0  0
 36 78  1  0  0  0  0
 36 84  2  0  0  0  0
 37 74  1  0  0  0  0
 37 79  1  0  0  0  0
 37 85  2  0  0  0  0
 38 41  1  0  0  0  0
 39 48  1  0  0  0  0
 40 73  1  0  0  0  0
 41 43  1  0  0  0  0
 42 44  1  0  0  0  0
 42 45  1  0  0  0  0
 43 47  1  0  0  0  0
 44 49  1  0  0  0  0
 45 74  1  0  0  0  0
 46 49  1  0  0  0  0
 46 74  1  0  0  0  0
 47 77  1  0  0  0  0
 48 73  1  0  0  0  0
 49 72  1  0  0  0  0
 50 66  1  0  0  0  0
 51 67  1  0  0  0  0
 52 67  1  0  0  0  0
 53 68  1  0  0  0  0
 54 68  1  0  0  0  0
 55 69  1  0  0  0  0
 56 69  1  0  0  0  0
 57 69  1  0  0  0  0
 58 80  1  0  0  0  0
 59 61  1  0  0  0  0
 60 62  1  0  0  0  0
 61 64  1  0  0  0  0
 62 67  1  0  0  0  0
 63 68  1  0  0  0  0
 63 79  1  0  0  0  0
 64 87  1  0  0  0  0
 65 69  1  0  0  0  0
 65 78  1  0  0  0  0
 66 80  1  0  0  0  0
 71 72  1  0  0  0  0
M  CHG  1  80   1
M  ISO  4  37 100  64 101  79 100  87 101
M  END
> <Batch ID>
0086

> <Smiles>
CNC(C)C(=O)NC(C(=O)N1Cc2cc([101O:1][101CH2:1]CCc3cnc(CCC(C)C)c(C(C)(C)C[100NH:0][100C:0](=O)N4CCCC(n5nc(-c6ccc(Oc7ccc(F)cc7F)cc6)c(C(N)=O)c5N)C4)c3)ccc2CC1C(=O)NC1CCCc2ccccc21)C(C)(C)C

> <Shape>
0.250

> <Color>
0.080

> <Negative vol penalty>
0.000

$$$$

  -OEChem-04052318593D

 85 93  0     1  0  0  0  0  0999 V2000
  -21.3736  -30.4695   20.1459 C   0  0  0  0  0  0  0  0  0  0  0  0
  -21.5753  -29.1852   19.6505 C   0  0  0  0  0  0  0  0  0  0  0  0
  -23.7531   -9.7723   21.6452 C   0  0  0  0  0  0  0  0  0  0  0  0
  -24.3310  -10.9150   23.6939 C   0  0  0  0  0  0  0  0  0  0  0  0
  -22.4165  -31.1420   20.7814 C   0  0  0  0  0  0  0  0  0  0  0  0
  -22.8205  -28.5732   19.7894 C   0  0  0  0  0  0  0  0  0  0  0  0
  -25.7986  -22.1258   20.7266 C   0  0  0  0  0  0  0  0  0  0  0  0
  -23.2088   -8.7222   22.3844 C   0  0  0  0  0  0  0  0  0  0  0  0
  -23.7867   -9.8649   24.4332 C   0  0  0  0  0  0  0  0  0  0  0  0
  -26.7746  -21.2992   20.1716 C   0  0  0  0  0  0  0  0  0  0  0  0
  -20.7155   -8.8061   25.3645 C   0  0  0  0  0  0  0  0  0  0  0  0
  -19.8945   -9.1327   26.4437 C   0  0  0  0  0  0  0  0  0  0  0  0
  -28.4797  -22.5261   21.3576 C   0  0  0  0  0  0  0  0  0  0  0  0
  -21.4022   -7.9806   27.9393 C   0  0  0  0  0  0  0  0  0  0  0  0
  -28.2468  -18.2432   22.5844 C   0  0  0  0  0  0  0  0  0  0  0  0
  -24.3143  -10.8687   22.2999 C   0  0  0  0  0  0  0  0  0  0  0  0
  -24.2118  -13.1074   21.0811 C   0  0  0  0  0  0  0  0  0  0  0  0
  -23.6723  -30.5341   20.9367 C   0  0  0  0  0  0  0  0  0  0  0  0
  -26.1575  -23.1674   21.5942 C   0  0  0  0  0  0  0  0  0  0  0  0
  -23.8816  -29.2387   20.4264 C   0  0  0  0  0  0  0  0  0  0  0  0
  -27.5061  -23.3629   21.9243 C   0  0  0  0  0  0  0  0  0  0  0  0
  -29.4642  -17.8073   22.1026 C   0  0  0  0  0  0  0  0  0  0  0  0
  -23.2256   -8.7684   23.7784 C   0  0  0  0  0  0  0  0  0  0  0  0
  -28.1156  -21.5011   20.4848 C   0  0  0  0  0  0  0  0  0  0  0  0
  -21.8799   -8.0667   25.5725 C   0  0  0  0  0  0  0  0  0  0  0  0
  -20.2378   -8.7200   27.7311 C   0  0  0  0  0  0  0  0  0  0  0  0
  -22.2232   -7.6540   26.8599 C   0  0  0  0  0  0  0  0  0  0  0  0
  -24.8772  -11.9536   21.5368 C   0  0  0  0  0  0  0  0  0  0  0  0
  -30.3047  -17.2342   23.0350 C   0  0  0  0  0  0  0  0  0  0  0  0
  -25.1776  -13.8193   20.4126 C   0  0  0  0  0  0  0  0  0  0  0  0
  -28.7756  -17.5563   24.6857 C   0  0  0  0  0  0  0  0  0  0  0  0
  -22.8430  -13.5006   21.2474 C   0  0  0  0  0  0  0  0  0  0  0  0
  -25.8766  -26.3330   21.5354 C   0  0  0  0  0  0  0  0  0  0  0  0
  -27.0452  -26.1030   24.5526 C   0  0  0  0  0  0  0  0  0  0  0  0
  -28.8422  -24.3115   26.8348 C   0  0  0  0  0  0  0  0  0  0  0  0
  -31.1490  -13.9720   20.8248 C   0  0  0  0  0  0  0  0  0  0  0  0
  -24.7830  -31.3189   21.5888 C   0  0  0  0  0  0  0  0  0  0  0  0
  -25.0903  -24.0334   22.2056 C   0  0  0  0  0  0  0  0  0  0  0  0
  -27.9418  -24.4543   22.8664 C   0  0  0  0  0  0  0  0  0  0  0  0
  -25.9627  -30.4552   22.0276 C   0  0  0  0  0  0  0  0  0  0  0  0
  -29.2216  -13.2226   17.9265 C   0  0  0  0  0  0  0  0  0  0  0  0
  -26.3602  -29.4896   20.9156 C   0  0  0  0  0  0  0  0  0  0  0  0
  -27.8296  -12.9165   18.4820 C   0  0  0  0  0  0  0  0  0  0  0  0
  -30.3235  -12.7170   18.8550 C   0  0  0  0  0  0  0  0  0  0  0  0
  -28.8266  -12.8754   20.8064 C   0  0  0  0  0  0  0  0  0  0  0  0
  -25.2108  -28.5317   20.5797 C   0  0  1  0  0  0  0  0  0  0  0  0
  -25.6149  -25.3874   22.6733 C   0  0  1  0  0  0  0  0  0  0  0  0
  -27.6822  -13.4157   19.9319 C   0  0  2  0  0  0  0  0  0  0  0  0
  -28.5102  -18.7327   26.8839 C   0  0  0  0  0  0  0  0  0  0  0  0
  -32.7889  -17.4926   23.3281 C   0  0  0  0  0  0  0  0  0  0  0  0
  -29.8308  -23.7010   29.0590 C   0  0  0  0  0  0  0  0  0  0  0  0
  -29.1979  -28.1058   23.7376 C   0  0  0  0  0  0  0  0  0  0  0  0
  -30.4939  -27.4350   25.7720 C   0  0  0  0  0  0  0  0  0  0  0  0
  -28.2396  -28.4745   26.0180 C   0  0  0  0  0  0  0  0  0  0  0  0
  -26.4330  -22.7802   27.6158 C   0  0  0  0  0  0  0  0  0  0  0  0
  -29.8278  -17.9599   20.6472 C   0  0  0  0  0  0  0  0  0  0  0  0
  -28.3930  -17.4161   26.1203 C   0  0  0  0  0  0  0  0  0  0  0  0
  -30.8100  -19.1011   20.3741 C   0  0  0  0  0  0  0  0  0  0  0  0
  -31.8292  -15.2078   22.8667 C   0  0  0  0  0  0  0  0  0  0  0  0
  -30.2488  -20.4760   20.7177 C   0  0  0  0  0  0  0  0  0  1  0  0
  -31.6484  -16.7259   22.6280 C   0  0  1  0  0  0  0  0  0  0  0  0
  -28.4237  -26.1006   25.1679 C   0  0  1  0  0  0  0  0  0  0  0  0
  -28.5484  -23.9330   28.2753 C   0  0  2  0  0  0  0  0  0  0  0  0
  -29.0811  -27.5095   25.1546 C   0  0  0  0  0  0  0  0  0  0  0  0
  -27.8684  -18.1330   23.8748 N   0  0  0  0  0  0  0  0  0  0  0  0
  -26.1661  -11.9297   21.1871 N   0  0  0  0  0  0  0  0  0  0  0  0
  -29.9915  -17.0923   24.3396 N   0  0  0  0  0  0  0  0  0  0  0  0
  -26.3183  -13.0773   20.5046 N   0  0  0  0  0  0  0  0  0  0  0  0
  -26.8617  -25.2786   23.4335 N   0  0  0  0  0  0  0  0  0  0  0  0
  -30.1263  -13.2278   20.2138 N   0  0  0  0  0  0  0  0  0  0  0  0
  -25.1538  -15.0013   19.7609 N   0  0  0  0  0  0  0  0  0  0  0  0
  -21.9861  -12.6521   21.9615 N   0  0  0  0  0  0  0  0  0  0  0  0
  -25.1166  -27.4864   21.5761 N   0  0  0  0  0  0  0  0  0  0  0  0
  -28.2755  -25.5230   26.4994 N   0  0  0  0  0  0  0  0  0  0  0  0
  -30.8781  -14.4240   22.1105 N   0  0  0  0  0  0  0  0  0  0  0  0
  -27.7337  -22.6862   28.3273 N   0  3  0  0  0  0  0  0  0  0  0  0
  -22.3893  -14.5648   20.7626 O   0  0  0  0  0  0  0  0  0  0  0  0
  -26.7077  -26.0388   20.6842 O   0  0  0  0  0  0  0  0  0  0  0  0
  -26.1616  -26.8048   25.0511 O   0  0  0  0  0  0  0  0  0  0  0  0
  -29.5108  -23.6051   26.0836 O   0  0  0  0  0  0  0  0  0  0  0  0
  -32.2217  -14.2201   20.2639 O   0  0  0  0  0  0  0  0  0  0  0  0
  -22.6943   -7.7440   24.5001 O   0  0  0  0  0  0  0  0  0  0  0  0
  -29.0703  -20.6962   19.9439 O   0  0  0  0  0  0  0  0  0  1  0  0
  -19.4501   -9.0350   28.7677 F   0  0  0  0  0  0  0  0  0  0  0  0
  -23.3412   -6.9445   27.0662 F   0  0  0  0  0  0  0  0  0  0  0  0
  1  2  1  0  0  0  0
  1  5  2  0  0  0  0
  2  6  2  0  0  0  0
  3  8  2  0  0  0  0
  3 16  1  0  0  0  0
  4  9  1  0  0  0  0
  4 16  2  0  0  0  0
  5 18  1  0  0  0  0
  6 20  1  0  0  0  0
  7 10  2  0  0  0  0
  7 19  1  0  0  0  0
  8 23  1  0  0  0  0
  9 23  2  0  0  0  0
 10 24  1  0  0  0  0
 11 12  2  0  0  0  0
 11 25  1  0  0  0  0
 12 26  1  0  0  0  0
 13 21  1  0  0  0  0
 13 24  2  0  0  0  0
 14 26  2  0  0  0  0
 14 27  1  0  0  0  0
 15 22  1  0  0  0  0
 15 65  2  0  0  0  0
 16 28  1  0  0  0  0
 17 28  1  0  0  0  0
 17 30  2  0  0  0  0
 17 32  1  0  0  0  0
 18 20  2  0  0  0  0
 18 37  1  0  0  0  0
 19 21  2  0  0  0  0
 19 38  1  0  0  0  0
 20 46  1  0  0  0  0
 21 39  1  0  0  0  0
 22 29  2  0  0  0  0
 22 56  1  0  0  0  0
 23 82  1  0  0  0  0
 24 83  1  0  0  0  0
 25 27  2  0  0  0  0
 25 82  1  0  0  0  0
 26 84  1  0  0  0  0
 27 85  1  0  0  0  0
 28 66  2  0  0  0  0
 29 61  1  0  0  0  0
 29 67  1  0  0  0  0
 30 68  1  0  0  0  0
 30 71  1  0  0  0  0
 31 57  1  0  0  0  0
 31 65  1  0  0  0  0
 31 67  2  0  0  0  0
 32 72  1  0  0  0  0
 32 77  2  0  0  0  0
 33 47  1  0  0  0  0
 33 73  1  0  0  0  0
 33 78  2  0  0  0  0
 34 62  1  0  0  0  0
 34 69  1  0  0  0  0
 34 79  2  0  0  0  0
 35 63  1  0  0  0  0
 35 74  1  0  0  0  0
 35 80  2  0  0  0  0
 36 70  1  0  0  0  0
 36 75  1  0  0  0  0
 36 81  2  0  0  0  0
 37 40  1  0  0  0  0
 38 47  1  0  0  0  0
 39 69  1  0  0  0  0
 40 42  1  0  0  0  0
 41 43  1  0  0  0  0
 41 44  1  0  0  0  0
 42 46  1  0  0  0  0
 43 48  1  0  0  0  0
 44 70  1  0  0  0  0
 45 48  1  0  0  0  0
 45 70  1  0  0  0  0
 46 73  1  0  0  0  0
 47 69  1  0  0  0  0
 48 68  1  0  0  0  0
 49 57  1  0  0  0  0
 50 61  1  0  0  0  0
 51 63  1  0  0  0  0
 52 64  1  0  0  0  0
 53 64  1  0  0  0  0
 54 64  1  0  0  0  0
 55 76  1  0  0  0  0
 56 58  1  0  0  0  0
 58 60  1  0  0  0  0
 59 61  1  0  0  0  0
 59 75  1  0  0  0  0
 60 83  1  0  0  0  0
 62 64  1  0  0  0  0
 62 74  1  0  0  0  0
 63 76  1  0  0  0  0
 66 68  1  0  0  0  0
M  CHG  1  76   1
M  ISO  4  36 100  60 101  75 100  83 101
M  END
> <Batch ID>
0086

> <Smiles>
CCc1ncc(CC[101CH2:1][101O:1]c2ccc3c(c2)CN(C(=O)C(NC(=O)C(C)NC)C(C)(C)C)C(C(=O)NC2CCCc4ccccc42)C3)c(C(C)C[100NH:0][100C:0](=O)N2CCCC(n3nc(-c4ccc(Oc5ccc(F)cc5F)cc4)c(C(N)=O)c3N)C2)n1

> <Shape>
0.227

> <Color>
0.160

> <Negative vol penalty>
0.000

$$$$

  -OEChem-04052318593D

 87 95  0     1  0  0  0  0  0999 V2000
  -27.8636   -9.9976   20.4526 C   0  0  0  0  0  0  0  0  0  0  0  0
  -28.4141  -11.0574   19.7390 C   0  0  0  0  0  0  0  0  0  0  0  0
  -21.7244  -29.5879   20.5721 C   0  0  0  0  0  0  0  0  0  0  0  0
  -22.7714  -27.6573   21.5789 C   0  0  0  0  0  0  0  0  0  0  0  0
  -26.5697  -10.0991   20.9619 C   0  0  0  0  0  0  0  0  0  0  0  0
  -27.6706  -12.2190   19.5335 C   0  0  0  0  0  0  0  0  0  0  0  0
  -29.7961  -17.9578   19.3004 C   0  0  0  0  0  0  0  0  0  0  0  0
  -20.4979  -29.2063   21.1159 C   0  0  0  0  0  0  0  0  0  0  0  0
  -21.5449  -27.2758   22.1227 C   0  0  0  0  0  0  0  0  0  0  0  0
  -30.1144  -18.7976   18.2339 C   0  0  0  0  0  0  0  0  0  0  0  0
  -18.9447  -29.3673   24.1150 C   0  0  0  0  0  0  0  0  0  0  0  0
  -18.1697  -30.3550   24.7228 C   0  0  0  0  0  0  0  0  0  0  0  0
  -27.9284  -19.8066   18.3839 C   0  0  0  0  0  0  0  0  0  0  0  0
  -31.2399  -22.6652   19.1676 C   0  0  0  0  0  0  0  0  0  0  0  0
  -16.3877  -29.9253   23.1490 C   0  0  0  0  0  0  0  0  0  0  0  0
  -22.8611  -28.8133   20.8035 C   0  0  0  0  0  0  0  0  0  0  0  0
  -25.0978  -30.0397   20.8312 C   0  0  0  0  0  0  0  0  0  0  0  0
  -25.8135  -11.2662   20.7708 C   0  0  0  0  0  0  0  0  0  0  0  0
  -28.5355  -18.0288   19.9105 C   0  0  0  0  0  0  0  0  0  0  0  0
  -26.3648  -12.3357   20.0396 C   0  0  0  0  0  0  0  0  0  0  0  0
  -27.5975  -18.9684   19.4595 C   0  0  0  0  0  0  0  0  0  0  0  0
  -31.0913  -23.5066   18.0707 C   0  0  0  0  0  0  0  0  0  0  0  0
  -31.1797  -23.1911   20.4534 C   0  0  0  0  0  0  0  0  0  0  0  0
  -20.4081  -28.0503   21.8912 C   0  0  0  0  0  0  0  0  0  0  0  0
  -29.1795  -19.7201   17.7737 C   0  0  0  0  0  0  0  0  0  0  0  0
  -18.4412  -28.6586   23.0241 C   0  0  0  0  0  0  0  0  0  0  0  0
  -16.8912  -30.6340   24.2398 C   0  0  0  0  0  0  0  0  0  0  0  0
  -17.1627  -28.9376   22.5412 C   0  0  0  0  0  0  0  0  0  0  0  0
  -24.1283  -29.2066   20.2416 C   0  0  0  0  0  0  0  0  0  0  0  0
  -30.8861  -24.8557   18.3112 C   0  0  0  0  0  0  0  0  0  0  0  0
  -30.9707  -24.5543   20.5872 C   0  0  0  0  0  0  0  0  0  0  0  0
  -26.1077  -30.1020   19.9024 C   0  0  0  0  0  0  0  0  0  0  0  0
  -25.0866  -30.6984   22.1047 C   0  0  0  0  0  0  0  0  0  0  0  0
  -26.1048  -16.0138   20.2783 C   0  0  0  0  0  0  0  0  0  0  0  0
  -24.9136  -18.4002   22.1245 C   0  0  0  0  0  0  0  0  0  0  0  0
  -24.8670  -21.7268   22.8849 C   0  0  0  0  0  0  0  0  0  0  0  0
  -28.7804  -26.7907   15.9773 C   0  0  0  0  0  0  0  0  0  0  0  0
  -24.4017  -11.3112   21.2996 C   0  0  0  0  0  0  0  0  0  0  0  0
  -28.2172  -17.1343   21.0771 C   0  0  0  0  0  0  0  0  0  0  0  0
  -26.2375  -19.0984   20.0934 C   0  0  0  0  0  0  0  0  0  0  0  0
  -23.8184  -12.7206   21.3595 C   0  0  0  0  0  0  0  0  0  0  0  0
  -26.4213  -29.2859   15.0364 C   0  0  0  0  0  0  0  0  0  0  0  0
  -24.0923  -13.4675   20.0580 C   0  0  0  0  0  0  0  0  0  0  0  0
  -25.6796  -29.5972   16.3375 C   0  0  0  0  0  0  0  0  0  0  0  0
  -26.7773  -27.8047   14.9303 C   0  0  0  0  0  0  0  0  0  0  0  0
  -26.7793  -27.5738   17.3840 C   0  0  0  0  0  0  0  0  0  0  0  0
  -25.5988  -13.6217   19.8170 C   0  0  1  0  0  0  0  0  0  0  0  0
  -26.7191  -16.9398   21.2896 C   0  0  1  0  0  0  0  0  0  0  0  0
  -26.4482  -29.0654   17.5621 C   0  0  2  0  0  0  0  0  0  0  0  0
  -30.8958  -25.1733   21.9446 C   0  0  0  0  0  0  0  0  0  0  0  0
  -31.7968  -26.9015   17.1507 C   0  0  0  0  0  0  0  0  0  0  0  0
  -24.2843  -23.8206   24.1394 C   0  0  0  0  0  0  0  0  0  0  0  0
  -31.5612  -20.8138   21.1941 C   0  0  0  0  0  0  0  0  0  0  0  0
  -30.0727  -22.3285   22.5456 C   0  0  0  0  0  0  0  0  0  0  0  0
  -32.5400  -22.6329   22.5779 C   0  0  0  0  0  0  0  0  0  0  0  0
  -22.3796  -18.2773   20.4294 C   0  0  0  0  0  0  0  0  0  0  0  0
  -21.7374  -20.5143   21.3522 C   0  0  0  0  0  0  0  0  0  0  0  0
  -21.9813  -18.5592   22.8822 C   0  0  0  0  0  0  0  0  0  0  0  0
  -27.1558  -21.3958   24.7317 C   0  0  0  0  0  0  0  0  0  0  0  0
  -31.1555  -22.9426   16.6738 C   0  0  0  0  0  0  0  0  0  0  0  0
  -29.7878  -22.8058   16.0013 C   0  0  0  0  0  0  0  0  0  0  0  0
  -28.8624  -21.8232   16.7094 C   0  0  0  0  0  0  0  0  0  1  0  0
  -30.7208  -25.8074   17.1720 C   0  0  2  0  0  0  0  0  0  0  0  0
  -24.0486  -19.6125   21.8778 C   0  0  1  0  0  0  0  0  0  0  0  0
  -24.9556  -22.4580   24.2123 C   0  0  2  0  0  0  0  0  0  0  0  0
  -31.3384  -22.2951   21.6328 C   0  0  0  0  0  0  0  0  0  0  0  0
  -22.5615  -19.2373   21.6220 C   0  0  0  0  0  0  0  0  0  0  0  0
  -24.4896  -28.7711   19.0317 N   0  0  0  0  0  0  0  0  0  0  0  0
  -30.8217  -25.4031   19.5456 N   0  0  0  0  0  0  0  0  0  0  0  0
  -25.6975  -29.3327   18.8536 N   0  0  0  0  0  0  0  0  0  0  0  0
  -25.9714  -18.1972   21.2269 N   0  0  0  0  0  0  0  0  0  0  0  0
  -27.5062  -27.3638   16.1221 N   0  0  0  0  0  0  0  0  0  0  0  0
  -27.2977  -30.7393   19.8886 N   0  0  0  0  0  0  0  0  0  0  0  0
  -23.9709  -30.5274   22.9355 N   0  0  0  0  0  0  0  0  0  0  0  0
  -26.1370  -14.6813   20.6429 N   0  0  0  0  0  0  0  0  0  0  0  0
  -24.2535  -20.4991   23.0181 N   0  0  0  0  0  0  0  0  0  0  0  0
  -29.4046  -26.4060   17.1576 N   0  0  0  0  0  0  0  0  0  0  0  0
  -26.3808  -22.6564   24.6002 N   0  3  0  0  0  0  0  0  0  0  0  0
  -26.0307  -31.4304   22.4874 O   0  0  0  0  0  0  0  0  0  0  0  0
  -25.6350  -16.4743   19.2444 O   0  0  0  0  0  0  0  0  0  0  0  0
  -24.6645  -17.6644   23.0828 O   0  0  0  0  0  0  0  0  0  0  0  0
  -25.2955  -22.1992   21.8343 O   0  0  0  0  0  0  0  0  0  0  0  0
  -29.3238  -26.6383   14.8780 O   0  0  0  0  0  0  0  0  0  0  0  0
  -19.2115  -27.6778   22.4222 O   0  0  0  0  0  0  0  0  0  0  0  0
  -29.4874  -20.5406   16.7325 O   0  0  0  0  0  0  0  0  0  1  0  0
  -16.1465  -31.5814   24.8246 F   0  0  0  0  0  0  0  0  0  0  0  0
  -16.6731  -28.2592   21.4943 F   0  0  0  0  0  0  0  0  0  0  0  0
  1  2  1  0  0  0  0
  1  5  2  0  0  0  0
  2  6  2  0  0  0  0
  3  8  2  0  0  0  0
  3 16  1  0  0  0  0
  4  9  1  0  0  0  0
  4 16  2  0  0  0  0
  5 18  1  0  0  0  0
  6 20  1  0  0  0  0
  7 10  2  0  0  0  0
  7 19  1  0  0  0  0
  8 24  1  0  0  0  0
  9 24  2  0  0  0  0
 10 25  1  0  0  0  0
 11 12  2  0  0  0  0
 11 26  1  0  0  0  0
 12 27  1  0  0  0  0
 13 21  1  0  0  0  0
 13 25  2  0  0  0  0
 14 22  1  0  0  0  0
 14 23  2  0  0  0  0
 15 27  2  0  0  0  0
 15 28  1  0  0  0  0
 16 29  1  0  0  0  0
 17 29  1  0  0  0  0
 17 32  2  0  0  0  0
 17 33  1  0  0  0  0
 18 20  2  0  0  0  0
 18 38  1  0  0  0  0
 19 21  2  0  0  0  0
 19 39  1  0  0  0  0
 20 47  1  0  0  0  0
 21 40  1  0  0  0  0
 22 30  2  0  0  0  0
 22 60  1  0  0  0  0
 23 31  1  0  0  0  0
 23 66  1  0  0  0  0
 24 84  1  0  0  0  0
 25 85  1  0  0  0  0
 26 28  2  0  0  0  0
 26 84  1  0  0  0  0
 27 86  1  0  0  0  0
 28 87  1  0  0  0  0
 29 68  2  0  0  0  0
 30 63  1  0  0  0  0
 30 69  1  0  0  0  0
 31 50  1  0  0  0  0
 31 69  2  0  0  0  0
 32 70  1  0  0  0  0
 32 73  1  0  0  0  0
 33 74  1  0  0  0  0
 33 79  2  0  0  0  0
 34 48  1  0  0  0  0
 34 75  1  0  0  0  0
 34 80  2  0  0  0  0
 35 64  1  0  0  0  0
 35 71  1  0  0  0  0
 35 81  2  0  0  0  0
 36 65  1  0  0  0  0
 36 76  1  0  0  0  0
 36 82  2  0  0  0  0
 37 72  1  0  0  0  0
 37 77  1  0  0  0  0
 37 83  2  0  0  0  0
 38 41  1  0  0  0  0
 39 48  1  0  0  0  0
 40 71  1  0  0  0  0
 41 43  1  0  0  0  0
 42 44  1  0  0  0  0
 42 45  1  0  0  0  0
 43 47  1  0  0  0  0
 44 49  1  0  0  0  0
 45 72  1  0  0  0  0
 46 49  1  0  0  0  0
 46 72  1  0  0  0  0
 47 75  1  0  0  0  0
 48 71  1  0  0  0  0
 49 70  1  0  0  0  0
 51 63  1  0  0  0  0
 52 65  1  0  0  0  0
 53 66  1  0  0  0  0
 54 66  1  0  0  0  0
 55 66  1  0  0  0  0
 56 67  1  0  0  0  0
 57 67  1  0  0  0  0
 58 67  1  0  0  0  0
 59 78  1  0  0  0  0
 60 61  1  0  0  0  0
 61 62  1  0  0  0  0
 62 85  1  0  0  0  0
 63 77  1  0  0  0  0
 64 67  1  0  0  0  0
 64 76  1  0  0  0  0
 65 78  1  0  0  0  0
 68 70  1  0  0  0  0
M  CHG  1  78   1
M  ISO  4  37 100  62 101  77 100  85 101
M  END
> <Batch ID>
0086

> <Smiles>
CNC(C)C(=O)NC(C(=O)N1Cc2cc([101O:1][101CH2:1]CCc3cc(C(C)(C)C)c(C)nc3C(C)[100NH:0][100C:0](=O)N3CCCC(n4nc(-c5ccc(Oc6ccc(F)cc6F)cc5)c(C(N)=O)c4N)C3)ccc2CC1C(=O)NC1CCCc2ccccc21)C(C)(C)C

> <Shape>
0.243

> <Color>
0.066

> <Negative vol penalty>
0.000

$$$$

  -OEChem-04052318593D

 86 94  0     1  0  0  0  0  0999 V2000
  -36.1154  -23.8469   25.4156 C   0  0  0  0  0  0  0  0  0  0  0  0
  -35.0891  -22.9797   25.0551 C   0  0  0  0  0  0  0  0  0  0  0  0
  -23.2903   -9.7988   19.9274 C   0  0  0  0  0  0  0  0  0  0  0  0
  -23.7484   -9.9560   22.2943 C   0  0  0  0  0  0  0  0  0  0  0  0
  -35.8133  -25.1058   25.9330 C   0  0  0  0  0  0  0  0  0  0  0  0
  -33.7599  -23.3706   25.2128 C   0  0  0  0  0  0  0  0  0  0  0  0
  -30.9117  -22.2421   21.1805 C   0  0  0  0  0  0  0  0  0  0  0  0
  -22.5656   -8.6272   20.1454 C   0  0  0  0  0  0  0  0  0  0  0  0
  -23.0237   -8.7843   22.5124 C   0  0  0  0  0  0  0  0  0  0  0  0
  -30.4983  -20.9177   21.0434 C   0  0  0  0  0  0  0  0  0  0  0  0
  -19.7781   -7.8721   22.7462 C   0  0  0  0  0  0  0  0  0  0  0  0
  -18.8791   -7.8569   23.8125 C   0  0  0  0  0  0  0  0  0  0  0  0
  -28.3382  -21.5051   21.9422 C   0  0  0  0  0  0  0  0  0  0  0  0
  -20.0895   -6.0174   24.8068 C   0  0  0  0  0  0  0  0  0  0  0  0
  -29.5896  -18.8292   24.8827 C   0  0  0  0  0  0  0  0  0  0  0  0
  -23.8818  -10.4632   21.0019 C   0  0  0  0  0  0  0  0  0  0  0  0
  -24.1384  -12.9920   20.7852 C   0  0  0  0  0  0  0  0  0  0  0  0
  -34.4798  -25.5161   26.0880 C   0  0  0  0  0  0  0  0  0  0  0  0
  -30.0435  -23.2075   21.7105 C   0  0  0  0  0  0  0  0  0  0  0  0
  -33.4396  -24.6357   25.7339 C   0  0  0  0  0  0  0  0  0  0  0  0
  -28.7420  -22.8417   22.0825 C   0  0  0  0  0  0  0  0  0  0  0  0
  -29.4926  -17.5349   24.4138 C   0  0  0  0  0  0  0  0  0  0  0  0
  -22.4322   -8.1199   21.4379 C   0  0  0  0  0  0  0  0  0  0  0  0
  -29.2124  -20.5484   21.4270 C   0  0  0  0  0  0  0  0  0  0  0  0
  -20.8328   -6.9599   22.7100 C   0  0  0  0  0  0  0  0  0  0  0  0
  -19.0348   -6.9296   24.8428 C   0  0  0  0  0  0  0  0  0  0  0  0
  -20.9885   -6.0326   23.7403 C   0  0  0  0  0  0  0  0  0  0  0  0
  -24.6310  -11.6733   20.7772 C   0  0  0  0  0  0  0  0  0  0  0  0
  -30.3402  -16.6206   25.0051 C   0  0  0  0  0  0  0  0  0  0  0  0
  -25.2385  -13.7711   20.5215 C   0  0  0  0  0  0  0  0  0  0  0  0
  -31.2180  -18.2287   26.3506 C   0  0  0  0  0  0  0  0  0  0  0  0
  -22.8057  -13.4701   21.0110 C   0  0  0  0  0  0  0  0  0  0  0  0
  -30.0769  -25.0899   24.2715 C   0  0  0  0  0  0  0  0  0  0  0  0
  -27.4008  -26.3250   22.9167 C   0  0  0  0  0  0  0  0  0  0  0  0
  -24.7512  -25.8840   20.8116 C   0  0  0  0  0  0  0  0  0  0  0  0
  -31.1127  -12.9384   21.3283 C   0  0  0  0  0  0  0  0  0  0  0  0
  -34.2022  -26.8682   26.6957 C   0  0  0  0  0  0  0  0  0  0  0  0
  -30.4956  -24.6373   21.8270 C   0  0  0  0  0  0  0  0  0  0  0  0
  -27.7647  -23.8440   22.6381 C   0  0  0  0  0  0  0  0  0  0  0  0
  -32.7697  -27.3501   26.4811 C   0  0  0  0  0  0  0  0  0  0  0  0
  -29.4535  -13.6556   18.2608 C   0  0  0  0  0  0  0  0  0  0  0  0
  -31.7784  -26.2346   26.7968 C   0  0  0  0  0  0  0  0  0  0  0  0
  -27.9850  -13.3479   18.5586 C   0  0  0  0  0  0  0  0  0  0  0  0
  -30.3899  -12.6818   18.9728 C   0  0  0  0  0  0  0  0  0  0  0  0
  -28.7091  -12.2629   20.7259 C   0  0  0  0  0  0  0  0  0  0  0  0
  -31.9854  -25.0330   25.8668 C   0  0  1  0  0  0  0  0  0  0  0  0
  -29.7010  -25.4331   22.8578 C   0  0  1  0  0  0  0  0  0  0  0  0
  -27.7283  -13.2529   20.0746 C   0  0  2  0  0  0  0  0  0  0  0  0
  -34.3667  -19.7654   27.9722 C   0  0  0  0  0  0  0  0  0  0  0  0
  -22.7125  -27.0580   19.9380 C   0  0  0  0  0  0  0  0  0  0  0  0
  -25.9761  -25.8175   25.5667 C   0  0  0  0  0  0  0  0  0  0  0  0
  -23.7959  -26.1008   24.3688 C   0  0  0  0  0  0  0  0  0  0  0  0
  -25.4118  -27.9980   24.4797 C   0  0  0  0  0  0  0  0  0  0  0  0
  -25.7273  -25.7496   18.0208 C   0  0  0  0  0  0  0  0  0  0  0  0
  -28.5156  -17.1703   23.3247 C   0  0  0  0  0  0  0  0  0  0  0  0
  -30.3232  -15.1899   24.5781 C   0  0  0  0  0  0  0  0  0  0  0  0
  -32.1758  -18.6138   27.4269 C   0  0  0  0  0  0  0  0  0  0  0  0
  -33.4079  -19.3434   26.8702 C   0  0  0  0  0  0  0  0  0  0  0  0
  -29.1660  -16.9772   21.9531 C   0  0  0  0  0  0  0  0  0  0  0  0
  -31.6902  -14.6463   24.1199 C   0  0  0  0  0  0  0  0  0  0  0  0
  -31.6820  -13.1690   23.7328 C   0  0  0  0  0  0  0  0  0  0  0  0
  -29.8087  -18.2463   21.4056 C   0  0  0  0  0  0  0  0  0  1  0  0
  -25.9247  -26.0183   22.9931 C   0  0  1  0  0  0  0  0  0  0  0  0
  -24.1856  -26.7586   19.7072 C   0  0  2  0  0  0  0  0  0  0  0  0
  -25.2959  -26.4642   24.3435 C   0  0  0  0  0  0  0  0  0  0  0  0
  -30.4443  -19.2126   25.8536 N   0  0  0  0  0  0  0  0  0  0  0  0
  -25.9419  -11.6140   20.5279 N   0  0  0  0  0  0  0  0  0  0  0  0
  -31.2189  -16.9341   25.9798 N   0  0  0  0  0  0  0  0  0  0  0  0
  -26.2823  -12.9053   20.3768 N   0  0  0  0  0  0  0  0  0  0  0  0
  -28.2559  -25.2283   22.7385 N   0  0  0  0  0  0  0  0  0  0  0  0
  -30.0951  -12.6399   20.4072 N   0  0  0  0  0  0  0  0  0  0  0  0
  -25.4049  -15.1053   20.4014 N   0  0  0  0  0  0  0  0  0  0  0  0
  -21.7947  -12.5340   21.2680 N   0  0  0  0  0  0  0  0  0  0  0  0
  -31.4113  -25.2967   24.5648 N   0  0  0  0  0  0  0  0  0  0  0  0
  -25.3181  -26.6359   21.8188 N   0  0  0  0  0  0  0  0  0  0  0  0
  -30.7473  -12.8817   22.6677 N   0  0  0  0  0  0  0  0  0  0  0  0
  -24.3263  -26.0817   18.3870 N   0  3  0  0  0  0  0  0  0  0  0  0
  -22.5167  -14.6900   20.9693 O   0  0  0  0  0  0  0  0  0  0  0  0
  -29.2195  -24.6701   25.0398 O   0  0  0  0  0  0  0  0  0  0  0  0
  -27.7807  -27.4954   23.0044 O   0  0  0  0  0  0  0  0  0  0  0  0
  -24.6924  -24.6566   20.7853 O   0  0  0  0  0  0  0  0  0  0  0  0
  -32.2604  -13.2388   20.9825 O   0  0  0  0  0  0  0  0  0  0  0  0
  -21.7249   -6.9767   21.6510 O   0  0  0  0  0  0  0  0  0  0  0  0
  -28.8067  -19.2562   21.2949 O   0  0  0  0  0  0  0  0  0  1  0  0
  -18.1723   -6.9162   25.8676 F   0  0  0  0  0  0  0  0  0  0  0  0
  -22.0004   -5.1546   23.7117 F   0  0  0  0  0  0  0  0  0  0  0  0
  1  2  1  0  0  0  0
  1  5  2  0  0  0  0
  2  6  2  0  0  0  0
  3  8  2  0  0  0  0
  3 16  1  0  0  0  0
  4  9  1  0  0  0  0
  4 16  2  0  0  0  0
  5 18  1  0  0  0  0
  6 20  1  0  0  0  0
  7 10  2  0  0  0  0
  7 19  1  0  0  0  0
  8 23  1  0  0  0  0
  9 23  2  0  0  0  0
 10 24  1  0  0  0  0
 11 12  2  0  0  0  0
 11 25  1  0  0  0  0
 12 26  1  0  0  0  0
 13 21  1  0  0  0  0
 13 24  2  0  0  0  0
 14 26  2  0  0  0  0
 14 27  1  0  0  0  0
 15 22  1  0  0  0  0
 15 66  2  0  0  0  0
 16 28  1  0  0  0  0
 17 28  1  0  0  0  0
 17 30  2  0  0  0  0
 17 32  1  0  0  0  0
 18 20  2  0  0  0  0
 18 37  1  0  0  0  0
 19 21  2  0  0  0  0
 19 38  1  0  0  0  0
 20 46  1  0  0  0  0
 21 39  1  0  0  0  0
 22 29  2  0  0  0  0
 22 55  1  0  0  0  0
 23 83  1  0  0  0  0
 24 84  1  0  0  0  0
 25 27  2  0  0  0  0
 25 83  1  0  0  0  0
 26 85  1  0  0  0  0
 27 86  1  0  0  0  0
 28 67  2  0  0  0  0
 29 56  1  0  0  0  0
 29 68  1  0  0  0  0
 30 69  1  0  0  0  0
 30 72  1  0  0  0  0
 31 57  1  0  0  0  0
 31 66  1  0  0  0  0
 31 68  2  0  0  0  0
 32 73  1  0  0  0  0
 32 78  2  0  0  0  0
 33 47  1  0  0  0  0
 33 74  1  0  0  0  0
 33 79  2  0  0  0  0
 34 63  1  0  0  0  0
 34 70  1  0  0  0  0
 34 80  2  0  0  0  0
 35 64  1  0  0  0  0
 35 75  1  0  0  0  0
 35 81  2  0  0  0  0
 36 71  1  0  0  0  0
 36 76  1  0  0  0  0
 36 82  2  0  0  0  0
 37 40  1  0  0  0  0
 38 47  1  0  0  0  0
 39 70  1  0  0  0  0
 40 42  1  0  0  0  0
 41 43  1  0  0  0  0
 41 44  1  0  0  0  0
 42 46  1  0  0  0  0
 43 48  1  0  0  0  0
 44 71  1  0  0  0  0
 45 48  1  0  0  0  0
 45 71  1  0  0  0  0
 46 74  1  0  0  0  0
 47 70  1  0  0  0  0
 48 69  1  0  0  0  0
 49 58  1  0  0  0  0
 50 64  1  0  0  0  0
 51 65  1  0  0  0  0
 52 65  1  0  0  0  0
 53 65  1  0  0  0  0
 54 77  1  0  0  0  0
 55 59  1  0  0  0  0
 56 60  1  0  0  0  0
 57 58  1  0  0  0  0
 59 62  1  0  0  0  0
 60 61  1  0  0  0  0
 61 76  1  0  0  0  0
 62 84  1  0  0  0  0
 63 65  1  0  0  0  0
 63 75  1  0  0  0  0
 64 77  1  0  0  0  0
 67 69  1  0  0  0  0
M  CHG  1  77   1
M  ISO  4  36 100  62 101  76 100  84 101
M  END
> <Batch ID>
0086

> <Smiles>
CCCc1ncc(CC[101CH2:1][101O:1]c2ccc3c(c2)CN(C(=O)C(NC(=O)C(C)NC)C(C)(C)C)C(C(=O)NC2CCCc4ccccc42)C3)c(CCC[100NH:0][100C:0](=O)N2CCCC(n3nc(-c4ccc(Oc5ccc(F)cc5F)cc4)c(C(N)=O)c3N)C2)n1

> <Shape>
0.189

> <Color>
0.171

> <Negative vol penalty>
0.000

$$$$

  -OEChem-04052318593D

 89 97  0     1  0  0  0  0  0999 V2000
  -32.1203  -29.8803   18.7204 C   0  0  0  0  0  0  0  0  0  0  0  0
  -31.4458  -28.6916   18.4608 C   0  0  0  0  0  0  0  0  0  0  0  0
  -23.4728  -11.0775   23.9343 C   0  0  0  0  0  0  0  0  0  0  0  0
  -23.2995  -13.0837   25.2693 C   0  0  0  0  0  0  0  0  0  0  0  0
  -31.7933  -30.6344   19.8466 C   0  0  0  0  0  0  0  0  0  0  0  0
  -30.4446  -28.2556   19.3280 C   0  0  0  0  0  0  0  0  0  0  0  0
  -25.3263  -25.2469   17.8260 C   0  0  0  0  0  0  0  0  0  0  0  0
  -22.6981  -10.3893   24.8680 C   0  0  0  0  0  0  0  0  0  0  0  0
  -22.5247  -12.3955   26.2029 C   0  0  0  0  0  0  0  0  0  0  0  0
  -24.9885  -23.8947   17.8610 C   0  0  0  0  0  0  0  0  0  0  0  0
  -19.4248  -10.1127   25.6695 C   0  0  0  0  0  0  0  0  0  0  0  0
  -18.4026   -9.2954   25.1872 C   0  0  0  0  0  0  0  0  0  0  0  0
  -23.9510  -24.2158   20.0150 C   0  0  0  0  0  0  0  0  0  0  0  0
  -25.7373  -19.0083   18.3902 C   0  0  0  0  0  0  0  0  0  0  0  0
  -26.7022  -20.1077   20.2994 C   0  0  0  0  0  0  0  0  0  0  0  0
  -19.4385   -7.3811   26.2356 C   0  0  0  0  0  0  0  0  0  0  0  0
  -23.7735  -12.4247   24.1350 C   0  0  0  0  0  0  0  0  0  0  0  0
  -24.1173  -13.8463   22.0448 C   0  0  0  0  0  0  0  0  0  0  0  0
  -30.7809  -30.2124   20.7228 C   0  0  0  0  0  0  0  0  0  0  0  0
  -24.9879  -26.0929   18.8920 C   0  0  0  0  0  0  0  0  0  0  0  0
  -30.1047  -29.0041   20.4677 C   0  0  0  0  0  0  0  0  0  0  0  0
  -24.2833  -25.5789   19.9899 C   0  0  0  0  0  0  0  0  0  0  0  0
  -25.5807  -19.6788   19.5982 C   0  0  0  0  0  0  0  0  0  0  0  0
  -22.2240  -11.0483   26.0023 C   0  0  0  0  0  0  0  0  0  0  0  0
  -24.3033  -23.3784   18.9569 C   0  0  0  0  0  0  0  0  0  0  0  0
  -20.4540   -9.5642   26.4347 C   0  0  0  0  0  0  0  0  0  0  0  0
  -18.4094   -7.9296   25.4703 C   0  0  0  0  0  0  0  0  0  0  0  0
  -20.4608   -8.1984   26.7178 C   0  0  0  0  0  0  0  0  0  0  0  0
  -24.5742  -13.1361   23.1711 C   0  0  0  0  0  0  0  0  0  0  0  0
  -27.0265  -18.7934   17.9302 C   0  0  0  0  0  0  0  0  0  0  0  0
  -27.9482  -19.8433   19.7540 C   0  0  0  0  0  0  0  0  0  0  0  0
  -25.2600  -14.3350   21.4602 C   0  0  0  0  0  0  0  0  0  0  0  0
  -22.7794  -14.0464   21.5696 C   0  0  0  0  0  0  0  0  0  0  0  0
  -26.6307  -27.8500   20.9698 C   0  0  0  0  0  0  0  0  0  0  0  0
  -30.2318  -16.8504   21.9539 C   0  0  0  0  0  0  0  0  0  0  0  0
  -23.6786  -28.8646   21.8519 C   0  0  0  0  0  0  0  0  0  0  0  0
  -20.3242  -28.2506   21.9863 C   0  0  0  0  0  0  0  0  0  0  0  0
  -30.4951  -31.0371   21.9528 C   0  0  0  0  0  0  0  0  0  0  0  0
  -25.3359  -27.5548   18.8269 C   0  0  0  0  0  0  0  0  0  0  0  0
  -23.8790  -26.4494   21.1507 C   0  0  0  0  0  0  0  0  0  0  0  0
  -29.1649  -30.6959   22.6193 C   0  0  0  0  0  0  0  0  0  0  0  0
  -30.1229  -13.2892   22.3360 C   0  0  0  0  0  0  0  0  0  0  0  0
  -29.0048  -29.1845   22.7488 C   0  0  0  0  0  0  0  0  0  0  0  0
  -28.6355  -12.9938   22.5250 C   0  0  0  0  0  0  0  0  0  0  0  0
  -30.5143  -14.6170   22.9769 C   0  0  0  0  0  0  0  0  0  0  0  0
  -28.2155  -15.4877   22.6950 C   0  0  0  0  0  0  0  0  0  0  0  0
  -28.9957  -28.5106   21.3714 C   0  0  1  0  0  0  0  0  0  0  0  0
  -25.3936  -28.2170   20.2000 C   0  0  1  0  0  0  0  0  0  0  0  0
  -27.7718  -14.1698   22.0357 C   0  0  2  0  0  0  0  0  0  0  0  0
  -23.9842  -19.2339   21.4916 C   0  0  0  0  0  0  0  0  0  0  0  0
  -28.0044  -16.7572   16.8114 C   0  0  0  0  0  0  0  0  0  0  0  0
  -27.9331  -18.9579   15.5839 C   0  0  0  0  0  0  0  0  0  0  0  0
  -18.1701  -29.2480   22.8002 C   0  0  0  0  0  0  0  0  0  0  0  0
  -28.9184  -23.4032   20.5750 C   0  0  0  0  0  0  0  0  0  0  0  0
  -30.2809  -23.5011   18.4801 C   0  0  0  0  0  0  0  0  0  0  0  0
  -24.4053  -28.0932   24.7131 C   0  0  0  0  0  0  0  0  0  0  0  0
  -21.9711  -28.2057   25.2877 C   0  0  0  0  0  0  0  0  0  0  0  0
  -23.1604  -30.2516   24.4988 C   0  0  0  0  0  0  0  0  0  0  0  0
  -19.1994  -28.3446   19.2505 C   0  0  0  0  0  0  0  0  0  0  0  0
  -29.2838  -17.9253   21.4850 C   0  0  0  0  0  0  0  0  0  0  0  0
  -30.0815  -19.0983   20.9160 C   0  0  0  0  0  0  0  0  0  0  0  0
  -30.0395  -21.2963   19.6633 C   0  0  0  0  0  0  0  0  0  0  0  0
  -23.8970  -21.4440   20.2795 C   0  0  0  0  0  0  0  0  0  1  0  0
  -24.1884  -19.9428   20.1498 C   0  0  1  0  0  0  0  0  0  0  0  0
  -27.2327  -18.0786   16.6366 C   0  0  0  0  0  0  0  0  0  0  0  0
  -29.1735  -20.2877   20.4805 C   0  0  1  0  0  0  0  0  0  0  0  0
  -22.6443  -28.4049   22.8509 C   0  0  1  0  0  0  0  0  0  0  0  0
  -19.1273  -29.1121   21.6263 C   0  0  2  0  0  0  0  0  0  0  0  0
  -29.3432  -22.6324   19.3244 C   0  0  0  0  0  0  0  0  0  0  0  0
  -23.0545  -28.7218   24.3168 C   0  0  0  0  0  0  0  0  0  0  0  0
  -25.9036  -13.1681   23.2965 N   0  0  0  0  0  0  0  0  0  0  0  0
  -28.1399  -19.1950   18.5833 N   0  0  0  0  0  0  0  0  0  0  0  0
  -26.2918  -13.9043   22.2413 N   0  0  0  0  0  0  0  0  0  0  0  0
  -24.2476  -27.8707   21.0431 N   0  0  0  0  0  0  0  0  0  0  0  0
  -29.6563  -15.7046   22.5034 N   0  0  0  0  0  0  0  0  0  0  0  0
  -25.4729  -15.0868   20.3593 N   0  0  0  0  0  0  0  0  0  0  0  0
  -21.7219  -13.4747   22.2901 N   0  0  0  0  0  0  0  0  0  0  0  0
  -27.7081  -28.6823   20.7333 N   0  0  0  0  0  0  0  0  0  0  0  0
  -21.3822  -29.0100   22.4395 N   0  0  0  0  0  0  0  0  0  0  0  0
  -18.3845  -28.5142   20.4810 N   0  3  0  0  0  0  0  0  0  0  0  0
  -22.5304  -14.6987   20.5274 O   0  0  0  0  0  0  0  0  0  0  0  0
  -26.6088  -26.8842   21.7238 O   0  0  0  0  0  0  0  0  0  0  0  0
  -31.4471  -17.0245   21.8319 O   0  0  0  0  0  0  0  0  0  0  0  0
  -23.9656  -30.0625   21.7864 O   0  0  0  0  0  0  0  0  0  0  0  0
  -20.3197  -27.0262   21.8799 O   0  0  0  0  0  0  0  0  0  0  0  0
  -21.4678  -10.3771   26.9134 O   0  0  0  0  0  0  0  0  0  0  0  0
  -23.9731  -22.0587   18.9939 O   0  0  0  0  0  0  0  0  0  1  0  0
  -17.4268   -7.1452   25.0085 F   0  0  0  0  0  0  0  0  0  0  0  0
  -21.4463   -7.6659   27.4535 F   0  0  0  0  0  0  0  0  0  0  0  0
  1  2  1  0  0  0  0
  1  5  2  0  0  0  0
  2  6  2  0  0  0  0
  3  8  2  0  0  0  0
  3 17  1  0  0  0  0
  4  9  1  0  0  0  0
  4 17  2  0  0  0  0
  5 19  1  0  0  0  0
  6 21  1  0  0  0  0
  7 10  2  0  0  0  0
  7 20  1  0  0  0  0
  8 24  1  0  0  0  0
  9 24  2  0  0  0  0
 10 25  1  0  0  0  0
 11 12  2  0  0  0  0
 11 26  1  0  0  0  0
 12 27  1  0  0  0  0
 13 22  1  0  0  0  0
 13 25  2  0  0  0  0
 14 23  1  0  0  0  0
 14 30  2  0  0  0  0
 15 23  2  0  0  0  0
 15 31  1  0  0  0  0
 16 27  2  0  0  0  0
 16 28  1  0  0  0  0
 17 29  1  0  0  0  0
 18 29  1  0  0  0  0
 18 32  2  0  0  0  0
 18 33  1  0  0  0  0
 19 21  2  0  0  0  0
 19 38  1  0  0  0  0
 20 22  2  0  0  0  0
 20 39  1  0  0  0  0
 21 47  1  0  0  0  0
 22 40  1  0  0  0  0
 23 64  1  0  0  0  0
 24 86  1  0  0  0  0
 25 87  1  0  0  0  0
 26 28  2  0  0  0  0
 26 86  1  0  0  0  0
 27 88  1  0  0  0  0
 28 89  1  0  0  0  0
 29 71  2  0  0  0  0
 30 65  1  0  0  0  0
 30 72  1  0  0  0  0
 31 66  1  0  0  0  0
 31 72  2  0  0  0  0
 32 73  1  0  0  0  0
 32 76  1  0  0  0  0
 33 77  1  0  0  0  0
 33 81  2  0  0  0  0
 34 48  1  0  0  0  0
 34 78  1  0  0  0  0
 34 82  2  0  0  0  0
 35 60  1  0  0  0  0
 35 75  1  0  0  0  0
 35 83  2  0  0  0  0
 36 67  1  0  0  0  0
 36 74  1  0  0  0  0
 36 84  2  0  0  0  0
 37 68  1  0  0  0  0
 37 79  1  0  0  0  0
 37 85  2  0  0  0  0
 38 41  1  0  0  0  0
 39 48  1  0  0  0  0
 40 74  1  0  0  0  0
 41 43  1  0  0  0  0
 42 44  1  0  0  0  0
 42 45  1  0  0  0  0
 43 47  1  0  0  0  0
 44 49  1  0  0  0  0
 45 75  1  0  0  0  0
 46 49  1  0  0  0  0
 46 75  1  0  0  0  0
 47 78  1  0  0  0  0
 48 74  1  0  0  0  0
 49 73  1  0  0  0  0
 50 64  1  0  0  0  0
 51 65  1  0  0  0  0
 52 65  1  0  0  0  0
 53 68  1  0  0  0  0
 54 69  1  0  0  0  0
 55 69  1  0  0  0  0
 56 70  1  0  0  0  0
 57 70  1  0  0  0  0
 58 70  1  0  0  0  0
 59 80  1  0  0  0  0
 60 61  1  0  0  0  0
 61 66  1  0  0  0  0
 62 66  1  0  0  0  0
 62 69  1  0  0  0  0
 63 64  1  0  0  0  0
 63 87  1  0  0  0  0
 67 70  1  0  0  0  0
 67 79  1  0  0  0  0
 68 80  1  0  0  0  0
 71 73  1  0  0  0  0
M  CHG  1  80   1
M  ISO  4  35 100  60 100  63 101  87 101
M  END
> <Batch ID>
0086

> <Smiles>
CNC(C)C(=O)NC(C(=O)N1Cc2cc([101O:1][101CH2:1]C(C)c3cc(C(C)C)nc(C(C[100CH2:0][100C:0](=O)N4CCCC(n5nc(-c6ccc(Oc7ccc(F)cc7F)cc6)c(C(N)=O)c5N)C4)CC(C)C)c3)ccc2CC1C(=O)NC1CCCc2ccccc21)C(C)(C)C

> <Shape>
0.202

> <Color>
0.082

> <Negative vol penalty>
0.000

$$$$

  -OEChem-04052318593D

 85 92  0     1  0  0  0  0  0999 V2000
  -30.4539  -22.2853    9.8807 C   0  0  0  0  0  0  0  0  0  0  0  0
  -30.7073  -21.5092   11.0072 C   0  0  0  0  0  0  0  0  0  0  0  0
  -23.0020   -9.8924   19.9806 C   0  0  0  0  0  0  0  0  0  0  0  0
  -23.7323   -9.9420   22.2831 C   0  0  0  0  0  0  0  0  0  0  0  0
  -31.1764  -23.4584    9.6668 C   0  0  0  0  0  0  0  0  0  0  0  0
  -31.6843  -21.9054   11.9199 C   0  0  0  0  0  0  0  0  0  0  0  0
  -31.5794  -21.1281   17.9937 C   0  0  0  0  0  0  0  0  0  0  0  0
  -22.2381   -8.7562   20.2473 C   0  0  0  0  0  0  0  0  0  0  0  0
  -22.9684   -8.8058   22.5498 C   0  0  0  0  0  0  0  0  0  0  0  0
  -32.1660  -20.1774   18.8280 C   0  0  0  0  0  0  0  0  0  0  0  0
  -23.2178   -5.4679   22.0734 C   0  0  0  0  0  0  0  0  0  0  0  0
  -23.8090   -4.4509   22.8230 C   0  0  0  0  0  0  0  0  0  0  0  0
  -34.0086  -21.6803   19.2347 C   0  0  0  0  0  0  0  0  0  0  0  0
  -22.0884   -4.6886   24.5024 C   0  0  0  0  0  0  0  0  0  0  0  0
  -23.7491  -10.4853   20.9985 C   0  0  0  0  0  0  0  0  0  0  0  0
  -24.1293  -13.0018   20.8246 C   0  0  0  0  0  0  0  0  0  0  0  0
  -32.1559  -23.8741   10.5824 C   0  0  0  0  0  0  0  0  0  0  0  0
  -32.2094  -22.3598   17.7647 C   0  0  0  0  0  0  0  0  0  0  0  0
  -32.4215  -23.0845   11.7174 C   0  0  0  0  0  0  0  0  0  0  0  0
  -33.4267  -22.6458   18.3992 C   0  0  0  0  0  0  0  0  0  0  0  0
  -22.2213   -8.2129   21.5319 C   0  0  0  0  0  0  0  0  0  0  0  0
  -33.3822  -20.4523   19.4463 C   0  0  0  0  0  0  0  0  0  0  0  0
  -22.0620   -6.0953   22.5383 C   0  0  0  0  0  0  0  0  0  0  0  0
  -23.2442   -4.0612   24.0374 C   0  0  0  0  0  0  0  0  0  0  0  0
  -21.4973   -5.7057   23.7528 C   0  0  0  0  0  0  0  0  0  0  0  0
  -24.5388  -11.6587   20.7234 C   0  0  0  0  0  0  0  0  0  0  0  0
  -25.2369  -13.7269   20.4585 C   0  0  0  0  0  0  0  0  0  0  0  0
  -22.8613  -13.5454   21.2146 C   0  0  0  0  0  0  0  0  0  0  0  0
  -33.3765  -23.8408   15.2058 C   0  0  0  0  0  0  0  0  0  0  0  0
  -33.7890  -26.2892   17.2933 C   0  0  0  0  0  0  0  0  0  0  0  0
  -34.1870  -27.3031   20.5275 C   0  0  0  0  0  0  0  0  0  0  0  0
  -30.7321  -14.6714   20.6958 C   0  0  0  0  0  0  0  0  0  0  0  0
  -32.9440  -25.1250   10.2843 C   0  0  0  0  0  0  0  0  0  0  0  0
  -31.5505  -23.3850   16.8832 C   0  0  0  0  0  0  0  0  0  0  0  0
  -34.1337  -23.9610   18.2022 C   0  0  0  0  0  0  0  0  0  0  0  0
  -33.7015  -25.6701   11.4923 C   0  0  0  0  0  0  0  0  0  0  0  0
  -29.5906  -12.2484   18.3500 C   0  0  0  0  0  0  0  0  0  0  0  0
  -34.4381  -24.5452   12.2126 C   0  0  0  0  0  0  0  0  0  0  0  0
  -28.1436  -11.9855   18.7705 C   0  0  0  0  0  0  0  0  0  0  0  0
  -30.4953  -12.4840   19.5575 C   0  0  0  0  0  0  0  0  0  0  0  0
  -28.5868  -13.2744   20.9015 C   0  0  0  0  0  0  0  0  0  0  0  0
  -33.4560  -23.4938   12.7433 C   0  0  1  0  0  0  0  0  0  0  0  0
  -32.5330  -24.4040   16.3144 C   0  0  1  0  0  0  0  0  0  0  0  0
  -27.6254  -13.0863   19.7154 C   0  0  2  0  0  0  0  0  0  0  0  0
  -35.2106  -18.3066   26.5047 C   0  0  0  0  0  0  0  0  0  0  0  0
  -31.2052  -15.9364   25.6775 C   0  0  0  0  0  0  0  0  0  0  0  0
  -34.5385  -29.3629   21.9172 C   0  0  0  0  0  0  0  0  0  0  0  0
  -34.2472  -15.8377   21.1141 C   0  0  0  0  0  0  0  0  0  0  0  0
  -36.0404  -17.5245   21.4847 C   0  0  0  0  0  0  0  0  0  0  0  0
  -36.7104  -26.3787   16.4173 C   0  0  0  0  0  0  0  0  0  0  0  0
  -37.2068  -27.7469   18.4545 C   0  0  0  0  0  0  0  0  0  0  0  0
  -35.6425  -28.6200   16.7186 C   0  0  0  0  0  0  0  0  0  0  0  0
  -31.8400  -19.1800   23.7078 C   0  0  0  0  0  0  0  0  0  0  0  0
  -31.6596  -26.8769   22.0072 C   0  0  0  0  0  0  0  0  0  0  0  0
  -34.4553  -18.7049   25.2438 C   0  0  0  0  0  0  0  0  0  0  0  0
  -30.6110  -16.3265   24.3338 C   0  0  0  0  0  0  0  0  0  0  0  0
  -33.4182  -17.6356   24.8590 C   0  0  0  0  0  0  0  0  0  0  0  0
  -30.8135  -16.8490   21.8833 C   0  0  0  0  0  0  0  0  0  0  0  0
  -33.0925  -18.6446   20.9643 C   0  0  0  0  0  0  0  0  0  1  0  0
  -34.8962  -26.7283   18.2208 C   0  0  1  0  0  0  0  0  0  0  0  0
  -33.5154  -28.4044   21.3278 C   0  0  2  0  0  0  0  0  0  0  0  0
  -34.7218  -16.9619   22.0434 C   0  0  0  0  0  0  0  0  0  0  0  0
  -31.6205  -16.6809   23.1995 C   0  0  1  0  0  0  0  0  0  0  0  0
  -33.6901  -18.1306   22.2934 C   0  0  2  0  0  0  0  0  0  0  0  0
  -36.1019  -27.3428   17.4552 C   0  0  0  0  0  0  0  0  0  0  0  0
  -32.6639  -17.8638   23.4993 C   0  0  1  0  0  0  0  0  0  0  0  0
  -25.8074  -11.5350   20.3243 N   0  0  0  0  0  0  0  0  0  0  0  0
  -26.2046  -12.8097   20.1712 N   0  0  0  0  0  0  0  0  0  0  0  0
  -33.4525  -24.9285   17.3262 N   0  0  0  0  0  0  0  0  0  0  0  0
  -29.9485  -13.5407   20.4120 N   0  0  0  0  0  0  0  0  0  0  0  0
  -25.4677  -15.0531   20.3575 N   0  0  0  0  0  0  0  0  0  0  0  0
  -21.8319  -12.6590   21.5594 N   0  0  0  0  0  0  0  0  0  0  0  0
  -32.8129  -23.9666   13.9504 N   0  0  0  0  0  0  0  0  0  0  0  0
  -34.2828  -27.6287   19.1911 N   0  0  0  0  0  0  0  0  0  0  0  0
  -30.1358  -15.6281   21.5081 N   0  0  0  0  0  0  0  0  0  0  0  0
  -32.7196  -27.8213   22.4448 N   0  3  0  0  0  0  0  0  0  0  0  0
  -22.6423  -14.7803   21.2403 O   0  0  0  0  0  0  0  0  0  0  0  0
  -34.4593  -23.3312   15.4697 O   0  0  0  0  0  0  0  0  0  0  0  0
  -33.2380  -27.1241   16.5715 O   0  0  0  0  0  0  0  0  0  0  0  0
  -34.5900  -26.2600   21.0376 O   0  0  0  0  0  0  0  0  0  0  0  0
  -31.8763  -14.8199   20.2533 O   0  0  0  0  0  0  0  0  0  0  0  0
  -21.4759   -7.1043   21.7926 O   0  0  0  0  0  0  0  0  0  0  0  0
  -33.9625  -19.5174   20.2681 O   0  0  0  0  0  0  0  0  0  1  0  0
  -23.8111   -3.0835   24.7564 F   0  0  0  0  0  0  0  0  0  0  0  0
  -20.3863   -6.3039   24.2040 F   0  0  0  0  0  0  0  0  0  0  0  0
  1  2  1  0  0  0  0
  1  5  2  0  0  0  0
  2  6  2  0  0  0  0
  3  8  2  0  0  0  0
  3 15  1  0  0  0  0
  4  9  1  0  0  0  0
  4 15  2  0  0  0  0
  5 17  1  0  0  0  0
  6 19  1  0  0  0  0
  7 10  2  0  0  0  0
  7 18  1  0  0  0  0
  8 21  1  0  0  0  0
  9 21  2  0  0  0  0
 10 22  1  0  0  0  0
 11 12  2  0  0  0  0
 11 23  1  0  0  0  0
 12 24  1  0  0  0  0
 13 20  1  0  0  0  0
 13 22  2  0  0  0  0
 14 24  2  0  0  0  0
 14 25  1  0  0  0  0
 15 26  1  0  0  0  0
 16 26  1  0  0  0  0
 16 27  2  0  0  0  0
 16 28  1  0  0  0  0
 17 19  2  0  0  0  0
 17 33  1  0  0  0  0
 18 20  2  0  0  0  0
 18 34  1  0  0  0  0
 19 42  1  0  0  0  0
 20 35  1  0  0  0  0
 21 82  1  0  0  0  0
 22 83  1  0  0  0  0
 23 25  2  0  0  0  0
 23 82  1  0  0  0  0
 24 84  1  0  0  0  0
 25 85  1  0  0  0  0
 26 67  2  0  0  0  0
 27 68  1  0  0  0  0
 27 71  1  0  0  0  0
 28 72  1  0  0  0  0
 28 77  2  0  0  0  0
 29 43  1  0  0  0  0
 29 73  1  0  0  0  0
 29 78  2  0  0  0  0
 30 60  1  0  0  0  0
 30 69  1  0  0  0  0
 30 79  2  0  0  0  0
 31 61  1  0  0  0  0
 31 74  1  0  0  0  0
 31 80  2  0  0  0  0
 32 70  1  0  0  0  0
 32 75  1  0  0  0  0
 32 81  2  0  0  0  0
 33 36  1  0  0  0  0
 34 43  1  0  0  0  0
 35 69  1  0  0  0  0
 36 38  1  0  0  0  0
 37 39  1  0  0  0  0
 37 40  1  0  0  0  0
 38 42  1  0  0  0  0
 39 44  1  0  0  0  0
 40 70  1  0  0  0  0
 41 44  1  0  0  0  0
 41 70  1  0  0  0  0
 42 73  1  0  0  0  0
 43 69  1  0  0  0  0
 44 68  1  0  0  0  0
 45 55  1  0  0  0  0
 46 56  1  0  0  0  0
 47 61  1  0  0  0  0
 48 62  1  0  0  0  0
 49 62  1  0  0  0  0
 50 65  1  0  0  0  0
 51 65  1  0  0  0  0
 52 65  1  0  0  0  0
 53 66  1  0  0  0  0
 54 76  1  0  0  0  0
 55 57  1  0  0  0  0
 56 63  1  0  0  0  0
 57 66  1  0  0  0  0
 58 63  1  0  0  0  0
 58 75  1  0  0  0  0
 59 64  1  0  0  0  0
 59 83  1  0  0  0  0
 60 65  1  0  0  0  0
 60 74  1  0  0  0  0
 61 76  1  0  0  0  0
 62 64  1  0  0  0  0
 63 66  1  0  0  0  0
 64 66  1  0  0  0  0
 67 68  1  0  0  0  0
M  CHG  1  76   1
M  ISO  4  32 100  59 101  75 100  83 101
M  END
> <Batch ID>
0086

> <Smiles>
CCCC(C)(C(CC)C[100NH:0][100C:0](=O)N1CCCC(n2nc(-c3ccc(Oc4ccc(F)cc4F)cc3)c(C(N)=O)c2N)C1)C(C(C)C)[101CH2:1][101O:1]c1ccc2c(c1)CN(C(=O)C(NC(=O)C(C)NC)C(C)(C)C)C(C(=O)NC1CCCc3ccccc31)C2

> <Shape>
0.178

> <Color>
0.178

> <Negative vol penalty>
0.000

$$$$

  -OEChem-04052318593D

 90 98  0     1  0  0  0  0  0999 V2000
  -17.2509  -30.1400   24.6794 C   0  0  0  0  0  0  0  0  0  0  0  0
  -18.5368  -30.4337   25.1218 C   0  0  0  0  0  0  0  0  0  0  0  0
  -25.4384  -14.6207   20.6790 C   0  0  0  0  0  0  0  0  0  0  0  0
  -25.9356  -14.5474   18.3158 C   0  0  0  0  0  0  0  0  0  0  0  0
  -17.0582  -29.1756   23.6911 C   0  0  0  0  0  0  0  0  0  0  0  0
  -19.6307  -29.7624   24.5768 C   0  0  0  0  0  0  0  0  0  0  0  0
  -26.5243  -30.7586   22.9028 C   0  0  0  0  0  0  0  0  0  0  0  0
  -24.5400  -13.5653   20.5227 C   0  0  0  0  0  0  0  0  0  0  0  0
  -25.0372  -13.4919   18.1596 C   0  0  0  0  0  0  0  0  0  0  0  0
  -27.7771  -30.1828   23.1099 C   0  0  0  0  0  0  0  0  0  0  0  0
  -24.6796  -10.2025   20.1985 C   0  0  0  0  0  0  0  0  0  0  0  0
  -24.7272   -9.1672   21.1319 C   0  0  0  0  0  0  0  0  0  0  0  0
  -27.3303  -28.5927   21.3518 C   0  0  0  0  0  0  0  0  0  0  0  0
  -30.9600  -21.1285   24.4562 C   0  0  0  0  0  0  0  0  0  0  0  0
  -22.4332   -9.6139   21.7444 C   0  0  0  0  0  0  0  0  0  0  0  0
  -26.1362  -15.1118   19.5755 C   0  0  0  0  0  0  0  0  0  0  0  0
  -28.4383  -16.1135   20.0278 C   0  0  0  0  0  0  0  0  0  0  0  0
  -18.1511  -28.4990   23.1269 C   0  0  0  0  0  0  0  0  0  0  0  0
  -25.6593  -30.2480   21.9243 C   0  0  0  0  0  0  0  0  0  0  0  0
  -19.4524  -28.7871   23.5809 C   0  0  0  0  0  0  0  0  0  0  0  0
  -26.0681  -29.1654   21.1324 C   0  0  0  0  0  0  0  0  0  0  0  0
  -31.3637  -21.3701   23.1477 C   0  0  0  0  0  0  0  0  0  0  0  0
  -30.4546  -21.8832   22.2292 C   0  0  0  0  0  0  0  0  0  0  0  0
  -24.3394  -13.0008   19.2631 C   0  0  0  0  0  0  0  0  0  0  0  0
  -28.1790  -29.0979   22.3363 C   0  0  0  0  0  0  0  0  0  0  0  0
  -23.5088  -10.9437   20.0380 C   0  0  0  0  0  0  0  0  0  0  0  0
  -23.6040   -8.8728   21.9049 C   0  0  0  0  0  0  0  0  0  0  0  0
  -22.3856  -10.6493   20.8110 C   0  0  0  0  0  0  0  0  0  0  0  0
  -27.0640  -16.2025   19.7361 C   0  0  0  0  0  0  0  0  0  0  0  0
  -29.1640  -22.1355   22.6657 C   0  0  0  0  0  0  0  0  0  0  0  0
  -29.6469  -21.4146   24.7932 C   0  0  0  0  0  0  0  0  0  0  0  0
  -28.8643  -17.4183   20.0761 C   0  0  0  0  0  0  0  0  0  0  0  0
  -29.2567  -14.9548   20.2364 C   0  0  0  0  0  0  0  0  0  0  0  0
  -28.1435  -22.6774   21.7592 C   0  0  0  0  0  0  0  0  0  0  0  0
  -22.7670  -28.9298   21.9544 C   0  0  0  0  0  0  0  0  0  0  0  0
  -23.0931  -29.0770   18.7304 C   0  0  0  0  0  0  0  0  0  0  0  0
  -25.1786  -29.2265   16.0331 C   0  0  0  0  0  0  0  0  0  0  0  0
  -17.8894  -27.4308   22.0948 C   0  0  0  0  0  0  0  0  0  0  0  0
  -24.3220  -30.8972   21.6951 C   0  0  0  0  0  0  0  0  0  0  0  0
  -25.1849  -28.5927   20.0553 C   0  0  0  0  0  0  0  0  0  0  0  0
  -19.1317  -27.0321   21.3024 C   0  0  0  0  0  0  0  0  0  0  0  0
  -26.5493  -21.7045   18.7172 C   0  0  0  0  0  0  0  0  0  0  0  0
  -20.3148  -26.8115   22.2397 C   0  0  0  0  0  0  0  0  0  0  0  0
  -26.6349  -20.1774   18.7415 C   0  0  0  0  0  0  0  0  0  0  0  0
  -26.3404  -22.2796   20.1159 C   0  0  0  0  0  0  0  0  0  0  0  0
  -27.4260  -20.3109   21.1409 C   0  0  0  0  0  0  0  0  0  0  0  0
  -20.6663  -28.0980   22.9965 C   0  0  1  0  0  0  0  0  0  0  0  0
  -23.3158  -29.9705   21.0198 C   0  0  1  0  0  0  0  0  0  0  0  0
  -27.6872  -19.6938   19.7571 C   0  0  1  0  0  0  0  0  0  0  0  0
  -32.7730  -21.0719   22.7547 C   0  0  0  0  0  0  0  0  0  0  0  0
  -29.3750  -22.3861   27.0885 C   0  0  0  0  0  0  0  0  0  0  0  0
  -25.1530  -29.2976   13.5248 C   0  0  0  0  0  0  0  0  0  0  0  0
  -33.7799  -26.8801   23.7701 C   0  0  0  0  0  0  0  0  0  0  0  0
  -32.5475  -25.3977   25.3646 C   0  0  0  0  0  0  0  0  0  0  0  0
  -31.6624  -26.3698   19.5226 C   0  0  0  0  0  0  0  0  0  0  0  0
  -22.4517  -26.0949   18.6548 C   0  0  0  0  0  0  0  0  0  0  0  0
  -23.3584  -26.0300   16.3220 C   0  0  0  0  0  0  0  0  0  0  0  0
  -21.3692  -27.4410   16.8462 C   0  0  0  0  0  0  0  0  0  0  0  0
  -26.5242  -31.8619   15.9785 C   0  0  0  0  0  0  0  0  0  0  0  0
  -30.8632  -22.1537   20.8101 C   0  0  0  0  0  0  0  0  0  0  0  0
  -29.1782  -21.1693   26.1887 C   0  0  0  0  0  0  0  0  0  0  0  0
  -31.2808  -26.4496   23.4667 C   0  0  0  0  0  0  0  0  0  0  0  0
  -31.7106  -23.4108   20.6413 C   0  0  0  0  0  0  0  0  0  0  0  0
  -29.7520  -27.4268   21.7125 C   0  0  0  0  0  0  0  0  0  1  0  0
  -23.6495  -28.1588   17.6691 C   0  0  1  0  0  0  0  0  0  0  0  0
  -25.1744  -30.1185   14.8048 C   0  0  2  0  0  0  0  0  0  0  0  0
  -32.6401  -25.8708   23.9104 C   0  0  0  0  0  0  0  0  0  0  0  0
  -31.1853  -26.9277   21.9935 C   0  0  2  0  0  0  0  0  0  0  0  0
  -31.7072  -25.8869   20.9691 C   0  0  1  0  0  0  0  0  0  0  0  0
  -22.7233  -26.9405   17.3946 C   0  0  0  0  0  0  0  0  0  0  0  0
  -26.6447  -17.4641   19.6082 N   0  0  0  0  0  0  0  0  0  0  0  0
  -28.7352  -21.9136   23.9285 N   0  0  0  0  0  0  0  0  0  0  0  0
  -27.7621  -18.1800   19.8206 N   0  0  0  0  0  0  0  0  0  0  0  0
  -27.3560  -21.7755   21.0395 N   0  0  0  0  0  0  0  0  0  0  0  0
  -23.8842  -29.2581   19.8737 N   0  0  0  0  0  0  0  0  0  0  0  0
  -30.0704  -17.9771   20.3117 N   0  0  0  0  0  0  0  0  0  0  0  0
  -28.6587  -13.6902   20.1507 N   0  0  0  0  0  0  0  0  0  0  0  0
  -21.3996  -29.0044   22.1392 N   0  0  0  0  0  0  0  0  0  0  0  0
  -23.9021  -28.9930   16.4992 N   0  0  0  0  0  0  0  0  0  0  0  0
  -26.3882  -30.9831   14.7884 N   0  3  0  0  0  0  0  0  0  0  0  0
  -30.9392  -24.6136   21.0492 N   0  3  0  0  0  0  0  0  0  0  0  0
  -30.4786  -15.0391   20.5076 O   0  0  0  0  0  0  0  0  0  0  0  0
  -28.0694  -23.9036   21.6951 O   0  0  0  0  0  0  0  0  0  0  0  0
  -23.5277  -28.1182   22.4686 O   0  0  0  0  0  0  0  0  0  0  0  0
  -22.0002  -29.6194   18.5484 O   0  0  0  0  0  0  0  0  0  0  0  0
  -26.2108  -28.7783   16.5274 O   0  0  0  0  0  0  0  0  0  0  0  0
  -23.4629  -11.9707   19.1103 O   0  0  0  0  0  0  0  0  0  0  0  0
  -29.4107  -28.5291   22.5385 O   0  0  0  0  0  0  0  0  0  1  0  0
  -23.6494   -7.8776   22.8002 F   0  0  0  0  0  0  0  0  0  0  0  0
  -21.2577  -11.3571   20.6604 F   0  0  0  0  0  0  0  0  0  0  0  0
  1  2  1  0  0  0  0
  1  5  2  0  0  0  0
  2  6  2  0  0  0  0
  3  8  2  0  0  0  0
  3 16  1  0  0  0  0
  4  9  1  0  0  0  0
  4 16  2  0  0  0  0
  5 18  1  0  0  0  0
  6 20  1  0  0  0  0
  7 10  2  0  0  0  0
  7 19  1  0  0  0  0
  8 24  1  0  0  0  0
  9 24  2  0  0  0  0
 10 25  1  0  0  0  0
 11 12  2  0  0  0  0
 11 26  1  0  0  0  0
 12 27  1  0  0  0  0
 13 21  1  0  0  0  0
 13 25  2  0  0  0  0
 14 22  2  0  0  0  0
 14 31  1  0  0  0  0
 15 27  2  0  0  0  0
 15 28  1  0  0  0  0
 16 29  1  0  0  0  0
 17 29  1  0  0  0  0
 17 32  2  0  0  0  0
 17 33  1  0  0  0  0
 18 20  2  0  0  0  0
 18 38  1  0  0  0  0
 19 21  2  0  0  0  0
 19 39  1  0  0  0  0
 20 47  1  0  0  0  0
 21 40  1  0  0  0  0
 22 23  1  0  0  0  0
 22 50  1  0  0  0  0
 23 30  2  0  0  0  0
 23 60  1  0  0  0  0
 24 87  1  0  0  0  0
 25 88  1  0  0  0  0
 26 28  2  0  0  0  0
 26 87  1  0  0  0  0
 27 89  1  0  0  0  0
 28 90  1  0  0  0  0
 29 71  2  0  0  0  0
 30 34  1  0  0  0  0
 30 72  1  0  0  0  0
 31 61  1  0  0  0  0
 31 72  2  0  0  0  0
 32 73  1  0  0  0  0
 32 76  1  0  0  0  0
 33 77  1  0  0  0  0
 33 82  2  0  0  0  0
 34 74  1  0  0  0  0
 34 83  2  0  0  0  0
 35 48  1  0  0  0  0
 35 78  1  0  0  0  0
 35 84  2  0  0  0  0
 36 65  1  0  0  0  0
 36 75  1  0  0  0  0
 36 85  2  0  0  0  0
 37 66  1  0  0  0  0
 37 79  1  0  0  0  0
 37 86  2  0  0  0  0
 38 41  1  0  0  0  0
 39 48  1  0  0  0  0
 40 75  1  0  0  0  0
 41 43  1  0  0  0  0
 42 44  1  0  0  0  0
 42 45  1  0  0  0  0
 43 47  1  0  0  0  0
 44 49  1  0  0  0  0
 45 74  1  0  0  0  0
 46 49  1  0  0  0  0
 46 74  1  0  0  0  0
 47 78  1  0  0  0  0
 48 75  1  0  0  0  0
 49 73  1  0  0  0  0
 51 61  1  0  0  0  0
 52 66  1  0  0  0  0
 53 67  1  0  0  0  0
 54 67  1  0  0  0  0
 55 69  1  0  0  0  0
 56 70  1  0  0  0  0
 57 70  1  0  0  0  0
 58 70  1  0  0  0  0
 59 80  1  0  0  0  0
 60 63  1  0  0  0  0
 62 67  1  0  0  0  0
 62 68  1  0  0  0  0
 63 81  1  0  0  0  0
 64 68  1  0  0  0  0
 64 88  1  0  0  0  0
 65 70  1  0  0  0  0
 65 79  1  0  0  0  0
 66 80  1  0  0  0  0
 68 69  1  0  0  0  0
 69 81  1  0  0  0  0
 71 73  1  0  0  0  0
M  CHG  2  80   1  81   1
M  ISO  4  30 100  34 100  64 101  88 101
M  END
> <Batch ID>
0086

> <Smiles>
CCc1cc(C)c(CCNC(C)C(CC(C)C)[101CH2:1][101O:1]c2ccc3c(c2)CN(C(=O)C(NC(=O)C(C)NC)C(C)(C)C)C(C(=O)NC2CCCc4ccccc42)C3)[100c:0]([100C:0](=O)N2CCCC(n3nc(-c4ccc(Oc5ccc(F)cc5F)cc4)c(C(N)=O)c3N)C2)n1

> <Shape>
0.274

> <Color>
0.092

> <Negative vol penalty>
0.000

$$$$

  -OEChem-04052318593D

 86 94  0     1  0  0  0  0  0999 V2000
  -19.9864   -8.3630   22.0834 C   0  0  0  0  0  0  0  0  0  0  0  0
  -20.5678   -9.4619   22.7078 C   0  0  0  0  0  0  0  0  0  0  0  0
  -23.2346  -29.9379   20.0241 C   0  0  0  0  0  0  0  0  0  0  0  0
  -23.5015  -28.7197   22.0934 C   0  0  0  0  0  0  0  0  0  0  0  0
  -20.7028   -7.6477   21.1247 C   0  0  0  0  0  0  0  0  0  0  0  0
  -21.8663   -9.8455   22.3746 C   0  0  0  0  0  0  0  0  0  0  0  0
  -22.3096  -14.8491   21.7328 C   0  0  0  0  0  0  0  0  0  0  0  0
  -21.8994  -30.1859   20.3423 C   0  0  0  0  0  0  0  0  0  0  0  0
  -22.1662  -28.9678   22.4116 C   0  0  0  0  0  0  0  0  0  0  0  0
  -22.3802  -15.6347   22.8825 C   0  0  0  0  0  0  0  0  0  0  0  0
  -19.1328  -27.7419   21.5591 C   0  0  0  0  0  0  0  0  0  0  0  0
  -18.3750  -26.6783   22.0490 C   0  0  0  0  0  0  0  0  0  0  0  0
  -24.7768  -15.7641   22.6395 C   0  0  0  0  0  0  0  0  0  0  0  0
  -23.5780  -20.7794   23.9989 C   0  0  0  0  0  0  0  0  0  0  0  0
  -17.9721  -27.9057   24.0906 C   0  0  0  0  0  0  0  0  0  0  0  0
  -24.0357  -29.2048   20.8996 C   0  0  0  0  0  0  0  0  0  0  0  0
  -26.5289  -29.7444   20.8968 C   0  0  0  0  0  0  0  0  0  0  0  0
  -22.0072   -8.0285   20.7726 C   0  0  0  0  0  0  0  0  0  0  0  0
  -23.4751  -14.5055   21.0329 C   0  0  0  0  0  0  0  0  0  0  0  0
  -22.6013   -9.1338   21.4112 C   0  0  0  0  0  0  0  0  0  0  0  0
  -24.7180  -14.9762   21.4798 C   0  0  0  0  0  0  0  0  0  0  0  0
  -24.5309  -21.5281   23.3310 C   0  0  0  0  0  0  0  0  0  0  0  0
  -21.3652  -29.7009   21.5360 C   0  0  0  0  0  0  0  0  0  0  0  0
  -23.6142  -16.0900   23.3376 C   0  0  0  0  0  0  0  0  0  0  0  0
  -19.3104  -28.8875   22.3350 C   0  0  0  0  0  0  0  0  0  0  0  0
  -17.7946  -26.7602   23.3147 C   0  0  0  0  0  0  0  0  0  0  0  0
  -18.7300  -28.9694   23.6007 C   0  0  0  0  0  0  0  0  0  0  0  0
  -25.4149  -28.9478   20.5713 C   0  0  0  0  0  0  0  0  0  0  0  0
  -24.0155  -19.7488   24.8064 C   0  0  0  0  0  0  0  0  0  0  0  0
  -25.8583  -21.1969   23.5149 C   0  0  0  0  0  0  0  0  0  0  0  0
  -27.6004  -29.0709   20.3631 C   0  0  0  0  0  0  0  0  0  0  0  0
  -26.5898  -30.9825   21.6173 C   0  0  0  0  0  0  0  0  0  0  0  0
  -24.9420  -11.7769   20.3213 C   0  0  0  0  0  0  0  0  0  0  0  0
  -26.8670  -13.7191   18.5765 C   0  0  0  0  0  0  0  0  0  0  0  0
  -28.1380  -16.8461   18.0732 C   0  0  0  0  0  0  0  0  0  0  0  0
  -28.5353  -23.3129   19.0131 C   0  0  0  0  0  0  0  0  0  0  0  0
  -22.7595   -7.1960   19.7648 C   0  0  0  0  0  0  0  0  0  0  0  0
  -23.3793  -13.6796   19.7795 C   0  0  0  0  0  0  0  0  0  0  0  0
  -25.9967  -14.6522   20.7530 C   0  0  0  0  0  0  0  0  0  0  0  0
  -23.9932   -7.8937   19.1978 C   0  0  0  0  0  0  0  0  0  0  0  0
  -28.7540  -26.0935   16.8001 C   0  0  0  0  0  0  0  0  0  0  0  0
  -24.8112   -8.5265   20.3190 C   0  0  0  0  0  0  0  0  0  0  0  0
  -28.0236  -27.2122   17.5450 C   0  0  0  0  0  0  0  0  0  0  0  0
  -28.0950  -24.7359   17.0337 C   0  0  0  0  0  0  0  0  0  0  0  0
  -27.1841  -25.4895   19.1962 C   0  0  0  0  0  0  0  0  0  0  0  0
  -23.9986   -9.5959   21.0589 C   0  0  1  0  0  0  0  0  0  0  0  0
  -24.6811  -12.9623   19.4356 C   0  0  1  0  0  0  0  0  0  0  0  0
  -27.8450  -26.8694   19.0363 C   0  0  2  0  0  0  0  0  0  0  0  0
  -24.1119  -22.6518   22.4475 C   0  0  0  0  0  0  0  0  0  0  0  0
  -27.8008  -22.7732   23.8324 C   0  0  0  0  0  0  0  0  0  0  0  0
  -29.7171  -18.1160   16.5929 C   0  0  0  0  0  0  0  0  0  0  0  0
  -29.2368  -12.4885   20.0528 C   0  0  0  0  0  0  0  0  0  0  0  0
  -30.6381  -14.4047   19.2575 C   0  0  0  0  0  0  0  0  0  0  0  0
  -29.6048  -12.8474   17.6053 C   0  0  0  0  0  0  0  0  0  0  0  0
  -28.5882  -19.9700   22.4863 C   0  0  0  0  0  0  0  0  0  0  0  0
  -26.9242  -20.5028   20.7067 C   0  0  0  0  0  0  0  0  0  0  0  0
  -25.9850  -18.6380   17.1176 C   0  0  0  0  0  0  0  0  0  0  0  0
  -23.0172  -18.9012   25.5568 C   0  0  0  0  0  0  0  0  0  0  0  0
  -28.9049  -22.0021   21.0877 C   0  0  0  0  0  0  0  0  0  0  0  0
  -22.5641  -17.6888   24.7507 C   0  0  0  0  0  0  0  0  0  1  0  0
  -26.9405  -21.9586   22.8271 C   0  0  1  0  0  0  0  0  0  0  0  0
  -28.1370  -14.4892   18.8472 C   0  0  1  0  0  0  0  0  0  0  0  0
  -28.2752  -17.6875   16.8172 C   0  0  2  0  0  0  0  0  0  0  0  0
  -29.3805  -13.5621   18.9557 C   0  0  0  0  0  0  0  0  0  0  0  0
  -27.8312  -21.1259   21.7956 C   0  0  0  0  0  0  0  0  0  0  0  0
  -25.7478  -27.8520   19.8839 N   0  0  0  0  0  0  0  0  0  0  0  0
  -25.3213  -19.4470   24.9679 N   0  0  0  0  0  0  0  0  0  0  0  0
  -26.2578  -20.1832   24.3117 N   0  0  0  0  0  0  0  0  0  0  0  0
  -27.0831  -27.9554   19.7730 N   0  0  0  0  0  0  0  0  0  0  0  0
  -25.8516  -13.8363   19.5361 N   0  0  0  0  0  0  0  0  0  0  0  0
  -27.9565  -24.4709   18.4678 N   0  0  0  0  0  0  0  0  0  0  0  0
  -28.9251  -29.3300   20.3456 N   0  0  0  0  0  0  0  0  0  0  0  0
  -25.3948  -31.5362   22.0965 N   0  0  0  0  0  0  0  0  0  0  0  0
  -23.9480  -10.8177   20.2849 N   0  0  0  0  0  0  0  0  0  0  0  0
  -28.2339  -15.4984   17.7982 N   0  0  0  0  0  0  0  0  0  0  0  0
  -28.3625  -23.1411   20.3810 N   0  0  0  0  0  0  0  0  0  0  0  0
  -27.4316  -18.9118   16.9190 N   0  3  0  0  0  0  0  0  0  0  0  0
  -27.6701  -31.5885   21.8156 O   0  0  0  0  0  0  0  0  0  0  0  0
  -25.9699  -11.7349   20.9872 O   0  0  0  0  0  0  0  0  0  0  0  0
  -26.7766  -13.0444   17.5478 O   0  0  0  0  0  0  0  0  0  0  0  0
  -27.9668  -17.3357   19.1875 O   0  0  0  0  0  0  0  0  0  0  0  0
  -29.1642  -22.4958   18.3322 O   0  0  0  0  0  0  0  0  0  0  0  0
  -20.0624  -29.9429   21.8469 O   0  0  0  0  0  0  0  0  0  0  0  0
  -23.6860  -16.8564   24.4598 O   0  0  0  0  0  0  0  0  0  1  0  0
  -17.0656  -25.7394   23.7844 F   0  0  0  0  0  0  0  0  0  0  0  0
  -18.8960  -30.0677   24.3502 F   0  0  0  0  0  0  0  0  0  0  0  0
  1  2  1  0  0  0  0
  1  5  2  0  0  0  0
  2  6  2  0  0  0  0
  3  8  2  0  0  0  0
  3 16  1  0  0  0  0
  4  9  1  0  0  0  0
  4 16  2  0  0  0  0
  5 18  1  0  0  0  0
  6 20  1  0  0  0  0
  7 10  2  0  0  0  0
  7 19  1  0  0  0  0
  8 23  1  0  0  0  0
  9 23  2  0  0  0  0
 10 24  1  0  0  0  0
 11 12  2  0  0  0  0
 11 25  1  0  0  0  0
 12 26  1  0  0  0  0
 13 21  1  0  0  0  0
 13 24  2  0  0  0  0
 14 22  2  0  0  0  0
 14 29  1  0  0  0  0
 15 26  2  0  0  0  0
 15 27  1  0  0  0  0
 16 28  1  0  0  0  0
 17 28  1  0  0  0  0
 17 31  2  0  0  0  0
 17 32  1  0  0  0  0
 18 20  2  0  0  0  0
 18 37  1  0  0  0  0
 19 21  2  0  0  0  0
 19 38  1  0  0  0  0
 20 46  1  0  0  0  0
 21 39  1  0  0  0  0
 22 30  1  0  0  0  0
 22 49  1  0  0  0  0
 23 83  1  0  0  0  0
 24 84  1  0  0  0  0
 25 27  2  0  0  0  0
 25 83  1  0  0  0  0
 26 85  1  0  0  0  0
 27 86  1  0  0  0  0
 28 66  2  0  0  0  0
 29 58  1  0  0  0  0
 29 67  2  0  0  0  0
 30 61  1  0  0  0  0
 30 68  2  0  0  0  0
 31 69  1  0  0  0  0
 31 72  1  0  0  0  0
 32 73  1  0  0  0  0
 32 78  2  0  0  0  0
 33 47  1  0  0  0  0
 33 74  1  0  0  0  0
 33 79  2  0  0  0  0
 34 62  1  0  0  0  0
 34 70  1  0  0  0  0
 34 80  2  0  0  0  0
 35 63  1  0  0  0  0
 35 75  1  0  0  0  0
 35 81  2  0  0  0  0
 36 71  1  0  0  0  0
 36 76  1  0  0  0  0
 36 82  2  0  0  0  0
 37 40  1  0  0  0  0
 38 47  1  0  0  0  0
 39 70  1  0  0  0  0
 40 42  1  0  0  0  0
 41 43  1  0  0  0  0
 41 44  1  0  0  0  0
 42 46  1  0  0  0  0
 43 48  1  0  0  0  0
 44 71  1  0  0  0  0
 45 48  1  0  0  0  0
 45 71  1  0  0  0  0
 46 74  1  0  0  0  0
 47 70  1  0  0  0  0
 48 69  1  0  0  0  0
 50 61  1  0  0  0  0
 51 63  1  0  0  0  0
 52 64  1  0  0  0  0
 53 64  1  0  0  0  0
 54 64  1  0  0  0  0
 55 65  1  0  0  0  0
 56 65  1  0  0  0  0
 57 77  1  0  0  0  0
 58 60  1  0  0  0  0
 59 65  1  0  0  0  0
 59 76  1  0  0  0  0
 60 84  1  0  0  0  0
 61 65  1  0  0  0  0
 62 64  1  0  0  0  0
 62 75  1  0  0  0  0
 63 77  1  0  0  0  0
 66 69  1  0  0  0  0
 67 68  1  0  0  0  0
M  CHG  1  77   1
M  ISO  4  36 100  60 101  76 100  84 101
M  END
> <Batch ID>
0086

> <Smiles>
CNC(C)C(=O)NC(C(=O)N1Cc2cc([101O:1][101CH2:1]Cc3cc(C)c(C(C)C(C)(C)C[100NH:0][100C:0](=O)N4CCCC(n5nc(-c6ccc(Oc7ccc(F)cc7F)cc6)c(C(N)=O)c5N)C4)nn3)ccc2CC1C(=O)NC1CCCc2ccccc21)C(C)(C)C

> <Shape>
0.277

> <Color>
0.053

> <Negative vol penalty>
0.000

$$$$

  -OEChem-04052318593D

 88 96  0     1  0  0  0  0  0999 V2000
  -19.2790  -22.8672   12.8331 C   0  0  0  0  0  0  0  0  0  0  0  0
  -19.6851  -21.5581   13.0710 C   0  0  0  0  0  0  0  0  0  0  0  0
  -27.4767  -23.3677   20.3389 C   0  0  0  0  0  0  0  0  0  0  0  0
  -29.3313  -23.5658   18.8034 C   0  0  0  0  0  0  0  0  0  0  0  0
  -19.8078  -23.9091   13.5938 C   0  0  0  0  0  0  0  0  0  0  0  0
  -20.6212  -21.2901   14.0692 C   0  0  0  0  0  0  0  0  0  0  0  0
  -22.3746  -16.2792   18.8788 C   0  0  0  0  0  0  0  0  0  0  0  0
  -27.4897  -24.7489   20.5329 C   0  0  0  0  0  0  0  0  0  0  0  0
  -29.3444  -24.9471   18.9973 C   0  0  0  0  0  0  0  0  0  0  0  0
  -23.4692  -15.5234   19.2965 C   0  0  0  0  0  0  0  0  0  0  0  0
  -26.4202  -27.5050   18.8919 C   0  0  0  0  0  0  0  0  0  0  0  0
  -25.1965  -28.1740   18.8718 C   0  0  0  0  0  0  0  0  0  0  0  0
  -24.2554  -17.3941   20.6010 C   0  0  0  0  0  0  0  0  0  0  0  0
  -28.4678  -13.7582   19.1643 C   0  0  0  0  0  0  0  0  0  0  0  0
  -25.5749  -28.9343   21.1336 C   0  0  0  0  0  0  0  0  0  0  0  0
  -29.0466  -11.0916   19.1557 C   0  0  0  0  0  0  0  0  0  0  0  0
  -28.3975  -22.7761   19.4742 C   0  0  0  0  0  0  0  0  0  0  0  0
  -27.6583  -20.6335   18.3035 C   0  0  0  0  0  0  0  0  0  0  0  0
  -20.7436  -23.6527   14.6083 C   0  0  0  0  0  0  0  0  0  0  0  0
  -22.2177  -17.6039   19.3111 C   0  0  0  0  0  0  0  0  0  0  0  0
  -21.1640  -22.3297   14.8433 C   0  0  0  0  0  0  0  0  0  0  0  0
  -23.1566  -18.1637   20.1894 C   0  0  0  0  0  0  0  0  0  0  0  0
  -28.2428  -13.0077   20.3129 C   0  0  0  0  0  0  0  0  0  0  0  0
  -28.5350  -11.6483   20.3168 C   0  0  0  0  0  0  0  0  0  0  0  0
  -28.4235  -25.5386   19.8621 C   0  0  0  0  0  0  0  0  0  0  0  0
  -24.4113  -16.0818   20.1554 C   0  0  0  0  0  0  0  0  0  0  0  0
  -27.2213  -27.5506   20.0329 C   0  0  0  0  0  0  0  0  0  0  0  0
  -24.7738  -28.8887   19.9926 C   0  0  0  0  0  0  0  0  0  0  0  0
  -26.7987  -28.2652   21.1537 C   0  0  0  0  0  0  0  0  0  0  0  0
  -28.3849  -21.3493   19.2738 C   0  0  0  0  0  0  0  0  0  0  0  0
  -28.9826  -13.1071   18.0548 C   0  0  0  0  0  0  0  0  0  0  0  0
  -27.9866  -19.3191   18.5292 C   0  0  0  0  0  0  0  0  0  0  0  0
  -26.7664  -21.1139   17.2889 C   0  0  0  0  0  0  0  0  0  0  0  0
  -22.1115  -20.4357   17.8712 C   0  0  0  0  0  0  0  0  0  0  0  0
  -21.3863  -21.4886   20.8525 C   0  0  0  0  0  0  0  0  0  0  0  0
  -21.5467  -20.9803   24.2233 C   0  0  0  0  0  0  0  0  0  0  0  0
  -31.7760  -15.3634   19.5961 C   0  0  0  0  0  0  0  0  0  0  0  0
  -21.3226  -24.8168   15.3728 C   0  0  0  0  0  0  0  0  0  0  0  0
  -21.0173  -18.3971   18.8726 C   0  0  0  0  0  0  0  0  0  0  0  0
  -23.0232  -19.5749   20.6986 C   0  0  0  0  0  0  0  0  0  0  0  0
  -22.0294  -24.4074   16.6624 C   0  0  0  0  0  0  0  0  0  0  0  0
  -30.4595  -17.1569   22.3758 C   0  0  0  0  0  0  0  0  0  0  0  0
  -22.9519  -23.2187   16.4115 C   0  0  0  0  0  0  0  0  0  0  0  0
  -29.7483  -18.3511   21.7369 C   0  0  0  0  0  0  0  0  0  0  0  0
  -31.7352  -16.7900   21.6209 C   0  0  0  0  0  0  0  0  0  0  0  0
  -30.8441  -17.7560   19.5361 C   0  0  0  0  0  0  0  0  0  0  0  0
  -22.1589  -21.9962   15.9338 C   0  0  1  0  0  0  0  0  0  0  0  0
  -21.2305  -19.9048   18.9665 C   0  0  1  0  0  0  0  0  0  0  0  0
  -29.5224  -18.1284   20.2294 C   0  0  2  0  0  0  0  0  0  0  0  0
  -29.6200  -10.1860   22.0598 C   0  0  0  0  0  0  0  0  0  0  0  0
  -27.2794   -9.6817   21.2708 C   0  0  0  0  0  0  0  0  0  0  0  0
  -28.3449  -13.3855   15.6456 C   0  0  0  0  0  0  0  0  0  0  0  0
  -20.8986  -22.0328   26.4073 C   0  0  0  0  0  0  0  0  0  0  0  0
  -33.1618  -14.0940   16.9465 C   0  0  0  0  0  0  0  0  0  0  0  0
  -23.6849  -23.4758   20.5742 C   0  0  0  0  0  0  0  0  0  0  0  0
  -23.6017  -23.8127   23.0536 C   0  0  0  0  0  0  0  0  0  0  0  0
  -21.6270  -24.4050   21.6493 C   0  0  0  0  0  0  0  0  0  0  0  0
  -19.8269  -18.6847   24.9521 C   0  0  0  0  0  0  0  0  0  0  0  0
  -27.6836  -13.6863   21.5378 C   0  0  0  0  0  0  0  0  0  0  0  0
  -26.1986  -13.4034   21.7749 C   0  0  0  0  0  0  0  0  0  0  0  0
  -30.7243  -13.8724   16.3429 C   0  0  0  0  0  0  0  0  0  0  0  0
  -25.2981  -13.9349   20.6658 C   0  0  0  0  0  0  0  0  0  1  0  0
  -28.3129  -10.7979   21.5191 C   0  0  0  0  0  0  0  0  0  0  0  0
  -29.2365  -13.8810   16.8044 C   0  0  2  0  0  0  0  0  0  0  0  0
  -22.1846  -21.9702   22.0398 C   0  0  1  0  0  0  0  0  0  0  0  0
  -20.4869  -21.0674   25.3067 C   0  0  2  0  0  0  0  0  0  0  0  0
  -31.7361  -14.0527   17.4891 C   0  0  2  0  0  0  0  0  0  0  0  0
  -22.7784  -23.3899   21.8183 C   0  0  0  0  0  0  0  0  0  0  0  0
  -29.2787  -11.7885   18.0207 N   0  0  0  0  0  0  0  0  0  0  0  0
  -29.1193  -20.5554   20.0576 N   0  0  0  0  0  0  0  0  0  0  0  0
  -28.8558  -19.3271   19.5802 N   0  0  0  0  0  0  0  0  0  0  0  0
  -21.8356  -20.3120   20.2363 N   0  0  0  0  0  0  0  0  0  0  0  0
  -31.4519  -16.5907   20.1975 N   0  0  0  0  0  0  0  0  0  0  0  0
  -27.6137  -18.1687   17.9292 N   0  0  0  0  0  0  0  0  0  0  0  0
  -26.5412  -22.4941   17.1962 N   0  0  0  0  0  0  0  0  0  0  0  0
  -21.4930  -21.3584   17.0492 N   0  0  0  0  0  0  0  0  0  0  0  0
  -21.3004  -21.8659   23.1956 N   0  0  0  0  0  0  0  0  0  0  0  0
  -31.4685  -15.2557   18.2454 N   0  0  0  0  0  0  0  0  0  0  0  0
  -20.2596  -19.7273   25.9179 N   0  3  0  0  0  0  0  0  0  0  0  0
  -26.1736  -20.3406   16.4988 O   0  0  0  0  0  0  0  0  0  0  0  0
  -23.2672  -20.0389   17.7795 O   0  0  0  0  0  0  0  0  0  0  0  0
  -20.3963  -22.1287   20.4896 O   0  0  0  0  0  0  0  0  0  0  0  0
  -22.4999  -20.2069   24.2846 O   0  0  0  0  0  0  0  0  0  0  0  0
  -32.2958  -14.4308   20.2181 O   0  0  0  0  0  0  0  0  0  0  0  0
  -28.4364  -26.8865   20.0510 O   0  0  0  0  0  0  0  0  0  0  0  0
  -25.4810  -15.3465   20.5642 O   0  0  0  0  0  0  0  0  0  1  0  0
  -23.5993  -29.5324   19.9726 F   0  0  0  0  0  0  0  0  0  0  0  0
  -27.5645  -28.3136   22.2524 F   0  0  0  0  0  0  0  0  0  0  0  0
  1  2  1  0  0  0  0
  1  5  2  0  0  0  0
  2  6  2  0  0  0  0
  3  8  2  0  0  0  0
  3 17  1  0  0  0  0
  4  9  1  0  0  0  0
  4 17  2  0  0  0  0
  5 19  1  0  0  0  0
  6 21  1  0  0  0  0
  7 10  2  0  0  0  0
  7 20  1  0  0  0  0
  8 25  1  0  0  0  0
  9 25  2  0  0  0  0
 10 26  1  0  0  0  0
 11 12  2  0  0  0  0
 11 27  1  0  0  0  0
 12 28  1  0  0  0  0
 13 22  1  0  0  0  0
 13 26  2  0  0  0  0
 14 23  1  0  0  0  0
 14 31  2  0  0  0  0
 15 28  2  0  0  0  0
 15 29  1  0  0  0  0
 16 24  1  0  0  0  0
 16 69  2  0  0  0  0
 17 30  1  0  0  0  0
 18 30  1  0  0  0  0
 18 32  2  0  0  0  0
 18 33  1  0  0  0  0
 19 21  2  0  0  0  0
 19 38  1  0  0  0  0
 20 22  2  0  0  0  0
 20 39  1  0  0  0  0
 21 47  1  0  0  0  0
 22 40  1  0  0  0  0
 23 24  2  0  0  0  0
 23 59  1  0  0  0  0
 24 63  1  0  0  0  0
 25 85  1  0  0  0  0
 26 86  1  0  0  0  0
 27 29  2  0  0  0  0
 27 85  1  0  0  0  0
 28 87  1  0  0  0  0
 29 88  1  0  0  0  0
 30 70  2  0  0  0  0
 31 64  1  0  0  0  0
 31 69  1  0  0  0  0
 32 71  1  0  0  0  0
 32 74  1  0  0  0  0
 33 75  1  0  0  0  0
 33 80  2  0  0  0  0
 34 48  1  0  0  0  0
 34 76  1  0  0  0  0
 34 81  2  0  0  0  0
 35 65  1  0  0  0  0
 35 72  1  0  0  0  0
 35 82  2  0  0  0  0
 36 66  1  0  0  0  0
 36 77  1  0  0  0  0
 36 83  2  0  0  0  0
 37 73  1  0  0  0  0
 37 78  1  0  0  0  0
 37 84  2  0  0  0  0
 38 41  1  0  0  0  0
 39 48  1  0  0  0  0
 40 72  1  0  0  0  0
 41 43  1  0  0  0  0
 42 44  1  0  0  0  0
 42 45  1  0  0  0  0
 43 47  1  0  0  0  0
 44 49  1  0  0  0  0
 45 73  1  0  0  0  0
 46 49  1  0  0  0  0
 46 73  1  0  0  0  0
 47 76  1  0  0  0  0
 48 72  1  0  0  0  0
 49 71  1  0  0  0  0
 50 63  1  0  0  0  0
 51 63  1  0  0  0  0
 52 64  1  0  0  0  0
 53 66  1  0  0  0  0
 54 67  1  0  0  0  0
 55 68  1  0  0  0  0
 56 68  1  0  0  0  0
 57 68  1  0  0  0  0
 58 79  1  0  0  0  0
 59 60  1  0  0  0  0
 60 62  1  0  0  0  0
 61 64  1  0  0  0  0
 61 67  1  0  0  0  0
 62 86  1  0  0  0  0
 65 68  1  0  0  0  0
 65 77  1  0  0  0  0
 66 79  1  0  0  0  0
 67 78  1  0  0  0  0
 70 71  1  0  0  0  0
M  CHG  1  79   1
M  ISO  4  37 100  62 101  78 100  86 101
M  END
> <Batch ID>
0086

> <Smiles>
CNC(C)C(=O)NC(C(=O)N1Cc2cc([101O:1][101CH2:1]CCc3cc(C(C)CC(C)[100NH:0][100C:0](=O)N4CCCC(n5nc(-c6ccc(Oc7ccc(F)cc7F)cc6)c(C(N)=O)c5N)C4)ncc3C(C)C)ccc2CC1C(=O)NC1CCCc2ccccc21)C(C)(C)C

> <Shape>
0.189

> <Color>
0.101

> <Negative vol penalty>
0.000

$$$$

  -OEChem-04052318593D

 86 94  0     1  0  0  0  0  0999 V2000
  -24.4867  -34.6365   20.3157 C   0  0  0  0  0  0  0  0  0  0  0  0
  -25.2952  -33.5152   20.4721 C   0  0  0  0  0  0  0  0  0  0  0  0
  -24.0959   -9.8057   22.3135 C   0  0  0  0  0  0  0  0  0  0  0  0
  -23.1816  -10.4607   20.1752 C   0  0  0  0  0  0  0  0  0  0  0  0
  -23.2429  -34.6906   20.9433 C   0  0  0  0  0  0  0  0  0  0  0  0
  -24.8607  -32.4477   21.2571 C   0  0  0  0  0  0  0  0  0  0  0  0
  -25.6849  -27.9596   19.0611 C   0  0  0  0  0  0  0  0  0  0  0  0
  -23.3612   -8.6211   22.2648 C   0  0  0  0  0  0  0  0  0  0  0  0
  -22.4469   -9.2760   20.1265 C   0  0  0  0  0  0  0  0  0  0  0  0
  -26.9843  -27.4564   19.1088 C   0  0  0  0  0  0  0  0  0  0  0  0
  -20.1745   -7.6422   22.8229 C   0  0  0  0  0  0  0  0  0  0  0  0
  -19.4984   -7.2519   23.9788 C   0  0  0  0  0  0  0  0  0  0  0  0
  -26.3564  -26.0260   20.9470 C   0  0  0  0  0  0  0  0  0  0  0  0
  -30.4020  -22.4947   19.8440 C   0  0  0  0  0  0  0  0  0  0  0  0
  -20.7710   -5.1988   24.0299 C   0  0  0  0  0  0  0  0  0  0  0  0
  -24.0061  -10.7255   21.2687 C   0  0  0  0  0  0  0  0  0  0  0  0
  -26.0661  -12.1640   20.8275 C   0  0  0  0  0  0  0  0  0  0  0  0
  -22.7888  -33.6192   21.7285 C   0  0  0  0  0  0  0  0  0  0  0  0
  -24.7127  -27.5069   19.9646 C   0  0  0  0  0  0  0  0  0  0  0  0
  -23.6102  -32.4881   21.8968 C   0  0  0  0  0  0  0  0  0  0  0  0
  -25.0448  -26.5231   20.9070 C   0  0  0  0  0  0  0  0  0  0  0  0
  -29.7873  -21.2579   20.0051 C   0  0  0  0  0  0  0  0  0  0  0  0
  -28.5275  -21.0376   19.4594 C   0  0  0  0  0  0  0  0  0  0  0  0
  -22.5367   -8.3562   21.1713 C   0  0  0  0  0  0  0  0  0  0  0  0
  -27.3209  -26.4916   20.0538 C   0  0  0  0  0  0  0  0  0  0  0  0
  -21.1489   -6.8108   22.2705 C   0  0  0  0  0  0  0  0  0  0  0  0
  -19.7966   -6.0302   24.5823 C   0  0  0  0  0  0  0  0  0  0  0  0
  -21.4471   -5.5892   22.8740 C   0  0  0  0  0  0  0  0  0  0  0  0
  -24.7643  -11.9497   21.3187 C   0  0  0  0  0  0  0  0  0  0  0  0
  -29.7203  -23.4702   19.1346 C   0  0  0  0  0  0  0  0  0  0  0  0
  -27.9296  -22.0785   18.7674 C   0  0  0  0  0  0  0  0  0  0  0  0
  -26.3299  -13.4805   21.1170 C   0  0  0  0  0  0  0  0  0  0  0  0
  -26.9572  -11.2544   20.1684 C   0  0  0  0  0  0  0  0  0  0  0  0
  -22.9565  -28.8675   22.2380 C   0  0  0  0  0  0  0  0  0  0  0  0
  -21.5552  -25.9445   22.3619 C   0  0  0  0  0  0  0  0  0  0  0  0
  -21.7924  -22.5907   21.7767 C   0  0  0  0  0  0  0  0  0  0  0  0
  -24.7706  -18.8368   21.2702 C   0  0  0  0  0  0  0  0  0  0  0  0
  -21.4572  -33.7434   22.4257 C   0  0  0  0  0  0  0  0  0  0  0  0
  -23.3087  -28.0402   19.8826 C   0  0  0  0  0  0  0  0  0  0  0  0
  -24.0325  -25.9891   21.8861 C   0  0  0  0  0  0  0  0  0  0  0  0
  -20.9103  -32.4126   22.9358 C   0  0  0  0  0  0  0  0  0  0  0  0
  -23.8226  -16.7800   24.0175 C   0  0  0  0  0  0  0  0  0  0  0  0
  -22.0000  -31.6310   23.6627 C   0  0  0  0  0  0  0  0  0  0  0  0
  -24.0846  -15.3583   23.5175 C   0  0  0  0  0  0  0  0  0  0  0  0
  -23.3050  -17.6844   22.9012 C   0  0  0  0  0  0  0  0  0  0  0  0
  -24.4082  -16.2954   21.1903 C   0  0  0  0  0  0  0  0  0  0  0  0
  -23.1633  -31.2996   22.7202 C   0  0  1  0  0  0  0  0  0  0  0  0
  -22.5323  -27.8817   21.1863 C   0  0  1  0  0  0  0  0  0  0  0  0
  -24.9847  -15.3605   22.2673 C   0  0  2  0  0  0  0  0  0  0  0  0
  -30.4973  -20.1884   20.7674 C   0  0  0  0  0  0  0  0  0  0  0  0
  -26.5775  -21.9015   18.1574 C   0  0  0  0  0  0  0  0  0  0  0  0
  -31.2470  -24.8513   17.6877 C   0  0  0  0  0  0  0  0  0  0  0  0
  -20.4998  -20.4531   22.0156 C   0  0  0  0  0  0  0  0  0  0  0  0
  -28.1961  -18.9286   20.9218 C   0  0  0  0  0  0  0  0  0  0  0  0
  -28.2439  -18.7590   18.4469 C   0  0  0  0  0  0  0  0  0  0  0  0
  -22.1318  -25.9335   25.3581 C   0  0  0  0  0  0  0  0  0  0  0  0
  -21.7074  -23.4661   25.3600 C   0  0  0  0  0  0  0  0  0  0  0  0
  -19.8820  -25.0434   24.7255 C   0  0  0  0  0  0  0  0  0  0  0  0
  -21.8323  -22.1047   18.8576 C   0  0  0  0  0  0  0  0  0  0  0  0
  -26.2793  -19.8445   19.5767 C   0  0  0  0  0  0  0  0  0  0  0  0
  -29.3172  -25.9575   18.8767 C   0  0  0  0  0  0  0  0  0  1  0  0
  -30.3619  -24.8347   18.9371 C   0  0  1  0  0  0  0  0  0  0  0  0
  -21.8074  -24.6697   23.1302 C   0  0  1  0  0  0  0  0  0  0  0  0
  -20.8451  -21.6169   21.0995 C   0  0  2  0  0  0  0  0  0  0  0  0
  -27.8449  -19.7203   19.6141 C   0  0  0  0  0  0  0  0  0  0  0  0
  -21.4020  -24.7894   24.6264 C   0  0  0  0  0  0  0  0  0  0  0  0
  -24.2379  -13.0425   21.8779 N   0  0  0  0  0  0  0  0  0  0  0  0
  -28.4956  -23.2934   18.5902 N   0  0  0  0  0  0  0  0  0  0  0  0
  -25.2138  -13.9561   21.7400 N   0  0  0  0  0  0  0  0  0  0  0  0
  -22.6748  -26.5465   21.7702 N   0  0  0  0  0  0  0  0  0  0  0  0
  -24.2045  -17.6425   21.7458 N   0  0  0  0  0  0  0  0  0  0  0  0
  -27.4055  -14.2660   20.8969 N   0  0  0  0  0  0  0  0  0  0  0  0
  -26.5273   -9.9384   19.9500 N   0  0  0  0  0  0  0  0  0  0  0  0
  -22.8160  -30.1891   21.8597 N   0  0  0  0  0  0  0  0  0  0  0  0
  -21.1118  -23.6119   22.4054 N   0  0  0  0  0  0  0  0  0  0  0  0
  -25.6167  -18.7074   20.1755 N   0  0  0  0  0  0  0  0  0  0  0  0
  -21.4636  -21.0707   19.8585 N   0  3  0  0  0  0  0  0  0  0  0  0
  -28.1069  -11.5940   19.7992 O   0  0  0  0  0  0  0  0  0  0  0  0
  -23.3785  -28.4592   23.3136 O   0  0  0  0  0  0  0  0  0  0  0  0
  -20.4061  -26.3860   22.2834 O   0  0  0  0  0  0  0  0  0  0  0  0
  -23.0139  -22.4568   21.7537 O   0  0  0  0  0  0  0  0  0  0  0  0
  -24.5434  -19.9363   21.7863 O   0  0  0  0  0  0  0  0  0  0  0  0
  -21.8198   -7.2002   21.1233 O   0  0  0  0  0  0  0  0  0  0  0  0
  -28.5886  -25.9992   20.1029 O   0  0  0  0  0  0  0  0  0  1  0  0
  -19.1483   -5.6562   25.6931 F   0  0  0  0  0  0  0  0  0  0  0  0
  -22.3830   -4.7868   22.3485 F   0  0  0  0  0  0  0  0  0  0  0  0
  1  2  1  0  0  0  0
  1  5  2  0  0  0  0
  2  6  2  0  0  0  0
  3  8  2  0  0  0  0
  3 16  1  0  0  0  0
  4  9  1  0  0  0  0
  4 16  2  0  0  0  0
  5 18  1  0  0  0  0
  6 20  1  0  0  0  0
  7 10  2  0  0  0  0
  7 19  1  0  0  0  0
  8 24  1  0  0  0  0
  9 24  2  0  0  0  0
 10 25  1  0  0  0  0
 11 12  2  0  0  0  0
 11 26  1  0  0  0  0
 12 27  1  0  0  0  0
 13 21  1  0  0  0  0
 13 25  2  0  0  0  0
 14 22  2  0  0  0  0
 14 30  1  0  0  0  0
 15 27  2  0  0  0  0
 15 28  1  0  0  0  0
 16 29  1  0  0  0  0
 17 29  1  0  0  0  0
 17 32  2  0  0  0  0
 17 33  1  0  0  0  0
 18 20  2  0  0  0  0
 18 38  1  0  0  0  0
 19 21  2  0  0  0  0
 19 39  1  0  0  0  0
 20 47  1  0  0  0  0
 21 40  1  0  0  0  0
 22 23  1  0  0  0  0
 22 50  1  0  0  0  0
 23 31  2  0  0  0  0
 23 65  1  0  0  0  0
 24 83  1  0  0  0  0
 25 84  1  0  0  0  0
 26 28  2  0  0  0  0
 26 83  1  0  0  0  0
 27 85  1  0  0  0  0
 28 86  1  0  0  0  0
 29 67  2  0  0  0  0
 30 62  1  0  0  0  0
 30 68  2  0  0  0  0
 31 51  1  0  0  0  0
 31 68  1  0  0  0  0
 32 69  1  0  0  0  0
 32 72  1  0  0  0  0
 33 73  1  0  0  0  0
 33 78  2  0  0  0  0
 34 48  1  0  0  0  0
 34 74  1  0  0  0  0
 34 79  2  0  0  0  0
 35 63  1  0  0  0  0
 35 70  1  0  0  0  0
 35 80  2  0  0  0  0
 36 64  1  0  0  0  0
 36 75  1  0  0  0  0
 36 81  2  0  0  0  0
 37 71  1  0  0  0  0
 37 76  1  0  0  0  0
 37 82  2  0  0  0  0
 38 41  1  0  0  0  0
 39 48  1  0  0  0  0
 40 70  1  0  0  0  0
 41 43  1  0  0  0  0
 42 44  1  0  0  0  0
 42 45  1  0  0  0  0
 43 47  1  0  0  0  0
 44 49  1  0  0  0  0
 45 71  1  0  0  0  0
 46 49  1  0  0  0  0
 46 71  1  0  0  0  0
 47 74  1  0  0  0  0
 48 70  1  0  0  0  0
 49 69  1  0  0  0  0
 52 62  1  0  0  0  0
 53 64  1  0  0  0  0
 54 65  1  0  0  0  0
 55 65  1  0  0  0  0
 56 66  1  0  0  0  0
 57 66  1  0  0  0  0
 58 66  1  0  0  0  0
 59 77  1  0  0  0  0
 60 65  1  0  0  0  0
 60 76  1  0  0  0  0
 61 62  1  0  0  0  0
 61 84  1  0  0  0  0
 63 66  1  0  0  0  0
 63 75  1  0  0  0  0
 64 77  1  0  0  0  0
 67 69  1  0  0  0  0
M  CHG  1  77   1
M  ISO  4  37 100  61 101  76 100  84 101
M  END
> <Batch ID>
0086

> <Smiles>
CNC(C)C(=O)NC(C(=O)N1Cc2cc([101O:1][101CH2:1]C(C)c3cc(C)c(C(C)(C)C[100NH:0][100C:0](=O)N4CCCC(n5nc(-c6ccc(Oc7ccc(F)cc7F)cc6)c(C(N)=O)c5N)C4)c(C)n3)ccc2CC1C(=O)NC1CCCc2ccccc21)C(C)(C)C

> <Shape>
0.248

> <Color>
0.090

> <Negative vol penalty>
0.000

$$$$

  -OEChem-04052318593D

 88 96  0     1  0  0  0  0  0999 V2000
  -17.0409  -27.6293   22.7164 C   0  0  0  0  0  0  0  0  0  0  0  0
  -17.9150  -27.1286   21.7570 C   0  0  0  0  0  0  0  0  0  0  0  0
  -24.4330  -14.2361   21.0600 C   0  0  0  0  0  0  0  0  0  0  0  0
  -26.8218  -13.9030   20.9185 C   0  0  0  0  0  0  0  0  0  0  0  0
  -17.3925  -28.7565   23.4577 C   0  0  0  0  0  0  0  0  0  0  0  0
  -19.1410  -27.7557   21.5374 C   0  0  0  0  0  0  0  0  0  0  0  0
  -24.4333  -25.0677   20.0299 C   0  0  0  0  0  0  0  0  0  0  0  0
  -31.1322  -26.7240   18.0500 C   0  0  0  0  0  0  0  0  0  0  0  0
  -31.8557  -26.6908   19.2421 C   0  0  0  0  0  0  0  0  0  0  0  0
  -24.2246  -12.9304   20.6158 C   0  0  0  0  0  0  0  0  0  0  0  0
  -26.6134  -12.5973   20.4743 C   0  0  0  0  0  0  0  0  0  0  0  0
  -25.0837  -24.8962   18.8087 C   0  0  0  0  0  0  0  0  0  0  0  0
  -23.0676   -9.5672   19.8641 C   0  0  0  0  0  0  0  0  0  0  0  0
  -22.1158   -8.7985   20.5339 C   0  0  0  0  0  0  0  0  0  0  0  0
  -26.4156  -26.8586   19.2494 C   0  0  0  0  0  0  0  0  0  0  0  0
  -31.7002  -24.4117   17.6409 C   0  0  0  0  0  0  0  0  0  0  0  0
  -23.3648   -9.0416   22.5877 C   0  0  0  0  0  0  0  0  0  0  0  0
  -25.7316  -14.7225   21.2113 C   0  0  0  0  0  0  0  0  0  0  0  0
  -26.0870  -16.5045   23.0017 C   0  0  0  0  0  0  0  0  0  0  0  0
  -18.6275  -29.3920   23.2539 C   0  0  0  0  0  0  0  0  0  0  0  0
  -24.7620  -26.1440   20.8665 C   0  0  0  0  0  0  0  0  0  0  0  0
  -19.5090  -28.8933   22.2758 C   0  0  0  0  0  0  0  0  0  0  0  0
  -25.7696  -27.0401   20.4819 C   0  0  0  0  0  0  0  0  0  0  0  0
  -31.0544  -25.5844   17.2494 C   0  0  0  0  0  0  0  0  0  0  0  0
  -32.5015  -25.5181   19.6335 C   0  0  0  0  0  0  0  0  0  0  0  0
  -32.4238  -24.3785   18.8329 C   0  0  0  0  0  0  0  0  0  0  0  0
  -25.3148  -12.1110   20.3230 C   0  0  0  0  0  0  0  0  0  0  0  0
  -26.0730  -25.7934   18.4170 C   0  0  0  0  0  0  0  0  0  0  0  0
  -24.1681  -10.0731   20.5560 C   0  0  0  0  0  0  0  0  0  0  0  0
  -22.2643   -8.5357   21.8957 C   0  0  0  0  0  0  0  0  0  0  0  0
  -24.3166   -9.8103   21.9178 C   0  0  0  0  0  0  0  0  0  0  0  0
  -25.9475  -16.0713   21.6695 C   0  0  0  0  0  0  0  0  0  0  0  0
  -26.2714  -17.8620   22.9039 C   0  0  0  0  0  0  0  0  0  0  0  0
  -26.0531  -15.7474   24.2188 C   0  0  0  0  0  0  0  0  0  0  0  0
  -23.1870  -28.6546   22.0153 C   0  0  0  0  0  0  0  0  0  0  0  0
  -25.9259  -29.1143   23.6915 C   0  0  0  0  0  0  0  0  0  0  0  0
  -29.2895  -28.5953   23.9445 C   0  0  0  0  0  0  0  0  0  0  0  0
  -28.8110  -21.7934   19.4967 C   0  0  0  0  0  0  0  0  0  0  0  0
  -18.9435  -30.6357   24.0464 C   0  0  0  0  0  0  0  0  0  0  0  0
  -24.0697  -26.2998   22.1927 C   0  0  0  0  0  0  0  0  0  0  0  0
  -26.1739  -28.2004   21.3529 C   0  0  0  0  0  0  0  0  0  0  0  0
  -20.4206  -31.0194   24.0145 C   0  0  0  0  0  0  0  0  0  0  0  0
  -25.2891  -21.2724   19.4619 C   0  0  0  0  0  0  0  0  0  0  0  0
  -20.9585  -30.9541   22.5886 C   0  0  0  0  0  0  0  0  0  0  0  0
  -25.1128  -19.9184   20.1515 C   0  0  0  0  0  0  0  0  0  0  0  0
  -26.5518  -21.3086   18.6038 C   0  0  0  0  0  0  0  0  0  0  0  0
  -27.6146  -19.5769   19.9986 C   0  0  0  0  0  0  0  0  0  0  0  0
  -20.8584  -29.5311   22.0259 C   0  0  1  0  0  0  0  0  0  0  0  0
  -24.1257  -27.7257   22.7321 C   0  0  1  0  0  0  0  0  0  0  0  0
  -26.3844  -19.5106   20.9197 C   0  0  2  0  0  0  0  0  0  0  0  0
  -31.2601  -29.1253   25.4051 C   0  0  0  0  0  0  0  0  0  0  0  0
  -32.9656  -20.6381   19.7415 C   0  0  0  0  0  0  0  0  0  0  0  0
  -33.2075  -26.8950   21.6214 C   0  0  0  0  0  0  0  0  0  0  0  0
  -34.7739  -25.1723   20.6648 C   0  0  0  0  0  0  0  0  0  0  0  0
  -32.7831  -24.4714   21.9789 C   0  0  0  0  0  0  0  0  0  0  0  0
  -25.9783  -31.9573   22.5849 C   0  0  0  0  0  0  0  0  0  0  0  0
  -28.3795  -32.1082   23.2776 C   0  0  0  0  0  0  0  0  0  0  0  0
  -26.6061  -31.7655   24.9981 C   0  0  0  0  0  0  0  0  0  0  0  0
  -29.8018  -25.7321   24.4910 C   0  0  0  0  0  0  0  0  0  0  0  0
  -30.2726  -25.6207   15.9606 C   0  0  0  0  0  0  0  0  0  0  0  0
  -33.1073  -23.1117   19.2315 C   0  0  0  0  0  0  0  0  0  0  0  0
  -28.8017  -25.2307   16.1213 C   0  0  0  0  0  0  0  0  0  0  0  0
  -31.0658  -22.1387   20.4743 C   0  0  0  0  0  0  0  0  0  0  0  0
  -28.0581  -26.0862   17.1403 C   0  0  0  0  0  0  0  0  0  1  0  0
  -27.2148  -29.8621   23.4493 C   0  0  1  0  0  0  0  0  0  0  0  0
  -30.1522  -28.1282   25.1029 C   0  0  2  0  0  0  0  0  0  0  0  0
  -32.1580  -21.9004   19.4181 C   0  0  2  0  0  0  0  0  0  0  0  0
  -33.2712  -25.5069   20.9134 C   0  0  0  0  0  0  0  0  0  0  0  0
  -27.0359  -31.4026   23.5599 C   0  0  0  0  0  0  0  0  0  0  0  0
  -26.0355  -17.0726   20.7899 N   0  0  0  0  0  0  0  0  0  0  0  0
  -26.2322  -18.1484   21.5709 N   0  0  0  0  0  0  0  0  0  0  0  0
  -25.4634  -28.3138   22.6374 N   0  0  0  0  0  0  0  0  0  0  0  0
  -27.7215  -20.9131   19.3922 N   0  0  0  0  0  0  0  0  0  0  0  0
  -26.4614  -18.8268   23.8288 N   0  0  0  0  0  0  0  0  0  0  0  0
  -25.8545  -14.3623   24.1388 N   0  0  0  0  0  0  0  0  0  0  0  0
  -21.9174  -28.7011   22.5589 N   0  0  0  0  0  0  0  0  0  0  0  0
  -28.1907  -29.3055   24.3800 N   0  0  0  0  0  0  0  0  0  0  0  0
  -29.8760  -21.3436   20.2676 N   0  0  0  0  0  0  0  0  0  0  0  0
  -30.7773  -26.8130   24.7859 N   0  3  0  0  0  0  0  0  0  0  0  0
  -26.1784  -16.2856   25.3450 O   0  0  0  0  0  0  0  0  0  0  0  0
  -23.5856  -29.2838   21.0422 O   0  0  0  0  0  0  0  0  0  0  0  0
  -25.3545  -29.2305   24.7785 O   0  0  0  0  0  0  0  0  0  0  0  0
  -29.5648  -28.3573   22.7706 O   0  0  0  0  0  0  0  0  0  0  0  0
  -28.8310  -22.9006   18.9483 O   0  0  0  0  0  0  0  0  0  0  0  0
  -25.1118  -10.8368   19.8898 O   0  0  0  0  0  0  0  0  0  0  0  0
  -26.7091  -25.6287   17.2253 O   0  0  0  0  0  0  0  0  0  1  0  0
  -21.3494   -7.7988   22.5392 F   0  0  0  0  0  0  0  0  0  0  0  0
  -25.3711  -10.2946   22.5882 F   0  0  0  0  0  0  0  0  0  0  0  0
  1  2  1  0  0  0  0
  1  5  2  0  0  0  0
  2  6  2  0  0  0  0
  3 10  2  0  0  0  0
  3 18  1  0  0  0  0
  4 11  1  0  0  0  0
  4 18  2  0  0  0  0
  5 20  1  0  0  0  0
  6 22  1  0  0  0  0
  7 12  2  0  0  0  0
  7 21  1  0  0  0  0
  8  9  2  0  0  0  0
  8 24  1  0  0  0  0
  9 25  1  0  0  0  0
 10 27  1  0  0  0  0
 11 27  2  0  0  0  0
 12 28  1  0  0  0  0
 13 14  2  0  0  0  0
 13 29  1  0  0  0  0
 14 30  1  0  0  0  0
 15 23  1  0  0  0  0
 15 28  2  0  0  0  0
 16 24  2  0  0  0  0
 16 26  1  0  0  0  0
 17 30  2  0  0  0  0
 17 31  1  0  0  0  0
 18 32  1  0  0  0  0
 19 32  1  0  0  0  0
 19 33  2  0  0  0  0
 19 34  1  0  0  0  0
 20 22  2  0  0  0  0
 20 39  1  0  0  0  0
 21 23  2  0  0  0  0
 21 40  1  0  0  0  0
 22 48  1  0  0  0  0
 23 41  1  0  0  0  0
 24 60  1  0  0  0  0
 25 26  2  0  0  0  0
 25 68  1  0  0  0  0
 26 61  1  0  0  0  0
 27 85  1  0  0  0  0
 28 86  1  0  0  0  0
 29 31  2  0  0  0  0
 29 85  1  0  0  0  0
 30 87  1  0  0  0  0
 31 88  1  0  0  0  0
 32 70  2  0  0  0  0
 33 71  1  0  0  0  0
 33 74  1  0  0  0  0
 34 75  1  0  0  0  0
 34 80  2  0  0  0  0
 35 49  1  0  0  0  0
 35 76  1  0  0  0  0
 35 81  2  0  0  0  0
 36 65  1  0  0  0  0
 36 72  1  0  0  0  0
 36 82  2  0  0  0  0
 37 66  1  0  0  0  0
 37 77  1  0  0  0  0
 37 83  2  0  0  0  0
 38 73  1  0  0  0  0
 38 78  1  0  0  0  0
 38 84  2  0  0  0  0
 39 42  1  0  0  0  0
 40 49  1  0  0  0  0
 41 72  1  0  0  0  0
 42 44  1  0  0  0  0
 43 45  1  0  0  0  0
 43 46  1  0  0  0  0
 44 48  1  0  0  0  0
 45 50  1  0  0  0  0
 46 73  1  0  0  0  0
 47 50  1  0  0  0  0
 47 73  1  0  0  0  0
 48 76  1  0  0  0  0
 49 72  1  0  0  0  0
 50 71  1  0  0  0  0
 51 66  1  0  0  0  0
 52 67  1  0  0  0  0
 53 68  1  0  0  0  0
 54 68  1  0  0  0  0
 55 68  1  0  0  0  0
 56 69  1  0  0  0  0
 57 69  1  0  0  0  0
 58 69  1  0  0  0  0
 59 79  1  0  0  0  0
 60 62  1  0  0  0  0
 61 67  1  0  0  0  0
 62 64  1  0  0  0  0
 63 67  1  0  0  0  0
 63 78  1  0  0  0  0
 64 86  1  0  0  0  0
 65 69  1  0  0  0  0
 65 77  1  0  0  0  0
 66 79  1  0  0  0  0
 70 71  1  0  0  0  0
M  CHG  1  79   1
M  ISO  4  38 100  64 101  78 100  86 101
M  END
> <Batch ID>
0086

> <Smiles>
CNC(C)C(=O)NC(C(=O)N1Cc2cc([101O:1][101CH2:1]CCc3ccc(C(C)(C)C)c(CC(C)C[100NH:0][100C:0](=O)N4CCCC(n5nc(-c6ccc(Oc7ccc(F)cc7F)cc6)c(C(N)=O)c5N)C4)c3)ccc2CC1C(=O)NC1CCCc2ccccc21)C(C)(C)C

> <Shape>
0.259

> <Color>
0.066

> <Negative vol penalty>
0.000

$$$$

  -OEChem-04052318593D

 84 92  0     1  0  0  0  0  0999 V2000
  -17.4965  -32.5162   23.0860 C   0  0  0  0  0  0  0  0  0  0  0  0
  -18.7602  -32.8079   22.5827 C   0  0  0  0  0  0  0  0  0  0  0  0
  -25.7101  -13.5426   21.1925 C   0  0  0  0  0  0  0  0  0  0  0  0
  -25.2680  -13.9229   18.8479 C   0  0  0  0  0  0  0  0  0  0  0  0
  -17.2889  -31.3414   23.8075 C   0  0  0  0  0  0  0  0  0  0  0  0
  -19.8174  -31.9254   22.8016 C   0  0  0  0  0  0  0  0  0  0  0  0
  -25.8002  -29.5009   19.6959 C   0  0  0  0  0  0  0  0  0  0  0  0
  -24.6417  -12.6476   21.2488 C   0  0  0  0  0  0  0  0  0  0  0  0
  -24.1996  -13.0279   18.9042 C   0  0  0  0  0  0  0  0  0  0  0  0
  -27.1583  -29.3307   19.9608 C   0  0  0  0  0  0  0  0  0  0  0  0
  -24.0338   -9.4367   20.3808 C   0  0  0  0  0  0  0  0  0  0  0  0
  -24.2361   -8.2268   21.0448 C   0  0  0  0  0  0  0  0  0  0  0  0
  -26.6641  -27.2930   21.1535 C   0  0  0  0  0  0  0  0  0  0  0  0
  -29.9143  -25.9518   18.8313 C   0  0  0  0  0  0  0  0  0  0  0  0
  -22.4590   -8.7759   22.5867 C   0  0  0  0  0  0  0  0  0  0  0  0
  -26.0232  -14.1803   19.9921 C   0  0  0  0  0  0  0  0  0  0  0  0
  -28.4691  -14.8092   19.6320 C   0  0  0  0  0  0  0  0  0  0  0  0
  -18.3419  -30.4393   24.0271 C   0  0  0  0  0  0  0  0  0  0  0  0
  -24.8611  -28.5727   20.1679 C   0  0  0  0  0  0  0  0  0  0  0  0
  -19.6240  -30.7380   23.5279 C   0  0  0  0  0  0  0  0  0  0  0  0
  -25.2949  -27.4524   20.8911 C   0  0  0  0  0  0  0  0  0  0  0  0
  -30.9198  -26.3023   19.7254 C   0  0  0  0  0  0  0  0  0  0  0  0
  -31.7004  -25.3105   20.3088 C   0  0  0  0  0  0  0  0  0  0  0  0
  -23.8865  -12.3902   20.1046 C   0  0  0  0  0  0  0  0  0  0  0  0
  -27.5902  -28.2282   20.6922 C   0  0  0  0  0  0  0  0  0  0  0  0
  -23.0442  -10.3163   20.8199 C   0  0  0  0  0  0  0  0  0  0  0  0
  -23.4486   -7.8964   22.1477 C   0  0  0  0  0  0  0  0  0  0  0  0
  -22.2568   -9.9859   21.9228 C   0  0  0  0  0  0  0  0  0  0  0  0
  -27.1263  -15.1054   19.9335 C   0  0  0  0  0  0  0  0  0  0  0  0
  -29.7312  -24.6062   18.5561 C   0  0  0  0  0  0  0  0  0  0  0  0
  -31.4372  -23.9936   19.9676 C   0  0  0  0  0  0  0  0  0  0  0  0
  -29.1129  -16.0201   19.7062 C   0  0  0  0  0  0  0  0  0  0  0  0
  -29.0799  -13.5517   19.3133 C   0  0  0  0  0  0  0  0  0  0  0  0
  -22.3849  -28.7006   22.1568 C   0  0  0  0  0  0  0  0  0  0  0  0
  -21.9389  -25.6404   21.1779 C   0  0  0  0  0  0  0  0  0  0  0  0
  -23.2866  -22.7925   19.8664 C   0  0  0  0  0  0  0  0  0  0  0  0
  -27.1852  -21.5514   18.9680 C   0  0  0  0  0  0  0  0  0  0  0  0
  -18.0800  -29.2051   24.8534 C   0  0  0  0  0  0  0  0  0  0  0  0
  -23.4023  -28.7565   19.8508 C   0  0  0  0  0  0  0  0  0  0  0  0
  -24.3290  -26.4163   21.4029 C   0  0  0  0  0  0  0  0  0  0  0  0
  -19.1667  -28.1413   24.7205 C   0  0  0  0  0  0  0  0  0  0  0  0
  -28.8650  -20.2646   21.9040 C   0  0  0  0  0  0  0  0  0  0  0  0
  -20.5499  -28.7729   24.8419 C   0  0  0  0  0  0  0  0  0  0  0  0
  -28.7320  -18.7553   21.6935 C   0  0  0  0  0  0  0  0  0  0  0  0
  -27.6115  -21.0001   21.4393 C   0  0  0  0  0  0  0  0  0  0  0  0
  -27.0944  -19.2229   19.8121 C   0  0  0  0  0  0  0  0  0  0  0  0
  -20.7903  -29.7937   23.7232 C   0  0  1  0  0  0  0  0  0  0  0  0
  -22.4827  -28.0207   20.8205 C   0  0  1  0  0  0  0  0  0  0  0  0
  -28.3387  -18.4245   20.2416 C   0  0  2  0  0  0  0  0  0  0  0  0
  -32.7877  -25.6569   21.2696 C   0  0  0  0  0  0  0  0  0  0  0  0
  -32.2433  -22.8844   20.5605 C   0  0  0  0  0  0  0  0  0  0  0  0
  -32.1965  -28.3854   19.1236 C   0  0  0  0  0  0  0  0  0  0  0  0
  -23.3527  -20.4688   18.9211 C   0  0  0  0  0  0  0  0  0  0  0  0
  -21.9248  -24.8333   24.1204 C   0  0  0  0  0  0  0  0  0  0  0  0
  -22.2762  -22.4615   23.3996 C   0  0  0  0  0  0  0  0  0  0  0  0
  -20.2095  -23.6785   22.7137 C   0  0  0  0  0  0  0  0  0  0  0  0
  -22.8285  -23.7750   17.1125 C   0  0  0  0  0  0  0  0  0  0  0  0
  -28.6623  -24.1932   17.6002 C   0  0  0  0  0  0  0  0  0  0  0  0
  -27.3089  -23.9293   18.2702 C   0  0  0  0  0  0  0  0  0  0  0  0
  -29.8365  -28.5760   19.9929 C   0  0  0  0  0  0  0  0  0  1  0  0
  -31.1422  -27.7713   20.0489 C   0  0  1  0  0  0  0  0  0  0  0  0
  -22.4187  -24.2876   21.6457 C   0  0  1  0  0  0  0  0  0  0  0  0
  -22.8223  -21.8830   18.7432 C   0  0  2  0  0  0  0  0  0  0  0  0
  -21.7256  -23.8356   22.9620 C   0  0  0  0  0  0  0  0  0  0  0  0
  -26.9275  -16.4028   20.1809 N   0  0  0  0  0  0  0  0  0  0  0  0
  -30.4694  -23.6146   19.1032 N   0  0  0  0  0  0  0  0  0  0  0  0
  -28.1540  -16.9325   20.0351 N   0  0  0  0  0  0  0  0  0  0  0  0
  -22.9125  -26.6438   21.0724 N   0  0  0  0  0  0  0  0  0  0  0  0
  -27.3028  -20.6561   20.0441 N   0  0  0  0  0  0  0  0  0  0  0  0
  -30.4001  -16.3829   19.5216 N   0  0  0  0  0  0  0  0  0  0  0  0
  -28.2729  -12.4063   19.2804 N   0  0  0  0  0  0  0  0  0  0  0  0
  -21.1089  -29.1189   22.4832 N   0  0  0  0  0  0  0  0  0  0  0  0
  -22.2239  -23.3752   20.5241 N   0  0  0  0  0  0  0  0  0  0  0  0
  -27.3905  -22.8912   19.2735 N   0  0  0  0  0  0  0  0  0  0  0  0
  -23.2957  -22.4006   17.4283 N   0  3  0  0  0  0  0  0  0  0  0  0
  -30.3079  -13.4444   19.0811 O   0  0  0  0  0  0  0  0  0  0  0  0
  -23.3921  -28.8344   22.8418 O   0  0  0  0  0  0  0  0  0  0  0  0
  -20.7455  -25.7990   20.9089 O   0  0  0  0  0  0  0  0  0  0  0  0
  -24.4731  -22.9656   20.1360 O   0  0  0  0  0  0  0  0  0  0  0  0
  -26.9219  -21.1833   17.8181 O   0  0  0  0  0  0  0  0  0  0  0  0
  -22.8441  -11.5167   20.1591 O   0  0  0  0  0  0  0  0  0  0  0  0
  -28.9152  -28.0599   20.9527 O   0  0  0  0  0  0  0  0  0  1  0  0
  -23.6419   -6.7338   22.7843 F   0  0  0  0  0  0  0  0  0  0  0  0
  -21.3037  -10.8263   22.3485 F   0  0  0  0  0  0  0  0  0  0  0  0
  1  2  1  0  0  0  0
  1  5  2  0  0  0  0
  2  6  2  0  0  0  0
  3  8  2  0  0  0  0
  3 16  1  0  0  0  0
  4  9  1  0  0  0  0
  4 16  2  0  0  0  0
  5 18  1  0  0  0  0
  6 20  1  0  0  0  0
  7 10  2  0  0  0  0
  7 19  1  0  0  0  0
  8 24  1  0  0  0  0
  9 24  2  0  0  0  0
 10 25  1  0  0  0  0
 11 12  2  0  0  0  0
 11 26  1  0  0  0  0
 12 27  1  0  0  0  0
 13 21  1  0  0  0  0
 13 25  2  0  0  0  0
 14 22  1  0  0  0  0
 14 30  2  0  0  0  0
 15 27  2  0  0  0  0
 15 28  1  0  0  0  0
 16 29  1  0  0  0  0
 17 29  1  0  0  0  0
 17 32  2  0  0  0  0
 17 33  1  0  0  0  0
 18 20  2  0  0  0  0
 18 38  1  0  0  0  0
 19 21  2  0  0  0  0
 19 39  1  0  0  0  0
 20 47  1  0  0  0  0
 21 40  1  0  0  0  0
 22 23  2  0  0  0  0
 22 61  1  0  0  0  0
 23 31  1  0  0  0  0
 23 50  1  0  0  0  0
 24 81  1  0  0  0  0
 25 82  1  0  0  0  0
 26 28  2  0  0  0  0
 26 81  1  0  0  0  0
 27 83  1  0  0  0  0
 28 84  1  0  0  0  0
 29 65  2  0  0  0  0
 30 58  1  0  0  0  0
 30 66  1  0  0  0  0
 31 51  1  0  0  0  0
 31 66  2  0  0  0  0
 32 67  1  0  0  0  0
 32 70  1  0  0  0  0
 33 71  1  0  0  0  0
 33 76  2  0  0  0  0
 34 48  1  0  0  0  0
 34 72  1  0  0  0  0
 34 77  2  0  0  0  0
 35 62  1  0  0  0  0
 35 68  1  0  0  0  0
 35 78  2  0  0  0  0
 36 63  1  0  0  0  0
 36 73  1  0  0  0  0
 36 79  2  0  0  0  0
 37 69  1  0  0  0  0
 37 74  1  0  0  0  0
 37 80  2  0  0  0  0
 38 41  1  0  0  0  0
 39 48  1  0  0  0  0
 40 68  1  0  0  0  0
 41 43  1  0  0  0  0
 42 44  1  0  0  0  0
 42 45  1  0  0  0  0
 43 47  1  0  0  0  0
 44 49  1  0  0  0  0
 45 69  1  0  0  0  0
 46 49  1  0  0  0  0
 46 69  1  0  0  0  0
 47 72  1  0  0  0  0
 48 68  1  0  0  0  0
 49 67  1  0  0  0  0
 52 61  1  0  0  0  0
 53 63  1  0  0  0  0
 54 64  1  0  0  0  0
 55 64  1  0  0  0  0
 56 64  1  0  0  0  0
 57 75  1  0  0  0  0
 58 59  1  0  0  0  0
 59 74  1  0  0  0  0
 60 61  1  0  0  0  0
 60 82  1  0  0  0  0
 62 64  1  0  0  0  0
 62 73  1  0  0  0  0
 63 75  1  0  0  0  0
 65 67  1  0  0  0  0
M  CHG  1  75   1
M  ISO  4  37 100  60 101  74 100  82 101
M  END
> <Batch ID>
0086

> <Smiles>
CNC(C)C(=O)NC(C(=O)N1Cc2cc([101O:1][101CH2:1]C(C)c3cc(CC[100NH:0][100C:0](=O)N4CCCC(n5nc(-c6ccc(Oc7ccc(F)cc7F)cc6)c(C(N)=O)c5N)C4)nc(C)c3C)ccc2CC1C(=O)NC1CCCc2ccccc21)C(C)(C)C

> <Shape>
0.272

> <Color>
0.082

> <Negative vol penalty>
0.000

$$$$

  -OEChem-04052318593D

 94103  0     1  0  0  0  0  0999 V2000
  -22.2040  -32.0354   29.3933 C   0  0  0  0  0  0  0  0  0  0  0  0
  -21.9451  -30.7548   28.9153 C   0  0  0  0  0  0  0  0  0  0  0  0
  -24.4459   -9.2245   21.3858 C   0  0  0  0  0  0  0  0  0  0  0  0
  -22.4829  -10.5548   20.9235 C   0  0  0  0  0  0  0  0  0  0  0  0
  -22.7036  -33.0117   28.5324 C   0  0  0  0  0  0  0  0  0  0  0  0
  -22.1846  -30.4501   27.5758 C   0  0  0  0  0  0  0  0  0  0  0  0
  -24.1403  -25.1080   25.3080 C   0  0  0  0  0  0  0  0  0  0  0  0
  -23.6526   -8.0796   21.4601 C   0  0  0  0  0  0  0  0  0  0  0  0
  -21.6895   -9.4099   20.9978 C   0  0  0  0  0  0  0  0  0  0  0  0
  -23.4698  -24.0384   24.7162 C   0  0  0  0  0  0  0  0  0  0  0  0
  -21.5871   -6.6224   23.7039 C   0  0  0  0  0  0  0  0  0  0  0  0
  -21.8165   -5.7435   24.7624 C   0  0  0  0  0  0  0  0  0  0  0  0
  -27.2855  -21.6081   23.3911 C   0  0  0  0  0  0  0  0  0  0  0  0
  -23.9697  -24.9397   22.5352 C   0  0  0  0  0  0  0  0  0  0  0  0
  -23.6394  -21.1627   20.2725 C   0  0  0  0  0  0  0  0  0  0  0  0
  -24.8745  -19.7350   21.7627 C   0  0  0  0  0  0  0  0  0  0  0  0
  -22.3267   -3.9822   23.1893 C   0  0  0  0  0  0  0  0  0  0  0  0
  -26.9602  -21.7134   24.7254 C   0  0  0  0  0  0  0  0  0  0  0  0
  -27.7588  -19.6478   24.3928 C   0  0  0  0  0  0  0  0  0  0  0  0
  -23.8611  -10.4621   21.1175 C   0  0  0  0  0  0  0  0  0  0  0  0
  -25.3068  -12.1727   19.8964 C   0  0  0  0  0  0  0  0  0  0  0  0
  -22.9585  -32.7162   27.1840 C   0  0  0  0  0  0  0  0  0  0  0  0
  -24.7221  -26.1089   24.5167 C   0  0  0  0  0  0  0  0  0  0  0  0
  -22.6868  -31.4238   26.6958 C   0  0  0  0  0  0  0  0  0  0  0  0
  -24.6493  -26.0195   23.1193 C   0  0  0  0  0  0  0  0  0  0  0  0
  -27.7909  -20.3014   23.1807 C   0  0  0  0  0  0  0  0  0  0  0  0
  -23.7303  -20.4707   21.4751 C   0  0  0  0  0  0  0  0  0  0  0  0
  -22.2744   -8.1723   21.2661 C   0  0  0  0  0  0  0  0  0  0  0  0
  -23.3819  -23.9557   23.3297 C   0  0  0  0  0  0  0  0  0  0  0  0
  -21.7274   -6.1813   22.3881 C   0  0  0  0  0  0  0  0  0  0  0  0
  -22.1863   -4.4234   24.5051 C   0  0  0  0  0  0  0  0  0  0  0  0
  -22.0972   -4.8612   22.1308 C   0  0  0  0  0  0  0  0  0  0  0  0
  -24.6800  -11.6452   21.0412 C   0  0  0  0  0  0  0  0  0  0  0  0
  -24.7118  -21.0875   19.3984 C   0  0  0  0  0  0  0  0  0  0  0  0
  -25.8915  -19.7235   20.8218 C   0  0  0  0  0  0  0  0  0  0  0  0
  -25.9592  -13.2938   20.3481 C   0  0  0  0  0  0  0  0  0  0  0  0
  -25.3000  -11.6923   18.5455 C   0  0  0  0  0  0  0  0  0  0  0  0
  -24.2867  -29.2396   24.1813 C   0  0  0  0  0  0  0  0  0  0  0  0
  -26.8840  -29.0001   22.2529 C   0  0  0  0  0  0  0  0  0  0  0  0
  -28.8373  -27.0420   20.2535 C   0  0  0  0  0  0  0  0  0  0  0  0
  -24.9193  -16.8733   24.9264 C   0  0  0  0  0  0  0  0  0  0  0  0
  -23.4540  -33.8175   26.2805 C   0  0  0  0  0  0  0  0  0  0  0  0
  -25.4650  -27.2420   25.1699 C   0  0  0  0  0  0  0  0  0  0  0  0
  -25.2745  -27.0574   22.2246 C   0  0  0  0  0  0  0  0  0  0  0  0
  -24.0339  -33.3099   24.9629 C   0  0  0  0  0  0  0  0  0  0  0  0
  -28.0098  -15.1066   24.2744 C   0  0  0  0  0  0  0  0  0  0  0  0
  -23.1103  -32.2683   24.3392 C   0  0  0  0  0  0  0  0  0  0  0  0
  -27.5537  -14.0626   23.2535 C   0  0  0  0  0  0  0  0  0  0  0  0
  -26.9409  -15.3445   25.3370 C   0  0  0  0  0  0  0  0  0  0  0  0
  -25.1509  -14.6914   23.7739 C   0  0  0  0  0  0  0  0  0  0  0  0
  -22.9570  -31.0479   25.2550 C   0  0  1  0  0  0  0  0  0  0  0  0
  -25.5767  -28.4754   24.2790 C   0  0  1  0  0  0  0  0  0  0  0  0
  -26.1789  -14.4226   22.6599 C   0  0  2  0  0  0  0  0  0  0  0  0
  -24.6501  -21.8187   18.0991 C   0  0  0  0  0  0  0  0  0  0  0  0
  -30.8684  -27.1365   18.7827 C   0  0  0  0  0  0  0  0  0  0  0  0
  -28.8891  -20.7834   20.8893 C   0  0  0  0  0  0  0  0  0  0  0  0
  -29.4484  -18.7173   22.1162 C   0  0  0  0  0  0  0  0  0  0  0  0
  -25.2462  -30.3873   20.0843 C   0  0  0  0  0  0  0  0  0  0  0  0
  -26.9360  -29.6100   18.4084 C   0  0  0  0  0  0  0  0  0  0  0  0
  -27.6221  -31.1510   20.2462 C   0  0  0  0  0  0  0  0  0  0  0  0
  -24.7935  -21.1777   27.4311 C   0  0  0  0  0  0  0  0  0  0  0  0
  -25.6878  -19.1290   28.5251 C   0  0  0  0  0  0  0  0  0  0  0  0
  -30.2797  -25.0681   21.9214 C   0  0  0  0  0  0  0  0  0  0  0  0
  -22.5917  -20.5188   22.4648 C   0  0  0  0  0  0  0  0  0  0  0  0
  -27.1332  -18.9428   21.0967 C   0  0  0  0  0  0  0  0  0  0  0  0
  -27.0539  -20.2140   26.7237 C   0  0  0  0  0  0  0  0  0  0  0  0
  -24.8240  -19.0278   26.1536 C   0  0  0  0  0  0  0  0  0  0  0  0
  -22.7308  -21.6716   23.4531 C   0  0  0  0  0  0  0  0  0  1  0  0
  -27.1034  -28.7355   20.7829 C   0  0  1  0  0  0  0  0  0  0  0  0
  -30.3427  -26.8603   20.1828 C   0  0  2  0  0  0  0  0  0  0  0  0
  -28.2900  -19.7137   21.8341 C   0  0  0  0  0  0  0  0  0  0  0  0
  -26.7134  -29.9523   19.8971 C   0  0  0  0  0  0  0  0  0  0  0  0
  -25.5998  -19.8869   27.1804 C   0  0  0  0  0  0  0  0  0  0  0  0
  -24.9132  -12.3713   22.1377 N   0  0  0  0  0  0  0  0  0  0  0  0
  -25.8396  -20.3832   19.6429 N   0  0  0  0  0  0  0  0  0  0  0  0
  -27.2518  -20.5157   25.3245 N   0  0  0  0  0  0  0  0  0  0  0  0
  -25.6940  -13.3666   21.6839 N   0  0  0  0  0  0  0  0  0  0  0  0
  -25.9845  -28.1494   22.9109 N   0  0  0  0  0  0  0  0  0  0  0  0
  -25.6619  -15.7013   24.7068 N   0  0  0  0  0  0  0  0  0  0  0  0
  -26.7281  -14.2146   19.7289 N   0  0  0  0  0  0  0  0  0  0  0  0
  -24.5791  -10.5261   18.2548 N   0  0  0  0  0  0  0  0  0  0  0  0
  -24.1247  -30.1978   25.1637 N   0  0  0  0  0  0  0  0  0  0  0  0
  -28.4948  -28.3185   20.6464 N   0  0  0  0  0  0  0  0  0  0  0  0
  -25.4691  -17.7750   25.8294 N   0  0  0  0  0  0  0  0  0  0  0  0
  -30.7144  -25.4667   20.5579 N   0  3  0  0  0  0  0  0  0  0  0  0
  -25.9284  -12.2707   17.6268 O   0  0  0  0  0  0  0  0  0  0  0  0
  -23.4975  -28.9802   23.2804 O   0  0  0  0  0  0  0  0  0  0  0  0
  -27.4939  -29.9229   22.7988 O   0  0  0  0  0  0  0  0  0  0  0  0
  -28.0444  -26.1426   19.9833 O   0  0  0  0  0  0  0  0  0  0  0  0
  -23.8474  -17.1021   24.3556 O   0  0  0  0  0  0  0  0  0  0  0  0
  -21.5000   -7.0553   21.3383 O   0  0  0  0  0  0  0  0  0  0  0  0
  -22.7274  -22.9131   22.7495 O   0  0  0  0  0  0  0  0  0  1  0  0
  -22.4081   -3.5799   25.5217 F   0  0  0  0  0  0  0  0  0  0  0  0
  -22.2348   -4.4319   20.8688 F   0  0  0  0  0  0  0  0  0  0  0  0
  1  2  1  0  0  0  0
  1  5  2  0  0  0  0
  2  6  2  0  0  0  0
  3  8  2  0  0  0  0
  3 20  1  0  0  0  0
  4  9  1  0  0  0  0
  4 20  2  0  0  0  0
  5 22  1  0  0  0  0
  6 24  1  0  0  0  0
  7 10  2  0  0  0  0
  7 23  1  0  0  0  0
  8 28  1  0  0  0  0
  9 28  2  0  0  0  0
 10 29  1  0  0  0  0
 11 12  2  0  0  0  0
 11 30  1  0  0  0  0
 12 31  1  0  0  0  0
 13 18  2  0  0  0  0
 13 26  1  0  0  0  0
 14 25  1  0  0  0  0
 14 29  2  0  0  0  0
 15 27  1  0  0  0  0
 15 34  2  0  0  0  0
 16 27  2  0  0  0  0
 16 35  1  0  0  0  0
 17 31  2  0  0  0  0
 17 32  1  0  0  0  0
 18 76  1  0  0  0  0
 19 26  2  0  0  0  0
 19 76  1  0  0  0  0
 20 33  1  0  0  0  0
 21 33  1  0  0  0  0
 21 36  2  0  0  0  0
 21 37  1  0  0  0  0
 22 24  2  0  0  0  0
 22 42  1  0  0  0  0
 23 25  2  0  0  0  0
 23 43  1  0  0  0  0
 24 51  1  0  0  0  0
 25 44  1  0  0  0  0
 26 71  1  0  0  0  0
 27 64  1  0  0  0  0
 28 91  1  0  0  0  0
 29 92  1  0  0  0  0
 30 32  2  0  0  0  0
 30 91  1  0  0  0  0
 31 93  1  0  0  0  0
 32 94  1  0  0  0  0
 33 74  2  0  0  0  0
 34 54  1  0  0  0  0
 34 75  1  0  0  0  0
 35 65  1  0  0  0  0
 35 75  2  0  0  0  0
 36 77  1  0  0  0  0
 36 80  1  0  0  0  0
 37 81  1  0  0  0  0
 37 86  2  0  0  0  0
 38 52  1  0  0  0  0
 38 82  1  0  0  0  0
 38 87  2  0  0  0  0
 39 69  1  0  0  0  0
 39 78  1  0  0  0  0
 39 88  2  0  0  0  0
 40 70  1  0  0  0  0
 40 83  1  0  0  0  0
 40 89  2  0  0  0  0
 41 79  1  0  0  0  0
 41 84  1  0  0  0  0
 41 90  2  0  0  0  0
 42 45  1  0  0  0  0
 43 52  1  0  0  0  0
 44 78  1  0  0  0  0
 45 47  1  0  0  0  0
 46 48  1  0  0  0  0
 46 49  1  0  0  0  0
 47 51  1  0  0  0  0
 48 53  1  0  0  0  0
 49 79  1  0  0  0  0
 50 53  1  0  0  0  0
 50 79  1  0  0  0  0
 51 82  1  0  0  0  0
 52 78  1  0  0  0  0
 53 77  1  0  0  0  0
 55 70  1  0  0  0  0
 56 71  1  0  0  0  0
 57 71  1  0  0  0  0
 58 72  1  0  0  0  0
 59 72  1  0  0  0  0
 60 72  1  0  0  0  0
 61 73  1  0  0  0  0
 62 73  1  0  0  0  0
 63 85  1  0  0  0  0
 64 68  1  0  0  0  0
 65 71  1  0  0  0  0
 66 73  1  0  0  0  0
 66 76  1  0  0  0  0
 67 73  1  0  0  0  0
 67 84  1  0  0  0  0
 68 92  1  0  0  0  0
 69 72  1  0  0  0  0
 69 83  1  0  0  0  0
 70 85  1  0  0  0  0
 74 77  1  0  0  0  0
M  CHG  1  85   1
M  ISO  4  41 100  68 101  84 100  92 101
M  END
> <Batch ID>
0086

> <Smiles>
CNC(C)C(=O)NC(C(=O)N1Cc2cc([101O:1][101CH2:1]Cc3cc(C)nc(CC(C)(C)c4ccn(CC(C)(C)C[100NH:0][100C:0](=O)N5CCCC(n6nc(-c7ccc(Oc8ccc(F)cc8F)cc7)c(C(N)=O)c6N)C5)c4)c3)ccc2CC1C(=O)NC1CCCc2ccccc21)C(C)(C)C

> <Shape>
0.190

> <Color>
0.102

> <Negative vol penalty>
0.000

$$$$

  -OEChem-04052318593D

 87 95  0     1  0  0  0  0  0999 V2000
  -19.5440  -18.4339   11.2287 C   0  0  0  0  0  0  0  0  0  0  0  0
  -20.3601  -17.9478   12.2452 C   0  0  0  0  0  0  0  0  0  0  0  0
  -27.7848  -26.2036   18.3732 C   0  0  0  0  0  0  0  0  0  0  0  0
  -29.4985  -25.8824   20.0456 C   0  0  0  0  0  0  0  0  0  0  0  0
  -19.3703  -19.8085   11.0731 C   0  0  0  0  0  0  0  0  0  0  0  0
  -21.0039  -18.8362   13.1059 C   0  0  0  0  0  0  0  0  0  0  0  0
  -20.6805  -17.4197   17.9571 C   0  0  0  0  0  0  0  0  0  0  0  0
  -27.4360  -27.4181   18.9638 C   0  0  0  0  0  0  0  0  0  0  0  0
  -29.1498  -27.0970   20.6362 C   0  0  0  0  0  0  0  0  0  0  0  0
  -21.5335  -16.4018   18.3814 C   0  0  0  0  0  0  0  0  0  0  0  0
  -25.6530  -28.4662   21.6371 C   0  0  0  0  0  0  0  0  0  0  0  0
  -24.2957  -28.7319   21.8179 C   0  0  0  0  0  0  0  0  0  0  0  0
  -23.0095  -18.0485   19.3452 C   0  0  0  0  0  0  0  0  0  0  0  0
  -25.4071  -13.3055   19.1202 C   0  0  0  0  0  0  0  0  0  0  0  0
  -24.4950  -30.6966   20.4261 C   0  0  0  0  0  0  0  0  0  0  0  0
  -28.8161  -25.4357   18.9141 C   0  0  0  0  0  0  0  0  0  0  0  0
  -30.1286  -23.9712   17.2893 C   0  0  0  0  0  0  0  0  0  0  0  0
  -20.0046  -20.7139   11.9383 C   0  0  0  0  0  0  0  0  0  0  0  0
  -20.9916  -18.7626   18.2146 C   0  0  0  0  0  0  0  0  0  0  0  0
  -20.8396  -20.2242   12.9608 C   0  0  0  0  0  0  0  0  0  0  0  0
  -22.1575  -19.0815   18.9253 C   0  0  0  0  0  0  0  0  0  0  0  0
  -24.1784  -13.4431   19.7417 C   0  0  0  0  0  0  0  0  0  0  0  0
  -28.1185  -27.8649   20.0953 C   0  0  0  0  0  0  0  0  0  0  0  0
  -22.6996  -16.7162   19.0730 C   0  0  0  0  0  0  0  0  0  0  0  0
  -26.4314  -29.3157   20.8509 C   0  0  0  0  0  0  0  0  0  0  0  0
  -23.7167  -29.8471   21.2124 C   0  0  0  0  0  0  0  0  0  0  0  0
  -25.8524  -30.4309   20.2453 C   0  0  0  0  0  0  0  0  0  0  0  0
  -29.1764  -24.1807   18.3048 C   0  0  0  0  0  0  0  0  0  0  0  0
  -26.3165  -12.4272   19.6741 C   0  0  0  0  0  0  0  0  0  0  0  0
  -23.9404  -12.6931   20.8759 C   0  0  0  0  0  0  0  0  0  0  0  0
  -30.0968  -22.6168   17.0629 C   0  0  0  0  0  0  0  0  0  0  0  0
  -30.9668  -24.9163   16.6112 C   0  0  0  0  0  0  0  0  0  0  0  0
  -21.5818  -21.3137   16.4126 C   0  0  0  0  0  0  0  0  0  0  0  0
  -21.5872  -22.8476   19.2708 C   0  0  0  0  0  0  0  0  0  0  0  0
  -21.9980  -22.6688   22.6540 C   0  0  0  0  0  0  0  0  0  0  0  0
  -29.5515  -17.7421   19.9529 C   0  0  0  0  0  0  0  0  0  0  0  0
  -19.8242  -22.1924   11.7013 C   0  0  0  0  0  0  0  0  0  0  0  0
  -20.0477  -19.8474   17.7735 C   0  0  0  0  0  0  0  0  0  0  0  0
  -22.5268  -20.5062   19.2448 C   0  0  0  0  0  0  0  0  0  0  0  0
  -20.2438  -23.0552   12.8886 C   0  0  0  0  0  0  0  0  0  0  0  0
  -26.8264  -19.0125   17.9387 C   0  0  0  0  0  0  0  0  0  0  0  0
  -21.5978  -22.6022   13.4257 C   0  0  0  0  0  0  0  0  0  0  0  0
  -27.2550  -20.4660   17.7291 C   0  0  0  0  0  0  0  0  0  0  0  0
  -27.1849  -18.5271   19.3401 C   0  0  0  0  0  0  0  0  0  0  0  0
  -29.0558  -20.1248   19.4842 C   0  0  0  0  0  0  0  0  0  0  0  0
  -21.5351  -21.1554   13.9299 C   0  0  1  0  0  0  0  0  0  0  0  0
  -20.7225  -21.2091   17.6407 C   0  0  1  0  0  0  0  0  0  0  0  0
  -28.7414  -20.6678   18.0784 C   0  0  2  0  0  0  0  0  0  0  0  0
  -22.6398  -12.7897   21.5994 C   0  0  0  0  0  0  0  0  0  0  0  0
  -27.5704  -11.5561   17.6548 C   0  0  0  0  0  0  0  0  0  0  0  0
  -21.9778  -24.0947   24.7189 C   0  0  0  0  0  0  0  0  0  0  0  0
  -29.5341  -13.6221   17.8974 C   0  0  0  0  0  0  0  0  0  0  0  0
  -24.3316  -23.9561   18.5293 C   0  0  0  0  0  0  0  0  0  0  0  0
  -24.6617  -24.5583   20.9369 C   0  0  0  0  0  0  0  0  0  0  0  0
  -22.8063  -25.6006   19.6354 C   0  0  0  0  0  0  0  0  0  0  0  0
  -28.0690  -14.0780   21.5559 C   0  0  0  0  0  0  0  0  0  0  0  0
  -30.1551  -12.8837   20.9076 C   0  0  0  0  0  0  0  0  0  0  0  0
  -19.7609  -21.1319   23.8339 C   0  0  0  0  0  0  0  0  0  0  0  0
  -23.1535  -14.3842   19.1802 C   0  0  0  0  0  0  0  0  0  1  0  0
  -29.8952  -15.3251   20.3966 C   0  0  0  0  0  0  0  0  0  0  0  0
  -27.6543  -12.2426   19.0436 C   0  0  1  0  0  0  0  0  0  0  0  0
  -22.6345  -23.1699   20.3092 C   0  0  1  0  0  0  0  0  0  0  0  0
  -21.1578  -23.2022   23.8003 C   0  0  2  0  0  0  0  0  0  0  0  0
  -28.5092  -13.5795   19.0479 C   0  0  1  0  0  0  0  0  0  0  0  0
  -23.6028  -24.2944   19.8452 C   0  0  0  0  0  0  0  0  0  0  0  0
  -29.1419  -13.9636   20.4526 C   0  0  0  0  0  0  0  0  0  0  0  0
  -28.5830  -23.0500   18.6965 N   0  0  0  0  0  0  0  0  0  0  0  0
  -26.0567  -11.7058   20.7851 N   0  0  0  0  0  0  0  0  0  0  0  0
  -24.8489  -11.8408   21.3957 N   0  0  0  0  0  0  0  0  0  0  0  0
  -29.1636  -22.1170   17.9230 N   0  0  0  0  0  0  0  0  0  0  0  0
  -21.5748  -21.5317   18.7869 N   0  0  0  0  0  0  0  0  0  0  0  0
  -28.6167  -18.7304   19.6025 N   0  0  0  0  0  0  0  0  0  0  0  0
  -30.7762  -21.8167   16.2141 N   0  0  0  0  0  0  0  0  0  0  0  0
  -30.8724  -26.2687   16.9666 N   0  0  0  0  0  0  0  0  0  0  0  0
  -20.9006  -21.1001   15.2295 N   0  0  0  0  0  0  0  0  0  0  0  0
  -21.9104  -23.4745   21.5385 N   0  0  0  0  0  0  0  0  0  0  0  0
  -29.0533  -16.4487   20.0507 N   0  0  0  0  0  0  0  0  0  0  0  0
  -20.6078  -22.0763   24.6071 N   0  3  0  0  0  0  0  0  0  0  0  0
  -31.7639  -24.5739   15.7051 O   0  0  0  0  0  0  0  0  0  0  0  0
  -22.7743  -21.5707   16.5296 O   0  0  0  0  0  0  0  0  0  0  0  0
  -20.8042  -23.7290   18.9078 O   0  0  0  0  0  0  0  0  0  0  0  0
  -22.6682  -21.6423   22.7408 O   0  0  0  0  0  0  0  0  0  0  0  0
  -30.7440  -17.9930   20.1584 O   0  0  0  0  0  0  0  0  0  0  0  0
  -27.7786  -29.0501   20.6717 O   0  0  0  0  0  0  0  0  0  0  0  0
  -23.5342  -15.7246   19.4877 O   0  0  0  0  0  0  0  0  0  1  0  0
  -22.4129  -30.1013   21.3848 F   0  0  0  0  0  0  0  0  0  0  0  0
  -26.5947  -31.2500   19.4879 F   0  0  0  0  0  0  0  0  0  0  0  0
  1  2  1  0  0  0  0
  1  5  2  0  0  0  0
  2  6  2  0  0  0  0
  3  8  2  0  0  0  0
  3 16  1  0  0  0  0
  4  9  1  0  0  0  0
  4 16  2  0  0  0  0
  5 18  1  0  0  0  0
  6 20  1  0  0  0  0
  7 10  2  0  0  0  0
  7 19  1  0  0  0  0
  8 23  1  0  0  0  0
  9 23  2  0  0  0  0
 10 24  1  0  0  0  0
 11 12  2  0  0  0  0
 11 25  1  0  0  0  0
 12 26  1  0  0  0  0
 13 21  1  0  0  0  0
 13 24  2  0  0  0  0
 14 22  1  0  0  0  0
 14 29  2  0  0  0  0
 15 26  2  0  0  0  0
 15 27  1  0  0  0  0
 16 28  1  0  0  0  0
 17 28  1  0  0  0  0
 17 31  2  0  0  0  0
 17 32  1  0  0  0  0
 18 20  2  0  0  0  0
 18 37  1  0  0  0  0
 19 21  2  0  0  0  0
 19 38  1  0  0  0  0
 20 46  1  0  0  0  0
 21 39  1  0  0  0  0
 22 30  2  0  0  0  0
 22 59  1  0  0  0  0
 23 84  1  0  0  0  0
 24 85  1  0  0  0  0
 25 27  2  0  0  0  0
 25 84  1  0  0  0  0
 26 86  1  0  0  0  0
 27 87  1  0  0  0  0
 28 67  2  0  0  0  0
 29 61  1  0  0  0  0
 29 68  1  0  0  0  0
 30 49  1  0  0  0  0
 30 69  1  0  0  0  0
 31 70  1  0  0  0  0
 31 73  1  0  0  0  0
 32 74  1  0  0  0  0
 32 79  2  0  0  0  0
 33 47  1  0  0  0  0
 33 75  1  0  0  0  0
 33 80  2  0  0  0  0
 34 62  1  0  0  0  0
 34 71  1  0  0  0  0
 34 81  2  0  0  0  0
 35 63  1  0  0  0  0
 35 76  1  0  0  0  0
 35 82  2  0  0  0  0
 36 72  1  0  0  0  0
 36 77  1  0  0  0  0
 36 83  2  0  0  0  0
 37 40  1  0  0  0  0
 38 47  1  0  0  0  0
 39 71  1  0  0  0  0
 40 42  1  0  0  0  0
 41 43  1  0  0  0  0
 41 44  1  0  0  0  0
 42 46  1  0  0  0  0
 43 48  1  0  0  0  0
 44 72  1  0  0  0  0
 45 48  1  0  0  0  0
 45 72  1  0  0  0  0
 46 75  1  0  0  0  0
 47 71  1  0  0  0  0
 48 70  1  0  0  0  0
 50 61  1  0  0  0  0
 51 63  1  0  0  0  0
 52 64  1  0  0  0  0
 53 65  1  0  0  0  0
 54 65  1  0  0  0  0
 55 65  1  0  0  0  0
 56 66  1  0  0  0  0
 57 66  1  0  0  0  0
 58 78  1  0  0  0  0
 59 85  1  0  0  0  0
 60 66  1  0  0  0  0
 60 77  1  0  0  0  0
 61 64  1  0  0  0  0
 62 65  1  0  0  0  0
 62 76  1  0  0  0  0
 63 78  1  0  0  0  0
 64 66  1  0  0  0  0
 67 70  1  0  0  0  0
 68 69  2  0  0  0  0
M  CHG  1  78   1
M  ISO  4  36 100  59 101  77 100  85 101
M  END
> <Batch ID>
0086

> <Smiles>
CNC(C)C(=O)NC(C(=O)N1Cc2cc([101O:1][101CH2:1]c3cc(C(C)C(C)C(C)(C)C[100NH:0][100C:0](=O)N4CCCC(n5nc(-c6ccc(Oc7ccc(F)cc7F)cc6)c(C(N)=O)c5N)C4)nnc3C)ccc2CC1C(=O)NC1CCCc2ccccc21)C(C)(C)C

> <Shape>
0.208

> <Color>
0.077

> <Negative vol penalty>
0.000

$$$$

  -OEChem-04052318593D

 82 90  0     1  0  0  0  0  0999 V2000
  -18.6586  -26.2421   22.2212 C   0  0  0  0  0  0  0  0  0  0  0  0
  -18.3163  -24.9462   21.8485 C   0  0  0  0  0  0  0  0  0  0  0  0
  -27.5656  -26.2997   18.7788 C   0  0  0  0  0  0  0  0  0  0  0  0
  -29.0838  -26.0068   20.6352 C   0  0  0  0  0  0  0  0  0  0  0  0
  -19.9998  -26.5912   22.3731 C   0  0  0  0  0  0  0  0  0  0  0  0
  -19.3152  -23.9989   21.6264 C   0  0  0  0  0  0  0  0  0  0  0  0
  -20.5963  -16.9804   22.2711 C   0  0  0  0  0  0  0  0  0  0  0  0
  -27.2477  -27.5770   19.2403 C   0  0  0  0  0  0  0  0  0  0  0  0
  -28.7659  -27.2841   21.0967 C   0  0  0  0  0  0  0  0  0  0  0  0
  -21.0455  -15.8942   21.5213 C   0  0  0  0  0  0  0  0  0  0  0  0
  -25.2938  -28.9449   21.6352 C   0  0  0  0  0  0  0  0  0  0  0  0
  -23.9474  -29.3085   21.6576 C   0  0  0  0  0  0  0  0  0  0  0  0
  -23.3256  -16.5896   21.8910 C   0  0  0  0  0  0  0  0  0  0  0  0
  -27.3981  -13.4939   20.6430 C   0  0  0  0  0  0  0  0  0  0  0  0
  -24.4169  -31.1394   20.1527 C   0  0  0  0  0  0  0  0  0  0  0  0
  -26.9936  -11.8829   18.9550 C   0  0  0  0  0  0  0  0  0  0  0  0
  -28.4836  -25.5146   19.4762 C   0  0  0  0  0  0  0  0  0  0  0  0
  -29.8404  -23.8456   18.1045 C   0  0  0  0  0  0  0  0  0  0  0  0
  -21.0153  -25.6452   22.1622 C   0  0  0  0  0  0  0  0  0  0  0  0
  -21.5096  -17.8870   22.8282 C   0  0  0  0  0  0  0  0  0  0  0  0
  -20.6714  -24.3361   21.7743 C   0  0  0  0  0  0  0  0  0  0  0  0
  -22.8856  -17.6850   22.6496 C   0  0  0  0  0  0  0  0  0  0  0  0
  -26.6369  -12.4414   20.1659 C   0  0  0  0  0  0  0  0  0  0  0  0
  -27.8478  -28.0692   20.3992 C   0  0  0  0  0  0  0  0  0  0  0  0
  -22.4102  -15.7003   21.3287 C   0  0  0  0  0  0  0  0  0  0  0  0
  -26.2018  -29.6785   20.8716 C   0  0  0  0  0  0  0  0  0  0  0  0
  -23.5089  -30.4058   20.9163 C   0  0  0  0  0  0  0  0  0  0  0  0
  -25.7633  -30.7757   20.1303 C   0  0  0  0  0  0  0  0  0  0  0  0
  -28.8120  -24.1948   19.0003 C   0  0  0  0  0  0  0  0  0  0  0  0
  -28.4659  -13.9181   19.8778 C   0  0  0  0  0  0  0  0  0  0  0  0
  -29.7356  -22.4822   17.9761 C   0  0  0  0  0  0  0  0  0  0  0  0
  -30.8042  -24.6792   17.4473 C   0  0  0  0  0  0  0  0  0  0  0  0
  -22.0811  -20.9945   22.4807 C   0  0  0  0  0  0  0  0  0  0  0  0
  -24.1598  -20.4877   24.9188 C   0  0  0  0  0  0  0  0  0  0  0  0
  -26.1161  -18.2908   26.6489 C   0  0  0  0  0  0  0  0  0  0  0  0
  -29.1828  -17.5217   20.2200 C   0  0  0  0  0  0  0  0  0  0  0  0
  -22.4529  -26.0821   22.2926 C   0  0  0  0  0  0  0  0  0  0  0  0
  -21.0100  -19.0386   23.6569 C   0  0  0  0  0  0  0  0  0  0  0  0
  -23.9078  -18.6181   23.2437 C   0  0  0  0  0  0  0  0  0  0  0  0
  -23.4354  -24.9190   22.4032 C   0  0  0  0  0  0  0  0  0  0  0  0
  -26.1127  -19.2981   19.5017 C   0  0  0  0  0  0  0  0  0  0  0  0
  -23.1286  -23.8591   21.3499 C   0  0  0  0  0  0  0  0  0  0  0  0
  -26.6345  -20.7105   19.2319 C   0  0  0  0  0  0  0  0  0  0  0  0
  -26.8985  -18.6230   20.6219 C   0  0  0  0  0  0  0  0  0  0  0  0
  -28.8943  -19.9815   20.1272 C   0  0  0  0  0  0  0  0  0  0  0  0
  -21.7252  -23.2738   21.5486 C   0  0  1  0  0  0  0  0  0  0  0  0
  -22.0092  -20.1880   23.7464 C   0  0  1  0  0  0  0  0  0  0  0  0
  -28.1555  -20.7091   18.9893 C   0  0  2  0  0  0  0  0  0  0  0  0
  -30.0015  -14.7615   21.6922 C   0  0  0  0  0  0  0  0  0  0  0  0
  -27.7288  -18.1783   28.5683 C   0  0  0  0  0  0  0  0  0  0  0  0
  -26.3189  -21.7570   23.1760 C   0  0  0  0  0  0  0  0  0  0  0  0
  -28.0365  -20.7735   24.7093 C   0  0  0  0  0  0  0  0  0  0  0  0
  -26.3907  -22.4320   25.5830 C   0  0  0  0  0  0  0  0  0  0  0  0
  -24.3905  -16.4040   28.1392 C   0  0  0  0  0  0  0  0  0  0  0  0
  -25.4548  -11.9210   20.9439 C   0  0  0  0  0  0  0  0  0  0  0  0
  -24.1356  -12.6147   20.5973 C   0  0  0  0  0  0  0  0  0  0  0  0
  -24.1259  -14.0998   20.9407 C   0  0  0  0  0  0  0  0  0  1  0  0
  -29.3178  -15.0473   20.3467 C   0  0  2  0  0  0  0  0  0  0  0  0
  -25.6134  -20.0931   25.0199 C   0  0  1  0  0  0  0  0  0  0  0  0
  -26.2767  -18.0414   28.1376 C   0  0  2  0  0  0  0  0  0  0  0  0
  -26.5708  -21.2472   24.6091 C   0  0  0  0  0  0  0  0  0  0  0  0
  -28.0439  -12.3183   18.2272 N   0  0  0  0  0  0  0  0  0  0  0  0
  -28.1058  -23.1384   19.4118 N   0  0  0  0  0  0  0  0  0  0  0  0
  -28.7922  -13.3525   18.6964 N   0  0  0  0  0  0  0  0  0  0  0  0
  -28.6913  -22.1120   18.7716 N   0  0  0  0  0  0  0  0  0  0  0  0
  -23.3695  -19.7328   24.0406 N   0  0  0  0  0  0  0  0  0  0  0  0
  -28.3369  -18.6387   20.3207 N   0  0  0  0  0  0  0  0  0  0  0  0
  -30.4357  -21.5758   17.2615 N   0  0  0  0  0  0  0  0  0  0  0  0
  -30.7710  -26.0590   17.6912 N   0  0  0  0  0  0  0  0  0  0  0  0
  -21.7248  -22.3204   22.6373 N   0  0  0  0  0  0  0  0  0  0  0  0
  -25.8111  -19.6087   26.3818 N   0  0  0  0  0  0  0  0  0  0  0  0
  -28.5781  -16.2874   20.4237 N   0  0  0  0  0  0  0  0  0  0  0  0
  -25.8104  -16.6696   28.4863 N   0  3  0  0  0  0  0  0  0  0  0  0
  -31.6587  -24.2163   16.6542 O   0  0  0  0  0  0  0  0  0  0  0  0
  -22.4351  -20.4542   21.4393 O   0  0  0  0  0  0  0  0  0  0  0  0
  -23.7393  -21.4266   25.5996 O   0  0  0  0  0  0  0  0  0  0  0  0
  -26.2517  -17.4059   25.8068 O   0  0  0  0  0  0  0  0  0  0  0  0
  -30.3876  -17.6168   19.9621 O   0  0  0  0  0  0  0  0  0  0  0  0
  -27.5380  -29.3157   20.8498 O   0  0  0  0  0  0  0  0  0  0  0  0
  -22.8512  -14.6412   20.5967 O   0  0  0  0  0  0  0  0  0  1  0  0
  -22.2156  -30.7540   20.9367 F   0  0  0  0  0  0  0  0  0  0  0  0
  -26.6307  -31.4836   19.3939 F   0  0  0  0  0  0  0  0  0  0  0  0
  1  2  1  0  0  0  0
  1  5  2  0  0  0  0
  2  6  2  0  0  0  0
  3  8  2  0  0  0  0
  3 17  1  0  0  0  0
  4  9  1  0  0  0  0
  4 17  2  0  0  0  0
  5 19  1  0  0  0  0
  6 21  1  0  0  0  0
  7 10  2  0  0  0  0
  7 20  1  0  0  0  0
  8 24  1  0  0  0  0
  9 24  2  0  0  0  0
 10 25  1  0  0  0  0
 11 12  2  0  0  0  0
 11 26  1  0  0  0  0
 12 27  1  0  0  0  0
 13 22  1  0  0  0  0
 13 25  2  0  0  0  0
 14 23  2  0  0  0  0
 14 30  1  0  0  0  0
 15 27  2  0  0  0  0
 15 28  1  0  0  0  0
 16 23  1  0  0  0  0
 16 62  2  0  0  0  0
 17 29  1  0  0  0  0
 18 29  1  0  0  0  0
 18 31  2  0  0  0  0
 18 32  1  0  0  0  0
 19 21  2  0  0  0  0
 19 37  1  0  0  0  0
 20 22  2  0  0  0  0
 20 38  1  0  0  0  0
 21 46  1  0  0  0  0
 22 39  1  0  0  0  0
 23 55  1  0  0  0  0
 24 79  1  0  0  0  0
 25 80  1  0  0  0  0
 26 28  2  0  0  0  0
 26 79  1  0  0  0  0
 27 81  1  0  0  0  0
 28 82  1  0  0  0  0
 29 63  2  0  0  0  0
 30 58  1  0  0  0  0
 30 64  2  0  0  0  0
 31 65  1  0  0  0  0
 31 68  1  0  0  0  0
 32 69  1  0  0  0  0
 32 74  2  0  0  0  0
 33 47  1  0  0  0  0
 33 70  1  0  0  0  0
 33 75  2  0  0  0  0
 34 59  1  0  0  0  0
 34 66  1  0  0  0  0
 34 76  2  0  0  0  0
 35 60  1  0  0  0  0
 35 71  1  0  0  0  0
 35 77  2  0  0  0  0
 36 67  1  0  0  0  0
 36 72  1  0  0  0  0
 36 78  2  0  0  0  0
 37 40  1  0  0  0  0
 38 47  1  0  0  0  0
 39 66  1  0  0  0  0
 40 42  1  0  0  0  0
 41 43  1  0  0  0  0
 41 44  1  0  0  0  0
 42 46  1  0  0  0  0
 43 48  1  0  0  0  0
 44 67  1  0  0  0  0
 45 48  1  0  0  0  0
 45 67  1  0  0  0  0
 46 70  1  0  0  0  0
 47 66  1  0  0  0  0
 48 65  1  0  0  0  0
 49 58  1  0  0  0  0
 50 60  1  0  0  0  0
 51 61  1  0  0  0  0
 52 61  1  0  0  0  0
 53 61  1  0  0  0  0
 54 73  1  0  0  0  0
 55 56  1  0  0  0  0
 56 57  1  0  0  0  0
 57 80  1  0  0  0  0
 58 72  1  0  0  0  0
 59 61  1  0  0  0  0
 59 71  1  0  0  0  0
 60 73  1  0  0  0  0
 62 64  1  0  0  0  0
 63 65  1  0  0  0  0
M  CHG  1  73   1
M  ISO  4  36 100  57 101  72 100  80 101
M  END
> <Batch ID>
0086

> <Smiles>
CNC(C)C(=O)NC(C(=O)N1Cc2cc([101O:1][101CH2:1]CCc3cnnc(C(C)[100NH:0][100C:0](=O)N4CCCC(n5nc(-c6ccc(Oc7ccc(F)cc7F)cc6)c(C(N)=O)c5N)C4)c3)ccc2CC1C(=O)NC1CCCc2ccccc21)C(C)(C)C

> <Shape>
0.235

> <Color>
0.062

> <Negative vol penalty>
0.000

$$$$

  -OEChem-04052318593D

 89 97  0     1  0  0  0  0  0999 V2000
  -29.6415  -27.9228    7.8960 C   0  0  0  0  0  0  0  0  0  0  0  0
  -28.9218  -26.8729    8.4573 C   0  0  0  0  0  0  0  0  0  0  0  0
  -23.0276   -9.8979   19.9756 C   0  0  0  0  0  0  0  0  0  0  0  0
  -23.7330   -9.9577   22.2855 C   0  0  0  0  0  0  0  0  0  0  0  0
  -30.8912  -28.2640    8.4115 C   0  0  0  0  0  0  0  0  0  0  0  0
  -29.4519  -26.1628    9.5339 C   0  0  0  0  0  0  0  0  0  0  0  0
  -26.3533  -23.7271   14.2213 C   0  0  0  0  0  0  0  0  0  0  0  0
  -22.2655   -8.7594   20.2377 C   0  0  0  0  0  0  0  0  0  0  0  0
  -22.9709   -8.8192   22.5477 C   0  0  0  0  0  0  0  0  0  0  0  0
  -25.9051  -22.4321   14.4776 C   0  0  0  0  0  0  0  0  0  0  0  0
  -23.2388   -5.4809   22.0846 C   0  0  0  0  0  0  0  0  0  0  0  0
  -23.8260   -4.4687   22.8437 C   0  0  0  0  0  0  0  0  0  0  0  0
  -27.8776  -22.0181   15.8031 C   0  0  0  0  0  0  0  0  0  0  0  0
  -31.7260  -17.0594   16.9907 C   0  0  0  0  0  0  0  0  0  0  0  0
  -22.0866   -4.7047   24.5039 C   0  0  0  0  0  0  0  0  0  0  0  0
  -23.7614  -10.4970   20.9995 C   0  0  0  0  0  0  0  0  0  0  0  0
  -24.1334  -13.0145   20.8216 C   0  0  0  0  0  0  0  0  0  0  0  0
  -31.4327  -27.5639    9.5011 C   0  0  0  0  0  0  0  0  0  0  0  0
  -27.5744  -24.1746   14.7459 C   0  0  0  0  0  0  0  0  0  0  0  0
  -30.7106  -26.4940   10.0636 C   0  0  0  0  0  0  0  0  0  0  0  0
  -28.3379  -23.3201   15.5541 C   0  0  0  0  0  0  0  0  0  0  0  0
  -32.6525  -17.6541   17.8400 C   0  0  0  0  0  0  0  0  0  0  0  0
  -32.2845  -17.9838   19.1397 C   0  0  0  0  0  0  0  0  0  0  0  0
  -22.2371   -8.2201   21.5238 C   0  0  0  0  0  0  0  0  0  0  0  0
  -26.6686  -21.5764   15.2662 C   0  0  0  0  0  0  0  0  0  0  0  0
  -22.0756   -6.1051   22.5352 C   0  0  0  0  0  0  0  0  0  0  0  0
  -23.2499   -4.0805   24.0533 C   0  0  0  0  0  0  0  0  0  0  0  0
  -21.4995   -5.7170   23.7448 C   0  0  0  0  0  0  0  0  0  0  0  0
  -24.5492  -11.6727   20.7291 C   0  0  0  0  0  0  0  0  0  0  0  0
  -30.4547  -16.8172   17.4854 C   0  0  0  0  0  0  0  0  0  0  0  0
  -30.9880  -17.7003   19.5382 C   0  0  0  0  0  0  0  0  0  0  0  0
  -25.2419  -13.7429   20.4651 C   0  0  0  0  0  0  0  0  0  0  0  0
  -22.8590  -13.5542   21.1963 C   0  0  0  0  0  0  0  0  0  0  0  0
  -30.3170  -25.1850   13.4965 C   0  0  0  0  0  0  0  0  0  0  0  0
  -31.0477  -25.8107   16.5943 C   0  0  0  0  0  0  0  0  0  0  0  0
  -30.4996  -25.1339   19.8941 C   0  0  0  0  0  0  0  0  0  0  0  0
  -30.7304  -14.7103   20.7580 C   0  0  0  0  0  0  0  0  0  0  0  0
  -32.8081  -27.9386    9.9937 C   0  0  0  0  0  0  0  0  0  0  0  0
  -28.0310  -25.5833   14.4823 C   0  0  0  0  0  0  0  0  0  0  0  0
  -29.6462  -23.7588   16.1578 C   0  0  0  0  0  0  0  0  0  0  0  0
  -33.1337  -27.3782   11.3758 C   0  0  0  0  0  0  0  0  0  0  0  0
  -29.6238  -12.2754   18.4079 C   0  0  0  0  0  0  0  0  0  0  0  0
  -32.7483  -25.9046   11.4587 C   0  0  0  0  0  0  0  0  0  0  0  0
  -28.1734  -12.0079   18.8138 C   0  0  0  0  0  0  0  0  0  0  0  0
  -30.5146  -12.5184   19.6242 C   0  0  0  0  0  0  0  0  0  0  0  0
  -28.5886  -13.3053   20.9453 C   0  0  0  0  0  0  0  0  0  0  0  0
  -31.2412  -25.7158   11.2482 C   0  0  1  0  0  0  0  0  0  0  0  0
  -29.5373  -25.7632   14.6435 C   0  0  1  0  0  0  0  0  0  0  0  0
  -27.6407  -13.1097   19.7496 C   0  0  2  0  0  0  0  0  0  0  0  0
  -33.2578  -18.6204   20.0739 C   0  0  0  0  0  0  0  0  0  0  0  0
  -34.2369  -19.4023   16.9914 C   0  0  0  0  0  0  0  0  0  0  0  0
  -29.0440  -18.4236   20.9600 C   0  0  0  0  0  0  0  0  0  0  0  0
  -31.2746  -25.7780   22.1923 C   0  0  0  0  0  0  0  0  0  0  0  0
  -24.5899  -20.3099   17.2654 C   0  0  0  0  0  0  0  0  0  0  0  0
  -33.5840  -24.1613   16.1987 C   0  0  0  0  0  0  0  0  0  0  0  0
  -33.8118  -24.0424   18.6891 C   0  0  0  0  0  0  0  0  0  0  0  0
  -33.8972  -26.2521   17.5347 C   0  0  0  0  0  0  0  0  0  0  0  0
  -27.8072  -26.0958   20.6587 C   0  0  0  0  0  0  0  0  0  0  0  0
  -34.0295  -17.9297   17.3331 C   0  0  0  0  0  0  0  0  0  0  0  0
  -29.4240  -16.1722   16.5933 C   0  0  0  0  0  0  0  0  0  0  0  0
  -27.9831  -16.5884   16.9103 C   0  0  0  0  0  0  0  0  0  0  0  0
  -27.7304  -18.0846   16.6964 C   0  0  0  0  0  0  0  0  0  0  0  0
  -26.2895  -18.4600   17.0617 C   0  0  0  0  0  0  0  0  0  0  0  0
  -30.7903  -16.8920   21.9394 C   0  0  0  0  0  0  0  0  0  0  0  0
  -30.5345  -18.0298   20.9228 C   0  0  1  0  0  0  0  0  0  0  0  0
  -31.6891  -25.0347   17.7193 C   0  0  1  0  0  0  0  0  0  0  0  0
  -30.2679  -26.0468   21.0846 C   0  0  2  0  0  0  0  0  0  0  0  0
  -26.0211  -19.9571   16.8832 C   0  0  1  0  0  0  0  0  0  1  0  0
  -33.2218  -24.8634   17.5226 C   0  0  0  0  0  0  0  0  0  0  0  0
  -25.8225  -11.5529   20.3439 N   0  0  0  0  0  0  0  0  0  0  0  0
  -30.0604  -17.1234   18.7418 N   0  0  0  0  0  0  0  0  0  0  0  0
  -26.2163  -12.8287   20.1911 N   0  0  0  0  0  0  0  0  0  0  0  0
  -30.0530  -25.1433   15.8658 N   0  0  0  0  0  0  0  0  0  0  0  0
  -29.9544  -13.5756   20.4695 N   0  0  0  0  0  0  0  0  0  0  0  0
  -25.4684  -15.0697   20.3623 N   0  0  0  0  0  0  0  0  0  0  0  0
  -21.8296  -12.6646   21.5330 N   0  0  0  0  0  0  0  0  0  0  0  0
  -30.5152  -26.0657   12.4503 N   0  0  0  0  0  0  0  0  0  0  0  0
  -31.3178  -25.7208   18.9521 N   0  0  0  0  0  0  0  0  0  0  0  0
  -30.1216  -15.6672   21.5609 N   0  0  0  0  0  0  0  0  0  0  0  0
  -28.8980  -25.8427   21.6349 N   0  3  0  0  0  0  0  0  0  0  0  0
  -22.6348  -14.7882   21.2158 O   0  0  0  0  0  0  0  0  0  0  0  0
  -30.7108  -24.0261   13.5569 O   0  0  0  0  0  0  0  0  0  0  0  0
  -31.4109  -26.9690   16.3749 O   0  0  0  0  0  0  0  0  0  0  0  0
  -30.0073  -24.0109   19.8100 O   0  0  0  0  0  0  0  0  0  0  0  0
  -31.8786  -14.8621   20.3273 O   0  0  0  0  0  0  0  0  0  0  0  0
  -21.4934   -7.1094   21.7800 O   0  0  0  0  0  0  0  0  0  0  0  0
  -26.2338  -20.3116   15.5174 O   0  0  0  0  0  0  0  0  0  1  0  0
  -23.8129   -3.1074   24.7814 F   0  0  0  0  0  0  0  0  0  0  0  0
  -20.3813   -6.3122   24.1822 F   0  0  0  0  0  0  0  0  0  0  0  0
  1  2  1  0  0  0  0
  1  5  2  0  0  0  0
  2  6  2  0  0  0  0
  3  8  2  0  0  0  0
  3 16  1  0  0  0  0
  4  9  1  0  0  0  0
  4 16  2  0  0  0  0
  5 18  1  0  0  0  0
  6 20  1  0  0  0  0
  7 10  2  0  0  0  0
  7 19  1  0  0  0  0
  8 24  1  0  0  0  0
  9 24  2  0  0  0  0
 10 25  1  0  0  0  0
 11 12  2  0  0  0  0
 11 26  1  0  0  0  0
 12 27  1  0  0  0  0
 13 21  1  0  0  0  0
 13 25  2  0  0  0  0
 14 22  1  0  0  0  0
 14 30  2  0  0  0  0
 15 27  2  0  0  0  0
 15 28  1  0  0  0  0
 16 29  1  0  0  0  0
 17 29  1  0  0  0  0
 17 32  2  0  0  0  0
 17 33  1  0  0  0  0
 18 20  2  0  0  0  0
 18 38  1  0  0  0  0
 19 21  2  0  0  0  0
 19 39  1  0  0  0  0
 20 47  1  0  0  0  0
 21 40  1  0  0  0  0
 22 23  2  0  0  0  0
 22 59  1  0  0  0  0
 23 31  1  0  0  0  0
 23 50  1  0  0  0  0
 24 86  1  0  0  0  0
 25 87  1  0  0  0  0
 26 28  2  0  0  0  0
 26 86  1  0  0  0  0
 27 88  1  0  0  0  0
 28 89  1  0  0  0  0
 29 70  2  0  0  0  0
 30 60  1  0  0  0  0
 30 71  1  0  0  0  0
 31 65  1  0  0  0  0
 31 71  2  0  0  0  0
 32 72  1  0  0  0  0
 32 75  1  0  0  0  0
 33 76  1  0  0  0  0
 33 81  2  0  0  0  0
 34 48  1  0  0  0  0
 34 77  1  0  0  0  0
 34 82  2  0  0  0  0
 35 66  1  0  0  0  0
 35 73  1  0  0  0  0
 35 83  2  0  0  0  0
 36 67  1  0  0  0  0
 36 78  1  0  0  0  0
 36 84  2  0  0  0  0
 37 74  1  0  0  0  0
 37 79  1  0  0  0  0
 37 85  2  0  0  0  0
 38 41  1  0  0  0  0
 39 48  1  0  0  0  0
 40 73  1  0  0  0  0
 41 43  1  0  0  0  0
 42 44  1  0  0  0  0
 42 45  1  0  0  0  0
 43 47  1  0  0  0  0
 44 49  1  0  0  0  0
 45 74  1  0  0  0  0
 46 49  1  0  0  0  0
 46 74  1  0  0  0  0
 47 77  1  0  0  0  0
 48 73  1  0  0  0  0
 49 72  1  0  0  0  0
 51 59  1  0  0  0  0
 52 65  1  0  0  0  0
 53 67  1  0  0  0  0
 54 68  1  0  0  0  0
 55 69  1  0  0  0  0
 56 69  1  0  0  0  0
 57 69  1  0  0  0  0
 58 80  1  0  0  0  0
 60 61  1  0  0  0  0
 61 62  1  0  0  0  0
 62 63  1  0  0  0  0
 63 68  1  0  0  0  0
 64 65  1  0  0  0  0
 64 79  1  0  0  0  0
 66 69  1  0  0  0  0
 66 78  1  0  0  0  0
 67 80  1  0  0  0  0
 68 87  1  0  0  0  0
 70 72  1  0  0  0  0
M  CHG  1  80   1
M  ISO  4  37 100  68 101  79 100  87 101
M  END
> <Batch ID>
0086

> <Smiles>
CCc1cc(CCCC[101CH:1](C)[101O:1]c2ccc3c(c2)CN(C(=O)C(NC(=O)C(C)NC)C(C)(C)C)C(C(=O)NC2CCCc4ccccc42)C3)nc(C(C)C[100NH:0][100C:0](=O)N2CCCC(n3nc(-c4ccc(Oc5ccc(F)cc5F)cc4)c(C(N)=O)c3N)C2)c1C

> <Shape>
0.228

> <Color>
0.196

> <Negative vol penalty>
0.000

$$$$

  -OEChem-04052318593D

 84 92  0     1  0  0  0  0  0999 V2000
  -31.1236  -16.6913   15.1282 C   0  0  0  0  0  0  0  0  0  0  0  0
  -30.4324  -16.6513   16.3349 C   0  0  0  0  0  0  0  0  0  0  0  0
  -23.0461   -9.8585   19.9730 C   0  0  0  0  0  0  0  0  0  0  0  0
  -23.7685   -9.9291   22.2773 C   0  0  0  0  0  0  0  0  0  0  0  0
  -32.2564  -17.4943   15.0014 C   0  0  0  0  0  0  0  0  0  0  0  0
  -30.8742  -17.4133   17.4158 C   0  0  0  0  0  0  0  0  0  0  0  0
  -27.4037  -20.1330   21.6661 C   0  0  0  0  0  0  0  0  0  0  0  0
  -22.3024   -8.7094   20.2413 C   0  0  0  0  0  0  0  0  0  0  0  0
  -23.0248   -8.7800   22.5457 C   0  0  0  0  0  0  0  0  0  0  0  0
  -27.0437  -19.7622   22.9609 C   0  0  0  0  0  0  0  0  0  0  0  0
  -23.3367   -5.4456   22.0812 C   0  0  0  0  0  0  0  0  0  0  0  0
  -23.9441   -4.4421   22.8359 C   0  0  0  0  0  0  0  0  0  0  0  0
  -28.8485  -21.1001   23.8395 C   0  0  0  0  0  0  0  0  0  0  0  0
  -30.0954  -17.3686   25.1405 C   0  0  0  0  0  0  0  0  0  0  0  0
  -22.2146   -4.6539   24.5095 C   0  0  0  0  0  0  0  0  0  0  0  0
  -23.7792  -10.4684   20.9910 C   0  0  0  0  0  0  0  0  0  0  0  0
  -24.1139  -12.9908   20.8097 C   0  0  0  0  0  0  0  0  0  0  0  0
  -32.7067  -18.2740   16.0784 C   0  0  0  0  0  0  0  0  0  0  0  0
  -28.4974  -20.9829   21.4473 C   0  0  0  0  0  0  0  0  0  0  0  0
  -32.0148  -18.2264   17.3037 C   0  0  0  0  0  0  0  0  0  0  0  0
  -29.2188  -21.4823   22.5411 C   0  0  0  0  0  0  0  0  0  0  0  0
  -29.3357  -16.9371   26.2136 C   0  0  0  0  0  0  0  0  0  0  0  0
  -22.2917   -8.1701   21.5276 C   0  0  0  0  0  0  0  0  0  0  0  0
  -27.7678  -20.2434   24.0477 C   0  0  0  0  0  0  0  0  0  0  0  0
  -22.1682   -6.0533   22.5407 C   0  0  0  0  0  0  0  0  0  0  0  0
  -23.3831   -4.0462   24.0500 C   0  0  0  0  0  0  0  0  0  0  0  0
  -21.6072   -5.6574   23.7548 C   0  0  0  0  0  0  0  0  0  0  0  0
  -24.5481  -11.6551   20.7143 C   0  0  0  0  0  0  0  0  0  0  0  0
  -30.6924  -16.4113   24.3451 C   0  0  0  0  0  0  0  0  0  0  0  0
  -29.2230  -15.5769   26.4201 C   0  0  0  0  0  0  0  0  0  0  0  0
  -25.2091  -13.7348   20.4445 C   0  0  0  0  0  0  0  0  0  0  0  0
  -22.8349  -13.5124   21.1943 C   0  0  0  0  0  0  0  0  0  0  0  0
  -31.2811  -20.7128   19.9367 C   0  0  0  0  0  0  0  0  0  0  0  0
  -31.5276  -23.8691   20.6434 C   0  0  0  0  0  0  0  0  0  0  0  0
  -30.6024  -26.4694   22.6507 C   0  0  0  0  0  0  0  0  0  0  0  0
  -30.6853  -14.7806   20.6945 C   0  0  0  0  0  0  0  0  0  0  0  0
  -33.9636  -19.0901   15.9082 C   0  0  0  0  0  0  0  0  0  0  0  0
  -28.8565  -21.3949   20.0459 C   0  0  0  0  0  0  0  0  0  0  0  0
  -30.3887  -22.4136   22.3610 C   0  0  0  0  0  0  0  0  0  0  0  0
  -34.1489  -20.1551   16.9860 C   0  0  0  0  0  0  0  0  0  0  0  0
  -29.5953  -12.3294   18.3535 C   0  0  0  0  0  0  0  0  0  0  0  0
  -33.8904  -19.5656   18.3689 C   0  0  0  0  0  0  0  0  0  0  0  0
  -28.1521  -12.0414   18.7708 C   0  0  0  0  0  0  0  0  0  0  0  0
  -30.4920  -12.5855   19.5628 C   0  0  0  0  0  0  0  0  0  0  0  0
  -28.5653  -13.3452   20.8987 C   0  0  0  0  0  0  0  0  0  0  0  0
  -32.4486  -19.0578   18.4915 C   0  0  1  0  0  0  0  0  0  0  0  0
  -30.3048  -21.8547   19.9109 C   0  0  1  0  0  0  0  0  0  0  0  0
  -27.6110  -13.1357   19.7104 C   0  0  2  0  0  0  0  0  0  0  0  0
  -28.6796  -13.5529   27.7966 C   0  0  0  0  0  0  0  0  0  0  0  0
  -30.9988  -28.9218   23.0056 C   0  0  0  0  0  0  0  0  0  0  0  0
  -34.2325  -23.2460   21.9105 C   0  0  0  0  0  0  0  0  0  0  0  0
  -34.1317  -25.4715   23.0529 C   0  0  0  0  0  0  0  0  0  0  0  0
  -34.1725  -25.3510   20.5616 C   0  0  0  0  0  0  0  0  0  0  0  0
  -27.7557  -27.1180   22.1661 C   0  0  0  0  0  0  0  0  0  0  0  0
  -28.6613  -17.9414   27.1138 C   0  0  0  0  0  0  0  0  0  0  0  0
  -31.5214  -16.8233   23.1772 C   0  0  0  0  0  0  0  0  0  0  0  0
  -28.4216  -15.0382   27.5567 C   0  0  0  0  0  0  0  0  0  0  0  0
  -27.1568  -18.0754   26.8689 C   0  0  0  0  0  0  0  0  0  0  0  0
  -30.7233  -16.9633   21.8749 C   0  0  0  0  0  0  0  0  0  0  0  0
  -26.8157  -18.6000   25.4790 C   0  0  0  0  0  0  0  0  0  1  0  0
  -32.0786  -24.6654   21.8015 C   0  0  1  0  0  0  0  0  0  0  0  0
  -30.1306  -27.8750   22.3249 C   0  0  2  0  0  0  0  0  0  0  0  0
  -33.6330  -24.6644   21.8352 C   0  0  0  0  0  0  0  0  0  0  0  0
  -25.8199  -11.5534   20.3192 N   0  0  0  0  0  0  0  0  0  0  0  0
  -30.5651  -15.0865   24.5708 N   0  0  0  0  0  0  0  0  0  0  0  0
  -29.8181  -14.6625   25.6252 N   0  0  0  0  0  0  0  0  0  0  0  0
  -26.1942  -12.8346   20.1631 N   0  0  0  0  0  0  0  0  0  0  0  0
  -30.7046  -22.7822   20.9711 N   0  0  0  0  0  0  0  0  0  0  0  0
  -29.9234  -13.6348   20.4123 N   0  0  0  0  0  0  0  0  0  0  0  0
  -25.4158  -15.0648   20.3397 N   0  0  0  0  0  0  0  0  0  0  0  0
  -21.8209  -12.6084   21.5391 N   0  0  0  0  0  0  0  0  0  0  0  0
  -31.5385  -20.1645   18.6947 N   0  0  0  0  0  0  0  0  0  0  0  0
  -31.4839  -25.9940   21.7030 N   0  0  0  0  0  0  0  0  0  0  0  0
  -30.0692  -15.7289   21.5018 N   0  0  0  0  0  0  0  0  0  0  0  0
  -28.7231  -28.0665   22.7755 N   0  3  0  0  0  0  0  0  0  0  0  0
  -22.5933  -14.7431   21.2152 O   0  0  0  0  0  0  0  0  0  0  0  0
  -31.7661  -20.3565   21.0042 O   0  0  0  0  0  0  0  0  0  0  0  0
  -31.8110  -24.2034   19.4904 O   0  0  0  0  0  0  0  0  0  0  0  0
  -30.2293  -25.8560   23.6482 O   0  0  0  0  0  0  0  0  0  0  0  0
  -31.8279  -14.9486   20.2548 O   0  0  0  0  0  0  0  0  0  0  0  0
  -21.5660   -7.0489   21.7899 O   0  0  0  0  0  0  0  0  0  0  0  0
  -27.4189  -19.8825   25.3126 O   0  0  0  0  0  0  0  0  0  1  0  0
  -23.9656   -3.0814   24.7739 F   0  0  0  0  0  0  0  0  0  0  0  0
  -20.4841   -6.2367   24.2008 F   0  0  0  0  0  0  0  0  0  0  0  0
  1  2  1  0  0  0  0
  1  5  2  0  0  0  0
  2  6  2  0  0  0  0
  3  8  2  0  0  0  0
  3 16  1  0  0  0  0
  4  9  1  0  0  0  0
  4 16  2  0  0  0  0
  5 18  1  0  0  0  0
  6 20  1  0  0  0  0
  7 10  2  0  0  0  0
  7 19  1  0  0  0  0
  8 23  1  0  0  0  0
  9 23  2  0  0  0  0
 10 24  1  0  0  0  0
 11 12  2  0  0  0  0
 11 25  1  0  0  0  0
 12 26  1  0  0  0  0
 13 21  1  0  0  0  0
 13 24  2  0  0  0  0
 14 22  1  0  0  0  0
 14 29  2  0  0  0  0
 15 26  2  0  0  0  0
 15 27  1  0  0  0  0
 16 28  1  0  0  0  0
 17 28  1  0  0  0  0
 17 31  2  0  0  0  0
 17 32  1  0  0  0  0
 18 20  2  0  0  0  0
 18 37  1  0  0  0  0
 19 21  2  0  0  0  0
 19 38  1  0  0  0  0
 20 46  1  0  0  0  0
 21 39  1  0  0  0  0
 22 30  2  0  0  0  0
 22 55  1  0  0  0  0
 23 81  1  0  0  0  0
 24 82  1  0  0  0  0
 25 27  2  0  0  0  0
 25 81  1  0  0  0  0
 26 83  1  0  0  0  0
 27 84  1  0  0  0  0
 28 64  2  0  0  0  0
 29 56  1  0  0  0  0
 29 65  1  0  0  0  0
 30 57  1  0  0  0  0
 30 66  1  0  0  0  0
 31 67  1  0  0  0  0
 31 70  1  0  0  0  0
 32 71  1  0  0  0  0
 32 76  2  0  0  0  0
 33 47  1  0  0  0  0
 33 72  1  0  0  0  0
 33 77  2  0  0  0  0
 34 61  1  0  0  0  0
 34 68  1  0  0  0  0
 34 78  2  0  0  0  0
 35 62  1  0  0  0  0
 35 73  1  0  0  0  0
 35 79  2  0  0  0  0
 36 69  1  0  0  0  0
 36 74  1  0  0  0  0
 36 80  2  0  0  0  0
 37 40  1  0  0  0  0
 38 47  1  0  0  0  0
 39 68  1  0  0  0  0
 40 42  1  0  0  0  0
 41 43  1  0  0  0  0
 41 44  1  0  0  0  0
 42 46  1  0  0  0  0
 43 48  1  0  0  0  0
 44 69  1  0  0  0  0
 45 48  1  0  0  0  0
 45 69  1  0  0  0  0
 46 72  1  0  0  0  0
 47 68  1  0  0  0  0
 48 67  1  0  0  0  0
 49 57  1  0  0  0  0
 50 62  1  0  0  0  0
 51 63  1  0  0  0  0
 52 63  1  0  0  0  0
 53 63  1  0  0  0  0
 54 75  1  0  0  0  0
 55 58  1  0  0  0  0
 56 59  1  0  0  0  0
 58 60  1  0  0  0  0
 59 74  1  0  0  0  0
 60 82  1  0  0  0  0
 61 63  1  0  0  0  0
 61 73  1  0  0  0  0
 62 75  1  0  0  0  0
 64 67  1  0  0  0  0
 65 66  2  0  0  0  0
M  CHG  1  75   1
M  ISO  4  36 100  60 101  74 100  82 101
M  END
> <Batch ID>
0086

> <Smiles>
CCc1nnc(CC[100NH:0][100C:0](=O)N2CCCC(n3nc(-c4ccc(Oc5ccc(F)cc5F)cc4)c(C(N)=O)c3N)C2)cc1CC[101CH2:1][101O:1]c1ccc2c(c1)CN(C(=O)C(NC(=O)C(C)NC)C(C)(C)C)C(C(=O)NC1CCCc3ccccc31)C2

> <Shape>
0.217

> <Color>
0.193

> <Negative vol penalty>
0.000

$$$$

  -OEChem-04052318593D

 87 95  0     1  0  0  0  0  0999 V2000
  -22.9855  -24.5761   25.8720 C   0  0  0  0  0  0  0  0  0  0  0  0
  -24.2123  -24.3215   25.2695 C   0  0  0  0  0  0  0  0  0  0  0  0
  -22.9967   -9.8693   19.9809 C   0  0  0  0  0  0  0  0  0  0  0  0
  -23.7187   -9.9337   22.2856 C   0  0  0  0  0  0  0  0  0  0  0  0
  -22.0626  -25.4074   25.2410 C   0  0  0  0  0  0  0  0  0  0  0  0
  -24.5214  -24.9076   24.0415 C   0  0  0  0  0  0  0  0  0  0  0  0
  -29.1029  -24.2885   22.3595 C   0  0  0  0  0  0  0  0  0  0  0  0
  -22.2340   -8.7333   20.2515 C   0  0  0  0  0  0  0  0  0  0  0  0
  -22.9559   -8.7977   22.5563 C   0  0  0  0  0  0  0  0  0  0  0  0
  -29.5680  -23.0683   21.8710 C   0  0  0  0  0  0  0  0  0  0  0  0
  -23.2130   -5.4575   22.1003 C   0  0  0  0  0  0  0  0  0  0  0  0
  -23.8032   -4.4460   22.8579 C   0  0  0  0  0  0  0  0  0  0  0  0
  -29.3521  -23.8958   19.6154 C   0  0  0  0  0  0  0  0  0  0  0  0
  -27.3130  -19.4737   19.6524 C   0  0  0  0  0  0  0  0  0  0  0  0
  -22.0763   -4.6905   24.5298 C   0  0  0  0  0  0  0  0  0  0  0  0
  -23.7392  -10.4695   20.9979 C   0  0  0  0  0  0  0  0  0  0  0  0
  -24.1156  -12.9857   20.8106 C   0  0  0  0  0  0  0  0  0  0  0  0
  -22.3563  -25.9936   23.9988 C   0  0  0  0  0  0  0  0  0  0  0  0
  -28.7480  -25.3194   21.4777 C   0  0  0  0  0  0  0  0  0  0  0  0
  -23.6126  -25.7687   23.4002 C   0  0  0  0  0  0  0  0  0  0  0  0
  -28.8851  -25.1290   20.0953 C   0  0  0  0  0  0  0  0  0  0  0  0
  -28.6616  -19.1696   19.7126 C   0  0  0  0  0  0  0  0  0  0  0  0
  -22.2135   -8.1975   21.5392 C   0  0  0  0  0  0  0  0  0  0  0  0
  -29.6899  -22.8708   20.4987 C   0  0  0  0  0  0  0  0  0  0  0  0
  -22.0544   -6.0856   22.5574 C   0  0  0  0  0  0  0  0  0  0  0  0
  -23.2349   -4.0625   24.0726 C   0  0  0  0  0  0  0  0  0  0  0  0
  -21.4861   -5.7021   23.7721 C   0  0  0  0  0  0  0  0  0  0  0  0
  -24.5277  -11.6427   20.7188 C   0  0  0  0  0  0  0  0  0  0  0  0
  -26.4862  -18.9379   20.6194 C   0  0  0  0  0  0  0  0  0  0  0  0
  -29.0943  -18.3503   20.7358 C   0  0  0  0  0  0  0  0  0  0  0  0
  -25.2232  -13.7106   20.4442 C   0  0  0  0  0  0  0  0  0  0  0  0
  -22.8451  -13.5293   21.1929 C   0  0  0  0  0  0  0  0  0  0  0  0
  -26.0640  -26.8962   20.8345 C   0  0  0  0  0  0  0  0  0  0  0  0
  -28.0196  -28.6759   18.9555 C   0  0  0  0  0  0  0  0  0  0  0  0
  -30.9206  -28.8837   17.1700 C   0  0  0  0  0  0  0  0  0  0  0  0
  -30.7158  -14.6663   20.6955 C   0  0  0  0  0  0  0  0  0  0  0  0
  -21.3238  -26.8916   23.3639 C   0  0  0  0  0  0  0  0  0  0  0  0
  -28.2733  -26.6390   22.0215 C   0  0  0  0  0  0  0  0  0  0  0  0
  -28.5366  -26.2111   19.1074 C   0  0  0  0  0  0  0  0  0  0  0  0
  -21.5593  -27.1064   21.8724 C   0  0  0  0  0  0  0  0  0  0  0  0
  -29.5870  -12.2275   18.3599 C   0  0  0  0  0  0  0  0  0  0  0  0
  -23.0087  -27.4980   21.6261 C   0  0  0  0  0  0  0  0  0  0  0  0
  -28.1389  -11.9645   18.7768 C   0  0  0  0  0  0  0  0  0  0  0  0
  -30.4869  -12.4718   19.5692 C   0  0  0  0  0  0  0  0  0  0  0  0
  -28.5722  -13.2667   20.9017 C   0  0  0  0  0  0  0  0  0  0  0  0
  -23.9586  -26.3707   22.0503 C   0  0  1  0  0  0  0  0  0  0  0  0
  -27.4531  -27.4399   21.0148 C   0  0  1  0  0  0  0  0  0  0  0  0
  -27.6154  -13.0700   19.7134 C   0  0  2  0  0  0  0  0  0  0  0  0
  -22.8371  -21.9889   22.2620 C   0  0  0  0  0  0  0  0  0  0  0  0
  -29.2926  -17.7610   17.0728 C   0  0  0  0  0  0  0  0  0  0  0  0
  -32.2271  -30.4518   15.7102 C   0  0  0  0  0  0  0  0  0  0  0  0
  -26.0959  -28.1294   16.6510 C   0  0  0  0  0  0  0  0  0  0  0  0
  -27.8867  -28.8793   15.0702 C   0  0  0  0  0  0  0  0  0  0  0  0
  -26.9632  -30.4729   16.7525 C   0  0  0  0  0  0  0  0  0  0  0  0
  -33.2206  -28.8861   19.0325 C   0  0  0  0  0  0  0  0  0  0  0  0
  -25.0257  -19.2341   20.5994 C   0  0  0  0  0  0  0  0  0  0  0  0
  -30.5331  -17.9789   20.8638 C   0  0  0  0  0  0  0  0  0  0  0  0
  -23.1749  -20.7674   21.4222 C   0  0  0  0  0  0  0  0  0  0  0  0
  -29.2724  -19.2759   17.2389 C   0  0  0  0  0  0  0  0  0  0  0  0
  -24.6784  -20.4917   21.4134 C   0  0  0  0  0  0  0  0  0  0  0  0
  -30.7891  -16.8510   21.8705 C   0  0  0  0  0  0  0  0  0  0  0  0
  -29.6624  -21.2705   18.7397 C   0  0  0  0  0  0  0  0  0  1  0  0
  -29.6177  -19.7347   18.6712 C   0  0  1  0  0  0  0  0  0  0  0  0
  -28.4808  -28.6020   17.5199 C   0  0  1  0  0  0  0  0  0  0  0  0
  -32.0030  -29.9472   17.1271 C   0  0  2  0  0  0  0  0  0  0  0  0
  -27.3615  -28.9996   16.5167 C   0  0  0  0  0  0  0  0  0  0  0  0
  -25.7980  -11.5190   20.3248 N   0  0  0  0  0  0  0  0  0  0  0  0
  -26.9371  -18.1388   21.6095 N   0  0  0  0  0  0  0  0  0  0  0  0
  -28.2626  -17.8403   21.6687 N   0  0  0  0  0  0  0  0  0  0  0  0
  -26.1935  -12.7935   20.1658 N   0  0  0  0  0  0  0  0  0  0  0  0
  -28.0709  -27.4814   19.6879 N   0  0  0  0  0  0  0  0  0  0  0  0
  -29.9352  -13.5325   20.4156 N   0  0  0  0  0  0  0  0  0  0  0  0
  -25.4520  -15.0366   20.3362 N   0  0  0  0  0  0  0  0  0  0  0  0
  -21.8161  -12.6430   21.5392 N   0  0  0  0  0  0  0  0  0  0  0  0
  -25.3200  -26.8561   21.9983 N   0  0  0  0  0  0  0  0  0  0  0  0
  -29.6810  -29.4269   17.4338 N   0  0  0  0  0  0  0  0  0  0  0  0
  -30.1149  -15.6267   21.5000 N   0  0  0  0  0  0  0  0  0  0  0  0
  -33.2900  -29.3974   17.6393 N   0  3  0  0  0  0  0  0  0  0  0  0
  -22.6239  -14.7639   21.2106 O   0  0  0  0  0  0  0  0  0  0  0  0
  -25.6940  -26.5408   19.7216 O   0  0  0  0  0  0  0  0  0  0  0  0
  -27.6349  -29.7552   19.4123 O   0  0  0  0  0  0  0  0  0  0  0  0
  -31.1510  -27.6908   16.9841 O   0  0  0  0  0  0  0  0  0  0  0  0
  -31.8613  -14.8143   20.2562 O   0  0  0  0  0  0  0  0  0  0  0  0
  -21.4692   -7.0892   21.8037 O   0  0  0  0  0  0  0  0  0  0  0  0
  -30.1430  -21.6806   20.0192 O   0  0  0  0  0  0  0  0  0  1  0  0
  -23.8009   -3.0900   24.7993 F   0  0  0  0  0  0  0  0  0  0  0  0
  -20.3724   -6.3010   24.2159 F   0  0  0  0  0  0  0  0  0  0  0  0
  1  2  1  0  0  0  0
  1  5  2  0  0  0  0
  2  6  2  0  0  0  0
  3  8  2  0  0  0  0
  3 16  1  0  0  0  0
  4  9  1  0  0  0  0
  4 16  2  0  0  0  0
  5 18  1  0  0  0  0
  6 20  1  0  0  0  0
  7 10  2  0  0  0  0
  7 19  1  0  0  0  0
  8 23  1  0  0  0  0
  9 23  2  0  0  0  0
 10 24  1  0  0  0  0
 11 12  2  0  0  0  0
 11 25  1  0  0  0  0
 12 26  1  0  0  0  0
 13 21  1  0  0  0  0
 13 24  2  0  0  0  0
 14 22  2  0  0  0  0
 14 29  1  0  0  0  0
 15 26  2  0  0  0  0
 15 27  1  0  0  0  0
 16 28  1  0  0  0  0
 17 28  1  0  0  0  0
 17 31  2  0  0  0  0
 17 32  1  0  0  0  0
 18 20  2  0  0  0  0
 18 37  1  0  0  0  0
 19 21  2  0  0  0  0
 19 38  1  0  0  0  0
 20 46  1  0  0  0  0
 21 39  1  0  0  0  0
 22 30  1  0  0  0  0
 22 63  1  0  0  0  0
 23 84  1  0  0  0  0
 24 85  1  0  0  0  0
 25 27  2  0  0  0  0
 25 84  1  0  0  0  0
 26 86  1  0  0  0  0
 27 87  1  0  0  0  0
 28 67  2  0  0  0  0
 29 56  1  0  0  0  0
 29 68  2  0  0  0  0
 30 57  1  0  0  0  0
 30 69  2  0  0  0  0
 31 70  1  0  0  0  0
 31 73  1  0  0  0  0
 32 74  1  0  0  0  0
 32 79  2  0  0  0  0
 33 47  1  0  0  0  0
 33 75  1  0  0  0  0
 33 80  2  0  0  0  0
 34 64  1  0  0  0  0
 34 71  1  0  0  0  0
 34 81  2  0  0  0  0
 35 65  1  0  0  0  0
 35 76  1  0  0  0  0
 35 82  2  0  0  0  0
 36 72  1  0  0  0  0
 36 77  1  0  0  0  0
 36 83  2  0  0  0  0
 37 40  1  0  0  0  0
 38 47  1  0  0  0  0
 39 71  1  0  0  0  0
 40 42  1  0  0  0  0
 41 43  1  0  0  0  0
 41 44  1  0  0  0  0
 42 46  1  0  0  0  0
 43 48  1  0  0  0  0
 44 72  1  0  0  0  0
 45 48  1  0  0  0  0
 45 72  1  0  0  0  0
 46 75  1  0  0  0  0
 47 71  1  0  0  0  0
 48 70  1  0  0  0  0
 49 58  1  0  0  0  0
 50 59  1  0  0  0  0
 51 65  1  0  0  0  0
 52 66  1  0  0  0  0
 53 66  1  0  0  0  0
 54 66  1  0  0  0  0
 55 78  1  0  0  0  0
 56 60  1  0  0  0  0
 57 61  1  0  0  0  0
 58 60  1  0  0  0  0
 59 63  1  0  0  0  0
 61 77  1  0  0  0  0
 62 63  1  0  0  0  0
 62 85  1  0  0  0  0
 64 66  1  0  0  0  0
 64 76  1  0  0  0  0
 65 78  1  0  0  0  0
 67 70  1  0  0  0  0
 68 69  1  0  0  0  0
M  CHG  1  78   1
M  ISO  4  36 100  62 101  77 100  85 101
M  END
> <Batch ID>
0086

> <Smiles>
CCCCc1cc(C(CC)[101CH2:1][101O:1]c2ccc3c(c2)CN(C(=O)C(NC(=O)C(C)NC)C(C)(C)C)C(C(=O)NC2CCCc4ccccc42)C3)c(CC[100NH:0][100C:0](=O)N2CCCC(n3nc(-c4ccc(Oc5ccc(F)cc5F)cc4)c(C(N)=O)c3N)C2)nn1

> <Shape>
0.293

> <Color>
0.191

> <Negative vol penalty>
0.000

$$$$

  -OEChem-04052318593D

 84 91  0     1  0  0  0  0  0999 V2000
  -18.0482  -24.9475   22.9439 C   0  0  0  0  0  0  0  0  0  0  0  0
  -18.0574  -23.5962   22.6132 C   0  0  0  0  0  0  0  0  0  0  0  0
  -28.4293  -26.4511   17.6054 C   0  0  0  0  0  0  0  0  0  0  0  0
  -28.6972  -26.4578   20.0065 C   0  0  0  0  0  0  0  0  0  0  0  0
  -19.2266  -25.6893   22.8734 C   0  0  0  0  0  0  0  0  0  0  0  0
  -19.2449  -22.9862   22.2107 C   0  0  0  0  0  0  0  0  0  0  0  0
  -22.6779  -16.7063   22.5164 C   0  0  0  0  0  0  0  0  0  0  0  0
  -27.7314  -27.6564   17.6798 C   0  0  0  0  0  0  0  0  0  0  0  0
  -27.9993  -27.6633   20.0809 C   0  0  0  0  0  0  0  0  0  0  0  0
  -23.3042  -15.7795   21.6841 C   0  0  0  0  0  0  0  0  0  0  0  0
  -24.7785  -28.6872   19.9874 C   0  0  0  0  0  0  0  0  0  0  0  0
  -23.7999  -28.8096   20.9738 C   0  0  0  0  0  0  0  0  0  0  0  0
  -25.2952  -17.1415   21.6756 C   0  0  0  0  0  0  0  0  0  0  0  0
  -24.9950  -30.6804   21.9272 C   0  0  0  0  0  0  0  0  0  0  0  0
  -28.9122  -25.8517   18.7687 C   0  0  0  0  0  0  0  0  0  0  0  0
  -31.0215  -24.4356   18.5383 C   0  0  0  0  0  0  0  0  0  0  0  0
  -20.4311  -25.0858   22.4791 C   0  0  0  0  0  0  0  0  0  0  0  0
  -23.3530  -17.8650   22.9264 C   0  0  0  0  0  0  0  0  0  0  0  0
  -20.4403  -23.7209   22.1335 C   0  0  0  0  0  0  0  0  0  0  0  0
  -24.6762  -18.0802   22.5151 C   0  0  0  0  0  0  0  0  0  0  0  0
  -27.5165  -28.2626   18.9175 C   0  0  0  0  0  0  0  0  0  0  0  0
  -24.6120  -15.9985   21.2612 C   0  0  0  0  0  0  0  0  0  0  0  0
  -25.8654  -29.5613   19.9709 C   0  0  0  0  0  0  0  0  0  0  0  0
  -23.9082  -29.8063   21.9437 C   0  0  0  0  0  0  0  0  0  0  0  0
  -25.9736  -30.5580   20.9408 C   0  0  0  0  0  0  0  0  0  0  0  0
  -29.6327  -24.6062   18.6925 C   0  0  0  0  0  0  0  0  0  0  0  0
  -31.2006  -23.0740   18.5230 C   0  0  0  0  0  0  0  0  0  0  0  0
  -32.0572  -25.4200   18.4195 C   0  0  0  0  0  0  0  0  0  0  0  0
  -22.8916  -20.9859   22.5379 C   0  0  0  0  0  0  0  0  0  0  0  0
  -25.3995  -21.2157   24.5825 C   0  0  0  0  0  0  0  0  0  0  0  0
  -28.1868  -19.7727   25.9223 C   0  0  0  0  0  0  0  0  0  0  0  0
  -30.2179  -18.1231   20.6373 C   0  0  0  0  0  0  0  0  0  0  0  0
  -21.6699  -25.9394   22.3724 C   0  0  0  0  0  0  0  0  0  0  0  0
  -22.6727  -18.8418   23.8459 C   0  0  0  0  0  0  0  0  0  0  0  0
  -25.4516  -19.2982   22.9436 C   0  0  0  0  0  0  0  0  0  0  0  0
  -22.9623  -25.1306   22.2970 C   0  0  0  0  0  0  0  0  0  0  0  0
  -27.8352  -19.3120   18.1864 C   0  0  0  0  0  0  0  0  0  0  0  0
  -22.8209  -23.9906   21.2934 C   0  0  0  0  0  0  0  0  0  0  0  0
  -28.2115  -20.7916   18.0893 C   0  0  0  0  0  0  0  0  0  0  0  0
  -27.9608  -18.8026   19.6192 C   0  0  0  0  0  0  0  0  0  0  0  0
  -29.6809  -20.4901   20.1362 C   0  0  0  0  0  0  0  0  0  0  0  0
  -21.7136  -23.0176   21.7162 C   0  0  1  0  0  0  0  0  0  0  0  0
  -23.2775  -20.2410   23.7844 C   0  0  1  0  0  0  0  0  0  0  0  0
  -29.5961  -21.0595   18.7084 C   0  0  2  0  0  0  0  0  0  0  0  0
  -30.0521  -20.2194   27.5404 C   0  0  0  0  0  0  0  0  0  0  0  0
  -28.4299  -10.7420   19.9593 C   0  0  0  0  0  0  0  0  0  0  0  0
  -28.5503  -11.5713   22.2959 C   0  0  0  0  0  0  0  0  0  0  0  0
  -26.6619  -13.3158   18.7073 C   0  0  0  0  0  0  0  0  0  0  0  0
  -29.8776  -13.1155   18.1744 C   0  0  0  0  0  0  0  0  0  0  0  0
  -26.7536  -23.0127   22.5216 C   0  0  0  0  0  0  0  0  0  0  0  0
  -28.9172  -22.6472   23.7274 C   0  0  0  0  0  0  0  0  0  0  0  0
  -27.0150  -23.7636   24.8927 C   0  0  0  0  0  0  0  0  0  0  0  0
  -31.7986  -13.5298   20.6270 C   0  0  0  0  0  0  0  0  0  0  0  0
  -31.7697  -15.2883   18.8764 C   0  0  0  0  0  0  0  0  0  0  0  0
  -27.3847  -17.5086   27.6512 C   0  0  0  0  0  0  0  0  0  0  0  0
  -30.6122  -15.7146   21.0853 C   0  0  0  0  0  0  0  0  0  0  0  0
  -26.6418  -14.9748   20.5628 C   0  0  0  0  0  0  0  0  0  1  0  0
  -26.9000  -21.2806   24.4307 C   0  0  1  0  0  0  0  0  0  0  0  0
  -28.6593  -19.6366   27.3585 C   0  0  2  0  0  0  0  0  0  0  0  0
  -28.9919  -11.8543   20.8474 C   0  0  0  0  0  0  0  0  0  0  0  0
  -27.1000  -13.5586   20.1554 C   0  0  2  0  0  0  0  0  0  0  0  0
  -29.5918  -14.0141   19.3897 C   0  0  1  0  0  0  0  0  0  0  0  0
  -28.6321  -13.3338   20.4512 C   0  0  2  0  0  0  0  0  0  0  0  0
  -27.3815  -22.6539   23.8833 C   0  0  0  0  0  0  0  0  0  0  0  0
  -30.9220  -14.6482   20.0062 C   0  0  0  0  0  0  0  0  0  0  0  0
  -28.9760  -23.4457   18.7696 N   0  0  0  0  0  0  0  0  0  0  0  0
  -29.9565  -22.5328   18.6632 N   0  0  0  0  0  0  0  0  0  0  0  0
  -24.7408  -20.2271   23.8378 N   0  0  0  0  0  0  0  0  0  0  0  0
  -29.3075  -19.0718   20.1429 N   0  0  0  0  0  0  0  0  0  0  0  0
  -32.2993  -22.2987   18.4033 N   0  0  0  0  0  0  0  0  0  0  0  0
  -31.6988  -26.7745   18.4549 N   0  0  0  0  0  0  0  0  0  0  0  0
  -22.1818  -22.1478   22.7739 N   0  0  0  0  0  0  0  0  0  0  0  0
  -27.4576  -20.9273   25.7318 N   0  0  0  0  0  0  0  0  0  0  0  0
  -29.7845  -16.8031   20.6151 N   0  0  0  0  0  0  0  0  0  0  0  0
  -28.6945  -18.2014   27.7584 N   0  3  0  0  0  0  0  0  0  0  0  0
  -33.2628  -25.1077   18.2695 O   0  0  0  0  0  0  0  0  0  0  0  0
  -23.2151  -20.5403   21.4432 O   0  0  0  0  0  0  0  0  0  0  0  0
  -24.8333  -22.0082   25.3395 O   0  0  0  0  0  0  0  0  0  0  0  0
  -28.4425  -18.9400   25.0552 O   0  0  0  0  0  0  0  0  0  0  0  0
  -31.3372  -18.4291   21.0623 O   0  0  0  0  0  0  0  0  0  0  0  0
  -26.8357  -29.4389   18.9905 O   0  0  0  0  0  0  0  0  0  0  0  0
  -25.2297  -15.0894   20.4426 O   0  0  0  0  0  0  0  0  0  1  0  0
  -22.9676  -29.9247   22.8899 F   0  0  0  0  0  0  0  0  0  0  0  0
  -27.0149  -31.4014   20.9294 F   0  0  0  0  0  0  0  0  0  0  0  0
  1  2  1  0  0  0  0
  1  5  2  0  0  0  0
  2  6  2  0  0  0  0
  3  8  2  0  0  0  0
  3 15  1  0  0  0  0
  4  9  1  0  0  0  0
  4 15  2  0  0  0  0
  5 17  1  0  0  0  0
  6 19  1  0  0  0  0
  7 10  2  0  0  0  0
  7 18  1  0  0  0  0
  8 21  1  0  0  0  0
  9 21  2  0  0  0  0
 10 22  1  0  0  0  0
 11 12  2  0  0  0  0
 11 23  1  0  0  0  0
 12 24  1  0  0  0  0
 13 20  1  0  0  0  0
 13 22  2  0  0  0  0
 14 24  2  0  0  0  0
 14 25  1  0  0  0  0
 15 26  1  0  0  0  0
 16 26  1  0  0  0  0
 16 27  2  0  0  0  0
 16 28  1  0  0  0  0
 17 19  2  0  0  0  0
 17 33  1  0  0  0  0
 18 20  2  0  0  0  0
 18 34  1  0  0  0  0
 19 42  1  0  0  0  0
 20 35  1  0  0  0  0
 21 81  1  0  0  0  0
 22 82  1  0  0  0  0
 23 25  2  0  0  0  0
 23 81  1  0  0  0  0
 24 83  1  0  0  0  0
 25 84  1  0  0  0  0
 26 66  2  0  0  0  0
 27 67  1  0  0  0  0
 27 70  1  0  0  0  0
 28 71  1  0  0  0  0
 28 76  2  0  0  0  0
 29 43  1  0  0  0  0
 29 72  1  0  0  0  0
 29 77  2  0  0  0  0
 30 58  1  0  0  0  0
 30 68  1  0  0  0  0
 30 78  2  0  0  0  0
 31 59  1  0  0  0  0
 31 73  1  0  0  0  0
 31 79  2  0  0  0  0
 32 69  1  0  0  0  0
 32 74  1  0  0  0  0
 32 80  2  0  0  0  0
 33 36  1  0  0  0  0
 34 43  1  0  0  0  0
 35 68  1  0  0  0  0
 36 38  1  0  0  0  0
 37 39  1  0  0  0  0
 37 40  1  0  0  0  0
 38 42  1  0  0  0  0
 39 44  1  0  0  0  0
 40 69  1  0  0  0  0
 41 44  1  0  0  0  0
 41 69  1  0  0  0  0
 42 72  1  0  0  0  0
 43 68  1  0  0  0  0
 44 67  1  0  0  0  0
 45 59  1  0  0  0  0
 46 60  1  0  0  0  0
 47 60  1  0  0  0  0
 48 61  1  0  0  0  0
 49 62  1  0  0  0  0
 50 64  1  0  0  0  0
 51 64  1  0  0  0  0
 52 64  1  0  0  0  0
 53 65  1  0  0  0  0
 54 65  1  0  0  0  0
 55 75  1  0  0  0  0
 56 65  1  0  0  0  0
 56 74  1  0  0  0  0
 57 61  1  0  0  0  0
 57 82  1  0  0  0  0
 58 64  1  0  0  0  0
 58 73  1  0  0  0  0
 59 75  1  0  0  0  0
 60 63  1  0  0  0  0
 61 63  1  0  0  0  0
 62 63  1  0  0  0  0
 62 65  1  0  0  0  0
 66 67  1  0  0  0  0
M  CHG  1  75   1
M  ISO  4  32 100  57 101  74 100  82 101
M  END
> <Batch ID>
0086

> <Smiles>
CNC(C)C(=O)NC(C(=O)N1Cc2cc([101O:1][101CH2:1]C(C)C(C(C)C)C(C)C(C)(C)C[100NH:0][100C:0](=O)N3CCCC(n4nc(-c5ccc(Oc6ccc(F)cc6F)cc5)c(C(N)=O)c4N)C3)ccc2CC1C(=O)NC1CCCc2ccccc21)C(C)(C)C

> <Shape>
0.223

> <Color>
0.045

> <Negative vol penalty>
0.000

$$$$

  -OEChem-04052318593D

 85 93  0     1  0  0  0  0  0999 V2000
  -30.3192  -23.4069   16.4736 C   0  0  0  0  0  0  0  0  0  0  0  0
  -29.0151  -23.5394   16.9396 C   0  0  0  0  0  0  0  0  0  0  0  0
  -25.5864  -13.8345   21.8116 C   0  0  0  0  0  0  0  0  0  0  0  0
  -24.3844  -14.9184   20.0179 C   0  0  0  0  0  0  0  0  0  0  0  0
  -31.3828  -23.8888   17.2354 C   0  0  0  0  0  0  0  0  0  0  0  0
  -28.7739  -24.1530   18.1683 C   0  0  0  0  0  0  0  0  0  0  0  0
  -24.9325  -27.4470   17.9741 C   0  0  0  0  0  0  0  0  0  0  0  0
  -24.6219  -12.8276   21.8495 C   0  0  0  0  0  0  0  0  0  0  0  0
  -23.4199  -13.9114   20.0558 C   0  0  0  0  0  0  0  0  0  0  0  0
  -23.6414  -26.9212   17.9914 C   0  0  0  0  0  0  0  0  0  0  0  0
  -22.6673   -9.7798   22.1746 C   0  0  0  0  0  0  0  0  0  0  0  0
  -23.1107   -8.4599   22.2576 C   0  0  0  0  0  0  0  0  0  0  0  0
  -23.4725  -27.4293   20.3435 C   0  0  0  0  0  0  0  0  0  0  0  0
  -21.8110  -22.6922   21.4138 C   0  0  0  0  0  0  0  0  0  0  0  0
  -24.2952   -8.7265   20.1688 C   0  0  0  0  0  0  0  0  0  0  0  0
  -22.6557  -21.8794   23.4832 C   0  0  0  0  0  0  0  0  0  0  0  0
  -25.4677  -14.8799   20.8958 C   0  0  0  0  0  0  0  0  0  0  0  0
  -27.6389  -15.9437   20.0825 C   0  0  0  0  0  0  0  0  0  0  0  0
  -31.1539  -24.5172   18.4696 C   0  0  0  0  0  0  0  0  0  0  0  0
  -25.5084  -27.9588   19.1458 C   0  0  0  0  0  0  0  0  0  0  0  0
  -29.8356  -24.6425   18.9480 C   0  0  0  0  0  0  0  0  0  0  0  0
  -24.7701  -27.9634   20.3379 C   0  0  0  0  0  0  0  0  0  0  0  0
  -22.7950  -21.9991   22.1099 C   0  0  0  0  0  0  0  0  0  0  0  0
  -20.7329  -23.2369   22.1026 C   0  0  0  0  0  0  0  0  0  0  0  0
  -23.5387  -12.8660   20.9716 C   0  0  0  0  0  0  0  0  0  0  0  0
  -22.9122  -26.9097   19.1768 C   0  0  0  0  0  0  0  0  0  0  0  0
  -23.0378  -10.5730   21.0887 C   0  0  0  0  0  0  0  0  0  0  0  0
  -23.9246   -7.9332   21.2547 C   0  0  0  0  0  0  0  0  0  0  0  0
  -23.8518  -10.0464   20.0858 C   0  0  0  0  0  0  0  0  0  0  0  0
  -26.4633  -15.9207   20.8566 C   0  0  0  0  0  0  0  0  0  0  0  0
  -20.6858  -23.0616   23.4762 C   0  0  0  0  0  0  0  0  0  0  0  0
  -28.2372  -17.1380   20.4021 C   0  0  0  0  0  0  0  0  0  0  0  0
  -28.1449  -14.9724   19.1571 C   0  0  0  0  0  0  0  0  0  0  0  0
  -28.0482  -27.2157   20.9067 C   0  0  0  0  0  0  0  0  0  0  0  0
  -27.2373  -29.9141   22.5141 C   0  0  0  0  0  0  0  0  0  0  0  0
  -26.0106  -22.2989   22.5282 C   0  0  0  0  0  0  0  0  0  0  0  0
  -24.8119  -32.1555   23.3747 C   0  0  0  0  0  0  0  0  0  0  0  0
  -32.3390  -24.9799   19.2796 C   0  0  0  0  0  0  0  0  0  0  0  0
  -26.8922  -28.5469   19.1046 C   0  0  0  0  0  0  0  0  0  0  0  0
  -25.3352  -28.5194   21.6185 C   0  0  0  0  0  0  0  0  0  0  0  0
  -31.9707  -25.9527   20.3969 C   0  0  0  0  0  0  0  0  0  0  0  0
  -28.6260  -20.3076   23.9547 C   0  0  0  0  0  0  0  0  0  0  0  0
  -30.7614  -25.4410   21.1731 C   0  0  0  0  0  0  0  0  0  0  0  0
  -28.4568  -18.9507   23.2725 C   0  0  0  0  0  0  0  0  0  0  0  0
  -27.2797  -20.9840   24.1940 C   0  0  0  0  0  0  0  0  0  0  0  0
  -26.2787  -19.7816   22.2773 C   0  0  0  0  0  0  0  0  0  0  0  0
  -29.5317  -25.3243   20.2644 C   0  0  1  0  0  0  0  0  0  0  0  0
  -27.5715  -28.5722   20.4703 C   0  0  1  0  0  0  0  0  0  0  0  0
  -27.6168  -19.0781   21.9893 C   0  0  2  0  0  0  0  0  0  0  0  0
  -19.5508  -23.6242   24.2681 C   0  0  0  0  0  0  0  0  0  0  0  0
  -18.5016  -23.0599   20.9712 C   0  0  0  0  0  0  0  0  0  0  0  0
  -24.4425  -34.2344   24.7308 C   0  0  0  0  0  0  0  0  0  0  0  0
  -24.7942  -23.7562   20.9773 C   0  0  0  0  0  0  0  0  0  0  0  0
  -26.1302  -21.8351   20.0982 C   0  0  0  0  0  0  0  0  0  0  0  0
  -27.2549  -28.2473   25.0697 C   0  0  0  0  0  0  0  0  0  0  0  0
  -25.9859  -30.0881   26.1962 C   0  0  0  0  0  0  0  0  0  0  0  0
  -28.2732  -30.5199   25.2994 C   0  0  0  0  0  0  0  0  0  0  0  0
  -24.0238  -33.7137   20.9851 C   0  0  0  0  0  0  0  0  0  0  0  0
  -23.9602  -21.4039   21.4026 C   0  0  0  0  0  0  0  0  0  0  0  0
  -20.1892  -24.7200   20.0970 C   0  0  0  0  0  0  0  0  0  0  0  0
  -21.2097  -25.8077   20.4189 C   0  0  0  0  0  0  0  0  0  1  0  0
  -19.6554  -23.9969   21.3487 C   0  0  2  0  0  0  0  0  0  0  0  0
  -26.3451  -30.2308   23.6899 C   0  0  1  0  0  0  0  0  0  0  0  0
  -24.7926  -33.6734   23.3613 C   0  0  2  0  0  0  0  0  0  0  0  0
  -25.2231  -22.3038   21.2422 C   0  0  0  0  0  0  0  0  0  0  0  0
  -26.9546  -29.7592   25.0403 C   0  0  0  0  0  0  0  0  0  0  0  0
  -21.6227  -22.3947   24.1869 N   0  0  0  0  0  0  0  0  0  0  0  0
  -26.3215  -17.0135   21.6114 N   0  0  0  0  0  0  0  0  0  0  0  0
  -27.4158  -17.7344   21.3131 N   0  0  0  0  0  0  0  0  0  0  0  0
  -26.6946  -29.0775   21.5285 N   0  0  0  0  0  0  0  0  0  0  0  0
  -26.5029  -21.0656   22.9558 N   0  0  0  0  0  0  0  0  0  0  0  0
  -29.3805  -17.7257   19.9901 N   0  0  0  0  0  0  0  0  0  0  0  0
  -27.4045  -13.8012   18.9465 N   0  0  0  0  0  0  0  0  0  0  0  0
  -28.9462  -26.6281   20.0364 N   0  0  0  0  0  0  0  0  0  0  0  0
  -26.0755  -31.6631   23.6238 N   0  0  0  0  0  0  0  0  0  0  0  0
  -23.7877  -34.1699   22.3791 N   0  3  0  0  0  0  0  0  0  0  0  0
  -29.2298  -15.1308   18.5477 O   0  0  0  0  0  0  0  0  0  0  0  0
  -27.6331  -26.7383   21.9562 O   0  0  0  0  0  0  0  0  0  0  0  0
  -28.3714  -30.3972   22.4681 O   0  0  0  0  0  0  0  0  0  0  0  0
  -26.1845  -23.3608   23.1317 O   0  0  0  0  0  0  0  0  0  0  0  0
  -23.8060  -31.4748   23.1869 O   0  0  0  0  0  0  0  0  0  0  0  0
  -22.5975  -11.8835   21.0081 O   0  0  0  0  0  0  0  0  0  0  0  0
  -21.6520  -26.3965   19.1966 O   0  0  0  0  0  0  0  0  0  1  0  0
  -24.3516   -6.6662   21.3353 F   0  0  0  0  0  0  0  0  0  0  0  0
  -24.2120  -10.8040   19.0407 F   0  0  0  0  0  0  0  0  0  0  0  0
  1  2  1  0  0  0  0
  1  5  2  0  0  0  0
  2  6  2  0  0  0  0
  3  8  2  0  0  0  0
  3 17  1  0  0  0  0
  4  9  1  0  0  0  0
  4 17  2  0  0  0  0
  5 19  1  0  0  0  0
  6 21  1  0  0  0  0
  7 10  2  0  0  0  0
  7 20  1  0  0  0  0
  8 25  1  0  0  0  0
  9 25  2  0  0  0  0
 10 26  1  0  0  0  0
 11 12  2  0  0  0  0
 11 27  1  0  0  0  0
 12 28  1  0  0  0  0
 13 22  1  0  0  0  0
 13 26  2  0  0  0  0
 14 23  2  0  0  0  0
 14 24  1  0  0  0  0
 15 28  2  0  0  0  0
 15 29  1  0  0  0  0
 16 23  1  0  0  0  0
 16 67  2  0  0  0  0
 17 30  1  0  0  0  0
 18 30  1  0  0  0  0
 18 32  2  0  0  0  0
 18 33  1  0  0  0  0
 19 21  2  0  0  0  0
 19 38  1  0  0  0  0
 20 22  2  0  0  0  0
 20 39  1  0  0  0  0
 21 47  1  0  0  0  0
 22 40  1  0  0  0  0
 23 59  1  0  0  0  0
 24 31  2  0  0  0  0
 24 62  1  0  0  0  0
 25 82  1  0  0  0  0
 26 83  1  0  0  0  0
 27 29  2  0  0  0  0
 27 82  1  0  0  0  0
 28 84  1  0  0  0  0
 29 85  1  0  0  0  0
 30 68  2  0  0  0  0
 31 50  1  0  0  0  0
 31 67  1  0  0  0  0
 32 69  1  0  0  0  0
 32 72  1  0  0  0  0
 33 73  1  0  0  0  0
 33 77  2  0  0  0  0
 34 48  1  0  0  0  0
 34 74  1  0  0  0  0
 34 78  2  0  0  0  0
 35 63  1  0  0  0  0
 35 70  1  0  0  0  0
 35 79  2  0  0  0  0
 36 65  1  0  0  0  0
 36 71  1  0  0  0  0
 36 80  2  0  0  0  0
 37 64  1  0  0  0  0
 37 75  1  0  0  0  0
 37 81  2  0  0  0  0
 38 41  1  0  0  0  0
 39 48  1  0  0  0  0
 40 70  1  0  0  0  0
 41 43  1  0  0  0  0
 42 44  1  0  0  0  0
 42 45  1  0  0  0  0
 43 47  1  0  0  0  0
 44 49  1  0  0  0  0
 45 71  1  0  0  0  0
 46 49  1  0  0  0  0
 46 71  1  0  0  0  0
 47 74  1  0  0  0  0
 48 70  1  0  0  0  0
 49 69  1  0  0  0  0
 51 62  1  0  0  0  0
 52 64  1  0  0  0  0
 53 65  1  0  0  0  0
 54 65  1  0  0  0  0
 55 66  1  0  0  0  0
 56 66  1  0  0  0  0
 57 66  1  0  0  0  0
 58 76  1  0  0  0  0
 59 65  1  0  0  0  0
 60 61  1  0  0  0  0
 60 62  1  0  0  0  0
 61 83  1  0  0  0  0
 63 66  1  0  0  0  0
 63 75  1  0  0  0  0
 64 76  1  0  0  0  0
 68 69  1  0  0  0  0
M  CHG  1  76   1
M  ISO  4  36 100  61 101  65 100  83 101
M  END
> <Batch ID>
0086

> <Smiles>
CNC(C)C(=O)NC(C(=O)N1Cc2cc([101O:1][101CH2:1]CC(C)c3cc(C[100C:0](C)(C)[100C:0](=O)N4CCCC(n5nc(-c6ccc(Oc7ccc(F)cc7F)cc6)c(C(N)=O)c5N)C4)cnc3C)ccc2CC1C(=O)NC1CCCc2ccccc21)C(C)(C)C

> <Shape>
0.240

> <Color>
0.053

> <Negative vol penalty>
0.000

$$$$

  -OEChem-04052318593D

 87 95  0     1  0  0  0  0  0999 V2000
  -26.9317  -20.0619   26.2564 C   0  0  0  0  0  0  0  0  0  0  0  0
  -27.6418  -21.2454   26.0887 C   0  0  0  0  0  0  0  0  0  0  0  0
  -24.1741   -9.6584   19.9526 C   0  0  0  0  0  0  0  0  0  0  0  0
  -24.7182  -10.0199   22.2786 C   0  0  0  0  0  0  0  0  0  0  0  0
  -25.5418  -20.0679   26.1597 C   0  0  0  0  0  0  0  0  0  0  0  0
  -26.9616  -22.4372   25.8361 C   0  0  0  0  0  0  0  0  0  0  0  0
  -29.6309  -26.5697   25.8014 C   0  0  0  0  0  0  0  0  0  0  0  0
  -23.8570   -8.3294   20.2333 C   0  0  0  0  0  0  0  0  0  0  0  0
  -24.4011   -8.6909   22.5594 C   0  0  0  0  0  0  0  0  0  0  0  0
  -30.5206  -26.8837   24.7749 C   0  0  0  0  0  0  0  0  0  0  0  0
  -21.6109   -6.8448   23.0361 C   0  0  0  0  0  0  0  0  0  0  0  0
  -20.8320   -6.5905   24.1649 C   0  0  0  0  0  0  0  0  0  0  0  0
  -28.9269  -28.4602   23.8840 C   0  0  0  0  0  0  0  0  0  0  0  0
  -22.6085   -5.2365   25.0857 C   0  0  0  0  0  0  0  0  0  0  0  0
  -24.6047  -10.5037   20.9753 C   0  0  0  0  0  0  0  0  0  0  0  0
  -24.0635  -12.9832   20.7174 C   0  0  0  0  0  0  0  0  0  0  0  0
  -24.8459  -21.2586   25.8933 C   0  0  0  0  0  0  0  0  0  0  0  0
  -28.3760  -27.1917   25.8707 C   0  0  0  0  0  0  0  0  0  0  0  0
  -25.5575  -22.4681   25.7586 C   0  0  0  0  0  0  0  0  0  0  0  0
  -28.0241  -28.1542   24.9138 C   0  0  0  0  0  0  0  0  0  0  0  0
  -23.9705   -7.8456   21.5367 C   0  0  0  0  0  0  0  0  0  0  0  0
  -30.1675  -27.8269   23.8144 C   0  0  0  0  0  0  0  0  0  0  0  0
  -22.8886   -6.2949   22.9320 C   0  0  0  0  0  0  0  0  0  0  0  0
  -21.3308   -5.7864   25.1897 C   0  0  0  0  0  0  0  0  0  0  0  0
  -23.3874   -5.4907   23.9568 C   0  0  0  0  0  0  0  0  0  0  0  0
  -24.9330  -11.8765   20.6858 C   0  0  0  0  0  0  0  0  0  0  0  0
  -30.1669  -23.8446   19.2767 C   0  0  0  0  0  0  0  0  0  0  0  0
  -28.9981  -23.7020   19.9796 C   0  0  0  0  0  0  0  0  0  0  0  0
  -24.8538  -14.0507   20.3674 C   0  0  0  0  0  0  0  0  0  0  0  0
  -30.2936  -25.9856   19.9837 C   0  0  0  0  0  0  0  0  0  0  0  0
  -22.6665  -13.0412   21.0347 C   0  0  0  0  0  0  0  0  0  0  0  0
  -25.3636  -26.1862   25.7365 C   0  0  0  0  0  0  0  0  0  0  0  0
  -24.7082  -29.2819   26.4506 C   0  0  0  0  0  0  0  0  0  0  0  0
  -25.7168  -32.5418   26.4049 C   0  0  0  0  0  0  0  0  0  0  0  0
  -29.6224  -16.9197   20.7862 C   0  0  0  0  0  0  0  0  0  0  0  0
  -23.3408  -21.2093   25.8067 C   0  0  0  0  0  0  0  0  0  0  0  0
  -27.4383  -26.8615   26.9995 C   0  0  0  0  0  0  0  0  0  0  0  0
  -26.6971  -28.8654   24.9551 C   0  0  0  0  0  0  0  0  0  0  0  0
  -22.7458  -22.4237   25.1013 C   0  0  0  0  0  0  0  0  0  0  0  0
  -29.5503  -14.1959   18.4943 C   0  0  0  0  0  0  0  0  0  0  0  0
  -23.3268  -23.7017   25.6875 C   0  0  0  0  0  0  0  0  0  0  0  0
  -28.2748  -13.4381   18.8669 C   0  0  0  0  0  0  0  0  0  0  0  0
  -30.2464  -14.7692   19.7267 C   0  0  0  0  0  0  0  0  0  0  0  0
  -28.1149  -14.8476   20.9612 C   0  0  0  0  0  0  0  0  0  0  0  0
  -24.8411  -23.7710   25.4527 C   0  0  1  0  0  0  0  0  0  0  0  0
  -25.9814  -27.1803   26.6787 C   0  0  1  0  0  0  0  0  0  0  0  0
  -27.3477  -14.2987   19.7461 C   0  0  2  0  0  0  0  0  0  0  0  0
  -30.7430  -22.7180   18.4893 C   0  0  0  0  0  0  0  0  0  0  0  0
  -24.9505  -34.8498   27.0240 C   0  0  0  0  0  0  0  0  0  0  0  0
  -28.0567  -21.9409   22.4715 C   0  0  0  0  0  0  0  0  0  0  0  0
  -26.7455  -19.7226   20.7013 C   0  0  0  0  0  0  0  0  0  0  0  0
  -22.8817  -29.3283   24.0069 C   0  0  0  0  0  0  0  0  0  0  0  0
  -22.9073  -31.8291   24.1219 C   0  0  0  0  0  0  0  0  0  0  0  0
  -21.9672  -30.5049   26.0153 C   0  0  0  0  0  0  0  0  0  0  0  0
  -27.9576  -32.9020   28.3044 C   0  0  0  0  0  0  0  0  0  0  0  0
  -28.2381  -22.4225   19.9995 C   0  0  0  0  0  0  0  0  0  0  0  0
  -31.0155  -27.3093   20.0050 C   0  0  0  0  0  0  0  0  0  0  0  0
  -32.2501  -27.3231   20.9089 C   0  0  0  0  0  0  0  0  0  0  0  0
  -28.8544  -19.0061   21.8891 C   0  0  0  0  0  0  0  0  0  0  0  0
  -31.9227  -27.1045   22.3815 C   0  0  0  0  0  0  0  0  0  1  0  0
  -24.4682  -30.5368   25.6465 C   0  0  1  0  0  0  0  0  0  0  0  0
  -25.7098  -33.6135   27.4800 C   0  0  2  0  0  0  0  0  0  0  0  0
  -28.6327  -21.4385   21.1400 C   0  0  2  0  0  0  0  0  0  0  0  0
  -28.2565  -19.9554   20.8337 C   0  0  2  0  0  0  0  0  0  0  0  0
  -23.0804  -30.5351   24.9455 C   0  0  0  0  0  0  0  0  0  0  0  0
  -26.1800  -12.2100   20.3427 N   0  0  0  0  0  0  0  0  0  0  0  0
  -30.8483  -25.0002   19.2622 N   0  0  0  0  0  0  0  0  0  0  0  0
  -28.4891  -24.7275   20.6862 N   0  0  0  0  0  0  0  0  0  0  0  0
  -29.1502  -25.9037   20.6921 N   0  0  0  0  0  0  0  0  0  0  0  0
  -26.0999  -13.5384   20.1555 N   0  0  0  0  0  0  0  0  0  0  0  0
  -25.8121  -28.5034   26.0747 N   0  0  0  0  0  0  0  0  0  0  0  0
  -29.3132  -15.5763   20.5164 N   0  0  0  0  0  0  0  0  0  0  0  0
  -24.5974  -15.3682   20.2234 N   0  0  0  0  0  0  0  0  0  0  0  0
  -22.0083  -11.8510   21.3729 N   0  0  0  0  0  0  0  0  0  0  0  0
  -25.3841  -24.8844   26.1993 N   0  0  0  0  0  0  0  0  0  0  0  0
  -24.6738  -31.6538   26.5622 N   0  0  0  0  0  0  0  0  0  0  0  0
  -28.6811  -17.6147   21.5357 N   0  0  0  0  0  0  0  0  0  0  0  0
  -27.1040  -34.0166   27.8187 N   0  3  0  0  0  0  0  0  0  0  0  0
  -22.0174  -14.1141   21.0029 O   0  0  0  0  0  0  0  0  0  0  0  0
  -24.9011  -26.5720   24.6692 O   0  0  0  0  0  0  0  0  0  0  0  0
  -23.9485  -29.0062   27.3825 O   0  0  0  0  0  0  0  0  0  0  0  0
  -26.5609  -32.4990   25.5126 O   0  0  0  0  0  0  0  0  0  0  0  0
  -30.6578  -17.4611   20.3842 O   0  0  0  0  0  0  0  0  0  0  0  0
  -23.6610   -6.5489   21.8110 O   0  0  0  0  0  0  0  0  0  0  0  0
  -31.0338  -28.1348   22.8111 O   0  0  0  0  0  0  0  0  0  1  0  0
  -20.5833   -5.5435   26.2744 F   0  0  0  0  0  0  0  0  0  0  0  0
  -24.6146   -4.9606   23.8630 F   0  0  0  0  0  0  0  0  0  0  0  0
  1  2  1  0  0  0  0
  1  5  2  0  0  0  0
  2  6  2  0  0  0  0
  3  8  2  0  0  0  0
  3 15  1  0  0  0  0
  4  9  1  0  0  0  0
  4 15  2  0  0  0  0
  5 17  1  0  0  0  0
  6 19  1  0  0  0  0
  7 10  2  0  0  0  0
  7 18  1  0  0  0  0
  8 21  1  0  0  0  0
  9 21  2  0  0  0  0
 10 22  1  0  0  0  0
 11 12  2  0  0  0  0
 11 23  1  0  0  0  0
 12 24  1  0  0  0  0
 13 20  1  0  0  0  0
 13 22  2  0  0  0  0
 14 24  2  0  0  0  0
 14 25  1  0  0  0  0
 15 26  1  0  0  0  0
 16 26  1  0  0  0  0
 16 29  2  0  0  0  0
 16 31  1  0  0  0  0
 17 19  2  0  0  0  0
 17 36  1  0  0  0  0
 18 20  2  0  0  0  0
 18 37  1  0  0  0  0
 19 45  1  0  0  0  0
 20 38  1  0  0  0  0
 21 84  1  0  0  0  0
 22 85  1  0  0  0  0
 23 25  2  0  0  0  0
 23 84  1  0  0  0  0
 24 86  1  0  0  0  0
 25 87  1  0  0  0  0
 26 66  2  0  0  0  0
 27 28  2  0  0  0  0
 27 48  1  0  0  0  0
 27 67  1  0  0  0  0
 28 56  1  0  0  0  0
 28 68  1  0  0  0  0
 29 70  1  0  0  0  0
 29 73  1  0  0  0  0
 30 57  1  0  0  0  0
 30 67  2  0  0  0  0
 30 69  1  0  0  0  0
 31 74  1  0  0  0  0
 31 79  2  0  0  0  0
 32 46  1  0  0  0  0
 32 75  1  0  0  0  0
 32 80  2  0  0  0  0
 33 61  1  0  0  0  0
 33 71  1  0  0  0  0
 33 81  2  0  0  0  0
 34 62  1  0  0  0  0
 34 76  1  0  0  0  0
 34 82  2  0  0  0  0
 35 72  1  0  0  0  0
 35 77  1  0  0  0  0
 35 83  2  0  0  0  0
 36 39  1  0  0  0  0
 37 46  1  0  0  0  0
 38 71  1  0  0  0  0
 39 41  1  0  0  0  0
 40 42  1  0  0  0  0
 40 43  1  0  0  0  0
 41 45  1  0  0  0  0
 42 47  1  0  0  0  0
 43 72  1  0  0  0  0
 44 47  1  0  0  0  0
 44 72  1  0  0  0  0
 45 75  1  0  0  0  0
 46 71  1  0  0  0  0
 47 70  1  0  0  0  0
 49 62  1  0  0  0  0
 50 63  1  0  0  0  0
 51 64  1  0  0  0  0
 52 65  1  0  0  0  0
 53 65  1  0  0  0  0
 54 65  1  0  0  0  0
 55 78  1  0  0  0  0
 56 63  1  0  0  0  0
 57 58  1  0  0  0  0
 58 60  1  0  0  0  0
 59 64  1  0  0  0  0
 59 77  1  0  0  0  0
 60 85  1  0  0  0  0
 61 65  1  0  0  0  0
 61 76  1  0  0  0  0
 62 78  1  0  0  0  0
 63 64  1  0  0  0  0
 66 70  1  0  0  0  0
 68 69  2  0  0  0  0
M  CHG  1  78   1
M  ISO  4  35 100  60 101  77 100  85 101
M  END
> <Batch ID>
0086

> <Smiles>
CNC(C)C(=O)NC(C(=O)N1Cc2cc([101O:1][101CH2:1]CCc3nnc(CC(C)C(C)C[100NH:0][100C:0](=O)N4CCCC(n5nc(-c6ccc(Oc7ccc(F)cc7F)cc6)c(C(N)=O)c5N)C4)c(C)n3)ccc2CC1C(=O)NC1CCCc2ccccc21)C(C)(C)C

> <Shape>
0.254

> <Color>
0.110

> <Negative vol penalty>
0.000

$$$$

  -OEChem-04052318593D

 85 93  0     1  0  0  0  0  0999 V2000
  -24.3243  -36.2314   20.7467 C   0  0  0  0  0  0  0  0  0  0  0  0
  -25.0004  -35.4558   19.8103 C   0  0  0  0  0  0  0  0  0  0  0  0
  -26.8586  -12.6052   21.2125 C   0  0  0  0  0  0  0  0  0  0  0  0
  -26.4786  -13.3861   18.9579 C   0  0  0  0  0  0  0  0  0  0  0  0
  -24.3427  -35.8701   22.0932 C   0  0  0  0  0  0  0  0  0  0  0  0
  -25.6964  -34.3191   20.2201 C   0  0  0  0  0  0  0  0  0  0  0  0
  -27.5033  -27.7640   17.9657 C   0  0  0  0  0  0  0  0  0  0  0  0
  -26.2256  -11.4016   20.9023 C   0  0  0  0  0  0  0  0  0  0  0  0
  -25.8456  -12.1824   18.6477 C   0  0  0  0  0  0  0  0  0  0  0  0
  -28.6236  -26.9485   17.8126 C   0  0  0  0  0  0  0  0  0  0  0  0
  -24.3905   -8.2636   20.8054 C   0  0  0  0  0  0  0  0  0  0  0  0
  -23.4682   -7.7591   21.7221 C   0  0  0  0  0  0  0  0  0  0  0  0
  -28.5202  -26.3772   20.1540 C   0  0  0  0  0  0  0  0  0  0  0  0
  -29.2461  -22.0545   18.1603 C   0  0  0  0  0  0  0  0  0  0  0  0
  -22.1357   -9.7602   21.4828 C   0  0  0  0  0  0  0  0  0  0  0  0
  -26.9850  -13.5975   20.2403 C   0  0  0  0  0  0  0  0  0  0  0  0
  -29.0081  -15.1395   20.4324 C   0  0  0  0  0  0  0  0  0  0  0  0
  -25.0313  -34.7231   22.5184 C   0  0  0  0  0  0  0  0  0  0  0  0
  -26.8885  -27.9011   19.2185 C   0  0  0  0  0  0  0  0  0  0  0  0
  -25.7252  -33.9430   21.5738 C   0  0  0  0  0  0  0  0  0  0  0  0
  -27.3906  -27.1931   20.3198 C   0  0  0  0  0  0  0  0  0  0  0  0
  -30.4823  -22.5452   18.5422 C   0  0  0  0  0  0  0  0  0  0  0  0
  -25.7192  -11.1901   19.6199 C   0  0  0  0  0  0  0  0  0  0  0  0
  -29.1340  -26.2572   18.9075 C   0  0  0  0  0  0  0  0  0  0  0  0
  -24.1855   -9.5165   20.2274 C   0  0  0  0  0  0  0  0  0  0  0  0
  -22.3408   -8.5074   22.0608 C   0  0  0  0  0  0  0  0  0  0  0  0
  -23.0581  -10.2647   20.5661 C   0  0  0  0  0  0  0  0  0  0  0  0
  -27.6383  -14.8413   20.5602 C   0  0  0  0  0  0  0  0  0  0  0  0
  -28.6234  -21.1503   18.9970 C   0  0  0  0  0  0  0  0  0  0  0  0
  -31.0139  -22.0995   19.7357 C   0  0  0  0  0  0  0  0  0  0  0  0
  -29.1182  -16.4391   20.8630 C   0  0  0  0  0  0  0  0  0  0  0  0
  -30.0848  -14.3155   19.9660 C   0  0  0  0  0  0  0  0  0  0  0  0
  -26.3730  -30.3233   21.2112 C   0  0  0  0  0  0  0  0  0  0  0  0
  -24.6727  -28.1014   22.8528 C   0  0  0  0  0  0  0  0  0  0  0  0
  -26.1080  -21.4052   20.7091 C   0  0  0  0  0  0  0  0  0  0  0  0
  -24.1254  -24.8059   23.5505 C   0  0  0  0  0  0  0  0  0  0  0  0
  -25.0621  -34.3991   23.9911 C   0  0  0  0  0  0  0  0  0  0  0  0
  -25.6646  -28.7638   19.3613 C   0  0  0  0  0  0  0  0  0  0  0  0
  -26.7550  -27.2903   21.6818 C   0  0  0  0  0  0  0  0  0  0  0  0
  -25.5114  -32.9714   24.2913 C   0  0  0  0  0  0  0  0  0  0  0  0
  -26.3859  -19.4280   23.6845 C   0  0  0  0  0  0  0  0  0  0  0  0
  -26.7556  -32.6217   23.4812 C   0  0  0  0  0  0  0  0  0  0  0  0
  -26.8395  -18.0633   23.1677 C   0  0  0  0  0  0  0  0  0  0  0  0
  -25.4356  -20.1086   22.7044 C   0  0  0  0  0  0  0  0  0  0  0  0
  -26.4404  -18.8848   20.8032 C   0  0  0  0  0  0  0  0  0  0  0  0
  -26.4708  -32.6890   21.9760 C   0  0  1  0  0  0  0  0  0  0  0  0
  -25.4278  -29.2325   20.7936 C   0  0  1  0  0  0  0  0  0  0  0  0
  -27.4259  -18.1764   21.7493 C   0  0  2  0  0  0  0  0  0  0  0  0
  -32.3419  -22.5837   20.2113 C   0  0  0  0  0  0  0  0  0  0  0  0
  -31.5452  -22.9315   16.2944 C   0  0  0  0  0  0  0  0  0  0  0  0
  -27.1661  -20.3328   17.1044 C   0  0  0  0  0  0  0  0  0  0  0  0
  -23.0020  -22.7898   24.5357 C   0  0  0  0  0  0  0  0  0  0  0  0
  -24.6885  -20.7606   18.8114 C   0  0  0  0  0  0  0  0  0  0  0  0
  -26.0649  -22.8515   18.7667 C   0  0  0  0  0  0  0  0  0  0  0  0
  -26.3354  -28.8242   25.3069 C   0  0  0  0  0  0  0  0  0  0  0  0
  -25.5518  -26.7007   26.3770 C   0  0  0  0  0  0  0  0  0  0  0  0
  -23.9024  -28.4686   25.7631 C   0  0  0  0  0  0  0  0  0  0  0  0
  -22.2803  -24.5655   21.2490 C   0  0  0  0  0  0  0  0  0  0  0  0
  -30.4182  -24.8469   17.4870 C   0  0  0  0  0  0  0  0  0  1  0  0
  -31.2116  -23.5441   17.6575 C   0  0  1  0  0  0  0  0  0  0  0  0
  -27.2911  -20.5913   18.6317 C   0  0  2  0  0  0  0  0  0  0  0  0
  -24.9890  -27.0993   23.9366 C   0  0  1  0  0  0  0  0  0  0  0  0
  -22.8481  -23.9879   23.6118 C   0  0  2  0  0  0  0  0  0  0  0  0
  -26.0401  -21.3754   19.2029 C   0  0  0  0  0  0  0  0  0  0  0  0
  -25.2080  -27.7726   25.3208 C   0  0  0  0  0  0  0  0  0  0  0  0
  -26.9290  -15.8687   21.0351 N   0  0  0  0  0  0  0  0  0  0  0  0
  -29.1671  -20.7315   20.1594 N   0  0  0  0  0  0  0  0  0  0  0  0
  -30.3819  -21.2142   20.5349 N   0  0  0  0  0  0  0  0  0  0  0  0
  -27.8568  -16.8251   21.2095 N   0  0  0  0  0  0  0  0  0  0  0  0
  -25.5643  -28.1515   21.7719 N   0  0  0  0  0  0  0  0  0  0  0  0
  -26.0201  -20.1765   21.3638 N   0  0  0  0  0  0  0  0  0  0  0  0
  -30.1700  -17.2778   20.9755 N   0  0  0  0  0  0  0  0  0  0  0  0
  -29.7963  -13.0050   19.5615 N   0  0  0  0  0  0  0  0  0  0  0  0
  -25.7497  -31.5106   21.5449 N   0  0  0  0  0  0  0  0  0  0  0  0
  -23.9092  -26.1185   23.9134 N   0  0  0  0  0  0  0  0  0  0  0  0
  -22.4854  -23.4912   22.2544 N   0  3  0  0  0  0  0  0  0  0  0  0
  -31.2702  -14.7237   19.9251 O   0  0  0  0  0  0  0  0  0  0  0  0
  -27.5784  -30.1036   21.2308 O   0  0  0  0  0  0  0  0  0  0  0  0
  -23.6675  -28.8087   22.9578 O   0  0  0  0  0  0  0  0  0  0  0  0
  -26.2383  -22.4887   21.2845 O   0  0  0  0  0  0  0  0  0  0  0  0
  -25.2075  -24.3274   23.2178 O   0  0  0  0  0  0  0  0  0  0  0  0
  -25.1017  -10.0157   19.3169 O   0  0  0  0  0  0  0  0  0  0  0  0
  -30.2278  -25.4609   18.7610 O   0  0  0  0  0  0  0  0  0  1  0  0
  -21.4543   -8.0221   22.9400 F   0  0  0  0  0  0  0  0  0  0  0  0
  -22.8551  -11.4685   20.0132 F   0  0  0  0  0  0  0  0  0  0  0  0
  1  2  1  0  0  0  0
  1  5  2  0  0  0  0
  2  6  2  0  0  0  0
  3  8  2  0  0  0  0
  3 16  1  0  0  0  0
  4  9  1  0  0  0  0
  4 16  2  0  0  0  0
  5 18  1  0  0  0  0
  6 20  1  0  0  0  0
  7 10  2  0  0  0  0
  7 19  1  0  0  0  0
  8 23  1  0  0  0  0
  9 23  2  0  0  0  0
 10 24  1  0  0  0  0
 11 12  2  0  0  0  0
 11 25  1  0  0  0  0
 12 26  1  0  0  0  0
 13 21  1  0  0  0  0
 13 24  2  0  0  0  0
 14 22  1  0  0  0  0
 14 29  2  0  0  0  0
 15 26  2  0  0  0  0
 15 27  1  0  0  0  0
 16 28  1  0  0  0  0
 17 28  1  0  0  0  0
 17 31  2  0  0  0  0
 17 32  1  0  0  0  0
 18 20  2  0  0  0  0
 18 37  1  0  0  0  0
 19 21  2  0  0  0  0
 19 38  1  0  0  0  0
 20 46  1  0  0  0  0
 21 39  1  0  0  0  0
 22 30  2  0  0  0  0
 22 60  1  0  0  0  0
 23 82  1  0  0  0  0
 24 83  1  0  0  0  0
 25 27  2  0  0  0  0
 25 82  1  0  0  0  0
 26 84  1  0  0  0  0
 27 85  1  0  0  0  0
 28 66  2  0  0  0  0
 29 61  1  0  0  0  0
 29 67  1  0  0  0  0
 30 49  1  0  0  0  0
 30 68  1  0  0  0  0
 31 69  1  0  0  0  0
 31 72  1  0  0  0  0
 32 73  1  0  0  0  0
 32 77  2  0  0  0  0
 33 47  1  0  0  0  0
 33 74  1  0  0  0  0
 33 78  2  0  0  0  0
 34 62  1  0  0  0  0
 34 70  1  0  0  0  0
 34 79  2  0  0  0  0
 35 64  1  0  0  0  0
 35 71  1  0  0  0  0
 35 80  2  0  0  0  0
 36 63  1  0  0  0  0
 36 75  1  0  0  0  0
 36 81  2  0  0  0  0
 37 40  1  0  0  0  0
 38 47  1  0  0  0  0
 39 70  1  0  0  0  0
 40 42  1  0  0  0  0
 41 43  1  0  0  0  0
 41 44  1  0  0  0  0
 42 46  1  0  0  0  0
 43 48  1  0  0  0  0
 44 71  1  0  0  0  0
 45 48  1  0  0  0  0
 45 71  1  0  0  0  0
 46 74  1  0  0  0  0
 47 70  1  0  0  0  0
 48 69  1  0  0  0  0
 50 60  1  0  0  0  0
 51 61  1  0  0  0  0
 52 63  1  0  0  0  0
 53 64  1  0  0  0  0
 54 64  1  0  0  0  0
 55 65  1  0  0  0  0
 56 65  1  0  0  0  0
 57 65  1  0  0  0  0
 58 76  1  0  0  0  0
 59 60  1  0  0  0  0
 59 83  1  0  0  0  0
 61 64  1  0  0  0  0
 62 65  1  0  0  0  0
 62 75  1  0  0  0  0
 63 76  1  0  0  0  0
 66 69  1  0  0  0  0
 67 68  2  0  0  0  0
M  CHG  1  76   1
M  ISO  4  35 100  59 101  64 100  83 101
M  END
> <Batch ID>
0086

> <Smiles>
CNC(C)C(=O)NC(C(=O)N1Cc2cc([101O:1][101CH2:1]C(C)c3cc(C(C)[100C:0](C)(C)[100C:0](=O)N4CCCC(n5nc(-c6ccc(Oc7ccc(F)cc7F)cc6)c(C(N)=O)c5N)C4)nnc3C)ccc2CC1C(=O)NC1CCCc2ccccc21)C(C)(C)C

> <Shape>
0.249

> <Color>
0.099

> <Negative vol penalty>
0.000

$$$$

  -OEChem-04052318593D

 85 93  0     1  0  0  0  0  0999 V2000
  -22.8488  -15.4287   30.4180 C   0  0  0  0  0  0  0  0  0  0  0  0
  -22.5387  -16.4681   29.5469 C   0  0  0  0  0  0  0  0  0  0  0  0
  -29.1478  -17.3242   19.4182 C   0  0  0  0  0  0  0  0  0  0  0  0
  -30.6096  -17.8291   21.2743 C   0  0  0  0  0  0  0  0  0  0  0  0
  -23.8093  -15.6161   31.4112 C   0  0  0  0  0  0  0  0  0  0  0  0
  -23.1882  -17.6960   29.6691 C   0  0  0  0  0  0  0  0  0  0  0  0
  -24.7570  -21.4986   25.1321 C   0  0  0  0  0  0  0  0  0  0  0  0
  -25.4027  -27.6349   19.3151 C   0  0  0  0  0  0  0  0  0  0  0  0
  -29.7452  -16.0705   19.2886 C   0  0  0  0  0  0  0  0  0  0  0  0
  -31.2071  -16.5753   21.1448 C   0  0  0  0  0  0  0  0  0  0  0  0
  -24.1554  -22.6479   24.6212 C   0  0  0  0  0  0  0  0  0  0  0  0
  -29.5784  -13.0613   20.8216 C   0  0  0  0  0  0  0  0  0  0  0  0
  -28.7414  -11.9595   20.6458 C   0  0  0  0  0  0  0  0  0  0  0  0
  -26.7152  -28.0681   19.1631 C   0  0  0  0  0  0  0  0  0  0  0  0
  -25.5854  -24.0065   26.0098 C   0  0  0  0  0  0  0  0  0  0  0  0
  -29.8018  -11.4924   18.5257 C   0  0  0  0  0  0  0  0  0  0  0  0
  -29.5800  -18.2036   20.4110 C   0  0  0  0  0  0  0  0  0  0  0  0
  -27.8466  -19.8314   21.3346 C   0  0  0  0  0  0  0  0  0  0  0  0
  -24.4778  -16.8438   31.5395 C   0  0  0  0  0  0  0  0  0  0  0  0
  -25.7715  -21.5945   26.0953 C   0  0  0  0  0  0  0  0  0  0  0  0
  -24.1576  -17.9004   30.6657 C   0  0  0  0  0  0  0  0  0  0  0  0
  -26.2001  -22.8570   26.5294 C   0  0  0  0  0  0  0  0  0  0  0  0
  -24.6066  -28.1842   20.3140 C   0  0  0  0  0  0  0  0  0  0  0  0
  -30.7748  -15.6960   20.1519 C   0  0  0  0  0  0  0  0  0  0  0  0
  -24.5676  -23.9020   25.0622 C   0  0  0  0  0  0  0  0  0  0  0  0
  -30.5271  -13.3788   19.8495 C   0  0  0  0  0  0  0  0  0  0  0  0
  -28.8531  -11.1750   19.4978 C   0  0  0  0  0  0  0  0  0  0  0  0
  -30.6388  -12.5943   18.7016 C   0  0  0  0  0  0  0  0  0  0  0  0
  -28.9637  -19.4990   20.5450 C   0  0  0  0  0  0  0  0  0  0  0  0
  -27.1802  -29.0450   20.0287 C   0  0  0  0  0  0  0  0  0  0  0  0
  -25.1660  -29.1557   21.1283 C   0  0  0  0  0  0  0  0  0  0  0  0
  -27.6600  -21.1747   21.1173 C   0  0  0  0  0  0  0  0  0  0  0  0
  -27.0490  -19.0002   22.1883 C   0  0  0  0  0  0  0  0  0  0  0  0
  -26.1089  -20.6209   29.1023 C   0  0  0  0  0  0  0  0  0  0  0  0
  -29.1319  -21.7305   28.7120 C   0  0  0  0  0  0  0  0  0  0  0  0
  -31.2599  -23.8182   27.0508 C   0  0  0  0  0  0  0  0  0  0  0  0
  -29.6595  -26.2544   20.7360 C   0  0  0  0  0  0  0  0  0  0  0  0
  -25.4745  -17.0141   32.6585 C   0  0  0  0  0  0  0  0  0  0  0  0
  -26.4288  -20.3461   26.6168 C   0  0  0  0  0  0  0  0  0  0  0  0
  -27.2992  -23.0148   27.5470 C   0  0  0  0  0  0  0  0  0  0  0  0
  -26.3861  -18.2260   32.4831 C   0  0  0  0  0  0  0  0  0  0  0  0
  -29.7343  -24.2795   17.7043 C   0  0  0  0  0  0  0  0  0  0  0  0
  -25.5713  -19.4545   32.0911 C   0  0  0  0  0  0  0  0  0  0  0  0
  -29.4457  -22.8785   18.2467 C   0  0  0  0  0  0  0  0  0  0  0  0
  -30.6139  -25.0739   18.6652 C   0  0  0  0  0  0  0  0  0  0  0  0
  -29.7835  -23.7832   20.5934 C   0  0  0  0  0  0  0  0  0  0  0  0
  -24.8583  -19.2390   30.7507 C   0  0  1  0  0  0  0  0  0  0  0  0
  -27.0976  -20.5450   27.9735 C   0  0  1  0  0  0  0  0  0  0  0  0
  -28.8799  -22.9374   19.6780 C   0  0  2  0  0  0  0  0  0  0  0  0
  -24.3570  -29.7832   22.2158 C   0  0  0  0  0  0  0  0  0  0  0  0
  -33.6652  -24.5301   26.9798 C   0  0  0  0  0  0  0  0  0  0  0  0
  -30.8847  -29.5292   20.9542 C   0  0  0  0  0  0  0  0  0  0  0  0
  -28.7074  -23.4069   31.2259 C   0  0  0  0  0  0  0  0  0  0  0  0
  -30.7074  -24.7646   30.5740 C   0  0  0  0  0  0  0  0  0  0  0  0
  -30.9584  -22.3303   31.0578 C   0  0  0  0  0  0  0  0  0  0  0  0
  -31.5758  -22.8803   24.2616 C   0  0  0  0  0  0  0  0  0  0  0  0
  -23.1828  -27.7176   20.4847 C   0  0  0  0  0  0  0  0  0  0  0  0
  -28.5834  -29.5344   19.8928 C   0  0  0  0  0  0  0  0  0  0  0  0
  -23.0568  -26.3505   21.1661 C   0  0  0  0  0  0  0  0  0  0  0  0
  -23.5898  -26.3446   22.5996 C   0  0  0  0  0  0  0  0  0  0  0  0
  -23.4846  -24.9623   23.2294 C   0  0  0  0  0  0  0  0  0  1  0  0
  -29.8187  -23.0584   28.9216 C   0  0  1  0  0  0  0  0  0  0  0  0
  -32.6200  -23.5773   26.4210 C   0  0  2  0  0  0  0  0  0  0  0  0
  -29.6008  -28.7351   20.7351 C   0  0  1  0  0  0  0  0  0  0  0  0
  -30.0259  -23.3874   30.4271 C   0  0  0  0  0  0  0  0  0  0  0  0
  -29.4522  -20.5467   19.8759 N   0  0  0  0  0  0  0  0  0  0  0  0
  -26.4367  -29.6019   21.0109 N   0  0  0  0  0  0  0  0  0  0  0  0
  -28.6383  -21.5506   20.2445 N   0  0  0  0  0  0  0  0  0  0  0  0
  -27.9065  -21.7642   28.0316 N   0  0  0  0  0  0  0  0  0  0  0  0
  -30.0098  -25.1073   20.0046 N   0  0  0  0  0  0  0  0  0  0  0  0
  -26.7561  -22.0592   21.5896 N   0  0  0  0  0  0  0  0  0  0  0  0
  -27.3790  -17.6424   22.2967 N   0  0  0  0  0  0  0  0  0  0  0  0
  -25.7882  -19.3947   29.6528 N   0  0  0  0  0  0  0  0  0  0  0  0
  -31.0533  -23.0064   28.1460 N   0  0  0  0  0  0  0  0  0  0  0  0
  -29.9127  -27.4689   20.1102 N   0  0  0  0  0  0  0  0  0  0  0  0
  -32.5489  -23.7709   24.9450 N   0  3  0  0  0  0  0  0  0  0  0  0
  -26.0626  -19.4449   22.8230 O   0  0  0  0  0  0  0  0  0  0  0  0
  -25.6706  -21.7114   29.4493 O   0  0  0  0  0  0  0  0  0  0  0  0
  -29.6666  -20.7005   29.1302 O   0  0  0  0  0  0  0  0  0  0  0  0
  -30.4623  -24.6466   26.6171 O   0  0  0  0  0  0  0  0  0  0  0  0
  -29.1532  -26.2003   21.8620 O   0  0  0  0  0  0  0  0  0  0  0  0
  -31.3578  -14.4726   20.0260 O   0  0  0  0  0  0  0  0  0  0  0  0
  -23.9816  -25.0253   24.5656 O   0  0  0  0  0  0  0  0  0  1  0  0
  -28.0503  -10.1160   19.3298 F   0  0  0  0  0  0  0  0  0  0  0  0
  -31.5491  -12.8936   17.7648 F   0  0  0  0  0  0  0  0  0  0  0  0
  1  2  1  0  0  0  0
  1  5  2  0  0  0  0
  2  6  2  0  0  0  0
  3  9  2  0  0  0  0
  3 17  1  0  0  0  0
  4 10  1  0  0  0  0
  4 17  2  0  0  0  0
  5 19  1  0  0  0  0
  6 21  1  0  0  0  0
  7 11  2  0  0  0  0
  7 20  1  0  0  0  0
  8 14  2  0  0  0  0
  8 23  1  0  0  0  0
  9 24  1  0  0  0  0
 10 24  2  0  0  0  0
 11 25  1  0  0  0  0
 12 13  2  0  0  0  0
 12 26  1  0  0  0  0
 13 27  1  0  0  0  0
 14 30  1  0  0  0  0
 15 22  1  0  0  0  0
 15 25  2  0  0  0  0
 16 27  2  0  0  0  0
 16 28  1  0  0  0  0
 17 29  1  0  0  0  0
 18 29  1  0  0  0  0
 18 32  2  0  0  0  0
 18 33  1  0  0  0  0
 19 21  2  0  0  0  0
 19 38  1  0  0  0  0
 20 22  2  0  0  0  0
 20 39  1  0  0  0  0
 21 47  1  0  0  0  0
 22 40  1  0  0  0  0
 23 31  2  0  0  0  0
 23 57  1  0  0  0  0
 24 82  1  0  0  0  0
 25 83  1  0  0  0  0
 26 28  2  0  0  0  0
 26 82  1  0  0  0  0
 27 84  1  0  0  0  0
 28 85  1  0  0  0  0
 29 66  2  0  0  0  0
 30 58  1  0  0  0  0
 30 67  2  0  0  0  0
 31 50  1  0  0  0  0
 31 67  1  0  0  0  0
 32 68  1  0  0  0  0
 32 71  1  0  0  0  0
 33 72  1  0  0  0  0
 33 77  2  0  0  0  0
 34 48  1  0  0  0  0
 34 73  1  0  0  0  0
 34 78  2  0  0  0  0
 35 62  1  0  0  0  0
 35 69  1  0  0  0  0
 35 79  2  0  0  0  0
 36 63  1  0  0  0  0
 36 74  1  0  0  0  0
 36 80  2  0  0  0  0
 37 70  1  0  0  0  0
 37 75  1  0  0  0  0
 37 81  2  0  0  0  0
 38 41  1  0  0  0  0
 39 48  1  0  0  0  0
 40 69  1  0  0  0  0
 41 43  1  0  0  0  0
 42 44  1  0  0  0  0
 42 45  1  0  0  0  0
 43 47  1  0  0  0  0
 44 49  1  0  0  0  0
 45 70  1  0  0  0  0
 46 49  1  0  0  0  0
 46 70  1  0  0  0  0
 47 73  1  0  0  0  0
 48 69  1  0  0  0  0
 49 68  1  0  0  0  0
 51 63  1  0  0  0  0
 52 64  1  0  0  0  0
 53 65  1  0  0  0  0
 54 65  1  0  0  0  0
 55 65  1  0  0  0  0
 56 76  1  0  0  0  0
 57 59  1  0  0  0  0
 58 64  1  0  0  0  0
 59 60  1  0  0  0  0
 60 61  1  0  0  0  0
 61 83  1  0  0  0  0
 62 65  1  0  0  0  0
 62 74  1  0  0  0  0
 63 76  1  0  0  0  0
 64 75  1  0  0  0  0
 66 68  1  0  0  0  0
M  CHG  1  76   1
M  ISO  4  37 100  61 101  75 100  83 101
M  END
> <Batch ID>
0086

> <Smiles>
CNC(C)C(=O)NC(C(=O)N1Cc2cc([101O:1][101CH2:1]CCCc3ccc(CC(C)[100NH:0][100C:0](=O)N4CCCC(n5nc(-c6ccc(Oc7ccc(F)cc7F)cc6)c(C(N)=O)c5N)C4)nc3C)ccc2CC1C(=O)NC1CCCc2ccccc21)C(C)(C)C

> <Shape>
0.190

> <Color>
0.061

> <Negative vol penalty>
0.000

$$$$

  -OEChem-04052318593D

 83 91  0     1  0  0  0  0  0999 V2000
  -23.6577  -31.4296   21.2238 C   0  0  0  0  0  0  0  0  0  0  0  0
  -23.7027  -30.4001   20.2891 C   0  0  0  0  0  0  0  0  0  0  0  0
  -26.4236  -13.0406   21.7262 C   0  0  0  0  0  0  0  0  0  0  0  0
  -25.3823  -12.6289   19.5854 C   0  0  0  0  0  0  0  0  0  0  0  0
  -24.7791  -31.7121   22.0026 C   0  0  0  0  0  0  0  0  0  0  0  0
  -24.8698  -29.6533   20.1319 C   0  0  0  0  0  0  0  0  0  0  0  0
  -23.9680  -24.6789   19.8374 C   0  0  0  0  0  0  0  0  0  0  0  0
  -26.2456  -11.7007   22.0705 C   0  0  0  0  0  0  0  0  0  0  0  0
  -25.2043  -11.2890   19.9297 C   0  0  0  0  0  0  0  0  0  0  0  0
  -23.4984  -24.1879   18.6200 C   0  0  0  0  0  0  0  0  0  0  0  0
  -24.1505   -7.8406   20.3858 C   0  0  0  0  0  0  0  0  0  0  0  0
  -22.9119   -7.2601   20.1128 C   0  0  0  0  0  0  0  0  0  0  0  0
  -25.7252  -23.4418   18.0688 C   0  0  0  0  0  0  0  0  0  0  0  0
  -27.9683  -22.2705   14.3196 C   0  0  0  0  0  0  0  0  0  0  0  0
  -21.8363   -8.8816   21.5448 C   0  0  0  0  0  0  0  0  0  0  0  0
  -25.9919  -13.5047   20.4837 C   0  0  0  0  0  0  0  0  0  0  0  0
  -27.2855  -15.4597   19.4775 C   0  0  0  0  0  0  0  0  0  0  0  0
  -25.9573  -30.9621   21.8616 C   0  0  0  0  0  0  0  0  0  0  0  0
  -25.3241  -24.5645   20.1755 C   0  0  0  0  0  0  0  0  0  0  0  0
  -26.0085  -29.9270   20.9086 C   0  0  0  0  0  0  0  0  0  0  0  0
  -26.2090  -23.9298   19.2922 C   0  0  0  0  0  0  0  0  0  0  0  0
  -27.7830  -23.4648   13.6323 C   0  0  0  0  0  0  0  0  0  0  0  0
  -26.9393  -21.7582   15.1020 C   0  0  0  0  0  0  0  0  0  0  0  0
  -25.6360  -10.8249   21.1723 C   0  0  0  0  0  0  0  0  0  0  0  0
  -24.3776  -23.5718   17.7342 C   0  0  0  0  0  0  0  0  0  0  0  0
  -24.2320   -8.9416   21.2384 C   0  0  0  0  0  0  0  0  0  0  0  0
  -21.7548   -7.7806   20.6923 C   0  0  0  0  0  0  0  0  0  0  0  0
  -23.0749   -9.4621   21.8178 C   0  0  0  0  0  0  0  0  0  0  0  0
  -26.1750  -14.8889   20.1276 C   0  0  0  0  0  0  0  0  0  0  0  0
  -26.5598  -24.1032   13.7592 C   0  0  0  0  0  0  0  0  0  0  0  0
  -25.7539  -22.4731   15.1633 C   0  0  0  0  0  0  0  0  0  0  0  0
  -26.9736  -16.7931   19.3718 C   0  0  0  0  0  0  0  0  0  0  0  0
  -28.4912  -14.8400   19.0107 C   0  0  0  0  0  0  0  0  0  0  0  0
  -27.6645  -26.6261   20.7889 C   0  0  0  0  0  0  0  0  0  0  0  0
  -29.3180  -23.9327   21.5199 C   0  0  0  0  0  0  0  0  0  0  0  0
  -29.6942  -20.5648   21.1167 C   0  0  0  0  0  0  0  0  0  0  0  0
  -22.4273  -20.2616   18.4689 C   0  0  0  0  0  0  0  0  0  0  0  0
  -27.1593  -31.3354   22.6926 C   0  0  0  0  0  0  0  0  0  0  0  0
  -25.8098  -25.0754   21.5042 C   0  0  0  0  0  0  0  0  0  0  0  0
  -27.6704  -23.7639   19.6167 C   0  0  0  0  0  0  0  0  0  0  0  0
  -28.2355  -30.2534   22.7275 C   0  0  0  0  0  0  0  0  0  0  0  0
  -23.8524  -19.8365   21.7038 C   0  0  0  0  0  0  0  0  0  0  0  0
  -28.5049  -29.7229   21.3230 C   0  0  0  0  0  0  0  0  0  0  0  0
  -24.6998  -18.5704   21.5667 C   0  0  0  0  0  0  0  0  0  0  0  0
  -22.5649  -19.7450   20.8877 C   0  0  0  0  0  0  0  0  0  0  0  0
  -23.6042  -18.1460   19.3266 C   0  0  0  0  0  0  0  0  0  0  0  0
  -27.2481  -29.0783   20.7262 C   0  0  1  0  0  0  0  0  0  0  0  0
  -27.3078  -25.3640   21.5221 C   0  0  1  0  0  0  0  0  0  0  0  0
  -24.9394  -18.2135   20.0874 C   0  0  2  0  0  0  0  0  0  0  0  0
  -28.8815  -24.0188   12.7923 C   0  0  0  0  0  0  0  0  0  0  0  0
  -27.1315  -20.4792   15.8412 C   0  0  0  0  0  0  0  0  0  0  0  0
  -26.3038  -25.3898   13.0450 C   0  0  0  0  0  0  0  0  0  0  0  0
  -30.6218  -18.2638   21.4938 C   0  0  0  0  0  0  0  0  0  0  0  0
  -31.4696  -24.8752   19.5725 C   0  0  0  0  0  0  0  0  0  0  0  0
  -32.3999  -22.5508   19.5841 C   0  0  0  0  0  0  0  0  0  0  0  0
  -32.3455  -23.8812   21.6936 C   0  0  0  0  0  0  0  0  0  0  0  0
  -27.7868  -20.0302   23.3156 C   0  0  0  0  0  0  0  0  0  0  0  0
  -23.5936  -21.1093   15.2083 C   0  0  0  0  0  0  0  0  0  0  0  0
  -22.3841  -20.6488   16.0179 C   0  0  0  0  0  0  0  0  0  0  0  0
  -24.6013  -21.9635   15.9966 C   0  0  2  0  0  0  0  0  0  1  0  0
  -30.1858  -22.9683   20.7479 C   0  0  1  0  0  0  0  0  0  0  0  0
  -29.9022  -19.4470   22.1224 C   0  0  2  0  0  0  0  0  0  0  0  0
  -31.5731  -23.5736   20.3923 C   0  0  0  0  0  0  0  0  0  0  0  0
  -25.2283  -15.7862   20.4150 N   0  0  0  0  0  0  0  0  0  0  0  0
  -25.5368  -23.6364   14.5097 N   0  0  0  0  0  0  0  0  0  0  0  0
  -25.7432  -16.9345   19.9432 N   0  0  0  0  0  0  0  0  0  0  0  0
  -28.0983  -24.2855   20.9253 N   0  0  0  0  0  0  0  0  0  0  0  0
  -22.8620  -19.4053   19.4940 N   0  0  0  0  0  0  0  0  0  0  0  0
  -27.6344  -17.8467   18.8469 N   0  0  0  0  0  0  0  0  0  0  0  0
  -28.6498  -13.4603   19.1997 N   0  0  0  0  0  0  0  0  0  0  0  0
  -27.0444  -27.7579   21.2826 N   0  0  0  0  0  0  0  0  0  0  0  0
  -30.2527  -21.7497   21.5473 N   0  0  0  0  0  0  0  0  0  0  0  0
  -22.7561  -19.8689   17.1772 N   0  0  0  0  0  0  0  0  0  0  0  0
  -28.5911  -18.9736   22.6494 N   0  3  0  0  0  0  0  0  0  0  0  0
  -29.4081  -15.4932   18.4575 O   0  0  0  0  0  0  0  0  0  0  0  0
  -28.4458  -26.5768   19.8461 O   0  0  0  0  0  0  0  0  0  0  0  0
  -29.7049  -24.3519   22.6137 O   0  0  0  0  0  0  0  0  0  0  0  0
  -29.0992  -20.4022   20.0536 O   0  0  0  0  0  0  0  0  0  0  0  0
  -21.7978  -21.3019   18.6888 O   0  0  0  0  0  0  0  0  0  0  0  0
  -25.4623   -9.5173   21.5078 O   0  0  0  0  0  0  0  0  0  0  0  0
  -23.9220  -23.0923   16.5449 O   0  0  0  0  0  0  0  0  0  1  0  0
  -20.5653   -7.2240   20.4288 F   0  0  0  0  0  0  0  0  0  0  0  0
  -23.1468  -10.5204   22.6368 F   0  0  0  0  0  0  0  0  0  0  0  0
  1  2  1  0  0  0  0
  1  5  2  0  0  0  0
  2  6  2  0  0  0  0
  3  8  2  0  0  0  0
  3 16  1  0  0  0  0
  4  9  1  0  0  0  0
  4 16  2  0  0  0  0
  5 18  1  0  0  0  0
  6 20  1  0  0  0  0
  7 10  2  0  0  0  0
  7 19  1  0  0  0  0
  8 24  1  0  0  0  0
  9 24  2  0  0  0  0
 10 25  1  0  0  0  0
 11 12  2  0  0  0  0
 11 26  1  0  0  0  0
 12 27  1  0  0  0  0
 13 21  1  0  0  0  0
 13 25  2  0  0  0  0
 14 22  2  0  0  0  0
 14 23  1  0  0  0  0
 15 27  2  0  0  0  0
 15 28  1  0  0  0  0
 16 29  1  0  0  0  0
 17 29  1  0  0  0  0
 17 32  2  0  0  0  0
 17 33  1  0  0  0  0
 18 20  2  0  0  0  0
 18 38  1  0  0  0  0
 19 21  2  0  0  0  0
 19 39  1  0  0  0  0
 20 47  1  0  0  0  0
 21 40  1  0  0  0  0
 22 30  1  0  0  0  0
 22 50  1  0  0  0  0
 23 31  2  0  0  0  0
 23 51  1  0  0  0  0
 24 80  1  0  0  0  0
 25 81  1  0  0  0  0
 26 28  2  0  0  0  0
 26 80  1  0  0  0  0
 27 82  1  0  0  0  0
 28 83  1  0  0  0  0
 29 64  2  0  0  0  0
 30 52  1  0  0  0  0
 30 65  2  0  0  0  0
 31 60  1  0  0  0  0
 31 65  1  0  0  0  0
 32 66  1  0  0  0  0
 32 69  1  0  0  0  0
 33 70  1  0  0  0  0
 33 75  2  0  0  0  0
 34 48  1  0  0  0  0
 34 71  1  0  0  0  0
 34 76  2  0  0  0  0
 35 61  1  0  0  0  0
 35 67  1  0  0  0  0
 35 77  2  0  0  0  0
 36 62  1  0  0  0  0
 36 72  1  0  0  0  0
 36 78  2  0  0  0  0
 37 68  1  0  0  0  0
 37 73  1  0  0  0  0
 37 79  2  0  0  0  0
 38 41  1  0  0  0  0
 39 48  1  0  0  0  0
 40 67  1  0  0  0  0
 41 43  1  0  0  0  0
 42 44  1  0  0  0  0
 42 45  1  0  0  0  0
 43 47  1  0  0  0  0
 44 49  1  0  0  0  0
 45 68  1  0  0  0  0
 46 49  1  0  0  0  0
 46 68  1  0  0  0  0
 47 71  1  0  0  0  0
 48 67  1  0  0  0  0
 49 66  1  0  0  0  0
 53 62  1  0  0  0  0
 54 63  1  0  0  0  0
 55 63  1  0  0  0  0
 56 63  1  0  0  0  0
 57 74  1  0  0  0  0
 58 59  1  0  0  0  0
 58 60  1  0  0  0  0
 59 73  1  0  0  0  0
 60 81  1  0  0  0  0
 61 63  1  0  0  0  0
 61 72  1  0  0  0  0
 62 74  1  0  0  0  0
 64 66  1  0  0  0  0
M  CHG  1  74   1
M  ISO  4  37 100  60 101  73 100  81 101
M  END
> <Batch ID>
0086

> <Smiles>
CNC(C)C(=O)NC(C(=O)N1Cc2cc([101O:1][101CH:1](CC[100NH:0][100C:0](=O)N3CCCC(n4nc(-c5ccc(Oc6ccc(F)cc6F)cc5)c(C(N)=O)c4N)C3)c3nc(C)c(C)cc3C)ccc2CC1C(=O)NC1CCCc2ccccc21)C(C)(C)C

> <Shape>
0.189

> <Color>
0.084

> <Negative vol penalty>
0.000

$$$$

  -OEChem-04052318593D

 83 91  0     1  0  0  0  0  0999 V2000
  -21.8808  -11.9705   22.0170 C   0  0  0  0  0  0  0  0  0  0  0  0
  -22.2058  -13.1775   22.6277 C   0  0  0  0  0  0  0  0  0  0  0  0
  -24.8884  -29.3497   19.6315 C   0  0  0  0  0  0  0  0  0  0  0  0
  -25.4448  -27.0981   20.3082 C   0  0  0  0  0  0  0  0  0  0  0  0
  -22.7834  -11.3682   21.1415 C   0  0  0  0  0  0  0  0  0  0  0  0
  -23.4341  -13.7825   22.3639 C   0  0  0  0  0  0  0  0  0  0  0  0
  -23.0087  -18.7584   21.5249 C   0  0  0  0  0  0  0  0  0  0  0  0
  -26.2388  -29.6961   19.6739 C   0  0  0  0  0  0  0  0  0  0  0  0
  -26.7953  -27.4445   20.3505 C   0  0  0  0  0  0  0  0  0  0  0  0
  -22.8511  -19.5809   22.6396 C   0  0  0  0  0  0  0  0  0  0  0  0
  -29.3220  -27.8859   18.1501 C   0  0  0  0  0  0  0  0  0  0  0  0
  -30.2346  -27.0016   17.5751 C   0  0  0  0  0  0  0  0  0  0  0  0
  -25.1958  -20.1412   22.5501 C   0  0  0  0  0  0  0  0  0  0  0  0
  -22.2494  -22.7057   26.6829 C   0  0  0  0  0  0  0  0  0  0  0  0
  -31.3384  -26.7528   19.7098 C   0  0  0  0  0  0  0  0  0  0  0  0
  -24.4913  -28.0506   19.9487 C   0  0  0  0  0  0  0  0  0  0  0  0
  -22.3827  -27.1845   18.8036 C   0  0  0  0  0  0  0  0  0  0  0  0
  -24.0194  -11.9710   20.8595 C   0  0  0  0  0  0  0  0  0  0  0  0
  -24.2654  -18.6124   20.9201 C   0  0  0  0  0  0  0  0  0  0  0  0
  -24.3547  -13.1871   21.4849 C   0  0  0  0  0  0  0  0  0  0  0  0
  -25.3661  -19.3183   21.4263 C   0  0  0  0  0  0  0  0  0  0  0  0
  -23.6327  -22.8017   26.5813 C   0  0  0  0  0  0  0  0  0  0  0  0
  -24.2357  -24.0537   26.5363 C   0  0  0  0  0  0  0  0  0  0  0  0
  -27.1923  -28.7436   20.0333 C   0  0  0  0  0  0  0  0  0  0  0  0
  -23.9453  -20.2702   23.1541 C   0  0  0  0  0  0  0  0  0  0  0  0
  -29.4175  -28.2038   19.5050 C   0  0  0  0  0  0  0  0  0  0  0  0
  -31.2428  -26.4351   18.3550 C   0  0  0  0  0  0  0  0  0  0  0  0
  -30.4257  -27.6372   20.2848 C   0  0  0  0  0  0  0  0  0  0  0  0
  -23.0964  -27.6923   19.9057 C   0  0  0  0  0  0  0  0  0  0  0  0
  -21.5197  -23.8824   26.7357 C   0  0  0  0  0  0  0  0  0  0  0  0
  -23.4172  -25.1701   26.5954 C   0  0  0  0  0  0  0  0  0  0  0  0
  -21.1042  -27.0089   19.2738 C   0  0  0  0  0  0  0  0  0  0  0  0
  -22.8351  -26.8971   17.4737 C   0  0  0  0  0  0  0  0  0  0  0  0
  -26.2510  -16.1786   20.4325 C   0  0  0  0  0  0  0  0  0  0  0  0
  -27.9148  -18.3837   18.7320 C   0  0  0  0  0  0  0  0  0  0  0  0
  -29.2366  -21.6962   18.1863 C   0  0  0  0  0  0  0  0  0  0  0  0
  -18.8616  -26.1162   24.7533 C   0  0  0  0  0  0  0  0  0  0  0  0
  -24.9821  -11.2585   19.9428 C   0  0  0  0  0  0  0  0  0  0  0  0
  -24.4132  -17.7423   19.7021 C   0  0  0  0  0  0  0  0  0  0  0  0
  -26.7323  -19.2116   20.8012 C   0  0  0  0  0  0  0  0  0  0  0  0
  -26.1071  -12.1524   19.4274 C   0  0  0  0  0  0  0  0  0  0  0  0
  -18.0304  -28.7465   22.5023 C   0  0  0  0  0  0  0  0  0  0  0  0
  -26.7123  -12.9614   20.5702 C   0  0  0  0  0  0  0  0  0  0  0  0
  -19.1701  -28.7288   21.4821 C   0  0  0  0  0  0  0  0  0  0  0  0
  -18.5271  -28.4210   23.9091 C   0  0  0  0  0  0  0  0  0  0  0  0
  -20.4309  -27.1467   23.0006 C   0  0  0  0  0  0  0  0  0  0  0  0
  -25.6671  -13.8867   21.2050 C   0  0  1  0  0  0  0  0  0  0  0  0
  -25.8452  -17.2660   19.4783 C   0  0  1  0  0  0  0  0  0  0  0  0
  -19.9698  -27.4143   21.5577 C   0  0  2  0  0  0  0  0  0  0  0  0
  -25.7177  -24.1874   26.4299 C   0  0  0  0  0  0  0  0  0  0  0  0
  -24.0069  -26.5420   26.5528 C   0  0  0  0  0  0  0  0  0  0  0  0
  -30.5470  -22.6333   16.2622 C   0  0  0  0  0  0  0  0  0  0  0  0
  -30.3535  -17.6595   20.4167 C   0  0  0  0  0  0  0  0  0  0  0  0
  -31.4386  -19.7738   19.6291 C   0  0  0  0  0  0  0  0  0  0  0  0
  -30.8290  -17.9995   17.9850 C   0  0  0  0  0  0  0  0  0  0  0  0
  -27.2881  -23.8855   17.7748 C   0  0  0  0  0  0  0  0  0  0  0  0
  -24.4534  -21.5364   26.5191 C   0  0  0  0  0  0  0  0  0  0  0  0
  -20.0330  -23.8178   26.8461 C   0  0  0  0  0  0  0  0  0  0  0  0
  -19.3178  -23.7908   25.4904 C   0  0  0  0  0  0  0  0  0  0  0  0
  -24.9229  -21.2189   25.1035 C   0  0  0  0  0  0  0  0  0  1  0  0
  -29.0007  -19.3828   19.0507 C   0  0  1  0  0  0  0  0  0  0  0  0
  -29.1728  -22.4995   16.8998 C   0  0  2  0  0  0  0  0  0  0  0  0
  -30.3802  -18.7046   19.2835 C   0  0  0  0  0  0  0  0  0  0  0  0
  -22.3345  -27.8305   20.9940 N   0  0  0  0  0  0  0  0  0  0  0  0
  -22.0700  -25.1166   26.6944 N   0  0  0  0  0  0  0  0  0  0  0  0
  -21.1288  -27.4071   20.5780 N   0  0  0  0  0  0  0  0  0  0  0  0
  -26.8272  -18.3434   19.6160 N   0  0  0  0  0  0  0  0  0  0  0  0
  -19.2761  -27.1620   23.9121 N   0  0  0  0  0  0  0  0  0  0  0  0
  -19.9726  -26.5545   18.6947 N   0  0  0  0  0  0  0  0  0  0  0  0
  -24.1799  -27.1357   17.1593 N   0  0  0  0  0  0  0  0  0  0  0  0
  -25.4528  -15.0522   20.3743 N   0  0  0  0  0  0  0  0  0  0  0  0
  -28.9897  -20.3577   17.9654 N   0  0  0  0  0  0  0  0  0  0  0  0
  -19.6230  -24.9556   24.6899 N   0  0  0  0  0  0  0  0  0  0  0  0
  -28.6442  -23.8668   17.1685 N   0  3  0  0  0  0  0  0  0  0  0  0
  -22.0656  -26.4576   16.5859 O   0  0  0  0  0  0  0  0  0  0  0  0
  -27.2177  -16.3484   21.1662 O   0  0  0  0  0  0  0  0  0  0  0  0
  -28.0239  -17.6705   17.7315 O   0  0  0  0  0  0  0  0  0  0  0  0
  -29.4845  -22.2046   19.2774 O   0  0  0  0  0  0  0  0  0  0  0  0
  -17.8823  -26.2080   25.5012 O   0  0  0  0  0  0  0  0  0  0  0  0
  -28.5102  -29.0813   20.0745 O   0  0  0  0  0  0  0  0  0  0  0  0
  -23.7944  -21.0731   24.2424 O   0  0  0  0  0  0  0  0  0  1  0  0
  -32.1183  -25.5847   17.8030 F   0  0  0  0  0  0  0  0  0  0  0  0
  -30.5219  -27.9378   21.5872 F   0  0  0  0  0  0  0  0  0  0  0  0
  1  2  1  0  0  0  0
  1  5  2  0  0  0  0
  2  6  2  0  0  0  0
  3  8  2  0  0  0  0
  3 16  1  0  0  0  0
  4  9  1  0  0  0  0
  4 16  2  0  0  0  0
  5 18  1  0  0  0  0
  6 20  1  0  0  0  0
  7 10  2  0  0  0  0
  7 19  1  0  0  0  0
  8 24  1  0  0  0  0
  9 24  2  0  0  0  0
 10 25  1  0  0  0  0
 11 12  2  0  0  0  0
 11 26  1  0  0  0  0
 12 27  1  0  0  0  0
 13 21  1  0  0  0  0
 13 25  2  0  0  0  0
 14 22  1  0  0  0  0
 14 30  2  0  0  0  0
 15 27  2  0  0  0  0
 15 28  1  0  0  0  0
 16 29  1  0  0  0  0
 17 29  1  0  0  0  0
 17 32  2  0  0  0  0
 17 33  1  0  0  0  0
 18 20  2  0  0  0  0
 18 38  1  0  0  0  0
 19 21  2  0  0  0  0
 19 39  1  0  0  0  0
 20 47  1  0  0  0  0
 21 40  1  0  0  0  0
 22 23  2  0  0  0  0
 22 57  1  0  0  0  0
 23 31  1  0  0  0  0
 23 50  1  0  0  0  0
 24 80  1  0  0  0  0
 25 81  1  0  0  0  0
 26 28  2  0  0  0  0
 26 80  1  0  0  0  0
 27 82  1  0  0  0  0
 28 83  1  0  0  0  0
 29 64  2  0  0  0  0
 30 58  1  0  0  0  0
 30 65  1  0  0  0  0
 31 51  1  0  0  0  0
 31 65  2  0  0  0  0
 32 66  1  0  0  0  0
 32 69  1  0  0  0  0
 33 70  1  0  0  0  0
 33 75  2  0  0  0  0
 34 48  1  0  0  0  0
 34 71  1  0  0  0  0
 34 76  2  0  0  0  0
 35 61  1  0  0  0  0
 35 67  1  0  0  0  0
 35 77  2  0  0  0  0
 36 62  1  0  0  0  0
 36 72  1  0  0  0  0
 36 78  2  0  0  0  0
 37 68  1  0  0  0  0
 37 73  1  0  0  0  0
 37 79  2  0  0  0  0
 38 41  1  0  0  0  0
 39 48  1  0  0  0  0
 40 67  1  0  0  0  0
 41 43  1  0  0  0  0
 42 44  1  0  0  0  0
 42 45  1  0  0  0  0
 43 47  1  0  0  0  0
 44 49  1  0  0  0  0
 45 68  1  0  0  0  0
 46 49  1  0  0  0  0
 46 68  1  0  0  0  0
 47 71  1  0  0  0  0
 48 67  1  0  0  0  0
 49 66  1  0  0  0  0
 52 62  1  0  0  0  0
 53 63  1  0  0  0  0
 54 63  1  0  0  0  0
 55 63  1  0  0  0  0
 56 74  1  0  0  0  0
 57 60  1  0  0  0  0
 58 59  1  0  0  0  0
 59 73  1  0  0  0  0
 60 81  1  0  0  0  0
 61 63  1  0  0  0  0
 61 72  1  0  0  0  0
 62 74  1  0  0  0  0
 64 66  1  0  0  0  0
M  CHG  1  74   1
M  ISO  4  37 100  60 101  73 100  81 101
M  END
> <Batch ID>
0086

> <Smiles>
CNC(C)C(=O)NC(C(=O)N1Cc2cc([101O:1][101CH2:1]Cc3cc(CC[100NH:0][100C:0](=O)N4CCCC(n5nc(-c6ccc(Oc7ccc(F)cc7F)cc6)c(C(N)=O)c5N)C4)nc(C)c3C)ccc2CC1C(=O)NC1CCCc2ccccc21)C(C)(C)C

> <Shape>
0.211

> <Color>
0.082

> <Negative vol penalty>
0.000

$$$$

  -OEChem-04052318593D

 83 91  0     1  0  0  0  0  0999 V2000
  -16.7671  -23.3928   24.8494 C   0  0  0  0  0  0  0  0  0  0  0  0
  -17.8526  -22.6812   24.3488 C   0  0  0  0  0  0  0  0  0  0  0  0
  -25.7271  -15.0710   21.3781 C   0  0  0  0  0  0  0  0  0  0  0  0
  -24.8495  -17.0222   20.2558 C   0  0  0  0  0  0  0  0  0  0  0  0
  -16.5773  -24.7238   24.4801 C   0  0  0  0  0  0  0  0  0  0  0  0
  -18.7485  -23.2999   23.4776 C   0  0  0  0  0  0  0  0  0  0  0  0
  -24.7863  -22.3415   23.1135 C   0  0  0  0  0  0  0  0  0  0  0  0
  -24.4653  -14.4782   21.3343 C   0  0  0  0  0  0  0  0  0  0  0  0
  -23.5876  -16.4294   20.2120 C   0  0  0  0  0  0  0  0  0  0  0  0
  -25.5622  -21.5610   22.2575 C   0  0  0  0  0  0  0  0  0  0  0  0
  -22.5485  -12.8649   19.0637 C   0  0  0  0  0  0  0  0  0  0  0  0
  -22.4736  -11.5276   18.6740 C   0  0  0  0  0  0  0  0  0  0  0  0
  -25.9693  -23.4944   20.8735 C   0  0  0  0  0  0  0  0  0  0  0  0
  -21.4812  -10.9628   20.8032 C   0  0  0  0  0  0  0  0  0  0  0  0
  -32.2010  -25.8484   21.1641 C   0  0  0  0  0  0  0  0  0  0  0  0
  -25.9192  -16.3430   20.8389 C   0  0  0  0  0  0  0  0  0  0  0  0
  -28.2416  -16.8591   19.9182 C   0  0  0  0  0  0  0  0  0  0  0  0
  -17.4767  -25.3620   23.6115 C   0  0  0  0  0  0  0  0  0  0  0  0
  -24.5868  -23.7042   22.8494 C   0  0  0  0  0  0  0  0  0  0  0  0
  -18.5699  -24.6402   23.0952 C   0  0  0  0  0  0  0  0  0  0  0  0
  -25.1926  -24.2905   21.7290 C   0  0  0  0  0  0  0  0  0  0  0  0
  -23.3955  -15.1574   20.7513 C   0  0  0  0  0  0  0  0  0  0  0  0
  -26.1515  -22.1368   21.1358 C   0  0  0  0  0  0  0  0  0  0  0  0
  -22.0898  -13.2511   20.3231 C   0  0  0  0  0  0  0  0  0  0  0  0
  -21.9400  -10.5766   19.5438 C   0  0  0  0  0  0  0  0  0  0  0  0
  -21.5562  -12.3001   21.1928 C   0  0  0  0  0  0  0  0  0  0  0  0
  -27.2224  -16.9561   20.8844 C   0  0  0  0  0  0  0  0  0  0  0  0
  -31.9280  -24.5935   20.6975 C   0  0  0  0  0  0  0  0  0  0  0  0
  -29.2697  -17.6149   20.4266 C   0  0  0  0  0  0  0  0  0  0  0  0
  -30.6923  -26.0312   19.5545 C   0  0  0  0  0  0  0  0  0  0  0  0
  -28.2577  -16.1493   18.6725 C   0  0  0  0  0  0  0  0  0  0  0  0
  -22.0531  -25.5223   22.2339 C   0  0  0  0  0  0  0  0  0  0  0  0
  -24.2230  -27.9271   22.4102 C   0  0  0  0  0  0  0  0  0  0  0  0
  -27.4809  -28.9134   22.1651 C   0  0  0  0  0  0  0  0  0  0  0  0
  -31.1337  -22.2473   22.9188 C   0  0  0  0  0  0  0  0  0  0  0  0
  -17.2039  -26.7881   23.2035 C   0  0  0  0  0  0  0  0  0  0  0  0
  -23.7690  -24.5383   23.7971 C   0  0  0  0  0  0  0  0  0  0  0  0
  -25.0259  -25.7535   21.4121 C   0  0  0  0  0  0  0  0  0  0  0  0
  -18.4077  -27.4817   22.5712 C   0  0  0  0  0  0  0  0  0  0  0  0
  -29.9066  -19.6447   25.0158 C   0  0  0  0  0  0  0  0  0  0  0  0
  -19.0580  -26.5777   21.5287 C   0  0  0  0  0  0  0  0  0  0  0  0
  -29.1781  -18.7091   24.0493 C   0  0  0  0  0  0  0  0  0  0  0  0
  -29.7369  -21.1095   24.6190 C   0  0  0  0  0  0  0  0  0  0  0  0
  -29.3838  -20.4862   22.2609 C   0  0  0  0  0  0  0  0  0  0  0  0
  -19.5773  -25.2839   22.1674 C   0  0  1  0  0  0  0  0  0  0  0  0
  -23.2102  -25.8022   23.1508 C   0  0  1  0  0  0  0  0  0  0  0  0
  -29.5725  -18.9949   22.5878 C   0  0  2  0  0  0  0  0  0  0  0  0
  -29.7290  -26.6195   18.5909 C   0  0  0  0  0  0  0  0  0  0  0  0
  -28.9402  -30.9487   22.3245 C   0  0  0  0  0  0  0  0  0  0  0  0
  -26.3573  -20.6227   18.0901 C   0  0  0  0  0  0  0  0  0  0  0  0
  -23.2574  -28.8318   19.6609 C   0  0  0  0  0  0  0  0  0  0  0  0
  -25.3308  -30.2216   19.4670 C   0  0  0  0  0  0  0  0  0  0  0  0
  -23.6830  -30.6893   21.2804 C   0  0  0  0  0  0  0  0  0  0  0  0
  -29.0232  -27.7736   24.4191 C   0  0  0  0  0  0  0  0  0  0  0  0
  -32.4663  -23.2894   21.1029 C   0  0  0  0  0  0  0  0  0  0  0  0
  -28.9597  -23.2473   19.3181 C   0  0  0  0  0  0  0  0  0  0  0  0
  -28.3720  -22.0902   18.4989 C   0  0  0  0  0  0  0  0  0  0  0  0
  -30.3876  -23.6138   18.8968 C   0  0  0  0  0  0  0  0  0  0  0  0
  -25.1312  -28.6220   21.4247 C   0  0  1  0  0  0  0  0  0  0  0  0
  -28.3462  -29.7668   23.0748 C   0  0  2  0  0  0  0  0  0  0  0  0
  -26.9372  -21.7578   18.9233 C   0  0  2  0  0  0  0  0  0  1  0  0
  -24.3523  -29.5632   20.4629 C   0  0  0  0  0  0  0  0  0  0  0  0
  -27.5712  -17.7137   21.9276 N   0  0  0  0  0  0  0  0  0  0  0  0
  -30.9911  -24.7365   19.7026 N   0  0  0  0  0  0  0  0  0  0  0  0
  -28.8212  -18.0995   21.6200 N   0  0  0  0  0  0  0  0  0  0  0  0
  -31.4227  -26.7181   20.4390 N   0  3  0  0  0  0  0  0  0  0  0  0
  -24.2120  -26.5257   22.3653 N   0  0  0  0  0  0  0  0  0  0  0  0
  -30.1294  -21.3134   23.2225 N   0  0  0  0  0  0  0  0  0  0  0  0
  -30.5044  -17.9055   19.9647 N   0  0  0  0  0  0  0  0  0  0  0  0
  -27.1176  -15.4229   18.3027 N   0  0  0  0  0  0  0  0  0  0  0  0
  -20.8227  -25.5281   22.8629 N   0  0  0  0  0  0  0  0  0  0  0  0
  -26.1563  -29.2927   22.2169 N   0  0  0  0  0  0  0  0  0  0  0  0
  -31.4496  -22.3743   21.5717 N   0  0  0  0  0  0  0  0  0  0  0  0
  -29.4640  -28.9565   23.6360 N   0  3  0  0  0  0  0  0  0  0  0  0
  -29.2596  -16.1456   17.9178 O   0  0  0  0  0  0  0  0  0  0  0  0
  -22.2611  -25.3178   21.0437 O   0  0  0  0  0  0  0  0  0  0  0  0
  -23.5536  -28.6025   23.1959 O   0  0  0  0  0  0  0  0  0  0  0  0
  -27.9353  -28.0039   21.4745 O   0  0  0  0  0  0  0  0  0  0  0  0
  -31.7102  -22.9144   23.7846 O   0  0  0  0  0  0  0  0  0  0  0  0
  -22.1641  -14.5792   20.7081 O   0  0  0  0  0  0  0  0  0  0  0  0
  -26.9087  -21.3771   20.2983 O   0  0  0  0  0  0  0  0  0  1  0  0
  -21.8667   -9.2928   19.1689 F   0  0  0  0  0  0  0  0  0  0  0  0
  -21.1128  -12.6653   22.4036 F   0  0  0  0  0  0  0  0  0  0  0  0
  1  2  1  0  0  0  0
  1  5  2  0  0  0  0
  2  6  2  0  0  0  0
  3  8  2  0  0  0  0
  3 16  1  0  0  0  0
  4  9  1  0  0  0  0
  4 16  2  0  0  0  0
  5 18  1  0  0  0  0
  6 20  1  0  0  0  0
  7 10  2  0  0  0  0
  7 19  1  0  0  0  0
  8 22  1  0  0  0  0
  9 22  2  0  0  0  0
 10 23  1  0  0  0  0
 11 12  2  0  0  0  0
 11 24  1  0  0  0  0
 12 25  1  0  0  0  0
 13 21  1  0  0  0  0
 13 23  2  0  0  0  0
 14 25  2  0  0  0  0
 14 26  1  0  0  0  0
 15 28  2  0  0  0  0
 15 66  1  0  0  0  0
 16 27  1  0  0  0  0
 17 27  1  0  0  0  0
 17 29  2  0  0  0  0
 17 31  1  0  0  0  0
 18 20  2  0  0  0  0
 18 36  1  0  0  0  0
 19 21  2  0  0  0  0
 19 37  1  0  0  0  0
 20 45  1  0  0  0  0
 21 38  1  0  0  0  0
 22 80  1  0  0  0  0
 23 81  1  0  0  0  0
 24 26  2  0  0  0  0
 24 80  1  0  0  0  0
 25 82  1  0  0  0  0
 26 83  1  0  0  0  0
 27 63  2  0  0  0  0
 28 55  1  0  0  0  0
 28 64  1  0  0  0  0
 29 65  1  0  0  0  0
 29 69  1  0  0  0  0
 30 48  1  0  0  0  0
 30 64  1  0  0  0  0
 30 66  2  0  0  0  0
 31 70  1  0  0  0  0
 31 75  2  0  0  0  0
 32 46  1  0  0  0  0
 32 71  1  0  0  0  0
 32 76  2  0  0  0  0
 33 59  1  0  0  0  0
 33 67  1  0  0  0  0
 33 77  2  0  0  0  0
 34 60  1  0  0  0  0
 34 72  1  0  0  0  0
 34 78  2  0  0  0  0
 35 68  1  0  0  0  0
 35 73  1  0  0  0  0
 35 79  2  0  0  0  0
 36 39  1  0  0  0  0
 37 46  1  0  0  0  0
 38 67  1  0  0  0  0
 39 41  1  0  0  0  0
 40 42  1  0  0  0  0
 40 43  1  0  0  0  0
 41 45  1  0  0  0  0
 42 47  1  0  0  0  0
 43 68  1  0  0  0  0
 44 47  1  0  0  0  0
 44 68  1  0  0  0  0
 45 71  1  0  0  0  0
 46 67  1  0  0  0  0
 47 65  1  0  0  0  0
 49 60  1  0  0  0  0
 50 61  1  0  0  0  0
 51 62  1  0  0  0  0
 52 62  1  0  0  0  0
 53 62  1  0  0  0  0
 54 74  1  0  0  0  0
 55 73  1  0  0  0  0
 56 57  1  0  0  0  0
 56 58  1  0  0  0  0
 57 61  1  0  0  0  0
 58 64  1  0  0  0  0
 59 62  1  0  0  0  0
 59 72  1  0  0  0  0
 60 74  1  0  0  0  0
 61 81  1  0  0  0  0
 63 65  1  0  0  0  0
M  CHG  2  66   1  74   1
M  ISO  4  35 100  61 101  73 100  81 101
M  END
> <Batch ID>
0086

> <Smiles>
CNC(C)C(=O)NC(C(=O)N1Cc2cc([101O:1][101CH:1](C)CCCn3c(C[100NH:0][100C:0](=O)N4CCCC(n5nc(-c6ccc(Oc7ccc(F)cc7F)cc6)c(C(N)=O)c5N)C4)cnc3C)ccc2CC1C(=O)NC1CCCc2ccccc21)C(C)(C)C

> <Shape>
0.199

> <Color>
0.054

> <Negative vol penalty>
0.000

$$$$

  -OEChem-04052318593D

 89 97  0     1  0  0  0  0  0999 V2000
  -22.7689  -12.0941   25.0835 C   0  0  0  0  0  0  0  0  0  0  0  0
  -23.7315  -13.0900   25.2140 C   0  0  0  0  0  0  0  0  0  0  0  0
  -23.0724   -9.8699   19.9427 C   0  0  0  0  0  0  0  0  0  0  0  0
  -23.8348   -9.8779   22.2352 C   0  0  0  0  0  0  0  0  0  0  0  0
  -21.4939  -12.2847   25.6145 C   0  0  0  0  0  0  0  0  0  0  0  0
  -23.4193  -14.2776   25.8746 C   0  0  0  0  0  0  0  0  0  0  0  0
  -27.0514  -15.7228   29.0939 C   0  0  0  0  0  0  0  0  0  0  0  0
  -22.3291   -8.7168   20.1939 C   0  0  0  0  0  0  0  0  0  0  0  0
  -23.0914   -8.7247   22.4865 C   0  0  0  0  0  0  0  0  0  0  0  0
  -28.1806  -16.3317   28.5482 C   0  0  0  0  0  0  0  0  0  0  0  0
  -19.9445   -5.9760   20.3259 C   0  0  0  0  0  0  0  0  0  0  0  0
  -18.6383   -5.9276   19.8390 C   0  0  0  0  0  0  0  0  0  0  0  0
  -27.2988  -18.4944   29.1518 C   0  0  0  0  0  0  0  0  0  0  0  0
  -18.0742   -7.8709   21.1591 C   0  0  0  0  0  0  0  0  0  0  0  0
  -29.3570  -20.9167   25.8360 C   0  0  0  0  0  0  0  0  0  0  0  0
  -23.8254  -10.4505   20.9634 C   0  0  0  0  0  0  0  0  0  0  0  0
  -24.1667  -12.9757   20.8420 C   0  0  0  0  0  0  0  0  0  0  0  0
  -21.1688  -13.4714   26.2903 C   0  0  0  0  0  0  0  0  0  0  0  0
  -26.0306  -16.4971   29.6639 C   0  0  0  0  0  0  0  0  0  0  0  0
  -22.1383  -14.4849   26.4139 C   0  0  0  0  0  0  0  0  0  0  0  0
  -26.1588  -17.8928   29.7064 C   0  0  0  0  0  0  0  0  0  0  0  0
  -29.5977  -19.6219   25.4460 C   0  0  0  0  0  0  0  0  0  0  0  0
  -22.3385   -8.1441   21.4657 C   0  0  0  0  0  0  0  0  0  0  0  0
  -28.3031  -17.7179   28.5744 C   0  0  0  0  0  0  0  0  0  0  0  0
  -20.3156   -6.9718   21.2294 C   0  0  0  0  0  0  0  0  0  0  0  0
  -17.7032   -6.8751   20.2556 C   0  0  0  0  0  0  0  0  0  0  0  0
  -19.3805   -7.9193   21.6460 C   0  0  0  0  0  0  0  0  0  0  0  0
  -24.5940  -11.6414   20.7043 C   0  0  0  0  0  0  0  0  0  0  0  0
  -28.6596  -19.3820   24.4242 C   0  0  0  0  0  0  0  0  0  0  0  0
  -25.2583  -13.7252   20.4773 C   0  0  0  0  0  0  0  0  0  0  0  0
  -22.8966  -13.4914   21.2622 C   0  0  0  0  0  0  0  0  0  0  0  0
  -22.9485  -16.9575   29.0374 C   0  0  0  0  0  0  0  0  0  0  0  0
  -23.0466  -18.6754   31.7872 C   0  0  0  0  0  0  0  0  0  0  0  0
  -24.9063  -20.4618   34.0226 C   0  0  0  0  0  0  0  0  0  0  0  0
  -30.7421  -14.7452   20.6593 C   0  0  0  0  0  0  0  0  0  0  0  0
  -19.7630  -13.6512   26.8061 C   0  0  0  0  0  0  0  0  0  0  0  0
  -24.8313  -15.8235   30.2724 C   0  0  0  0  0  0  0  0  0  0  0  0
  -25.1005  -18.7679   30.3250 C   0  0  0  0  0  0  0  0  0  0  0  0
  -19.6261  -14.7853   27.8187 C   0  0  0  0  0  0  0  0  0  0  0  0
  -29.6023  -12.3597   18.2747 C   0  0  0  0  0  0  0  0  0  0  0  0
  -20.3440  -16.0356   27.3203 C   0  0  0  0  0  0  0  0  0  0  0  0
  -28.1654  -12.0658   18.7093 C   0  0  0  0  0  0  0  0  0  0  0  0
  -30.5207  -12.5811   19.4745 C   0  0  0  0  0  0  0  0  0  0  0  0
  -28.6203  -13.3123   20.8629 C   0  0  0  0  0  0  0  0  0  0  0  0
  -21.8453  -15.7769   27.1453 C   0  0  1  0  0  0  0  0  0  0  0  0
  -23.6150  -16.7396   30.3663 C   0  0  1  0  0  0  0  0  0  0  0  0
  -27.6449  -13.1371   19.6864 C   0  0  2  0  0  0  0  0  0  0  0  0
  -27.0766  -17.5249   23.9423 C   0  0  0  0  0  0  0  0  0  0  0  0
  -24.7010  -21.7764   36.1503 C   0  0  0  0  0  0  0  0  0  0  0  0
  -21.8342  -21.0023   30.2298 C   0  0  0  0  0  0  0  0  0  0  0  0
  -22.5278  -22.5213   32.0952 C   0  0  0  0  0  0  0  0  0  0  0  0
  -20.8972  -20.6834   32.5265 C   0  0  0  0  0  0  0  0  0  0  0  0
  -29.9071  -18.2112   19.9384 C   0  0  0  0  0  0  0  0  0  0  0  0
  -30.9163  -19.3941   21.8723 C   0  0  0  0  0  0  0  0  0  0  0  0
  -28.7828  -23.7434   24.7883 C   0  0  0  0  0  0  0  0  0  0  0  0
  -27.1166  -22.9149   26.4962 C   0  0  0  0  0  0  0  0  0  0  0  0
  -26.5746  -22.8578   24.0729 C   0  0  0  0  0  0  0  0  0  0  0  0
  -26.7299  -18.6313   35.4658 C   0  0  0  0  0  0  0  0  0  0  0  0
  -30.6382  -18.6781   25.9981 C   0  0  0  0  0  0  0  0  0  0  0  0
  -28.6185  -18.2680   22.0877 C   0  0  0  0  0  0  0  0  0  0  0  0
  -30.8089  -16.8962   21.8953 C   0  0  0  0  0  0  0  0  0  0  0  0
  -30.0402  -17.6493   26.9516 C   0  0  0  0  0  0  0  0  0  1  0  0
  -28.4686  -18.1459   23.6454 C   0  0  1  0  0  0  0  0  0  0  0  0
  -23.3302  -20.1160   32.1383 C   0  0  1  0  0  0  0  0  0  0  0  0
  -24.9805  -20.4126   35.5380 C   0  0  2  0  0  0  0  0  0  0  0  0
  -22.1666  -21.0646   31.7339 C   0  0  0  0  0  0  0  0  0  0  0  0
  -30.0540  -18.1798   21.4791 C   0  0  0  0  0  0  0  0  0  0  0  0
  -27.7208  -22.6646   25.0964 C   0  0  0  0  0  0  0  0  0  0  0  0
  -25.8584  -11.5456   20.2847 N   0  0  0  0  0  0  0  0  0  0  0  0
  -27.8809  -20.4395   24.1804 N   0  0  0  0  0  0  0  0  0  0  0  0
  -28.3292  -21.3564   25.0547 N   0  0  0  0  0  0  0  0  0  0  0  0
  -26.2350  -12.8292   20.1555 N   0  0  0  0  0  0  0  0  0  0  0  0
  -23.9438  -18.0625   30.9011 N   0  0  0  0  0  0  0  0  0  0  0  0
  -29.9709  -13.6098   20.3607 N   0  0  0  0  0  0  0  0  0  0  0  0
  -25.4684  -15.0567   20.4036 N   0  0  0  0  0  0  0  0  0  0  0  0
  -21.8852  -12.5822   21.6009 N   0  0  0  0  0  0  0  0  0  0  0  0
  -22.5143  -15.7955   28.4285 N   0  0  0  0  0  0  0  0  0  0  0  0
  -23.6487  -20.1341   33.5619 N   0  0  0  0  0  0  0  0  0  0  0  0
  -30.1437  -15.6743   21.5017 N   0  0  0  0  0  0  0  0  0  0  0  0
  -26.3341  -19.9691   35.9763 N   0  3  0  0  0  0  0  0  0  0  0  0
  -22.6602  -14.7220   21.3193 O   0  0  0  0  0  0  0  0  0  0  0  0
  -22.8353  -18.0957   28.5977 O   0  0  0  0  0  0  0  0  0  0  0  0
  -22.0691  -18.1124   32.2866 O   0  0  0  0  0  0  0  0  0  0  0  0
  -25.8669  -20.7645   33.3181 O   0  0  0  0  0  0  0  0  0  0  0  0
  -31.8775  -14.9207   20.2044 O   0  0  0  0  0  0  0  0  0  0  0  0
  -21.6130   -7.0190   21.7113 O   0  0  0  0  0  0  0  0  0  0  0  0
  -29.4040  -18.3148   28.0418 O   0  0  0  0  0  0  0  0  0  1  0  0
  -16.4492   -6.8294   19.7868 F   0  0  0  0  0  0  0  0  0  0  0  0
  -19.7314   -8.8790   22.5130 F   0  0  0  0  0  0  0  0  0  0  0  0
  1  2  1  0  0  0  0
  1  5  2  0  0  0  0
  2  6  2  0  0  0  0
  3  8  2  0  0  0  0
  3 16  1  0  0  0  0
  4  9  1  0  0  0  0
  4 16  2  0  0  0  0
  5 18  1  0  0  0  0
  6 20  1  0  0  0  0
  7 10  2  0  0  0  0
  7 19  1  0  0  0  0
  8 23  1  0  0  0  0
  9 23  2  0  0  0  0
 10 24  1  0  0  0  0
 11 12  2  0  0  0  0
 11 25  1  0  0  0  0
 12 26  1  0  0  0  0
 13 21  1  0  0  0  0
 13 24  2  0  0  0  0
 14 26  2  0  0  0  0
 14 27  1  0  0  0  0
 15 22  2  0  0  0  0
 15 71  1  0  0  0  0
 16 28  1  0  0  0  0
 17 28  1  0  0  0  0
 17 30  2  0  0  0  0
 17 31  1  0  0  0  0
 18 20  2  0  0  0  0
 18 36  1  0  0  0  0
 19 21  2  0  0  0  0
 19 37  1  0  0  0  0
 20 45  1  0  0  0  0
 21 38  1  0  0  0  0
 22 29  1  0  0  0  0
 22 59  1  0  0  0  0
 23 86  1  0  0  0  0
 24 87  1  0  0  0  0
 25 27  2  0  0  0  0
 25 86  1  0  0  0  0
 26 88  1  0  0  0  0
 27 89  1  0  0  0  0
 28 69  2  0  0  0  0
 29 63  1  0  0  0  0
 29 70  2  0  0  0  0
 30 72  1  0  0  0  0
 30 75  1  0  0  0  0
 31 76  1  0  0  0  0
 31 81  2  0  0  0  0
 32 46  1  0  0  0  0
 32 77  1  0  0  0  0
 32 82  2  0  0  0  0
 33 64  1  0  0  0  0
 33 73  1  0  0  0  0
 33 83  2  0  0  0  0
 34 65  1  0  0  0  0
 34 78  1  0  0  0  0
 34 84  2  0  0  0  0
 35 74  1  0  0  0  0
 35 79  1  0  0  0  0
 35 85  2  0  0  0  0
 36 39  1  0  0  0  0
 37 46  1  0  0  0  0
 38 73  1  0  0  0  0
 39 41  1  0  0  0  0
 40 42  1  0  0  0  0
 40 43  1  0  0  0  0
 41 45  1  0  0  0  0
 42 47  1  0  0  0  0
 43 74  1  0  0  0  0
 44 47  1  0  0  0  0
 44 74  1  0  0  0  0
 45 77  1  0  0  0  0
 46 73  1  0  0  0  0
 47 72  1  0  0  0  0
 48 63  1  0  0  0  0
 49 65  1  0  0  0  0
 50 66  1  0  0  0  0
 51 66  1  0  0  0  0
 52 66  1  0  0  0  0
 53 67  1  0  0  0  0
 54 67  1  0  0  0  0
 55 68  1  0  0  0  0
 56 68  1  0  0  0  0
 57 68  1  0  0  0  0
 58 80  1  0  0  0  0
 59 62  1  0  0  0  0
 60 63  1  0  0  0  0
 60 67  1  0  0  0  0
 61 67  1  0  0  0  0
 61 79  1  0  0  0  0
 62 87  1  0  0  0  0
 64 66  1  0  0  0  0
 64 78  1  0  0  0  0
 65 80  1  0  0  0  0
 68 71  1  0  0  0  0
 69 72  1  0  0  0  0
 70 71  1  0  0  0  0
M  CHG  1  80   1
M  ISO  4  35 100  62 101  79 100  87 101
M  END
> <Batch ID>
0086

> <Smiles>
CNC(C)C(=O)NC(C(=O)N1Cc2cc([101O:1][101CH2:1]Cc3cn(C(C)(C)C)nc3C(C)CC(C)(C)C[100NH:0][100C:0](=O)N3CCCC(n4nc(-c5ccc(Oc6ccc(F)cc6F)cc5)c(C(N)=O)c4N)C3)ccc2CC1C(=O)NC1CCCc2ccccc21)C(C)(C)C

> <Shape>
0.154

> <Color>
0.184

> <Negative vol penalty>
0.000

$$$$

  -OEChem-04052318593D

 91 99  0     1  0  0  0  0  0999 V2000
  -24.0535  -29.1864   25.8037 C   0  0  0  0  0  0  0  0  0  0  0  0
  -24.1481  -28.7677   24.4804 C   0  0  0  0  0  0  0  0  0  0  0  0
  -23.0914   -9.8609   19.9458 C   0  0  0  0  0  0  0  0  0  0  0  0
  -23.6975   -9.9650   22.2822 C   0  0  0  0  0  0  0  0  0  0  0  0
  -25.2007  -29.2668   26.5919 C   0  0  0  0  0  0  0  0  0  0  0  0
  -25.3903  -28.4300   23.9442 C   0  0  0  0  0  0  0  0  0  0  0  0
  -28.4034  -23.9800   19.2077 C   0  0  0  0  0  0  0  0  0  0  0  0
  -22.3351   -8.7152   20.1930 C   0  0  0  0  0  0  0  0  0  0  0  0
  -22.9412   -8.8193   22.5295 C   0  0  0  0  0  0  0  0  0  0  0  0
  -29.2555  -23.9976   18.1043 C   0  0  0  0  0  0  0  0  0  0  0  0
  -23.2757   -5.4788   22.1291 C   0  0  0  0  0  0  0  0  0  0  0  0
  -23.8445   -4.4867   22.9276 C   0  0  0  0  0  0  0  0  0  0  0  0
  -31.1586  -24.0988   19.5832 C   0  0  0  0  0  0  0  0  0  0  0  0
  -31.0705  -20.4254   17.0832 C   0  0  0  0  0  0  0  0  0  0  0  0
  -22.0333   -4.7213   24.5093 C   0  0  0  0  0  0  0  0  0  0  0  0
  -23.7726  -10.4857   20.9904 C   0  0  0  0  0  0  0  0  0  0  0  0
  -24.1161  -13.0055   20.7899 C   0  0  0  0  0  0  0  0  0  0  0  0
  -26.4562  -28.9207   26.0680 C   0  0  0  0  0  0  0  0  0  0  0  0
  -28.9230  -24.0328   20.5091 C   0  0  0  0  0  0  0  0  0  0  0  0
  -26.5555  -28.5071   24.7258 C   0  0  0  0  0  0  0  0  0  0  0  0
  -30.3111  -24.0792   20.7015 C   0  0  0  0  0  0  0  0  0  0  0  0
  -32.1980  -20.6447   16.2998 C   0  0  0  0  0  0  0  0  0  0  0  0
  -30.9809  -19.2726   17.8556 C   0  0  0  0  0  0  0  0  0  0  0  0
  -22.2600   -8.1944   21.4848 C   0  0  0  0  0  0  0  0  0  0  0  0
  -30.6332  -24.0599   18.2919 C   0  0  0  0  0  0  0  0  0  0  0  0
  -22.0858   -6.0923   22.5207 C   0  0  0  0  0  0  0  0  0  0  0  0
  -23.2233   -4.1078   24.1177 C   0  0  0  0  0  0  0  0  0  0  0  0
  -21.4645   -5.7135   23.7108 C   0  0  0  0  0  0  0  0  0  0  0  0
  -24.5545  -11.6689   20.7355 C   0  0  0  0  0  0  0  0  0  0  0  0
  -33.2004  -19.6884   16.3236 C   0  0  0  0  0  0  0  0  0  0  0  0
  -32.0376  -18.3776   17.8096 C   0  0  0  0  0  0  0  0  0  0  0  0
  -25.2283  -13.7449   20.4693 C   0  0  0  0  0  0  0  0  0  0  0  0
  -22.8195  -13.5317   21.1024 C   0  0  0  0  0  0  0  0  0  0  0  0
  -28.6771  -26.0639   22.9418 C   0  0  0  0  0  0  0  0  0  0  0  0
  -30.3560  -23.7765   24.5139 C   0  0  0  0  0  0  0  0  0  0  0  0
  -32.5038  -21.1297   24.3470 C   0  0  0  0  0  0  0  0  0  0  0  0
  -30.5558  -14.8340   21.0844 C   0  0  0  0  0  0  0  0  0  0  0  0
  -27.6745  -29.0688   26.9447 C   0  0  0  0  0  0  0  0  0  0  0  0
  -27.9916  -23.9861   21.6893 C   0  0  0  0  0  0  0  0  0  0  0  0
  -30.9201  -24.1171   22.0785 C   0  0  0  0  0  0  0  0  0  0  0  0
  -28.9018  -28.3345   26.4110 C   0  0  0  0  0  0  0  0  0  0  0  0
  -29.7168  -12.3142   18.6260 C   0  0  0  0  0  0  0  0  0  0  0  0
  -29.0846  -28.6122   24.9223 C   0  0  0  0  0  0  0  0  0  0  0  0
  -28.2520  -12.0333   18.9661 C   0  0  0  0  0  0  0  0  0  0  0  0
  -30.5392  -12.5628   19.8869 C   0  0  0  0  0  0  0  0  0  0  0  0
  -28.5530  -13.3742   21.0994 C   0  0  0  0  0  0  0  0  0  0  0  0
  -27.8817  -28.1086   24.1155 C   0  0  1  0  0  0  0  0  0  0  0  0
  -28.6078  -24.5631   22.9600 C   0  0  1  0  0  0  0  0  0  0  0  0
  -27.6639  -13.1369   19.8652 C   0  0  2  0  0  0  0  0  0  0  0  0
  -34.4342  -19.8696   15.5016 C   0  0  0  0  0  0  0  0  0  0  0  0
  -31.8875  -15.8621   17.7203 C   0  0  0  0  0  0  0  0  0  0  0  0
  -33.8610  -19.1781   25.1511 C   0  0  0  0  0  0  0  0  0  0  0  0
  -28.7450  -20.1958   18.5588 C   0  0  0  0  0  0  0  0  0  0  0  0
  -30.1514  -18.9148   20.2073 C   0  0  0  0  0  0  0  0  0  0  0  0
  -28.9743  -17.7275   18.3672 C   0  0  0  0  0  0  0  0  0  0  0  0
  -32.3571  -25.9487   25.2801 C   0  0  0  0  0  0  0  0  0  0  0  0
  -33.9825  -24.1418   25.8812 C   0  0  0  0  0  0  0  0  0  0  0  0
  -31.8206  -24.3319   27.1110 C   0  0  0  0  0  0  0  0  0  0  0  0
  -34.3780  -16.2515   19.2109 C   0  0  0  0  0  0  0  0  0  0  0  0
  -33.5698  -18.3872   20.2136 C   0  0  0  0  0  0  0  0  0  0  0  0
  -30.2504  -19.2518   23.9535 C   0  0  0  0  0  0  0  0  0  0  0  0
  -32.3014  -21.8928   15.4601 C   0  0  0  0  0  0  0  0  0  0  0  0
  -33.2348  -22.9542   16.0465 C   0  0  0  0  0  0  0  0  0  0  0  0
  -32.6346  -16.1852   20.9836 C   0  0  0  0  0  0  0  0  0  0  0  0
  -32.7607  -23.5002   17.3883 C   0  0  0  0  0  0  0  0  0  1  0  0
  -31.9959  -17.1234   18.6198 C   0  0  1  0  0  0  0  0  0  0  0  0
  -31.8213  -23.4839   24.7292 C   0  0  1  0  0  0  0  0  0  0  0  0
  -32.4636  -19.7575   24.9950 C   0  0  2  0  0  0  0  0  0  0  0  0
  -29.7754  -19.0315   18.6969 C   0  0  0  0  0  0  0  0  0  0  0  0
  -32.4841  -24.4778   25.7243 C   0  0  0  0  0  0  0  0  0  0  0  0
  -33.1241  -16.9824   19.7400 C   0  0  0  0  0  0  0  0  0  0  0  0
  -25.8445  -11.5623   20.4061 N   0  0  0  0  0  0  0  0  0  0  0  0
  -33.1490  -18.5564   17.0609 N   0  0  0  0  0  0  0  0  0  0  0  0
  -26.2263  -12.8414   20.2506 N   0  0  0  0  0  0  0  0  0  0  0  0
  -29.9676  -24.0757   23.2004 N   0  0  0  0  0  0  0  0  0  0  0  0
  -29.9364  -13.6369   20.6888 N   0  0  0  0  0  0  0  0  0  0  0  0
  -25.4402  -15.0733   20.3559 N   0  0  0  0  0  0  0  0  0  0  0  0
  -21.7895  -12.6321   21.4089 N   0  0  0  0  0  0  0  0  0  0  0  0
  -27.9511  -26.6728   23.9476 N   0  0  0  0  0  0  0  0  0  0  0  0
  -31.9025  -22.0858   25.1379 N   0  0  0  0  0  0  0  0  0  0  0  0
  -31.8682  -15.0023   20.6602 N   0  0  0  0  0  0  0  0  0  0  0  0
  -31.6549  -18.8176   24.1683 N   0  3  0  0  0  0  0  0  0  0  0  0
  -22.5773  -14.7625   21.0935 O   0  0  0  0  0  0  0  0  0  0  0  0
  -29.3413  -26.6277   22.0800 O   0  0  0  0  0  0  0  0  0  0  0  0
  -29.5833  -23.7340   25.4745 O   0  0  0  0  0  0  0  0  0  0  0  0
  -33.0204  -21.3337   23.2507 O   0  0  0  0  0  0  0  0  0  0  0  0
  -29.9800  -15.6924   21.7616 O   0  0  0  0  0  0  0  0  0  0  0  0
  -21.5219   -7.0767   21.7265 O   0  0  0  0  0  0  0  0  0  0  0  0
  -31.4671  -24.0778   17.2167 O   0  0  0  0  0  0  0  0  0  1  0  0
  -23.7688   -3.1539   24.8836 F   0  0  0  0  0  0  0  0  0  0  0  0
  -20.3206   -6.2984   24.0916 F   0  0  0  0  0  0  0  0  0  0  0  0
  1  2  1  0  0  0  0
  1  5  2  0  0  0  0
  2  6  2  0  0  0  0
  3  8  2  0  0  0  0
  3 16  1  0  0  0  0
  4  9  1  0  0  0  0
  4 16  2  0  0  0  0
  5 18  1  0  0  0  0
  6 20  1  0  0  0  0
  7 10  2  0  0  0  0
  7 19  1  0  0  0  0
  8 24  1  0  0  0  0
  9 24  2  0  0  0  0
 10 25  1  0  0  0  0
 11 12  2  0  0  0  0
 11 26  1  0  0  0  0
 12 27  1  0  0  0  0
 13 21  1  0  0  0  0
 13 25  2  0  0  0  0
 14 22  1  0  0  0  0
 14 23  2  0  0  0  0
 15 27  2  0  0  0  0
 15 28  1  0  0  0  0
 16 29  1  0  0  0  0
 17 29  1  0  0  0  0
 17 32  2  0  0  0  0
 17 33  1  0  0  0  0
 18 20  2  0  0  0  0
 18 38  1  0  0  0  0
 19 21  2  0  0  0  0
 19 39  1  0  0  0  0
 20 47  1  0  0  0  0
 21 40  1  0  0  0  0
 22 30  2  0  0  0  0
 22 62  1  0  0  0  0
 23 31  1  0  0  0  0
 23 69  1  0  0  0  0
 24 88  1  0  0  0  0
 25 89  1  0  0  0  0
 26 28  2  0  0  0  0
 26 88  1  0  0  0  0
 27 90  1  0  0  0  0
 28 91  1  0  0  0  0
 29 72  2  0  0  0  0
 30 50  1  0  0  0  0
 30 73  1  0  0  0  0
 31 66  1  0  0  0  0
 31 73  2  0  0  0  0
 32 74  1  0  0  0  0
 32 77  1  0  0  0  0
 33 78  1  0  0  0  0
 33 83  2  0  0  0  0
 34 48  1  0  0  0  0
 34 79  1  0  0  0  0
 34 84  2  0  0  0  0
 35 67  1  0  0  0  0
 35 75  1  0  0  0  0
 35 85  2  0  0  0  0
 36 68  1  0  0  0  0
 36 80  1  0  0  0  0
 36 86  2  0  0  0  0
 37 76  1  0  0  0  0
 37 81  1  0  0  0  0
 37 87  2  0  0  0  0
 38 41  1  0  0  0  0
 39 48  1  0  0  0  0
 40 75  1  0  0  0  0
 41 43  1  0  0  0  0
 42 44  1  0  0  0  0
 42 45  1  0  0  0  0
 43 47  1  0  0  0  0
 44 49  1  0  0  0  0
 45 76  1  0  0  0  0
 46 49  1  0  0  0  0
 46 76  1  0  0  0  0
 47 79  1  0  0  0  0
 48 75  1  0  0  0  0
 49 74  1  0  0  0  0
 51 66  1  0  0  0  0
 52 68  1  0  0  0  0
 53 69  1  0  0  0  0
 54 69  1  0  0  0  0
 55 69  1  0  0  0  0
 56 70  1  0  0  0  0
 57 70  1  0  0  0  0
 58 70  1  0  0  0  0
 59 71  1  0  0  0  0
 60 71  1  0  0  0  0
 61 82  1  0  0  0  0
 62 63  1  0  0  0  0
 63 65  1  0  0  0  0
 64 71  1  0  0  0  0
 64 81  1  0  0  0  0
 65 89  1  0  0  0  0
 66 71  1  0  0  0  0
 67 70  1  0  0  0  0
 67 80  1  0  0  0  0
 68 82  1  0  0  0  0
 72 74  1  0  0  0  0
M  CHG  1  82   1
M  ISO  4  37 100  65 101  81 100  89 101
M  END
> <Batch ID>
0086

> <Smiles>
CNC(C)C(=O)NC(C(=O)N1Cc2cc([101O:1][101CH2:1]CCc3cc(C(C)(C)C)c(C(C)C(C)(C)C[100NH:0][100C:0](=O)N4CCCC(n5nc(-c6ccc(Oc7ccc(F)cc7F)cc6)c(C(N)=O)c5N)C4)nc3C)ccc2CC1C(=O)NC1CCCc2ccccc21)C(C)(C)C

> <Shape>
0.236

> <Color>
0.169

> <Negative vol penalty>
0.000

$$$$

  -OEChem-04052318593D

 87 95  0     1  0  0  0  0  0999 V2000
  -32.0681  -13.8692   21.7261 C   0  0  0  0  0  0  0  0  0  0  0  0
  -31.2238  -14.9130   22.0909 C   0  0  0  0  0  0  0  0  0  0  0  0
  -29.0577  -25.8392   19.0835 C   0  0  0  0  0  0  0  0  0  0  0  0
  -27.2311  -24.3329   19.5649 C   0  0  0  0  0  0  0  0  0  0  0  0
  -31.6295  -12.9029   20.8217 C   0  0  0  0  0  0  0  0  0  0  0  0
  -29.9407  -14.9917   21.5506 C   0  0  0  0  0  0  0  0  0  0  0  0
  -24.8889  -17.0362   24.3444 C   0  0  0  0  0  0  0  0  0  0  0  0
  -29.9707  -24.8358   19.4080 C   0  0  0  0  0  0  0  0  0  0  0  0
  -28.1441  -23.3295   19.8894 C   0  0  0  0  0  0  0  0  0  0  0  0
  -24.2313  -18.2651   24.3121 C   0  0  0  0  0  0  0  0  0  0  0  0
  -30.1140  -21.1301   18.2456 C   0  0  0  0  0  0  0  0  0  0  0  0
  -29.8785  -19.8526   17.7374 C   0  0  0  0  0  0  0  0  0  0  0  0
  -22.7333  -17.4123   22.6245 C   0  0  0  0  0  0  0  0  0  0  0  0
  -29.7572  -18.9801   19.9871 C   0  0  0  0  0  0  0  0  0  0  0  0
  -27.6879  -25.5878   19.1620 C   0  0  0  0  0  0  0  0  0  0  0  0
  -26.1894  -26.8921   17.5617 C   0  0  0  0  0  0  0  0  0  0  0  0
  -30.3370  -12.9645   20.2775 C   0  0  0  0  0  0  0  0  0  0  0  0
  -24.4798  -15.9878   23.5077 C   0  0  0  0  0  0  0  0  0  0  0  0
  -29.4849  -14.0261   20.6371 C   0  0  0  0  0  0  0  0  0  0  0  0
  -23.3857  -16.1702   22.6499 C   0  0  0  0  0  0  0  0  0  0  0  0
  -29.5139  -23.5810   19.8109 C   0  0  0  0  0  0  0  0  0  0  0  0
  -23.1551  -18.4543   23.4499 C   0  0  0  0  0  0  0  0  0  0  0  0
  -30.1713  -21.3326   19.6245 C   0  0  0  0  0  0  0  0  0  0  0  0
  -29.7000  -18.7777   18.6082 C   0  0  0  0  0  0  0  0  0  0  0  0
  -29.9928  -20.2576   20.4953 C   0  0  0  0  0  0  0  0  0  0  0  0
  -26.7443  -26.6240   18.8274 C   0  0  0  0  0  0  0  0  0  0  0  0
  -19.5906  -25.0730   22.8724 C   0  0  0  0  0  0  0  0  0  0  0  0
  -21.9714  -24.7328   21.7133 C   0  0  0  0  0  0  0  0  0  0  0  0
  -21.2947  -23.6711   22.2722 C   0  0  0  0  0  0  0  0  0  0  0  0
  -20.2676  -26.1349   22.3143 C   0  0  0  0  0  0  0  0  0  0  0  0
  -25.3585  -27.9655   17.7715 C   0  0  0  0  0  0  0  0  0  0  0  0
  -26.4056  -26.2301   16.3085 C   0  0  0  0  0  0  0  0  0  0  0  0
  -25.8399  -14.3283   21.1625 C   0  0  0  0  0  0  0  0  0  0  0  0
  -23.1065  -12.5901   21.3334 C   0  0  0  0  0  0  0  0  0  0  0  0
  -19.8115  -12.4513   22.2113 C   0  0  0  0  0  0  0  0  0  0  0  0
  -22.4933  -30.0192   22.6114 C   0  0  0  0  0  0  0  0  0  0  0  0
  -29.9243  -11.9232   19.2674 C   0  0  0  0  0  0  0  0  0  0  0  0
  -25.1827  -14.6597   23.5738 C   0  0  0  0  0  0  0  0  0  0  0  0
  -22.8945  -15.0701   21.7462 C   0  0  0  0  0  0  0  0  0  0  0  0
  -28.4176  -11.8707   19.0277 C   0  0  0  0  0  0  0  0  0  0  0  0
  -24.8265  -31.7942   20.5908 C   0  0  0  0  0  0  0  0  0  0  0  0
  -27.8579  -13.2769   18.8378 C   0  0  0  0  0  0  0  0  0  0  0  0
  -25.5325  -30.6946   19.7956 C   0  0  0  0  0  0  0  0  0  0  0  0
  -24.5005  -31.3418   22.0125 C   0  0  0  0  0  0  0  0  0  0  0  0
  -24.4471  -28.9810   21.3070 C   0  0  0  0  0  0  0  0  0  0  0  0
  -28.0772  -14.1320   20.0917 C   0  0  1  0  0  0  0  0  0  0  0  0
  -25.0067  -13.8268   22.3079 C   0  0  1  0  0  0  0  0  0  0  0  0
  -24.7463  -29.3709   19.8493 C   0  0  2  0  0  0  0  0  0  0  0  0
  -18.2613  -25.2531   23.5219 C   0  0  0  0  0  0  0  0  0  0  0  0
  -23.2081  -24.5546   19.5396 C   0  0  0  0  0  0  0  0  0  0  0  0
  -19.3657  -28.0483   20.9199 C   0  0  0  0  0  0  0  0  0  0  0  0
  -17.8318  -10.9093   22.1949 C   0  0  0  0  0  0  0  0  0  0  0  0
  -20.6864  -28.2119   24.6039 C   0  0  0  0  0  0  0  0  0  0  0  0
  -22.7679  -13.0607   18.3378 C   0  0  0  0  0  0  0  0  0  0  0  0
  -20.3783  -12.3496   18.5669 C   0  0  0  0  0  0  0  0  0  0  0  0
  -22.2120  -10.7444   19.0993 C   0  0  0  0  0  0  0  0  0  0  0  0
  -19.5779  -12.5316   25.1606 C   0  0  0  0  0  0  0  0  0  0  0  0
  -23.3006  -24.5523   21.0636 C   0  0  0  0  0  0  0  0  0  0  0  0
  -21.8671  -22.2763   22.2532 C   0  0  0  0  0  0  0  0  0  0  0  0
  -20.8525  -21.1891   22.6139 C   0  0  0  0  0  0  0  0  0  0  0  0
  -21.4173  -19.7772   22.5088 C   0  0  0  0  0  0  0  0  0  1  0  0
  -19.7022  -27.5139   22.3343 C   0  0  2  0  0  0  0  0  0  0  0  0
  -21.7491  -12.6650   20.6769 C   0  0  1  0  0  0  0  0  0  0  0  0
  -19.0204  -11.4194   22.9947 C   0  0  2  0  0  0  0  0  0  0  0  0
  -20.5449  -28.5704   23.1248 C   0  0  2  0  0  0  0  0  0  0  0  0
  -21.7871  -12.2265   19.1857 C   0  0  0  0  0  0  0  0  0  0  0  0
  -26.3032  -27.4598   19.7713 N   0  0  0  0  0  0  0  0  0  0  0  0
  -20.0921  -23.8220   22.8614 N   0  0  0  0  0  0  0  0  0  0  0  0
  -21.4701  -25.9839   21.7247 N   0  0  0  0  0  0  0  0  0  0  0  0
  -25.4624  -28.2636   19.0983 N   0  0  0  0  0  0  0  0  0  0  0  0
  -23.6186  -13.7918   21.8428 N   0  0  0  0  0  0  0  0  0  0  0  0
  -23.7531  -30.0820   21.9932 N   0  0  0  0  0  0  0  0  0  0  0  0
  -24.5564  -28.6739   16.9486 N   0  0  0  0  0  0  0  0  0  0  0  0
  -27.2915  -25.1447   16.2703 N   0  0  0  0  0  0  0  0  0  0  0  0
  -27.1111  -13.7886   21.1129 N   0  0  0  0  0  0  0  0  0  0  0  0
  -20.8489  -11.8746   21.5095 N   0  0  0  0  0  0  0  0  0  0  0  0
  -21.8497  -28.7898   22.5415 N   0  0  0  0  0  0  0  0  0  0  0  0
  -18.5131  -12.0107   24.2651 N   0  3  0  0  0  0  0  0  0  0  0  0
  -25.8428  -26.6007   15.2504 O   0  0  0  0  0  0  0  0  0  0  0  0
  -25.3643  -15.1434   20.3808 O   0  0  0  0  0  0  0  0  0  0  0  0
  -23.6877  -11.5040   21.3985 O   0  0  0  0  0  0  0  0  0  0  0  0
  -19.5345  -13.6487   22.2181 O   0  0  0  0  0  0  0  0  0  0  0  0
  -21.9779  -30.9885   23.1785 O   0  0  0  0  0  0  0  0  0  0  0  0
  -30.4045  -22.6016   20.1274 O   0  0  0  0  0  0  0  0  0  0  0  0
  -22.5119  -19.6530   23.4159 O   0  0  0  0  0  0  0  0  0  1  0  0
  -29.4723  -17.5513   18.1201 F   0  0  0  0  0  0  0  0  0  0  0  0
  -30.0455  -20.4462   21.8210 F   0  0  0  0  0  0  0  0  0  0  0  0
  1  2  1  0  0  0  0
  1  5  2  0  0  0  0
  2  6  2  0  0  0  0
  3  8  2  0  0  0  0
  3 15  1  0  0  0  0
  4  9  1  0  0  0  0
  4 15  2  0  0  0  0
  5 17  1  0  0  0  0
  6 19  1  0  0  0  0
  7 10  2  0  0  0  0
  7 18  1  0  0  0  0
  8 21  1  0  0  0  0
  9 21  2  0  0  0  0
 10 22  1  0  0  0  0
 11 12  2  0  0  0  0
 11 23  1  0  0  0  0
 12 24  1  0  0  0  0
 13 20  1  0  0  0  0
 13 22  2  0  0  0  0
 14 24  2  0  0  0  0
 14 25  1  0  0  0  0
 15 26  1  0  0  0  0
 16 26  1  0  0  0  0
 16 31  2  0  0  0  0
 16 32  1  0  0  0  0
 17 19  2  0  0  0  0
 17 37  1  0  0  0  0
 18 20  2  0  0  0  0
 18 38  1  0  0  0  0
 19 46  1  0  0  0  0
 20 39  1  0  0  0  0
 21 84  1  0  0  0  0
 22 85  1  0  0  0  0
 23 25  2  0  0  0  0
 23 84  1  0  0  0  0
 24 86  1  0  0  0  0
 25 87  1  0  0  0  0
 26 67  2  0  0  0  0
 27 30  1  0  0  0  0
 27 49  1  0  0  0  0
 27 68  2  0  0  0  0
 28 29  2  0  0  0  0
 28 58  1  0  0  0  0
 28 69  1  0  0  0  0
 29 59  1  0  0  0  0
 29 68  1  0  0  0  0
 30 62  1  0  0  0  0
 30 69  2  0  0  0  0
 31 70  1  0  0  0  0
 31 73  1  0  0  0  0
 32 74  1  0  0  0  0
 32 79  2  0  0  0  0
 33 47  1  0  0  0  0
 33 75  1  0  0  0  0
 33 80  2  0  0  0  0
 34 63  1  0  0  0  0
 34 71  1  0  0  0  0
 34 81  2  0  0  0  0
 35 64  1  0  0  0  0
 35 76  1  0  0  0  0
 35 82  2  0  0  0  0
 36 72  1  0  0  0  0
 36 77  1  0  0  0  0
 36 83  2  0  0  0  0
 37 40  1  0  0  0  0
 38 47  1  0  0  0  0
 39 71  1  0  0  0  0
 40 42  1  0  0  0  0
 41 43  1  0  0  0  0
 41 44  1  0  0  0  0
 42 46  1  0  0  0  0
 43 48  1  0  0  0  0
 44 72  1  0  0  0  0
 45 48  1  0  0  0  0
 45 72  1  0  0  0  0
 46 75  1  0  0  0  0
 47 71  1  0  0  0  0
 48 70  1  0  0  0  0
 50 58  1  0  0  0  0
 51 62  1  0  0  0  0
 52 64  1  0  0  0  0
 53 65  1  0  0  0  0
 54 66  1  0  0  0  0
 55 66  1  0  0  0  0
 56 66  1  0  0  0  0
 57 78  1  0  0  0  0
 59 60  1  0  0  0  0
 60 61  1  0  0  0  0
 61 85  1  0  0  0  0
 62 65  1  0  0  0  0
 63 66  1  0  0  0  0
 63 76  1  0  0  0  0
 64 78  1  0  0  0  0
 65 77  1  0  0  0  0
 67 70  1  0  0  0  0
M  CHG  1  78   1
M  ISO  4  36 100  61 101  77 100  85 101
M  END
> <Batch ID>
0086

> <Smiles>
CCc1nc(C(C)C(C)[100NH:0][100C:0](=O)N2CCCC(n3nc(-c4ccc(Oc5ccc(F)cc5F)cc4)c(C(N)=O)c3N)C2)c(C)nc1CC[101CH2:1][101O:1]c1ccc2c(c1)CN(C(=O)C(NC(=O)C(C)NC)C(C)(C)C)C(C(=O)NC1CCCc3ccccc31)C2

> <Shape>
0.260

> <Color>
0.066

> <Negative vol penalty>
0.000

$$$$

  -OEChem-04052318593D

 87 95  0     1  0  0  0  0  0999 V2000
  -24.2390  -27.6891   23.8462 C   0  0  0  0  0  0  0  0  0  0  0  0
  -24.1102  -26.3629   23.4462 C   0  0  0  0  0  0  0  0  0  0  0  0
  -19.4525  -22.5860   21.3149 C   0  0  0  0  0  0  0  0  0  0  0  0
  -21.2301  -22.3525   22.9344 C   0  0  0  0  0  0  0  0  0  0  0  0
  -24.9546  -28.5879   23.0563 C   0  0  0  0  0  0  0  0  0  0  0  0
  -24.6961  -25.9350   22.2554 C   0  0  0  0  0  0  0  0  0  0  0  0
  -27.1582  -20.4416   21.1300 C   0  0  0  0  0  0  0  0  0  0  0  0
  -18.9596  -23.6873   22.0147 C   0  0  0  0  0  0  0  0  0  0  0  0
  -20.7372  -23.4539   23.6342 C   0  0  0  0  0  0  0  0  0  0  0  0
  -26.6641  -19.3054   20.4906 C   0  0  0  0  0  0  0  0  0  0  0  0
  -17.4439  -26.7810   23.1754 C   0  0  0  0  0  0  0  0  0  0  0  0
  -17.0752  -27.9060   22.4379 C   0  0  0  0  0  0  0  0  0  0  0  0
  -27.7311  -20.0014   18.4422 C   0  0  0  0  0  0  0  0  0  0  0  0
  -19.3332  -28.0963   21.5996 C   0  0  0  0  0  0  0  0  0  0  0  0
  -26.9523  -12.6277   20.7451 C   0  0  0  0  0  0  0  0  0  0  0  0
  -20.5877  -21.9186   21.7748 C   0  0  0  0  0  0  0  0  0  0  0  0
  -22.0458  -20.7887   20.0126 C   0  0  0  0  0  0  0  0  0  0  0  0
  -25.5578  -28.1685   21.8601 C   0  0  0  0  0  0  0  0  0  0  0  0
  -27.9347  -21.3733   20.4262 C   0  0  0  0  0  0  0  0  0  0  0  0
  -25.4194  -26.8293   21.4481 C   0  0  0  0  0  0  0  0  0  0  0  0
  -28.2360  -21.1472   19.0755 C   0  0  0  0  0  0  0  0  0  0  0  0
  -27.1973  -13.7979   20.0449 C   0  0  0  0  0  0  0  0  0  0  0  0
  -26.1841  -14.2943   19.2322 C   0  0  0  0  0  0  0  0  0  0  0  0
  -24.9741  -13.6148   19.1458 C   0  0  0  0  0  0  0  0  0  0  0  0
  -19.6019  -24.1213   23.1743 C   0  0  0  0  0  0  0  0  0  0  0  0
  -26.9481  -19.0866   19.1458 C   0  0  0  0  0  0  0  0  0  0  0  0
  -18.7572  -26.3136   23.1252 C   0  0  0  0  0  0  0  0  0  0  0  0
  -18.0199  -28.5636   21.6500 C   0  0  0  0  0  0  0  0  0  0  0  0
  -19.7018  -26.9712   22.3372 C   0  0  0  0  0  0  0  0  0  0  0  0
  -21.0970  -20.7805   21.0526 C   0  0  0  0  0  0  0  0  0  0  0  0
  -24.8287  -12.4526   19.8861 C   0  0  0  0  0  0  0  0  0  0  0  0
  -22.1880  -19.4670   19.6671 C   0  0  0  0  0  0  0  0  0  0  0  0
  -22.7368  -21.8924   19.4126 C   0  0  0  0  0  0  0  0  0  0  0  0
  -27.6200  -24.4466   19.6782 C   0  0  0  0  0  0  0  0  0  0  0  0
  -30.6358  -24.0773   18.5419 C   0  0  0  0  0  0  0  0  0  0  0  0
  -33.0409  -21.9771   17.3371 C   0  0  0  0  0  0  0  0  0  0  0  0
  -22.3549  -14.3310   22.1178 C   0  0  0  0  0  0  0  0  0  0  0  0
  -26.2814  -29.1875   21.0159 C   0  0  0  0  0  0  0  0  0  0  0  0
  -28.4825  -22.5802   21.1372 C   0  0  0  0  0  0  0  0  0  0  0  0
  -29.0821  -22.1067   18.2805 C   0  0  0  0  0  0  0  0  0  0  0  0
  -27.1887  -28.5670   19.9565 C   0  0  0  0  0  0  0  0  0  0  0  0
  -19.4421  -15.3964   20.2529 C   0  0  0  0  0  0  0  0  0  0  0  0
  -26.4592  -27.4502   19.2167 C   0  0  0  0  0  0  0  0  0  0  0  0
  -19.6704  -16.9067   20.1688 C   0  0  0  0  0  0  0  0  0  0  0  0
  -19.8924  -14.8434   21.6018 C   0  0  0  0  0  0  0  0  0  0  0  0
  -21.5388  -16.6579   21.8679 C   0  0  0  0  0  0  0  0  0  0  0  0
  -26.0616  -26.3213   20.1754 C   0  0  1  0  0  0  0  0  0  0  0  0
  -28.8336  -23.7235   20.1901 C   0  0  1  0  0  0  0  0  0  0  0  0
  -21.1245  -17.2739   20.5193 C   0  0  2  0  0  0  0  0  0  0  0  0
  -23.7425  -13.3413   16.9790 C   0  0  0  0  0  0  0  0  0  0  0  0
  -29.6844  -13.6131   19.6796 C   0  0  0  0  0  0  0  0  0  0  0  0
  -28.7912  -14.9587   21.6152 C   0  0  0  0  0  0  0  0  0  0  0  0
  -35.3907  -21.9724   16.4564 C   0  0  0  0  0  0  0  0  0  0  0  0
  -29.6413  -25.2119   15.8898 C   0  0  0  0  0  0  0  0  0  0  0  0
  -31.7124  -24.3124   14.8082 C   0  0  0  0  0  0  0  0  0  0  0  0
  -31.8922  -26.0388   16.5998 C   0  0  0  0  0  0  0  0  0  0  0  0
  -33.9774  -20.2060   19.5154 C   0  0  0  0  0  0  0  0  0  0  0  0
  -26.3994  -15.5658   18.4479 C   0  0  0  0  0  0  0  0  0  0  0  0
  -23.8671  -14.1227   18.2842 C   0  0  0  0  0  0  0  0  0  0  0  0
  -23.5520  -11.6790   19.8331 C   0  0  0  0  0  0  0  0  0  0  0  0
  -23.1671  -10.9959   21.1591 C   0  0  0  0  0  0  0  0  0  0  0  0
  -23.0243  -11.9522   22.3413 C   0  0  0  0  0  0  0  0  0  0  0  0
  -26.2762  -16.8118   19.3181 C   0  0  0  0  0  0  0  0  0  1  0  0
  -28.5134  -14.4834   20.1758 C   0  0  0  0  0  0  0  0  0  0  0  0
  -31.2372  -23.6761   17.2166 C   0  0  1  0  0  0  0  0  0  0  0  0
  -34.5100  -21.8220   17.6870 C   0  0  2  0  0  0  0  0  0  0  0  0
  -31.1032  -24.7925   16.1428 C   0  0  0  0  0  0  0  0  0  0  0  0
  -25.7900  -11.9398   20.6865 N   0  0  0  0  0  0  0  0  0  0  0  0
  -20.6668  -19.5511   21.3483 N   0  0  0  0  0  0  0  0  0  0  0  0
  -21.3483  -18.7745   20.4889 N   0  0  0  0  0  0  0  0  0  0  0  0
  -29.5892  -23.2752   19.0186 N   0  0  0  0  0  0  0  0  0  0  0  0
  -21.2903  -15.2124   21.8663 N   0  0  0  0  0  0  0  0  0  0  0  0
  -22.9482  -18.8413   18.7435 N   0  0  0  0  0  0  0  0  0  0  0  0
  -22.4726  -23.1842   19.8878 N   0  0  0  0  0  0  0  0  0  0  0  0
  -27.2071  -25.4918   20.4822 N   0  0  0  0  0  0  0  0  0  0  0  0
  -32.6126  -23.2781   17.4963 N   0  0  0  0  0  0  0  0  0  0  0  0
  -22.0341  -12.9792   22.1053 N   0  0  0  0  0  0  0  0  0  0  0  0
  -34.7614  -20.4798   18.2837 N   0  3  0  0  0  0  0  0  0  0  0  0
  -23.5519  -21.7393   18.4714 O   0  0  0  0  0  0  0  0  0  0  0  0
  -27.0978  -24.0840   18.6305 O   0  0  0  0  0  0  0  0  0  0  0  0
  -31.0829  -25.0617   19.1357 O   0  0  0  0  0  0  0  0  0  0  0  0
  -32.3441  -21.0389   16.9569 O   0  0  0  0  0  0  0  0  0  0  0  0
  -23.5081  -14.7200   22.3324 O   0  0  0  0  0  0  0  0  0  0  0  0
  -19.1214  -25.1960   23.8574 O   0  0  0  0  0  0  0  0  0  0  0  0
  -26.4665  -17.9788   18.5192 O   0  0  0  0  0  0  0  0  0  1  0  0
  -17.6654  -29.6431   20.9405 F   0  0  0  0  0  0  0  0  0  0  0  0
  -20.9647  -26.5262   22.2840 F   0  0  0  0  0  0  0  0  0  0  0  0
  1  2  1  0  0  0  0
  1  5  2  0  0  0  0
  2  6  2  0  0  0  0
  3  8  2  0  0  0  0
  3 16  1  0  0  0  0
  4  9  1  0  0  0  0
  4 16  2  0  0  0  0
  5 18  1  0  0  0  0
  6 20  1  0  0  0  0
  7 10  2  0  0  0  0
  7 19  1  0  0  0  0
  8 25  1  0  0  0  0
  9 25  2  0  0  0  0
 10 26  1  0  0  0  0
 11 12  2  0  0  0  0
 11 27  1  0  0  0  0
 12 28  1  0  0  0  0
 13 21  1  0  0  0  0
 13 26  2  0  0  0  0
 14 28  2  0  0  0  0
 14 29  1  0  0  0  0
 15 22  2  0  0  0  0
 15 68  1  0  0  0  0
 16 30  1  0  0  0  0
 17 30  1  0  0  0  0
 17 32  2  0  0  0  0
 17 33  1  0  0  0  0
 18 20  2  0  0  0  0
 18 38  1  0  0  0  0
 19 21  2  0  0  0  0
 19 39  1  0  0  0  0
 20 47  1  0  0  0  0
 21 40  1  0  0  0  0
 22 23  1  0  0  0  0
 22 64  1  0  0  0  0
 23 24  2  0  0  0  0
 23 58  1  0  0  0  0
 24 31  1  0  0  0  0
 24 59  1  0  0  0  0
 25 84  1  0  0  0  0
 26 85  1  0  0  0  0
 27 29  2  0  0  0  0
 27 84  1  0  0  0  0
 28 86  1  0  0  0  0
 29 87  1  0  0  0  0
 30 69  2  0  0  0  0
 31 60  1  0  0  0  0
 31 68  2  0  0  0  0
 32 70  1  0  0  0  0
 32 73  1  0  0  0  0
 33 74  1  0  0  0  0
 33 79  2  0  0  0  0
 34 48  1  0  0  0  0
 34 75  1  0  0  0  0
 34 80  2  0  0  0  0
 35 65  1  0  0  0  0
 35 71  1  0  0  0  0
 35 81  2  0  0  0  0
 36 66  1  0  0  0  0
 36 76  1  0  0  0  0
 36 82  2  0  0  0  0
 37 72  1  0  0  0  0
 37 77  1  0  0  0  0
 37 83  2  0  0  0  0
 38 41  1  0  0  0  0
 39 48  1  0  0  0  0
 40 71  1  0  0  0  0
 41 43  1  0  0  0  0
 42 44  1  0  0  0  0
 42 45  1  0  0  0  0
 43 47  1  0  0  0  0
 44 49  1  0  0  0  0
 45 72  1  0  0  0  0
 46 49  1  0  0  0  0
 46 72  1  0  0  0  0
 47 75  1  0  0  0  0
 48 71  1  0  0  0  0
 49 70  1  0  0  0  0
 50 59  1  0  0  0  0
 51 64  1  0  0  0  0
 52 64  1  0  0  0  0
 53 66  1  0  0  0  0
 54 67  1  0  0  0  0
 55 67  1  0  0  0  0
 56 67  1  0  0  0  0
 57 78  1  0  0  0  0
 58 63  1  0  0  0  0
 60 61  1  0  0  0  0
 61 62  1  0  0  0  0
 62 77  1  0  0  0  0
 63 85  1  0  0  0  0
 65 67  1  0  0  0  0
 65 76  1  0  0  0  0
 66 78  1  0  0  0  0
 69 70  1  0  0  0  0
M  CHG  1  78   1
M  ISO  4  37 100  63 101  77 100  85 101
M  END
> <Batch ID>
0086

> <Smiles>
CCc1c(CCC[100NH:0][100C:0](=O)N2CCCC(n3nc(-c4ccc(Oc5ccc(F)cc5F)cc4)c(C(N)=O)c3N)C2)ncc(C(C)C)c1C[101CH2:1][101O:1]c1ccc2c(c1)CN(C(=O)C(NC(=O)C(C)NC)C(C)(C)C)C(C(=O)NC1CCCc3ccccc31)C2

> <Shape>
0.196

> <Color>
0.074

> <Negative vol penalty>
0.000

$$$$

  -OEChem-04052318593D

 89 97  0     1  0  0  0  0  0999 V2000
  -18.9620  -29.6022   22.7152 C   0  0  0  0  0  0  0  0  0  0  0  0
  -20.3272  -29.3391   22.6654 C   0  0  0  0  0  0  0  0  0  0  0  0
  -28.1742  -13.7394   22.1868 C   0  0  0  0  0  0  0  0  0  0  0  0
  -26.5084  -14.9856   20.9584 C   0  0  0  0  0  0  0  0  0  0  0  0
  -18.0502  -28.5475   22.7331 C   0  0  0  0  0  0  0  0  0  0  0  0
  -20.7814  -28.0211   22.6346 C   0  0  0  0  0  0  0  0  0  0  0  0
  -24.4420  -27.3075   19.2087 C   0  0  0  0  0  0  0  0  0  0  0  0
  -27.5787  -12.5447   21.7823 C   0  0  0  0  0  0  0  0  0  0  0  0
  -25.9129  -13.7909   20.5538 C   0  0  0  0  0  0  0  0  0  0  0  0
  -25.7248  -27.7340   19.5494 C   0  0  0  0  0  0  0  0  0  0  0  0
  -23.8461  -11.4647   21.8759 C   0  0  0  0  0  0  0  0  0  0  0  0
  -22.4564  -11.3744   21.9536 C   0  0  0  0  0  0  0  0  0  0  0  0
  -26.3220  -25.4663   20.1152 C   0  0  0  0  0  0  0  0  0  0  0  0
  -22.3485  -10.9860   19.5714 C   0  0  0  0  0  0  0  0  0  0  0  0
  -28.7205  -28.1100   26.7805 C   0  0  0  0  0  0  0  0  0  0  0  0
  -27.6390  -14.9599   21.7749 C   0  0  0  0  0  0  0  0  0  0  0  0
  -29.2727  -16.9038   21.5300 C   0  0  0  0  0  0  0  0  0  0  0  0
  -18.4932  -27.2161   22.6926 C   0  0  0  0  0  0  0  0  0  0  0  0
  -24.0856  -25.9566   19.3293 C   0  0  0  0  0  0  0  0  0  0  0  0
  -19.8748  -26.9476   22.6532 C   0  0  0  0  0  0  0  0  0  0  0  0
  -25.0347  -25.0248   19.7729 C   0  0  0  0  0  0  0  0  0  0  0  0
  -26.4481  -12.5704   20.9657 C   0  0  0  0  0  0  0  0  0  0  0  0
  -26.6642  -26.8139   20.0055 C   0  0  0  0  0  0  0  0  0  0  0  0
  -24.4871  -11.3157   20.6460 C   0  0  0  0  0  0  0  0  0  0  0  0
  -21.7076  -11.1350   20.8014 C   0  0  0  0  0  0  0  0  0  0  0  0
  -23.7383  -11.0763   19.4938 C   0  0  0  0  0  0  0  0  0  0  0  0
  -28.2533  -16.1944   22.1929 C   0  0  0  0  0  0  0  0  0  0  0  0
  -27.9243  -28.4318   25.7178 C   0  0  0  0  0  0  0  0  0  0  0  0
  -29.5030  -17.9986   22.3267 C   0  0  0  0  0  0  0  0  0  0  0  0
  -29.4098  -26.9410   25.0316 C   0  0  0  0  0  0  0  0  0  0  0  0
  -29.9506  -16.6003   20.3036 C   0  0  0  0  0  0  0  0  0  0  0  0
  -21.9402  -24.3463   21.0345 C   0  0  0  0  0  0  0  0  0  0  0  0
  -22.9778  -21.8427   19.2520 C   0  0  0  0  0  0  0  0  0  0  0  0
  -25.4704  -20.4561   17.3782 C   0  0  0  0  0  0  0  0  0  0  0  0
  -27.6265  -22.2426   25.4271 C   0  0  0  0  0  0  0  0  0  0  0  0
  -17.4715  -26.1088   22.7615 C   0  0  0  0  0  0  0  0  0  0  0  0
  -22.7058  -25.5083   18.9322 C   0  0  0  0  0  0  0  0  0  0  0  0
  -24.7084  -23.5600   19.9009 C   0  0  0  0  0  0  0  0  0  0  0  0
  -18.0214  -24.7461   22.3480 C   0  0  0  0  0  0  0  0  0  0  0  0
  -27.8989  -19.0623   27.0045 C   0  0  0  0  0  0  0  0  0  0  0  0
  -19.3666  -24.4872   23.0191 C   0  0  0  0  0  0  0  0  0  0  0  0
  -28.0931  -18.0912   25.8386 C   0  0  0  0  0  0  0  0  0  0  0  0
  -26.9414  -20.1953   26.6418 C   0  0  0  0  0  0  0  0  0  0  0  0
  -27.4880  -19.9642   24.2498 C   0  0  0  0  0  0  0  0  0  0  0  0
  -20.4055  -25.5317   22.5935 C   0  0  1  0  0  0  0  0  0  0  0  0
  -22.2953  -24.1909   19.5828 C   0  0  1  0  0  0  0  0  0  0  0  0
  -28.4890  -18.8352   24.5491 C   0  0  2  0  0  0  0  0  0  0  0  0
  -26.0414  -18.3836   16.0836 C   0  0  0  0  0  0  0  0  0  0  0  0
  -25.0159  -34.0442   24.8077 C   0  0  0  0  0  0  0  0  0  0  0  0
  -26.9568  -33.2680   23.4326 C   0  0  0  0  0  0  0  0  0  0  0  0
  -28.9487  -29.3475   19.8911 C   0  0  0  0  0  0  0  0  0  0  0  0
  -23.4794  -20.3509   21.8660 C   0  0  0  0  0  0  0  0  0  0  0  0
  -24.8958  -18.7296   20.5880 C   0  0  0  0  0  0  0  0  0  0  0  0
  -22.4713  -18.9604   20.0481 C   0  0  0  0  0  0  0  0  0  0  0  0
  -25.7591  -21.9728   14.8533 C   0  0  0  0  0  0  0  0  0  0  0  0
  -26.7924  -29.3619   25.6238 C   0  0  0  0  0  0  0  0  0  0  0  0
  -30.1870  -25.9992   24.1881 C   0  0  0  0  0  0  0  0  0  0  0  0
  -27.1658  -30.8159   25.2363 C   0  0  0  0  0  0  0  0  0  0  0  0
  -29.8100  -24.5119   24.3657 C   0  0  0  0  0  0  0  0  0  0  0  0
  -25.9454  -31.7451   25.2121 C   0  0  0  0  0  0  0  0  0  0  0  0
  -28.6417  -28.5137   22.2501 C   0  0  0  0  0  0  0  0  0  0  0  0
  -27.7945  -27.7226   23.2571 C   0  0  0  0  0  0  0  0  0  0  0  0
  -28.3426  -24.1999   24.0798 C   0  0  0  0  0  0  0  0  0  0  0  0
  -24.0681  -20.8082   19.3941 C   0  0  1  0  0  0  0  0  0  0  0  0
  -25.4525  -19.7841   16.0171 C   0  0  2  0  0  0  0  0  0  0  0  0
  -26.2869  -33.1911   24.8052 C   0  0  0  0  0  0  0  0  0  0  0  0
  -28.0505  -28.5589   20.8356 C   0  0  2  0  0  0  0  0  0  1  0  0
  -23.7345  -19.7401   20.4736 C   0  0  0  0  0  0  0  0  0  0  0  0
  -27.8632  -16.7885   23.3237 N   0  0  0  0  0  0  0  0  0  0  0  0
  -28.3736  -27.6942   24.6491 N   0  0  0  0  0  0  0  0  0  0  0  0
  -28.6415  -17.8828   23.3776 N   0  0  0  0  0  0  0  0  0  0  0  0
  -29.6304  -27.1855   26.3273 N   0  3  0  0  0  0  0  0  0  0  0  0
  -23.3441  -23.1719   19.5065 N   0  0  0  0  0  0  0  0  0  0  0  0
  -27.3743  -20.8609   25.4108 N   0  0  0  0  0  0  0  0  0  0  0  0
  -30.3565  -19.0395   22.2238 N   0  0  0  0  0  0  0  0  0  0  0  0
  -29.5908  -15.4358   19.6117 N   0  0  0  0  0  0  0  0  0  0  0  0
  -20.9079  -25.2344   21.2693 N   0  0  0  0  0  0  0  0  0  0  0  0
  -24.2878  -20.2608   18.0597 N   0  0  0  0  0  0  0  0  0  0  0  0
  -28.0389  -22.7932   24.2198 N   0  0  0  0  0  0  0  0  0  0  0  0
  -26.2430  -20.5802   15.0360 N   0  3  0  0  0  0  0  0  0  0  0  0
  -30.8604  -17.3313   19.8437 O   0  0  0  0  0  0  0  0  0  0  0  0
  -22.5561  -23.7067   21.8790 O   0  0  0  0  0  0  0  0  0  0  0  0
  -21.8447  -21.4854   18.9202 O   0  0  0  0  0  0  0  0  0  0  0  0
  -26.4382  -21.0877   17.7966 O   0  0  0  0  0  0  0  0  0  0  0  0
  -27.4992  -22.9334   26.4438 O   0  0  0  0  0  0  0  0  0  0  0  0
  -25.8670  -11.4048   20.5706 O   0  0  0  0  0  0  0  0  0  0  0  0
  -27.9169  -27.2276   20.3394 O   0  0  0  0  0  0  0  0  0  1  0  0
  -20.3731  -11.0469   20.8764 F   0  0  0  0  0  0  0  0  0  0  0  0
  -24.3485  -10.9311   18.3095 F   0  0  0  0  0  0  0  0  0  0  0  0
  1  2  1  0  0  0  0
  1  5  2  0  0  0  0
  2  6  2  0  0  0  0
  3  8  2  0  0  0  0
  3 16  1  0  0  0  0
  4  9  1  0  0  0  0
  4 16  2  0  0  0  0
  5 18  1  0  0  0  0
  6 20  1  0  0  0  0
  7 10  2  0  0  0  0
  7 19  1  0  0  0  0
  8 22  1  0  0  0  0
  9 22  2  0  0  0  0
 10 23  1  0  0  0  0
 11 12  2  0  0  0  0
 11 24  1  0  0  0  0
 12 25  1  0  0  0  0
 13 21  1  0  0  0  0
 13 23  2  0  0  0  0
 14 25  2  0  0  0  0
 14 26  1  0  0  0  0
 15 28  2  0  0  0  0
 15 72  1  0  0  0  0
 16 27  1  0  0  0  0
 17 27  1  0  0  0  0
 17 29  2  0  0  0  0
 17 31  1  0  0  0  0
 18 20  2  0  0  0  0
 18 36  1  0  0  0  0
 19 21  2  0  0  0  0
 19 37  1  0  0  0  0
 20 45  1  0  0  0  0
 21 38  1  0  0  0  0
 22 86  1  0  0  0  0
 23 87  1  0  0  0  0
 24 26  2  0  0  0  0
 24 86  1  0  0  0  0
 25 88  1  0  0  0  0
 26 89  1  0  0  0  0
 27 69  2  0  0  0  0
 28 56  1  0  0  0  0
 28 70  1  0  0  0  0
 29 71  1  0  0  0  0
 29 75  1  0  0  0  0
 30 57  1  0  0  0  0
 30 70  1  0  0  0  0
 30 72  2  0  0  0  0
 31 76  1  0  0  0  0
 31 81  2  0  0  0  0
 32 46  1  0  0  0  0
 32 77  1  0  0  0  0
 32 82  2  0  0  0  0
 33 64  1  0  0  0  0
 33 73  1  0  0  0  0
 33 83  2  0  0  0  0
 34 65  1  0  0  0  0
 34 78  1  0  0  0  0
 34 84  2  0  0  0  0
 35 74  1  0  0  0  0
 35 79  1  0  0  0  0
 35 85  2  0  0  0  0
 36 39  1  0  0  0  0
 37 46  1  0  0  0  0
 38 73  1  0  0  0  0
 39 41  1  0  0  0  0
 40 42  1  0  0  0  0
 40 43  1  0  0  0  0
 41 45  1  0  0  0  0
 42 47  1  0  0  0  0
 43 74  1  0  0  0  0
 44 47  1  0  0  0  0
 44 74  1  0  0  0  0
 45 77  1  0  0  0  0
 46 73  1  0  0  0  0
 47 71  1  0  0  0  0
 48 65  1  0  0  0  0
 49 66  1  0  0  0  0
 50 66  1  0  0  0  0
 51 67  1  0  0  0  0
 52 68  1  0  0  0  0
 53 68  1  0  0  0  0
 54 68  1  0  0  0  0
 55 80  1  0  0  0  0
 56 58  1  0  0  0  0
 57 59  1  0  0  0  0
 58 60  1  0  0  0  0
 59 63  1  0  0  0  0
 60 66  1  0  0  0  0
 61 62  1  0  0  0  0
 61 67  1  0  0  0  0
 62 70  1  0  0  0  0
 63 79  1  0  0  0  0
 64 68  1  0  0  0  0
 64 78  1  0  0  0  0
 65 80  1  0  0  0  0
 67 87  1  0  0  0  0
 69 71  1  0  0  0  0
M  CHG  2  72   1  80   1
M  ISO  4  35 100  67 101  79 100  87 101
M  END
> <Batch ID>
0086

> <Smiles>
CNC(C)C(=O)NC(C(=O)N1Cc2cc([101O:1][101CH:1](C)CCn3c(CCCC(C)C)cnc3CCC[100NH:0][100C:0](=O)N3CCCC(n4nc(-c5ccc(Oc6ccc(F)cc6F)cc5)c(C(N)=O)c4N)C3)ccc2CC1C(=O)NC1CCCc2ccccc21)C(C)(C)C

> <Shape>
0.200

> <Color>
0.071

> <Negative vol penalty>
0.000

$$$$

  -OEChem-04052318593D

 87 95  0     1  0  0  0  0  0999 V2000
  -16.8301  -29.0594   24.2944 C   0  0  0  0  0  0  0  0  0  0  0  0
  -17.4610  -28.0310   23.6018 C   0  0  0  0  0  0  0  0  0  0  0  0
  -27.8077  -18.2629   18.9608 C   0  0  0  0  0  0  0  0  0  0  0  0
  -26.6375  -18.8461   20.9924 C   0  0  0  0  0  0  0  0  0  0  0  0
  -17.2610  -30.3753   24.1309 C   0  0  0  0  0  0  0  0  0  0  0  0
  -18.5225  -28.3180   22.7444 C   0  0  0  0  0  0  0  0  0  0  0  0
  -22.3984  -25.1081   23.3088 C   0  0  0  0  0  0  0  0  0  0  0  0
  -27.7818  -19.5993   18.5622 C   0  0  0  0  0  0  0  0  0  0  0  0
  -26.6116  -20.1826   20.5938 C   0  0  0  0  0  0  0  0  0  0  0  0
  -22.2738  -23.8498   22.7216 C   0  0  0  0  0  0  0  0  0  0  0  0
  -29.4797  -22.4394   19.2575 C   0  0  0  0  0  0  0  0  0  0  0  0
  -30.6551  -22.9847   18.7412 C   0  0  0  0  0  0  0  0  0  0  0  0
  -23.6341  -24.5856   20.8703 C   0  0  0  0  0  0  0  0  0  0  0  0
  -18.9911  -16.4820   21.0183 C   0  0  0  0  0  0  0  0  0  0  0  0
  -20.8490  -15.7501   22.3587 C   0  0  0  0  0  0  0  0  0  0  0  0
  -29.5210  -23.4602   16.6616 C   0  0  0  0  0  0  0  0  0  0  0  0
  -27.2355  -17.8863   20.1759 C   0  0  0  0  0  0  0  0  0  0  0  0
  -28.2583  -15.8637   21.3467 C   0  0  0  0  0  0  0  0  0  0  0  0
  -18.3346  -30.6775   23.2784 C   0  0  0  0  0  0  0  0  0  0  0  0
  -23.1341  -26.1197   22.6749 C   0  0  0  0  0  0  0  0  0  0  0  0
  -18.9673  -29.6393   22.5682 C   0  0  0  0  0  0  0  0  0  0  0  0
  -23.7688  -25.8551   21.4529 C   0  0  0  0  0  0  0  0  0  0  0  0
  -20.3224  -16.6074   21.3990 C   0  0  0  0  0  0  0  0  0  0  0  0
  -27.1838  -20.5592   19.3787 C   0  0  0  0  0  0  0  0  0  0  0  0
  -22.8892  -23.5892   21.5008 C   0  0  0  0  0  0  0  0  0  0  0  0
  -28.3249  -22.4044   18.4759 C   0  0  0  0  0  0  0  0  0  0  0  0
  -30.6758  -23.4952   17.4433 C   0  0  0  0  0  0  0  0  0  0  0  0
  -28.3456  -22.9148   17.1779 C   0  0  0  0  0  0  0  0  0  0  0  0
  -27.2614  -16.5058   20.5880 C   0  0  0  0  0  0  0  0  0  0  0  0
  -18.2344  -15.4909   21.6224 C   0  0  0  0  0  0  0  0  0  0  0  0
  -20.0091  -14.7919   22.9030 C   0  0  0  0  0  0  0  0  0  0  0  0
  -27.8179  -14.5682   21.4660 C   0  0  0  0  0  0  0  0  0  0  0  0
  -29.4736  -16.3912   21.8948 C   0  0  0  0  0  0  0  0  0  0  0  0
  -22.4510  -28.9996   21.5159 C   0  0  0  0  0  0  0  0  0  0  0  0
  -25.6617  -29.1577   21.0813 C   0  0  0  0  0  0  0  0  0  0  0  0
  -28.6136  -27.4976   20.6608 C   0  0  0  0  0  0  0  0  0  0  0  0
  -22.3787  -12.0743   21.2494 C   0  0  0  0  0  0  0  0  0  0  0  0
  -18.7341  -32.1205   23.0976 C   0  0  0  0  0  0  0  0  0  0  0  0
  -23.2813  -27.4635   23.3344 C   0  0  0  0  0  0  0  0  0  0  0  0
  -24.5867  -26.9007   20.7413 C   0  0  0  0  0  0  0  0  0  0  0  0
  -20.1086  -32.2963   22.4573 C   0  0  0  0  0  0  0  0  0  0  0  0
  -25.1784  -11.2865   19.1957 C   0  0  0  0  0  0  0  0  0  0  0  0
  -20.2534  -31.3827   21.2445 C   0  0  0  0  0  0  0  0  0  0  0  0
  -26.1197  -12.4769   19.3881 C   0  0  0  0  0  0  0  0  0  0  0  0
  -23.7140  -11.7196   19.1933 C   0  0  0  0  0  0  0  0  0  0  0  0
  -24.2418  -13.7019   20.5592 C   0  0  0  0  0  0  0  0  0  0  0  0
  -20.1383  -29.9077   21.6480 C   0  0  1  0  0  0  0  0  0  0  0  0
  -23.6267  -28.5772   22.3507 C   0  0  1  0  0  0  0  0  0  0  0  0
  -25.7273  -13.3079   20.6245 C   0  0  2  0  0  0  0  0  0  0  0  0
  -16.8022  -15.3259   21.2373 C   0  0  0  0  0  0  0  0  0  0  0  0
  -31.0635  -27.8976   20.2927 C   0  0  0  0  0  0  0  0  0  0  0  0
  -22.7809  -12.2390   25.2635 C   0  0  0  0  0  0  0  0  0  0  0  0
  -20.5746  -11.0538   25.3631 C   0  0  0  0  0  0  0  0  0  0  0  0
  -25.1063  -29.8605   18.1645 C   0  0  0  0  0  0  0  0  0  0  0  0
  -27.4952  -29.3151   17.6508 C   0  0  0  0  0  0  0  0  0  0  0  0
  -26.9524  -31.1757   19.2212 C   0  0  0  0  0  0  0  0  0  0  0  0
  -29.3348  -26.1249   23.1816 C   0  0  0  0  0  0  0  0  0  0  0  0
  -21.1921  -17.6683   20.7728 C   0  0  0  0  0  0  0  0  0  0  0  0
  -20.5404  -13.8562   23.9369 C   0  0  0  0  0  0  0  0  0  0  0  0
  -21.1769  -19.0042   21.5242 C   0  0  0  0  0  0  0  0  0  0  0  0
  -22.0028  -20.0896   20.8323 C   0  0  0  0  0  0  0  0  0  0  0  0
  -21.9967  -21.3884   21.6269 C   0  0  0  0  0  0  0  0  0  1  0  0
  -26.6093  -28.7845   19.9670 C   0  0  1  0  0  0  0  0  0  0  0  0
  -29.9687  -27.6687   21.3232 C   0  0  2  0  0  0  0  0  0  0  0  0
  -21.6680  -11.5890   24.4334 C   0  0  0  0  0  0  0  0  0  0  0  0
  -21.1381  -12.5564   23.3440 C   0  0  2  0  0  0  0  0  0  0  0  0
  -26.5239  -29.7646   18.7631 C   0  0  0  0  0  0  0  0  0  0  0  0
  -26.2631  -15.6858   20.2490 N   0  0  0  0  0  0  0  0  0  0  0  0
  -18.7108  -14.6396   22.5583 N   0  0  0  0  0  0  0  0  0  0  0  0
  -26.6304  -14.5151   20.7972 N   0  0  0  0  0  0  0  0  0  0  0  0
  -24.6956  -28.2008   21.4234 N   0  0  0  0  0  0  0  0  0  0  0  0
  -23.4066  -12.5020   20.3930 N   0  0  0  0  0  0  0  0  0  0  0  0
  -28.3345  -13.4807   22.0767 N   0  0  0  0  0  0  0  0  0  0  0  0
  -29.7728  -17.7432   21.6781 N   0  0  0  0  0  0  0  0  0  0  0  0
  -21.3719  -29.4511   22.2515 N   0  0  0  0  0  0  0  0  0  0  0  0
  -27.9342  -28.6941   20.5711 N   0  0  0  0  0  0  0  0  0  0  0  0
  -22.1568  -12.8697   22.3669 N   0  0  0  0  0  0  0  0  0  0  0  0
  -30.3151  -26.4547   22.1152 N   0  3  0  0  0  0  0  0  0  0  0  0
  -30.2787  -15.6805   22.5431 O   0  0  0  0  0  0  0  0  0  0  0  0
  -22.5184  -28.9230   20.2947 O   0  0  0  0  0  0  0  0  0  0  0  0
  -25.7789  -30.2549   21.6328 O   0  0  0  0  0  0  0  0  0  0  0  0
  -28.2007  -26.4118   20.2594 O   0  0  0  0  0  0  0  0  0  0  0  0
  -21.7120  -11.0558   21.0369 O   0  0  0  0  0  0  0  0  0  0  0  0
  -27.1586  -21.8634   18.9902 O   0  0  0  0  0  0  0  0  0  0  0  0
  -22.7686  -22.3621   20.9251 O   0  0  0  0  0  0  0  0  0  1  0  0
  -31.8042  -24.0202   16.9482 F   0  0  0  0  0  0  0  0  0  0  0  0
  -27.2391  -22.8851   16.4226 F   0  0  0  0  0  0  0  0  0  0  0  0
  1  2  1  0  0  0  0
  1  5  2  0  0  0  0
  2  6  2  0  0  0  0
  3  8  2  0  0  0  0
  3 17  1  0  0  0  0
  4  9  1  0  0  0  0
  4 17  2  0  0  0  0
  5 19  1  0  0  0  0
  6 21  1  0  0  0  0
  7 10  2  0  0  0  0
  7 20  1  0  0  0  0
  8 24  1  0  0  0  0
  9 24  2  0  0  0  0
 10 25  1  0  0  0  0
 11 12  2  0  0  0  0
 11 26  1  0  0  0  0
 12 27  1  0  0  0  0
 13 22  1  0  0  0  0
 13 25  2  0  0  0  0
 14 23  1  0  0  0  0
 14 30  2  0  0  0  0
 15 23  2  0  0  0  0
 15 31  1  0  0  0  0
 16 27  2  0  0  0  0
 16 28  1  0  0  0  0
 17 29  1  0  0  0  0
 18 29  1  0  0  0  0
 18 32  2  0  0  0  0
 18 33  1  0  0  0  0
 19 21  2  0  0  0  0
 19 38  1  0  0  0  0
 20 22  2  0  0  0  0
 20 39  1  0  0  0  0
 21 47  1  0  0  0  0
 22 40  1  0  0  0  0
 23 58  1  0  0  0  0
 24 84  1  0  0  0  0
 25 85  1  0  0  0  0
 26 28  2  0  0  0  0
 26 84  1  0  0  0  0
 27 86  1  0  0  0  0
 28 87  1  0  0  0  0
 29 68  2  0  0  0  0
 30 50  1  0  0  0  0
 30 69  1  0  0  0  0
 31 59  1  0  0  0  0
 31 69  2  0  0  0  0
 32 70  1  0  0  0  0
 32 73  1  0  0  0  0
 33 74  1  0  0  0  0
 33 79  2  0  0  0  0
 34 48  1  0  0  0  0
 34 75  1  0  0  0  0
 34 80  2  0  0  0  0
 35 63  1  0  0  0  0
 35 71  1  0  0  0  0
 35 81  2  0  0  0  0
 36 64  1  0  0  0  0
 36 76  1  0  0  0  0
 36 82  2  0  0  0  0
 37 72  1  0  0  0  0
 37 77  1  0  0  0  0
 37 83  2  0  0  0  0
 38 41  1  0  0  0  0
 39 48  1  0  0  0  0
 40 71  1  0  0  0  0
 41 43  1  0  0  0  0
 42 44  1  0  0  0  0
 42 45  1  0  0  0  0
 43 47  1  0  0  0  0
 44 49  1  0  0  0  0
 45 72  1  0  0  0  0
 46 49  1  0  0  0  0
 46 72  1  0  0  0  0
 47 75  1  0  0  0  0
 48 71  1  0  0  0  0
 49 70  1  0  0  0  0
 51 64  1  0  0  0  0
 52 65  1  0  0  0  0
 53 65  1  0  0  0  0
 54 67  1  0  0  0  0
 55 67  1  0  0  0  0
 56 67  1  0  0  0  0
 57 78  1  0  0  0  0
 58 60  1  0  0  0  0
 59 66  1  0  0  0  0
 60 61  1  0  0  0  0
 61 62  1  0  0  0  0
 62 85  1  0  0  0  0
 63 67  1  0  0  0  0
 63 76  1  0  0  0  0
 64 78  1  0  0  0  0
 65 66  1  0  0  0  0
 66 77  1  0  0  0  0
 68 70  1  0  0  0  0
M  CHG  1  78   1
M  ISO  4  37 100  62 101  77 100  85 101
M  END
> <Batch ID>
0086

> <Smiles>
CNC(C)C(=O)NC(C(=O)N1Cc2cc([101O:1][101CH2:1]CCCc3cc(C)nc(CC([100NH:0][100C:0](=O)N4CCCC(n5nc(-c6ccc(Oc7ccc(F)cc7F)cc6)c(C(N)=O)c5N)C4)C(C)C)c3)ccc2CC1C(=O)NC1CCCc2ccccc21)C(C)(C)C

> <Shape>
0.239

> <Color>
0.086

> <Negative vol penalty>
0.000

$$$$

  -OEChem-04052318593D

 88 96  0     1  0  0  0  0  0999 V2000
  -19.7561  -22.3204   25.7078 C   0  0  0  0  0  0  0  0  0  0  0  0
  -21.0869  -21.9606   25.5211 C   0  0  0  0  0  0  0  0  0  0  0  0
  -26.9631  -13.4492   21.1134 C   0  0  0  0  0  0  0  0  0  0  0  0
  -26.9222  -13.6168   18.7036 C   0  0  0  0  0  0  0  0  0  0  0  0
  -19.1536  -23.2321   24.8420 C   0  0  0  0  0  0  0  0  0  0  0  0
  -21.8158  -22.5117   24.4677 C   0  0  0  0  0  0  0  0  0  0  0  0
  -28.4575  -24.5764   22.7529 C   0  0  0  0  0  0  0  0  0  0  0  0
  -26.2558  -12.2491   21.0420 C   0  0  0  0  0  0  0  0  0  0  0  0
  -26.2149  -12.4167   18.6321 C   0  0  0  0  0  0  0  0  0  0  0  0
  -29.4208  -24.3917   21.7620 C   0  0  0  0  0  0  0  0  0  0  0  0
  -24.1472   -9.3238   21.5110 C   0  0  0  0  0  0  0  0  0  0  0  0
  -23.0811   -9.1441   22.3922 C   0  0  0  0  0  0  0  0  0  0  0  0
  -28.2988  -26.0170   20.3769 C   0  0  0  0  0  0  0  0  0  0  0  0
  -29.7198  -24.5089   16.3705 C   0  0  0  0  0  0  0  0  0  0  0  0
  -21.9860  -11.0872   21.4635 C   0  0  0  0  0  0  0  0  0  0  0  0
  -29.3924  -22.3149   16.7567 C   0  0  0  0  0  0  0  0  0  0  0  0
  -27.2962  -14.1331   19.9442 C   0  0  0  0  0  0  0  0  0  0  0  0
  -29.4243  -15.5385   20.0050 C   0  0  0  0  0  0  0  0  0  0  0  0
  -19.8782  -23.8019   23.7833 C   0  0  0  0  0  0  0  0  0  0  0  0
  -27.3998  -25.4762   22.5584 C   0  0  0  0  0  0  0  0  0  0  0  0
  -21.2220  -23.4309   23.5861 C   0  0  0  0  0  0  0  0  0  0  0  0
  -27.3248  -26.2132   21.3679 C   0  0  0  0  0  0  0  0  0  0  0  0
  -30.1912  -23.3853   17.0934 C   0  0  0  0  0  0  0  0  0  0  0  0
  -25.8817  -11.7328   19.8013 C   0  0  0  0  0  0  0  0  0  0  0  0
  -29.3399  -25.1100   20.5726 C   0  0  0  0  0  0  0  0  0  0  0  0
  -24.1328  -10.3852   20.6060 C   0  0  0  0  0  0  0  0  0  0  0  0
  -22.0004  -10.0258   22.3685 C   0  0  0  0  0  0  0  0  0  0  0  0
  -23.0522  -11.2668   20.5822 C   0  0  0  0  0  0  0  0  0  0  0  0
  -28.0264  -15.3731   20.0174 C   0  0  0  0  0  0  0  0  0  0  0  0
  -28.6472  -24.0908   15.6142 C   0  0  0  0  0  0  0  0  0  0  0  0
  -29.6103  -16.8963   20.0955 C   0  0  0  0  0  0  0  0  0  0  0  0
  -30.4621  -14.5528   19.9193 C   0  0  0  0  0  0  0  0  0  0  0  0
  -24.2348  -25.2202   22.4138 C   0  0  0  0  0  0  0  0  0  0  0  0
  -24.3685  -28.4588   22.2875 C   0  0  0  0  0  0  0  0  0  0  0  0
  -26.1704  -31.2568   21.5318 C   0  0  0  0  0  0  0  0  0  0  0  0
  -26.1916  -21.5868   18.6248 C   0  0  0  0  0  0  0  0  0  0  0  0
  -19.1704  -24.7471   22.8450 C   0  0  0  0  0  0  0  0  0  0  0  0
  -26.3837  -25.6837   23.6479 C   0  0  0  0  0  0  0  0  0  0  0  0
  -26.2205  -27.2064   21.1183 C   0  0  0  0  0  0  0  0  0  0  0  0
  -20.1202  -25.5699   21.9783 C   0  0  0  0  0  0  0  0  0  0  0  0
  -27.5508  -20.8502   21.8321 C   0  0  0  0  0  0  0  0  0  0  0  0
  -21.2003  -24.6778   21.3747 C   0  0  0  0  0  0  0  0  0  0  0  0
  -27.9529  -19.3779   21.7296 C   0  0  0  0  0  0  0  0  0  0  0  0
  -26.2652  -21.1392   21.0601 C   0  0  0  0  0  0  0  0  0  0  0  0
  -26.6836  -19.2403   19.5458 C   0  0  0  0  0  0  0  0  0  0  0  0
  -22.0528  -24.0257   22.4699 C   0  0  1  0  0  0  0  0  0  0  0  0
  -25.0626  -26.2470   23.1335 C   0  0  1  0  0  0  0  0  0  0  0  0
  -28.0046  -18.9116   20.2622 C   0  0  2  0  0  0  0  0  0  0  0  0
  -25.9995  -33.7602   21.4973 C   0  0  0  0  0  0  0  0  0  0  0  0
  -32.4839  -24.3912   17.7342 C   0  0  0  0  0  0  0  0  0  0  0  0
  -32.0373  -21.9652   18.0393 C   0  0  0  0  0  0  0  0  0  0  0  0
  -28.2246  -26.3534   14.5905 C   0  0  0  0  0  0  0  0  0  0  0  0
  -26.2899  -24.8357   15.1290 C   0  0  0  0  0  0  0  0  0  0  0  0
  -27.7742  -24.3451   13.1957 C   0  0  0  0  0  0  0  0  0  0  0  0
  -22.6691  -28.3055   19.7580 C   0  0  0  0  0  0  0  0  0  0  0  0
  -23.3245  -30.6696   19.2581 C   0  0  0  0  0  0  0  0  0  0  0  0
  -22.0370  -30.1454   21.3295 C   0  0  0  0  0  0  0  0  0  0  0  0
  -27.0096  -22.3692   13.8431 C   0  0  0  0  0  0  0  0  0  0  0  0
  -27.9800  -20.4821   15.1287 C   0  0  0  0  0  0  0  0  0  0  0  0
  -28.3857  -31.5507   23.4722 C   0  0  0  0  0  0  0  0  0  0  0  0
  -26.1656  -21.8809   16.1607 C   0  0  0  0  0  0  0  0  0  0  0  0
  -30.8870  -23.6433   19.5186 C   0  0  0  0  0  0  0  0  0  1  0  0
  -24.4723  -29.4822   21.1826 C   0  0  1  0  0  0  0  0  0  0  0  0
  -26.4105  -32.5400   22.3066 C   0  0  2  0  0  0  0  0  0  0  0  0
  -31.3781  -23.3633   18.0747 C   0  0  0  0  0  0  0  0  0  0  0  0
  -27.7901  -24.8524   14.6822 C   0  0  0  0  0  0  0  0  0  0  0  0
  -23.1456  -29.6306   20.3857 C   0  0  0  0  0  0  0  0  0  0  0  0
  -27.4331  -21.9235   15.2642 C   0  0  0  0  0  0  0  0  0  0  0  0
  -27.3707  -16.5332   20.1087 N   0  0  0  0  0  0  0  0  0  0  0  0
  -28.4571  -22.7555   15.8571 N   0  0  0  0  0  0  0  0  0  0  0  0
  -28.3610  -17.4405   20.1546 N   0  0  0  0  0  0  0  0  0  0  0  0
  -25.2476  -27.3692   22.2112 N   0  0  0  0  0  0  0  0  0  0  0  0
  -26.3805  -20.6742   19.6758 N   0  0  0  0  0  0  0  0  0  0  0  0
  -30.7188  -17.6660   20.1295 N   0  0  0  0  0  0  0  0  0  0  0  0
  -30.0957  -13.2028   19.8323 N   0  0  0  0  0  0  0  0  0  0  0  0
  -23.0075  -24.9755   22.9999 N   0  0  0  0  0  0  0  0  0  0  0  0
  -24.9332  -30.7157   21.8108 N   0  0  0  0  0  0  0  0  0  0  0  0
  -26.3248  -21.0651   17.3439 N   0  0  0  0  0  0  0  0  0  0  0  0
  -27.8533  -32.6719   22.6558 N   0  3  0  0  0  0  0  0  0  0  0  0
  -31.6784  -14.8590   19.9363 O   0  0  0  0  0  0  0  0  0  0  0  0
  -24.6761  -24.6903   21.4008 O   0  0  0  0  0  0  0  0  0  0  0  0
  -23.5429  -28.6238   23.1890 O   0  0  0  0  0  0  0  0  0  0  0  0
  -26.9961  -30.7839   20.7539 O   0  0  0  0  0  0  0  0  0  0  0  0
  -25.9291  -22.7794   18.8141 O   0  0  0  0  0  0  0  0  0  0  0  0
  -25.1917  -10.5617   19.7312 O   0  0  0  0  0  0  0  0  0  0  0  0
  -30.2784  -24.9312   19.6036 O   0  0  0  0  0  0  0  0  0  1  0  0
  -20.9760   -9.8523   23.2137 F   0  0  0  0  0  0  0  0  0  0  0  0
  -23.0322  -12.2876   19.7143 F   0  0  0  0  0  0  0  0  0  0  0  0
  1  2  1  0  0  0  0
  1  5  2  0  0  0  0
  2  6  2  0  0  0  0
  3  8  2  0  0  0  0
  3 17  1  0  0  0  0
  4  9  1  0  0  0  0
  4 17  2  0  0  0  0
  5 19  1  0  0  0  0
  6 21  1  0  0  0  0
  7 10  2  0  0  0  0
  7 20  1  0  0  0  0
  8 24  1  0  0  0  0
  9 24  2  0  0  0  0
 10 25  1  0  0  0  0
 11 12  2  0  0  0  0
 11 26  1  0  0  0  0
 12 27  1  0  0  0  0
 13 22  1  0  0  0  0
 13 25  2  0  0  0  0
 14 23  1  0  0  0  0
 14 30  2  0  0  0  0
 15 27  2  0  0  0  0
 15 28  1  0  0  0  0
 16 23  2  0  0  0  0
 16 70  1  0  0  0  0
 17 29  1  0  0  0  0
 18 29  1  0  0  0  0
 18 31  2  0  0  0  0
 18 32  1  0  0  0  0
 19 21  2  0  0  0  0
 19 37  1  0  0  0  0
 20 22  2  0  0  0  0
 20 38  1  0  0  0  0
 21 46  1  0  0  0  0
 22 39  1  0  0  0  0
 23 65  1  0  0  0  0
 24 85  1  0  0  0  0
 25 86  1  0  0  0  0
 26 28  2  0  0  0  0
 26 85  1  0  0  0  0
 27 87  1  0  0  0  0
 28 88  1  0  0  0  0
 29 69  2  0  0  0  0
 30 66  1  0  0  0  0
 30 70  1  0  0  0  0
 31 71  1  0  0  0  0
 31 74  1  0  0  0  0
 32 75  1  0  0  0  0
 32 80  2  0  0  0  0
 33 47  1  0  0  0  0
 33 76  1  0  0  0  0
 33 81  2  0  0  0  0
 34 63  1  0  0  0  0
 34 72  1  0  0  0  0
 34 82  2  0  0  0  0
 35 64  1  0  0  0  0
 35 77  1  0  0  0  0
 35 83  2  0  0  0  0
 36 73  1  0  0  0  0
 36 78  1  0  0  0  0
 36 84  2  0  0  0  0
 37 40  1  0  0  0  0
 38 47  1  0  0  0  0
 39 72  1  0  0  0  0
 40 42  1  0  0  0  0
 41 43  1  0  0  0  0
 41 44  1  0  0  0  0
 42 46  1  0  0  0  0
 43 48  1  0  0  0  0
 44 73  1  0  0  0  0
 45 48  1  0  0  0  0
 45 73  1  0  0  0  0
 46 76  1  0  0  0  0
 47 72  1  0  0  0  0
 48 71  1  0  0  0  0
 49 64  1  0  0  0  0
 50 65  1  0  0  0  0
 51 65  1  0  0  0  0
 52 66  1  0  0  0  0
 53 66  1  0  0  0  0
 54 66  1  0  0  0  0
 55 67  1  0  0  0  0
 56 67  1  0  0  0  0
 57 67  1  0  0  0  0
 58 68  1  0  0  0  0
 59 68  1  0  0  0  0
 60 79  1  0  0  0  0
 61 68  1  0  0  0  0
 61 78  1  0  0  0  0
 62 65  1  0  0  0  0
 62 86  1  0  0  0  0
 63 67  1  0  0  0  0
 63 77  1  0  0  0  0
 64 79  1  0  0  0  0
 68 70  1  0  0  0  0
 69 71  1  0  0  0  0
M  CHG  1  79   1
M  ISO  4  36 100  62 101  78 100  86 101
M  END
> <Batch ID>
0086

> <Smiles>
CNC(C)C(=O)NC(C(=O)N1Cc2cc([101O:1][101CH2:1]C(C)(C)c3cc(C(C)(C)C)n(C(C)(C)C[100NH:0][100C:0](=O)N4CCCC(n5nc(-c6ccc(Oc7ccc(F)cc7F)cc6)c(C(N)=O)c5N)C4)c3)ccc2CC1C(=O)NC1CCCc2ccccc21)C(C)(C)C

> <Shape>
0.219

> <Color>
0.073

> <Negative vol penalty>
0.000

$$$$

  -OEChem-04052318593D

 83 91  0     1  0  0  0  0  0999 V2000
  -27.6073  -35.1522   23.6384 C   0  0  0  0  0  0  0  0  0  0  0  0
  -27.8734  -33.8192   23.3423 C   0  0  0  0  0  0  0  0  0  0  0  0
  -24.5630  -13.6952   20.1701 C   0  0  0  0  0  0  0  0  0  0  0  0
  -22.9384  -14.7712   21.5984 C   0  0  0  0  0  0  0  0  0  0  0  0
  -26.3564  -35.5190   24.1330 C   0  0  0  0  0  0  0  0  0  0  0  0
  -26.8890  -32.8519   23.5419 C   0  0  0  0  0  0  0  0  0  0  0  0
  -26.5219  -29.6236   19.6575 C   0  0  0  0  0  0  0  0  0  0  0  0
  -23.7647  -12.5524   20.1229 C   0  0  0  0  0  0  0  0  0  0  0  0
  -22.1401  -13.6283   21.5512 C   0  0  0  0  0  0  0  0  0  0  0  0
  -27.4832  -28.6174   19.5728 C   0  0  0  0  0  0  0  0  0  0  0  0
  -23.0909   -9.9016   22.1088 C   0  0  0  0  0  0  0  0  0  0  0  0
  -23.7177   -8.6667   22.2755 C   0  0  0  0  0  0  0  0  0  0  0  0
  -25.9223  -27.0531   20.5401 C   0  0  0  0  0  0  0  0  0  0  0  0
  -22.9531   -7.9833   20.0879 C   0  0  0  0  0  0  0  0  0  0  0  0
  -31.0838  -20.5256   20.6465 C   0  0  0  0  0  0  0  0  0  0  0  0
  -31.2222  -19.1142   18.9597 C   0  0  0  0  0  0  0  0  0  0  0  0
  -24.1499  -14.8046   20.9079 C   0  0  0  0  0  0  0  0  0  0  0  0
  -24.9346  -17.0872   20.0823 C   0  0  0  0  0  0  0  0  0  0  0  0
  -25.3530  -34.5572   24.3295 C   0  0  0  0  0  0  0  0  0  0  0  0
  -25.2550  -29.3543   20.1951 C   0  0  0  0  0  0  0  0  0  0  0  0
  -25.6239  -33.2060   24.0408 C   0  0  0  0  0  0  0  0  0  0  0  0
  -24.9458  -28.0570   20.6281 C   0  0  0  0  0  0  0  0  0  0  0  0
  -22.5532  -12.5189   20.8134 C   0  0  0  0  0  0  0  0  0  0  0  0
  -27.1844  -27.3326   20.0168 C   0  0  0  0  0  0  0  0  0  0  0  0
  -22.3950  -10.1773   20.9317 C   0  0  0  0  0  0  0  0  0  0  0  0
  -23.6489   -7.7076   21.2650 C   0  0  0  0  0  0  0  0  0  0  0  0
  -22.3262   -9.2182   19.9213 C   0  0  0  0  0  0  0  0  0  0  0  0
  -24.9744  -15.9852   20.9574 C   0  0  0  0  0  0  0  0  0  0  0  0
  -31.1146  -19.2220   21.0828 C   0  0  0  0  0  0  0  0  0  0  0  0
  -25.9080  -17.9345   20.5527 C   0  0  0  0  0  0  0  0  0  0  0  0
  -24.0930  -17.3239   18.9460 C   0  0  0  0  0  0  0  0  0  0  0  0
  -31.0645  -18.7734   22.4803 C   0  0  0  0  0  0  0  0  0  0  0  0
  -23.6104  -30.4126   22.7009 C   0  0  0  0  0  0  0  0  0  0  0  0
  -21.2438  -28.6013   21.4200 C   0  0  0  0  0  0  0  0  0  0  0  0
  -20.3615  -25.9698   19.4341 C   0  0  0  0  0  0  0  0  0  0  0  0
  -24.0319  -34.9947   24.9109 C   0  0  0  0  0  0  0  0  0  0  0  0
  -24.2202  -30.4442   20.2548 C   0  0  0  0  0  0  0  0  0  0  0  0
  -23.5937  -27.7113   21.1946 C   0  0  0  0  0  0  0  0  0  0  0  0
  -22.9198  -33.9631   24.7402 C   0  0  0  0  0  0  0  0  0  0  0  0
  -28.5638  -17.8544   24.8559 C   0  0  0  0  0  0  0  0  0  0  0  0
  -23.4171  -32.5733   25.1249 C   0  0  0  0  0  0  0  0  0  0  0  0
  -27.4088  -17.3574   23.9846 C   0  0  0  0  0  0  0  0  0  0  0  0
  -29.9195  -17.4904   24.2558 C   0  0  0  0  0  0  0  0  0  0  0  0
  -28.9535  -17.4344   21.9824 C   0  0  0  0  0  0  0  0  0  0  0  0
  -24.5738  -32.1313   24.2204 C   0  0  1  0  0  0  0  0  0  0  0  0
  -23.1350  -30.1815   21.2944 C   0  0  1  0  0  0  0  0  0  0  0  0
  -27.5693  -17.8251   22.5258 C   0  0  1  0  0  0  0  0  0  0  0  0
  -18.3536  -24.7099   18.6105 C   0  0  0  0  0  0  0  0  0  0  0  0
  -28.7923  -21.1900   17.5508 C   0  0  0  0  0  0  0  0  0  0  0  0
  -30.4110  -25.8310   21.6754 C   0  0  0  0  0  0  0  0  0  0  0  0
  -20.9886  -27.2366   24.1371 C   0  0  0  0  0  0  0  0  0  0  0  0
  -19.6942  -25.4082   23.0192 C   0  0  0  0  0  0  0  0  0  0  0  0
  -18.8115  -27.7413   23.0147 C   0  0  0  0  0  0  0  0  0  0  0  0
  -20.9630  -26.6261   16.6117 C   0  0  0  0  0  0  0  0  0  0  0  0
  -29.1964  -22.9482   19.3472 C   0  0  0  0  0  0  0  0  0  0  0  0
  -30.0829  -24.0524   19.9377 C   0  0  0  0  0  0  0  0  0  0  0  0
  -31.1539  -21.5978   18.3152 C   0  0  0  0  0  0  0  0  0  0  0  0
  -28.0668  -25.3177   20.9209 C   0  0  0  0  0  0  0  0  0  1  0  0
  -20.7998  -27.1655   21.5631 C   0  0  1  0  0  0  0  0  0  0  0  0
  -19.3276  -25.8436   18.3298 C   0  0  2  0  0  0  0  0  0  0  0  0
  -29.7664  -22.2389   18.0974 C   0  0  1  0  0  0  0  0  0  0  0  0
  -29.4628  -24.7332   21.1774 C   0  0  2  0  0  0  0  0  0  0  0  0
  -20.0998  -26.8946   22.9247 C   0  0  0  0  0  0  0  0  0  0  0  0
  -31.2009  -18.3484   20.0279 N   0  0  0  0  0  0  0  0  0  0  0  0
  -25.8999  -16.1174   21.9114 N   0  0  0  0  0  0  0  0  0  0  0  0
  -31.1532  -20.4404   19.2845 N   0  0  0  0  0  0  0  0  0  0  0  0
  -26.4507  -17.3125   21.6384 N   0  0  0  0  0  0  0  0  0  0  0  0
  -30.0098  -17.9437   22.8684 N   0  0  0  0  0  0  0  0  0  0  0  0
  -22.6178  -28.8127   21.2380 N   0  0  0  0  0  0  0  0  0  0  0  0
  -26.3441  -19.1433   20.1393 N   0  0  0  0  0  0  0  0  0  0  0  0
  -23.1461  -16.3498   18.6014 N   0  0  0  0  0  0  0  0  0  0  0  0
  -24.0718  -31.6938   22.9354 N   0  0  0  0  0  0  0  0  0  0  0  0
  -19.9717  -26.8762   20.3974 N   0  0  0  0  0  0  0  0  0  0  0  0
  -19.9945  -25.5777   17.0238 N   0  3  0  0  0  0  0  0  0  0  0  0
  -24.1893  -18.3609   18.2467 O   0  0  0  0  0  0  0  0  0  0  0  0
  -31.9640  -19.1803   23.2142 O   0  0  0  0  0  0  0  0  0  0  0  0
  -23.5609  -29.4967   23.5135 O   0  0  0  0  0  0  0  0  0  0  0  0
  -20.4015  -29.5016   21.4609 O   0  0  0  0  0  0  0  0  0  0  0  0
  -21.4083  -25.3259   19.4434 O   0  0  0  0  0  0  0  0  0  0  0  0
  -21.7739  -11.4040   20.7674 O   0  0  0  0  0  0  0  0  0  0  0  0
  -28.1211  -26.3488   19.9359 O   0  0  0  0  0  0  0  0  0  1  0  0
  -24.2522   -6.5224   21.4246 F   0  0  0  0  0  0  0  0  0  0  0  0
  -21.6601   -9.4777   18.7878 F   0  0  0  0  0  0  0  0  0  0  0  0
  1  2  1  0  0  0  0
  1  5  2  0  0  0  0
  2  6  2  0  0  0  0
  3  8  2  0  0  0  0
  3 17  1  0  0  0  0
  4  9  1  0  0  0  0
  4 17  2  0  0  0  0
  5 19  1  0  0  0  0
  6 21  1  0  0  0  0
  7 10  2  0  0  0  0
  7 20  1  0  0  0  0
  8 23  1  0  0  0  0
  9 23  2  0  0  0  0
 10 24  1  0  0  0  0
 11 12  2  0  0  0  0
 11 25  1  0  0  0  0
 12 26  1  0  0  0  0
 13 22  1  0  0  0  0
 13 24  2  0  0  0  0
 14 26  2  0  0  0  0
 14 27  1  0  0  0  0
 15 29  2  0  0  0  0
 15 66  1  0  0  0  0
 16 64  2  0  0  0  0
 16 66  1  0  0  0  0
 17 28  1  0  0  0  0
 18 28  1  0  0  0  0
 18 30  2  0  0  0  0
 18 31  1  0  0  0  0
 19 21  2  0  0  0  0
 19 36  1  0  0  0  0
 20 22  2  0  0  0  0
 20 37  1  0  0  0  0
 21 45  1  0  0  0  0
 22 38  1  0  0  0  0
 23 80  1  0  0  0  0
 24 81  1  0  0  0  0
 25 27  2  0  0  0  0
 25 80  1  0  0  0  0
 26 82  1  0  0  0  0
 27 83  1  0  0  0  0
 28 65  2  0  0  0  0
 29 32  1  0  0  0  0
 29 64  1  0  0  0  0
 30 67  1  0  0  0  0
 30 70  1  0  0  0  0
 31 71  1  0  0  0  0
 31 75  2  0  0  0  0
 32 68  1  0  0  0  0
 32 76  2  0  0  0  0
 33 46  1  0  0  0  0
 33 72  1  0  0  0  0
 33 77  2  0  0  0  0
 34 59  1  0  0  0  0
 34 69  1  0  0  0  0
 34 78  2  0  0  0  0
 35 60  1  0  0  0  0
 35 73  1  0  0  0  0
 35 79  2  0  0  0  0
 36 39  1  0  0  0  0
 37 46  1  0  0  0  0
 38 69  1  0  0  0  0
 39 41  1  0  0  0  0
 40 42  1  0  0  0  0
 40 43  1  0  0  0  0
 41 45  1  0  0  0  0
 42 47  1  0  0  0  0
 43 68  1  0  0  0  0
 44 47  1  0  0  0  0
 44 68  1  0  0  0  0
 45 72  1  0  0  0  0
 46 69  1  0  0  0  0
 47 67  1  0  0  0  0
 48 60  1  0  0  0  0
 49 61  1  0  0  0  0
 50 62  1  0  0  0  0
 51 63  1  0  0  0  0
 52 63  1  0  0  0  0
 53 63  1  0  0  0  0
 54 74  1  0  0  0  0
 55 56  1  0  0  0  0
 55 61  1  0  0  0  0
 56 62  1  0  0  0  0
 57 61  1  0  0  0  0
 57 66  1  0  0  0  0
 58 62  1  0  0  0  0
 58 81  1  0  0  0  0
 59 63  1  0  0  0  0
 59 73  1  0  0  0  0
 60 74  1  0  0  0  0
 65 67  1  0  0  0  0
M  CHG  1  74   1
M  ISO  4  29 100  32 100  58 101  81 101
M  END
> <Batch ID>
0086

> <Smiles>
CNC(C)C(=O)NC(C(=O)N1Cc2cc([101O:1][101CH2:1]C(C)CCC(C)Cn3cn[100c:0]([100C:0](=O)N4CCCC(n5nc(-c6ccc(Oc7ccc(F)cc7F)cc6)c(C(N)=O)c5N)C4)c3)ccc2CC1C(=O)NC1CCCc2ccccc21)C(C)(C)C

> <Shape>
0.279

> <Color>
0.070

> <Negative vol penalty>
0.000

$$$$

  -OEChem-04052318593D

 84 92  0     1  0  0  0  0  0999 V2000
  -30.8582  -30.4018   23.6515 C   0  0  0  0  0  0  0  0  0  0  0  0
  -31.2346  -29.2215   23.0185 C   0  0  0  0  0  0  0  0  0  0  0  0
  -23.0604   -9.9053   19.9388 C   0  0  0  0  0  0  0  0  0  0  0  0
  -23.8336   -9.8900   22.2277 C   0  0  0  0  0  0  0  0  0  0  0  0
  -29.5082  -30.7313   23.7639 C   0  0  0  0  0  0  0  0  0  0  0  0
  -30.2609  -28.3695   22.4984 C   0  0  0  0  0  0  0  0  0  0  0  0
  -30.6948  -24.9303   17.4497 C   0  0  0  0  0  0  0  0  0  0  0  0
  -22.3089   -8.7563   20.1850 C   0  0  0  0  0  0  0  0  0  0  0  0
  -23.0820   -8.7410   22.4739 C   0  0  0  0  0  0  0  0  0  0  0  0
  -30.9939  -23.5824   17.2557 C   0  0  0  0  0  0  0  0  0  0  0  0
  -19.8511   -7.9644   23.0896 C   0  0  0  0  0  0  0  0  0  0  0  0
  -19.1007   -7.9222   24.2645 C   0  0  0  0  0  0  0  0  0  0  0  0
  -28.6365  -23.0767   17.1780 C   0  0  0  0  0  0  0  0  0  0  0  0
  -20.3309   -5.9698   24.9801 C   0  0  0  0  0  0  0  0  0  0  0  0
  -28.4434  -18.7337   22.0104 C   0  0  0  0  0  0  0  0  0  0  0  0
  -23.8228  -10.4721   20.9602 C   0  0  0  0  0  0  0  0  0  0  0  0
  -24.1840  -12.9953   20.8560 C   0  0  0  0  0  0  0  0  0  0  0  0
  -28.5179  -29.8877   23.2364 C   0  0  0  0  0  0  0  0  0  0  0  0
  -29.3620  -25.3606   17.5202 C   0  0  0  0  0  0  0  0  0  0  0  0
  -28.8963  -28.6874   22.6050 C   0  0  0  0  0  0  0  0  0  0  0  0
  -28.3232  -24.4309   17.3703 C   0  0  0  0  0  0  0  0  0  0  0  0
  -29.1377  -18.3849   20.8632 C   0  0  0  0  0  0  0  0  0  0  0  0
  -28.4468  -18.3929   19.6566 C   0  0  0  0  0  0  0  0  0  0  0  0
  -27.1017  -18.7445   19.6344 C   0  0  0  0  0  0  0  0  0  0  0  0
  -22.3196   -8.1742   21.4525 C   0  0  0  0  0  0  0  0  0  0  0  0
  -29.9648  -22.6550   17.1227 C   0  0  0  0  0  0  0  0  0  0  0  0
  -20.8415   -7.0093   22.8598 C   0  0  0  0  0  0  0  0  0  0  0  0
  -19.3405   -6.9249   25.2098 C   0  0  0  0  0  0  0  0  0  0  0  0
  -21.0813   -6.0121   23.8051 C   0  0  0  0  0  0  0  0  0  0  0  0
  -24.5998  -11.6587   20.7064 C   0  0  0  0  0  0  0  0  0  0  0  0
  -26.4986  -19.0771   20.8366 C   0  0  0  0  0  0  0  0  0  0  0  0
  -25.2799  -13.7387   20.4917 C   0  0  0  0  0  0  0  0  0  0  0  0
  -22.9201  -13.5181   21.2859 C   0  0  0  0  0  0  0  0  0  0  0  0
  -27.5727  -26.7645   19.7408 C   0  0  0  0  0  0  0  0  0  0  0  0
  -25.3838  -26.8780   17.3496 C   0  0  0  0  0  0  0  0  0  0  0  0
  -24.2422  -25.5885   14.4032 C   0  0  0  0  0  0  0  0  0  0  0  0
  -30.7726  -14.7131   20.6553 C   0  0  0  0  0  0  0  0  0  0  0  0
  -27.0692  -30.2630   23.4238 C   0  0  0  0  0  0  0  0  0  0  0  0
  -29.0561  -26.8219   17.7031 C   0  0  0  0  0  0  0  0  0  0  0  0
  -26.8757  -24.8445   17.4182 C   0  0  0  0  0  0  0  0  0  0  0  0
  -26.1172  -29.4895   22.5152 C   0  0  0  0  0  0  0  0  0  0  0  0
  -29.6024  -12.3546   18.2584 C   0  0  0  0  0  0  0  0  0  0  0  0
  -26.4529  -28.0016   22.5332 C   0  0  0  0  0  0  0  0  0  0  0  0
  -28.1652  -12.0692   18.6976 C   0  0  0  0  0  0  0  0  0  0  0  0
  -30.5281  -12.5597   19.4555 C   0  0  0  0  0  0  0  0  0  0  0  0
  -28.6403  -13.2959   20.8583 C   0  0  0  0  0  0  0  0  0  0  0  0
  -27.8707  -27.7495   22.0062 C   0  0  1  0  0  0  0  0  0  0  0  0
  -27.6637  -27.0740   18.2733 C   0  0  1  0  0  0  0  0  0  0  0  0
  -27.6580  -13.1373   19.6851 C   0  0  2  0  0  0  0  0  0  0  0  0
  -26.3335  -18.7644   18.3557 C   0  0  0  0  0  0  0  0  0  0  0  0
  -25.0558  -19.4623   20.8758 C   0  0  0  0  0  0  0  0  0  0  0  0
  -22.4111  -25.8655   12.7098 C   0  0  0  0  0  0  0  0  0  0  0  0
  -23.4265  -25.5048   19.2451 C   0  0  0  0  0  0  0  0  0  0  0  0
  -21.9969  -24.9607   17.2630 C   0  0  0  0  0  0  0  0  0  0  0  0
  -22.4319  -27.3410   17.8691 C   0  0  0  0  0  0  0  0  0  0  0  0
  -26.1718  -26.2105   12.2471 C   0  0  0  0  0  0  0  0  0  0  0  0
  -30.5787  -18.0166   20.9469 C   0  0  0  0  0  0  0  0  0  0  0  0
  -29.1555  -18.0213   18.3786 C   0  0  0  0  0  0  0  0  0  0  0  0
  -30.0683  -19.1238   17.8375 C   0  0  0  0  0  0  0  0  0  0  0  0
  -30.8626  -16.8542   21.9069 C   0  0  0  0  0  0  0  0  0  0  0  0
  -29.3167  -20.3888   17.4396 C   0  0  0  0  0  0  0  0  0  1  0  0
  -24.2916  -25.9604   16.8555 C   0  0  1  0  0  0  0  0  0  0  0  0
  -23.8265  -26.2568   13.1051 C   0  0  2  0  0  0  0  0  0  0  0  0
  -23.0639  -25.9333   17.8092 C   0  0  0  0  0  0  0  0  0  0  0  0
  -27.1370  -19.0809   22.0283 N   0  0  0  0  0  0  0  0  0  0  0  0
  -25.8615  -11.5558   20.2801 N   0  0  0  0  0  0  0  0  0  0  0  0
  -26.2478  -12.8373   20.1586 N   0  0  0  0  0  0  0  0  0  0  0  0
  -26.6277  -26.2837   17.6052 N   0  0  0  0  0  0  0  0  0  0  0  0
  -29.9909  -13.5862   20.3519 N   0  0  0  0  0  0  0  0  0  0  0  0
  -25.5005  -15.0689   20.4268 N   0  0  0  0  0  0  0  0  0  0  0  0
  -21.9029  -12.6146   21.6227 N   0  0  0  0  0  0  0  0  0  0  0  0
  -27.8943  -27.8288   20.5613 N   0  0  0  0  0  0  0  0  0  0  0  0
  -23.9826  -26.3889   15.4956 N   0  0  0  0  0  0  0  0  0  0  0  0
  -30.1857  -15.6406   21.5073 N   0  0  0  0  0  0  0  0  0  0  0  0
  -24.7482  -25.8638   12.0019 N   0  3  0  0  0  0  0  0  0  0  0  0
  -22.6939  -14.7501   21.3533 O   0  0  0  0  0  0  0  0  0  0  0  0
  -27.2343  -25.6434   20.1020 O   0  0  0  0  0  0  0  0  0  0  0  0
  -25.1443  -28.0791   17.4962 O   0  0  0  0  0  0  0  0  0  0  0  0
  -24.7434  -24.4671   14.4444 O   0  0  0  0  0  0  0  0  0  0  0  0
  -31.9073  -14.8828   20.1963 O   0  0  0  0  0  0  0  0  0  0  0  0
  -21.5862   -7.0531   21.6931 O   0  0  0  0  0  0  0  0  0  0  0  0
  -30.2540  -21.3387   16.9340 O   0  0  0  0  0  0  0  0  0  1  0  0
  -18.6208   -6.8854   26.3388 F   0  0  0  0  0  0  0  0  0  0  0  0
  -22.0322   -5.0925   23.5904 F   0  0  0  0  0  0  0  0  0  0  0  0
  1  2  1  0  0  0  0
  1  5  2  0  0  0  0
  2  6  2  0  0  0  0
  3  8  2  0  0  0  0
  3 16  1  0  0  0  0
  4  9  1  0  0  0  0
  4 16  2  0  0  0  0
  5 18  1  0  0  0  0
  6 20  1  0  0  0  0
  7 10  2  0  0  0  0
  7 19  1  0  0  0  0
  8 25  1  0  0  0  0
  9 25  2  0  0  0  0
 10 26  1  0  0  0  0
 11 12  2  0  0  0  0
 11 27  1  0  0  0  0
 12 28  1  0  0  0  0
 13 21  1  0  0  0  0
 13 26  2  0  0  0  0
 14 28  2  0  0  0  0
 14 29  1  0  0  0  0
 15 22  2  0  0  0  0
 15 65  1  0  0  0  0
 16 30  1  0  0  0  0
 17 30  1  0  0  0  0
 17 32  2  0  0  0  0
 17 33  1  0  0  0  0
 18 20  2  0  0  0  0
 18 38  1  0  0  0  0
 19 21  2  0  0  0  0
 19 39  1  0  0  0  0
 20 47  1  0  0  0  0
 21 40  1  0  0  0  0
 22 23  1  0  0  0  0
 22 57  1  0  0  0  0
 23 24  2  0  0  0  0
 23 58  1  0  0  0  0
 24 31  1  0  0  0  0
 24 50  1  0  0  0  0
 25 81  1  0  0  0  0
 26 82  1  0  0  0  0
 27 29  2  0  0  0  0
 27 81  1  0  0  0  0
 28 83  1  0  0  0  0
 29 84  1  0  0  0  0
 30 66  2  0  0  0  0
 31 51  1  0  0  0  0
 31 65  2  0  0  0  0
 32 67  1  0  0  0  0
 32 70  1  0  0  0  0
 33 71  1  0  0  0  0
 33 76  2  0  0  0  0
 34 48  1  0  0  0  0
 34 72  1  0  0  0  0
 34 77  2  0  0  0  0
 35 62  1  0  0  0  0
 35 68  1  0  0  0  0
 35 78  2  0  0  0  0
 36 63  1  0  0  0  0
 36 73  1  0  0  0  0
 36 79  2  0  0  0  0
 37 69  1  0  0  0  0
 37 74  1  0  0  0  0
 37 80  2  0  0  0  0
 38 41  1  0  0  0  0
 39 48  1  0  0  0  0
 40 68  1  0  0  0  0
 41 43  1  0  0  0  0
 42 44  1  0  0  0  0
 42 45  1  0  0  0  0
 43 47  1  0  0  0  0
 44 49  1  0  0  0  0
 45 69  1  0  0  0  0
 46 49  1  0  0  0  0
 46 69  1  0  0  0  0
 47 72  1  0  0  0  0
 48 68  1  0  0  0  0
 49 67  1  0  0  0  0
 52 63  1  0  0  0  0
 53 64  1  0  0  0  0
 54 64  1  0  0  0  0
 55 64  1  0  0  0  0
 56 75  1  0  0  0  0
 57 60  1  0  0  0  0
 58 59  1  0  0  0  0
 59 61  1  0  0  0  0
 60 74  1  0  0  0  0
 61 82  1  0  0  0  0
 62 64  1  0  0  0  0
 62 73  1  0  0  0  0
 63 75  1  0  0  0  0
 66 67  1  0  0  0  0
M  CHG  1  75   1
M  ISO  4  37 100  61 101  74 100  82 101
M  END
> <Batch ID>
0086

> <Smiles>
CNC(C)C(=O)NC(C(=O)N1Cc2cc([101O:1][101CH2:1]CCc3c(CC[100NH:0][100C:0](=O)N4CCCC(n5nc(-c6ccc(Oc7ccc(F)cc7F)cc6)c(C(N)=O)c5N)C4)cnc(C)c3C)ccc2CC1C(=O)NC1CCCc2ccccc21)C(C)(C)C

> <Shape>
0.282

> <Color>
0.197

> <Negative vol penalty>
0.000

$$$$

  -OEChem-04052318592D

  0  0  0     0  0  0  0  0  0999 V2000
M  END
$$$$

  -OEChem-04052318593D

 93101  0     1  0  0  0  0  0999 V2000
  -30.7914  -35.8132   24.2474 C   0  0  0  0  0  0  0  0  0  0  0  0
  -31.2698  -34.5156   24.3981 C   0  0  0  0  0  0  0  0  0  0  0  0
  -23.1305   -9.8073   21.4557 C   0  0  0  0  0  0  0  0  0  0  0  0
  -23.8343  -10.7412   23.5698 C   0  0  0  0  0  0  0  0  0  0  0  0
  -29.4946  -36.1281   24.6511 C   0  0  0  0  0  0  0  0  0  0  0  0
  -30.4519  -33.5323   24.9536 C   0  0  0  0  0  0  0  0  0  0  0  0
  -30.3113  -27.5916   23.4724 C   0  0  0  0  0  0  0  0  0  0  0  0
  -22.4177   -8.8164   22.1307 C   0  0  0  0  0  0  0  0  0  0  0  0
  -23.1216   -9.7503   24.2449 C   0  0  0  0  0  0  0  0  0  0  0  0
  -30.8902  -26.4654   24.0559 C   0  0  0  0  0  0  0  0  0  0  0  0
  -23.0878   -5.9017   23.7054 C   0  0  0  0  0  0  0  0  0  0  0  0
  -23.2099   -4.5902   23.2466 C   0  0  0  0  0  0  0  0  0  0  0  0
  -28.8353  -26.0314   25.2426 C   0  0  0  0  0  0  0  0  0  0  0  0
  -29.7307  -22.8694   22.5814 C   0  0  0  0  0  0  0  0  0  0  0  0
  -29.6774  -20.5034   23.0101 C   0  0  0  0  0  0  0  0  0  0  0  0
  -20.8304   -4.5128   22.8349 C   0  0  0  0  0  0  0  0  0  0  0  0
  -23.8388  -10.7697   22.1753 C   0  0  0  0  0  0  0  0  0  0  0  0
  -24.1032  -13.0574   21.0777 C   0  0  0  0  0  0  0  0  0  0  0  0
  -28.6571  -35.1460   25.2030 C   0  0  0  0  0  0  0  0  0  0  0  0
  -28.9914  -27.9529   23.7786 C   0  0  0  0  0  0  0  0  0  0  0  0
  -29.1431  -33.8347   25.3663 C   0  0  0  0  0  0  0  0  0  0  0  0
  -28.2412  -27.1611   24.6597 C   0  0  0  0  0  0  0  0  0  0  0  0
  -30.1831  -21.7664   23.2970 C   0  0  0  0  0  0  0  0  0  0  0  0
  -22.4133   -8.7879   23.5253 C   0  0  0  0  0  0  0  0  0  0  0  0
  -30.1532  -25.6868   24.9434 C   0  0  0  0  0  0  0  0  0  0  0  0
  -21.8371   -6.5188   23.7291 C   0  0  0  0  0  0  0  0  0  0  0  0
  -22.0812   -3.8957   22.8113 C   0  0  0  0  0  0  0  0  0  0  0  0
  -20.7084   -5.8244   23.2938 C   0  0  0  0  0  0  0  0  0  0  0  0
  -24.5757  -11.7933   21.4786 C   0  0  0  0  0  0  0  0  0  0  0  0
  -28.7793  -22.6578   21.5966 C   0  0  0  0  0  0  0  0  0  0  0  0
  -28.7282  -20.3977   22.0063 C   0  0  0  0  0  0  0  0  0  0  0  0
  -25.1794  -13.6463   20.4602 C   0  0  0  0  0  0  0  0  0  0  0  0
  -22.8073  -13.6466   21.2484 C   0  0  0  0  0  0  0  0  0  0  0  0
  -27.6126  -30.4801   25.1259 C   0  0  0  0  0  0  0  0  0  0  0  0
  -24.8793  -28.9469   24.2889 C   0  0  0  0  0  0  0  0  0  0  0  0
  -23.3232  -26.0060   23.5294 C   0  0  0  0  0  0  0  0  0  0  0  0
  -30.6220  -14.8686   20.2870 C   0  0  0  0  0  0  0  0  0  0  0  0
  -27.2790  -35.5449   25.6683 C   0  0  0  0  0  0  0  0  0  0  0  0
  -28.3727  -29.1554   23.1201 C   0  0  0  0  0  0  0  0  0  0  0  0
  -26.8138  -27.4945   25.0058 C   0  0  0  0  0  0  0  0  0  0  0  0
  -26.3478  -34.3582   25.9024 C   0  0  0  0  0  0  0  0  0  0  0  0
  -29.6184  -11.6979   19.0158 C   0  0  0  0  0  0  0  0  0  0  0  0
  -27.0589  -33.2713   26.7023 C   0  0  0  0  0  0  0  0  0  0  0  0
  -28.1809  -11.5419   19.5153 C   0  0  0  0  0  0  0  0  0  0  0  0
  -30.4989  -12.4066   20.0427 C   0  0  0  0  0  0  0  0  0  0  0  0
  -28.5421  -13.5482   21.0129 C   0  0  0  0  0  0  0  0  0  0  0  0
  -28.2776  -32.7347   25.9418 C   0  0  1  0  0  0  0  0  0  0  0  0
  -27.1899  -29.7212   23.9000 C   0  0  1  0  0  0  0  0  0  0  0  0
  -27.6025  -12.8889   19.9887 C   0  0  2  0  0  0  0  0  0  0  0  0
  -26.6536  -19.0255   22.0103 C   0  0  0  0  0  0  0  0  0  0  0  0
  -21.0768  -25.0646   22.9257 C   0  0  0  0  0  0  0  0  0  0  0  0
  -27.2853  -25.0709   18.1578 C   0  0  0  0  0  0  0  0  0  0  0  0
  -29.6571  -25.4594   17.4760 C   0  0  0  0  0  0  0  0  0  0  0  0
  -28.7330  -26.5880   19.5156 C   0  0  0  0  0  0  0  0  0  0  0  0
  -23.9937  -29.2015   27.1976 C   0  0  0  0  0  0  0  0  0  0  0  0
  -22.2523  -27.4600   26.7470 C   0  0  0  0  0  0  0  0  0  0  0  0
  -22.1916  -29.6295   25.5171 C   0  0  0  0  0  0  0  0  0  0  0  0
  -29.6965  -17.7409   18.2565 C   0  0  0  0  0  0  0  0  0  0  0  0
  -30.6189  -19.6245   19.5828 C   0  0  0  0  0  0  0  0  0  0  0  0
  -24.3088  -25.0205   20.9186 C   0  0  0  0  0  0  0  0  0  0  0  0
  -31.2188  -21.9392   24.3792 C   0  0  0  0  0  0  0  0  0  0  0  0
  -28.2719  -23.8180   20.8073 C   0  0  0  0  0  0  0  0  0  0  0  0
  -30.6242  -22.2030   25.7643 C   0  0  0  0  0  0  0  0  0  0  0  0
  -29.1159  -24.0675   19.5424 C   0  0  0  0  0  0  0  0  0  0  0  0
  -28.3531  -18.5839   20.1976 C   0  0  0  0  0  0  0  0  0  0  0  0
  -30.5898  -17.3326   20.5818 C   0  0  0  0  0  0  0  0  0  0  0  0
  -29.8426  -23.5090   25.8471 C   0  0  0  0  0  0  0  0  0  1  0  0
  -28.1624  -19.0577   21.6731 C   0  0  1  0  0  0  0  0  0  0  0  0
  -23.9775  -27.9323   24.9493 C   0  0  1  0  0  0  0  0  0  0  0  0
  -22.3878  -25.6247   22.3963 C   0  0  2  0  0  0  0  0  0  0  0  0
  -28.7173  -25.2963   18.6819 C   0  0  0  0  0  0  0  0  0  0  0  0
  -23.1313  -28.5504   26.0979 C   0  0  0  0  0  0  0  0  0  0  0  0
  -29.8055  -18.3205   19.6877 C   0  0  0  0  0  0  0  0  0  0  0  0
  -25.8527  -11.5902   21.1437 N   0  0  0  0  0  0  0  0  0  0  0  0
  -28.2645  -21.4461   21.2895 N   0  0  0  0  0  0  0  0  0  0  0  0
  -26.1917  -12.7345   20.5258 N   0  0  0  0  0  0  0  0  0  0  0  0
  -26.2555  -28.6837   24.3411 N   0  0  0  0  0  0  0  0  0  0  0  0
  -29.8948  -13.6778   20.4489 N   0  0  0  0  0  0  0  0  0  0  0  0
  -25.3492  -14.8498   19.8729 N   0  0  0  0  0  0  0  0  0  0  0  0
  -21.8169  -12.9038   21.9054 N   0  0  0  0  0  0  0  0  0  0  0  0
  -27.8610  -31.8206   24.9000 N   0  0  0  0  0  0  0  0  0  0  0  0
  -23.1863  -27.3324   23.8804 N   0  0  0  0  0  0  0  0  0  0  0  0
  -29.9736  -16.0291   20.6914 N   0  0  0  0  0  0  0  0  0  0  0  0
  -23.0216  -24.5944   21.5259 N   0  3  0  0  0  0  0  0  0  0  0  0
  -22.5308  -14.7912   20.8162 O   0  0  0  0  0  0  0  0  0  0  0  0
  -27.7051  -29.8934   26.1978 O   0  0  0  0  0  0  0  0  0  0  0  0
  -24.3807  -29.9329   23.7404 O   0  0  0  0  0  0  0  0  0  0  0  0
  -24.0954  -25.2063   24.0535 O   0  0  0  0  0  0  0  0  0  0  0  0
  -31.7624  -14.8961   19.8119 O   0  0  0  0  0  0  0  0  0  0  0  0
  -21.7177   -7.8212   24.1843 O   0  0  0  0  0  0  0  0  0  0  0  0
  -30.7160  -24.5875   25.5148 O   0  0  0  0  0  0  0  0  0  1  0  0
  -22.1988   -2.6368   22.3692 F   0  0  0  0  0  0  0  0  0  0  0  0
  -19.5044   -6.4123   23.3131 F   0  0  0  0  0  0  0  0  0  0  0  0
  1  2  1  0  0  0  0
  1  5  2  0  0  0  0
  2  6  2  0  0  0  0
  3  8  2  0  0  0  0
  3 17  1  0  0  0  0
  4  9  1  0  0  0  0
  4 17  2  0  0  0  0
  5 19  1  0  0  0  0
  6 21  1  0  0  0  0
  7 10  2  0  0  0  0
  7 20  1  0  0  0  0
  8 24  1  0  0  0  0
  9 24  2  0  0  0  0
 10 25  1  0  0  0  0
 11 12  2  0  0  0  0
 11 26  1  0  0  0  0
 12 27  1  0  0  0  0
 13 22  1  0  0  0  0
 13 25  2  0  0  0  0
 14 23  1  0  0  0  0
 14 30  2  0  0  0  0
 15 23  2  0  0  0  0
 15 31  1  0  0  0  0
 16 27  2  0  0  0  0
 16 28  1  0  0  0  0
 17 29  1  0  0  0  0
 18 29  1  0  0  0  0
 18 32  2  0  0  0  0
 18 33  1  0  0  0  0
 19 21  2  0  0  0  0
 19 38  1  0  0  0  0
 20 22  2  0  0  0  0
 20 39  1  0  0  0  0
 21 47  1  0  0  0  0
 22 40  1  0  0  0  0
 23 61  1  0  0  0  0
 24 90  1  0  0  0  0
 25 91  1  0  0  0  0
 26 28  2  0  0  0  0
 26 90  1  0  0  0  0
 27 92  1  0  0  0  0
 28 93  1  0  0  0  0
 29 74  2  0  0  0  0
 30 62  1  0  0  0  0
 30 75  1  0  0  0  0
 31 68  1  0  0  0  0
 31 75  2  0  0  0  0
 32 76  1  0  0  0  0
 32 79  1  0  0  0  0
 33 80  1  0  0  0  0
 33 85  2  0  0  0  0
 34 48  1  0  0  0  0
 34 81  1  0  0  0  0
 34 86  2  0  0  0  0
 35 69  1  0  0  0  0
 35 77  1  0  0  0  0
 35 87  2  0  0  0  0
 36 70  1  0  0  0  0
 36 82  1  0  0  0  0
 36 88  2  0  0  0  0
 37 78  1  0  0  0  0
 37 83  1  0  0  0  0
 37 89  2  0  0  0  0
 38 41  1  0  0  0  0
 39 48  1  0  0  0  0
 40 77  1  0  0  0  0
 41 43  1  0  0  0  0
 42 44  1  0  0  0  0
 42 45  1  0  0  0  0
 43 47  1  0  0  0  0
 44 49  1  0  0  0  0
 45 78  1  0  0  0  0
 46 49  1  0  0  0  0
 46 78  1  0  0  0  0
 47 81  1  0  0  0  0
 48 77  1  0  0  0  0
 49 76  1  0  0  0  0
 50 68  1  0  0  0  0
 51 70  1  0  0  0  0
 52 71  1  0  0  0  0
 53 71  1  0  0  0  0
 54 71  1  0  0  0  0
 55 72  1  0  0  0  0
 56 72  1  0  0  0  0
 57 72  1  0  0  0  0
 58 73  1  0  0  0  0
 59 73  1  0  0  0  0
 60 84  1  0  0  0  0
 61 63  1  0  0  0  0
 62 64  1  0  0  0  0
 63 67  1  0  0  0  0
 64 71  1  0  0  0  0
 65 68  1  0  0  0  0
 65 73  1  0  0  0  0
 66 73  1  0  0  0  0
 66 83  1  0  0  0  0
 67 91  1  0  0  0  0
 69 72  1  0  0  0  0
 69 82  1  0  0  0  0
 70 84  1  0  0  0  0
 74 76  1  0  0  0  0
M  CHG  1  84   1
M  ISO  4  37 100  67 101  83 100  91 101
M  END
> <Batch ID>
0086

> <Smiles>
CNC(C)C(=O)NC(C(=O)N1Cc2cc([101O:1][101CH2:1]CCc3cc(CCC(C)(C)C)nc(C(C)CC(C)(C)C[100NH:0][100C:0](=O)N4CCCC(n5nc(-c6ccc(Oc7ccc(F)cc7F)cc6)c(C(N)=O)c5N)C4)c3)ccc2CC1C(=O)NC1CCCc2ccccc21)C(C)(C)C

> <Shape>
0.276

> <Color>
0.148

> <Negative vol penalty>
0.000

$$$$

  -OEChem-04052318593D

 95103  0     1  0  0  0  0  0999 V2000
  -30.1160  -17.4566   18.5018 C   0  0  0  0  0  0  0  0  0  0  0  0
  -29.3327  -18.3813   17.8203 C   0  0  0  0  0  0  0  0  0  0  0  0
  -25.8963  -14.6814   20.9176 C   0  0  0  0  0  0  0  0  0  0  0  0
  -23.8076  -14.1925   19.8062 C   0  0  0  0  0  0  0  0  0  0  0  0
  -30.4101  -17.6564   19.8489 C   0  0  0  0  0  0  0  0  0  0  0  0
  -28.8533  -19.5120   18.4824 C   0  0  0  0  0  0  0  0  0  0  0  0
  -24.5342  -25.2080   17.9252 C   0  0  0  0  0  0  0  0  0  0  0  0
  -26.1860  -13.3182   20.9730 C   0  0  0  0  0  0  0  0  0  0  0  0
  -24.0973  -12.8292   19.8615 C   0  0  0  0  0  0  0  0  0  0  0  0
  -23.4321  -25.8576   18.4795 C   0  0  0  0  0  0  0  0  0  0  0  0
  -24.1191   -9.1987   20.0317 C   0  0  0  0  0  0  0  0  0  0  0  0
  -23.0985   -8.3346   20.4284 C   0  0  0  0  0  0  0  0  0  0  0  0
  -24.8336  -26.7156   20.2455 C   0  0  0  0  0  0  0  0  0  0  0  0
  -22.9523   -9.4812   22.5499 C   0  0  0  0  0  0  0  0  0  0  0  0
  -24.7071  -15.1186   20.3343 C   0  0  0  0  0  0  0  0  0  0  0  0
  -24.7435  -17.4267   19.2485 C   0  0  0  0  0  0  0  0  0  0  0  0
  -29.9232  -18.7840   20.5304 C   0  0  0  0  0  0  0  0  0  0  0  0
  -25.7942  -25.2986   18.5340 C   0  0  0  0  0  0  0  0  0  0  0  0
  -29.1591  -19.7437   19.8357 C   0  0  0  0  0  0  0  0  0  0  0  0
  -25.9506  -26.0684   19.6955 C   0  0  0  0  0  0  0  0  0  0  0  0
  -25.2866  -12.3920   20.4449 C   0  0  0  0  0  0  0  0  0  0  0  0
  -23.5811  -26.6092   19.6414 C   0  0  0  0  0  0  0  0  0  0  0  0
  -24.5563  -10.2041   20.8941 C   0  0  0  0  0  0  0  0  0  0  0  0
  -22.5151   -8.4759   21.6875 C   0  0  0  0  0  0  0  0  0  0  0  0
  -23.9729  -10.3453   22.1532 C   0  0  0  0  0  0  0  0  0  0  0  0
  -24.4070  -16.5267   20.2774 C   0  0  0  0  0  0  0  0  0  0  0  0
  -21.1567  -29.4887   22.9007 C   0  0  0  0  0  0  0  0  0  0  0  0
  -21.4305  -28.6417   21.8527 C   0  0  0  0  0  0  0  0  0  0  0  0
  -24.2371  -18.6326   19.6679 C   0  0  0  0  0  0  0  0  0  0  0  0
  -19.2922  -29.1701   21.9248 C   0  0  0  0  0  0  0  0  0  0  0  0
  -25.4506  -17.1935   18.0232 C   0  0  0  0  0  0  0  0  0  0  0  0
  -27.8128  -23.2150   19.8331 C   0  0  0  0  0  0  0  0  0  0  0  0
  -29.7519  -25.8080   20.0290 C   0  0  0  0  0  0  0  0  0  0  0  0
  -30.0407  -29.2055   20.1720 C   0  0  0  0  0  0  0  0  0  0  0  0
  -20.1274  -21.6699   21.9108 C   0  0  0  0  0  0  0  0  0  0  0  0
  -30.2786  -18.9547   21.9863 C   0  0  0  0  0  0  0  0  0  0  0  0
  -26.9785  -24.6138   17.9087 C   0  0  0  0  0  0  0  0  0  0  0  0
  -27.2861  -26.2140   20.3765 C   0  0  0  0  0  0  0  0  0  0  0  0
  -29.3658  -19.9397   22.7095 C   0  0  0  0  0  0  0  0  0  0  0  0
  -22.3605  -20.0353   24.1509 C   0  0  0  0  0  0  0  0  0  0  0  0
  -29.2516  -21.2275   21.9075 C   0  0  0  0  0  0  0  0  0  0  0  0
  -23.1148  -19.0473   23.2594 C   0  0  0  0  0  0  0  0  0  0  0  0
  -20.8996  -20.1747   23.7287 C   0  0  0  0  0  0  0  0  0  0  0  0
  -21.4494  -19.5242   21.4161 C   0  0  0  0  0  0  0  0  0  0  0  0
  -28.6012  -20.9654   20.5432 C   0  0  1  0  0  0  0  0  0  0  0  0
  -28.1096  -24.3537   18.8988 C   0  0  1  0  0  0  0  0  0  0  0  0
  -22.9411  -19.3922   21.7680 C   0  0  2  0  0  0  0  0  0  0  0  0
  -23.8468  -33.4915   24.3372 C   0  0  0  0  0  0  0  0  0  0  0  0
  -22.4251  -25.8790   22.8156 C   0  0  0  0  0  0  0  0  0  0  0  0
  -31.7521  -31.0306   20.3667 C   0  0  0  0  0  0  0  0  0  0  0  0
  -20.6321  -23.4858   17.7674 C   0  0  0  0  0  0  0  0  0  0  0  0
  -23.7515  -29.0882   21.0112 C   0  0  0  0  0  0  0  0  0  0  0  0
  -17.0195  -30.1032   22.4816 C   0  0  0  0  0  0  0  0  0  0  0  0
  -17.2305  -27.7666   21.5695 C   0  0  0  0  0  0  0  0  0  0  0  0
  -17.5675  -29.7323   20.0849 C   0  0  0  0  0  0  0  0  0  0  0  0
  -30.0681  -25.1912   23.0004 C   0  0  0  0  0  0  0  0  0  0  0  0
  -30.9651  -27.5074   23.3145 C   0  0  0  0  0  0  0  0  0  0  0  0
  -32.1756  -25.8909   21.8502 C   0  0  0  0  0  0  0  0  0  0  0  0
  -29.2694  -30.3664   17.5612 C   0  0  0  0  0  0  0  0  0  0  0  0
  -18.3392  -25.3208   18.6707 C   0  0  0  0  0  0  0  0  0  0  0  0
  -22.0859  -30.0338   23.9032 C   0  0  0  0  0  0  0  0  0  0  0  0
  -23.4621  -32.0543   24.6499 C   0  0  0  0  0  0  0  0  0  0  0  0
  -23.3387  -27.0401   22.4315 C   0  0  0  0  0  0  0  0  0  0  0  0
  -22.4624  -31.5073   23.6309 C   0  0  0  0  0  0  0  0  0  0  0  0
  -19.9866  -27.6273   20.0706 C   0  0  0  0  0  0  0  0  0  0  0  0
  -19.4349  -23.0727   19.9843 C   0  0  0  0  0  0  0  0  0  0  0  0
  -19.9737  -26.1330   20.3646 C   0  0  0  0  0  0  0  0  0  0  0  0
  -29.9923  -26.8881   21.0560 C   0  0  1  0  0  0  0  0  0  0  0  0
  -30.9322  -30.1734   19.4150 C   0  0  2  0  0  0  0  0  0  0  0  0
  -20.3713  -23.9763   19.1851 C   0  0  2  0  0  0  0  0  0  0  0  0
  -22.7315  -27.9965   21.3761 C   0  0  1  0  0  0  0  0  0  1  0  0
  -17.8685  -29.1954   21.5302 C   0  0  0  0  0  0  0  0  0  0  0  0
  -30.7746  -26.3652   22.2938 C   0  0  0  0  0  0  0  0  0  0  0  0
  -23.7386  -17.1110   21.2753 N   0  0  0  0  0  0  0  0  0  0  0  0
  -19.8239  -29.8136   22.9403 N   0  0  0  0  0  0  0  0  0  0  0  0
  -20.2263  -28.4464   21.2371 N   0  0  0  0  0  0  0  0  0  0  0  0
  -23.6511  -18.3911   20.8756 N   0  0  0  0  0  0  0  0  0  0  0  0
  -28.4125  -25.5204   19.7302 N   0  0  0  0  0  0  0  0  0  0  0  0
  -20.8045  -20.5038   22.3044 N   0  0  0  0  0  0  0  0  0  0  0  0
  -24.2404  -19.8654   19.1178 N   0  0  0  0  0  0  0  0  0  0  0  0
  -25.9015  -15.8952   17.7487 N   0  0  0  0  0  0  0  0  0  0  0  0
  -28.7008  -22.1608   19.7353 N   0  0  0  0  0  0  0  0  0  0  0  0
  -30.6513  -27.9822   20.3511 N   0  0  0  0  0  0  0  0  0  0  0  0
  -20.0893  -21.9106   20.5428 N   0  0  0  0  0  0  0  0  0  0  0  0
  -30.1092  -31.0755   18.5606 N   0  3  0  0  0  0  0  0  0  0  0  0
  -19.7821  -25.3637   19.1107 N   0  3  1  0  0  0  0  0  0  0  0  0
  -25.6903  -18.1127   17.2040 O   0  0  0  0  0  0  0  0  0  0  0  0
  -26.8502  -23.2881   20.5879 O   0  0  0  0  0  0  0  0  0  0  0  0
  -30.7169  -25.2455   19.5057 O   0  0  0  0  0  0  0  0  0  0  0  0
  -28.9168  -29.5059   20.5683 O   0  0  0  0  0  0  0  0  0  0  0  0
  -19.6008  -22.4422   22.7190 O   0  0  0  0  0  0  0  0  0  0  0  0
  -25.5691  -11.0616   20.4985 O   0  0  0  0  0  0  0  0  0  0  0  0
  -22.5069  -27.2437   20.1849 O   0  0  0  0  0  0  0  0  0  1  0  0
  -21.5340   -7.6470   22.0677 F   0  0  0  0  0  0  0  0  0  0  0  0
  -24.3879  -11.3100   22.9856 F   0  0  0  0  0  0  0  0  0  0  0  0
  1  2  1  0  0  0  0
  1  5  2  0  0  0  0
  2  6  2  0  0  0  0
  3  8  2  0  0  0  0
  3 15  1  0  0  0  0
  4  9  1  0  0  0  0
  4 15  2  0  0  0  0
  5 17  1  0  0  0  0
  6 19  1  0  0  0  0
  7 10  2  0  0  0  0
  7 18  1  0  0  0  0
  8 21  1  0  0  0  0
  9 21  2  0  0  0  0
 10 22  1  0  0  0  0
 11 12  2  0  0  0  0
 11 23  1  0  0  0  0
 12 24  1  0  0  0  0
 13 20  1  0  0  0  0
 13 22  2  0  0  0  0
 14 24  2  0  0  0  0
 14 25  1  0  0  0  0
 15 26  1  0  0  0  0
 16 26  1  0  0  0  0
 16 29  2  0  0  0  0
 16 31  1  0  0  0  0
 17 19  2  0  0  0  0
 17 36  1  0  0  0  0
 18 20  2  0  0  0  0
 18 37  1  0  0  0  0
 19 45  1  0  0  0  0
 20 38  1  0  0  0  0
 21 92  1  0  0  0  0
 22 93  1  0  0  0  0
 23 25  2  0  0  0  0
 23 92  1  0  0  0  0
 24 94  1  0  0  0  0
 25 95  1  0  0  0  0
 26 74  2  0  0  0  0
 27 28  2  0  0  0  0
 27 61  1  0  0  0  0
 27 75  1  0  0  0  0
 28 71  1  0  0  0  0
 28 76  1  0  0  0  0
 29 77  1  0  0  0  0
 29 80  1  0  0  0  0
 30 72  1  0  0  0  0
 30 75  2  0  0  0  0
 30 76  1  0  0  0  0
 31 81  1  0  0  0  0
 31 87  2  0  0  0  0
 32 46  1  0  0  0  0
 32 82  1  0  0  0  0
 32 88  2  0  0  0  0
 33 68  1  0  0  0  0
 33 78  1  0  0  0  0
 33 89  2  0  0  0  0
 34 69  1  0  0  0  0
 34 83  1  0  0  0  0
 34 90  2  0  0  0  0
 35 79  1  0  0  0  0
 35 84  1  0  0  0  0
 35 91  2  0  0  0  0
 36 39  1  0  0  0  0
 37 46  1  0  0  0  0
 38 78  1  0  0  0  0
 39 41  1  0  0  0  0
 40 42  1  0  0  0  0
 40 43  1  0  0  0  0
 41 45  1  0  0  0  0
 42 47  1  0  0  0  0
 43 79  1  0  0  0  0
 44 47  1  0  0  0  0
 44 79  1  0  0  0  0
 45 82  1  0  0  0  0
 46 78  1  0  0  0  0
 47 77  1  0  0  0  0
 48 62  1  0  0  0  0
 49 63  1  0  0  0  0
 50 69  1  0  0  0  0
 51 70  1  0  0  0  0
 52 71  1  0  0  0  0
 53 72  1  0  0  0  0
 54 72  1  0  0  0  0
 55 72  1  0  0  0  0
 56 73  1  0  0  0  0
 57 73  1  0  0  0  0
 58 73  1  0  0  0  0
 59 85  1  0  0  0  0
 60 86  1  0  0  0  0
 61 64  1  0  0  0  0
 62 64  1  0  0  0  0
 63 71  1  0  0  0  0
 65 67  1  0  0  0  0
 65 76  1  0  0  0  0
 66 70  1  0  0  0  0
 66 84  1  0  0  0  0
 67 86  1  0  0  0  0
 68 73  1  0  0  0  0
 68 83  1  0  0  0  0
 69 85  1  0  0  0  0
 70 86  1  0  0  0  0
 71 93  1  0  0  0  0
 74 77  1  0  0  0  0
M  CHG  2  85   1  86   1
M  ISO  4  35 100  71 101  84 100  93 101
M  END
> <Batch ID>
0086

> <Smiles>
CCCCc1nc(C(C)(C)C)n(CCN(C)C(C)C[100NH:0][100C:0](=O)N2CCCC(n3nc(-c4ccc(Oc5ccc(F)cc5F)cc4)c(C(N)=O)c3N)C2)c1[101C:1](C)(CC)[101O:1]c1ccc2c(c1)CN(C(=O)C(NC(=O)C(C)NC)C(C)(C)C)C(C(=O)NC1CCCc3ccccc31)C2

> <Shape>
0.236

> <Color>
0.047

> <Negative vol penalty>
0.000

$$$$

  -OEChem-04052318593D

 85 93  0     1  0  0  0  0  0999 V2000
  -22.7554  -16.3209   24.0814 C   0  0  0  0  0  0  0  0  0  0  0  0
  -23.6035  -17.2680   23.5165 C   0  0  0  0  0  0  0  0  0  0  0  0
  -25.8702  -14.4882   21.7044 C   0  0  0  0  0  0  0  0  0  0  0  0
  -25.5906  -15.9503   19.8016 C   0  0  0  0  0  0  0  0  0  0  0  0
  -21.3853  -16.5688   24.1538 C   0  0  0  0  0  0  0  0  0  0  0  0
  -23.0818  -18.4631   23.0224 C   0  0  0  0  0  0  0  0  0  0  0  0
  -25.8155  -22.4952   24.4058 C   0  0  0  0  0  0  0  0  0  0  0  0
  -24.5077  -14.1910   21.6764 C   0  0  0  0  0  0  0  0  0  0  0  0
  -24.2280  -15.6532   19.7735 C   0  0  0  0  0  0  0  0  0  0  0  0
  -26.9990  -22.7319   23.7079 C   0  0  0  0  0  0  0  0  0  0  0  0
  -22.4261  -12.2117   19.8926 C   0  0  0  0  0  0  0  0  0  0  0  0
  -22.0512  -10.8749   20.0275 C   0  0  0  0  0  0  0  0  0  0  0  0
  -25.8771  -24.4089   22.3858 C   0  0  0  0  0  0  0  0  0  0  0  0
  -30.0190  -23.8711   19.7199 C   0  0  0  0  0  0  0  0  0  0  0  0
  -20.7934  -11.4282   22.0147 C   0  0  0  0  0  0  0  0  0  0  0  0
  -26.4117  -15.3679   20.7670 C   0  0  0  0  0  0  0  0  0  0  0  0
  -28.8517  -14.9965   20.1219 C   0  0  0  0  0  0  0  0  0  0  0  0
  -20.8477  -17.7716   23.6692 C   0  0  0  0  0  0  0  0  0  0  0  0
  -24.6491  -23.2071   24.0909 C   0  0  0  0  0  0  0  0  0  0  0  0
  -21.7030  -18.7266   23.0872 C   0  0  0  0  0  0  0  0  0  0  0  0
  -24.6807  -24.1812   23.0828 C   0  0  0  0  0  0  0  0  0  0  0  0
  -29.4918  -24.9995   20.3380 C   0  0  0  0  0  0  0  0  0  0  0  0
  -30.2194  -26.1844   20.3468 C   0  0  0  0  0  0  0  0  0  0  0  0
  -23.6866  -14.7735   20.7109 C   0  0  0  0  0  0  0  0  0  0  0  0
  -27.0292  -23.6867   22.6958 C   0  0  0  0  0  0  0  0  0  0  0  0
  -21.9846  -13.1567   20.8188 C   0  0  0  0  0  0  0  0  0  0  0  0
  -21.2349  -10.4832   21.0884 C   0  0  0  0  0  0  0  0  0  0  0  0
  -21.1683  -12.7649   21.8798 C   0  0  0  0  0  0  0  0  0  0  0  0
  -27.8190  -15.6757   20.7958 C   0  0  0  0  0  0  0  0  0  0  0  0
  -31.2678  -23.9788   19.1295 C   0  0  0  0  0  0  0  0  0  0  0  0
  -31.4593  -26.1885   19.7285 C   0  0  0  0  0  0  0  0  0  0  0  0
  -29.9940  -15.6734   20.4731 C   0  0  0  0  0  0  0  0  0  0  0  0
  -28.7843  -13.8559   19.2559 C   0  0  0  0  0  0  0  0  0  0  0  0
  -21.7609  -22.4206   23.0214 C   0  0  0  0  0  0  0  0  0  0  0  0
  -21.1430  -25.5637   23.5325 C   0  0  0  0  0  0  0  0  0  0  0  0
  -22.3497  -28.7415   23.8368 C   0  0  0  0  0  0  0  0  0  0  0  0
  -31.8446  -21.0467   21.5765 C   0  0  0  0  0  0  0  0  0  0  0  0
  -19.3543  -17.9744   23.7264 C   0  0  0  0  0  0  0  0  0  0  0  0
  -23.3872  -22.9590   24.8711 C   0  0  0  0  0  0  0  0  0  0  0  0
  -23.4609  -24.9868   22.7200 C   0  0  0  0  0  0  0  0  0  0  0  0
  -18.9283  -19.4257   23.5200 C   0  0  0  0  0  0  0  0  0  0  0  0
  -31.2555  -18.6911   24.1805 C   0  0  0  0  0  0  0  0  0  0  0  0
  -19.6625  -20.0333   22.3289 C   0  0  0  0  0  0  0  0  0  0  0  0
  -30.4053  -17.6102   23.5105 C   0  0  0  0  0  0  0  0  0  0  0  0
  -30.9104  -20.0844   23.6592 C   0  0  0  0  0  0  0  0  0  0  0  0
  -30.1165  -19.1475   21.5225 C   0  0  0  0  0  0  0  0  0  0  0  0
  -21.1780  -20.0456   22.5628 C   0  0  1  0  0  0  0  0  0  0  0  0
  -22.1277  -23.3785   24.1194 C   0  0  1  0  0  0  0  0  0  0  0  0
  -30.4671  -17.7197   21.9751 C   0  0  2  0  0  0  0  0  0  0  0  0
  -32.2868  -27.4320   19.7040 C   0  0  0  0  0  0  0  0  0  0  0  0
  -29.4580  -27.2242   22.5131 C   0  0  0  0  0  0  0  0  0  0  0  0
  -28.3768  -27.9046   20.3398 C   0  0  0  0  0  0  0  0  0  0  0  0
  -32.7285  -23.1873   17.2417 C   0  0  0  0  0  0  0  0  0  0  0  0
  -21.5989  -31.1060   24.2145 C   0  0  0  0  0  0  0  0  0  0  0  0
  -20.1691  -25.7131   20.6447 C   0  0  0  0  0  0  0  0  0  0  0  0
  -20.3391  -28.2068   20.7897 C   0  0  0  0  0  0  0  0  0  0  0  0
  -18.7667  -26.9765   22.2853 C   0  0  0  0  0  0  0  0  0  0  0  0
  -23.9141  -28.9612   26.3395 C   0  0  0  0  0  0  0  0  0  0  0  0
  -28.1424  -24.9117   20.9881 C   0  0  0  0  0  0  0  0  0  1  0  0
  -32.6983  -21.8967   19.4068 C   0  0  0  0  0  0  0  0  0  0  0  0
  -29.6781  -27.4114   21.0001 C   0  0  0  0  0  0  0  0  0  0  0  0
  -31.8643  -22.7884   18.4557 C   0  0  1  0  0  0  0  0  0  0  0  0
  -21.2547  -26.8231   22.7076 C   0  0  1  0  0  0  0  0  0  0  0  0
  -22.0886  -29.8236   24.8690 C   0  0  2  0  0  0  0  0  0  0  0  0
  -20.1550  -26.9135   21.6121 C   0  0  0  0  0  0  0  0  0  0  0  0
  -28.2658  -16.7049   21.5204 N   0  0  0  0  0  0  0  0  0  0  0  0
  -32.0042  -25.1125   19.1179 N   0  0  0  0  0  0  0  0  0  0  0  0
  -29.5919  -16.6775   21.3039 N   0  0  0  0  0  0  0  0  0  0  0  0
  -22.2496  -24.7031   23.5073 N   0  0  0  0  0  0  0  0  0  0  0  0
  -30.9894  -20.1211   22.1969 N   0  0  0  0  0  0  0  0  0  0  0  0
  -31.2933  -15.5017   20.1492 N   0  0  0  0  0  0  0  0  0  0  0  0
  -27.5306  -13.2834   19.0013 N   0  0  0  0  0  0  0  0  0  0  0  0
  -21.5432  -21.1262   23.4535 N   0  0  0  0  0  0  0  0  0  0  0  0
  -21.2477  -27.9331   23.6543 N   0  0  0  0  0  0  0  0  0  0  0  0
  -31.8642  -21.0105   20.1876 N   0  0  0  0  0  0  0  0  0  0  0  0
  -23.3353  -30.1288   25.6263 N   0  3  0  0  0  0  0  0  0  0  0  0
  -29.8076  -13.3490   18.7367 O   0  0  0  0  0  0  0  0  0  0  0  0
  -21.6800  -22.8261   21.8679 O   0  0  0  0  0  0  0  0  0  0  0  0
  -20.1148  -25.3548   24.1810 O   0  0  0  0  0  0  0  0  0  0  0  0
  -23.4227  -28.6272   23.2485 O   0  0  0  0  0  0  0  0  0  0  0  0
  -32.5432  -21.8426   22.2134 O   0  0  0  0  0  0  0  0  0  0  0  0
  -22.3570  -14.4835   20.6831 O   0  0  0  0  0  0  0  0  0  0  0  0
  -28.1830  -23.9193   22.0127 O   0  0  0  0  0  0  0  0  0  1  0  0
  -20.8737   -9.1997   21.2169 F   0  0  0  0  0  0  0  0  0  0  0  0
  -20.7401  -13.6684   22.7721 F   0  0  0  0  0  0  0  0  0  0  0  0
  1  2  1  0  0  0  0
  1  5  2  0  0  0  0
  2  6  2  0  0  0  0
  3  8  2  0  0  0  0
  3 16  1  0  0  0  0
  4  9  1  0  0  0  0
  4 16  2  0  0  0  0
  5 18  1  0  0  0  0
  6 20  1  0  0  0  0
  7 10  2  0  0  0  0
  7 19  1  0  0  0  0
  8 24  1  0  0  0  0
  9 24  2  0  0  0  0
 10 25  1  0  0  0  0
 11 12  2  0  0  0  0
 11 26  1  0  0  0  0
 12 27  1  0  0  0  0
 13 21  1  0  0  0  0
 13 25  2  0  0  0  0
 14 22  1  0  0  0  0
 14 30  2  0  0  0  0
 15 27  2  0  0  0  0
 15 28  1  0  0  0  0
 16 29  1  0  0  0  0
 17 29  1  0  0  0  0
 17 32  2  0  0  0  0
 17 33  1  0  0  0  0
 18 20  2  0  0  0  0
 18 38  1  0  0  0  0
 19 21  2  0  0  0  0
 19 39  1  0  0  0  0
 20 47  1  0  0  0  0
 21 40  1  0  0  0  0
 22 23  2  0  0  0  0
 22 59  1  0  0  0  0
 23 31  1  0  0  0  0
 23 61  1  0  0  0  0
 24 82  1  0  0  0  0
 25 83  1  0  0  0  0
 26 28  2  0  0  0  0
 26 82  1  0  0  0  0
 27 84  1  0  0  0  0
 28 85  1  0  0  0  0
 29 66  2  0  0  0  0
 30 62  1  0  0  0  0
 30 67  1  0  0  0  0
 31 50  1  0  0  0  0
 31 67  2  0  0  0  0
 32 68  1  0  0  0  0
 32 71  1  0  0  0  0
 33 72  1  0  0  0  0
 33 77  2  0  0  0  0
 34 48  1  0  0  0  0
 34 73  1  0  0  0  0
 34 78  2  0  0  0  0
 35 63  1  0  0  0  0
 35 69  1  0  0  0  0
 35 79  2  0  0  0  0
 36 64  1  0  0  0  0
 36 74  1  0  0  0  0
 36 80  2  0  0  0  0
 37 70  1  0  0  0  0
 37 75  1  0  0  0  0
 37 81  2  0  0  0  0
 38 41  1  0  0  0  0
 39 48  1  0  0  0  0
 40 69  1  0  0  0  0
 41 43  1  0  0  0  0
 42 44  1  0  0  0  0
 42 45  1  0  0  0  0
 43 47  1  0  0  0  0
 44 49  1  0  0  0  0
 45 70  1  0  0  0  0
 46 49  1  0  0  0  0
 46 70  1  0  0  0  0
 47 73  1  0  0  0  0
 48 69  1  0  0  0  0
 49 68  1  0  0  0  0
 51 61  1  0  0  0  0
 52 61  1  0  0  0  0
 53 62  1  0  0  0  0
 54 64  1  0  0  0  0
 55 65  1  0  0  0  0
 56 65  1  0  0  0  0
 57 65  1  0  0  0  0
 58 76  1  0  0  0  0
 59 83  1  0  0  0  0
 60 62  1  0  0  0  0
 60 75  1  0  0  0  0
 63 65  1  0  0  0  0
 63 74  1  0  0  0  0
 64 76  1  0  0  0  0
 66 68  1  0  0  0  0
M  CHG  1  76   1
M  ISO  4  37 100  59 101  75 100  83 101
M  END
> <Batch ID>
0086

> <Smiles>
CNC(C)C(=O)NC(C(=O)N1Cc2cc([101O:1][101CH2:1]c3cc(C(C)C[100NH:0][100C:0](=O)N4CCCC(n5nc(-c6ccc(Oc7ccc(F)cc7F)cc6)c(C(N)=O)c5N)C4)nc(C)c3C(C)C)ccc2CC1C(=O)NC1CCCc2ccccc21)C(C)(C)C

> <Shape>
0.199

> <Color>
0.047

> <Negative vol penalty>
0.000

$$$$

  -OEChem-04052318593D

 87 95  0     1  0  0  0  0  0999 V2000
  -21.4618  -11.6104   21.1449 C   0  0  0  0  0  0  0  0  0  0  0  0
  -21.6429  -12.6739   22.0233 C   0  0  0  0  0  0  0  0  0  0  0  0
  -21.5441  -26.6152   19.9252 C   0  0  0  0  0  0  0  0  0  0  0  0
  -22.3234  -25.7361   22.0364 C   0  0  0  0  0  0  0  0  0  0  0  0
  -22.5199  -11.1802   20.3453 C   0  0  0  0  0  0  0  0  0  0  0  0
  -22.8827  -13.3072   22.1035 C   0  0  0  0  0  0  0  0  0  0  0  0
  -23.9191  -19.2542   23.1352 C   0  0  0  0  0  0  0  0  0  0  0  0
  -20.4051  -25.8148   20.0124 C   0  0  0  0  0  0  0  0  0  0  0  0
  -21.1843  -24.9358   22.1236 C   0  0  0  0  0  0  0  0  0  0  0  0
  -24.2561  -19.9613   24.2885 C   0  0  0  0  0  0  0  0  0  0  0  0
  -20.0786  -22.0243   20.8077 C   0  0  0  0  0  0  0  0  0  0  0  0
  -20.2494  -20.6934   21.1885 C   0  0  0  0  0  0  0  0  0  0  0  0
  -26.5849  -19.8494   23.6695 C   0  0  0  0  0  0  0  0  0  0  0  0
  -18.8285  -21.0603   23.1078 C   0  0  0  0  0  0  0  0  0  0  0  0
  -29.3873  -24.9487   24.9563 C   0  0  0  0  0  0  0  0  0  0  0  0
  -22.5033  -26.5758   20.9372 C   0  0  0  0  0  0  0  0  0  0  0  0
  -23.8380  -28.7130   21.3354 C   0  0  0  0  0  0  0  0  0  0  0  0
  -23.7705  -11.8148   20.4087 C   0  0  0  0  0  0  0  0  0  0  0  0
  -24.9152  -18.8292   22.2444 C   0  0  0  0  0  0  0  0  0  0  0  0
  -23.9589  -12.8842   21.3050 C   0  0  0  0  0  0  0  0  0  0  0  0
  -26.2577  -19.1392   22.5043 C   0  0  0  0  0  0  0  0  0  0  0  0
  -20.2251  -24.9751   21.1115 C   0  0  0  0  0  0  0  0  0  0  0  0
  -25.5894  -20.2565   24.5573 C   0  0  0  0  0  0  0  0  0  0  0  0
  -19.2829  -22.8733   21.5769 C   0  0  0  0  0  0  0  0  0  0  0  0
  -19.6243  -20.2114   22.3386 C   0  0  0  0  0  0  0  0  0  0  0  0
  -18.6578  -22.3913   22.7270 C   0  0  0  0  0  0  0  0  0  0  0  0
  -23.6804  -27.4020   20.8475 C   0  0  0  0  0  0  0  0  0  0  0  0
  -30.0436  -25.9132   24.2450 C   0  0  0  0  0  0  0  0  0  0  0  0
  -25.1267  -29.0510   21.0014 C   0  0  0  0  0  0  0  0  0  0  0  0
  -28.4032  -26.8887   25.3665 C   0  0  0  0  0  0  0  0  0  0  0  0
  -22.9032  -29.5504   22.0286 C   0  0  0  0  0  0  0  0  0  0  0  0
  -25.9341  -16.0052   21.2000 C   0  0  0  0  0  0  0  0  0  0  0  0
  -27.7735  -17.8282   19.2467 C   0  0  0  0  0  0  0  0  0  0  0  0
  -29.2982  -20.8263   18.6693 C   0  0  0  0  0  0  0  0  0  0  0  0
  -30.0506  -25.8100   19.9516 C   0  0  0  0  0  0  0  0  0  0  0  0
  -24.8978  -11.2838   19.5591 C   0  0  0  0  0  0  0  0  0  0  0  0
  -24.5329  -18.0906   20.9911 C   0  0  0  0  0  0  0  0  0  0  0  0
  -27.3630  -18.7233   21.5695 C   0  0  0  0  0  0  0  0  0  0  0  0
  -26.0729  -12.2501   19.4332 C   0  0  0  0  0  0  0  0  0  0  0  0
  -28.5120  -28.1423   17.7449 C   0  0  0  0  0  0  0  0  0  0  0  0
  -26.4459  -12.8178   20.7989 C   0  0  0  0  0  0  0  0  0  0  0  0
  -27.1134  -28.3353   18.3338 C   0  0  0  0  0  0  0  0  0  0  0  0
  -28.9939  -26.7011   17.8959 C   0  0  0  0  0  0  0  0  0  0  0  0
  -27.5446  -26.3651   19.8606 C   0  0  0  0  0  0  0  0  0  0  0  0
  -25.2818  -13.6126   21.4027 C   0  0  1  0  0  0  0  0  0  0  0  0
  -25.6755  -17.2599   20.4150 C   0  0  1  0  0  0  0  0  0  0  0  0
  -27.0383  -27.8156   19.7821 C   0  0  2  0  0  0  0  0  0  0  0  0
  -32.4880  -25.3546   24.0528 C   0  0  0  0  0  0  0  0  0  0  0  0
  -30.5857  -22.5816   17.4208 C   0  0  0  0  0  0  0  0  0  0  0  0
  -27.5570  -28.0136   27.4556 C   0  0  0  0  0  0  0  0  0  0  0  0
  -26.0013  -27.6345   25.5133 C   0  0  0  0  0  0  0  0  0  0  0  0
  -27.7576  -29.3903   25.3950 C   0  0  0  0  0  0  0  0  0  0  0  0
  -30.1880  -16.2713   20.2742 C   0  0  0  0  0  0  0  0  0  0  0  0
  -31.6577  -18.0702   19.3403 C   0  0  0  0  0  0  0  0  0  0  0  0
  -30.2104  -16.7275   17.8154 C   0  0  0  0  0  0  0  0  0  0  0  0
  -26.8428  -21.8985   17.4123 C   0  0  0  0  0  0  0  0  0  0  0  0
  -26.6128  -23.7602   25.8964 C   0  0  0  0  0  0  0  0  0  0  0  0
  -25.6924  -23.0201   26.8683 C   0  0  0  0  0  0  0  0  0  0  0  0
  -27.3948  -24.8994   26.5602 C   0  0  0  0  0  0  0  0  0  0  0  0
  -30.9660  -24.9378   22.0871 C   0  0  0  0  0  0  0  0  0  0  0  0
  -24.9598  -21.8748   26.1823 C   0  0  0  0  0  0  0  0  0  1  0  0
  -31.1940  -25.8351   23.3411 C   0  0  1  0  0  0  0  0  0  0  0  0
  -29.1493  -18.4426   19.3402 C   0  0  1  0  0  0  0  0  0  0  0  0
  -29.3338  -21.7183   17.4415 C   0  0  2  0  0  0  0  0  0  0  0  0
  -27.4875  -27.9296   25.8966 C   0  0  0  0  0  0  0  0  0  0  0  0
  -30.2809  -17.3842   19.2113 C   0  0  0  0  0  0  0  0  0  0  0  0
  -24.7809  -26.9387   20.2489 N   0  0  0  0  0  0  0  0  0  0  0  0
  -28.3775  -25.5805   25.6413 N   0  0  0  0  0  0  0  0  0  0  0  0
  -25.6424  -27.9644   20.3585 N   0  0  0  0  0  0  0  0  0  0  0  0
  -29.4133  -27.1034   24.5175 N   0  3  0  0  0  0  0  0  0  0  0  0
  -26.9391  -17.9977   20.3606 N   0  0  0  0  0  0  0  0  0  0  0  0
  -28.8985  -26.2701   19.2927 N   0  0  0  0  0  0  0  0  0  0  0  0
  -25.8577  -30.1688   21.1978 N   0  0  0  0  0  0  0  0  0  0  0  0
  -21.6219  -29.0467   22.2910 N   0  0  0  0  0  0  0  0  0  0  0  0
  -25.1877  -14.9185   20.7859 N   0  0  0  0  0  0  0  0  0  0  0  0
  -29.1964  -19.4938   18.3297 N   0  0  0  0  0  0  0  0  0  0  0  0
  -29.8738  -25.4269   21.2755 N   0  0  0  0  0  0  0  0  0  0  0  0
  -28.1440  -22.6153   17.4183 N   0  3  0  0  0  0  0  0  0  0  0  0
  -23.1901  -30.7169   22.3898 O   0  0  0  0  0  0  0  0  0  0  0  0
  -26.7515  -16.0213   22.1129 O   0  0  0  0  0  0  0  0  0  0  0  0
  -27.4484  -17.2263   18.2201 O   0  0  0  0  0  0  0  0  0  0  0  0
  -29.3587  -21.2671   19.8149 O   0  0  0  0  0  0  0  0  0  0  0  0
  -31.1559  -25.7503   19.4024 O   0  0  0  0  0  0  0  0  0  0  0  0
  -19.1137  -24.1942   21.1970 O   0  0  0  0  0  0  0  0  0  0  0  0
  -25.9211  -20.9460   25.6827 O   0  0  0  0  0  0  0  0  0  1  0  0
  -19.7871  -18.9328   22.7034 F   0  0  0  0  0  0  0  0  0  0  0  0
  -17.8912  -23.2018   23.4693 F   0  0  0  0  0  0  0  0  0  0  0  0
  1  2  1  0  0  0  0
  1  5  2  0  0  0  0
  2  6  2  0  0  0  0
  3  8  2  0  0  0  0
  3 16  1  0  0  0  0
  4  9  1  0  0  0  0
  4 16  2  0  0  0  0
  5 18  1  0  0  0  0
  6 20  1  0  0  0  0
  7 10  2  0  0  0  0
  7 19  1  0  0  0  0
  8 22  1  0  0  0  0
  9 22  2  0  0  0  0
 10 23  1  0  0  0  0
 11 12  2  0  0  0  0
 11 24  1  0  0  0  0
 12 25  1  0  0  0  0
 13 21  1  0  0  0  0
 13 23  2  0  0  0  0
 14 25  2  0  0  0  0
 14 26  1  0  0  0  0
 15 28  2  0  0  0  0
 15 68  1  0  0  0  0
 16 27  1  0  0  0  0
 17 27  1  0  0  0  0
 17 29  2  0  0  0  0
 17 31  1  0  0  0  0
 18 20  2  0  0  0  0
 18 36  1  0  0  0  0
 19 21  2  0  0  0  0
 19 37  1  0  0  0  0
 20 45  1  0  0  0  0
 21 38  1  0  0  0  0
 22 84  1  0  0  0  0
 23 85  1  0  0  0  0
 24 26  2  0  0  0  0
 24 84  1  0  0  0  0
 25 86  1  0  0  0  0
 26 87  1  0  0  0  0
 27 67  2  0  0  0  0
 28 62  1  0  0  0  0
 28 70  1  0  0  0  0
 29 69  1  0  0  0  0
 29 73  1  0  0  0  0
 30 65  1  0  0  0  0
 30 68  1  0  0  0  0
 30 70  2  0  0  0  0
 31 74  1  0  0  0  0
 31 79  2  0  0  0  0
 32 46  1  0  0  0  0
 32 75  1  0  0  0  0
 32 80  2  0  0  0  0
 33 63  1  0  0  0  0
 33 71  1  0  0  0  0
 33 81  2  0  0  0  0
 34 64  1  0  0  0  0
 34 76  1  0  0  0  0
 34 82  2  0  0  0  0
 35 72  1  0  0  0  0
 35 77  1  0  0  0  0
 35 83  2  0  0  0  0
 36 39  1  0  0  0  0
 37 46  1  0  0  0  0
 38 71  1  0  0  0  0
 39 41  1  0  0  0  0
 40 42  1  0  0  0  0
 40 43  1  0  0  0  0
 41 45  1  0  0  0  0
 42 47  1  0  0  0  0
 43 72  1  0  0  0  0
 44 47  1  0  0  0  0
 44 72  1  0  0  0  0
 45 75  1  0  0  0  0
 46 71  1  0  0  0  0
 47 69  1  0  0  0  0
 48 62  1  0  0  0  0
 49 64  1  0  0  0  0
 50 65  1  0  0  0  0
 51 65  1  0  0  0  0
 52 65  1  0  0  0  0
 53 66  1  0  0  0  0
 54 66  1  0  0  0  0
 55 66  1  0  0  0  0
 56 78  1  0  0  0  0
 57 58  1  0  0  0  0
 57 59  1  0  0  0  0
 58 61  1  0  0  0  0
 59 68  1  0  0  0  0
 60 62  1  0  0  0  0
 60 77  1  0  0  0  0
 61 85  1  0  0  0  0
 63 66  1  0  0  0  0
 63 76  1  0  0  0  0
 64 78  1  0  0  0  0
 67 69  1  0  0  0  0
M  CHG  2  70   1  78   1
M  ISO  4  35 100  61 101  77 100  85 101
M  END
> <Batch ID>
0086

> <Smiles>
CNC(C)C(=O)NC(C(=O)N1Cc2cc([101O:1][101CH2:1]CCCn3cc(C(C)C[100NH:0][100C:0](=O)N4CCCC(n5nc(-c6ccc(Oc7ccc(F)cc7F)cc6)c(C(N)=O)c5N)C4)nc3C(C)(C)C)ccc2CC1C(=O)NC1CCCc2ccccc21)C(C)(C)C

> <Shape>
0.197

> <Color>
0.072

> <Negative vol penalty>
0.000

$$$$

  -OEChem-04052318593D

 87 95  0     1  0  0  0  0  0999 V2000
  -23.5289  -30.0878   21.9914 C   0  0  0  0  0  0  0  0  0  0  0  0
  -23.7559  -28.7268   21.8136 C   0  0  0  0  0  0  0  0  0  0  0  0
  -22.8526  -10.1703   20.0105 C   0  0  0  0  0  0  0  0  0  0  0  0
  -23.7089   -9.9873   22.2622 C   0  0  0  0  0  0  0  0  0  0  0  0
  -23.9450  -30.9957   21.0185 C   0  0  0  0  0  0  0  0  0  0  0  0
  -24.3981  -28.2728   20.6622 C   0  0  0  0  0  0  0  0  0  0  0  0
  -28.2344  -23.5197   20.2178 C   0  0  0  0  0  0  0  0  0  0  0  0
  -22.0279   -9.0678   20.2345 C   0  0  0  0  0  0  0  0  0  0  0  0
  -22.8842   -8.8848   22.4862 C   0  0  0  0  0  0  0  0  0  0  0  0
  -28.0504  -22.2015   19.8030 C   0  0  0  0  0  0  0  0  0  0  0  0
  -22.8767   -5.5870   21.7413 C   0  0  0  0  0  0  0  0  0  0  0  0
  -23.4363   -4.4770   22.3741 C   0  0  0  0  0  0  0  0  0  0  0  0
  -28.8195  -22.7952   17.5950 C   0  0  0  0  0  0  0  0  0  0  0  0
  -29.0451  -18.7307   19.9250 C   0  0  0  0  0  0  0  0  0  0  0  0
  -21.8303   -4.6891   24.1665 C   0  0  0  0  0  0  0  0  0  0  0  0
  -23.6931  -10.6300   21.0244 C   0  0  0  0  0  0  0  0  0  0  0  0
  -24.2358  -13.1226   21.0215 C   0  0  0  0  0  0  0  0  0  0  0  0
  -24.6013  -30.5534   19.8591 C   0  0  0  0  0  0  0  0  0  0  0  0
  -28.7027  -24.4897   19.3198 C   0  0  0  0  0  0  0  0  0  0  0  0
  -24.8222  -29.1755   19.6722 C   0  0  0  0  0  0  0  0  0  0  0  0
  -29.0110  -24.1246   18.0016 C   0  0  0  0  0  0  0  0  0  0  0  0
  -27.7220  -19.1569   19.9563 C   0  0  0  0  0  0  0  0  0  0  0  0
  -26.9670  -18.9784   21.1102 C   0  0  0  0  0  0  0  0  0  0  0  0
  -22.0437   -8.4251   21.4723 C   0  0  0  0  0  0  0  0  0  0  0  0
  -28.3402  -21.8397   18.4907 C   0  0  0  0  0  0  0  0  0  0  0  0
  -21.7940   -6.2481   22.3212 C   0  0  0  0  0  0  0  0  0  0  0  0
  -22.9131   -4.0281   23.5867 C   0  0  0  0  0  0  0  0  0  0  0  0
  -21.2707   -5.7992   23.5338 C   0  0  0  0  0  0  0  0  0  0  0  0
  -24.5456  -11.7684   20.7934 C   0  0  0  0  0  0  0  0  0  0  0  0
  -29.5622  -18.1364   21.0648 C   0  0  0  0  0  0  0  0  0  0  0  0
  -27.5771  -18.3729   22.1969 C   0  0  0  0  0  0  0  0  0  0  0  0
  -25.3691  -13.8019   20.6466 C   0  0  0  0  0  0  0  0  0  0  0  0
  -23.0313  -13.7136   21.5271 C   0  0  0  0  0  0  0  0  0  0  0  0
  -27.5337  -27.1953   18.1297 C   0  0  0  0  0  0  0  0  0  0  0  0
  -30.4971  -27.4501   16.8351 C   0  0  0  0  0  0  0  0  0  0  0  0
  -33.3459  -25.8889   15.7894 C   0  0  0  0  0  0  0  0  0  0  0  0
  -30.9211  -14.3684   20.6268 C   0  0  0  0  0  0  0  0  0  0  0  0
  -24.9904  -31.5682   18.8134 C   0  0  0  0  0  0  0  0  0  0  0  0
  -28.9212  -25.9016   19.7901 C   0  0  0  0  0  0  0  0  0  0  0  0
  -29.5356  -25.1237   17.0041 C   0  0  0  0  0  0  0  0  0  0  0  0
  -25.9984  -31.0390   17.7965 C   0  0  0  0  0  0  0  0  0  0  0  0
  -29.4892  -12.2206   18.1746 C   0  0  0  0  0  0  0  0  0  0  0  0
  -25.5797  -29.6595   17.2979 C   0  0  0  0  0  0  0  0  0  0  0  0
  -28.0526  -12.0184   18.6595 C   0  0  0  0  0  0  0  0  0  0  0  0
  -30.4725  -12.2995   19.3404 C   0  0  0  0  0  0  0  0  0  0  0  0
  -28.6990  -13.1004   20.8526 C   0  0  0  0  0  0  0  0  0  0  0  0
  -25.5378  -28.6464   18.4483 C   0  0  1  0  0  0  0  0  0  0  0  0
  -28.9148  -26.9180   18.6525 C   0  0  1  0  0  0  0  0  0  0  0  0
  -27.6638  -13.0708   19.7152 C   0  0  2  0  0  0  0  0  0  0  0  0
  -25.5460  -19.4278   21.1737 C   0  0  0  0  0  0  0  0  0  0  0  0
  -26.0130  -19.4666   16.4561 C   0  0  0  0  0  0  0  0  0  0  0  0
  -31.9557  -18.7915   21.4720 C   0  0  0  0  0  0  0  0  0  0  0  0
  -27.4291  -18.9195   24.6531 C   0  0  0  0  0  0  0  0  0  0  0  0
  -26.6789  -16.6629   23.8166 C   0  0  0  0  0  0  0  0  0  0  0  0
  -35.5774  -26.3568   14.7412 C   0  0  0  0  0  0  0  0  0  0  0  0
  -29.1451  -27.8109   14.1237 C   0  0  0  0  0  0  0  0  0  0  0  0
  -31.3476  -27.3215   13.0384 C   0  0  0  0  0  0  0  0  0  0  0  0
  -31.1046  -29.3133   14.5204 C   0  0  0  0  0  0  0  0  0  0  0  0
  -34.8014  -24.8277   18.1377 C   0  0  0  0  0  0  0  0  0  0  0  0
  -26.5347  -18.8074   17.7242 C   0  0  0  0  0  0  0  0  0  0  0  0
  -31.2169  -16.4336   21.9708 C   0  0  0  0  0  0  0  0  0  0  0  0
  -27.1301  -19.8060   18.7269 C   0  0  2  0  0  0  0  0  0  1  0  0
  -30.9790  -17.6679   21.0679 C   0  0  1  0  0  0  0  0  0  0  0  0
  -26.8176  -18.1552   23.4648 C   0  0  0  0  0  0  0  0  0  0  0  0
  -31.1426  -27.0027   15.5459 C   0  0  1  0  0  0  0  0  0  0  0  0
  -34.8116  -26.1906   16.0446 C   0  0  2  0  0  0  0  0  0  0  0  0
  -30.6733  -27.8435   14.3251 C   0  0  0  0  0  0  0  0  0  0  0  0
  -25.7790  -11.5958   20.3108 N   0  0  0  0  0  0  0  0  0  0  0  0
  -28.8598  -17.9459   22.2041 N   0  0  0  0  0  0  0  0  0  0  0  0
  -26.2543  -12.8504   20.2325 N   0  0  0  0  0  0  0  0  0  0  0  0
  -29.7264  -26.4930   17.5102 N   0  0  0  0  0  0  0  0  0  0  0  0
  -30.0471  -13.3170   20.3046 N   0  0  0  0  0  0  0  0  0  0  0  0
  -25.6849  -15.1144   20.6339 N   0  0  0  0  0  0  0  0  0  0  0  0
  -21.9636  -12.8704   21.8638 N   0  0  0  0  0  0  0  0  0  0  0  0
  -26.8761  -28.2150   18.7909 N   0  0  0  0  0  0  0  0  0  0  0  0
  -32.5827  -27.0372   15.7770 N   0  0  0  0  0  0  0  0  0  0  0  0
  -30.4373  -15.2930   21.5443 N   0  0  0  0  0  0  0  0  0  0  0  0
  -35.4404  -25.0852   16.8215 N   0  3  0  0  0  0  0  0  0  0  0  0
  -22.8997  -14.9539   21.6604 O   0  0  0  0  0  0  0  0  0  0  0  0
  -27.0976  -26.5341   17.1946 O   0  0  0  0  0  0  0  0  0  0  0  0
  -30.6761  -28.6042   17.2323 O   0  0  0  0  0  0  0  0  0  0  0  0
  -32.9211  -24.7489   15.6146 O   0  0  0  0  0  0  0  0  0  0  0  0
  -32.0470  -14.4780   20.1295 O   0  0  0  0  0  0  0  0  0  0  0  0
  -21.2390   -7.3495   21.6913 O   0  0  0  0  0  0  0  0  0  0  0  0
  -28.1609  -20.5538   18.0830 O   0  0  0  0  0  0  0  0  0  1  0  0
  -23.4496   -2.9612   24.1934 F   0  0  0  0  0  0  0  0  0  0  0  0
  -20.2299   -6.4295   24.0951 F   0  0  0  0  0  0  0  0  0  0  0  0
  1  2  1  0  0  0  0
  1  5  2  0  0  0  0
  2  6  2  0  0  0  0
  3  8  2  0  0  0  0
  3 16  1  0  0  0  0
  4  9  1  0  0  0  0
  4 16  2  0  0  0  0
  5 18  1  0  0  0  0
  6 20  1  0  0  0  0
  7 10  2  0  0  0  0
  7 19  1  0  0  0  0
  8 24  1  0  0  0  0
  9 24  2  0  0  0  0
 10 25  1  0  0  0  0
 11 12  2  0  0  0  0
 11 26  1  0  0  0  0
 12 27  1  0  0  0  0
 13 21  1  0  0  0  0
 13 25  2  0  0  0  0
 14 22  1  0  0  0  0
 14 30  2  0  0  0  0
 15 27  2  0  0  0  0
 15 28  1  0  0  0  0
 16 29  1  0  0  0  0
 17 29  1  0  0  0  0
 17 32  2  0  0  0  0
 17 33  1  0  0  0  0
 18 20  2  0  0  0  0
 18 38  1  0  0  0  0
 19 21  2  0  0  0  0
 19 39  1  0  0  0  0
 20 47  1  0  0  0  0
 21 40  1  0  0  0  0
 22 23  2  0  0  0  0
 22 62  1  0  0  0  0
 23 31  1  0  0  0  0
 23 50  1  0  0  0  0
 24 84  1  0  0  0  0
 25 85  1  0  0  0  0
 26 28  2  0  0  0  0
 26 84  1  0  0  0  0
 27 86  1  0  0  0  0
 28 87  1  0  0  0  0
 29 68  2  0  0  0  0
 30 63  1  0  0  0  0
 30 69  1  0  0  0  0
 31 64  1  0  0  0  0
 31 69  2  0  0  0  0
 32 70  1  0  0  0  0
 32 73  1  0  0  0  0
 33 74  1  0  0  0  0
 33 79  2  0  0  0  0
 34 48  1  0  0  0  0
 34 75  1  0  0  0  0
 34 80  2  0  0  0  0
 35 65  1  0  0  0  0
 35 71  1  0  0  0  0
 35 81  2  0  0  0  0
 36 66  1  0  0  0  0
 36 76  1  0  0  0  0
 36 82  2  0  0  0  0
 37 72  1  0  0  0  0
 37 77  1  0  0  0  0
 37 83  2  0  0  0  0
 38 41  1  0  0  0  0
 39 48  1  0  0  0  0
 40 71  1  0  0  0  0
 41 43  1  0  0  0  0
 42 44  1  0  0  0  0
 42 45  1  0  0  0  0
 43 47  1  0  0  0  0
 44 49  1  0  0  0  0
 45 72  1  0  0  0  0
 46 49  1  0  0  0  0
 46 72  1  0  0  0  0
 47 75  1  0  0  0  0
 48 71  1  0  0  0  0
 49 70  1  0  0  0  0
 51 60  1  0  0  0  0
 52 63  1  0  0  0  0
 53 64  1  0  0  0  0
 54 64  1  0  0  0  0
 55 66  1  0  0  0  0
 56 67  1  0  0  0  0
 57 67  1  0  0  0  0
 58 67  1  0  0  0  0
 59 78  1  0  0  0  0
 60 62  1  0  0  0  0
 61 63  1  0  0  0  0
 61 77  1  0  0  0  0
 62 85  1  0  0  0  0
 65 67  1  0  0  0  0
 65 76  1  0  0  0  0
 66 78  1  0  0  0  0
 68 70  1  0  0  0  0
M  CHG  1  78   1
M  ISO  4  37 100  62 101  77 100  85 101
M  END
> <Batch ID>
0086

> <Smiles>
CC[101CH:1](c1cc(C(C)C[100NH:0][100C:0](=O)N2CCCC(n3nc(-c4ccc(Oc5ccc(F)cc5F)cc4)c(C(N)=O)c3N)C2)nc(C(C)C)c1C)[101O:1]c1ccc2c(c1)CN(C(=O)C(NC(=O)C(C)NC)C(C)(C)C)C(C(=O)NC1CCCc3ccccc31)C2

> <Shape>
0.307

> <Color>
0.188

> <Negative vol penalty>
0.000

$$$$

  -OEChem-04052318593D

 90 98  0     1  0  0  0  0  0999 V2000
  -26.0506  -31.9227   26.9063 C   0  0  0  0  0  0  0  0  0  0  0  0
  -25.5428  -30.6831   26.5310 C   0  0  0  0  0  0  0  0  0  0  0  0
  -23.7036   -9.6874   21.0563 C   0  0  0  0  0  0  0  0  0  0  0  0
  -24.3237  -10.5045   23.2437 C   0  0  0  0  0  0  0  0  0  0  0  0
  -26.7015  -32.7215   25.9670 C   0  0  0  0  0  0  0  0  0  0  0  0
  -25.6846  -30.2420   25.2158 C   0  0  0  0  0  0  0  0  0  0  0  0
  -27.1545  -25.4039   24.9372 C   0  0  0  0  0  0  0  0  0  0  0  0
  -23.1619   -8.5412   21.6379 C   0  0  0  0  0  0  0  0  0  0  0  0
  -23.7819   -9.3582   23.8254 C   0  0  0  0  0  0  0  0  0  0  0  0
  -26.1808  -24.4293   25.1515 C   0  0  0  0  0  0  0  0  0  0  0  0
  -20.3251   -7.6741   23.2607 C   0  0  0  0  0  0  0  0  0  0  0  0
  -19.0753   -7.2478   22.8113 C   0  0  0  0  0  0  0  0  0  0  0  0
  -25.9759  -24.1186   22.7681 C   0  0  0  0  0  0  0  0  0  0  0  0
  -27.3929  -20.4841   24.8975 C   0  0  0  0  0  0  0  0  0  0  0  0
  -20.0401   -5.1412   22.1267 C   0  0  0  0  0  0  0  0  0  0  0  0
  -24.2845  -10.6690   21.8592 C   0  0  0  0  0  0  0  0  0  0  0  0
  -24.1824  -13.0665   20.9936 C   0  0  0  0  0  0  0  0  0  0  0  0
  -26.8599  -32.2858   24.6420 C   0  0  0  0  0  0  0  0  0  0  0  0
  -27.5390  -25.7515   23.6342 C   0  0  0  0  0  0  0  0  0  0  0  0
  -26.3370  -31.0363   24.2576 C   0  0  0  0  0  0  0  0  0  0  0  0
  -26.9565  -25.0961   22.5400 C   0  0  0  0  0  0  0  0  0  0  0  0
  -28.6616  -20.0981   24.4798 C   0  0  0  0  0  0  0  0  0  0  0  0
  -26.3084  -19.6423   24.6770 C   0  0  0  0  0  0  0  0  0  0  0  0
  -23.2010   -8.3766   23.0225 C   0  0  0  0  0  0  0  0  0  0  0  0
  -25.5893  -23.7886   24.0668 C   0  0  0  0  0  0  0  0  0  0  0  0
  -21.4324   -6.8340   23.1431 C   0  0  0  0  0  0  0  0  0  0  0  0
  -18.9328   -5.9814   22.2443 C   0  0  0  0  0  0  0  0  0  0  0  0
  -21.2898   -5.5676   22.5761 C   0  0  0  0  0  0  0  0  0  0  0  0
  -24.8448  -11.8530   21.2588 C   0  0  0  0  0  0  0  0  0  0  0  0
  -28.7918  -18.8702   23.8512 C   0  0  0  0  0  0  0  0  0  0  0  0
  -26.5439  -18.4350   24.0394 C   0  0  0  0  0  0  0  0  0  0  0  0
  -25.1437  -13.8650   20.4237 C   0  0  0  0  0  0  0  0  0  0  0  0
  -22.8199  -13.4387   21.2403 C   0  0  0  0  0  0  0  0  0  0  0  0
  -27.4296  -28.4115   21.8975 C   0  0  0  0  0  0  0  0  0  0  0  0
  -29.1018  -26.6257   19.7675 C   0  0  0  0  0  0  0  0  0  0  0  0
  -29.9267  -23.5261   18.6016 C   0  0  0  0  0  0  0  0  0  0  0  0
  -31.1219  -13.9166   20.7534 C   0  0  0  0  0  0  0  0  0  0  0  0
  -27.5290  -33.2046   23.6507 C   0  0  0  0  0  0  0  0  0  0  0  0
  -28.6099  -26.7859   23.4207 C   0  0  0  0  0  0  0  0  0  0  0  0
  -27.3487  -25.4184   21.1220 C   0  0  0  0  0  0  0  0  0  0  0  0
  -27.9674  -32.5018   22.3685 C   0  0  0  0  0  0  0  0  0  0  0  0
  -29.1427  -13.6249   17.8082 C   0  0  0  0  0  0  0  0  0  0  0  0
  -26.8480  -31.6116   21.8381 C   0  0  0  0  0  0  0  0  0  0  0  0
  -27.7570  -13.2472   18.3346 C   0  0  0  0  0  0  0  0  0  0  0  0
  -30.2546  -12.9782   18.6312 C   0  0  0  0  0  0  0  0  0  0  0  0
  -28.7901  -12.8497   20.6092 C   0  0  0  0  0  0  0  0  0  0  0  0
  -26.4929  -30.5122   22.8465 C   0  0  1  0  0  0  0  0  0  0  0  0
  -28.5551  -27.4259   22.0370 C   0  0  1  0  0  0  0  0  0  0  0  0
  -27.6368  -13.5229   19.8455 C   0  0  2  0  0  0  0  0  0  0  0  0
  -29.8276  -20.9953   24.7132 C   0  0  0  0  0  0  0  0  0  0  0  0
  -30.4399  -18.9421   21.9669 C   0  0  0  0  0  0  0  0  0  0  0  0
  -25.5958  -16.1465   24.5061 C   0  0  0  0  0  0  0  0  0  0  0  0
  -25.1925  -17.2468   22.2742 C   0  0  0  0  0  0  0  0  0  0  0  0
  -31.1141  -21.7961   17.2253 C   0  0  0  0  0  0  0  0  0  0  0  0
  -32.7675  -16.9827   23.8832 C   0  0  0  0  0  0  0  0  0  0  0  0
  -26.9914  -27.3557   17.6884 C   0  0  0  0  0  0  0  0  0  0  0  0
  -27.8455  -25.4814   16.2651 C   0  0  0  0  0  0  0  0  0  0  0  0
  -29.3446  -27.3898   16.8426 C   0  0  0  0  0  0  0  0  0  0  0  0
  -32.1326  -23.3120   20.5630 C   0  0  0  0  0  0  0  0  0  0  0  0
  -24.9298  -20.0551   25.1273 C   0  0  0  0  0  0  0  0  0  0  0  0
  -24.0276  -20.5347   23.9882 C   0  0  0  0  0  0  0  0  0  0  0  0
  -30.3042  -16.8570   23.3839 C   0  0  0  0  0  0  0  0  0  0  0  0
  -31.8449  -14.8260   22.9464 C   0  0  0  0  0  0  0  0  0  0  0  0
  -24.5398  -21.7960   23.3024 C   0  0  0  0  0  0  0  0  0  1  0  0
  -30.1301  -18.4033   23.3798 C   0  0  2  0  0  0  0  0  0  0  0  0
  -25.4163  -17.4909   23.7777 C   0  0  0  0  0  0  0  0  0  0  0  0
  -28.7399  -25.7045   18.6276 C   0  0  1  0  0  0  0  0  0  0  0  0
  -31.2675  -22.9040   18.2557 C   0  0  2  0  0  0  0  0  0  0  0  0
  -31.7071  -16.3560   22.9688 C   0  0  2  0  0  0  0  0  0  0  0  0
  -28.2213  -26.4779   17.3824 C   0  0  0  0  0  0  0  0  0  0  0  0
  -26.1277  -11.8741   20.8879 N   0  0  0  0  0  0  0  0  0  0  0  0
  -27.7620  -18.0257   23.6194 N   0  0  0  0  0  0  0  0  0  0  0  0
  -26.2792  -13.1106   20.3836 N   0  0  0  0  0  0  0  0  0  0  0  0
  -28.3958  -26.4414   20.9648 N   0  0  0  0  0  0  0  0  0  0  0  0
  -30.0833  -13.2794   20.0545 N   0  0  0  0  0  0  0  0  0  0  0  0
  -25.1200  -15.1319   19.9580 N   0  0  0  0  0  0  0  0  0  0  0  0
  -21.9670  -12.4975   21.8328 N   0  0  0  0  0  0  0  0  0  0  0  0
  -27.4770  -29.4519   22.8057 N   0  0  0  0  0  0  0  0  0  0  0  0
  -29.9206  -24.8860   18.3736 N   0  0  0  0  0  0  0  0  0  0  0  0
  -30.8753  -14.1711   22.0969 N   0  0  0  0  0  0  0  0  0  0  0  0
  -31.9010  -22.3273   19.4751 N   0  3  0  0  0  0  0  0  0  0  0  0
  -22.3678  -14.5666   20.9290 O   0  0  0  0  0  0  0  0  0  0  0  0
  -26.5817  -28.2415   21.0292 O   0  0  0  0  0  0  0  0  0  0  0  0
  -29.9836  -27.4726   19.6041 O   0  0  0  0  0  0  0  0  0  0  0  0
  -28.9783  -22.8707   19.0278 O   0  0  0  0  0  0  0  0  0  0  0  0
  -32.1878  -14.2398   20.2182 O   0  0  0  0  0  0  0  0  0  0  0  0
  -22.6723   -7.2584   23.5904 O   0  0  0  0  0  0  0  0  0  0  0  0
  -24.6382  -22.8374   24.2731 O   0  0  0  0  0  0  0  0  0  1  0  0
  -17.7323   -5.5716   21.8142 F   0  0  0  0  0  0  0  0  0  0  0  0
  -22.3497   -4.7556   22.4615 F   0  0  0  0  0  0  0  0  0  0  0  0
  1  2  1  0  0  0  0
  1  5  2  0  0  0  0
  2  6  2  0  0  0  0
  3  8  2  0  0  0  0
  3 16  1  0  0  0  0
  4  9  1  0  0  0  0
  4 16  2  0  0  0  0
  5 18  1  0  0  0  0
  6 20  1  0  0  0  0
  7 10  2  0  0  0  0
  7 19  1  0  0  0  0
  8 24  1  0  0  0  0
  9 24  2  0  0  0  0
 10 25  1  0  0  0  0
 11 12  2  0  0  0  0
 11 26  1  0  0  0  0
 12 27  1  0  0  0  0
 13 21  1  0  0  0  0
 13 25  2  0  0  0  0
 14 22  2  0  0  0  0
 14 23  1  0  0  0  0
 15 27  2  0  0  0  0
 15 28  1  0  0  0  0
 16 29  1  0  0  0  0
 17 29  1  0  0  0  0
 17 32  2  0  0  0  0
 17 33  1  0  0  0  0
 18 20  2  0  0  0  0
 18 38  1  0  0  0  0
 19 21  2  0  0  0  0
 19 39  1  0  0  0  0
 20 47  1  0  0  0  0
 21 40  1  0  0  0  0
 22 30  1  0  0  0  0
 22 50  1  0  0  0  0
 23 31  2  0  0  0  0
 23 60  1  0  0  0  0
 24 87  1  0  0  0  0
 25 88  1  0  0  0  0
 26 28  2  0  0  0  0
 26 87  1  0  0  0  0
 27 89  1  0  0  0  0
 28 90  1  0  0  0  0
 29 71  2  0  0  0  0
 30 65  1  0  0  0  0
 30 72  2  0  0  0  0
 31 66  1  0  0  0  0
 31 72  1  0  0  0  0
 32 73  1  0  0  0  0
 32 76  1  0  0  0  0
 33 77  1  0  0  0  0
 33 82  2  0  0  0  0
 34 48  1  0  0  0  0
 34 78  1  0  0  0  0
 34 83  2  0  0  0  0
 35 67  1  0  0  0  0
 35 74  1  0  0  0  0
 35 84  2  0  0  0  0
 36 68  1  0  0  0  0
 36 79  1  0  0  0  0
 36 85  2  0  0  0  0
 37 75  1  0  0  0  0
 37 80  1  0  0  0  0
 37 86  2  0  0  0  0
 38 41  1  0  0  0  0
 39 48  1  0  0  0  0
 40 74  1  0  0  0  0
 41 43  1  0  0  0  0
 42 44  1  0  0  0  0
 42 45  1  0  0  0  0
 43 47  1  0  0  0  0
 44 49  1  0  0  0  0
 45 75  1  0  0  0  0
 46 49  1  0  0  0  0
 46 75  1  0  0  0  0
 47 78  1  0  0  0  0
 48 74  1  0  0  0  0
 49 73  1  0  0  0  0
 51 65  1  0  0  0  0
 52 66  1  0  0  0  0
 53 66  1  0  0  0  0
 54 68  1  0  0  0  0
 55 69  1  0  0  0  0
 56 70  1  0  0  0  0
 57 70  1  0  0  0  0
 58 70  1  0  0  0  0
 59 81  1  0  0  0  0
 60 61  1  0  0  0  0
 61 64  1  0  0  0  0
 62 65  1  0  0  0  0
 62 69  1  0  0  0  0
 63 69  1  0  0  0  0
 63 80  1  0  0  0  0
 64 88  1  0  0  0  0
 67 70  1  0  0  0  0
 67 79  1  0  0  0  0
 68 81  1  0  0  0  0
 71 73  1  0  0  0  0
M  CHG  1  81   1
M  ISO  4  37 100  64 101  80 100  88 101
M  END
> <Batch ID>
0086

> <Smiles>
CNC(C)C(=O)NC(C(=O)N1Cc2cc([101O:1][101CH2:1]CCc3cc(C)c(C(C)CC(C)C[100NH:0][100C:0](=O)N4CCCC(n5nc(-c6ccc(Oc7ccc(F)cc7F)cc6)c(C(N)=O)c5N)C4)nc3C(C)C)ccc2CC1C(=O)NC1CCCc2ccccc21)C(C)(C)C

> <Shape>
0.283

> <Color>
0.151

> <Negative vol penalty>
0.000

$$$$

  -OEChem-04052318593D

 86 94  0     1  0  0  0  0  0999 V2000
  -16.8624  -16.8113   21.7958 C   0  0  0  0  0  0  0  0  0  0  0  0
  -17.0355  -18.1886   21.7042 C   0  0  0  0  0  0  0  0  0  0  0  0
  -30.5459  -20.4222   18.2716 C   0  0  0  0  0  0  0  0  0  0  0  0
  -28.4026  -20.3975   19.3864 C   0  0  0  0  0  0  0  0  0  0  0  0
  -17.5268  -16.0908   22.7874 C   0  0  0  0  0  0  0  0  0  0  0  0
  -17.8723  -18.8464   22.6051 C   0  0  0  0  0  0  0  0  0  0  0  0
  -21.4118  -23.7119   21.4628 C   0  0  0  0  0  0  0  0  0  0  0  0
  -30.7871  -19.1190   18.7064 C   0  0  0  0  0  0  0  0  0  0  0  0
  -28.6438  -19.0943   19.8212 C   0  0  0  0  0  0  0  0  0  0  0  0
  -21.2354  -25.0753   21.6945 C   0  0  0  0  0  0  0  0  0  0  0  0
  -30.4305  -17.5701   22.2534 C   0  0  0  0  0  0  0  0  0  0  0  0
  -30.1431  -17.2674   23.5843 C   0  0  0  0  0  0  0  0  0  0  0  0
  -22.4802  -24.8807   23.7516 C   0  0  0  0  0  0  0  0  0  0  0  0
  -28.5630  -15.5888   22.8614 C   0  0  0  0  0  0  0  0  0  0  0  0
  -29.3537  -21.0615   18.6116 C   0  0  0  0  0  0  0  0  0  0  0  0
  -28.4769  -22.8027   16.9663 C   0  0  0  0  0  0  0  0  0  0  0  0
  -18.3797  -16.7387   23.6948 C   0  0  0  0  0  0  0  0  0  0  0  0
  -22.1156  -22.9191   22.3807 C   0  0  0  0  0  0  0  0  0  0  0  0
  -18.5477  -18.1341   23.6106 C   0  0  0  0  0  0  0  0  0  0  0  0
  -22.6664  -23.5079   23.5280 C   0  0  0  0  0  0  0  0  0  0  0  0
  -29.8361  -18.4551   19.4813 C   0  0  0  0  0  0  0  0  0  0  0  0
  -21.7671  -25.6593   22.8405 C   0  0  0  0  0  0  0  0  0  0  0  0
  -29.7841  -16.8822   21.2264 C   0  0  0  0  0  0  0  0  0  0  0  0
  -29.2094  -16.2767   23.8883 C   0  0  0  0  0  0  0  0  0  0  0  0
  -28.8504  -15.8915   21.5304 C   0  0  0  0  0  0  0  0  0  0  0  0
  -29.1042  -22.4079   18.1631 C   0  0  0  0  0  0  0  0  0  0  0  0
  -28.4838  -24.1755   17.0117 C   0  0  0  0  0  0  0  0  0  0  0  0
  -26.5540  -31.5362   22.4252 C   0  0  0  0  0  0  0  0  0  0  0  0
  -24.8141  -31.4289   20.7778 C   0  0  0  0  0  0  0  0  0  0  0  0
  -25.6772  -31.6634   23.4331 C   0  0  0  0  0  0  0  0  0  0  0  0
  -26.1259  -31.4146   21.0506 C   0  0  0  0  0  0  0  0  0  0  0  0
  -24.2045  -31.6799   23.1249 C   0  0  0  0  0  0  0  0  0  0  0  0
  -27.9362  -22.0004   15.9081 C   0  0  0  0  0  0  0  0  0  0  0  0
  -21.3900  -20.4190   24.2047 C   0  0  0  0  0  0  0  0  0  0  0  0
  -24.5671  -20.4669   24.8575 C   0  0  0  0  0  0  0  0  0  0  0  0
  -27.4670  -22.2597   25.0091 C   0  0  0  0  0  0  0  0  0  0  0  0
  -27.6084  -28.8496   19.7197 C   0  0  0  0  0  0  0  0  0  0  0  0
  -19.0395  -15.9243   24.7793 C   0  0  0  0  0  0  0  0  0  0  0  0
  -22.3202  -21.4551   22.1029 C   0  0  0  0  0  0  0  0  0  0  0  0
  -23.4476  -22.7047   24.5344 C   0  0  0  0  0  0  0  0  0  0  0  0
  -20.2009  -16.6439   25.4601 C   0  0  0  0  0  0  0  0  0  0  0  0
  -30.8794  -27.3567   20.1313 C   0  0  0  0  0  0  0  0  0  0  0  0
  -19.8088  -18.0751   25.8133 C   0  0  0  0  0  0  0  0  0  0  0  0
  -30.6511  -25.9595   19.5518 C   0  0  0  0  0  0  0  0  0  0  0  0
  -29.6545  -27.8431   20.9001 C   0  0  0  0  0  0  0  0  0  0  0  0
  -28.1595  -26.4405   19.5321 C   0  0  0  0  0  0  0  0  0  0  0  0
  -19.4664  -18.8801   24.5538 C   0  0  1  0  0  0  0  0  0  0  0  0
  -22.6130  -20.6434   23.3610 C   0  0  1  0  0  0  0  0  0  0  0  0
  -29.3537  -25.9014   18.7238 C   0  0  2  0  0  0  0  0  0  0  0  0
  -26.8501  -30.5456   25.3128 C   0  0  0  0  0  0  0  0  0  0  0  0
  -26.9291  -33.0473   25.0816 C   0  0  0  0  0  0  0  0  0  0  0  0
  -29.8920  -22.0360   25.6149 C   0  0  0  0  0  0  0  0  0  0  0  0
  -23.8306  -20.5270   27.8179 C   0  0  0  0  0  0  0  0  0  0  0  0
  -26.1748  -21.2520   28.3149 C   0  0  0  0  0  0  0  0  0  0  0  0
  -25.7559  -19.0345   27.2520 C   0  0  0  0  0  0  0  0  0  0  0  0
  -28.3359  -22.9535   22.2663 C   0  0  0  0  0  0  0  0  0  0  0  0
  -27.1831  -31.2780   20.0007 C   0  0  0  0  0  0  0  0  0  0  0  0
  -21.9371  -30.1621   21.0537 C   0  0  0  0  0  0  0  0  0  0  0  0
  -22.0527  -29.2144   22.2481 C   0  0  0  0  0  0  0  0  0  0  0  0
  -22.4603  -31.5608   21.3647 C   0  0  0  0  0  0  0  0  0  0  0  0
  -21.4872  -27.8369   21.9262 C   0  0  0  0  0  0  0  0  0  1  0  0
  -26.0885  -31.7906   24.8662 C   0  0  0  0  0  0  0  0  0  0  0  0
  -25.4360  -21.1414   25.8915 C   0  0  1  0  0  0  0  0  0  0  0  0
  -28.8642  -21.9605   24.4965 C   0  0  2  0  0  0  0  0  0  0  0  0
  -25.2830  -20.5037   27.3013 C   0  0  0  0  0  0  0  0  0  0  0  0
  -29.4822  -23.4458   18.9139 N   0  0  0  0  0  0  0  0  0  0  0  0
  -29.0914  -24.5065   18.1870 N   0  0  0  0  0  0  0  0  0  0  0  0
  -23.8403  -31.5569   21.7664 N   0  0  0  0  0  0  0  0  0  0  0  0
  -23.6150  -21.2759   24.2213 N   0  0  0  0  0  0  0  0  0  0  0  0
  -28.4572  -27.7801   20.0500 N   0  0  0  0  0  0  0  0  0  0  0  0
  -28.0294  -25.1196   16.1605 N   0  0  0  0  0  0  0  0  0  0  0  0
  -28.0122  -20.6055   16.0217 N   0  0  0  0  0  0  0  0  0  0  0  0
  -20.6751  -19.2852   23.8688 N   0  0  0  0  0  0  0  0  0  0  0  0
  -26.7964  -21.1089   25.3655 N   0  0  0  0  0  0  0  0  0  0  0  0
  -27.9565  -30.0832   20.2562 N   0  0  0  0  0  0  0  0  0  0  0  0
  -29.2482  -22.9376   23.4387 N   0  3  0  0  0  0  0  0  0  0  0  0
  -23.3943  -31.7967   24.0442 O   0  0  0  0  0  0  0  0  0  0  0  0
  -27.4164  -22.5056   14.8844 O   0  0  0  0  0  0  0  0  0  0  0  0
  -21.1162  -21.2148   25.0954 O   0  0  0  0  0  0  0  0  0  0  0  0
  -24.7320  -19.2681   24.6180 O   0  0  0  0  0  0  0  0  0  0  0  0
  -27.0170  -23.4006   25.0892 O   0  0  0  0  0  0  0  0  0  0  0  0
  -26.6162  -28.7162   18.9953 O   0  0  0  0  0  0  0  0  0  0  0  0
  -30.0710  -17.1833   19.9056 O   0  0  0  0  0  0  0  0  0  0  0  0
  -21.5958  -26.9898   23.0694 O   0  0  0  0  0  0  0  0  0  1  0  0
  -28.9347  -15.9851   25.1665 F   0  0  0  0  0  0  0  0  0  0  0  0
  -28.2271  -15.2264   20.5481 F   0  0  0  0  0  0  0  0  0  0  0  0
  1  2  1  0  0  0  0
  1  5  2  0  0  0  0
  2  6  2  0  0  0  0
  3  8  2  0  0  0  0
  3 15  1  0  0  0  0
  4  9  1  0  0  0  0
  4 15  2  0  0  0  0
  5 17  1  0  0  0  0
  6 19  1  0  0  0  0
  7 10  2  0  0  0  0
  7 18  1  0  0  0  0
  8 21  1  0  0  0  0
  9 21  2  0  0  0  0
 10 22  1  0  0  0  0
 11 12  2  0  0  0  0
 11 23  1  0  0  0  0
 12 24  1  0  0  0  0
 13 20  1  0  0  0  0
 13 22  2  0  0  0  0
 14 24  2  0  0  0  0
 14 25  1  0  0  0  0
 15 26  1  0  0  0  0
 16 26  1  0  0  0  0
 16 27  2  0  0  0  0
 16 33  1  0  0  0  0
 17 19  2  0  0  0  0
 17 38  1  0  0  0  0
 18 20  2  0  0  0  0
 18 39  1  0  0  0  0
 19 47  1  0  0  0  0
 20 40  1  0  0  0  0
 21 83  1  0  0  0  0
 22 84  1  0  0  0  0
 23 25  2  0  0  0  0
 23 83  1  0  0  0  0
 24 85  1  0  0  0  0
 25 86  1  0  0  0  0
 26 66  2  0  0  0  0
 27 67  1  0  0  0  0
 27 71  1  0  0  0  0
 28 30  2  0  0  0  0
 28 31  1  0  0  0  0
 29 31  2  0  0  0  0
 29 68  1  0  0  0  0
 30 32  1  0  0  0  0
 30 62  1  0  0  0  0
 31 57  1  0  0  0  0
 32 68  1  0  0  0  0
 32 77  2  0  0  0  0
 33 72  1  0  0  0  0
 33 78  2  0  0  0  0
 34 48  1  0  0  0  0
 34 73  1  0  0  0  0
 34 79  2  0  0  0  0
 35 63  1  0  0  0  0
 35 69  1  0  0  0  0
 35 80  2  0  0  0  0
 36 64  1  0  0  0  0
 36 74  1  0  0  0  0
 36 81  2  0  0  0  0
 37 70  1  0  0  0  0
 37 75  1  0  0  0  0
 37 82  2  0  0  0  0
 38 41  1  0  0  0  0
 39 48  1  0  0  0  0
 40 69  1  0  0  0  0
 41 43  1  0  0  0  0
 42 44  1  0  0  0  0
 42 45  1  0  0  0  0
 43 47  1  0  0  0  0
 44 49  1  0  0  0  0
 45 70  1  0  0  0  0
 46 49  1  0  0  0  0
 46 70  1  0  0  0  0
 47 73  1  0  0  0  0
 48 69  1  0  0  0  0
 49 67  1  0  0  0  0
 50 62  1  0  0  0  0
 51 62  1  0  0  0  0
 52 64  1  0  0  0  0
 53 65  1  0  0  0  0
 54 65  1  0  0  0  0
 55 65  1  0  0  0  0
 56 76  1  0  0  0  0
 57 75  1  0  0  0  0
 58 59  1  0  0  0  0
 58 60  1  0  0  0  0
 59 61  1  0  0  0  0
 60 68  1  0  0  0  0
 61 84  1  0  0  0  0
 63 65  1  0  0  0  0
 63 74  1  0  0  0  0
 64 76  1  0  0  0  0
 66 67  1  0  0  0  0
M  CHG  1  76   1
M  ISO  4  37 100  61 101  75 100  84 101
M  END
> <Batch ID>
0086

> <Smiles>
CNC(C)C(=O)NC(C(=O)N1Cc2cc([101O:1][101CH2:1]CCCn3cc(C[100NH:0][100C:0](=O)N4CCCC(n5nc(-c6ccc(Oc7ccc(F)cc7F)cc6)c(C(N)=O)c5N)C4)cc(C(C)C)c3=O)ccc2CC1C(=O)NC1CCCc2ccccc21)C(C)(C)C

> <Shape>
0.203

> <Color>
0.057

> <Negative vol penalty>
0.000

$$$$

  -OEChem-04052318593D

 86 94  0     1  0  0  0  0  0999 V2000
  -30.8940  -25.7057   10.4976 C   0  0  0  0  0  0  0  0  0  0  0  0
  -30.0415  -24.8128   11.1390 C   0  0  0  0  0  0  0  0  0  0  0  0
  -23.0643   -9.8790   19.9406 C   0  0  0  0  0  0  0  0  0  0  0  0
  -23.8635   -9.8612   22.2205 C   0  0  0  0  0  0  0  0  0  0  0  0
  -31.8734  -26.3788   11.2267 C   0  0  0  0  0  0  0  0  0  0  0  0
  -30.1687  -24.5917   12.5099 C   0  0  0  0  0  0  0  0  0  0  0  0
  -25.6556  -23.4510   16.4894 C   0  0  0  0  0  0  0  0  0  0  0  0
  -22.3269   -8.7216   20.1900 C   0  0  0  0  0  0  0  0  0  0  0  0
  -23.1259   -8.7038   22.4700 C   0  0  0  0  0  0  0  0  0  0  0  0
  -25.1696  -22.2670   17.0423 C   0  0  0  0  0  0  0  0  0  0  0  0
  -19.9100   -7.8930   23.1185 C   0  0  0  0  0  0  0  0  0  0  0  0
  -19.1733   -7.8382   24.3017 C   0  0  0  0  0  0  0  0  0  0  0  0
  -26.5516  -22.6156   18.9885 C   0  0  0  0  0  0  0  0  0  0  0  0
  -28.7732  -17.6580   18.2568 C   0  0  0  0  0  0  0  0  0  0  0  0
  -20.4305   -5.8949   24.9945 C   0  0  0  0  0  0  0  0  0  0  0  0
  -23.8327  -10.4487   20.9558 C   0  0  0  0  0  0  0  0  0  0  0  0
  -24.1681  -12.9757   20.8589 C   0  0  0  0  0  0  0  0  0  0  0  0
  -32.0063  -26.1731   12.6089 C   0  0  0  0  0  0  0  0  0  0  0  0
  -26.6030  -24.2219   17.1782 C   0  0  0  0  0  0  0  0  0  0  0  0
  -31.1517  -25.2617   13.2580 C   0  0  0  0  0  0  0  0  0  0  0  0
  -27.0462  -23.8103   18.4432 C   0  0  0  0  0  0  0  0  0  0  0  0
  -27.4365  -17.8200   17.9100 C   0  0  0  0  0  0  0  0  0  0  0  0
  -26.4991  -18.1126   18.8944 C   0  0  0  0  0  0  0  0  0  0  0  0
  -22.3576   -8.1341   21.4547 C   0  0  0  0  0  0  0  0  0  0  0  0
  -25.6197  -21.8476   18.2907 C   0  0  0  0  0  0  0  0  0  0  0  0
  -20.9069   -6.9487   22.8733 C   0  0  0  0  0  0  0  0  0  0  0  0
  -19.4336   -6.8392   25.2397 C   0  0  0  0  0  0  0  0  0  0  0  0
  -21.1671   -5.9496   23.8113 C   0  0  0  0  0  0  0  0  0  0  0  0
  -24.5952  -11.6439   20.6986 C   0  0  0  0  0  0  0  0  0  0  0  0
  -29.1184  -17.7977   19.5914 C   0  0  0  0  0  0  0  0  0  0  0  0
  -26.9461  -18.2317   20.2004 C   0  0  0  0  0  0  0  0  0  0  0  0
  -25.2526  -13.7314   20.4856 C   0  0  0  0  0  0  0  0  0  0  0  0
  -22.9042  -13.4843   21.3054 C   0  0  0  0  0  0  0  0  0  0  0  0
  -29.5912  -25.1416   16.6051 C   0  0  0  0  0  0  0  0  0  0  0  0
  -30.7597  -14.6911   20.6874 C   0  0  0  0  0  0  0  0  0  0  0  0
  -29.1651  -26.8727   19.3151 C   0  0  0  0  0  0  0  0  0  0  0  0
  -27.4958  -27.2733   22.2646 C   0  0  0  0  0  0  0  0  0  0  0  0
  -33.1108  -26.8881   13.3463 C   0  0  0  0  0  0  0  0  0  0  0  0
  -27.0974  -25.5103   16.5799 C   0  0  0  0  0  0  0  0  0  0  0  0
  -28.0473  -24.6124   19.2324 C   0  0  0  0  0  0  0  0  0  0  0  0
  -32.9358  -26.8793   14.8627 C   0  0  0  0  0  0  0  0  0  0  0  0
  -29.5562  -12.4210   18.1898 C   0  0  0  0  0  0  0  0  0  0  0  0
  -32.5733  -25.4801   15.3502 C   0  0  0  0  0  0  0  0  0  0  0  0
  -28.1340  -12.1025   18.6495 C   0  0  0  0  0  0  0  0  0  0  0  0
  -30.4968  -12.6117   19.3755 C   0  0  0  0  0  0  0  0  0  0  0  0
  -28.6165  -13.3267   20.8160 C   0  0  0  0  0  0  0  0  0  0  0  0
  -31.2423  -25.0138   14.7481 C   0  0  1  0  0  0  0  0  0  0  0  0
  -28.4452  -25.9517   17.1419 C   0  0  1  0  0  0  0  0  0  0  0  0
  -27.6272  -13.1569   19.6495 C   0  0  2  0  0  0  0  0  0  0  0  0
  -27.0349  -17.6724   16.4796 C   0  0  0  0  0  0  0  0  0  0  0  0
  -26.6969  -18.9462   22.5908 C   0  0  0  0  0  0  0  0  0  0  0  0
  -31.3269  -18.9552   19.8603 C   0  0  0  0  0  0  0  0  0  0  0  0
  -30.4200  -15.1759   23.0697 C   0  0  0  0  0  0  0  0  0  0  0  0
  -27.3940  -28.7589   24.2845 C   0  0  0  0  0  0  0  0  0  0  0  0
  -31.7070  -25.5751   20.3945 C   0  0  0  0  0  0  0  0  0  0  0  0
  -31.0395  -26.3357   22.6845 C   0  0  0  0  0  0  0  0  0  0  0  0
  -31.4877  -28.0154   20.8956 C   0  0  0  0  0  0  0  0  0  0  0  0
  -24.6899  -28.0327   21.7084 C   0  0  0  0  0  0  0  0  0  0  0  0
  -25.0417  -18.2963   18.5474 C   0  0  0  0  0  0  0  0  0  0  0  0
  -25.9865  -18.5464   21.3013 C   0  0  0  0  0  0  0  0  0  0  0  0
  -30.7306  -17.0795   21.4448 C   0  0  0  0  0  0  0  0  0  0  0  0
  -24.7611  -19.6601   17.9258 C   0  0  0  0  0  0  0  0  0  1  0  0
  -30.5440  -17.6320   20.0002 C   0  0  1  0  0  0  0  0  0  0  0  0
  -30.1462  -15.6731   21.6535 C   0  0  1  0  0  0  0  0  0  0  0  0
  -29.3803  -26.6228   20.7883 C   0  0  1  0  0  0  0  0  0  0  0  0
  -26.8404  -28.4894   22.8940 C   0  0  2  0  0  0  0  0  0  0  0  0
  -30.8862  -26.6209   21.1753 C   0  0  0  0  0  0  0  0  0  0  0  0
  -25.8529  -11.5553   20.2576 N   0  0  0  0  0  0  0  0  0  0  0  0
  -28.2362  -18.0814   20.5757 N   0  0  0  0  0  0  0  0  0  0  0  0
  -26.2253  -12.8410   20.1376 N   0  0  0  0  0  0  0  0  0  0  0  0
  -28.5056  -25.8615   18.6022 N   0  0  0  0  0  0  0  0  0  0  0  0
  -29.9691  -13.6044   20.3132 N   0  0  0  0  0  0  0  0  0  0  0  0
  -25.4595  -15.0640   20.4243 N   0  0  0  0  0  0  0  0  0  0  0  0
  -21.8997  -12.5694   21.6496 N   0  0  0  0  0  0  0  0  0  0  0  0
  -30.1311  -25.6378   15.4339 N   0  0  0  0  0  0  0  0  0  0  0  0
  -28.5837  -27.6218   21.4924 N   0  0  0  0  0  0  0  0  0  0  0  0
  -25.3684  -28.2849   23.0057 N   0  3  0  0  0  0  0  0  0  0  0  0
  -22.6668  -14.7137   21.3809 O   0  0  0  0  0  0  0  0  0  0  0  0
  -29.9594  -24.1412   17.2097 O   0  0  0  0  0  0  0  0  0  0  0  0
  -31.9063  -14.8873   20.2763 O   0  0  0  0  0  0  0  0  0  0  0  0
  -29.5610  -27.9294   18.8168 O   0  0  0  0  0  0  0  0  0  0  0  0
  -27.0860  -26.1285   22.4434 O   0  0  0  0  0  0  0  0  0  0  0  0
  -21.6379   -7.0048   21.6985 O   0  0  0  0  0  0  0  0  0  0  0  0
  -25.1475  -20.6920   18.8325 O   0  0  0  0  0  0  0  0  0  1  0  0
  -18.7271   -6.7877   26.3765 F   0  0  0  0  0  0  0  0  0  0  0  0
  -22.1244   -5.0403   23.5818 F   0  0  0  0  0  0  0  0  0  0  0  0
  1  2  1  0  0  0  0
  1  5  2  0  0  0  0
  2  6  2  0  0  0  0
  3  8  2  0  0  0  0
  3 16  1  0  0  0  0
  4  9  1  0  0  0  0
  4 16  2  0  0  0  0
  5 18  1  0  0  0  0
  6 20  1  0  0  0  0
  7 10  2  0  0  0  0
  7 19  1  0  0  0  0
  8 24  1  0  0  0  0
  9 24  2  0  0  0  0
 10 25  1  0  0  0  0
 11 12  2  0  0  0  0
 11 26  1  0  0  0  0
 12 27  1  0  0  0  0
 13 21  1  0  0  0  0
 13 25  2  0  0  0  0
 14 22  2  0  0  0  0
 14 30  1  0  0  0  0
 15 27  2  0  0  0  0
 15 28  1  0  0  0  0
 16 29  1  0  0  0  0
 17 29  1  0  0  0  0
 17 32  2  0  0  0  0
 17 33  1  0  0  0  0
 18 20  2  0  0  0  0
 18 38  1  0  0  0  0
 19 21  2  0  0  0  0
 19 39  1  0  0  0  0
 20 47  1  0  0  0  0
 21 40  1  0  0  0  0
 22 23  1  0  0  0  0
 22 50  1  0  0  0  0
 23 31  2  0  0  0  0
 23 59  1  0  0  0  0
 24 83  1  0  0  0  0
 25 84  1  0  0  0  0
 26 28  2  0  0  0  0
 26 83  1  0  0  0  0
 27 85  1  0  0  0  0
 28 86  1  0  0  0  0
 29 68  2  0  0  0  0
 30 63  1  0  0  0  0
 30 69  2  0  0  0  0
 31 60  1  0  0  0  0
 31 69  1  0  0  0  0
 32 70  1  0  0  0  0
 32 73  1  0  0  0  0
 33 74  1  0  0  0  0
 33 78  2  0  0  0  0
 34 48  1  0  0  0  0
 34 75  1  0  0  0  0
 34 79  2  0  0  0  0
 35 64  1  0  0  0  0
 35 72  1  0  0  0  0
 35 80  2  0  0  0  0
 36 65  1  0  0  0  0
 36 71  1  0  0  0  0
 36 81  2  0  0  0  0
 37 66  1  0  0  0  0
 37 76  1  0  0  0  0
 37 82  2  0  0  0  0
 38 41  1  0  0  0  0
 39 48  1  0  0  0  0
 40 71  1  0  0  0  0
 41 43  1  0  0  0  0
 42 44  1  0  0  0  0
 42 45  1  0  0  0  0
 43 47  1  0  0  0  0
 44 49  1  0  0  0  0
 45 72  1  0  0  0  0
 46 49  1  0  0  0  0
 46 72  1  0  0  0  0
 47 75  1  0  0  0  0
 48 71  1  0  0  0  0
 49 70  1  0  0  0  0
 51 60  1  0  0  0  0
 52 63  1  0  0  0  0
 53 64  1  0  0  0  0
 54 66  1  0  0  0  0
 55 67  1  0  0  0  0
 56 67  1  0  0  0  0
 57 67  1  0  0  0  0
 58 77  1  0  0  0  0
 59 62  1  0  0  0  0
 61 63  1  0  0  0  0
 61 64  1  0  0  0  0
 62 84  1  0  0  0  0
 65 67  1  0  0  0  0
 65 76  1  0  0  0  0
 66 77  1  0  0  0  0
 68 70  1  0  0  0  0
M  CHG  1  77   1
M  ISO  4  35 100  62 101  64 100  84 101
M  END
> <Batch ID>
0086

> <Smiles>
CCc1nc(C(C)C[100CH:0](C)[100C:0](=O)N2CCCC(n3nc(-c4ccc(Oc5ccc(F)cc5F)cc4)c(C(N)=O)c3N)C2)cc(C)c1C[101CH2:1][101O:1]c1ccc2c(c1)CN(C(=O)C(NC(=O)C(C)NC)C(C)(C)C)C(C(=O)NC1CCCc3ccccc31)C2

> <Shape>
0.263

> <Color>
0.187

> <Negative vol penalty>
0.000

$$$$

  -OEChem-04052318593D

 80 87  0     1  0  0  0  0  0999 V2000
  -25.5601  -33.4922   23.4501 C   0  0  0  0  0  0  0  0  0  0  0  0
  -26.0717  -32.4018   24.1465 C   0  0  0  0  0  0  0  0  0  0  0  0
  -23.1187   -9.7735   19.9162 C   0  0  0  0  0  0  0  0  0  0  0  0
  -23.8798   -9.7797   22.2092 C   0  0  0  0  0  0  0  0  0  0  0  0
  -25.0482  -33.3191   22.1649 C   0  0  0  0  0  0  0  0  0  0  0  0
  -26.0707  -31.1376   23.5583 C   0  0  0  0  0  0  0  0  0  0  0  0
  -29.8780  -25.0730   23.3520 C   0  0  0  0  0  0  0  0  0  0  0  0
  -22.4036   -8.6004   20.1567 C   0  0  0  0  0  0  0  0  0  0  0  0
  -23.1646   -8.6065   22.4497 C   0  0  0  0  0  0  0  0  0  0  0  0
  -29.7218  -23.6972   23.5144 C   0  0  0  0  0  0  0  0  0  0  0  0
  -19.9575   -7.7243   23.0469 C   0  0  0  0  0  0  0  0  0  0  0  0
  -19.2025   -7.6558   24.2177 C   0  0  0  0  0  0  0  0  0  0  0  0
  -28.8843  -23.5319   21.2582 C   0  0  0  0  0  0  0  0  0  0  0  0
  -20.4918   -5.7433   24.9370 C   0  0  0  0  0  0  0  0  0  0  0  0
  -23.8568  -10.3632   20.9425 C   0  0  0  0  0  0  0  0  0  0  0  0
  -24.1363  -12.8969   20.8438 C   0  0  0  0  0  0  0  0  0  0  0  0
  -25.0498  -32.0539   21.5569 C   0  0  0  0  0  0  0  0  0  0  0  0
  -29.5277  -25.6913   22.1430 C   0  0  0  0  0  0  0  0  0  0  0  0
  -25.5571  -30.9472   22.2642 C   0  0  0  0  0  0  0  0  0  0  0  0
  -29.0394  -24.9154   21.0821 C   0  0  0  0  0  0  0  0  0  0  0  0
  -22.4265   -8.0168   21.4234 C   0  0  0  0  0  0  0  0  0  0  0  0
  -29.2221  -22.9268   22.4685 C   0  0  0  0  0  0  0  0  0  0  0  0
  -20.9795   -6.8023   22.8210 C   0  0  0  0  0  0  0  0  0  0  0  0
  -19.4697   -6.6653   25.1628 C   0  0  0  0  0  0  0  0  0  0  0  0
  -21.2467   -5.8118   23.7661 C   0  0  0  0  0  0  0  0  0  0  0  0
  -24.5962  -11.5748   20.6945 C   0  0  0  0  0  0  0  0  0  0  0  0
  -25.2095  -13.6761   20.4865 C   0  0  0  0  0  0  0  0  0  0  0  0
  -22.8538  -13.3777   21.2677 C   0  0  0  0  0  0  0  0  0  0  0  0
  -27.4159  -27.9072   21.2863 C   0  0  0  0  0  0  0  0  0  0  0  0
  -28.8964  -27.6497   18.4116 C   0  0  0  0  0  0  0  0  0  0  0  0
  -30.7636  -25.7550   16.2737 C   0  0  0  0  0  0  0  0  0  0  0  0
  -30.6666  -14.8282   20.6810 C   0  0  0  0  0  0  0  0  0  0  0  0
  -24.4425  -31.9074   20.1841 C   0  0  0  0  0  0  0  0  0  0  0  0
  -29.7273  -27.1726   21.9746 C   0  0  0  0  0  0  0  0  0  0  0  0
  -28.6677  -25.5278   19.7572 C   0  0  0  0  0  0  0  0  0  0  0  0
  -24.8209  -30.6033   19.4866 C   0  0  0  0  0  0  0  0  0  0  0  0
  -29.5864  -12.4369   18.2745 C   0  0  0  0  0  0  0  0  0  0  0  0
  -24.6648  -29.4230   20.4403 C   0  0  0  0  0  0  0  0  0  0  0  0
  -28.1569  -12.1042   18.7055 C   0  0  0  0  0  0  0  0  0  0  0  0
  -30.4986  -12.6700   19.4768 C   0  0  0  0  0  0  0  0  0  0  0  0
  -28.5804  -13.3422   20.8704 C   0  0  0  0  0  0  0  0  0  0  0  0
  -25.5961  -29.5645   21.6503 C   0  0  1  0  0  0  0  0  0  0  0  0
  -28.8550  -27.7719   20.8759 C   0  0  1  0  0  0  0  0  0  0  0  0
  -27.6100  -13.1537   19.6918 C   0  0  2  0  0  0  0  0  0  0  0  0
  -31.7848  -25.7991   13.9819 C   0  0  0  0  0  0  0  0  0  0  0  0
  -32.5443  -20.2093   20.2878 C   0  0  0  0  0  0  0  0  0  0  0  0
  -32.9315  -18.4739   22.0801 C   0  0  0  0  0  0  0  0  0  0  0  0
  -28.9448  -18.1927   20.5187 C   0  0  0  0  0  0  0  0  0  0  0  0
  -26.1474  -27.1638   17.1800 C   0  0  0  0  0  0  0  0  0  0  0  0
  -27.2955  -26.2903   15.1338 C   0  0  0  0  0  0  0  0  0  0  0  0
  -27.6412  -28.6573   15.8411 C   0  0  0  0  0  0  0  0  0  0  0  0
  -33.5003  -25.4585   17.3608 C   0  0  0  0  0  0  0  0  0  0  0  0
  -30.6803  -16.9692   21.9361 C   0  0  0  0  0  0  0  0  0  0  0  0
  -30.1367  -19.4801   23.0882 C   0  0  0  0  0  0  0  0  0  0  0  0
  -29.9697  -20.9256   23.5135 C   0  0  0  0  0  0  0  0  0  1  0  0
  -28.7028  -26.7954   17.1821 C   0  0  1  0  0  0  0  0  0  0  0  0
  -32.0034  -26.0802   15.4604 C   0  0  2  0  0  0  0  0  0  0  0  0
  -32.1776  -19.7332   21.6841 C   0  0  0  0  0  0  0  0  0  0  0  0
  -30.3875  -18.1420   21.0030 C   0  0  2  0  0  0  0  0  0  0  0  0
  -27.4518  -27.2152   16.3597 C   0  0  0  0  0  0  0  0  0  0  0  0
  -25.8628  -11.5137   20.2749 N   0  0  0  0  0  0  0  0  0  0  0  0
  -26.2079  -12.8072   20.1573 N   0  0  0  0  0  0  0  0  0  0  0  0
  -28.8750  -26.9810   19.6437 N   0  0  0  0  0  0  0  0  0  0  0  0
  -29.9235  -13.6770   20.3717 N   0  0  0  0  0  0  0  0  0  0  0  0
  -25.3870  -15.0130   20.4247 N   0  0  0  0  0  0  0  0  0  0  0  0
  -21.8648  -12.4411   21.5977 N   0  0  0  0  0  0  0  0  0  0  0  0
  -26.9516  -29.2087   21.2891 N   0  0  0  0  0  0  0  0  0  0  0  0
  -29.9562  -26.8605   16.4383 N   0  0  0  0  0  0  0  0  0  0  0  0
  -30.0453  -15.7348   21.5312 N   0  0  0  0  0  0  0  0  0  0  0  0
  -33.1588  -25.2634   15.9282 N   0  3  0  0  0  0  0  0  0  0  0  0
  -30.6989  -19.4352   21.7149 N   0  3  1  0  0  0  0  0  0  0  0  0
  -22.5874  -14.6016   21.3357 O   0  0  0  0  0  0  0  0  0  0  0  0
  -26.7739  -26.9048   21.5774 O   0  0  0  0  0  0  0  0  0  0  0  0
  -29.0677  -28.8645   18.2830 O   0  0  0  0  0  0  0  0  0  0  0  0
  -30.5325  -24.6316   16.7155 O   0  0  0  0  0  0  0  0  0  0  0  0
  -31.7976  -15.0355   20.2283 O   0  0  0  0  0  0  0  0  0  0  0  0
  -21.7287   -6.8721   21.6585 O   0  0  0  0  0  0  0  0  0  0  0  0
  -29.0680  -21.5838   22.6246 O   0  0  0  0  0  0  0  0  0  1  0  0
  -18.7456   -6.6006   26.2879 F   0  0  0  0  0  0  0  0  0  0  0  0
  -22.2281   -4.9240   23.5553 F   0  0  0  0  0  0  0  0  0  0  0  0
  1  2  1  0  0  0  0
  1  5  2  0  0  0  0
  2  6  2  0  0  0  0
  3  8  2  0  0  0  0
  3 15  1  0  0  0  0
  4  9  1  0  0  0  0
  4 15  2  0  0  0  0
  5 17  1  0  0  0  0
  6 19  1  0  0  0  0
  7 10  2  0  0  0  0
  7 18  1  0  0  0  0
  8 21  1  0  0  0  0
  9 21  2  0  0  0  0
 10 22  1  0  0  0  0
 11 12  2  0  0  0  0
 11 23  1  0  0  0  0
 12 24  1  0  0  0  0
 13 20  1  0  0  0  0
 13 22  2  0  0  0  0
 14 24  2  0  0  0  0
 14 25  1  0  0  0  0
 15 26  1  0  0  0  0
 16 26  1  0  0  0  0
 16 27  2  0  0  0  0
 16 28  1  0  0  0  0
 17 19  2  0  0  0  0
 17 33  1  0  0  0  0
 18 20  2  0  0  0  0
 18 34  1  0  0  0  0
 19 42  1  0  0  0  0
 20 35  1  0  0  0  0
 21 77  1  0  0  0  0
 22 78  1  0  0  0  0
 23 25  2  0  0  0  0
 23 77  1  0  0  0  0
 24 79  1  0  0  0  0
 25 80  1  0  0  0  0
 26 61  2  0  0  0  0
 27 62  1  0  0  0  0
 27 65  1  0  0  0  0
 28 66  1  0  0  0  0
 28 72  2  0  0  0  0
 29 43  1  0  0  0  0
 29 67  1  0  0  0  0
 29 73  2  0  0  0  0
 30 56  1  0  0  0  0
 30 63  1  0  0  0  0
 30 74  2  0  0  0  0
 31 57  1  0  0  0  0
 31 68  1  0  0  0  0
 31 75  2  0  0  0  0
 32 64  1  0  0  0  0
 32 69  1  0  0  0  0
 32 76  2  0  0  0  0
 33 36  1  0  0  0  0
 34 43  1  0  0  0  0
 35 63  1  0  0  0  0
 36 38  1  0  0  0  0
 37 39  1  0  0  0  0
 37 40  1  0  0  0  0
 38 42  1  0  0  0  0
 39 44  1  0  0  0  0
 40 64  1  0  0  0  0
 41 44  1  0  0  0  0
 41 64  1  0  0  0  0
 42 67  1  0  0  0  0
 43 63  1  0  0  0  0
 44 62  1  0  0  0  0
 45 57  1  0  0  0  0
 46 58  1  0  0  0  0
 47 58  1  0  0  0  0
 48 59  1  0  0  0  0
 49 60  1  0  0  0  0
 50 60  1  0  0  0  0
 51 60  1  0  0  0  0
 52 70  1  0  0  0  0
 53 59  1  0  0  0  0
 53 69  1  0  0  0  0
 54 55  1  0  0  0  0
 54 71  1  0  0  0  0
 55 78  1  0  0  0  0
 56 60  1  0  0  0  0
 56 68  1  0  0  0  0
 57 70  1  0  0  0  0
 58 71  1  0  0  0  0
 59 71  1  0  0  0  0
 61 62  1  0  0  0  0
M  CHG  2  70   1  71   1
M  ISO  4  32 100  55 101  69 100  78 101
M  END
> <Batch ID>
0086

> <Smiles>
CNC(C)C(=O)NC(C(=O)N1Cc2cc([101O:1][101CH2:1]CN(C(C)C)C(C)C[100NH:0][100C:0](=O)N3CCCC(n4nc(-c5ccc(Oc6ccc(F)cc6F)cc5)c(C(N)=O)c4N)C3)ccc2CC1C(=O)NC1CCCc2ccccc21)C(C)(C)C

> <Shape>
0.315

> <Color>
0.205

> <Negative vol penalty>
0.000

$$$$

  -OEChem-04052318593D

 91 99  0     1  0  0  0  0  0999 V2000
  -17.8404  -28.1133   23.1296 C   0  0  0  0  0  0  0  0  0  0  0  0
  -19.1714  -28.3952   23.4199 C   0  0  0  0  0  0  0  0  0  0  0  0
  -24.1651  -13.8440   19.8940 C   0  0  0  0  0  0  0  0  0  0  0  0
  -25.0570  -13.9162   22.1382 C   0  0  0  0  0  0  0  0  0  0  0  0
  -17.5259  -27.1566   22.1654 C   0  0  0  0  0  0  0  0  0  0  0  0
  -20.1888  -27.7195   22.7470 C   0  0  0  0  0  0  0  0  0  0  0  0
  -23.8918  -30.8145   21.2126 C   0  0  0  0  0  0  0  0  0  0  0  0
  -27.6463  -24.2783   29.0155 C   0  0  0  0  0  0  0  0  0  0  0  0
  -26.4945  -24.2344   28.2300 C   0  0  0  0  0  0  0  0  0  0  0  0
  -25.0920  -12.8576   19.5573 C   0  0  0  0  0  0  0  0  0  0  0  0
  -25.9840  -12.9298   21.8015 C   0  0  0  0  0  0  0  0  0  0  0  0
  -24.8130  -31.2302   22.1729 C   0  0  0  0  0  0  0  0  0  0  0  0
  -27.4608  -10.5762   18.0056 C   0  0  0  0  0  0  0  0  0  0  0  0
  -28.1368  -10.7063   16.7924 C   0  0  0  0  0  0  0  0  0  0  0  0
  -26.3761  -29.5713   21.3831 C   0  0  0  0  0  0  0  0  0  0  0  0
  -28.6656  -25.7962   27.4363 C   0  0  0  0  0  0  0  0  0  0  0  0
  -29.0454  -12.8215   17.5256 C   0  0  0  0  0  0  0  0  0  0  0  0
  -24.1476  -14.3733   21.1844 C   0  0  0  0  0  0  0  0  0  0  0  0
  -21.8967  -15.2017   22.0533 C   0  0  0  0  0  0  0  0  0  0  0  0
  -18.5400  -26.4758   21.4734 C   0  0  0  0  0  0  0  0  0  0  0  0
  -24.2022  -29.7649   20.3359 C   0  0  0  0  0  0  0  0  0  0  0  0
  -19.8876  -26.7518   21.7736 C   0  0  0  0  0  0  0  0  0  0  0  0
  -25.4581  -29.1458   20.4108 C   0  0  0  0  0  0  0  0  0  0  0  0
  -28.7318  -25.0592   28.6187 C   0  0  0  0  0  0  0  0  0  0  0  0
  -26.4283  -24.9715   27.0476 C   0  0  0  0  0  0  0  0  0  0  0  0
  -27.5138  -25.7524   26.6508 C   0  0  0  0  0  0  0  0  0  0  0  0
  -26.0015  -12.4005   20.5111 C   0  0  0  0  0  0  0  0  0  0  0  0
  -26.0543  -30.6067   22.2602 C   0  0  0  0  0  0  0  0  0  0  0  0
  -27.5771  -11.5688   18.9787 C   0  0  0  0  0  0  0  0  0  0  0  0
  -28.9291  -11.8289   16.5524 C   0  0  0  0  0  0  0  0  0  0  0  0
  -28.3694  -12.6914   18.7387 C   0  0  0  0  0  0  0  0  0  0  0  0
  -23.1906  -15.3927   21.5327 C   0  0  0  0  0  0  0  0  0  0  0  0
  -21.3991  -16.4722   22.2111 C   0  0  0  0  0  0  0  0  0  0  0  0
  -21.2063  -13.9848   22.3664 C   0  0  0  0  0  0  0  0  0  0  0  0
  -22.9902  -26.8813   19.7710 C   0  0  0  0  0  0  0  0  0  0  0  0
  -25.1454  -26.8783   17.3467 C   0  0  0  0  0  0  0  0  0  0  0  0
  -28.0689  -28.0882   16.0676 C   0  0  0  0  0  0  0  0  0  0  0  0
  -23.8585  -21.6375   23.1480 C   0  0  0  0  0  0  0  0  0  0  0  0
  -18.1510  -25.4161   20.4733 C   0  0  0  0  0  0  0  0  0  0  0  0
  -23.2078  -29.3461   19.2880 C   0  0  0  0  0  0  0  0  0  0  0  0
  -25.8479  -28.0279   19.4798 C   0  0  0  0  0  0  0  0  0  0  0  0
  -19.2889  -25.0135   19.5387 C   0  0  0  0  0  0  0  0  0  0  0  0
  -21.7424  -20.8872   20.4220 C   0  0  0  0  0  0  0  0  0  0  0  0
  -20.5717  -24.7786   20.3299 C   0  0  0  0  0  0  0  0  0  0  0  0
  -21.7536  -19.3594   20.4419 C   0  0  0  0  0  0  0  0  0  0  0  0
  -23.1216  -21.4759   20.7247 C   0  0  0  0  0  0  0  0  0  0  0  0
  -23.7345  -19.4464   22.0008 C   0  0  0  0  0  0  0  0  0  0  0  0
  -21.0195  -26.0578   21.0474 C   0  0  1  0  0  0  0  0  0  0  0  0
  -23.4338  -27.9240   18.7843 C   0  0  1  0  0  0  0  0  0  0  0  0
  -22.3478  -18.8306   21.7588 C   0  0  2  0  0  0  0  0  0  0  0  0
  -29.5913  -27.8697   14.0848 C   0  0  0  0  0  0  0  0  0  0  0  0
  -30.5949  -23.6874   29.6151 C   0  0  0  0  0  0  0  0  0  0  0  0
  -29.6523  -25.6424   30.8901 C   0  0  0  0  0  0  0  0  0  0  0  0
  -31.1138  -26.0157   28.9137 C   0  0  0  0  0  0  0  0  0  0  0  0
  -26.1810  -24.2236   18.4375 C   0  0  0  0  0  0  0  0  0  0  0  0
  -28.2395  -24.5349   17.0467 C   0  0  0  0  0  0  0  0  0  0  0  0
  -26.0108  -24.3319   15.9447 C   0  0  0  0  0  0  0  0  0  0  0  0
  -27.9988  -30.9732   25.3497 C   0  0  0  0  0  0  0  0  0  0  0  0
  -25.5317  -30.6512   25.0757 C   0  0  0  0  0  0  0  0  0  0  0  0
  -24.8331  -23.6018   21.8845 C   0  0  0  0  0  0  0  0  0  0  0  0
  -27.7164  -30.9344   15.3370 C   0  0  0  0  0  0  0  0  0  0  0  0
  -25.1850  -24.9079   26.2224 C   0  0  0  0  0  0  0  0  0  0  0  0
  -27.4654  -26.5573   25.3765 C   0  0  0  0  0  0  0  0  0  0  0  0
  -25.2794  -23.9734   25.0012 C   0  0  0  0  0  0  0  0  0  0  0  0
  -27.1851  -28.0497   25.5962 C   0  0  0  0  0  0  0  0  0  0  0  0
  -27.1616  -28.8513   24.2853 C   0  0  0  0  0  0  0  0  0  0  0  0
  -23.9910  -23.8690   24.1879 C   0  0  0  0  0  0  0  0  0  0  0  0
  -26.5857  -26.4516   17.1972 C   0  0  1  0  0  0  0  0  0  0  0  0
  -28.4203  -28.6263   14.6923 C   0  0  2  0  0  0  0  0  0  0  0  0
  -29.9633  -25.1055   29.4585 C   0  0  0  0  0  0  0  0  0  0  0  0
  -26.7465  -24.9052   17.1755 C   0  0  0  0  0  0  0  0  0  0  0  0
  -26.9049  -30.3624   24.4676 C   0  0  0  0  0  0  0  0  0  1  0  0
  -23.4959  -16.6828   21.3704 N   0  0  0  0  0  0  0  0  0  0  0  0
  -22.3867  -17.3141   21.7914 N   0  0  0  0  0  0  0  0  0  0  0  0
  -24.8390  -27.6500   18.4764 N   0  0  0  0  0  0  0  0  0  0  0  0
  -23.6723  -20.9096   21.9636 N   0  0  0  0  0  0  0  0  0  0  0  0
  -20.2175  -16.9401   22.6664 N   0  0  0  0  0  0  0  0  0  0  0  0
  -21.8638  -12.7673   22.1435 N   0  0  0  0  0  0  0  0  0  0  0  0
  -21.6544  -26.9644   20.1150 N   0  0  0  0  0  0  0  0  0  0  0  0
  -27.0880  -27.1214   16.0024 N   0  0  0  0  0  0  0  0  0  0  0  0
  -24.1361  -23.0071   23.0232 N   0  0  0  0  0  0  0  0  0  0  0  0
  -28.7863  -30.0684   14.7783 N   0  3  0  0  0  0  0  0  0  0  0  0
  -20.0348  -13.9768   22.8147 O   0  0  0  0  0  0  0  0  0  0  0  0
  -23.7994  -26.0611   20.1882 O   0  0  0  0  0  0  0  0  0  0  0  0
  -24.3239  -26.5453   16.4888 O   0  0  0  0  0  0  0  0  0  0  0  0
  -28.6129  -28.4833   17.0965 O   0  0  0  0  0  0  0  0  0  0  0  0
  -23.7890  -21.0930   24.2574 O   0  0  0  0  0  0  0  0  0  0  0  0
  -26.9060  -11.4378   20.1829 O   0  0  0  0  0  0  0  0  0  0  0  0
  -26.9550  -31.0102   23.1971 O   0  0  0  0  0  0  0  0  0  1  0  0
  -29.5794  -11.9530   15.3880 F   0  0  0  0  0  0  0  0  0  0  0  0
  -28.4859  -13.6477   19.6703 F   0  0  0  0  0  0  0  0  0  0  0  0
  1  2  1  0  0  0  0
  1  5  2  0  0  0  0
  2  6  2  0  0  0  0
  3 10  2  0  0  0  0
  3 18  1  0  0  0  0
  4 11  1  0  0  0  0
  4 18  2  0  0  0  0
  5 20  1  0  0  0  0
  6 22  1  0  0  0  0
  7 12  2  0  0  0  0
  7 21  1  0  0  0  0
  8  9  2  0  0  0  0
  8 24  1  0  0  0  0
  9 25  1  0  0  0  0
 10 27  1  0  0  0  0
 11 27  2  0  0  0  0
 12 28  1  0  0  0  0
 13 14  2  0  0  0  0
 13 29  1  0  0  0  0
 14 30  1  0  0  0  0
 15 23  1  0  0  0  0
 15 28  2  0  0  0  0
 16 24  2  0  0  0  0
 16 26  1  0  0  0  0
 17 30  2  0  0  0  0
 17 31  1  0  0  0  0
 18 32  1  0  0  0  0
 19 32  1  0  0  0  0
 19 33  2  0  0  0  0
 19 34  1  0  0  0  0
 20 22  2  0  0  0  0
 20 39  1  0  0  0  0
 21 23  2  0  0  0  0
 21 40  1  0  0  0  0
 22 48  1  0  0  0  0
 23 41  1  0  0  0  0
 24 70  1  0  0  0  0
 25 26  2  0  0  0  0
 25 62  1  0  0  0  0
 26 63  1  0  0  0  0
 27 88  1  0  0  0  0
 28 89  1  0  0  0  0
 29 31  2  0  0  0  0
 29 88  1  0  0  0  0
 30 90  1  0  0  0  0
 31 91  1  0  0  0  0
 32 73  2  0  0  0  0
 33 74  1  0  0  0  0
 33 77  1  0  0  0  0
 34 78  1  0  0  0  0
 34 83  2  0  0  0  0
 35 49  1  0  0  0  0
 35 79  1  0  0  0  0
 35 84  2  0  0  0  0
 36 68  1  0  0  0  0
 36 75  1  0  0  0  0
 36 85  2  0  0  0  0
 37 69  1  0  0  0  0
 37 80  1  0  0  0  0
 37 86  2  0  0  0  0
 38 76  1  0  0  0  0
 38 81  1  0  0  0  0
 38 87  2  0  0  0  0
 39 42  1  0  0  0  0
 40 49  1  0  0  0  0
 41 75  1  0  0  0  0
 42 44  1  0  0  0  0
 43 45  1  0  0  0  0
 43 46  1  0  0  0  0
 44 48  1  0  0  0  0
 45 50  1  0  0  0  0
 46 76  1  0  0  0  0
 47 50  1  0  0  0  0
 47 76  1  0  0  0  0
 48 79  1  0  0  0  0
 49 75  1  0  0  0  0
 50 74  1  0  0  0  0
 51 69  1  0  0  0  0
 52 70  1  0  0  0  0
 53 70  1  0  0  0  0
 54 70  1  0  0  0  0
 55 71  1  0  0  0  0
 56 71  1  0  0  0  0
 57 71  1  0  0  0  0
 58 72  1  0  0  0  0
 59 72  1  0  0  0  0
 60 81  1  0  0  0  0
 61 82  1  0  0  0  0
 62 64  1  0  0  0  0
 63 65  1  0  0  0  0
 64 67  1  0  0  0  0
 65 66  1  0  0  0  0
 66 72  1  0  0  0  0
 67 81  1  0  0  0  0
 68 71  1  0  0  0  0
 68 80  1  0  0  0  0
 69 82  1  0  0  0  0
 72 89  1  0  0  0  0
 73 74  1  0  0  0  0
M  CHG  1  82   1
M  ISO  4  38 100  72 101  81 100  89 101
M  END
> <Batch ID>
0086

> <Smiles>
CNC(C)C(=O)NC(C(=O)N1Cc2cc([101O:1][101C:1](C)(C)CCCc3cc(C(C)(C)C)ccc3CCC[100N:0](C)[100C:0](=O)N3CCCC(n4nc(-c5ccc(Oc6ccc(F)cc6F)cc5)c(C(N)=O)c4N)C3)ccc2CC1C(=O)NC1CCCc2ccccc21)C(C)(C)C

> <Shape>
0.199

> <Color>
0.075

> <Negative vol penalty>
0.000

$$$$

  -OEChem-04052318593D

 89 97  0     1  0  0  0  0  0999 V2000
  -16.9583  -28.6750   24.3514 C   0  0  0  0  0  0  0  0  0  0  0  0
  -17.6630  -27.6946   23.6603 C   0  0  0  0  0  0  0  0  0  0  0  0
  -30.1435  -22.5558   18.2465 C   0  0  0  0  0  0  0  0  0  0  0  0
  -28.1612  -21.5307   17.3210 C   0  0  0  0  0  0  0  0  0  0  0  0
  -17.2746  -30.0202   24.1664 C   0  0  0  0  0  0  0  0  0  0  0  0
  -18.6838  -28.0590   22.7830 C   0  0  0  0  0  0  0  0  0  0  0  0
  -22.8237  -25.1926   23.3214 C   0  0  0  0  0  0  0  0  0  0  0  0
  -30.3612  -23.2230   17.0411 C   0  0  0  0  0  0  0  0  0  0  0  0
  -28.3788  -22.1980   16.1156 C   0  0  0  0  0  0  0  0  0  0  0  0
  -22.7965  -23.9211   22.7502 C   0  0  0  0  0  0  0  0  0  0  0  0
  -30.3671  -21.8562   13.4025 C   0  0  0  0  0  0  0  0  0  0  0  0
  -30.2336  -21.1237   12.2230 C   0  0  0  0  0  0  0  0  0  0  0  0
  -24.0625  -24.7454   20.8695 C   0  0  0  0  0  0  0  0  0  0  0  0
  -20.9623  -20.0558   19.5981 C   0  0  0  0  0  0  0  0  0  0  0  0
  -28.4790  -22.6164   11.4947 C   0  0  0  0  0  0  0  0  0  0  0  0
  -29.0435  -21.7095   18.3864 C   0  0  0  0  0  0  0  0  0  0  0  0
  -28.6117  -21.5973   20.8981 C   0  0  0  0  0  0  0  0  0  0  0  0
  -18.3061  -30.4008   23.2937 C   0  0  0  0  0  0  0  0  0  0  0  0
  -23.4622  -26.2544   22.6647 C   0  0  0  0  0  0  0  0  0  0  0  0
  -19.0132  -29.4106   22.5851 C   0  0  0  0  0  0  0  0  0  0  0  0
  -24.0986  -26.0289   21.4358 C   0  0  0  0  0  0  0  0  0  0  0  0
  -19.6585  -19.5852   19.7082 C   0  0  0  0  0  0  0  0  0  0  0  0
  -22.0234  -19.2431   19.9811 C   0  0  0  0  0  0  0  0  0  0  0  0
  -29.4789  -23.0442   15.9757 C   0  0  0  0  0  0  0  0  0  0  0  0
  -23.4134  -23.6980   21.5227 C   0  0  0  0  0  0  0  0  0  0  0  0
  -29.5565  -22.9687   13.6282 C   0  0  0  0  0  0  0  0  0  0  0  0
  -29.2896  -21.5039   11.2691 C   0  0  0  0  0  0  0  0  0  0  0  0
  -28.6125  -23.3489   12.6743 C   0  0  0  0  0  0  0  0  0  0  0  0
  -28.8185  -21.0195   19.6311 C   0  0  0  0  0  0  0  0  0  0  0  0
  -19.4708  -18.3048   20.2033 C   0  0  0  0  0  0  0  0  0  0  0  0
  -21.7298  -17.9781   20.4642 C   0  0  0  0  0  0  0  0  0  0  0  0
  -28.4485  -20.5257   21.7417 C   0  0  0  0  0  0  0  0  0  0  0  0
  -28.5708  -22.9791   21.2785 C   0  0  0  0  0  0  0  0  0  0  0  0
  -22.5223  -29.0523   21.4848 C   0  0  0  0  0  0  0  0  0  0  0  0
  -25.7015  -29.4737   20.9976 C   0  0  0  0  0  0  0  0  0  0  0  0
  -28.7760  -28.0620   20.5487 C   0  0  0  0  0  0  0  0  0  0  0  0
  -26.6242  -14.8901   20.8685 C   0  0  0  0  0  0  0  0  0  0  0  0
  -18.5802  -31.8699   23.0906 C   0  0  0  0  0  0  0  0  0  0  0  0
  -23.5057  -27.6139   23.3068 C   0  0  0  0  0  0  0  0  0  0  0  0
  -24.8151  -27.1305   20.6998 C   0  0  0  0  0  0  0  0  0  0  0  0
  -19.9255  -32.1524   22.4267 C   0  0  0  0  0  0  0  0  0  0  0  0
  -29.7246  -15.9445   22.2658 C   0  0  0  0  0  0  0  0  0  0  0  0
  -20.1285  -31.2392   21.2219 C   0  0  0  0  0  0  0  0  0  0  0  0
  -29.8253  -17.4168   21.8633 C   0  0  0  0  0  0  0  0  0  0  0  0
  -29.0737  -15.1032   21.1701 C   0  0  0  0  0  0  0  0  0  0  0  0
  -27.8633  -17.0680   20.3052 C   0  0  0  0  0  0  0  0  0  0  0  0
  -20.1437  -29.7649   21.6435 C   0  0  1  0  0  0  0  0  0  0  0  0
  -23.7417  -28.7404   22.3055 C   0  0  1  0  0  0  0  0  0  0  0  0
  -28.4623  -17.9662   21.4009 C   0  0  2  0  0  0  0  0  0  0  0  0
  -18.5173  -20.4509   19.2994 C   0  0  0  0  0  0  0  0  0  0  0  0
  -18.0563  -16.2358   20.1345 C   0  0  0  0  0  0  0  0  0  0  0  0
  -22.8138  -16.8166   22.4224 C   0  0  0  0  0  0  0  0  0  0  0  0
  -31.1778  -28.6614   20.1375 C   0  0  0  0  0  0  0  0  0  0  0  0
  -25.0457  -30.0913   18.0824 C   0  0  0  0  0  0  0  0  0  0  0  0
  -27.4641  -29.7418   17.5370 C   0  0  0  0  0  0  0  0  0  0  0  0
  -26.7903  -31.5697   19.0950 C   0  0  0  0  0  0  0  0  0  0  0  0
  -21.7060  -14.8268   20.1647 C   0  0  0  0  0  0  0  0  0  0  0  0
  -23.1760  -16.0383   18.5550 C   0  0  0  0  0  0  0  0  0  0  0  0
  -29.6474  -26.7859   23.0729 C   0  0  0  0  0  0  0  0  0  0  0  0
  -23.4396  -19.7474   19.8646 C   0  0  0  0  0  0  0  0  0  0  0  0
  -18.0927  -17.7464   20.3449 C   0  0  0  0  0  0  0  0  0  0  0  0
  -24.0563  -20.1662   21.2010 C   0  0  0  0  0  0  0  0  0  0  0  0
  -24.1667  -14.8350   20.5265 C   0  0  0  0  0  0  0  0  0  0  0  0
  -23.3414  -21.3440   21.8532 C   0  0  0  0  0  0  0  0  0  1  0  0
  -22.8304  -17.0618   20.8891 C   0  0  1  0  0  0  0  0  0  0  0  0
  -26.6605  -29.1675   19.8727 C   0  0  1  0  0  0  0  0  0  0  0  0
  -30.1216  -28.3543   21.1877 C   0  0  2  0  0  0  0  0  0  0  0  0
  -26.4751  -30.1221   18.6594 C   0  0  0  0  0  0  0  0  0  0  0  0
  -22.9692  -15.7090   20.0534 C   0  0  0  0  0  0  0  0  0  0  0  0
  -28.7898  -19.6845   19.6623 N   0  0  0  0  0  0  0  0  0  0  0  0
  -20.4764  -17.4862   20.5855 N   0  0  0  0  0  0  0  0  0  0  0  0
  -28.5633  -19.4145   20.9592 N   0  0  0  0  0  0  0  0  0  0  0  0
  -24.8245  -28.4435   21.3656 N   0  0  0  0  0  0  0  0  0  0  0  0
  -27.7841  -15.6770   20.7780 N   0  0  0  0  0  0  0  0  0  0  0  0
  -28.2195  -20.4350   23.0690 N   0  0  0  0  0  0  0  0  0  0  0  0
  -27.3376  -23.6442   21.2479 N   0  0  0  0  0  0  0  0  0  0  0  0
  -21.4201  -29.4208   22.2324 N   0  0  0  0  0  0  0  0  0  0  0  0
  -27.9972  -29.1961   20.4566 N   0  0  0  0  0  0  0  0  0  0  0  0
  -25.4432  -15.5128   20.4833 N   0  0  0  0  0  0  0  0  0  0  0  0
  -30.5806  -27.1836   21.9875 N   0  3  0  0  0  0  0  0  0  0  0  0
  -29.6002  -23.6098   21.6192 O   0  0  0  0  0  0  0  0  0  0  0  0
  -22.5778  -28.9665   20.2636 O   0  0  0  0  0  0  0  0  0  0  0  0
  -25.7343  -30.5836   21.5350 O   0  0  0  0  0  0  0  0  0  0  0  0
  -28.4499  -26.9405   20.1660 O   0  0  0  0  0  0  0  0  0  0  0  0
  -26.6390  -13.7209   21.2684 O   0  0  0  0  0  0  0  0  0  0  0  0
  -29.6908  -23.6953   14.7994 O   0  0  0  0  0  0  0  0  0  0  0  0
  -23.3878  -22.4580   20.9626 O   0  0  0  0  0  0  0  0  0  1  0  0
  -29.1625  -20.8013   10.1358 F   0  0  0  0  0  0  0  0  0  0  0  0
  -27.8318  -24.4175   12.8850 F   0  0  0  0  0  0  0  0  0  0  0  0
  1  2  1  0  0  0  0
  1  5  2  0  0  0  0
  2  6  2  0  0  0  0
  3  8  2  0  0  0  0
  3 16  1  0  0  0  0
  4  9  1  0  0  0  0
  4 16  2  0  0  0  0
  5 18  1  0  0  0  0
  6 20  1  0  0  0  0
  7 10  2  0  0  0  0
  7 19  1  0  0  0  0
  8 24  1  0  0  0  0
  9 24  2  0  0  0  0
 10 25  1  0  0  0  0
 11 12  2  0  0  0  0
 11 26  1  0  0  0  0
 12 27  1  0  0  0  0
 13 21  1  0  0  0  0
 13 25  2  0  0  0  0
 14 22  1  0  0  0  0
 14 23  2  0  0  0  0
 15 27  2  0  0  0  0
 15 28  1  0  0  0  0
 16 29  1  0  0  0  0
 17 29  1  0  0  0  0
 17 32  2  0  0  0  0
 17 33  1  0  0  0  0
 18 20  2  0  0  0  0
 18 38  1  0  0  0  0
 19 21  2  0  0  0  0
 19 39  1  0  0  0  0
 20 47  1  0  0  0  0
 21 40  1  0  0  0  0
 22 30  2  0  0  0  0
 22 50  1  0  0  0  0
 23 31  1  0  0  0  0
 23 60  1  0  0  0  0
 24 86  1  0  0  0  0
 25 87  1  0  0  0  0
 26 28  2  0  0  0  0
 26 86  1  0  0  0  0
 27 88  1  0  0  0  0
 28 89  1  0  0  0  0
 29 70  2  0  0  0  0
 30 61  1  0  0  0  0
 30 71  1  0  0  0  0
 31 65  1  0  0  0  0
 31 71  2  0  0  0  0
 32 72  1  0  0  0  0
 32 75  1  0  0  0  0
 33 76  1  0  0  0  0
 33 81  2  0  0  0  0
 34 48  1  0  0  0  0
 34 77  1  0  0  0  0
 34 82  2  0  0  0  0
 35 66  1  0  0  0  0
 35 73  1  0  0  0  0
 35 83  2  0  0  0  0
 36 67  1  0  0  0  0
 36 78  1  0  0  0  0
 36 84  2  0  0  0  0
 37 74  1  0  0  0  0
 37 79  1  0  0  0  0
 37 85  2  0  0  0  0
 38 41  1  0  0  0  0
 39 48  1  0  0  0  0
 40 73  1  0  0  0  0
 41 43  1  0  0  0  0
 42 44  1  0  0  0  0
 42 45  1  0  0  0  0
 43 47  1  0  0  0  0
 44 49  1  0  0  0  0
 45 74  1  0  0  0  0
 46 49  1  0  0  0  0
 46 74  1  0  0  0  0
 47 77  1  0  0  0  0
 48 73  1  0  0  0  0
 49 72  1  0  0  0  0
 51 61  1  0  0  0  0
 52 65  1  0  0  0  0
 53 67  1  0  0  0  0
 54 68  1  0  0  0  0
 55 68  1  0  0  0  0
 56 68  1  0  0  0  0
 57 69  1  0  0  0  0
 58 69  1  0  0  0  0
 59 80  1  0  0  0  0
 60 62  1  0  0  0  0
 62 64  1  0  0  0  0
 63 69  1  0  0  0  0
 63 79  1  0  0  0  0
 64 87  1  0  0  0  0
 65 69  1  0  0  0  0
 66 68  1  0  0  0  0
 66 78  1  0  0  0  0
 67 80  1  0  0  0  0
 70 72  1  0  0  0  0
M  CHG  1  80   1
M  ISO  4  37 100  64 101  79 100  87 101
M  END
> <Batch ID>
0086

> <Smiles>
CCc1nc(C(C)C(C)(C)C[100NH:0][100C:0](=O)N2CCCC(n3nc(-c4ccc(Oc5ccc(F)cc5F)cc4)c(C(N)=O)c3N)C2)c(CC[101CH2:1][101O:1]c2ccc3c(c2)CN(C(=O)C(NC(=O)C(C)NC)C(C)(C)C)C(C(=O)NC2CCCc4ccccc42)C3)cc1C

> <Shape>
0.205

> <Color>
0.076

> <Negative vol penalty>
0.000

$$$$

  -OEChem-04052318593D

 80 87  0     1  0  0  0  0  0999 V2000
  -14.4401  -26.2326   23.7160 C   0  0  0  0  0  0  0  0  0  0  0  0
  -15.4067  -25.2509   23.5222 C   0  0  0  0  0  0  0  0  0  0  0  0
  -30.5332  -23.2003   20.0076 C   0  0  0  0  0  0  0  0  0  0  0  0
  -28.9842  -22.9458   18.1711 C   0  0  0  0  0  0  0  0  0  0  0  0
  -14.6957  -27.5472   23.3281 C   0  0  0  0  0  0  0  0  0  0  0  0
  -16.6291  -25.5831   22.9392 C   0  0  0  0  0  0  0  0  0  0  0  0
  -20.5646  -23.5224   25.3702 C   0  0  0  0  0  0  0  0  0  0  0  0
  -31.1685  -24.2395   19.3278 C   0  0  0  0  0  0  0  0  0  0  0  0
  -29.6195  -23.9850   17.4913 C   0  0  0  0  0  0  0  0  0  0  0  0
  -20.8254  -22.1738   25.1312 C   0  0  0  0  0  0  0  0  0  0  0  0
  -32.9727  -27.1993   18.2327 C   0  0  0  0  0  0  0  0  0  0  0  0
  -33.2900  -28.3490   18.9560 C   0  0  0  0  0  0  0  0  0  0  0  0
  -22.5751  -22.7915   23.5897 C   0  0  0  0  0  0  0  0  0  0  0  0
  -30.9503  -28.6763   19.4618 C   0  0  0  0  0  0  0  0  0  0  0  0
  -29.4411  -22.5534   19.4292 C   0  0  0  0  0  0  0  0  0  0  0  0
  -27.7045  -21.5846   21.0271 C   0  0  0  0  0  0  0  0  0  0  0  0
  -15.9255  -27.8975   22.7489 C   0  0  0  0  0  0  0  0  0  0  0  0
  -21.3011  -24.5174   24.7113 C   0  0  0  0  0  0  0  0  0  0  0  0
  -16.9008  -26.9034   22.5419 C   0  0  0  0  0  0  0  0  0  0  0  0
  -22.3234  -24.1519   23.8240 C   0  0  0  0  0  0  0  0  0  0  0  0
  -30.7116  -24.6319   18.0697 C   0  0  0  0  0  0  0  0  0  0  0  0
  -21.8288  -21.8082   24.2387 C   0  0  0  0  0  0  0  0  0  0  0  0
  -31.6443  -26.7881   18.1239 C   0  0  0  0  0  0  0  0  0  0  0  0
  -32.2787  -29.0875   19.5706 C   0  0  0  0  0  0  0  0  0  0  0  0
  -30.6331  -27.5266   18.7385 C   0  0  0  0  0  0  0  0  0  0  0  0
  -28.7849  -21.4795   20.1307 C   0  0  0  0  0  0  0  0  0  0  0  0
  -27.4542  -20.2915   21.4164 C   0  0  0  0  0  0  0  0  0  0  0  0
  -26.9909  -22.7473   21.4684 C   0  0  0  0  0  0  0  0  0  0  0  0
  -20.5929  -26.8593   22.6821 C   0  0  0  0  0  0  0  0  0  0  0  0
  -23.7121  -27.6425   23.1056 C   0  0  0  0  0  0  0  0  0  0  0  0
  -26.8606  -26.6406   23.9601 C   0  0  0  0  0  0  0  0  0  0  0  0
  -26.8075  -14.8826   20.2036 C   0  0  0  0  0  0  0  0  0  0  0  0
  -16.1379  -29.3224   22.3024 C   0  0  0  0  0  0  0  0  0  0  0  0
  -21.0255  -25.9675   25.0002 C   0  0  0  0  0  0  0  0  0  0  0  0
  -23.1563  -25.1815   23.1065 C   0  0  0  0  0  0  0  0  0  0  0  0
  -17.6012  -29.6651   22.0347 C   0  0  0  0  0  0  0  0  0  0  0  0
  -30.1310  -16.0602   20.6973 C   0  0  0  0  0  0  0  0  0  0  0  0
  -18.2606  -28.5736   21.1976 C   0  0  0  0  0  0  0  0  0  0  0  0
  -29.9887  -17.5828   20.6616 C   0  0  0  0  0  0  0  0  0  0  0  0
  -29.1833  -15.3814   19.7108 C   0  0  0  0  0  0  0  0  0  0  0  0
  -27.6235  -17.2866   19.8149 C   0  0  0  0  0  0  0  0  0  0  0  0
  -18.2484  -27.2294   21.9355 C   0  0  1  0  0  0  0  0  0  0  0  0
  -21.4923  -26.8982   23.8851 C   0  0  1  0  0  0  0  0  0  0  0  0
  -28.5193  -18.0128   20.8330 C   0  0  2  0  0  0  0  0  0  0  0  0
  -29.2099  -27.4963   24.1746 C   0  0  0  0  0  0  0  0  0  0  0  0
  -24.0121  -27.5726   20.0699 C   0  0  0  0  0  0  0  0  0  0  0  0
  -26.4941  -27.4846   20.3870 C   0  0  0  0  0  0  0  0  0  0  0  0
  -25.2049  -29.4623   21.1929 C   0  0  0  0  0  0  0  0  0  0  0  0
  -22.9638  -13.3559   22.3682 C   0  0  0  0  0  0  0  0  0  0  0  0
  -25.4053  -13.5943   22.8137 C   0  0  0  0  0  0  0  0  0  0  0  0
  -26.9432  -26.0274   26.8543 C   0  0  0  0  0  0  0  0  0  0  0  0
  -22.4890  -17.6181   23.5485 C   0  0  0  0  0  0  0  0  0  0  0  0
  -22.6640  -16.3948   22.6426 C   0  0  0  0  0  0  0  0  0  0  0  0
  -21.2055  -18.3820   23.2089 C   0  0  0  0  0  0  0  0  0  0  0  0
  -23.9316  -15.6140   23.0112 C   0  0  0  0  0  0  0  0  0  0  0  0
  -24.3998  -14.5438   20.7012 C   0  0  0  0  0  0  0  0  0  0  0  0
  -20.9924  -19.5851   24.1196 C   0  0  0  0  0  0  0  0  0  1  0  0
  -25.0097  -27.2669   22.4316 C   0  0  1  0  0  0  0  0  0  0  0  0
  -27.8926  -27.2483   24.8929 C   0  0  2  0  0  0  0  0  0  0  0  0
  -25.1634  -27.9270   21.0322 C   0  0  0  0  0  0  0  0  0  0  0  0
  -24.1717  -14.3019   22.2120 C   0  0  0  0  0  0  0  0  0  0  0  0
  -29.1929  -20.2191   19.9606 N   0  0  0  0  0  0  0  0  0  0  0  0
  -28.3646  -19.5204   20.7555 N   0  0  0  0  0  0  0  0  0  0  0  0
  -22.8444  -26.5863   23.4176 N   0  0  0  0  0  0  0  0  0  0  0  0
  -27.8061  -15.8310   19.9276 N   0  0  0  0  0  0  0  0  0  0  0  0
  -26.5464  -19.7501   22.2561 N   0  0  0  0  0  0  0  0  0  0  0  0
  -27.3783  -23.9984   20.9692 N   0  0  0  0  0  0  0  0  0  0  0  0
  -19.2807  -27.2000   22.9494 N   0  0  0  0  0  0  0  0  0  0  0  0
  -26.0716  -27.6068   23.3724 N   0  0  0  0  0  0  0  0  0  0  0  0
  -25.5308  -15.3938   20.4024 N   0  0  0  0  0  0  0  0  0  0  0  0
  -28.1494  -26.3381   26.0447 N   0  3  0  0  0  0  0  0  0  0  0  0
  -26.0487  -22.6806   22.2938 O   0  0  0  0  0  0  0  0  0  0  0  0
  -21.0555  -26.5449   21.5918 O   0  0  0  0  0  0  0  0  0  0  0  0
  -23.4802  -28.8286   23.3527 O   0  0  0  0  0  0  0  0  0  0  0  0
  -26.7664  -25.4302   23.7688 O   0  0  0  0  0  0  0  0  0  0  0  0
  -27.0376  -13.6705   20.2732 O   0  0  0  0  0  0  0  0  0  0  0  0
  -31.3311  -25.6460   17.4061 O   0  0  0  0  0  0  0  0  0  0  0  0
  -22.0868  -20.4827   24.0014 O   0  0  0  0  0  0  0  0  0  1  0  0
  -32.5837  -30.1907   20.2664 F   0  0  0  0  0  0  0  0  0  0  0  0
  -29.3551  -27.1359   18.6385 F   0  0  0  0  0  0  0  0  0  0  0  0
  1  2  1  0  0  0  0
  1  5  2  0  0  0  0
  2  6  2  0  0  0  0
  3  8  2  0  0  0  0
  3 15  1  0  0  0  0
  4  9  1  0  0  0  0
  4 15  2  0  0  0  0
  5 17  1  0  0  0  0
  6 19  1  0  0  0  0
  7 10  2  0  0  0  0
  7 18  1  0  0  0  0
  8 21  1  0  0  0  0
  9 21  2  0  0  0  0
 10 22  1  0  0  0  0
 11 12  2  0  0  0  0
 11 23  1  0  0  0  0
 12 24  1  0  0  0  0
 13 20  1  0  0  0  0
 13 22  2  0  0  0  0
 14 24  2  0  0  0  0
 14 25  1  0  0  0  0
 15 26  1  0  0  0  0
 16 26  1  0  0  0  0
 16 27  2  0  0  0  0
 16 28  1  0  0  0  0
 17 19  2  0  0  0  0
 17 33  1  0  0  0  0
 18 20  2  0  0  0  0
 18 34  1  0  0  0  0
 19 42  1  0  0  0  0
 20 35  1  0  0  0  0
 21 77  1  0  0  0  0
 22 78  1  0  0  0  0
 23 25  2  0  0  0  0
 23 77  1  0  0  0  0
 24 79  1  0  0  0  0
 25 80  1  0  0  0  0
 26 62  2  0  0  0  0
 27 63  1  0  0  0  0
 27 66  1  0  0  0  0
 28 67  1  0  0  0  0
 28 72  2  0  0  0  0
 29 43  1  0  0  0  0
 29 68  1  0  0  0  0
 29 73  2  0  0  0  0
 30 58  1  0  0  0  0
 30 64  1  0  0  0  0
 30 74  2  0  0  0  0
 31 59  1  0  0  0  0
 31 69  1  0  0  0  0
 31 75  2  0  0  0  0
 32 65  1  0  0  0  0
 32 70  1  0  0  0  0
 32 76  2  0  0  0  0
 33 36  1  0  0  0  0
 34 43  1  0  0  0  0
 35 64  1  0  0  0  0
 36 38  1  0  0  0  0
 37 39  1  0  0  0  0
 37 40  1  0  0  0  0
 38 42  1  0  0  0  0
 39 44  1  0  0  0  0
 40 65  1  0  0  0  0
 41 44  1  0  0  0  0
 41 65  1  0  0  0  0
 42 68  1  0  0  0  0
 43 64  1  0  0  0  0
 44 63  1  0  0  0  0
 45 59  1  0  0  0  0
 46 60  1  0  0  0  0
 47 60  1  0  0  0  0
 48 60  1  0  0  0  0
 49 61  1  0  0  0  0
 50 61  1  0  0  0  0
 51 71  1  0  0  0  0
 52 53  1  0  0  0  0
 52 54  1  0  0  0  0
 53 55  1  0  0  0  0
 54 57  1  0  0  0  0
 55 61  1  0  0  0  0
 56 61  1  0  0  0  0
 56 70  1  0  0  0  0
 57 78  1  0  0  0  0
 58 60  1  0  0  0  0
 58 69  1  0  0  0  0
 59 71  1  0  0  0  0
 62 63  1  0  0  0  0
M  CHG  1  71   1
M  ISO  4  32 100  57 101  70 100  78 101
M  END
> <Batch ID>
0086

> <Smiles>
CNC(C)C(=O)NC(C(=O)N1Cc2cc([101O:1][101CH2:1]CCCCC(C)(C)C[100NH:0][100C:0](=O)N3CCCC(n4nc(-c5ccc(Oc6ccc(F)cc6F)cc5)c(C(N)=O)c4N)C3)ccc2CC1C(=O)NC1CCCc2ccccc21)C(C)(C)C

> <Shape>
0.208

> <Color>
0.056

> <Negative vol penalty>
0.000

$$$$

  -OEChem-04052318593D

 91 99  0     1  0  0  0  0  0999 V2000
  -34.9745  -35.0639   26.3445 C   0  0  0  0  0  0  0  0  0  0  0  0
  -35.3686  -33.7354   26.4677 C   0  0  0  0  0  0  0  0  0  0  0  0
  -23.0471   -9.9570   19.9537 C   0  0  0  0  0  0  0  0  0  0  0  0
  -23.8469   -9.9101   22.2330 C   0  0  0  0  0  0  0  0  0  0  0  0
  -33.6342  -35.4104   26.5106 C   0  0  0  0  0  0  0  0  0  0  0  0
  -34.4229  -32.7527   26.7580 C   0  0  0  0  0  0  0  0  0  0  0  0
  -32.9543  -25.8617   25.4644 C   0  0  0  0  0  0  0  0  0  0  0  0
  -22.2953   -8.8069   20.1938 C   0  0  0  0  0  0  0  0  0  0  0  0
  -23.0950   -8.7601   22.4731 C   0  0  0  0  0  0  0  0  0  0  0  0
  -32.6509  -24.6800   26.1391 C   0  0  0  0  0  0  0  0  0  0  0  0
  -19.8694   -7.9842   23.1166 C   0  0  0  0  0  0  0  0  0  0  0  0
  -19.1326   -7.9287   24.2996 C   0  0  0  0  0  0  0  0  0  0  0  0
  -30.3514  -25.3846   26.3267 C   0  0  0  0  0  0  0  0  0  0  0  0
  -27.4295  -20.7199   23.1035 C   0  0  0  0  0  0  0  0  0  0  0  0
  -20.3656   -5.9641   24.9755 C   0  0  0  0  0  0  0  0  0  0  0  0
  -28.5009  -18.7458   23.2615 C   0  0  0  0  0  0  0  0  0  0  0  0
  -23.8230  -10.5086   20.9732 C   0  0  0  0  0  0  0  0  0  0  0  0
  -24.1899  -13.0319   20.8973 C   0  0  0  0  0  0  0  0  0  0  0  0
  -32.6700  -34.4302   26.7936 C   0  0  0  0  0  0  0  0  0  0  0  0
  -31.9592  -26.8202   25.2249 C   0  0  0  0  0  0  0  0  0  0  0  0
  -33.0687  -33.0867   26.9294 C   0  0  0  0  0  0  0  0  0  0  0  0
  -30.6442  -26.5765   25.6464 C   0  0  0  0  0  0  0  0  0  0  0  0
  -27.8370  -19.7008   23.9994 C   0  0  0  0  0  0  0  0  0  0  0  0
  -22.3192   -8.2084   21.4535 C   0  0  0  0  0  0  0  0  0  0  0  0
  -31.3499  -24.4426   26.5730 C   0  0  0  0  0  0  0  0  0  0  0  0
  -20.8543   -7.0295   22.8629 C   0  0  0  0  0  0  0  0  0  0  0  0
  -19.3807   -6.9187   25.2291 C   0  0  0  0  0  0  0  0  0  0  0  0
  -21.1024   -6.0195   23.7924 C   0  0  0  0  0  0  0  0  0  0  0  0
  -24.6003  -11.6963   20.7256 C   0  0  0  0  0  0  0  0  0  0  0  0
  -27.8567  -20.3565   21.8454 C   0  0  0  0  0  0  0  0  0  0  0  0
  -25.2836  -13.7770   20.5297 C   0  0  0  0  0  0  0  0  0  0  0  0
  -22.9326  -13.5525   21.3486 C   0  0  0  0  0  0  0  0  0  0  0  0
  -31.5061  -29.8465   26.0852 C   0  0  0  0  0  0  0  0  0  0  0  0
  -28.9764  -29.6341   24.0659 C   0  0  0  0  0  0  0  0  0  0  0  0
  -26.6876  -27.6551   22.4874 C   0  0  0  0  0  0  0  0  0  0  0  0
  -30.7805  -14.7347   20.6415 C   0  0  0  0  0  0  0  0  0  0  0  0
  -31.2407  -34.8594   27.0113 C   0  0  0  0  0  0  0  0  0  0  0  0
  -32.2970  -28.0778   24.4721 C   0  0  0  0  0  0  0  0  0  0  0  0
  -29.5353  -27.5645   25.3962 C   0  0  0  0  0  0  0  0  0  0  0  0
  -30.2420  -33.7067   26.9470 C   0  0  0  0  0  0  0  0  0  0  0  0
  -29.5758  -12.4104   18.2284 C   0  0  0  0  0  0  0  0  0  0  0  0
  -30.7401  -32.5223   27.7691 C   0  0  0  0  0  0  0  0  0  0  0  0
  -28.1430  -12.1232   18.6807 C   0  0  0  0  0  0  0  0  0  0  0  0
  -30.5161  -12.5976   19.4171 C   0  0  0  0  0  0  0  0  0  0  0  0
  -28.6468  -13.3206   20.8512 C   0  0  0  0  0  0  0  0  0  0  0  0
  -32.0684  -31.9887   27.2191 C   0  0  1  0  0  0  0  0  0  0  0  0
  -31.3140  -29.2144   24.7357 C   0  0  1  0  0  0  0  0  0  0  0  0
  -27.6504  -13.1798   19.6877 C   0  0  2  0  0  0  0  0  0  0  0  0
  -26.7000  -18.4723   25.8666 C   0  0  0  0  0  0  0  0  0  0  0  0
  -24.7228  -27.7721   20.9306 C   0  0  0  0  0  0  0  0  0  0  0  0
  -26.9202  -22.4023   20.7126 C   0  0  0  0  0  0  0  0  0  0  0  0
  -26.9071  -20.1866   19.5181 C   0  0  0  0  0  0  0  0  0  0  0  0
  -29.0318  -21.4428   19.8169 C   0  0  0  0  0  0  0  0  0  0  0  0
  -27.2243  -30.6319   26.3560 C   0  0  0  0  0  0  0  0  0  0  0  0
  -25.2233  -29.8334   25.0806 C   0  0  0  0  0  0  0  0  0  0  0  0
  -26.6814  -31.6160   24.1219 C   0  0  0  0  0  0  0  0  0  0  0  0
  -31.4220  -19.2749   21.5483 C   0  0  0  0  0  0  0  0  0  0  0  0
  -31.1661  -17.7729   19.5806 C   0  0  0  0  0  0  0  0  0  0  0  0
  -28.0579  -26.0056   20.4476 C   0  0  0  0  0  0  0  0  0  0  0  0
  -29.7415  -20.9052   26.1413 C   0  0  0  0  0  0  0  0  0  0  0  0
  -30.9730  -20.8807   27.0529 C   0  0  0  0  0  0  0  0  0  0  0  0
  -28.8895  -19.6434   26.3282 C   0  0  0  0  0  0  0  0  0  0  0  0
  -29.1116  -18.4176   20.8659 C   0  0  0  0  0  0  0  0  0  0  0  0
  -30.8911  -16.8593   21.9194 C   0  0  0  0  0  0  0  0  0  0  0  0
  -31.8241  -22.1361   26.9059 C   0  0  0  0  0  0  0  0  0  1  0  0
  -27.5886  -19.6666   25.4975 C   0  0  1  0  0  0  0  0  0  0  0  0
  -27.5272  -29.2349   24.2059 C   0  0  1  0  0  0  0  0  0  0  0  0
  -26.2299  -27.6010   21.0410 C   0  0  2  0  0  0  0  0  0  0  0  0
  -27.6993  -21.0542   20.5525 C   0  0  0  0  0  0  0  0  0  0  0  0
  -26.6851  -30.3111   24.9477 C   0  0  0  0  0  0  0  0  0  0  0  0
  -30.6263  -18.0737   20.9978 C   0  0  0  0  0  0  0  0  0  0  0  0
  -25.8565  -11.5956   20.2833 N   0  0  0  0  0  0  0  0  0  0  0  0
  -28.5065  -19.1547   21.9535 N   0  0  0  0  0  0  0  0  0  0  0  0
  -26.2450  -12.8775   20.1738 N   0  0  0  0  0  0  0  0  0  0  0  0
  -29.9170  -28.7819   24.6617 N   0  0  0  0  0  0  0  0  0  0  0  0
  -29.9922  -13.6139   20.3328 N   0  0  0  0  0  0  0  0  0  0  0  0
  -25.5071  -15.1074   20.4794 N   0  0  0  0  0  0  0  0  0  0  0  0
  -21.9169  -12.6474   21.6856 N   0  0  0  0  0  0  0  0  0  0  0  0
  -31.8399  -31.1865   26.0364 N   0  0  0  0  0  0  0  0  0  0  0  0
  -27.0556  -28.9308   22.8593 N   0  0  0  0  0  0  0  0  0  0  0  0
  -30.2062  -15.6527   21.5122 N   0  0  0  0  0  0  0  0  0  0  0  0
  -26.6006  -26.2937   20.4289 N   0  3  0  0  0  0  0  0  0  0  0  0
  -22.7107  -14.7841   21.4345 O   0  0  0  0  0  0  0  0  0  0  0  0
  -31.3607  -29.1690   27.0960 O   0  0  0  0  0  0  0  0  0  0  0  0
  -29.2637  -30.6602   23.4444 O   0  0  0  0  0  0  0  0  0  0  0  0
  -26.7123  -26.6653   23.2156 O   0  0  0  0  0  0  0  0  0  0  0  0
  -31.9102  -14.9073   20.1715 O   0  0  0  0  0  0  0  0  0  0  0  0
  -21.5855   -7.0863   21.6883 O   0  0  0  0  0  0  0  0  0  0  0  0
  -31.0512  -23.2903   27.2324 O   0  0  0  0  0  0  0  0  0  1  0  0
  -18.6741   -6.8665   26.3658 F   0  0  0  0  0  0  0  0  0  0  0  0
  -22.0481   -5.1003   23.5549 F   0  0  0  0  0  0  0  0  0  0  0  0
  1  2  1  0  0  0  0
  1  5  2  0  0  0  0
  2  6  2  0  0  0  0
  3  8  2  0  0  0  0
  3 17  1  0  0  0  0
  4  9  1  0  0  0  0
  4 17  2  0  0  0  0
  5 19  1  0  0  0  0
  6 21  1  0  0  0  0
  7 10  2  0  0  0  0
  7 20  1  0  0  0  0
  8 24  1  0  0  0  0
  9 24  2  0  0  0  0
 10 25  1  0  0  0  0
 11 12  2  0  0  0  0
 11 26  1  0  0  0  0
 12 27  1  0  0  0  0
 13 22  1  0  0  0  0
 13 25  2  0  0  0  0
 14 23  1  0  0  0  0
 14 30  2  0  0  0  0
 15 27  2  0  0  0  0
 15 28  1  0  0  0  0
 16 23  2  0  0  0  0
 16 73  1  0  0  0  0
 17 29  1  0  0  0  0
 18 29  1  0  0  0  0
 18 31  2  0  0  0  0
 18 32  1  0  0  0  0
 19 21  2  0  0  0  0
 19 37  1  0  0  0  0
 20 22  2  0  0  0  0
 20 38  1  0  0  0  0
 21 46  1  0  0  0  0
 22 39  1  0  0  0  0
 23 66  1  0  0  0  0
 24 88  1  0  0  0  0
 25 89  1  0  0  0  0
 26 28  2  0  0  0  0
 26 88  1  0  0  0  0
 27 90  1  0  0  0  0
 28 91  1  0  0  0  0
 29 72  2  0  0  0  0
 30 69  1  0  0  0  0
 30 73  1  0  0  0  0
 31 74  1  0  0  0  0
 31 77  1  0  0  0  0
 32 78  1  0  0  0  0
 32 83  2  0  0  0  0
 33 47  1  0  0  0  0
 33 79  1  0  0  0  0
 33 84  2  0  0  0  0
 34 67  1  0  0  0  0
 34 75  1  0  0  0  0
 34 85  2  0  0  0  0
 35 68  1  0  0  0  0
 35 80  1  0  0  0  0
 35 86  2  0  0  0  0
 36 76  1  0  0  0  0
 36 81  1  0  0  0  0
 36 87  2  0  0  0  0
 37 40  1  0  0  0  0
 38 47  1  0  0  0  0
 39 75  1  0  0  0  0
 40 42  1  0  0  0  0
 41 43  1  0  0  0  0
 41 44  1  0  0  0  0
 42 46  1  0  0  0  0
 43 48  1  0  0  0  0
 44 76  1  0  0  0  0
 45 48  1  0  0  0  0
 45 76  1  0  0  0  0
 46 79  1  0  0  0  0
 47 75  1  0  0  0  0
 48 74  1  0  0  0  0
 49 66  1  0  0  0  0
 50 68  1  0  0  0  0
 51 69  1  0  0  0  0
 52 69  1  0  0  0  0
 53 69  1  0  0  0  0
 54 70  1  0  0  0  0
 55 70  1  0  0  0  0
 56 70  1  0  0  0  0
 57 71  1  0  0  0  0
 58 71  1  0  0  0  0
 59 82  1  0  0  0  0
 60 61  1  0  0  0  0
 60 62  1  0  0  0  0
 61 65  1  0  0  0  0
 62 66  1  0  0  0  0
 63 71  1  0  0  0  0
 63 73  1  0  0  0  0
 64 71  1  0  0  0  0
 64 81  1  0  0  0  0
 65 89  1  0  0  0  0
 67 70  1  0  0  0  0
 67 80  1  0  0  0  0
 68 82  1  0  0  0  0
 72 74  1  0  0  0  0
M  CHG  1  82   1
M  ISO  4  36 100  65 101  81 100  89 101
M  END
> <Batch ID>
0086

> <Smiles>
CNC(C)C(=O)NC(C(=O)N1Cc2cc([101O:1][101CH2:1]CCCC(C)c3cc(C(C)(C)C)n(CC(C)(C)C[100NH:0][100C:0](=O)N4CCCC(n5nc(-c6ccc(Oc7ccc(F)cc7F)cc6)c(C(N)=O)c5N)C4)c3)ccc2CC1C(=O)NC1CCCc2ccccc21)C(C)(C)C

> <Shape>
0.253

> <Color>
0.194

> <Negative vol penalty>
0.000

$$$$

  -OEChem-04052318593D

 88 96  0     1  0  0  0  0  0999 V2000
  -16.8979  -28.9198   24.3316 C   0  0  0  0  0  0  0  0  0  0  0  0
  -17.3761  -28.0723   23.3374 C   0  0  0  0  0  0  0  0  0  0  0  0
  -25.9723  -13.0288   21.6344 C   0  0  0  0  0  0  0  0  0  0  0  0
  -26.1841  -12.2824   19.3464 C   0  0  0  0  0  0  0  0  0  0  0  0
  -17.4977  -30.1619   24.5351 C   0  0  0  0  0  0  0  0  0  0  0  0
  -18.4537  -28.4669   22.5453 C   0  0  0  0  0  0  0  0  0  0  0  0
  -22.8573  -24.8731   20.2650 C   0  0  0  0  0  0  0  0  0  0  0  0
  -24.8396  -12.2300   21.7902 C   0  0  0  0  0  0  0  0  0  0  0  0
  -25.0514  -11.4834   19.5022 C   0  0  0  0  0  0  0  0  0  0  0  0
  -23.0375  -24.2912   19.0110 C   0  0  0  0  0  0  0  0  0  0  0  0
  -21.6959  -11.8966   19.5289 C   0  0  0  0  0  0  0  0  0  0  0  0
  -20.7415  -11.9200   18.5120 C   0  0  0  0  0  0  0  0  0  0  0  0
  -24.4584  -26.1316   18.3679 C   0  0  0  0  0  0  0  0  0  0  0  0
  -26.3998  -16.5934   16.0337 C   0  0  0  0  0  0  0  0  0  0  0  0
  -21.0495   -9.5485   18.1683 C   0  0  0  0  0  0  0  0  0  0  0  0
  -26.6446  -13.0551   20.4124 C   0  0  0  0  0  0  0  0  0  0  0  0
  -29.1523  -13.5159   20.4933 C   0  0  0  0  0  0  0  0  0  0  0  0
  -18.5894  -30.5679   23.7515 C   0  0  0  0  0  0  0  0  0  0  0  0
  -23.4685  -26.0961   20.5767 C   0  0  0  0  0  0  0  0  0  0  0  0
  -19.0678  -29.7161   22.7376 C   0  0  0  0  0  0  0  0  0  0  0  0
  -24.2864  -26.7256   19.6276 C   0  0  0  0  0  0  0  0  0  0  0  0
  -25.0896  -16.5345   16.5695 C   0  0  0  0  0  0  0  0  0  0  0  0
  -24.3791  -11.4573   20.7241 C   0  0  0  0  0  0  0  0  0  0  0  0
  -23.8358  -24.9219   18.0612 C   0  0  0  0  0  0  0  0  0  0  0  0
  -22.3272  -10.6992   19.8655 C   0  0  0  0  0  0  0  0  0  0  0  0
  -20.4183  -10.7460   17.8317 C   0  0  0  0  0  0  0  0  0  0  0  0
  -22.0040   -9.5251   19.1852 C   0  0  0  0  0  0  0  0  0  0  0  0
  -27.8144  -13.8806   20.2507 C   0  0  0  0  0  0  0  0  0  0  0  0
  -26.7648  -17.9207   15.9848 C   0  0  0  0  0  0  0  0  0  0  0  0
  -24.6938  -17.8276   16.8315 C   0  0  0  0  0  0  0  0  0  0  0  0
  -29.8758  -14.6437   20.1914 C   0  0  0  0  0  0  0  0  0  0  0  0
  -29.6929  -12.2691   20.9506 C   0  0  0  0  0  0  0  0  0  0  0  0
  -22.4196  -28.9924   21.3611 C   0  0  0  0  0  0  0  0  0  0  0  0
  -25.5762  -29.5869   21.8133 C   0  0  0  0  0  0  0  0  0  0  0  0
  -28.7032  -19.3233   16.6082 C   0  0  0  0  0  0  0  0  0  0  0  0
  -28.8104  -28.7768   21.0849 C   0  0  0  0  0  0  0  0  0  0  0  0
  -19.1748  -31.9394   23.9771 C   0  0  0  0  0  0  0  0  0  0  0  0
  -23.2857  -26.6974   21.9433 C   0  0  0  0  0  0  0  0  0  0  0  0
  -24.9812  -28.0296   19.9196 C   0  0  0  0  0  0  0  0  0  0  0  0
  -20.5510  -32.1261   23.3436 C   0  0  0  0  0  0  0  0  0  0  0  0
  -29.5325  -19.4072   20.0932 C   0  0  0  0  0  0  0  0  0  0  0  0
  -20.5552  -31.6006   21.9115 C   0  0  0  0  0  0  0  0  0  0  0  0
  -29.2802  -17.9731   20.5569 C   0  0  0  0  0  0  0  0  0  0  0  0
  -28.5328  -19.8317   19.0221 C   0  0  0  0  0  0  0  0  0  0  0  0
  -28.2323  -17.4840   18.3013 C   0  0  0  0  0  0  0  0  0  0  0  0
  -20.2506  -30.0982   21.8743 C   0  0  1  0  0  0  0  0  0  0  0  0
  -23.5407  -28.2012   21.9734 C   0  0  1  0  0  0  0  0  0  0  0  0
  -29.2396  -17.0047   19.3615 C   0  0  2  0  0  0  0  0  0  0  0  0
  -23.4261  -18.3404   17.3936 C   0  0  0  0  0  0  0  0  0  0  0  0
  -31.1726  -29.4660   21.5771 C   0  0  0  0  0  0  0  0  0  0  0  0
  -24.3329  -22.9806   14.2768 C   0  0  0  0  0  0  0  0  0  0  0  0
  -25.0881  -14.0226   16.3795 C   0  0  0  0  0  0  0  0  0  0  0  0
  -22.9638  -15.3146   15.9868 C   0  0  0  0  0  0  0  0  0  0  0  0
  -23.8649  -15.0438   18.2881 C   0  0  0  0  0  0  0  0  0  0  0  0
  -27.7632  -19.5333   14.3430 C   0  0  0  0  0  0  0  0  0  0  0  0
  -29.1392  -17.5644   15.0244 C   0  0  0  0  0  0  0  0  0  0  0  0
  -25.2656  -31.9779   19.9433 C   0  0  0  0  0  0  0  0  0  0  0  0
  -27.7587  -32.0404   19.7224 C   0  0  0  0  0  0  0  0  0  0  0  0
  -26.6964  -32.4021   21.9502 C   0  0  0  0  0  0  0  0  0  0  0  0
  -29.4537  -26.1439   22.2737 C   0  0  0  0  0  0  0  0  0  0  0  0
  -24.8603  -20.8682   15.5203 C   0  0  0  0  0  0  0  0  0  0  0  0
  -25.7029  -20.1651   16.5935 C   0  0  0  0  0  0  0  0  0  0  0  0
  -23.9585  -22.9323   16.7642 C   0  0  0  0  0  0  0  0  0  1  0  0
  -26.7060  -30.0829   20.9435 C   0  0  1  0  0  0  0  0  0  0  0  0
  -30.0195  -28.5586   21.9765 C   0  0  2  0  0  0  0  0  0  0  0  0
  -24.8273  -22.4097   15.6121 C   0  0  2  0  0  0  0  0  0  0  0  0
  -24.3007  -15.3083   16.8018 C   0  0  0  0  0  0  0  0  0  0  0  0
  -28.0211  -18.5401   15.5149 C   0  0  0  0  0  0  0  0  0  0  0  0
  -26.5922  -31.6022   20.6334 C   0  0  0  0  0  0  0  0  0  0  0  0
  -27.6923  -15.1415   19.8274 N   0  0  0  0  0  0  0  0  0  0  0  0
  -25.7200  -18.6618   16.4720 N   0  0  0  0  0  0  0  0  0  0  0  0
  -28.9627  -15.5790   19.8018 N   0  0  0  0  0  0  0  0  0  0  0  0
  -24.7663  -28.5809   21.2678 N   0  0  0  0  0  0  0  0  0  0  0  0
  -28.5079  -18.8746   17.9146 N   0  0  0  0  0  0  0  0  0  0  0  0
  -31.1974  -14.9167   20.2239 N   0  0  0  0  0  0  0  0  0  0  0  0
  -28.8087  -11.2140   21.2137 N   0  0  0  0  0  0  0  0  0  0  0  0
  -21.4211  -29.3357   22.2525 N   0  0  0  0  0  0  0  0  0  0  0  0
  -27.9405  -29.7023   21.6214 N   0  0  0  0  0  0  0  0  0  0  0  0
  -30.4812  -27.1445   21.8862 N   0  3  0  0  0  0  0  0  0  0  0  0
  -30.9220  -12.1010   21.1364 O   0  0  0  0  0  0  0  0  0  0  0  0
  -22.4584  -29.2720   20.1687 O   0  0  0  0  0  0  0  0  0  0  0  0
  -25.4225  -30.0692   22.9382 O   0  0  0  0  0  0  0  0  0  0  0  0
  -29.3911  -20.3025   16.3080 O   0  0  0  0  0  0  0  0  0  0  0  0
  -28.6551  -28.1880   20.0173 O   0  0  0  0  0  0  0  0  0  0  0  0
  -23.2740  -10.6774   20.8759 O   0  0  0  0  0  0  0  0  0  0  0  0
  -24.0129  -24.3564   16.8361 O   0  0  0  0  0  0  0  0  0  1  0  0
  -19.5006  -10.7683   16.8562 F   0  0  0  0  0  0  0  0  0  0  0  0
  -22.6063   -8.3715   19.5049 F   0  0  0  0  0  0  0  0  0  0  0  0
  1  2  1  0  0  0  0
  1  5  2  0  0  0  0
  2  6  2  0  0  0  0
  3  8  2  0  0  0  0
  3 16  1  0  0  0  0
  4  9  1  0  0  0  0
  4 16  2  0  0  0  0
  5 18  1  0  0  0  0
  6 20  1  0  0  0  0
  7 10  2  0  0  0  0
  7 19  1  0  0  0  0
  8 23  1  0  0  0  0
  9 23  2  0  0  0  0
 10 24  1  0  0  0  0
 11 12  2  0  0  0  0
 11 25  1  0  0  0  0
 12 26  1  0  0  0  0
 13 21  1  0  0  0  0
 13 24  2  0  0  0  0
 14 22  1  0  0  0  0
 14 29  2  0  0  0  0
 15 26  2  0  0  0  0
 15 27  1  0  0  0  0
 16 28  1  0  0  0  0
 17 28  1  0  0  0  0
 17 31  2  0  0  0  0
 17 32  1  0  0  0  0
 18 20  2  0  0  0  0
 18 37  1  0  0  0  0
 19 21  2  0  0  0  0
 19 38  1  0  0  0  0
 20 46  1  0  0  0  0
 21 39  1  0  0  0  0
 22 30  2  0  0  0  0
 22 67  1  0  0  0  0
 23 85  1  0  0  0  0
 24 86  1  0  0  0  0
 25 27  2  0  0  0  0
 25 85  1  0  0  0  0
 26 87  1  0  0  0  0
 27 88  1  0  0  0  0
 28 70  2  0  0  0  0
 29 68  1  0  0  0  0
 29 71  1  0  0  0  0
 30 49  1  0  0  0  0
 30 71  1  0  0  0  0
 31 72  1  0  0  0  0
 31 75  1  0  0  0  0
 32 76  1  0  0  0  0
 32 80  2  0  0  0  0
 33 47  1  0  0  0  0
 33 77  1  0  0  0  0
 33 81  2  0  0  0  0
 34 64  1  0  0  0  0
 34 73  1  0  0  0  0
 34 82  2  0  0  0  0
 35 68  1  0  0  0  0
 35 74  1  0  0  0  0
 35 83  2  0  0  0  0
 36 65  1  0  0  0  0
 36 78  1  0  0  0  0
 36 84  2  0  0  0  0
 37 40  1  0  0  0  0
 38 47  1  0  0  0  0
 39 73  1  0  0  0  0
 40 42  1  0  0  0  0
 41 43  1  0  0  0  0
 41 44  1  0  0  0  0
 42 46  1  0  0  0  0
 43 48  1  0  0  0  0
 44 74  1  0  0  0  0
 45 48  1  0  0  0  0
 45 74  1  0  0  0  0
 46 77  1  0  0  0  0
 47 73  1  0  0  0  0
 48 72  1  0  0  0  0
 50 65  1  0  0  0  0
 51 66  1  0  0  0  0
 52 67  1  0  0  0  0
 53 67  1  0  0  0  0
 54 67  1  0  0  0  0
 55 68  1  0  0  0  0
 56 68  1  0  0  0  0
 57 69  1  0  0  0  0
 58 69  1  0  0  0  0
 59 69  1  0  0  0  0
 60 79  1  0  0  0  0
 61 62  1  0  0  0  0
 61 66  1  0  0  0  0
 62 71  1  0  0  0  0
 63 66  1  0  0  0  0
 63 86  1  0  0  0  0
 64 69  1  0  0  0  0
 64 78  1  0  0  0  0
 65 79  1  0  0  0  0
 70 72  1  0  0  0  0
M  CHG  1  79   1
M  ISO  4  35 100  63 101  68 100  86 101
M  END
> <Batch ID>
0086

> <Smiles>
CNC(C)C(=O)NC(C(=O)N1Cc2cc([101O:1][101CH2:1]C(C)CCn3c([100C:0](C)(C)[100C:0](=O)N4CCCC(n5nc(-c6ccc(Oc7ccc(F)cc7F)cc6)c(C(N)=O)c5N)C4)cc(C(C)(C)C)c3C)ccc2CC1C(=O)NC1CCCc2ccccc21)C(C)(C)C

> <Shape>
0.236

> <Color>
0.068

> <Negative vol penalty>
0.000

$$$$

  -OEChem-04052318593D

 86 94  0     1  0  0  0  0  0999 V2000
  -30.3260  -26.9019   17.1389 C   0  0  0  0  0  0  0  0  0  0  0  0
  -29.3635  -26.2665   17.9153 C   0  0  0  0  0  0  0  0  0  0  0  0
  -24.3375  -30.0682   19.8644 C   0  0  0  0  0  0  0  0  0  0  0  0
  -25.3597  -28.7844   21.6375 C   0  0  0  0  0  0  0  0  0  0  0  0
  -31.1428  -26.1512   16.2960 C   0  0  0  0  0  0  0  0  0  0  0  0
  -29.2255  -24.8792   17.8580 C   0  0  0  0  0  0  0  0  0  0  0  0
  -26.1266  -22.8071   21.0684 C   0  0  0  0  0  0  0  0  0  0  0  0
  -25.3484  -31.0231   19.9730 C   0  0  0  0  0  0  0  0  0  0  0  0
  -26.3706  -29.7393   21.7461 C   0  0  0  0  0  0  0  0  0  0  0  0
  -24.7416  -22.9287   20.9650 C   0  0  0  0  0  0  0  0  0  0  0  0
  -26.7682  -32.8008   23.1244 C   0  0  0  0  0  0  0  0  0  0  0  0
  -27.1313  -33.2175   24.4051 C   0  0  0  0  0  0  0  0  0  0  0  0
  -24.6143  -20.6789   20.1040 C   0  0  0  0  0  0  0  0  0  0  0  0
  -19.7180  -21.2205   20.9784 C   0  0  0  0  0  0  0  0  0  0  0  0
  -29.3852  -32.4375   24.0198 C   0  0  0  0  0  0  0  0  0  0  0  0
  -24.3431  -28.9488   20.6967 C   0  0  0  0  0  0  0  0  0  0  0  0
  -23.2924  -26.8203   19.7624 C   0  0  0  0  0  0  0  0  0  0  0  0
  -31.0056  -24.7554   16.2196 C   0  0  0  0  0  0  0  0  0  0  0  0
  -26.7681  -21.6223   20.6795 C   0  0  0  0  0  0  0  0  0  0  0  0
  -30.0564  -24.1016   17.0314 C   0  0  0  0  0  0  0  0  0  0  0  0
  -26.0073  -20.5439   20.2059 C   0  0  0  0  0  0  0  0  0  0  0  0
  -18.3660  -21.5308   20.8833 C   0  0  0  0  0  0  0  0  0  0  0  0
  -17.8045  -21.7935   19.6387 C   0  0  0  0  0  0  0  0  0  0  0  0
  -26.3650  -30.8586   20.9138 C   0  0  0  0  0  0  0  0  0  0  0  0
  -23.9855  -21.8656   20.4800 C   0  0  0  0  0  0  0  0  0  0  0  0
  -27.7136  -32.2024   22.2914 C   0  0  0  0  0  0  0  0  0  0  0  0
  -28.4398  -33.0358   24.8528 C   0  0  0  0  0  0  0  0  0  0  0  0
  -29.0221  -32.0208   22.7391 C   0  0  0  0  0  0  0  0  0  0  0  0
  -23.2988  -27.9624   20.5854 C   0  0  0  0  0  0  0  0  0  0  0  0
  -20.4593  -21.1860   19.8083 C   0  0  0  0  0  0  0  0  0  0  0  0
  -18.6316  -21.7336   18.5286 C   0  0  0  0  0  0  0  0  0  0  0  0
  -22.0862  -26.2168   20.0219 C   0  0  0  0  0  0  0  0  0  0  0  0
  -24.2879  -26.3471   18.8454 C   0  0  0  0  0  0  0  0  0  0  0  0
  -28.9292  -20.8607   18.4765 C   0  0  0  0  0  0  0  0  0  0  0  0
  -28.8147  -17.9614   19.9268 C   0  0  0  0  0  0  0  0  0  0  0  0
  -26.2687  -15.7927   21.2802 C   0  0  0  0  0  0  0  0  0  0  0  0
  -18.1836  -24.4864   23.6164 C   0  0  0  0  0  0  0  0  0  0  0  0
  -31.9213  -23.9911   15.2962 C   0  0  0  0  0  0  0  0  0  0  0  0
  -28.2602  -21.4975   20.8223 C   0  0  0  0  0  0  0  0  0  0  0  0
  -26.6457  -19.2433   19.7942 C   0  0  0  0  0  0  0  0  0  0  0  0
  -31.4068  -22.5922   14.9727 C   0  0  0  0  0  0  0  0  0  0  0  0
  -18.0500  -27.8876   22.5721 C   0  0  0  0  0  0  0  0  0  0  0  0
  -31.0191  -21.8715   16.2552 C   0  0  0  0  0  0  0  0  0  0  0  0
  -19.4049  -28.1175   21.9002 C   0  0  0  0  0  0  0  0  0  0  0  0
  -18.1684  -26.9583   23.7780 C   0  0  0  0  0  0  0  0  0  0  0  0
  -20.1810  -25.8970   22.8308 C   0  0  0  0  0  0  0  0  0  0  0  0
  -29.8676  -22.5970   16.9627 C   0  0  1  0  0  0  0  0  0  0  0  0
  -28.8600  -20.4287   19.9139 C   0  0  1  0  0  0  0  0  0  0  0  0
  -20.1034  -26.7833   21.5759 C   0  0  2  0  0  0  0  0  0  0  0  0
  -16.1221  -23.6193   19.2888 C   0  0  0  0  0  0  0  0  0  0  0  0
  -16.8559  -20.2270   22.4142 C   0  0  0  0  0  0  0  0  0  0  0  0
  -18.2008  -20.7837   16.2339 C   0  0  0  0  0  0  0  0  0  0  0  0
  -18.7403  -23.2313   16.5040 C   0  0  0  0  0  0  0  0  0  0  0  0
  -26.3959  -14.0578   23.0888 C   0  0  0  0  0  0  0  0  0  0  0  0
  -29.2873  -16.0144   17.6256 C   0  0  0  0  0  0  0  0  0  0  0  0
  -27.8742  -14.3431   18.8414 C   0  0  0  0  0  0  0  0  0  0  0  0
  -29.9920  -15.1669   19.8705 C   0  0  0  0  0  0  0  0  0  0  0  0
  -24.0770  -17.0614   22.8117 C   0  0  0  0  0  0  0  0  0  0  0  0
  -16.3566  -22.1268   19.5058 C   0  0  0  0  0  0  0  0  0  0  0  0
  -21.9210  -20.8533   19.8724 C   0  0  0  0  0  0  0  0  0  1  0  0
  -18.3420  -22.0213   23.3767 C   0  0  0  0  0  0  0  0  0  0  0  0
  -17.5429  -21.5780   22.1280 C   0  0  1  0  0  0  0  0  0  0  0  0
  -18.0857  -22.0045   17.1647 C   0  0  0  0  0  0  0  0  0  0  0  0
  -27.9918  -16.7085   19.7483 C   0  0  1  0  0  0  0  0  0  0  0  0
  -26.0177  -15.4904   22.7465 C   0  0  2  0  0  0  0  0  0  0  0  0
  -28.7760  -15.5839   19.0149 C   0  0  0  0  0  0  0  0  0  0  0  0
  -22.1849  -28.0797   21.3131 N   0  0  0  0  0  0  0  0  0  0  0  0
  -19.9491  -21.4354   18.5815 N   0  0  0  0  0  0  0  0  0  0  0  0
  -21.4674  -27.0036   20.9482 N   0  0  0  0  0  0  0  0  0  0  0  0
  -28.1084  -19.1724   19.9465 N   0  0  0  0  0  0  0  0  0  0  0  0
  -18.8382  -25.7107   23.4027 N   0  0  0  0  0  0  0  0  0  0  0  0
  -21.5052  -25.0951   19.5457 N   0  0  0  0  0  0  0  0  0  0  0  0
  -25.4687  -27.0881   18.7002 N   0  0  0  0  0  0  0  0  0  0  0  0
  -29.6704  -22.0083   18.2690 N   0  0  0  0  0  0  0  0  0  0  0  0
  -27.5189  -16.3378   21.0777 N   0  0  0  0  0  0  0  0  0  0  0  0
  -18.8859  -23.3527   23.2266 N   0  0  0  0  0  0  0  0  0  0  0  0
  -24.5781  -15.6883   23.0772 N   0  3  0  0  0  0  0  0  0  0  0  0
  -24.1278  -25.3072   18.1625 O   0  0  0  0  0  0  0  0  0  0  0  0
  -28.3540  -20.2008   17.6189 O   0  0  0  0  0  0  0  0  0  0  0  0
  -30.0384  -17.8685   20.0516 O   0  0  0  0  0  0  0  0  0  0  0  0
  -25.4400  -15.5643   20.4017 O   0  0  0  0  0  0  0  0  0  0  0  0
  -17.0545  -24.4098   24.1126 O   0  0  0  0  0  0  0  0  0  0  0  0
  -27.3518  -31.7901   21.0199 O   0  0  0  0  0  0  0  0  0  0  0  0
  -22.6335  -21.9819   20.3775 O   0  0  0  0  0  0  0  0  0  1  0  0
  -28.7887  -33.4374   26.0821 F   0  0  0  0  0  0  0  0  0  0  0  0
  -29.9351  -31.4477   21.9430 F   0  0  0  0  0  0  0  0  0  0  0  0
  1  2  1  0  0  0  0
  1  5  2  0  0  0  0
  2  6  2  0  0  0  0
  3  8  2  0  0  0  0
  3 16  1  0  0  0  0
  4  9  1  0  0  0  0
  4 16  2  0  0  0  0
  5 18  1  0  0  0  0
  6 20  1  0  0  0  0
  7 10  2  0  0  0  0
  7 19  1  0  0  0  0
  8 24  1  0  0  0  0
  9 24  2  0  0  0  0
 10 25  1  0  0  0  0
 11 12  2  0  0  0  0
 11 26  1  0  0  0  0
 12 27  1  0  0  0  0
 13 21  1  0  0  0  0
 13 25  2  0  0  0  0
 14 22  2  0  0  0  0
 14 30  1  0  0  0  0
 15 27  2  0  0  0  0
 15 28  1  0  0  0  0
 16 29  1  0  0  0  0
 17 29  1  0  0  0  0
 17 32  2  0  0  0  0
 17 33  1  0  0  0  0
 18 20  2  0  0  0  0
 18 38  1  0  0  0  0
 19 21  2  0  0  0  0
 19 39  1  0  0  0  0
 20 47  1  0  0  0  0
 21 40  1  0  0  0  0
 22 23  1  0  0  0  0
 22 62  1  0  0  0  0
 23 31  2  0  0  0  0
 23 59  1  0  0  0  0
 24 83  1  0  0  0  0
 25 84  1  0  0  0  0
 26 28  2  0  0  0  0
 26 83  1  0  0  0  0
 27 85  1  0  0  0  0
 28 86  1  0  0  0  0
 29 67  2  0  0  0  0
 30 60  1  0  0  0  0
 30 68  2  0  0  0  0
 31 63  1  0  0  0  0
 31 68  1  0  0  0  0
 32 69  1  0  0  0  0
 32 72  1  0  0  0  0
 33 73  1  0  0  0  0
 33 78  2  0  0  0  0
 34 48  1  0  0  0  0
 34 74  1  0  0  0  0
 34 79  2  0  0  0  0
 35 64  1  0  0  0  0
 35 70  1  0  0  0  0
 35 80  2  0  0  0  0
 36 65  1  0  0  0  0
 36 75  1  0  0  0  0
 36 81  2  0  0  0  0
 37 71  1  0  0  0  0
 37 76  1  0  0  0  0
 37 82  2  0  0  0  0
 38 41  1  0  0  0  0
 39 48  1  0  0  0  0
 40 70  1  0  0  0  0
 41 43  1  0  0  0  0
 42 44  1  0  0  0  0
 42 45  1  0  0  0  0
 43 47  1  0  0  0  0
 44 49  1  0  0  0  0
 45 71  1  0  0  0  0
 46 49  1  0  0  0  0
 46 71  1  0  0  0  0
 47 74  1  0  0  0  0
 48 70  1  0  0  0  0
 49 69  1  0  0  0  0
 50 59  1  0  0  0  0
 51 62  1  0  0  0  0
 52 63  1  0  0  0  0
 53 63  1  0  0  0  0
 54 65  1  0  0  0  0
 55 66  1  0  0  0  0
 56 66  1  0  0  0  0
 57 66  1  0  0  0  0
 58 77  1  0  0  0  0
 60 84  1  0  0  0  0
 61 62  1  0  0  0  0
 61 76  1  0  0  0  0
 64 66  1  0  0  0  0
 64 75  1  0  0  0  0
 65 77  1  0  0  0  0
 67 69  1  0  0  0  0
M  CHG  1  77   1
M  ISO  4  37 100  60 101  76 100  84 101
M  END
> <Batch ID>
0086

> <Smiles>
CCc1c(C(C)C[100NH:0][100C:0](=O)N2CCCC(n3nc(-c4ccc(Oc5ccc(F)cc5F)cc4)c(C(N)=O)c3N)C2)cc([101CH2:1][101O:1]c2ccc3c(c2)CN(C(=O)C(NC(=O)C(C)NC)C(C)(C)C)C(C(=O)NC2CCCc4ccccc42)C3)nc1C(C)C

> <Shape>
0.195

> <Color>
0.053

> <Negative vol penalty>
0.000

$$$$

  -OEChem-04052318593D

 85 93  0     1  0  0  0  0  0999 V2000
  -34.8685  -25.3125   20.5058 C   0  0  0  0  0  0  0  0  0  0  0  0
  -33.7876  -24.4596   20.3069 C   0  0  0  0  0  0  0  0  0  0  0  0
  -22.4086  -10.4452   20.2968 C   0  0  0  0  0  0  0  0  0  0  0  0
  -24.2812   -9.6584   21.6049 C   0  0  0  0  0  0  0  0  0  0  0  0
  -34.6487  -26.6529   20.8206 C   0  0  0  0  0  0  0  0  0  0  0  0
  -32.4861  -24.9464   20.4239 C   0  0  0  0  0  0  0  0  0  0  0  0
  -29.4739  -23.3585   16.6755 C   0  0  0  0  0  0  0  0  0  0  0  0
  -21.6551   -9.3489   20.7160 C   0  0  0  0  0  0  0  0  0  0  0  0
  -23.5277   -8.5620   22.0242 C   0  0  0  0  0  0  0  0  0  0  0  0
  -28.9863  -22.0551   16.7593 C   0  0  0  0  0  0  0  0  0  0  0  0
  -19.9219   -8.4232   23.4678 C   0  0  0  0  0  0  0  0  0  0  0  0
  -18.6093   -8.6573   23.8774 C   0  0  0  0  0  0  0  0  0  0  0  0
  -26.8858  -22.9008   17.5912 C   0  0  0  0  0  0  0  0  0  0  0  0
  -27.9120  -18.5597   20.6534 C   0  0  0  0  0  0  0  0  0  0  0  0
  -28.6719  -17.9839   18.4453 C   0  0  0  0  0  0  0  0  0  0  0  0
  -17.8043   -7.1838   22.1402 C   0  0  0  0  0  0  0  0  0  0  0  0
  -23.7217  -10.6000   20.7412 C   0  0  0  0  0  0  0  0  0  0  0  0
  -24.5929  -12.9899   20.9333 C   0  0  0  0  0  0  0  0  0  0  0  0
  -33.3439  -27.1585   20.9320 C   0  0  0  0  0  0  0  0  0  0  0  0
  -28.6736  -24.4440   17.0599 C   0  0  0  0  0  0  0  0  0  0  0  0
  -32.2487  -26.2944   20.7418 C   0  0  0  0  0  0  0  0  0  0  0  0
  -27.3648  -24.2173   17.5089 C   0  0  0  0  0  0  0  0  0  0  0  0
  -27.6681  -18.4460   19.2893 C   0  0  0  0  0  0  0  0  0  0  0  0
  -22.2146   -8.4073   21.5797 C   0  0  0  0  0  0  0  0  0  0  0  0
  -27.6931  -21.8259   17.2200 C   0  0  0  0  0  0  0  0  0  0  0  0
  -20.1757   -7.5695   22.3942 C   0  0  0  0  0  0  0  0  0  0  0  0
  -17.5505   -8.0376   23.2137 C   0  0  0  0  0  0  0  0  0  0  0  0
  -19.1169   -6.9498   21.7305 C   0  0  0  0  0  0  0  0  0  0  0  0
  -24.5008  -11.7320   20.3081 C   0  0  0  0  0  0  0  0  0  0  0  0
  -29.1665  -18.2013   21.1200 C   0  0  0  0  0  0  0  0  0  0  0  0
  -29.8924  -17.6515   19.0108 C   0  0  0  0  0  0  0  0  0  0  0  0
  -25.4517  -13.7072   20.1368 C   0  0  0  0  0  0  0  0  0  0  0  0
  -23.9588  -13.4673   22.1273 C   0  0  0  0  0  0  0  0  0  0  0  0
  -28.8773  -26.7037   19.2861 C   0  0  0  0  0  0  0  0  0  0  0  0
  -26.2363  -27.8601   17.7995 C   0  0  0  0  0  0  0  0  0  0  0  0
  -23.5111  -27.2439   15.8398 C   0  0  0  0  0  0  0  0  0  0  0  0
  -30.1536  -14.0847   17.1543 C   0  0  0  0  0  0  0  0  0  0  0  0
  -33.1561  -28.6036   21.3206 C   0  0  0  0  0  0  0  0  0  0  0  0
  -29.2051  -25.8458   16.9382 C   0  0  0  0  0  0  0  0  0  0  0  0
  -26.4582  -25.3496   17.9145 C   0  0  0  0  0  0  0  0  0  0  0  0
  -31.7464  -29.1269   21.0574 C   0  0  0  0  0  0  0  0  0  0  0  0
  -27.3022  -12.6915   15.5401 C   0  0  0  0  0  0  0  0  0  0  0  0
  -30.7052  -28.1345   21.5650 C   0  0  0  0  0  0  0  0  0  0  0  0
  -26.3300  -12.4159   16.6884 C   0  0  0  0  0  0  0  0  0  0  0  0
  -28.7500  -12.4348   15.9524 C   0  0  0  0  0  0  0  0  0  0  0  0
  -28.2110  -12.8720   18.3172 C   0  0  0  0  0  0  0  0  0  0  0  0
  -30.8221  -26.7907   20.8356 C   0  0  1  0  0  0  0  0  0  0  0  0
  -28.4825  -26.8394   17.8427 C   0  0  1  0  0  0  0  0  0  0  0  0
  -26.7433  -13.1705   17.9663 C   0  0  2  0  0  0  0  0  0  0  0  0
  -30.5946  -19.3108   22.8758 C   0  0  0  0  0  0  0  0  0  0  0  0
  -29.7926  -16.9449   23.2137 C   0  0  0  0  0  0  0  0  0  0  0  0
  -32.2088  -18.1032   18.1425 C   0  0  0  0  0  0  0  0  0  0  0  0
  -21.5160  -28.3799   14.8265 C   0  0  0  0  0  0  0  0  0  0  0  0
  -24.8579  -27.8621   20.5216 C   0  0  0  0  0  0  0  0  0  0  0  0
  -22.6648  -28.0767   19.3332 C   0  0  0  0  0  0  0  0  0  0  0  0
  -24.3830  -29.8714   19.1104 C   0  0  0  0  0  0  0  0  0  0  0  0
  -24.4032  -26.6128   13.0893 C   0  0  0  0  0  0  0  0  0  0  0  0
  -26.3187  -18.8218   18.7270 C   0  0  0  0  0  0  0  0  0  0  0  0
  -31.4598  -15.7210   18.4867 C   0  0  0  0  0  0  0  0  0  0  0  0
  -26.2486  -20.2895   18.3195 C   0  0  0  0  0  0  0  0  0  1  0  0
  -29.4635  -18.3087   22.5784 C   0  0  0  0  0  0  0  0  0  0  0  0
  -30.9929  -17.1539   18.1344 C   0  0  1  0  0  0  0  0  0  0  0  0
  -24.7483  -27.6548   17.9504 C   0  0  1  0  0  0  0  0  0  0  0  0
  -22.9640  -27.9635   14.6201 C   0  0  2  0  0  0  0  0  0  0  0  0
  -24.1810  -28.3446   19.2232 C   0  0  0  0  0  0  0  0  0  0  0  0
  -25.2419  -11.6516   19.1997 N   0  0  0  0  0  0  0  0  0  0  0  0
  -30.1665  -17.7485   20.3310 N   0  0  0  0  0  0  0  0  0  0  0  0
  -25.8078  -12.8681   19.1223 N   0  0  0  0  0  0  0  0  0  0  0  0
  -27.0259  -26.7016   17.7836 N   0  0  0  0  0  0  0  0  0  0  0  0
  -29.0786  -13.1807   17.1696 N   0  0  0  0  0  0  0  0  0  0  0  0
  -25.9295  -14.9676   20.2123 N   0  0  0  0  0  0  0  0  0  0  0  0
  -23.1066  -12.5997   22.8240 N   0  0  0  0  0  0  0  0  0  0  0  0
  -30.2283  -26.8772   19.5186 N   0  0  0  0  0  0  0  0  0  0  0  0
  -24.1446  -28.1122   16.7035 N   0  0  0  0  0  0  0  0  0  0  0  0
  -30.3930  -14.7549   18.3477 N   0  0  0  0  0  0  0  0  0  0  0  0
  -23.0326  -27.0788   13.4228 N   0  3  0  0  0  0  0  0  0  0  0  0
  -24.1296  -14.6343   22.5546 O   0  0  0  0  0  0  0  0  0  0  0  0
  -28.0194  -26.4610   20.1268 O   0  0  0  0  0  0  0  0  0  0  0  0
  -26.6809  -29.0057   17.6922 O   0  0  0  0  0  0  0  0  0  0  0  0
  -23.3855  -26.0334   16.0110 O   0  0  0  0  0  0  0  0  0  0  0  0
  -30.8451  -14.2840   16.1498 O   0  0  0  0  0  0  0  0  0  0  0  0
  -21.4795   -7.3375   21.9892 O   0  0  0  0  0  0  0  0  0  0  0  0
  -27.2148  -20.5546   17.3034 O   0  0  0  0  0  0  0  0  0  1  0  0
  -16.2901   -8.2613   23.6082 F   0  0  0  0  0  0  0  0  0  0  0  0
  -19.3546   -6.1276   20.6993 F   0  0  0  0  0  0  0  0  0  0  0  0
  1  2  1  0  0  0  0
  1  5  2  0  0  0  0
  2  6  2  0  0  0  0
  3  8  2  0  0  0  0
  3 17  1  0  0  0  0
  4  9  1  0  0  0  0
  4 17  2  0  0  0  0
  5 19  1  0  0  0  0
  6 21  1  0  0  0  0
  7 10  2  0  0  0  0
  7 20  1  0  0  0  0
  8 24  1  0  0  0  0
  9 24  2  0  0  0  0
 10 25  1  0  0  0  0
 11 12  2  0  0  0  0
 11 26  1  0  0  0  0
 12 27  1  0  0  0  0
 13 22  1  0  0  0  0
 13 25  2  0  0  0  0
 14 23  1  0  0  0  0
 14 30  2  0  0  0  0
 15 23  2  0  0  0  0
 15 31  1  0  0  0  0
 16 27  2  0  0  0  0
 16 28  1  0  0  0  0
 17 29  1  0  0  0  0
 18 29  1  0  0  0  0
 18 32  2  0  0  0  0
 18 33  1  0  0  0  0
 19 21  2  0  0  0  0
 19 38  1  0  0  0  0
 20 22  2  0  0  0  0
 20 39  1  0  0  0  0
 21 47  1  0  0  0  0
 22 40  1  0  0  0  0
 23 58  1  0  0  0  0
 24 82  1  0  0  0  0
 25 83  1  0  0  0  0
 26 28  2  0  0  0  0
 26 82  1  0  0  0  0
 27 84  1  0  0  0  0
 28 85  1  0  0  0  0
 29 66  2  0  0  0  0
 30 61  1  0  0  0  0
 30 67  1  0  0  0  0
 31 62  1  0  0  0  0
 31 67  2  0  0  0  0
 32 68  1  0  0  0  0
 32 71  1  0  0  0  0
 33 72  1  0  0  0  0
 33 77  2  0  0  0  0
 34 48  1  0  0  0  0
 34 73  1  0  0  0  0
 34 78  2  0  0  0  0
 35 63  1  0  0  0  0
 35 69  1  0  0  0  0
 35 79  2  0  0  0  0
 36 64  1  0  0  0  0
 36 74  1  0  0  0  0
 36 80  2  0  0  0  0
 37 70  1  0  0  0  0
 37 75  1  0  0  0  0
 37 81  2  0  0  0  0
 38 41  1  0  0  0  0
 39 48  1  0  0  0  0
 40 69  1  0  0  0  0
 41 43  1  0  0  0  0
 42 44  1  0  0  0  0
 42 45  1  0  0  0  0
 43 47  1  0  0  0  0
 44 49  1  0  0  0  0
 45 70  1  0  0  0  0
 46 49  1  0  0  0  0
 46 70  1  0  0  0  0
 47 73  1  0  0  0  0
 48 69  1  0  0  0  0
 49 68  1  0  0  0  0
 50 61  1  0  0  0  0
 51 61  1  0  0  0  0
 52 62  1  0  0  0  0
 53 64  1  0  0  0  0
 54 65  1  0  0  0  0
 55 65  1  0  0  0  0
 56 65  1  0  0  0  0
 57 76  1  0  0  0  0
 58 60  1  0  0  0  0
 59 62  1  0  0  0  0
 59 75  1  0  0  0  0
 60 83  1  0  0  0  0
 63 65  1  0  0  0  0
 63 74  1  0  0  0  0
 64 76  1  0  0  0  0
 66 68  1  0  0  0  0
M  CHG  1  76   1
M  ISO  4  37 100  60 101  75 100  83 101
M  END
> <Batch ID>
0086

> <Smiles>
CNC(C)C(=O)NC(C(=O)N1Cc2cc([101O:1][101CH2:1]Cc3cc(C(C)C)nc(C(C)C[100NH:0][100C:0](=O)N4CCCC(n5nc(-c6ccc(Oc7ccc(F)cc7F)cc6)c(C(N)=O)c5N)C4)c3)ccc2CC1C(=O)NC1CCCc2ccccc21)C(C)(C)C

> <Shape>
0.202

> <Color>
0.104

> <Negative vol penalty>
0.000

$$$$

  -OEChem-04052318593D

 87 95  0     1  0  0  0  0  0999 V2000
  -27.2983  -30.3829   29.8934 C   0  0  0  0  0  0  0  0  0  0  0  0
  -27.7387  -29.0808   29.6786 C   0  0  0  0  0  0  0  0  0  0  0  0
  -23.0448   -9.8323   19.9675 C   0  0  0  0  0  0  0  0  0  0  0  0
  -23.7636   -9.9019   22.2730 C   0  0  0  0  0  0  0  0  0  0  0  0
  -26.7847  -31.1277   28.8326 C   0  0  0  0  0  0  0  0  0  0  0  0
  -27.6647  -28.5225   28.4030 C   0  0  0  0  0  0  0  0  0  0  0  0
  -31.6078  -24.5750   25.8779 C   0  0  0  0  0  0  0  0  0  0  0  0
  -22.3046   -8.6803   20.2330 C   0  0  0  0  0  0  0  0  0  0  0  0
  -23.0234   -8.7498   22.5385 C   0  0  0  0  0  0  0  0  0  0  0  0
  -31.5850  -23.1884   25.7352 C   0  0  0  0  0  0  0  0  0  0  0  0
  -21.6126   -5.6235   23.7410 C   0  0  0  0  0  0  0  0  0  0  0  0
  -22.2207   -4.6223   24.4981 C   0  0  0  0  0  0  0  0  0  0  0  0
  -30.6907  -23.4382   23.5088 C   0  0  0  0  0  0  0  0  0  0  0  0
  -23.9559   -4.4147   22.8299 C   0  0  0  0  0  0  0  0  0  0  0  0
  -34.1785  -19.5457   22.5193 C   0  0  0  0  0  0  0  0  0  0  0  0
  -23.7744  -10.4431   20.9875 C   0  0  0  0  0  0  0  0  0  0  0  0
  -24.1007  -12.9669   20.8105 C   0  0  0  0  0  0  0  0  0  0  0  0
  -26.7134  -30.5816   27.5413 C   0  0  0  0  0  0  0  0  0  0  0  0
  -31.1612  -25.4049   24.8395 C   0  0  0  0  0  0  0  0  0  0  0  0
  -27.1485  -29.2602   27.3242 C   0  0  0  0  0  0  0  0  0  0  0  0
  -30.7112  -24.8351   23.6399 C   0  0  0  0  0  0  0  0  0  0  0  0
  -22.2939   -8.1390   21.5185 C   0  0  0  0  0  0  0  0  0  0  0  0
  -31.1237  -22.6196   24.5517 C   0  0  0  0  0  0  0  0  0  0  0  0
  -22.1760   -6.0203   22.5282 C   0  0  0  0  0  0  0  0  0  0  0  0
  -23.3924   -4.0179   24.0426 C   0  0  0  0  0  0  0  0  0  0  0  0
  -23.3477   -5.4159   22.0727 C   0  0  0  0  0  0  0  0  0  0  0  0
  -24.5396  -11.6328   20.7137 C   0  0  0  0  0  0  0  0  0  0  0  0
  -32.8956  -19.4397   22.9775 C   0  0  0  0  0  0  0  0  0  0  0  0
  -25.1940  -13.7152   20.4479 C   0  0  0  0  0  0  0  0  0  0  0  0
  -32.8143  -19.7815   20.7919 C   0  0  0  0  0  0  0  0  0  0  0  0
  -22.8195  -13.4836   21.1939 C   0  0  0  0  0  0  0  0  0  0  0  0
  -28.8258  -27.5372   24.5187 C   0  0  0  0  0  0  0  0  0  0  0  0
  -30.2259  -28.0587   21.6394 C   0  0  0  0  0  0  0  0  0  0  0  0
  -32.1870  -26.8674   19.1133 C   0  0  0  0  0  0  0  0  0  0  0  0
  -30.6663  -14.7790   20.7074 C   0  0  0  0  0  0  0  0  0  0  0  0
  -26.1067  -31.4088   26.4357 C   0  0  0  0  0  0  0  0  0  0  0  0
  -31.2172  -26.8994   24.9990 C   0  0  0  0  0  0  0  0  0  0  0  0
  -30.2399  -25.6825   22.4873 C   0  0  0  0  0  0  0  0  0  0  0  0
  -26.4098  -30.8741   25.0384 C   0  0  0  0  0  0  0  0  0  0  0  0
  -29.5879  -12.3276   18.3612 C   0  0  0  0  0  0  0  0  0  0  0  0
  -26.1767  -29.3677   24.9811 C   0  0  0  0  0  0  0  0  0  0  0  0
  -28.1451  -12.0342   18.7759 C   0  0  0  0  0  0  0  0  0  0  0  0
  -30.4820  -12.5850   19.5722 C   0  0  0  0  0  0  0  0  0  0  0  0
  -28.5508  -13.3362   20.9064 C   0  0  0  0  0  0  0  0  0  0  0  0
  -27.1075  -28.6282   25.9498 C   0  0  1  0  0  0  0  0  0  0  0  0
  -30.2566  -27.6359   24.0704 C   0  0  1  0  0  0  0  0  0  0  0  0
  -27.5990  -13.1253   19.7165 C   0  0  2  0  0  0  0  0  0  0  0  0
  -33.3258  -18.3250   25.1920 C   0  0  0  0  0  0  0  0  0  0  0  0
  -32.7814  -18.8738   18.4405 C   0  0  0  0  0  0  0  0  0  0  0  0
  -32.7161  -21.3634   18.8317 C   0  0  0  0  0  0  0  0  0  0  0  0
  -33.1218  -27.5097   16.8748 C   0  0  0  0  0  0  0  0  0  0  0  0
  -27.4935  -27.5871   20.3659 C   0  0  0  0  0  0  0  0  0  0  0  0
  -28.6478  -27.2972   18.1632 C   0  0  0  0  0  0  0  0  0  0  0  0
  -28.7967  -29.4752   19.3702 C   0  0  0  0  0  0  0  0  0  0  0  0
  -29.8335  -18.1922   19.8926 C   0  0  0  0  0  0  0  0  0  0  0  0
  -28.5029  -18.2105   21.9957 C   0  0  0  0  0  0  0  0  0  0  0  0
  -34.9745  -26.6096   20.0737 C   0  0  0  0  0  0  0  0  0  0  0  0
  -30.6223  -19.5483   21.9119 C   0  0  0  0  0  0  0  0  0  0  0  0
  -30.6952  -16.9601   21.8912 C   0  0  0  0  0  0  0  0  0  0  0  0
  -32.0880  -20.5215   25.1205 C   0  0  0  0  0  0  0  0  0  1  0  0
  -32.3674  -19.2043   24.3839 C   0  0  1  0  0  0  0  0  0  0  0  0
  -32.3226  -19.9863   19.4067 C   0  0  0  0  0  0  0  0  0  0  0  0
  -30.0707  -27.4784   20.2545 C   0  0  1  0  0  0  0  0  0  0  0  0
  -33.3633  -27.4816   18.3760 C   0  0  2  0  0  0  0  0  0  0  0  0
  -28.7592  -27.9432   19.5607 C   0  0  0  0  0  0  0  0  0  0  0  0
  -29.9420  -18.2309   21.4308 C   0  0  0  0  0  0  0  0  0  0  0  0
  -25.8124  -11.5360   20.3203 N   0  0  0  0  0  0  0  0  0  0  0  0
  -32.0725  -19.5899   21.8876 N   0  0  0  0  0  0  0  0  0  0  0  0
  -26.1826  -12.8187   20.1666 N   0  0  0  0  0  0  0  0  0  0  0  0
  -34.0982  -19.7566   21.1639 N   0  3  0  0  0  0  0  0  0  0  0  0
  -30.3080  -27.1385   22.6941 N   0  0  0  0  0  0  0  0  0  0  0  0
  -29.9086  -13.6311   20.4224 N   0  0  0  0  0  0  0  0  0  0  0  0
  -25.3964  -15.0459   20.3454 N   0  0  0  0  0  0  0  0  0  0  0  0
  -21.8080  -12.5757   21.5359 N   0  0  0  0  0  0  0  0  0  0  0  0
  -28.4412  -28.5332   25.3959 N   0  0  0  0  0  0  0  0  0  0  0  0
  -31.2869  -27.8262   19.5276 N   0  0  0  0  0  0  0  0  0  0  0  0
  -30.0458  -15.7240   21.5153 N   0  0  0  0  0  0  0  0  0  0  0  0
  -34.6044  -26.6992   18.6377 N   0  3  0  0  0  0  0  0  0  0  0  0
  -22.5737  -14.7135   21.2164 O   0  0  0  0  0  0  0  0  0  0  0  0
  -28.1225  -26.6259   24.0986 O   0  0  0  0  0  0  0  0  0  0  0  0
  -30.2796  -29.2831   21.7796 O   0  0  0  0  0  0  0  0  0  0  0  0
  -32.0759  -25.6576   19.2996 O   0  0  0  0  0  0  0  0  0  0  0  0
  -31.8089  -14.9515   20.2696 O   0  0  0  0  0  0  0  0  0  0  0  0
  -21.5715   -7.0150   21.7780 O   0  0  0  0  0  0  0  0  0  0  0  0
  -31.0998  -21.2664   24.4100 O   0  0  0  0  0  0  0  0  0  1  0  0
  -23.9772   -3.0576   24.7705 F   0  0  0  0  0  0  0  0  0  0  0  0
  -23.8944   -5.7938   20.9090 F   0  0  0  0  0  0  0  0  0  0  0  0
  1  2  1  0  0  0  0
  1  5  2  0  0  0  0
  2  6  2  0  0  0  0
  3  8  2  0  0  0  0
  3 16  1  0  0  0  0
  4  9  1  0  0  0  0
  4 16  2  0  0  0  0
  5 18  1  0  0  0  0
  6 20  1  0  0  0  0
  7 10  2  0  0  0  0
  7 19  1  0  0  0  0
  8 22  1  0  0  0  0
  9 22  2  0  0  0  0
 10 23  1  0  0  0  0
 11 12  2  0  0  0  0
 11 24  1  0  0  0  0
 12 25  1  0  0  0  0
 13 21  1  0  0  0  0
 13 23  2  0  0  0  0
 14 25  2  0  0  0  0
 14 26  1  0  0  0  0
 15 28  2  0  0  0  0
 15 70  1  0  0  0  0
 16 27  1  0  0  0  0
 17 27  1  0  0  0  0
 17 29  2  0  0  0  0
 17 31  1  0  0  0  0
 18 20  2  0  0  0  0
 18 36  1  0  0  0  0
 19 21  2  0  0  0  0
 19 37  1  0  0  0  0
 20 45  1  0  0  0  0
 21 38  1  0  0  0  0
 22 84  1  0  0  0  0
 23 85  1  0  0  0  0
 24 26  2  0  0  0  0
 24 84  1  0  0  0  0
 25 86  1  0  0  0  0
 26 87  1  0  0  0  0
 27 67  2  0  0  0  0
 28 61  1  0  0  0  0
 28 68  1  0  0  0  0
 29 69  1  0  0  0  0
 29 73  1  0  0  0  0
 30 62  1  0  0  0  0
 30 68  1  0  0  0  0
 30 70  2  0  0  0  0
 31 74  1  0  0  0  0
 31 79  2  0  0  0  0
 32 46  1  0  0  0  0
 32 75  1  0  0  0  0
 32 80  2  0  0  0  0
 33 63  1  0  0  0  0
 33 71  1  0  0  0  0
 33 81  2  0  0  0  0
 34 64  1  0  0  0  0
 34 76  1  0  0  0  0
 34 82  2  0  0  0  0
 35 72  1  0  0  0  0
 35 77  1  0  0  0  0
 35 83  2  0  0  0  0
 36 39  1  0  0  0  0
 37 46  1  0  0  0  0
 38 71  1  0  0  0  0
 39 41  1  0  0  0  0
 40 42  1  0  0  0  0
 40 43  1  0  0  0  0
 41 45  1  0  0  0  0
 42 47  1  0  0  0  0
 43 72  1  0  0  0  0
 44 47  1  0  0  0  0
 44 72  1  0  0  0  0
 45 75  1  0  0  0  0
 46 71  1  0  0  0  0
 47 69  1  0  0  0  0
 48 61  1  0  0  0  0
 49 62  1  0  0  0  0
 50 62  1  0  0  0  0
 51 64  1  0  0  0  0
 52 65  1  0  0  0  0
 53 65  1  0  0  0  0
 54 65  1  0  0  0  0
 55 66  1  0  0  0  0
 56 66  1  0  0  0  0
 57 78  1  0  0  0  0
 58 66  1  0  0  0  0
 58 68  1  0  0  0  0
 59 66  1  0  0  0  0
 59 77  1  0  0  0  0
 60 61  1  0  0  0  0
 60 85  1  0  0  0  0
 63 65  1  0  0  0  0
 63 76  1  0  0  0  0
 64 78  1  0  0  0  0
 67 69  1  0  0  0  0
M  CHG  2  70   1  78   1
M  ISO  4  35 100  60 101  77 100  85 101
M  END
> <Batch ID>
0086

> <Smiles>
CNC(C)C(=O)NC(C(=O)N1Cc2cc([101O:1][101CH2:1]C(C)c3cnc(C(C)C)n3CC(C)(C)C[100NH:0][100C:0](=O)N3CCCC(n4nc(-c5ccc(Oc6ccc(F)cc6F)cc5)c(C(N)=O)c4N)C3)ccc2CC1C(=O)NC1CCCc2ccccc21)C(C)(C)C

> <Shape>
0.251

> <Color>
0.188

> <Negative vol penalty>
0.000

$$$$

  -OEChem-04052318593D

 85 93  0     1  0  0  0  0  0999 V2000
  -32.2817  -12.2153   21.2220 C   0  0  0  0  0  0  0  0  0  0  0  0
  -32.4102  -13.5664   20.9166 C   0  0  0  0  0  0  0  0  0  0  0  0
  -22.2986  -27.2558   23.1012 C   0  0  0  0  0  0  0  0  0  0  0  0
  -22.8742  -28.3350   21.0177 C   0  0  0  0  0  0  0  0  0  0  0  0
  -31.1109  -11.5350   20.8898 C   0  0  0  0  0  0  0  0  0  0  0  0
  -31.3683  -14.2379   20.2779 C   0  0  0  0  0  0  0  0  0  0  0  0
  -29.6983  -20.0726   21.0984 C   0  0  0  0  0  0  0  0  0  0  0  0
  -21.3222  -28.2246   23.3333 C   0  0  0  0  0  0  0  0  0  0  0  0
  -21.8979  -29.3038   21.2498 C   0  0  0  0  0  0  0  0  0  0  0  0
  -29.9694  -21.2358   20.3793 C   0  0  0  0  0  0  0  0  0  0  0  0
  -18.1758  -28.8902   22.2892 C   0  0  0  0  0  0  0  0  0  0  0  0
  -16.9254  -28.4575   22.7305 C   0  0  0  0  0  0  0  0  0  0  0  0
  -27.8755  -20.9916   19.2066 C   0  0  0  0  0  0  0  0  0  0  0  0
  -32.2438  -24.6021   15.8970 C   0  0  0  0  0  0  0  0  0  0  0  0
  -17.1793  -29.7740   24.7404 C   0  0  0  0  0  0  0  0  0  0  0  0
  -30.2450  -23.8592   15.1742 C   0  0  0  0  0  0  0  0  0  0  0  0
  -23.0746  -27.3111   21.9435 C   0  0  0  0  0  0  0  0  0  0  0  0
  -23.9239  -25.0877   21.0254 C   0  0  0  0  0  0  0  0  0  0  0  0
  -30.0503  -12.2007   20.2554 C   0  0  0  0  0  0  0  0  0  0  0  0
  -28.5169  -19.3529   20.8689 C   0  0  0  0  0  0  0  0  0  0  0  0
  -30.1827  -13.5655   19.9357 C   0  0  0  0  0  0  0  0  0  0  0  0
  -27.5906  -19.8209   19.9260 C   0  0  0  0  0  0  0  0  0  0  0  0
  -31.5772  -23.9433   14.8346 C   0  0  0  0  0  0  0  0  0  0  0  0
  -21.1218  -29.2485   22.4075 C   0  0  0  0  0  0  0  0  0  0  0  0
  -29.0593  -21.6939   19.4312 C   0  0  0  0  0  0  0  0  0  0  0  0
  -18.9281  -29.7647   23.0734 C   0  0  0  0  0  0  0  0  0  0  0  0
  -16.4271  -28.8995   23.9561 C   0  0  0  0  0  0  0  0  0  0  0  0
  -18.4298  -30.2066   24.2990 C   0  0  0  0  0  0  0  0  0  0  0  0
  -24.0837  -26.3110   21.7035 C   0  0  0  0  0  0  0  0  0  0  0  0
  -31.2987  -24.9004   16.8536 C   0  0  0  0  0  0  0  0  0  0  0  0
  -25.1678  -24.5068   21.0673 C   0  0  0  0  0  0  0  0  0  0  0  0
  -22.7555  -24.5266   20.4125 C   0  0  0  0  0  0  0  0  0  0  0  0
  -27.8393  -16.4209   19.8452 C   0  0  0  0  0  0  0  0  0  0  0  0
  -24.8010  -17.2874   20.5800 C   0  0  0  0  0  0  0  0  0  0  0  0
  -22.5378  -19.7980   21.0515 C   0  0  0  0  0  0  0  0  0  0  0  0
  -30.6959  -26.7429   21.6075 C   0  0  0  0  0  0  0  0  0  0  0  0
  -28.8228  -11.4120   19.8734 C   0  0  0  0  0  0  0  0  0  0  0  0
  -28.2268  -18.1146   21.6720 C   0  0  0  0  0  0  0  0  0  0  0  0
  -26.2982  -19.0960   19.6565 C   0  0  0  0  0  0  0  0  0  0  0  0
  -27.6181  -12.2862   19.5346 C   0  0  0  0  0  0  0  0  0  0  0  0
  -29.1383  -24.3477   23.7320 C   0  0  0  0  0  0  0  0  0  0  0  0
  -28.0276  -13.4210   18.6013 C   0  0  0  0  0  0  0  0  0  0  0  0
  -27.6518  -24.4689   23.3919 C   0  0  0  0  0  0  0  0  0  0  0  0
  -29.8400  -25.7033   23.6867 C   0  0  0  0  0  0  0  0  0  0  0  0
  -28.1785  -26.5706   22.0864 C   0  0  0  0  0  0  0  0  0  0  0  0
  -29.0648  -14.3346   19.2656 C   0  0  1  0  0  0  0  0  0  0  0  0
  -27.2319  -17.1801   20.9908 C   0  0  1  0  0  0  0  0  0  0  0  0
  -27.4399  -25.2213   22.0644 C   0  0  2  0  0  0  0  0  0  0  0  0
  -20.1230  -20.1946   21.6069 C   0  0  0  0  0  0  0  0  0  0  0  0
  -33.2991  -22.3688   13.8849 C   0  0  0  0  0  0  0  0  0  0  0  0
  -32.8772  -24.5885   12.7753 C   0  0  0  0  0  0  0  0  0  0  0  0
  -31.2208  -22.7455   12.5732 C   0  0  0  0  0  0  0  0  0  0  0  0
  -24.0191  -16.4866   17.7415 C   0  0  0  0  0  0  0  0  0  0  0  0
  -21.8867  -17.7633   18.0432 C   0  0  0  0  0  0  0  0  0  0  0  0
  -22.3832  -15.8045   19.5059 C   0  0  0  0  0  0  0  0  0  0  0  0
  -23.2287  -21.2924   23.5108 C   0  0  0  0  0  0  0  0  0  0  0  0
  -31.4502  -25.5812   18.1561 C   0  0  0  0  0  0  0  0  0  0  0  0
  -31.2809  -27.1186   18.1117 C   0  0  0  0  0  0  0  0  0  0  0  0
  -28.7719  -24.5587   17.1348 C   0  0  0  0  0  0  0  0  0  0  0  0
  -31.3985  -27.7984   19.4742 C   0  0  0  0  0  0  0  0  0  0  0  0
  -28.3454  -23.2406   17.7716 C   0  0  0  0  0  0  0  0  0  1  0  0
  -23.6701  -17.9556   19.8358 C   0  0  1  0  0  0  0  0  0  0  0  0
  -21.5325  -20.0528   22.1600 C   0  0  2  0  0  0  0  0  0  0  0  0
  -32.1947  -23.4401   13.5928 C   0  0  0  0  0  0  0  0  0  0  0  0
  -23.0150  -17.0153   18.7851 C   0  0  0  0  0  0  0  0  0  0  0  0
  -25.3309  -26.4973   22.1440 N   0  0  0  0  0  0  0  0  0  0  0  0
  -30.0874  -24.4438   16.4036 N   0  0  0  0  0  0  0  0  0  0  0  0
  -25.9660  -25.3832   21.7419 N   0  0  0  0  0  0  0  0  0  0  0  0
  -26.0631  -17.8867   20.4627 N   0  0  0  0  0  0  0  0  0  0  0  0
  -29.6008  -26.3640   22.4014 N   0  0  0  0  0  0  0  0  0  0  0  0
  -25.6458  -23.3370   20.5926 N   0  0  0  0  0  0  0  0  0  0  0  0
  -21.5598  -25.2562   20.4609 N   0  0  0  0  0  0  0  0  0  0  0  0
  -28.4238  -15.2234   20.2108 N   0  0  0  0  0  0  0  0  0  0  0  0
  -22.7481  -18.4498   20.8526 N   0  0  0  0  0  0  0  0  0  0  0  0
  -30.3808  -27.3575   20.4019 N   0  0  0  0  0  0  0  0  0  0  0  0
  -21.8770  -21.3028   22.8945 N   0  3  0  0  0  0  0  0  0  0  0  0
  -22.7674  -23.4038   19.8531 O   0  0  0  0  0  0  0  0  0  0  0  0
  -27.7807  -16.8864   18.7131 O   0  0  0  0  0  0  0  0  0  0  0  0
  -24.5715  -16.2753   21.2468 O   0  0  0  0  0  0  0  0  0  0  0  0
  -23.0795  -20.7042   20.4222 O   0  0  0  0  0  0  0  0  0  0  0  0
  -31.8675  -26.5430   21.9456 O   0  0  0  0  0  0  0  0  0  0  0  0
  -20.1690  -30.1939   22.6335 O   0  0  0  0  0  0  0  0  0  0  0  0
  -29.3217  -22.8287   18.7274 O   0  0  0  0  0  0  0  0  0  1  0  0
  -15.2256  -28.4851   24.3790 F   0  0  0  0  0  0  0  0  0  0  0  0
  -19.1474  -31.0477   25.0563 F   0  0  0  0  0  0  0  0  0  0  0  0
  1  2  1  0  0  0  0
  1  5  2  0  0  0  0
  2  6  2  0  0  0  0
  3  8  2  0  0  0  0
  3 17  1  0  0  0  0
  4  9  1  0  0  0  0
  4 17  2  0  0  0  0
  5 19  1  0  0  0  0
  6 21  1  0  0  0  0
  7 10  2  0  0  0  0
  7 20  1  0  0  0  0
  8 24  1  0  0  0  0
  9 24  2  0  0  0  0
 10 25  1  0  0  0  0
 11 12  2  0  0  0  0
 11 26  1  0  0  0  0
 12 27  1  0  0  0  0
 13 22  1  0  0  0  0
 13 25  2  0  0  0  0
 14 23  1  0  0  0  0
 14 30  2  0  0  0  0
 15 27  2  0  0  0  0
 15 28  1  0  0  0  0
 16 23  2  0  0  0  0
 16 67  1  0  0  0  0
 17 29  1  0  0  0  0
 18 29  1  0  0  0  0
 18 31  2  0  0  0  0
 18 32  1  0  0  0  0
 19 21  2  0  0  0  0
 19 37  1  0  0  0  0
 20 22  2  0  0  0  0
 20 38  1  0  0  0  0
 21 46  1  0  0  0  0
 22 39  1  0  0  0  0
 23 64  1  0  0  0  0
 24 82  1  0  0  0  0
 25 83  1  0  0  0  0
 26 28  2  0  0  0  0
 26 82  1  0  0  0  0
 27 84  1  0  0  0  0
 28 85  1  0  0  0  0
 29 66  2  0  0  0  0
 30 57  1  0  0  0  0
 30 67  1  0  0  0  0
 31 68  1  0  0  0  0
 31 71  1  0  0  0  0
 32 72  1  0  0  0  0
 32 77  2  0  0  0  0
 33 47  1  0  0  0  0
 33 73  1  0  0  0  0
 33 78  2  0  0  0  0
 34 62  1  0  0  0  0
 34 69  1  0  0  0  0
 34 79  2  0  0  0  0
 35 63  1  0  0  0  0
 35 74  1  0  0  0  0
 35 80  2  0  0  0  0
 36 70  1  0  0  0  0
 36 75  1  0  0  0  0
 36 81  2  0  0  0  0
 37 40  1  0  0  0  0
 38 47  1  0  0  0  0
 39 69  1  0  0  0  0
 40 42  1  0  0  0  0
 41 43  1  0  0  0  0
 41 44  1  0  0  0  0
 42 46  1  0  0  0  0
 43 48  1  0  0  0  0
 44 70  1  0  0  0  0
 45 48  1  0  0  0  0
 45 70  1  0  0  0  0
 46 73  1  0  0  0  0
 47 69  1  0  0  0  0
 48 68  1  0  0  0  0
 49 63  1  0  0  0  0
 50 64  1  0  0  0  0
 51 64  1  0  0  0  0
 52 64  1  0  0  0  0
 53 65  1  0  0  0  0
 54 65  1  0  0  0  0
 55 65  1  0  0  0  0
 56 76  1  0  0  0  0
 57 58  1  0  0  0  0
 58 60  1  0  0  0  0
 59 61  1  0  0  0  0
 59 67  1  0  0  0  0
 60 75  1  0  0  0  0
 61 83  1  0  0  0  0
 62 65  1  0  0  0  0
 62 74  1  0  0  0  0
 63 76  1  0  0  0  0
 66 68  1  0  0  0  0
M  CHG  1  76   1
M  ISO  4  36 100  61 101  75 100  83 101
M  END
> <Batch ID>
0086

> <Smiles>
CNC(C)C(=O)NC(C(=O)N1Cc2cc([101O:1][101CH2:1]Cn3cc(C(C)(C)C)cc3CCC[100NH:0][100C:0](=O)N3CCCC(n4nc(-c5ccc(Oc6ccc(F)cc6F)cc5)c(C(N)=O)c4N)C3)ccc2CC1C(=O)NC1CCCc2ccccc21)C(C)(C)C

> <Shape>
0.199

> <Color>
0.055

> <Negative vol penalty>
0.000

$$$$

  -OEChem-04052318593D

 93101  0     1  0  0  0  0  0999 V2000
  -24.0351  -10.8531   19.8134 C   0  0  0  0  0  0  0  0  0  0  0  0
  -23.5914  -12.0558   20.3539 C   0  0  0  0  0  0  0  0  0  0  0  0
  -25.4774  -29.2138   20.1700 C   0  0  0  0  0  0  0  0  0  0  0  0
  -25.2655  -26.8634   19.6529 C   0  0  0  0  0  0  0  0  0  0  0  0
  -25.3939  -10.5413   19.8314 C   0  0  0  0  0  0  0  0  0  0  0  0
  -24.5062  -12.9470   20.9137 C   0  0  0  0  0  0  0  0  0  0  0  0
  -23.6763  -17.7347   19.4875 C   0  0  0  0  0  0  0  0  0  0  0  0
  -26.8641  -29.0758   20.2294 C   0  0  0  0  0  0  0  0  0  0  0  0
  -26.6523  -26.7253   19.7122 C   0  0  0  0  0  0  0  0  0  0  0  0
  -22.6369  -18.4161   20.1192 C   0  0  0  0  0  0  0  0  0  0  0  0
  -29.1605  -27.9263   22.4270 C   0  0  0  0  0  0  0  0  0  0  0  0
  -29.8259  -28.5286   23.4947 C   0  0  0  0  0  0  0  0  0  0  0  0
  -24.2359  -19.5110   21.5558 C   0  0  0  0  0  0  0  0  0  0  0  0
  -19.0606  -21.9433   20.6495 C   0  0  0  0  0  0  0  0  0  0  0  0
  -21.1446  -22.9191   19.9503 C   0  0  0  0  0  0  0  0  0  0  0  0
  -31.1036  -29.8685   21.9425 C   0  0  0  0  0  0  0  0  0  0  0  0
  -24.6781  -28.1076   19.8818 C   0  0  0  0  0  0  0  0  0  0  0  0
  -22.4701  -28.5680   18.6899 C   0  0  0  0  0  0  0  0  0  0  0  0
  -26.3270  -11.4334   20.3830 C   0  0  0  0  0  0  0  0  0  0  0  0
  -25.0046  -17.9284   19.8932 C   0  0  0  0  0  0  0  0  0  0  0  0
  -25.8787  -12.6462   20.9402 C   0  0  0  0  0  0  0  0  0  0  0  0
  -25.2906  -18.8327   20.9259 C   0  0  0  0  0  0  0  0  0  0  0  0
  -20.3607  -22.3399   20.9420 C   0  0  0  0  0  0  0  0  0  0  0  0
  -27.4516  -27.8315   20.0005 C   0  0  0  0  0  0  0  0  0  0  0  0
  -22.9164  -19.3023   21.1554 C   0  0  0  0  0  0  0  0  0  0  0  0
  -29.4667  -28.2949   21.1170 C   0  0  0  0  0  0  0  0  0  0  0  0
  -30.7974  -29.4998   23.2524 C   0  0  0  0  0  0  0  0  0  0  0  0
  -30.4382  -29.2661   20.8748 C   0  0  0  0  0  0  0  0  0  0  0  0
  -23.2455  -28.2495   19.8208 C   0  0  0  0  0  0  0  0  0  0  0  0
  -18.5951  -22.1461   19.3604 C   0  0  0  0  0  0  0  0  0  0  0  0
  -20.5859  -23.0780   18.6923 C   0  0  0  0  0  0  0  0  0  0  0  0
  -21.1771  -28.5818   19.1528 C   0  0  0  0  0  0  0  0  0  0  0  0
  -22.8819  -28.8280   17.3413 C   0  0  0  0  0  0  0  0  0  0  0  0
  -27.2724  -16.0639   21.1116 C   0  0  0  0  0  0  0  0  0  0  0  0
  -29.1084  -18.7111   20.7321 C   0  0  0  0  0  0  0  0  0  0  0  0
  -29.2707  -22.1082   20.4495 C   0  0  0  0  0  0  0  0  0  0  0  0
  -17.0678  -26.3263   22.1813 C   0  0  0  0  0  0  0  0  0  0  0  0
  -27.7801  -11.0316   20.4222 C   0  0  0  0  0  0  0  0  0  0  0  0
  -26.1168  -17.2058   19.1837 C   0  0  0  0  0  0  0  0  0  0  0  0
  -26.7014  -19.0913   21.3855 C   0  0  0  0  0  0  0  0  0  0  0  0
  -28.7271  -12.1969   20.6968 C   0  0  0  0  0  0  0  0  0  0  0  0
  -19.3695  -28.4498   23.8753 C   0  0  0  0  0  0  0  0  0  0  0  0
  -28.2124  -13.0406   21.8588 C   0  0  0  0  0  0  0  0  0  0  0  0
  -20.5212  -28.6079   22.8811 C   0  0  0  0  0  0  0  0  0  0  0  0
  -18.7725  -27.0450   23.8287 C   0  0  0  0  0  0  0  0  0  0  0  0
  -19.5055  -26.7523   21.4940 C   0  0  0  0  0  0  0  0  0  0  0  0
  -26.8431  -13.6498   21.5341 C   0  0  1  0  0  0  0  0  0  0  0  0
  -27.3862  -17.0926   20.0223 C   0  0  1  0  0  0  0  0  0  0  0  0
  -20.1033  -28.1694   21.4646 C   0  0  2  0  0  0  0  0  0  0  0  0
  -30.2972  -24.3671   20.0737 C   0  0  0  0  0  0  0  0  0  0  0  0
  -16.3600  -23.8909   16.9457 C   0  0  0  0  0  0  0  0  0  0  0  0
  -19.9305  -21.4841   23.3423 C   0  0  0  0  0  0  0  0  0  0  0  0
  -21.3064  -23.5169   22.9520 C   0  0  0  0  0  0  0  0  0  0  0  0
  -22.6869  -22.8608   17.3197 C   0  0  0  0  0  0  0  0  0  0  0  0
  -21.8478  -25.1396   17.9822 C   0  0  0  0  0  0  0  0  0  0  0  0
  -20.6776  -23.8302   16.2222 C   0  0  0  0  0  0  0  0  0  0  0  0
  -29.8662  -18.4549   23.6766 C   0  0  0  0  0  0  0  0  0  0  0  0
  -30.6998  -20.8143   23.5954 C   0  0  0  0  0  0  0  0  0  0  0  0
  -31.7590  -19.0691   22.1619 C   0  0  0  0  0  0  0  0  0  0  0  0
  -13.9220  -24.9153   18.5767 C   0  0  0  0  0  0  0  0  0  0  0  0
  -15.6820  -26.6318   18.1426 C   0  0  0  0  0  0  0  0  0  0  0  0
  -28.8464  -21.9430   17.5251 C   0  0  0  0  0  0  0  0  0  0  0  0
  -17.2041  -21.7342   19.0108 C   0  0  0  0  0  0  0  0  0  0  0  0
  -16.1359  -22.8286   19.2315 C   0  0  0  0  0  0  0  0  0  0  0  0
  -15.4729  -25.6244   20.4142 C   0  0  0  0  0  0  0  0  0  0  0  0
  -22.2042  -21.2576   22.3067 C   0  0  0  0  0  0  0  0  0  1  0  0
  -29.4454  -19.9098   21.5856 C   0  0  1  0  0  0  0  0  0  0  0  0
  -30.0048  -23.0034   19.4675 C   0  0  2  0  0  0  0  0  0  0  0  0
  -16.3754  -24.1583   18.4614 C   0  0  2  0  0  0  0  0  0  0  0  0
  -20.9300  -22.1396   22.3590 C   0  0  0  0  0  0  0  0  0  0  0  0
  -21.3993  -23.6943   17.6036 C   0  0  0  0  0  0  0  0  0  0  0  0
  -30.4157  -19.5559   22.7478 C   0  0  0  0  0  0  0  0  0  0  0  0
  -15.3844  -25.3154   18.8926 C   0  0  0  0  0  0  0  0  0  0  0  0
  -22.5067  -28.0738   20.9197 N   0  0  0  0  0  0  0  0  0  0  0  0
  -19.3268  -22.7052   18.3707 N   0  0  0  0  0  0  0  0  0  0  0  0
  -21.2536  -28.2827   20.4813 N   0  0  0  0  0  0  0  0  0  0  0  0
  -27.7537  -18.3560   20.6648 N   0  0  0  0  0  0  0  0  0  0  0  0
  -18.3957  -26.6910   22.4581 N   0  0  0  0  0  0  0  0  0  0  0  0
  -19.9935  -28.8206   18.5491 N   0  0  0  0  0  0  0  0  0  0  0  0
  -24.2490  -28.7723   17.0376 N   0  0  0  0  0  0  0  0  0  0  0  0
  -26.9926  -14.7899   20.6554 N   0  0  0  0  0  0  0  0  0  0  0  0
  -29.9515  -20.9305   20.6743 N   0  0  0  0  0  0  0  0  0  0  0  0
  -16.7940  -26.0120   20.8558 N   0  0  0  0  0  0  0  0  0  0  0  0
  -29.1880  -23.2015   18.2368 N   0  3  0  0  0  0  0  0  0  0  0  0
  -22.0632  -29.1177   16.4361 O   0  0  0  0  0  0  0  0  0  0  0  0
  -27.4285  -16.4008   22.2794 O   0  0  0  0  0  0  0  0  0  0  0  0
  -30.0130  -18.1161   20.1410 O   0  0  0  0  0  0  0  0  0  0  0  0
  -28.2022  -22.4240   20.9682 O   0  0  0  0  0  0  0  0  0  0  0  0
  -16.1898  -26.2892   23.0501 O   0  0  0  0  0  0  0  0  0  0  0  0
  -28.8047  -27.6965   20.0581 O   0  0  0  0  0  0  0  0  0  0  0  0
  -21.9037  -19.9682   21.7741 O   0  0  0  0  0  0  0  0  0  1  0  0
  -31.4352  -30.0793   24.2779 F   0  0  0  0  0  0  0  0  0  0  0  0
  -30.7359  -29.6252   19.6185 F   0  0  0  0  0  0  0  0  0  0  0  0
  1  2  1  0  0  0  0
  1  5  2  0  0  0  0
  2  6  2  0  0  0  0
  3  8  2  0  0  0  0
  3 17  1  0  0  0  0
  4  9  1  0  0  0  0
  4 17  2  0  0  0  0
  5 19  1  0  0  0  0
  6 21  1  0  0  0  0
  7 10  2  0  0  0  0
  7 20  1  0  0  0  0
  8 24  1  0  0  0  0
  9 24  2  0  0  0  0
 10 25  1  0  0  0  0
 11 12  2  0  0  0  0
 11 26  1  0  0  0  0
 12 27  1  0  0  0  0
 13 22  1  0  0  0  0
 13 25  2  0  0  0  0
 14 23  1  0  0  0  0
 14 30  2  0  0  0  0
 15 23  2  0  0  0  0
 15 31  1  0  0  0  0
 16 27  2  0  0  0  0
 16 28  1  0  0  0  0
 17 29  1  0  0  0  0
 18 29  1  0  0  0  0
 18 32  2  0  0  0  0
 18 33  1  0  0  0  0
 19 21  2  0  0  0  0
 19 38  1  0  0  0  0
 20 22  2  0  0  0  0
 20 39  1  0  0  0  0
 21 47  1  0  0  0  0
 22 40  1  0  0  0  0
 23 70  1  0  0  0  0
 24 90  1  0  0  0  0
 25 91  1  0  0  0  0
 26 28  2  0  0  0  0
 26 90  1  0  0  0  0
 27 92  1  0  0  0  0
 28 93  1  0  0  0  0
 29 74  2  0  0  0  0
 30 63  1  0  0  0  0
 30 75  1  0  0  0  0
 31 71  1  0  0  0  0
 31 75  2  0  0  0  0
 32 76  1  0  0  0  0
 32 79  1  0  0  0  0
 33 80  1  0  0  0  0
 33 85  2  0  0  0  0
 34 48  1  0  0  0  0
 34 81  1  0  0  0  0
 34 86  2  0  0  0  0
 35 67  1  0  0  0  0
 35 77  1  0  0  0  0
 35 87  2  0  0  0  0
 36 68  1  0  0  0  0
 36 82  1  0  0  0  0
 36 88  2  0  0  0  0
 37 78  1  0  0  0  0
 37 83  1  0  0  0  0
 37 89  2  0  0  0  0
 38 41  1  0  0  0  0
 39 48  1  0  0  0  0
 40 77  1  0  0  0  0
 41 43  1  0  0  0  0
 42 44  1  0  0  0  0
 42 45  1  0  0  0  0
 43 47  1  0  0  0  0
 44 49  1  0  0  0  0
 45 78  1  0  0  0  0
 46 49  1  0  0  0  0
 46 78  1  0  0  0  0
 47 81  1  0  0  0  0
 48 77  1  0  0  0  0
 49 76  1  0  0  0  0
 50 68  1  0  0  0  0
 51 69  1  0  0  0  0
 52 70  1  0  0  0  0
 53 70  1  0  0  0  0
 54 71  1  0  0  0  0
 55 71  1  0  0  0  0
 56 71  1  0  0  0  0
 57 72  1  0  0  0  0
 58 72  1  0  0  0  0
 59 72  1  0  0  0  0
 60 73  1  0  0  0  0
 61 73  1  0  0  0  0
 62 84  1  0  0  0  0
 63 64  1  0  0  0  0
 64 69  1  0  0  0  0
 65 73  1  0  0  0  0
 65 83  1  0  0  0  0
 66 70  1  0  0  0  0
 66 91  1  0  0  0  0
 67 72  1  0  0  0  0
 67 82  1  0  0  0  0
 68 84  1  0  0  0  0
 69 73  1  0  0  0  0
 74 76  1  0  0  0  0
M  CHG  1  84   1
M  ISO  4  37 100  66 101  83 100  91 101
M  END
> <Batch ID>
0086

> <Smiles>
CNC(C)C(=O)NC(C(=O)N1Cc2cc([101O:1][101CH2:1]C(C)(C)c3cc(CCC(C)C(C)(C)C[100NH:0][100C:0](=O)N4CCCC(n5nc(-c6ccc(Oc7ccc(F)cc7F)cc6)c(C(N)=O)c5N)C4)nc(C(C)(C)C)c3)ccc2CC1C(=O)NC1CCCc2ccccc21)C(C)(C)C

> <Shape>
0.208

> <Color>
0.060

> <Negative vol penalty>
0.000

$$$$

  -OEChem-04052318593D

 92100  0     1  0  0  0  0  0999 V2000
  -19.2610  -29.2165   22.1079 C   0  0  0  0  0  0  0  0  0  0  0  0
  -20.4501  -28.5475   22.3793 C   0  0  0  0  0  0  0  0  0  0  0  0
  -27.6379  -23.2720   20.8179 C   0  0  0  0  0  0  0  0  0  0  0  0
  -28.6557  -23.2212   18.6273 C   0  0  0  0  0  0  0  0  0  0  0  0
  -18.0531  -28.5201   22.1159 C   0  0  0  0  0  0  0  0  0  0  0  0
  -20.4320  -27.1817   22.6600 C   0  0  0  0  0  0  0  0  0  0  0  0
  -24.3683  -21.2562   21.8171 C   0  0  0  0  0  0  0  0  0  0  0  0
  -27.7213  -24.6643   20.8244 C   0  0  0  0  0  0  0  0  0  0  0  0
  -28.7391  -24.6136   18.6338 C   0  0  0  0  0  0  0  0  0  0  0  0
  -24.8932  -20.1976   22.5570 C   0  0  0  0  0  0  0  0  0  0  0  0
  -27.3363  -28.2523   21.2641 C   0  0  0  0  0  0  0  0  0  0  0  0
  -26.2175  -28.9669   21.6920 C   0  0  0  0  0  0  0  0  0  0  0  0
  -22.7565  -19.0817   22.4650 C   0  0  0  0  0  0  0  0  0  0  0  0
  -27.9970  -13.3108   21.4280 C   0  0  0  0  0  0  0  0  0  0  0  0
  -26.0296  -13.1026   22.7957 C   0  0  0  0  0  0  0  0  0  0  0  0
  -24.9095  -27.9834   19.9147 C   0  0  0  0  0  0  0  0  0  0  0  0
  -28.1052  -22.5504   19.7194 C   0  0  0  0  0  0  0  0  0  0  0  0
  -26.9539  -20.3261   19.2350 C   0  0  0  0  0  0  0  0  0  0  0  0
  -18.0212  -27.1432   22.3874 C   0  0  0  0  0  0  0  0  0  0  0  0
  -23.0282  -21.2406   21.4042 C   0  0  0  0  0  0  0  0  0  0  0  0
  -19.2225  -26.4665   22.6730 C   0  0  0  0  0  0  0  0  0  0  0  0
  -22.2177  -20.1402   21.7177 C   0  0  0  0  0  0  0  0  0  0  0  0
  -27.3142  -13.5990   22.6045 C   0  0  0  0  0  0  0  0  0  0  0  0
  -28.2719  -25.3351   19.7324 C   0  0  0  0  0  0  0  0  0  0  0  0
  -24.0865  -19.1114   22.8835 C   0  0  0  0  0  0  0  0  0  0  0  0
  -27.2417  -27.4032   20.1614 C   0  0  0  0  0  0  0  0  0  0  0  0
  -25.0041  -28.8325   21.0174 C   0  0  0  0  0  0  0  0  0  0  0  0
  -26.0283  -27.2688   19.4867 C   0  0  0  0  0  0  0  0  0  0  0  0
  -28.0199  -21.1121   19.7123 C   0  0  0  0  0  0  0  0  0  0  0  0
  -27.3560  -12.5281   20.4813 C   0  0  0  0  0  0  0  0  0  0  0  0
  -25.4766  -12.3293   21.7877 C   0  0  0  0  0  0  0  0  0  0  0  0
  -27.3581  -19.0314   19.4518 C   0  0  0  0  0  0  0  0  0  0  0  0
  -25.7098  -20.7301   18.6481 C   0  0  0  0  0  0  0  0  0  0  0  0
  -20.4883  -23.0692   21.9598 C   0  0  0  0  0  0  0  0  0  0  0  0
  -19.1089  -21.1546   19.7340 C   0  0  0  0  0  0  0  0  0  0  0  0
  -19.0759  -18.1494   18.1171 C   0  0  0  0  0  0  0  0  0  0  0  0
  -31.2722  -15.0579   19.2598 C   0  0  0  0  0  0  0  0  0  0  0  0
  -16.6863  -26.4426   22.4313 C   0  0  0  0  0  0  0  0  0  0  0  0
  -22.4845  -22.3780   20.5838 C   0  0  0  0  0  0  0  0  0  0  0  0
  -20.7782  -20.0656   21.2810 C   0  0  0  0  0  0  0  0  0  0  0  0
  -16.7945  -24.9212   22.3695 C   0  0  0  0  0  0  0  0  0  0  0  0
  -31.2565  -17.1998   22.1039 C   0  0  0  0  0  0  0  0  0  0  0  0
  -17.8679  -24.4228   23.3320 C   0  0  0  0  0  0  0  0  0  0  0  0
  -30.3306  -18.3461   21.6935 C   0  0  0  0  0  0  0  0  0  0  0  0
  -32.0897  -16.6981   20.9266 C   0  0  0  0  0  0  0  0  0  0  0  0
  -30.3844  -17.4672   19.3221 C   0  0  0  0  0  0  0  0  0  0  0  0
  -19.2465  -24.9804   22.9577 C   0  0  1  0  0  0  0  0  0  0  0  0
  -20.9651  -22.4940   20.6561 C   0  0  1  0  0  0  0  0  0  0  0  0
  -29.4833  -17.9695   20.4632 C   0  0  2  0  0  0  0  0  0  0  0  0
  -17.8064  -16.8629   16.3763 C   0  0  0  0  0  0  0  0  0  0  0  0
  -26.4080  -13.0237   17.4788 C   0  0  0  0  0  0  0  0  0  0  0  0
  -23.0553  -12.9260   22.1439 C   0  0  0  0  0  0  0  0  0  0  0  0
  -24.0102  -10.8557   23.2108 C   0  0  0  0  0  0  0  0  0  0  0  0
  -23.5668  -10.9212   20.7653 C   0  0  0  0  0  0  0  0  0  0  0  0
  -16.8870  -20.6173   21.7550 C   0  0  0  0  0  0  0  0  0  0  0  0
  -16.1949  -18.6520   20.3667 C   0  0  0  0  0  0  0  0  0  0  0  0
  -16.1008  -20.9516   19.4045 C   0  0  0  0  0  0  0  0  0  0  0  0
  -29.0015  -11.7997   16.2671 C   0  0  0  0  0  0  0  0  0  0  0  0
  -28.6043  -14.2162   15.8294 C   0  0  0  0  0  0  0  0  0  0  0  0
  -21.4516  -17.9531   16.3631 C   0  0  0  0  0  0  0  0  0  0  0  0
  -27.9649  -14.4456   23.6693 C   0  0  0  0  0  0  0  0  0  0  0  0
  -28.0589  -12.1972   19.2073 C   0  0  0  0  0  0  0  0  0  0  0  0
  -27.6982  -15.9471   23.5153 C   0  0  0  0  0  0  0  0  0  0  0  0
  -26.2186  -16.3093   23.6511 C   0  0  0  0  0  0  0  0  0  0  0  0
  -30.3455  -13.5272   17.5401 C   0  0  0  0  0  0  0  0  0  0  0  0
  -25.9879  -17.8013   23.4530 C   0  0  0  0  0  0  0  0  0  1  0  0
  -18.3478  -19.8513   19.7687 C   0  0  1  0  0  0  0  0  0  0  0  0
  -18.9744  -17.7995   16.6435 C   0  0  2  0  0  0  0  0  0  0  0  0
  -27.8265  -13.2188   18.0491 C   0  0  1  0  0  0  0  0  0  0  0  0
  -24.0991  -11.7817   21.9585 C   0  0  0  0  0  0  0  0  0  0  0  0
  -16.9092  -20.0200   20.3338 C   0  0  0  0  0  0  0  0  0  0  0  0
  -28.9554  -13.1935   16.9383 C   0  0  0  0  0  0  0  0  0  0  0  0
  -29.0255  -20.3781   20.1960 N   0  0  0  0  0  0  0  0  0  0  0  0
  -26.1090  -12.0281   20.6314 N   0  0  0  0  0  0  0  0  0  0  0  0
  -28.5932  -19.1173   20.0239 N   0  0  0  0  0  0  0  0  0  0  0  0
  -20.2911  -21.2052   20.4862 N   0  0  0  0  0  0  0  0  0  0  0  0
  -31.2263  -16.3565   19.7935 N   0  0  0  0  0  0  0  0  0  0  0  0
  -26.7738  -17.8393   19.2072 N   0  0  0  0  0  0  0  0  0  0  0  0
  -25.4551  -22.1002   18.4988 N   0  0  0  0  0  0  0  0  0  0  0  0
  -19.7950  -24.2575   21.8304 N   0  0  0  0  0  0  0  0  0  0  0  0
  -18.3983  -19.3130   18.4137 N   0  0  0  0  0  0  0  0  0  0  0  0
  -30.4172  -14.8162   18.1915 N   0  0  0  0  0  0  0  0  0  0  0  0
  -20.2254  -17.1342   16.1816 N   0  3  0  0  0  0  0  0  0  0  0  0
  -24.8424  -19.9010   18.2822 O   0  0  0  0  0  0  0  0  0  0  0  0
  -20.7302  -22.4779   23.0055 O   0  0  0  0  0  0  0  0  0  0  0  0
  -18.6744  -22.0909   19.0586 O   0  0  0  0  0  0  0  0  0  0  0  0
  -19.6915  -17.4575   18.9252 O   0  0  0  0  0  0  0  0  0  0  0  0
  -32.0158  -14.1777   19.7060 O   0  0  0  0  0  0  0  0  0  0  0  0
  -28.3532  -26.6937   19.7383 O   0  0  0  0  0  0  0  0  0  0  0  0
  -24.5962  -18.0771   23.6062 O   0  0  0  0  0  0  0  0  0  1  0  0
  -23.9294  -29.5177   21.4293 F   0  0  0  0  0  0  0  0  0  0  0  0
  -25.9310  -26.4537   18.4275 F   0  0  0  0  0  0  0  0  0  0  0  0
  1  2  1  0  0  0  0
  1  5  2  0  0  0  0
  2  6  2  0  0  0  0
  3  8  2  0  0  0  0
  3 17  1  0  0  0  0
  4  9  1  0  0  0  0
  4 17  2  0  0  0  0
  5 19  1  0  0  0  0
  6 21  1  0  0  0  0
  7 10  2  0  0  0  0
  7 20  1  0  0  0  0
  8 24  1  0  0  0  0
  9 24  2  0  0  0  0
 10 25  1  0  0  0  0
 11 12  2  0  0  0  0
 11 26  1  0  0  0  0
 12 27  1  0  0  0  0
 13 22  1  0  0  0  0
 13 25  2  0  0  0  0
 14 23  1  0  0  0  0
 14 30  2  0  0  0  0
 15 23  2  0  0  0  0
 15 31  1  0  0  0  0
 16 27  2  0  0  0  0
 16 28  1  0  0  0  0
 17 29  1  0  0  0  0
 18 29  1  0  0  0  0
 18 32  2  0  0  0  0
 18 33  1  0  0  0  0
 19 21  2  0  0  0  0
 19 38  1  0  0  0  0
 20 22  2  0  0  0  0
 20 39  1  0  0  0  0
 21 47  1  0  0  0  0
 22 40  1  0  0  0  0
 23 61  1  0  0  0  0
 24 89  1  0  0  0  0
 25 90  1  0  0  0  0
 26 28  2  0  0  0  0
 26 89  1  0  0  0  0
 27 91  1  0  0  0  0
 28 92  1  0  0  0  0
 29 73  2  0  0  0  0
 30 62  1  0  0  0  0
 30 74  1  0  0  0  0
 31 70  1  0  0  0  0
 31 74  2  0  0  0  0
 32 75  1  0  0  0  0
 32 78  1  0  0  0  0
 33 79  1  0  0  0  0
 33 84  2  0  0  0  0
 34 48  1  0  0  0  0
 34 80  1  0  0  0  0
 34 85  2  0  0  0  0
 35 67  1  0  0  0  0
 35 76  1  0  0  0  0
 35 86  2  0  0  0  0
 36 68  1  0  0  0  0
 36 81  1  0  0  0  0
 36 87  2  0  0  0  0
 37 77  1  0  0  0  0
 37 82  1  0  0  0  0
 37 88  2  0  0  0  0
 38 41  1  0  0  0  0
 39 48  1  0  0  0  0
 40 76  1  0  0  0  0
 41 43  1  0  0  0  0
 42 44  1  0  0  0  0
 42 45  1  0  0  0  0
 43 47  1  0  0  0  0
 44 49  1  0  0  0  0
 45 77  1  0  0  0  0
 46 49  1  0  0  0  0
 46 77  1  0  0  0  0
 47 80  1  0  0  0  0
 48 76  1  0  0  0  0
 49 75  1  0  0  0  0
 50 68  1  0  0  0  0
 51 69  1  0  0  0  0
 52 70  1  0  0  0  0
 53 70  1  0  0  0  0
 54 70  1  0  0  0  0
 55 71  1  0  0  0  0
 56 71  1  0  0  0  0
 57 71  1  0  0  0  0
 58 72  1  0  0  0  0
 59 72  1  0  0  0  0
 60 83  1  0  0  0  0
 61 63  1  0  0  0  0
 62 69  1  0  0  0  0
 63 64  1  0  0  0  0
 64 66  1  0  0  0  0
 65 72  1  0  0  0  0
 65 82  1  0  0  0  0
 66 90  1  0  0  0  0
 67 71  1  0  0  0  0
 67 81  1  0  0  0  0
 68 83  1  0  0  0  0
 69 72  1  0  0  0  0
 73 75  1  0  0  0  0
M  CHG  1  83   1
M  ISO  4  37 100  66 101  82 100  90 101
M  END
> <Batch ID>
0086

> <Smiles>
CNC(C)C(=O)NC(C(=O)N1Cc2cc([101O:1][101CH2:1]CCCc3cc(CC(C)C(C)(C)C[100NH:0][100C:0](=O)N4CCCC(n5nc(-c6ccc(Oc7ccc(F)cc7F)cc6)c(C(N)=O)c5N)C4)nc(C(C)(C)C)c3)ccc2CC1C(=O)NC1CCCc2ccccc21)C(C)(C)C

> <Shape>
0.229

> <Color>
0.095

> <Negative vol penalty>
0.000

$$$$

  -OEChem-04052318593D

 84 92  0     1  0  0  0  0  0999 V2000
  -33.7947  -16.2880   25.4616 C   0  0  0  0  0  0  0  0  0  0  0  0
  -32.8532  -17.2838   25.7012 C   0  0  0  0  0  0  0  0  0  0  0  0
  -28.4110  -26.0294   20.2513 C   0  0  0  0  0  0  0  0  0  0  0  0
  -26.7705  -25.4407   18.5782 C   0  0  0  0  0  0  0  0  0  0  0  0
  -33.7341  -15.5413   24.2858 C   0  0  0  0  0  0  0  0  0  0  0  0
  -31.8511  -17.5342   24.7644 C   0  0  0  0  0  0  0  0  0  0  0  0
  -25.0140  -19.6270   24.3274 C   0  0  0  0  0  0  0  0  0  0  0  0
  -29.1855  -24.9309   19.8785 C   0  0  0  0  0  0  0  0  0  0  0  0
  -27.5450  -24.3421   18.2054 C   0  0  0  0  0  0  0  0  0  0  0  0
  -24.2148  -20.5673   23.6786 C   0  0  0  0  0  0  0  0  0  0  0  0
  -28.9138  -21.1774   17.0560 C   0  0  0  0  0  0  0  0  0  0  0  0
  -28.2611  -19.9602   16.8613 C   0  0  0  0  0  0  0  0  0  0  0  0
  -24.1613  -19.1610   21.7194 C   0  0  0  0  0  0  0  0  0  0  0  0
  -27.5010  -20.0010   19.1543 C   0  0  0  0  0  0  0  0  0  0  0  0
  -27.2035  -26.2843   19.6012 C   0  0  0  0  0  0  0  0  0  0  0  0
  -26.4692  -28.7234   19.4616 C   0  0  0  0  0  0  0  0  0  0  0  0
  -32.7250  -15.7761   23.3386 C   0  0  0  0  0  0  0  0  0  0  0  0
  -25.4026  -18.4497   23.6721 C   0  0  0  0  0  0  0  0  0  0  0  0
  -31.7777  -16.7908   23.5742 C   0  0  0  0  0  0  0  0  0  0  0  0
  -24.9634  -18.2062   22.3629 C   0  0  0  0  0  0  0  0  0  0  0  0
  -22.1995  -24.0916   20.5180 C   0  0  0  0  0  0  0  0  0  0  0  0
  -21.7859  -23.2937   21.6131 C   0  0  0  0  0  0  0  0  0  0  0  0
  -28.7525  -24.0872   18.8556 C   0  0  0  0  0  0  0  0  0  0  0  0
  -23.7907  -20.3357   22.3734 C   0  0  0  0  0  0  0  0  0  0  0  0
  -28.8602  -21.8064   18.2999 C   0  0  0  0  0  0  0  0  0  0  0  0
  -27.5547  -19.3720   17.9104 C   0  0  0  0  0  0  0  0  0  0  0  0
  -28.1537  -21.2182   19.3490 C   0  0  0  0  0  0  0  0  0  0  0  0
  -26.4028  -27.4187   19.9862 C   0  0  0  0  0  0  0  0  0  0  0  0
  -21.0785  -24.7164   20.0177 C   0  0  0  0  0  0  0  0  0  0  0  0
  -20.4246  -23.4549   21.7485 C   0  0  0  0  0  0  0  0  0  0  0  0
  -25.5106  -29.4213   20.1548 C   0  0  0  0  0  0  0  0  0  0  0  0
  -27.3211  -29.2567   18.4392 C   0  0  0  0  0  0  0  0  0  0  0  0
  -28.1840  -17.1773   22.8070 C   0  0  0  0  0  0  0  0  0  0  0  0
  -26.3255  -14.6540   21.9696 C   0  0  0  0  0  0  0  0  0  0  0  0
  -23.2457  -13.5003   21.0584 C   0  0  0  0  0  0  0  0  0  0  0  0
  -20.5008  -27.7578   22.9808 C   0  0  0  0  0  0  0  0  0  0  0  0
  -32.7284  -14.9752   22.0606 C   0  0  0  0  0  0  0  0  0  0  0  0
  -26.2428  -17.4331   24.3952 C   0  0  0  0  0  0  0  0  0  0  0  0
  -25.3360  -16.9487   21.6225 C   0  0  0  0  0  0  0  0  0  0  0  0
  -31.4120  -15.0503   21.2913 C   0  0  0  0  0  0  0  0  0  0  0  0
  -23.2659  -29.5117   24.3790 C   0  0  0  0  0  0  0  0  0  0  0  0
  -30.9286  -16.4942   21.2000 C   0  0  0  0  0  0  0  0  0  0  0  0
  -24.3893  -29.2919   23.3644 C   0  0  0  0  0  0  0  0  0  0  0  0
  -22.3768  -28.2774   24.5129 C   0  0  0  0  0  0  0  0  0  0  0  0
  -22.9476  -27.5517   22.2278 C   0  0  0  0  0  0  0  0  0  0  0  0
  -30.6609  -17.0755   22.5935 C   0  0  1  0  0  0  0  0  0  0  0  0
  -27.0039  -16.5069   23.4516 C   0  0  1  0  0  0  0  0  0  0  0  0
  -23.8375  -28.7886   22.0170 C   0  0  2  0  0  0  0  0  0  0  0  0
  -23.5783  -24.2311   20.0058 C   0  0  0  0  0  0  0  0  0  0  0  0
  -20.9372  -25.6559   18.8848 C   0  0  0  0  0  0  0  0  0  0  0  0
  -19.4859  -22.8560   22.7214 C   0  0  0  0  0  0  0  0  0  0  0  0
  -22.0451  -11.3967   20.4021 C   0  0  0  0  0  0  0  0  0  0  0  0
  -16.6255  -25.8448   21.6148 C   0  0  0  0  0  0  0  0  0  0  0  0
  -27.6063  -14.7888   19.2035 C   0  0  0  0  0  0  0  0  0  0  0  0
  -25.7446  -13.3500   18.3479 C   0  0  0  0  0  0  0  0  0  0  0  0
  -27.2932  -12.4739   20.0964 C   0  0  0  0  0  0  0  0  0  0  0  0
  -21.4033  -13.6938   23.3664 C   0  0  0  0  0  0  0  0  0  0  0  0
  -22.6653  -22.4287   22.4673 C   0  0  0  0  0  0  0  0  0  1  0  0
  -18.6379  -24.7525   20.5711 C   0  0  0  0  0  0  0  0  0  0  0  0
  -18.7314  -27.2159   21.3271 C   0  0  0  0  0  0  0  0  0  0  0  0
  -25.5905  -14.2360   20.7190 C   0  0  1  0  0  0  0  0  0  0  0  0
  -22.4266  -12.3200   21.5487 C   0  0  2  0  0  0  0  0  0  0  0  0
  -18.1579  -25.8126   21.5857 C   0  0  1  0  0  0  0  0  0  0  0  0
  -26.5531  -13.7369   19.6047 C   0  0  0  0  0  0  0  0  0  0  0  0
  -25.4754  -27.2926   20.9391 N   0  0  0  0  0  0  0  0  0  0  0  0
  -20.0054  -24.3217   20.7732 N   0  0  0  0  0  0  0  0  0  0  0  0
  -24.9503  -28.5271   21.0189 N   0  0  0  0  0  0  0  0  0  0  0  0
  -26.1642  -15.9880   22.3699 N   0  0  0  0  0  0  0  0  0  0  0  0
  -21.8850  -27.8524   23.2001 N   0  0  0  0  0  0  0  0  0  0  0  0
  -25.1007  -30.7065   20.1034 N   0  0  0  0  0  0  0  0  0  0  0  0
  -28.2500  -28.4019   17.8303 N   0  0  0  0  0  0  0  0  0  0  0  0
  -29.3983  -16.5912   23.1091 N   0  0  0  0  0  0  0  0  0  0  0  0
  -24.5995  -13.2508   21.1381 N   0  0  0  0  0  0  0  0  0  0  0  0
  -20.1197  -27.3540   21.7071 N   0  0  0  0  0  0  0  0  0  0  0  0
  -21.1761  -12.7946   22.2059 N   0  3  0  0  0  0  0  0  0  0  0  0
  -27.2717  -30.4599   18.0878 O   0  0  0  0  0  0  0  0  0  0  0  0
  -28.0059  -18.1533   22.0876 O   0  0  0  0  0  0  0  0  0  0  0  0
  -27.0117  -13.8254   22.5733 O   0  0  0  0  0  0  0  0  0  0  0  0
  -22.7356  -14.5382   20.6425 O   0  0  0  0  0  0  0  0  0  0  0  0
  -19.6663  -28.0195   23.8538 O   0  0  0  0  0  0  0  0  0  0  0  0
  -29.5080  -23.0153   18.4914 O   0  0  0  0  0  0  0  0  0  0  0  0
  -23.0111  -21.2521   21.7376 O   0  0  0  0  0  0  0  0  0  1  0  0
  -26.9267  -18.2038   17.7228 F   0  0  0  0  0  0  0  0  0  0  0  0
  -28.0976  -21.8183   20.5459 F   0  0  0  0  0  0  0  0  0  0  0  0
  1  2  1  0  0  0  0
  1  5  2  0  0  0  0
  2  6  2  0  0  0  0
  3  8  2  0  0  0  0
  3 15  1  0  0  0  0
  4  9  1  0  0  0  0
  4 15  2  0  0  0  0
  5 17  1  0  0  0  0
  6 19  1  0  0  0  0
  7 10  2  0  0  0  0
  7 18  1  0  0  0  0
  8 23  1  0  0  0  0
  9 23  2  0  0  0  0
 10 24  1  0  0  0  0
 11 12  2  0  0  0  0
 11 25  1  0  0  0  0
 12 26  1  0  0  0  0
 13 20  1  0  0  0  0
 13 24  2  0  0  0  0
 14 26  2  0  0  0  0
 14 27  1  0  0  0  0
 15 28  1  0  0  0  0
 16 28  1  0  0  0  0
 16 31  2  0  0  0  0
 16 32  1  0  0  0  0
 17 19  2  0  0  0  0
 17 37  1  0  0  0  0
 18 20  2  0  0  0  0
 18 38  1  0  0  0  0
 19 46  1  0  0  0  0
 20 39  1  0  0  0  0
 21 22  1  0  0  0  0
 21 29  2  0  0  0  0
 21 49  1  0  0  0  0
 22 30  2  0  0  0  0
 22 58  1  0  0  0  0
 23 81  1  0  0  0  0
 24 82  1  0  0  0  0
 25 27  2  0  0  0  0
 25 81  1  0  0  0  0
 26 83  1  0  0  0  0
 27 84  1  0  0  0  0
 28 65  2  0  0  0  0
 29 50  1  0  0  0  0
 29 66  1  0  0  0  0
 30 51  1  0  0  0  0
 30 66  1  0  0  0  0
 31 67  1  0  0  0  0
 31 70  1  0  0  0  0
 32 71  1  0  0  0  0
 32 76  2  0  0  0  0
 33 47  1  0  0  0  0
 33 72  1  0  0  0  0
 33 77  2  0  0  0  0
 34 61  1  0  0  0  0
 34 68  1  0  0  0  0
 34 78  2  0  0  0  0
 35 62  1  0  0  0  0
 35 73  1  0  0  0  0
 35 79  2  0  0  0  0
 36 69  1  0  0  0  0
 36 74  1  0  0  0  0
 36 80  2  0  0  0  0
 37 40  1  0  0  0  0
 38 47  1  0  0  0  0
 39 68  1  0  0  0  0
 40 42  1  0  0  0  0
 41 43  1  0  0  0  0
 41 44  1  0  0  0  0
 42 46  1  0  0  0  0
 43 48  1  0  0  0  0
 44 69  1  0  0  0  0
 45 48  1  0  0  0  0
 45 69  1  0  0  0  0
 46 72  1  0  0  0  0
 47 68  1  0  0  0  0
 48 67  1  0  0  0  0
 52 62  1  0  0  0  0
 53 63  1  0  0  0  0
 54 64  1  0  0  0  0
 55 64  1  0  0  0  0
 56 64  1  0  0  0  0
 57 75  1  0  0  0  0
 58 82  1  0  0  0  0
 59 63  1  0  0  0  0
 59 66  1  0  0  0  0
 60 63  1  0  0  0  0
 60 74  1  0  0  0  0
 61 64  1  0  0  0  0
 61 73  1  0  0  0  0
 62 75  1  0  0  0  0
 65 67  1  0  0  0  0
M  CHG  1  75   1
M  ISO  4  36 100  58 101  74 100  82 101
M  END
> <Batch ID>
0086

> <Smiles>
CNC(C)C(=O)NC(C(=O)N1Cc2cc([101O:1][101CH2:1]c3c(C)c(C)n(CC(C)C[100NH:0][100C:0](=O)N4CCCC(n5nc(-c6ccc(Oc7ccc(F)cc7F)cc6)c(C(N)=O)c5N)C4)c3C)ccc2CC1C(=O)NC1CCCc2ccccc21)C(C)(C)C

> <Shape>
0.216

> <Color>
0.056

> <Negative vol penalty>
0.000

$$$$

  -OEChem-04052318593D

 85 93  0     1  0  0  0  0  0999 V2000
  -18.1325  -19.7778   20.6350 C   0  0  0  0  0  0  0  0  0  0  0  0
  -19.3807  -19.3976   21.1177 C   0  0  0  0  0  0  0  0  0  0  0  0
  -23.2868   -9.8004   19.9125 C   0  0  0  0  0  0  0  0  0  0  0  0
  -23.7350   -9.9416   22.2824 C   0  0  0  0  0  0  0  0  0  0  0  0
  -17.2954  -20.5711   21.4184 C   0  0  0  0  0  0  0  0  0  0  0  0
  -19.7930  -19.8117   22.3838 C   0  0  0  0  0  0  0  0  0  0  0  0
  -21.9095  -16.0683   25.0582 C   0  0  0  0  0  0  0  0  0  0  0  0
  -28.7375  -16.8522   24.9065 C   0  0  0  0  0  0  0  0  0  0  0  0
  -22.5594   -8.6284   20.1199 C   0  0  0  0  0  0  0  0  0  0  0  0
  -23.0076   -8.7696   22.4898 C   0  0  0  0  0  0  0  0  0  0  0  0
  -23.2259  -15.7297   24.7482 C   0  0  0  0  0  0  0  0  0  0  0  0
  -20.2811   -5.7961   20.0710 C   0  0  0  0  0  0  0  0  0  0  0  0
  -19.0544   -5.6703   19.4191 C   0  0  0  0  0  0  0  0  0  0  0  0
  -29.9766  -16.4323   24.4355 C   0  0  0  0  0  0  0  0  0  0  0  0
  -23.9956  -17.0166   26.6378 C   0  0  0  0  0  0  0  0  0  0  0  0
  -18.2478   -7.6435   20.5562 C   0  0  0  0  0  0  0  0  0  0  0  0
  -23.8746  -10.4570   20.9937 C   0  0  0  0  0  0  0  0  0  0  0  0
  -24.1359  -12.9867   20.7945 C   0  0  0  0  0  0  0  0  0  0  0  0
  -17.6937  -20.9871   22.6987 C   0  0  0  0  0  0  0  0  0  0  0  0
  -21.6265  -16.8939   26.1559 C   0  0  0  0  0  0  0  0  0  0  0  0
  -18.9610  -20.6125   23.1846 C   0  0  0  0  0  0  0  0  0  0  0  0
  -22.6745  -17.3621   26.9612 C   0  0  0  0  0  0  0  0  0  0  0  0
  -27.9139  -15.9541   25.5762 C   0  0  0  0  0  0  0  0  0  0  0  0
  -22.4198   -8.1130   21.4085 C   0  0  0  0  0  0  0  0  0  0  0  0
  -24.2694  -16.2062   25.5363 C   0  0  0  0  0  0  0  0  0  0  0  0
  -20.4912   -6.8456   20.9655 C   0  0  0  0  0  0  0  0  0  0  0  0
  -18.0377   -6.5940   19.6617 C   0  0  0  0  0  0  0  0  0  0  0  0
  -19.4745   -7.7693   21.2081 C   0  0  0  0  0  0  0  0  0  0  0  0
  -24.6266  -11.6673   20.7801 C   0  0  0  0  0  0  0  0  0  0  0  0
  -30.3424  -15.1146   24.6581 C   0  0  0  0  0  0  0  0  0  0  0  0
  -28.3720  -14.6578   25.7475 C   0  0  0  0  0  0  0  0  0  0  0  0
  -25.2382  -13.7658   20.5404 C   0  0  0  0  0  0  0  0  0  0  0  0
  -22.8029  -13.4653   21.0176 C   0  0  0  0  0  0  0  0  0  0  0  0
  -20.2769  -19.7477   26.5272 C   0  0  0  0  0  0  0  0  0  0  0  0
  -20.5781  -19.0474   29.6802 C   0  0  0  0  0  0  0  0  0  0  0  0
  -22.1925  -17.2830   32.1148 C   0  0  0  0  0  0  0  0  0  0  0  0
  -31.1077  -12.9192   21.3670 C   0  0  0  0  0  0  0  0  0  0  0  0
  -16.7740  -21.8832   23.4897 C   0  0  0  0  0  0  0  0  0  0  0  0
  -20.1992  -17.2281   26.4928 C   0  0  0  0  0  0  0  0  0  0  0  0
  -22.4225  -18.2349   28.1625 C   0  0  0  0  0  0  0  0  0  0  0  0
  -17.1322  -21.9683   24.9712 C   0  0  0  0  0  0  0  0  0  0  0  0
  -29.4627  -13.6585   18.2971 C   0  0  0  0  0  0  0  0  0  0  0  0
  -18.6311  -22.1902   25.1461 C   0  0  0  0  0  0  0  0  0  0  0  0
  -27.9925  -13.3511   18.5866 C   0  0  0  0  0  0  0  0  0  0  0  0
  -30.3946  -12.6788   19.0069 C   0  0  0  0  0  0  0  0  0  0  0  0
  -28.7057  -12.2512   20.7500 C   0  0  0  0  0  0  0  0  0  0  0  0
  -19.4338  -21.0210   24.5629 C   0  0  1  0  0  0  0  0  0  0  0  0
  -20.0641  -18.4959   27.3305 C   0  0  1  0  0  0  0  0  0  0  0  0
  -27.7291  -13.2468   20.1009 C   0  0  2  0  0  0  0  0  0  0  0  0
  -32.7894  -14.8901   25.1928 C   0  0  0  0  0  0  0  0  0  0  0  0
  -22.2423  -16.9497   34.6015 C   0  0  0  0  0  0  0  0  0  0  0  0
  -27.3426  -12.0635   24.4761 C   0  0  0  0  0  0  0  0  0  0  0  0
  -25.7230  -11.8887   26.3761 C   0  0  0  0  0  0  0  0  0  0  0  0
  -22.0230  -21.7150   30.0065 C   0  0  0  0  0  0  0  0  0  0  0  0
  -22.8623  -20.9098   32.2235 C   0  0  0  0  0  0  0  0  0  0  0  0
  -20.4113  -21.1705   31.8396 C   0  0  0  0  0  0  0  0  0  0  0  0
  -21.5139  -14.4136   31.8604 C   0  0  0  0  0  0  0  0  0  0  0  0
  -26.5751  -16.4010   26.0856 C   0  0  0  0  0  0  0  0  0  1  0  0
  -27.5314  -13.6510   26.4620 C   0  0  0  0  0  0  0  0  0  0  0  0
  -31.6670  -13.1335   23.7754 C   0  0  0  0  0  0  0  0  0  0  0  0
  -31.6662  -14.6306   24.1677 C   0  0  1  0  0  0  0  0  0  0  0  0
  -21.6444  -19.2646   30.7265 C   0  0  1  0  0  0  0  0  0  0  0  0
  -21.6686  -16.4629   33.2799 C   0  0  2  0  0  0  0  0  0  0  0  0
  -26.5775  -12.8486   25.5445 C   0  0  0  0  0  0  0  0  0  0  0  0
  -21.7405  -20.7501   31.1753 C   0  0  0  0  0  0  0  0  0  0  0  0
  -25.9384  -11.6077   20.5360 N   0  0  0  0  0  0  0  0  0  0  0  0
  -29.5693  -14.2133   25.3043 N   0  0  0  0  0  0  0  0  0  0  0  0
  -26.2814  -12.8994   20.3946 N   0  0  0  0  0  0  0  0  0  0  0  0
  -21.0104  -18.5390   28.4471 N   0  0  0  0  0  0  0  0  0  0  0  0
  -30.0936  -12.6281   20.4396 N   0  0  0  0  0  0  0  0  0  0  0  0
  -25.4071  -15.1005   20.4296 N   0  0  0  0  0  0  0  0  0  0  0  0
  -21.7895  -12.5291   21.2643 N   0  0  0  0  0  0  0  0  0  0  0  0
  -19.4054  -19.8891   25.4643 N   0  0  0  0  0  0  0  0  0  0  0  0
  -21.3507  -18.3312   31.8086 N   0  0  0  0  0  0  0  0  0  0  0  0
  -30.7364  -12.8544   22.7044 N   0  0  0  0  0  0  0  0  0  0  0  0
  -22.0336  -15.0282   33.1090 N   0  3  0  0  0  0  0  0  0  0  0  0
  -22.5159  -14.6859   20.9825 O   0  0  0  0  0  0  0  0  0  0  0  0
  -21.1651  -20.5284   26.8490 O   0  0  0  0  0  0  0  0  0  0  0  0
  -19.4038  -19.3122   29.9495 O   0  0  0  0  0  0  0  0  0  0  0  0
  -23.2453  -17.0222   31.5367 O   0  0  0  0  0  0  0  0  0  0  0  0
  -32.2573  -13.2201   21.0280 O   0  0  0  0  0  0  0  0  0  0  0  0
  -21.7099   -6.9696   21.6113 O   0  0  0  0  0  0  0  0  0  0  0  0
  -25.5553  -15.8778   25.2355 O   0  0  0  0  0  0  0  0  0  1  0  0
  -16.8603   -6.4739   19.0345 F   0  0  0  0  0  0  0  0  0  0  0  0
  -19.6708   -8.7803   22.0655 F   0  0  0  0  0  0  0  0  0  0  0  0
  1  2  1  0  0  0  0
  1  5  2  0  0  0  0
  2  6  2  0  0  0  0
  3  9  2  0  0  0  0
  3 17  1  0  0  0  0
  4 10  1  0  0  0  0
  4 17  2  0  0  0  0
  5 19  1  0  0  0  0
  6 21  1  0  0  0  0
  7 11  2  0  0  0  0
  7 20  1  0  0  0  0
  8 14  2  0  0  0  0
  8 23  1  0  0  0  0
  9 24  1  0  0  0  0
 10 24  2  0  0  0  0
 11 25  1  0  0  0  0
 12 13  2  0  0  0  0
 12 26  1  0  0  0  0
 13 27  1  0  0  0  0
 14 30  1  0  0  0  0
 15 22  1  0  0  0  0
 15 25  2  0  0  0  0
 16 27  2  0  0  0  0
 16 28  1  0  0  0  0
 17 29  1  0  0  0  0
 18 29  1  0  0  0  0
 18 32  2  0  0  0  0
 18 33  1  0  0  0  0
 19 21  2  0  0  0  0
 19 38  1  0  0  0  0
 20 22  2  0  0  0  0
 20 39  1  0  0  0  0
 21 47  1  0  0  0  0
 22 40  1  0  0  0  0
 23 31  2  0  0  0  0
 23 58  1  0  0  0  0
 24 82  1  0  0  0  0
 25 83  1  0  0  0  0
 26 28  2  0  0  0  0
 26 82  1  0  0  0  0
 27 84  1  0  0  0  0
 28 85  1  0  0  0  0
 29 66  2  0  0  0  0
 30 61  1  0  0  0  0
 30 67  2  0  0  0  0
 31 59  1  0  0  0  0
 31 67  1  0  0  0  0
 32 68  1  0  0  0  0
 32 71  1  0  0  0  0
 33 72  1  0  0  0  0
 33 77  2  0  0  0  0
 34 48  1  0  0  0  0
 34 73  1  0  0  0  0
 34 78  2  0  0  0  0
 35 62  1  0  0  0  0
 35 69  1  0  0  0  0
 35 79  2  0  0  0  0
 36 63  1  0  0  0  0
 36 74  1  0  0  0  0
 36 80  2  0  0  0  0
 37 70  1  0  0  0  0
 37 75  1  0  0  0  0
 37 81  2  0  0  0  0
 38 41  1  0  0  0  0
 39 48  1  0  0  0  0
 40 69  1  0  0  0  0
 41 43  1  0  0  0  0
 42 44  1  0  0  0  0
 42 45  1  0  0  0  0
 43 47  1  0  0  0  0
 44 49  1  0  0  0  0
 45 70  1  0  0  0  0
 46 49  1  0  0  0  0
 46 70  1  0  0  0  0
 47 73  1  0  0  0  0
 48 69  1  0  0  0  0
 49 68  1  0  0  0  0
 50 61  1  0  0  0  0
 51 63  1  0  0  0  0
 52 64  1  0  0  0  0
 53 64  1  0  0  0  0
 54 65  1  0  0  0  0
 55 65  1  0  0  0  0
 56 65  1  0  0  0  0
 57 76  1  0  0  0  0
 58 83  1  0  0  0  0
 59 64  1  0  0  0  0
 60 61  1  0  0  0  0
 60 75  1  0  0  0  0
 62 65  1  0  0  0  0
 62 74  1  0  0  0  0
 63 76  1  0  0  0  0
 66 68  1  0  0  0  0
M  CHG  1  76   1
M  ISO  4  37 100  58 101  75 100  83 101
M  END
> <Batch ID>
0086

> <Smiles>
CNC(C)C(=O)NC(C(=O)N1Cc2cc([101O:1][101CH2:1]c3ccc(C(C)C[100NH:0][100C:0](=O)N4CCCC(n5nc(-c6ccc(Oc7ccc(F)cc7F)cc6)c(C(N)=O)c5N)C4)nc3CC(C)C)ccc2CC1C(=O)NC1CCCc2ccccc21)C(C)(C)C

> <Shape>
0.118

> <Color>
0.170

> <Negative vol penalty>
0.000

$$$$

  -OEChem-04052318593D

 83 91  0     1  0  0  0  0  0999 V2000
  -20.6773  -20.4549   25.3899 C   0  0  0  0  0  0  0  0  0  0  0  0
  -22.0341  -20.6936   25.1966 C   0  0  0  0  0  0  0  0  0  0  0  0
  -27.1461  -12.5044   21.6156 C   0  0  0  0  0  0  0  0  0  0  0  0
  -26.5847  -13.8213   19.6694 C   0  0  0  0  0  0  0  0  0  0  0  0
  -19.7323  -21.2012   24.6871 C   0  0  0  0  0  0  0  0  0  0  0  0
  -22.4468  -21.6781   24.2994 C   0  0  0  0  0  0  0  0  0  0  0  0
  -27.3492  -25.3115   24.8196 C   0  0  0  0  0  0  0  0  0  0  0  0
  -26.3359  -11.4693   21.1489 C   0  0  0  0  0  0  0  0  0  0  0  0
  -25.7745  -12.7862   19.2027 C   0  0  0  0  0  0  0  0  0  0  0  0
  -28.6280  -25.2460   24.2682 C   0  0  0  0  0  0  0  0  0  0  0  0
  -24.1310   -8.6216   20.6464 C   0  0  0  0  0  0  0  0  0  0  0  0
  -23.2762   -8.0033   21.5589 C   0  0  0  0  0  0  0  0  0  0  0  0
  -27.9365  -26.7371   22.5025 C   0  0  0  0  0  0  0  0  0  0  0  0
  -28.8335  -23.3900   20.2301 C   0  0  0  0  0  0  0  0  0  0  0  0
  -22.1807  -10.1179   21.9654 C   0  0  0  0  0  0  0  0  0  0  0  0
  -27.2705  -13.6804   20.8758 C   0  0  0  0  0  0  0  0  0  0  0  0
  -29.4759  -14.9438   21.0934 C   0  0  0  0  0  0  0  0  0  0  0  0
  -20.1334  -22.2019   23.7881 C   0  0  0  0  0  0  0  0  0  0  0  0
  -26.3497  -26.0830   24.2095 C   0  0  0  0  0  0  0  0  0  0  0  0
  -21.5063  -22.4376   23.5829 C   0  0  0  0  0  0  0  0  0  0  0  0
  -26.6465  -26.8128   23.0496 C   0  0  0  0  0  0  0  0  0  0  0  0
  -30.2019  -23.2176   20.1182 C   0  0  0  0  0  0  0  0  0  0  0  0
  -25.6501  -11.6102   19.9425 C   0  0  0  0  0  0  0  0  0  0  0  0
  -28.9210  -25.9565   23.1078 C   0  0  0  0  0  0  0  0  0  0  0  0
  -24.0107   -9.9881   20.3935 C   0  0  0  0  0  0  0  0  0  0  0  0
  -22.3010   -8.7515   22.2184 C   0  0  0  0  0  0  0  0  0  0  0  0
  -23.0355  -10.7362   21.0529 C   0  0  0  0  0  0  0  0  0  0  0  0
  -28.1068  -14.7503   21.3576 C   0  0  0  0  0  0  0  0  0  0  0  0
  -28.0300  -22.2737   20.1130 C   0  0  0  0  0  0  0  0  0  0  0  0
  -30.6763  -21.9403   19.8968 C   0  0  0  0  0  0  0  0  0  0  0  0
  -29.7984  -16.0914   21.7758 C   0  0  0  0  0  0  0  0  0  0  0  0
  -30.3758  -14.1568   20.3019 C   0  0  0  0  0  0  0  0  0  0  0  0
  -23.5196  -25.4604   22.9031 C   0  0  0  0  0  0  0  0  0  0  0  0
  -23.3332  -28.6932   22.7109 C   0  0  0  0  0  0  0  0  0  0  0  0
  -24.9669  -31.6864   22.5754 C   0  0  0  0  0  0  0  0  0  0  0  0
  -26.5730  -20.7971   23.5936 C   0  0  0  0  0  0  0  0  0  0  0  0
  -19.0760  -22.9505   23.0160 C   0  0  0  0  0  0  0  0  0  0  0  0
  -24.9827  -26.1644   24.8317 C   0  0  0  0  0  0  0  0  0  0  0  0
  -25.6145  -27.6718   22.3674 C   0  0  0  0  0  0  0  0  0  0  0  0
  -19.5904  -24.2309   22.3631 C   0  0  0  0  0  0  0  0  0  0  0  0
  -28.5407  -18.6362   25.6272 C   0  0  0  0  0  0  0  0  0  0  0  0
  -20.9132  -23.9718   21.6490 C   0  0  0  0  0  0  0  0  0  0  0  0
  -28.7762  -17.4128   24.7397 C   0  0  0  0  0  0  0  0  0  0  0  0
  -27.1468  -19.2243   25.4194 C   0  0  0  0  0  0  0  0  0  0  0  0
  -27.0453  -18.3153   23.1309 C   0  0  0  0  0  0  0  0  0  0  0  0
  -21.9929  -23.5138   22.6368 C   0  0  1  0  0  0  0  0  0  0  0  0
  -23.8980  -26.5727   23.8397 C   0  0  1  0  0  0  0  0  0  0  0  0
  -28.4577  -17.7207   23.2642 C   0  0  2  0  0  0  0  0  0  0  0  0
  -32.1385  -21.6781   19.7645 C   0  0  0  0  0  0  0  0  0  0  0  0
  -24.5469  -34.1529   22.3829 C   0  0  0  0  0  0  0  0  0  0  0  0
  -22.7360  -28.3569   19.7376 C   0  0  0  0  0  0  0  0  0  0  0  0
  -23.2664  -30.7840   19.4278 C   0  0  0  0  0  0  0  0  0  0  0  0
  -21.3616  -30.1017   20.8869 C   0  0  0  0  0  0  0  0  0  0  0  0
  -26.2447  -32.2257   25.1899 C   0  0  0  0  0  0  0  0  0  0  0  0
  -31.1248  -24.4039   20.2389 C   0  0  0  0  0  0  0  0  0  0  0  0
  -26.5497  -22.4052   20.2253 C   0  0  0  0  0  0  0  0  0  0  0  0
  -31.8466  -24.4881   21.5856 C   0  0  0  0  0  0  0  0  0  0  0  0
  -26.0253  -22.2513   21.6585 C   0  0  0  0  0  0  0  0  0  0  0  0
  -30.9022  -24.6862   22.7655 C   0  0  0  0  0  0  0  0  0  1  0  0
  -23.7309  -29.7279   21.6861 C   0  0  1  0  0  0  0  0  0  0  0  0
  -24.7557  -32.9845   23.3336 C   0  0  2  0  0  0  0  0  0  0  0  0
  -22.7928  -29.7250   20.4462 C   0  0  0  0  0  0  0  0  0  0  0  0
  -27.5947  -15.6987   22.1465 N   0  0  0  0  0  0  0  0  0  0  0  0
  -28.5216  -21.0353   19.8963 N   0  0  0  0  0  0  0  0  0  0  0  0
  -29.8665  -20.8659   19.7866 N   0  0  0  0  0  0  0  0  0  0  0  0
  -28.6477  -16.4993   22.3839 N   0  0  0  0  0  0  0  0  0  0  0  0
  -24.2909  -27.7140   23.0106 N   0  0  0  0  0  0  0  0  0  0  0  0
  -26.9086  -19.4949   23.9995 N   0  0  0  0  0  0  0  0  0  0  0  0
  -30.9511  -16.7811   21.9092 N   0  0  0  0  0  0  0  0  0  0  0  0
  -29.8797  -13.0088   19.6691 N   0  0  0  0  0  0  0  0  0  0  0  0
  -22.5115  -24.6433   23.3782 N   0  0  0  0  0  0  0  0  0  0  0  0
  -23.7833  -31.0032   22.3928 N   0  0  0  0  0  0  0  0  0  0  0  0
  -26.3702  -20.9685   22.2297 N   0  0  0  0  0  0  0  0  0  0  0  0
  -25.9377  -33.2817   24.1911 N   0  3  0  0  0  0  0  0  0  0  0  0
  -31.5878  -14.4534   20.1733 O   0  0  0  0  0  0  0  0  0  0  0  0
  -24.0982  -25.3524   21.8283 O   0  0  0  0  0  0  0  0  0  0  0  0
  -22.2168  -28.7557   23.2317 O   0  0  0  0  0  0  0  0  0  0  0  0
  -26.0710  -31.3174   22.1812 O   0  0  0  0  0  0  0  0  0  0  0  0
  -26.4674  -21.7384   24.3871 O   0  0  0  0  0  0  0  0  0  0  0  0
  -24.8596  -10.6003   19.4867 O   0  0  0  0  0  0  0  0  0  0  0  0
  -30.1683  -25.8938   22.5672 O   0  0  0  0  0  0  0  0  0  1  0  0
  -21.4792   -8.1573   23.0935 F   0  0  0  0  0  0  0  0  0  0  0  0
  -22.9144  -12.0491   20.8132 F   0  0  0  0  0  0  0  0  0  0  0  0
  1  2  1  0  0  0  0
  1  5  2  0  0  0  0
  2  6  2  0  0  0  0
  3  8  2  0  0  0  0
  3 16  1  0  0  0  0
  4  9  1  0  0  0  0
  4 16  2  0  0  0  0
  5 18  1  0  0  0  0
  6 20  1  0  0  0  0
  7 10  2  0  0  0  0
  7 19  1  0  0  0  0
  8 23  1  0  0  0  0
  9 23  2  0  0  0  0
 10 24  1  0  0  0  0
 11 12  2  0  0  0  0
 11 25  1  0  0  0  0
 12 26  1  0  0  0  0
 13 21  1  0  0  0  0
 13 24  2  0  0  0  0
 14 22  1  0  0  0  0
 14 29  2  0  0  0  0
 15 26  2  0  0  0  0
 15 27  1  0  0  0  0
 16 28  1  0  0  0  0
 17 28  1  0  0  0  0
 17 31  2  0  0  0  0
 17 32  1  0  0  0  0
 18 20  2  0  0  0  0
 18 37  1  0  0  0  0
 19 21  2  0  0  0  0
 19 38  1  0  0  0  0
 20 46  1  0  0  0  0
 21 39  1  0  0  0  0
 22 30  2  0  0  0  0
 22 55  1  0  0  0  0
 23 80  1  0  0  0  0
 24 81  1  0  0  0  0
 25 27  2  0  0  0  0
 25 80  1  0  0  0  0
 26 82  1  0  0  0  0
 27 83  1  0  0  0  0
 28 63  2  0  0  0  0
 29 56  1  0  0  0  0
 29 64  1  0  0  0  0
 30 49  1  0  0  0  0
 30 65  1  0  0  0  0
 31 66  1  0  0  0  0
 31 69  1  0  0  0  0
 32 70  1  0  0  0  0
 32 75  2  0  0  0  0
 33 47  1  0  0  0  0
 33 71  1  0  0  0  0
 33 76  2  0  0  0  0
 34 60  1  0  0  0  0
 34 67  1  0  0  0  0
 34 77  2  0  0  0  0
 35 61  1  0  0  0  0
 35 72  1  0  0  0  0
 35 78  2  0  0  0  0
 36 68  1  0  0  0  0
 36 73  1  0  0  0  0
 36 79  2  0  0  0  0
 37 40  1  0  0  0  0
 38 47  1  0  0  0  0
 39 67  1  0  0  0  0
 40 42  1  0  0  0  0
 41 43  1  0  0  0  0
 41 44  1  0  0  0  0
 42 46  1  0  0  0  0
 43 48  1  0  0  0  0
 44 68  1  0  0  0  0
 45 48  1  0  0  0  0
 45 68  1  0  0  0  0
 46 71  1  0  0  0  0
 47 67  1  0  0  0  0
 48 66  1  0  0  0  0
 50 61  1  0  0  0  0
 51 62  1  0  0  0  0
 52 62  1  0  0  0  0
 53 62  1  0  0  0  0
 54 74  1  0  0  0  0
 55 57  1  0  0  0  0
 56 58  1  0  0  0  0
 57 59  1  0  0  0  0
 58 73  1  0  0  0  0
 59 81  1  0  0  0  0
 60 62  1  0  0  0  0
 60 72  1  0  0  0  0
 61 74  1  0  0  0  0
 63 66  1  0  0  0  0
 64 65  2  0  0  0  0
M  CHG  1  74   1
M  ISO  4  36 100  59 101  73 100  81 101
M  END
> <Batch ID>
0086

> <Smiles>
CNC(C)C(=O)NC(C(=O)N1Cc2cc([101O:1][101CH2:1]CCc3cc(CC[100NH:0][100C:0](=O)N4CCCC(n5nc(-c6ccc(Oc7ccc(F)cc7F)cc6)c(C(N)=O)c5N)C4)nnc3C)ccc2CC1C(=O)NC1CCCc2ccccc21)C(C)(C)C

> <Shape>
0.220

> <Color>
0.075

> <Negative vol penalty>
0.000

$$$$

  -OEChem-04052318593D

 95103  0     1  0  0  0  0  0999 V2000
  -17.4149  -27.4010   23.4994 C   0  0  0  0  0  0  0  0  0  0  0  0
  -18.3713  -26.8147   22.6766 C   0  0  0  0  0  0  0  0  0  0  0  0
  -27.2501  -11.2852   20.4434 C   0  0  0  0  0  0  0  0  0  0  0  0
  -26.1168  -13.2757   19.6747 C   0  0  0  0  0  0  0  0  0  0  0  0
  -17.4485  -28.7745   23.7365 C   0  0  0  0  0  0  0  0  0  0  0  0
  -19.3612  -27.6019   22.0894 C   0  0  0  0  0  0  0  0  0  0  0  0
  -23.9596  -25.5062   22.4186 C   0  0  0  0  0  0  0  0  0  0  0  0
  -26.1102  -10.5299   20.1682 C   0  0  0  0  0  0  0  0  0  0  0  0
  -24.9769  -12.5204   19.3995 C   0  0  0  0  0  0  0  0  0  0  0  0
  -24.2564  -24.4786   21.5243 C   0  0  0  0  0  0  0  0  0  0  0  0
  -23.3755   -8.1387   20.0044 C   0  0  0  0  0  0  0  0  0  0  0  0
  -22.9621   -7.2131   20.9625 C   0  0  0  0  0  0  0  0  0  0  0  0
  -25.4723  -26.0392   20.1440 C   0  0  0  0  0  0  0  0  0  0  0  0
  -22.7002   -8.9960   22.5718 C   0  0  0  0  0  0  0  0  0  0  0  0
  -27.8539  -21.5691   20.9418 C   0  0  0  0  0  0  0  0  0  0  0  0
  -27.2534  -12.6582   20.1967 C   0  0  0  0  0  0  0  0  0  0  0  0
  -29.5010  -13.7119   19.6088 C   0  0  0  0  0  0  0  0  0  0  0  0
  -18.4451  -29.5774   23.1597 C   0  0  0  0  0  0  0  0  0  0  0  0
  -24.4083  -26.8124   22.1762 C   0  0  0  0  0  0  0  0  0  0  0  0
  -19.4074  -28.9877   22.3179 C   0  0  0  0  0  0  0  0  0  0  0  0
  -25.1819  -27.0811   21.0380 C   0  0  0  0  0  0  0  0  0  0  0  0
  -24.9736  -11.1475   19.6463 C   0  0  0  0  0  0  0  0  0  0  0  0
  -25.0104  -24.7456   20.3853 C   0  0  0  0  0  0  0  0  0  0  0  0
  -23.4514   -9.4929   20.3300 C   0  0  0  0  0  0  0  0  0  0  0  0
  -22.6244   -7.6418   22.2462 C   0  0  0  0  0  0  0  0  0  0  0  0
  -23.1136   -9.9216   21.6137 C   0  0  0  0  0  0  0  0  0  0  0  0
  -28.4304  -13.4390   20.4813 C   0  0  0  0  0  0  0  0  0  0  0  0
  -28.5311  -20.7524   21.8028 C   0  0  0  0  0  0  0  0  0  0  0  0
  -30.3588  -14.4875   20.3499 C   0  0  0  0  0  0  0  0  0  0  0  0
  -28.0026  -19.5668   20.0096 C   0  0  0  0  0  0  0  0  0  0  0  0
  -29.7021  -13.3011   18.2500 C   0  0  0  0  0  0  0  0  0  0  0  0
  -22.9927  -29.6151   21.6817 C   0  0  0  0  0  0  0  0  0  0  0  0
  -26.0362  -30.7318   21.7936 C   0  0  0  0  0  0  0  0  0  0  0  0
  -29.3696  -30.0994   21.4265 C   0  0  0  0  0  0  0  0  0  0  0  0
  -29.5557  -18.0952   25.0606 C   0  0  0  0  0  0  0  0  0  0  0  0
  -18.4125  -31.0648   23.4072 C   0  0  0  0  0  0  0  0  0  0  0  0
  -24.1022  -27.9044   23.1643 C   0  0  0  0  0  0  0  0  0  0  0  0
  -25.7047  -28.4623   20.7425 C   0  0  0  0  0  0  0  0  0  0  0  0
  -19.7173  -31.7709   23.0477 C   0  0  0  0  0  0  0  0  0  0  0  0
  -31.7341  -15.2859   24.8623 C   0  0  0  0  0  0  0  0  0  0  0  0
  -20.2155  -31.3090   21.6819 C   0  0  0  0  0  0  0  0  0  0  0  0
  -31.2310  -14.5186   23.6383 C   0  0  0  0  0  0  0  0  0  0  0  0
  -30.5845  -15.9184   25.6436 C   0  0  0  0  0  0  0  0  0  0  0  0
  -29.1829  -16.0030   23.6182 C   0  0  0  0  0  0  0  0  0  0  0  0
  -20.5117  -29.8044   21.6828 C   0  0  1  0  0  0  0  0  0  0  0  0
  -24.1752  -29.3005   22.5536 C   0  0  1  0  0  0  0  0  0  0  0  0
  -30.3103  -15.3942   22.7671 C   0  0  2  0  0  0  0  0  0  0  0  0
  -32.8944  -21.6928   22.2078 C   0  0  0  0  0  0  0  0  0  0  0  0
  -31.6121  -31.2193   21.5467 C   0  0  0  0  0  0  0  0  0  0  0  0
  -31.2625  -20.3452   15.8037 C   0  0  0  0  0  0  0  0  0  0  0  0
  -30.6700  -17.9228   15.5992 C   0  0  0  0  0  0  0  0  0  0  0  0
  -26.6450  -21.8880   24.9342 C   0  0  0  0  0  0  0  0  0  0  0  0
  -26.3806  -19.5161   25.6956 C   0  0  0  0  0  0  0  0  0  0  0  0
  -25.5164  -32.0567   19.0946 C   0  0  0  0  0  0  0  0  0  0  0  0
  -27.9911  -32.3298   18.8306 C   0  0  0  0  0  0  0  0  0  0  0  0
  -26.8073  -33.4590   20.7138 C   0  0  0  0  0  0  0  0  0  0  0  0
  -24.6902  -21.8521   17.3815 C   0  0  0  0  0  0  0  0  0  0  0  0
  -24.6085  -20.0511   19.1063 C   0  0  0  0  0  0  0  0  0  0  0  0
  -30.2747  -28.3122   23.6050 C   0  0  0  0  0  0  0  0  0  0  0  0
  -27.8783  -18.4320   19.0611 C   0  0  0  0  0  0  0  0  0  0  0  0
  -31.3837  -21.8726   22.1579 C   0  0  0  0  0  0  0  0  0  0  0  0
  -29.1505  -18.1427   18.2361 C   0  0  0  0  0  0  0  0  0  0  0  0
  -30.6799  -20.9074   23.1178 C   0  0  0  0  0  0  0  0  0  0  0  0
  -29.6160  -19.3591   17.4254 C   0  0  0  0  0  0  0  0  0  0  0  0
  -26.7869  -21.3068   18.6283 C   0  0  0  0  0  0  0  0  0  0  0  0
  -24.8016  -22.4446   19.8217 C   0  0  0  0  0  0  0  0  0  1  0  0
  -29.1102  -21.0064   23.1245 C   0  0  2  0  0  0  0  0  0  0  0  0
  -27.1319  -30.9525   20.7790 C   0  0  1  0  0  0  0  0  0  0  0  0
  -30.5604  -30.4281   22.3088 C   0  0  2  0  0  0  0  0  0  0  0  0
  -30.8708  -19.0827   16.5756 C   0  0  0  0  0  0  0  0  0  0  0  0
  -26.9511  -20.4216   24.5996 C   0  0  0  0  0  0  0  0  0  0  0  0
  -28.4697  -20.2068   24.3392 C   0  0  1  0  0  0  0  0  0  0  0  0
  -26.8504  -32.1738   19.8588 C   0  0  0  0  0  0  0  0  0  0  0  0
  -25.2379  -21.4126   18.7584 C   0  0  0  0  0  0  0  0  0  0  0  0
  -28.5912  -13.9959   21.6847 N   0  0  0  0  0  0  0  0  0  0  0  0
  -27.5395  -20.8096   19.8407 N   0  0  0  0  0  0  0  0  0  0  0  0
  -29.7728  -14.6263   21.5736 N   0  0  0  0  0  0  0  0  0  0  0  0
  -28.6083  -19.5198   21.2006 N   0  3  0  0  0  0  0  0  0  0  0  0
  -25.3735  -29.4976   21.7354 N   0  0  0  0  0  0  0  0  0  0  0  0
  -29.7506  -16.7369   24.7601 N   0  0  0  0  0  0  0  0  0  0  0  0
  -31.5495  -15.0574   20.0676 N   0  0  0  0  0  0  0  0  0  0  0  0
  -28.7218  -12.5065   17.6401 N   0  0  0  0  0  0  0  0  0  0  0  0
  -21.7767  -29.5387   22.3337 N   0  0  0  0  0  0  0  0  0  0  0  0
  -28.3756  -31.0487   21.5356 N   0  0  0  0  0  0  0  0  0  0  0  0
  -28.7572  -18.8001   24.1684 N   0  0  0  0  0  0  0  0  0  0  0  0
  -31.1902  -29.1765   22.8163 N   0  3  0  0  0  0  0  0  0  0  0  0
  -30.7287  -13.6153   17.6012 O   0  0  0  0  0  0  0  0  0  0  0  0
  -23.1704  -29.9070   20.5049 O   0  0  0  0  0  0  0  0  0  0  0  0
  -25.7825  -31.6189   22.6124 O   0  0  0  0  0  0  0  0  0  0  0  0
  -29.3272  -29.1023   20.7092 O   0  0  0  0  0  0  0  0  0  0  0  0
  -30.0606  -18.6405   26.0478 O   0  0  0  0  0  0  0  0  0  0  0  0
  -23.8612  -10.4107   19.3774 O   0  0  0  0  0  0  0  0  0  0  0  0
  -25.3011  -23.7446   19.5105 O   0  0  0  0  0  0  0  0  0  1  0  0
  -22.2259   -6.7530   23.1657 F   0  0  0  0  0  0  0  0  0  0  0  0
  -23.1834  -11.2214   21.9320 F   0  0  0  0  0  0  0  0  0  0  0  0
  1  2  1  0  0  0  0
  1  5  2  0  0  0  0
  2  6  2  0  0  0  0
  3  8  2  0  0  0  0
  3 16  1  0  0  0  0
  4  9  1  0  0  0  0
  4 16  2  0  0  0  0
  5 18  1  0  0  0  0
  6 20  1  0  0  0  0
  7 10  2  0  0  0  0
  7 19  1  0  0  0  0
  8 22  1  0  0  0  0
  9 22  2  0  0  0  0
 10 23  1  0  0  0  0
 11 12  2  0  0  0  0
 11 24  1  0  0  0  0
 12 25  1  0  0  0  0
 13 21  1  0  0  0  0
 13 23  2  0  0  0  0
 14 25  2  0  0  0  0
 14 26  1  0  0  0  0
 15 28  2  0  0  0  0
 15 76  1  0  0  0  0
 16 27  1  0  0  0  0
 17 27  1  0  0  0  0
 17 29  2  0  0  0  0
 17 31  1  0  0  0  0
 18 20  2  0  0  0  0
 18 36  1  0  0  0  0
 19 21  2  0  0  0  0
 19 37  1  0  0  0  0
 20 45  1  0  0  0  0
 21 38  1  0  0  0  0
 22 92  1  0  0  0  0
 23 93  1  0  0  0  0
 24 26  2  0  0  0  0
 24 92  1  0  0  0  0
 25 94  1  0  0  0  0
 26 95  1  0  0  0  0
 27 75  2  0  0  0  0
 28 67  1  0  0  0  0
 28 78  1  0  0  0  0
 29 77  1  0  0  0  0
 29 81  1  0  0  0  0
 30 60  1  0  0  0  0
 30 76  1  0  0  0  0
 30 78  2  0  0  0  0
 31 82  1  0  0  0  0
 31 87  2  0  0  0  0
 32 46  1  0  0  0  0
 32 83  1  0  0  0  0
 32 88  2  0  0  0  0
 33 68  1  0  0  0  0
 33 79  1  0  0  0  0
 33 89  2  0  0  0  0
 34 69  1  0  0  0  0
 34 84  1  0  0  0  0
 34 90  2  0  0  0  0
 35 80  1  0  0  0  0
 35 85  1  0  0  0  0
 35 91  2  0  0  0  0
 36 39  1  0  0  0  0
 37 46  1  0  0  0  0
 38 79  1  0  0  0  0
 39 41  1  0  0  0  0
 40 42  1  0  0  0  0
 40 43  1  0  0  0  0
 41 45  1  0  0  0  0
 42 47  1  0  0  0  0
 43 80  1  0  0  0  0
 44 47  1  0  0  0  0
 44 80  1  0  0  0  0
 45 83  1  0  0  0  0
 46 79  1  0  0  0  0
 47 77  1  0  0  0  0
 48 61  1  0  0  0  0
 49 69  1  0  0  0  0
 50 70  1  0  0  0  0
 51 70  1  0  0  0  0
 52 71  1  0  0  0  0
 53 71  1  0  0  0  0
 54 73  1  0  0  0  0
 55 73  1  0  0  0  0
 56 73  1  0  0  0  0
 57 74  1  0  0  0  0
 58 74  1  0  0  0  0
 59 86  1  0  0  0  0
 60 62  1  0  0  0  0
 61 63  1  0  0  0  0
 62 64  1  0  0  0  0
 63 67  1  0  0  0  0
 64 70  1  0  0  0  0
 65 74  1  0  0  0  0
 65 76  1  0  0  0  0
 66 74  1  0  0  0  0
 66 93  1  0  0  0  0
 67 72  1  0  0  0  0
 68 73  1  0  0  0  0
 68 84  1  0  0  0  0
 69 86  1  0  0  0  0
 71 72  1  0  0  0  0
 72 85  1  0  0  0  0
 75 77  1  0  0  0  0
M  CHG  2  78   1  86   1
M  ISO  4  35 100  66 101  85 100  93 101
M  END
> <Batch ID>
0086

> <Smiles>
CCCC(c1cn(CC(C)(C)[101CH2:1][101O:1]c2ccc3c(c2)CN(C(=O)C(NC(=O)C(C)NC)C(C)(C)C)C(C(=O)NC2CCCc4ccccc42)C3)c(CCCC(C)C)n1)C([100NH:0][100C:0](=O)N1CCCC(n2nc(-c3ccc(Oc4ccc(F)cc4F)cc3)c(C(N)=O)c2N)C1)C(C)C

> <Shape>
0.266

> <Color>
0.050

> <Negative vol penalty>
0.000

$$$$

  -OEChem-04052318593D

 87 95  0     1  0  0  0  0  0999 V2000
  -15.9052  -27.5953   13.8221 C   0  0  0  0  0  0  0  0  0  0  0  0
  -16.3534  -26.4031   14.3818 C   0  0  0  0  0  0  0  0  0  0  0  0
  -24.0143   -9.8473   22.3723 C   0  0  0  0  0  0  0  0  0  0  0  0
  -24.4167  -11.4742   24.1126 C   0  0  0  0  0  0  0  0  0  0  0  0
  -16.7062  -28.7351   13.8787 C   0  0  0  0  0  0  0  0  0  0  0  0
  -17.6034  -26.3497   14.9974 C   0  0  0  0  0  0  0  0  0  0  0  0
  -21.0399  -23.1105   20.3838 C   0  0  0  0  0  0  0  0  0  0  0  0
  -23.5602   -8.9379   23.3274 C   0  0  0  0  0  0  0  0  0  0  0  0
  -23.9625  -10.5647   25.0677 C   0  0  0  0  0  0  0  0  0  0  0  0
  -22.1995  -22.3788   20.6364 C   0  0  0  0  0  0  0  0  0  0  0  0
  -20.9913   -9.4230   26.2031 C   0  0  0  0  0  0  0  0  0  0  0  0
  -20.1122   -9.8943   27.1781 C   0  0  0  0  0  0  0  0  0  0  0  0
  -23.4634  -24.4306   20.7445 C   0  0  0  0  0  0  0  0  0  0  0  0
  -21.6885   -9.2721   28.9001 C   0  0  0  0  0  0  0  0  0  0  0  0
  -24.4426  -11.1155   22.7649 C   0  0  0  0  0  0  0  0  0  0  0  0
  -24.1452  -13.0009   21.0724 C   0  0  0  0  0  0  0  0  0  0  0  0
  -17.9626  -28.6981   14.5039 C   0  0  0  0  0  0  0  0  0  0  0  0
  -21.0854  -24.5094   20.2987 C   0  0  0  0  0  0  0  0  0  0  0  0
  -18.4225  -27.4897   15.0612 C   0  0  0  0  0  0  0  0  0  0  0  0
  -22.3025  -25.1779   20.4933 C   0  0  0  0  0  0  0  0  0  0  0  0
  -23.5343   -9.2965   24.6751 C   0  0  0  0  0  0  0  0  0  0  0  0
  -23.4120  -23.0387   20.8139 C   0  0  0  0  0  0  0  0  0  0  0  0
  -22.2190   -8.8762   26.5766 C   0  0  0  0  0  0  0  0  0  0  0  0
  -20.4608   -9.8189   28.5266 C   0  0  0  0  0  0  0  0  0  0  0  0
  -22.5676   -8.8008   27.9251 C   0  0  0  0  0  0  0  0  0  0  0  0
  -24.9124  -12.0552   21.7788 C   0  0  0  0  0  0  0  0  0  0  0  0
  -27.9097  -20.6066   22.1562 C   0  0  0  0  0  0  0  0  0  0  0  0
  -26.0069  -18.9657   21.2539 C   0  0  0  0  0  0  0  0  0  0  0  0
  -28.1546  -19.2623   21.9813 C   0  0  0  0  0  0  0  0  0  0  0  0
  -25.7618  -20.3098   21.4295 C   0  0  0  0  0  0  0  0  0  0  0  0
  -25.0511  -13.6430   20.2639 C   0  0  0  0  0  0  0  0  0  0  0  0
  -22.7395  -13.2745   21.1410 C   0  0  0  0  0  0  0  0  0  0  0  0
  -20.4604  -26.6398   18.0239 C   0  0  0  0  0  0  0  0  0  0  0  0
  -20.9855  -28.7679   20.4151 C   0  0  0  0  0  0  0  0  0  0  0  0
  -22.4556  -29.4453   23.4196 C   0  0  0  0  0  0  0  0  0  0  0  0
  -30.9623  -14.5138   20.6519 C   0  0  0  0  0  0  0  0  0  0  0  0
  -18.8130  -29.9437   14.4987 C   0  0  0  0  0  0  0  0  0  0  0  0
  -19.8209  -25.2857   20.0521 C   0  0  0  0  0  0  0  0  0  0  0  0
  -22.4012  -26.6795   20.4319 C   0  0  0  0  0  0  0  0  0  0  0  0
  -19.9652  -29.8987   15.4989 C   0  0  0  0  0  0  0  0  0  0  0  0
  -29.2010  -12.9354   17.9905 C   0  0  0  0  0  0  0  0  0  0  0  0
  -20.6966  -28.5630   15.4110 C   0  0  0  0  0  0  0  0  0  0  0  0
  -27.8329  -12.6161   18.5959 C   0  0  0  0  0  0  0  0  0  0  0  0
  -30.3231  -12.7697   19.0129 C   0  0  0  0  0  0  0  0  0  0  0  0
  -28.7654  -13.2019   20.8732 C   0  0  0  0  0  0  0  0  0  0  0  0
  -19.7620  -27.3983   15.7595 C   0  0  1  0  0  0  0  0  0  0  0  0
  -20.0755  -26.6752   19.4759 C   0  0  1  0  0  0  0  0  0  0  0  0
  -27.5960  -13.4088   19.8954 C   0  0  2  0  0  0  0  0  0  0  0  0
  -28.9661  -21.5302   22.6588 C   0  0  0  0  0  0  0  0  0  0  0  0
  -24.9509  -18.0419   20.7511 C   0  0  0  0  0  0  0  0  0  0  0  0
  -22.7369  -31.2830   25.1052 C   0  0  0  0  0  0  0  0  0  0  0  0
  -28.8063  -18.1059   24.6570 C   0  0  0  0  0  0  0  0  0  0  0  0
  -23.0162  -30.1286   18.5890 C   0  0  0  0  0  0  0  0  0  0  0  0
  -23.9229  -31.3160   20.5981 C   0  0  0  0  0  0  0  0  0  0  0  0
  -21.5630  -31.6977   19.8854 C   0  0  0  0  0  0  0  0  0  0  0  0
  -31.8770  -17.9754   24.1603 C   0  0  0  0  0  0  0  0  0  0  0  0
  -30.7586  -15.8384   24.7699 C   0  0  0  0  0  0  0  0  0  0  0  0
  -21.1299  -27.8617   25.5395 C   0  0  0  0  0  0  0  0  0  0  0  0
  -29.4873  -18.6689   22.2870 C   0  0  0  0  0  0  0  0  0  0  0  0
  -24.4197  -20.9068   21.1231 C   0  0  0  0  0  0  0  0  0  1  0  0
  -31.4570  -16.2400   22.3649 C   0  0  0  0  0  0  0  0  0  0  0  0
  -22.1944  -29.4947   20.9531 C   0  0  1  0  0  0  0  0  0  0  0  0
  -21.9105  -30.0763   24.6882 C   0  0  2  0  0  0  0  0  0  0  0  0
  -29.4717  -17.5537   23.3812 C   0  0  1  0  0  0  0  0  0  0  0  0
  -22.6730  -30.6308   20.0057 C   0  0  0  0  0  0  0  0  0  0  0  0
  -30.8891  -16.8993   23.6490 C   0  0  0  0  0  0  0  0  0  0  0  0
  -26.2060  -12.0899   21.4480 N   0  0  0  0  0  0  0  0  0  0  0  0
  -27.2077  -18.4178   21.5267 N   0  0  0  0  0  0  0  0  0  0  0  0
  -26.7088  -21.1544   21.8837 N   0  0  0  0  0  0  0  0  0  0  0  0
  -26.2587  -13.0651   20.5248 N   0  0  0  0  0  0  0  0  0  0  0  0
  -21.1383  -27.3938   20.1819 N   0  0  0  0  0  0  0  0  0  0  0  0
  -30.0380  -13.5479   20.2208 N   0  0  0  0  0  0  0  0  0  0  0  0
  -24.9245  -14.6397   19.3624 N   0  0  0  0  0  0  0  0  0  0  0  0
  -21.9546  -12.5217   22.0251 N   0  0  0  0  0  0  0  0  0  0  0  0
  -19.5811  -27.3068   17.1924 N   0  0  0  0  0  0  0  0  0  0  0  0
  -21.8365  -29.9455   22.2936 N   0  0  0  0  0  0  0  0  0  0  0  0
  -30.6118  -15.2109   21.8017 N   0  0  0  0  0  0  0  0  0  0  0  0
  -21.9235  -29.0893   25.8046 N   0  3  0  0  0  0  0  0  0  0  0  0
  -22.1928  -14.1491   20.4271 O   0  0  0  0  0  0  0  0  0  0  0  0
  -21.4804  -26.0521   17.6834 O   0  0  0  0  0  0  0  0  0  0  0  0
  -19.9420  -29.3948   20.2161 O   0  0  0  0  0  0  0  0  0  0  0  0
  -23.3443  -28.5965   23.4266 O   0  0  0  0  0  0  0  0  0  0  0  0
  -32.0189  -14.7419   20.0532 O   0  0  0  0  0  0  0  0  0  0  0  0
  -23.0910   -8.4094   25.6074 O   0  0  0  0  0  0  0  0  0  0  0  0
  -24.5454  -22.3269   21.0600 O   0  0  0  0  0  0  0  0  0  1  0  0
  -19.6171  -10.2730   29.4627 F   0  0  0  0  0  0  0  0  0  0  0  0
  -23.7461   -8.2776   28.2899 F   0  0  0  0  0  0  0  0  0  0  0  0
  1  2  1  0  0  0  0
  1  5  2  0  0  0  0
  2  6  2  0  0  0  0
  3  8  2  0  0  0  0
  3 15  1  0  0  0  0
  4  9  1  0  0  0  0
  4 15  2  0  0  0  0
  5 17  1  0  0  0  0
  6 19  1  0  0  0  0
  7 10  2  0  0  0  0
  7 18  1  0  0  0  0
  8 21  1  0  0  0  0
  9 21  2  0  0  0  0
 10 22  1  0  0  0  0
 11 12  2  0  0  0  0
 11 23  1  0  0  0  0
 12 24  1  0  0  0  0
 13 20  1  0  0  0  0
 13 22  2  0  0  0  0
 14 24  2  0  0  0  0
 14 25  1  0  0  0  0
 15 26  1  0  0  0  0
 16 26  1  0  0  0  0
 16 31  2  0  0  0  0
 16 32  1  0  0  0  0
 17 19  2  0  0  0  0
 17 37  1  0  0  0  0
 18 20  2  0  0  0  0
 18 38  1  0  0  0  0
 19 46  1  0  0  0  0
 20 39  1  0  0  0  0
 21 84  1  0  0  0  0
 22 85  1  0  0  0  0
 23 25  2  0  0  0  0
 23 84  1  0  0  0  0
 24 86  1  0  0  0  0
 25 87  1  0  0  0  0
 26 67  2  0  0  0  0
 27 29  1  0  0  0  0
 27 49  1  0  0  0  0
 27 69  2  0  0  0  0
 28 30  2  0  0  0  0
 28 50  1  0  0  0  0
 28 68  1  0  0  0  0
 29 59  1  0  0  0  0
 29 68  2  0  0  0  0
 30 60  1  0  0  0  0
 30 69  1  0  0  0  0
 31 70  1  0  0  0  0
 31 73  1  0  0  0  0
 32 74  1  0  0  0  0
 32 79  2  0  0  0  0
 33 47  1  0  0  0  0
 33 75  1  0  0  0  0
 33 80  2  0  0  0  0
 34 62  1  0  0  0  0
 34 71  1  0  0  0  0
 34 81  2  0  0  0  0
 35 63  1  0  0  0  0
 35 76  1  0  0  0  0
 35 82  2  0  0  0  0
 36 72  1  0  0  0  0
 36 77  1  0  0  0  0
 36 83  2  0  0  0  0
 37 40  1  0  0  0  0
 38 47  1  0  0  0  0
 39 71  1  0  0  0  0
 40 42  1  0  0  0  0
 41 43  1  0  0  0  0
 41 44  1  0  0  0  0
 42 46  1  0  0  0  0
 43 48  1  0  0  0  0
 44 72  1  0  0  0  0
 45 48  1  0  0  0  0
 45 72  1  0  0  0  0
 46 75  1  0  0  0  0
 47 71  1  0  0  0  0
 48 70  1  0  0  0  0
 51 63  1  0  0  0  0
 52 64  1  0  0  0  0
 53 65  1  0  0  0  0
 54 65  1  0  0  0  0
 55 65  1  0  0  0  0
 56 66  1  0  0  0  0
 57 66  1  0  0  0  0
 58 78  1  0  0  0  0
 59 64  1  0  0  0  0
 60 85  1  0  0  0  0
 61 66  1  0  0  0  0
 61 77  1  0  0  0  0
 62 65  1  0  0  0  0
 62 76  1  0  0  0  0
 63 78  1  0  0  0  0
 64 66  1  0  0  0  0
 67 70  1  0  0  0  0
M  CHG  1  78   1
M  ISO  4  36 100  60 101  77 100  85 101
M  END
> <Batch ID>
0086

> <Smiles>
CNC(C)C(=O)NC(C(=O)N1Cc2cc([101O:1][101CH2:1]c3nc(C)c(CC(C)C(C)(C)C[100NH:0][100C:0](=O)N4CCCC(n5nc(-c6ccc(Oc7ccc(F)cc7F)cc6)c(C(N)=O)c5N)C4)nc3C)ccc2CC1C(=O)NC1CCCc2ccccc21)C(C)(C)C

> <Shape>
0.172

> <Color>
0.129

> <Negative vol penalty>
0.000

$$$$

  -OEChem-04052318593D

 91 99  0     1  0  0  0  0  0999 V2000
  -28.6728  -24.3876   16.9965 C   0  0  0  0  0  0  0  0  0  0  0  0
  -27.5110  -24.4821   17.7560 C   0  0  0  0  0  0  0  0  0  0  0  0
  -27.0497  -14.4695   18.7437 C   0  0  0  0  0  0  0  0  0  0  0  0
  -25.2069  -15.1228   20.1631 C   0  0  0  0  0  0  0  0  0  0  0  0
  -29.8202  -25.0741   17.3915 C   0  0  0  0  0  0  0  0  0  0  0  0
  -27.4963  -25.2624   18.9116 C   0  0  0  0  0  0  0  0  0  0  0  0
  -23.3467  -28.1446   19.2569 C   0  0  0  0  0  0  0  0  0  0  0  0
  -26.9483  -13.1605   19.2145 C   0  0  0  0  0  0  0  0  0  0  0  0
  -25.1055  -13.8136   20.6339 C   0  0  0  0  0  0  0  0  0  0  0  0
  -22.1710  -27.5208   19.6719 C   0  0  0  0  0  0  0  0  0  0  0  0
  -23.8237  -10.8757   19.5632 C   0  0  0  0  0  0  0  0  0  0  0  0
  -22.5486  -10.3173   19.6512 C   0  0  0  0  0  0  0  0  0  0  0  0
  -22.5062  -28.3839   21.8994 C   0  0  0  0  0  0  0  0  0  0  0  0
  -19.8045  -24.7967   24.2523 C   0  0  0  0  0  0  0  0  0  0  0  0
  -22.8485  -10.0070   22.0284 C   0  0  0  0  0  0  0  0  0  0  0  0
  -26.1790  -15.4507   19.2181 C   0  0  0  0  0  0  0  0  0  0  0  0
  -25.6245  -17.3607   17.6206 C   0  0  0  0  0  0  0  0  0  0  0  0
  -29.8167  -25.8709   18.5473 C   0  0  0  0  0  0  0  0  0  0  0  0
  -24.1181  -28.8849   20.1642 C   0  0  0  0  0  0  0  0  0  0  0  0
  -28.6451  -25.9592   19.3231 C   0  0  0  0  0  0  0  0  0  0  0  0
  -23.6901  -29.0183   21.4928 C   0  0  0  0  0  0  0  0  0  0  0  0
  -20.1759  -24.5323   22.9110 C   0  0  0  0  0  0  0  0  0  0  0  0
  -25.9762  -12.8325   20.1595 C   0  0  0  0  0  0  0  0  0  0  0  0
  -21.7521  -27.6380   20.9939 C   0  0  0  0  0  0  0  0  0  0  0  0
  -24.6113  -10.9998   20.7078 C   0  0  0  0  0  0  0  0  0  0  0  0
  -22.0610   -9.8829   20.8837 C   0  0  0  0  0  0  0  0  0  0  0  0
  -24.1237  -10.5655   21.9404 C   0  0  0  0  0  0  0  0  0  0  0  0
  -26.2837  -16.8033   18.7326 C   0  0  0  0  0  0  0  0  0  0  0  0
  -20.7925  -24.2812   25.0619 C   0  0  0  0  0  0  0  0  0  0  0  0
  -21.3795  -23.8632   22.9417 C   0  0  0  0  0  0  0  0  0  0  0  0
  -26.0565  -18.6640   17.5832 C   0  0  0  0  0  0  0  0  0  0  0  0
  -24.7039  -16.7547   16.7036 C   0  0  0  0  0  0  0  0  0  0  0  0
  -27.0753  -28.6526   21.3065 C   0  0  0  0  0  0  0  0  0  0  0  0
  -26.3474  -31.4955   22.6887 C   0  0  0  0  0  0  0  0  0  0  0  0
  -23.9419  -33.6321   23.8268 C   0  0  0  0  0  0  0  0  0  0  0  0
  -28.1754  -22.3792   21.7735 C   0  0  0  0  0  0  0  0  0  0  0  0
  -31.0951  -26.5566   18.9601 C   0  0  0  0  0  0  0  0  0  0  0  0
  -25.3699  -29.5740   19.6945 C   0  0  0  0  0  0  0  0  0  0  0  0
  -24.4716  -29.8187   22.5012 C   0  0  0  0  0  0  0  0  0  0  0  0
  -30.8876  -27.6614   19.9929 C   0  0  0  0  0  0  0  0  0  0  0  0
  -29.7988  -21.4035   18.7586 C   0  0  0  0  0  0  0  0  0  0  0  0
  -29.9696  -27.1804   21.1121 C   0  0  0  0  0  0  0  0  0  0  0  0
  -29.0225  -20.1642   18.3098 C   0  0  0  0  0  0  0  0  0  0  0  0
  -29.9283  -21.4683   20.2788 C   0  0  0  0  0  0  0  0  0  0  0  0
  -27.8769  -20.1327   20.5648 C   0  0  0  0  0  0  0  0  0  0  0  0
  -28.5826  -26.8153   20.5694 C   0  0  1  0  0  0  0  0  0  0  0  0
  -26.3466  -29.8759   20.8268 C   0  0  1  0  0  0  0  0  0  0  0  0
  -27.6719  -20.0527   19.0424 C   0  0  2  0  0  0  0  0  0  0  0  0
  -22.2134  -23.3512   21.8333 C   0  0  0  0  0  0  0  0  0  0  0  0
  -19.7627  -23.5054   27.2278 C   0  0  0  0  0  0  0  0  0  0  0  0
  -20.9894  -25.7056   27.1323 C   0  0  0  0  0  0  0  0  0  0  0  0
  -23.6551  -35.8629   24.9397 C   0  0  0  0  0  0  0  0  0  0  0  0
  -18.0575  -25.6735   21.9682 C   0  0  0  0  0  0  0  0  0  0  0  0
  -18.9918  -23.6441   20.8791 C   0  0  0  0  0  0  0  0  0  0  0  0
  -27.1763  -30.2685   25.3565 C   0  0  0  0  0  0  0  0  0  0  0  0
  -25.9972  -32.1520   26.5098 C   0  0  0  0  0  0  0  0  0  0  0  0
  -27.9349  -32.6265   25.0123 C   0  0  0  0  0  0  0  0  0  0  0  0
  -26.3136  -24.6642   25.9480 C   0  0  0  0  0  0  0  0  0  0  0  0
  -25.1496  -22.6957   26.9334 C   0  0  0  0  0  0  0  0  0  0  0  0
  -22.4234  -34.7136   21.5282 C   0  0  0  0  0  0  0  0  0  0  0  0
  -24.0129  -24.0875   25.1400 C   0  0  0  0  0  0  0  0  0  0  0  0
  -26.0219  -22.5430   24.5890 C   0  0  0  0  0  0  0  0  0  0  0  0
  -22.9511  -23.0633   24.7179 C   0  0  0  0  0  0  0  0  0  0  0  0
  -26.3241  -23.1664   23.2269 C   0  0  0  0  0  0  0  0  0  0  0  0
  -20.2342  -25.8262   20.7305 C   0  0  0  0  0  0  0  0  0  1  0  0
  -20.9055  -24.2823   26.5350 C   0  0  0  0  0  0  0  0  0  0  0  0
  -25.7290  -31.9201   23.9988 C   0  0  1  0  0  0  0  0  0  0  0  0
  -23.7348  -35.1209   23.6146 C   0  0  2  0  0  0  0  0  0  0  0  0
  -19.3755  -24.9251   21.6551 C   0  0  0  0  0  0  0  0  0  0  0  0
  -26.6954  -31.7250   25.2011 C   0  0  0  0  0  0  0  0  0  0  0  0
  -25.3627  -23.4910   25.6279 C   0  0  0  0  0  0  0  0  0  0  0  0
  -27.0745  -17.6805   19.3564 N   0  0  0  0  0  0  0  0  0  0  0  0
  -21.7446  -23.7159   24.2544 N   0  0  0  0  0  0  0  0  0  0  0  0
  -26.9150  -18.8024   18.6339 N   0  0  0  0  0  0  0  0  0  0  0  0
  -25.6919  -30.4684   21.9950 N   0  0  0  0  0  0  0  0  0  0  0  0
  -28.6123  -21.3587   20.9128 N   0  0  0  0  0  0  0  0  0  0  0  0
  -25.7821  -19.6935   16.7542 N   0  0  0  0  0  0  0  0  0  0  0  0
  -24.3682  -15.4064   16.8870 N   0  0  0  0  0  0  0  0  0  0  0  0
  -27.8051  -28.0110   20.3240 N   0  0  0  0  0  0  0  0  0  0  0  0
  -25.2788  -33.2950   23.8110 N   0  0  0  0  0  0  0  0  0  0  0  0
  -26.9137  -22.2000   22.3273 N   0  0  0  0  0  0  0  0  0  0  0  0
  -22.4722  -35.3662   22.8619 N   0  3  0  0  0  0  0  0  0  0  0  0
  -24.2068  -17.3856   15.7400 O   0  0  0  0  0  0  0  0  0  0  0  0
  -26.9835  -28.3165   22.4814 O   0  0  0  0  0  0  0  0  0  0  0  0
  -27.3703  -32.0594   22.2919 O   0  0  0  0  0  0  0  0  0  0  0  0
  -23.0110  -32.8472   23.9938 O   0  0  0  0  0  0  0  0  0  0  0  0
  -28.8569  -23.3788   22.0252 O   0  0  0  0  0  0  0  0  0  0  0  0
  -25.8768  -11.5551   20.6189 O   0  0  0  0  0  0  0  0  0  0  0  0
  -20.6051  -27.0296   21.4017 O   0  0  0  0  0  0  0  0  0  1  0  0
  -20.8358   -9.3481   20.9683 F   0  0  0  0  0  0  0  0  0  0  0  0
  -24.8752  -10.6831   23.0436 F   0  0  0  0  0  0  0  0  0  0  0  0
  1  2  1  0  0  0  0
  1  5  2  0  0  0  0
  2  6  2  0  0  0  0
  3  8  2  0  0  0  0
  3 16  1  0  0  0  0
  4  9  1  0  0  0  0
  4 16  2  0  0  0  0
  5 18  1  0  0  0  0
  6 20  1  0  0  0  0
  7 10  2  0  0  0  0
  7 19  1  0  0  0  0
  8 23  1  0  0  0  0
  9 23  2  0  0  0  0
 10 24  1  0  0  0  0
 11 12  2  0  0  0  0
 11 25  1  0  0  0  0
 12 26  1  0  0  0  0
 13 21  1  0  0  0  0
 13 24  2  0  0  0  0
 14 22  1  0  0  0  0
 14 29  2  0  0  0  0
 15 26  2  0  0  0  0
 15 27  1  0  0  0  0
 16 28  1  0  0  0  0
 17 28  1  0  0  0  0
 17 31  2  0  0  0  0
 17 32  1  0  0  0  0
 18 20  2  0  0  0  0
 18 37  1  0  0  0  0
 19 21  2  0  0  0  0
 19 38  1  0  0  0  0
 20 46  1  0  0  0  0
 21 39  1  0  0  0  0
 22 30  2  0  0  0  0
 22 69  1  0  0  0  0
 23 88  1  0  0  0  0
 24 89  1  0  0  0  0
 25 27  2  0  0  0  0
 25 88  1  0  0  0  0
 26 90  1  0  0  0  0
 27 91  1  0  0  0  0
 28 72  2  0  0  0  0
 29 66  1  0  0  0  0
 29 73  1  0  0  0  0
 30 49  1  0  0  0  0
 30 73  1  0  0  0  0
 31 74  1  0  0  0  0
 31 77  1  0  0  0  0
 32 78  1  0  0  0  0
 32 83  2  0  0  0  0
 33 47  1  0  0  0  0
 33 79  1  0  0  0  0
 33 84  2  0  0  0  0
 34 67  1  0  0  0  0
 34 75  1  0  0  0  0
 34 85  2  0  0  0  0
 35 68  1  0  0  0  0
 35 80  1  0  0  0  0
 35 86  2  0  0  0  0
 36 76  1  0  0  0  0
 36 81  1  0  0  0  0
 36 87  2  0  0  0  0
 37 40  1  0  0  0  0
 38 47  1  0  0  0  0
 39 75  1  0  0  0  0
 40 42  1  0  0  0  0
 41 43  1  0  0  0  0
 41 44  1  0  0  0  0
 42 46  1  0  0  0  0
 43 48  1  0  0  0  0
 44 76  1  0  0  0  0
 45 48  1  0  0  0  0
 45 76  1  0  0  0  0
 46 79  1  0  0  0  0
 47 75  1  0  0  0  0
 48 74  1  0  0  0  0
 50 66  1  0  0  0  0
 51 66  1  0  0  0  0
 52 68  1  0  0  0  0
 53 69  1  0  0  0  0
 54 69  1  0  0  0  0
 55 70  1  0  0  0  0
 56 70  1  0  0  0  0
 57 70  1  0  0  0  0
 58 71  1  0  0  0  0
 59 71  1  0  0  0  0
 60 82  1  0  0  0  0
 61 63  1  0  0  0  0
 61 71  1  0  0  0  0
 62 64  1  0  0  0  0
 62 71  1  0  0  0  0
 63 73  1  0  0  0  0
 64 81  1  0  0  0  0
 65 69  1  0  0  0  0
 65 89  1  0  0  0  0
 67 70  1  0  0  0  0
 67 80  1  0  0  0  0
 68 82  1  0  0  0  0
 72 74  1  0  0  0  0
M  CHG  1  82   1
M  ISO  4  36 100  65 101  81 100  89 101
M  END
> <Batch ID>
0086

> <Smiles>
CNC(C)C(=O)NC(C(=O)N1Cc2cc([101O:1][101CH2:1]C(C)(C)c3cc(C(C)C)n(CCC(C)(C)CC[100NH:0][100C:0](=O)N4CCCC(n5nc(-c6ccc(Oc7ccc(F)cc7F)cc6)c(C(N)=O)c5N)C4)c3C)ccc2CC1C(=O)NC1CCCc2ccccc21)C(C)(C)C

> <Shape>
0.297

> <Color>
0.070

> <Negative vol penalty>
0.000

$$$$

  -OEChem-04052318593D

 87 95  0     1  0  0  0  0  0999 V2000
  -28.7328  -32.4977   13.6085 C   0  0  0  0  0  0  0  0  0  0  0  0
  -29.0261  -31.2736   14.2008 C   0  0  0  0  0  0  0  0  0  0  0  0
  -22.1255  -15.2446   21.0690 C   0  0  0  0  0  0  0  0  0  0  0  0
  -23.0943  -17.4576   21.1047 C   0  0  0  0  0  0  0  0  0  0  0  0
  -28.2835  -33.5600   14.3918 C   0  0  0  0  0  0  0  0  0  0  0  0
  -28.8714  -31.1114   15.5771 C   0  0  0  0  0  0  0  0  0  0  0  0
  -27.0819  -26.0407   18.5083 C   0  0  0  0  0  0  0  0  0  0  0  0
  -21.1055  -15.6775   21.9162 C   0  0  0  0  0  0  0  0  0  0  0  0
  -22.0742  -17.8905   21.9519 C   0  0  0  0  0  0  0  0  0  0  0  0
  -27.7922  -25.0373   19.1659 C   0  0  0  0  0  0  0  0  0  0  0  0
  -20.7001  -16.2893   25.2156 C   0  0  0  0  0  0  0  0  0  0  0  0
  -20.3592  -15.4682   26.2903 C   0  0  0  0  0  0  0  0  0  0  0  0
  -27.4248  -26.1631   21.2676 C   0  0  0  0  0  0  0  0  0  0  0  0
  -29.2909  -20.6503   21.1837 C   0  0  0  0  0  0  0  0  0  0  0  0
  -18.1066  -15.2852   25.4361 C   0  0  0  0  0  0  0  0  0  0  0  0
  -26.7580  -20.4928   20.1811 C   0  0  0  0  0  0  0  0  0  0  0  0
  -23.1200  -16.1347   20.6632 C   0  0  0  0  0  0  0  0  0  0  0  0
  -24.1773  -15.7096   18.3809 C   0  0  0  0  0  0  0  0  0  0  0  0
  -28.1139  -33.4079   15.7770 C   0  0  0  0  0  0  0  0  0  0  0  0
  -26.5461  -27.1203   19.2251 C   0  0  0  0  0  0  0  0  0  0  0  0
  -28.4207  -32.1730   16.3799 C   0  0  0  0  0  0  0  0  0  0  0  0
  -26.7059  -27.1775   20.6170 C   0  0  0  0  0  0  0  0  0  0  0  0
  -28.2872  -21.4358   21.7396 C   0  0  0  0  0  0  0  0  0  0  0  0
  -26.9939  -21.3614   21.2344 C   0  0  0  0  0  0  0  0  0  0  0  0
  -21.0798  -17.0004   22.3577 C   0  0  0  0  0  0  0  0  0  0  0  0
  -27.9662  -25.0999   20.5454 C   0  0  0  0  0  0  0  0  0  0  0  0
  -19.7443  -16.6085   24.2511 C   0  0  0  0  0  0  0  0  0  0  0  0
  -19.0625  -14.9661   26.4006 C   0  0  0  0  0  0  0  0  0  0  0  0
  -18.4476  -16.1064   24.3613 C   0  0  0  0  0  0  0  0  0  0  0  0
  -24.1742  -15.6881   19.7885 C   0  0  0  0  0  0  0  0  0  0  0  0
  -28.9521  -19.8134   20.1328 C   0  0  0  0  0  0  0  0  0  0  0  0
  -25.3967  -15.1824   18.0321 C   0  0  0  0  0  0  0  0  0  0  0  0
  -23.1682  -16.1655   17.4701 C   0  0  0  0  0  0  0  0  0  0  0  0
  -26.9887  -30.2679   19.2035 C   0  0  0  0  0  0  0  0  0  0  0  0
  -24.5169  -30.2377   21.3039 C   0  0  0  0  0  0  0  0  0  0  0  0
  -30.8949  -15.1714   19.9074 C   0  0  0  0  0  0  0  0  0  0  0  0
  -22.6994  -28.5044   23.6145 C   0  0  0  0  0  0  0  0  0  0  0  0
  -27.6708  -34.5989   16.5893 C   0  0  0  0  0  0  0  0  0  0  0  0
  -25.7596  -28.1806   18.5044 C   0  0  0  0  0  0  0  0  0  0  0  0
  -26.1330  -28.3048   21.4352 C   0  0  0  0  0  0  0  0  0  0  0  0
  -27.1758  -34.2333   17.9863 C   0  0  0  0  0  0  0  0  0  0  0  0
  -28.7416  -12.3314   20.2779 C   0  0  0  0  0  0  0  0  0  0  0  0
  -28.1406  -33.2606   18.6569 C   0  0  0  0  0  0  0  0  0  0  0  0
  -27.3422  -12.9142   20.0845 C   0  0  0  0  0  0  0  0  0  0  0  0
  -29.6643  -13.3179   20.9866 C   0  0  0  0  0  0  0  0  0  0  0  0
  -28.3608  -15.2350   20.1219 C   0  0  0  0  0  0  0  0  0  0  0  0
  -28.2418  -31.9507   17.8661 C   0  0  1  0  0  0  0  0  0  0  0  0
  -25.6982  -29.5007   19.2665 C   0  0  1  0  0  0  0  0  0  0  0  0
  -27.4054  -14.2820   19.3821 C   0  0  2  0  0  0  0  0  0  0  0  0
  -25.8819  -22.1804   21.7918 C   0  0  0  0  0  0  0  0  0  0  0  0
  -20.7630  -28.7572   25.1905 C   0  0  0  0  0  0  0  0  0  0  0  0
  -30.8937  -17.6784   21.5097 C   0  0  0  0  0  0  0  0  0  0  0  0
  -30.1174  -22.3229   23.3340 C   0  0  0  0  0  0  0  0  0  0  0  0
  -27.7947  -21.9716   24.1458 C   0  0  0  0  0  0  0  0  0  0  0  0
  -32.2901  -16.8697   18.8890 C   0  0  0  0  0  0  0  0  0  0  0  0
  -30.0656  -16.3122   17.8861 C   0  0  0  0  0  0  0  0  0  0  0  0
  -26.2803  -31.8404   23.2096 C   0  0  0  0  0  0  0  0  0  0  0  0
  -24.7008  -31.2468   25.0592 C   0  0  0  0  0  0  0  0  0  0  0  0
  -23.8958  -32.5887   23.1165 C   0  0  0  0  0  0  0  0  0  0  0  0
  -21.1645  -26.3702   22.2550 C   0  0  0  0  0  0  0  0  0  0  0  0
  -30.0039  -18.9562   19.5115 C   0  0  0  0  0  0  0  0  0  0  0  0
  -28.2870  -23.8428   22.5386 C   0  0  0  0  0  0  0  0  0  1  0  0
  -24.3901  -30.1290   22.8042 C   0  0  1  0  0  0  0  0  0  0  0  0
  -21.2020  -28.3347   23.7971 C   0  0  2  0  0  0  0  0  0  0  0  0
  -30.1602  -17.5464   20.1637 C   0  0  1  0  0  0  0  0  0  0  0  0
  -28.6300  -22.3769   22.9096 C   0  0  0  0  0  0  0  0  0  0  0  0
  -30.8296  -16.5037   19.2041 C   0  0  0  0  0  0  0  0  0  0  0  0
  -24.8293  -31.4308   23.5320 C   0  0  0  0  0  0  0  0  0  0  0  0
  -27.7071  -19.7141   19.6152 N   0  0  0  0  0  0  0  0  0  0  0  0
  -25.3021  -15.1867   20.2990 N   0  0  0  0  0  0  0  0  0  0  0  0
  -26.0252  -14.8882   19.2063 N   0  0  0  0  0  0  0  0  0  0  0  0
  -25.3774  -29.3207   20.6839 N   0  0  0  0  0  0  0  0  0  0  0  0
  -29.6794  -14.6117   20.3015 N   0  0  0  0  0  0  0  0  0  0  0  0
  -25.9818  -14.9463   16.8387 N   0  0  0  0  0  0  0  0  0  0  0  0
  -21.9751  -16.6785   17.9971 N   0  0  0  0  0  0  0  0  0  0  0  0
  -27.0856  -31.1175   18.1181 N   0  0  0  0  0  0  0  0  0  0  0  0
  -23.0116  -29.7320   23.0697 N   0  0  0  0  0  0  0  0  0  0  0  0
  -20.8134  -26.9104   23.5937 N   0  3  0  0  0  0  0  0  0  0  0  0
  -23.3134  -16.1042   16.2257 O   0  0  0  0  0  0  0  0  0  0  0  0
  -27.8332  -30.1023   20.0758 O   0  0  0  0  0  0  0  0  0  0  0  0
  -23.8705  -31.0998   20.7033 O   0  0  0  0  0  0  0  0  0  0  0  0
  -31.9940  -14.6441   20.0973 O   0  0  0  0  0  0  0  0  0  0  0  0
  -23.5112  -27.6363   23.9276 O   0  0  0  0  0  0  0  0  0  0  0  0
  -20.0845  -17.4231   23.1842 O   0  0  0  0  0  0  0  0  0  0  0  0
  -28.6597  -24.1222   21.1897 O   0  0  0  0  0  0  0  0  0  1  0  0
  -18.7356  -14.1764   27.4319 F   0  0  0  0  0  0  0  0  0  0  0  0
  -17.5253  -16.4086   23.4372 F   0  0  0  0  0  0  0  0  0  0  0  0
  1  2  1  0  0  0  0
  1  5  2  0  0  0  0
  2  6  2  0  0  0  0
  3  8  2  0  0  0  0
  3 17  1  0  0  0  0
  4  9  1  0  0  0  0
  4 17  2  0  0  0  0
  5 19  1  0  0  0  0
  6 21  1  0  0  0  0
  7 10  2  0  0  0  0
  7 20  1  0  0  0  0
  8 25  1  0  0  0  0
  9 25  2  0  0  0  0
 10 26  1  0  0  0  0
 11 12  2  0  0  0  0
 11 27  1  0  0  0  0
 12 28  1  0  0  0  0
 13 22  1  0  0  0  0
 13 26  2  0  0  0  0
 14 23  1  0  0  0  0
 14 31  2  0  0  0  0
 15 28  2  0  0  0  0
 15 29  1  0  0  0  0
 16 24  1  0  0  0  0
 16 69  2  0  0  0  0
 17 30  1  0  0  0  0
 18 30  1  0  0  0  0
 18 32  2  0  0  0  0
 18 33  1  0  0  0  0
 19 21  2  0  0  0  0
 19 38  1  0  0  0  0
 20 22  2  0  0  0  0
 20 39  1  0  0  0  0
 21 47  1  0  0  0  0
 22 40  1  0  0  0  0
 23 24  2  0  0  0  0
 23 66  1  0  0  0  0
 24 50  1  0  0  0  0
 25 84  1  0  0  0  0
 26 85  1  0  0  0  0
 27 29  2  0  0  0  0
 27 84  1  0  0  0  0
 28 86  1  0  0  0  0
 29 87  1  0  0  0  0
 30 70  2  0  0  0  0
 31 61  1  0  0  0  0
 31 69  1  0  0  0  0
 32 71  1  0  0  0  0
 32 74  1  0  0  0  0
 33 75  1  0  0  0  0
 33 79  2  0  0  0  0
 34 48  1  0  0  0  0
 34 76  1  0  0  0  0
 34 80  2  0  0  0  0
 35 63  1  0  0  0  0
 35 72  1  0  0  0  0
 35 81  2  0  0  0  0
 36 67  1  0  0  0  0
 36 73  1  0  0  0  0
 36 82  2  0  0  0  0
 37 64  1  0  0  0  0
 37 77  1  0  0  0  0
 37 83  2  0  0  0  0
 38 41  1  0  0  0  0
 39 48  1  0  0  0  0
 40 72  1  0  0  0  0
 41 43  1  0  0  0  0
 42 44  1  0  0  0  0
 42 45  1  0  0  0  0
 43 47  1  0  0  0  0
 44 49  1  0  0  0  0
 45 73  1  0  0  0  0
 46 49  1  0  0  0  0
 46 73  1  0  0  0  0
 47 76  1  0  0  0  0
 48 72  1  0  0  0  0
 49 71  1  0  0  0  0
 51 64  1  0  0  0  0
 52 65  1  0  0  0  0
 53 66  1  0  0  0  0
 54 66  1  0  0  0  0
 55 67  1  0  0  0  0
 56 67  1  0  0  0  0
 57 68  1  0  0  0  0
 58 68  1  0  0  0  0
 59 68  1  0  0  0  0
 60 78  1  0  0  0  0
 61 65  1  0  0  0  0
 62 66  1  0  0  0  0
 62 85  1  0  0  0  0
 63 68  1  0  0  0  0
 63 77  1  0  0  0  0
 64 78  1  0  0  0  0
 65 67  1  0  0  0  0
 70 71  1  0  0  0  0
M  CHG  1  78   1
M  ISO  4  36 100  62 101  67 100  85 101
M  END
> <Batch ID>
0086

> <Smiles>
CNC(C)C(=O)NC(C(=O)N1Cc2cc([101O:1][101CH2:1]C(C)(C)c3cc(CC(C)[100C:0](C)(C)[100C:0](=O)N4CCCC(n5nc(-c6ccc(Oc7ccc(F)cc7F)cc6)c(C(N)=O)c5N)C4)ncc3C)ccc2CC1C(=O)NC1CCCc2ccccc21)C(C)(C)C

> <Shape>
0.208

> <Color>
0.062

> <Negative vol penalty>
0.000

$$$$

  -OEChem-04052318593D

 84 92  0     1  0  0  0  0  0999 V2000
  -26.6514  -34.6285   24.5289 C   0  0  0  0  0  0  0  0  0  0  0  0
  -27.0742  -33.3703   24.1125 C   0  0  0  0  0  0  0  0  0  0  0  0
  -25.9170  -14.7553   19.1642 C   0  0  0  0  0  0  0  0  0  0  0  0
  -27.1579  -13.0004   20.2676 C   0  0  0  0  0  0  0  0  0  0  0  0
  -25.3328  -34.8189   24.9401 C   0  0  0  0  0  0  0  0  0  0  0  0
  -26.1789  -32.3013   24.1080 C   0  0  0  0  0  0  0  0  0  0  0  0
  -26.4664  -29.5442   19.8699 C   0  0  0  0  0  0  0  0  0  0  0  0
  -24.7540  -14.3411   19.8134 C   0  0  0  0  0  0  0  0  0  0  0  0
  -25.9949  -12.5862   20.9169 C   0  0  0  0  0  0  0  0  0  0  0  0
  -27.5278  -28.6463   19.7653 C   0  0  0  0  0  0  0  0  0  0  0  0
  -23.2808  -10.8408   22.5894 C   0  0  0  0  0  0  0  0  0  0  0  0
  -23.0129   -9.4725   22.6297 C   0  0  0  0  0  0  0  0  0  0  0  0
  -26.0564  -26.8426   20.3986 C   0  0  0  0  0  0  0  0  0  0  0  0
  -22.9667   -9.4106   20.2149 C   0  0  0  0  0  0  0  0  0  0  0  0
  -29.3384  -20.5540   15.9547 C   0  0  0  0  0  0  0  0  0  0  0  0
  -27.1189  -14.0848   19.3913 C   0  0  0  0  0  0  0  0  0  0  0  0
  -28.5445  -14.5687   17.3318 C   0  0  0  0  0  0  0  0  0  0  0  0
  -24.4183  -33.7539   24.9314 C   0  0  0  0  0  0  0  0  0  0  0  0
  -25.1924  -29.0991   20.2509 C   0  0  0  0  0  0  0  0  0  0  0  0
  -24.8472  -32.4772   24.5206 C   0  0  0  0  0  0  0  0  0  0  0  0
  -24.9800  -27.7365   20.5049 C   0  0  0  0  0  0  0  0  0  0  0  0
  -24.7929  -13.2566   20.6898 C   0  0  0  0  0  0  0  0  0  0  0  0
  -27.3236  -27.2958   20.0324 C   0  0  0  0  0  0  0  0  0  0  0  0
  -23.3915  -11.4940   21.3619 C   0  0  0  0  0  0  0  0  0  0  0  0
  -22.8559   -8.7574   21.4424 C   0  0  0  0  0  0  0  0  0  0  0  0
  -23.2345  -10.7789   20.1747 C   0  0  0  0  0  0  0  0  0  0  0  0
  -28.3205  -14.5118   18.7205 C   0  0  0  0  0  0  0  0  0  0  0  0
  -29.2972  -19.1524   16.0791 C   0  0  0  0  0  0  0  0  0  0  0  0
  -29.8366  -20.9911   17.1577 C   0  0  0  0  0  0  0  0  0  0  0  0
  -29.8302  -15.0364   17.2103 C   0  0  0  0  0  0  0  0  0  0  0  0
  -27.6687  -14.2291   16.2486 C   0  0  0  0  0  0  0  0  0  0  0  0
  -23.2448  -29.6954   22.6912 C   0  0  0  0  0  0  0  0  0  0  0  0
  -21.1886  -27.8456   20.9965 C   0  0  0  0  0  0  0  0  0  0  0  0
  -20.7457  -25.4036   18.6540 C   0  0  0  0  0  0  0  0  0  0  0  0
  -33.1156  -18.2410   21.2692 C   0  0  0  0  0  0  0  0  0  0  0  0
  -23.0158  -33.9973   25.4296 C   0  0  0  0  0  0  0  0  0  0  0  0
  -24.0518  -30.0761   20.3333 C   0  0  0  0  0  0  0  0  0  0  0  0
  -23.6268  -27.2046   20.8978 C   0  0  0  0  0  0  0  0  0  0  0  0
  -22.0314  -32.8978   25.0395 C   0  0  0  0  0  0  0  0  0  0  0  0
  -34.0272  -15.1237   19.4934 C   0  0  0  0  0  0  0  0  0  0  0  0
  -22.6319  -31.5223   25.3121 C   0  0  0  0  0  0  0  0  0  0  0  0
  -32.6695  -14.5888   19.0412 C   0  0  0  0  0  0  0  0  0  0  0  0
  -33.9125  -15.9603   20.7641 C   0  0  0  0  0  0  0  0  0  0  0  0
  -31.5725  -16.5390   20.2133 C   0  0  0  0  0  0  0  0  0  0  0  0
  -23.8991  -31.2985   24.4781 C   0  0  1  0  0  0  0  0  0  0  0  0
  -22.9150  -29.5934   21.2289 C   0  0  1  0  0  0  0  0  0  0  0  0
  -31.6463  -15.7303   18.9094 C   0  0  2  0  0  0  0  0  0  0  0  0
  -28.8401  -18.1756   15.0764 C   0  0  0  0  0  0  0  0  0  0  0  0
  -19.5182  -23.8734   17.0889 C   0  0  0  0  0  0  0  0  0  0  0  0
  -20.8445  -26.1463   23.5073 C   0  0  0  0  0  0  0  0  0  0  0  0
  -19.8392  -24.3566   22.0739 C   0  0  0  0  0  0  0  0  0  0  0  0
  -18.7298  -26.5841   22.2461 C   0  0  0  0  0  0  0  0  0  0  0  0
  -32.7773  -20.6833   21.2826 C   0  0  0  0  0  0  0  0  0  0  0  0
  -20.7931  -27.4052   16.4745 C   0  0  0  0  0  0  0  0  0  0  0  0
  -30.1234  -22.3820   17.6645 C   0  0  0  0  0  0  0  0  0  0  0  0
  -28.9376  -23.0363   18.3822 C   0  0  0  0  0  0  0  0  0  0  0  0
  -29.2222  -24.4736   18.8205 C   0  0  0  0  0  0  0  0  0  0  0  0
  -30.5778  -19.8057   19.2458 C   0  0  0  0  0  0  0  0  0  0  0  0
  -32.0523  -19.4140   19.2954 C   0  0  0  0  0  0  0  0  0  0  0  0
  -28.0377  -25.0762   19.5638 C   0  0  0  0  0  0  0  0  0  1  0  0
  -20.8809  -26.3689   20.9353 C   0  0  1  0  0  0  0  0  0  0  0  0
  -19.8263  -25.3185   17.4490 C   0  0  2  0  0  0  0  0  0  0  0  0
  -20.0997  -25.8740   22.1851 C   0  0  0  0  0  0  0  0  0  0  0  0
  -29.3791  -14.9114   19.4303 N   0  0  0  0  0  0  0  0  0  0  0  0
  -29.7346  -18.7271   17.2673 N   0  0  0  0  0  0  0  0  0  0  0  0
  -30.0553  -19.8683   17.9005 N   0  0  0  0  0  0  0  0  0  0  0  0
  -30.2807  -15.2236   18.4839 N   0  0  0  0  0  0  0  0  0  0  0  0
  -22.5448  -28.2003   20.9709 N   0  0  0  0  0  0  0  0  0  0  0  0
  -32.9028  -17.0104   20.6264 N   0  0  0  0  0  0  0  0  0  0  0  0
  -30.6080  -15.3016   16.1392 N   0  0  0  0  0  0  0  0  0  0  0  0
  -27.6834  -12.9139   15.7647 N   0  0  0  0  0  0  0  0  0  0  0  0
  -23.5535  -30.9754   23.1104 N   0  0  0  0  0  0  0  0  0  0  0  0
  -20.1871  -26.1485   19.6710 N   0  0  0  0  0  0  0  0  0  0  0  0
  -32.5736  -19.3829   20.6602 N   0  0  0  0  0  0  0  0  0  0  0  0
  -20.4579  -25.9727   16.2683 N   0  3  0  0  0  0  0  0  0  0  0  0
  -26.9078  -15.0714   15.7146 O   0  0  0  0  0  0  0  0  0  0  0  0
  -23.2196  -28.6877   23.3880 O   0  0  0  0  0  0  0  0  0  0  0  0
  -20.2595  -28.6548   21.0573 O   0  0  0  0  0  0  0  0  0  0  0  0
  -21.8474  -24.8602   18.6909 O   0  0  0  0  0  0  0  0  0  0  0  0
  -33.7619  -18.3159   22.3221 O   0  0  0  0  0  0  0  0  0  0  0  0
  -23.6583  -12.8524   21.3236 O   0  0  0  0  0  0  0  0  0  0  0  0
  -28.3580  -26.4173   19.9316 O   0  0  0  0  0  0  0  0  0  1  0  0
  -22.6002   -7.4431   21.4812 F   0  0  0  0  0  0  0  0  0  0  0  0
  -23.3409  -11.4007   18.9924 F   0  0  0  0  0  0  0  0  0  0  0  0
  1  2  1  0  0  0  0
  1  5  2  0  0  0  0
  2  6  2  0  0  0  0
  3  8  2  0  0  0  0
  3 16  1  0  0  0  0
  4  9  1  0  0  0  0
  4 16  2  0  0  0  0
  5 18  1  0  0  0  0
  6 20  1  0  0  0  0
  7 10  2  0  0  0  0
  7 19  1  0  0  0  0
  8 22  1  0  0  0  0
  9 22  2  0  0  0  0
 10 23  1  0  0  0  0
 11 12  2  0  0  0  0
 11 24  1  0  0  0  0
 12 25  1  0  0  0  0
 13 21  1  0  0  0  0
 13 23  2  0  0  0  0
 14 25  2  0  0  0  0
 14 26  1  0  0  0  0
 15 28  1  0  0  0  0
 15 29  2  0  0  0  0
 16 27  1  0  0  0  0
 17 27  1  0  0  0  0
 17 30  2  0  0  0  0
 17 31  1  0  0  0  0
 18 20  2  0  0  0  0
 18 36  1  0  0  0  0
 19 21  2  0  0  0  0
 19 37  1  0  0  0  0
 20 45  1  0  0  0  0
 21 38  1  0  0  0  0
 22 81  1  0  0  0  0
 23 82  1  0  0  0  0
 24 26  2  0  0  0  0
 24 81  1  0  0  0  0
 25 83  1  0  0  0  0
 26 84  1  0  0  0  0
 27 64  2  0  0  0  0
 28 48  1  0  0  0  0
 28 65  2  0  0  0  0
 29 55  1  0  0  0  0
 29 66  1  0  0  0  0
 30 67  1  0  0  0  0
 30 70  1  0  0  0  0
 31 71  1  0  0  0  0
 31 76  2  0  0  0  0
 32 46  1  0  0  0  0
 32 72  1  0  0  0  0
 32 77  2  0  0  0  0
 33 61  1  0  0  0  0
 33 68  1  0  0  0  0
 33 78  2  0  0  0  0
 34 62  1  0  0  0  0
 34 73  1  0  0  0  0
 34 79  2  0  0  0  0
 35 69  1  0  0  0  0
 35 74  1  0  0  0  0
 35 80  2  0  0  0  0
 36 39  1  0  0  0  0
 37 46  1  0  0  0  0
 38 68  1  0  0  0  0
 39 41  1  0  0  0  0
 40 42  1  0  0  0  0
 40 43  1  0  0  0  0
 41 45  1  0  0  0  0
 42 47  1  0  0  0  0
 43 69  1  0  0  0  0
 44 47  1  0  0  0  0
 44 69  1  0  0  0  0
 45 72  1  0  0  0  0
 46 68  1  0  0  0  0
 47 67  1  0  0  0  0
 49 62  1  0  0  0  0
 50 63  1  0  0  0  0
 51 63  1  0  0  0  0
 52 63  1  0  0  0  0
 53 74  1  0  0  0  0
 54 75  1  0  0  0  0
 55 56  1  0  0  0  0
 56 57  1  0  0  0  0
 57 60  1  0  0  0  0
 58 59  1  0  0  0  0
 58 66  1  0  0  0  0
 59 74  1  0  0  0  0
 60 82  1  0  0  0  0
 61 63  1  0  0  0  0
 61 73  1  0  0  0  0
 62 75  1  0  0  0  0
 64 67  1  0  0  0  0
 65 66  1  0  0  0  0
M  CHG  1  75   1
M  ISO  4  35 100  60 101  74 100  82 101
M  END
> <Batch ID>
0086

> <Smiles>
CNC(C)C(=O)NC(C(=O)N1Cc2cc([101O:1][101CH2:1]CCCc3cc(C)nn3CC[100N:0](C)[100C:0](=O)N3CCCC(n4nc(-c5ccc(Oc6ccc(F)cc6F)cc5)c(C(N)=O)c4N)C3)ccc2CC1C(=O)NC1CCCc2ccccc21)C(C)(C)C

> <Shape>
0.254

> <Color>
0.068

> <Negative vol penalty>
0.000

$$$$

  -OEChem-04052318593D

 84 92  0     1  0  0  0  0  0999 V2000
  -28.4009  -26.5791   15.1636 C   0  0  0  0  0  0  0  0  0  0  0  0
  -27.2859  -26.4319   15.9825 C   0  0  0  0  0  0  0  0  0  0  0  0
  -26.4215  -13.0853   21.6825 C   0  0  0  0  0  0  0  0  0  0  0  0
  -25.5477  -13.8660   19.5697 C   0  0  0  0  0  0  0  0  0  0  0  0
  -29.5537  -27.1861   15.6601 C   0  0  0  0  0  0  0  0  0  0  0  0
  -27.3235  -26.8907   17.2988 C   0  0  0  0  0  0  0  0  0  0  0  0
  -23.1357  -29.4271   18.5926 C   0  0  0  0  0  0  0  0  0  0  0  0
  -25.5774  -11.9766   21.6219 C   0  0  0  0  0  0  0  0  0  0  0  0
  -24.7036  -12.7572   19.5090 C   0  0  0  0  0  0  0  0  0  0  0  0
  -22.0027  -28.6732   18.8954 C   0  0  0  0  0  0  0  0  0  0  0  0
  -25.4982   -8.9898   20.0388 C   0  0  0  0  0  0  0  0  0  0  0  0
  -26.0417   -7.7436   20.3505 C   0  0  0  0  0  0  0  0  0  0  0  0
  -22.4533  -28.9523   21.2488 C   0  0  0  0  0  0  0  0  0  0  0  0
  -21.5163  -22.8994   20.5131 C   0  0  0  0  0  0  0  0  0  0  0  0
  -24.4565   -7.5044   22.1580 C   0  0  0  0  0  0  0  0  0  0  0  0
  -26.4066  -14.0301   20.6564 C   0  0  0  0  0  0  0  0  0  0  0  0
  -28.5881  -15.2762   20.2136 C   0  0  0  0  0  0  0  0  0  0  0  0
  -29.6022  -27.6612   16.9801 C   0  0  0  0  0  0  0  0  0  0  0  0
  -23.9435  -29.9409   19.6173 C   0  0  0  0  0  0  0  0  0  0  0  0
  -28.4786  -27.5034   17.8138 C   0  0  0  0  0  0  0  0  0  0  0  0
  -23.5946  -29.7145   20.9564 C   0  0  0  0  0  0  0  0  0  0  0  0
  -22.6681  -22.3120   20.0200 C   0  0  0  0  0  0  0  0  0  0  0  0
  -24.7185  -11.8124   20.5352 C   0  0  0  0  0  0  0  0  0  0  0  0
  -21.6630  -28.4332   20.2236 C   0  0  0  0  0  0  0  0  0  0  0  0
  -24.4339   -9.4934   20.7868 C   0  0  0  0  0  0  0  0  0  0  0  0
  -25.5209   -7.0009   21.4100 C   0  0  0  0  0  0  0  0  0  0  0  0
  -23.9131   -8.7506   21.8463 C   0  0  0  0  0  0  0  0  0  0  0  0
  -27.2779  -15.1760   20.7187 C   0  0  0  0  0  0  0  0  0  0  0  0
  -21.5725  -24.2315   20.8705 C   0  0  0  0  0  0  0  0  0  0  0  0
  -23.7998  -23.0957   19.9167 C   0  0  0  0  0  0  0  0  0  0  0  0
  -28.9788  -16.5559   20.5239 C   0  0  0  0  0  0  0  0  0  0  0  0
  -29.3810  -14.2999   19.5254 C   0  0  0  0  0  0  0  0  0  0  0  0
  -26.9698  -29.5395   20.5028 C   0  0  0  0  0  0  0  0  0  0  0  0
  -26.2607  -31.9058   22.6052 C   0  0  0  0  0  0  0  0  0  0  0  0
  -23.8794  -33.5871   24.3798 C   0  0  0  0  0  0  0  0  0  0  0  0
  -25.9399  -21.6150   21.5344 C   0  0  0  0  0  0  0  0  0  0  0  0
  -30.8868  -28.2678   17.4866 C   0  0  0  0  0  0  0  0  0  0  0  0
  -25.1474  -30.7747   19.2743 C   0  0  0  0  0  0  0  0  0  0  0  0
  -24.4173  -30.2610   22.0935 C   0  0  0  0  0  0  0  0  0  0  0  0
  -30.7169  -29.0639   18.7779 C   0  0  0  0  0  0  0  0  0  0  0  0
  -28.2381  -20.0216   23.7380 C   0  0  0  0  0  0  0  0  0  0  0  0
  -29.8808  -28.2784   19.7833 C   0  0  0  0  0  0  0  0  0  0  0  0
  -28.3708  -18.6081   23.1685 C   0  0  0  0  0  0  0  0  0  0  0  0
  -26.8146  -20.5560   23.5959 C   0  0  0  0  0  0  0  0  0  0  0  0
  -26.4004  -19.0913   21.6576 C   0  0  0  0  0  0  0  0  0  0  0  0
  -28.4722  -28.0104   19.2396 C   0  0  1  0  0  0  0  0  0  0  0  0
  -26.1842  -30.8156   20.3927 C   0  0  1  0  0  0  0  0  0  0  0  0
  -27.8314  -18.5312   21.7275 C   0  0  2  0  0  0  0  0  0  0  0  0
  -22.6611  -20.8775   19.6192 C   0  0  0  0  0  0  0  0  0  0  0  0
  -23.6086  -35.4477   26.0418 C   0  0  0  0  0  0  0  0  0  0  0  0
  -26.2783  -23.5222   19.3301 C   0  0  0  0  0  0  0  0  0  0  0  0
  -24.8839  -21.9850   17.9517 C   0  0  0  0  0  0  0  0  0  0  0  0
  -27.2805  -30.0722   24.8205 C   0  0  0  0  0  0  0  0  0  0  0  0
  -26.1298  -31.5524   26.4798 C   0  0  0  0  0  0  0  0  0  0  0  0
  -27.9603  -32.4676   25.0534 C   0  0  0  0  0  0  0  0  0  0  0  0
  -22.1977  -35.1593   22.5201 C   0  0  0  0  0  0  0  0  0  0  0  0
  -20.3456  -24.9195   21.4137 C   0  0  0  0  0  0  0  0  0  0  0  0
  -19.4732  -25.5653   20.3351 C   0  0  0  0  0  0  0  0  0  0  0  0
  -20.1752  -26.6912   19.5849 C   0  0  0  0  0  0  0  0  0  1  0  0
  -25.7139  -31.9582   24.0113 C   0  0  1  0  0  0  0  0  0  0  0  0
  -23.6245  -35.0716   24.5683 C   0  0  2  0  0  0  0  0  0  0  0  0
  -25.0778  -22.5311   19.3950 C   0  0  0  0  0  0  0  0  0  0  0  0
  -26.7565  -31.5005   25.0700 C   0  0  0  0  0  0  0  0  0  0  0  0
  -26.8639  -16.3023   21.3054 N   0  0  0  0  0  0  0  0  0  0  0  0
  -22.6940  -24.9745   20.7588 N   0  0  0  0  0  0  0  0  0  0  0  0
  -23.8259  -24.3972   20.2738 N   0  0  0  0  0  0  0  0  0  0  0  0
  -27.9202  -17.1222   21.1711 N   0  0  0  0  0  0  0  0  0  0  0  0
  -25.5885  -31.0650   21.7069 N   0  0  0  0  0  0  0  0  0  0  0  0
  -26.3637  -20.4562   22.2057 N   0  0  0  0  0  0  0  0  0  0  0  0
  -30.1212  -17.2406   20.3036 N   0  0  0  0  0  0  0  0  0  0  0  0
  -28.8260  -13.0349   19.2884 N   0  0  0  0  0  0  0  0  0  0  0  0
  -27.6530  -29.1983   19.3511 N   0  0  0  0  0  0  0  0  0  0  0  0
  -25.2205  -33.3171   24.2070 N   0  0  0  0  0  0  0  0  0  0  0  0
  -25.5347  -21.4333   20.2178 N   0  0  0  0  0  0  0  0  0  0  0  0
  -22.3126  -35.4517   23.9721 N   0  3  0  0  0  0  0  0  0  0  0  0
  -30.5533  -14.5366   19.1468 O   0  0  0  0  0  0  0  0  0  0  0  0
  -26.9581  -28.9117   21.5551 O   0  0  0  0  0  0  0  0  0  0  0  0
  -27.2437  -32.5913   22.3126 O   0  0  0  0  0  0  0  0  0  0  0  0
  -22.9794  -32.7502   24.3890 O   0  0  0  0  0  0  0  0  0  0  0  0
  -25.9287  -22.7299   22.0672 O   0  0  0  0  0  0  0  0  0  0  0  0
  -23.8949  -10.7304   20.4756 O   0  0  0  0  0  0  0  0  0  0  0  0
  -20.5580  -27.6971   20.5219 O   0  0  0  0  0  0  0  0  0  1  0  0
  -26.0419   -5.8034   21.7082 F   0  0  0  0  0  0  0  0  0  0  0  0
  -22.8899   -9.2286   22.5678 F   0  0  0  0  0  0  0  0  0  0  0  0
  1  2  1  0  0  0  0
  1  5  2  0  0  0  0
  2  6  2  0  0  0  0
  3  8  2  0  0  0  0
  3 16  1  0  0  0  0
  4  9  1  0  0  0  0
  4 16  2  0  0  0  0
  5 18  1  0  0  0  0
  6 20  1  0  0  0  0
  7 10  2  0  0  0  0
  7 19  1  0  0  0  0
  8 23  1  0  0  0  0
  9 23  2  0  0  0  0
 10 24  1  0  0  0  0
 11 12  2  0  0  0  0
 11 25  1  0  0  0  0
 12 26  1  0  0  0  0
 13 21  1  0  0  0  0
 13 24  2  0  0  0  0
 14 22  2  0  0  0  0
 14 29  1  0  0  0  0
 15 26  2  0  0  0  0
 15 27  1  0  0  0  0
 16 28  1  0  0  0  0
 17 28  1  0  0  0  0
 17 31  2  0  0  0  0
 17 32  1  0  0  0  0
 18 20  2  0  0  0  0
 18 37  1  0  0  0  0
 19 21  2  0  0  0  0
 19 38  1  0  0  0  0
 20 46  1  0  0  0  0
 21 39  1  0  0  0  0
 22 30  1  0  0  0  0
 22 49  1  0  0  0  0
 23 81  1  0  0  0  0
 24 82  1  0  0  0  0
 25 27  2  0  0  0  0
 25 81  1  0  0  0  0
 26 83  1  0  0  0  0
 27 84  1  0  0  0  0
 28 64  2  0  0  0  0
 29 57  1  0  0  0  0
 29 65  2  0  0  0  0
 30 62  1  0  0  0  0
 30 66  2  0  0  0  0
 31 67  1  0  0  0  0
 31 70  1  0  0  0  0
 32 71  1  0  0  0  0
 32 76  2  0  0  0  0
 33 47  1  0  0  0  0
 33 72  1  0  0  0  0
 33 77  2  0  0  0  0
 34 60  1  0  0  0  0
 34 68  1  0  0  0  0
 34 78  2  0  0  0  0
 35 61  1  0  0  0  0
 35 73  1  0  0  0  0
 35 79  2  0  0  0  0
 36 69  1  0  0  0  0
 36 74  1  0  0  0  0
 36 80  2  0  0  0  0
 37 40  1  0  0  0  0
 38 47  1  0  0  0  0
 39 68  1  0  0  0  0
 40 42  1  0  0  0  0
 41 43  1  0  0  0  0
 41 44  1  0  0  0  0
 42 46  1  0  0  0  0
 43 48  1  0  0  0  0
 44 69  1  0  0  0  0
 45 48  1  0  0  0  0
 45 69  1  0  0  0  0
 46 72  1  0  0  0  0
 47 68  1  0  0  0  0
 48 67  1  0  0  0  0
 50 61  1  0  0  0  0
 51 62  1  0  0  0  0
 52 62  1  0  0  0  0
 53 63  1  0  0  0  0
 54 63  1  0  0  0  0
 55 63  1  0  0  0  0
 56 75  1  0  0  0  0
 57 58  1  0  0  0  0
 58 59  1  0  0  0  0
 59 82  1  0  0  0  0
 60 63  1  0  0  0  0
 60 73  1  0  0  0  0
 61 75  1  0  0  0  0
 62 74  1  0  0  0  0
 64 67  1  0  0  0  0
 65 66  1  0  0  0  0
M  CHG  1  75   1
M  ISO  4  36 100  59 101  74 100  82 101
M  END
> <Batch ID>
0086

> <Smiles>
CNC(C)C(=O)NC(C(=O)N1Cc2cc([101O:1][101CH2:1]CCc3cc(C)c(C(C)(C)[100NH:0][100C:0](=O)N4CCCC(n5nc(-c6ccc(Oc7ccc(F)cc7F)cc6)c(C(N)=O)c5N)C4)nn3)ccc2CC1C(=O)NC1CCCc2ccccc21)C(C)(C)C

> <Shape>
0.231

> <Color>
0.081

> <Negative vol penalty>
0.000

$$$$

  -OEChem-04052318593D

 89 97  0     1  0  0  0  0  0999 V2000
  -24.0484  -37.4809   24.4108 C   0  0  0  0  0  0  0  0  0  0  0  0
  -23.9967  -36.9855   23.1118 C   0  0  0  0  0  0  0  0  0  0  0  0
  -22.6129  -10.5270   22.2646 C   0  0  0  0  0  0  0  0  0  0  0  0
  -22.4851  -10.3188   19.8610 C   0  0  0  0  0  0  0  0  0  0  0  0
  -24.9093  -36.9026   25.3425 C   0  0  0  0  0  0  0  0  0  0  0  0
  -24.8069  -35.9119   22.7436 C   0  0  0  0  0  0  0  0  0  0  0  0
  -21.9457  -29.8006   20.2223 C   0  0  0  0  0  0  0  0  0  0  0  0
  -22.1271   -9.2269   22.4031 C   0  0  0  0  0  0  0  0  0  0  0  0
  -21.9993   -9.0186   19.9994 C   0  0  0  0  0  0  0  0  0  0  0  0
  -21.4871  -28.6771   19.5343 C   0  0  0  0  0  0  0  0  0  0  0  0
  -23.3342   -6.0777   22.1613 C   0  0  0  0  0  0  0  0  0  0  0  0
  -23.9733   -5.2409   23.0761 C   0  0  0  0  0  0  0  0  0  0  0  0
  -23.7362  -27.7917   19.4590 C   0  0  0  0  0  0  0  0  0  0  0  0
  -24.0177  -22.3397   19.0299 C   0  0  0  0  0  0  0  0  0  0  0  0
  -21.9033   -4.9955   24.2977 C   0  0  0  0  0  0  0  0  0  0  0  0
  -22.7919  -11.0730   20.9935 C   0  0  0  0  0  0  0  0  0  0  0  0
  -24.6392  -12.8144   20.7436 C   0  0  0  0  0  0  0  0  0  0  0  0
  -25.7234  -35.8152   24.9882 C   0  0  0  0  0  0  0  0  0  0  0  0
  -23.3006  -29.9168   20.5453 C   0  0  0  0  0  0  0  0  0  0  0  0
  -25.6806  -35.3194   23.6711 C   0  0  0  0  0  0  0  0  0  0  0  0
  -24.1994  -28.9090   20.1591 C   0  0  0  0  0  0  0  0  0  0  0  0
  -23.4156  -22.8954   20.1532 C   0  0  0  0  0  0  0  0  0  0  0  0
  -23.3549  -22.1658   21.3353 C   0  0  0  0  0  0  0  0  0  0  0  0
  -21.8203   -8.4727   21.2705 C   0  0  0  0  0  0  0  0  0  0  0  0
  -22.3801  -27.6753   19.1534 C   0  0  0  0  0  0  0  0  0  0  0  0
  -21.9797   -6.3735   22.3147 C   0  0  0  0  0  0  0  0  0  0  0  0
  -23.2578   -4.6997   24.1443 C   0  0  0  0  0  0  0  0  0  0  0  0
  -21.2642   -5.8324   23.3829 C   0  0  0  0  0  0  0  0  0  0  0  0
  -23.2931  -12.4162   20.8499 C   0  0  0  0  0  0  0  0  0  0  0  0
  -24.5399  -21.0610   19.1396 C   0  0  0  0  0  0  0  0  0  0  0  0
  -23.9066  -20.8948   21.3417 C   0  0  0  0  0  0  0  0  0  0  0  0
  -24.5846  -14.1819   20.6272 C   0  0  0  0  0  0  0  0  0  0  0  0
  -25.8323  -12.0193   20.7495 C   0  0  0  0  0  0  0  0  0  0  0  0
  -25.9935  -31.9515   22.1837 C   0  0  0  0  0  0  0  0  0  0  0  0
  -26.5505  -29.0150   22.8744 C   0  0  0  0  0  0  0  0  0  0  0  0
  -26.5718  -25.7184   23.7515 C   0  0  0  0  0  0  0  0  0  0  0  0
  -22.3360  -18.7933   18.4310 C   0  0  0  0  0  0  0  0  0  0  0  0
  -26.6726  -35.2535   26.0168 C   0  0  0  0  0  0  0  0  0  0  0  0
  -23.8490  -31.1384   21.2313 C   0  0  0  0  0  0  0  0  0  0  0  0
  -25.6536  -29.0929   20.4974 C   0  0  0  0  0  0  0  0  0  0  0  0
  -27.2247  -33.8785   25.6496 C   0  0  0  0  0  0  0  0  0  0  0  0
  -20.7293  -17.3904   21.2818 C   0  0  0  0  0  0  0  0  0  0  0  0
  -27.6910  -33.8609   24.1973 C   0  0  0  0  0  0  0  0  0  0  0  0
  -21.3595  -16.0025   21.4107 C   0  0  0  0  0  0  0  0  0  0  0  0
  -20.5455  -17.7931   19.8203 C   0  0  0  0  0  0  0  0  0  0  0  0
  -22.3961  -16.3214   19.1255 C   0  0  0  0  0  0  0  0  0  0  0  0
  -26.5258  -34.1403   23.2404 C   0  0  1  0  0  0  0  0  0  0  0  0
  -25.0069  -30.8210   22.1945 C   0  0  1  0  0  0  0  0  0  0  0  0
  -22.6529  -15.8946   20.5809 C   0  0  2  0  0  0  0  0  0  0  0  0
  -22.7130  -22.7466   22.5519 C   0  0  0  0  0  0  0  0  0  0  0  0
  -26.3562  -19.5046   18.3632 C   0  0  0  0  0  0  0  0  0  0  0  0
  -27.8708  -24.0470   25.0992 C   0  0  0  0  0  0  0  0  0  0  0  0
  -24.2496  -18.2171   23.9191 C   0  0  0  0  0  0  0  0  0  0  0  0
  -26.0580  -19.9055   23.4450 C   0  0  0  0  0  0  0  0  0  0  0  0
  -19.6702  -25.7734   18.3204 C   0  0  0  0  0  0  0  0  0  0  0  0
  -28.6906  -28.9324   20.7024 C   0  0  0  0  0  0  0  0  0  0  0  0
  -29.3861  -26.6901   21.5722 C   0  0  0  0  0  0  0  0  0  0  0  0
  -29.5620  -28.7028   23.0353 C   0  0  0  0  0  0  0  0  0  0  0  0
  -24.2525  -25.1528   25.5007 C   0  0  0  0  0  0  0  0  0  0  0  0
  -22.8390  -24.2858   20.0641 C   0  0  0  0  0  0  0  0  0  0  0  0
  -21.4980  -24.3534   19.3189 C   0  0  0  0  0  0  0  0  0  0  0  0
  -24.2099  -19.6533   17.0496 C   0  0  0  0  0  0  0  0  0  0  0  0
  -25.1941  -20.4331   17.9544 C   0  0  1  0  0  0  0  0  0  0  0  0
  -27.2808  -27.7468   22.5115 C   0  0  1  0  0  0  0  0  0  0  0  0
  -26.7150  -25.0354   25.0996 C   0  0  2  0  0  0  0  0  0  0  0  0
  -24.8369  -19.1808   22.8982 C   0  0  0  0  0  0  0  0  0  0  0  0
  -20.9492  -25.7753   19.1480 C   0  0  1  0  0  0  0  0  0  1  0  0
  -28.7030  -28.0227   21.9471 C   0  0  0  0  0  0  0  0  0  0  0  0
  -22.4453  -13.4473   20.8051 N   0  0  0  0  0  0  0  0  0  0  0  0
  -24.4997  -20.3216   20.2706 N   0  0  0  0  0  0  0  0  0  0  0  0
  -23.2607  -14.5070   20.6695 N   0  0  0  0  0  0  0  0  0  0  0  0
  -25.7886  -29.6169   21.8656 N   0  0  0  0  0  0  0  0  0  0  0  0
  -21.8091  -17.6700   19.0895 N   0  0  0  0  0  0  0  0  0  0  0  0
  -25.5404  -15.1259   20.4939 N   0  0  0  0  0  0  0  0  0  0  0  0
  -25.7081  -10.6291   20.8773 N   0  0  0  0  0  0  0  0  0  0  0  0
  -23.8477  -20.1453   22.5434 N   0  0  0  0  0  0  0  0  0  0  0  0
  -25.7050  -32.9585   23.0848 N   0  0  0  0  0  0  0  0  0  0  0  0
  -27.2642  -26.9100   23.7065 N   0  0  0  0  0  0  0  0  0  0  0  0
  -23.5402  -18.5918   17.7677 N   0  0  0  0  0  0  0  0  0  0  0  0
  -25.4661  -24.2979   25.4419 N   0  3  0  0  0  0  0  0  0  0  0  0
  -26.9755  -12.5279   20.6611 O   0  0  0  0  0  0  0  0  0  0  0  0
  -26.9477  -31.9134   21.4157 O   0  0  0  0  0  0  0  0  0  0  0  0
  -26.6556  -29.4651   24.0188 O   0  0  0  0  0  0  0  0  0  0  0  0
  -25.9147  -25.2407   22.8292 O   0  0  0  0  0  0  0  0  0  0  0  0
  -21.7775  -19.8956   18.4384 O   0  0  0  0  0  0  0  0  0  0  0  0
  -21.3464   -7.2039   21.4052 O   0  0  0  0  0  0  0  0  0  0  0  0
  -21.9249  -26.5790   18.4858 O   0  0  0  0  0  0  0  0  0  1  0  0
  -23.8713   -3.8949   25.0218 F   0  0  0  0  0  0  0  0  0  0  0  0
  -19.9625   -6.1120   23.5348 F   0  0  0  0  0  0  0  0  0  0  0  0
  1  2  1  0  0  0  0
  1  5  2  0  0  0  0
  2  6  2  0  0  0  0
  3  8  2  0  0  0  0
  3 16  1  0  0  0  0
  4  9  1  0  0  0  0
  4 16  2  0  0  0  0
  5 18  1  0  0  0  0
  6 20  1  0  0  0  0
  7 10  2  0  0  0  0
  7 19  1  0  0  0  0
  8 24  1  0  0  0  0
  9 24  2  0  0  0  0
 10 25  1  0  0  0  0
 11 12  2  0  0  0  0
 11 26  1  0  0  0  0
 12 27  1  0  0  0  0
 13 21  1  0  0  0  0
 13 25  2  0  0  0  0
 14 22  1  0  0  0  0
 14 30  2  0  0  0  0
 15 27  2  0  0  0  0
 15 28  1  0  0  0  0
 16 29  1  0  0  0  0
 17 29  1  0  0  0  0
 17 32  2  0  0  0  0
 17 33  1  0  0  0  0
 18 20  2  0  0  0  0
 18 38  1  0  0  0  0
 19 21  2  0  0  0  0
 19 39  1  0  0  0  0
 20 47  1  0  0  0  0
 21 40  1  0  0  0  0
 22 23  2  0  0  0  0
 22 60  1  0  0  0  0
 23 31  1  0  0  0  0
 23 50  1  0  0  0  0
 24 86  1  0  0  0  0
 25 87  1  0  0  0  0
 26 28  2  0  0  0  0
 26 86  1  0  0  0  0
 27 88  1  0  0  0  0
 28 89  1  0  0  0  0
 29 69  2  0  0  0  0
 30 63  1  0  0  0  0
 30 70  1  0  0  0  0
 31 70  2  0  0  0  0
 31 76  1  0  0  0  0
 32 71  1  0  0  0  0
 32 74  1  0  0  0  0
 33 75  1  0  0  0  0
 33 81  2  0  0  0  0
 34 48  1  0  0  0  0
 34 77  1  0  0  0  0
 34 82  2  0  0  0  0
 35 64  1  0  0  0  0
 35 72  1  0  0  0  0
 35 83  2  0  0  0  0
 36 65  1  0  0  0  0
 36 78  1  0  0  0  0
 36 84  2  0  0  0  0
 37 73  1  0  0  0  0
 37 79  1  0  0  0  0
 37 85  2  0  0  0  0
 38 41  1  0  0  0  0
 39 48  1  0  0  0  0
 40 72  1  0  0  0  0
 41 43  1  0  0  0  0
 42 44  1  0  0  0  0
 42 45  1  0  0  0  0
 43 47  1  0  0  0  0
 44 49  1  0  0  0  0
 45 73  1  0  0  0  0
 46 49  1  0  0  0  0
 46 73  1  0  0  0  0
 47 77  1  0  0  0  0
 48 72  1  0  0  0  0
 49 71  1  0  0  0  0
 51 63  1  0  0  0  0
 52 65  1  0  0  0  0
 53 66  1  0  0  0  0
 54 66  1  0  0  0  0
 55 67  1  0  0  0  0
 56 68  1  0  0  0  0
 57 68  1  0  0  0  0
 58 68  1  0  0  0  0
 59 80  1  0  0  0  0
 60 61  1  0  0  0  0
 61 67  1  0  0  0  0
 62 63  1  0  0  0  0
 62 79  1  0  0  0  0
 64 68  1  0  0  0  0
 64 78  1  0  0  0  0
 65 80  1  0  0  0  0
 66 76  1  0  0  0  0
 67 87  1  0  0  0  0
 69 71  1  0  0  0  0
M  CHG  1  80   1
M  ISO  4  37 100  67 101  79 100  87 101
M  END
> <Batch ID>
0086

> <Smiles>
CNC(C)C(=O)NC(C(=O)N1Cc2cc([101O:1][101CH:1](C)CCc3cc(C(C)C[100NH:0][100C:0](=O)N4CCCC(n5nc(-c6ccc(Oc7ccc(F)cc7F)cc6)c(C(N)=O)c5N)C4)nc(NC(C)C)c3C)ccc2CC1C(=O)NC1CCCc2ccccc21)C(C)(C)C

> <Shape>
0.233

> <Color>
0.093

> <Negative vol penalty>
0.000

$$$$

  -OEChem-04052318593D

 87 95  0     1  0  0  0  0  0999 V2000
  -19.0760  -32.9857   20.0801 C   0  0  0  0  0  0  0  0  0  0  0  0
  -20.3310  -32.5129   19.7100 C   0  0  0  0  0  0  0  0  0  0  0  0
  -25.9675  -14.9084   22.6150 C   0  0  0  0  0  0  0  0  0  0  0  0
  -25.5382  -14.4234   20.2874 C   0  0  0  0  0  0  0  0  0  0  0  0
  -18.5735  -32.7056   21.3501 C   0  0  0  0  0  0  0  0  0  0  0  0
  -21.0847  -31.7607   20.6103 C   0  0  0  0  0  0  0  0  0  0  0  0
  -24.8566  -27.1230   19.2794 C   0  0  0  0  0  0  0  0  0  0  0  0
  -31.1095  -25.5978   18.4082 C   0  0  0  0  0  0  0  0  0  0  0  0
  -25.0509  -13.9258   22.9889 C   0  0  0  0  0  0  0  0  0  0  0  0
  -24.6215  -13.4408   20.6613 C   0  0  0  0  0  0  0  0  0  0  0  0
  -26.2407  -27.0539   19.1269 C   0  0  0  0  0  0  0  0  0  0  0  0
  -24.7070  -10.2506   21.7729 C   0  0  0  0  0  0  0  0  0  0  0  0
  -24.7676   -9.0244   21.1108 C   0  0  0  0  0  0  0  0  0  0  0  0
  -31.3442  -24.6989   17.3736 C   0  0  0  0  0  0  0  0  0  0  0  0
  -26.4509  -26.3282   21.4178 C   0  0  0  0  0  0  0  0  0  0  0  0
  -22.4976   -9.3279   20.3412 C   0  0  0  0  0  0  0  0  0  0  0  0
  -26.2112  -15.1573   21.2643 C   0  0  0  0  0  0  0  0  0  0  0  0
  -28.5381  -16.0081   20.6568 C   0  0  0  0  0  0  0  0  0  0  0  0
  -19.3174  -31.9414   22.2630 C   0  0  0  0  0  0  0  0  0  0  0  0
  -24.2591  -26.8053   20.5077 C   0  0  0  0  0  0  0  0  0  0  0  0
  -20.5923  -31.4713   21.8942 C   0  0  0  0  0  0  0  0  0  0  0  0
  -25.0588  -26.3917   21.5826 C   0  0  0  0  0  0  0  0  0  0  0  0
  -30.8802  -25.1236   19.6950 C   0  0  0  0  0  0  0  0  0  0  0  0
  -24.3779  -13.1920   22.0121 C   0  0  0  0  0  0  0  0  0  0  0  0
  -27.0383  -26.6592   20.1970 C   0  0  0  0  0  0  0  0  0  0  0  0
  -23.5418  -11.0154   21.7193 C   0  0  0  0  0  0  0  0  0  0  0  0
  -23.6629   -8.5631   20.3949 C   0  0  0  0  0  0  0  0  0  0  0  0
  -22.4371  -10.5541   21.0034 C   0  0  0  0  0  0  0  0  0  0  0  0
  -27.1575  -16.1726   20.8774 C   0  0  0  0  0  0  0  0  0  0  0  0
  -31.3391  -23.3467   17.6757 C   0  0  0  0  0  0  0  0  0  0  0  0
  -30.8957  -23.7524   19.8931 C   0  0  0  0  0  0  0  0  0  0  0  0
  -28.9826  -17.2613   20.3128 C   0  0  0  0  0  0  0  0  0  0  0  0
  -29.3465  -14.8279   20.7541 C   0  0  0  0  0  0  0  0  0  0  0  0
  -22.5076  -28.3980   22.6287 C   0  0  0  0  0  0  0  0  0  0  0  0
  -22.2686  -25.4854   24.0366 C   0  0  0  0  0  0  0  0  0  0  0  0
  -23.5844  -22.3691   24.4883 C   0  0  0  0  0  0  0  0  0  0  0  0
  -28.3986  -22.0166   17.4507 C   0  0  0  0  0  0  0  0  0  0  0  0
  -18.7527  -31.7045   23.6412 C   0  0  0  0  0  0  0  0  0  0  0  0
  -22.7625  -26.8592   20.6481 C   0  0  0  0  0  0  0  0  0  0  0  0
  -24.4648  -26.0204   22.9160 C   0  0  0  0  0  0  0  0  0  0  0  0
  -19.4554  -30.5838   24.4031 C   0  0  0  0  0  0  0  0  0  0  0  0
  -26.6727  -21.7549   20.5539 C   0  0  0  0  0  0  0  0  0  0  0  0
  -20.9697  -30.7316   24.2934 C   0  0  0  0  0  0  0  0  0  0  0  0
  -26.7535  -20.2655   20.8929 C   0  0  0  0  0  0  0  0  0  0  0  0
  -26.5095  -21.9840   19.0529 C   0  0  0  0  0  0  0  0  0  0  0  0
  -27.6066  -19.8350   18.5508 C   0  0  0  0  0  0  0  0  0  0  0  0
  -21.4295  -30.6310   22.8340 C   0  0  1  0  0  0  0  0  0  0  0  0
  -22.3032  -27.0083   22.0952 C   0  0  1  0  0  0  0  0  0  0  0  0
  -27.8277  -19.5554   20.0472 C   0  0  2  0  0  0  0  0  0  0  0  0
  -23.7231  -19.9929   25.2833 C   0  0  0  0  0  0  0  0  0  0  0  0
  -31.3072  -22.7588   24.3053 C   0  0  0  0  0  0  0  0  0  0  0  0
  -30.4174  -20.7073   23.1767 C   0  0  0  0  0  0  0  0  0  0  0  0
  -33.1364  -23.1562   21.8167 C   0  0  0  0  0  0  0  0  0  0  0  0
  -23.2660  -26.7864   26.6101 C   0  0  0  0  0  0  0  0  0  0  0  0
  -23.7481  -24.4960   27.4988 C   0  0  0  0  0  0  0  0  0  0  0  0
  -21.4081  -25.1420   26.9245 C   0  0  0  0  0  0  0  0  0  0  0  0
  -22.1724  -21.3623   22.0901 C   0  0  0  0  0  0  0  0  0  0  0  0
  -30.6235  -26.0944   20.8220 C   0  0  0  0  0  0  0  0  0  0  0  0
  -31.5891  -22.3541   16.5897 C   0  0  0  0  0  0  0  0  0  0  0  0
  -30.6588  -23.1861   21.2547 C   0  0  0  0  0  0  0  0  0  0  0  0
  -30.3135  -21.8904   15.8771 C   0  0  0  0  0  0  0  0  0  0  0  0
  -29.1460  -26.1795   21.1888 C   0  0  0  0  0  0  0  0  0  1  0  0
  -23.0709  -24.7265   25.0659 C   0  0  1  0  0  0  0  0  0  0  0  0
  -22.9509  -20.9907   24.4342 C   0  0  2  0  0  0  0  0  0  0  0  0
  -31.5670  -21.7207   23.2105 C   0  0  0  0  0  0  0  0  0  0  0  0
  -31.8366  -22.3361   21.8061 C   0  0  2  0  0  0  0  0  0  0  0  0
  -22.8849  -25.2965   26.5004 C   0  0  0  0  0  0  0  0  0  0  0  0
  -26.7517  -17.4312   20.6895 N   0  0  0  0  0  0  0  0  0  0  0  0
  -31.1201  -22.8485   18.9132 N   0  0  0  0  0  0  0  0  0  0  0  0
  -27.8841  -18.0689   20.3473 N   0  0  0  0  0  0  0  0  0  0  0  0
  -22.9972  -26.0951   23.0055 N   0  0  0  0  0  0  0  0  0  0  0  0
  -27.5601  -21.2855   18.3083 N   0  0  0  0  0  0  0  0  0  0  0  0
  -30.2021  -17.7402   19.9873 N   0  0  0  0  0  0  0  0  0  0  0  0
  -28.7295  -13.6237   21.1196 N   0  0  0  0  0  0  0  0  0  0  0  0
  -21.4432  -29.2497   22.4025 N   0  0  0  0  0  0  0  0  0  0  0  0
  -22.6919  -23.3246   24.9262 N   0  0  0  0  0  0  0  0  0  0  0  0
  -29.3718  -21.2787   16.7881 N   0  0  0  0  0  0  0  0  0  0  0  0
  -22.9205  -20.4893   23.0311 N   0  3  0  0  0  0  0  0  0  0  0  0
  -30.5823  -14.8442   20.5397 O   0  0  0  0  0  0  0  0  0  0  0  0
  -23.5529  -28.6765   23.2045 O   0  0  0  0  0  0  0  0  0  0  0  0
  -21.0402  -25.5295   24.1397 O   0  0  0  0  0  0  0  0  0  0  0  0
  -24.7551  -22.5768   24.1771 O   0  0  0  0  0  0  0  0  0  0  0  0
  -28.2914  -23.2373   17.2917 O   0  0  0  0  0  0  0  0  0  0  0  0
  -23.4835  -12.2329   22.3765 O   0  0  0  0  0  0  0  0  0  0  0  0
  -28.3896  -26.5915   20.0510 O   0  0  0  0  0  0  0  0  0  1  0  0
  -23.7217   -7.3863   19.7578 F   0  0  0  0  0  0  0  0  0  0  0  0
  -21.3153  -11.2850   20.9472 F   0  0  0  0  0  0  0  0  0  0  0  0
  1  2  1  0  0  0  0
  1  5  2  0  0  0  0
  2  6  2  0  0  0  0
  3  9  2  0  0  0  0
  3 17  1  0  0  0  0
  4 10  1  0  0  0  0
  4 17  2  0  0  0  0
  5 19  1  0  0  0  0
  6 21  1  0  0  0  0
  7 11  2  0  0  0  0
  7 20  1  0  0  0  0
  8 14  2  0  0  0  0
  8 23  1  0  0  0  0
  9 24  1  0  0  0  0
 10 24  2  0  0  0  0
 11 25  1  0  0  0  0
 12 13  2  0  0  0  0
 12 26  1  0  0  0  0
 13 27  1  0  0  0  0
 14 30  1  0  0  0  0
 15 22  1  0  0  0  0
 15 25  2  0  0  0  0
 16 27  2  0  0  0  0
 16 28  1  0  0  0  0
 17 29  1  0  0  0  0
 18 29  1  0  0  0  0
 18 32  2  0  0  0  0
 18 33  1  0  0  0  0
 19 21  2  0  0  0  0
 19 38  1  0  0  0  0
 20 22  2  0  0  0  0
 20 39  1  0  0  0  0
 21 47  1  0  0  0  0
 22 40  1  0  0  0  0
 23 31  2  0  0  0  0
 23 58  1  0  0  0  0
 24 84  1  0  0  0  0
 25 85  1  0  0  0  0
 26 28  2  0  0  0  0
 26 84  1  0  0  0  0
 27 86  1  0  0  0  0
 28 87  1  0  0  0  0
 29 68  2  0  0  0  0
 30 59  1  0  0  0  0
 30 69  2  0  0  0  0
 31 60  1  0  0  0  0
 31 69  1  0  0  0  0
 32 70  1  0  0  0  0
 32 73  1  0  0  0  0
 33 74  1  0  0  0  0
 33 79  2  0  0  0  0
 34 48  1  0  0  0  0
 34 75  1  0  0  0  0
 34 80  2  0  0  0  0
 35 63  1  0  0  0  0
 35 71  1  0  0  0  0
 35 81  2  0  0  0  0
 36 64  1  0  0  0  0
 36 76  1  0  0  0  0
 36 82  2  0  0  0  0
 37 72  1  0  0  0  0
 37 77  1  0  0  0  0
 37 83  2  0  0  0  0
 38 41  1  0  0  0  0
 39 48  1  0  0  0  0
 40 71  1  0  0  0  0
 41 43  1  0  0  0  0
 42 44  1  0  0  0  0
 42 45  1  0  0  0  0
 43 47  1  0  0  0  0
 44 49  1  0  0  0  0
 45 72  1  0  0  0  0
 46 49  1  0  0  0  0
 46 72  1  0  0  0  0
 47 75  1  0  0  0  0
 48 71  1  0  0  0  0
 49 70  1  0  0  0  0
 50 64  1  0  0  0  0
 51 65  1  0  0  0  0
 52 65  1  0  0  0  0
 53 66  1  0  0  0  0
 54 67  1  0  0  0  0
 55 67  1  0  0  0  0
 56 67  1  0  0  0  0
 57 78  1  0  0  0  0
 58 62  1  0  0  0  0
 59 61  1  0  0  0  0
 60 66  1  0  0  0  0
 61 77  1  0  0  0  0
 62 85  1  0  0  0  0
 63 67  1  0  0  0  0
 63 76  1  0  0  0  0
 64 78  1  0  0  0  0
 65 66  1  0  0  0  0
 68 70  1  0  0  0  0
M  CHG  1  78   1
M  ISO  4  37 100  62 101  77 100  85 101
M  END
> <Batch ID>
0086

> <Smiles>
CNC(C)C(=O)NC(C(=O)N1Cc2cc([101O:1][101CH2:1]Cc3ccc(CC[100NH:0][100C:0](=O)N4CCCC(n5nc(-c6ccc(Oc7ccc(F)cc7F)cc6)c(C(N)=O)c5N)C4)nc3CC(C)C(C)C)ccc2CC1C(=O)NC1CCCc2ccccc21)C(C)(C)C

> <Shape>
0.213

> <Color>
0.093

> <Negative vol penalty>
0.000

$$$$

  -OEChem-04052318593D

 86 94  0     1  0  0  0  0  0999 V2000
  -17.8755  -25.0740   21.4526 C   0  0  0  0  0  0  0  0  0  0  0  0
  -19.2134  -24.9295   21.0997 C   0  0  0  0  0  0  0  0  0  0  0  0
  -25.4354  -13.1004   22.0583 C   0  0  0  0  0  0  0  0  0  0  0  0
  -26.1181  -13.5598   19.7868 C   0  0  0  0  0  0  0  0  0  0  0  0
  -17.4631  -26.1932   22.1744 C   0  0  0  0  0  0  0  0  0  0  0  0
  -20.1396  -25.9048   21.4676 C   0  0  0  0  0  0  0  0  0  0  0  0
  -24.4165  -23.9230   23.3183 C   0  0  0  0  0  0  0  0  0  0  0  0
  -25.2147  -11.7649   21.7220 C   0  0  0  0  0  0  0  0  0  0  0  0
  -25.8974  -12.2242   19.4504 C   0  0  0  0  0  0  0  0  0  0  0  0
  -25.3313  -23.4115   22.3988 C   0  0  0  0  0  0  0  0  0  0  0  0
  -24.1280   -8.3122   21.3727 C   0  0  0  0  0  0  0  0  0  0  0  0
  -22.9535   -7.7129   21.8275 C   0  0  0  0  0  0  0  0  0  0  0  0
  -26.6303  -25.4367   22.5737 C   0  0  0  0  0  0  0  0  0  0  0  0
  -29.1645  -23.9528   18.3614 C   0  0  0  0  0  0  0  0  0  0  0  0
  -21.6504   -9.3490   20.6183 C   0  0  0  0  0  0  0  0  0  0  0  0
  -25.8870  -13.9979   21.0907 C   0  0  0  0  0  0  0  0  0  0  0  0
  -27.3105  -15.9489   21.9121 C   0  0  0  0  0  0  0  0  0  0  0  0
  -18.3863  -27.1780   22.5597 C   0  0  0  0  0  0  0  0  0  0  0  0
  -24.5963  -25.2018   23.8650 C   0  0  0  0  0  0  0  0  0  0  0  0
  -19.7389  -27.0390   22.1942 C   0  0  0  0  0  0  0  0  0  0  0  0
  -25.7177  -25.9611   23.5018 C   0  0  0  0  0  0  0  0  0  0  0  0
  -29.1904  -24.8506   17.3000 C   0  0  0  0  0  0  0  0  0  0  0  0
  -28.1675  -22.9856   18.4224 C   0  0  0  0  0  0  0  0  0  0  0  0
  -25.4457  -11.3267   20.4180 C   0  0  0  0  0  0  0  0  0  0  0  0
  -26.4368  -24.1695   22.0242 C   0  0  0  0  0  0  0  0  0  0  0  0
  -24.0637   -9.4300   20.5408 C   0  0  0  0  0  0  0  0  0  0  0  0
  -21.7147   -8.2312   21.4503 C   0  0  0  0  0  0  0  0  0  0  0  0
  -22.8249   -9.9484   20.1636 C   0  0  0  0  0  0  0  0  0  0  0  0
  -26.1146  -15.3778   21.4374 C   0  0  0  0  0  0  0  0  0  0  0  0
  -28.2044  -24.7401   16.3329 C   0  0  0  0  0  0  0  0  0  0  0  0
  -27.2271  -22.9587   17.4051 C   0  0  0  0  0  0  0  0  0  0  0  0
  -27.0099  -17.2773   22.0895 C   0  0  0  0  0  0  0  0  0  0  0  0
  -28.5797  -15.3337   22.1697 C   0  0  0  0  0  0  0  0  0  0  0  0
  -22.9407  -27.9148   23.8171 C   0  0  0  0  0  0  0  0  0  0  0  0
  -25.2163  -28.8855   25.9152 C   0  0  0  0  0  0  0  0  0  0  0  0
  -28.3828  -28.5135   27.1323 C   0  0  0  0  0  0  0  0  0  0  0  0
  -22.9262  -20.8978   19.6265 C   0  0  0  0  0  0  0  0  0  0  0  0
  -17.8851  -28.3937   23.2984 C   0  0  0  0  0  0  0  0  0  0  0  0
  -23.6148  -25.7283   24.8758 C   0  0  0  0  0  0  0  0  0  0  0  0
  -25.9672  -27.3313   24.0751 C   0  0  0  0  0  0  0  0  0  0  0  0
  -18.9943  -29.1965   23.9734 C   0  0  0  0  0  0  0  0  0  0  0  0
  -23.3452  -20.1859   23.0898 C   0  0  0  0  0  0  0  0  0  0  0  0
  -20.1623  -29.4041   23.0145 C   0  0  0  0  0  0  0  0  0  0  0  0
  -24.2104  -18.9245   23.1019 C   0  0  0  0  0  0  0  0  0  0  0  0
  -22.3547  -20.1799   21.9275 C   0  0  0  0  0  0  0  0  0  0  0  0
  -23.8246  -18.7027   20.6117 C   0  0  0  0  0  0  0  0  0  0  0  0
  -20.7778  -28.0633   22.5963 C   0  0  1  0  0  0  0  0  0  0  0  0
  -23.6225  -27.2503   24.9796 C   0  0  1  0  0  0  0  0  0  0  0  0
  -24.8773  -18.6889   21.7333 C   0  0  2  0  0  0  0  0  0  0  0  0
  -28.1809  -25.6777   15.1704 C   0  0  0  0  0  0  0  0  0  0  0  0
  -31.1007  -28.0970   18.1466 C   0  0  0  0  0  0  0  0  0  0  0  0
  -29.9703  -29.4769   28.8202 C   0  0  0  0  0  0  0  0  0  0  0  0
  -25.7010  -31.2809   24.0885 C   0  0  0  0  0  0  0  0  0  0  0  0
  -27.8686  -31.6637   25.2815 C   0  0  0  0  0  0  0  0  0  0  0  0
  -25.7154  -31.8127   26.5321 C   0  0  0  0  0  0  0  0  0  0  0  0
  -28.5791  -25.9434   28.5866 C   0  0  0  0  0  0  0  0  0  0  0  0
  -30.2560  -25.8891   17.2289 C   0  0  0  0  0  0  0  0  0  0  0  0
  -28.1335  -22.0081   19.5720 C   0  0  0  0  0  0  0  0  0  0  0  0
  -26.1344  -21.9404   17.4186 C   0  0  0  0  0  0  0  0  0  0  0  0
  -29.9945  -27.0551   18.1955 C   0  0  0  0  0  0  0  0  0  0  0  0
  -24.7135  -22.5317   17.3505 C   0  0  0  0  0  0  0  0  0  0  0  0
  -23.5989  -21.4883   17.3118 C   0  0  0  0  0  0  0  0  0  0  0  0
  -27.0744  -22.3683   20.6082 C   0  0  0  0  0  0  0  0  0  1  0  0
  -26.5671  -29.5489   25.7961 C   0  0  1  0  0  0  0  0  0  0  0  0
  -28.9116  -28.4186   28.5521 C   0  0  2  0  0  0  0  0  0  0  0  0
  -26.4576  -31.0516   25.4121 C   0  0  0  0  0  0  0  0  0  0  0  0
  -25.1277  -16.2703   21.3208 N   0  0  0  0  0  0  0  0  0  0  0  0
  -27.2199  -23.8140   16.3582 N   0  0  0  0  0  0  0  0  0  0  0  0
  -25.7030  -17.4157   21.7248 N   0  0  0  0  0  0  0  0  0  0  0  0
  -24.9756  -27.8048   25.0550 N   0  0  0  0  0  0  0  0  0  0  0  0
  -23.0513  -19.9535   20.6588 N   0  0  0  0  0  0  0  0  0  0  0  0
  -27.7386  -18.3289   22.5204 N   0  0  0  0  0  0  0  0  0  0  0  0
  -28.7160  -13.9589   21.9334 N   0  0  0  0  0  0  0  0  0  0  0  0
  -21.6202  -27.5428   23.6517 N   0  0  0  0  0  0  0  0  0  0  0  0
  -27.2551  -29.3035   27.0590 N   0  0  0  0  0  0  0  0  0  0  0  0
  -23.6238  -20.6097   18.4599 N   0  0  0  0  0  0  0  0  0  0  0  0
  -29.5163  -27.0777   28.7911 N   0  3  0  0  0  0  0  0  0  0  0  0
  -29.5591  -15.9806   22.6122 O   0  0  0  0  0  0  0  0  0  0  0  0
  -23.5660  -28.7075   23.1226 O   0  0  0  0  0  0  0  0  0  0  0  0
  -24.4072  -29.3060   26.7460 O   0  0  0  0  0  0  0  0  0  0  0  0
  -28.9189  -27.9467   26.1826 O   0  0  0  0  0  0  0  0  0  0  0  0
  -22.2477  -21.9246   19.7383 O   0  0  0  0  0  0  0  0  0  0  0  0
  -25.2307  -10.0235   20.0895 O   0  0  0  0  0  0  0  0  0  0  0  0
  -27.3308  -23.6729   21.1264 O   0  0  0  0  0  0  0  0  0  1  0  0
  -20.5868   -7.6546   21.8858 F   0  0  0  0  0  0  0  0  0  0  0  0
  -22.7569  -11.0213   19.3636 F   0  0  0  0  0  0  0  0  0  0  0  0
  1  2  1  0  0  0  0
  1  5  2  0  0  0  0
  2  6  2  0  0  0  0
  3  8  2  0  0  0  0
  3 16  1  0  0  0  0
  4  9  1  0  0  0  0
  4 16  2  0  0  0  0
  5 18  1  0  0  0  0
  6 20  1  0  0  0  0
  7 10  2  0  0  0  0
  7 19  1  0  0  0  0
  8 24  1  0  0  0  0
  9 24  2  0  0  0  0
 10 25  1  0  0  0  0
 11 12  2  0  0  0  0
 11 26  1  0  0  0  0
 12 27  1  0  0  0  0
 13 21  1  0  0  0  0
 13 25  2  0  0  0  0
 14 22  1  0  0  0  0
 14 23  2  0  0  0  0
 15 27  2  0  0  0  0
 15 28  1  0  0  0  0
 16 29  1  0  0  0  0
 17 29  1  0  0  0  0
 17 32  2  0  0  0  0
 17 33  1  0  0  0  0
 18 20  2  0  0  0  0
 18 38  1  0  0  0  0
 19 21  2  0  0  0  0
 19 39  1  0  0  0  0
 20 47  1  0  0  0  0
 21 40  1  0  0  0  0
 22 30  2  0  0  0  0
 22 57  1  0  0  0  0
 23 31  1  0  0  0  0
 23 58  1  0  0  0  0
 24 83  1  0  0  0  0
 25 84  1  0  0  0  0
 26 28  2  0  0  0  0
 26 83  1  0  0  0  0
 27 85  1  0  0  0  0
 28 86  1  0  0  0  0
 29 67  2  0  0  0  0
 30 50  1  0  0  0  0
 30 68  1  0  0  0  0
 31 59  1  0  0  0  0
 31 68  2  0  0  0  0
 32 69  1  0  0  0  0
 32 72  1  0  0  0  0
 33 73  1  0  0  0  0
 33 78  2  0  0  0  0
 34 48  1  0  0  0  0
 34 74  1  0  0  0  0
 34 79  2  0  0  0  0
 35 64  1  0  0  0  0
 35 70  1  0  0  0  0
 35 80  2  0  0  0  0
 36 65  1  0  0  0  0
 36 75  1  0  0  0  0
 36 81  2  0  0  0  0
 37 71  1  0  0  0  0
 37 76  1  0  0  0  0
 37 82  2  0  0  0  0
 38 41  1  0  0  0  0
 39 48  1  0  0  0  0
 40 70  1  0  0  0  0
 41 43  1  0  0  0  0
 42 44  1  0  0  0  0
 42 45  1  0  0  0  0
 43 47  1  0  0  0  0
 44 49  1  0  0  0  0
 45 71  1  0  0  0  0
 46 49  1  0  0  0  0
 46 71  1  0  0  0  0
 47 74  1  0  0  0  0
 48 70  1  0  0  0  0
 49 69  1  0  0  0  0
 51 60  1  0  0  0  0
 52 65  1  0  0  0  0
 53 66  1  0  0  0  0
 54 66  1  0  0  0  0
 55 66  1  0  0  0  0
 56 77  1  0  0  0  0
 57 60  1  0  0  0  0
 58 63  1  0  0  0  0
 59 61  1  0  0  0  0
 61 62  1  0  0  0  0
 62 76  1  0  0  0  0
 63 84  1  0  0  0  0
 64 66  1  0  0  0  0
 64 75  1  0  0  0  0
 65 77  1  0  0  0  0
 67 69  1  0  0  0  0
M  CHG  1  77   1
M  ISO  4  37 100  63 101  76 100  84 101
M  END
> <Batch ID>
0086

> <Smiles>
CCCc1cc(C[101CH2:1][101O:1]c2ccc3c(c2)CN(C(=O)C(NC(=O)C(C)NC)C(C)(C)C)C(C(=O)NC2CCCc4ccccc42)C3)c(CCC[100NH:0][100C:0](=O)N2CCCC(n3nc(-c4ccc(Oc5ccc(F)cc5F)cc4)c(C(N)=O)c3N)C2)nc1C

> <Shape>
0.213

> <Color>
0.084

> <Negative vol penalty>
0.000

$$$$

  -OEChem-04052318593D

 82 90  0     1  0  0  0  0  0999 V2000
  -23.4436  -24.0671   19.4539 C   0  0  0  0  0  0  0  0  0  0  0  0
  -24.5574  -23.2911   19.7582 C   0  0  0  0  0  0  0  0  0  0  0  0
  -26.8617  -28.7105   19.6755 C   0  0  0  0  0  0  0  0  0  0  0  0
  -26.0655  -26.7514   20.8440 C   0  0  0  0  0  0  0  0  0  0  0  0
  -22.1727  -23.6412   19.8378 C   0  0  0  0  0  0  0  0  0  0  0  0
  -24.4010  -22.0891   20.4476 C   0  0  0  0  0  0  0  0  0  0  0  0
  -27.1376  -18.3293   18.4427 C   0  0  0  0  0  0  0  0  0  0  0  0
  -25.5972  -29.2890   19.7839 C   0  0  0  0  0  0  0  0  0  0  0  0
  -24.8010  -27.3300   20.9524 C   0  0  0  0  0  0  0  0  0  0  0  0
  -28.5012  -18.3097   18.7324 C   0  0  0  0  0  0  0  0  0  0  0  0
  -21.4589  -28.4413   21.8545 C   0  0  0  0  0  0  0  0  0  0  0  0
  -20.8123  -28.3622   23.0878 C   0  0  0  0  0  0  0  0  0  0  0  0
  -28.1124  -16.6305   20.4201 C   0  0  0  0  0  0  0  0  0  0  0  0
  -33.4509  -20.2291   23.3385 C   0  0  0  0  0  0  0  0  0  0  0  0
  -22.6325  -29.5701   24.1197 C   0  0  0  0  0  0  0  0  0  0  0  0
  -27.0959  -27.4416   20.2055 C   0  0  0  0  0  0  0  0  0  0  0  0
  -29.4686  -26.9533   21.0054 C   0  0  0  0  0  0  0  0  0  0  0  0
  -21.9997  -22.4287   20.5238 C   0  0  0  0  0  0  0  0  0  0  0  0
  -26.2482  -17.5061   19.1482 C   0  0  0  0  0  0  0  0  0  0  0  0
  -23.1268  -21.6472   20.8422 C   0  0  0  0  0  0  0  0  0  0  0  0
  -26.7383  -16.6397   20.1357 C   0  0  0  0  0  0  0  0  0  0  0  0
  -33.1270  -20.1039   21.9990 C   0  0  0  0  0  0  0  0  0  0  0  0
  -24.5668  -28.5989   20.4223 C   0  0  0  0  0  0  0  0  0  0  0  0
  -28.9885  -17.4624   19.7232 C   0  0  0  0  0  0  0  0  0  0  0  0
  -22.6924  -29.0848   21.7538 C   0  0  0  0  0  0  0  0  0  0  0  0
  -21.3990  -28.9266   24.2205 C   0  0  0  0  0  0  0  0  0  0  0  0
  -23.2792  -29.6492   22.8864 C   0  0  0  0  0  0  0  0  0  0  0  0
  -28.4018  -26.8431   20.0934 C   0  0  0  0  0  0  0  0  0  0  0  0
  -34.6091  -20.9067   23.6625 C   0  0  0  0  0  0  0  0  0  0  0  0
  -33.9825  -20.6648   21.0722 C   0  0  0  0  0  0  0  0  0  0  0  0
  -30.4774  -26.2082   20.4454 C   0  0  0  0  0  0  0  0  0  0  0  0
  -29.5410  -27.6654   22.2478 C   0  0  0  0  0  0  0  0  0  0  0  0
  -23.7547  -18.0121   21.0536 C   0  0  0  0  0  0  0  0  0  0  0  0
  -23.4861  -14.7826   20.9120 C   0  0  0  0  0  0  0  0  0  0  0  0
  -24.9990  -11.7701   20.3801 C   0  0  0  0  0  0  0  0  0  0  0  0
  -32.2624  -21.5928   17.8654 C   0  0  0  0  0  0  0  0  0  0  0  0
  -20.6111  -22.0329   20.9596 C   0  0  0  0  0  0  0  0  0  0  0  0
  -24.7837  -17.5196   18.8053 C   0  0  0  0  0  0  0  0  0  0  0  0
  -25.8279  -15.7215   20.9080 C   0  0  0  0  0  0  0  0  0  0  0  0
  -20.4932  -20.5640   21.3578 C   0  0  0  0  0  0  0  0  0  0  0  0
  -30.8991  -24.1778   15.8318 C   0  0  0  0  0  0  0  0  0  0  0  0
  -21.6448  -20.1656   22.2755 C   0  0  0  0  0  0  0  0  0  0  0  0
  -30.2109  -25.1067   16.8335 C   0  0  0  0  0  0  0  0  0  0  0  0
  -30.7666  -22.7118   16.2385 C   0  0  0  0  0  0  0  0  0  0  0  0
  -30.5291  -23.3352   18.6109 C   0  0  0  0  0  0  0  0  0  0  0  0
  -22.9954  -20.3253   21.5670 C   0  0  1  0  0  0  0  0  0  0  0  0
  -23.8995  -17.0131   19.9407 C   0  0  1  0  0  0  0  0  0  0  0  0
  -30.6836  -24.8279   18.2730 C   0  0  2  0  0  0  0  0  0  0  0  0
  -35.0035  -21.0691   25.0905 C   0  0  0  0  0  0  0  0  0  0  0  0
  -24.5307   -9.3047   20.3721 C   0  0  0  0  0  0  0  0  0  0  0  0
  -23.4962  -14.7732   23.9632 C   0  0  0  0  0  0  0  0  0  0  0  0
  -23.9837  -12.3187   23.8847 C   0  0  0  0  0  0  0  0  0  0  0  0
  -21.8576  -13.1977   22.9206 C   0  0  0  0  0  0  0  0  0  0  0  0
  -25.7183  -11.5251   17.5198 C   0  0  0  0  0  0  0  0  0  0  0  0
  -31.8727  -19.3736   21.5905 C   0  0  0  0  0  0  0  0  0  0  0  0
  -33.6989  -20.5690   19.6111 C   0  0  0  0  0  0  0  0  0  0  0  0
  -31.9894  -17.8506   21.6814 C   0  0  0  0  0  0  0  0  0  0  0  0
  -30.6909  -17.1246   21.3491 C   0  0  0  0  0  0  0  0  0  1  0  0
  -24.0369  -13.6278   21.7134 C   0  0  1  0  0  0  0  0  0  0  0  0
  -24.5938  -10.5743   19.5373 C   0  0  2  0  0  0  0  0  0  0  0  0
  -23.3608  -13.4980   23.1074 C   0  0  0  0  0  0  0  0  0  0  0  0
  -28.7048  -26.0877   19.0344 N   0  0  0  0  0  0  0  0  0  0  0  0
  -35.4279  -21.4456   22.7344 N   0  0  0  0  0  0  0  0  0  0  0  0
  -35.1093  -21.3228   21.4179 N   0  0  0  0  0  0  0  0  0  0  0  0
  -29.9734  -25.7166   19.2774 N   0  0  0  0  0  0  0  0  0  0  0  0
  -24.4033  -15.7758   20.5405 N   0  0  0  0  0  0  0  0  0  0  0  0
  -31.2332  -22.5147   17.6130 N   0  0  0  0  0  0  0  0  0  0  0  0
  -31.7376  -25.9324   20.8431 N   0  0  0  0  0  0  0  0  0  0  0  0
  -28.4134  -28.3796   22.6753 N   0  0  0  0  0  0  0  0  0  0  0  0
  -23.2218  -19.2236   20.6563 N   0  0  0  0  0  0  0  0  0  0  0  0
  -23.9011  -12.4446   20.8708 N   0  0  0  0  0  0  0  0  0  0  0  0
  -32.6490  -21.4717   19.1945 N   0  0  0  0  0  0  0  0  0  0  0  0
  -25.5727  -10.3629   18.4337 N   0  3  0  0  0  0  0  0  0  0  0  0
  -30.5805  -27.6817   22.9497 O   0  0  0  0  0  0  0  0  0  0  0  0
  -24.0996  -17.7061   22.1890 O   0  0  0  0  0  0  0  0  0  0  0  0
  -22.2877  -14.7990   20.6202 O   0  0  0  0  0  0  0  0  0  0  0  0
  -26.1722  -12.0731   20.5859 O   0  0  0  0  0  0  0  0  0  0  0  0
  -32.8008  -20.9307   16.9717 O   0  0  0  0  0  0  0  0  0  0  0  0
  -23.3328  -29.1632   20.5285 O   0  0  0  0  0  0  0  0  0  0  0  0
  -30.3189  -17.4418   20.0084 O   0  0  0  0  0  0  0  0  0  1  0  0
  -20.7771  -28.8518   25.4045 F   0  0  0  0  0  0  0  0  0  0  0  0
  -24.4635  -30.2697   22.7956 F   0  0  0  0  0  0  0  0  0  0  0  0
  1  2  1  0  0  0  0
  1  5  2  0  0  0  0
  2  6  2  0  0  0  0
  3  8  2  0  0  0  0
  3 16  1  0  0  0  0
  4  9  1  0  0  0  0
  4 16  2  0  0  0  0
  5 18  1  0  0  0  0
  6 20  1  0  0  0  0
  7 10  2  0  0  0  0
  7 19  1  0  0  0  0
  8 23  1  0  0  0  0
  9 23  2  0  0  0  0
 10 24  1  0  0  0  0
 11 12  2  0  0  0  0
 11 25  1  0  0  0  0
 12 26  1  0  0  0  0
 13 21  1  0  0  0  0
 13 24  2  0  0  0  0
 14 22  1  0  0  0  0
 14 29  2  0  0  0  0
 15 26  2  0  0  0  0
 15 27  1  0  0  0  0
 16 28  1  0  0  0  0
 17 28  1  0  0  0  0
 17 31  2  0  0  0  0
 17 32  1  0  0  0  0
 18 20  2  0  0  0  0
 18 37  1  0  0  0  0
 19 21  2  0  0  0  0
 19 38  1  0  0  0  0
 20 46  1  0  0  0  0
 21 39  1  0  0  0  0
 22 30  2  0  0  0  0
 22 55  1  0  0  0  0
 23 79  1  0  0  0  0
 24 80  1  0  0  0  0
 25 27  2  0  0  0  0
 25 79  1  0  0  0  0
 26 81  1  0  0  0  0
 27 82  1  0  0  0  0
 28 62  2  0  0  0  0
 29 49  1  0  0  0  0
 29 63  1  0  0  0  0
 30 56  1  0  0  0  0
 30 64  1  0  0  0  0
 31 65  1  0  0  0  0
 31 68  1  0  0  0  0
 32 69  1  0  0  0  0
 32 74  2  0  0  0  0
 33 47  1  0  0  0  0
 33 70  1  0  0  0  0
 33 75  2  0  0  0  0
 34 59  1  0  0  0  0
 34 66  1  0  0  0  0
 34 76  2  0  0  0  0
 35 60  1  0  0  0  0
 35 71  1  0  0  0  0
 35 77  2  0  0  0  0
 36 67  1  0  0  0  0
 36 72  1  0  0  0  0
 36 78  2  0  0  0  0
 37 40  1  0  0  0  0
 38 47  1  0  0  0  0
 39 66  1  0  0  0  0
 40 42  1  0  0  0  0
 41 43  1  0  0  0  0
 41 44  1  0  0  0  0
 42 46  1  0  0  0  0
 43 48  1  0  0  0  0
 44 67  1  0  0  0  0
 45 48  1  0  0  0  0
 45 67  1  0  0  0  0
 46 70  1  0  0  0  0
 47 66  1  0  0  0  0
 48 65  1  0  0  0  0
 50 60  1  0  0  0  0
 51 61  1  0  0  0  0
 52 61  1  0  0  0  0
 53 61  1  0  0  0  0
 54 73  1  0  0  0  0
 55 57  1  0  0  0  0
 56 72  1  0  0  0  0
 57 58  1  0  0  0  0
 58 80  1  0  0  0  0
 59 61  1  0  0  0  0
 59 71  1  0  0  0  0
 60 73  1  0  0  0  0
 62 65  1  0  0  0  0
 63 64  2  0  0  0  0
M  CHG  1  73   1
M  ISO  4  36 100  58 101  72 100  80 101
M  END
> <Batch ID>
0086

> <Smiles>
CNC(C)C(=O)NC(C(=O)N1Cc2cc([101O:1][101CH2:1]CCc3cc(C)nnc3C[100NH:0][100C:0](=O)N3CCCC(n4nc(-c5ccc(Oc6ccc(F)cc6F)cc5)c(C(N)=O)c4N)C3)ccc2CC1C(=O)NC1CCCc2ccccc21)C(C)(C)C

> <Shape>
0.209

> <Color>
0.073

> <Negative vol penalty>
0.000

$$$$

  -OEChem-04052318593D

 84 92  0     1  0  0  0  0  0999 V2000
  -16.8145  -26.2342   22.7617 C   0  0  0  0  0  0  0  0  0  0  0  0
  -17.9897  -25.9316   22.0815 C   0  0  0  0  0  0  0  0  0  0  0  0
  -25.8253  -14.0872   21.8238 C   0  0  0  0  0  0  0  0  0  0  0  0
  -24.9211  -15.2344   19.8994 C   0  0  0  0  0  0  0  0  0  0  0  0
  -16.7757  -27.3206   23.6346 C   0  0  0  0  0  0  0  0  0  0  0  0
  -19.1266  -26.7159   22.2731 C   0  0  0  0  0  0  0  0  0  0  0  0
  -23.3204  -23.9428   22.8793 C   0  0  0  0  0  0  0  0  0  0  0  0
  -24.7881  -13.1569   21.7566 C   0  0  0  0  0  0  0  0  0  0  0  0
  -23.8840  -14.3041   19.8321 C   0  0  0  0  0  0  0  0  0  0  0  0
  -23.8967  -23.4007   21.7313 C   0  0  0  0  0  0  0  0  0  0  0  0
  -24.0106  -10.4209   19.9283 C   0  0  0  0  0  0  0  0  0  0  0  0
  -24.3397   -9.0723   20.0642 C   0  0  0  0  0  0  0  0  0  0  0  0
  -25.5225  -25.1827   21.7133 C   0  0  0  0  0  0  0  0  0  0  0  0
  -26.1194  -21.3325   17.5605 C   0  0  0  0  0  0  0  0  0  0  0  0
  -22.9106   -8.9194   22.0063 C   0  0  0  0  0  0  0  0  0  0  0  0
  -25.8918  -15.1260   20.8952 C   0  0  0  0  0  0  0  0  0  0  0  0
  -28.2166  -16.0107   20.3293 C   0  0  0  0  0  0  0  0  0  0  0  0
  -17.9154  -28.1129   23.8444 C   0  0  0  0  0  0  0  0  0  0  0  0
  -23.8349  -25.1170   23.4475 C   0  0  0  0  0  0  0  0  0  0  0  0
  -19.1026  -27.8147   23.1487 C   0  0  0  0  0  0  0  0  0  0  0  0
  -24.9525  -25.7363   22.8699 C   0  0  0  0  0  0  0  0  0  0  0  0
  -26.8533  -22.5045   17.6111 C   0  0  0  0  0  0  0  0  0  0  0  0
  -23.8175  -13.2654   20.7607 C   0  0  0  0  0  0  0  0  0  0  0  0
  -24.9961  -24.0222   21.1465 C   0  0  0  0  0  0  0  0  0  0  0  0
  -23.1317  -11.0188   20.8314 C   0  0  0  0  0  0  0  0  0  0  0  0
  -23.7896   -8.3215   21.1032 C   0  0  0  0  0  0  0  0  0  0  0  0
  -22.5816  -10.2681   21.8704 C   0  0  0  0  0  0  0  0  0  0  0  0
  -26.9626  -16.0875   20.9645 C   0  0  0  0  0  0  0  0  0  0  0  0
  -26.8106  -20.1408   17.4729 C   0  0  0  0  0  0  0  0  0  0  0  0
  -28.2297  -22.4073   17.5711 C   0  0  0  0  0  0  0  0  0  0  0  0
  -28.8649  -17.1605   20.7091 C   0  0  0  0  0  0  0  0  0  0  0  0
  -28.7478  -14.9912   19.4725 C   0  0  0  0  0  0  0  0  0  0  0  0
  -22.6946  -28.0346   23.9869 C   0  0  0  0  0  0  0  0  0  0  0  0
  -25.5257  -28.4350   25.5189 C   0  0  0  0  0  0  0  0  0  0  0  0
  -28.7794  -27.4751   25.8914 C   0  0  0  0  0  0  0  0  0  0  0  0
  -28.8858  -22.6711   21.5909 C   0  0  0  0  0  0  0  0  0  0  0  0
  -17.8117  -29.3054   24.7619 C   0  0  0  0  0  0  0  0  0  0  0  0
  -23.2184  -25.6743   24.7012 C   0  0  0  0  0  0  0  0  0  0  0  0
  -25.5554  -26.9874   23.4527 C   0  0  0  0  0  0  0  0  0  0  0  0
  -19.1663  -29.8610   25.1940 C   0  0  0  0  0  0  0  0  0  0  0  0
  -27.6811  -20.5997   24.2243 C   0  0  0  0  0  0  0  0  0  0  0  0
  -20.0971  -29.9929   23.9927 C   0  0  0  0  0  0  0  0  0  0  0  0
  -27.4845  -19.2373   23.5572 C   0  0  0  0  0  0  0  0  0  0  0  0
  -27.3274  -21.7467   23.2801 C   0  0  0  0  0  0  0  0  0  0  0  0
  -27.8224  -20.3501   21.3108 C   0  0  0  0  0  0  0  0  0  0  0  0
  -20.3637  -28.6270   23.3488 C   0  0  1  0  0  0  0  0  0  0  0  0
  -23.5061  -27.1593   24.8995 C   0  0  1  0  0  0  0  0  0  0  0  0
  -28.2197  -19.1634   22.2055 C   0  0  2  0  0  0  0  0  0  0  0  0
  -26.0675  -18.8502   17.4150 C   0  0  0  0  0  0  0  0  0  0  0  0
  -29.2973  -24.2262   16.2132 C   0  0  0  0  0  0  0  0  0  0  0  0
  -30.8547  -28.0125   27.1958 C   0  0  0  0  0  0  0  0  0  0  0  0
  -25.9683  -30.9099   23.7901 C   0  0  0  0  0  0  0  0  0  0  0  0
  -28.3865  -30.8423   24.4350 C   0  0  0  0  0  0  0  0  0  0  0  0
  -26.6399  -31.1761   26.1844 C   0  0  0  0  0  0  0  0  0  0  0  0
  -28.8730  -24.7666   27.0808 C   0  0  0  0  0  0  0  0  0  0  0  0
  -26.1470  -23.8350   17.7078 C   0  0  0  0  0  0  0  0  0  0  0  0
  -30.4719  -23.4041   18.2926 C   0  0  0  0  0  0  0  0  0  0  0  0
  -30.4385  -23.4541   19.8203 C   0  0  0  0  0  0  0  0  0  0  0  0
  -26.1804  -24.4078   19.1205 C   0  0  0  0  0  0  0  0  0  1  0  0
  -29.0858  -23.6276   17.6206 C   0  0  2  0  0  0  0  0  0  0  0  0
  -26.9036  -28.9006   25.1145 C   0  0  1  0  0  0  0  0  0  0  0  0
  -29.6001  -27.1557   27.1279 C   0  0  2  0  0  0  0  0  0  0  0  0
  -26.9623  -30.4347   24.8687 C   0  0  0  0  0  0  0  0  0  0  0  0
  -26.8207  -17.1982   21.6927 N   0  0  0  0  0  0  0  0  0  0  0  0
  -28.1584  -20.0754   17.4354 N   0  0  0  0  0  0  0  0  0  0  0  0
  -28.8796  -21.2274   17.4856 N   0  0  0  0  0  0  0  0  0  0  0  0
  -27.9939  -17.8298   21.5175 N   0  0  0  0  0  0  0  0  0  0  0  0
  -24.9132  -27.4973   24.6754 N   0  0  0  0  0  0  0  0  0  0  0  0
  -28.0594  -21.6185   22.0177 N   0  0  0  0  0  0  0  0  0  0  0  0
  -30.0893  -17.6540   20.4271 N   0  0  0  0  0  0  0  0  0  0  0  0
  -27.9482  -13.8767   19.1848 N   0  0  0  0  0  0  0  0  0  0  0  0
  -21.3286  -27.8808   24.1278 N   0  0  0  0  0  0  0  0  0  0  0  0
  -27.8150  -28.4261   26.1501 N   0  0  0  0  0  0  0  0  0  0  0  0
  -29.5482  -22.4656   20.3869 N   0  0  0  0  0  0  0  0  0  0  0  0
  -30.0093  -25.7227   27.1222 N   0  3  0  0  0  0  0  0  0  0  0  0
  -29.9037  -15.0585   18.9900 O   0  0  0  0  0  0  0  0  0  0  0  0
  -23.2654  -28.7944   23.2133 O   0  0  0  0  0  0  0  0  0  0  0  0
  -25.0146  -28.8812   26.5491 O   0  0  0  0  0  0  0  0  0  0  0  0
  -28.9766  -26.9375   24.8039 O   0  0  0  0  0  0  0  0  0  0  0  0
  -29.0273  -23.7144   22.2378 O   0  0  0  0  0  0  0  0  0  0  0  0
  -22.8054  -12.3577   20.6947 O   0  0  0  0  0  0  0  0  0  0  0  0
  -25.5601  -23.4955   20.0257 O   0  0  0  0  0  0  0  0  0  1  0  0
  -24.1045   -7.0260   21.2327 F   0  0  0  0  0  0  0  0  0  0  0  0
  -21.7357  -10.8367   22.7404 F   0  0  0  0  0  0  0  0  0  0  0  0
  1  2  1  0  0  0  0
  1  5  2  0  0  0  0
  2  6  2  0  0  0  0
  3  8  2  0  0  0  0
  3 16  1  0  0  0  0
  4  9  1  0  0  0  0
  4 16  2  0  0  0  0
  5 18  1  0  0  0  0
  6 20  1  0  0  0  0
  7 10  2  0  0  0  0
  7 19  1  0  0  0  0
  8 23  1  0  0  0  0
  9 23  2  0  0  0  0
 10 24  1  0  0  0  0
 11 12  2  0  0  0  0
 11 25  1  0  0  0  0
 12 26  1  0  0  0  0
 13 21  1  0  0  0  0
 13 24  2  0  0  0  0
 14 22  1  0  0  0  0
 14 29  2  0  0  0  0
 15 26  2  0  0  0  0
 15 27  1  0  0  0  0
 16 28  1  0  0  0  0
 17 28  1  0  0  0  0
 17 31  2  0  0  0  0
 17 32  1  0  0  0  0
 18 20  2  0  0  0  0
 18 37  1  0  0  0  0
 19 21  2  0  0  0  0
 19 38  1  0  0  0  0
 20 46  1  0  0  0  0
 21 39  1  0  0  0  0
 22 30  2  0  0  0  0
 22 56  1  0  0  0  0
 23 81  1  0  0  0  0
 24 82  1  0  0  0  0
 25 27  2  0  0  0  0
 25 81  1  0  0  0  0
 26 83  1  0  0  0  0
 27 84  1  0  0  0  0
 28 64  2  0  0  0  0
 29 49  1  0  0  0  0
 29 65  1  0  0  0  0
 30 60  1  0  0  0  0
 30 66  1  0  0  0  0
 31 67  1  0  0  0  0
 31 70  1  0  0  0  0
 32 71  1  0  0  0  0
 32 76  2  0  0  0  0
 33 47  1  0  0  0  0
 33 72  1  0  0  0  0
 33 77  2  0  0  0  0
 34 61  1  0  0  0  0
 34 68  1  0  0  0  0
 34 78  2  0  0  0  0
 35 62  1  0  0  0  0
 35 73  1  0  0  0  0
 35 79  2  0  0  0  0
 36 69  1  0  0  0  0
 36 74  1  0  0  0  0
 36 80  2  0  0  0  0
 37 40  1  0  0  0  0
 38 47  1  0  0  0  0
 39 68  1  0  0  0  0
 40 42  1  0  0  0  0
 41 43  1  0  0  0  0
 41 44  1  0  0  0  0
 42 46  1  0  0  0  0
 43 48  1  0  0  0  0
 44 69  1  0  0  0  0
 45 48  1  0  0  0  0
 45 69  1  0  0  0  0
 46 72  1  0  0  0  0
 47 68  1  0  0  0  0
 48 67  1  0  0  0  0
 50 60  1  0  0  0  0
 51 62  1  0  0  0  0
 52 63  1  0  0  0  0
 53 63  1  0  0  0  0
 54 63  1  0  0  0  0
 55 75  1  0  0  0  0
 56 59  1  0  0  0  0
 57 58  1  0  0  0  0
 57 60  1  0  0  0  0
 58 74  1  0  0  0  0
 59 82  1  0  0  0  0
 61 63  1  0  0  0  0
 61 73  1  0  0  0  0
 62 75  1  0  0  0  0
 64 67  1  0  0  0  0
 65 66  2  0  0  0  0
M  CHG  1  75   1
M  ISO  4  36 100  59 101  74 100  82 101
M  END
> <Batch ID>
0086

> <Smiles>
CNC(C)C(=O)NC(C(=O)N1Cc2cc([101O:1][101CH2:1]Cc3cc(C)nnc3C(C)CC[100NH:0][100C:0](=O)N3CCCC(n4nc(-c5ccc(Oc6ccc(F)cc6F)cc5)c(C(N)=O)c4N)C3)ccc2CC1C(=O)NC1CCCc2ccccc21)C(C)(C)C

> <Shape>
0.226

> <Color>
0.059

> <Negative vol penalty>
0.000

$$$$

  -OEChem-04052318593D

 86 94  0     1  0  0  0  0  0999 V2000
  -21.3983  -30.4754   20.0719 C   0  0  0  0  0  0  0  0  0  0  0  0
  -21.6081  -29.1927   19.5757 C   0  0  0  0  0  0  0  0  0  0  0  0
  -23.7587   -9.7583   21.6102 C   0  0  0  0  0  0  0  0  0  0  0  0
  -24.3386  -10.8833   23.6681 C   0  0  0  0  0  0  0  0  0  0  0  0
  -22.4304  -31.1454   20.7274 C   0  0  0  0  0  0  0  0  0  0  0  0
  -22.8505  -28.5797   19.7339 C   0  0  0  0  0  0  0  0  0  0  0  0
  -25.8101  -22.1282   20.7005 C   0  0  0  0  0  0  0  0  0  0  0  0
  -28.2089  -18.2507   22.5635 C   0  0  0  0  0  0  0  0  0  0  0  0
  -23.2185   -8.7001   22.3409 C   0  0  0  0  0  0  0  0  0  0  0  0
  -23.7983   -9.8251   24.3989 C   0  0  0  0  0  0  0  0  0  0  0  0
  -26.7952  -21.3031   20.1595 C   0  0  0  0  0  0  0  0  0  0  0  0
  -22.2476   -7.5860   26.8072 C   0  0  0  0  0  0  0  0  0  0  0  0
  -21.4295   -7.8977   27.8931 C   0  0  0  0  0  0  0  0  0  0  0  0
  -27.8563  -18.1041   23.9005 C   0  0  0  0  0  0  0  0  0  0  0  0
  -28.4800  -22.5254   21.3787 C   0  0  0  0  0  0  0  0  0  0  0  0
  -19.9124   -9.0614   26.4161 C   0  0  0  0  0  0  0  0  0  0  0  0
  -24.3188  -10.8499   22.2738 C   0  0  0  0  0  0  0  0  0  0  0  0
  -24.2084  -13.0996   21.0761 C   0  0  0  0  0  0  0  0  0  0  0  0
  -23.6831  -30.5366   20.9023 C   0  0  0  0  0  0  0  0  0  0  0  0
  -26.1543  -23.1667   21.5776 C   0  0  0  0  0  0  0  0  0  0  0  0
  -23.9007  -29.2428   20.3912 C   0  0  0  0  0  0  0  0  0  0  0  0
  -27.4972  -23.3606   21.9314 C   0  0  0  0  0  0  0  0  0  0  0  0
  -29.4502  -17.8037   22.1246 C   0  0  0  0  0  0  0  0  0  0  0  0
  -23.2382   -8.7335   23.7352 C   0  0  0  0  0  0  0  0  0  0  0  0
  -28.1307  -21.5035   20.4963 C   0  0  0  0  0  0  0  0  0  0  0  0
  -21.8981   -8.0121   25.5257 C   0  0  0  0  0  0  0  0  0  0  0  0
  -20.2619   -8.6354   27.6976 C   0  0  0  0  0  0  0  0  0  0  0  0
  -20.7305   -8.7497   25.3302 C   0  0  0  0  0  0  0  0  0  0  0  0
  -24.8775  -11.9431   21.5196 C   0  0  0  0  0  0  0  0  0  0  0  0
  -28.7734  -17.5087   24.7515 C   0  0  0  0  0  0  0  0  0  0  0  0
  -30.2960  -17.2219   23.0552 C   0  0  0  0  0  0  0  0  0  0  0  0
  -25.1711  -13.8199   20.4121 C   0  0  0  0  0  0  0  0  0  0  0  0
  -22.8392  -13.4880   21.2490 C   0  0  0  0  0  0  0  0  0  0  0  0
  -25.8755  -26.3327   21.5245 C   0  0  0  0  0  0  0  0  0  0  0  0
  -26.9920  -26.0920   24.5606 C   0  0  0  0  0  0  0  0  0  0  0  0
  -28.7490  -24.2923   26.8673 C   0  0  0  0  0  0  0  0  0  0  0  0
  -31.1431  -13.9825   20.8125 C   0  0  0  0  0  0  0  0  0  0  0  0
  -24.7827  -31.3187   21.5760 C   0  0  0  0  0  0  0  0  0  0  0  0
  -25.0771  -24.0310   22.1734 C   0  0  0  0  0  0  0  0  0  0  0  0
  -27.9170  -24.4487   22.8845 C   0  0  0  0  0  0  0  0  0  0  0  0
  -25.9544  -30.4531   22.0320 C   0  0  0  0  0  0  0  0  0  0  0  0
  -29.2109  -13.2556   17.9116 C   0  0  0  0  0  0  0  0  0  0  0  0
  -26.3707  -29.4911   20.9238 C   0  0  0  0  0  0  0  0  0  0  0  0
  -27.8209  -12.9411   18.4673 C   0  0  0  0  0  0  0  0  0  0  0  0
  -30.3161  -12.7440   18.8330 C   0  0  0  0  0  0  0  0  0  0  0  0
  -28.8232  -12.8807   20.7891 C   0  0  0  0  0  0  0  0  0  0  0  0
  -25.2269  -28.5348   20.5650 C   0  0  1  0  0  0  0  0  0  0  0  0
  -25.5940  -25.3833   22.6546 C   0  0  1  0  0  0  0  0  0  0  0  0
  -27.6756  -13.4265   19.9222 C   0  0  2  0  0  0  0  0  0  0  0  0
  -29.3752  -18.1125   27.1236 C   0  0  0  0  0  0  0  0  0  0  0  0
  -28.3829  -15.8524   26.6112 C   0  0  0  0  0  0  0  0  0  0  0  0
  -32.7802  -17.4837   23.3450 C   0  0  0  0  0  0  0  0  0  0  0  0
  -29.5230  -24.3704   29.2531 C   0  0  0  0  0  0  0  0  0  0  0  0
  -29.1591  -28.0968   23.7894 C   0  0  0  0  0  0  0  0  0  0  0  0
  -30.4197  -27.4187   25.8435 C   0  0  0  0  0  0  0  0  0  0  0  0
  -28.1619  -28.4582   26.0542 C   0  0  0  0  0  0  0  0  0  0  0  0
  -27.2376  -21.8437   27.5594 C   0  0  0  0  0  0  0  0  0  0  0  0
  -29.8388  -17.9611   20.6762 C   0  0  0  0  0  0  0  0  0  0  0  0
  -30.8259  -19.1028   20.4239 C   0  0  0  0  0  0  0  0  0  0  0  0
  -31.8249  -15.2009   22.8643 C   0  0  0  0  0  0  0  0  0  0  0  0
  -30.2593  -20.4768   20.7624 C   0  0  0  0  0  0  0  0  0  1  0  0
  -28.4271  -17.3339   26.1926 C   0  0  0  0  0  0  0  0  0  0  0  0
  -31.6403  -16.7206   22.6402 C   0  0  1  0  0  0  0  0  0  0  0  0
  -28.3598  -26.0871   25.1995 C   0  0  1  0  0  0  0  0  0  0  0  0
  -28.4304  -23.9090   28.3012 C   0  0  2  0  0  0  0  0  0  0  0  0
  -29.0177  -27.4958   25.2022 C   0  0  0  0  0  0  0  0  0  0  0  0
  -26.1657  -11.9254   21.1669 N   0  0  0  0  0  0  0  0  0  0  0  0
  -29.9885  -17.0622   24.3619 N   0  0  0  0  0  0  0  0  0  0  0  0
  -26.3137  -13.0797   20.4947 N   0  0  0  0  0  0  0  0  0  0  0  0
  -26.8276  -25.2715   23.4357 N   0  0  0  0  0  0  0  0  0  0  0  0
  -30.1208  -13.2417   20.1969 N   0  0  0  0  0  0  0  0  0  0  0  0
  -25.1432  -15.0078   19.7714 N   0  0  0  0  0  0  0  0  0  0  0  0
  -21.9858  -12.6309   21.9571 N   0  0  0  0  0  0  0  0  0  0  0  0
  -25.1153  -27.4861   21.5561 N   0  0  0  0  0  0  0  0  0  0  0  0
  -28.1885  -25.5051   26.5262 N   0  0  0  0  0  0  0  0  0  0  0  0
  -30.8740  -14.4219   22.1030 N   0  0  0  0  0  0  0  0  0  0  0  0
  -28.2938  -22.4301   28.4239 N   0  3  0  0  0  0  0  0  0  0  0  0
  -22.3819  -14.5556   20.7751 O   0  0  0  0  0  0  0  0  0  0  0  0
  -26.7210  -26.0410   20.6868 O   0  0  0  0  0  0  0  0  0  0  0  0
  -26.1003  -26.7925   25.0462 O   0  0  0  0  0  0  0  0  0  0  0  0
  -29.4303  -23.5882   26.1252 O   0  0  0  0  0  0  0  0  0  0  0  0
  -32.2140  -14.2384   20.2516 O   0  0  0  0  0  0  0  0  0  0  0  0
  -22.7109   -7.7012   24.4485 O   0  0  0  0  0  0  0  0  0  0  0  0
  -29.0942  -20.7000   19.9692 O   0  0  0  0  0  0  0  0  0  1  0  0
  -19.4756   -8.9333   28.7402 F   0  0  0  0  0  0  0  0  0  0  0  0
  -20.3890   -9.1608   24.1013 F   0  0  0  0  0  0  0  0  0  0  0  0
  1  2  1  0  0  0  0
  1  5  2  0  0  0  0
  2  6  2  0  0  0  0
  3  9  2  0  0  0  0
  3 17  1  0  0  0  0
  4 10  1  0  0  0  0
  4 17  2  0  0  0  0
  5 19  1  0  0  0  0
  6 21  1  0  0  0  0
  7 11  2  0  0  0  0
  7 20  1  0  0  0  0
  8 14  2  0  0  0  0
  8 23  1  0  0  0  0
  9 24  1  0  0  0  0
 10 24  2  0  0  0  0
 11 25  1  0  0  0  0
 12 13  2  0  0  0  0
 12 26  1  0  0  0  0
 13 27  1  0  0  0  0
 14 30  1  0  0  0  0
 15 22  1  0  0  0  0
 15 25  2  0  0  0  0
 16 27  2  0  0  0  0
 16 28  1  0  0  0  0
 17 29  1  0  0  0  0
 18 29  1  0  0  0  0
 18 32  2  0  0  0  0
 18 33  1  0  0  0  0
 19 21  2  0  0  0  0
 19 38  1  0  0  0  0
 20 22  2  0  0  0  0
 20 39  1  0  0  0  0
 21 47  1  0  0  0  0
 22 40  1  0  0  0  0
 23 31  2  0  0  0  0
 23 58  1  0  0  0  0
 24 83  1  0  0  0  0
 25 84  1  0  0  0  0
 26 28  2  0  0  0  0
 26 83  1  0  0  0  0
 27 85  1  0  0  0  0
 28 86  1  0  0  0  0
 29 67  2  0  0  0  0
 30 62  1  0  0  0  0
 30 68  2  0  0  0  0
 31 63  1  0  0  0  0
 31 68  1  0  0  0  0
 32 69  1  0  0  0  0
 32 72  1  0  0  0  0
 33 73  1  0  0  0  0
 33 78  2  0  0  0  0
 34 48  1  0  0  0  0
 34 74  1  0  0  0  0
 34 79  2  0  0  0  0
 35 64  1  0  0  0  0
 35 70  1  0  0  0  0
 35 80  2  0  0  0  0
 36 65  1  0  0  0  0
 36 75  1  0  0  0  0
 36 81  2  0  0  0  0
 37 71  1  0  0  0  0
 37 76  1  0  0  0  0
 37 82  2  0  0  0  0
 38 41  1  0  0  0  0
 39 48  1  0  0  0  0
 40 70  1  0  0  0  0
 41 43  1  0  0  0  0
 42 44  1  0  0  0  0
 42 45  1  0  0  0  0
 43 47  1  0  0  0  0
 44 49  1  0  0  0  0
 45 71  1  0  0  0  0
 46 49  1  0  0  0  0
 46 71  1  0  0  0  0
 47 74  1  0  0  0  0
 48 70  1  0  0  0  0
 49 69  1  0  0  0  0
 50 62  1  0  0  0  0
 51 62  1  0  0  0  0
 52 63  1  0  0  0  0
 53 65  1  0  0  0  0
 54 66  1  0  0  0  0
 55 66  1  0  0  0  0
 56 66  1  0  0  0  0
 57 77  1  0  0  0  0
 58 59  1  0  0  0  0
 59 61  1  0  0  0  0
 60 63  1  0  0  0  0
 60 76  1  0  0  0  0
 61 84  1  0  0  0  0
 64 66  1  0  0  0  0
 64 75  1  0  0  0  0
 65 77  1  0  0  0  0
 67 69  1  0  0  0  0
M  CHG  1  77   1
M  ISO  4  37 100  61 101  76 100  84 101
M  END
> <Batch ID>
0086

> <Smiles>
CNC(C)C(=O)NC(C(=O)N1Cc2cc([101O:1][101CH2:1]CCc3ccc(C(C)C)nc3C(C)C[100NH:0][100C:0](=O)N3CCCC(n4nc(-c5ccc(Oc6ccc(F)cc6F)cc5)c(C(N)=O)c4N)C3)ccc2CC1C(=O)NC1CCCc2ccccc21)C(C)(C)C

> <Shape>
0.227

> <Color>
0.164

> <Negative vol penalty>
0.000

$$$$

  -OEChem-04052318593D

 89 97  0     1  0  0  0  0  0999 V2000
  -21.4192  -28.4358   18.2767 C   0  0  0  0  0  0  0  0  0  0  0  0
  -22.2047  -27.3077   18.0628 C   0  0  0  0  0  0  0  0  0  0  0  0
  -23.3979  -10.2403   22.2521 C   0  0  0  0  0  0  0  0  0  0  0  0
  -23.5853   -9.7068   19.9032 C   0  0  0  0  0  0  0  0  0  0  0  0
  -21.8591  -29.4361   19.1425 C   0  0  0  0  0  0  0  0  0  0  0  0
  -23.4311  -27.1798   18.7139 C   0  0  0  0  0  0  0  0  0  0  0  0
  -25.9970  -22.0046   20.7486 C   0  0  0  0  0  0  0  0  0  0  0  0
  -22.6485   -9.0816   22.4555 C   0  0  0  0  0  0  0  0  0  0  0  0
  -22.8360   -8.5480   20.1066 C   0  0  0  0  0  0  0  0  0  0  0  0
  -26.9756  -21.1690   20.2123 C   0  0  0  0  0  0  0  0  0  0  0  0
  -19.4629   -8.0594   21.9741 C   0  0  0  0  0  0  0  0  0  0  0  0
  -18.3131   -8.1612   22.7571 C   0  0  0  0  0  0  0  0  0  0  0  0
  -28.6534  -22.3021   21.5239 C   0  0  0  0  0  0  0  0  0  0  0  0
  -28.2302  -17.9986   22.5578 C   0  0  0  0  0  0  0  0  0  0  0  0
  -19.2280   -6.5522   24.3099 C   0  0  0  0  0  0  0  0  0  0  0  0
  -23.8662  -10.5529   20.9760 C   0  0  0  0  0  0  0  0  0  0  0  0
  -24.2365  -13.0767   21.0081 C   0  0  0  0  0  0  0  0  0  0  0  0
  -23.0871  -29.3159   19.8120 C   0  0  0  0  0  0  0  0  0  0  0  0
  -26.3413  -23.0041   21.6699 C   0  0  0  0  0  0  0  0  0  0  0  0
  -23.8885  -28.1801   19.5885 C   0  0  0  0  0  0  0  0  0  0  0  0
  -27.6768  -23.1474   22.0724 C   0  0  0  0  0  0  0  0  0  0  0  0
  -29.4659  -17.5327   22.1443 C   0  0  0  0  0  0  0  0  0  0  0  0
  -22.3676   -8.2354   21.3828 C   0  0  0  0  0  0  0  0  0  0  0  0
  -28.3045  -21.3195   20.5977 C   0  0  0  0  0  0  0  0  0  0  0  0
  -20.4953   -7.2039   22.3590 C   0  0  0  0  0  0  0  0  0  0  0  0
  -18.1956   -7.4076   23.9250 C   0  0  0  0  0  0  0  0  0  0  0  0
  -20.3778   -6.4503   23.5269 C   0  0  0  0  0  0  0  0  0  0  0  0
  -24.6399  -11.7501   20.7651 C   0  0  0  0  0  0  0  0  0  0  0  0
  -27.8726  -17.7992   23.8760 C   0  0  0  0  0  0  0  0  0  0  0  0
  -30.2624  -16.8987   23.0767 C   0  0  0  0  0  0  0  0  0  0  0  0
  -25.3227  -13.8370   20.6494 C   0  0  0  0  0  0  0  0  0  0  0  0
  -22.9913  -13.5771   21.5129 C   0  0  0  0  0  0  0  0  0  0  0  0
  -26.1533  -26.1769   21.7124 C   0  0  0  0  0  0  0  0  0  0  0  0
  -27.1629  -25.8068   24.7728 C   0  0  0  0  0  0  0  0  0  0  0  0
  -28.7925  -23.8838   27.0735 C   0  0  0  0  0  0  0  0  0  0  0  0
  -31.1090  -13.7030   20.7735 C   0  0  0  0  0  0  0  0  0  0  0  0
  -23.5423  -30.4453   20.7020 C   0  0  0  0  0  0  0  0  0  0  0  0
  -25.2699  -23.8799   22.2595 C   0  0  0  0  0  0  0  0  0  0  0  0
  -28.0956  -24.1917   23.0736 C   0  0  0  0  0  0  0  0  0  0  0  0
  -24.6817  -30.0590   21.6416 C   0  0  0  0  0  0  0  0  0  0  0  0
  -29.2804  -13.1208   17.7744 C   0  0  0  0  0  0  0  0  0  0  0  0
  -25.7646  -29.2983   20.8830 C   0  0  0  0  0  0  0  0  0  0  0  0
  -27.8599  -12.8313   18.2625 C   0  0  0  0  0  0  0  0  0  0  0  0
  -30.3309  -12.5493   18.7241 C   0  0  0  0  0  0  0  0  0  0  0  0
  -28.7617  -12.6718   20.6204 C   0  0  0  0  0  0  0  0  0  0  0  0
  -25.2134  -27.9934   20.2955 C   0  0  1  0  0  0  0  0  0  0  0  0
  -25.8085  -25.2004   22.8011 C   0  0  1  0  0  0  0  0  0  0  0  0
  -27.6676  -13.2771   19.7245 C   0  0  2  0  0  0  0  0  0  0  0  0
  -32.7386  -17.0763   23.4777 C   0  0  0  0  0  0  0  0  0  0  0  0
  -29.4901  -23.8630   29.4839 C   0  0  0  0  0  0  0  0  0  0  0  0
  -24.0363  -17.9576   26.1431 C   0  0  0  0  0  0  0  0  0  0  0  0
  -23.0099  -16.5009   24.3923 C   0  0  0  0  0  0  0  0  0  0  0  0
  -23.5616  -18.8916   23.8752 C   0  0  0  0  0  0  0  0  0  0  0  0
  -29.4093  -27.7714   24.1371 C   0  0  0  0  0  0  0  0  0  0  0  0
  -30.5827  -26.9915   26.2067 C   0  0  0  0  0  0  0  0  0  0  0  0
  -28.3492  -28.0890   26.3798 C   0  0  0  0  0  0  0  0  0  0  0  0
  -27.1912  -21.4593   27.6363 C   0  0  0  0  0  0  0  0  0  0  0  0
  -29.9058  -17.7250   20.7150 C   0  0  0  0  0  0  0  0  0  0  0  0
  -26.5524  -18.2813   24.3717 C   0  0  0  0  0  0  0  0  0  0  0  0
  -30.9323  -18.8450   20.5318 C   0  0  0  0  0  0  0  0  0  0  0  0
  -25.4511  -17.2139   24.2143 C   0  0  0  0  0  0  0  0  0  0  0  0
  -31.7385  -14.8386   22.8884 C   0  0  0  0  0  0  0  0  0  0  0  0
  -30.3937  -20.2233   20.8972 C   0  0  0  0  0  0  0  0  0  1  0  0
  -31.6061  -16.3699   22.7036 C   0  0  1  0  0  0  0  0  0  0  0  0
  -28.5084  -25.7417   25.4542 C   0  0  1  0  0  0  0  0  0  0  0  0
  -28.4167  -23.4643   28.4832 C   0  0  2  0  0  0  0  0  0  0  0  0
  -24.0181  -17.6358   24.6356 C   0  0  0  0  0  0  0  0  0  0  0  0
  -29.2051  -27.1299   25.5241 C   0  0  0  0  0  0  0  0  0  0  0  0
  -25.8851  -11.6688   20.2888 N   0  0  0  0  0  0  0  0  0  0  0  0
  -28.6722  -17.1752   24.7668 N   0  0  0  0  0  0  0  0  0  0  0  0
  -29.8869  -16.7178   24.3605 N   0  0  0  0  0  0  0  0  0  0  0  0
  -26.2735  -12.9539   20.2295 N   0  0  0  0  0  0  0  0  0  0  0  0
  -27.0123  -25.0278   23.6168 N   0  0  0  0  0  0  0  0  0  0  0  0
  -30.0928  -13.0115   20.0935 N   0  0  0  0  0  0  0  0  0  0  0  0
  -25.5477  -15.1681   20.6554 N   0  0  0  0  0  0  0  0  0  0  0  0
  -21.9763  -13.8887   20.5981 N   0  0  0  0  0  0  0  0  0  0  0  0
  -25.1000  -26.9835   21.3258 N   0  0  0  0  0  0  0  0  0  0  0  0
  -28.2777  -25.1227   26.7549 N   0  0  0  0  0  0  0  0  0  0  0  0
  -30.7986  -14.1114   22.0648 N   0  0  0  0  0  0  0  0  0  0  0  0
  -28.2347  -21.9868   28.5527 N   0  3  0  0  0  0  0  0  0  0  0  0
  -22.7907  -13.7584   22.7378 O   0  0  0  0  0  0  0  0  0  0  0  0
  -27.2911  -26.1980   21.2578 O   0  0  0  0  0  0  0  0  0  0  0  0
  -26.2758  -26.5170   25.2526 O   0  0  0  0  0  0  0  0  0  0  0  0
  -29.4776  -23.1843   26.3306 O   0  0  0  0  0  0  0  0  0  0  0  0
  -32.2094  -13.9435   20.2652 O   0  0  0  0  0  0  0  0  0  0  0  0
  -21.6366   -7.1045   21.5810 O   0  0  0  0  0  0  0  0  0  0  0  0
  -29.2619  -20.5056   20.0753 O   0  0  0  0  0  0  0  0  0  1  0  0
  -17.0920   -7.5067   24.6776 F   0  0  0  0  0  0  0  0  0  0  0  0
  -21.3668   -5.6277   23.9024 F   0  0  0  0  0  0  0  0  0  0  0  0
  1  2  1  0  0  0  0
  1  5  2  0  0  0  0
  2  6  2  0  0  0  0
  3  8  2  0  0  0  0
  3 16  1  0  0  0  0
  4  9  1  0  0  0  0
  4 16  2  0  0  0  0
  5 18  1  0  0  0  0
  6 20  1  0  0  0  0
  7 10  2  0  0  0  0
  7 19  1  0  0  0  0
  8 23  1  0  0  0  0
  9 23  2  0  0  0  0
 10 24  1  0  0  0  0
 11 12  2  0  0  0  0
 11 25  1  0  0  0  0
 12 26  1  0  0  0  0
 13 21  1  0  0  0  0
 13 24  2  0  0  0  0
 14 22  1  0  0  0  0
 14 29  2  0  0  0  0
 15 26  2  0  0  0  0
 15 27  1  0  0  0  0
 16 28  1  0  0  0  0
 17 28  1  0  0  0  0
 17 31  2  0  0  0  0
 17 32  1  0  0  0  0
 18 20  2  0  0  0  0
 18 37  1  0  0  0  0
 19 21  2  0  0  0  0
 19 38  1  0  0  0  0
 20 46  1  0  0  0  0
 21 39  1  0  0  0  0
 22 30  2  0  0  0  0
 22 58  1  0  0  0  0
 23 86  1  0  0  0  0
 24 87  1  0  0  0  0
 25 27  2  0  0  0  0
 25 86  1  0  0  0  0
 26 88  1  0  0  0  0
 27 89  1  0  0  0  0
 28 69  2  0  0  0  0
 29 59  1  0  0  0  0
 29 70  1  0  0  0  0
 30 64  1  0  0  0  0
 30 71  1  0  0  0  0
 31 72  1  0  0  0  0
 31 75  1  0  0  0  0
 32 76  1  0  0  0  0
 32 81  2  0  0  0  0
 33 47  1  0  0  0  0
 33 77  1  0  0  0  0
 33 82  2  0  0  0  0
 34 65  1  0  0  0  0
 34 73  1  0  0  0  0
 34 83  2  0  0  0  0
 35 66  1  0  0  0  0
 35 78  1  0  0  0  0
 35 84  2  0  0  0  0
 36 74  1  0  0  0  0
 36 79  1  0  0  0  0
 36 85  2  0  0  0  0
 37 40  1  0  0  0  0
 38 47  1  0  0  0  0
 39 73  1  0  0  0  0
 40 42  1  0  0  0  0
 41 43  1  0  0  0  0
 41 44  1  0  0  0  0
 42 46  1  0  0  0  0
 43 48  1  0  0  0  0
 44 74  1  0  0  0  0
 45 48  1  0  0  0  0
 45 74  1  0  0  0  0
 46 77  1  0  0  0  0
 47 73  1  0  0  0  0
 48 72  1  0  0  0  0
 49 64  1  0  0  0  0
 50 66  1  0  0  0  0
 51 67  1  0  0  0  0
 52 67  1  0  0  0  0
 53 67  1  0  0  0  0
 54 68  1  0  0  0  0
 55 68  1  0  0  0  0
 56 68  1  0  0  0  0
 57 80  1  0  0  0  0
 58 60  1  0  0  0  0
 59 61  1  0  0  0  0
 60 63  1  0  0  0  0
 61 67  1  0  0  0  0
 62 64  1  0  0  0  0
 62 79  1  0  0  0  0
 63 87  1  0  0  0  0
 65 68  1  0  0  0  0
 65 78  1  0  0  0  0
 66 80  1  0  0  0  0
 69 72  1  0  0  0  0
 70 71  2  0  0  0  0
M  CHG  1  80   1
M  ISO  4  36 100  63 101  79 100  87 101
M  END
> <Batch ID>
0086

> <Smiles>
CNC(C)C(=O)NC(C(=O)N1Cc2cc([101O:1][101CH2:1]CCc3cc(CCC(C)(C)C)nnc3C(C)C[100NH:0][100C:0](=O)N3CCCC(n4nc(-c5ccc(Oc6ccc(F)cc6F)cc5)c(C(N)=O)c4N)C3)ccc2CC1C(=O)NC1CCCc2ccccc21)C(C)(C)C

> <Shape>
0.238

> <Color>
0.167

> <Negative vol penalty>
0.000

$$$$

  -OEChem-04052318593D

 86 94  0     1  0  0  0  0  0999 V2000
  -28.4721  -34.0447   23.5405 C   0  0  0  0  0  0  0  0  0  0  0  0
  -28.5111  -32.6814   23.2660 C   0  0  0  0  0  0  0  0  0  0  0  0
  -26.5206  -13.0080   20.7400 C   0  0  0  0  0  0  0  0  0  0  0  0
  -24.8647  -14.7591   20.9098 C   0  0  0  0  0  0  0  0  0  0  0  0
  -27.2928  -34.6282   24.0018 C   0  0  0  0  0  0  0  0  0  0  0  0
  -27.3711  -31.9006   23.4537 C   0  0  0  0  0  0  0  0  0  0  0  0
  -26.5356  -28.7243   19.5991 C   0  0  0  0  0  0  0  0  0  0  0  0
  -25.6157  -12.0991   21.2883 C   0  0  0  0  0  0  0  0  0  0  0  0
  -23.9598  -13.8502   21.4580 C   0  0  0  0  0  0  0  0  0  0  0  0
  -27.3111  -27.5669   19.5482 C   0  0  0  0  0  0  0  0  0  0  0  0
  -23.6213   -9.2363   22.3090 C   0  0  0  0  0  0  0  0  0  0  0  0
  -23.5115   -7.9849   21.7029 C   0  0  0  0  0  0  0  0  0  0  0  0
  -25.4846  -26.3086   20.4969 C   0  0  0  0  0  0  0  0  0  0  0  0
  -22.8425   -9.0441   19.6371 C   0  0  0  0  0  0  0  0  0  0  0  0
  -26.1452  -14.3380   20.5508 C   0  0  0  0  0  0  0  0  0  0  0  0
  -27.2604  -15.5808   18.6223 C   0  0  0  0  0  0  0  0  0  0  0  0
  -26.1351  -33.8560   24.1860 C   0  0  0  0  0  0  0  0  0  0  0  0
  -25.2303  -28.6847   20.1102 C   0  0  0  0  0  0  0  0  0  0  0  0
  -26.1756  -32.4741   23.9191 C   0  0  0  0  0  0  0  0  0  0  0  0
  -24.6937  -27.4665   20.5508 C   0  0  0  0  0  0  0  0  0  0  0  0
  -25.0457  -20.8324   20.0059 C   0  0  0  0  0  0  0  0  0  0  0  0
  -24.4345  -20.3361   21.1519 C   0  0  0  0  0  0  0  0  0  0  0  0
  -26.4090  -21.1061   20.0147 C   0  0  0  0  0  0  0  0  0  0  0  0
  -24.3353  -12.5202   21.6473 C   0  0  0  0  0  0  0  0  0  0  0  0
  -26.7867  -26.3594   19.9998 C   0  0  0  0  0  0  0  0  0  0  0  0
  -23.3417  -10.3917   21.5792 C   0  0  0  0  0  0  0  0  0  0  0  0
  -23.1221   -7.8887   20.3670 C   0  0  0  0  0  0  0  0  0  0  0  0
  -22.9523  -10.2956   20.2432 C   0  0  0  0  0  0  0  0  0  0  0  0
  -27.0797  -15.2775   19.9850 C   0  0  0  0  0  0  0  0  0  0  0  0
  -25.2244  -20.1325   22.2719 C   0  0  0  0  0  0  0  0  0  0  0  0
  -27.1104  -20.8683   21.1857 C   0  0  0  0  0  0  0  0  0  0  0  0
  -28.2571  -16.5257   18.6100 C   0  0  0  0  0  0  0  0  0  0  0  0
  -26.5874  -15.0554   17.4704 C   0  0  0  0  0  0  0  0  0  0  0  0
  -23.7402  -30.0476   22.5649 C   0  0  0  0  0  0  0  0  0  0  0  0
  -21.1247  -28.6501   21.2504 C   0  0  0  0  0  0  0  0  0  0  0  0
  -19.8447  -26.1791   19.2748 C   0  0  0  0  0  0  0  0  0  0  0  0
  -30.0202  -20.2588   23.1371 C   0  0  0  0  0  0  0  0  0  0  0  0
  -24.8970  -34.5226   24.7315 C   0  0  0  0  0  0  0  0  0  0  0  0
  -24.3973  -29.9368   20.1334 C   0  0  0  0  0  0  0  0  0  0  0  0
  -23.2908  -27.3666   21.0896 C   0  0  0  0  0  0  0  0  0  0  0  0
  -23.6279  -33.6947   24.5468 C   0  0  0  0  0  0  0  0  0  0  0  0
  -32.0839  -17.9810   21.0745 C   0  0  0  0  0  0  0  0  0  0  0  0
  -23.8707  -32.2462   24.9589 C   0  0  0  0  0  0  0  0  0  0  0  0
  -31.0463  -17.0142   20.5063 C   0  0  0  0  0  0  0  0  0  0  0  0
  -31.6510  -18.5497   22.4224 C   0  0  0  0  0  0  0  0  0  0  0  0
  -29.2713  -18.2256   21.8339 C   0  0  0  0  0  0  0  0  0  0  0  0
  -24.9528  -31.5985   24.0866 C   0  0  1  0  0  0  0  0  0  0  0  0
  -23.2616  -29.8801   21.1505 C   0  0  1  0  0  0  0  0  0  0  0  0
  -29.6556  -17.6703   20.4542 C   0  0  2  0  0  0  0  0  0  0  0  0
  -24.2401  -21.0732   18.7691 C   0  0  0  0  0  0  0  0  0  0  0  0
  -22.9740  -20.0317   21.1728 C   0  0  0  0  0  0  0  0  0  0  0  0
  -24.6245  -19.6011   23.5324 C   0  0  0  0  0  0  0  0  0  0  0  0
  -28.1560  -20.6519   18.2736 C   0  0  0  0  0  0  0  0  0  0  0  0
  -17.6678  -25.2701   18.4193 C   0  0  0  0  0  0  0  0  0  0  0  0
  -20.5820  -27.3911   23.9762 C   0  0  0  0  0  0  0  0  0  0  0  0
  -19.0161  -25.7951   22.8496 C   0  0  0  0  0  0  0  0  0  0  0  0
  -18.5480  -28.2448   22.7979 C   0  0  0  0  0  0  0  0  0  0  0  0
  -28.7460  -22.3532   23.4015 C   0  0  0  0  0  0  0  0  0  0  0  0
  -20.6089  -26.6792   16.4597 C   0  0  0  0  0  0  0  0  0  0  0  0
  -28.5766  -21.1451   21.2573 C   0  0  0  0  0  0  0  0  0  0  0  0
  -27.7471  -23.0319   19.0057 C   0  0  0  0  0  0  0  0  0  0  0  0
  -26.8497  -23.9921   19.7808 C   0  0  0  0  0  0  0  0  0  1  0  0
  -27.1064  -21.6489   18.7794 C   0  0  2  0  0  0  0  0  0  0  0  0
  -20.4376  -27.3142   21.3995 C   0  0  1  0  0  0  0  0  0  0  0  0
  -18.8278  -26.2154   18.1483 C   0  0  2  0  0  0  0  0  0  0  0  0
  -19.6731  -27.1882   22.7475 C   0  0  0  0  0  0  0  0  0  0  0  0
  -27.8962  -15.9732   20.7808 N   0  0  0  0  0  0  0  0  0  0  0  0
  -26.5514  -20.3867   22.3185 N   0  0  0  0  0  0  0  0  0  0  0  0
  -28.5997  -16.7230   19.9154 N   0  0  0  0  0  0  0  0  0  0  0  0
  -22.5181  -28.6197   21.0978 N   0  0  0  0  0  0  0  0  0  0  0  0
  -30.3087  -19.1284   22.3550 N   0  0  0  0  0  0  0  0  0  0  0  0
  -28.8652  -17.1987   17.6102 N   0  0  0  0  0  0  0  0  0  0  0  0
  -25.5885  -14.0912   17.6622 N   0  0  0  0  0  0  0  0  0  0  0  0
  -24.4100  -31.2341   22.7954 N   0  0  0  0  0  0  0  0  0  0  0  0
  -19.5966  -27.1535   20.2183 N   0  0  0  0  0  0  0  0  0  0  0  0
  -29.0705  -21.1601   22.6326 N   0  0  0  0  0  0  0  0  0  0  0  0
  -19.4662  -25.8190   16.8613 N   0  3  0  0  0  0  0  0  0  0  0  0
  -26.8750  -15.4179   16.3045 O   0  0  0  0  0  0  0  0  0  0  0  0
  -23.5170  -29.1664   23.3866 O   0  0  0  0  0  0  0  0  0  0  0  0
  -20.4491  -29.6822   21.2614 O   0  0  0  0  0  0  0  0  0  0  0  0
  -20.7648  -25.3653   19.3157 O   0  0  0  0  0  0  0  0  0  0  0  0
  -30.5865  -20.4564   24.2197 O   0  0  0  0  0  0  0  0  0  0  0  0
  -23.4519  -11.6335   22.1821 O   0  0  0  0  0  0  0  0  0  0  0  0
  -27.5418  -25.2282   19.9519 O   0  0  0  0  0  0  0  0  0  1  0  0
  -23.0181   -6.6870   19.7846 F   0  0  0  0  0  0  0  0  0  0  0  0
  -22.6835  -11.4020   19.5366 F   0  0  0  0  0  0  0  0  0  0  0  0
  1  2  1  0  0  0  0
  1  5  2  0  0  0  0
  2  6  2  0  0  0  0
  3  8  2  0  0  0  0
  3 15  1  0  0  0  0
  4  9  1  0  0  0  0
  4 15  2  0  0  0  0
  5 17  1  0  0  0  0
  6 19  1  0  0  0  0
  7 10  2  0  0  0  0
  7 18  1  0  0  0  0
  8 24  1  0  0  0  0
  9 24  2  0  0  0  0
 10 25  1  0  0  0  0
 11 12  2  0  0  0  0
 11 26  1  0  0  0  0
 12 27  1  0  0  0  0
 13 20  1  0  0  0  0
 13 25  2  0  0  0  0
 14 27  2  0  0  0  0
 14 28  1  0  0  0  0
 15 29  1  0  0  0  0
 16 29  1  0  0  0  0
 16 32  2  0  0  0  0
 16 33  1  0  0  0  0
 17 19  2  0  0  0  0
 17 38  1  0  0  0  0
 18 20  2  0  0  0  0
 18 39  1  0  0  0  0
 19 47  1  0  0  0  0
 20 40  1  0  0  0  0
 21 22  1  0  0  0  0
 21 23  2  0  0  0  0
 21 50  1  0  0  0  0
 22 30  2  0  0  0  0
 22 51  1  0  0  0  0
 23 31  1  0  0  0  0
 23 63  1  0  0  0  0
 24 83  1  0  0  0  0
 25 84  1  0  0  0  0
 26 28  2  0  0  0  0
 26 83  1  0  0  0  0
 27 85  1  0  0  0  0
 28 86  1  0  0  0  0
 29 67  2  0  0  0  0
 30 52  1  0  0  0  0
 30 68  1  0  0  0  0
 31 60  1  0  0  0  0
 31 68  2  0  0  0  0
 32 69  1  0  0  0  0
 32 72  1  0  0  0  0
 33 73  1  0  0  0  0
 33 78  2  0  0  0  0
 34 48  1  0  0  0  0
 34 74  1  0  0  0  0
 34 79  2  0  0  0  0
 35 64  1  0  0  0  0
 35 70  1  0  0  0  0
 35 80  2  0  0  0  0
 36 65  1  0  0  0  0
 36 75  1  0  0  0  0
 36 81  2  0  0  0  0
 37 71  1  0  0  0  0
 37 76  1  0  0  0  0
 37 82  2  0  0  0  0
 38 41  1  0  0  0  0
 39 48  1  0  0  0  0
 40 70  1  0  0  0  0
 41 43  1  0  0  0  0
 42 44  1  0  0  0  0
 42 45  1  0  0  0  0
 43 47  1  0  0  0  0
 44 49  1  0  0  0  0
 45 71  1  0  0  0  0
 46 49  1  0  0  0  0
 46 71  1  0  0  0  0
 47 74  1  0  0  0  0
 48 70  1  0  0  0  0
 49 69  1  0  0  0  0
 53 63  1  0  0  0  0
 54 65  1  0  0  0  0
 55 66  1  0  0  0  0
 56 66  1  0  0  0  0
 57 66  1  0  0  0  0
 58 76  1  0  0  0  0
 59 77  1  0  0  0  0
 60 76  1  0  0  0  0
 61 62  1  0  0  0  0
 61 63  1  0  0  0  0
 62 84  1  0  0  0  0
 64 66  1  0  0  0  0
 64 75  1  0  0  0  0
 65 77  1  0  0  0  0
 67 69  1  0  0  0  0
M  CHG  1  77   1
M  ISO  4  37 100  62 101  76 100  84 101
M  END
> <Batch ID>
0086

> <Smiles>
CNC(C)C(=O)NC(C(=O)N1Cc2cc([101O:1][101CH2:1]CC(C)c3c(C[100N:0](C)[100C:0](=O)N4CCCC(n5nc(-c6ccc(Oc7ccc(F)cc7F)cc6)c(C(N)=O)c5N)C4)nc(C)c(C)c3C)ccc2CC1C(=O)NC1CCCc2ccccc21)C(C)(C)C

> <Shape>
0.281

> <Color>
0.057

> <Negative vol penalty>
0.000

$$$$

  -OEChem-04052318593D

 84 92  0     1  0  0  0  0  0999 V2000
  -38.2790  -30.5226   22.6917 C   0  0  0  0  0  0  0  0  0  0  0  0
  -37.3131  -29.6696   23.2159 C   0  0  0  0  0  0  0  0  0  0  0  0
  -23.0001   -9.8906   19.9821 C   0  0  0  0  0  0  0  0  0  0  0  0
  -23.7247   -9.9458   22.2862 C   0  0  0  0  0  0  0  0  0  0  0  0
  -38.2667  -30.8369   21.3334 C   0  0  0  0  0  0  0  0  0  0  0  0
  -36.3336  -29.1312   22.3821 C   0  0  0  0  0  0  0  0  0  0  0  0
  -33.7862  -23.5779   22.8035 C   0  0  0  0  0  0  0  0  0  0  0  0
  -22.2345   -8.7559   20.2500 C   0  0  0  0  0  0  0  0  0  0  0  0
  -22.9590   -8.8111   22.5541 C   0  0  0  0  0  0  0  0  0  0  0  0
  -32.5830  -23.1371   23.3528 C   0  0  0  0  0  0  0  0  0  0  0  0
  -21.4797   -5.7187   23.7620 C   0  0  0  0  0  0  0  0  0  0  0  0
  -22.0664   -4.7046   24.5189 C   0  0  0  0  0  0  0  0  0  0  0  0
  -31.5559  -23.2430   21.1726 C   0  0  0  0  0  0  0  0  0  0  0  0
  -23.7933   -4.4562   22.8476 C   0  0  0  0  0  0  0  0  0  0  0  0
  -29.7618  -17.6994   22.6606 C   0  0  0  0  0  0  0  0  0  0  0  0
  -23.7453  -10.4855   21.0002 C   0  0  0  0  0  0  0  0  0  0  0  0
  -24.1286  -13.0011   20.8203 C   0  0  0  0  0  0  0  0  0  0  0  0
  -37.2923  -30.2945   20.4808 C   0  0  0  0  0  0  0  0  0  0  0  0
  -33.8805  -23.8655   21.4343 C   0  0  0  0  0  0  0  0  0  0  0  0
  -36.3074  -29.4396   21.0114 C   0  0  0  0  0  0  0  0  0  0  0  0
  -32.7622  -23.6849   20.6080 C   0  0  0  0  0  0  0  0  0  0  0  0
  -22.2139   -8.2162   21.5360 C   0  0  0  0  0  0  0  0  0  0  0  0
  -31.4668  -22.9724   22.5378 C   0  0  0  0  0  0  0  0  0  0  0  0
  -22.0498   -6.1015   22.5478 C   0  0  0  0  0  0  0  0  0  0  0  0
  -23.2232   -4.0733   24.0618 C   0  0  0  0  0  0  0  0  0  0  0  0
  -23.2066   -5.4703   22.0907 C   0  0  0  0  0  0  0  0  0  0  0  0
  -24.5369  -11.6573   20.7239 C   0  0  0  0  0  0  0  0  0  0  0  0
  -30.2955  -18.9153   23.0364 C   0  0  0  0  0  0  0  0  0  0  0  0
  -30.5771  -16.9050   21.8806 C   0  0  0  0  0  0  0  0  0  0  0  0
  -25.2379  -13.7241   20.4550 C   0  0  0  0  0  0  0  0  0  0  0  0
  -32.2261  -18.4691   21.9223 C   0  0  0  0  0  0  0  0  0  0  0  0
  -22.8601  -13.5471   21.2057 C   0  0  0  0  0  0  0  0  0  0  0  0
  -34.5231  -26.4694   19.7282 C   0  0  0  0  0  0  0  0  0  0  0  0
  -34.4367  -24.3877   17.2419 C   0  0  0  0  0  0  0  0  0  0  0  0
  -33.3161  -21.4185   15.9869 C   0  0  0  0  0  0  0  0  0  0  0  0
  -30.7165  -14.6899   20.6889 C   0  0  0  0  0  0  0  0  0  0  0  0
  -37.2912  -30.7008   19.0283 C   0  0  0  0  0  0  0  0  0  0  0  0
  -35.1929  -24.3145   20.8525 C   0  0  0  0  0  0  0  0  0  0  0  0
  -32.8167  -23.9605   19.1283 C   0  0  0  0  0  0  0  0  0  0  0  0
  -36.4435  -29.7918   18.1422 C   0  0  0  0  0  0  0  0  0  0  0  0
  -29.6008  -12.2325   18.3665 C   0  0  0  0  0  0  0  0  0  0  0  0
  -35.0860  -29.5321   18.7876 C   0  0  0  0  0  0  0  0  0  0  0  0
  -28.1503  -11.9744   18.7807 C   0  0  0  0  0  0  0  0  0  0  0  0
  -30.5008  -12.4785   19.5761 C   0  0  0  0  0  0  0  0  0  0  0  0
  -28.5845  -13.2679   20.9079 C   0  0  0  0  0  0  0  0  0  0  0  0
  -35.2434  -28.8161   20.1344 C   0  0  1  0  0  0  0  0  0  0  0  0
  -35.0358  -25.0701   19.5365 C   0  0  1  0  0  0  0  0  0  0  0  0
  -27.6273  -13.0790   19.7198 C   0  0  2  0  0  0  0  0  0  0  0  0
  -33.3787  -20.0075   13.9126 C   0  0  0  0  0  0  0  0  0  0  0  0
  -34.7356  -18.0736   23.6411 C   0  0  0  0  0  0  0  0  0  0  0  0
  -35.8886  -19.7362   22.1680 C   0  0  0  0  0  0  0  0  0  0  0  0
  -32.4074  -26.2441   15.9208 C   0  0  0  0  0  0  0  0  0  0  0  0
  -31.8107  -24.3728   14.3682 C   0  0  0  0  0  0  0  0  0  0  0  0
  -34.1257  -25.3020   14.3669 C   0  0  0  0  0  0  0  0  0  0  0  0
  -34.6495  -19.1887   17.4042 C   0  0  0  0  0  0  0  0  0  0  0  0
  -29.4790  -19.8541   23.8882 C   0  0  0  0  0  0  0  0  0  0  0  0
  -33.5955  -18.8955   21.5139 C   0  0  0  0  0  0  0  0  0  0  0  0
  -28.6157  -20.8254   23.0803 C   0  0  0  0  0  0  0  0  0  0  0  0
  -29.4299  -21.7862   22.2216 C   0  0  0  0  0  0  0  0  0  1  0  0
  -33.3629  -23.8776   16.3115 C   0  0  1  0  0  0  0  0  0  0  0  0
  -34.0338  -20.2998   15.2536 C   0  0  2  0  0  0  0  0  0  0  0  0
  -34.5324  -19.2577   22.6925 C   0  0  0  0  0  0  0  0  0  0  0  0
  -32.9248  -24.9457   15.2700 C   0  0  0  0  0  0  0  0  0  0  0  0
  -25.8064  -11.5312   20.3282 N   0  0  0  0  0  0  0  0  0  0  0  0
  -31.5288  -19.3336   22.6839 N   0  0  0  0  0  0  0  0  0  0  0  0
  -31.8192  -17.2599   21.4913 N   0  0  0  0  0  0  0  0  0  0  0  0
  -26.2054  -12.8051   20.1727 N   0  0  0  0  0  0  0  0  0  0  0  0
  -34.1207  -24.4035   18.6078 N   0  0  0  0  0  0  0  0  0  0  0  0
  -29.9447  -13.5404   20.4176 N   0  0  0  0  0  0  0  0  0  0  0  0
  -25.4703  -15.0498   20.3510 N   0  0  0  0  0  0  0  0  0  0  0  0
  -21.8290  -12.6627   21.5503 N   0  0  0  0  0  0  0  0  0  0  0  0
  -30.0713  -15.6458   21.4728 N   0  0  0  0  0  0  0  0  0  0  0  0
  -35.5155  -27.4094   19.9302 N   0  0  0  0  0  0  0  0  0  0  0  0
  -33.8827  -22.6477   15.7236 N   0  0  0  0  0  0  0  0  0  0  0  0
  -34.0156  -19.0516   16.0676 N   0  3  0  0  0  0  0  0  0  0  0  0
  -22.6424  -14.7823   21.2274 O   0  0  0  0  0  0  0  0  0  0  0  0
  -33.3165  -26.6808   19.6938 O   0  0  0  0  0  0  0  0  0  0  0  0
  -35.5188  -24.7518   16.7747 O   0  0  0  0  0  0  0  0  0  0  0  0
  -32.3472  -21.2221   16.7171 O   0  0  0  0  0  0  0  0  0  0  0  0
  -31.8552  -14.8291   20.2349 O   0  0  0  0  0  0  0  0  0  0  0  0
  -21.4666   -7.1091   21.7979 O   0  0  0  0  0  0  0  0  0  0  0  0
  -30.2910  -22.5429   23.0715 O   0  0  0  0  0  0  0  0  0  1  0  0
  -23.7873   -3.1005   24.7895 F   0  0  0  0  0  0  0  0  0  0  0  0
  -23.7596   -5.8346   20.9256 F   0  0  0  0  0  0  0  0  0  0  0  0
  1  2  1  0  0  0  0
  1  5  2  0  0  0  0
  2  6  2  0  0  0  0
  3  8  2  0  0  0  0
  3 16  1  0  0  0  0
  4  9  1  0  0  0  0
  4 16  2  0  0  0  0
  5 18  1  0  0  0  0
  6 20  1  0  0  0  0
  7 10  2  0  0  0  0
  7 19  1  0  0  0  0
  8 22  1  0  0  0  0
  9 22  2  0  0  0  0
 10 23  1  0  0  0  0
 11 12  2  0  0  0  0
 11 24  1  0  0  0  0
 12 25  1  0  0  0  0
 13 21  1  0  0  0  0
 13 23  2  0  0  0  0
 14 25  2  0  0  0  0
 14 26  1  0  0  0  0
 15 28  1  0  0  0  0
 15 29  2  0  0  0  0
 16 27  1  0  0  0  0
 17 27  1  0  0  0  0
 17 30  2  0  0  0  0
 17 32  1  0  0  0  0
 18 20  2  0  0  0  0
 18 37  1  0  0  0  0
 19 21  2  0  0  0  0
 19 38  1  0  0  0  0
 20 46  1  0  0  0  0
 21 39  1  0  0  0  0
 22 81  1  0  0  0  0
 23 82  1  0  0  0  0
 24 26  2  0  0  0  0
 24 81  1  0  0  0  0
 25 83  1  0  0  0  0
 26 84  1  0  0  0  0
 27 64  2  0  0  0  0
 28 56  1  0  0  0  0
 28 65  2  0  0  0  0
 29 66  1  0  0  0  0
 29 72  1  0  0  0  0
 30 67  1  0  0  0  0
 30 70  1  0  0  0  0
 31 57  1  0  0  0  0
 31 65  1  0  0  0  0
 31 66  2  0  0  0  0
 32 71  1  0  0  0  0
 32 76  2  0  0  0  0
 33 47  1  0  0  0  0
 33 73  1  0  0  0  0
 33 77  2  0  0  0  0
 34 60  1  0  0  0  0
 34 68  1  0  0  0  0
 34 78  2  0  0  0  0
 35 61  1  0  0  0  0
 35 74  1  0  0  0  0
 35 79  2  0  0  0  0
 36 69  1  0  0  0  0
 36 72  1  0  0  0  0
 36 80  2  0  0  0  0
 37 40  1  0  0  0  0
 38 47  1  0  0  0  0
 39 68  1  0  0  0  0
 40 42  1  0  0  0  0
 41 43  1  0  0  0  0
 41 44  1  0  0  0  0
 42 46  1  0  0  0  0
 43 48  1  0  0  0  0
 44 69  1  0  0  0  0
 45 48  1  0  0  0  0
 45 69  1  0  0  0  0
 46 73  1  0  0  0  0
 47 68  1  0  0  0  0
 48 67  1  0  0  0  0
 49 61  1  0  0  0  0
 50 62  1  0  0  0  0
 51 62  1  0  0  0  0
 52 63  1  0  0  0  0
 53 63  1  0  0  0  0
 54 63  1  0  0  0  0
 55 75  1  0  0  0  0
 56 58  1  0  0  0  0
 57 62  1  0  0  0  0
 58 59  1  0  0  0  0
 59 82  1  0  0  0  0
 60 63  1  0  0  0  0
 60 74  1  0  0  0  0
 61 75  1  0  0  0  0
 64 67  1  0  0  0  0
M  CHG  1  75   1
M  ISO  4  36 100  59 101  72 100  82 101
M  END
> <Batch ID>
0086

> <Smiles>
CNC(C)C(=O)NC(C(=O)N1Cc2cc([101O:1][101CH2:1]CCc3cc([100NH:0][100C:0](=O)N4CCCC(n5nc(-c6ccc(Oc7ccc(F)cc7F)cc6)c(C(N)=O)c5N)C4)nc(CC(C)C)n3)ccc2CC1C(=O)NC1CCCc2ccccc21)C(C)(C)C

> <Shape>
0.182

> <Color>
0.194

> <Negative vol penalty>
0.000

$$$$

  -OEChem-04052318593D

 80 87  0     1  0  0  0  0  0999 V2000
  -18.8849  -24.3711   21.1803 C   0  0  0  0  0  0  0  0  0  0  0  0
  -20.1153  -24.7347   20.6426 C   0  0  0  0  0  0  0  0  0  0  0  0
  -24.2196  -13.9755   20.9481 C   0  0  0  0  0  0  0  0  0  0  0  0
  -26.4814  -13.7359   21.7630 C   0  0  0  0  0  0  0  0  0  0  0  0
  -18.2465  -25.2133   22.0897 C   0  0  0  0  0  0  0  0  0  0  0  0
  -20.7077  -25.9414   21.0132 C   0  0  0  0  0  0  0  0  0  0  0  0
  -25.6459  -25.4521   22.0227 C   0  0  0  0  0  0  0  0  0  0  0  0
  -24.2450  -12.6582   20.4902 C   0  0  0  0  0  0  0  0  0  0  0  0
  -26.5068  -12.4185   21.3052 C   0  0  0  0  0  0  0  0  0  0  0  0
  -26.5132  -25.3689   20.9343 C   0  0  0  0  0  0  0  0  0  0  0  0
  -23.5862   -9.2445   19.4284 C   0  0  0  0  0  0  0  0  0  0  0  0
  -22.4733   -8.4454   19.6901 C   0  0  0  0  0  0  0  0  0  0  0  0
  -27.0668  -27.7012   21.2049 C   0  0  0  0  0  0  0  0  0  0  0  0
  -22.8065   -8.7583   22.0625 C   0  0  0  0  0  0  0  0  0  0  0  0
  -25.3379  -14.5144   21.5844 C   0  0  0  0  0  0  0  0  0  0  0  0
  -24.9033  -16.3269   23.3262 C   0  0  0  0  0  0  0  0  0  0  0  0
  -18.8359  -26.4265   22.4790 C   0  0  0  0  0  0  0  0  0  0  0  0
  -25.4741  -26.6652   22.7048 C   0  0  0  0  0  0  0  0  0  0  0  0
  -20.0760  -26.8013   21.9276 C   0  0  0  0  0  0  0  0  0  0  0  0
  -26.1987  -27.7965   22.3033 C   0  0  0  0  0  0  0  0  0  0  0  0
  -25.3885  -11.8797   20.6687 C   0  0  0  0  0  0  0  0  0  0  0  0
  -27.2216  -26.4943   20.5234 C   0  0  0  0  0  0  0  0  0  0  0  0
  -24.3094   -9.8004   20.4837 C   0  0  0  0  0  0  0  0  0  0  0  0
  -22.0834   -8.2023   21.0071 C   0  0  0  0  0  0  0  0  0  0  0  0
  -23.9194   -9.5574   21.8008 C   0  0  0  0  0  0  0  0  0  0  0  0
  -25.3125  -15.8753   22.0571 C   0  0  0  0  0  0  0  0  0  0  0  0
  -25.0671  -17.6896   23.2749 C   0  0  0  0  0  0  0  0  0  0  0  0
  -24.4186  -15.5813   24.4508 C   0  0  0  0  0  0  0  0  0  0  0  0
  -23.0203  -28.6172   23.2265 C   0  0  0  0  0  0  0  0  0  0  0  0
  -28.6725  -21.0555   19.9662 C   0  0  0  0  0  0  0  0  0  0  0  0
  -25.1526  -30.1585   25.1238 C   0  0  0  0  0  0  0  0  0  0  0  0
  -28.4157  -30.8298   25.8644 C   0  0  0  0  0  0  0  0  0  0  0  0
  -18.0857  -27.3261   23.4290 C   0  0  0  0  0  0  0  0  0  0  0  0
  -24.5550  -26.7317   23.8937 C   0  0  0  0  0  0  0  0  0  0  0  0
  -26.0652  -29.1173   23.0146 C   0  0  0  0  0  0  0  0  0  0  0  0
  -18.9567  -28.4122   24.0553 C   0  0  0  0  0  0  0  0  0  0  0  0
  -25.0567  -21.3577   20.2140 C   0  0  0  0  0  0  0  0  0  0  0  0
  -19.8108  -29.0920   22.9899 C   0  0  0  0  0  0  0  0  0  0  0  0
  -24.6768  -20.0026   20.8094 C   0  0  0  0  0  0  0  0  0  0  0  0
  -26.2387  -21.2381   19.2556 C   0  0  0  0  0  0  0  0  0  0  0  0
  -27.0658  -19.2395   20.4580 C   0  0  0  0  0  0  0  0  0  0  0  0
  -20.7622  -28.0906   22.3238 C   0  0  1  0  0  0  0  0  0  0  0  0
  -24.0685  -28.1459   24.1944 C   0  0  1  0  0  0  0  0  0  0  0  0
  -25.8968  -19.3214   21.4539 C   0  0  2  0  0  0  0  0  0  0  0  0
  -29.8444  -32.1545   27.4460 C   0  0  0  0  0  0  0  0  0  0  0  0
  -30.7078  -23.2229   20.8745 C   0  0  0  0  0  0  0  0  0  0  0  0
  -24.4947  -32.7068   23.5801 C   0  0  0  0  0  0  0  0  0  0  0  0
  -26.5741  -33.7327   24.5245 C   0  0  0  0  0  0  0  0  0  0  0  0
  -24.7351  -33.0161   26.0501 C   0  0  0  0  0  0  0  0  0  0  0  0
  -30.0463  -26.0422   17.2767 C   0  0  0  0  0  0  0  0  0  0  0  0
  -30.9660  -26.1776   19.5875 C   0  0  0  0  0  0  0  0  0  0  0  0
  -29.7020  -28.3874   26.9315 C   0  0  0  0  0  0  0  0  0  0  0  0
  -32.9239  -23.0804   17.7904 C   0  0  0  0  0  0  0  0  0  0  0  0
  -28.9188  -22.3984   19.3260 C   0  0  0  0  0  0  0  0  0  0  0  0
  -28.6967  -25.1560   19.2238 C   0  0  0  0  0  0  0  0  0  1  0  0
  -26.1627  -31.2618   24.9201 C   0  0  1  0  0  0  0  0  0  0  0  0
  -29.1735  -30.8159   27.1797 C   0  0  2  0  0  0  0  0  0  0  0  0
  -30.4070  -22.7828   19.4289 C   0  0  1  0  0  0  0  0  0  0  0  0
  -30.8298  -23.9183   18.4506 C   0  0  1  0  0  0  0  0  0  0  0  0
  -25.4929  -32.6551   24.7539 C   0  0  0  0  0  0  0  0  0  0  0  0
  -30.1164  -25.3035   18.6313 C   0  0  0  0  0  0  0  0  0  0  0  0
  -25.7064  -16.8704   21.2580 N   0  0  0  0  0  0  0  0  0  0  0  0
  -25.5454  -17.9609   22.0268 N   0  0  0  0  0  0  0  0  0  0  0  0
  -25.1495  -29.1333   24.1673 N   0  0  0  0  0  0  0  0  0  0  0  0
  -27.3704  -20.5595   19.8984 N   0  0  0  0  0  0  0  0  0  0  0  0
  -24.8470  -18.6704   24.1761 N   0  0  0  0  0  0  0  0  0  0  0  0
  -24.3125  -14.1887   24.3335 N   0  0  0  0  0  0  0  0  0  0  0  0
  -21.8933  -27.8187   23.1847 N   0  0  0  0  0  0  0  0  0  0  0  0
  -27.0927  -31.1758   26.0409 N   0  0  0  0  0  0  0  0  0  0  0  0
  -30.2241  -29.7591   27.1610 N   0  3  0  0  0  0  0  0  0  0  0  0
  -24.0738  -16.1352   25.5221 O   0  0  0  0  0  0  0  0  0  0  0  0
  -23.2186  -29.6311   22.5674 O   0  0  0  0  0  0  0  0  0  0  0  0
  -29.6100  -20.4678   20.5122 O   0  0  0  0  0  0  0  0  0  0  0  0
  -24.3992  -30.2008   26.0996 O   0  0  0  0  0  0  0  0  0  0  0  0
  -28.9454  -30.5643   24.7876 O   0  0  0  0  0  0  0  0  0  0  0  0
  -25.4136  -10.5942   20.2223 O   0  0  0  0  0  0  0  0  0  0  0  0
  -28.0736  -26.4156   19.4542 O   0  0  0  0  0  0  0  0  0  1  0  0
  -32.2477  -24.1010   18.5054 O   0  0  0  0  0  0  0  0  0  0  0  0
  -21.0137   -7.4362   21.2582 F   0  0  0  0  0  0  0  0  0  0  0  0
  -24.6095  -10.0897   22.8188 F   0  0  0  0  0  0  0  0  0  0  0  0
  1  2  1  0  0  0  0
  1  5  2  0  0  0  0
  2  6  2  0  0  0  0
  3  8  2  0  0  0  0
  3 15  1  0  0  0  0
  4  9  1  0  0  0  0
  4 15  2  0  0  0  0
  5 17  1  0  0  0  0
  6 19  1  0  0  0  0
  7 10  2  0  0  0  0
  7 18  1  0  0  0  0
  8 21  1  0  0  0  0
  9 21  2  0  0  0  0
 10 22  1  0  0  0  0
 11 12  2  0  0  0  0
 11 23  1  0  0  0  0
 12 24  1  0  0  0  0
 13 20  1  0  0  0  0
 13 22  2  0  0  0  0
 14 24  2  0  0  0  0
 14 25  1  0  0  0  0
 15 26  1  0  0  0  0
 16 26  1  0  0  0  0
 16 27  2  0  0  0  0
 16 28  1  0  0  0  0
 17 19  2  0  0  0  0
 17 33  1  0  0  0  0
 18 20  2  0  0  0  0
 18 34  1  0  0  0  0
 19 42  1  0  0  0  0
 20 35  1  0  0  0  0
 21 76  1  0  0  0  0
 22 77  1  0  0  0  0
 23 25  2  0  0  0  0
 23 76  1  0  0  0  0
 24 79  1  0  0  0  0
 25 80  1  0  0  0  0
 26 62  2  0  0  0  0
 27 63  1  0  0  0  0
 27 66  1  0  0  0  0
 28 67  1  0  0  0  0
 28 71  2  0  0  0  0
 29 43  1  0  0  0  0
 29 68  1  0  0  0  0
 29 72  2  0  0  0  0
 30 54  1  0  0  0  0
 30 65  1  0  0  0  0
 30 73  2  0  0  0  0
 31 56  1  0  0  0  0
 31 64  1  0  0  0  0
 31 74  2  0  0  0  0
 32 57  1  0  0  0  0
 32 69  1  0  0  0  0
 32 75  2  0  0  0  0
 33 36  1  0  0  0  0
 34 43  1  0  0  0  0
 35 64  1  0  0  0  0
 36 38  1  0  0  0  0
 37 39  1  0  0  0  0
 37 40  1  0  0  0  0
 38 42  1  0  0  0  0
 39 44  1  0  0  0  0
 40 65  1  0  0  0  0
 41 44  1  0  0  0  0
 41 65  1  0  0  0  0
 42 68  1  0  0  0  0
 43 64  1  0  0  0  0
 44 63  1  0  0  0  0
 45 57  1  0  0  0  0
 46 58  1  0  0  0  0
 47 60  1  0  0  0  0
 48 60  1  0  0  0  0
 49 60  1  0  0  0  0
 50 61  1  0  0  0  0
 51 61  1  0  0  0  0
 52 70  1  0  0  0  0
 53 78  1  0  0  0  0
 54 58  1  0  0  0  0
 55 61  1  0  0  0  0
 55 77  1  0  0  0  0
 56 60  1  0  0  0  0
 56 69  1  0  0  0  0
 57 70  1  0  0  0  0
 58 59  1  0  0  0  0
 59 61  1  0  0  0  0
 59 78  1  0  0  0  0
 62 63  1  0  0  0  0
M  CHG  1  70   1
M  ISO  4  30 100  54 100  55 101  77 101
M  END
> <Batch ID>
0086

> <Smiles>
CNC(C)C(=O)NC(C(=O)N1Cc2cc([101O:1][101CH2:1]C(C)(C)C(OC)C(C)[100CH2:0][100C:0](=O)N3CCCC(n4nc(-c5ccc(Oc6ccc(F)cc6F)cc5)c(C(N)=O)c4N)C3)ccc2CC1C(=O)NC1CCCc2ccccc21)C(C)(C)C

> <Shape>
0.277

> <Color>
0.082

> <Negative vol penalty>
0.000

$$$$

  -OEChem-04052318593D

 86 94  0     1  0  0  0  0  0999 V2000
  -16.9894  -26.6808   22.7906 C   0  0  0  0  0  0  0  0  0  0  0  0
  -18.2420  -26.0784   22.7295 C   0  0  0  0  0  0  0  0  0  0  0  0
  -23.5801  -13.0407   21.2357 C   0  0  0  0  0  0  0  0  0  0  0  0
  -24.4164  -14.2682   23.1412 C   0  0  0  0  0  0  0  0  0  0  0  0
  -16.8352  -28.0078   22.3917 C   0  0  0  0  0  0  0  0  0  0  0  0
  -19.3408  -26.8025   22.2684 C   0  0  0  0  0  0  0  0  0  0  0  0
  -25.1327  -26.3340   24.2025 C   0  0  0  0  0  0  0  0  0  0  0  0
  -23.3450  -11.9342   22.0517 C   0  0  0  0  0  0  0  0  0  0  0  0
  -24.1813  -13.1617   23.9573 C   0  0  0  0  0  0  0  0  0  0  0  0
  -26.2391  -25.6545   23.6946 C   0  0  0  0  0  0  0  0  0  0  0  0
  -25.1483   -9.4337   23.4374 C   0  0  0  0  0  0  0  0  0  0  0  0
  -25.5440   -8.1833   22.9624 C   0  0  0  0  0  0  0  0  0  0  0  0
  -26.9632  -27.6724   22.5887 C   0  0  0  0  0  0  0  0  0  0  0  0
  -29.3623  -21.7109   21.5409 C   0  0  0  0  0  0  0  0  0  0  0  0
  -23.2580   -7.4117   23.0891 C   0  0  0  0  0  0  0  0  0  0  0  0
  -29.3730  -23.5521   20.0355 C   0  0  0  0  0  0  0  0  0  0  0  0
  -24.1159  -14.2078   21.7805 C   0  0  0  0  0  0  0  0  0  0  0  0
  -23.4677  -16.4021   20.6525 C   0  0  0  0  0  0  0  0  0  0  0  0
  -17.9346  -28.7515   21.9346 C   0  0  0  0  0  0  0  0  0  0  0  0
  -24.9270  -27.6872   23.8978 C   0  0  0  0  0  0  0  0  0  0  0  0
  -19.2009  -28.1403   21.8618 C   0  0  0  0  0  0  0  0  0  0  0  0
  -25.8547  -28.3674   23.0960 C   0  0  0  0  0  0  0  0  0  0  0  0
  -29.5605  -23.0694   21.3206 C   0  0  0  0  0  0  0  0  0  0  0  0
  -28.9880  -20.8883   20.4843 C   0  0  0  0  0  0  0  0  0  0  0  0
  -23.6456  -11.9947   23.4125 C   0  0  0  0  0  0  0  0  0  0  0  0
  -27.1530  -26.3229   22.8852 C   0  0  0  0  0  0  0  0  0  0  0  0
  -23.8074   -9.6730   23.7383 C   0  0  0  0  0  0  0  0  0  0  0  0
  -24.5988   -7.1724   22.7882 C   0  0  0  0  0  0  0  0  0  0  0  0
  -22.8623   -8.6621   23.5642 C   0  0  0  0  0  0  0  0  0  0  0  0
  -24.3595  -15.3510   20.9379 C   0  0  0  0  0  0  0  0  0  0  0  0
  -28.8259  -21.4687   19.2366 C   0  0  0  0  0  0  0  0  0  0  0  0
  -24.1706  -17.2300   19.8117 C   0  0  0  0  0  0  0  0  0  0  0  0
  -22.1240  -16.6114   21.1068 C   0  0  0  0  0  0  0  0  0  0  0  0
  -22.6597  -29.3278   22.3907 C   0  0  0  0  0  0  0  0  0  0  0  0
  -24.3822  -31.8841   23.4008 C   0  0  0  0  0  0  0  0  0  0  0  0
  -30.0671  -18.0748   19.0184 C   0  0  0  0  0  0  0  0  0  0  0  0
  -27.3925  -33.1309   24.4160 C   0  0  0  0  0  0  0  0  0  0  0  0
  -17.7097  -30.1685   21.4697 C   0  0  0  0  0  0  0  0  0  0  0  0
  -23.7428  -28.4128   24.4753 C   0  0  0  0  0  0  0  0  0  0  0  0
  -25.6904  -29.8254   22.7559 C   0  0  0  0  0  0  0  0  0  0  0  0
  -18.9963  -30.9808   21.3470 C   0  0  0  0  0  0  0  0  0  0  0  0
  -27.6456  -17.1764   16.5346 C   0  0  0  0  0  0  0  0  0  0  0  0
  -20.0678  -30.1766   20.6176 C   0  0  0  0  0  0  0  0  0  0  0  0
  -26.4582  -16.6753   17.3556 C   0  0  0  0  0  0  0  0  0  0  0  0
  -28.9728  -16.8146   17.1939 C   0  0  0  0  0  0  0  0  0  0  0  0
  -27.9119  -16.7871   19.4290 C   0  0  0  0  0  0  0  0  0  0  0  0
  -20.4217  -28.9005   21.3908 C   0  0  1  0  0  0  0  0  0  0  0  0
  -23.3580  -29.6564   23.6799 C   0  0  1  0  0  0  0  0  0  0  0  0
  -26.5511  -17.1585   18.8138 C   0  0  2  0  0  0  0  0  0  0  0  0
  -27.5739  -21.4120   17.0650 C   0  0  0  0  0  0  0  0  0  0  0  0
  -28.1136  -19.1474   22.0901 C   0  0  0  0  0  0  0  0  0  0  0  0
  -28.4986  -35.2647   25.1378 C   0  0  0  0  0  0  0  0  0  0  0  0
  -29.1519  -25.1368   24.5362 C   0  0  0  0  0  0  0  0  0  0  0  0
  -30.0618  -17.2401   21.3280 C   0  0  0  0  0  0  0  0  0  0  0  0
  -31.3465  -19.2884   20.6787 C   0  0  0  0  0  0  0  0  0  0  0  0
  -24.4437  -32.8304   20.5006 C   0  0  0  0  0  0  0  0  0  0  0  0
  -26.3062  -34.3845   21.1202 C   0  0  0  0  0  0  0  0  0  0  0  0
  -24.0635  -34.6428   22.1815 C   0  0  0  0  0  0  0  0  0  0  0  0
  -28.0698  -32.0170   27.0730 C   0  0  0  0  0  0  0  0  0  0  0  0
  -29.9666  -23.9903   22.4469 C   0  0  0  0  0  0  0  0  0  0  0  0
  -28.4238  -20.6339   18.0648 C   0  0  0  0  0  0  0  0  0  0  0  0
  -28.7758  -19.4316   20.7130 C   0  0  2  0  0  0  0  0  0  0  0  0
  -25.5286  -32.6901   22.8393 C   0  0  1  0  0  0  0  0  0  0  0  0
  -27.7735  -34.0084   25.5947 C   0  0  2  0  0  0  0  0  0  0  0  0
  -28.7559  -24.5894   23.1707 C   0  0  2  0  0  0  0  0  0  1  0  0
  -30.0373  -18.5082   20.4624 C   0  0  0  0  0  0  0  0  0  0  0  0
  -25.0879  -33.6090   21.6651 C   0  0  0  0  0  0  0  0  0  0  0  0
  -29.0095  -22.7841   18.9840 N   0  0  0  0  0  0  0  0  0  0  0  0
  -25.5389  -15.4954   20.3279 N   0  0  0  0  0  0  0  0  0  0  0  0
  -25.3930  -16.6470   19.6506 N   0  0  0  0  0  0  0  0  0  0  0  0
  -24.5131  -30.4895   23.3394 N   0  0  0  0  0  0  0  0  0  0  0  0
  -29.0128  -17.2710   18.5844 N   0  0  0  0  0  0  0  0  0  0  0  0
  -23.8561  -18.3925   19.2017 N   0  0  0  0  0  0  0  0  0  0  0  0
  -21.5541  -15.6629   21.9670 N   0  0  0  0  0  0  0  0  0  0  0  0
  -21.2878  -29.2103   22.5080 N   0  0  0  0  0  0  0  0  0  0  0  0
  -26.1173  -33.4033   23.9676 N   0  0  0  0  0  0  0  0  0  0  0  0
  -28.6657  -33.2638   26.5277 N   0  3  0  0  0  0  0  0  0  0  0  0
  -21.4430  -17.6016   20.7471 O   0  0  0  0  0  0  0  0  0  0  0  0
  -23.3166  -29.1923   21.3652 O   0  0  0  0  0  0  0  0  0  0  0  0
  -23.4097  -32.4703   23.8827 O   0  0  0  0  0  0  0  0  0  0  0  0
  -30.9989  -18.4432   18.2984 O   0  0  0  0  0  0  0  0  0  0  0  0
  -28.1516  -32.2906   23.9383 O   0  0  0  0  0  0  0  0  0  0  0  0
  -23.4160  -10.9152   24.2091 O   0  0  0  0  0  0  0  0  0  0  0  0
  -28.2335  -25.6619   22.3877 O   0  0  0  0  0  0  0  0  0  1  0  0
  -24.9787   -5.9722   22.3306 F   0  0  0  0  0  0  0  0  0  0  0  0
  -21.5725   -8.8865   23.8505 F   0  0  0  0  0  0  0  0  0  0  0  0
  1  2  1  0  0  0  0
  1  5  2  0  0  0  0
  2  6  2  0  0  0  0
  3  8  2  0  0  0  0
  3 17  1  0  0  0  0
  4  9  1  0  0  0  0
  4 17  2  0  0  0  0
  5 19  1  0  0  0  0
  6 21  1  0  0  0  0
  7 10  2  0  0  0  0
  7 20  1  0  0  0  0
  8 25  1  0  0  0  0
  9 25  2  0  0  0  0
 10 26  1  0  0  0  0
 11 12  2  0  0  0  0
 11 27  1  0  0  0  0
 12 28  1  0  0  0  0
 13 22  1  0  0  0  0
 13 26  2  0  0  0  0
 14 23  2  0  0  0  0
 14 24  1  0  0  0  0
 15 28  2  0  0  0  0
 15 29  1  0  0  0  0
 16 23  1  0  0  0  0
 16 68  2  0  0  0  0
 17 30  1  0  0  0  0
 18 30  1  0  0  0  0
 18 32  2  0  0  0  0
 18 33  1  0  0  0  0
 19 21  2  0  0  0  0
 19 38  1  0  0  0  0
 20 22  2  0  0  0  0
 20 39  1  0  0  0  0
 21 47  1  0  0  0  0
 22 40  1  0  0  0  0
 23 60  1  0  0  0  0
 24 31  2  0  0  0  0
 24 62  1  0  0  0  0
 25 83  1  0  0  0  0
 26 84  1  0  0  0  0
 27 29  2  0  0  0  0
 27 83  1  0  0  0  0
 28 85  1  0  0  0  0
 29 86  1  0  0  0  0
 30 69  2  0  0  0  0
 31 61  1  0  0  0  0
 31 68  1  0  0  0  0
 32 70  1  0  0  0  0
 32 73  1  0  0  0  0
 33 74  1  0  0  0  0
 33 78  2  0  0  0  0
 34 48  1  0  0  0  0
 34 75  1  0  0  0  0
 34 79  2  0  0  0  0
 35 63  1  0  0  0  0
 35 71  1  0  0  0  0
 35 80  2  0  0  0  0
 36 66  1  0  0  0  0
 36 72  1  0  0  0  0
 36 81  2  0  0  0  0
 37 64  1  0  0  0  0
 37 76  1  0  0  0  0
 37 82  2  0  0  0  0
 38 41  1  0  0  0  0
 39 48  1  0  0  0  0
 40 71  1  0  0  0  0
 41 43  1  0  0  0  0
 42 44  1  0  0  0  0
 42 45  1  0  0  0  0
 43 47  1  0  0  0  0
 44 49  1  0  0  0  0
 45 72  1  0  0  0  0
 46 49  1  0  0  0  0
 46 72  1  0  0  0  0
 47 75  1  0  0  0  0
 48 71  1  0  0  0  0
 49 70  1  0  0  0  0
 50 61  1  0  0  0  0
 51 62  1  0  0  0  0
 52 64  1  0  0  0  0
 53 65  1  0  0  0  0
 54 66  1  0  0  0  0
 55 66  1  0  0  0  0
 56 67  1  0  0  0  0
 57 67  1  0  0  0  0
 58 67  1  0  0  0  0
 59 77  1  0  0  0  0
 60 65  1  0  0  0  0
 62 66  1  0  0  0  0
 63 67  1  0  0  0  0
 63 76  1  0  0  0  0
 64 77  1  0  0  0  0
 65 84  1  0  0  0  0
 69 70  1  0  0  0  0
M  CHG  1  77   1
M  ISO  4  36 100  65 101  66 100  84 101
M  END
> <Batch ID>
0086

> <Smiles>
CCc1ncc(C[101CH:1](C)[101O:1]c2ccc3c(c2)CN(C(=O)C(NC(=O)C(C)NC)C(C)(C)C)C(C(=O)NC2CCCc4ccccc42)C3)cc1C(C)[100C:0](C)(C)[100C:0](=O)N1CCCC(n2nc(-c3ccc(Oc4ccc(F)cc4F)cc3)c(C(N)=O)c2N)C1

> <Shape>
0.244

> <Color>
0.085

> <Negative vol penalty>
0.000

$$$$

  -OEChem-04052318593D

 88 96  0     1  0  0  0  0  0999 V2000
  -18.7357  -24.1748   23.1977 C   0  0  0  0  0  0  0  0  0  0  0  0
  -20.0976  -24.2088   22.9160 C   0  0  0  0  0  0  0  0  0  0  0  0
  -24.2635   -9.0443   20.0883 C   0  0  0  0  0  0  0  0  0  0  0  0
  -22.9539  -10.5446   21.4562 C   0  0  0  0  0  0  0  0  0  0  0  0
  -17.9707  -25.3341   23.0762 C   0  0  0  0  0  0  0  0  0  0  0  0
  -20.6953  -25.4020   22.5116 C   0  0  0  0  0  0  0  0  0  0  0  0
  -25.0932  -26.2683   24.8680 C   0  0  0  0  0  0  0  0  0  0  0  0
  -23.5049   -7.9663   20.5443 C   0  0  0  0  0  0  0  0  0  0  0  0
  -22.1953   -9.4666   21.9123 C   0  0  0  0  0  0  0  0  0  0  0  0
  -26.2080  -25.5646   24.4144 C   0  0  0  0  0  0  0  0  0  0  0  0
  -20.1464   -7.0640   23.7121 C   0  0  0  0  0  0  0  0  0  0  0  0
  -19.8782   -6.9921   25.0790 C   0  0  0  0  0  0  0  0  0  0  0  0
  -26.9178  -27.5043   23.1683 C   0  0  0  0  0  0  0  0  0  0  0  0
  -28.7591  -22.5434   18.0520 C   0  0  0  0  0  0  0  0  0  0  0  0
  -22.2482   -6.8995   25.5392 C   0  0  0  0  0  0  0  0  0  0  0  0
  -23.9881  -10.3335   20.5443 C   0  0  0  0  0  0  0  0  0  0  0  0
  -24.5156  -12.2515   18.9472 C   0  0  0  0  0  0  0  0  0  0  0  0
  -18.5611  -26.5443   22.6794 C   0  0  0  0  0  0  0  0  0  0  0  0
  -24.8762  -27.5940   24.4658 C   0  0  0  0  0  0  0  0  0  0  0  0
  -19.9372  -26.5783   22.3834 C   0  0  0  0  0  0  0  0  0  0  0  0
  -25.8009  -28.2235   23.6202 C   0  0  0  0  0  0  0  0  0  0  0  0
  -29.8822  -22.5845   18.9147 C   0  0  0  0  0  0  0  0  0  0  0  0
  -22.4707   -8.1774   21.4563 C   0  0  0  0  0  0  0  0  0  0  0  0
  -27.1190  -26.1816   23.5621 C   0  0  0  0  0  0  0  0  0  0  0  0
  -21.4655   -7.0536   23.2587 C   0  0  0  0  0  0  0  0  0  0  0  0
  -20.9291   -6.9099   25.9926 C   0  0  0  0  0  0  0  0  0  0  0  0
  -22.5163   -6.9713   24.1722 C   0  0  0  0  0  0  0  0  0  0  0  0
  -24.7717  -11.4474   20.0740 C   0  0  0  0  0  0  0  0  0  0  0  0
  -28.2558  -21.2619   18.0927 C   0  0  0  0  0  0  0  0  0  0  0  0
  -30.0311  -21.3267   19.4562 C   0  0  0  0  0  0  0  0  0  0  0  0
  -25.5438  -13.1621   18.9343 C   0  0  0  0  0  0  0  0  0  0  0  0
  -23.4440  -12.1816   17.9972 C   0  0  0  0  0  0  0  0  0  0  0  0
  -22.5999  -29.0997   22.8363 C   0  0  0  0  0  0  0  0  0  0  0  0
  -24.2943  -31.7387   23.6652 C   0  0  0  0  0  0  0  0  0  0  0  0
  -27.2886  -33.0843   24.5984 C   0  0  0  0  0  0  0  0  0  0  0  0
  -28.9010  -16.7495   21.5809 C   0  0  0  0  0  0  0  0  0  0  0  0
  -17.6844  -27.7607   22.5166 C   0  0  0  0  0  0  0  0  0  0  0  0
  -23.6829  -28.3480   24.9853 C   0  0  0  0  0  0  0  0  0  0  0  0
  -25.6243  -29.6515   23.1752 C   0  0  0  0  0  0  0  0  0  0  0  0
  -18.4663  -29.0698   22.4440 C   0  0  0  0  0  0  0  0  0  0  0  0
  -29.8396  -13.3151   21.6006 C   0  0  0  0  0  0  0  0  0  0  0  0
  -19.6452  -28.9350   21.4855 C   0  0  0  0  0  0  0  0  0  0  0  0
  -28.5822  -12.5895   21.1185 C   0  0  0  0  0  0  0  0  0  0  0  0
  -29.4962  -14.5179   22.4766 C   0  0  0  0  0  0  0  0  0  0  0  0
  -27.2980  -14.7522   21.3872 C   0  0  0  0  0  0  0  0  0  0  0  0
  -20.6266  -27.8591   21.9658 C   0  0  1  0  0  0  0  0  0  0  0  0
  -23.2898  -29.5272   24.1008 C   0  0  1  0  0  0  0  0  0  0  0  0
  -27.5919  -13.5649   20.4543 C   0  0  2  0  0  0  0  0  0  0  0  0
  -31.0350  -20.8142   20.4130 C   0  0  0  0  0  0  0  0  0  0  0  0
  -31.4654  -24.2454   17.9039 C   0  0  0  0  0  0  0  0  0  0  0  0
  -28.3717  -35.2751   25.1681 C   0  0  0  0  0  0  0  0  0  0  0  0
  -26.3828  -21.7298   16.4745 C   0  0  0  0  0  0  0  0  0  0  0  0
  -26.0227  -20.1335   18.3872 C   0  0  0  0  0  0  0  0  0  0  0  0
  -27.4125  -19.4671   16.4364 C   0  0  0  0  0  0  0  0  0  0  0  0
  -24.3591  -32.4739   20.7046 C   0  0  0  0  0  0  0  0  0  0  0  0
  -26.2045  -34.0865   21.2169 C   0  0  0  0  0  0  0  0  0  0  0  0
  -23.9550  -34.3990   22.2490 C   0  0  0  0  0  0  0  0  0  0  0  0
  -27.9652  -32.1715   27.3311 C   0  0  0  0  0  0  0  0  0  0  0  0
  -29.4007  -24.6471   21.1944 C   0  0  0  0  0  0  0  0  0  0  0  0
  -29.9795  -24.9772   19.8110 C   0  0  0  0  0  0  0  0  0  0  0  0
  -28.8415  -19.1325   19.2690 C   0  0  0  0  0  0  0  0  0  0  0  0
  -28.1688  -18.9184   20.6224 C   0  0  0  0  0  0  0  0  0  0  0  0
  -28.7176  -25.8514   21.8326 C   0  0  0  0  0  0  0  0  0  1  0  0
  -30.7556  -23.7969   19.1873 C   0  0  1  0  0  0  0  0  0  0  0  0
  -25.4355  -32.5130   23.0511 C   0  0  1  0  0  0  0  0  0  0  0  0
  -27.6564  -34.0482   25.7120 C   0  0  2  0  0  0  0  0  0  0  0  0
  -27.0970  -20.6773   17.3869 C   0  0  0  0  0  0  0  0  0  0  0  0
  -24.9911  -33.3406   21.8121 C   0  0  0  0  0  0  0  0  0  0  0  0
  -25.8761  -11.8147   20.7293 N   0  0  0  0  0  0  0  0  0  0  0  0
  -29.0371  -20.5310   18.9492 N   0  0  0  0  0  0  0  0  0  0  0  0
  -26.3231  -12.8596   20.0120 N   0  0  0  0  0  0  0  0  0  0  0  0
  -24.4385  -30.3446   23.7052 N   0  0  0  0  0  0  0  0  0  0  0  0
  -28.5547  -15.4041   21.7880 N   0  0  0  0  0  0  0  0  0  0  0  0
  -25.8483  -14.1839   18.1064 N   0  0  0  0  0  0  0  0  0  0  0  0
  -22.4720  -11.1849   18.1585 N   0  0  0  0  0  0  0  0  0  0  0  0
  -21.4464  -28.3680   23.0445 N   0  0  0  0  0  0  0  0  0  0  0  0
  -26.0128  -33.3114   24.1270 N   0  0  0  0  0  0  0  0  0  0  0  0
  -27.9547  -17.5187   20.9150 N   0  0  0  0  0  0  0  0  0  0  0  0
  -28.5517  -33.3815   26.6994 N   0  3  0  0  0  0  0  0  0  0  0  0
  -23.3602  -12.9692   17.0244 O   0  0  0  0  0  0  0  0  0  0  0  0
  -23.0780  -29.4119   21.7520 O   0  0  0  0  0  0  0  0  0  0  0  0
  -23.3144  -32.3488   24.1002 O   0  0  0  0  0  0  0  0  0  0  0  0
  -28.0575  -32.2191   24.1852 O   0  0  0  0  0  0  0  0  0  0  0  0
  -29.9764  -17.2284   21.9566 O   0  0  0  0  0  0  0  0  0  0  0  0
  -21.7301   -7.1258   21.9013 O   0  0  0  0  0  0  0  0  0  0  0  0
  -28.2077  -25.4969   23.1173 O   0  0  0  0  0  0  0  0  0  1  0  0
  -20.6714   -6.8424   27.3053 F   0  0  0  0  0  0  0  0  0  0  0  0
  -23.7857   -6.9621   23.7426 F   0  0  0  0  0  0  0  0  0  0  0  0
  1  2  1  0  0  0  0
  1  5  2  0  0  0  0
  2  6  2  0  0  0  0
  3  8  2  0  0  0  0
  3 16  1  0  0  0  0
  4  9  1  0  0  0  0
  4 16  2  0  0  0  0
  5 18  1  0  0  0  0
  6 20  1  0  0  0  0
  7 10  2  0  0  0  0
  7 19  1  0  0  0  0
  8 23  1  0  0  0  0
  9 23  2  0  0  0  0
 10 24  1  0  0  0  0
 11 12  2  0  0  0  0
 11 25  1  0  0  0  0
 12 26  1  0  0  0  0
 13 21  1  0  0  0  0
 13 24  2  0  0  0  0
 14 22  1  0  0  0  0
 14 29  2  0  0  0  0
 15 26  2  0  0  0  0
 15 27  1  0  0  0  0
 16 28  1  0  0  0  0
 17 28  1  0  0  0  0
 17 31  2  0  0  0  0
 17 32  1  0  0  0  0
 18 20  2  0  0  0  0
 18 37  1  0  0  0  0
 19 21  2  0  0  0  0
 19 38  1  0  0  0  0
 20 46  1  0  0  0  0
 21 39  1  0  0  0  0
 22 30  2  0  0  0  0
 22 64  1  0  0  0  0
 23 85  1  0  0  0  0
 24 86  1  0  0  0  0
 25 27  2  0  0  0  0
 25 85  1  0  0  0  0
 26 87  1  0  0  0  0
 27 88  1  0  0  0  0
 28 69  2  0  0  0  0
 29 67  1  0  0  0  0
 29 70  1  0  0  0  0
 30 49  1  0  0  0  0
 30 70  1  0  0  0  0
 31 71  1  0  0  0  0
 31 74  1  0  0  0  0
 32 75  1  0  0  0  0
 32 80  2  0  0  0  0
 33 47  1  0  0  0  0
 33 76  1  0  0  0  0
 33 81  2  0  0  0  0
 34 65  1  0  0  0  0
 34 72  1  0  0  0  0
 34 82  2  0  0  0  0
 35 66  1  0  0  0  0
 35 77  1  0  0  0  0
 35 83  2  0  0  0  0
 36 73  1  0  0  0  0
 36 78  1  0  0  0  0
 36 84  2  0  0  0  0
 37 40  1  0  0  0  0
 38 47  1  0  0  0  0
 39 72  1  0  0  0  0
 40 42  1  0  0  0  0
 41 43  1  0  0  0  0
 41 44  1  0  0  0  0
 42 46  1  0  0  0  0
 43 48  1  0  0  0  0
 44 73  1  0  0  0  0
 45 48  1  0  0  0  0
 45 73  1  0  0  0  0
 46 76  1  0  0  0  0
 47 72  1  0  0  0  0
 48 71  1  0  0  0  0
 50 64  1  0  0  0  0
 51 66  1  0  0  0  0
 52 67  1  0  0  0  0
 53 67  1  0  0  0  0
 54 67  1  0  0  0  0
 55 68  1  0  0  0  0
 56 68  1  0  0  0  0
 57 68  1  0  0  0  0
 58 79  1  0  0  0  0
 59 60  1  0  0  0  0
 59 63  1  0  0  0  0
 60 64  1  0  0  0  0
 61 62  1  0  0  0  0
 61 70  1  0  0  0  0
 62 78  1  0  0  0  0
 63 86  1  0  0  0  0
 65 68  1  0  0  0  0
 65 77  1  0  0  0  0
 66 79  1  0  0  0  0
 69 71  1  0  0  0  0
M  CHG  1  79   1
M  ISO  4  36 100  63 101  78 100  86 101
M  END
> <Batch ID>
0086

> <Smiles>
CNC(C)C(=O)NC(C(=O)N1Cc2cc([101O:1][101CH2:1]CCC(C)c3cc(C(C)(C)C)n(CC[100NH:0][100C:0](=O)N4CCCC(n5nc(-c6ccc(Oc7ccc(F)cc7F)cc6)c(C(N)=O)c5N)C4)c3C)ccc2CC1C(=O)NC1CCCc2ccccc21)C(C)(C)C

> <Shape>
0.301

> <Color>
0.112

> <Negative vol penalty>
0.000

$$$$

  -OEChem-04052318593D

 87 95  0     1  0  0  0  0  0999 V2000
  -21.6569  -33.9844   23.9895 C   0  0  0  0  0  0  0  0  0  0  0  0
  -22.7954  -33.2164   23.7671 C   0  0  0  0  0  0  0  0  0  0  0  0
  -24.1938  -12.0985   21.6839 C   0  0  0  0  0  0  0  0  0  0  0  0
  -24.2588  -12.0395   19.2695 C   0  0  0  0  0  0  0  0  0  0  0  0
  -20.4159  -33.3647   24.1298 C   0  0  0  0  0  0  0  0  0  0  0  0
  -22.6937  -31.8281   23.6859 C   0  0  0  0  0  0  0  0  0  0  0  0
  -25.3482  -29.9081   19.8243 C   0  0  0  0  0  0  0  0  0  0  0  0
  -23.2009  -11.1188   21.6812 C   0  0  0  0  0  0  0  0  0  0  0  0
  -23.2659  -11.0597   19.2668 C   0  0  0  0  0  0  0  0  0  0  0  0
  -26.7267  -29.7898   19.9957 C   0  0  0  0  0  0  0  0  0  0  0  0
  -23.0137   -7.7632   21.3099 C   0  0  0  0  0  0  0  0  0  0  0  0
  -23.1428   -6.7069   22.2116 C   0  0  0  0  0  0  0  0  0  0  0  0
  -26.4575  -27.4448   20.4934 C   0  0  0  0  0  0  0  0  0  0  0  0
  -30.4443  -23.8137   19.6885 C   0  0  0  0  0  0  0  0  0  0  0  0
  -21.0357   -7.3146   23.2254 C   0  0  0  0  0  0  0  0  0  0  0  0
  -24.7227  -12.5589   20.4781 C   0  0  0  0  0  0  0  0  0  0  0  0
  -27.1406  -13.3707   20.5225 C   0  0  0  0  0  0  0  0  0  0  0  0
  -20.2974  -31.9687   24.0407 C   0  0  0  0  0  0  0  0  0  0  0  0
  -24.5114  -28.7962   19.9971 C   0  0  0  0  0  0  0  0  0  0  0  0
  -21.4501  -31.1890   23.8265 C   0  0  0  0  0  0  0  0  0  0  0  0
  -25.0689  -27.5511   20.3211 C   0  0  0  0  0  0  0  0  0  0  0  0
  -31.0526  -24.9271   20.2409 C   0  0  0  0  0  0  0  0  0  0  0  0
  -22.7370  -10.5994   20.4726 C   0  0  0  0  0  0  0  0  0  0  0  0
  -27.2813  -28.5587   20.3332 C   0  0  0  0  0  0  0  0  0  0  0  0
  -21.8956   -8.5953   21.3660 C   0  0  0  0  0  0  0  0  0  0  0  0
  -22.1539   -6.4826   23.1693 C   0  0  0  0  0  0  0  0  0  0  0  0
  -20.9066   -8.3710   22.3237 C   0  0  0  0  0  0  0  0  0  0  0  0
  -25.7479  -13.5713   20.4803 C   0  0  0  0  0  0  0  0  0  0  0  0
  -30.1165  -22.7713   20.5320 C   0  0  0  0  0  0  0  0  0  0  0  0
  -31.2926  -24.9246   21.6003 C   0  0  0  0  0  0  0  0  0  0  0  0
  -27.6707  -14.6377   20.5049 C   0  0  0  0  0  0  0  0  0  0  0  0
  -27.8884  -12.1484   20.5729 C   0  0  0  0  0  0  0  0  0  0  0  0
  -22.1299  -28.0663   21.9718 C   0  0  0  0  0  0  0  0  0  0  0  0
  -21.8894  -25.4383   20.0855 C   0  0  0  0  0  0  0  0  0  0  0  0
  -23.4015  -23.2808   17.9163 C   0  0  0  0  0  0  0  0  0  0  0  0
  -27.5063  -19.7490   18.0220 C   0  0  0  0  0  0  0  0  0  0  0  0
  -18.9417  -31.3406   24.2459 C   0  0  0  0  0  0  0  0  0  0  0  0
  -23.0291  -28.9344   19.7823 C   0  0  0  0  0  0  0  0  0  0  0  0
  -24.2162  -26.3222   20.4980 C   0  0  0  0  0  0  0  0  0  0  0  0
  -18.8640  -29.8912   23.7733 C   0  0  0  0  0  0  0  0  0  0  0  0
  -25.4770  -19.1516   21.0595 C   0  0  0  0  0  0  0  0  0  0  0  0
  -20.0723  -29.1028   24.2684 C   0  0  0  0  0  0  0  0  0  0  0  0
  -25.4280  -17.6264   21.1327 C   0  0  0  0  0  0  0  0  0  0  0  0
  -25.6320  -19.6458   19.6245 C   0  0  0  0  0  0  0  0  0  0  0  0
  -26.7493  -17.5357   18.9818 C   0  0  0  0  0  0  0  0  0  0  0  0
  -21.3766  -29.6822   23.7075 C   0  0  1  0  0  0  0  0  0  0  0  0
  -22.2196  -27.8506   20.4875 C   0  0  1  0  0  0  0  0  0  0  0  0
  -26.6403  -17.0037   20.4187 C   0  0  2  0  0  0  0  0  0  0  0  0
  -31.9453  -26.0891   22.2653 C   0  0  0  0  0  0  0  0  0  0  0  0
  -22.9611  -21.2086   16.5712 C   0  0  0  0  0  0  0  0  0  0  0  0
  -32.9527  -26.4394   19.3506 C   0  0  0  0  0  0  0  0  0  0  0  0
  -31.0721  -25.7677   17.8819 C   0  0  0  0  0  0  0  0  0  0  0  0
  -22.0806  -23.7538   22.6224 C   0  0  0  0  0  0  0  0  0  0  0  0
  -22.5899  -21.7696   21.1830 C   0  0  0  0  0  0  0  0  0  0  0  0
  -20.4006  -22.9436   20.9563 C   0  0  0  0  0  0  0  0  0  0  0  0
  -29.5238  -19.6435   16.6084 C   0  0  0  0  0  0  0  0  0  0  0  0
  -23.9525  -24.6788   15.3666 C   0  0  0  0  0  0  0  0  0  0  0  0
  -29.4602  -21.5492   19.9872 C   0  0  0  0  0  0  0  0  0  0  0  0
  -30.4384  -20.4483   19.5301 C   0  0  0  0  0  0  0  0  0  0  0  0
  -30.6537  -27.4035   19.7469 C   0  0  0  0  0  0  0  0  0  0  0  0
  -29.7607  -19.1785   19.0195 C   0  0  0  0  0  0  0  0  0  0  0  0
  -29.2109  -27.1753   20.1953 C   0  0  0  0  0  0  0  0  0  1  0  0
  -22.4996  -24.0576   20.0929 C   0  0  1  0  0  0  0  0  0  0  0  0
  -22.9604  -22.7294   16.5725 C   0  0  2  0  0  0  0  0  0  0  0  0
  -31.4388  -26.1184   19.3456 C   0  0  0  0  0  0  0  0  0  0  0  0
  -21.9088  -23.1546   21.2123 C   0  0  0  0  0  0  0  0  0  0  0  0
  -25.4141  -14.8640   20.4392 N   0  0  0  0  0  0  0  0  0  0  0  0
  -30.3632  -22.7960   21.8589 N   0  0  0  0  0  0  0  0  0  0  0  0
  -30.9608  -23.8904   22.4019 N   0  0  0  0  0  0  0  0  0  0  0  0
  -26.6047  -15.4871   20.4555 N   0  0  0  0  0  0  0  0  0  0  0  0
  -22.7718  -26.5098   20.2836 N   0  0  0  0  0  0  0  0  0  0  0  0
  -26.7653  -19.0060   18.9556 N   0  0  0  0  0  0  0  0  0  0  0  0
  -28.9400  -15.0969   20.5271 N   0  0  0  0  0  0  0  0  0  0  0  0
  -27.1861  -10.9356   20.5844 N   0  0  0  0  0  0  0  0  0  0  0  0
  -21.5608  -29.2731   22.3315 N   0  0  0  0  0  0  0  0  0  0  0  0
  -22.3272  -23.5278   18.7446 N   0  0  0  0  0  0  0  0  0  0  0  0
  -28.8680  -19.4364   17.8917 N   0  0  0  0  0  0  0  0  0  0  0  0
  -23.8744  -23.2008   15.4939 N   0  3  0  0  0  0  0  0  0  0  0  0
  -29.1417  -12.1327   20.6234 O   0  0  0  0  0  0  0  0  0  0  0  0
  -22.5449  -27.2014   22.7342 O   0  0  0  0  0  0  0  0  0  0  0  0
  -20.6757  -25.5621   19.9034 O   0  0  0  0  0  0  0  0  0  0  0  0
  -24.5814  -23.4698   18.2039 O   0  0  0  0  0  0  0  0  0  0  0  0
  -26.9830  -20.6474   17.3505 O   0  0  0  0  0  0  0  0  0  0  0  0
  -21.7684   -9.6432   20.4696 O   0  0  0  0  0  0  0  0  0  0  0  0
  -28.6265  -28.4406   20.5018 O   0  0  0  0  0  0  0  0  0  1  0  0
  -22.2773   -5.4672   24.0342 F   0  0  0  0  0  0  0  0  0  0  0  0
  -19.8296   -9.1663   22.3817 F   0  0  0  0  0  0  0  0  0  0  0  0
  1  2  1  0  0  0  0
  1  5  2  0  0  0  0
  2  6  2  0  0  0  0
  3  8  2  0  0  0  0
  3 16  1  0  0  0  0
  4  9  1  0  0  0  0
  4 16  2  0  0  0  0
  5 18  1  0  0  0  0
  6 20  1  0  0  0  0
  7 10  2  0  0  0  0
  7 19  1  0  0  0  0
  8 23  1  0  0  0  0
  9 23  2  0  0  0  0
 10 24  1  0  0  0  0
 11 12  2  0  0  0  0
 11 25  1  0  0  0  0
 12 26  1  0  0  0  0
 13 21  1  0  0  0  0
 13 24  2  0  0  0  0
 14 22  1  0  0  0  0
 14 29  2  0  0  0  0
 15 26  2  0  0  0  0
 15 27  1  0  0  0  0
 16 28  1  0  0  0  0
 17 28  1  0  0  0  0
 17 31  2  0  0  0  0
 17 32  1  0  0  0  0
 18 20  2  0  0  0  0
 18 37  1  0  0  0  0
 19 21  2  0  0  0  0
 19 38  1  0  0  0  0
 20 46  1  0  0  0  0
 21 39  1  0  0  0  0
 22 30  2  0  0  0  0
 22 65  1  0  0  0  0
 23 84  1  0  0  0  0
 24 85  1  0  0  0  0
 25 27  2  0  0  0  0
 25 84  1  0  0  0  0
 26 86  1  0  0  0  0
 27 87  1  0  0  0  0
 28 67  2  0  0  0  0
 29 58  1  0  0  0  0
 29 68  1  0  0  0  0
 30 49  1  0  0  0  0
 30 69  1  0  0  0  0
 31 70  1  0  0  0  0
 31 73  1  0  0  0  0
 32 74  1  0  0  0  0
 32 79  2  0  0  0  0
 33 47  1  0  0  0  0
 33 75  1  0  0  0  0
 33 80  2  0  0  0  0
 34 63  1  0  0  0  0
 34 71  1  0  0  0  0
 34 81  2  0  0  0  0
 35 64  1  0  0  0  0
 35 76  1  0  0  0  0
 35 82  2  0  0  0  0
 36 72  1  0  0  0  0
 36 77  1  0  0  0  0
 36 83  2  0  0  0  0
 37 40  1  0  0  0  0
 38 47  1  0  0  0  0
 39 71  1  0  0  0  0
 40 42  1  0  0  0  0
 41 43  1  0  0  0  0
 41 44  1  0  0  0  0
 42 46  1  0  0  0  0
 43 48  1  0  0  0  0
 44 72  1  0  0  0  0
 45 48  1  0  0  0  0
 45 72  1  0  0  0  0
 46 75  1  0  0  0  0
 47 71  1  0  0  0  0
 48 70  1  0  0  0  0
 50 64  1  0  0  0  0
 51 65  1  0  0  0  0
 52 65  1  0  0  0  0
 53 66  1  0  0  0  0
 54 66  1  0  0  0  0
 55 66  1  0  0  0  0
 56 77  1  0  0  0  0
 57 78  1  0  0  0  0
 58 59  1  0  0  0  0
 59 61  1  0  0  0  0
 60 62  1  0  0  0  0
 60 65  1  0  0  0  0
 61 77  1  0  0  0  0
 62 85  1  0  0  0  0
 63 66  1  0  0  0  0
 63 76  1  0  0  0  0
 64 78  1  0  0  0  0
 67 70  1  0  0  0  0
 68 69  2  0  0  0  0
M  CHG  1  78   1
M  ISO  4  36 100  62 101  77 100  85 101
M  END
> <Batch ID>
0086

> <Smiles>
CNC(C)C(=O)NC(C(=O)N1Cc2cc([101O:1][101CH2:1]CC(C)(C)c3cc(CCC[100N:0](C)[100C:0](=O)N4CCCC(n5nc(-c6ccc(Oc7ccc(F)cc7F)cc6)c(C(N)=O)c5N)C4)nnc3C)ccc2CC1C(=O)NC1CCCc2ccccc21)C(C)(C)C

> <Shape>
0.268

> <Color>
0.053

> <Negative vol penalty>
0.000

$$$$

  -OEChem-04052318593D

 82 90  0     1  0  0  0  0  0999 V2000
  -16.7379  -29.7287   23.3097 C   0  0  0  0  0  0  0  0  0  0  0  0
  -17.8741  -30.1930   22.6547 C   0  0  0  0  0  0  0  0  0  0  0  0
  -25.8876  -13.5480   22.0408 C   0  0  0  0  0  0  0  0  0  0  0  0
  -25.2279  -14.7283   20.0386 C   0  0  0  0  0  0  0  0  0  0  0  0
  -16.8041  -28.5687   24.0803 C   0  0  0  0  0  0  0  0  0  0  0  0
  -19.0774  -29.4981   22.7709 C   0  0  0  0  0  0  0  0  0  0  0  0
  -24.9892  -27.9103   19.0499 C   0  0  0  0  0  0  0  0  0  0  0  0
  -24.7645  -12.7285   21.9278 C   0  0  0  0  0  0  0  0  0  0  0  0
  -24.1048  -13.9087   19.9255 C   0  0  0  0  0  0  0  0  0  0  0  0
  -26.3780  -27.9675   19.1584 C   0  0  0  0  0  0  0  0  0  0  0  0
  -22.2634  -10.0907   21.9647 C   0  0  0  0  0  0  0  0  0  0  0  0
  -22.4391   -8.7200   22.1538 C   0  0  0  0  0  0  0  0  0  0  0  0
  -26.3546  -25.9318   20.4525 C   0  0  0  0  0  0  0  0  0  0  0  0
  -31.0624  -24.6724   19.4793 C   0  0  0  0  0  0  0  0  0  0  0  0
  -23.9928   -8.6641   20.3044 C   0  0  0  0  0  0  0  0  0  0  0  0
  -29.9799  -25.0435   17.4059 C   0  0  0  0  0  0  0  0  0  0  0  0
  -26.1192  -14.5479   21.0962 C   0  0  0  0  0  0  0  0  0  0  0  0
  -28.5542  -15.1713   20.6603 C   0  0  0  0  0  0  0  0  0  0  0  0
  -18.0065  -27.8539   24.1982 C   0  0  0  0  0  0  0  0  0  0  0  0
  -24.2705  -26.8676   19.6521 C   0  0  0  0  0  0  0  0  0  0  0  0
  -19.1601  -28.3282   23.5450 C   0  0  0  0  0  0  0  0  0  0  0  0
  -24.9570  -25.8623   20.3480 C   0  0  0  0  0  0  0  0  0  0  0  0
  -30.5286  -25.5606   18.5622 C   0  0  0  0  0  0  0  0  0  0  0  0
  -23.8732  -12.9088   20.8701 C   0  0  0  0  0  0  0  0  0  0  0  0
  -27.0607  -26.9797   19.8622 C   0  0  0  0  0  0  0  0  0  0  0  0
  -22.9523  -10.7482   20.9454 C   0  0  0  0  0  0  0  0  0  0  0  0
  -23.3039   -8.0067   21.3237 C   0  0  0  0  0  0  0  0  0  0  0  0
  -23.8170  -10.0348   20.1153 C   0  0  0  0  0  0  0  0  0  0  0  0
  -27.2789  -15.3952   21.2127 C   0  0  0  0  0  0  0  0  0  0  0  0
  -31.0119  -23.3259   19.1795 C   0  0  0  0  0  0  0  0  0  0  0  0
  -29.2952  -16.2580   21.0557 C   0  0  0  0  0  0  0  0  0  0  0  0
  -29.0267  -14.0787   19.8611 C   0  0  0  0  0  0  0  0  0  0  0  0
  -22.0432  -26.6919   21.9130 C   0  0  0  0  0  0  0  0  0  0  0  0
  -21.9901  -23.5596   21.0715 C   0  0  0  0  0  0  0  0  0  0  0  0
  -23.6248  -20.9042   19.6847 C   0  0  0  0  0  0  0  0  0  0  0  0
  -29.8408  -21.7595   21.8184 C   0  0  0  0  0  0  0  0  0  0  0  0
  -18.0408  -26.6313   25.0808 C   0  0  0  0  0  0  0  0  0  0  0  0
  -22.7751  -26.8057   19.5032 C   0  0  0  0  0  0  0  0  0  0  0  0
  -24.2339  -24.7107   20.9956 C   0  0  0  0  0  0  0  0  0  0  0  0
  -19.2630  -25.7467   24.8489 C   0  0  0  0  0  0  0  0  0  0  0  0
  -28.2669  -19.8984   24.4138 C   0  0  0  0  0  0  0  0  0  0  0  0
  -20.5311  -26.5926   24.7916 C   0  0  0  0  0  0  0  0  0  0  0  0
  -27.9694  -18.5454   23.7650 C   0  0  0  0  0  0  0  0  0  0  0  0
  -28.0939  -21.0489   23.4246 C   0  0  0  0  0  0  0  0  0  0  0  0
  -28.5587  -19.5539   21.5212 C   0  0  0  0  0  0  0  0  0  0  0  0
  -20.4777  -27.5885   23.6266 C   0  0  1  0  0  0  0  0  0  0  0  0
  -22.0999  -25.9778   20.5922 C   0  0  1  0  0  0  0  0  0  0  0  0
  -28.7739  -18.3581   22.4646 C   0  0  2  0  0  0  0  0  0  0  0  0
  -31.3776  -27.7902   17.7622 C   0  0  0  0  0  0  0  0  0  0  0  0
  -32.7108  -21.4943   19.5266 C   0  0  0  0  0  0  0  0  0  0  0  0
  -23.3387  -18.4645   19.1711 C   0  0  0  0  0  0  0  0  0  0  0  0
  -22.4342  -22.8904   24.0152 C   0  0  0  0  0  0  0  0  0  0  0  0
  -23.0809  -20.5740   23.3191 C   0  0  0  0  0  0  0  0  0  0  0  0
  -20.7816  -21.4196   22.8488 C   0  0  0  0  0  0  0  0  0  0  0  0
  -23.9462  -21.3594   16.7781 C   0  0  0  0  0  0  0  0  0  0  0  0
  -29.1295  -27.6454   18.8964 C   0  0  0  0  0  0  0  0  0  1  0  0
  -30.5459  -27.0592   18.8199 C   0  0  1  0  0  0  0  0  0  0  0  0
  -31.5722  -22.3277   20.1336 C   0  0  2  0  0  0  0  0  0  0  0  0
  -22.7308  -22.3209   21.5144 C   0  0  1  0  0  0  0  0  0  0  0  0
  -23.1911  -19.8845   18.6471 C   0  0  2  0  0  0  0  0  0  0  0  0
  -22.2706  -21.8239   22.9139 C   0  0  0  0  0  0  0  0  0  0  0  0
  -29.9442  -23.7209   17.1385 N   0  0  0  0  0  0  0  0  0  0  0  0
  -27.2102  -16.5345   21.9064 N   0  0  0  0  0  0  0  0  0  0  0  0
  -30.4685  -22.8480   18.0401 N   0  0  0  0  0  0  0  0  0  0  0  0
  -28.4517  -17.0363   21.7925 N   0  0  0  0  0  0  0  0  0  0  0  0
  -22.7714  -24.6979   20.8273 N   0  0  0  0  0  0  0  0  0  0  0  0
  -28.8839  -20.8104   22.2143 N   0  0  0  0  0  0  0  0  0  0  0  0
  -30.5797  -16.6142   20.8416 N   0  0  0  0  0  0  0  0  0  0  0  0
  -28.1336  -13.0453   19.5471 N   0  0  0  0  0  0  0  0  0  0  0  0
  -20.7609  -26.9184   22.3755 N   0  0  0  0  0  0  0  0  0  0  0  0
  -22.5621  -21.3409   20.4470 N   0  0  0  0  0  0  0  0  0  0  0  0
  -30.5501  -21.4529   20.6636 N   0  0  0  0  0  0  0  0  0  0  0  0
  -24.0159  -20.0182   17.4131 N   0  3  0  0  0  0  0  0  0  0  0  0
  -30.2106  -14.0125   19.4517 O   0  0  0  0  0  0  0  0  0  0  0  0
  -23.0856  -27.0123   22.4719 O   0  0  0  0  0  0  0  0  0  0  0  0
  -20.7644  -23.5166   20.9400 O   0  0  0  0  0  0  0  0  0  0  0  0
  -24.7905  -21.2733   19.8092 O   0  0  0  0  0  0  0  0  0  0  0  0
  -30.0512  -22.8003   22.4504 O   0  0  0  0  0  0  0  0  0  0  0  0
  -22.7773  -12.1092   20.7594 O   0  0  0  0  0  0  0  0  0  0  0  0
  -28.4161  -27.0335   19.9702 O   0  0  0  0  0  0  0  0  0  1  0  0
  -23.4737   -6.6906   21.5064 F   0  0  0  0  0  0  0  0  0  0  0  0
  -24.4825  -10.6611   19.1351 F   0  0  0  0  0  0  0  0  0  0  0  0
  1  2  1  0  0  0  0
  1  5  2  0  0  0  0
  2  6  2  0  0  0  0
  3  8  2  0  0  0  0
  3 17  1  0  0  0  0
  4  9  1  0  0  0  0
  4 17  2  0  0  0  0
  5 19  1  0  0  0  0
  6 21  1  0  0  0  0
  7 10  2  0  0  0  0
  7 20  1  0  0  0  0
  8 24  1  0  0  0  0
  9 24  2  0  0  0  0
 10 25  1  0  0  0  0
 11 12  2  0  0  0  0
 11 26  1  0  0  0  0
 12 27  1  0  0  0  0
 13 22  1  0  0  0  0
 13 25  2  0  0  0  0
 14 23  2  0  0  0  0
 14 30  1  0  0  0  0
 15 27  2  0  0  0  0
 15 28  1  0  0  0  0
 16 23  1  0  0  0  0
 16 62  2  0  0  0  0
 17 29  1  0  0  0  0
 18 29  1  0  0  0  0
 18 31  2  0  0  0  0
 18 32  1  0  0  0  0
 19 21  2  0  0  0  0
 19 37  1  0  0  0  0
 20 22  2  0  0  0  0
 20 38  1  0  0  0  0
 21 46  1  0  0  0  0
 22 39  1  0  0  0  0
 23 57  1  0  0  0  0
 24 79  1  0  0  0  0
 25 80  1  0  0  0  0
 26 28  2  0  0  0  0
 26 79  1  0  0  0  0
 27 81  1  0  0  0  0
 28 82  1  0  0  0  0
 29 63  2  0  0  0  0
 30 58  1  0  0  0  0
 30 64  2  0  0  0  0
 31 65  1  0  0  0  0
 31 68  1  0  0  0  0
 32 69  1  0  0  0  0
 32 74  2  0  0  0  0
 33 47  1  0  0  0  0
 33 70  1  0  0  0  0
 33 75  2  0  0  0  0
 34 59  1  0  0  0  0
 34 66  1  0  0  0  0
 34 76  2  0  0  0  0
 35 60  1  0  0  0  0
 35 71  1  0  0  0  0
 35 77  2  0  0  0  0
 36 67  1  0  0  0  0
 36 72  1  0  0  0  0
 36 78  2  0  0  0  0
 37 40  1  0  0  0  0
 38 47  1  0  0  0  0
 39 66  1  0  0  0  0
 40 42  1  0  0  0  0
 41 43  1  0  0  0  0
 41 44  1  0  0  0  0
 42 46  1  0  0  0  0
 43 48  1  0  0  0  0
 44 67  1  0  0  0  0
 45 48  1  0  0  0  0
 45 67  1  0  0  0  0
 46 70  1  0  0  0  0
 47 66  1  0  0  0  0
 48 65  1  0  0  0  0
 49 57  1  0  0  0  0
 50 58  1  0  0  0  0
 51 60  1  0  0  0  0
 52 61  1  0  0  0  0
 53 61  1  0  0  0  0
 54 61  1  0  0  0  0
 55 73  1  0  0  0  0
 56 57  1  0  0  0  0
 56 80  1  0  0  0  0
 58 72  1  0  0  0  0
 59 61  1  0  0  0  0
 59 71  1  0  0  0  0
 60 73  1  0  0  0  0
 62 64  1  0  0  0  0
 63 65  1  0  0  0  0
M  CHG  1  73   1
M  ISO  4  36 100  56 101  72 100  80 101
M  END
> <Batch ID>
0086

> <Smiles>
CNC(C)C(=O)NC(C(=O)N1Cc2cc([101O:1][101CH2:1]C(C)c3cnnc(C(C)[100NH:0][100C:0](=O)N4CCCC(n5nc(-c6ccc(Oc7ccc(F)cc7F)cc6)c(C(N)=O)c5N)C4)c3)ccc2CC1C(=O)NC1CCCc2ccccc21)C(C)(C)C

> <Shape>
0.243

> <Color>
0.064

> <Negative vol penalty>
0.000

$$$$

  -OEChem-04052318593D

 87 95  0     1  0  0  0  0  0999 V2000
  -29.9440  -24.8718   17.6614 C   0  0  0  0  0  0  0  0  0  0  0  0
  -28.7710  -25.5941   17.4736 C   0  0  0  0  0  0  0  0  0  0  0  0
  -24.0175  -13.2805   21.0420 C   0  0  0  0  0  0  0  0  0  0  0  0
  -26.2768  -13.9089   20.4610 C   0  0  0  0  0  0  0  0  0  0  0  0
  -30.4830  -24.7453   18.9399 C   0  0  0  0  0  0  0  0  0  0  0  0
  -28.1431  -26.2002   18.5623 C   0  0  0  0  0  0  0  0  0  0  0  0
  -22.8836  -29.2576   18.9037 C   0  0  0  0  0  0  0  0  0  0  0  0
  -24.3681  -11.9336   20.9489 C   0  0  0  0  0  0  0  0  0  0  0  0
  -26.6275  -12.5620   20.3680 C   0  0  0  0  0  0  0  0  0  0  0  0
  -21.5448  -28.9755   19.1715 C   0  0  0  0  0  0  0  0  0  0  0  0
  -24.8524   -9.6495   18.5050 C   0  0  0  0  0  0  0  0  0  0  0  0
  -23.9806   -8.7992   17.8250 C   0  0  0  0  0  0  0  0  0  0  0  0
  -21.8708  -29.6384   21.4679 C   0  0  0  0  0  0  0  0  0  0  0  0
  -19.1713  -24.2662   21.0544 C   0  0  0  0  0  0  0  0  0  0  0  0
  -20.9205  -25.4622   22.1921 C   0  0  0  0  0  0  0  0  0  0  0  0
  -23.7048   -7.4790   19.8296 C   0  0  0  0  0  0  0  0  0  0  0  0
  -24.9718  -14.2681   20.7980 C   0  0  0  0  0  0  0  0  0  0  0  0
  -24.6764  -16.4787   22.0365 C   0  0  0  0  0  0  0  0  0  0  0  0
  -29.8540  -25.3400   20.0462 C   0  0  0  0  0  0  0  0  0  0  0  0
  -23.7302  -29.7227   19.9203 C   0  0  0  0  0  0  0  0  0  0  0  0
  -28.6846  -26.1042   19.8570 C   0  0  0  0  0  0  0  0  0  0  0  0
  -23.2193  -29.9281   21.2098 C   0  0  0  0  0  0  0  0  0  0  0  0
  -19.6001  -25.3825   21.7637 C   0  0  0  0  0  0  0  0  0  0  0  0
  -25.6731  -11.5744   20.6119 C   0  0  0  0  0  0  0  0  0  0  0  0
  -21.0389  -29.1631   20.4545 C   0  0  0  0  0  0  0  0  0  0  0  0
  -25.1505   -9.4146   19.8473 C   0  0  0  0  0  0  0  0  0  0  0  0
  -23.4068   -7.7139   18.4873 C   0  0  0  0  0  0  0  0  0  0  0  0
  -24.5767   -8.3294   20.5096 C   0  0  0  0  0  0  0  0  0  0  0  0
  -24.6101  -15.6596   20.8935 C   0  0  0  0  0  0  0  0  0  0  0  0
  -20.0947  -23.2647   20.8011 C   0  0  0  0  0  0  0  0  0  0  0  0
  -21.7655  -24.4070   21.8881 C   0  0  0  0  0  0  0  0  0  0  0  0
  -24.2264  -17.7035   21.6077 C   0  0  0  0  0  0  0  0  0  0  0  0
  -25.1064  -16.1608   23.3668 C   0  0  0  0  0  0  0  0  0  0  0  0
  -26.3727  -28.6343   21.3118 C   0  0  0  0  0  0  0  0  0  0  0  0
  -26.3168  -31.5216   22.7892 C   0  0  0  0  0  0  0  0  0  0  0  0
  -24.4885  -34.2093   23.8287 C   0  0  0  0  0  0  0  0  0  0  0  0
  -24.1513  -21.8113   17.8308 C   0  0  0  0  0  0  0  0  0  0  0  0
  -30.4849  -25.1779   21.4067 C   0  0  0  0  0  0  0  0  0  0  0  0
  -25.1653  -30.0479   19.6088 C   0  0  0  0  0  0  0  0  0  0  0  0
  -24.0816  -30.4448   22.3314 C   0  0  0  0  0  0  0  0  0  0  0  0
  -29.5190  -25.4748   22.5491 C   0  0  0  0  0  0  0  0  0  0  0  0
  -21.9663  -19.0530   17.2884 C   0  0  0  0  0  0  0  0  0  0  0  0
  -28.8187  -26.8033   22.3057 C   0  0  0  0  0  0  0  0  0  0  0  0
  -22.4686  -17.9904   18.2673 C   0  0  0  0  0  0  0  0  0  0  0  0
  -23.1166  -19.8660   16.6986 C   0  0  0  0  0  0  0  0  0  0  0  0
  -24.5204  -19.4132   18.6730 C   0  0  0  0  0  0  0  0  0  0  0  0
  -27.9676  -26.7464   21.0308 C   0  0  1  0  0  0  0  0  0  0  0  0
  -26.0637  -30.0276   20.8416 C   0  0  1  0  0  0  0  0  0  0  0  0
  -23.3923  -18.6047   19.3363 C   0  0  2  0  0  0  0  0  0  0  0  0
  -19.6705  -22.0526   20.0411 C   0  0  0  0  0  0  0  0  0  0  0  0
  -17.4948  -26.0141   22.9716 C   0  0  0  0  0  0  0  0  0  0  0  0
  -23.3490  -23.9087   23.7669 C   0  0  0  0  0  0  0  0  0  0  0  0
  -24.7135  -36.3943   25.0422 C   0  0  0  0  0  0  0  0  0  0  0  0
  -26.4922  -30.0268   25.4434 C   0  0  0  0  0  0  0  0  0  0  0  0
  -25.7645  -32.1274   26.5948 C   0  0  0  0  0  0  0  0  0  0  0  0
  -27.9032  -32.0874   25.3115 C   0  0  0  0  0  0  0  0  0  0  0  0
  -23.5755  -35.7460   21.4699 C   0  0  0  0  0  0  0  0  0  0  0  0
  -24.2228  -24.3410   19.9850 C   0  0  0  0  0  0  0  0  0  0  0  0
  -24.1770  -23.7191   21.3882 C   0  0  0  0  0  0  0  0  0  0  0  0
  -18.0554  -27.1728   20.8011 C   0  0  0  0  0  0  0  0  0  0  0  0
  -25.2432  -23.6574   19.0793 C   0  0  0  0  0  0  0  0  0  0  0  0
  -19.1164  -27.8588   19.9457 C   0  0  0  0  0  0  0  0  0  1  0  0
  -18.6302  -26.5110   22.0685 C   0  0  2  0  0  0  0  0  0  0  0  0
  -23.1887  -24.4583   22.3339 C   0  0  1  0  0  0  0  0  0  0  0  0
  -25.7063  -32.0604   24.0604 C   0  0  1  0  0  0  0  0  0  0  0  0
  -24.7233  -35.7024   23.6879 C   0  0  2  0  0  0  0  0  0  0  0  0
  -26.4505  -31.5639   25.3321 C   0  0  0  0  0  0  0  0  0  0  0  0
  -24.1537  -16.3092   19.8194 N   0  0  0  0  0  0  0  0  0  0  0  0
  -21.3854  -23.3065   21.2011 N   0  0  0  0  0  0  0  0  0  0  0  0
  -23.9291  -17.5494   20.2856 N   0  0  0  0  0  0  0  0  0  0  0  0
  -25.4796  -30.7422   21.9784 N   0  0  0  0  0  0  0  0  0  0  0  0
  -23.9534  -20.4222   17.7647 N   0  0  0  0  0  0  0  0  0  0  0  0
  -24.0598  -18.8864   22.2365 N   0  0  0  0  0  0  0  0  0  0  0  0
  -25.5379  -14.8547   23.6354 N   0  0  0  0  0  0  0  0  0  0  0  0
  -27.4908  -28.0765   20.7218 N   0  0  0  0  0  0  0  0  0  0  0  0
  -25.6748  -33.5117   23.9149 N   0  0  0  0  0  0  0  0  0  0  0  0
  -24.9524  -22.2557   18.8755 N   0  0  0  0  0  0  0  0  0  0  0  0
  -23.6629  -36.3157   22.8391 N   0  3  0  0  0  0  0  0  0  0  0  0
  -25.0924  -17.0056   24.2940 O   0  0  0  0  0  0  0  0  0  0  0  0
  -25.6510  -28.1052   22.1490 O   0  0  0  0  0  0  0  0  0  0  0  0
  -27.4911  -31.7886   22.5219 O   0  0  0  0  0  0  0  0  0  0  0  0
  -23.3651  -33.7119   23.8628 O   0  0  0  0  0  0  0  0  0  0  0  0
  -23.6467  -22.5977   17.0221 O   0  0  0  0  0  0  0  0  0  0  0  0
  -26.0156  -10.2602   20.5212 O   0  0  0  0  0  0  0  0  0  0  0  0
  -19.7326  -28.8878   20.7188 O   0  0  0  0  0  0  0  0  0  1  0  0
  -22.5684   -6.8983   17.8346 F   0  0  0  0  0  0  0  0  0  0  0  0
  -24.8583   -8.0993   21.7993 F   0  0  0  0  0  0  0  0  0  0  0  0
  1  2  1  0  0  0  0
  1  5  2  0  0  0  0
  2  6  2  0  0  0  0
  3  8  2  0  0  0  0
  3 17  1  0  0  0  0
  4  9  1  0  0  0  0
  4 17  2  0  0  0  0
  5 19  1  0  0  0  0
  6 21  1  0  0  0  0
  7 10  2  0  0  0  0
  7 20  1  0  0  0  0
  8 24  1  0  0  0  0
  9 24  2  0  0  0  0
 10 25  1  0  0  0  0
 11 12  2  0  0  0  0
 11 26  1  0  0  0  0
 12 27  1  0  0  0  0
 13 22  1  0  0  0  0
 13 25  2  0  0  0  0
 14 23  1  0  0  0  0
 14 30  2  0  0  0  0
 15 23  2  0  0  0  0
 15 31  1  0  0  0  0
 16 27  2  0  0  0  0
 16 28  1  0  0  0  0
 17 29  1  0  0  0  0
 18 29  1  0  0  0  0
 18 32  2  0  0  0  0
 18 33  1  0  0  0  0
 19 21  2  0  0  0  0
 19 38  1  0  0  0  0
 20 22  2  0  0  0  0
 20 39  1  0  0  0  0
 21 47  1  0  0  0  0
 22 40  1  0  0  0  0
 23 63  1  0  0  0  0
 24 84  1  0  0  0  0
 25 85  1  0  0  0  0
 26 28  2  0  0  0  0
 26 84  1  0  0  0  0
 27 86  1  0  0  0  0
 28 87  1  0  0  0  0
 29 68  2  0  0  0  0
 30 50  1  0  0  0  0
 30 69  1  0  0  0  0
 31 64  1  0  0  0  0
 31 69  2  0  0  0  0
 32 70  1  0  0  0  0
 32 73  1  0  0  0  0
 33 74  1  0  0  0  0
 33 79  2  0  0  0  0
 34 48  1  0  0  0  0
 34 75  1  0  0  0  0
 34 80  2  0  0  0  0
 35 65  1  0  0  0  0
 35 71  1  0  0  0  0
 35 81  2  0  0  0  0
 36 66  1  0  0  0  0
 36 76  1  0  0  0  0
 36 82  2  0  0  0  0
 37 72  1  0  0  0  0
 37 77  1  0  0  0  0
 37 83  2  0  0  0  0
 38 41  1  0  0  0  0
 39 48  1  0  0  0  0
 40 71  1  0  0  0  0
 41 43  1  0  0  0  0
 42 44  1  0  0  0  0
 42 45  1  0  0  0  0
 43 47  1  0  0  0  0
 44 49  1  0  0  0  0
 45 72  1  0  0  0  0
 46 49  1  0  0  0  0
 46 72  1  0  0  0  0
 47 75  1  0  0  0  0
 48 71  1  0  0  0  0
 49 70  1  0  0  0  0
 51 63  1  0  0  0  0
 52 64  1  0  0  0  0
 53 66  1  0  0  0  0
 54 67  1  0  0  0  0
 55 67  1  0  0  0  0
 56 67  1  0  0  0  0
 57 78  1  0  0  0  0
 58 59  1  0  0  0  0
 58 61  1  0  0  0  0
 59 64  1  0  0  0  0
 60 62  1  0  0  0  0
 60 63  1  0  0  0  0
 61 77  1  0  0  0  0
 62 85  1  0  0  0  0
 65 67  1  0  0  0  0
 65 76  1  0  0  0  0
 66 78  1  0  0  0  0
 68 70  1  0  0  0  0
M  CHG  1  78   1
M  ISO  4  37 100  62 101  77 100  85 101
M  END
> <Batch ID>
0086

> <Smiles>
CNC(C)C(=O)NC(C(=O)N1Cc2cc([101O:1][101CH2:1]CC(C)c3cc(C)nc(C(C)CCC[100NH:0][100C:0](=O)N4CCCC(n5nc(-c6ccc(Oc7ccc(F)cc7F)cc6)c(C(N)=O)c5N)C4)c3)ccc2CC1C(=O)NC1CCCc2ccccc21)C(C)(C)C

> <Shape>
0.257

> <Color>
0.073

> <Negative vol penalty>
0.000

$$$$

  -OEChem-04052318593D

 83 91  0     1  0  0  0  0  0999 V2000
  -30.3887  -24.2632   15.2526 C   0  0  0  0  0  0  0  0  0  0  0  0
  -29.0292  -24.4734   15.4599 C   0  0  0  0  0  0  0  0  0  0  0  0
  -27.7000  -14.5927   21.7237 C   0  0  0  0  0  0  0  0  0  0  0  0
  -26.6097  -15.1360   19.6373 C   0  0  0  0  0  0  0  0  0  0  0  0
  -31.2693  -24.2874   16.3332 C   0  0  0  0  0  0  0  0  0  0  0  0
  -28.5494  -24.7068   16.7482 C   0  0  0  0  0  0  0  0  0  0  0  0
  -23.9002  -28.3620   18.3392 C   0  0  0  0  0  0  0  0  0  0  0  0
  -27.1576  -13.3087   21.6729 C   0  0  0  0  0  0  0  0  0  0  0  0
  -26.0672  -13.8519   19.5865 C   0  0  0  0  0  0  0  0  0  0  0  0
  -22.5616  -28.1039   18.6310 C   0  0  0  0  0  0  0  0  0  0  0  0
  -23.4999  -12.1739   21.0091 C   0  0  0  0  0  0  0  0  0  0  0  0
  -22.1518  -12.0528   20.6721 C   0  0  0  0  0  0  0  0  0  0  0  0
  -23.0902  -28.0554   20.9842 C   0  0  0  0  0  0  0  0  0  0  0  0
  -19.8238  -22.9094   19.9737 C   0  0  0  0  0  0  0  0  0  0  0  0
  -21.7788  -24.2798   20.2636 C   0  0  0  0  0  0  0  0  0  0  0  0
  -22.7518  -10.7132   18.7531 C   0  0  0  0  0  0  0  0  0  0  0  0
  -27.4260  -15.5064   20.7059 C   0  0  0  0  0  0  0  0  0  0  0  0
  -29.2173  -17.2578   20.2248 C   0  0  0  0  0  0  0  0  0  0  0  0
  -30.8014  -24.5309   17.6341 C   0  0  0  0  0  0  0  0  0  0  0  0
  -24.8474  -28.4581   19.3688 C   0  0  0  0  0  0  0  0  0  0  0  0
  -29.4244  -24.7330   17.8474 C   0  0  0  0  0  0  0  0  0  0  0  0
  -24.4398  -28.3173   20.7030 C   0  0  0  0  0  0  0  0  0  0  0  0
  -20.4070  -24.0979   20.3985 C   0  0  0  0  0  0  0  0  0  0  0  0
  -26.3412  -12.9383   20.6043 C   0  0  0  0  0  0  0  0  0  0  0  0
  -22.1569  -27.9476   19.9535 C   0  0  0  0  0  0  0  0  0  0  0  0
  -24.4740  -11.5648   20.2180 C   0  0  0  0  0  0  0  0  0  0  0  0
  -21.7777  -11.3224   19.5442 C   0  0  0  0  0  0  0  0  0  0  0  0
  -24.0999  -10.8344   19.0900 C   0  0  0  0  0  0  0  0  0  0  0  0
  -27.9857  -16.8331   20.7581 C   0  0  0  0  0  0  0  0  0  0  0  0
  -20.6496  -21.9416   19.4249 C   0  0  0  0  0  0  0  0  0  0  0  0
  -22.5172  -23.2506   19.7021 C   0  0  0  0  0  0  0  0  0  0  0  0
  -29.2842  -18.5938   20.5367 C   0  0  0  0  0  0  0  0  0  0  0  0
  -30.2120  -16.5115   19.5112 C   0  0  0  0  0  0  0  0  0  0  0  0
  -27.4673  -26.8434   20.1644 C   0  0  0  0  0  0  0  0  0  0  0  0
  -27.7597  -29.1809   22.3944 C   0  0  0  0  0  0  0  0  0  0  0  0
  -26.2447  -31.5709   24.3022 C   0  0  0  0  0  0  0  0  0  0  0  0
  -25.1056  -22.7336   21.6559 C   0  0  0  0  0  0  0  0  0  0  0  0
  -31.7851  -24.5006   18.7769 C   0  0  0  0  0  0  0  0  0  0  0  0
  -26.2829  -28.7635   19.0391 C   0  0  0  0  0  0  0  0  0  0  0  0
  -25.4138  -28.4314   21.8461 C   0  0  0  0  0  0  0  0  0  0  0  0
  -31.2466  -25.1266   20.0609 C   0  0  0  0  0  0  0  0  0  0  0  0
  -27.7796  -21.7581   23.7947 C   0  0  0  0  0  0  0  0  0  0  0  0
  -29.8365  -24.6220   20.3501 C   0  0  0  0  0  0  0  0  0  0  0  0
  -28.2468  -20.4236   23.2109 C   0  0  0  0  0  0  0  0  0  0  0  0
  -26.2650  -21.9211   23.6887 C   0  0  0  0  0  0  0  0  0  0  0  0
  -26.1831  -20.4040   21.7482 C   0  0  0  0  0  0  0  0  0  0  0  0
  -28.8690  -25.0140   19.2268 C   0  0  1  0  0  0  0  0  0  0  0  0
  -27.2527  -28.3302   20.1341 C   0  0  1  0  0  0  0  0  0  0  0  0
  -27.7097  -20.2181   21.7817 C   0  0  2  0  0  0  0  0  0  0  0  0
  -20.0582  -20.6541   18.9566 C   0  0  0  0  0  0  0  0  0  0  0  0
  -24.4473  -23.3242   18.0800 C   0  0  0  0  0  0  0  0  0  0  0  0
  -26.7377  -33.2949   26.0578 C   0  0  0  0  0  0  0  0  0  0  0  0
  -27.9716  -26.9778   24.4947 C   0  0  0  0  0  0  0  0  0  0  0  0
  -27.5062  -28.7020   26.2493 C   0  0  0  0  0  0  0  0  0  0  0  0
  -29.5470  -28.8914   24.8274 C   0  0  0  0  0  0  0  0  0  0  0  0
  -25.3220  -33.7778   22.5594 C   0  0  0  0  0  0  0  0  0  0  0  0
  -19.5549  -25.1857   21.0022 C   0  0  0  0  0  0  0  0  0  0  0  0
  -19.0087  -26.1810   19.9763 C   0  0  0  0  0  0  0  0  0  0  0  0
  -20.0987  -26.9748   19.2655 C   0  0  0  0  0  0  0  0  0  1  0  0
  -23.9923  -23.4109   19.5438 C   0  0  2  0  0  0  0  0  0  0  0  0
  -27.2811  -29.3706   23.8135 C   0  0  1  0  0  0  0  0  0  0  0  0
  -26.6004  -33.0226   24.5679 C   0  0  2  0  0  0  0  0  0  0  0  0
  -28.0582  -28.4813   24.8248 C   0  0  0  0  0  0  0  0  0  0  0  0
  -27.3182  -17.8193   21.3631 N   0  0  0  0  0  0  0  0  0  0  0  0
  -21.9861  -22.0820   19.2777 N   0  0  0  0  0  0  0  0  0  0  0  0
  -28.1335  -18.8769   21.2119 N   0  0  0  0  0  0  0  0  0  0  0  0
  -26.8073  -28.7247   21.4721 N   0  0  0  0  0  0  0  0  0  0  0  0
  -25.8205  -21.7154   22.3081 N   0  0  0  0  0  0  0  0  0  0  0  0
  -30.2145  -19.5421   20.2966 N   0  0  0  0  0  0  0  0  0  0  0  0
  -29.9841  -15.1487   19.2763 N   0  0  0  0  0  0  0  0  0  0  0  0
  -28.4921  -26.4061   19.3472 N   0  0  0  0  0  0  0  0  0  0  0  0
  -27.3681  -30.8012   24.0859 N   0  0  0  0  0  0  0  0  0  0  0  0
  -24.7275  -22.4597   20.3472 N   0  0  0  0  0  0  0  0  0  0  0  0
  -25.5462  -33.9227   24.0209 N   0  3  0  0  0  0  0  0  0  0  0  0
  -31.2790  -17.0338   19.1084 O   0  0  0  0  0  0  0  0  0  0  0  0
  -26.7566  -26.1448   20.8776 O   0  0  0  0  0  0  0  0  0  0  0  0
  -28.9334  -29.4353   22.1129 O   0  0  0  0  0  0  0  0  0  0  0  0
  -25.0864  -31.1601   24.2914 O   0  0  0  0  0  0  0  0  0  0  0  0
  -24.8297  -23.8093   22.1978 O   0  0  0  0  0  0  0  0  0  0  0  0
  -25.8119  -11.6853   20.5543 O   0  0  0  0  0  0  0  0  0  0  0  0
  -20.8510  -27.6950   20.2411 O   0  0  0  0  0  0  0  0  0  1  0  0
  -20.4830  -11.2049   19.2216 F   0  0  0  0  0  0  0  0  0  0  0  0
  -25.0311  -10.2460   18.3268 F   0  0  0  0  0  0  0  0  0  0  0  0
  1  2  1  0  0  0  0
  1  5  2  0  0  0  0
  2  6  2  0  0  0  0
  3  8  2  0  0  0  0
  3 17  1  0  0  0  0
  4  9  1  0  0  0  0
  4 17  2  0  0  0  0
  5 19  1  0  0  0  0
  6 21  1  0  0  0  0
  7 10  2  0  0  0  0
  7 20  1  0  0  0  0
  8 24  1  0  0  0  0
  9 24  2  0  0  0  0
 10 25  1  0  0  0  0
 11 12  2  0  0  0  0
 11 26  1  0  0  0  0
 12 27  1  0  0  0  0
 13 22  1  0  0  0  0
 13 25  2  0  0  0  0
 14 23  1  0  0  0  0
 14 30  2  0  0  0  0
 15 23  2  0  0  0  0
 15 31  1  0  0  0  0
 16 27  2  0  0  0  0
 16 28  1  0  0  0  0
 17 29  1  0  0  0  0
 18 29  1  0  0  0  0
 18 32  2  0  0  0  0
 18 33  1  0  0  0  0
 19 21  2  0  0  0  0
 19 38  1  0  0  0  0
 20 22  2  0  0  0  0
 20 39  1  0  0  0  0
 21 47  1  0  0  0  0
 22 40  1  0  0  0  0
 23 57  1  0  0  0  0
 24 80  1  0  0  0  0
 25 81  1  0  0  0  0
 26 28  2  0  0  0  0
 26 80  1  0  0  0  0
 27 82  1  0  0  0  0
 28 83  1  0  0  0  0
 29 64  2  0  0  0  0
 30 50  1  0  0  0  0
 30 65  1  0  0  0  0
 31 60  1  0  0  0  0
 31 65  2  0  0  0  0
 32 66  1  0  0  0  0
 32 69  1  0  0  0  0
 33 70  1  0  0  0  0
 33 75  2  0  0  0  0
 34 48  1  0  0  0  0
 34 71  1  0  0  0  0
 34 76  2  0  0  0  0
 35 61  1  0  0  0  0
 35 67  1  0  0  0  0
 35 77  2  0  0  0  0
 36 62  1  0  0  0  0
 36 72  1  0  0  0  0
 36 78  2  0  0  0  0
 37 68  1  0  0  0  0
 37 73  1  0  0  0  0
 37 79  2  0  0  0  0
 38 41  1  0  0  0  0
 39 48  1  0  0  0  0
 40 67  1  0  0  0  0
 41 43  1  0  0  0  0
 42 44  1  0  0  0  0
 42 45  1  0  0  0  0
 43 47  1  0  0  0  0
 44 49  1  0  0  0  0
 45 68  1  0  0  0  0
 46 49  1  0  0  0  0
 46 68  1  0  0  0  0
 47 71  1  0  0  0  0
 48 67  1  0  0  0  0
 49 66  1  0  0  0  0
 51 60  1  0  0  0  0
 52 62  1  0  0  0  0
 53 63  1  0  0  0  0
 54 63  1  0  0  0  0
 55 63  1  0  0  0  0
 56 74  1  0  0  0  0
 57 58  1  0  0  0  0
 58 59  1  0  0  0  0
 59 81  1  0  0  0  0
 60 73  1  0  0  0  0
 61 63  1  0  0  0  0
 61 72  1  0  0  0  0
 62 74  1  0  0  0  0
 64 66  1  0  0  0  0
M  CHG  1  74   1
M  ISO  4  37 100  59 101  73 100  81 101
M  END
> <Batch ID>
0086

> <Smiles>
CNC(C)C(=O)NC(C(=O)N1Cc2cc([101O:1][101CH2:1]CCc3cc(C)nc(C(C)[100NH:0][100C:0](=O)N4CCCC(n5nc(-c6ccc(Oc7ccc(F)cc7F)cc6)c(C(N)=O)c5N)C4)c3)ccc2CC1C(=O)NC1CCCc2ccccc21)C(C)(C)C

> <Shape>
0.229

> <Color>
0.062

> <Negative vol penalty>
0.000

$$$$

  -OEChem-04052318593D

 83 91  0     1  0  0  0  0  0999 V2000
  -19.9034  -27.3777   22.5154 C   0  0  0  0  0  0  0  0  0  0  0  0
  -20.9091  -26.5075   22.9240 C   0  0  0  0  0  0  0  0  0  0  0  0
  -29.4170  -26.3545   18.7609 C   0  0  0  0  0  0  0  0  0  0  0  0
  -28.3899  -25.5650   20.8002 C   0  0  0  0  0  0  0  0  0  0  0  0
  -18.9050  -26.9306   21.6510 C   0  0  0  0  0  0  0  0  0  0  0  0
  -20.9163  -25.1894   22.4692 C   0  0  0  0  0  0  0  0  0  0  0  0
  -25.4334  -19.9136   20.7148 C   0  0  0  0  0  0  0  0  0  0  0  0
  -28.8049  -27.5959   18.9332 C   0  0  0  0  0  0  0  0  0  0  0  0
  -27.7779  -26.8065   20.9726 C   0  0  0  0  0  0  0  0  0  0  0  0
  -25.6822  -18.5708   20.9956 C   0  0  0  0  0  0  0  0  0  0  0  0
  -25.1003  -28.4576   19.7336 C   0  0  0  0  0  0  0  0  0  0  0  0
  -23.7528  -28.4714   20.0936 C   0  0  0  0  0  0  0  0  0  0  0  0
  -23.9510  -17.9314   19.4421 C   0  0  0  0  0  0  0  0  0  0  0  0
  -23.9513  -13.2236   21.2726 C   0  0  0  0  0  0  0  0  0  0  0  0
  -24.3064  -29.6647   22.1200 C   0  0  0  0  0  0  0  0  0  0  0  0
  -29.2094  -25.3389   19.6943 C   0  0  0  0  0  0  0  0  0  0  0  0
  -31.1021  -23.6556   19.9969 C   0  0  0  0  0  0  0  0  0  0  0  0
  -18.9054  -25.6090   21.1777 C   0  0  0  0  0  0  0  0  0  0  0  0
  -24.4324  -20.2762   19.8022 C   0  0  0  0  0  0  0  0  0  0  0  0
  -19.9162  -24.7238   21.5987 C   0  0  0  0  0  0  0  0  0  0  0  0
  -23.6932  -19.2793   19.1496 C   0  0  0  0  0  0  0  0  0  0  0  0
  -24.3213  -11.9500   21.6901 C   0  0  0  0  0  0  0  0  0  0  0  0
  -24.7739  -13.9301   20.4023 C   0  0  0  0  0  0  0  0  0  0  0  0
  -27.9854  -27.8220   20.0391 C   0  0  0  0  0  0  0  0  0  0  0  0
  -24.9391  -17.5795   20.3614 C   0  0  0  0  0  0  0  0  0  0  0  0
  -26.0509  -29.0472   20.5669 C   0  0  0  0  0  0  0  0  0  0  0  0
  -23.3558  -29.0750   21.2868 C   0  0  0  0  0  0  0  0  0  0  0  0
  -25.6539  -29.6509   21.7601 C   0  0  0  0  0  0  0  0  0  0  0  0
  -29.8409  -24.0561   19.5165 C   0  0  0  0  0  0  0  0  0  0  0  0
  -25.5142  -11.4318   21.2122 C   0  0  0  0  0  0  0  0  0  0  0  0
  -25.9466  -13.3234   19.9822 C   0  0  0  0  0  0  0  0  0  0  0  0
  -31.2383  -22.3590   19.5645 C   0  0  0  0  0  0  0  0  0  0  0  0
  -32.0645  -24.3898   20.7652 C   0  0  0  0  0  0  0  0  0  0  0  0
  -21.7307  -21.9413   19.9805 C   0  0  0  0  0  0  0  0  0  0  0  0
  -21.7169  -21.5224   16.7639 C   0  0  0  0  0  0  0  0  0  0  0  0
  -22.7428  -19.6852   14.0771 C   0  0  0  0  0  0  0  0  0  0  0  0
  -29.2065  -17.3172   18.9332 C   0  0  0  0  0  0  0  0  0  0  0  0
  -17.7787  -25.1582   20.2822 C   0  0  0  0  0  0  0  0  0  0  0  0
  -24.1945  -21.7283   19.4902 C   0  0  0  0  0  0  0  0  0  0  0  0
  -22.6212  -19.6155   18.1465 C   0  0  0  0  0  0  0  0  0  0  0  0
  -18.0688  -23.8510   19.5493 C   0  0  0  0  0  0  0  0  0  0  0  0
  -28.4787  -19.6730   16.2841 C   0  0  0  0  0  0  0  0  0  0  0  0
  -18.6426  -22.8156   20.5113 C   0  0  0  0  0  0  0  0  0  0  0  0
  -28.8767  -20.9978   16.9373 C   0  0  0  0  0  0  0  0  0  0  0  0
  -27.8274  -18.7325   17.2937 C   0  0  0  0  0  0  0  0  0  0  0  0
  -29.0533  -19.7807   19.1571 C   0  0  0  0  0  0  0  0  0  0  0  0
  -19.9722  -23.2935   21.1075 C   0  0  1  0  0  0  0  0  0  0  0  0
  -22.8020  -21.9984   18.9285 C   0  0  1  0  0  0  0  0  0  0  0  0
  -29.7378  -20.7668   18.1932 C   0  0  2  0  0  0  0  0  0  0  0  0
  -23.4444  -11.1877   22.6223 C   0  0  0  0  0  0  0  0  0  0  0  0
  -25.9636  -10.0691   21.6271 C   0  0  0  0  0  0  0  0  0  0  0  0
  -23.0691  -19.0666   11.6671 C   0  0  0  0  0  0  0  0  0  0  0  0
  -18.8976  -20.3909   17.0490 C   0  0  0  0  0  0  0  0  0  0  0  0
  -19.1227  -19.4369   14.7452 C   0  0  0  0  0  0  0  0  0  0  0  0
  -19.2200  -21.9062   15.0857 C   0  0  0  0  0  0  0  0  0  0  0  0
  -25.2523  -21.2436   13.8965 C   0  0  0  0  0  0  0  0  0  0  0  0
  -24.3806  -15.3051   19.9482 C   0  0  0  0  0  0  0  0  0  1  0  0
  -26.8676  -14.0355   19.0463 C   0  0  0  0  0  0  0  0  0  0  0  0
  -28.3119  -14.1796   19.5625 C   0  0  0  0  0  0  0  0  0  0  0  0
  -29.2651  -14.8613   18.5831 C   0  0  0  0  0  0  0  0  0  0  0  0
  -21.1691  -20.4753   15.8245 C   0  0  1  0  0  0  0  0  0  0  0  0
  -23.3531  -20.0965   12.7494 C   0  0  2  0  0  0  0  0  0  0  0  0
  -19.6212  -20.5457   15.6964 C   0  0  0  0  0  0  0  0  0  0  0  0
  -29.2202  -23.0921   18.8313 N   0  0  0  0  0  0  0  0  0  0  0  0
  -26.3393  -12.0881   20.3660 N   0  0  0  0  0  0  0  0  0  0  0  0
  -30.0951  -22.0730   18.8779 N   0  0  0  0  0  0  0  0  0  0  0  0
  -22.4217  -21.0496   17.8800 N   0  0  0  0  0  0  0  0  0  0  0  0
  -28.7061  -18.5400   18.4560 N   0  0  0  0  0  0  0  0  0  0  0  0
  -32.2233  -21.4471   19.7084 N   0  0  0  0  0  0  0  0  0  0  0  0
  -31.7649  -25.7109   21.1249 N   0  0  0  0  0  0  0  0  0  0  0  0
  -21.0441  -23.1286   20.1492 N   0  0  0  0  0  0  0  0  0  0  0  0
  -21.8814  -20.6461   14.5628 N   0  0  0  0  0  0  0  0  0  0  0  0
  -28.8251  -16.1892   18.2170 N   0  0  0  0  0  0  0  0  0  0  0  0
  -24.8302  -20.2441   12.8818 N   0  3  0  0  0  0  0  0  0  0  0  0
  -33.1648  -23.8946   21.1083 O   0  0  0  0  0  0  0  0  0  0  0  0
  -21.5401  -20.8971   20.5928 O   0  0  0  0  0  0  0  0  0  0  0  0
  -21.5327  -22.7160   16.5128 O   0  0  0  0  0  0  0  0  0  0  0  0
  -23.0013  -18.6165   14.6265 O   0  0  0  0  0  0  0  0  0  0  0  0
  -29.9437  -17.2368   19.9217 O   0  0  0  0  0  0  0  0  0  0  0  0
  -27.3882  -29.0334   20.2078 O   0  0  0  0  0  0  0  0  0  0  0  0
  -25.1795  -16.2682   20.6341 O   0  0  0  0  0  0  0  0  0  1  0  0
  -22.0615  -29.0896   21.6315 F   0  0  0  0  0  0  0  0  0  0  0  0
  -26.5624  -30.2200   22.5641 F   0  0  0  0  0  0  0  0  0  0  0  0
  1  2  1  0  0  0  0
  1  5  2  0  0  0  0
  2  6  2  0  0  0  0
  3  8  2  0  0  0  0
  3 16  1  0  0  0  0
  4  9  1  0  0  0  0
  4 16  2  0  0  0  0
  5 18  1  0  0  0  0
  6 20  1  0  0  0  0
  7 10  2  0  0  0  0
  7 19  1  0  0  0  0
  8 24  1  0  0  0  0
  9 24  2  0  0  0  0
 10 25  1  0  0  0  0
 11 12  2  0  0  0  0
 11 26  1  0  0  0  0
 12 27  1  0  0  0  0
 13 21  1  0  0  0  0
 13 25  2  0  0  0  0
 14 22  2  0  0  0  0
 14 23  1  0  0  0  0
 15 27  2  0  0  0  0
 15 28  1  0  0  0  0
 16 29  1  0  0  0  0
 17 29  1  0  0  0  0
 17 32  2  0  0  0  0
 17 33  1  0  0  0  0
 18 20  2  0  0  0  0
 18 38  1  0  0  0  0
 19 21  2  0  0  0  0
 19 39  1  0  0  0  0
 20 47  1  0  0  0  0
 21 40  1  0  0  0  0
 22 30  1  0  0  0  0
 22 50  1  0  0  0  0
 23 31  2  0  0  0  0
 23 57  1  0  0  0  0
 24 80  1  0  0  0  0
 25 81  1  0  0  0  0
 26 28  2  0  0  0  0
 26 80  1  0  0  0  0
 27 82  1  0  0  0  0
 28 83  1  0  0  0  0
 29 64  2  0  0  0  0
 30 51  1  0  0  0  0
 30 65  2  0  0  0  0
 31 58  1  0  0  0  0
 31 65  1  0  0  0  0
 32 66  1  0  0  0  0
 32 69  1  0  0  0  0
 33 70  1  0  0  0  0
 33 75  2  0  0  0  0
 34 48  1  0  0  0  0
 34 71  1  0  0  0  0
 34 76  2  0  0  0  0
 35 61  1  0  0  0  0
 35 67  1  0  0  0  0
 35 77  2  0  0  0  0
 36 62  1  0  0  0  0
 36 72  1  0  0  0  0
 36 78  2  0  0  0  0
 37 68  1  0  0  0  0
 37 73  1  0  0  0  0
 37 79  2  0  0  0  0
 38 41  1  0  0  0  0
 39 48  1  0  0  0  0
 40 67  1  0  0  0  0
 41 43  1  0  0  0  0
 42 44  1  0  0  0  0
 42 45  1  0  0  0  0
 43 47  1  0  0  0  0
 44 49  1  0  0  0  0
 45 68  1  0  0  0  0
 46 49  1  0  0  0  0
 46 68  1  0  0  0  0
 47 71  1  0  0  0  0
 48 67  1  0  0  0  0
 49 66  1  0  0  0  0
 52 62  1  0  0  0  0
 53 63  1  0  0  0  0
 54 63  1  0  0  0  0
 55 63  1  0  0  0  0
 56 74  1  0  0  0  0
 57 81  1  0  0  0  0
 58 59  1  0  0  0  0
 59 60  1  0  0  0  0
 60 73  1  0  0  0  0
 61 63  1  0  0  0  0
 61 72  1  0  0  0  0
 62 74  1  0  0  0  0
 64 66  1  0  0  0  0
M  CHG  1  74   1
M  ISO  4  37 100  57 101  73 100  81 101
M  END
> <Batch ID>
0086

> <Smiles>
CNC(C)C(=O)NC(C(=O)N1Cc2cc([101O:1][101CH2:1]c3cc(C)c(C)nc3CCC[100NH:0][100C:0](=O)N3CCCC(n4nc(-c5ccc(Oc6ccc(F)cc6F)cc5)c(C(N)=O)c4N)C3)ccc2CC1C(=O)NC1CCCc2ccccc21)C(C)(C)C

> <Shape>
0.211

> <Color>
0.078

> <Negative vol penalty>
0.000

$$$$

  -OEChem-04052318593D

 85 93  0     1  0  0  0  0  0999 V2000
  -18.2296  -34.0327   22.5354 C   0  0  0  0  0  0  0  0  0  0  0  0
  -19.5849  -33.9852   22.2252 C   0  0  0  0  0  0  0  0  0  0  0  0
  -27.1716  -12.9874   21.0909 C   0  0  0  0  0  0  0  0  0  0  0  0
  -27.0120  -13.4151   18.7184 C   0  0  0  0  0  0  0  0  0  0  0  0
  -17.6372  -32.9787   23.2297 C   0  0  0  0  0  0  0  0  0  0  0  0
  -20.3489  -32.8839   22.6100 C   0  0  0  0  0  0  0  0  0  0  0  0
  -25.9296  -28.9372   20.4663 C   0  0  0  0  0  0  0  0  0  0  0  0
  -26.4208  -11.8228   20.9315 C   0  0  0  0  0  0  0  0  0  0  0  0
  -26.2612  -12.2504   18.5590 C   0  0  0  0  0  0  0  0  0  0  0  0
  -27.1513  -28.4554   20.9345 C   0  0  0  0  0  0  0  0  0  0  0  0
  -24.2402   -8.9253   21.2026 C   0  0  0  0  0  0  0  0  0  0  0  0
  -23.2155   -8.6822   22.1171 C   0  0  0  0  0  0  0  0  0  0  0  0
  -26.0036  -26.6570   22.0604 C   0  0  0  0  0  0  0  0  0  0  0  0
  -22.1412  -10.7445   21.4616 C   0  0  0  0  0  0  0  0  0  0  0  0
  -27.4671  -13.7837   19.9844 C   0  0  0  0  0  0  0  0  0  0  0  0
  -29.6425  -15.1130   20.0768 C   0  0  0  0  0  0  0  0  0  0  0  0
  -18.3922  -31.8596   23.6148 C   0  0  0  0  0  0  0  0  0  0  0  0
  -24.7328  -28.2877   20.8012 C   0  0  0  0  0  0  0  0  0  0  0  0
  -19.7663  -31.8146   23.3112 C   0  0  0  0  0  0  0  0  0  0  0  0
  -24.7683  -27.1311   21.5931 C   0  0  0  0  0  0  0  0  0  0  0  0
  -25.9656  -11.4542   19.6655 C   0  0  0  0  0  0  0  0  0  0  0  0
  -27.1881  -27.3168   21.7341 C   0  0  0  0  0  0  0  0  0  0  0  0
  -24.2155  -10.0781   20.4176 C   0  0  0  0  0  0  0  0  0  0  0  0
  -22.1660   -9.5918   22.2466 C   0  0  0  0  0  0  0  0  0  0  0  0
  -23.1660  -10.9877   20.5471 C   0  0  0  0  0  0  0  0  0  0  0  0
  -28.2422  -14.9872   20.1485 C   0  0  0  0  0  0  0  0  0  0  0  0
  -29.9802  -23.2568   19.4480 C   0  0  0  0  0  0  0  0  0  0  0  0
  -28.2086  -24.6256   17.9937 C   0  0  0  0  0  0  0  0  0  0  0  0
  -29.7353  -24.5896   19.6958 C   0  0  0  0  0  0  0  0  0  0  0  0
  -28.4540  -23.2931   17.7453 C   0  0  0  0  0  0  0  0  0  0  0  0
  -29.8793  -16.4473   20.3006 C   0  0  0  0  0  0  0  0  0  0  0  0
  -30.6400  -14.1131   19.8300 C   0  0  0  0  0  0  0  0  0  0  0  0
  -22.1060  -29.1061   22.3930 C   0  0  0  0  0  0  0  0  0  0  0  0
  -21.0635  -26.2027   21.3901 C   0  0  0  0  0  0  0  0  0  0  0  0
  -21.8403  -23.0543   20.3264 C   0  0  0  0  0  0  0  0  0  0  0  0
  -26.5520  -21.3647   19.5267 C   0  0  0  0  0  0  0  0  0  0  0  0
  -17.7181  -30.7661   24.4051 C   0  0  0  0  0  0  0  0  0  0  0  0
  -23.4256  -28.8047   20.2661 C   0  0  0  0  0  0  0  0  0  0  0  0
  -23.5135  -26.3855   21.9644 C   0  0  0  0  0  0  0  0  0  0  0  0
  -18.5160  -29.4655   24.4484 C   0  0  0  0  0  0  0  0  0  0  0  0
  -28.0490  -20.2480   22.5579 C   0  0  0  0  0  0  0  0  0  0  0  0
  -19.9801  -29.7478   24.7702 C   0  0  0  0  0  0  0  0  0  0  0  0
  -28.3946  -18.7844   22.2777 C   0  0  0  0  0  0  0  0  0  0  0  0
  -26.7360  -20.6551   21.8929 C   0  0  0  0  0  0  0  0  0  0  0  0
  -27.0102  -18.9195   20.1649 C   0  0  0  0  0  0  0  0  0  0  0  0
  -20.6230  -30.6259   23.6898 C   0  0  1  0  0  0  0  0  0  0  0  0
  -22.2235  -28.3605   21.0938 C   0  0  1  0  0  0  0  0  0  0  0  0
  -28.3544  -18.4779   20.7685 C   0  0  2  0  0  0  0  0  0  0  0  0
  -30.9670  -22.4846   20.2550 C   0  0  0  0  0  0  0  0  0  0  0  0
  -27.2217  -25.3981   17.1871 C   0  0  0  0  0  0  0  0  0  0  0  0
  -28.6338  -21.4764   16.0158 C   0  0  0  0  0  0  0  0  0  0  0  0
  -21.4657  -20.7421   19.4261 C   0  0  0  0  0  0  0  0  0  0  0  0
  -20.4289  -25.5628   24.3052 C   0  0  0  0  0  0  0  0  0  0  0  0
  -20.2836  -23.1454   23.6703 C   0  0  0  0  0  0  0  0  0  0  0  0
  -18.7017  -24.7935   22.6684 C   0  0  0  0  0  0  0  0  0  0  0  0
  -22.0387  -23.9875   17.5248 C   0  0  0  0  0  0  0  0  0  0  0  0
  -30.4544  -25.3299   20.7951 C   0  0  0  0  0  0  0  0  0  0  0  0
  -29.9289  -25.0132   22.1969 C   0  0  0  0  0  0  0  0  0  0  0  0
  -26.4088  -21.9235   17.1129 C   0  0  0  0  0  0  0  0  0  0  0  0
  -28.4804  -25.4378   22.4089 C   0  0  0  0  0  0  0  0  0  1  0  0
  -27.7441  -22.5618   16.6577 C   0  0  1  0  0  0  0  0  0  0  0  0
  -21.1224  -24.7975   21.9389 C   0  0  1  0  0  0  0  0  0  0  0  0
  -21.3319  -22.2326   19.1556 C   0  0  2  0  0  0  0  0  0  0  0  0
  -20.1578  -24.5898   23.1405 C   0  0  0  0  0  0  0  0  0  0  0  0
  -27.6322  -16.1489   20.3985 N   0  0  0  0  0  0  0  0  0  0  0  0
  -28.8449  -25.2978   18.9734 N   0  0  0  0  0  0  0  0  0  0  0  0
  -29.3442  -22.5848   18.4680 N   0  0  0  0  0  0  0  0  0  0  0  0
  -28.6541  -17.0173   20.4858 N   0  0  0  0  0  0  0  0  0  0  0  0
  -22.2594  -26.9338   21.4220 N   0  0  0  0  0  0  0  0  0  0  0  0
  -26.7636  -20.3391   20.4628 N   0  0  0  0  0  0  0  0  0  0  0  0
  -31.0138  -17.1768   20.3550 N   0  0  0  0  0  0  0  0  0  0  0  0
  -30.2236  -12.7914   19.6205 N   0  0  0  0  0  0  0  0  0  0  0  0
  -20.9396  -29.8363   22.5191 N   0  0  0  0  0  0  0  0  0  0  0  0
  -20.8714  -23.9077   20.8104 N   0  0  0  0  0  0  0  0  0  0  0  0
  -26.6009  -20.9807   18.1922 N   0  0  0  0  0  0  0  0  0  0  0  0
  -22.1020  -22.5573   17.9217 N   0  3  0  0  0  0  0  0  0  0  0  0
  -31.8653  -14.3808   19.8124 O   0  0  0  0  0  0  0  0  0  0  0  0
  -23.0061  -29.0238   23.2205 O   0  0  0  0  0  0  0  0  0  0  0  0
  -19.9975  -26.6331   20.9428 O   0  0  0  0  0  0  0  0  0  0  0  0
  -22.9815  -22.9471   20.7698 O   0  0  0  0  0  0  0  0  0  0  0  0
  -26.3407  -22.5369   19.8557 O   0  0  0  0  0  0  0  0  0  0  0  0
  -25.2332  -10.3177   19.5096 O   0  0  0  0  0  0  0  0  0  0  0  0
  -28.3791  -26.8448   22.1929 O   0  0  0  0  0  0  0  0  0  1  0  0
  -21.1812   -9.3574   23.1238 F   0  0  0  0  0  0  0  0  0  0  0  0
  -23.1361  -12.0963   19.7949 F   0  0  0  0  0  0  0  0  0  0  0  0
  1  2  1  0  0  0  0
  1  5  2  0  0  0  0
  2  6  2  0  0  0  0
  3  8  2  0  0  0  0
  3 15  1  0  0  0  0
  4  9  1  0  0  0  0
  4 15  2  0  0  0  0
  5 17  1  0  0  0  0
  6 19  1  0  0  0  0
  7 10  2  0  0  0  0
  7 18  1  0  0  0  0
  8 21  1  0  0  0  0
  9 21  2  0  0  0  0
 10 22  1  0  0  0  0
 11 12  2  0  0  0  0
 11 23  1  0  0  0  0
 12 24  1  0  0  0  0
 13 20  1  0  0  0  0
 13 22  2  0  0  0  0
 14 24  2  0  0  0  0
 14 25  1  0  0  0  0
 15 26  1  0  0  0  0
 16 26  1  0  0  0  0
 16 31  2  0  0  0  0
 16 32  1  0  0  0  0
 17 19  2  0  0  0  0
 17 37  1  0  0  0  0
 18 20  2  0  0  0  0
 18 38  1  0  0  0  0
 19 46  1  0  0  0  0
 20 39  1  0  0  0  0
 21 82  1  0  0  0  0
 22 83  1  0  0  0  0
 23 25  2  0  0  0  0
 23 82  1  0  0  0  0
 24 84  1  0  0  0  0
 25 85  1  0  0  0  0
 26 65  2  0  0  0  0
 27 29  2  0  0  0  0
 27 49  1  0  0  0  0
 27 67  1  0  0  0  0
 28 30  1  0  0  0  0
 28 50  1  0  0  0  0
 28 66  2  0  0  0  0
 29 57  1  0  0  0  0
 29 66  1  0  0  0  0
 30 61  1  0  0  0  0
 30 67  2  0  0  0  0
 31 68  1  0  0  0  0
 31 71  1  0  0  0  0
 32 72  1  0  0  0  0
 32 77  2  0  0  0  0
 33 47  1  0  0  0  0
 33 73  1  0  0  0  0
 33 78  2  0  0  0  0
 34 62  1  0  0  0  0
 34 69  1  0  0  0  0
 34 79  2  0  0  0  0
 35 63  1  0  0  0  0
 35 74  1  0  0  0  0
 35 80  2  0  0  0  0
 36 70  1  0  0  0  0
 36 75  1  0  0  0  0
 36 81  2  0  0  0  0
 37 40  1  0  0  0  0
 38 47  1  0  0  0  0
 39 69  1  0  0  0  0
 40 42  1  0  0  0  0
 41 43  1  0  0  0  0
 41 44  1  0  0  0  0
 42 46  1  0  0  0  0
 43 48  1  0  0  0  0
 44 70  1  0  0  0  0
 45 48  1  0  0  0  0
 45 70  1  0  0  0  0
 46 73  1  0  0  0  0
 47 69  1  0  0  0  0
 48 68  1  0  0  0  0
 51 61  1  0  0  0  0
 52 63  1  0  0  0  0
 53 64  1  0  0  0  0
 54 64  1  0  0  0  0
 55 64  1  0  0  0  0
 56 76  1  0  0  0  0
 57 58  1  0  0  0  0
 58 60  1  0  0  0  0
 59 61  1  0  0  0  0
 59 75  1  0  0  0  0
 60 83  1  0  0  0  0
 62 64  1  0  0  0  0
 62 74  1  0  0  0  0
 63 76  1  0  0  0  0
 65 68  1  0  0  0  0
M  CHG  1  76   1
M  ISO  4  36 100  60 101  75 100  83 101
M  END
> <Batch ID>
0086

> <Smiles>
CNC(C)C(=O)NC(C(=O)N1Cc2cc([101O:1][101CH2:1]CCc3nc(C)c(C(C)C[100NH:0][100C:0](=O)N4CCCC(n5nc(-c6ccc(Oc7ccc(F)cc7F)cc6)c(C(N)=O)c5N)C4)nc3C)ccc2CC1C(=O)NC1CCCc2ccccc21)C(C)(C)C

> <Shape>
0.243

> <Color>
0.084

> <Negative vol penalty>
0.000

$$$$

  -OEChem-04052318593D

 86 94  0     1  0  0  0  0  0999 V2000
  -21.7646  -11.5314   18.9929 C   0  0  0  0  0  0  0  0  0  0  0  0
  -21.7346  -12.9113   18.8179 C   0  0  0  0  0  0  0  0  0  0  0  0
  -21.9806  -27.6905   26.1576 C   0  0  0  0  0  0  0  0  0  0  0  0
  -23.7722  -26.2170   25.4823 C   0  0  0  0  0  0  0  0  0  0  0  0
  -22.7643  -10.9502   19.7717 C   0  0  0  0  0  0  0  0  0  0  0  0
  -22.7038  -13.7108   19.4228 C   0  0  0  0  0  0  0  0  0  0  0  0
  -26.3987  -19.7584   18.3784 C   0  0  0  0  0  0  0  0  0  0  0  0
  -21.4180  -26.6608   26.9118 C   0  0  0  0  0  0  0  0  0  0  0  0
  -23.2096  -25.1873   26.2366 C   0  0  0  0  0  0  0  0  0  0  0  0
  -26.7054  -20.9576   19.0199 C   0  0  0  0  0  0  0  0  0  0  0  0
  -20.6715  -22.9748   25.9302 C   0  0  0  0  0  0  0  0  0  0  0  0
  -20.5879  -21.7124   25.3430 C   0  0  0  0  0  0  0  0  0  0  0  0
  -28.4309  -19.8361   20.2785 C   0  0  0  0  0  0  0  0  0  0  0  0
  -28.7459  -25.4116   20.5479 C   0  0  0  0  0  0  0  0  0  0  0  0
  -21.9664  -20.8013   27.1056 C   0  0  0  0  0  0  0  0  0  0  0  0
  -23.1577  -27.4685   25.4428 C   0  0  0  0  0  0  0  0  0  0  0  0
  -24.6837  -29.4827   25.0932 C   0  0  0  0  0  0  0  0  0  0  0  0
  -23.7519  -11.7422   20.3785 C   0  0  0  0  0  0  0  0  0  0  0  0
  -27.0997  -18.5847   18.6906 C   0  0  0  0  0  0  0  0  0  0  0  0
  -23.7169  -13.1398   20.2116 C   0  0  0  0  0  0  0  0  0  0  0  0
  -28.1329  -18.6238   19.6377 C   0  0  0  0  0  0  0  0  0  0  0  0
  -29.6868  -24.5162   21.0253 C   0  0  0  0  0  0  0  0  0  0  0  0
  -22.0325  -25.4092   26.9513 C   0  0  0  0  0  0  0  0  0  0  0  0
  -27.7196  -20.9960   19.9722 C   0  0  0  0  0  0  0  0  0  0  0  0
  -21.4025  -23.1505   27.1052 C   0  0  0  0  0  0  0  0  0  0  0  0
  -21.2354  -20.6256   25.9306 C   0  0  0  0  0  0  0  0  0  0  0  0
  -22.0500  -22.0637   27.6928 C   0  0  0  0  0  0  0  0  0  0  0  0
  -23.7391  -28.5316   24.6631 C   0  0  0  0  0  0  0  0  0  0  0  0
  -29.1339  -26.2884   19.5549 C   0  0  0  0  0  0  0  0  0  0  0  0
  -30.9533  -24.5567   20.4777 C   0  0  0  0  0  0  0  0  0  0  0  0
  -24.9113  -30.2649   23.9873 C   0  0  0  0  0  0  0  0  0  0  0  0
  -25.3003  -29.6446   26.3774 C   0  0  0  0  0  0  0  0  0  0  0  0
  -26.3089  -15.7549   19.9033 C   0  0  0  0  0  0  0  0  0  0  0  0
  -29.3999  -15.0383   19.2291 C   0  0  0  0  0  0  0  0  0  0  0  0
  -32.5820  -16.1506   18.6962 C   0  0  0  0  0  0  0  0  0  0  0  0
  -24.3715  -29.2695   18.1078 C   0  0  0  0  0  0  0  0  0  0  0  0
  -24.7849  -11.0729   21.2501 C   0  0  0  0  0  0  0  0  0  0  0  0
  -26.7748  -17.3048   17.9703 C   0  0  0  0  0  0  0  0  0  0  0  0
  -28.9291  -17.3960   19.9940 C   0  0  0  0  0  0  0  0  0  0  0  0
  -25.9935  -11.9560   21.5496 C   0  0  0  0  0  0  0  0  0  0  0  0
  -22.7747  -31.8269   20.0016 C   0  0  0  0  0  0  0  0  0  0  0  0
  -25.5441  -13.3544   21.9611 C   0  0  0  0  0  0  0  0  0  0  0  0
  -22.9260  -31.3582   21.4498 C   0  0  0  0  0  0  0  0  0  0  0  0
  -22.5466  -30.6547   19.0499 C   0  0  0  0  0  0  0  0  0  0  0  0
  -23.7067  -29.1134   20.5837 C   0  0  0  0  0  0  0  0  0  0  0  0
  -24.7651  -14.0383   20.8311 C   0  0  1  0  0  0  0  0  0  0  0  0
  -27.2079  -16.0602   18.7387 C   0  0  1  0  0  0  0  0  0  0  0  0
  -23.9944  -30.2553   21.5735 C   0  0  2  0  0  0  0  0  0  0  0  0
  -32.0193  -23.6229   20.9427 C   0  0  0  0  0  0  0  0  0  0  0  0
  -28.8296  -28.6416   18.7013 C   0  0  0  0  0  0  0  0  0  0  0  0
  -34.9008  -15.3259   18.2056 C   0  0  0  0  0  0  0  0  0  0  0  0
  -29.6984  -14.1563   22.1348 C   0  0  0  0  0  0  0  0  0  0  0  0
  -32.1823  -14.2559   21.8370 C   0  0  0  0  0  0  0  0  0  0  0  0
  -30.8269  -12.6680   20.4716 C   0  0  0  0  0  0  0  0  0  0  0  0
  -28.0943  -26.3618   16.5671 C   0  0  0  0  0  0  0  0  0  0  0  0
  -26.4576  -25.5024   18.2412 C   0  0  0  0  0  0  0  0  0  0  0  0
  -32.6892  -17.6254   16.1326 C   0  0  0  0  0  0  0  0  0  0  0  0
  -29.3145  -23.5354   22.1104 C   0  0  0  0  0  0  0  0  0  0  0  0
  -26.2295  -27.8277   17.3152 C   0  0  0  0  0  0  0  0  0  0  0  0
  -29.0714  -22.1322   21.5653 C   0  0  0  0  0  0  0  0  0  1  0  0
  -28.1589  -27.2732   19.0067 C   0  0  1  0  0  0  0  0  0  0  0  0
  -30.7088  -15.1440   19.9738 C   0  0  1  0  0  0  0  0  0  0  0  0
  -33.5937  -15.8273   17.6116 C   0  0  2  0  0  0  0  0  0  0  0  0
  -30.8380  -14.0789   21.0992 C   0  0  0  0  0  0  0  0  0  0  0  0
  -27.2497  -26.7568   17.7988 C   0  0  0  0  0  0  0  0  0  0  0  0
  -23.3904  -28.6931   23.3839 N   0  0  0  0  0  0  0  0  0  0  0  0
  -30.3806  -26.3058   19.0375 N   0  0  0  0  0  0  0  0  0  0  0  0
  -31.3052  -25.4254   19.5065 N   0  0  0  0  0  0  0  0  0  0  0  0
  -24.1198  -29.7549   23.0007 N   0  0  0  0  0  0  0  0  0  0  0  0
  -28.5695  -16.1673   19.2669 N   0  0  0  0  0  0  0  0  0  0  0  0
  -23.5948  -29.6450   19.2163 N   0  0  0  0  0  0  0  0  0  0  0  0
  -25.7092  -31.3324   23.7725 N   0  0  0  0  0  0  0  0  0  0  0  0
  -24.9530  -28.7539   27.4023 N   0  0  0  0  0  0  0  0  0  0  0  0
  -25.6731  -14.5311   19.8176 N   0  0  0  0  0  0  0  0  0  0  0  0
  -31.7596  -15.0767   18.9640 N   0  0  0  0  0  0  0  0  0  0  0  0
  -25.3471  -28.3112   18.3537 N   0  0  0  0  0  0  0  0  0  0  0  0
  -33.8831  -17.0400   16.7951 N   0  3  0  0  0  0  0  0  0  0  0  0
  -26.1221  -30.5623   26.6138 O   0  0  0  0  0  0  0  0  0  0  0  0
  -26.2014  -16.5688   20.8131 O   0  0  0  0  0  0  0  0  0  0  0  0
  -29.1277  -13.9951   18.6297 O   0  0  0  0  0  0  0  0  0  0  0  0
  -32.5292  -17.2449   19.2531 O   0  0  0  0  0  0  0  0  0  0  0  0
  -24.2111  -29.7564   16.9835 O   0  0  0  0  0  0  0  0  0  0  0  0
  -21.4839  -24.4043   27.6874 O   0  0  0  0  0  0  0  0  0  0  0  0
  -28.0206  -22.1651   20.6004 O   0  0  0  0  0  0  0  0  0  1  0  0
  -21.1538  -19.4131   25.3674 F   0  0  0  0  0  0  0  0  0  0  0  0
  -22.7528  -22.2261   28.8222 F   0  0  0  0  0  0  0  0  0  0  0  0
  1  2  1  0  0  0  0
  1  5  2  0  0  0  0
  2  6  2  0  0  0  0
  3  8  2  0  0  0  0
  3 16  1  0  0  0  0
  4  9  1  0  0  0  0
  4 16  2  0  0  0  0
  5 18  1  0  0  0  0
  6 20  1  0  0  0  0
  7 10  2  0  0  0  0
  7 19  1  0  0  0  0
  8 23  1  0  0  0  0
  9 23  2  0  0  0  0
 10 24  1  0  0  0  0
 11 12  2  0  0  0  0
 11 25  1  0  0  0  0
 12 26  1  0  0  0  0
 13 21  1  0  0  0  0
 13 24  2  0  0  0  0
 14 22  1  0  0  0  0
 14 29  2  0  0  0  0
 15 26  2  0  0  0  0
 15 27  1  0  0  0  0
 16 28  1  0  0  0  0
 17 28  1  0  0  0  0
 17 31  2  0  0  0  0
 17 32  1  0  0  0  0
 18 20  2  0  0  0  0
 18 37  1  0  0  0  0
 19 21  2  0  0  0  0
 19 38  1  0  0  0  0
 20 46  1  0  0  0  0
 21 39  1  0  0  0  0
 22 30  2  0  0  0  0
 22 58  1  0  0  0  0
 23 83  1  0  0  0  0
 24 84  1  0  0  0  0
 25 27  2  0  0  0  0
 25 83  1  0  0  0  0
 26 85  1  0  0  0  0
 27 86  1  0  0  0  0
 28 66  2  0  0  0  0
 29 61  1  0  0  0  0
 29 67  1  0  0  0  0
 30 49  1  0  0  0  0
 30 68  1  0  0  0  0
 31 69  1  0  0  0  0
 31 72  1  0  0  0  0
 32 73  1  0  0  0  0
 32 78  2  0  0  0  0
 33 47  1  0  0  0  0
 33 74  1  0  0  0  0
 33 79  2  0  0  0  0
 34 62  1  0  0  0  0
 34 70  1  0  0  0  0
 34 80  2  0  0  0  0
 35 63  1  0  0  0  0
 35 75  1  0  0  0  0
 35 81  2  0  0  0  0
 36 71  1  0  0  0  0
 36 76  1  0  0  0  0
 36 82  2  0  0  0  0
 37 40  1  0  0  0  0
 38 47  1  0  0  0  0
 39 70  1  0  0  0  0
 40 42  1  0  0  0  0
 41 43  1  0  0  0  0
 41 44  1  0  0  0  0
 42 46  1  0  0  0  0
 43 48  1  0  0  0  0
 44 71  1  0  0  0  0
 45 48  1  0  0  0  0
 45 71  1  0  0  0  0
 46 74  1  0  0  0  0
 47 70  1  0  0  0  0
 48 69  1  0  0  0  0
 50 61  1  0  0  0  0
 51 63  1  0  0  0  0
 52 64  1  0  0  0  0
 53 64  1  0  0  0  0
 54 64  1  0  0  0  0
 55 65  1  0  0  0  0
 56 65  1  0  0  0  0
 57 77  1  0  0  0  0
 58 60  1  0  0  0  0
 59 65  1  0  0  0  0
 59 76  1  0  0  0  0
 60 84  1  0  0  0  0
 61 65  1  0  0  0  0
 62 64  1  0  0  0  0
 62 75  1  0  0  0  0
 63 77  1  0  0  0  0
 66 69  1  0  0  0  0
 67 68  2  0  0  0  0
M  CHG  1  77   1
M  ISO  4  36 100  60 101  76 100  84 101
M  END
> <Batch ID>
0086

> <Smiles>
CNC(C)C(=O)NC(C(=O)N1Cc2cc([101O:1][101CH2:1]Cc3cc(C(C)C(C)(C)C[100NH:0][100C:0](=O)N4CCCC(n5nc(-c6ccc(Oc7ccc(F)cc7F)cc6)c(C(N)=O)c5N)C4)nnc3C)ccc2CC1C(=O)NC1CCCc2ccccc21)C(C)(C)C

> <Shape>
0.213

> <Color>
0.059

> <Negative vol penalty>
0.000

$$$$

  -OEChem-04052318593D

 87 95  0     1  0  0  0  0  0999 V2000
  -17.1491  -16.4686   17.7209 C   0  0  0  0  0  0  0  0  0  0  0  0
  -17.8045  -17.6550   18.0346 C   0  0  0  0  0  0  0  0  0  0  0  0
  -22.7984  -29.8733   22.6889 C   0  0  0  0  0  0  0  0  0  0  0  0
  -23.3977  -27.6730   23.4867 C   0  0  0  0  0  0  0  0  0  0  0  0
  -17.4844  -15.2910   18.3876 C   0  0  0  0  0  0  0  0  0  0  0  0
  -18.7950  -17.6646   19.0161 C   0  0  0  0  0  0  0  0  0  0  0  0
  -23.8679  -21.0946   19.0939 C   0  0  0  0  0  0  0  0  0  0  0  0
  -21.5799  -29.7855   23.3620 C   0  0  0  0  0  0  0  0  0  0  0  0
  -22.1791  -27.5851   24.1599 C   0  0  0  0  0  0  0  0  0  0  0  0
  -24.1828  -22.2889   19.7405 C   0  0  0  0  0  0  0  0  0  0  0  0
  -18.5767  -28.3072   22.8932 C   0  0  0  0  0  0  0  0  0  0  0  0
  -17.4286  -28.7045   22.2080 C   0  0  0  0  0  0  0  0  0  0  0  0
  -25.2173  -21.0417   21.5275 C   0  0  0  0  0  0  0  0  0  0  0  0
  -29.4220  -23.6732   20.2533 C   0  0  0  0  0  0  0  0  0  0  0  0
  -17.0087  -30.3890   23.8883 C   0  0  0  0  0  0  0  0  0  0  0  0
  -23.7073  -28.8170   22.7512 C   0  0  0  0  0  0  0  0  0  0  0  0
  -26.1787  -29.4181   22.5553 C   0  0  0  0  0  0  0  0  0  0  0  0
  -18.4862  -15.2842   19.3710 C   0  0  0  0  0  0  0  0  0  0  0  0
  -24.2163  -19.8624   19.6655 C   0  0  0  0  0  0  0  0  0  0  0  0
  -19.1430  -16.4860   19.6976 C   0  0  0  0  0  0  0  0  0  0  0  0
  -24.9080  -19.8332   20.8849 C   0  0  0  0  0  0  0  0  0  0  0  0
  -29.7997  -24.4150   21.3588 C   0  0  0  0  0  0  0  0  0  0  0  0
  -21.2702  -28.6414   24.0975 C   0  0  0  0  0  0  0  0  0  0  0  0
  -24.8550  -22.2626   20.9589 C   0  0  0  0  0  0  0  0  0  0  0  0
  -18.9408  -28.9507   24.0760 C   0  0  0  0  0  0  0  0  0  0  0  0
  -16.6446  -29.7455   22.7055 C   0  0  0  0  0  0  0  0  0  0  0  0
  -18.1569  -29.9916   24.5735 C   0  0  0  0  0  0  0  0  0  0  0  0
  -24.9659  -28.9068   22.0557 C   0  0  0  0  0  0  0  0  0  0  0  0
  -29.8927  -24.0698   19.0177 C   0  0  0  0  0  0  0  0  0  0  0  0
  -30.6232  -25.5040   21.1555 C   0  0  0  0  0  0  0  0  0  0  0  0
  -27.0640  -29.2808   21.5142 C   0  0  0  0  0  0  0  0  0  0  0  0
  -26.4782  -29.9678   23.8452 C   0  0  0  0  0  0  0  0  0  0  0  0
  -22.5953  -17.3337   20.7056 C   0  0  0  0  0  0  0  0  0  0  0  0
  -25.5606  -16.0689   21.0657 C   0  0  0  0  0  0  0  0  0  0  0  0
  -28.9036  -16.5999   21.5002 C   0  0  0  0  0  0  0  0  0  0  0  0
  -27.2736  -25.5967   16.7988 C   0  0  0  0  0  0  0  0  0  0  0  0
  -18.7810  -13.9961   20.0980 C   0  0  0  0  0  0  0  0  0  0  0  0
  -23.8931  -18.5837   18.9424 C   0  0  0  0  0  0  0  0  0  0  0  0
  -25.3224  -18.5372   21.5307 C   0  0  0  0  0  0  0  0  0  0  0  0
  -20.1029  -14.0163   20.8614 C   0  0  0  0  0  0  0  0  0  0  0  0
  -27.2331  -29.1564   16.7344 C   0  0  0  0  0  0  0  0  0  0  0  0
  -20.2370  -15.3075   21.6623 C   0  0  0  0  0  0  0  0  0  0  0  0
  -26.7569  -29.5422   18.1359 C   0  0  0  0  0  0  0  0  0  0  0  0
  -26.5388  -27.8931   16.2303 C   0  0  0  0  0  0  0  0  0  0  0  0
  -26.1533  -27.1188   18.5380 C   0  0  0  0  0  0  0  0  0  0  0  0
  -20.2402  -16.5318   20.7389 C   0  0  1  0  0  0  0  0  0  0  0  0
  -23.8413  -17.3712   19.8667 C   0  0  1  0  0  0  0  0  0  0  0  0
  -26.8663  -28.3552   19.1118 C   0  0  2  0  0  0  0  0  0  0  0  0
  -32.4623  -26.9370   22.0779 C   0  0  0  0  0  0  0  0  0  0  0  0
  -31.0710  -15.3708   21.7985 C   0  0  0  0  0  0  0  0  0  0  0  0
  -29.9457  -21.7965   17.7824 C   0  0  0  0  0  0  0  0  0  0  0  0
  -30.1974  -23.9240   16.5311 C   0  0  0  0  0  0  0  0  0  0  0  0
  -24.8101  -15.4525   23.9582 C   0  0  0  0  0  0  0  0  0  0  0  0
  -27.2436  -15.1244   24.4465 C   0  0  0  0  0  0  0  0  0  0  0  0
  -26.0918  -13.6414   22.8044 C   0  0  0  0  0  0  0  0  0  0  0  0
  -30.0403  -17.7689   19.0303 C   0  0  0  0  0  0  0  0  0  0  0  0
  -29.3140  -24.0246   22.7320 C   0  0  0  0  0  0  0  0  0  0  0  0
  -31.0705  -26.3505   22.2991 C   0  0  0  0  0  0  0  0  0  0  0  0
  -28.1875  -24.9157   23.2668 C   0  0  0  0  0  0  0  0  0  0  0  0
  -26.9141  -24.8422   22.4231 C   0  0  0  0  0  0  0  0  0  0  0  0
  -27.9674  -23.3267   17.5233 C   0  0  0  0  0  0  0  0  0  0  0  0
  -26.3362  -23.4336   22.4049 C   0  0  0  0  0  0  0  0  0  1  0  0
  -26.5831  -16.0405   22.1759 C   0  0  1  0  0  0  0  0  0  0  0  0
  -30.1162  -16.0105   20.8026 C   0  0  2  0  0  0  0  0  0  0  0  0
  -29.5151  -23.3053   17.7954 C   0  0  0  0  0  0  0  0  0  0  0  0
  -26.1728  -15.0892   23.3353 C   0  0  0  0  0  0  0  0  0  0  0  0
  -25.0679  -28.4770   20.7952 N   0  0  0  0  0  0  0  0  0  0  0  0
  -30.6975  -25.1401   18.8482 N   0  0  0  0  0  0  0  0  0  0  0  0
  -31.0690  -25.8689   19.9348 N   0  0  0  0  0  0  0  0  0  0  0  0
  -26.3553  -28.7180   20.4939 N   0  0  0  0  0  0  0  0  0  0  0  0
  -24.9781  -17.3137   20.7878 N   0  0  0  0  0  0  0  0  0  0  0  0
  -26.6811  -26.8052   17.2009 N   0  0  0  0  0  0  0  0  0  0  0  0
  -28.3718  -29.5880   21.3811 N   0  0  0  0  0  0  0  0  0  0  0  0
  -25.4522  -30.0346   24.7976 N   0  0  0  0  0  0  0  0  0  0  0  0
  -21.5329  -16.6844   20.1064 N   0  0  0  0  0  0  0  0  0  0  0  0
  -27.8568  -15.7038   21.5492 N   0  0  0  0  0  0  0  0  0  0  0  0
  -27.3756  -24.6204   17.7822 N   0  0  0  0  0  0  0  0  0  0  0  0
  -30.8533  -17.0717   20.0599 N   0  3  0  0  0  0  0  0  0  0  0  0
  -27.6177  -30.4026   24.1387 O   0  0  0  0  0  0  0  0  0  0  0  0
  -22.5981  -17.8540   21.8151 O   0  0  0  0  0  0  0  0  0  0  0  0
  -25.2939  -15.0266   20.4623 O   0  0  0  0  0  0  0  0  0  0  0  0
  -28.8880  -17.7399   21.9593 O   0  0  0  0  0  0  0  0  0  0  0  0
  -27.6862  -25.4042   15.6501 O   0  0  0  0  0  0  0  0  0  0  0  0
  -20.0814  -28.5555   24.7547 O   0  0  0  0  0  0  0  0  0  0  0  0
  -25.1630  -23.4269   21.5925 O   0  0  0  0  0  0  0  0  0  1  0  0
  -15.5429  -30.1280   22.0466 F   0  0  0  0  0  0  0  0  0  0  0  0
  -18.5023  -30.6144   25.7087 F   0  0  0  0  0  0  0  0  0  0  0  0
  1  2  1  0  0  0  0
  1  5  2  0  0  0  0
  2  6  2  0  0  0  0
  3  8  2  0  0  0  0
  3 16  1  0  0  0  0
  4  9  1  0  0  0  0
  4 16  2  0  0  0  0
  5 18  1  0  0  0  0
  6 20  1  0  0  0  0
  7 10  2  0  0  0  0
  7 19  1  0  0  0  0
  8 23  1  0  0  0  0
  9 23  2  0  0  0  0
 10 24  1  0  0  0  0
 11 12  2  0  0  0  0
 11 25  1  0  0  0  0
 12 26  1  0  0  0  0
 13 21  1  0  0  0  0
 13 24  2  0  0  0  0
 14 22  1  0  0  0  0
 14 29  2  0  0  0  0
 15 26  2  0  0  0  0
 15 27  1  0  0  0  0
 16 28  1  0  0  0  0
 17 28  1  0  0  0  0
 17 31  2  0  0  0  0
 17 32  1  0  0  0  0
 18 20  2  0  0  0  0
 18 37  1  0  0  0  0
 19 21  2  0  0  0  0
 19 38  1  0  0  0  0
 20 46  1  0  0  0  0
 21 39  1  0  0  0  0
 22 30  2  0  0  0  0
 22 57  1  0  0  0  0
 23 84  1  0  0  0  0
 24 85  1  0  0  0  0
 25 27  2  0  0  0  0
 25 84  1  0  0  0  0
 26 86  1  0  0  0  0
 27 87  1  0  0  0  0
 28 67  2  0  0  0  0
 29 65  1  0  0  0  0
 29 68  1  0  0  0  0
 30 58  1  0  0  0  0
 30 69  1  0  0  0  0
 31 70  1  0  0  0  0
 31 73  1  0  0  0  0
 32 74  1  0  0  0  0
 32 79  2  0  0  0  0
 33 47  1  0  0  0  0
 33 75  1  0  0  0  0
 33 80  2  0  0  0  0
 34 63  1  0  0  0  0
 34 71  1  0  0  0  0
 34 81  2  0  0  0  0
 35 64  1  0  0  0  0
 35 76  1  0  0  0  0
 35 82  2  0  0  0  0
 36 72  1  0  0  0  0
 36 77  1  0  0  0  0
 36 83  2  0  0  0  0
 37 40  1  0  0  0  0
 38 47  1  0  0  0  0
 39 71  1  0  0  0  0
 40 42  1  0  0  0  0
 41 43  1  0  0  0  0
 41 44  1  0  0  0  0
 42 46  1  0  0  0  0
 43 48  1  0  0  0  0
 44 72  1  0  0  0  0
 45 48  1  0  0  0  0
 45 72  1  0  0  0  0
 46 75  1  0  0  0  0
 47 71  1  0  0  0  0
 48 70  1  0  0  0  0
 49 58  1  0  0  0  0
 50 64  1  0  0  0  0
 51 65  1  0  0  0  0
 52 65  1  0  0  0  0
 53 66  1  0  0  0  0
 54 66  1  0  0  0  0
 55 66  1  0  0  0  0
 56 78  1  0  0  0  0
 57 59  1  0  0  0  0
 59 60  1  0  0  0  0
 60 62  1  0  0  0  0
 61 65  1  0  0  0  0
 61 77  1  0  0  0  0
 62 85  1  0  0  0  0
 63 66  1  0  0  0  0
 63 76  1  0  0  0  0
 64 78  1  0  0  0  0
 67 70  1  0  0  0  0
 68 69  2  0  0  0  0
M  CHG  1  78   1
M  ISO  4  36 100  62 101  77 100  85 101
M  END
> <Batch ID>
0086

> <Smiles>
CCc1nnc(C(C)(C)C[100NH:0][100C:0](=O)N2CCCC(n3nc(-c4ccc(Oc5ccc(F)cc5F)cc4)c(C(N)=O)c3N)C2)cc1CCC[101CH2:1][101O:1]c1ccc2c(c1)CN(C(=O)C(NC(=O)C(C)NC)C(C)(C)C)C(C(=O)NC1CCCc3ccccc31)C2

> <Shape>
0.197

> <Color>
0.060

> <Negative vol penalty>
0.000

$$$$

  -OEChem-04052318593D

 87 95  0     1  0  0  0  0  0999 V2000
  -23.7886  -20.3615   30.8105 C   0  0  0  0  0  0  0  0  0  0  0  0
  -24.5659  -19.4379   30.1190 C   0  0  0  0  0  0  0  0  0  0  0  0
  -23.0000   -9.8949   19.9818 C   0  0  0  0  0  0  0  0  0  0  0  0
  -23.7309   -9.9440   22.2841 C   0  0  0  0  0  0  0  0  0  0  0  0
  -24.3280  -21.5966   31.1674 C   0  0  0  0  0  0  0  0  0  0  0  0
  -25.8829  -19.7494   29.7830 C   0  0  0  0  0  0  0  0  0  0  0  0
  -30.6333  -15.8914   29.5476 C   0  0  0  0  0  0  0  0  0  0  0  0
  -22.2352   -8.7594   20.2489 C   0  0  0  0  0  0  0  0  0  0  0  0
  -22.9660   -8.8086   22.5512 C   0  0  0  0  0  0  0  0  0  0  0  0
  -31.2484  -15.2244   28.4891 C   0  0  0  0  0  0  0  0  0  0  0  0
  -23.2122   -5.4704   22.0751 C   0  0  0  0  0  0  0  0  0  0  0  0
  -23.8025   -4.4529   22.8247 C   0  0  0  0  0  0  0  0  0  0  0  0
  -32.8993  -16.9780   28.3514 C   0  0  0  0  0  0  0  0  0  0  0  0
  -22.0826   -4.6925   24.5044 C   0  0  0  0  0  0  0  0  0  0  0  0
  -30.3795  -17.9495   25.3408 C   0  0  0  0  0  0  0  0  0  0  0  0
  -23.7480  -10.4872   20.9994 C   0  0  0  0  0  0  0  0  0  0  0  0
  -24.1306  -13.0033   20.8252 C   0  0  0  0  0  0  0  0  0  0  0  0
  -25.6553  -21.9196   30.8441 C   0  0  0  0  0  0  0  0  0  0  0  0
  -31.1410  -17.1142   30.0097 C   0  0  0  0  0  0  0  0  0  0  0  0
  -26.4402  -20.9905   30.1348 C   0  0  0  0  0  0  0  0  0  0  0  0
  -32.2903  -17.6572   29.4176 C   0  0  0  0  0  0  0  0  0  0  0  0
  -22.2182   -8.2163   21.5335 C   0  0  0  0  0  0  0  0  0  0  0  0
  -32.3799  -15.7691   27.8889 C   0  0  0  0  0  0  0  0  0  0  0  0
  -22.0571   -6.0990   22.5402 C   0  0  0  0  0  0  0  0  0  0  0  0
  -23.2377   -4.0639   24.0393 C   0  0  0  0  0  0  0  0  0  0  0  0
  -21.4923   -5.7100   23.7549 C   0  0  0  0  0  0  0  0  0  0  0  0
  -24.5387  -11.6598   20.7241 C   0  0  0  0  0  0  0  0  0  0  0  0
  -29.1219  -18.1419   24.8424 C   0  0  0  0  0  0  0  0  0  0  0  0
  -25.2388  -13.7272   20.4588 C   0  0  0  0  0  0  0  0  0  0  0  0
  -30.3874  -17.3395   23.2129 C   0  0  0  0  0  0  0  0  0  0  0  0
  -22.8631  -13.5481   21.2154 C   0  0  0  0  0  0  0  0  0  0  0  0
  -30.0218  -20.0839   30.1880 C   0  0  0  0  0  0  0  0  0  0  0  0
  -32.7930  -20.6166   31.7877 C   0  0  0  0  0  0  0  0  0  0  0  0
  -36.0144  -19.6692   32.3976 C   0  0  0  0  0  0  0  0  0  0  0  0
  -30.7349  -14.6665   20.6946 C   0  0  0  0  0  0  0  0  0  0  0  0
  -26.1796  -23.2857   31.2096 C   0  0  0  0  0  0  0  0  0  0  0  0
  -30.4816  -17.8079   31.1700 C   0  0  0  0  0  0  0  0  0  0  0  0
  -32.8868  -18.9571   29.8896 C   0  0  0  0  0  0  0  0  0  0  0  0
  -27.7011  -23.3916   31.1447 C   0  0  0  0  0  0  0  0  0  0  0  0
  -29.5906  -12.2443   18.3494 C   0  0  0  0  0  0  0  0  0  0  0  0
  -28.2245  -22.7743   29.8517 C   0  0  0  0  0  0  0  0  0  0  0  0
  -28.1434  -11.9828   18.7703 C   0  0  0  0  0  0  0  0  0  0  0  0
  -30.4958  -12.4792   19.5566 C   0  0  0  0  0  0  0  0  0  0  0  0
  -28.5883  -13.2716   20.9010 C   0  0  0  0  0  0  0  0  0  0  0  0
  -27.8808  -21.2819   29.7741 C   0  0  1  0  0  0  0  0  0  0  0  0
  -30.7824  -19.3026   31.2219 C   0  0  1  0  0  0  0  0  0  0  0  0
  -27.6265  -13.0843   19.7152 C   0  0  2  0  0  0  0  0  0  0  0  0
  -30.6555  -17.8910   20.7663 C   0  0  0  0  0  0  0  0  0  0  0  0
  -38.0420  -20.3216   33.7246 C   0  0  0  0  0  0  0  0  0  0  0  0
  -26.4312  -22.2812   25.7792 C   0  0  0  0  0  0  0  0  0  0  0  0
  -25.1978  -20.1459   25.3552 C   0  0  0  0  0  0  0  0  0  0  0  0
  -32.0773  -13.3891   25.4608 C   0  0  0  0  0  0  0  0  0  0  0  0
  -33.3422  -22.8890   29.8269 C   0  0  0  0  0  0  0  0  0  0  0  0
  -35.7307  -22.8660   30.5773 C   0  0  0  0  0  0  0  0  0  0  0  0
  -33.9186  -23.4017   32.2058 C   0  0  0  0  0  0  0  0  0  0  0  0
  -36.0199  -17.1020   33.8700 C   0  0  0  0  0  0  0  0  0  0  0  0
  -27.8984  -18.6470   25.4705 C   0  0  0  0  0  0  0  0  0  0  0  0
  -27.7487  -20.1852   25.3496 C   0  0  0  0  0  0  0  0  0  0  0  0
  -32.8610  -15.5784   24.4874 C   0  0  0  0  0  0  0  0  0  0  0  0
  -32.6017  -17.0898   24.4098 C   0  0  0  0  0  0  0  0  0  0  0  0
  -30.8187  -16.8442   21.8819 C   0  0  2  0  0  0  0  0  0  0  0  0
  -34.1930  -21.0227   31.3951 C   0  0  1  0  0  0  0  0  0  0  0  0
  -36.7789  -19.4751   33.6946 C   0  0  2  0  0  0  0  0  0  0  0  0
  -26.4589  -20.7617   25.9627 C   0  0  0  0  0  0  0  0  0  0  0  0
  -32.1958  -14.8911   25.6864 C   0  0  2  0  0  0  0  0  0  1  0  0
  -34.2840  -22.5213   30.9909 C   0  0  0  0  0  0  0  0  0  0  0  0
  -25.8071  -11.5348   20.3246 N   0  0  0  0  0  0  0  0  0  0  0  0
  -31.1413  -17.4520   24.3112 N   0  0  0  0  0  0  0  0  0  0  0  0
  -26.2056  -12.8091   20.1714 N   0  0  0  0  0  0  0  0  0  0  0  0
  -29.1558  -17.7566   23.5239 N   0  3  0  0  0  0  0  0  0  0  0  0
  -32.2022  -19.6007   31.0231 N   0  0  0  0  0  0  0  0  0  0  0  0
  -29.9502  -13.5365   20.4112 N   0  0  0  0  0  0  0  0  0  0  0  0
  -25.4708  -15.0533   20.3575 N   0  0  0  0  0  0  0  0  0  0  0  0
  -21.8330  -12.6627   21.5606 N   0  0  0  0  0  0  0  0  0  0  0  0
  -28.7777  -20.5126   30.6097 N   0  0  0  0  0  0  0  0  0  0  0  0
  -35.0542  -20.6520   32.5129 N   0  0  0  0  0  0  0  0  0  0  0  0
  -30.1397  -15.6239   21.5069 N   0  0  0  0  0  0  0  0  0  0  0  0
  -37.1672  -18.0456   33.8581 N   0  3  0  0  0  0  0  0  0  0  0  0
  -22.6454  -14.7832   21.2410 O   0  0  0  0  0  0  0  0  0  0  0  0
  -30.5270  -20.2843   29.0897 O   0  0  0  0  0  0  0  0  0  0  0  0
  -32.2466  -21.1751   32.7423 O   0  0  0  0  0  0  0  0  0  0  0  0
  -36.2484  -19.0170   31.3825 O   0  0  0  0  0  0  0  0  0  0  0  0
  -31.8791  -14.8139   20.2518 O   0  0  0  0  0  0  0  0  0  0  0  0
  -21.4717   -7.1084   21.7945 O   0  0  0  0  0  0  0  0  0  0  0  0
  -32.9818  -15.1204   26.8551 O   0  0  0  0  0  0  0  0  0  1  0  0
  -23.8038   -3.0858   24.7582 F   0  0  0  0  0  0  0  0  0  0  0  0
  -20.3820   -6.3094   24.2063 F   0  0  0  0  0  0  0  0  0  0  0  0
  1  2  1  0  0  0  0
  1  5  2  0  0  0  0
  2  6  2  0  0  0  0
  3  8  2  0  0  0  0
  3 16  1  0  0  0  0
  4  9  1  0  0  0  0
  4 16  2  0  0  0  0
  5 18  1  0  0  0  0
  6 20  1  0  0  0  0
  7 10  2  0  0  0  0
  7 19  1  0  0  0  0
  8 22  1  0  0  0  0
  9 22  2  0  0  0  0
 10 23  1  0  0  0  0
 11 12  2  0  0  0  0
 11 24  1  0  0  0  0
 12 25  1  0  0  0  0
 13 21  1  0  0  0  0
 13 23  2  0  0  0  0
 14 25  2  0  0  0  0
 14 26  1  0  0  0  0
 15 28  2  0  0  0  0
 15 68  1  0  0  0  0
 16 27  1  0  0  0  0
 17 27  1  0  0  0  0
 17 29  2  0  0  0  0
 17 31  1  0  0  0  0
 18 20  2  0  0  0  0
 18 36  1  0  0  0  0
 19 21  2  0  0  0  0
 19 37  1  0  0  0  0
 20 45  1  0  0  0  0
 21 38  1  0  0  0  0
 22 84  1  0  0  0  0
 23 85  1  0  0  0  0
 24 26  2  0  0  0  0
 24 84  1  0  0  0  0
 25 86  1  0  0  0  0
 26 87  1  0  0  0  0
 27 67  2  0  0  0  0
 28 57  1  0  0  0  0
 28 70  1  0  0  0  0
 29 69  1  0  0  0  0
 29 73  1  0  0  0  0
 30 61  1  0  0  0  0
 30 68  1  0  0  0  0
 30 70  2  0  0  0  0
 31 74  1  0  0  0  0
 31 79  2  0  0  0  0
 32 46  1  0  0  0  0
 32 75  1  0  0  0  0
 32 80  2  0  0  0  0
 33 62  1  0  0  0  0
 33 71  1  0  0  0  0
 33 81  2  0  0  0  0
 34 63  1  0  0  0  0
 34 76  1  0  0  0  0
 34 82  2  0  0  0  0
 35 72  1  0  0  0  0
 35 77  1  0  0  0  0
 35 83  2  0  0  0  0
 36 39  1  0  0  0  0
 37 46  1  0  0  0  0
 38 71  1  0  0  0  0
 39 41  1  0  0  0  0
 40 42  1  0  0  0  0
 40 43  1  0  0  0  0
 41 45  1  0  0  0  0
 42 47  1  0  0  0  0
 43 72  1  0  0  0  0
 44 47  1  0  0  0  0
 44 72  1  0  0  0  0
 45 75  1  0  0  0  0
 46 71  1  0  0  0  0
 47 69  1  0  0  0  0
 48 61  1  0  0  0  0
 49 63  1  0  0  0  0
 50 64  1  0  0  0  0
 51 64  1  0  0  0  0
 52 65  1  0  0  0  0
 53 66  1  0  0  0  0
 54 66  1  0  0  0  0
 55 66  1  0  0  0  0
 56 78  1  0  0  0  0
 57 58  1  0  0  0  0
 58 64  1  0  0  0  0
 59 60  1  0  0  0  0
 59 65  1  0  0  0  0
 60 68  1  0  0  0  0
 61 77  1  0  0  0  0
 62 66  1  0  0  0  0
 62 76  1  0  0  0  0
 63 78  1  0  0  0  0
 65 85  1  0  0  0  0
 67 69  1  0  0  0  0
M  CHG  2  70   1  78   1
M  ISO  4  35 100  65 101  77 100  85 101
M  END
> <Batch ID>
0086

> <Smiles>
CNC(C)C(=O)NC(C(=O)N1Cc2cc([101O:1][101CH:1](C)CCn3cc(CCC(C)C)nc3C(C)[100NH:0][100C:0](=O)N3CCCC(n4nc(-c5ccc(Oc6ccc(F)cc6F)cc5)c(C(N)=O)c4N)C3)ccc2CC1C(=O)NC1CCCc2ccccc21)C(C)(C)C

> <Shape>
0.174

> <Color>
0.193

> <Negative vol penalty>
0.000

$$$$

  -OEChem-04052318593D

 89 97  0     1  0  0  0  0  0999 V2000
  -17.2717  -28.1356   24.4764 C   0  0  0  0  0  0  0  0  0  0  0  0
  -17.7374  -27.0665   23.7178 C   0  0  0  0  0  0  0  0  0  0  0  0
  -28.5448  -10.7251   21.3483 C   0  0  0  0  0  0  0  0  0  0  0  0
  -26.9432  -12.0767   20.1462 C   0  0  0  0  0  0  0  0  0  0  0  0
  -17.8084  -29.4086   24.2881 C   0  0  0  0  0  0  0  0  0  0  0  0
  -18.7394  -27.2700   22.7696 C   0  0  0  0  0  0  0  0  0  0  0  0
  -23.1999  -23.3657   21.2311 C   0  0  0  0  0  0  0  0  0  0  0  0
  -27.6754   -9.6364   21.2825 C   0  0  0  0  0  0  0  0  0  0  0  0
  -26.0738  -10.9879   20.0804 C   0  0  0  0  0  0  0  0  0  0  0  0
  -23.3371  -22.4681   20.1732 C   0  0  0  0  0  0  0  0  0  0  0  0
  -23.8876   -9.4182   22.1267 C   0  0  0  0  0  0  0  0  0  0  0  0
  -22.5428   -9.6442   22.4197 C   0  0  0  0  0  0  0  0  0  0  0  0
  -24.6047  -24.1148   18.9483 C   0  0  0  0  0  0  0  0  0  0  0  0
  -26.9115  -20.4470   19.8834 C   0  0  0  0  0  0  0  0  0  0  0  0
  -21.9343   -8.8936   20.2053 C   0  0  0  0  0  0  0  0  0  0  0  0
  -28.1787  -11.9453   20.7802 C   0  0  0  0  0  0  0  0  0  0  0  0
  -30.0714  -13.4217   19.9168 C   0  0  0  0  0  0  0  0  0  0  0  0
  -18.8242  -29.6259   23.3439 C   0  0  0  0  0  0  0  0  0  0  0  0
  -23.7556  -24.6507   21.1509 C   0  0  0  0  0  0  0  0  0  0  0  0
  -19.2892  -28.5473   22.5675 C   0  0  0  0  0  0  0  0  0  0  0  0
  -24.4753  -25.0260   20.0075 C   0  0  0  0  0  0  0  0  0  0  0  0
  -27.1276  -19.9548   18.6011 C   0  0  0  0  0  0  0  0  0  0  0  0
  -28.4271  -19.7491   18.1512 C   0  0  0  0  0  0  0  0  0  0  0  0
  -26.4399   -9.7677   20.6485 C   0  0  0  0  0  0  0  0  0  0  0  0
  -24.0371  -22.8436   19.0304 C   0  0  0  0  0  0  0  0  0  0  0  0
  -24.2559   -8.9300   20.8730 C   0  0  0  0  0  0  0  0  0  0  0  0
  -21.5661   -9.3818   21.4591 C   0  0  0  0  0  0  0  0  0  0  0  0
  -23.2792   -8.6677   19.9123 C   0  0  0  0  0  0  0  0  0  0  0  0
  -29.0761  -13.0705   20.8484 C   0  0  0  0  0  0  0  0  0  0  0  0
  -28.0198  -20.7156   20.6703 C   0  0  0  0  0  0  0  0  0  0  0  0
  -29.4676  -20.0492   19.0156 C   0  0  0  0  0  0  0  0  0  0  0  0
  -30.6409  -14.5590   20.4351 C   0  0  0  0  0  0  0  0  0  0  0  0
  -30.4475  -12.7775   18.6923 C   0  0  0  0  0  0  0  0  0  0  0  0
  -22.5874  -27.6066   21.1928 C   0  0  0  0  0  0  0  0  0  0  0  0
  -25.7251  -28.4287   21.2275 C   0  0  0  0  0  0  0  0  0  0  0  0
  -28.9508  -27.5791   20.5068 C   0  0  0  0  0  0  0  0  0  0  0  0
  -28.6284  -18.7937   24.1592 C   0  0  0  0  0  0  0  0  0  0  0  0
  -19.3402  -31.0288   23.1426 C   0  0  0  0  0  0  0  0  0  0  0  0
  -23.6216  -25.5979   22.3116 C   0  0  0  0  0  0  0  0  0  0  0  0
  -25.1083  -26.3867   19.8802 C   0  0  0  0  0  0  0  0  0  0  0  0
  -20.6616  -31.0882   22.3807 C   0  0  0  0  0  0  0  0  0  0  0  0
  -31.5091  -16.7482   24.5998 C   0  0  0  0  0  0  0  0  0  0  0  0
  -20.6092  -30.1886   21.1500 C   0  0  0  0  0  0  0  0  0  0  0  0
  -31.3021  -15.6054   23.6042 C   0  0  0  0  0  0  0  0  0  0  0  0
  -30.1909  -17.1957   25.2275 C   0  0  0  0  0  0  0  0  0  0  0  0
  -28.9257  -16.4039   23.2664 C   0  0  0  0  0  0  0  0  0  0  0  0
  -20.3922  -28.7233   21.5465 C   0  0  1  0  0  0  0  0  0  0  0  0
  -23.7886  -27.0606   21.9116 C   0  0  1  0  0  0  0  0  0  0  0  0
  -30.2197  -15.9559   22.5655 C   0  0  2  0  0  0  0  0  0  0  0  0
  -30.8852  -19.8477   18.5896 C   0  0  0  0  0  0  0  0  0  0  0  0
  -27.1404  -22.6257   22.0495 C   0  0  0  0  0  0  0  0  0  0  0  0
  -31.4517  -27.7764   20.4417 C   0  0  0  0  0  0  0  0  0  0  0  0
  -29.7069  -15.6498   15.5418 C   0  0  0  0  0  0  0  0  0  0  0  0
  -28.1165  -17.2673   14.4861 C   0  0  0  0  0  0  0  0  0  0  0  0
  -25.1599  -30.1963   18.8056 C   0  0  0  0  0  0  0  0  0  0  0  0
  -27.6267  -30.2951   18.3894 C   0  0  0  0  0  0  0  0  0  0  0  0
  -26.6831  -31.2147   20.5076 C   0  0  0  0  0  0  0  0  0  0  0  0
  -29.2414  -26.2301   23.1249 C   0  0  0  0  0  0  0  0  0  0  0  0
  -25.9404  -19.6559   17.7209 C   0  0  0  0  0  0  0  0  0  0  0  0
  -28.6893  -19.2198   16.7814 C   0  0  0  0  0  0  0  0  0  0  0  0
  -25.6960  -20.7089   16.6379 C   0  0  0  0  0  0  0  0  0  0  0  0
  -29.0785  -17.7299   16.8033 C   0  0  0  0  0  0  0  0  0  0  0  0
  -27.0360  -20.2825   22.9731 C   0  0  0  0  0  0  0  0  0  0  0  0
  -25.3502  -22.0833   17.1991 C   0  0  0  0  0  0  0  0  0  1  0  0
  -27.8259  -21.2437   22.0524 C   0  0  1  0  0  0  0  0  0  0  0  0
  -26.7682  -28.7102   20.1732 C   0  0  1  0  0  0  0  0  0  0  0  0
  -30.2230  -27.6640   21.3307 C   0  0  2  0  0  0  0  0  0  0  0  0
  -29.3283  -17.1270   15.4084 C   0  0  0  0  0  0  0  0  0  0  0  0
  -26.5460  -30.0791   19.4702 C   0  0  0  0  0  0  0  0  0  0  0  0
  -29.0144  -13.9162   21.8804 N   0  0  0  0  0  0  0  0  0  0  0  0
  -29.2969  -20.5287   20.2680 N   0  0  0  0  0  0  0  0  0  0  0  0
  -29.9781  -14.8100   21.6004 N   0  0  0  0  0  0  0  0  0  0  0  0
  -24.9442  -27.2795   21.0392 N   0  0  0  0  0  0  0  0  0  0  0  0
  -29.2082  -17.5146   24.1890 N   0  0  0  0  0  0  0  0  0  0  0  0
  -31.6390  -15.3589   20.0032 N   0  0  0  0  0  0  0  0  0  0  0  0
  -29.7590  -11.6187   18.3082 N   0  0  0  0  0  0  0  0  0  0  0  0
  -21.6267  -28.1423   22.0292 N   0  0  0  0  0  0  0  0  0  0  0  0
  -28.0622  -28.5812   20.8345 N   0  0  0  0  0  0  0  0  0  0  0  0
  -27.7116  -19.0149   23.1387 N   0  0  0  0  0  0  0  0  0  0  0  0
  -30.3695  -26.4509   22.1839 N   0  3  0  0  0  0  0  0  0  0  0  0
  -31.3778  -13.2072   17.9688 O   0  0  0  0  0  0  0  0  0  0  0  0
  -22.5366  -27.5476   19.9699 O   0  0  0  0  0  0  0  0  0  0  0  0
  -25.6123  -29.1961   22.1867 O   0  0  0  0  0  0  0  0  0  0  0  0
  -28.7656  -26.7128   19.6548 O   0  0  0  0  0  0  0  0  0  0  0  0
  -28.9109  -19.6750   24.9779 O   0  0  0  0  0  0  0  0  0  0  0  0
  -25.5914   -8.7055   20.5839 O   0  0  0  0  0  0  0  0  0  0  0  0
  -24.1720  -21.9695   17.9961 O   0  0  0  0  0  0  0  0  0  1  0  0
  -20.2745   -9.5974   21.7411 F   0  0  0  0  0  0  0  0  0  0  0  0
  -23.6267   -8.1974   18.7066 F   0  0  0  0  0  0  0  0  0  0  0  0
  1  2  1  0  0  0  0
  1  5  2  0  0  0  0
  2  6  2  0  0  0  0
  3  8  2  0  0  0  0
  3 16  1  0  0  0  0
  4  9  1  0  0  0  0
  4 16  2  0  0  0  0
  5 18  1  0  0  0  0
  6 20  1  0  0  0  0
  7 10  2  0  0  0  0
  7 19  1  0  0  0  0
  8 24  1  0  0  0  0
  9 24  2  0  0  0  0
 10 25  1  0  0  0  0
 11 12  2  0  0  0  0
 11 26  1  0  0  0  0
 12 27  1  0  0  0  0
 13 21  1  0  0  0  0
 13 25  2  0  0  0  0
 14 22  1  0  0  0  0
 14 30  2  0  0  0  0
 15 27  2  0  0  0  0
 15 28  1  0  0  0  0
 16 29  1  0  0  0  0
 17 29  1  0  0  0  0
 17 32  2  0  0  0  0
 17 33  1  0  0  0  0
 18 20  2  0  0  0  0
 18 38  1  0  0  0  0
 19 21  2  0  0  0  0
 19 39  1  0  0  0  0
 20 47  1  0  0  0  0
 21 40  1  0  0  0  0
 22 23  2  0  0  0  0
 22 59  1  0  0  0  0
 23 31  1  0  0  0  0
 23 60  1  0  0  0  0
 24 86  1  0  0  0  0
 25 87  1  0  0  0  0
 26 28  2  0  0  0  0
 26 86  1  0  0  0  0
 27 88  1  0  0  0  0
 28 89  1  0  0  0  0
 29 70  2  0  0  0  0
 30 65  1  0  0  0  0
 30 71  1  0  0  0  0
 31 50  1  0  0  0  0
 31 71  2  0  0  0  0
 32 72  1  0  0  0  0
 32 75  1  0  0  0  0
 33 76  1  0  0  0  0
 33 81  2  0  0  0  0
 34 48  1  0  0  0  0
 34 77  1  0  0  0  0
 34 82  2  0  0  0  0
 35 66  1  0  0  0  0
 35 73  1  0  0  0  0
 35 83  2  0  0  0  0
 36 67  1  0  0  0  0
 36 78  1  0  0  0  0
 36 84  2  0  0  0  0
 37 74  1  0  0  0  0
 37 79  1  0  0  0  0
 37 85  2  0  0  0  0
 38 41  1  0  0  0  0
 39 48  1  0  0  0  0
 40 73  1  0  0  0  0
 41 43  1  0  0  0  0
 42 44  1  0  0  0  0
 42 45  1  0  0  0  0
 43 47  1  0  0  0  0
 44 49  1  0  0  0  0
 45 74  1  0  0  0  0
 46 49  1  0  0  0  0
 46 74  1  0  0  0  0
 47 77  1  0  0  0  0
 48 73  1  0  0  0  0
 49 72  1  0  0  0  0
 51 65  1  0  0  0  0
 52 67  1  0  0  0  0
 53 68  1  0  0  0  0
 54 68  1  0  0  0  0
 55 69  1  0  0  0  0
 56 69  1  0  0  0  0
 57 69  1  0  0  0  0
 58 80  1  0  0  0  0
 59 61  1  0  0  0  0
 60 62  1  0  0  0  0
 61 64  1  0  0  0  0
 62 68  1  0  0  0  0
 63 65  1  0  0  0  0
 63 79  1  0  0  0  0
 64 87  1  0  0  0  0
 66 69  1  0  0  0  0
 66 78  1  0  0  0  0
 67 80  1  0  0  0  0
 70 72  1  0  0  0  0
M  CHG  1  80   1
M  ISO  4  37 100  64 101  79 100  87 101
M  END
> <Batch ID>
0086

> <Smiles>
CNC(C)C(=O)NC(C(=O)N1Cc2cc([101O:1][101CH2:1]CCc3cc(C(C)C[100NH:0][100C:0](=O)N4CCCC(n5nc(-c6ccc(Oc7ccc(F)cc7F)cc6)c(C(N)=O)c5N)C4)nc(C)c3CCC(C)C)ccc2CC1C(=O)NC1CCCc2ccccc21)C(C)(C)C

> <Shape>
0.244

> <Color>
0.071

> <Negative vol penalty>
0.000

$$$$

  -OEChem-04052318593D

 85 93  0     1  0  0  0  0  0999 V2000
  -27.9112  -17.2544   18.4829 C   0  0  0  0  0  0  0  0  0  0  0  0
  -26.8642  -18.1242   18.7704 C   0  0  0  0  0  0  0  0  0  0  0  0
  -23.6641  -13.4307   19.6717 C   0  0  0  0  0  0  0  0  0  0  0  0
  -24.9941  -13.7596   21.6617 C   0  0  0  0  0  0  0  0  0  0  0  0
  -29.1908  -17.5211   18.9681 C   0  0  0  0  0  0  0  0  0  0  0  0
  -27.0960  -19.2609   19.5441 C   0  0  0  0  0  0  0  0  0  0  0  0
  -24.3901  -24.7241   18.9640 C   0  0  0  0  0  0  0  0  0  0  0  0
  -19.5884  -28.3214   21.2239 C   0  0  0  0  0  0  0  0  0  0  0  0
  -24.6329  -12.5629   19.1677 C   0  0  0  0  0  0  0  0  0  0  0  0
  -25.9628  -12.8917   21.1577 C   0  0  0  0  0  0  0  0  0  0  0  0
  -23.3286  -25.3218   19.6421 C   0  0  0  0  0  0  0  0  0  0  0  0
  -28.9545  -11.0440   20.2379 C   0  0  0  0  0  0  0  0  0  0  0  0
  -30.2901  -11.4319   20.3430 C   0  0  0  0  0  0  0  0  0  0  0  0
  -18.6710  -29.0213   21.9996 C   0  0  0  0  0  0  0  0  0  0  0  0
  -24.8958  -26.4543   21.0846 C   0  0  0  0  0  0  0  0  0  0  0  0
  -29.8240  -13.3967   19.0167 C   0  0  0  0  0  0  0  0  0  0  0  0
  -23.8448  -14.0291   20.9187 C   0  0  0  0  0  0  0  0  0  0  0  0
  -21.7344  -14.5905   22.2374 C   0  0  0  0  0  0  0  0  0  0  0  0
  -29.4404  -18.6667   19.7401 C   0  0  0  0  0  0  0  0  0  0  0  0
  -25.7143  -24.9789   19.3488 C   0  0  0  0  0  0  0  0  0  0  0  0
  -28.3799  -19.5425   20.0412 C   0  0  0  0  0  0  0  0  0  0  0  0
  -25.9723  -25.8605   20.4081 C   0  0  0  0  0  0  0  0  0  0  0  0
  -20.2364  -27.2119   21.7552 C   0  0  0  0  0  0  0  0  0  0  0  0
  -25.7822  -12.2934   19.9107 C   0  0  0  0  0  0  0  0  0  0  0  0
  -23.5813  -26.1848   20.7044 C   0  0  0  0  0  0  0  0  0  0  0  0
  -28.0535  -11.8324   19.5221 C   0  0  0  0  0  0  0  0  0  0  0  0
  -30.7249  -12.6082   19.7325 C   0  0  0  0  0  0  0  0  0  0  0  0
  -28.4883  -13.0088   18.9115 C   0  0  0  0  0  0  0  0  0  0  0  0
  -22.8447  -14.9261   21.4396 C   0  0  0  0  0  0  0  0  0  0  0  0
  -18.4388  -28.5746   23.2905 C   0  0  0  0  0  0  0  0  0  0  0  0
  -19.9343  -26.8463   23.0571 C   0  0  0  0  0  0  0  0  0  0  0  0
  -21.1003  -15.7875   22.4643 C   0  0  0  0  0  0  0  0  0  0  0  0
  -21.3139  -13.3111   22.7293 C   0  0  0  0  0  0  0  0  0  0  0  0
  -28.1112  -23.2050   20.4496 C   0  0  0  0  0  0  0  0  0  0  0  0
  -29.7855  -25.9649   20.1303 C   0  0  0  0  0  0  0  0  0  0  0  0
  -29.7491  -29.3737   19.9706 C   0  0  0  0  0  0  0  0  0  0  0  0
  -21.2779  -21.0722   23.8741 C   0  0  0  0  0  0  0  0  0  0  0  0
  -30.8304  -18.8881   20.2820 C   0  0  0  0  0  0  0  0  0  0  0  0
  -26.8489  -24.3471   18.5900 C   0  0  0  0  0  0  0  0  0  0  0  0
  -27.3764  -26.1830   20.8474 C   0  0  0  0  0  0  0  0  0  0  0  0
  -31.0702  -20.3108   20.7807 C   0  0  0  0  0  0  0  0  0  0  0  0
  -21.8045  -20.3380   20.3696 C   0  0  0  0  0  0  0  0  0  0  0  0
  -29.9073  -20.7741   21.6524 C   0  0  0  0  0  0  0  0  0  0  0  0
  -22.0314  -18.8256   20.4065 C   0  0  0  0  0  0  0  0  0  0  0  0
  -22.4323  -21.0209   21.5812 C   0  0  0  0  0  0  0  0  0  0  0  0
  -22.2027  -18.9737   22.9340 C   0  0  0  0  0  0  0  0  0  0  0  0
  -28.5969  -20.7989   20.8564 C   0  0  1  0  0  0  0  0  0  0  0  0
  -28.1416  -24.2768   19.3971 C   0  0  1  0  0  0  0  0  0  0  0  0
  -21.5722  -18.2227   21.7473 C   0  0  2  0  0  0  0  0  0  0  0  0
  -17.4590  -29.3012   24.1504 C   0  0  0  0  0  0  0  0  0  0  0  0
  -21.5548  -26.0763   24.8290 C   0  0  0  0  0  0  0  0  0  0  0  0
  -31.2769  -31.3516   19.7447 C   0  0  0  0  0  0  0  0  0  0  0  0
  -30.6239  -25.6472   23.0469 C   0  0  0  0  0  0  0  0  0  0  0  0
  -31.3208  -28.0518   23.0359 C   0  0  0  0  0  0  0  0  0  0  0  0
  -32.4438  -26.4227   21.5168 C   0  0  0  0  0  0  0  0  0  0  0  0
  -18.5932  -24.8893   25.1528 C   0  0  0  0  0  0  0  0  0  0  0  0
  -18.8464  -23.9701   22.8483 C   0  0  0  0  0  0  0  0  0  0  0  0
  -28.4652  -30.2236   17.4431 C   0  0  0  0  0  0  0  0  0  0  0  0
  -21.2284  -26.4533   20.9235 C   0  0  0  0  0  0  0  0  0  1  0  0
  -20.4021  -23.2475   24.6853 C   0  0  0  0  0  0  0  0  0  0  0  0
  -20.5972  -25.6611   23.6790 C   0  0  1  0  0  0  0  0  0  0  0  0
  -30.0737  -27.1496   21.0205 C   0  0  1  0  0  0  0  0  0  0  0  0
  -30.4087  -30.3440   19.0073 C   0  0  2  0  0  0  0  0  0  0  0  0
  -31.0889  -26.8104   22.1482 C   0  0  0  0  0  0  0  0  0  0  0  0
  -19.6295  -24.4604   24.0905 C   0  0  0  0  0  0  0  0  0  0  0  0
  -22.9147  -16.2339   21.1773 N   0  0  0  0  0  0  0  0  0  0  0  0
  -19.0489  -27.5013   23.8412 N   0  0  0  0  0  0  0  0  0  0  0  0
  -21.8403  -16.7306   21.8138 N   0  0  0  0  0  0  0  0  0  0  0  0
  -28.4518  -25.5354   20.0782 N   0  0  0  0  0  0  0  0  0  0  0  0
  -21.9395  -20.4125   22.8251 N   0  0  0  0  0  0  0  0  0  0  0  0
  -19.9874  -16.1148   23.1548 N   0  0  0  0  0  0  0  0  0  0  0  0
  -22.0807  -12.1845   22.4021 N   0  0  0  0  0  0  0  0  0  0  0  0
  -28.5435  -21.9694   20.0070 N   0  0  0  0  0  0  0  0  0  0  0  0
  -30.5004  -28.2296   20.1373 N   0  0  0  0  0  0  0  0  0  0  0  0
  -21.0739  -22.4350   23.6956 N   0  0  0  0  0  0  0  0  0  0  0  0
  -29.3754  -31.0903   18.2351 N   0  3  0  0  0  0  0  0  0  0  0  0
  -20.2794  -13.1688   23.4244 O   0  0  0  0  0  0  0  0  0  0  0  0
  -27.7255  -23.4791   21.5800 O   0  0  0  0  0  0  0  0  0  0  0  0
  -30.7084  -25.4443   19.4988 O   0  0  0  0  0  0  0  0  0  0  0  0
  -28.6766  -29.6089   20.5229 O   0  0  0  0  0  0  0  0  0  0  0  0
  -20.8922  -20.4886   24.8928 O   0  0  0  0  0  0  0  0  0  0  0  0
  -26.7276  -11.4464   19.4193 O   0  0  0  0  0  0  0  0  0  0  0  0
  -22.5470  -26.7691   21.3684 O   0  0  0  0  0  0  0  0  0  1  0  0
  -32.0073  -12.9814   19.8348 F   0  0  0  0  0  0  0  0  0  0  0  0
  -27.6271  -13.7710   18.2235 F   0  0  0  0  0  0  0  0  0  0  0  0
  1  2  1  0  0  0  0
  1  5  2  0  0  0  0
  2  6  2  0  0  0  0
  3  9  2  0  0  0  0
  3 17  1  0  0  0  0
  4 10  1  0  0  0  0
  4 17  2  0  0  0  0
  5 19  1  0  0  0  0
  6 21  1  0  0  0  0
  7 11  2  0  0  0  0
  7 20  1  0  0  0  0
  8 14  2  0  0  0  0
  8 23  1  0  0  0  0
  9 24  1  0  0  0  0
 10 24  2  0  0  0  0
 11 25  1  0  0  0  0
 12 13  2  0  0  0  0
 12 26  1  0  0  0  0
 13 27  1  0  0  0  0
 14 30  1  0  0  0  0
 15 22  1  0  0  0  0
 15 25  2  0  0  0  0
 16 27  2  0  0  0  0
 16 28  1  0  0  0  0
 17 29  1  0  0  0  0
 18 29  1  0  0  0  0
 18 32  2  0  0  0  0
 18 33  1  0  0  0  0
 19 21  2  0  0  0  0
 19 38  1  0  0  0  0
 20 22  2  0  0  0  0
 20 39  1  0  0  0  0
 21 47  1  0  0  0  0
 22 40  1  0  0  0  0
 23 31  2  0  0  0  0
 23 59  1  0  0  0  0
 24 82  1  0  0  0  0
 25 83  1  0  0  0  0
 26 28  2  0  0  0  0
 26 82  1  0  0  0  0
 27 84  1  0  0  0  0
 28 85  1  0  0  0  0
 29 66  2  0  0  0  0
 30 50  1  0  0  0  0
 30 67  2  0  0  0  0
 31 61  1  0  0  0  0
 31 67  1  0  0  0  0
 32 68  1  0  0  0  0
 32 71  1  0  0  0  0
 33 72  1  0  0  0  0
 33 77  2  0  0  0  0
 34 48  1  0  0  0  0
 34 73  1  0  0  0  0
 34 78  2  0  0  0  0
 35 62  1  0  0  0  0
 35 69  1  0  0  0  0
 35 79  2  0  0  0  0
 36 63  1  0  0  0  0
 36 74  1  0  0  0  0
 36 80  2  0  0  0  0
 37 70  1  0  0  0  0
 37 75  1  0  0  0  0
 37 81  2  0  0  0  0
 38 41  1  0  0  0  0
 39 48  1  0  0  0  0
 40 69  1  0  0  0  0
 41 43  1  0  0  0  0
 42 44  1  0  0  0  0
 42 45  1  0  0  0  0
 43 47  1  0  0  0  0
 44 49  1  0  0  0  0
 45 70  1  0  0  0  0
 46 49  1  0  0  0  0
 46 70  1  0  0  0  0
 47 73  1  0  0  0  0
 48 69  1  0  0  0  0
 49 68  1  0  0  0  0
 51 61  1  0  0  0  0
 52 63  1  0  0  0  0
 53 64  1  0  0  0  0
 54 64  1  0  0  0  0
 55 64  1  0  0  0  0
 56 65  1  0  0  0  0
 57 65  1  0  0  0  0
 58 76  1  0  0  0  0
 59 83  1  0  0  0  0
 60 65  1  0  0  0  0
 60 75  1  0  0  0  0
 61 65  1  0  0  0  0
 62 64  1  0  0  0  0
 62 74  1  0  0  0  0
 63 76  1  0  0  0  0
 66 68  1  0  0  0  0
M  CHG  1  76   1
M  ISO  4  37 100  59 101  75 100  83 101
M  END
> <Batch ID>
0086

> <Smiles>
CNC(C)C(=O)NC(C(=O)N1Cc2cc([101O:1][101CH2:1]c3ccc(C)nc3C(C)C(C)(C)C[100NH:0][100C:0](=O)N3CCCC(n4nc(-c5ccc(Oc6ccc(F)cc6F)cc5)c(C(N)=O)c4N)C3)ccc2CC1C(=O)NC1CCCc2ccccc21)C(C)(C)C

> <Shape>
0.229

> <Color>
0.073

> <Negative vol penalty>
0.000

$$$$

  -OEChem-04052318593D

 89 97  0     1  0  0  0  0  0999 V2000
  -15.8877  -28.5142   21.6492 C   0  0  0  0  0  0  0  0  0  0  0  0
  -15.8888  -27.2612   21.0446 C   0  0  0  0  0  0  0  0  0  0  0  0
  -28.5396  -25.7616   21.1338 C   0  0  0  0  0  0  0  0  0  0  0  0
  -26.1680  -25.4178   20.8270 C   0  0  0  0  0  0  0  0  0  0  0  0
  -17.0094  -28.9473   22.3551 C   0  0  0  0  0  0  0  0  0  0  0  0
  -17.0120  -26.4410   21.1448 C   0  0  0  0  0  0  0  0  0  0  0  0
  -18.8616  -19.5320   21.5456 C   0  0  0  0  0  0  0  0  0  0  0  0
  -28.4032  -27.0828   20.7080 C   0  0  0  0  0  0  0  0  0  0  0  0
  -26.0315  -26.7391   20.4012 C   0  0  0  0  0  0  0  0  0  0  0  0
  -19.7030  -18.6049   20.9321 C   0  0  0  0  0  0  0  0  0  0  0  0
  -24.9987  -30.1262   19.5770 C   0  0  0  0  0  0  0  0  0  0  0  0
  -23.9347  -30.8673   20.0908 C   0  0  0  0  0  0  0  0  0  0  0  0
  -21.5537  -19.4255   22.2439 C   0  0  0  0  0  0  0  0  0  0  0  0
  -24.7921  -30.5480   22.3269 C   0  0  0  0  0  0  0  0  0  0  0  0
  -23.9623  -12.6695   21.8157 C   0  0  0  0  0  0  0  0  0  0  0  0
  -27.4220  -24.9291   21.1933 C   0  0  0  0  0  0  0  0  0  0  0  0
  -27.4617  -23.0806   22.9508 C   0  0  0  0  0  0  0  0  0  0  0  0
  -18.1433  -28.1280   22.4721 C   0  0  0  0  0  0  0  0  0  0  0  0
  -19.3631  -20.4216   22.5066 C   0  0  0  0  0  0  0  0  0  0  0  0
  -18.1504  -26.8641   21.8518 C   0  0  0  0  0  0  0  0  0  0  0  0
  -20.7160  -20.3612   22.8700 C   0  0  0  0  0  0  0  0  0  0  0  0
  -24.7649  -13.7025   21.3763 C   0  0  0  0  0  0  0  0  0  0  0  0
  -27.1492  -27.5716   20.3417 C   0  0  0  0  0  0  0  0  0  0  0  0
  -21.0499  -18.5535   21.2792 C   0  0  0  0  0  0  0  0  0  0  0  0
  -25.9595  -29.5958   20.4381 C   0  0  0  0  0  0  0  0  0  0  0  0
  -23.8314  -31.0783   21.4658 C   0  0  0  0  0  0  0  0  0  0  0  0
  -25.8562  -29.8068   21.8130 C   0  0  0  0  0  0  0  0  0  0  0  0
  -27.5624  -23.5640   21.6325 C   0  0  0  0  0  0  0  0  0  0  0  0
  -25.8261  -13.3345   20.5746 C   0  0  0  0  0  0  0  0  0  0  0  0
  -27.6715  -21.7279   22.8375 C   0  0  0  0  0  0  0  0  0  0  0  0
  -25.2371  -11.1435   20.7142 C   0  0  0  0  0  0  0  0  0  0  0  0
  -27.2016  -23.7907   24.1690 C   0  0  0  0  0  0  0  0  0  0  0  0
  -19.6089  -23.5832   22.7246 C   0  0  0  0  0  0  0  0  0  0  0  0
  -20.6406  -22.9058   25.7244 C   0  0  0  0  0  0  0  0  0  0  0  0
  -22.0551  -20.6525   27.8619 C   0  0  0  0  0  0  0  0  0  0  0  0
  -26.8186  -17.9768   18.3590 C   0  0  0  0  0  0  0  0  0  0  0  0
  -19.3497  -28.6586   23.2053 C   0  0  0  0  0  0  0  0  0  0  0  0
  -18.4367  -21.3978   23.1784 C   0  0  0  0  0  0  0  0  0  0  0  0
  -21.2994  -21.2806   23.9105 C   0  0  0  0  0  0  0  0  0  0  0  0
  -20.3587  -27.5765   23.5810 C   0  0  0  0  0  0  0  0  0  0  0  0
  -29.9363  -18.5045   20.1194 C   0  0  0  0  0  0  0  0  0  0  0  0
  -20.6221  -26.6566   22.3931 C   0  0  0  0  0  0  0  0  0  0  0  0
  -29.6610  -19.8280   20.8356 C   0  0  0  0  0  0  0  0  0  0  0  0
  -29.3076  -18.4870   18.7292 C   0  0  0  0  0  0  0  0  0  0  0  0
  -27.5658  -20.0848   19.4269 C   0  0  0  0  0  0  0  0  0  0  0  0
  -19.3404  -25.9354   21.9590 C   0  0  1  0  0  0  0  0  0  0  0  0
  -19.1640  -22.6008   23.7709 C   0  0  1  0  0  0  0  0  0  0  0  0
  -28.1562  -20.1565   20.8469 C   0  0  2  0  0  0  0  0  0  0  0  0
  -25.0618   -9.4023   18.9186 C   0  0  0  0  0  0  0  0  0  0  0  0
  -27.8586  -14.6740   21.0861 C   0  0  0  0  0  0  0  0  0  0  0  0
  -22.8079  -20.3997   30.2424 C   0  0  0  0  0  0  0  0  0  0  0  0
  -23.1151  -24.5846   25.1177 C   0  0  0  0  0  0  0  0  0  0  0  0
  -24.2268  -23.5368   27.1012 C   0  0  0  0  0  0  0  0  0  0  0  0
  -22.1686  -24.9120   27.4093 C   0  0  0  0  0  0  0  0  0  0  0  0
  -27.6341  -14.0419   16.1814 C   0  0  0  0  0  0  0  0  0  0  0  0
  -25.4432  -13.4514   17.1859 C   0  0  0  0  0  0  0  0  0  0  0  0
  -20.1552  -18.4363   28.3492 C   0  0  0  0  0  0  0  0  0  0  0  0
  -24.4789  -15.1318   21.7624 C   0  0  0  0  0  0  0  0  0  0  0  0
  -25.4990   -9.7223   20.3457 C   0  0  0  0  0  0  0  0  0  0  0  0
  -23.3146  -15.7570   20.9911 C   0  0  0  0  0  0  0  0  0  0  0  0
  -27.4500  -14.0271   18.6812 C   0  0  0  0  0  0  0  0  0  0  0  0
  -26.2224  -15.8255   17.2758 C   0  0  0  0  0  0  0  0  0  0  0  0
  -22.9781  -17.1717   21.4478 C   0  0  0  0  0  0  0  0  0  1  0  0
  -26.7619  -14.3680   20.0402 C   0  0  1  0  0  0  0  0  0  0  0  0
  -21.9826  -22.6217   26.3548 C   0  0  1  0  0  0  0  0  0  0  0  0
  -21.6638  -20.2068   29.2593 C   0  0  2  0  0  0  0  0  0  0  0  0
  -22.8630  -23.8976   26.4747 C   0  0  0  0  0  0  0  0  0  0  0  0
  -26.6811  -14.3513   17.3612 C   0  0  0  0  0  0  0  0  0  0  0  0
  -24.1700  -11.3736   21.5027 N   0  0  0  0  0  0  0  0  0  0  0  0
  -27.8166  -22.5971   20.7468 N   0  0  0  0  0  0  0  0  0  0  0  0
  -26.0929  -12.0597   20.2225 N   0  0  0  0  0  0  0  0  0  0  0  0
  -27.8775  -21.4926   21.5100 N   0  0  0  0  0  0  0  0  0  0  0  0
  -20.3547  -22.2218   24.5344 N   0  0  0  0  0  0  0  0  0  0  0  0
  -27.8716  -18.7888   18.8121 N   0  0  0  0  0  0  0  0  0  0  0  0
  -27.6982  -20.7288   23.7449 N   0  0  0  0  0  0  0  0  0  0  0  0
  -27.0095  -25.1776   24.1059 N   0  0  0  0  0  0  0  0  0  0  0  0
  -19.0482  -24.8392   22.8576 N   0  0  0  0  0  0  0  0  0  0  0  0
  -21.7050  -21.9655   27.6278 N   0  0  0  0  0  0  0  0  0  0  0  0
  -27.1936  -16.7692   17.7830 N   0  0  0  0  0  0  0  0  0  0  0  0
  -21.2848  -18.7655   29.2561 N   0  3  0  0  0  0  0  0  0  0  0  0
  -27.1576  -23.2148   25.2825 O   0  0  0  0  0  0  0  0  0  0  0  0
  -20.4031  -23.2284   21.8616 O   0  0  0  0  0  0  0  0  0  0  0  0
  -19.8714  -23.6997   26.2717 O   0  0  0  0  0  0  0  0  0  0  0  0
  -22.6187  -19.9114   27.0597 O   0  0  0  0  0  0  0  0  0  0  0  0
  -25.6310  -18.3016   18.4650 O   0  0  0  0  0  0  0  0  0  0  0  0
  -27.0157  -28.8609   19.9263 O   0  0  0  0  0  0  0  0  0  0  0  0
  -21.8735  -17.6500   20.6814 O   0  0  0  0  0  0  0  0  0  1  0  0
  -22.8104  -31.7914   21.9590 F   0  0  0  0  0  0  0  0  0  0  0  0
  -26.7767  -29.3008   22.6451 F   0  0  0  0  0  0  0  0  0  0  0  0
  1  2  1  0  0  0  0
  1  5  2  0  0  0  0
  2  6  2  0  0  0  0
  3  8  2  0  0  0  0
  3 16  1  0  0  0  0
  4  9  1  0  0  0  0
  4 16  2  0  0  0  0
  5 18  1  0  0  0  0
  6 20  1  0  0  0  0
  7 10  2  0  0  0  0
  7 19  1  0  0  0  0
  8 23  1  0  0  0  0
  9 23  2  0  0  0  0
 10 24  1  0  0  0  0
 11 12  2  0  0  0  0
 11 25  1  0  0  0  0
 12 26  1  0  0  0  0
 13 21  1  0  0  0  0
 13 24  2  0  0  0  0
 14 26  2  0  0  0  0
 14 27  1  0  0  0  0
 15 22  1  0  0  0  0
 15 69  2  0  0  0  0
 16 28  1  0  0  0  0
 17 28  1  0  0  0  0
 17 30  2  0  0  0  0
 17 32  1  0  0  0  0
 18 20  2  0  0  0  0
 18 37  1  0  0  0  0
 19 21  2  0  0  0  0
 19 38  1  0  0  0  0
 20 46  1  0  0  0  0
 21 39  1  0  0  0  0
 22 29  2  0  0  0  0
 22 58  1  0  0  0  0
 23 86  1  0  0  0  0
 24 87  1  0  0  0  0
 25 27  2  0  0  0  0
 25 86  1  0  0  0  0
 26 88  1  0  0  0  0
 27 89  1  0  0  0  0
 28 70  2  0  0  0  0
 29 64  1  0  0  0  0
 29 71  1  0  0  0  0
 30 72  1  0  0  0  0
 30 75  1  0  0  0  0
 31 59  1  0  0  0  0
 31 69  1  0  0  0  0
 31 71  2  0  0  0  0
 32 76  1  0  0  0  0
 32 81  2  0  0  0  0
 33 47  1  0  0  0  0
 33 77  1  0  0  0  0
 33 82  2  0  0  0  0
 34 65  1  0  0  0  0
 34 73  1  0  0  0  0
 34 83  2  0  0  0  0
 35 66  1  0  0  0  0
 35 78  1  0  0  0  0
 35 84  2  0  0  0  0
 36 74  1  0  0  0  0
 36 79  1  0  0  0  0
 36 85  2  0  0  0  0
 37 40  1  0  0  0  0
 38 47  1  0  0  0  0
 39 73  1  0  0  0  0
 40 42  1  0  0  0  0
 41 43  1  0  0  0  0
 41 44  1  0  0  0  0
 42 46  1  0  0  0  0
 43 48  1  0  0  0  0
 44 74  1  0  0  0  0
 45 48  1  0  0  0  0
 45 74  1  0  0  0  0
 46 77  1  0  0  0  0
 47 73  1  0  0  0  0
 48 72  1  0  0  0  0
 49 59  1  0  0  0  0
 50 64  1  0  0  0  0
 51 66  1  0  0  0  0
 52 67  1  0  0  0  0
 53 67  1  0  0  0  0
 54 67  1  0  0  0  0
 55 68  1  0  0  0  0
 56 68  1  0  0  0  0
 57 80  1  0  0  0  0
 58 60  1  0  0  0  0
 60 63  1  0  0  0  0
 61 64  1  0  0  0  0
 61 68  1  0  0  0  0
 62 68  1  0  0  0  0
 62 79  1  0  0  0  0
 63 87  1  0  0  0  0
 65 67  1  0  0  0  0
 65 78  1  0  0  0  0
 66 80  1  0  0  0  0
 70 72  1  0  0  0  0
M  CHG  1  80   1
M  ISO  4  36 100  63 101  79 100  87 101
M  END
> <Batch ID>
0086

> <Smiles>
CCc1ncc(CC[101CH2:1][101O:1]c2ccc3c(c2)CN(C(=O)C(NC(=O)C(C)NC)C(C)(C)C)C(C(=O)NC2CCCc4ccccc42)C3)c(C(C)CC(C)(C)C[100NH:0][100C:0](=O)N2CCCC(n3nc(-c4ccc(Oc5ccc(F)cc5F)cc4)c(C(N)=O)c3N)C2)n1

> <Shape>
0.207

> <Color>
0.060

> <Negative vol penalty>
0.000

$$$$

  -OEChem-04052318592D

  0  0  0     0  0  0  0  0  0999 V2000
M  END
$$$$

  -OEChem-04052318593D

 85 93  0     1  0  0  0  0  0999 V2000
  -18.6744  -31.2580   23.1818 C   0  0  0  0  0  0  0  0  0  0  0  0
  -20.0415  -31.1792   22.9369 C   0  0  0  0  0  0  0  0  0  0  0  0
  -26.1745  -12.4856   21.4637 C   0  0  0  0  0  0  0  0  0  0  0  0
  -25.9675  -13.4455   19.2563 C   0  0  0  0  0  0  0  0  0  0  0  0
  -17.9164  -30.0919   23.2794 C   0  0  0  0  0  0  0  0  0  0  0  0
  -20.6518  -29.9340   22.7905 C   0  0  0  0  0  0  0  0  0  0  0  0
  -25.3365  -28.5411   19.1000 C   0  0  0  0  0  0  0  0  0  0  0  0
  -24.9510  -11.8370   21.2964 C   0  0  0  0  0  0  0  0  0  0  0  0
  -24.7440  -12.7968   19.0890 C   0  0  0  0  0  0  0  0  0  0  0  0
  -26.7060  -28.4160   19.3291 C   0  0  0  0  0  0  0  0  0  0  0  0
  -21.6693  -12.6295   21.4601 C   0  0  0  0  0  0  0  0  0  0  0  0
  -20.7632  -12.6735   22.5196 C   0  0  0  0  0  0  0  0  0  0  0  0
  -26.4388  -26.0327   19.5889 C   0  0  0  0  0  0  0  0  0  0  0  0
  -31.6367  -22.0595   18.0981 C   0  0  0  0  0  0  0  0  0  0  0  0
  -20.8020  -10.2614   22.6528 C   0  0  0  0  0  0  0  0  0  0  0  0
  -29.7394  -22.8993   17.2235 C   0  0  0  0  0  0  0  0  0  0  0  0
  -26.6827  -13.2899   20.4436 C   0  0  0  0  0  0  0  0  0  0  0  0
  -29.2223  -13.4687   20.2823 C   0  0  0  0  0  0  0  0  0  0  0  0
  -18.5160  -28.8320   23.1246 C   0  0  0  0  0  0  0  0  0  0  0  0
  -24.5048  -27.4123   19.1245 C   0  0  0  0  0  0  0  0  0  0  0  0
  -19.9014  -28.7498   22.8875 C   0  0  0  0  0  0  0  0  0  0  0  0
  -25.0595  -26.1458   19.3573 C   0  0  0  0  0  0  0  0  0  0  0  0
  -31.0970  -23.1119   17.3182 C   0  0  0  0  0  0  0  0  0  0  0  0
  -24.2358  -11.9926   20.1091 C   0  0  0  0  0  0  0  0  0  0  0  0
  -27.2570  -27.1621   19.5765 C   0  0  0  0  0  0  0  0  0  0  0  0
  -22.1418  -11.4016   20.9969 C   0  0  0  0  0  0  0  0  0  0  0  0
  -20.3295  -11.4895   23.1160 C   0  0  0  0  0  0  0  0  0  0  0  0
  -21.7081  -10.2175   21.5932 C   0  0  0  0  0  0  0  0  0  0  0  0
  -27.9462  -13.9606   20.6161 C   0  0  0  0  0  0  0  0  0  0  0  0
  -30.5924  -21.2357   18.4561 C   0  0  0  0  0  0  0  0  0  0  0  0
  -30.0834  -14.4775   20.6393 C   0  0  0  0  0  0  0  0  0  0  0  0
  -29.5959  -12.2123   19.7014 C   0  0  0  0  0  0  0  0  0  0  0  0
  -22.0363  -26.4829   20.8983 C   0  0  0  0  0  0  0  0  0  0  0  0
  -30.2850  -20.2828   20.7125 C   0  0  0  0  0  0  0  0  0  0  0  0
  -21.9197  -24.0442   18.7626 C   0  0  0  0  0  0  0  0  0  0  0  0
  -23.5622  -22.1121   16.4788 C   0  0  0  0  0  0  0  0  0  0  0  0
  -17.6641  -27.5979   23.2855 C   0  0  0  0  0  0  0  0  0  0  0  0
  -23.0335  -27.5606   18.8489 C   0  0  0  0  0  0  0  0  0  0  0  0
  -24.2129  -24.9002   19.3740 C   0  0  0  0  0  0  0  0  0  0  0  0
  -18.3206  -26.3300   22.7456 C   0  0  0  0  0  0  0  0  0  0  0  0
  -29.8569  -18.3456   23.6965 C   0  0  0  0  0  0  0  0  0  0  0  0
  -19.7682  -26.2360   23.2172 C   0  0  0  0  0  0  0  0  0  0  0  0
  -29.4137  -16.9786   23.1766 C   0  0  0  0  0  0  0  0  0  0  0  0
  -29.3046  -19.4766   22.8347 C   0  0  0  0  0  0  0  0  0  0  0  0
  -29.1976  -17.9878   20.8615 C   0  0  0  0  0  0  0  0  0  0  0  0
  -20.5954  -27.4183   22.6982 C   0  0  1  0  0  0  0  0  0  0  0  0
  -22.2022  -26.4095   19.4068 C   0  0  1  0  0  0  0  0  0  0  0  0
  -29.7591  -16.8158   21.6857 C   0  0  2  0  0  0  0  0  0  0  0  0
  -27.8994  -20.0017   17.1438 C   0  0  0  0  0  0  0  0  0  0  0  0
  -23.2128  -20.1740   14.9234 C   0  0  0  0  0  0  0  0  0  0  0  0
  -22.0033  -22.1279   21.1355 C   0  0  0  0  0  0  0  0  0  0  0  0
  -22.6061  -20.2926   19.5429 C   0  0  0  0  0  0  0  0  0  0  0  0
  -20.4177  -21.4685   19.3175 C   0  0  0  0  0  0  0  0  0  0  0  0
  -24.2237  -23.7493   14.1037 C   0  0  0  0  0  0  0  0  0  0  0  0
  -31.8659  -24.2550   16.7046 C   0  0  0  0  0  0  0  0  0  0  0  0
  -31.9819  -25.4829   17.6148 C   0  0  0  0  0  0  0  0  0  0  0  0
  -30.6265  -26.1195   17.9382 C   0  0  0  0  0  0  0  0  0  0  0  0
  -30.7870  -27.3189   18.8707 C   0  0  0  0  0  0  0  0  0  0  0  0
  -28.1163  -21.1980   18.0545 C   0  0  0  0  0  0  0  0  0  0  0  0
  -31.9086  -19.1853   19.2199 C   0  0  0  0  0  0  0  0  0  0  0  0
  -29.4501  -27.9846   19.1647 C   0  0  0  0  0  0  0  0  0  1  0  0
  -30.5948  -19.9988   19.2643 C   0  0  2  0  0  0  0  0  0  0  0  0
  -22.5443  -22.6730   18.6705 C   0  0  1  0  0  0  0  0  0  0  0  0
  -23.1948  -21.6878   15.0683 C   0  0  2  0  0  0  0  0  0  0  0  0
  -21.9088  -21.6640   19.6683 C   0  0  0  0  0  0  0  0  0  0  0  0
  -27.9882  -15.1865   21.1446 N   0  0  0  0  0  0  0  0  0  0  0  0
  -29.4440  -21.7558   17.9187 N   0  0  0  0  0  0  0  0  0  0  0  0
  -29.3012  -15.4734   21.1458 N   0  0  0  0  0  0  0  0  0  0  0  0
  -22.7789  -25.0978   19.1053 N   0  0  0  0  0  0  0  0  0  0  0  0
  -29.6346  -19.2736   21.4229 N   0  0  0  0  0  0  0  0  0  0  0  0
  -31.4257  -14.6009   20.5662 N   0  0  0  0  0  0  0  0  0  0  0  0
  -28.5853  -11.2904   19.3961 N   0  0  0  0  0  0  0  0  0  0  0  0
  -20.9418  -27.2209   21.3070 N   0  0  0  0  0  0  0  0  0  0  0  0
  -22.4453  -22.2724   17.2712 N   0  0  0  0  0  0  0  0  0  0  0  0
  -31.9671  -18.4033   17.9591 N   0  3  0  0  0  0  0  0  0  0  0  0
  -24.1560  -22.2653   14.0867 N   0  3  0  0  0  0  0  0  0  0  0  0
  -30.7920  -11.9092   19.4753 O   0  0  0  0  0  0  0  0  0  0  0  0
  -22.8408  -25.9111   21.6246 O   0  0  0  0  0  0  0  0  0  0  0  0
  -30.6145  -21.3685   21.1970 O   0  0  0  0  0  0  0  0  0  0  0  0
  -20.7152  -24.1768   18.5317 O   0  0  0  0  0  0  0  0  0  0  0  0
  -24.7241  -22.2806   16.8423 O   0  0  0  0  0  0  0  0  0  0  0  0
  -23.0420  -11.3596   19.9454 O   0  0  0  0  0  0  0  0  0  0  0  0
  -28.5933  -27.0373   19.8011 O   0  0  0  0  0  0  0  0  0  1  0  0
  -19.4605  -11.5319   24.1344 F   0  0  0  0  0  0  0  0  0  0  0  0
  -22.1594   -9.0349   21.1534 F   0  0  0  0  0  0  0  0  0  0  0  0
  1  2  1  0  0  0  0
  1  5  2  0  0  0  0
  2  6  2  0  0  0  0
  3  8  2  0  0  0  0
  3 17  1  0  0  0  0
  4  9  1  0  0  0  0
  4 17  2  0  0  0  0
  5 19  1  0  0  0  0
  6 21  1  0  0  0  0
  7 10  2  0  0  0  0
  7 20  1  0  0  0  0
  8 24  1  0  0  0  0
  9 24  2  0  0  0  0
 10 25  1  0  0  0  0
 11 12  2  0  0  0  0
 11 26  1  0  0  0  0
 12 27  1  0  0  0  0
 13 22  1  0  0  0  0
 13 25  2  0  0  0  0
 14 23  1  0  0  0  0
 14 30  2  0  0  0  0
 15 27  2  0  0  0  0
 15 28  1  0  0  0  0
 16 23  2  0  0  0  0
 16 67  1  0  0  0  0
 17 29  1  0  0  0  0
 18 29  1  0  0  0  0
 18 31  2  0  0  0  0
 18 32  1  0  0  0  0
 19 21  2  0  0  0  0
 19 37  1  0  0  0  0
 20 22  2  0  0  0  0
 20 38  1  0  0  0  0
 21 46  1  0  0  0  0
 22 39  1  0  0  0  0
 23 55  1  0  0  0  0
 24 82  1  0  0  0  0
 25 83  1  0  0  0  0
 26 28  2  0  0  0  0
 26 82  1  0  0  0  0
 27 84  1  0  0  0  0
 28 85  1  0  0  0  0
 29 66  2  0  0  0  0
 30 62  1  0  0  0  0
 30 67  1  0  0  0  0
 31 68  1  0  0  0  0
 31 71  1  0  0  0  0
 32 72  1  0  0  0  0
 32 77  2  0  0  0  0
 33 47  1  0  0  0  0
 33 73  1  0  0  0  0
 33 78  2  0  0  0  0
 34 62  1  0  0  0  0
 34 70  1  0  0  0  0
 34 79  2  0  0  0  0
 35 63  1  0  0  0  0
 35 69  1  0  0  0  0
 35 80  2  0  0  0  0
 36 64  1  0  0  0  0
 36 74  1  0  0  0  0
 36 81  2  0  0  0  0
 37 40  1  0  0  0  0
 38 47  1  0  0  0  0
 39 69  1  0  0  0  0
 40 42  1  0  0  0  0
 41 43  1  0  0  0  0
 41 44  1  0  0  0  0
 42 46  1  0  0  0  0
 43 48  1  0  0  0  0
 44 70  1  0  0  0  0
 45 48  1  0  0  0  0
 45 70  1  0  0  0  0
 46 73  1  0  0  0  0
 47 69  1  0  0  0  0
 48 68  1  0  0  0  0
 49 59  1  0  0  0  0
 50 64  1  0  0  0  0
 51 65  1  0  0  0  0
 52 65  1  0  0  0  0
 53 65  1  0  0  0  0
 54 76  1  0  0  0  0
 55 56  1  0  0  0  0
 56 57  1  0  0  0  0
 57 58  1  0  0  0  0
 58 61  1  0  0  0  0
 59 67  1  0  0  0  0
 60 62  1  0  0  0  0
 60 75  1  0  0  0  0
 61 83  1  0  0  0  0
 63 65  1  0  0  0  0
 63 74  1  0  0  0  0
 64 76  1  0  0  0  0
 66 68  1  0  0  0  0
M  CHG  2  75   1  76   1
M  ISO  4  34 100  61 101  62 100  83 101
M  END
> <Batch ID>
0086

> <Smiles>
CCn1cc(CCCC[101CH2:1][101O:1]c2ccc3c(c2)CN(C(=O)C(NC(=O)C(C)NC)C(C)(C)C)C(C(=O)NC2CCCc4ccccc42)C3)cc1[100CH:0](CN)[100C:0](=O)N1CCCC(n2nc(-c3ccc(Oc4ccc(F)cc4F)cc3)c(C(N)=O)c2N)C1

> <Shape>
0.263

> <Color>
0.066

> <Negative vol penalty>
0.000

$$$$

  -OEChem-04052318593D

 84 92  0     1  0  0  0  0  0999 V2000
  -28.9419  -26.5782   15.3394 C   0  0  0  0  0  0  0  0  0  0  0  0
  -27.9007  -26.3129   16.2231 C   0  0  0  0  0  0  0  0  0  0  0  0
  -25.4353  -13.8928   20.7795 C   0  0  0  0  0  0  0  0  0  0  0  0
  -27.4605  -13.1465   21.8651 C   0  0  0  0  0  0  0  0  0  0  0  0
  -30.0006  -27.3941   15.7362 C   0  0  0  0  0  0  0  0  0  0  0  0
  -27.9181  -26.8625   17.5045 C   0  0  0  0  0  0  0  0  0  0  0  0
  -23.4316  -28.7837   18.8555 C   0  0  0  0  0  0  0  0  0  0  0  0
  -25.1120  -12.5709   20.4736 C   0  0  0  0  0  0  0  0  0  0  0  0
  -27.1372  -11.8245   21.5592 C   0  0  0  0  0  0  0  0  0  0  0  0
  -22.4496  -27.8820   19.2634 C   0  0  0  0  0  0  0  0  0  0  0  0
  -23.5737   -9.3639   19.7226 C   0  0  0  0  0  0  0  0  0  0  0  0
  -22.2601   -8.9499   19.9428 C   0  0  0  0  0  0  0  0  0  0  0  0
  -22.9464  -28.3928   21.5680 C   0  0  0  0  0  0  0  0  0  0  0  0
  -26.9130  -22.1272   21.7491 C   0  0  0  0  0  0  0  0  0  0  0  0
  -22.4868   -9.4787   22.2894 C   0  0  0  0  0  0  0  0  0  0  0  0
  -26.6096  -14.1806   21.4752 C   0  0  0  0  0  0  0  0  0  0  0  0
  -26.5879  -16.2627   22.9490 C   0  0  0  0  0  0  0  0  0  0  0  0
  -30.0262  -27.9618   17.0198 C   0  0  0  0  0  0  0  0  0  0  0  0
  -24.1871  -29.4899   19.8025 C   0  0  0  0  0  0  0  0  0  0  0  0
  -28.9788  -27.6857   17.9193 C   0  0  0  0  0  0  0  0  0  0  0  0
  -23.9356  -29.3048   21.1695 C   0  0  0  0  0  0  0  0  0  0  0  0
  -25.7110  -22.7117   22.2422 C   0  0  0  0  0  0  0  0  0  0  0  0
  -25.9630  -11.5367   20.8635 C   0  0  0  0  0  0  0  0  0  0  0  0
  -22.2088  -27.6843   20.6198 C   0  0  0  0  0  0  0  0  0  0  0  0
  -24.3440   -9.8352   20.7858 C   0  0  0  0  0  0  0  0  0  0  0  0
  -21.7166   -9.0073   21.2262 C   0  0  0  0  0  0  0  0  0  0  0  0
  -23.8005   -9.8927   22.0691 C   0  0  0  0  0  0  0  0  0  0  0  0
  -26.9443  -15.5461   21.7909 C   0  0  0  0  0  0  0  0  0  0  0  0
  -27.0791  -22.3461   20.3992 C   0  0  0  0  0  0  0  0  0  0  0  0
  -25.0041  -23.3554   21.2504 C   0  0  0  0  0  0  0  0  0  0  0  0
  -27.1438  -17.5056   22.7683 C   0  0  0  0  0  0  0  0  0  0  0  0
  -25.8228  -15.8425   24.0864 C   0  0  0  0  0  0  0  0  0  0  0  0
  -28.1757  -21.9122   19.5239 C   0  0  0  0  0  0  0  0  0  0  0  0
  -27.2726  -29.6381   20.5518 C   0  0  0  0  0  0  0  0  0  0  0  0
  -26.2769  -32.0022   22.5372 C   0  0  0  0  0  0  0  0  0  0  0  0
  -23.7302  -33.4026   24.3261 C   0  0  0  0  0  0  0  0  0  0  0  0
  -31.2152  -28.7991   17.4197 C   0  0  0  0  0  0  0  0  0  0  0  0
  -25.2244  -30.4788   19.3459 C   0  0  0  0  0  0  0  0  0  0  0  0
  -24.7053  -30.0533   22.2259 C   0  0  0  0  0  0  0  0  0  0  0  0
  -30.9721  -29.6461   18.6662 C   0  0  0  0  0  0  0  0  0  0  0  0
  -30.4611  -19.1766   19.3360 C   0  0  0  0  0  0  0  0  0  0  0  0
  -30.3173  -28.8095   19.7608 C   0  0  0  0  0  0  0  0  0  0  0  0
  -29.7149  -18.0391   20.0355 C   0  0  0  0  0  0  0  0  0  0  0  0
  -29.5099  -20.0742   18.5485 C   0  0  0  0  0  0  0  0  0  0  0  0
  -27.6324  -19.4757   20.0390 C   0  0  0  0  0  0  0  0  0  0  0  0
  -28.9495  -28.2835   19.3092 C   0  0  1  0  0  0  0  0  0  0  0  0
  -26.2864  -30.7621   20.4038 C   0  0  1  0  0  0  0  0  0  0  0  0
  -28.5485  -18.5768   20.8857 C   0  0  1  0  0  0  0  0  0  0  0  0
  -25.2820  -22.6301   23.6589 C   0  0  0  0  0  0  0  0  0  0  0  0
  -23.2302  -35.3077   25.8811 C   0  0  0  0  0  0  0  0  0  0  0  0
  -27.6721  -30.5134   24.8059 C   0  0  0  0  0  0  0  0  0  0  0  0
  -26.3664  -31.9037   26.4278 C   0  0  0  0  0  0  0  0  0  0  0  0
  -27.9632  -32.9969   24.8536 C   0  0  0  0  0  0  0  0  0  0  0  0
  -20.9907  -24.1221   23.6713 C   0  0  0  0  0  0  0  0  0  0  0  0
  -19.2329  -24.9782   22.1158 C   0  0  0  0  0  0  0  0  0  0  0  0
  -21.7396  -34.5533   22.4627 C   0  0  0  0  0  0  0  0  0  0  0  0
  -22.7134  -21.9061   20.6773 C   0  0  0  0  0  0  0  0  0  0  0  0
  -23.7004  -24.0913   21.3492 C   0  0  0  0  0  0  0  0  0  0  0  0
  -21.2298  -23.8487   21.1539 C   0  0  0  0  0  0  0  0  0  0  0  0
  -21.4542  -26.1494   22.2722 C   0  0  0  0  0  0  0  0  0  1  0  0
  -25.7878  -32.0648   23.9641 C   0  0  1  0  0  0  0  0  0  0  0  0
  -23.2457  -34.8371   24.4350 C   0  0  2  0  0  0  0  0  0  0  0  0
  -26.9340  -31.8540   24.9932 C   0  0  0  0  0  0  0  0  0  0  0  0
  -20.7520  -24.7736   22.2966 C   0  0  0  0  0  0  0  0  0  0  0  0
  -27.6703  -16.2732   20.9376 N   0  0  0  0  0  0  0  0  0  0  0  0
  -27.7745  -17.4598   21.5599 N   0  0  0  0  0  0  0  0  0  0  0  0
  -28.4162  -20.5418   19.3994 N   0  0  0  0  0  0  0  0  0  0  0  0
  -25.7133  -31.0045   21.7293 N   0  0  0  0  0  0  0  0  0  0  0  0
  -27.1496  -18.6224   23.5268 N   0  0  0  0  0  0  0  0  0  0  0  0
  -25.3261  -14.5321   24.1104 N   0  0  0  0  0  0  0  0  0  0  0  0
  -27.9537  -29.3306   19.3894 N   0  0  0  0  0  0  0  0  0  0  0  0
  -25.0890  -33.3382   24.1005 N   0  0  0  0  0  0  0  0  0  0  0  0
  -21.8659  -34.9609   23.8857 N   0  3  0  0  0  0  0  0  0  0  0  0
  -22.5101  -23.1717   21.4740 N   0  3  1  0  0  0  0  0  0  0  0  0
  -25.5726  -16.6114   25.0454 O   0  0  0  0  0  0  0  0  0  0  0  0
  -28.8143  -22.8054   18.9694 O   0  0  0  0  0  0  0  0  0  0  0  0
  -27.4068  -29.0915   21.6403 O   0  0  0  0  0  0  0  0  0  0  0  0
  -27.1225  -32.8134   22.1517 O   0  0  0  0  0  0  0  0  0  0  0  0
  -22.9791  -32.4358   24.4343 O   0  0  0  0  0  0  0  0  0  0  0  0
  -25.6477  -10.2466   20.5654 O   0  0  0  0  0  0  0  0  0  0  0  0
  -21.2514  -26.8043   21.0207 O   0  0  0  0  0  0  0  0  0  1  0  0
  -20.4545   -8.6112   21.4372 F   0  0  0  0  0  0  0  0  0  0  0  0
  -24.5352  -10.3456   23.0943 F   0  0  0  0  0  0  0  0  0  0  0  0
  -25.7891  -23.2531   19.7321 S   0  0  0  0  0  0  0  0  0  0  0  0
  1  2  1  0  0  0  0
  1  5  2  0  0  0  0
  2  6  2  0  0  0  0
  3  8  2  0  0  0  0
  3 16  1  0  0  0  0
  4  9  1  0  0  0  0
  4 16  2  0  0  0  0
  5 18  1  0  0  0  0
  6 20  1  0  0  0  0
  7 10  2  0  0  0  0
  7 19  1  0  0  0  0
  8 23  1  0  0  0  0
  9 23  2  0  0  0  0
 10 24  1  0  0  0  0
 11 12  2  0  0  0  0
 11 25  1  0  0  0  0
 12 26  1  0  0  0  0
 13 21  1  0  0  0  0
 13 24  2  0  0  0  0
 14 22  1  0  0  0  0
 14 29  2  0  0  0  0
 15 26  2  0  0  0  0
 15 27  1  0  0  0  0
 16 28  1  0  0  0  0
 17 28  1  0  0  0  0
 17 31  2  0  0  0  0
 17 32  1  0  0  0  0
 18 20  2  0  0  0  0
 18 37  1  0  0  0  0
 19 21  2  0  0  0  0
 19 38  1  0  0  0  0
 20 46  1  0  0  0  0
 21 39  1  0  0  0  0
 22 30  2  0  0  0  0
 22 49  1  0  0  0  0
 23 80  1  0  0  0  0
 24 81  1  0  0  0  0
 25 27  2  0  0  0  0
 25 80  1  0  0  0  0
 26 82  1  0  0  0  0
 27 83  1  0  0  0  0
 28 65  2  0  0  0  0
 29 33  1  0  0  0  0
 29 84  1  0  0  0  0
 30 58  1  0  0  0  0
 30 84  1  0  0  0  0
 31 66  1  0  0  0  0
 31 69  1  0  0  0  0
 32 70  1  0  0  0  0
 32 75  2  0  0  0  0
 33 67  1  0  0  0  0
 33 76  2  0  0  0  0
 34 47  1  0  0  0  0
 34 71  1  0  0  0  0
 34 77  2  0  0  0  0
 35 61  1  0  0  0  0
 35 68  1  0  0  0  0
 35 78  2  0  0  0  0
 36 62  1  0  0  0  0
 36 72  1  0  0  0  0
 36 79  2  0  0  0  0
 37 40  1  0  0  0  0
 38 47  1  0  0  0  0
 39 68  1  0  0  0  0
 40 42  1  0  0  0  0
 41 43  1  0  0  0  0
 41 44  1  0  0  0  0
 42 46  1  0  0  0  0
 43 48  1  0  0  0  0
 44 67  1  0  0  0  0
 45 48  1  0  0  0  0
 45 67  1  0  0  0  0
 46 71  1  0  0  0  0
 47 68  1  0  0  0  0
 48 66  1  0  0  0  0
 50 62  1  0  0  0  0
 51 63  1  0  0  0  0
 52 63  1  0  0  0  0
 53 63  1  0  0  0  0
 54 64  1  0  0  0  0
 55 64  1  0  0  0  0
 56 73  1  0  0  0  0
 57 74  1  0  0  0  0
 58 74  1  0  0  0  0
 59 64  1  0  0  0  0
 59 74  1  0  0  0  0
 60 64  1  0  0  0  0
 60 81  1  0  0  0  0
 61 63  1  0  0  0  0
 61 72  1  0  0  0  0
 62 73  1  0  0  0  0
 65 66  1  0  0  0  0
M  CHG  2  73   1  74   1
M  ISO  4  29 100  33 100  60 101  81 101
M  END
> <Batch ID>
0086

> <Smiles>
CNC(C)C(=O)NC(C(=O)N1Cc2cc([101O:1][101CH2:1]C(C)(C)CN(C)Cc3s[100c:0]([100C:0](=O)N4CCCC(n5nc(-c6ccc(Oc7ccc(F)cc7F)cc6)c(C(N)=O)c5N)C4)cc3C)ccc2CC1C(=O)NC1CCCc2ccccc21)C(C)(C)C

> <Shape>
0.247

> <Color>
0.092

> <Negative vol penalty>
0.000

$$$$

  -OEChem-04052318593D

 83 91  0     1  0  0  0  0  0999 V2000
  -15.4131  -27.5579   25.6087 C   0  0  0  0  0  0  0  0  0  0  0  0
  -16.1808  -26.4683   25.2100 C   0  0  0  0  0  0  0  0  0  0  0  0
  -30.1454  -19.8826   19.3524 C   0  0  0  0  0  0  0  0  0  0  0  0
  -28.4301  -19.9951   21.0500 C   0  0  0  0  0  0  0  0  0  0  0  0
  -15.7223  -28.8350   25.1426 C   0  0  0  0  0  0  0  0  0  0  0  0
  -17.2575  -26.6552   24.3438 C   0  0  0  0  0  0  0  0  0  0  0  0
  -21.3886  -24.1160   25.8039 C   0  0  0  0  0  0  0  0  0  0  0  0
  -29.7935  -21.1586   18.9123 C   0  0  0  0  0  0  0  0  0  0  0  0
  -28.0782  -21.2711   20.6100 C   0  0  0  0  0  0  0  0  0  0  0  0
  -21.4219  -22.7477   25.5385 C   0  0  0  0  0  0  0  0  0  0  0  0
  -29.5866  -24.5323   17.5743 C   0  0  0  0  0  0  0  0  0  0  0  0
  -30.6171  -25.4348   17.3115 C   0  0  0  0  0  0  0  0  0  0  0  0
  -22.8098  -23.1618   23.6094 C   0  0  0  0  0  0  0  0  0  0  0  0
  -31.3539  -25.2616   19.6058 C   0  0  0  0  0  0  0  0  0  0  0  0
  -23.7496  -15.2865   23.6118 C   0  0  0  0  0  0  0  0  0  0  0  0
  -29.4636  -19.3008   20.4212 C   0  0  0  0  0  0  0  0  0  0  0  0
  -30.7783  -17.6547   21.8598 C   0  0  0  0  0  0  0  0  0  0  0  0
  -16.8092  -29.0389   24.2780 C   0  0  0  0  0  0  0  0  0  0  0  0
  -22.0578  -25.0200   24.9663 C   0  0  0  0  0  0  0  0  0  0  0  0
  -17.5807  -27.9360   23.8646 C   0  0  0  0  0  0  0  0  0  0  0  0
  -22.7856  -24.5408   23.8678 C   0  0  0  0  0  0  0  0  0  0  0  0
  -28.7599  -21.8529   19.5411 C   0  0  0  0  0  0  0  0  0  0  0  0
  -22.1302  -22.2707   24.4395 C   0  0  0  0  0  0  0  0  0  0  0  0
  -29.4396  -23.9945   18.8529 C   0  0  0  0  0  0  0  0  0  0  0  0
  -31.5008  -25.7994   18.3272 C   0  0  0  0  0  0  0  0  0  0  0  0
  -30.3233  -24.3591   19.8687 C   0  0  0  0  0  0  0  0  0  0  0  0
  -29.8263  -17.9826   20.8759 C   0  0  0  0  0  0  0  0  0  0  0  0
  -22.8185  -14.5828   22.8902 C   0  0  0  0  0  0  0  0  0  0  0  0
  -30.7489  -16.2829   21.9222 C   0  0  0  0  0  0  0  0  0  0  0  0
  -31.6142  -18.5133   22.6469 C   0  0  0  0  0  0  0  0  0  0  0  0
  -21.1657  -27.4459   23.1162 C   0  0  0  0  0  0  0  0  0  0  0  0
  -24.3655  -27.8438   22.7623 C   0  0  0  0  0  0  0  0  0  0  0  0
  -27.4850  -26.4629   22.8582 C   0  0  0  0  0  0  0  0  0  0  0  0
  -26.5511  -12.2290   20.5824 C   0  0  0  0  0  0  0  0  0  0  0  0
  -17.0758  -30.4312   23.7629 C   0  0  0  0  0  0  0  0  0  0  0  0
  -22.0343  -26.4905   25.2816 C   0  0  0  0  0  0  0  0  0  0  0  0
  -23.5377  -25.4679   22.9495 C   0  0  0  0  0  0  0  0  0  0  0  0
  -18.4617  -30.5970   23.1448 C   0  0  0  0  0  0  0  0  0  0  0  0
  -29.8402  -12.4308   19.2341 C   0  0  0  0  0  0  0  0  0  0  0  0
  -18.7657  -29.4404   22.1978 C   0  0  0  0  0  0  0  0  0  0  0  0
  -30.2955  -13.8469   19.5908 C   0  0  0  0  0  0  0  0  0  0  0  0
  -28.3531  -12.3860   18.8899 C   0  0  0  0  0  0  0  0  0  0  0  0
  -27.9180  -14.3809   20.2701 C   0  0  0  0  0  0  0  0  0  0  0  0
  -18.7717  -28.1018   22.9458 C   0  0  1  0  0  0  0  0  0  0  0  0
  -22.3263  -27.3667   24.0673 C   0  0  1  0  0  0  0  0  0  0  0  0
  -29.3985  -14.4669   20.6790 C   0  0  2  0  0  0  0  0  0  0  0  0
  -29.9014  -27.0273   22.4846 C   0  0  0  0  0  0  0  0  0  0  0  0
  -23.9157  -27.7618   19.7455 C   0  0  0  0  0  0  0  0  0  0  0  0
  -26.3724  -27.3726   19.4600 C   0  0  0  0  0  0  0  0  0  0  0  0
  -25.5596  -29.4851   20.5086 C   0  0  0  0  0  0  0  0  0  0  0  0
  -28.1881  -25.8218   25.6606 C   0  0  0  0  0  0  0  0  0  0  0  0
  -22.9715  -13.9026   21.5976 C   0  0  0  0  0  0  0  0  0  0  0  0
  -23.4202  -12.4201   21.6800 C   0  0  0  0  0  0  0  0  0  0  0  0
  -22.7730  -17.7807   26.1388 C   0  0  0  0  0  0  0  0  0  0  0  0
  -22.8474  -18.7810   24.9841 C   0  0  0  0  0  0  0  0  0  0  0  0
  -23.5753  -16.5011   25.8767 C   0  0  0  0  0  0  0  0  0  0  0  0
  -24.7882  -12.2211   22.3292 C   0  0  0  0  0  0  0  0  0  0  0  0
  -22.0687  -20.0523   25.2945 C   0  0  0  0  0  0  0  0  0  1  0  0
  -25.4086  -27.3197   21.8051 C   0  0  1  0  0  0  0  0  0  0  0  0
  -28.7758  -26.9344   23.5030 C   0  0  2  0  0  0  0  0  0  0  0  0
  -25.2984  -27.9673   20.3958 C   0  0  0  0  0  0  0  0  0  0  0  0
  -29.2354  -16.9058   20.3510 N   0  0  0  0  0  0  0  0  0  0  0  0
  -21.6267  -14.5764   23.5605 N   0  0  0  0  0  0  0  0  0  0  0  0
  -21.7884  -15.2616   24.6871 N   0  0  0  0  0  0  0  0  0  0  0  0
  -23.0619  -15.6867   24.7159 N   0  0  0  0  0  0  0  0  0  0  0  0
  -29.8177  -15.8879   21.0074 N   0  0  0  0  0  0  0  0  0  0  0  0
  -23.4792  -26.8976   23.2960 N   0  0  0  0  0  0  0  0  0  0  0  0
  -27.5579  -12.9878   19.9629 N   0  0  0  0  0  0  0  0  0  0  0  0
  -31.4292  -15.3881   22.6699 N   0  0  0  0  0  0  0  0  0  0  0  0
  -31.5172  -19.8984   22.4561 N   0  0  0  0  0  0  0  0  0  0  0  0
  -20.0065  -27.9403   23.6830 N   0  0  0  0  0  0  0  0  0  0  0  0
  -26.6984  -27.5217   22.4562 N   0  0  0  0  0  0  0  0  0  0  0  0
  -25.8491  -12.8729   21.5940 N   0  0  0  0  0  0  0  0  0  0  0  0
  -29.1922  -25.9910   24.5789 N   0  3  0  0  0  0  0  0  0  0  0  0
  -32.4351  -18.0647   23.4827 O   0  0  0  0  0  0  0  0  0  0  0  0
  -21.3116  -27.0865   21.9538 O   0  0  0  0  0  0  0  0  0  0  0  0
  -24.3427  -29.0473   23.0322 O   0  0  0  0  0  0  0  0  0  0  0  0
  -27.2042  -25.2743   22.7213 O   0  0  0  0  0  0  0  0  0  0  0  0
  -26.3002  -11.0624   20.2615 O   0  0  0  0  0  0  0  0  0  0  0  0
  -28.4165  -23.0981   19.1121 O   0  0  0  0  0  0  0  0  0  0  0  0
  -22.1637  -20.9356   24.1778 O   0  0  0  0  0  0  0  0  0  1  0  0
  -32.4914  -26.6649   18.0743 F   0  0  0  0  0  0  0  0  0  0  0  0
  -30.1879  -23.8449   21.0987 F   0  0  0  0  0  0  0  0  0  0  0  0
  1  2  1  0  0  0  0
  1  5  2  0  0  0  0
  2  6  2  0  0  0  0
  3  8  2  0  0  0  0
  3 16  1  0  0  0  0
  4  9  1  0  0  0  0
  4 16  2  0  0  0  0
  5 18  1  0  0  0  0
  6 20  1  0  0  0  0
  7 10  2  0  0  0  0
  7 19  1  0  0  0  0
  8 22  1  0  0  0  0
  9 22  2  0  0  0  0
 10 23  1  0  0  0  0
 11 12  2  0  0  0  0
 11 24  1  0  0  0  0
 12 25  1  0  0  0  0
 13 21  1  0  0  0  0
 13 23  2  0  0  0  0
 14 25  2  0  0  0  0
 14 26  1  0  0  0  0
 15 28  2  0  0  0  0
 15 65  1  0  0  0  0
 16 27  1  0  0  0  0
 17 27  1  0  0  0  0
 17 29  2  0  0  0  0
 17 30  1  0  0  0  0
 18 20  2  0  0  0  0
 18 35  1  0  0  0  0
 19 21  2  0  0  0  0
 19 36  1  0  0  0  0
 20 44  1  0  0  0  0
 21 37  1  0  0  0  0
 22 80  1  0  0  0  0
 23 81  1  0  0  0  0
 24 26  2  0  0  0  0
 24 80  1  0  0  0  0
 25 82  1  0  0  0  0
 26 83  1  0  0  0  0
 27 62  2  0  0  0  0
 28 52  1  0  0  0  0
 28 63  1  0  0  0  0
 29 66  1  0  0  0  0
 29 69  1  0  0  0  0
 30 70  1  0  0  0  0
 30 75  2  0  0  0  0
 31 45  1  0  0  0  0
 31 71  1  0  0  0  0
 31 76  2  0  0  0  0
 32 59  1  0  0  0  0
 32 67  1  0  0  0  0
 32 77  2  0  0  0  0
 33 60  1  0  0  0  0
 33 72  1  0  0  0  0
 33 78  2  0  0  0  0
 34 68  1  0  0  0  0
 34 73  1  0  0  0  0
 34 79  2  0  0  0  0
 35 38  1  0  0  0  0
 36 45  1  0  0  0  0
 37 67  1  0  0  0  0
 38 40  1  0  0  0  0
 39 41  1  0  0  0  0
 39 42  1  0  0  0  0
 40 44  1  0  0  0  0
 41 46  1  0  0  0  0
 42 68  1  0  0  0  0
 43 46  1  0  0  0  0
 43 68  1  0  0  0  0
 44 71  1  0  0  0  0
 45 67  1  0  0  0  0
 46 66  1  0  0  0  0
 47 60  1  0  0  0  0
 48 61  1  0  0  0  0
 49 61  1  0  0  0  0
 50 61  1  0  0  0  0
 51 74  1  0  0  0  0
 52 53  1  0  0  0  0
 53 57  1  0  0  0  0
 54 55  1  0  0  0  0
 54 56  1  0  0  0  0
 55 58  1  0  0  0  0
 56 65  1  0  0  0  0
 57 73  1  0  0  0  0
 58 81  1  0  0  0  0
 59 61  1  0  0  0  0
 59 72  1  0  0  0  0
 60 74  1  0  0  0  0
 62 66  1  0  0  0  0
 63 64  2  0  0  0  0
 64 65  1  0  0  0  0
M  CHG  1  74   1
M  ISO  4  34 100  58 101  73 100  81 101
M  END
> <Batch ID>
0086

> <Smiles>
CNC(C)C(=O)NC(C(=O)N1Cc2cc([101O:1][101CH2:1]CCCn3cc(CCC[100NH:0][100C:0](=O)N4CCCC(n5nc(-c6ccc(Oc7ccc(F)cc7F)cc6)c(C(N)=O)c5N)C4)nn3)ccc2CC1C(=O)NC1CCCc2ccccc21)C(C)(C)C

> <Shape>
0.256

> <Color>
0.063

> <Negative vol penalty>
0.000

$$$$

  -OEChem-04052318593D

 88 96  0     1  0  0  0  0  0999 V2000
  -20.6912  -16.7034   17.3858 C   0  0  0  0  0  0  0  0  0  0  0  0
  -21.6539  -17.7072   17.4196 C   0  0  0  0  0  0  0  0  0  0  0  0
  -25.9506  -12.6857   21.7440 C   0  0  0  0  0  0  0  0  0  0  0  0
  -25.0055  -13.9367   19.9058 C   0  0  0  0  0  0  0  0  0  0  0  0
  -19.3520  -17.0154   17.6161 C   0  0  0  0  0  0  0  0  0  0  0  0
  -21.2777  -19.0239   17.6825 C   0  0  0  0  0  0  0  0  0  0  0  0
  -24.3540  -21.2975   21.0010 C   0  0  0  0  0  0  0  0  0  0  0  0
  -24.8272  -11.8590   21.7590 C   0  0  0  0  0  0  0  0  0  0  0  0
  -23.8821  -13.1099   19.9208 C   0  0  0  0  0  0  0  0  0  0  0  0
  -25.5824  -21.7516   20.5228 C   0  0  0  0  0  0  0  0  0  0  0  0
  -23.6445   -9.2313   19.9899 C   0  0  0  0  0  0  0  0  0  0  0  0
  -23.8531   -7.8560   20.0925 C   0  0  0  0  0  0  0  0  0  0  0  0
  -24.6919  -23.9888   20.3776 C   0  0  0  0  0  0  0  0  0  0  0  0
  -28.6199  -25.4433   17.5547 C   0  0  0  0  0  0  0  0  0  0  0  0
  -22.5801   -7.8161   22.1456 C   0  0  0  0  0  0  0  0  0  0  0  0
  -26.0397  -13.7246   20.8174 C   0  0  0  0  0  0  0  0  0  0  0  0
  -28.3841  -14.3914   20.0647 C   0  0  0  0  0  0  0  0  0  0  0  0
  -18.9605  -18.3351   17.8916 C   0  0  0  0  0  0  0  0  0  0  0  0
  -23.2803  -22.1851   21.1611 C   0  0  0  0  0  0  0  0  0  0  0  0
  -19.9318  -19.3541   17.9154 C   0  0  0  0  0  0  0  0  0  0  0  0
  -23.4518  -23.5439   20.8605 C   0  0  0  0  0  0  0  0  0  0  0  0
  -28.4267  -25.2204   18.9135 C   0  0  0  0  0  0  0  0  0  0  0  0
  -29.8974  -25.7086   17.0742 C   0  0  0  0  0  0  0  0  0  0  0  0
  -23.7930  -12.0711   20.8474 C   0  0  0  0  0  0  0  0  0  0  0  0
  -25.7506  -23.0969   20.2083 C   0  0  0  0  0  0  0  0  0  0  0  0
  -22.9037   -9.8991   20.9652 C   0  0  0  0  0  0  0  0  0  0  0  0
  -23.3209   -7.1484   21.1703 C   0  0  0  0  0  0  0  0  0  0  0  0
  -22.3715   -9.1914   22.0430 C   0  0  0  0  0  0  0  0  0  0  0  0
  -27.1996  -14.5793   20.8019 C   0  0  0  0  0  0  0  0  0  0  0  0
  -29.5349  -25.2733   19.7434 C   0  0  0  0  0  0  0  0  0  0  0  0
  -30.9398  -25.7398   17.9864 C   0  0  0  0  0  0  0  0  0  0  0  0
  -29.1683  -15.4698   20.3943 C   0  0  0  0  0  0  0  0  0  0  0  0
  -28.7434  -13.3365   19.1626 C   0  0  0  0  0  0  0  0  0  0  0  0
  -20.3714  -22.4368   19.9046 C   0  0  0  0  0  0  0  0  0  0  0  0
  -20.0598  -24.8181   22.0851 C   0  0  0  0  0  0  0  0  0  0  0  0
  -21.5735  -27.1461   24.0689 C   0  0  0  0  0  0  0  0  0  0  0  0
  -29.7764  -20.8559   21.1470 C   0  0  0  0  0  0  0  0  0  0  0  0
  -17.4947  -18.6315   18.0873 C   0  0  0  0  0  0  0  0  0  0  0  0
  -21.9697  -21.6844   21.7033 C   0  0  0  0  0  0  0  0  0  0  0  0
  -22.3366  -24.5413   21.0338 C   0  0  0  0  0  0  0  0  0  0  0  0
  -17.2286  -19.9907   18.7293 C   0  0  0  0  0  0  0  0  0  0  0  0
  -28.6104  -18.9679   24.0059 C   0  0  0  0  0  0  0  0  0  0  0  0
  -18.0680  -21.0723   18.0567 C   0  0  0  0  0  0  0  0  0  0  0  0
  -28.2359  -17.6340   23.3572 C   0  0  0  0  0  0  0  0  0  0  0  0
  -28.2639  -20.1421   23.0951 C   0  0  0  0  0  0  0  0  0  0  0  0
  -28.4964  -18.7346   21.0855 C   0  0  0  0  0  0  0  0  0  0  0  0
  -19.5662  -20.7903   18.2218 C   0  0  1  0  0  0  0  0  0  0  0  0
  -20.7908  -22.5820   21.3401 C   0  0  1  0  0  0  0  0  0  0  0  0
  -28.8425  -17.5067   21.9473 C   0  0  2  0  0  0  0  0  0  0  0  0
  -33.3709  -25.7019   18.5985 C   0  0  0  0  0  0  0  0  0  0  0  0
  -29.3587  -27.1931   15.1096 C   0  0  0  0  0  0  0  0  0  0  0  0
  -29.7392  -24.7260   14.7582 C   0  0  0  0  0  0  0  0  0  0  0  0
  -29.0242  -26.3482   21.9507 C   0  0  0  0  0  0  0  0  0  0  0  0
  -21.0551  -28.9720   25.7105 C   0  0  0  0  0  0  0  0  0  0  0  0
  -32.4303  -22.6395   21.7169 C   0  0  0  0  0  0  0  0  0  0  0  0
  -19.2218  -26.6425   19.7874 C   0  0  0  0  0  0  0  0  0  0  0  0
  -19.6410  -28.6047   21.2847 C   0  0  0  0  0  0  0  0  0  0  0  0
  -17.8925  -26.9303   21.8861 C   0  0  0  0  0  0  0  0  0  0  0  0
  -23.0515  -25.7761   26.2363 C   0  0  0  0  0  0  0  0  0  0  0  0
  -27.0506  -24.9335   19.4384 C   0  0  0  0  0  0  0  0  0  1  0  0
  -32.3332  -26.0188   17.5261 C   0  0  0  0  0  0  0  0  0  0  0  0
  -30.6420  -24.4085   21.8826 C   0  0  0  0  0  0  0  0  0  0  0  0
  -30.1111  -25.9486   15.6195 C   0  0  0  0  0  0  0  0  0  0  0  0
  -29.3881  -25.0431   21.2119 C   0  0  2  0  0  0  0  0  0  0  0  0
  -20.3329  -26.3028   22.0931 C   0  0  1  0  0  0  0  0  0  0  0  0
  -21.3841  -27.4979   25.5335 C   0  0  2  0  0  0  0  0  0  0  0  0
  -30.9954  -23.0076   21.3509 C   0  0  2  0  0  0  0  0  0  0  0  0
  -19.2927  -27.1012   21.2576 C   0  0  0  0  0  0  0  0  0  0  0  0
  -27.2247  -15.6896   21.5439 N   0  0  0  0  0  0  0  0  0  0  0  0
  -30.7910  -25.5282   19.3134 N   0  0  0  0  0  0  0  0  0  0  0  0
  -28.4345  -16.2090   21.2748 N   0  0  0  0  0  0  0  0  0  0  0  0
  -21.0723  -24.0019   21.5611 N   0  0  0  0  0  0  0  0  0  0  0  0
  -28.8870  -19.9686   21.7754 N   0  0  0  0  0  0  0  0  0  0  0  0
  -30.4071  -15.8483   20.0140 N   0  0  0  0  0  0  0  0  0  0  0  0
  -27.8200  -12.3065   18.9374 N   0  0  0  0  0  0  0  0  0  0  0  0
  -20.0049  -21.1517   19.5528 N   0  0  0  0  0  0  0  0  0  0  0  0
  -20.4024  -26.6975   23.4958 N   0  0  0  0  0  0  0  0  0  0  0  0
  -30.0897  -22.0040   21.8643 N   0  0  0  0  0  0  0  0  0  0  0  0
  -22.6245  -27.1975   26.3029 N   0  3  0  0  0  0  0  0  0  0  0  0
  -29.8570  -13.2995   18.5863 O   0  0  0  0  0  0  0  0  0  0  0  0
  -20.3784  -23.4182   19.1709 O   0  0  0  0  0  0  0  0  0  0  0  0
  -18.9906  -24.3974   22.5339 O   0  0  0  0  0  0  0  0  0  0  0  0
  -22.6516  -27.2616   23.4902 O   0  0  0  0  0  0  0  0  0  0  0  0
  -30.2603  -20.6386   20.0309 O   0  0  0  0  0  0  0  0  0  0  0  0
  -22.6968  -11.2644   20.8615 O   0  0  0  0  0  0  0  0  0  0  0  0
  -26.9484  -23.5427   19.7407 O   0  0  0  0  0  0  0  0  0  1  0  0
  -23.5200   -5.8274   21.2679 F   0  0  0  0  0  0  0  0  0  0  0  0
  -21.6580   -9.8273   22.9824 F   0  0  0  0  0  0  0  0  0  0  0  0
  1  2  1  0  0  0  0
  1  5  2  0  0  0  0
  2  6  2  0  0  0  0
  3  8  2  0  0  0  0
  3 16  1  0  0  0  0
  4  9  1  0  0  0  0
  4 16  2  0  0  0  0
  5 18  1  0  0  0  0
  6 20  1  0  0  0  0
  7 10  2  0  0  0  0
  7 19  1  0  0  0  0
  8 24  1  0  0  0  0
  9 24  2  0  0  0  0
 10 25  1  0  0  0  0
 11 12  2  0  0  0  0
 11 26  1  0  0  0  0
 12 27  1  0  0  0  0
 13 21  1  0  0  0  0
 13 25  2  0  0  0  0
 14 22  2  0  0  0  0
 14 23  1  0  0  0  0
 15 27  2  0  0  0  0
 15 28  1  0  0  0  0
 16 29  1  0  0  0  0
 17 29  1  0  0  0  0
 17 32  2  0  0  0  0
 17 33  1  0  0  0  0
 18 20  2  0  0  0  0
 18 38  1  0  0  0  0
 19 21  2  0  0  0  0
 19 39  1  0  0  0  0
 20 47  1  0  0  0  0
 21 40  1  0  0  0  0
 22 30  1  0  0  0  0
 22 60  1  0  0  0  0
 23 31  2  0  0  0  0
 23 63  1  0  0  0  0
 24 85  1  0  0  0  0
 25 86  1  0  0  0  0
 26 28  2  0  0  0  0
 26 85  1  0  0  0  0
 27 87  1  0  0  0  0
 28 88  1  0  0  0  0
 29 69  2  0  0  0  0
 30 64  1  0  0  0  0
 30 70  2  0  0  0  0
 31 61  1  0  0  0  0
 31 70  1  0  0  0  0
 32 71  1  0  0  0  0
 32 74  1  0  0  0  0
 33 75  1  0  0  0  0
 33 80  2  0  0  0  0
 34 48  1  0  0  0  0
 34 76  1  0  0  0  0
 34 81  2  0  0  0  0
 35 65  1  0  0  0  0
 35 72  1  0  0  0  0
 35 82  2  0  0  0  0
 36 66  1  0  0  0  0
 36 77  1  0  0  0  0
 36 83  2  0  0  0  0
 37 73  1  0  0  0  0
 37 78  1  0  0  0  0
 37 84  2  0  0  0  0
 38 41  1  0  0  0  0
 39 48  1  0  0  0  0
 40 72  1  0  0  0  0
 41 43  1  0  0  0  0
 42 44  1  0  0  0  0
 42 45  1  0  0  0  0
 43 47  1  0  0  0  0
 44 49  1  0  0  0  0
 45 73  1  0  0  0  0
 46 49  1  0  0  0  0
 46 73  1  0  0  0  0
 47 76  1  0  0  0  0
 48 72  1  0  0  0  0
 49 71  1  0  0  0  0
 50 61  1  0  0  0  0
 51 63  1  0  0  0  0
 52 63  1  0  0  0  0
 53 64  1  0  0  0  0
 54 66  1  0  0  0  0
 55 67  1  0  0  0  0
 56 68  1  0  0  0  0
 57 68  1  0  0  0  0
 58 68  1  0  0  0  0
 59 79  1  0  0  0  0
 60 86  1  0  0  0  0
 62 64  1  0  0  0  0
 62 67  1  0  0  0  0
 65 68  1  0  0  0  0
 65 77  1  0  0  0  0
 66 79  1  0  0  0  0
 67 78  1  0  0  0  0
 69 71  1  0  0  0  0
M  CHG  1  79   1
M  ISO  4  37 100  60 101  78 100  86 101
M  END
> <Batch ID>
0086

> <Smiles>
CCc1nc(C(C)CC(C)[100NH:0][100C:0](=O)N2CCCC(n3nc(-c4ccc(Oc5ccc(F)cc5F)cc4)c(C(N)=O)c3N)C2)c([101CH2:1][101O:1]c2ccc3c(c2)CN(C(=O)C(NC(=O)C(C)NC)C(C)(C)C)C(C(=O)NC2CCCc4ccccc42)C3)cc1C(C)C

> <Shape>
0.198

> <Color>
0.053

> <Negative vol penalty>
0.000

$$$$

  -OEChem-04052318593D

 90 98  0     1  0  0  0  0  0999 V2000
  -27.6268  -17.9283   17.4037 C   0  0  0  0  0  0  0  0  0  0  0  0
  -27.9421  -18.2162   18.7278 C   0  0  0  0  0  0  0  0  0  0  0  0
  -23.4191   -9.7253   19.9128 C   0  0  0  0  0  0  0  0  0  0  0  0
  -23.9504   -9.8743   22.2649 C   0  0  0  0  0  0  0  0  0  0  0  0
  -28.0105  -18.8058   16.3904 C   0  0  0  0  0  0  0  0  0  0  0  0
  -28.6423  -19.3811   19.0392 C   0  0  0  0  0  0  0  0  0  0  0  0
  -26.6819  -21.8205   23.0206 C   0  0  0  0  0  0  0  0  0  0  0  0
  -22.8012   -8.4939   20.1304 C   0  0  0  0  0  0  0  0  0  0  0  0
  -23.3324   -8.6429   22.4826 C   0  0  0  0  0  0  0  0  0  0  0  0
  -26.9762  -21.3140   24.2857 C   0  0  0  0  0  0  0  0  0  0  0  0
  -20.1831   -7.4619   22.8109 C   0  0  0  0  0  0  0  0  0  0  0  0
  -19.3285   -7.3523   23.9078 C   0  0  0  0  0  0  0  0  0  0  0  0
  -28.6784  -23.0015   24.5586 C   0  0  0  0  0  0  0  0  0  0  0  0
  -20.7213   -5.6002   24.8177 C   0  0  0  0  0  0  0  0  0  0  0  0
  -30.4302  -17.7458   25.5371 C   0  0  0  0  0  0  0  0  0  0  0  0
  -23.9938  -10.4155   20.9801 C   0  0  0  0  0  0  0  0  0  0  0  0
  -24.0347  -12.9605   20.8104 C   0  0  0  0  0  0  0  0  0  0  0  0
  -28.7073  -19.9869   16.6905 C   0  0  0  0  0  0  0  0  0  0  0  0
  -27.3922  -22.9163   22.5096 C   0  0  0  0  0  0  0  0  0  0  0  0
  -29.0368  -20.2745   18.0288 C   0  0  0  0  0  0  0  0  0  0  0  0
  -28.3893  -23.5215   23.2877 C   0  0  0  0  0  0  0  0  0  0  0  0
  -30.9260  -18.9685   25.9325 C   0  0  0  0  0  0  0  0  0  0  0  0
  -31.8978  -19.3595   24.9786 C   0  0  0  0  0  0  0  0  0  0  0  0
  -22.7578   -7.9527   21.4153 C   0  0  0  0  0  0  0  0  0  0  0  0
  -27.9766  -21.9027   25.0538 C   0  0  0  0  0  0  0  0  0  0  0  0
  -21.3067   -6.6406   22.7173 C   0  0  0  0  0  0  0  0  0  0  0  0
  -19.5976   -6.4214   24.9112 C   0  0  0  0  0  0  0  0  0  0  0  0
  -21.5758   -5.7098   23.7207 C   0  0  0  0  0  0  0  0  0  0  0  0
  -24.6328  -11.6873   20.7558 C   0  0  0  0  0  0  0  0  0  0  0  0
  -31.9660  -18.3638   24.0292 C   0  0  0  0  0  0  0  0  0  0  0  0
  -25.0569  -13.8325   20.5252 C   0  0  0  0  0  0  0  0  0  0  0  0
  -22.6767  -13.3226   21.0938 C   0  0  0  0  0  0  0  0  0  0  0  0
  -29.2844  -23.3900   19.9999 C   0  0  0  0  0  0  0  0  0  0  0  0
  -29.1724  -26.4771   20.9899 C   0  0  0  0  0  0  0  0  0  0  0  0
  -28.6739  -28.6840   23.5448 C   0  0  0  0  0  0  0  0  0  0  0  0
  -31.0054  -13.4719   21.1049 C   0  0  0  0  0  0  0  0  0  0  0  0
  -29.1422  -20.8812   15.5566 C   0  0  0  0  0  0  0  0  0  0  0  0
  -27.0443  -23.4675   21.1540 C   0  0  0  0  0  0  0  0  0  0  0  0
  -29.1673  -24.7127   22.7933 C   0  0  0  0  0  0  0  0  0  0  0  0
  -29.5539  -22.2802   16.0077 C   0  0  0  0  0  0  0  0  0  0  0  0
  -29.1805  -14.1083   18.1147 C   0  0  0  0  0  0  0  0  0  0  0  0
  -30.4790  -22.2002   17.2179 C   0  0  0  0  0  0  0  0  0  0  0  0
  -27.7541  -13.6749   18.4574 C   0  0  0  0  0  0  0  0  0  0  0  0
  -30.2190  -13.2016   18.7714 C   0  0  0  0  0  0  0  0  0  0  0  0
  -28.6443  -12.6121   20.5733 C   0  0  0  0  0  0  0  0  0  0  0  0
  -29.7736  -21.5406   18.4090 C   0  0  1  0  0  0  0  0  0  0  0  0
  -28.1815  -24.2657   20.5238 C   0  0  1  0  0  0  0  0  0  0  0  0
  -27.5624  -13.5301   19.9791 C   0  0  2  0  0  0  0  0  0  0  0  0
  -32.6928  -20.6048   24.9964 C   0  0  0  0  0  0  0  0  0  0  0  0
  -28.6875  -31.1406   24.0567 C   0  0  0  0  0  0  0  0  0  0  0  0
  -29.4081  -16.1906   23.0387 C   0  0  0  0  0  0  0  0  0  0  0  0
  -34.3322  -18.2781   23.1691 C   0  0  0  0  0  0  0  0  0  0  0  0
  -32.5473  -19.4385   21.8260 C   0  0  0  0  0  0  0  0  0  0  0  0
  -32.6081  -16.9566   21.9596 C   0  0  0  0  0  0  0  0  0  0  0  0
  -32.2236  -26.4592   20.9825 C   0  0  0  0  0  0  0  0  0  0  0  0
  -32.1697  -28.5401   22.3735 C   0  0  0  0  0  0  0  0  0  0  0  0
  -31.1904  -28.5500   20.0793 C   0  0  0  0  0  0  0  0  0  0  0  0
  -32.2636  -15.0366   25.5044 C   0  0  0  0  0  0  0  0  0  0  0  0
  -29.8991  -14.3379   25.1918 C   0  0  0  0  0  0  0  0  0  0  0  0
  -25.8183  -28.6560   24.3221 C   0  0  0  0  0  0  0  0  0  0  0  0
  -30.5045  -19.7393   27.1580 C   0  0  0  0  0  0  0  0  0  0  0  0
  -29.0413  -19.5215   27.5495 C   0  0  0  0  0  0  0  0  0  0  0  0
  -31.6427  -13.7026   23.4923 C   0  0  0  0  0  0  0  0  0  0  0  0
  -28.0549  -20.0141   26.4970 C   0  0  0  0  0  0  0  0  0  1  0  0
  -29.9864  -27.3267   21.9357 C   0  0  1  0  0  0  0  0  0  0  0  0
  -27.8410  -29.9500   23.6342 C   0  0  2  0  0  0  0  0  0  0  0  0
  -30.8223  -16.1630   23.6507 C   0  0  2  0  0  0  0  0  0  0  0  0
  -32.8071  -18.2564   22.8183 C   0  0  0  0  0  0  0  0  0  0  0  0
  -31.3794  -27.6954   21.3516 C   0  0  0  0  0  0  0  0  0  0  0  0
  -31.1603  -14.8356   24.4420 C   0  0  0  0  0  0  0  0  0  0  0  0
  -25.9340  -11.7411   20.4591 N   0  0  0  0  0  0  0  0  0  0  0  0
  -31.0693  -17.3881   24.3788 N   0  0  0  0  0  0  0  0  0  0  0  0
  -26.1619  -13.0587   20.3245 N   0  0  0  0  0  0  0  0  0  0  0  0
  -28.7945  -25.2110   21.4590 N   0  0  0  0  0  0  0  0  0  0  0  0
  -29.9821  -13.1081   20.2140 N   0  0  0  0  0  0  0  0  0  0  0  0
  -25.1092  -15.1780   20.4288 N   0  0  0  0  0  0  0  0  0  0  0  0
  -21.7558  -12.3017   21.3657 N   0  0  0  0  0  0  0  0  0  0  0  0
  -28.8740  -22.4782   19.0462 N   0  0  0  0  0  0  0  0  0  0  0  0
  -29.1545  -28.4779   22.2690 N   0  0  0  0  0  0  0  0  0  0  0  0
  -30.6958  -13.3596   22.4548 N   0  0  0  0  0  0  0  0  0  0  0  0
  -26.7426  -29.7784   24.6268 N   0  3  0  0  0  0  0  0  0  0  0  0
  -22.2876  -14.5152   21.0893 O   0  0  0  0  0  0  0  0  0  0  0  0
  -30.4238  -23.5322   20.4281 O   0  0  0  0  0  0  0  0  0  0  0  0
  -28.8765  -26.9232   19.8786 O   0  0  0  0  0  0  0  0  0  0  0  0
  -28.8807  -27.9531   24.5110 O   0  0  0  0  0  0  0  0  0  0  0  0
  -32.1110  -13.8725   20.7254 O   0  0  0  0  0  0  0  0  0  0  0  0
  -22.1546   -6.7512   21.6280 O   0  0  0  0  0  0  0  0  0  0  0  0
  -28.2664  -21.4099   26.2887 O   0  0  0  0  0  0  0  0  0  1  0  0
  -18.7777   -6.3173   25.9653 F   0  0  0  0  0  0  0  0  0  0  0  0
  -22.6544   -4.9189   23.6369 F   0  0  0  0  0  0  0  0  0  0  0  0
  1  2  1  0  0  0  0
  1  5  2  0  0  0  0
  2  6  2  0  0  0  0
  3  8  2  0  0  0  0
  3 16  1  0  0  0  0
  4  9  1  0  0  0  0
  4 16  2  0  0  0  0
  5 18  1  0  0  0  0
  6 20  1  0  0  0  0
  7 10  2  0  0  0  0
  7 19  1  0  0  0  0
  8 24  1  0  0  0  0
  9 24  2  0  0  0  0
 10 25  1  0  0  0  0
 11 12  2  0  0  0  0
 11 26  1  0  0  0  0
 12 27  1  0  0  0  0
 13 21  1  0  0  0  0
 13 25  2  0  0  0  0
 14 27  2  0  0  0  0
 14 28  1  0  0  0  0
 15 22  2  0  0  0  0
 15 72  1  0  0  0  0
 16 29  1  0  0  0  0
 17 29  1  0  0  0  0
 17 31  2  0  0  0  0
 17 32  1  0  0  0  0
 18 20  2  0  0  0  0
 18 37  1  0  0  0  0
 19 21  2  0  0  0  0
 19 38  1  0  0  0  0
 20 46  1  0  0  0  0
 21 39  1  0  0  0  0
 22 23  1  0  0  0  0
 22 61  1  0  0  0  0
 23 30  2  0  0  0  0
 23 49  1  0  0  0  0
 24 87  1  0  0  0  0
 25 88  1  0  0  0  0
 26 28  2  0  0  0  0
 26 87  1  0  0  0  0
 27 89  1  0  0  0  0
 28 90  1  0  0  0  0
 29 71  2  0  0  0  0
 30 68  1  0  0  0  0
 30 72  1  0  0  0  0
 31 73  1  0  0  0  0
 31 76  1  0  0  0  0
 32 77  1  0  0  0  0
 32 82  2  0  0  0  0
 33 47  1  0  0  0  0
 33 78  1  0  0  0  0
 33 83  2  0  0  0  0
 34 65  1  0  0  0  0
 34 74  1  0  0  0  0
 34 84  2  0  0  0  0
 35 66  1  0  0  0  0
 35 79  1  0  0  0  0
 35 85  2  0  0  0  0
 36 75  1  0  0  0  0
 36 80  1  0  0  0  0
 36 86  2  0  0  0  0
 37 40  1  0  0  0  0
 38 47  1  0  0  0  0
 39 74  1  0  0  0  0
 40 42  1  0  0  0  0
 41 43  1  0  0  0  0
 41 44  1  0  0  0  0
 42 46  1  0  0  0  0
 43 48  1  0  0  0  0
 44 75  1  0  0  0  0
 45 48  1  0  0  0  0
 45 75  1  0  0  0  0
 46 78  1  0  0  0  0
 47 74  1  0  0  0  0
 48 73  1  0  0  0  0
 50 66  1  0  0  0  0
 51 67  1  0  0  0  0
 52 68  1  0  0  0  0
 53 68  1  0  0  0  0
 54 68  1  0  0  0  0
 55 69  1  0  0  0  0
 56 69  1  0  0  0  0
 57 69  1  0  0  0  0
 58 70  1  0  0  0  0
 59 70  1  0  0  0  0
 60 81  1  0  0  0  0
 61 62  1  0  0  0  0
 62 64  1  0  0  0  0
 63 70  1  0  0  0  0
 63 80  1  0  0  0  0
 64 88  1  0  0  0  0
 65 69  1  0  0  0  0
 65 79  1  0  0  0  0
 66 81  1  0  0  0  0
 67 70  1  0  0  0  0
 67 72  1  0  0  0  0
 71 73  1  0  0  0  0
M  CHG  1  81   1
M  ISO  4  36 100  64 101  80 100  88 101
M  END
> <Batch ID>
0086

> <Smiles>
CNC(C)C(=O)NC(C(=O)N1Cc2cc([101O:1][101CH2:1]CCc3cn(C(C)C(C)(C)C[100NH:0][100C:0](=O)N4CCCC(n5nc(-c6ccc(Oc7ccc(F)cc7F)cc6)c(C(N)=O)c5N)C4)c(C(C)(C)C)c3C)ccc2CC1C(=O)NC1CCCc2ccccc21)C(C)(C)C

> <Shape>
0.246

> <Color>
0.180

> <Negative vol penalty>
0.000

$$$$

  -OEChem-04052318593D

 87 95  0     1  0  0  0  0  0999 V2000
  -19.4643  -23.8342   22.9832 C   0  0  0  0  0  0  0  0  0  0  0  0
  -20.7859  -24.0349   22.5978 C   0  0  0  0  0  0  0  0  0  0  0  0
  -23.4102  -14.5439   20.9920 C   0  0  0  0  0  0  0  0  0  0  0  0
  -25.3300  -15.8934   21.5665 C   0  0  0  0  0  0  0  0  0  0  0  0
  -18.5766  -24.9090   23.0111 C   0  0  0  0  0  0  0  0  0  0  0  0
  -21.2203  -25.3105   22.2390 C   0  0  0  0  0  0  0  0  0  0  0  0
  -25.6940  -26.4899   24.2981 C   0  0  0  0  0  0  0  0  0  0  0  0
  -24.2374  -13.4309   20.8421 C   0  0  0  0  0  0  0  0  0  0  0  0
  -26.1573  -14.7804   21.4166 C   0  0  0  0  0  0  0  0  0  0  0  0
  -26.8316  -25.9436   23.7053 C   0  0  0  0  0  0  0  0  0  0  0  0
  -27.5702  -13.0502   18.8787 C   0  0  0  0  0  0  0  0  0  0  0  0
  -28.7610  -13.2183   18.1722 C   0  0  0  0  0  0  0  0  0  0  0  0
  -27.2273  -28.0282   22.5577 C   0  0  0  0  0  0  0  0  0  0  0  0
  -28.2241  -24.2212   18.8443 C   0  0  0  0  0  0  0  0  0  0  0  0
  -29.0474  -23.3272   20.9197 C   0  0  0  0  0  0  0  0  0  0  0  0
  -30.0147  -12.5465   20.1252 C   0  0  0  0  0  0  0  0  0  0  0  0
  -23.9565  -15.7752   21.3542 C   0  0  0  0  0  0  0  0  0  0  0  0
  -22.4528  -17.3502   22.6830 C   0  0  0  0  0  0  0  0  0  0  0  0
  -19.0028  -26.2001   22.6618 C   0  0  0  0  0  0  0  0  0  0  0  0
  -25.3078  -27.8081   24.0161 C   0  0  0  0  0  0  0  0  0  0  0  0
  -20.3371  -26.4033   22.2610 C   0  0  0  0  0  0  0  0  0  0  0  0
  -26.0858  -28.5897   23.1501 C   0  0  0  0  0  0  0  0  0  0  0  0
  -29.0138  -24.3525   19.9812 C   0  0  0  0  0  0  0  0  0  0  0  0
  -25.6109  -13.5491   21.0544 C   0  0  0  0  0  0  0  0  0  0  0  0
  -27.5968  -26.7118   22.8328 C   0  0  0  0  0  0  0  0  0  0  0  0
  -27.6016  -12.6303   20.2086 C   0  0  0  0  0  0  0  0  0  0  0  0
  -29.9833  -12.9664   18.7953 C   0  0  0  0  0  0  0  0  0  0  0  0
  -28.8238  -12.3784   20.8318 C   0  0  0  0  0  0  0  0  0  0  0  0
  -23.1025  -16.9254   21.5086 C   0  0  0  0  0  0  0  0  0  0  0  0
  -27.4927  -23.0541   18.6940 C   0  0  0  0  0  0  0  0  0  0  0  0
  -28.2790  -22.2002   20.6766 C   0  0  0  0  0  0  0  0  0  0  0  0
  -21.7706  -18.4818   22.3078 C   0  0  0  0  0  0  0  0  0  0  0  0
  -22.4648  -16.7736   23.9956 C   0  0  0  0  0  0  0  0  0  0  0  0
  -22.7558  -29.1632   22.6913 C   0  0  0  0  0  0  0  0  0  0  0  0
  -24.2357  -31.9093   23.5811 C   0  0  0  0  0  0  0  0  0  0  0  0
  -27.1455  -33.5069   24.3732 C   0  0  0  0  0  0  0  0  0  0  0  0
  -22.6000  -22.4786   17.9274 C   0  0  0  0  0  0  0  0  0  0  0  0
  -17.9949  -27.3221   22.6618 C   0  0  0  0  0  0  0  0  0  0  0  0
  -24.0930  -28.3913   24.6843 C   0  0  0  0  0  0  0  0  0  0  0  0
  -25.7255  -30.0167   22.8302 C   0  0  0  0  0  0  0  0  0  0  0  0
  -18.6288  -28.7103   22.6270 C   0  0  0  0  0  0  0  0  0  0  0  0
  -19.6892  -20.5124   18.5085 C   0  0  0  0  0  0  0  0  0  0  0  0
  -19.7275  -28.7692   21.5706 C   0  0  0  0  0  0  0  0  0  0  0  0
  -20.1753  -19.4084   19.4492 C   0  0  0  0  0  0  0  0  0  0  0  0
  -20.7545  -20.8877   17.4807 C   0  0  0  0  0  0  0  0  0  0  0  0
  -22.5526  -20.1418   18.9921 C   0  0  0  0  0  0  0  0  0  0  0  0
  -20.8523  -27.7766   21.8885 C   0  0  1  0  0  0  0  0  0  0  0  0
  -23.5054  -29.5775   23.9259 C   0  0  1  0  0  0  0  0  0  0  0  0
  -21.5331  -19.7684   20.0817 C   0  0  2  0  0  0  0  0  0  0  0  0
  -27.4810  -22.8433   16.1945 C   0  0  0  0  0  0  0  0  0  0  0  0
  -28.0431  -35.7593   25.0199 C   0  0  0  0  0  0  0  0  0  0  0  0
  -27.7919  -21.5575   23.0631 C   0  0  0  0  0  0  0  0  0  0  0  0
  -29.7268  -20.5027   21.8467 C   0  0  0  0  0  0  0  0  0  0  0  0
  -27.3904  -19.8546   21.2966 C   0  0  0  0  0  0  0  0  0  0  0  0
  -23.9669  -32.8440   20.6891 C   0  0  0  0  0  0  0  0  0  0  0  0
  -25.6743  -34.6097   21.1743 C   0  0  0  0  0  0  0  0  0  0  0  0
  -23.5029  -34.6059   22.4023 C   0  0  0  0  0  0  0  0  0  0  0  0
  -28.1473  -32.4919   26.9665 C   0  0  0  0  0  0  0  0  0  0  0  0
  -29.8321  -25.6027   20.1951 C   0  0  0  0  0  0  0  0  0  0  0  0
  -25.5205  -23.9533   17.3363 C   0  0  0  0  0  0  0  0  0  0  0  0
  -24.5085  -23.9648   18.4823 C   0  0  0  0  0  0  0  0  0  0  0  0
  -29.0644  -26.6741   20.9618 C   0  0  0  0  0  0  0  0  0  1  0  0
  -26.6353  -22.8778   17.4855 C   0  0  2  0  0  0  0  0  0  0  0  0
  -25.2335  -32.8425   22.9389 C   0  0  1  0  0  0  0  0  0  0  0  0
  -27.5078  -34.4282   25.5241 C   0  0  2  0  0  0  0  0  0  0  0  0
  -28.2896  -21.0811   21.6636 C   0  0  0  0  0  0  0  0  0  0  0  0
  -24.6004  -33.6980   21.8055 C   0  0  0  0  0  0  0  0  0  0  0  0
  -22.8552  -17.7221   20.4655 N   0  0  0  0  0  0  0  0  0  0  0  0
  -27.4998  -22.0366   19.5840 N   0  0  0  0  0  0  0  0  0  0  0  0
  -22.0424  -18.6589   20.9831 N   0  0  0  0  0  0  0  0  0  0  0  0
  -24.5253  -30.5396   23.5036 N   0  0  0  0  0  0  0  0  0  0  0  0
  -22.0169  -21.2195   18.1456 N   0  0  0  0  0  0  0  0  0  0  0  0
  -20.9708  -19.3326   22.9852 N   0  0  0  0  0  0  0  0  0  0  0  0
  -23.2179  -15.6107   24.2077 N   0  0  0  0  0  0  0  0  0  0  0  0
  -21.7060  -28.2981   22.9342 N   0  0  0  0  0  0  0  0  0  0  0  0
  -25.8170  -33.6250   24.0232 N   0  0  0  0  0  0  0  0  0  0  0  0
  -23.7924  -22.7142   18.6006 N   0  0  0  0  0  0  0  0  0  0  0  0
  -28.5492  -33.7981   26.3839 N   0  3  0  0  0  0  0  0  0  0  0  0
  -21.8135  -17.2654   24.9482 O   0  0  0  0  0  0  0  0  0  0  0  0
  -23.1032  -29.5976   21.5994 O   0  0  0  0  0  0  0  0  0  0  0  0
  -23.2398  -32.3786   24.1375 O   0  0  0  0  0  0  0  0  0  0  0  0
  -27.9604  -32.7601   23.8359 O   0  0  0  0  0  0  0  0  0  0  0  0
  -22.0925  -23.3318   17.1915 O   0  0  0  0  0  0  0  0  0  0  0  0
  -26.4184  -12.4632   20.9085 O   0  0  0  0  0  0  0  0  0  0  0  0
  -28.7072  -26.1809   22.2524 O   0  0  0  0  0  0  0  0  0  1  0  0
  -31.1267  -13.1263   18.1162 F   0  0  0  0  0  0  0  0  0  0  0  0
  -28.8602  -11.9737   22.1088 F   0  0  0  0  0  0  0  0  0  0  0  0
  1  2  1  0  0  0  0
  1  5  2  0  0  0  0
  2  6  2  0  0  0  0
  3  8  2  0  0  0  0
  3 17  1  0  0  0  0
  4  9  1  0  0  0  0
  4 17  2  0  0  0  0
  5 19  1  0  0  0  0
  6 21  1  0  0  0  0
  7 10  2  0  0  0  0
  7 20  1  0  0  0  0
  8 24  1  0  0  0  0
  9 24  2  0  0  0  0
 10 25  1  0  0  0  0
 11 12  2  0  0  0  0
 11 26  1  0  0  0  0
 12 27  1  0  0  0  0
 13 22  1  0  0  0  0
 13 25  2  0  0  0  0
 14 23  1  0  0  0  0
 14 30  2  0  0  0  0
 15 23  2  0  0  0  0
 15 31  1  0  0  0  0
 16 27  2  0  0  0  0
 16 28  1  0  0  0  0
 17 29  1  0  0  0  0
 18 29  1  0  0  0  0
 18 32  2  0  0  0  0
 18 33  1  0  0  0  0
 19 21  2  0  0  0  0
 19 38  1  0  0  0  0
 20 22  2  0  0  0  0
 20 39  1  0  0  0  0
 21 47  1  0  0  0  0
 22 40  1  0  0  0  0
 23 59  1  0  0  0  0
 24 84  1  0  0  0  0
 25 85  1  0  0  0  0
 26 28  2  0  0  0  0
 26 84  1  0  0  0  0
 27 86  1  0  0  0  0
 28 87  1  0  0  0  0
 29 68  2  0  0  0  0
 30 63  1  0  0  0  0
 30 69  1  0  0  0  0
 31 66  1  0  0  0  0
 31 69  2  0  0  0  0
 32 70  1  0  0  0  0
 32 73  1  0  0  0  0
 33 74  1  0  0  0  0
 33 79  2  0  0  0  0
 34 48  1  0  0  0  0
 34 75  1  0  0  0  0
 34 80  2  0  0  0  0
 35 64  1  0  0  0  0
 35 71  1  0  0  0  0
 35 81  2  0  0  0  0
 36 65  1  0  0  0  0
 36 76  1  0  0  0  0
 36 82  2  0  0  0  0
 37 72  1  0  0  0  0
 37 77  1  0  0  0  0
 37 83  2  0  0  0  0
 38 41  1  0  0  0  0
 39 48  1  0  0  0  0
 40 71  1  0  0  0  0
 41 43  1  0  0  0  0
 42 44  1  0  0  0  0
 42 45  1  0  0  0  0
 43 47  1  0  0  0  0
 44 49  1  0  0  0  0
 45 72  1  0  0  0  0
 46 49  1  0  0  0  0
 46 72  1  0  0  0  0
 47 75  1  0  0  0  0
 48 71  1  0  0  0  0
 49 70  1  0  0  0  0
 50 63  1  0  0  0  0
 51 65  1  0  0  0  0
 52 66  1  0  0  0  0
 53 66  1  0  0  0  0
 54 66  1  0  0  0  0
 55 67  1  0  0  0  0
 56 67  1  0  0  0  0
 57 67  1  0  0  0  0
 58 78  1  0  0  0  0
 59 62  1  0  0  0  0
 60 61  1  0  0  0  0
 60 63  1  0  0  0  0
 61 77  1  0  0  0  0
 62 85  1  0  0  0  0
 64 67  1  0  0  0  0
 64 76  1  0  0  0  0
 65 78  1  0  0  0  0
 68 70  1  0  0  0  0
M  CHG  1  78   1
M  ISO  4  37 100  62 101  77 100  85 101
M  END
> <Batch ID>
0086

> <Smiles>
CNC(C)C(=O)NC(C(=O)N1Cc2cc([101O:1][101CH2:1]Cc3cc(C(C)CC[100NH:0][100C:0](=O)N4CCCC(n5nc(-c6ccc(Oc7ccc(F)cc7F)cc6)c(C(N)=O)c5N)C4)nc(C(C)(C)C)c3)ccc2CC1C(=O)NC1CCCc2ccccc21)C(C)(C)C

> <Shape>
0.244

> <Color>
0.078

> <Negative vol penalty>
0.000

$$$$
