
  -OEChem-04052319013D

 84 92  0     1  0  0  0  0  0999 V2000
  -28.7869  -19.8966   14.5882 C   0  0  0  0  0  0  0  0  0  0  0  0
  -28.5410  -20.1061   15.9413 C   0  0  0  0  0  0  0  0  0  0  0  0
  -23.0765   -9.8656   19.9441 C   0  0  0  0  0  0  0  0  0  0  0  0
  -23.8394   -9.8759   22.2365 C   0  0  0  0  0  0  0  0  0  0  0  0
  -30.0551  -20.1445   14.0647 C   0  0  0  0  0  0  0  0  0  0  0  0
  -29.5636  -20.5627   16.7721 C   0  0  0  0  0  0  0  0  0  0  0  0
  -28.0377  -24.2579   19.8805 C   0  0  0  0  0  0  0  0  0  0  0  0
  -22.3348   -8.7116   20.1960 C   0  0  0  0  0  0  0  0  0  0  0  0
  -23.0975   -8.7219   22.4885 C   0  0  0  0  0  0  0  0  0  0  0  0
  -27.3026  -23.8819   21.0039 C   0  0  0  0  0  0  0  0  0  0  0  0
  -21.1185   -5.9830   23.8302 C   0  0  0  0  0  0  0  0  0  0  0  0
  -20.3638   -5.9394   25.0024 C   0  0  0  0  0  0  0  0  0  0  0  0
  -29.2898  -24.0677   22.3588 C   0  0  0  0  0  0  0  0  0  0  0  0
  -19.1153   -7.8740   24.2706 C   0  0  0  0  0  0  0  0  0  0  0  0
  -26.9995  -18.4894   23.6065 C   0  0  0  0  0  0  0  0  0  0  0  0
  -28.3044  -19.9575   22.6181 C   0  0  0  0  0  0  0  0  0  0  0  0
  -23.8289  -10.4478   20.9643 C   0  0  0  0  0  0  0  0  0  0  0  0
  -24.1667  -12.9733   20.8414 C   0  0  0  0  0  0  0  0  0  0  0  0
  -31.0912  -20.6136   14.8876 C   0  0  0  0  0  0  0  0  0  0  0  0
  -29.4090  -24.5315   19.9859 C   0  0  0  0  0  0  0  0  0  0  0  0
  -30.8473  -20.8158   16.2595 C   0  0  0  0  0  0  0  0  0  0  0  0
  -30.0395  -24.4495   21.2357 C   0  0  0  0  0  0  0  0  0  0  0  0
  -27.4652  -19.8149   23.6960 C   0  0  0  0  0  0  0  0  0  0  0  0
  -22.3452   -8.1397   21.4683 C   0  0  0  0  0  0  0  0  0  0  0  0
  -27.9293  -23.7840   22.2428 C   0  0  0  0  0  0  0  0  0  0  0  0
  -20.8717   -6.9722   22.8782 C   0  0  0  0  0  0  0  0  0  0  0  0
  -19.3622   -6.8848   25.2226 C   0  0  0  0  0  0  0  0  0  0  0  0
  -19.8701   -7.9177   23.0984 C   0  0  0  0  0  0  0  0  0  0  0  0
  -24.5958  -11.6396   20.7044 C   0  0  0  0  0  0  0  0  0  0  0  0
  -25.2573  -13.7241   20.4761 C   0  0  0  0  0  0  0  0  0  0  0  0
  -22.8960  -13.4876   21.2615 C   0  0  0  0  0  0  0  0  0  0  0  0
  -32.0500  -23.2688   18.7473 C   0  0  0  0  0  0  0  0  0  0  0  0
  -33.4748  -25.7860   20.2156 C   0  0  0  0  0  0  0  0  0  0  0  0
  -33.3688  -28.1389   22.6853 C   0  0  0  0  0  0  0  0  0  0  0  0
  -30.7397  -14.7518   20.6564 C   0  0  0  0  0  0  0  0  0  0  0  0
  -32.4583  -20.8223   14.2858 C   0  0  0  0  0  0  0  0  0  0  0  0
  -30.1820  -24.9618   18.7695 C   0  0  0  0  0  0  0  0  0  0  0  0
  -31.5050  -24.7524   21.4059 C   0  0  0  0  0  0  0  0  0  0  0  0
  -33.3867  -21.6620   15.1594 C   0  0  0  0  0  0  0  0  0  0  0  0
  -29.6027  -12.3633   18.2734 C   0  0  0  0  0  0  0  0  0  0  0  0
  -33.3352  -21.1835   16.6068 C   0  0  0  0  0  0  0  0  0  0  0  0
  -28.1662  -12.0677   18.7084 C   0  0  0  0  0  0  0  0  0  0  0  0
  -30.5210  -12.5866   19.4729 C   0  0  0  0  0  0  0  0  0  0  0  0
  -28.6199  -13.3161   20.8612 C   0  0  0  0  0  0  0  0  0  0  0  0
  -31.9241  -21.3341   17.1879 C   0  0  1  0  0  0  0  0  0  0  0  0
  -31.6825  -24.7179   18.8980 C   0  0  1  0  0  0  0  0  0  0  0  0
  -27.6445  -13.1389   19.6850 C   0  0  2  0  0  0  0  0  0  0  0  0
  -34.6954  -30.0331   23.6597 C   0  0  0  0  0  0  0  0  0  0  0  0
  -35.3397  -23.7829   21.5645 C   0  0  0  0  0  0  0  0  0  0  0  0
  -35.9735  -25.5755   23.1934 C   0  0  0  0  0  0  0  0  0  0  0  0
  -36.4564  -25.8726   20.7641 C   0  0  0  0  0  0  0  0  0  0  0  0
  -31.3116  -19.3174   21.4783 C   0  0  0  0  0  0  0  0  0  0  0  0
  -31.1061  -17.7718   19.5385 C   0  0  0  0  0  0  0  0  0  0  0  0
  -31.2332  -30.0974   22.0833 C   0  0  0  0  0  0  0  0  0  0  0  0
  -27.1197  -20.8486   24.7381 C   0  0  0  0  0  0  0  0  0  0  0  0
  -25.8995  -21.6999   24.3804 C   0  0  0  0  0  0  0  0  0  0  0  0
  -29.0232  -18.4176   20.7768 C   0  0  0  0  0  0  0  0  0  0  0  0
  -30.8038  -16.9036   21.8912 C   0  0  0  0  0  0  0  0  0  0  0  0
  -26.1011  -22.5489   23.1306 C   0  0  0  0  0  0  0  0  0  1  0  0
  -34.0692  -26.0304   21.5816 C   0  0  1  0  0  0  0  0  0  0  0  0
  -33.6189  -29.6360   22.6617 C   0  0  2  0  0  0  0  0  0  0  0  0
  -35.4325  -25.3077   21.7727 C   0  0  0  0  0  0  0  0  0  0  0  0
  -30.5395  -18.0953   20.9402 C   0  0  0  0  0  0  0  0  0  0  0  0
  -27.5011  -17.8366   22.5547 N   0  0  0  0  0  0  0  0  0  0  0  0
  -25.8603  -11.5453   20.2846 N   0  0  0  0  0  0  0  0  0  0  0  0
  -28.2906  -18.7557   21.9734 N   0  0  0  0  0  0  0  0  0  0  0  0
  -26.2351  -12.8293   20.1546 N   0  0  0  0  0  0  0  0  0  0  0  0
  -32.2192  -25.1629   20.1857 N   0  0  0  0  0  0  0  0  0  0  0  0
  -29.9700  -13.6151   20.3586 N   0  0  0  0  0  0  0  0  0  0  0  0
  -25.4655  -15.0559   20.4015 N   0  0  0  0  0  0  0  0  0  0  0  0
  -21.8859  -12.5772   21.6009 N   0  0  0  0  0  0  0  0  0  0  0  0
  -31.6676  -22.7139   17.5409 N   0  0  0  0  0  0  0  0  0  0  0  0
  -34.1325  -27.4786   21.7461 N   0  0  0  0  0  0  0  0  0  0  0  0
  -30.1402  -15.6805   21.4984 N   0  0  0  0  0  0  0  0  0  0  0  0
  -32.3696  -30.3752   22.9990 N   0  3  0  0  0  0  0  0  0  0  0  0
  -22.6579  -14.7179   21.3180 O   0  0  0  0  0  0  0  0  0  0  0  0
  -32.6384  -22.6969   19.6575 O   0  0  0  0  0  0  0  0  0  0  0  0
  -34.0983  -26.1415   19.2124 O   0  0  0  0  0  0  0  0  0  0  0  0
  -32.5781  -27.6078   23.4621 O   0  0  0  0  0  0  0  0  0  0  0  0
  -31.8748  -14.9285   20.2012 O   0  0  0  0  0  0  0  0  0  0  0  0
  -21.6213   -7.0137   21.7146 O   0  0  0  0  0  0  0  0  0  0  0  0
  -27.2144  -23.4166   23.3409 O   0  0  0  0  0  0  0  0  0  1  0  0
  -18.6365   -6.8419   26.3476 F   0  0  0  0  0  0  0  0  0  0  0  0
  -19.6276   -8.8697   22.1869 F   0  0  0  0  0  0  0  0  0  0  0  0
  1  2  1  0  0  0  0
  1  5  2  0  0  0  0
  2  6  2  0  0  0  0
  3  8  2  0  0  0  0
  3 17  1  0  0  0  0
  4  9  1  0  0  0  0
  4 17  2  0  0  0  0
  5 19  1  0  0  0  0
  6 21  1  0  0  0  0
  7 10  2  0  0  0  0
  7 20  1  0  0  0  0
  8 24  1  0  0  0  0
  9 24  2  0  0  0  0
 10 25  1  0  0  0  0
 11 12  2  0  0  0  0
 11 26  1  0  0  0  0
 12 27  1  0  0  0  0
 13 22  1  0  0  0  0
 13 25  2  0  0  0  0
 14 27  2  0  0  0  0
 14 28  1  0  0  0  0
 15 23  1  0  0  0  0
 15 64  2  0  0  0  0
 16 23  2  0  0  0  0
 16 66  1  0  0  0  0
 17 29  1  0  0  0  0
 18 29  1  0  0  0  0
 18 30  2  0  0  0  0
 18 31  1  0  0  0  0
 19 21  2  0  0  0  0
 19 36  1  0  0  0  0
 20 22  2  0  0  0  0
 20 37  1  0  0  0  0
 21 45  1  0  0  0  0
 22 38  1  0  0  0  0
 23 55  1  0  0  0  0
 24 81  1  0  0  0  0
 25 82  1  0  0  0  0
 26 28  2  0  0  0  0
 26 81  1  0  0  0  0
 27 83  1  0  0  0  0
 28 84  1  0  0  0  0
 29 65  2  0  0  0  0
 30 67  1  0  0  0  0
 30 70  1  0  0  0  0
 31 71  1  0  0  0  0
 31 76  2  0  0  0  0
 32 46  1  0  0  0  0
 32 72  1  0  0  0  0
 32 77  2  0  0  0  0
 33 60  1  0  0  0  0
 33 68  1  0  0  0  0
 33 78  2  0  0  0  0
 34 61  1  0  0  0  0
 34 73  1  0  0  0  0
 34 79  2  0  0  0  0
 35 69  1  0  0  0  0
 35 74  1  0  0  0  0
 35 80  2  0  0  0  0
 36 39  1  0  0  0  0
 37 46  1  0  0  0  0
 38 68  1  0  0  0  0
 39 41  1  0  0  0  0
 40 42  1  0  0  0  0
 40 43  1  0  0  0  0
 41 45  1  0  0  0  0
 42 47  1  0  0  0  0
 43 69  1  0  0  0  0
 44 47  1  0  0  0  0
 44 69  1  0  0  0  0
 45 72  1  0  0  0  0
 46 68  1  0  0  0  0
 47 67  1  0  0  0  0
 48 61  1  0  0  0  0
 49 62  1  0  0  0  0
 50 62  1  0  0  0  0
 51 62  1  0  0  0  0
 52 63  1  0  0  0  0
 53 63  1  0  0  0  0
 54 75  1  0  0  0  0
 55 56  1  0  0  0  0
 56 59  1  0  0  0  0
 57 63  1  0  0  0  0
 57 66  1  0  0  0  0
 58 63  1  0  0  0  0
 58 74  1  0  0  0  0
 59 82  1  0  0  0  0
 60 62  1  0  0  0  0
 60 73  1  0  0  0  0
 61 75  1  0  0  0  0
 64 66  1  0  0  0  0
 65 67  1  0  0  0  0
M  CHG  1  75   1
M  ISO  4  35 100  59 101  74 100  82 101
M  END
> <Batch ID>
0087

> <Smiles>
CNC(C)C(=O)NC(C(=O)N1Cc2cc([101O:1][101CH2:1]CCc3cnn(CC(C)(C)C[100NH:0][100C:0](=O)N4CCCC(n5nc(-c6ccc(Oc7ccc(F)cc7F)cc6)c(C(N)=O)c5N)C4)c3)ccc2CC1C(=O)NC1CCCc2ccccc21)C(C)(C)C

> <Shape>
0.213

> <Color>
0.191

> <Negative vol penalty>
0.000

$$$$

  -OEChem-04052319013D

 86 94  0     1  0  0  0  0  0999 V2000
  -27.1065  -26.1774   16.7990 C   0  0  0  0  0  0  0  0  0  0  0  0
  -26.3324  -25.1720   17.3694 C   0  0  0  0  0  0  0  0  0  0  0  0
  -30.7137  -20.0997   19.6948 C   0  0  0  0  0  0  0  0  0  0  0  0
  -28.5120  -20.3592   20.6551 C   0  0  0  0  0  0  0  0  0  0  0  0
  -27.2797  -27.3875   17.4695 C   0  0  0  0  0  0  0  0  0  0  0  0
  -25.7320  -25.3758   18.6113 C   0  0  0  0  0  0  0  0  0  0  0  0
  -20.9143  -23.8190   18.7187 C   0  0  0  0  0  0  0  0  0  0  0  0
  -30.6322  -21.3855   19.1604 C   0  0  0  0  0  0  0  0  0  0  0  0
  -28.4305  -21.6451   20.1208 C   0  0  0  0  0  0  0  0  0  0  0  0
  -20.6907  -22.4485   18.8435 C   0  0  0  0  0  0  0  0  0  0  0  0
  -29.1662  -22.8948   16.5151 C   0  0  0  0  0  0  0  0  0  0  0  0
  -29.5675  -23.0722   15.1911 C   0  0  0  0  0  0  0  0  0  0  0  0
  -20.2620  -22.7392   21.1995 C   0  0  0  0  0  0  0  0  0  0  0  0
  -22.7463  -13.6536   18.6035 C   0  0  0  0  0  0  0  0  0  0  0  0
  -31.2563  -24.6418   15.9133 C   0  0  0  0  0  0  0  0  0  0  0  0
  -21.3168  -15.1818   20.3547 C   0  0  0  0  0  0  0  0  0  0  0  0
  -29.6536  -19.5865   20.4421 C   0  0  0  0  0  0  0  0  0  0  0  0
  -30.2436  -17.8917   22.2551 C   0  0  0  0  0  0  0  0  0  0  0  0
  -26.6731  -27.6098   18.7158 C   0  0  0  0  0  0  0  0  0  0  0  0
  -20.8240  -24.6597   19.8374 C   0  0  0  0  0  0  0  0  0  0  0  0
  -25.8983  -26.5895   19.2998 C   0  0  0  0  0  0  0  0  0  0  0  0
  -20.4824  -24.1203   21.0858 C   0  0  0  0  0  0  0  0  0  0  0  0
  -21.6975  -14.4336   18.1295 C   0  0  0  0  0  0  0  0  0  0  0  0
  -20.9641  -15.2151   19.0152 C   0  0  0  0  0  0  0  0  0  0  0  0
  -29.4906  -22.1582   19.3734 C   0  0  0  0  0  0  0  0  0  0  0  0
  -20.3673  -21.9080   20.0846 C   0  0  0  0  0  0  0  0  0  0  0  0
  -29.8099  -23.5909   17.5383 C   0  0  0  0  0  0  0  0  0  0  0  0
  -30.6126  -23.9457   14.8902 C   0  0  0  0  0  0  0  0  0  0  0  0
  -30.8550  -24.4644   17.2374 C   0  0  0  0  0  0  0  0  0  0  0  0
  -29.7369  -18.2580   20.9938 C   0  0  0  0  0  0  0  0  0  0  0  0
  -23.0194  -13.6903   19.9615 C   0  0  0  0  0  0  0  0  0  0  0  0
  -30.1010  -16.5263   22.2990 C   0  0  0  0  0  0  0  0  0  0  0  0
  -30.7940  -18.7122   23.2941 C   0  0  0  0  0  0  0  0  0  0  0  0
  -22.8501  -26.5557   21.3879 C   0  0  0  0  0  0  0  0  0  0  0  0
  -20.1901  -27.3918   23.0455 C   0  0  0  0  0  0  0  0  0  0  0  0
  -17.0492  -26.5638   24.0925 C   0  0  0  0  0  0  0  0  0  0  0  0
  -26.4089  -12.7209   19.5172 C   0  0  0  0  0  0  0  0  0  0  0  0
  -26.9279  -28.9166   19.4244 C   0  0  0  0  0  0  0  0  0  0  0  0
  -21.0420  -26.1397   19.6810 C   0  0  0  0  0  0  0  0  0  0  0  0
  -20.3531  -24.9828   22.3138 C   0  0  0  0  0  0  0  0  0  0  0  0
  -25.9506  -29.1920   20.5642 C   0  0  0  0  0  0  0  0  0  0  0  0
  -29.9686  -12.6819   19.4541 C   0  0  0  0  0  0  0  0  0  0  0  0
  -25.7874  -27.9528   21.4386 C   0  0  0  0  0  0  0  0  0  0  0  0
  -30.3586  -14.0735   19.9554 C   0  0  0  0  0  0  0  0  0  0  0  0
  -28.7076  -12.7248   18.5939 C   0  0  0  0  0  0  0  0  0  0  0  0
  -27.9385  -14.7734   19.7276 C   0  0  0  0  0  0  0  0  0  0  0  0
  -25.2104  -26.7819   20.6339 C   0  0  1  0  0  0  0  0  0  0  0  0
  -21.4280  -26.8281   20.9865 C   0  0  1  0  0  0  0  0  0  0  0  0
  -29.1726  -14.7735   20.6458 C   0  0  2  0  0  0  0  0  0  0  0  0
  -20.9532  -13.0203   16.1795 C   0  0  0  0  0  0  0  0  0  0  0  0
  -22.5464  -14.9389   15.8104 C   0  0  0  0  0  0  0  0  0  0  0  0
  -15.1375  -27.4333   25.4661 C   0  0  0  0  0  0  0  0  0  0  0  0
  -21.7211  -26.7192   25.5976 C   0  0  0  0  0  0  0  0  0  0  0  0
  -19.5346  -26.6835   26.8168 C   0  0  0  0  0  0  0  0  0  0  0  0
  -20.3229  -28.7882   25.7344 C   0  0  0  0  0  0  0  0  0  0  0  0
  -18.5404  -15.4707   18.5457 C   0  0  0  0  0  0  0  0  0  0  0  0
  -15.2160  -26.5369   21.7692 C   0  0  0  0  0  0  0  0  0  0  0  0
  -24.1371  -12.8644   20.5057 C   0  0  0  0  0  0  0  0  0  0  0  0
  -20.0154  -18.3204   19.3859 C   0  0  0  0  0  0  0  0  0  0  0  0
  -20.1019  -17.3887   18.1831 C   0  0  0  0  0  0  0  0  0  0  0  0
  -20.2682  -19.7800   19.0273 C   0  0  0  0  0  0  0  0  0  1  0  0
  -21.3811  -14.4156   16.6699 C   0  0  0  0  0  0  0  0  0  0  0  0
  -19.5015  -26.8835   24.2890 C   0  0  1  0  0  0  0  0  0  0  0  0
  -15.7444  -27.3394   24.0748 C   0  0  2  0  0  0  0  0  0  0  0  0
  -20.2743  -27.2518   25.5869 C   0  0  0  0  0  0  0  0  0  0  0  0
  -22.3291  -14.4368   20.8525 N   0  0  0  0  0  0  0  0  0  0  0  0
  -29.3048  -17.2100   20.2875 N   0  0  0  0  0  0  0  0  0  0  0  0
  -29.5397  -16.1716   21.1077 N   0  0  0  0  0  0  0  0  0  0  0  0
  -20.5819  -26.4229   22.1108 N   0  0  0  0  0  0  0  0  0  0  0  0
  -27.6206  -13.3997   19.3071 N   0  0  0  0  0  0  0  0  0  0  0  0
  -30.4023  -15.6065   23.2401 N   0  0  0  0  0  0  0  0  0  0  0  0
  -30.8666  -20.0961   23.0848 N   0  0  0  0  0  0  0  0  0  0  0  0
  -23.7848  -26.9493   20.4493 N   0  0  0  0  0  0  0  0  0  0  0  0
  -18.1373  -27.3980   24.2395 N   0  0  0  0  0  0  0  0  0  0  0  0
  -25.4336  -13.4305   20.2071 N   0  0  0  0  0  0  0  0  0  0  0  0
  -19.8981  -16.0175   18.5836 N   0  0  3  0  0  0  0  0  0  0  0  0
  -14.7589  -26.6746   23.1760 N   0  3  0  0  0  0  0  0  0  0  0  0
  -31.2242  -18.2305   24.3695 O   0  0  0  0  0  0  0  0  0  0  0  0
  -23.0822  -26.0288   22.4696 O   0  0  0  0  0  0  0  0  0  0  0  0
  -20.3672  -28.6045   22.9051 O   0  0  0  0  0  0  0  0  0  0  0  0
  -17.0982  -25.3400   23.9902 O   0  0  0  0  0  0  0  0  0  0  0  0
  -26.2129  -11.5659   19.1241 O   0  0  0  0  0  0  0  0  0  0  0  0
  -29.4108  -23.4131   18.8524 O   0  0  0  0  0  0  0  0  0  0  0  0
  -20.1491  -20.5706   20.2093 O   0  0  0  0  0  0  0  0  0  1  0  0
  -30.9989  -24.1148   13.6188 F   0  0  0  0  0  0  0  0  0  0  0  0
  -31.4779  -25.1350   18.2161 F   0  0  0  0  0  0  0  0  0  0  0  0
  1  2  1  0  0  0  0
  1  5  2  0  0  0  0
  2  6  2  0  0  0  0
  3  8  2  0  0  0  0
  3 17  1  0  0  0  0
  4  9  1  0  0  0  0
  4 17  2  0  0  0  0
  5 19  1  0  0  0  0
  6 21  1  0  0  0  0
  7 10  2  0  0  0  0
  7 20  1  0  0  0  0
  8 25  1  0  0  0  0
  9 25  2  0  0  0  0
 10 26  1  0  0  0  0
 11 12  2  0  0  0  0
 11 27  1  0  0  0  0
 12 28  1  0  0  0  0
 13 22  1  0  0  0  0
 13 26  2  0  0  0  0
 14 23  1  0  0  0  0
 14 31  2  0  0  0  0
 15 28  2  0  0  0  0
 15 29  1  0  0  0  0
 16 24  1  0  0  0  0
 16 66  2  0  0  0  0
 17 30  1  0  0  0  0
 18 30  1  0  0  0  0
 18 32  2  0  0  0  0
 18 33  1  0  0  0  0
 19 21  2  0  0  0  0
 19 38  1  0  0  0  0
 20 22  2  0  0  0  0
 20 39  1  0  0  0  0
 21 47  1  0  0  0  0
 22 40  1  0  0  0  0
 23 24  2  0  0  0  0
 23 62  1  0  0  0  0
 24 76  1  0  0  0  0
 25 83  1  0  0  0  0
 26 84  1  0  0  0  0
 27 29  2  0  0  0  0
 27 83  1  0  0  0  0
 28 85  1  0  0  0  0
 29 86  1  0  0  0  0
 30 67  2  0  0  0  0
 31 58  1  0  0  0  0
 31 66  1  0  0  0  0
 32 68  1  0  0  0  0
 32 71  1  0  0  0  0
 33 72  1  0  0  0  0
 33 78  2  0  0  0  0
 34 48  1  0  0  0  0
 34 73  1  0  0  0  0
 34 79  2  0  0  0  0
 35 63  1  0  0  0  0
 35 69  1  0  0  0  0
 35 80  2  0  0  0  0
 36 64  1  0  0  0  0
 36 74  1  0  0  0  0
 36 81  2  0  0  0  0
 37 70  1  0  0  0  0
 37 75  1  0  0  0  0
 37 82  2  0  0  0  0
 38 41  1  0  0  0  0
 39 48  1  0  0  0  0
 40 69  1  0  0  0  0
 41 43  1  0  0  0  0
 42 44  1  0  0  0  0
 42 45  1  0  0  0  0
 43 47  1  0  0  0  0
 44 49  1  0  0  0  0
 45 70  1  0  0  0  0
 46 49  1  0  0  0  0
 46 70  1  0  0  0  0
 47 73  1  0  0  0  0
 48 69  1  0  0  0  0
 49 68  1  0  0  0  0
 50 62  1  0  0  0  0
 51 62  1  0  0  0  0
 52 64  1  0  0  0  0
 53 65  1  0  0  0  0
 54 65  1  0  0  0  0
 55 65  1  0  0  0  0
 56 76  1  0  0  0  0
 57 77  1  0  0  0  0
 58 75  1  0  0  0  0
 59 60  1  0  0  0  0
 59 61  1  0  0  0  0
 60 76  1  0  0  0  0
 61 84  1  0  0  0  0
 63 65  1  0  0  0  0
 63 74  1  0  0  0  0
 64 77  1  0  0  0  0
 67 68  1  0  0  0  0
M  CHG  1  77   1
M  ISO  4  37 100  61 101  75 100  84 101
M  END
> <Batch ID>
0087

> <Smiles>
CNC(C)C(=O)NC(C(=O)N1Cc2cc([101O:1][101CH2:1]CCN(C)c3cnc(C[100NH:0][100C:0](=O)N4CCCC(n5nc(-c6ccc(Oc7ccc(F)cc7F)cc6)c(C(N)=O)c5N)C4)cc3C(C)C)ccc2CC1C(=O)NC1CCCc2ccccc21)C(C)(C)C

> <Shape>
0.220

> <Color>
0.062

> <Negative vol penalty>
0.000

$$$$

  -OEChem-04052319013D

 89 97  0     1  0  0  0  0  0999 V2000
  -16.9219  -29.6009   24.5170 C   0  0  0  0  0  0  0  0  0  0  0  0
  -17.3238  -28.4596   23.8304 C   0  0  0  0  0  0  0  0  0  0  0  0
  -26.5112  -11.9804   21.2102 C   0  0  0  0  0  0  0  0  0  0  0  0
  -25.0920  -13.6685   20.2238 C   0  0  0  0  0  0  0  0  0  0  0  0
  -17.5546  -30.8191   24.2728 C   0  0  0  0  0  0  0  0  0  0  0  0
  -18.3581  -28.5362   22.8983 C   0  0  0  0  0  0  0  0  0  0  0  0
  -22.5513  -24.2391   21.6907 C   0  0  0  0  0  0  0  0  0  0  0  0
  -25.3976  -11.1674   21.4212 C   0  0  0  0  0  0  0  0  0  0  0  0
  -23.9783  -12.8555   20.4348 C   0  0  0  0  0  0  0  0  0  0  0  0
  -22.6447  -23.2754   20.6876 C   0  0  0  0  0  0  0  0  0  0  0  0
  -23.4424   -9.0985   19.5966 C   0  0  0  0  0  0  0  0  0  0  0  0
  -23.5527   -7.7487   19.2630 C   0  0  0  0  0  0  0  0  0  0  0  0
  -24.0558  -24.7542   19.4066 C   0  0  0  0  0  0  0  0  0  0  0  0
  -26.5426  -21.2799   17.0516 C   0  0  0  0  0  0  0  0  0  0  0  0
  -23.0869   -7.1441   21.5554 C   0  0  0  0  0  0  0  0  0  0  0  0
  -26.5532  -20.8135   19.2544 C   0  0  0  0  0  0  0  0  0  0  0  0
  -26.3584  -13.2310   20.6116 C   0  0  0  0  0  0  0  0  0  0  0  0
  -28.3356  -14.1021   19.2553 C   0  0  0  0  0  0  0  0  0  0  0  0
  -18.6035  -30.9086   23.3442 C   0  0  0  0  0  0  0  0  0  0  0  0
  -23.2016  -25.4740   21.5542 C   0  0  0  0  0  0  0  0  0  0  0  0
  -19.0045  -29.7570   22.6404 C   0  0  0  0  0  0  0  0  0  0  0  0
  -23.9712  -25.7310   20.4106 C   0  0  0  0  0  0  0  0  0  0  0  0
  -25.7595  -20.7965   18.1288 C   0  0  0  0  0  0  0  0  0  0  0  0
  -24.1312  -11.6050   21.0335 C   0  0  0  0  0  0  0  0  0  0  0  0
  -23.3947  -23.5340   19.5440 C   0  0  0  0  0  0  0  0  0  0  0  0
  -23.1544   -9.4712   20.9096 C   0  0  0  0  0  0  0  0  0  0  0  0
  -23.3750   -6.7715   20.2424 C   0  0  0  0  0  0  0  0  0  0  0  0
  -22.9766   -8.4941   21.8889 C   0  0  0  0  0  0  0  0  0  0  0  0
  -27.5083  -14.0716   20.3939 C   0  0  0  0  0  0  0  0  0  0  0  0
  -27.7910  -21.5775   17.5518 C   0  0  0  0  0  0  0  0  0  0  0  0
  -29.2767  -15.0611   19.5403 C   0  0  0  0  0  0  0  0  0  0  0  0
  -28.2602  -13.3325   18.0479 C   0  0  0  0  0  0  0  0  0  0  0  0
  -22.2532  -28.5041   21.4038 C   0  0  0  0  0  0  0  0  0  0  0  0
  -25.4414  -29.0981   21.4731 C   0  0  0  0  0  0  0  0  0  0  0  0
  -28.6106  -27.9783   20.8825 C   0  0  0  0  0  0  0  0  0  0  0  0
  -29.2741  -19.8258   23.1665 C   0  0  0  0  0  0  0  0  0  0  0  0
  -19.2255  -32.2568   23.0793 C   0  0  0  0  0  0  0  0  0  0  0  0
  -23.1128  -26.4926   22.6573 C   0  0  0  0  0  0  0  0  0  0  0  0
  -24.7051  -27.0330   20.2248 C   0  0  0  0  0  0  0  0  0  0  0  0
  -20.5637  -32.1775   22.3492 C   0  0  0  0  0  0  0  0  0  0  0  0
  -31.5555  -17.0929   23.2240 C   0  0  0  0  0  0  0  0  0  0  0  0
  -20.4716  -31.2157   21.1688 C   0  0  0  0  0  0  0  0  0  0  0  0
  -30.8516  -16.0114   22.4025 C   0  0  0  0  0  0  0  0  0  0  0  0
  -30.5643  -17.9062   24.0536 C   0  0  0  0  0  0  0  0  0  0  0  0
  -28.7462  -17.4122   22.4648 C   0  0  0  0  0  0  0  0  0  0  0  0
  -20.1391  -29.7947   21.6397 C   0  0  1  0  0  0  0  0  0  0  0  0
  -23.3954  -27.9144   22.1818 C   0  0  1  0  0  0  0  0  0  0  0  0
  -29.6987  -16.6021   21.5688 C   0  0  2  0  0  0  0  0  0  0  0  0
  -31.1200  -27.9904   20.8703 C   0  0  0  0  0  0  0  0  0  0  0  0
  -24.0813  -18.8620   18.4763 C   0  0  0  0  0  0  0  0  0  0  0  0
  -23.7933  -20.4641   16.5980 C   0  0  0  0  0  0  0  0  0  0  0  0
  -28.7183  -22.3502   15.3408 C   0  0  0  0  0  0  0  0  0  0  0  0
  -30.2008  -21.1306   16.9689 C   0  0  0  0  0  0  0  0  0  0  0  0
  -29.5274  -23.4848   17.3999 C   0  0  0  0  0  0  0  0  0  0  0  0
  -25.0596  -30.7619   18.9441 C   0  0  0  0  0  0  0  0  0  0  0  0
  -27.5353  -30.6586   18.5861 C   0  0  0  0  0  0  0  0  0  0  0  0
  -26.6169  -31.7624   20.6258 C   0  0  0  0  0  0  0  0  0  0  0  0
  -27.8853  -23.6366   20.6696 C   0  0  0  0  0  0  0  0  0  0  0  0
  -30.0559  -22.8116   21.5648 C   0  0  0  0  0  0  0  0  0  0  0  0
  -28.7452  -26.7623   23.5774 C   0  0  0  0  0  0  0  0  0  0  0  0
  -28.9003  -21.4572   19.7987 C   0  0  0  0  0  0  0  0  0  0  0  0
  -27.9023  -21.6439   22.1808 C   0  0  0  0  0  0  0  0  0  0  0  0
  -23.4035  -21.2279   18.9627 C   0  0  0  0  0  0  0  0  0  1  0  0
  -26.5247  -29.2433   20.4318 C   0  0  1  0  0  0  0  0  0  0  0  0
  -29.8677  -28.0177   21.7327 C   0  0  2  0  0  0  0  0  0  0  0  0
  -24.2913  -20.3367   18.0561 C   0  0  0  0  0  0  0  0  0  0  0  0
  -28.9852  -22.1111   16.8645 C   0  0  0  0  0  0  0  0  0  0  0  0
  -26.4188  -30.5827   19.6493 C   0  0  0  0  0  0  0  0  0  0  0  0
  -28.6701  -22.3633   21.0461 C   0  0  0  0  0  0  0  0  0  0  0  0
  -27.8903  -14.9418   21.3323 N   0  0  0  0  0  0  0  0  0  0  0  0
  -27.7860  -21.2898   18.8917 N   0  0  0  0  0  0  0  0  0  0  0  0
  -28.9681  -15.5282   20.7840 N   0  0  0  0  0  0  0  0  0  0  0  0
  -24.5823  -27.9995   21.3285 N   0  0  0  0  0  0  0  0  0  0  0  0
  -29.4972  -18.4394   23.2034 N   0  0  0  0  0  0  0  0  0  0  0  0
  -30.3299  -15.5418   18.8460 N   0  0  0  0  0  0  0  0  0  0  0  0
  -27.2304  -12.3905   17.9193 N   0  0  0  0  0  0  0  0  0  0  0  0
  -21.3168  -29.1543   22.1848 N   0  0  0  0  0  0  0  0  0  0  0  0
  -27.7913  -29.0589   21.1320 N   0  0  0  0  0  0  0  0  0  0  0  0
  -28.2478  -20.2478   22.3302 N   0  0  0  0  0  0  0  0  0  0  0  0
  -29.9063  -26.8474   22.6546 N   0  3  0  0  0  0  0  0  0  0  0  0
  -29.0913  -13.4644   17.1177 O   0  0  0  0  0  0  0  0  0  0  0  0
  -22.2243  -28.3797   20.1851 O   0  0  0  0  0  0  0  0  0  0  0  0
  -25.3648  -29.9248   22.3855 O   0  0  0  0  0  0  0  0  0  0  0  0
  -28.3805  -27.0808   20.0750 O   0  0  0  0  0  0  0  0  0  0  0  0
  -29.9437  -20.6284   23.8256 O   0  0  0  0  0  0  0  0  0  0  0  0
  -23.0444  -10.8118   21.2390 O   0  0  0  0  0  0  0  0  0  0  0  0
  -23.4870  -22.5953   18.5631 O   0  0  0  0  0  0  0  0  0  1  0  0
  -23.4794   -5.4752   19.9216 F   0  0  0  0  0  0  0  0  0  0  0  0
  -22.6986   -8.8460   23.1517 F   0  0  0  0  0  0  0  0  0  0  0  0
  1  2  1  0  0  0  0
  1  5  2  0  0  0  0
  2  6  2  0  0  0  0
  3  8  2  0  0  0  0
  3 17  1  0  0  0  0
  4  9  1  0  0  0  0
  4 17  2  0  0  0  0
  5 19  1  0  0  0  0
  6 21  1  0  0  0  0
  7 10  2  0  0  0  0
  7 20  1  0  0  0  0
  8 24  1  0  0  0  0
  9 24  2  0  0  0  0
 10 25  1  0  0  0  0
 11 12  2  0  0  0  0
 11 26  1  0  0  0  0
 12 27  1  0  0  0  0
 13 22  1  0  0  0  0
 13 25  2  0  0  0  0
 14 23  1  0  0  0  0
 14 30  2  0  0  0  0
 15 27  2  0  0  0  0
 15 28  1  0  0  0  0
 16 23  2  0  0  0  0
 16 71  1  0  0  0  0
 17 29  1  0  0  0  0
 18 29  1  0  0  0  0
 18 31  2  0  0  0  0
 18 32  1  0  0  0  0
 19 21  2  0  0  0  0
 19 37  1  0  0  0  0
 20 22  2  0  0  0  0
 20 38  1  0  0  0  0
 21 46  1  0  0  0  0
 22 39  1  0  0  0  0
 23 66  1  0  0  0  0
 24 86  1  0  0  0  0
 25 87  1  0  0  0  0
 26 28  2  0  0  0  0
 26 86  1  0  0  0  0
 27 88  1  0  0  0  0
 28 89  1  0  0  0  0
 29 70  2  0  0  0  0
 30 67  1  0  0  0  0
 30 71  1  0  0  0  0
 31 72  1  0  0  0  0
 31 75  1  0  0  0  0
 32 76  1  0  0  0  0
 32 81  2  0  0  0  0
 33 47  1  0  0  0  0
 33 77  1  0  0  0  0
 33 82  2  0  0  0  0
 34 64  1  0  0  0  0
 34 73  1  0  0  0  0
 34 83  2  0  0  0  0
 35 65  1  0  0  0  0
 35 78  1  0  0  0  0
 35 84  2  0  0  0  0
 36 74  1  0  0  0  0
 36 79  1  0  0  0  0
 36 85  2  0  0  0  0
 37 40  1  0  0  0  0
 38 47  1  0  0  0  0
 39 73  1  0  0  0  0
 40 42  1  0  0  0  0
 41 43  1  0  0  0  0
 41 44  1  0  0  0  0
 42 46  1  0  0  0  0
 43 48  1  0  0  0  0
 44 74  1  0  0  0  0
 45 48  1  0  0  0  0
 45 74  1  0  0  0  0
 46 77  1  0  0  0  0
 47 73  1  0  0  0  0
 48 72  1  0  0  0  0
 49 65  1  0  0  0  0
 50 66  1  0  0  0  0
 51 66  1  0  0  0  0
 52 67  1  0  0  0  0
 53 67  1  0  0  0  0
 54 67  1  0  0  0  0
 55 68  1  0  0  0  0
 56 68  1  0  0  0  0
 57 68  1  0  0  0  0
 58 69  1  0  0  0  0
 59 69  1  0  0  0  0
 60 80  1  0  0  0  0
 61 69  1  0  0  0  0
 61 71  1  0  0  0  0
 62 69  1  0  0  0  0
 62 79  1  0  0  0  0
 63 66  1  0  0  0  0
 63 87  1  0  0  0  0
 64 68  1  0  0  0  0
 64 78  1  0  0  0  0
 65 80  1  0  0  0  0
 70 72  1  0  0  0  0
M  CHG  1  80   1
M  ISO  4  36 100  63 101  79 100  87 101
M  END
> <Batch ID>
0087

> <Smiles>
CNC(C)C(=O)NC(C(=O)N1Cc2cc([101O:1][101CH2:1]C(C)(C)c3cc(C(C)(C)C)n(CC(C)(C)C[100NH:0][100C:0](=O)N4CCCC(n5nc(-c6ccc(Oc7ccc(F)cc7F)cc6)c(C(N)=O)c5N)C4)c3)ccc2CC1C(=O)NC1CCCc2ccccc21)C(C)(C)C

> <Shape>
0.265

> <Color>
0.073

> <Negative vol penalty>
0.000

$$$$

  -OEChem-04052319013D

 86 94  0     1  0  0  0  0  0999 V2000
  -24.3649  -31.7189   27.7104 C   0  0  0  0  0  0  0  0  0  0  0  0
  -25.5622  -31.3483   27.1065 C   0  0  0  0  0  0  0  0  0  0  0  0
  -23.4344  -10.0508   22.2151 C   0  0  0  0  0  0  0  0  0  0  0  0
  -24.1577  -11.5368   23.9774 C   0  0  0  0  0  0  0  0  0  0  0  0
  -23.1988  -31.0039   27.4406 C   0  0  0  0  0  0  0  0  0  0  0  0
  -25.5942  -30.2616   26.2333 C   0  0  0  0  0  0  0  0  0  0  0  0
  -28.9294  -27.9350   20.3359 C   0  0  0  0  0  0  0  0  0  0  0  0
  -22.8099   -9.2354   23.1589 C   0  0  0  0  0  0  0  0  0  0  0  0
  -23.5332  -10.7213   24.9213 C   0  0  0  0  0  0  0  0  0  0  0  0
  -29.6263  -26.8255   19.8595 C   0  0  0  0  0  0  0  0  0  0  0  0
  -23.7171   -6.8683   25.3945 C   0  0  0  0  0  0  0  0  0  0  0  0
  -23.9028   -5.4904   25.2835 C   0  0  0  0  0  0  0  0  0  0  0  0
  -27.5342  -25.7132   19.4069 C   0  0  0  0  0  0  0  0  0  0  0  0
  -21.5189   -5.1897   25.0302 C   0  0  0  0  0  0  0  0  0  0  0  0
  -30.5454  -19.4986   20.6068 C   0  0  0  0  0  0  0  0  0  0  0  0
  -24.1083  -11.2015   22.6244 C   0  0  0  0  0  0  0  0  0  0  0  0
  -24.1897  -13.1348   20.9621 C   0  0  0  0  0  0  0  0  0  0  0  0
  -23.2146  -29.9138   26.5562 C   0  0  0  0  0  0  0  0  0  0  0  0
  -27.5273  -27.9377   20.3616 C   0  0  0  0  0  0  0  0  0  0  0  0
  -24.4275  -29.5304   25.9525 C   0  0  0  0  0  0  0  0  0  0  0  0
  -26.8218  -26.8250   19.8817 C   0  0  0  0  0  0  0  0  0  0  0  0
  -22.8593   -9.5706   24.5119 C   0  0  0  0  0  0  0  0  0  0  0  0
  -28.9288  -25.7132   19.3975 C   0  0  0  0  0  0  0  0  0  0  0  0
  -22.4324   -7.4070   25.3235 C   0  0  0  0  0  0  0  0  0  0  0  0
  -22.8037   -4.6510   25.1013 C   0  0  0  0  0  0  0  0  0  0  0  0
  -21.3333   -6.5677   25.1413 C   0  0  0  0  0  0  0  0  0  0  0  0
  -24.7540  -12.0439   21.6500 C   0  0  0  0  0  0  0  0  0  0  0  0
  -29.8899  -18.6006   19.8125 C   0  0  0  0  0  0  0  0  0  0  0  0
  -25.2037  -13.5957   20.1584 C   0  0  0  0  0  0  0  0  0  0  0  0
  -28.3965  -20.0305   20.6037 C   0  0  0  0  0  0  0  0  0  0  0  0
  -22.8671  -13.6826   21.0424 C   0  0  0  0  0  0  0  0  0  0  0  0
  -25.3261  -28.1505   22.6448 C   0  0  0  0  0  0  0  0  0  0  0  0
  -23.2849  -28.2600   20.1261 C   0  0  0  0  0  0  0  0  0  0  0  0
  -22.6822  -27.5142   16.8508 C   0  0  0  0  0  0  0  0  0  0  0  0
  -30.5500  -15.0013   19.3928 C   0  0  0  0  0  0  0  0  0  0  0  0
  -21.9383  -29.1422   26.3322 C   0  0  0  0  0  0  0  0  0  0  0  0
  -26.7901  -29.1528   20.8537 C   0  0  0  0  0  0  0  0  0  0  0  0
  -25.3162  -26.7858   19.8692 C   0  0  0  0  0  0  0  0  0  0  0  0
  -21.9823  -28.2350   25.1052 C   0  0  0  0  0  0  0  0  0  0  0  0
  -29.6974  -11.5629   19.0359 C   0  0  0  0  0  0  0  0  0  0  0  0
  -23.2840  -27.4403   25.0753 C   0  0  0  0  0  0  0  0  0  0  0  0
  -28.2920  -11.4706   19.6328 C   0  0  0  0  0  0  0  0  0  0  0  0
  -30.5702  -12.5575   19.7981 C   0  0  0  0  0  0  0  0  0  0  0  0
  -28.5842  -13.8131   20.5418 C   0  0  0  0  0  0  0  0  0  0  0  0
  -24.4976  -28.3728   24.9804 C   0  0  1  0  0  0  0  0  0  0  0  0
  -25.3683  -28.8440   21.3125 C   0  0  1  0  0  0  0  0  0  0  0  0
  -27.6496  -12.8639   19.7725 C   0  0  2  0  0  0  0  0  0  0  0  0
  -30.1156  -17.5642   17.5241 C   0  0  0  0  0  0  0  0  0  0  0  0
  -26.0887  -19.7969   21.5900 C   0  0  0  0  0  0  0  0  0  0  0  0
  -26.4609  -21.2899   19.5932 C   0  0  0  0  0  0  0  0  0  0  0  0
  -20.9097  -27.6938   15.0835 C   0  0  0  0  0  0  0  0  0  0  0  0
  -31.9388  -24.4661   18.3999 C   0  0  0  0  0  0  0  0  0  0  0  0
  -21.7696  -25.9459   21.4141 C   0  0  0  0  0  0  0  0  0  0  0  0
  -20.6363  -25.5560   19.2159 C   0  0  0  0  0  0  0  0  0  0  0  0
  -20.3149  -27.7188   20.4166 C   0  0  0  0  0  0  0  0  0  0  0  0
  -24.4056  -29.1946   15.1289 C   0  0  0  0  0  0  0  0  0  0  0  0
  -29.8645  -22.8965   21.2986 C   0  0  0  0  0  0  0  0  0  0  0  0
  -30.9033  -22.9954   20.1732 C   0  0  0  0  0  0  0  0  0  0  0  0
  -29.8731  -21.5345   22.0025 C   0  0  0  0  0  0  0  0  0  0  0  0
  -30.3767  -17.4522   19.0438 C   0  0  2  0  0  0  0  0  0  0  0  0
  -27.1040  -20.7094   20.8703 C   0  0  0  0  0  0  0  0  0  0  0  0
  -22.5362  -27.2330   19.3113 C   0  0  1  0  0  0  0  0  0  0  0  0
  -22.1279  -28.3518   15.7125 C   0  0  2  0  0  0  0  0  0  0  0  0
  -30.8905  -24.3726   19.5004 C   0  0  2  0  0  0  0  0  0  1  0  0
  -21.3426  -26.6131   20.0914 C   0  0  0  0  0  0  0  0  0  0  0  0
  -26.0277  -11.8248   21.3127 N   0  0  0  0  0  0  0  0  0  0  0  0
  -29.5972  -20.3718   21.0827 N   0  0  0  0  0  0  0  0  0  0  0  0
  -26.2720  -12.7843   20.4040 N   0  0  0  0  0  0  0  0  0  0  0  0
  -28.5620  -18.9535   19.8290 N   0  3  0  0  0  0  0  0  0  0  0  0
  -24.6407  -27.9958   20.3663 N   0  0  0  0  0  0  0  0  0  0  0  0
  -29.9043  -13.8588   19.8938 N   0  0  0  0  0  0  0  0  0  0  0  0
  -25.2767  -14.6119   19.2727 N   0  0  0  0  0  0  0  0  0  0  0  0
  -21.9497  -13.0879   21.9193 N   0  0  0  0  0  0  0  0  0  0  0  0
  -24.6579  -28.8575   23.6262 N   0  0  0  0  0  0  0  0  0  0  0  0
  -22.1578  -27.8954   18.0678 N   0  0  0  0  0  0  0  0  0  0  0  0
  -29.8467  -16.1931   19.5176 N   0  0  0  0  0  0  0  0  0  0  0  0
  -23.1611  -28.5364   14.6545 N   0  3  0  0  0  0  0  0  0  0  0  0
  -22.5045  -14.6600   20.3447 O   0  0  0  0  0  0  0  0  0  0  0  0
  -25.8589  -27.0544   22.7724 O   0  0  0  0  0  0  0  0  0  0  0  0
  -22.6904  -29.2632   20.5283 O   0  0  0  0  0  0  0  0  0  0  0  0
  -23.4958  -26.6096   16.6773 O   0  0  0  0  0  0  0  0  0  0  0  0
  -31.6680  -14.9611   18.8679 O   0  0  0  0  0  0  0  0  0  0  0  0
  -22.2499   -8.7753   25.4331 O   0  0  0  0  0  0  0  0  0  0  0  0
  -29.6066  -24.6286   18.9326 O   0  0  0  0  0  0  0  0  0  1  0  0
  -22.9822   -3.3279   24.9932 F   0  0  0  0  0  0  0  0  0  0  0  0
  -20.0968   -7.0794   25.0711 F   0  0  0  0  0  0  0  0  0  0  0  0
  1  2  1  0  0  0  0
  1  5  2  0  0  0  0
  2  6  2  0  0  0  0
  3  8  2  0  0  0  0
  3 16  1  0  0  0  0
  4  9  1  0  0  0  0
  4 16  2  0  0  0  0
  5 18  1  0  0  0  0
  6 20  1  0  0  0  0
  7 10  2  0  0  0  0
  7 19  1  0  0  0  0
  8 22  1  0  0  0  0
  9 22  2  0  0  0  0
 10 23  1  0  0  0  0
 11 12  2  0  0  0  0
 11 24  1  0  0  0  0
 12 25  1  0  0  0  0
 13 21  1  0  0  0  0
 13 23  2  0  0  0  0
 14 25  2  0  0  0  0
 14 26  1  0  0  0  0
 15 28  2  0  0  0  0
 15 67  1  0  0  0  0
 16 27  1  0  0  0  0
 17 27  1  0  0  0  0
 17 29  2  0  0  0  0
 17 31  1  0  0  0  0
 18 20  2  0  0  0  0
 18 36  1  0  0  0  0
 19 21  2  0  0  0  0
 19 37  1  0  0  0  0
 20 45  1  0  0  0  0
 21 38  1  0  0  0  0
 22 83  1  0  0  0  0
 23 84  1  0  0  0  0
 24 26  2  0  0  0  0
 24 83  1  0  0  0  0
 25 85  1  0  0  0  0
 26 86  1  0  0  0  0
 27 66  2  0  0  0  0
 28 60  1  0  0  0  0
 28 69  1  0  0  0  0
 29 68  1  0  0  0  0
 29 72  1  0  0  0  0
 30 61  1  0  0  0  0
 30 67  1  0  0  0  0
 30 69  2  0  0  0  0
 31 73  1  0  0  0  0
 31 78  2  0  0  0  0
 32 46  1  0  0  0  0
 32 74  1  0  0  0  0
 32 79  2  0  0  0  0
 33 62  1  0  0  0  0
 33 70  1  0  0  0  0
 33 80  2  0  0  0  0
 34 63  1  0  0  0  0
 34 75  1  0  0  0  0
 34 81  2  0  0  0  0
 35 71  1  0  0  0  0
 35 76  1  0  0  0  0
 35 82  2  0  0  0  0
 36 39  1  0  0  0  0
 37 46  1  0  0  0  0
 38 70  1  0  0  0  0
 39 41  1  0  0  0  0
 40 42  1  0  0  0  0
 40 43  1  0  0  0  0
 41 45  1  0  0  0  0
 42 47  1  0  0  0  0
 43 71  1  0  0  0  0
 44 47  1  0  0  0  0
 44 71  1  0  0  0  0
 45 74  1  0  0  0  0
 46 70  1  0  0  0  0
 47 68  1  0  0  0  0
 48 60  1  0  0  0  0
 49 61  1  0  0  0  0
 50 61  1  0  0  0  0
 51 63  1  0  0  0  0
 52 64  1  0  0  0  0
 53 65  1  0  0  0  0
 54 65  1  0  0  0  0
 55 65  1  0  0  0  0
 56 77  1  0  0  0  0
 57 58  1  0  0  0  0
 57 59  1  0  0  0  0
 58 64  1  0  0  0  0
 59 67  1  0  0  0  0
 60 76  1  0  0  0  0
 62 65  1  0  0  0  0
 62 75  1  0  0  0  0
 63 77  1  0  0  0  0
 64 84  1  0  0  0  0
 66 68  1  0  0  0  0
M  CHG  2  69   1  77   1
M  ISO  4  35 100  64 101  76 100  84 101
M  END
> <Batch ID>
0087

> <Smiles>
CNC(C)C(=O)NC(C(=O)N1Cc2cc([101O:1][101CH:1](C)CCCn3cc(C(C)[100NH:0][100C:0](=O)N4CCCC(n5nc(-c6ccc(Oc7ccc(F)cc7F)cc6)c(C(N)=O)c5N)C4)nc3C(C)C)ccc2CC1C(=O)NC1CCCc2ccccc21)C(C)(C)C

> <Shape>
0.279

> <Color>
0.115

> <Negative vol penalty>
0.000

$$$$

  -OEChem-04052319013D

 88 96  0     1  0  0  0  0  0999 V2000
  -27.6248  -25.4293   16.0186 C   0  0  0  0  0  0  0  0  0  0  0  0
  -26.4551  -25.6242   16.7461 C   0  0  0  0  0  0  0  0  0  0  0  0
  -25.0111  -16.4335   24.8156 C   0  0  0  0  0  0  0  0  0  0  0  0
  -24.3859  -16.9553   22.5409 C   0  0  0  0  0  0  0  0  0  0  0  0
  -28.8523  -25.8092   16.5595 C   0  0  0  0  0  0  0  0  0  0  0  0
  -26.5125  -26.1981   18.0157 C   0  0  0  0  0  0  0  0  0  0  0  0
  -22.9557  -29.7351   18.7113 C   0  0  0  0  0  0  0  0  0  0  0  0
  -25.7301  -15.3269   24.3641 C   0  0  0  0  0  0  0  0  0  0  0  0
  -25.1051  -15.8487   22.0894 C   0  0  0  0  0  0  0  0  0  0  0  0
  -21.6609  -29.2922   18.9780 C   0  0  0  0  0  0  0  0  0  0  0  0
  -24.6741  -12.4999   21.9145 C   0  0  0  0  0  0  0  0  0  0  0  0
  -24.0681  -11.6763   20.9658 C   0  0  0  0  0  0  0  0  0  0  0  0
  -22.0093  -29.7077   21.3285 C   0  0  0  0  0  0  0  0  0  0  0  0
  -21.4217  -25.6115   21.4623 C   0  0  0  0  0  0  0  0  0  0  0  0
  -25.8703  -12.1291   19.4217 C   0  0  0  0  0  0  0  0  0  0  0  0
  -24.3389  -17.2477   23.9040 C   0  0  0  0  0  0  0  0  0  0  0  0
  -24.0955  -19.4974   25.0819 C   0  0  0  0  0  0  0  0  0  0  0  0
  -28.9238  -26.3970   17.8324 C   0  0  0  0  0  0  0  0  0  0  0  0
  -23.7922  -30.1581   19.7543 C   0  0  0  0  0  0  0  0  0  0  0  0
  -27.7423  -26.5850   18.5747 C   0  0  0  0  0  0  0  0  0  0  0  0
  -23.3134  -30.1580   21.0722 C   0  0  0  0  0  0  0  0  0  0  0  0
  -20.0793  -25.2944   21.2868 C   0  0  0  0  0  0  0  0  0  0  0  0
  -22.3999  -24.6854   21.1178 C   0  0  0  0  0  0  0  0  0  0  0  0
  -25.7772  -15.0344   23.0010 C   0  0  0  0  0  0  0  0  0  0  0  0
  -21.1885  -29.2757   20.2870 C   0  0  0  0  0  0  0  0  0  0  0  0
  -25.8782  -13.1381   21.6168 C   0  0  0  0  0  0  0  0  0  0  0  0
  -24.6662  -11.4909   19.7194 C   0  0  0  0  0  0  0  0  0  0  0  0
  -26.4763  -12.9527   20.3704 C   0  0  0  0  0  0  0  0  0  0  0  0
  -23.5955  -18.3907   24.3698 C   0  0  0  0  0  0  0  0  0  0  0  0
  -19.7700  -24.0477   20.7673 C   0  0  0  0  0  0  0  0  0  0  0  0
  -21.9866  -23.4659   20.6061 C   0  0  0  0  0  0  0  0  0  0  0  0
  -22.9987  -20.2988   25.2852 C   0  0  0  0  0  0  0  0  0  0  0  0
  -25.4318  -19.7760   25.5204 C   0  0  0  0  0  0  0  0  0  0  0  0
  -26.5771  -29.1795   20.9335 C   0  0  0  0  0  0  0  0  0  0  0  0
  -26.3031  -31.8519   22.7516 C   0  0  0  0  0  0  0  0  0  0  0  0
  -24.2684  -34.2037   24.1573 C   0  0  0  0  0  0  0  0  0  0  0  0
  -17.8059  -20.9200   22.3698 C   0  0  0  0  0  0  0  0  0  0  0  0
  -30.2785  -26.7479   18.3949 C   0  0  0  0  0  0  0  0  0  0  0  0
  -25.1771  -30.6581   19.4470 C   0  0  0  0  0  0  0  0  0  0  0  0
  -24.1646  -30.6210   22.2252 C   0  0  0  0  0  0  0  0  0  0  0  0
  -30.2147  -27.6928   19.5921 C   0  0  0  0  0  0  0  0  0  0  0  0
  -18.2472  -20.0827   25.8021 C   0  0  0  0  0  0  0  0  0  0  0  0
  -29.1547  -27.2260   20.5847 C   0  0  0  0  0  0  0  0  0  0  0  0
  -19.7131  -19.6540   25.8885 C   0  0  0  0  0  0  0  0  0  0  0  0
  -17.6083  -19.6466   24.4855 C   0  0  0  0  0  0  0  0  0  0  0  0
  -19.8011  -19.6416   23.3605 C   0  0  0  0  0  0  0  0  0  0  0  0
  -27.7611  -27.2272   19.9449 C   0  0  1  0  0  0  0  0  0  0  0  0
  -26.1195  -30.5812   20.6442 C   0  0  1  0  0  0  0  0  0  0  0  0
  -20.5041  -20.1078   24.6469 C   0  0  2  0  0  0  0  0  0  0  0  0
  -24.1744  -25.3685   22.7521 C   0  0  0  0  0  0  0  0  0  0  0  0
  -24.3305  -36.2413   25.6208 C   0  0  0  0  0  0  0  0  0  0  0  0
  -23.8717  -22.0164   21.4374 C   0  0  0  0  0  0  0  0  0  0  0  0
  -23.9507  -22.9688   19.1087 C   0  0  0  0  0  0  0  0  0  0  0  0
  -22.4027  -21.1008   19.6526 C   0  0  0  0  0  0  0  0  0  0  0  0
  -26.7204  -30.0784   25.1990 C   0  0  0  0  0  0  0  0  0  0  0  0
  -25.8405  -31.9457   26.6157 C   0  0  0  0  0  0  0  0  0  0  0  0
  -27.9231  -32.2696   25.2813 C   0  0  0  0  0  0  0  0  0  0  0  0
  -23.1246  -35.9107   22.0274 C   0  0  0  0  0  0  0  0  0  0  0  0
  -23.8398  -25.0188   21.3037 C   0  0  0  0  0  0  0  0  0  0  0  0
  -19.0137  -26.2944   21.6583 C   0  0  0  0  0  0  0  0  0  0  0  0
  -18.3452  -23.6513   20.5578 C   0  0  0  0  0  0  0  0  0  0  0  0
  -18.3882  -27.0035   20.4551 C   0  0  0  0  0  0  0  0  0  0  0  0
  -18.1635  -22.1609   20.2505 C   0  0  0  0  0  0  0  0  0  0  0  0
  -19.3808  -27.8571   19.6743 C   0  0  0  0  0  0  0  0  0  1  0  0
  -25.6928  -32.1735   24.0944 C   0  0  1  0  0  0  0  0  0  0  0  0
  -24.3547  -35.7188   24.1927 C   0  0  2  0  0  0  0  0  0  0  0  0
  -22.9941  -22.4336   20.2179 C   0  0  0  0  0  0  0  0  0  0  0  0
  -26.5286  -31.6062   25.2763 C   0  0  0  0  0  0  0  0  0  0  0  0
  -22.2832  -18.4778   24.1365 N   0  0  0  0  0  0  0  0  0  0  0  0
  -20.6923  -23.1220   20.4212 N   0  0  0  0  0  0  0  0  0  0  0  0
  -21.9493  -19.6487   24.7053 N   0  0  0  0  0  0  0  0  0  0  0  0
  -25.5136  -31.0949   21.8743 N   0  0  0  0  0  0  0  0  0  0  0  0
  -18.4063  -20.1099   23.3477 N   0  0  0  0  0  0  0  0  0  0  0  0
  -22.8393  -21.4892   25.9017 N   0  0  0  0  0  0  0  0  0  0  0  0
  -26.2820  -20.4867   24.6624 N   0  0  0  0  0  0  0  0  0  0  0  0
  -27.2358  -28.5741   19.8803 N   0  0  0  0  0  0  0  0  0  0  0  0
  -25.5180  -33.6215   24.1270 N   0  0  0  0  0  0  0  0  0  0  0  0
  -18.6345  -21.3203   21.3287 N   0  0  0  0  0  0  0  0  0  0  0  0
  -23.2093  -36.3203   23.4529 N   0  3  0  0  0  0  0  0  0  0  0  0
  -25.8644  -19.3914   26.6333 O   0  0  0  0  0  0  0  0  0  0  0  0
  -26.3507  -28.6845   22.0314 O   0  0  0  0  0  0  0  0  0  0  0  0
  -27.4357  -32.2635   22.4879 O   0  0  0  0  0  0  0  0  0  0  0  0
  -23.1995  -33.5971   24.1602 O   0  0  0  0  0  0  0  0  0  0  0  0
  -16.6207  -21.2655   22.4235 O   0  0  0  0  0  0  0  0  0  0  0  0
  -26.4790  -13.9548   22.5601 O   0  0  0  0  0  0  0  0  0  0  0  0
  -19.9253  -28.8433   20.5502 O   0  0  0  0  0  0  0  0  0  1  0  0
  -24.0849  -10.6988   18.8090 F   0  0  0  0  0  0  0  0  0  0  0  0
  -27.6336  -13.5622   20.0791 F   0  0  0  0  0  0  0  0  0  0  0  0
  1  2  1  0  0  0  0
  1  5  2  0  0  0  0
  2  6  2  0  0  0  0
  3  8  2  0  0  0  0
  3 16  1  0  0  0  0
  4  9  1  0  0  0  0
  4 16  2  0  0  0  0
  5 18  1  0  0  0  0
  6 20  1  0  0  0  0
  7 10  2  0  0  0  0
  7 19  1  0  0  0  0
  8 24  1  0  0  0  0
  9 24  2  0  0  0  0
 10 25  1  0  0  0  0
 11 12  2  0  0  0  0
 11 26  1  0  0  0  0
 12 27  1  0  0  0  0
 13 21  1  0  0  0  0
 13 25  2  0  0  0  0
 14 22  2  0  0  0  0
 14 23  1  0  0  0  0
 15 27  2  0  0  0  0
 15 28  1  0  0  0  0
 16 29  1  0  0  0  0
 17 29  1  0  0  0  0
 17 32  2  0  0  0  0
 17 33  1  0  0  0  0
 18 20  2  0  0  0  0
 18 38  1  0  0  0  0
 19 21  2  0  0  0  0
 19 39  1  0  0  0  0
 20 47  1  0  0  0  0
 21 40  1  0  0  0  0
 22 30  1  0  0  0  0
 22 60  1  0  0  0  0
 23 31  2  0  0  0  0
 23 59  1  0  0  0  0
 24 85  1  0  0  0  0
 25 86  1  0  0  0  0
 26 28  2  0  0  0  0
 26 85  1  0  0  0  0
 27 87  1  0  0  0  0
 28 88  1  0  0  0  0
 29 69  2  0  0  0  0
 30 61  1  0  0  0  0
 30 70  2  0  0  0  0
 31 67  1  0  0  0  0
 31 70  1  0  0  0  0
 32 71  1  0  0  0  0
 32 74  1  0  0  0  0
 33 75  1  0  0  0  0
 33 80  2  0  0  0  0
 34 48  1  0  0  0  0
 34 76  1  0  0  0  0
 34 81  2  0  0  0  0
 35 65  1  0  0  0  0
 35 72  1  0  0  0  0
 35 82  2  0  0  0  0
 36 66  1  0  0  0  0
 36 77  1  0  0  0  0
 36 83  2  0  0  0  0
 37 73  1  0  0  0  0
 37 78  1  0  0  0  0
 37 84  2  0  0  0  0
 38 41  1  0  0  0  0
 39 48  1  0  0  0  0
 40 72  1  0  0  0  0
 41 43  1  0  0  0  0
 42 44  1  0  0  0  0
 42 45  1  0  0  0  0
 43 47  1  0  0  0  0
 44 49  1  0  0  0  0
 45 73  1  0  0  0  0
 46 49  1  0  0  0  0
 46 73  1  0  0  0  0
 47 76  1  0  0  0  0
 48 72  1  0  0  0  0
 49 71  1  0  0  0  0
 50 59  1  0  0  0  0
 51 66  1  0  0  0  0
 52 67  1  0  0  0  0
 53 67  1  0  0  0  0
 54 67  1  0  0  0  0
 55 68  1  0  0  0  0
 56 68  1  0  0  0  0
 57 68  1  0  0  0  0
 58 79  1  0  0  0  0
 60 62  1  0  0  0  0
 61 63  1  0  0  0  0
 62 64  1  0  0  0  0
 63 78  1  0  0  0  0
 64 86  1  0  0  0  0
 65 68  1  0  0  0  0
 65 77  1  0  0  0  0
 66 79  1  0  0  0  0
 69 71  1  0  0  0  0
M  CHG  1  79   1
M  ISO  4  37 100  64 101  78 100  86 101
M  END
> <Batch ID>
0087

> <Smiles>
CCc1cc(CC[101CH2:1][101O:1]c2ccc3c(c2)CN(C(=O)C(NC(=O)C(C)NC)C(C)(C)C)C(C(=O)NC2CCCc4ccccc42)C3)c(CC[100NH:0][100C:0](=O)N2CCCC(n3nc(-c4ccc(Oc5ccc(F)cc5F)cc4)c(C(N)=O)c3N)C2)nc1C(C)(C)C

> <Shape>
0.217

> <Color>
0.069

> <Negative vol penalty>
0.000

$$$$

  -OEChem-04052319013D

 82 90  0     1  0  0  0  0  0999 V2000
  -28.0137  -18.3776   18.1736 C   0  0  0  0  0  0  0  0  0  0  0  0
  -26.9775  -19.3045   18.1233 C   0  0  0  0  0  0  0  0  0  0  0  0
  -23.4291  -14.5991   20.4521 C   0  0  0  0  0  0  0  0  0  0  0  0
  -25.2548  -15.4256   21.8016 C   0  0  0  0  0  0  0  0  0  0  0  0
  -29.0718  -18.5642   19.0621 C   0  0  0  0  0  0  0  0  0  0  0  0
  -26.9983  -20.4181   18.9623 C   0  0  0  0  0  0  0  0  0  0  0  0
  -25.0240  -27.3015   19.1540 C   0  0  0  0  0  0  0  0  0  0  0  0
  -24.1636  -13.4492   20.1627 C   0  0  0  0  0  0  0  0  0  0  0  0
  -25.9893  -14.2756   21.5122 C   0  0  0  0  0  0  0  0  0  0  0  0
  -24.3039  -28.1938   19.9471 C   0  0  0  0  0  0  0  0  0  0  0  0
  -28.4871  -11.7230   20.8380 C   0  0  0  0  0  0  0  0  0  0  0  0
  -29.8291  -11.8808   20.4918 C   0  0  0  0  0  0  0  0  0  0  0  0
  -26.2226  -28.4540   21.3859 C   0  0  0  0  0  0  0  0  0  0  0  0
  -20.2214  -28.2940   23.2720 C   0  0  0  0  0  0  0  0  0  0  0  0
  -29.1816  -13.2375   18.6004 C   0  0  0  0  0  0  0  0  0  0  0  0
  -22.0653  -27.9699   24.5229 C   0  0  0  0  0  0  0  0  0  0  0  0
  -23.9747  -15.5874   21.2715 C   0  0  0  0  0  0  0  0  0  0  0  0
  -22.3320  -16.9712   22.6478 C   0  0  0  0  0  0  0  0  0  0  0  0
  -29.1105  -19.6856   19.9056 C   0  0  0  0  0  0  0  0  0  0  0  0
  -26.3475  -26.9699   19.4776 C   0  0  0  0  0  0  0  0  0  0  0  0
  -28.0573  -20.6192   19.8639 C   0  0  0  0  0  0  0  0  0  0  0  0
  -26.9582  -27.5593   20.5938 C   0  0  0  0  0  0  0  0  0  0  0  0
  -20.8698  -27.3941   24.1534 C   0  0  0  0  0  0  0  0  0  0  0  0
  -25.4437  -13.2874   20.6927 C   0  0  0  0  0  0  0  0  0  0  0  0
  -24.9022  -28.7680   21.0649 C   0  0  0  0  0  0  0  0  0  0  0  0
  -27.4924  -12.3223   20.0653 C   0  0  0  0  0  0  0  0  0  0  0  0
  -30.1763  -12.6381   19.3731 C   0  0  0  0  0  0  0  0  0  0  0  0
  -27.8396  -13.0796   18.9466 C   0  0  0  0  0  0  0  0  0  0  0  0
  -23.2167  -16.7757   21.5704 C   0  0  0  0  0  0  0  0  0  0  0  0
  -21.0406  -29.3923   23.1296 C   0  0  0  0  0  0  0  0  0  0  0  0
  -21.8718  -18.2550   22.4857 C   0  0  0  0  0  0  0  0  0  0  0  0
  -21.9596  -16.0726   23.7012 C   0  0  0  0  0  0  0  0  0  0  0  0
  -27.8593  -24.2870   20.2650 C   0  0  0  0  0  0  0  0  0  0  0  0
  -30.4892  -26.1780   20.0916 C   0  0  0  0  0  0  0  0  0  0  0  0
  -31.8134  -29.3198   20.2405 C   0  0  0  0  0  0  0  0  0  0  0  0
  -22.7816  -23.6462   21.3663 C   0  0  0  0  0  0  0  0  0  0  0  0
  -30.2513  -19.8200   20.8829 C   0  0  0  0  0  0  0  0  0  0  0  0
  -27.1194  -26.0263   18.5967 C   0  0  0  0  0  0  0  0  0  0  0  0
  -28.3831  -27.2520   20.9727 C   0  0  0  0  0  0  0  0  0  0  0  0
  -30.3858  -21.2213   21.4733 C   0  0  0  0  0  0  0  0  0  0  0  0
  -22.3412  -21.4540   18.5956 C   0  0  0  0  0  0  0  0  0  0  0  0
  -29.0253  -21.7434   21.9242 C   0  0  0  0  0  0  0  0  0  0  0  0
  -22.4630  -20.0585   19.2103 C   0  0  0  0  0  0  0  0  0  0  0  0
  -23.2919  -22.4479   19.2591 C   0  0  0  0  0  0  0  0  0  0  0  0
  -23.3013  -21.1311   21.3423 C   0  0  0  0  0  0  0  0  0  0  0  0
  -28.0565  -21.8527   20.7406 C   0  0  1  0  0  0  0  0  0  0  0  0
  -28.2932  -25.3653   19.3129 C   0  0  1  0  0  0  0  0  0  0  0  0
  -22.3220  -20.1070   20.7436 C   0  0  2  0  0  0  0  0  0  0  0  0
  -20.8498  -30.6198   22.3296 C   0  0  0  0  0  0  0  0  0  0  0  0
  -33.9988  -30.5452   20.0990 C   0  0  0  0  0  0  0  0  0  0  0  0
  -31.1918  -25.2455   22.9106 C   0  0  0  0  0  0  0  0  0  0  0  0
  -32.7905  -27.1655   23.0722 C   0  0  0  0  0  0  0  0  0  0  0  0
  -33.1376  -25.3977   21.3468 C   0  0  0  0  0  0  0  0  0  0  0  0
  -30.9230  -30.8724   17.8835 C   0  0  0  0  0  0  0  0  0  0  0  0
  -20.3596  -26.0822   24.5952 C   0  0  0  0  0  0  0  0  0  0  0  0
  -20.7664  -24.8867   23.6995 C   0  0  0  0  0  0  0  0  0  0  0  0
  -23.3230  -30.1341   24.0354 C   0  0  0  0  0  0  0  0  0  0  0  0
  -22.2755  -24.7026   23.5542 C   0  0  0  0  0  0  0  0  0  0  0  0
  -24.5366  -29.6879   23.2273 C   0  0  0  0  0  0  0  0  0  1  0  0
  -31.2450  -27.0501   21.0649 C   0  0  1  0  0  0  0  0  0  0  0  0
  -32.7853  -30.0476   19.3293 C   0  0  2  0  0  0  0  0  0  0  0  0
  -32.0637  -26.2192   22.0929 C   0  0  0  0  0  0  0  0  0  0  0  0
  -23.3141  -17.8494   20.7819 N   0  0  0  0  0  0  0  0  0  0  0  0
  -22.1586  -29.1841   23.8943 N   0  0  0  0  0  0  0  0  0  0  0  0
  -22.4846  -18.7319   21.3644 N   0  0  0  0  0  0  0  0  0  0  0  0
  -29.0942  -26.3185   20.0836 N   0  0  0  0  0  0  0  0  0  0  0  0
  -23.1063  -22.4463   20.7122 N   0  0  0  0  0  0  0  0  0  0  0  0
  -21.0066  -19.0113   23.1942 N   0  0  0  0  0  0  0  0  0  0  0  0
  -22.5267  -14.7909   23.7177 N   0  0  0  0  0  0  0  0  0  0  0  0
  -28.3491  -23.0325   19.9552 N   0  0  0  0  0  0  0  0  0  0  0  0
  -32.0487  -27.9613   20.2574 N   0  0  0  0  0  0  0  0  0  0  0  0
  -22.6170  -23.5554   22.7430 N   0  0  0  0  0  0  0  0  0  0  0  0
  -32.1199  -31.2191   18.6923 N   0  3  0  0  0  0  0  0  0  0  0  0
  -21.1356  -16.3908   24.5918 O   0  0  0  0  0  0  0  0  0  0  0  0
  -27.1352  -24.5722   21.2116 O   0  0  0  0  0  0  0  0  0  0  0  0
  -31.1141  -25.4059   19.3602 O   0  0  0  0  0  0  0  0  0  0  0  0
  -30.9358  -29.8991   20.8768 O   0  0  0  0  0  0  0  0  0  0  0  0
  -22.6431  -24.7179   20.7670 O   0  0  0  0  0  0  0  0  0  0  0  0
  -26.1606  -12.1653   20.4108 O   0  0  0  0  0  0  0  0  0  0  0  0
  -24.2013  -29.6387   21.8411 O   0  0  0  0  0  0  0  0  0  1  0  0
  -31.4651  -12.7909   19.0417 F   0  0  0  0  0  0  0  0  0  0  0  0
  -26.8885  -13.6587   18.2011 F   0  0  0  0  0  0  0  0  0  0  0  0
  1  2  1  0  0  0  0
  1  5  2  0  0  0  0
  2  6  2  0  0  0  0
  3  8  2  0  0  0  0
  3 17  1  0  0  0  0
  4  9  1  0  0  0  0
  4 17  2  0  0  0  0
  5 19  1  0  0  0  0
  6 21  1  0  0  0  0
  7 10  2  0  0  0  0
  7 20  1  0  0  0  0
  8 24  1  0  0  0  0
  9 24  2  0  0  0  0
 10 25  1  0  0  0  0
 11 12  2  0  0  0  0
 11 26  1  0  0  0  0
 12 27  1  0  0  0  0
 13 22  1  0  0  0  0
 13 25  2  0  0  0  0
 14 23  1  0  0  0  0
 14 30  2  0  0  0  0
 15 27  2  0  0  0  0
 15 28  1  0  0  0  0
 16 23  2  0  0  0  0
 16 64  1  0  0  0  0
 17 29  1  0  0  0  0
 18 29  1  0  0  0  0
 18 31  2  0  0  0  0
 18 32  1  0  0  0  0
 19 21  2  0  0  0  0
 19 37  1  0  0  0  0
 20 22  2  0  0  0  0
 20 38  1  0  0  0  0
 21 46  1  0  0  0  0
 22 39  1  0  0  0  0
 23 55  1  0  0  0  0
 24 79  1  0  0  0  0
 25 80  1  0  0  0  0
 26 28  2  0  0  0  0
 26 79  1  0  0  0  0
 27 81  1  0  0  0  0
 28 82  1  0  0  0  0
 29 63  2  0  0  0  0
 30 49  1  0  0  0  0
 30 64  1  0  0  0  0
 31 65  1  0  0  0  0
 31 68  1  0  0  0  0
 32 69  1  0  0  0  0
 32 74  2  0  0  0  0
 33 47  1  0  0  0  0
 33 70  1  0  0  0  0
 33 75  2  0  0  0  0
 34 60  1  0  0  0  0
 34 66  1  0  0  0  0
 34 76  2  0  0  0  0
 35 61  1  0  0  0  0
 35 71  1  0  0  0  0
 35 77  2  0  0  0  0
 36 67  1  0  0  0  0
 36 72  1  0  0  0  0
 36 78  2  0  0  0  0
 37 40  1  0  0  0  0
 38 47  1  0  0  0  0
 39 66  1  0  0  0  0
 40 42  1  0  0  0  0
 41 43  1  0  0  0  0
 41 44  1  0  0  0  0
 42 46  1  0  0  0  0
 43 48  1  0  0  0  0
 44 67  1  0  0  0  0
 45 48  1  0  0  0  0
 45 67  1  0  0  0  0
 46 70  1  0  0  0  0
 47 66  1  0  0  0  0
 48 65  1  0  0  0  0
 50 61  1  0  0  0  0
 51 62  1  0  0  0  0
 52 62  1  0  0  0  0
 53 62  1  0  0  0  0
 54 73  1  0  0  0  0
 55 56  1  0  0  0  0
 56 58  1  0  0  0  0
 57 59  1  0  0  0  0
 57 64  1  0  0  0  0
 58 72  1  0  0  0  0
 59 80  1  0  0  0  0
 60 62  1  0  0  0  0
 60 71  1  0  0  0  0
 61 73  1  0  0  0  0
 63 65  1  0  0  0  0
M  CHG  1  73   1
M  ISO  4  36 100  59 101  72 100  80 101
M  END
> <Batch ID>
0087

> <Smiles>
CNC(C)C(=O)NC(C(=O)N1Cc2cc([101O:1][101CH2:1]Cn3cc(CCC[100NH:0][100C:0](=O)N4CCCC(n5nc(-c6ccc(Oc7ccc(F)cc7F)cc6)c(C(N)=O)c5N)C4)cc3C)ccc2CC1C(=O)NC1CCCc2ccccc21)C(C)(C)C

> <Shape>
0.236

> <Color>
0.064

> <Negative vol penalty>
0.000

$$$$

  -OEChem-04052319013D

 86 94  0     1  0  0  0  0  0999 V2000
  -20.3440  -32.1566   23.2100 C   0  0  0  0  0  0  0  0  0  0  0  0
  -21.2736  -31.2018   23.6095 C   0  0  0  0  0  0  0  0  0  0  0  0
  -25.0951  -13.5239   21.7041 C   0  0  0  0  0  0  0  0  0  0  0  0
  -26.4722  -13.2840   19.7336 C   0  0  0  0  0  0  0  0  0  0  0  0
  -19.0196  -31.7856   22.9817 C   0  0  0  0  0  0  0  0  0  0  0  0
  -20.8790  -29.8755   23.7820 C   0  0  0  0  0  0  0  0  0  0  0  0
  -24.1489  -26.5940   21.7363 C   0  0  0  0  0  0  0  0  0  0  0  0
  -24.2573  -12.5089   21.2422 C   0  0  0  0  0  0  0  0  0  0  0  0
  -25.6344  -12.2689   19.2716 C   0  0  0  0  0  0  0  0  0  0  0  0
  -25.3177  -26.3315   22.4495 C   0  0  0  0  0  0  0  0  0  0  0  0
  -24.2735   -9.1300   21.1156 C   0  0  0  0  0  0  0  0  0  0  0  0
  -23.8777   -8.1512   22.0270 C   0  0  0  0  0  0  0  0  0  0  0  0
  -24.3474  -24.2824   23.2735 C   0  0  0  0  0  0  0  0  0  0  0  0
  -21.5652   -8.7518   21.6677 C   0  0  0  0  0  0  0  0  0  0  0  0
  -30.2113  -23.7624   20.9414 C   0  0  0  0  0  0  0  0  0  0  0  0
  -26.2026  -13.9115   20.9498 C   0  0  0  0  0  0  0  0  0  0  0  0
  -28.2080  -14.8179   22.2398 C   0  0  0  0  0  0  0  0  0  0  0  0
  -18.6107  -30.4523   23.1421 C   0  0  0  0  0  0  0  0  0  0  0  0
  -23.0647  -25.7067   21.7951 C   0  0  0  0  0  0  0  0  0  0  0  0
  -19.5476  -29.4866   23.5569 C   0  0  0  0  0  0  0  0  0  0  0  0
  -23.1669  -24.5347   22.5581 C   0  0  0  0  0  0  0  0  0  0  0  0
  -30.3672  -24.8682   21.7409 C   0  0  0  0  0  0  0  0  0  0  0  0
  -24.5269  -11.8814   20.0260 C   0  0  0  0  0  0  0  0  0  0  0  0
  -25.4161  -25.1770   23.2206 C   0  0  0  0  0  0  0  0  0  0  0  0
  -23.3152   -9.9198   20.4803 C   0  0  0  0  0  0  0  0  0  0  0  0
  -22.5236   -7.9620   22.3031 C   0  0  0  0  0  0  0  0  0  0  0  0
  -21.9611   -9.7307   20.7563 C   0  0  0  0  0  0  0  0  0  0  0  0
  -27.0681  -14.9603   21.4261 C   0  0  0  0  0  0  0  0  0  0  0  0
  -30.6139  -25.9217   20.8402 C   0  0  0  0  0  0  0  0  0  0  0  0
  -28.6725  -16.0996   22.4074 C   0  0  0  0  0  0  0  0  0  0  0  0
  -28.7946  -13.6330   22.7946 C   0  0  0  0  0  0  0  0  0  0  0  0
  -20.0541  -25.9066   22.7952 C   0  0  0  0  0  0  0  0  0  0  0  0
  -19.8508  -22.9197   21.5464 C   0  0  0  0  0  0  0  0  0  0  0  0
  -21.4506  -20.0489   20.6269 C   0  0  0  0  0  0  0  0  0  0  0  0
  -28.1457  -20.9419   19.0713 C   0  0  0  0  0  0  0  0  0  0  0  0
  -17.1578  -30.1079   22.9294 C   0  0  0  0  0  0  0  0  0  0  0  0
  -21.8208  -25.9910   20.9986 C   0  0  0  0  0  0  0  0  0  0  0  0
  -22.0390  -23.5398   22.6384 C   0  0  0  0  0  0  0  0  0  0  0  0
  -16.9033  -28.6110   22.7721 C   0  0  0  0  0  0  0  0  0  0  0  0
  -27.1670  -20.6408   22.5424 C   0  0  0  0  0  0  0  0  0  0  0  0
  -17.6484  -27.8269   23.8476 C   0  0  0  0  0  0  0  0  0  0  0  0
  -27.1413  -19.1216   22.7205 C   0  0  0  0  0  0  0  0  0  0  0  0
  -26.6582  -21.0441   21.1616 C   0  0  0  0  0  0  0  0  0  0  0  0
  -27.3557  -18.8834   20.2031 C   0  0  0  0  0  0  0  0  0  0  0  0
  -19.1635  -28.0332   23.7308 C   0  0  1  0  0  0  0  0  0  0  0  0
  -20.5876  -25.2749   21.5406 C   0  0  1  0  0  0  0  0  0  0  0  0
  -27.8796  -18.4102   21.5712 C   0  0  2  0  0  0  0  0  0  0  0  0
  -31.4040  -24.0831   23.8854 C   0  0  0  0  0  0  0  0  0  0  0  0
  -21.0139  -17.7694   19.6727 C   0  0  0  0  0  0  0  0  0  0  0  0
  -32.1199  -27.5301   22.0611 C   0  0  0  0  0  0  0  0  0  0  0  0
  -29.6482  -27.9841   21.9176 C   0  0  0  0  0  0  0  0  0  0  0  0
  -31.1014  -28.2875   19.9232 C   0  0  0  0  0  0  0  0  0  0  0  0
  -18.7653  -22.0004   24.2457 C   0  0  0  0  0  0  0  0  0  0  0  0
  -19.2460  -19.6418   23.5573 C   0  0  0  0  0  0  0  0  0  0  0  0
  -17.6083  -21.0078   22.2632 C   0  0  0  0  0  0  0  0  0  0  0  0
  -23.1482  -20.5860   18.2628 C   0  0  0  0  0  0  0  0  0  0  0  0
  -28.9159  -24.4971   23.8082 C   0  0  0  0  0  0  0  0  0  0  0  0
  -30.2920  -23.4011   18.4630 C   0  0  0  0  0  0  0  0  0  0  0  0
  -28.8577  -23.0865   18.0461 C   0  0  0  0  0  0  0  0  0  0  0  0
  -27.7774  -25.4151   23.3733 C   0  0  0  0  0  0  0  0  0  1  0  0
  -30.2889  -24.9274   23.2567 C   0  0  2  0  0  0  0  0  0  0  0  0
  -20.0762  -21.5231   22.0732 C   0  0  1  0  0  0  0  0  0  0  0  0
  -21.3736  -19.2139   19.3615 C   0  0  2  0  0  0  0  0  0  0  0  0
  -30.8561  -27.3407   21.1546 C   0  0  0  0  0  0  0  0  0  0  0  0
  -18.9446  -21.0628   23.0351 C   0  0  0  0  0  0  0  0  0  0  0  0
  -26.8233  -16.2321   21.0996 N   0  0  0  0  0  0  0  0  0  0  0  0
  -30.6157  -25.5210   19.5661 N   0  0  0  0  0  0  0  0  0  0  0  0
  -30.3683  -24.2034   19.6604 N   0  0  0  0  0  0  0  0  0  0  0  0
  -27.8158  -16.9006   21.7113 N   0  0  0  0  0  0  0  0  0  0  0  0
  -20.8412  -23.8656   21.8468 N   0  0  0  0  0  0  0  0  0  0  0  0
  -27.4147  -20.3462   20.1124 N   0  0  0  0  0  0  0  0  0  0  0  0
  -29.7261  -16.6082   23.0809 N   0  0  0  0  0  0  0  0  0  0  0  0
  -28.1898  -12.3981   22.5232 N   0  0  0  0  0  0  0  0  0  0  0  0
  -19.7004  -27.2345   22.6499 N   0  0  0  0  0  0  0  0  0  0  0  0
  -20.2504  -20.6688   20.9035 N   0  0  0  0  0  0  0  0  0  0  0  0
  -28.1453  -22.3313   19.0527 N   0  0  0  0  0  0  0  0  0  0  0  0
  -22.6832  -19.2293   18.6502 N   0  3  0  0  0  0  0  0  0  0  0  0
  -29.8150  -13.6700   23.5232 O   0  0  0  0  0  0  0  0  0  0  0  0
  -19.9682  -25.2384   23.8188 O   0  0  0  0  0  0  0  0  0  0  0  0
  -18.8369  -23.1608   20.8864 O   0  0  0  0  0  0  0  0  0  0  0  0
  -22.4721  -20.1390   21.3043 O   0  0  0  0  0  0  0  0  0  0  0  0
  -28.7585  -20.2840   18.2234 O   0  0  0  0  0  0  0  0  0  0  0  0
  -23.7097  -10.8907   19.5750 O   0  0  0  0  0  0  0  0  0  0  0  0
  -26.5555  -24.9186   23.9182 O   0  0  0  0  0  0  0  0  0  1  0  0
  -22.1435   -7.0209   23.1772 F   0  0  0  0  0  0  0  0  0  0  0  0
  -21.0358  -10.4855   20.1482 F   0  0  0  0  0  0  0  0  0  0  0  0
  1  2  1  0  0  0  0
  1  5  2  0  0  0  0
  2  6  2  0  0  0  0
  3  8  2  0  0  0  0
  3 16  1  0  0  0  0
  4  9  1  0  0  0  0
  4 16  2  0  0  0  0
  5 18  1  0  0  0  0
  6 20  1  0  0  0  0
  7 10  2  0  0  0  0
  7 19  1  0  0  0  0
  8 23  1  0  0  0  0
  9 23  2  0  0  0  0
 10 24  1  0  0  0  0
 11 12  2  0  0  0  0
 11 25  1  0  0  0  0
 12 26  1  0  0  0  0
 13 21  1  0  0  0  0
 13 24  2  0  0  0  0
 14 26  2  0  0  0  0
 14 27  1  0  0  0  0
 15 22  2  0  0  0  0
 15 68  1  0  0  0  0
 16 28  1  0  0  0  0
 17 28  1  0  0  0  0
 17 30  2  0  0  0  0
 17 31  1  0  0  0  0
 18 20  2  0  0  0  0
 18 36  1  0  0  0  0
 19 21  2  0  0  0  0
 19 37  1  0  0  0  0
 20 45  1  0  0  0  0
 21 38  1  0  0  0  0
 22 29  1  0  0  0  0
 22 61  1  0  0  0  0
 23 83  1  0  0  0  0
 24 84  1  0  0  0  0
 25 27  2  0  0  0  0
 25 83  1  0  0  0  0
 26 85  1  0  0  0  0
 27 86  1  0  0  0  0
 28 66  2  0  0  0  0
 29 64  1  0  0  0  0
 29 67  2  0  0  0  0
 30 69  1  0  0  0  0
 30 72  1  0  0  0  0
 31 73  1  0  0  0  0
 31 78  2  0  0  0  0
 32 46  1  0  0  0  0
 32 74  1  0  0  0  0
 32 79  2  0  0  0  0
 33 62  1  0  0  0  0
 33 70  1  0  0  0  0
 33 80  2  0  0  0  0
 34 63  1  0  0  0  0
 34 75  1  0  0  0  0
 34 81  2  0  0  0  0
 35 71  1  0  0  0  0
 35 76  1  0  0  0  0
 35 82  2  0  0  0  0
 36 39  1  0  0  0  0
 37 46  1  0  0  0  0
 38 70  1  0  0  0  0
 39 41  1  0  0  0  0
 40 42  1  0  0  0  0
 40 43  1  0  0  0  0
 41 45  1  0  0  0  0
 42 47  1  0  0  0  0
 43 71  1  0  0  0  0
 44 47  1  0  0  0  0
 44 71  1  0  0  0  0
 45 74  1  0  0  0  0
 46 70  1  0  0  0  0
 47 69  1  0  0  0  0
 48 61  1  0  0  0  0
 49 63  1  0  0  0  0
 50 64  1  0  0  0  0
 51 64  1  0  0  0  0
 52 64  1  0  0  0  0
 53 65  1  0  0  0  0
 54 65  1  0  0  0  0
 55 65  1  0  0  0  0
 56 77  1  0  0  0  0
 57 60  1  0  0  0  0
 57 61  1  0  0  0  0
 58 59  1  0  0  0  0
 58 68  1  0  0  0  0
 59 76  1  0  0  0  0
 60 84  1  0  0  0  0
 62 65  1  0  0  0  0
 62 75  1  0  0  0  0
 63 77  1  0  0  0  0
 66 69  1  0  0  0  0
 67 68  1  0  0  0  0
M  CHG  1  77   1
M  ISO  4  35 100  60 101  76 100  84 101
M  END
> <Batch ID>
0087

> <Smiles>
CNC(C)C(=O)NC(C(=O)N1Cc2cc([101O:1][101CH2:1]CC(C)c3cn(CC[100NH:0][100C:0](=O)N4CCCC(n5nc(-c6ccc(Oc7ccc(F)cc7F)cc6)c(C(N)=O)c5N)C4)nc3C(C)(C)C)ccc2CC1C(=O)NC1CCCc2ccccc21)C(C)(C)C

> <Shape>
0.214

> <Color>
0.066

> <Negative vol penalty>
0.000

$$$$

  -OEChem-04052319013D

 87 95  0     1  0  0  0  0  0999 V2000
  -32.6716  -29.3857   15.1895 C   0  0  0  0  0  0  0  0  0  0  0  0
  -32.0512  -28.3825   15.9272 C   0  0  0  0  0  0  0  0  0  0  0  0
  -28.0801  -13.3352   22.2952 C   0  0  0  0  0  0  0  0  0  0  0  0
  -27.1921  -14.7107   20.5186 C   0  0  0  0  0  0  0  0  0  0  0  0
  -32.7785  -30.6721   15.7163 C   0  0  0  0  0  0  0  0  0  0  0  0
  -31.5383  -28.6650   17.1927 C   0  0  0  0  0  0  0  0  0  0  0  0
  -26.9248  -26.7010   17.9017 C   0  0  0  0  0  0  0  0  0  0  0  0
  -27.1343  -12.3515   22.0065 C   0  0  0  0  0  0  0  0  0  0  0  0
  -26.2463  -13.7270   20.2298 C   0  0  0  0  0  0  0  0  0  0  0  0
  -26.8496  -25.3376   18.1835 C   0  0  0  0  0  0  0  0  0  0  0  0
  -23.3669  -11.7332   19.2582 C   0  0  0  0  0  0  0  0  0  0  0  0
  -22.0509  -12.1424   19.0434 C   0  0  0  0  0  0  0  0  0  0  0  0
  -26.5905  -25.8426   20.5281 C   0  0  0  0  0  0  0  0  0  0  0  0
  -29.5376  -22.8106   17.7497 C   0  0  0  0  0  0  0  0  0  0  0  0
  -21.9762  -13.0728   21.2718 C   0  0  0  0  0  0  0  0  0  0  0  0
  -28.1090  -14.5148   21.5514 C   0  0  0  0  0  0  0  0  0  0  0  0
  -30.3761  -15.6575   21.3017 C   0  0  0  0  0  0  0  0  0  0  0  0
  -32.2581  -30.9729   16.9849 C   0  0  0  0  0  0  0  0  0  0  0  0
  -26.8442  -27.6466   18.9340 C   0  0  0  0  0  0  0  0  0  0  0  0
  -31.6395  -29.9564   17.7375 C   0  0  0  0  0  0  0  0  0  0  0  0
  -26.6624  -27.2175   20.2565 C   0  0  0  0  0  0  0  0  0  0  0  0
  -30.8944  -23.1130   17.7806 C   0  0  0  0  0  0  0  0  0  0  0  0
  -31.4657  -23.6014   18.9504 C   0  0  0  0  0  0  0  0  0  0  0  0
  -26.2174  -12.5474   20.9737 C   0  0  0  0  0  0  0  0  0  0  0  0
  -26.6853  -24.9082   19.4971 C   0  0  0  0  0  0  0  0  0  0  0  0
  -23.9876  -11.9938   20.4800 C   0  0  0  0  0  0  0  0  0  0  0  0
  -21.3555  -12.8122   20.0501 C   0  0  0  0  0  0  0  0  0  0  0  0
  -23.2923  -12.6636   21.4867 C   0  0  0  0  0  0  0  0  0  0  0  0
  -29.0854  -15.5316   21.8496 C   0  0  0  0  0  0  0  0  0  0  0  0
  -28.8017  -23.0128   18.9062 C   0  0  0  0  0  0  0  0  0  0  0  0
  -30.6434  -23.7683   20.0530 C   0  0  0  0  0  0  0  0  0  0  0  0
  -30.8977  -16.7755   21.9054 C   0  0  0  0  0  0  0  0  0  0  0  0
  -31.0437  -14.8373   20.3336 C   0  0  0  0  0  0  0  0  0  0  0  0
  -28.7930  -29.8748   20.0920 C   0  0  0  0  0  0  0  0  0  0  0  0
  -26.2093  -30.6427   21.8968 C   0  0  0  0  0  0  0  0  0  0  0  0
  -23.2638  -29.6535   23.3082 C   0  0  0  0  0  0  0  0  0  0  0  0
  -30.3834  -22.0504   23.6537 C   0  0  0  0  0  0  0  0  0  0  0  0
  -32.4394  -32.3665   17.5322 C   0  0  0  0  0  0  0  0  0  0  0  0
  -26.9002  -29.1145   18.6104 C   0  0  0  0  0  0  0  0  0  0  0  0
  -26.5500  -28.1930   21.3984 C   0  0  0  0  0  0  0  0  0  0  0  0
  -31.5372  -32.6749   18.7244 C   0  0  0  0  0  0  0  0  0  0  0  0
  -29.2142  -19.4866   25.8300 C   0  0  0  0  0  0  0  0  0  0  0  0
  -31.5709  -31.5284   19.7300 C   0  0  0  0  0  0  0  0  0  0  0  0
  -29.1771  -18.2416   24.9419 C   0  0  0  0  0  0  0  0  0  0  0  0
  -28.8167  -20.7427   25.0579 C   0  0  0  0  0  0  0  0  0  0  0  0
  -29.5461  -19.7322   22.9317 C   0  0  0  0  0  0  0  0  0  0  0  0
  -31.0487  -30.2297   19.1037 C   0  0  1  0  0  0  0  0  0  0  0  0
  -27.3226  -29.9726   19.7989 C   0  0  1  0  0  0  0  0  0  0  0  0
  -29.9933  -18.4486   23.6518 C   0  0  2  0  0  0  0  0  0  0  0  0
  -32.0261  -23.5308   14.1132 C   0  0  0  0  0  0  0  0  0  0  0  0
  -33.3093  -25.0580   18.0377 C   0  0  0  0  0  0  0  0  0  0  0  0
  -33.8137  -22.7009   18.7759 C   0  0  0  0  0  0  0  0  0  0  0  0
  -27.0466  -21.2613   19.3481 C   0  0  0  0  0  0  0  0  0  0  0  0
  -21.3953  -30.4911   24.7590 C   0  0  0  0  0  0  0  0  0  0  0  0
  -28.0055  -30.3922   24.3506 C   0  0  0  0  0  0  0  0  0  0  0  0
  -25.9418  -30.2921   25.7647 C   0  0  0  0  0  0  0  0  0  0  0  0
  -26.4246  -32.3293   24.4083 C   0  0  0  0  0  0  0  0  0  0  0  0
  -21.2565  -29.2091   21.1794 C   0  0  0  0  0  0  0  0  0  0  0  0
  -31.7119  -22.9077   16.5483 C   0  0  0  0  0  0  0  0  0  0  0  0
  -31.1999  -24.2879   21.3383 C   0  0  0  0  0  0  0  0  0  0  0  0
  -31.1727  -23.7146   15.3581 C   0  0  0  0  0  0  0  0  0  0  0  0
  -31.9617  -23.2320   22.1463 C   0  0  0  0  0  0  0  0  0  0  0  0
  -32.9190  -23.9320   19.0136 C   0  0  0  0  0  0  0  0  0  0  0  0
  -27.3241  -22.6938   18.9103 C   0  0  1  0  0  0  0  0  0  1  0  0
  -25.6799  -30.2125   23.2435 C   0  0  1  0  0  0  0  0  0  0  0  0
  -21.8913  -30.3017   23.3339 C   0  0  2  0  0  0  0  0  0  0  0  0
  -26.5170  -30.7878   24.4207 C   0  0  0  0  0  0  0  0  0  0  0  0
  -28.8044  -16.4927   22.7335 N   0  0  0  0  0  0  0  0  0  0  0  0
  -29.3215  -23.4855   20.0611 N   0  0  0  0  0  0  0  0  0  0  0  0
  -29.9258  -17.2332   22.7457 N   0  0  0  0  0  0  0  0  0  0  0  0
  -26.6169  -29.6173   21.0318 N   0  0  0  0  0  0  0  0  0  0  0  0
  -29.6292  -20.8813   23.8469 N   0  0  0  0  0  0  0  0  0  0  0  0
  -32.0884  -17.4018   21.7942 N   0  0  0  0  0  0  0  0  0  0  0  0
  -30.3631  -13.7271   19.8153 N   0  0  0  0  0  0  0  0  0  0  0  0
  -29.6031  -30.2468   19.0362 N   0  0  0  0  0  0  0  0  0  0  0  0
  -24.2719  -30.5934   23.2693 N   0  0  0  0  0  0  0  0  0  0  0  0
  -31.1302  -22.0979   22.4829 N   0  0  0  0  0  0  0  0  0  0  0  0
  -20.9058  -29.4571   22.6015 N   0  3  0  0  0  0  0  0  0  0  0  0
  -32.2153  -15.0722   19.9520 O   0  0  0  0  0  0  0  0  0  0  0  0
  -29.1650  -29.4917   21.1950 O   0  0  0  0  0  0  0  0  0  0  0  0
  -26.2528  -31.8440   21.6198 O   0  0  0  0  0  0  0  0  0  0  0  0
  -23.4255  -28.4353   23.3251 O   0  0  0  0  0  0  0  0  0  0  0  0
  -30.3949  -22.9806   24.4671 O   0  0  0  0  0  0  0  0  0  0  0  0
  -25.2945  -11.5876   20.6915 O   0  0  0  0  0  0  0  0  0  0  0  0
  -26.6123  -23.5780   19.7750 O   0  0  0  0  0  0  0  0  0  1  0  0
  -20.0922  -13.2064   19.8431 F   0  0  0  0  0  0  0  0  0  0  0  0
  -23.8838  -12.9178   22.6620 F   0  0  0  0  0  0  0  0  0  0  0  0
  1  2  1  0  0  0  0
  1  5  2  0  0  0  0
  2  6  2  0  0  0  0
  3  8  2  0  0  0  0
  3 16  1  0  0  0  0
  4  9  1  0  0  0  0
  4 16  2  0  0  0  0
  5 18  1  0  0  0  0
  6 20  1  0  0  0  0
  7 10  2  0  0  0  0
  7 19  1  0  0  0  0
  8 24  1  0  0  0  0
  9 24  2  0  0  0  0
 10 25  1  0  0  0  0
 11 12  2  0  0  0  0
 11 26  1  0  0  0  0
 12 27  1  0  0  0  0
 13 21  1  0  0  0  0
 13 25  2  0  0  0  0
 14 22  1  0  0  0  0
 14 30  2  0  0  0  0
 15 27  2  0  0  0  0
 15 28  1  0  0  0  0
 16 29  1  0  0  0  0
 17 29  1  0  0  0  0
 17 32  2  0  0  0  0
 17 33  1  0  0  0  0
 18 20  2  0  0  0  0
 18 38  1  0  0  0  0
 19 21  2  0  0  0  0
 19 39  1  0  0  0  0
 20 47  1  0  0  0  0
 21 40  1  0  0  0  0
 22 23  2  0  0  0  0
 22 59  1  0  0  0  0
 23 31  1  0  0  0  0
 23 63  1  0  0  0  0
 24 84  1  0  0  0  0
 25 85  1  0  0  0  0
 26 28  2  0  0  0  0
 26 84  1  0  0  0  0
 27 86  1  0  0  0  0
 28 87  1  0  0  0  0
 29 68  2  0  0  0  0
 30 64  1  0  0  0  0
 30 69  1  0  0  0  0
 31 60  1  0  0  0  0
 31 69  2  0  0  0  0
 32 70  1  0  0  0  0
 32 73  1  0  0  0  0
 33 74  1  0  0  0  0
 33 79  2  0  0  0  0
 34 48  1  0  0  0  0
 34 75  1  0  0  0  0
 34 80  2  0  0  0  0
 35 65  1  0  0  0  0
 35 71  1  0  0  0  0
 35 81  2  0  0  0  0
 36 66  1  0  0  0  0
 36 76  1  0  0  0  0
 36 82  2  0  0  0  0
 37 72  1  0  0  0  0
 37 77  1  0  0  0  0
 37 83  2  0  0  0  0
 38 41  1  0  0  0  0
 39 48  1  0  0  0  0
 40 71  1  0  0  0  0
 41 43  1  0  0  0  0
 42 44  1  0  0  0  0
 42 45  1  0  0  0  0
 43 47  1  0  0  0  0
 44 49  1  0  0  0  0
 45 72  1  0  0  0  0
 46 49  1  0  0  0  0
 46 72  1  0  0  0  0
 47 75  1  0  0  0  0
 48 71  1  0  0  0  0
 49 70  1  0  0  0  0
 50 61  1  0  0  0  0
 51 63  1  0  0  0  0
 52 63  1  0  0  0  0
 53 64  1  0  0  0  0
 54 66  1  0  0  0  0
 55 67  1  0  0  0  0
 56 67  1  0  0  0  0
 57 67  1  0  0  0  0
 58 78  1  0  0  0  0
 59 61  1  0  0  0  0
 60 62  1  0  0  0  0
 62 77  1  0  0  0  0
 64 85  1  0  0  0  0
 65 67  1  0  0  0  0
 65 76  1  0  0  0  0
 66 78  1  0  0  0  0
 68 70  1  0  0  0  0
M  CHG  1  78   1
M  ISO  4  37 100  64 101  77 100  85 101
M  END
> <Batch ID>
0087

> <Smiles>
CCCc1cc([101CH:1](C)[101O:1]c2ccc3c(c2)CN(C(=O)C(NC(=O)C(C)NC)C(C)(C)C)C(C(=O)NC2CCCc4ccccc42)C3)nc(CC[100NH:0][100C:0](=O)N2CCCC(n3nc(-c4ccc(Oc5ccc(F)cc5F)cc4)c(C(N)=O)c3N)C2)c1C(C)C

> <Shape>
0.238

> <Color>
0.078

> <Negative vol penalty>
0.000

$$$$

  -OEChem-04052319013D

 85 93  0     1  0  0  0  0  0999 V2000
  -21.8089  -20.5869   22.6474 C   0  0  0  0  0  0  0  0  0  0  0  0
  -22.8004  -21.3520   22.0416 C   0  0  0  0  0  0  0  0  0  0  0  0
  -26.9312  -13.9777   23.0750 C   0  0  0  0  0  0  0  0  0  0  0  0
  -25.7174  -14.2130   20.9994 C   0  0  0  0  0  0  0  0  0  0  0  0
  -20.5247  -21.1075   22.8012 C   0  0  0  0  0  0  0  0  0  0  0  0
  -22.5080  -22.6378   21.5883 C   0  0  0  0  0  0  0  0  0  0  0  0
  -26.0816  -25.9996   22.8425 C   0  0  0  0  0  0  0  0  0  0  0  0
  -26.0158  -13.0154   23.5013 C   0  0  0  0  0  0  0  0  0  0  0  0
  -24.8020  -13.2508   21.4256 C   0  0  0  0  0  0  0  0  0  0  0  0
  -27.2481  -26.0035   22.0790 C   0  0  0  0  0  0  0  0  0  0  0  0
  -24.6543   -9.8819   21.6487 C   0  0  0  0  0  0  0  0  0  0  0  0
  -24.2836   -8.8936   20.7370 C   0  0  0  0  0  0  0  0  0  0  0  0
  -26.4220  -27.8998   20.8376 C   0  0  0  0  0  0  0  0  0  0  0  0
  -28.2067  -24.7169   17.6248 C   0  0  0  0  0  0  0  0  0  0  0  0
  -21.9805   -9.6046   20.9028 C   0  0  0  0  0  0  0  0  0  0  0  0
  -26.7820  -14.5765   21.8241 C   0  0  0  0  0  0  0  0  0  0  0  0
  -28.9166  -15.3530   20.6629 C   0  0  0  0  0  0  0  0  0  0  0  0
  -20.2188  -22.4040   22.3582 C   0  0  0  0  0  0  0  0  0  0  0  0
  -25.0701  -26.9405   22.6016 C   0  0  0  0  0  0  0  0  0  0  0  0
  -21.2181  -23.1758   21.7351 C   0  0  0  0  0  0  0  0  0  0  0  0
  -25.2447  -27.9073   21.6012 C   0  0  0  0  0  0  0  0  0  0  0  0
  -29.3958  -25.2788   18.0758 C   0  0  0  0  0  0  0  0  0  0  0  0
  -30.4404  -24.4532   18.4765 C   0  0  0  0  0  0  0  0  0  0  0  0
  -24.9512  -12.6520   22.6766 C   0  0  0  0  0  0  0  0  0  0  0  0
  -27.4172  -26.9519   21.0744 C   0  0  0  0  0  0  0  0  0  0  0  0
  -23.6881  -10.7316   22.1876 C   0  0  0  0  0  0  0  0  0  0  0  0
  -22.9467   -8.7549   20.3640 C   0  0  0  0  0  0  0  0  0  0  0  0
  -22.3512  -10.5929   21.8146 C   0  0  0  0  0  0  0  0  0  0  0  0
  -27.7270  -15.5710   21.3834 C   0  0  0  0  0  0  0  0  0  0  0  0
  -28.1132  -23.3348   17.5939 C   0  0  0  0  0  0  0  0  0  0  0  0
  -30.2468  -23.0830   18.4077 C   0  0  0  0  0  0  0  0  0  0  0  0
  -29.4495  -16.6074   20.4925 C   0  0  0  0  0  0  0  0  0  0  0  0
  -29.4886  -14.1264   20.1898 C   0  0  0  0  0  0  0  0  0  0  0  0
  -22.0275  -26.7808   21.6955 C   0  0  0  0  0  0  0  0  0  0  0  0
  -22.0955  -29.9732   22.2666 C   0  0  0  0  0  0  0  0  0  0  0  0
  -23.9423  -32.8314   22.5256 C   0  0  0  0  0  0  0  0  0  0  0  0
  -27.0310  -22.0835   20.3742 C   0  0  0  0  0  0  0  0  0  0  0  0
  -18.8041  -22.9060   22.5037 C   0  0  0  0  0  0  0  0  0  0  0  0
  -23.8292  -26.9396   23.4518 C   0  0  0  0  0  0  0  0  0  0  0  0
  -24.1976  -28.9518   21.3163 C   0  0  0  0  0  0  0  0  0  0  0  0
  -18.6736  -24.4174   22.3340 C   0  0  0  0  0  0  0  0  0  0  0  0
  -29.5986  -20.9237   22.5511 C   0  0  0  0  0  0  0  0  0  0  0  0
  -19.4497  -24.8858   21.1071 C   0  0  0  0  0  0  0  0  0  0  0  0
  -29.5174  -19.4007   22.4337 C   0  0  0  0  0  0  0  0  0  0  0  0
  -28.2161  -21.5691   22.4878 C   0  0  0  0  0  0  0  0  0  0  0  0
  -27.3281  -19.6681   21.1950 C   0  0  0  0  0  0  0  0  0  0  0  0
  -20.9461  -24.5841   21.2527 C   0  0  1  0  0  0  0  0  0  0  0  0
  -22.6428  -27.6220   22.7779 C   0  0  1  0  0  0  0  0  0  0  0  0
  -28.7021  -18.9763   21.1974 C   0  0  2  0  0  0  0  0  0  0  0  0
  -32.6036  -25.5382   17.8210 C   0  0  0  0  0  0  0  0  0  0  0  0
  -31.0575  -20.7105   18.3833 C   0  0  0  0  0  0  0  0  0  0  0  0
  -23.7136  -35.2915   22.9650 C   0  0  0  0  0  0  0  0  0  0  0  0
  -21.0148  -30.3749   19.4416 C   0  0  0  0  0  0  0  0  0  0  0  0
  -21.6995  -32.7782   19.5963 C   0  0  0  0  0  0  0  0  0  0  0  0
  -19.9936  -31.8653   21.1709 C   0  0  0  0  0  0  0  0  0  0  0  0
  -25.6543  -32.6781   24.9349 C   0  0  0  0  0  0  0  0  0  0  0  0
  -29.5255  -26.7819   18.1231 C   0  0  0  0  0  0  0  0  0  0  0  0
  -31.7284  -25.0278   18.9626 C   0  0  0  0  0  0  0  0  0  0  0  0
  -26.8523  -22.6968   17.1143 C   0  0  0  0  0  0  0  0  0  0  0  0
  -31.3329  -22.1451   18.8230 C   0  0  0  0  0  0  0  0  0  0  0  0
  -25.8331  -22.4380   18.2298 C   0  0  0  0  0  0  0  0  0  0  0  0
  -28.4476  -27.4301   18.9850 C   0  0  0  0  0  0  0  0  0  1  0  0
  -22.4170  -31.1994   21.4466 C   0  0  1  0  0  0  0  0  0  0  0  0
  -23.9657  -33.9235   23.5797 C   0  0  2  0  0  0  0  0  0  0  0  0
  -21.3003  -31.5337   20.4177 C   0  0  0  0  0  0  0  0  0  0  0  0
  -27.5163  -16.8622   21.6525 N   0  0  0  0  0  0  0  0  0  0  0  0
  -29.1061  -22.5004   17.9751 N   0  0  0  0  0  0  0  0  0  0  0  0
  -28.5808  -17.4669   21.0981 N   0  0  0  0  0  0  0  0  0  0  0  0
  -22.9993  -28.9057   22.1704 N   0  0  0  0  0  0  0  0  0  0  0  0
  -27.4956  -21.1267   21.2916 N   0  0  0  0  0  0  0  0  0  0  0  0
  -30.5718  -17.0480   19.8853 N   0  0  0  0  0  0  0  0  0  0  0  0
  -28.8103  -12.9282   20.4514 N   0  0  0  0  0  0  0  0  0  0  0  0
  -21.5735  -25.5498   22.1292 N   0  0  0  0  0  0  0  0  0  0  0  0
  -22.6897  -32.2686   22.4009 N   0  0  0  0  0  0  0  0  0  0  0  0
  -26.3639  -21.5789   19.2647 N   0  0  0  0  0  0  0  0  0  0  0  0
  -25.2883  -33.9530   24.2658 N   0  3  0  0  0  0  0  0  0  0  0  0
  -30.5776  -14.0923   19.5681 O   0  0  0  0  0  0  0  0  0  0  0  0
  -21.9677  -27.2169   20.5519 O   0  0  0  0  0  0  0  0  0  0  0  0
  -21.0837  -29.9658   22.9721 O   0  0  0  0  0  0  0  0  0  0  0  0
  -24.9350  -32.5123   21.8750 O   0  0  0  0  0  0  0  0  0  0  0  0
  -27.2030  -23.2973   20.5296 O   0  0  0  0  0  0  0  0  0  0  0  0
  -24.0579  -11.7129   23.0920 O   0  0  0  0  0  0  0  0  0  0  0  0
  -28.5546  -26.9576   20.3273 O   0  0  0  0  0  0  0  0  0  1  0  0
  -22.5910   -7.8067   19.4873 F   0  0  0  0  0  0  0  0  0  0  0  0
  -21.4187  -11.4070   22.3279 F   0  0  0  0  0  0  0  0  0  0  0  0
  1  2  1  0  0  0  0
  1  5  2  0  0  0  0
  2  6  2  0  0  0  0
  3  8  2  0  0  0  0
  3 16  1  0  0  0  0
  4  9  1  0  0  0  0
  4 16  2  0  0  0  0
  5 18  1  0  0  0  0
  6 20  1  0  0  0  0
  7 10  2  0  0  0  0
  7 19  1  0  0  0  0
  8 24  1  0  0  0  0
  9 24  2  0  0  0  0
 10 25  1  0  0  0  0
 11 12  2  0  0  0  0
 11 26  1  0  0  0  0
 12 27  1  0  0  0  0
 13 21  1  0  0  0  0
 13 25  2  0  0  0  0
 14 22  2  0  0  0  0
 14 30  1  0  0  0  0
 15 27  2  0  0  0  0
 15 28  1  0  0  0  0
 16 29  1  0  0  0  0
 17 29  1  0  0  0  0
 17 32  2  0  0  0  0
 17 33  1  0  0  0  0
 18 20  2  0  0  0  0
 18 38  1  0  0  0  0
 19 21  2  0  0  0  0
 19 39  1  0  0  0  0
 20 47  1  0  0  0  0
 21 40  1  0  0  0  0
 22 23  1  0  0  0  0
 22 57  1  0  0  0  0
 23 31  2  0  0  0  0
 23 58  1  0  0  0  0
 24 82  1  0  0  0  0
 25 83  1  0  0  0  0
 26 28  2  0  0  0  0
 26 82  1  0  0  0  0
 27 84  1  0  0  0  0
 28 85  1  0  0  0  0
 29 66  2  0  0  0  0
 30 59  1  0  0  0  0
 30 67  2  0  0  0  0
 31 60  1  0  0  0  0
 31 67  1  0  0  0  0
 32 68  1  0  0  0  0
 32 71  1  0  0  0  0
 33 72  1  0  0  0  0
 33 77  2  0  0  0  0
 34 48  1  0  0  0  0
 34 73  1  0  0  0  0
 34 78  2  0  0  0  0
 35 63  1  0  0  0  0
 35 69  1  0  0  0  0
 35 79  2  0  0  0  0
 36 64  1  0  0  0  0
 36 74  1  0  0  0  0
 36 80  2  0  0  0  0
 37 70  1  0  0  0  0
 37 75  1  0  0  0  0
 37 81  2  0  0  0  0
 38 41  1  0  0  0  0
 39 48  1  0  0  0  0
 40 69  1  0  0  0  0
 41 43  1  0  0  0  0
 42 44  1  0  0  0  0
 42 45  1  0  0  0  0
 43 47  1  0  0  0  0
 44 49  1  0  0  0  0
 45 70  1  0  0  0  0
 46 49  1  0  0  0  0
 46 70  1  0  0  0  0
 47 73  1  0  0  0  0
 48 69  1  0  0  0  0
 49 68  1  0  0  0  0
 50 58  1  0  0  0  0
 51 60  1  0  0  0  0
 52 64  1  0  0  0  0
 53 65  1  0  0  0  0
 54 65  1  0  0  0  0
 55 65  1  0  0  0  0
 56 76  1  0  0  0  0
 57 62  1  0  0  0  0
 59 61  1  0  0  0  0
 61 75  1  0  0  0  0
 62 83  1  0  0  0  0
 63 65  1  0  0  0  0
 63 74  1  0  0  0  0
 64 76  1  0  0  0  0
 66 68  1  0  0  0  0
M  CHG  1  76   1
M  ISO  4  37 100  62 101  75 100  83 101
M  END
> <Batch ID>
0087

> <Smiles>
CCc1nc(CC[100NH:0][100C:0](=O)N2CCCC(n3nc(-c4ccc(Oc5ccc(F)cc5F)cc4)c(C(N)=O)c3N)C2)cc(C[101CH2:1][101O:1]c2ccc3c(c2)CN(C(=O)C(NC(=O)C(C)NC)C(C)(C)C)C(C(=O)NC2CCCc4ccccc42)C3)c1CC

> <Shape>
0.243

> <Color>
0.068

> <Negative vol penalty>
0.000

$$$$

  -OEChem-04052319013D

 87 95  0     1  0  0  0  0  0999 V2000
  -17.3105  -26.6675   21.6633 C   0  0  0  0  0  0  0  0  0  0  0  0
  -18.5554  -26.6443   21.0428 C   0  0  0  0  0  0  0  0  0  0  0  0
  -26.7378  -14.5288   21.5191 C   0  0  0  0  0  0  0  0  0  0  0  0
  -26.4253  -14.6267   19.1254 C   0  0  0  0  0  0  0  0  0  0  0  0
  -17.0803  -27.5360   22.7294 C   0  0  0  0  0  0  0  0  0  0  0  0
  -19.5707  -27.4905   21.4874 C   0  0  0  0  0  0  0  0  0  0  0  0
  -24.0310  -25.1271   21.8935 C   0  0  0  0  0  0  0  0  0  0  0  0
  -26.5123  -13.1526   21.4923 C   0  0  0  0  0  0  0  0  0  0  0  0
  -26.1999  -13.2504   19.0985 C   0  0  0  0  0  0  0  0  0  0  0  0
  -24.7428  -24.9038   20.7157 C   0  0  0  0  0  0  0  0  0  0  0  0
  -23.8594  -11.0668   21.3025 C   0  0  0  0  0  0  0  0  0  0  0  0
  -23.0123  -10.5306   22.2723 C   0  0  0  0  0  0  0  0  0  0  0  0
  -26.1307  -26.8167   21.1990 C   0  0  0  0  0  0  0  0  0  0  0  0
  -27.0008  -22.7663   15.0370 C   0  0  0  0  0  0  0  0  0  0  0  0
  -24.8135   -9.1339   23.0735 C   0  0  0  0  0  0  0  0  0  0  0  0
  -26.6942  -15.2659   20.3357 C   0  0  0  0  0  0  0  0  0  0  0  0
  -28.1614  -17.3501   20.2285 C   0  0  0  0  0  0  0  0  0  0  0  0
  -18.0962  -28.3864   23.1936 C   0  0  0  0  0  0  0  0  0  0  0  0
  -24.3572  -26.2052   22.7288 C   0  0  0  0  0  0  0  0  0  0  0  0
  -19.3535  -28.3722   22.5599 C   0  0  0  0  0  0  0  0  0  0  0  0
  -25.4232  -27.0500   22.3881 C   0  0  0  0  0  0  0  0  0  0  0  0
  -25.8095  -23.3422   15.4640 C   0  0  0  0  0  0  0  0  0  0  0  0
  -27.0979  -21.3836   14.9272 C   0  0  0  0  0  0  0  0  0  0  0  0
  -26.2434  -12.5134   20.2820 C   0  0  0  0  0  0  0  0  0  0  0  0
  -25.7910  -25.7504   20.3668 C   0  0  0  0  0  0  0  0  0  0  0  0
  -25.1836  -10.6365   21.2182 C   0  0  0  0  0  0  0  0  0  0  0  0
  -23.4893   -9.5642   23.1577 C   0  0  0  0  0  0  0  0  0  0  0  0
  -25.6606   -9.6701   22.1037 C   0  0  0  0  0  0  0  0  0  0  0  0
  -26.9265  -16.6877   20.3628 C   0  0  0  0  0  0  0  0  0  0  0  0
  -24.7530  -22.4983   15.7665 C   0  0  0  0  0  0  0  0  0  0  0  0
  -25.9838  -20.6274   15.2539 C   0  0  0  0  0  0  0  0  0  0  0  0
  -27.8477  -18.6839   20.3232 C   0  0  0  0  0  0  0  0  0  0  0  0
  -29.4747  -16.8081   20.0354 C   0  0  0  0  0  0  0  0  0  0  0  0
  -22.8287  -28.8026   23.7392 C   0  0  0  0  0  0  0  0  0  0  0  0
  -25.4836  -29.1798   25.5644 C   0  0  0  0  0  0  0  0  0  0  0  0
  -28.8013  -28.5245   26.0229 C   0  0  0  0  0  0  0  0  0  0  0  0
  -22.8406  -21.7820   19.2361 C   0  0  0  0  0  0  0  0  0  0  0  0
  -17.7857  -29.3416   24.3187 C   0  0  0  0  0  0  0  0  0  0  0  0
  -23.5969  -26.4166   24.0093 C   0  0  0  0  0  0  0  0  0  0  0  0
  -25.8263  -28.2095   23.2608 C   0  0  0  0  0  0  0  0  0  0  0  0
  -19.0297  -29.9389   24.9714 C   0  0  0  0  0  0  0  0  0  0  0  0
  -24.6532  -21.6482   22.2977 C   0  0  0  0  0  0  0  0  0  0  0  0
  -20.0116  -30.4204   23.9080 C   0  0  0  0  0  0  0  0  0  0  0  0
  -25.5527  -20.4215   22.1369 C   0  0  0  0  0  0  0  0  0  0  0  0
  -23.2876  -21.4358   21.6479 C   0  0  0  0  0  0  0  0  0  0  0  0
  -24.2324  -19.7923   20.0730 C   0  0  0  0  0  0  0  0  0  0  0  0
  -20.4876  -29.2572   23.0295 C   0  0  1  0  0  0  0  0  0  0  0  0
  -23.6833  -27.8495   24.5259 C   0  0  1  0  0  0  0  0  0  0  0  0
  -25.6403  -19.9796   20.6636 C   0  0  2  0  0  0  0  0  0  0  0  0
  -26.0308  -19.1378   15.1532 C   0  0  0  0  0  0  0  0  0  0  0  0
  -30.7054  -29.0001   27.5867 C   0  0  0  0  0  0  0  0  0  0  0  0
  -29.4572  -21.8413   14.1721 C   0  0  0  0  0  0  0  0  0  0  0  0
  -28.1621  -19.9328   13.1638 C   0  0  0  0  0  0  0  0  0  0  0  0
  -29.0386  -19.7717   15.4849 C   0  0  0  0  0  0  0  0  0  0  0  0
  -25.7228  -31.9953   24.4129 C   0  0  0  0  0  0  0  0  0  0  0  0
  -28.0843  -32.0586   25.2422 C   0  0  0  0  0  0  0  0  0  0  0  0
  -26.2013  -31.8256   26.8617 C   0  0  0  0  0  0  0  0  0  0  0  0
  -29.1568  -25.6538   26.6487 C   0  0  0  0  0  0  0  0  0  0  0  0
  -25.6976  -24.8410   15.5851 C   0  0  0  0  0  0  0  0  0  0  0  0
  -23.4493  -23.0601   16.2310 C   0  0  0  0  0  0  0  0  0  0  0  0
  -26.3920  -25.4124   16.8232 C   0  0  0  0  0  0  0  0  0  0  0  0
  -22.4911  -22.0022   16.7889 C   0  0  0  0  0  0  0  0  0  0  0  0
  -25.7811  -24.9311   18.1342 C   0  0  0  0  0  0  0  0  0  1  0  0
  -26.8155  -29.8675   25.3849 C   0  0  1  0  0  0  0  0  0  0  0  0
  -29.5748  -28.0448   27.2379 C   0  0  2  0  0  0  0  0  0  0  0  0
  -28.3716  -20.7603   14.4706 C   0  0  0  0  0  0  0  0  0  0  0  0
  -26.6974  -31.4161   25.4578 C   0  0  0  0  0  0  0  0  0  0  0  0
  -25.9045  -17.5312   20.5302 N   0  0  0  0  0  0  0  0  0  0  0  0
  -24.8097  -21.1509   15.6721 N   0  0  0  0  0  0  0  0  0  0  0  0
  -26.4966  -18.7373   20.5018 N   0  0  0  0  0  0  0  0  0  0  0  0
  -25.0484  -28.3785   24.4993 N   0  0  0  0  0  0  0  0  0  0  0  0
  -23.4410  -21.0198   20.2517 N   0  0  0  0  0  0  0  0  0  0  0  0
  -28.5985  -19.8046   20.2703 N   0  0  0  0  0  0  0  0  0  0  0  0
  -29.6186  -15.4160   19.9604 N   0  0  0  0  0  0  0  0  0  0  0  0
  -21.4864  -28.4743   23.7251 N   0  0  0  0  0  0  0  0  0  0  0  0
  -27.7110  -29.2890   26.3807 N   0  0  0  0  0  0  0  0  0  0  0  0
  -23.0405  -21.3216   17.9404 N   0  0  0  0  0  0  0  0  0  0  0  0
  -30.1595  -26.6983   26.9812 N   0  3  0  0  0  0  0  0  0  0  0  0
  -30.4925  -17.5361   19.9487 O   0  0  0  0  0  0  0  0  0  0  0  0
  -23.3483  -29.7653   23.1871 O   0  0  0  0  0  0  0  0  0  0  0  0
  -24.8559  -29.3418   26.6139 O   0  0  0  0  0  0  0  0  0  0  0  0
  -29.1334  -28.2516   24.8715 O   0  0  0  0  0  0  0  0  0  0  0  0
  -22.1801  -22.8006   19.4666 O   0  0  0  0  0  0  0  0  0  0  0  0
  -26.0236  -11.1704   20.2554 O   0  0  0  0  0  0  0  0  0  0  0  0
  -26.4870  -25.5351   19.2174 O   0  0  0  0  0  0  0  0  0  1  0  0
  -22.6760   -9.0505   24.0899 F   0  0  0  0  0  0  0  0  0  0  0  0
  -26.9321   -9.2536   22.0283 F   0  0  0  0  0  0  0  0  0  0  0  0
  1  2  1  0  0  0  0
  1  5  2  0  0  0  0
  2  6  2  0  0  0  0
  3  8  2  0  0  0  0
  3 16  1  0  0  0  0
  4  9  1  0  0  0  0
  4 16  2  0  0  0  0
  5 18  1  0  0  0  0
  6 20  1  0  0  0  0
  7 10  2  0  0  0  0
  7 19  1  0  0  0  0
  8 24  1  0  0  0  0
  9 24  2  0  0  0  0
 10 25  1  0  0  0  0
 11 12  2  0  0  0  0
 11 26  1  0  0  0  0
 12 27  1  0  0  0  0
 13 21  1  0  0  0  0
 13 25  2  0  0  0  0
 14 22  1  0  0  0  0
 14 23  2  0  0  0  0
 15 27  2  0  0  0  0
 15 28  1  0  0  0  0
 16 29  1  0  0  0  0
 17 29  1  0  0  0  0
 17 32  2  0  0  0  0
 17 33  1  0  0  0  0
 18 20  2  0  0  0  0
 18 38  1  0  0  0  0
 19 21  2  0  0  0  0
 19 39  1  0  0  0  0
 20 47  1  0  0  0  0
 21 40  1  0  0  0  0
 22 30  2  0  0  0  0
 22 59  1  0  0  0  0
 23 31  1  0  0  0  0
 23 66  1  0  0  0  0
 24 84  1  0  0  0  0
 25 85  1  0  0  0  0
 26 28  2  0  0  0  0
 26 84  1  0  0  0  0
 27 86  1  0  0  0  0
 28 87  1  0  0  0  0
 29 68  2  0  0  0  0
 30 60  1  0  0  0  0
 30 69  1  0  0  0  0
 31 50  1  0  0  0  0
 31 69  2  0  0  0  0
 32 70  1  0  0  0  0
 32 73  1  0  0  0  0
 33 74  1  0  0  0  0
 33 79  2  0  0  0  0
 34 48  1  0  0  0  0
 34 75  1  0  0  0  0
 34 80  2  0  0  0  0
 35 64  1  0  0  0  0
 35 71  1  0  0  0  0
 35 81  2  0  0  0  0
 36 65  1  0  0  0  0
 36 76  1  0  0  0  0
 36 82  2  0  0  0  0
 37 72  1  0  0  0  0
 37 77  1  0  0  0  0
 37 83  2  0  0  0  0
 38 41  1  0  0  0  0
 39 48  1  0  0  0  0
 40 71  1  0  0  0  0
 41 43  1  0  0  0  0
 42 44  1  0  0  0  0
 42 45  1  0  0  0  0
 43 47  1  0  0  0  0
 44 49  1  0  0  0  0
 45 72  1  0  0  0  0
 46 49  1  0  0  0  0
 46 72  1  0  0  0  0
 47 75  1  0  0  0  0
 48 71  1  0  0  0  0
 49 70  1  0  0  0  0
 51 65  1  0  0  0  0
 52 66  1  0  0  0  0
 53 66  1  0  0  0  0
 54 66  1  0  0  0  0
 55 67  1  0  0  0  0
 56 67  1  0  0  0  0
 57 67  1  0  0  0  0
 58 78  1  0  0  0  0
 59 61  1  0  0  0  0
 60 62  1  0  0  0  0
 61 63  1  0  0  0  0
 62 77  1  0  0  0  0
 63 85  1  0  0  0  0
 64 67  1  0  0  0  0
 64 76  1  0  0  0  0
 65 78  1  0  0  0  0
 68 70  1  0  0  0  0
M  CHG  1  78   1
M  ISO  4  37 100  63 101  77 100  85 101
M  END
> <Batch ID>
0087

> <Smiles>
CNC(C)C(=O)NC(C(=O)N1Cc2cc([101O:1][101CH2:1]CCc3cc(C(C)(C)C)c(C)nc3CC[100NH:0][100C:0](=O)N3CCCC(n4nc(-c5ccc(Oc6ccc(F)cc6F)cc5)c(C(N)=O)c4N)C3)ccc2CC1C(=O)NC1CCCc2ccccc21)C(C)(C)C

> <Shape>
0.196

> <Color>
0.075

> <Negative vol penalty>
0.000

$$$$

  -OEChem-04052319013D

 86 94  0     1  0  0  0  0  0999 V2000
  -23.8894  -19.8228   24.1456 C   0  0  0  0  0  0  0  0  0  0  0  0
  -24.5428  -20.6838   23.2698 C   0  0  0  0  0  0  0  0  0  0  0  0
  -27.5538  -12.8345   22.0969 C   0  0  0  0  0  0  0  0  0  0  0  0
  -25.7923  -13.4853   20.5768 C   0  0  0  0  0  0  0  0  0  0  0  0
  -22.6237  -20.1511   24.6296 C   0  0  0  0  0  0  0  0  0  0  0  0
  -23.9304  -21.8733   22.8766 C   0  0  0  0  0  0  0  0  0  0  0  0
  -27.0960  -25.8238   23.0074 C   0  0  0  0  0  0  0  0  0  0  0  0
  -26.6917  -11.9223   22.7054 C   0  0  0  0  0  0  0  0  0  0  0  0
  -24.9302  -12.5730   21.1853 C   0  0  0  0  0  0  0  0  0  0  0  0
  -28.0007  -25.9499   21.9542 C   0  0  0  0  0  0  0  0  0  0  0  0
  -24.3757   -9.2402   21.1094 C   0  0  0  0  0  0  0  0  0  0  0  0
  -23.5966   -8.4343   20.2794 C   0  0  0  0  0  0  0  0  0  0  0  0
  -26.5708  -27.6018   20.9316 C   0  0  0  0  0  0  0  0  0  0  0  0
  -27.9448  -24.5021   17.4469 C   0  0  0  0  0  0  0  0  0  0  0  0
  -21.5928   -9.3506   21.2707 C   0  0  0  0  0  0  0  0  0  0  0  0
  -27.1040  -13.6160   21.0326 C   0  0  0  0  0  0  0  0  0  0  0  0
  -28.8493  -14.3222   19.3112 C   0  0  0  0  0  0  0  0  0  0  0  0
  -21.9996  -21.3498   24.2497 C   0  0  0  0  0  0  0  0  0  0  0  0
  -25.9146  -26.5791   23.0252 C   0  0  0  0  0  0  0  0  0  0  0  0
  -22.6546  -22.2173   23.3549 C   0  0  0  0  0  0  0  0  0  0  0  0
  -25.6540  -27.4854   21.9874 C   0  0  0  0  0  0  0  0  0  0  0  0
  -29.0999  -25.2705   17.5391 C   0  0  0  0  0  0  0  0  0  0  0  0
  -30.3359  -24.6456   17.6626 C   0  0  0  0  0  0  0  0  0  0  0  0
  -25.3799  -11.7916   22.2496 C   0  0  0  0  0  0  0  0  0  0  0  0
  -27.7369  -26.8369   20.9146 C   0  0  0  0  0  0  0  0  0  0  0  0
  -23.7635  -10.1013   22.0202 C   0  0  0  0  0  0  0  0  0  0  0  0
  -22.2051   -8.4895   20.3600 C   0  0  0  0  0  0  0  0  0  0  0  0
  -22.3721  -10.1565   22.1008 C   0  0  0  0  0  0  0  0  0  0  0  0
  -27.9939  -14.5589   20.4040 C   0  0  0  0  0  0  0  0  0  0  0  0
  -28.0783  -23.1235   17.4830 C   0  0  0  0  0  0  0  0  0  0  0  0
  -30.3624  -23.2605   17.6892 C   0  0  0  0  0  0  0  0  0  0  0  0
  -29.4761  -15.5257   19.0987 C   0  0  0  0  0  0  0  0  0  0  0  0
  -29.0584  -13.1217   18.5556 C   0  0  0  0  0  0  0  0  0  0  0  0
  -22.8116  -25.8909   22.9908 C   0  0  0  0  0  0  0  0  0  0  0  0
  -22.4951  -29.0895   23.4285 C   0  0  0  0  0  0  0  0  0  0  0  0
  -23.8409  -32.2073   23.0894 C   0  0  0  0  0  0  0  0  0  0  0  0
  -27.9625  -21.1854   20.3348 C   0  0  0  0  0  0  0  0  0  0  0  0
  -20.6109  -21.6392   24.7620 C   0  0  0  0  0  0  0  0  0  0  0  0
  -24.9618  -26.4511   24.1819 C   0  0  0  0  0  0  0  0  0  0  0  0
  -24.4099  -28.3341   21.9696 C   0  0  0  0  0  0  0  0  0  0  0  0
  -20.1899  -23.0964   24.5905 C   0  0  0  0  0  0  0  0  0  0  0  0
  -30.8916  -19.4694   21.4083 C   0  0  0  0  0  0  0  0  0  0  0  0
  -20.5235  -23.5867   23.1852 C   0  0  0  0  0  0  0  0  0  0  0  0
  -30.5583  -17.9950   21.1740 C   0  0  0  0  0  0  0  0  0  0  0  0
  -29.6688  -20.2576   21.8724 C   0  0  0  0  0  0  0  0  0  0  0  0
  -28.1522  -18.6607   20.7663 C   0  0  0  0  0  0  0  0  0  0  0  0
  -22.0336  -23.5285   22.9246 C   0  0  1  0  0  0  0  0  0  0  0  0
  -23.5425  -26.8931   23.8387 C   0  0  1  0  0  0  0  0  0  0  0  0
  -29.3410  -17.8363   20.2433 C   0  0  2  0  0  0  0  0  0  0  0  0
  -32.0355  -25.9971   16.4092 C   0  0  0  0  0  0  0  0  0  0  0  0
  -31.5215  -21.0442   17.5129 C   0  0  0  0  0  0  0  0  0  0  0  0
  -27.1461  -20.9416   16.6495 C   0  0  0  0  0  0  0  0  0  0  0  0
  -23.3299  -34.6291   23.5030 C   0  0  0  0  0  0  0  0  0  0  0  0
  -20.6528  -29.1136   20.9963 C   0  0  0  0  0  0  0  0  0  0  0  0
  -20.9432  -31.5980   20.8880 C   0  0  0  0  0  0  0  0  0  0  0  0
  -19.8929  -30.5531   22.8950 C   0  0  0  0  0  0  0  0  0  0  0  0
  -26.1310  -32.4939   24.9419 C   0  0  0  0  0  0  0  0  0  0  0  0
  -28.9850  -26.7751   17.5054 C   0  0  0  0  0  0  0  0  0  0  0  0
  -31.5921  -25.4441   17.7610 C   0  0  0  0  0  0  0  0  0  0  0  0
  -31.6603  -22.5324   17.8187 C   0  0  0  0  0  0  0  0  0  0  0  0
  -26.2113  -21.9615   18.7568 C   0  0  0  0  0  0  0  0  0  0  0  0
  -28.0817  -27.3125   18.6101 C   0  0  0  0  0  0  0  0  0  1  0  0
  -26.8602  -22.2670   17.3853 C   0  0  1  0  0  0  0  0  0  0  0  0
  -22.3785  -30.2869   22.5166 C   0  0  1  0  0  0  0  0  0  0  0  0
  -23.9604  -33.3643   24.0648 C   0  0  2  0  0  0  0  0  0  0  0  0
  -20.9894  -30.3707   21.8231 C   0  0  0  0  0  0  0  0  0  0  0  0
  -28.0682  -15.8141   20.8544 N   0  0  0  0  0  0  0  0  0  0  0  0
  -29.2616  -22.4806   17.6022 N   0  0  0  0  0  0  0  0  0  0  0  0
  -28.9777  -16.3769   20.0407 N   0  0  0  0  0  0  0  0  0  0  0  0
  -23.5060  -28.1683   23.1198 N   0  0  0  0  0  0  0  0  0  0  0  0
  -28.5505  -20.0656   20.9459 N   0  0  0  0  0  0  0  0  0  0  0  0
  -30.3994  -15.9283   18.2000 N   0  0  0  0  0  0  0  0  0  0  0  0
  -28.3324  -11.9757   18.9076 N   0  0  0  0  0  0  0  0  0  0  0  0
  -22.7007  -24.6402   23.5677 N   0  0  0  0  0  0  0  0  0  0  0  0
  -22.7122  -31.4523   23.3285 N   0  0  0  0  0  0  0  0  0  0  0  0
  -26.9127  -20.9145   19.4658 N   0  0  0  0  0  0  0  0  0  0  0  0
  -25.3935  -33.6456   24.3617 N   0  3  0  0  0  0  0  0  0  0  0  0
  -29.8773  -13.0625   17.6073 O   0  0  0  0  0  0  0  0  0  0  0  0
  -22.3788  -26.2279   21.8949 O   0  0  0  0  0  0  0  0  0  0  0  0
  -21.7225  -28.9793   24.3838 O   0  0  0  0  0  0  0  0  0  0  0  0
  -24.6644  -31.9966   22.2017 O   0  0  0  0  0  0  0  0  0  0  0  0
  -28.3483  -22.3406   20.5439 O   0  0  0  0  0  0  0  0  0  0  0  0
  -24.5385  -10.9014   22.8430 O   0  0  0  0  0  0  0  0  0  0  0  0
  -28.6180  -26.9614   19.8850 O   0  0  0  0  0  0  0  0  0  1  0  0
  -21.4570   -7.7167   19.5618 F   0  0  0  0  0  0  0  0  0  0  0  0
  -21.7782  -10.9826   22.9729 F   0  0  0  0  0  0  0  0  0  0  0  0
  1  2  1  0  0  0  0
  1  5  2  0  0  0  0
  2  6  2  0  0  0  0
  3  8  2  0  0  0  0
  3 16  1  0  0  0  0
  4  9  1  0  0  0  0
  4 16  2  0  0  0  0
  5 18  1  0  0  0  0
  6 20  1  0  0  0  0
  7 10  2  0  0  0  0
  7 19  1  0  0  0  0
  8 24  1  0  0  0  0
  9 24  2  0  0  0  0
 10 25  1  0  0  0  0
 11 12  2  0  0  0  0
 11 26  1  0  0  0  0
 12 27  1  0  0  0  0
 13 21  1  0  0  0  0
 13 25  2  0  0  0  0
 14 22  2  0  0  0  0
 14 30  1  0  0  0  0
 15 27  2  0  0  0  0
 15 28  1  0  0  0  0
 16 29  1  0  0  0  0
 17 29  1  0  0  0  0
 17 32  2  0  0  0  0
 17 33  1  0  0  0  0
 18 20  2  0  0  0  0
 18 38  1  0  0  0  0
 19 21  2  0  0  0  0
 19 39  1  0  0  0  0
 20 47  1  0  0  0  0
 21 40  1  0  0  0  0
 22 23  1  0  0  0  0
 22 58  1  0  0  0  0
 23 31  2  0  0  0  0
 23 59  1  0  0  0  0
 24 83  1  0  0  0  0
 25 84  1  0  0  0  0
 26 28  2  0  0  0  0
 26 83  1  0  0  0  0
 27 85  1  0  0  0  0
 28 86  1  0  0  0  0
 29 67  2  0  0  0  0
 30 63  1  0  0  0  0
 30 68  2  0  0  0  0
 31 60  1  0  0  0  0
 31 68  1  0  0  0  0
 32 69  1  0  0  0  0
 32 72  1  0  0  0  0
 33 73  1  0  0  0  0
 33 78  2  0  0  0  0
 34 48  1  0  0  0  0
 34 74  1  0  0  0  0
 34 79  2  0  0  0  0
 35 64  1  0  0  0  0
 35 70  1  0  0  0  0
 35 80  2  0  0  0  0
 36 65  1  0  0  0  0
 36 75  1  0  0  0  0
 36 81  2  0  0  0  0
 37 71  1  0  0  0  0
 37 76  1  0  0  0  0
 37 82  2  0  0  0  0
 38 41  1  0  0  0  0
 39 48  1  0  0  0  0
 40 70  1  0  0  0  0
 41 43  1  0  0  0  0
 42 44  1  0  0  0  0
 42 45  1  0  0  0  0
 43 47  1  0  0  0  0
 44 49  1  0  0  0  0
 45 71  1  0  0  0  0
 46 49  1  0  0  0  0
 46 71  1  0  0  0  0
 47 74  1  0  0  0  0
 48 70  1  0  0  0  0
 49 69  1  0  0  0  0
 50 59  1  0  0  0  0
 51 60  1  0  0  0  0
 52 63  1  0  0  0  0
 53 65  1  0  0  0  0
 54 66  1  0  0  0  0
 55 66  1  0  0  0  0
 56 66  1  0  0  0  0
 57 77  1  0  0  0  0
 58 62  1  0  0  0  0
 61 63  1  0  0  0  0
 61 76  1  0  0  0  0
 62 84  1  0  0  0  0
 64 66  1  0  0  0  0
 64 75  1  0  0  0  0
 65 77  1  0  0  0  0
 67 69  1  0  0  0  0
M  CHG  1  77   1
M  ISO  4  37 100  62 101  76 100  84 101
M  END
> <Batch ID>
0087

> <Smiles>
CCc1nc(C(C)C[100NH:0][100C:0](=O)N2CCCC(n3nc(-c4ccc(Oc5ccc(F)cc5F)cc4)c(C(N)=O)c3N)C2)cc(C[101CH2:1][101O:1]c2ccc3c(c2)CN(C(=O)C(NC(=O)C(C)NC)C(C)(C)C)C(C(=O)NC2CCCc4ccccc42)C3)c1CC

> <Shape>
0.254

> <Color>
0.057

> <Negative vol penalty>
0.000

$$$$

  -OEChem-04052319013D

 87 95  0     1  0  0  0  0  0999 V2000
  -33.6739  -15.7665   12.1390 C   0  0  0  0  0  0  0  0  0  0  0  0
  -32.5083  -15.5857   12.8767 C   0  0  0  0  0  0  0  0  0  0  0  0
  -22.5653  -10.5437   21.3023 C   0  0  0  0  0  0  0  0  0  0  0  0
  -24.5691   -9.2736   20.8453 C   0  0  0  0  0  0  0  0  0  0  0  0
  -34.8696  -15.1983   12.5765 C   0  0  0  0  0  0  0  0  0  0  0  0
  -32.5376  -14.8356   14.0518 C   0  0  0  0  0  0  0  0  0  0  0  0
  -30.5375  -17.7192   20.3428 C   0  0  0  0  0  0  0  0  0  0  0  0
  -21.8646   -9.3583   21.5245 C   0  0  0  0  0  0  0  0  0  0  0  0
  -23.8683   -8.0881   21.0676 C   0  0  0  0  0  0  0  0  0  0  0  0
  -29.9711  -18.1348   21.5480 C   0  0  0  0  0  0  0  0  0  0  0  0
  -19.7472   -5.9148   22.1906 C   0  0  0  0  0  0  0  0  0  0  0  0
  -18.3970   -6.0110   22.5270 C   0  0  0  0  0  0  0  0  0  0  0  0
  -30.5859  -16.0331   22.5741 C   0  0  0  0  0  0  0  0  0  0  0  0
  -27.7277  -16.1723   22.1865 C   0  0  0  0  0  0  0  0  0  0  0  0
  -18.5370   -8.4197   22.3999 C   0  0  0  0  0  0  0  0  0  0  0  0
  -29.3847  -16.8301   23.5618 C   0  0  0  0  0  0  0  0  0  0  0  0
  -23.9176  -10.5013   20.9626 C   0  0  0  0  0  0  0  0  0  0  0  0
  -24.1387  -13.0381   20.8085 C   0  0  0  0  0  0  0  0  0  0  0  0
  -34.9155  -14.4489   13.7626 C   0  0  0  0  0  0  0  0  0  0  0  0
  -31.1446  -16.4635   20.2529 C   0  0  0  0  0  0  0  0  0  0  0  0
  -33.7347  -14.2557   14.5048 C   0  0  0  0  0  0  0  0  0  0  0  0
  -31.1659  -15.6164   21.3730 C   0  0  0  0  0  0  0  0  0  0  0  0
  -28.8851  -15.7419   22.8810 C   0  0  0  0  0  0  0  0  0  0  0  0
  -22.5160   -8.1306   21.4072 C   0  0  0  0  0  0  0  0  0  0  0  0
  -29.9950  -17.2938   22.6608 C   0  0  0  0  0  0  0  0  0  0  0  0
  -20.4924   -7.0709   21.9589 C   0  0  0  0  0  0  0  0  0  0  0  0
  -17.7919   -7.2635   22.6316 C   0  0  0  0  0  0  0  0  0  0  0  0
  -19.8873   -8.3234   22.0636 C   0  0  0  0  0  0  0  0  0  0  0  0
  -24.6418  -11.7255   20.7324 C   0  0  0  0  0  0  0  0  0  0  0  0
  -27.5553  -17.5104   22.4640 C   0  0  0  0  0  0  0  0  0  0  0  0
  -25.2148  -13.8363   20.5061 C   0  0  0  0  0  0  0  0  0  0  0  0
  -22.8169  -13.4949   21.1243 C   0  0  0  0  0  0  0  0  0  0  0  0
  -32.9840  -13.9909   18.1131 C   0  0  0  0  0  0  0  0  0  0  0  0
  -34.2957  -13.9196   20.8852 C   0  0  0  0  0  0  0  0  0  0  0  0
  -36.7554  -16.2144   20.3190 C   0  0  0  0  0  0  0  0  0  0  0  0
  -31.1209  -13.4980   21.2948 C   0  0  0  0  0  0  0  0  0  0  0  0
  -36.2216  -13.8144   14.1704 C   0  0  0  0  0  0  0  0  0  0  0  0
  -31.7129  -15.9497   18.9579 C   0  0  0  0  0  0  0  0  0  0  0  0
  -31.7992  -14.2604   21.2202 C   0  0  0  0  0  0  0  0  0  0  0  0
  -36.2444  -13.3475   15.6236 C   0  0  0  0  0  0  0  0  0  0  0  0
  -29.1302  -11.6971   18.6056 C   0  0  0  0  0  0  0  0  0  0  0  0
  -34.9696  -12.5792   15.9575 C   0  0  0  0  0  0  0  0  0  0  0  0
  -28.1083  -12.8282   18.5139 C   0  0  0  0  0  0  0  0  0  0  0  0
  -30.3570  -12.1090   19.4176 C   0  0  0  0  0  0  0  0  0  0  0  0
  -28.6566  -12.9389   21.0157 C   0  0  0  0  0  0  0  0  0  0  0  0
  -33.7312  -13.4693   15.7978 C   0  0  1  0  0  0  0  0  0  0  0  0
  -32.9622  -15.0722   19.1531 C   0  0  1  0  0  0  0  0  0  0  0  0
  -27.6814  -13.3588   19.9018 C   0  0  2  0  0  0  0  0  0  0  0  0
  -26.5107  -18.4476   22.0016 C   0  0  0  0  0  0  0  0  0  0  0  0
  -35.4515  -18.3277   20.6815 C   0  0  0  0  0  0  0  0  0  0  0  0
  -27.4158  -21.7903   26.1786 C   0  0  0  0  0  0  0  0  0  0  0  0
  -31.3925  -20.3610   25.1444 C   0  0  0  0  0  0  0  0  0  0  0  0
  -36.3472  -12.3206   18.3372 C   0  0  0  0  0  0  0  0  0  0  0  0
  -35.3179  -14.4181   17.4375 C   0  0  0  0  0  0  0  0  0  0  0  0
  -33.8885  -12.7151   18.5686 C   0  0  0  0  0  0  0  0  0  0  0  0
  -31.8232  -14.9470   23.2419 C   0  0  0  0  0  0  0  0  0  0  0  0
  -37.8518  -18.7922   18.1349 C   0  0  0  0  0  0  0  0  0  0  0  0
  -29.4517  -14.3798   22.8769 C   0  0  0  0  0  0  0  0  0  0  0  0
  -27.5525  -19.8432   24.6103 C   0  0  0  0  0  0  0  0  0  0  0  0
  -29.2848  -20.0880   26.4773 C   0  0  0  0  0  0  0  0  0  0  0  0
  -28.7702  -19.2860   23.8588 C   0  0  0  0  0  0  0  0  0  0  0  0
  -29.4633  -19.1093   24.1025 C   0  0  0  0  0  0  0  0  0  1  0  0
  -35.4619  -14.1295   19.9529 C   0  0  1  0  0  0  0  0  0  0  0  0
  -36.6993  -17.7107   20.0690 C   0  0  2  0  0  0  0  0  0  0  0  0
  -27.8141  -20.3136   26.0618 C   0  0  1  0  0  0  0  0  0  0  0  0
  -30.1960  -19.4384   25.4115 C   0  0  1  0  0  0  0  0  0  0  0  0
  -35.2738  -13.3970   18.5943 C   0  0  0  0  0  0  0  0  0  0  0  0
  -25.9367  -11.6876   20.4070 N   0  0  0  0  0  0  0  0  0  0  0  0
  -28.5685  -17.8996   23.3007 N   0  0  0  0  0  0  0  0  0  0  0  0
  -26.2563  -12.9864   20.2759 N   0  0  0  0  0  0  0  0  0  0  0  0
  -33.0455  -14.3724   20.4463 N   0  0  0  0  0  0  0  0  0  0  0  0
  -30.0471  -12.9830   20.5502 N   0  0  0  0  0  0  0  0  0  0  0  0
  -25.3622  -15.1752   20.4172 N   0  0  0  0  0  0  0  0  0  0  0  0
  -21.8308  -12.5410   21.4102 N   0  0  0  0  0  0  0  0  0  0  0  0
  -33.5987  -14.3590   16.9315 N   0  0  0  0  0  0  0  0  0  0  0  0
  -35.6351  -15.5732   19.8344 N   0  0  0  0  0  0  0  0  0  0  0  0
  -30.8185  -14.3352   22.3769 N   0  0  0  0  0  0  0  0  0  0  0  0
  -36.6924  -17.9914   18.6054 N   0  3  0  0  0  0  0  0  0  0  0  0
  -22.5151  -14.7124   21.1362 O   0  0  0  0  0  0  0  0  0  0  0  0
  -32.4817  -12.9015   18.3635 O   0  0  0  0  0  0  0  0  0  0  0  0
  -34.4860  -13.3744   21.9760 O   0  0  0  0  0  0  0  0  0  0  0  0
  -37.7005  -15.6685   20.8842 O   0  0  0  0  0  0  0  0  0  0  0  0
  -32.2928  -13.2227   21.0039 O   0  0  0  0  0  0  0  0  0  0  0  0
  -21.8326   -6.9737   21.6242 O   0  0  0  0  0  0  0  0  0  0  0  0
  -29.4442  -17.7076   23.8355 O   0  0  0  0  0  0  0  0  0  1  0  0
  -16.4948   -7.3557   22.9532 F   0  0  0  0  0  0  0  0  0  0  0  0
  -20.5978   -9.4376   21.8410 F   0  0  0  0  0  0  0  0  0  0  0  0
  1  2  1  0  0  0  0
  1  5  2  0  0  0  0
  2  6  2  0  0  0  0
  3  8  2  0  0  0  0
  3 17  1  0  0  0  0
  4  9  1  0  0  0  0
  4 17  2  0  0  0  0
  5 19  1  0  0  0  0
  6 21  1  0  0  0  0
  7 10  2  0  0  0  0
  7 20  1  0  0  0  0
  8 24  1  0  0  0  0
  9 24  2  0  0  0  0
 10 25  1  0  0  0  0
 11 12  2  0  0  0  0
 11 26  1  0  0  0  0
 12 27  1  0  0  0  0
 13 22  1  0  0  0  0
 13 25  2  0  0  0  0
 14 23  1  0  0  0  0
 14 30  2  0  0  0  0
 15 27  2  0  0  0  0
 15 28  1  0  0  0  0
 16 23  2  0  0  0  0
 16 69  1  0  0  0  0
 17 29  1  0  0  0  0
 18 29  1  0  0  0  0
 18 31  2  0  0  0  0
 18 32  1  0  0  0  0
 19 21  2  0  0  0  0
 19 37  1  0  0  0  0
 20 22  2  0  0  0  0
 20 38  1  0  0  0  0
 21 46  1  0  0  0  0
 22 39  1  0  0  0  0
 23 58  1  0  0  0  0
 24 84  1  0  0  0  0
 25 85  1  0  0  0  0
 26 28  2  0  0  0  0
 26 84  1  0  0  0  0
 27 86  1  0  0  0  0
 28 87  1  0  0  0  0
 29 68  2  0  0  0  0
 30 49  1  0  0  0  0
 30 69  1  0  0  0  0
 31 70  1  0  0  0  0
 31 73  1  0  0  0  0
 32 74  1  0  0  0  0
 32 79  2  0  0  0  0
 33 47  1  0  0  0  0
 33 75  1  0  0  0  0
 33 80  2  0  0  0  0
 34 63  1  0  0  0  0
 34 71  1  0  0  0  0
 34 81  2  0  0  0  0
 35 64  1  0  0  0  0
 35 76  1  0  0  0  0
 35 82  2  0  0  0  0
 36 72  1  0  0  0  0
 36 77  1  0  0  0  0
 36 83  2  0  0  0  0
 37 40  1  0  0  0  0
 38 47  1  0  0  0  0
 39 71  1  0  0  0  0
 40 42  1  0  0  0  0
 41 43  1  0  0  0  0
 41 44  1  0  0  0  0
 42 46  1  0  0  0  0
 43 48  1  0  0  0  0
 44 72  1  0  0  0  0
 45 48  1  0  0  0  0
 45 72  1  0  0  0  0
 46 75  1  0  0  0  0
 47 71  1  0  0  0  0
 48 70  1  0  0  0  0
 50 64  1  0  0  0  0
 51 65  1  0  0  0  0
 52 66  1  0  0  0  0
 53 67  1  0  0  0  0
 54 67  1  0  0  0  0
 55 67  1  0  0  0  0
 56 77  1  0  0  0  0
 57 78  1  0  0  0  0
 58 77  1  0  0  0  0
 59 61  1  0  0  0  0
 59 65  1  0  0  0  0
 60 65  1  0  0  0  0
 60 66  1  0  0  0  0
 61 69  1  0  0  0  0
 62 66  1  0  0  0  0
 62 85  1  0  0  0  0
 63 67  1  0  0  0  0
 63 76  1  0  0  0  0
 64 78  1  0  0  0  0
 68 70  1  0  0  0  0
M  CHG  1  78   1
M  ISO  4  36 100  62 101  77 100  85 101
M  END
> <Batch ID>
0087

> <Smiles>
CNC(C)C(=O)NC(C(=O)N1Cc2cc([101O:1][101CH2:1]C(C)CC(C)CCn3cc(C[100N:0](C)[100C:0](=O)N4CCCC(n5nc(-c6ccc(Oc7ccc(F)cc7F)cc6)c(C(N)=O)c5N)C4)cc3C)ccc2CC1C(=O)NC1CCCc2ccccc21)C(C)(C)C

> <Shape>
0.172

> <Color>
0.174

> <Negative vol penalty>
0.000

$$$$

  -OEChem-04052319013D

 85 93  0     1  0  0  0  0  0999 V2000
  -23.5036   -7.3868   24.3342 C   0  0  0  0  0  0  0  0  0  0  0  0
  -24.5715   -8.2474   24.5674 C   0  0  0  0  0  0  0  0  0  0  0  0
  -23.7011  -29.5858   25.0023 C   0  0  0  0  0  0  0  0  0  0  0  0
  -24.8841  -29.0071   22.9768 C   0  0  0  0  0  0  0  0  0  0  0  0
  -22.8466   -7.4102   23.1047 C   0  0  0  0  0  0  0  0  0  0  0  0
  -24.9838   -9.1312   23.5707 C   0  0  0  0  0  0  0  0  0  0  0  0
  -27.7828  -15.6695   22.7155 C   0  0  0  0  0  0  0  0  0  0  0  0
  -24.4439  -30.7624   25.1000 C   0  0  0  0  0  0  0  0  0  0  0  0
  -25.6268  -30.1837   23.0745 C   0  0  0  0  0  0  0  0  0  0  0  0
  -28.8403  -16.3130   22.0739 C   0  0  0  0  0  0  0  0  0  0  0  0
  -24.4417  -33.8341   23.6868 C   0  0  0  0  0  0  0  0  0  0  0  0
  -23.7560  -35.0103   23.9901 C   0  0  0  0  0  0  0  0  0  0  0  0
  -27.5799  -16.3203   20.0170 C   0  0  0  0  0  0  0  0  0  0  0  0
  -29.1679  -22.1275   20.0264 C   0  0  0  0  0  0  0  0  0  0  0  0
  -28.3557  -20.2680   21.3173 C   0  0  0  0  0  0  0  0  0  0  0  0
  -25.0894  -35.2723   25.9878 C   0  0  0  0  0  0  0  0  0  0  0  0
  -23.9212  -28.7081   23.9408 C   0  0  0  0  0  0  0  0  0  0  0  0
  -21.9273  -27.3141   23.1735 C   0  0  0  0  0  0  0  0  0  0  0  0
  -23.2449   -8.3014   22.0959 C   0  0  0  0  0  0  0  0  0  0  0  0
  -26.6184  -15.3363   22.0088 C   0  0  0  0  0  0  0  0  0  0  0  0
  -24.3324   -9.1656   22.3261 C   0  0  0  0  0  0  0  0  0  0  0  0
  -26.5081  -15.6749   20.6526 C   0  0  0  0  0  0  0  0  0  0  0  0
  -29.3423  -20.8403   20.5222 C   0  0  0  0  0  0  0  0  0  0  0  0
  -25.4067  -31.0614   24.1361 C   0  0  0  0  0  0  0  0  0  0  0  0
  -28.7401  -16.6359   20.7238 C   0  0  0  0  0  0  0  0  0  0  0  0
  -25.4512  -33.3770   24.5340 C   0  0  0  0  0  0  0  0  0  0  0  0
  -24.0799  -35.7294   25.1406 C   0  0  0  0  0  0  0  0  0  0  0  0
  -25.7750  -34.0961   25.6845 C   0  0  0  0  0  0  0  0  0  0  0  0
  -23.1547  -27.4923   23.8396 C   0  0  0  0  0  0  0  0  0  0  0  0
  -27.9982  -22.7950   20.3520 C   0  0  0  0  0  0  0  0  0  0  0  0
  -27.2224  -21.0188   21.5854 C   0  0  0  0  0  0  0  0  0  0  0  0
  -21.6188  -25.9903   23.3705 C   0  0  0  0  0  0  0  0  0  0  0  0
  -21.1369  -28.2605   22.4420 C   0  0  0  0  0  0  0  0  0  0  0  0
  -25.1311  -12.6209   21.2889 C   0  0  0  0  0  0  0  0  0  0  0  0
  -22.8702  -14.6262   20.1101 C   0  0  0  0  0  0  0  0  0  0  0  0
  -22.0975  -17.7053   18.8575 C   0  0  0  0  0  0  0  0  0  0  0  0
  -24.9576  -21.1493   24.4968 C   0  0  0  0  0  0  0  0  0  0  0  0
  -22.5344   -8.2572   20.7662 C   0  0  0  0  0  0  0  0  0  0  0  0
  -25.4761  -14.6662   22.7219 C   0  0  0  0  0  0  0  0  0  0  0  0
  -25.2713  -15.3572   19.8539 C   0  0  0  0  0  0  0  0  0  0  0  0
  -22.7934   -9.4845   19.8961 C   0  0  0  0  0  0  0  0  0  0  0  0
  -22.2825  -22.4131   26.4776 C   0  0  0  0  0  0  0  0  0  0  0  0
  -24.2817   -9.8181   19.8730 C   0  0  0  0  0  0  0  0  0  0  0  0
  -22.0919  -23.8420   25.9660 C   0  0  0  0  0  0  0  0  0  0  0  0
  -23.7548  -22.0079   26.4849 C   0  0  0  0  0  0  0  0  0  0  0  0
  -24.2619  -23.6144   24.6861 C   0  0  0  0  0  0  0  0  0  0  0  0
  -24.7932  -10.1558   21.2786 C   0  0  1  0  0  0  0  0  0  0  0  0
  -24.5423  -13.9134   21.7791 C   0  0  1  0  0  0  0  0  0  0  0  0
  -22.7883  -24.0488   24.6075 C   0  0  2  0  0  0  0  0  0  0  0  0
  -28.1202  -26.6526   20.2552 C   0  0  0  0  0  0  0  0  0  0  0  0
  -25.0953  -19.6640   21.6243 C   0  0  0  0  0  0  0  0  0  0  0  0
  -20.6625  -19.5794   18.0056 C   0  0  0  0  0  0  0  0  0  0  0  0
  -23.0581  -13.0905   17.4803 C   0  0  0  0  0  0  0  0  0  0  0  0
  -21.8753  -14.9943   16.3646 C   0  0  0  0  0  0  0  0  0  0  0  0
  -20.7326  -13.7027   18.1670 C   0  0  0  0  0  0  0  0  0  0  0  0
  -21.6677  -18.7707   21.5850 C   0  0  0  0  0  0  0  0  0  0  0  0
  -30.5960  -20.0677   20.1980 C   0  0  0  0  0  0  0  0  0  0  0  0
  -27.7762  -24.1775   19.8362 C   0  0  0  0  0  0  0  0  0  0  0  0
  -28.3167  -25.2461   20.7982 C   0  0  0  0  0  0  0  0  0  0  0  0
  -30.4901  -19.2291   18.9224 C   0  0  0  0  0  0  0  0  0  0  0  0
  -29.4397  -18.1280   19.0092 C   0  0  0  0  0  0  0  0  0  1  0  0
  -26.1441  -20.4365   22.4369 C   0  0  2  0  0  0  0  0  0  0  0  0
  -22.6129  -15.2800   18.7740 C   0  0  1  0  0  0  0  0  0  0  0  0
  -20.9763  -18.6743   19.1868 C   0  0  2  0  0  0  0  0  0  0  0  0
  -22.0939  -14.2713   17.7107 C   0  0  0  0  0  0  0  0  0  0  0  0
  -23.5956  -26.3714   24.4168 N   0  0  0  0  0  0  0  0  0  0  0  0
  -27.0175  -22.2720   21.1215 N   0  0  0  0  0  0  0  0  0  0  0  0
  -22.6401  -25.4762   24.1140 N   0  0  0  0  0  0  0  0  0  0  0  0
  -24.1842  -14.6960   20.5944 N   0  0  0  0  0  0  0  0  0  0  0  0
  -24.3557  -22.2270   25.1670 N   0  0  0  0  0  0  0  0  0  0  0  0
  -20.5762  -25.2275   22.9786 N   0  0  0  0  0  0  0  0  0  0  0  0
  -21.6007  -29.5790   22.3371 N   0  0  0  0  0  0  0  0  0  0  0  0
  -24.4061  -11.5006   21.6478 N   0  0  0  0  0  0  0  0  0  0  0  0
  -21.7075  -16.3944   19.0325 N   0  0  0  0  0  0  0  0  0  0  0  0
  -25.4972  -21.4419   23.2502 N   0  0  0  0  0  0  0  0  0  0  0  0
  -21.3550  -19.5298   20.3468 N   0  3  0  0  0  0  0  0  0  0  0  0
  -20.0434  -27.9504   21.9114 O   0  0  0  0  0  0  0  0  0  0  0  0
  -26.1657  -12.6388   20.6324 O   0  0  0  0  0  0  0  0  0  0  0  0
  -21.9382  -14.0801   20.7057 O   0  0  0  0  0  0  0  0  0  0  0  0
  -23.2072  -18.0742   18.4792 O   0  0  0  0  0  0  0  0  0  0  0  0
  -25.0054  -20.0095   24.9716 O   0  0  0  0  0  0  0  0  0  0  0  0
  -26.1315  -32.2095   24.2310 O   0  0  0  0  0  0  0  0  0  0  0  0
  -29.7709  -17.2633   20.0950 O   0  0  0  0  0  0  0  0  0  1  0  0
  -23.4224  -36.8597   25.4310 F   0  0  0  0  0  0  0  0  0  0  0  0
  -26.7447  -33.6625   26.5015 F   0  0  0  0  0  0  0  0  0  0  0  0
  1  2  1  0  0  0  0
  1  5  2  0  0  0  0
  2  6  2  0  0  0  0
  3  8  2  0  0  0  0
  3 17  1  0  0  0  0
  4  9  1  0  0  0  0
  4 17  2  0  0  0  0
  5 19  1  0  0  0  0
  6 21  1  0  0  0  0
  7 10  2  0  0  0  0
  7 20  1  0  0  0  0
  8 24  1  0  0  0  0
  9 24  2  0  0  0  0
 10 25  1  0  0  0  0
 11 12  2  0  0  0  0
 11 26  1  0  0  0  0
 12 27  1  0  0  0  0
 13 22  1  0  0  0  0
 13 25  2  0  0  0  0
 14 23  2  0  0  0  0
 14 30  1  0  0  0  0
 15 23  1  0  0  0  0
 15 31  2  0  0  0  0
 16 27  2  0  0  0  0
 16 28  1  0  0  0  0
 17 29  1  0  0  0  0
 18 29  1  0  0  0  0
 18 32  2  0  0  0  0
 18 33  1  0  0  0  0
 19 21  2  0  0  0  0
 19 38  1  0  0  0  0
 20 22  2  0  0  0  0
 20 39  1  0  0  0  0
 21 47  1  0  0  0  0
 22 40  1  0  0  0  0
 23 57  1  0  0  0  0
 24 82  1  0  0  0  0
 25 83  1  0  0  0  0
 26 28  2  0  0  0  0
 26 82  1  0  0  0  0
 27 84  1  0  0  0  0
 28 85  1  0  0  0  0
 29 66  2  0  0  0  0
 30 58  1  0  0  0  0
 30 67  2  0  0  0  0
 31 62  1  0  0  0  0
 31 67  1  0  0  0  0
 32 68  1  0  0  0  0
 32 71  1  0  0  0  0
 33 72  1  0  0  0  0
 33 77  2  0  0  0  0
 34 48  1  0  0  0  0
 34 73  1  0  0  0  0
 34 78  2  0  0  0  0
 35 63  1  0  0  0  0
 35 69  1  0  0  0  0
 35 79  2  0  0  0  0
 36 64  1  0  0  0  0
 36 74  1  0  0  0  0
 36 80  2  0  0  0  0
 37 70  1  0  0  0  0
 37 75  1  0  0  0  0
 37 81  2  0  0  0  0
 38 41  1  0  0  0  0
 39 48  1  0  0  0  0
 40 69  1  0  0  0  0
 41 43  1  0  0  0  0
 42 44  1  0  0  0  0
 42 45  1  0  0  0  0
 43 47  1  0  0  0  0
 44 49  1  0  0  0  0
 45 70  1  0  0  0  0
 46 49  1  0  0  0  0
 46 70  1  0  0  0  0
 47 73  1  0  0  0  0
 48 69  1  0  0  0  0
 49 68  1  0  0  0  0
 50 59  1  0  0  0  0
 51 62  1  0  0  0  0
 52 64  1  0  0  0  0
 53 65  1  0  0  0  0
 54 65  1  0  0  0  0
 55 65  1  0  0  0  0
 56 76  1  0  0  0  0
 57 60  1  0  0  0  0
 58 59  1  0  0  0  0
 60 61  1  0  0  0  0
 61 83  1  0  0  0  0
 62 75  1  0  0  0  0
 63 65  1  0  0  0  0
 63 74  1  0  0  0  0
 64 76  1  0  0  0  0
 66 68  1  0  0  0  0
M  CHG  1  76   1
M  ISO  4  37 100  61 101  75 100  83 101
M  END
> <Batch ID>
0087

> <Smiles>
CCCc1cc(CC[101CH2:1][101O:1]c2ccc3c(c2)CN(C(=O)C(NC(=O)C(C)NC)C(C)(C)C)C(C(=O)NC2CCCc4ccccc42)C3)cc(C(C)[100NH:0][100C:0](=O)N2CCCC(n3nc(-c4ccc(Oc5ccc(F)cc5F)cc4)c(C(N)=O)c3N)C2)n1

> <Shape>
0.231

> <Color>
0.062

> <Negative vol penalty>
0.000

$$$$

  -OEChem-04052319013D

 83 91  0     1  0  0  0  0  0999 V2000
  -37.9528  -28.1142   29.7075 C   0  0  0  0  0  0  0  0  0  0  0  0
  -37.0545  -27.7002   28.7291 C   0  0  0  0  0  0  0  0  0  0  0  0
  -23.0752   -9.8681   19.9398 C   0  0  0  0  0  0  0  0  0  0  0  0
  -23.8344   -9.8744   22.2334 C   0  0  0  0  0  0  0  0  0  0  0  0
  -39.3127  -27.8430   29.5633 C   0  0  0  0  0  0  0  0  0  0  0  0
  -37.5160  -27.0157   27.6053 C   0  0  0  0  0  0  0  0  0  0  0  0
  -34.6485  -23.0012   26.4626 C   0  0  0  0  0  0  0  0  0  0  0  0
  -22.3310   -8.7151   20.1892 C   0  0  0  0  0  0  0  0  0  0  0  0
  -23.0901   -8.7214   22.4829 C   0  0  0  0  0  0  0  0  0  0  0  0
  -33.4416  -23.2461   25.8089 C   0  0  0  0  0  0  0  0  0  0  0  0
  -19.8616   -7.9243   23.0843 C   0  0  0  0  0  0  0  0  0  0  0  0
  -19.1043   -7.8843   24.2549 C   0  0  0  0  0  0  0  0  0  0  0  0
  -34.4652  -22.6483   23.7080 C   0  0  0  0  0  0  0  0  0  0  0  0
  -20.3449   -5.9463   24.9913 C   0  0  0  0  0  0  0  0  0  0  0  0
  -29.9460  -17.8353   22.7349 C   0  0  0  0  0  0  0  0  0  0  0  0
  -23.8270  -10.4477   20.9618 C   0  0  0  0  0  0  0  0  0  0  0  0
  -24.1696  -12.9728   20.8425 C   0  0  0  0  0  0  0  0  0  0  0  0
  -39.7899  -27.1463   28.4419 C   0  0  0  0  0  0  0  0  0  0  0  0
  -35.7776  -22.5878   25.7411 C   0  0  0  0  0  0  0  0  0  0  0  0
  -38.8838  -26.7361   27.4453 C   0  0  0  0  0  0  0  0  0  0  0  0
  -35.6845  -22.3963   24.3552 C   0  0  0  0  0  0  0  0  0  0  0  0
  -22.3384   -8.1418   21.4608 C   0  0  0  0  0  0  0  0  0  0  0  0
  -33.3506  -23.0724   24.4310 C   0  0  0  0  0  0  0  0  0  0  0  0
  -20.8605   -6.9753   22.8670 C   0  0  0  0  0  0  0  0  0  0  0  0
  -19.3460   -6.8954   25.2085 C   0  0  0  0  0  0  0  0  0  0  0  0
  -21.1022   -5.9863   23.8206 C   0  0  0  0  0  0  0  0  0  0  0  0
  -24.5965  -11.6385   20.7046 C   0  0  0  0  0  0  0  0  0  0  0  0
  -25.2620  -13.7221   20.4798 C   0  0  0  0  0  0  0  0  0  0  0  0
  -30.5859  -16.9335   21.9324 C   0  0  0  0  0  0  0  0  0  0  0  0
  -31.9481  -18.6485   22.2545 C   0  0  0  0  0  0  0  0  0  0  0  0
  -22.8991  -13.4889   21.2612 C   0  0  0  0  0  0  0  0  0  0  0  0
  -38.6723  -23.7934   25.2207 C   0  0  0  0  0  0  0  0  0  0  0  0
  -39.1709  -20.9414   23.7580 C   0  0  0  0  0  0  0  0  0  0  0  0
  -37.8410  -18.2212   22.1836 C   0  0  0  0  0  0  0  0  0  0  0  0
  -30.7285  -14.7661   20.6563 C   0  0  0  0  0  0  0  0  0  0  0  0
  -41.2746  -26.9179   28.3068 C   0  0  0  0  0  0  0  0  0  0  0  0
  -37.0649  -22.3020   26.4648 C   0  0  0  0  0  0  0  0  0  0  0  0
  -36.8620  -21.9343   23.5376 C   0  0  0  0  0  0  0  0  0  0  0  0
  -41.6359  -25.8589   27.2684 C   0  0  0  0  0  0  0  0  0  0  0  0
  -29.6141  -12.3532   18.2871 C   0  0  0  0  0  0  0  0  0  0  0  0
  -40.8521  -26.0857   25.9796 C   0  0  0  0  0  0  0  0  0  0  0  0
  -28.1742  -12.0619   18.7162 C   0  0  0  0  0  0  0  0  0  0  0  0
  -30.5289  -12.5814   19.4891 C   0  0  0  0  0  0  0  0  0  0  0  0
  -28.6218  -13.3061   20.8700 C   0  0  0  0  0  0  0  0  0  0  0  0
  -39.3428  -25.9694   26.2240 C   0  0  1  0  0  0  0  0  0  0  0  0
  -38.2898  -22.3802   25.5588 C   0  0  1  0  0  0  0  0  0  0  0  0
  -27.6492  -13.1334   19.6918 C   0  0  2  0  0  0  0  0  0  0  0  0
  -33.1413  -19.5276   22.1873 C   0  0  0  0  0  0  0  0  0  0  0  0
  -38.5017  -16.0737   21.0659 C   0  0  0  0  0  0  0  0  0  0  0  0
  -40.0763  -22.5031   21.2980 C   0  0  0  0  0  0  0  0  0  0  0  0
  -39.8068  -20.4076   19.9547 C   0  0  0  0  0  0  0  0  0  0  0  0
  -41.4600  -20.4866   21.8211 C   0  0  0  0  0  0  0  0  0  0  0  0
  -29.5713  -23.7244   22.5423 C   0  0  0  0  0  0  0  0  0  0  0  0
  -28.5491  -22.4657   24.4421 C   0  0  0  0  0  0  0  0  0  0  0  0
  -36.3225  -16.6007   24.1399 C   0  0  0  0  0  0  0  0  0  0  0  0
  -30.1720  -21.3165   22.8500 C   0  0  0  0  0  0  0  0  0  0  0  0
  -30.5215  -20.1176   23.7417 C   0  0  0  0  0  0  0  0  0  0  0  0
  -30.9746  -23.0902   24.5312 C   0  0  0  0  0  0  0  0  0  1  0  0
  -38.9899  -20.4132   22.3554 C   0  0  1  0  0  0  0  0  0  0  0  0
  -38.0792  -16.7335   22.3694 C   0  0  2  0  0  0  0  0  0  0  0  0
  -40.0614  -20.9632   21.3721 C   0  0  0  0  0  0  0  0  0  0  0  0
  -29.8287  -22.6325   23.6034 C   0  0  0  0  0  0  0  0  0  0  0  0
  -25.8615  -11.5424   20.2867 N   0  0  0  0  0  0  0  0  0  0  0  0
  -30.8121  -18.8862   22.9182 N   0  0  0  0  0  0  0  0  0  0  0  0
  -26.2388  -12.8259   20.1588 N   0  0  0  0  0  0  0  0  0  0  0  0
  -31.8223  -17.4625   21.6504 N   0  3  0  0  0  0  0  0  0  0  0  0
  -38.1004  -21.6740   24.2900 N   0  0  0  0  0  0  0  0  0  0  0  0
  -29.9700  -13.6122   20.3666 N   0  0  0  0  0  0  0  0  0  0  0  0
  -25.4728  -15.0535   20.4071 N   0  0  0  0  0  0  0  0  0  0  0  0
  -21.8868  -12.5799   21.5979 N   0  0  0  0  0  0  0  0  0  0  0  0
  -30.0811  -15.6911   21.4748 N   0  0  0  0  0  0  0  0  0  0  0  0
  -38.9524  -24.5793   26.3223 N   0  0  0  0  0  0  0  0  0  0  0  0
  -38.9713  -18.9586   22.4663 N   0  0  0  0  0  0  0  0  0  0  0  0
  -36.8374  -16.0664   22.8529 N   0  3  0  0  0  0  0  0  0  0  0  0
  -22.6632  -14.7196   21.3188 O   0  0  0  0  0  0  0  0  0  0  0  0
  -38.7120  -24.1444   24.0473 O   0  0  0  0  0  0  0  0  0  0  0  0
  -40.2205  -20.7063   24.3620 O   0  0  0  0  0  0  0  0  0  0  0  0
  -36.7614  -18.6826   21.8203 O   0  0  0  0  0  0  0  0  0  0  0  0
  -31.8578  -14.9346   20.1891 O   0  0  0  0  0  0  0  0  0  0  0  0
  -21.6121   -7.0168   21.7046 O   0  0  0  0  0  0  0  0  0  0  0  0
  -32.1740  -23.3114   23.7904 O   0  0  0  0  0  0  0  0  0  1  0  0
  -18.6197   -6.8580   26.3333 F   0  0  0  0  0  0  0  0  0  0  0  0
  -22.0613   -5.0726   23.6180 F   0  0  0  0  0  0  0  0  0  0  0  0
  1  2  1  0  0  0  0
  1  5  2  0  0  0  0
  2  6  2  0  0  0  0
  3  8  2  0  0  0  0
  3 16  1  0  0  0  0
  4  9  1  0  0  0  0
  4 16  2  0  0  0  0
  5 18  1  0  0  0  0
  6 20  1  0  0  0  0
  7 10  2  0  0  0  0
  7 19  1  0  0  0  0
  8 22  1  0  0  0  0
  9 22  2  0  0  0  0
 10 23  1  0  0  0  0
 11 12  2  0  0  0  0
 11 24  1  0  0  0  0
 12 25  1  0  0  0  0
 13 21  1  0  0  0  0
 13 23  2  0  0  0  0
 14 25  2  0  0  0  0
 14 26  1  0  0  0  0
 15 29  2  0  0  0  0
 15 64  1  0  0  0  0
 16 27  1  0  0  0  0
 17 27  1  0  0  0  0
 17 28  2  0  0  0  0
 17 31  1  0  0  0  0
 18 20  2  0  0  0  0
 18 36  1  0  0  0  0
 19 21  2  0  0  0  0
 19 37  1  0  0  0  0
 20 45  1  0  0  0  0
 21 38  1  0  0  0  0
 22 80  1  0  0  0  0
 23 81  1  0  0  0  0
 24 26  2  0  0  0  0
 24 80  1  0  0  0  0
 25 82  1  0  0  0  0
 26 83  1  0  0  0  0
 27 63  2  0  0  0  0
 28 65  1  0  0  0  0
 28 69  1  0  0  0  0
 29 66  1  0  0  0  0
 29 71  1  0  0  0  0
 30 48  1  0  0  0  0
 30 64  1  0  0  0  0
 30 66  2  0  0  0  0
 31 70  1  0  0  0  0
 31 75  2  0  0  0  0
 32 46  1  0  0  0  0
 32 72  1  0  0  0  0
 32 76  2  0  0  0  0
 33 59  1  0  0  0  0
 33 67  1  0  0  0  0
 33 77  2  0  0  0  0
 34 60  1  0  0  0  0
 34 73  1  0  0  0  0
 34 78  2  0  0  0  0
 35 68  1  0  0  0  0
 35 71  1  0  0  0  0
 35 79  2  0  0  0  0
 36 39  1  0  0  0  0
 37 46  1  0  0  0  0
 38 67  1  0  0  0  0
 39 41  1  0  0  0  0
 40 42  1  0  0  0  0
 40 43  1  0  0  0  0
 41 45  1  0  0  0  0
 42 47  1  0  0  0  0
 43 68  1  0  0  0  0
 44 47  1  0  0  0  0
 44 68  1  0  0  0  0
 45 72  1  0  0  0  0
 46 67  1  0  0  0  0
 47 65  1  0  0  0  0
 49 60  1  0  0  0  0
 50 61  1  0  0  0  0
 51 61  1  0  0  0  0
 52 61  1  0  0  0  0
 53 62  1  0  0  0  0
 54 62  1  0  0  0  0
 55 74  1  0  0  0  0
 56 57  1  0  0  0  0
 56 62  1  0  0  0  0
 57 64  1  0  0  0  0
 58 62  1  0  0  0  0
 58 81  1  0  0  0  0
 59 61  1  0  0  0  0
 59 73  1  0  0  0  0
 60 74  1  0  0  0  0
 63 65  1  0  0  0  0
M  CHG  2  66   1  74   1
M  ISO  4  35 100  58 101  71 100  81 101
M  END
> <Batch ID>
0087

> <Smiles>
CNC(C)C(=O)NC(C(=O)N1Cc2cc([101O:1][101CH2:1]C(C)(C)CCn3cc([100NH:0][100C:0](=O)N4CCCC(n5nc(-c6ccc(Oc7ccc(F)cc7F)cc6)c(C(N)=O)c5N)C4)nc3C)ccc2CC1C(=O)NC1CCCc2ccccc21)C(C)(C)C

> <Shape>
0.172

> <Color>
0.188

> <Negative vol penalty>
0.000

$$$$

  -OEChem-04052319013D

 89 97  0     1  0  0  0  0  0999 V2000
  -19.4721  -16.0104   21.7380 C   0  0  0  0  0  0  0  0  0  0  0  0
  -19.7646  -17.3699   21.6960 C   0  0  0  0  0  0  0  0  0  0  0  0
  -28.0518  -17.3313   20.7911 C   0  0  0  0  0  0  0  0  0  0  0  0
  -30.1636  -17.8653   21.8362 C   0  0  0  0  0  0  0  0  0  0  0  0
  -20.3667  -15.0890   21.1952 C   0  0  0  0  0  0  0  0  0  0  0  0
  -20.9524  -17.8086   21.1121 C   0  0  0  0  0  0  0  0  0  0  0  0
  -21.8090  -22.9837   17.9513 C   0  0  0  0  0  0  0  0  0  0  0  0
  -28.3113  -15.9714   20.9616 C   0  0  0  0  0  0  0  0  0  0  0  0
  -30.4230  -16.5054   22.0068 C   0  0  0  0  0  0  0  0  0  0  0  0
  -22.3326  -24.2254   18.3088 C   0  0  0  0  0  0  0  0  0  0  0  0
  -28.5818  -12.3488   20.7978 C   0  0  0  0  0  0  0  0  0  0  0  0
  -28.3305  -11.4990   19.7206 C   0  0  0  0  0  0  0  0  0  0  0  0
  -24.4855  -23.5584   17.4492 C   0  0  0  0  0  0  0  0  0  0  0  0
  -29.9185  -12.7302   18.3790 C   0  0  0  0  0  0  0  0  0  0  0  0
  -28.9780  -18.2782   21.2284 C   0  0  0  0  0  0  0  0  0  0  0  0
  -28.0493  -20.5419   21.9502 C   0  0  0  0  0  0  0  0  0  0  0  0
  -21.5616  -15.5174   20.5957 C   0  0  0  0  0  0  0  0  0  0  0  0
  -22.6239  -22.0144   17.3490 C   0  0  0  0  0  0  0  0  0  0  0  0
  -21.8645  -16.8920   20.5620 C   0  0  0  0  0  0  0  0  0  0  0  0
  -23.9693  -22.3061   17.0827 C   0  0  0  0  0  0  0  0  0  0  0  0
  -26.4741  -28.1049   18.9193 C   0  0  0  0  0  0  0  0  0  0  0  0
  -27.4286  -28.3417   19.9022 C   0  0  0  0  0  0  0  0  0  0  0  0
  -25.1340  -28.3662   19.1821 C   0  0  0  0  0  0  0  0  0  0  0  0
  -29.4969  -15.5585   21.5694 C   0  0  0  0  0  0  0  0  0  0  0  0
  -23.6717  -24.5119   18.0604 C   0  0  0  0  0  0  0  0  0  0  0  0
  -29.5013  -13.3893   20.6656 C   0  0  0  0  0  0  0  0  0  0  0  0
  -28.9989  -11.6897   18.5112 C   0  0  0  0  0  0  0  0  0  0  0  0
  -30.1697  -13.5800   19.4562 C   0  0  0  0  0  0  0  0  0  0  0  0
  -28.7108  -19.6831   21.0520 C   0  0  0  0  0  0  0  0  0  0  0  0
  -26.9948  -28.8363   21.1217 C   0  0  0  0  0  0  0  0  0  0  0  0
  -24.8029  -28.8594   20.4338 C   0  0  0  0  0  0  0  0  0  0  0  0
  -28.0521  -21.7635   21.3223 C   0  0  0  0  0  0  0  0  0  0  0  0
  -27.4831  -20.2606   23.2370 C   0  0  0  0  0  0  0  0  0  0  0  0
  -23.5780  -19.0851   18.1315 C   0  0  0  0  0  0  0  0  0  0  0  0
  -24.8572  -19.1267   15.1509 C   0  0  0  0  0  0  0  0  0  0  0  0
  -26.0408  -20.9666   12.5316 C   0  0  0  0  0  0  0  0  0  0  0  0
  -31.1866  -25.5632   18.4843 C   0  0  0  0  0  0  0  0  0  0  0  0
  -22.5196  -14.4807   20.0646 C   0  0  0  0  0  0  0  0  0  0  0  0
  -22.0373  -20.6896   16.9450 C   0  0  0  0  0  0  0  0  0  0  0  0
  -24.8811  -21.3073   16.4198 C   0  0  0  0  0  0  0  0  0  0  0  0
  -23.5811  -15.0545   19.1296 C   0  0  0  0  0  0  0  0  0  0  0  0
  -29.2431  -23.0485   16.5868 C   0  0  0  0  0  0  0  0  0  0  0  0
  -24.1924  -16.3177   19.7273 C   0  0  0  0  0  0  0  0  0  0  0  0
  -28.9437  -21.9898   17.6467 C   0  0  0  0  0  0  0  0  0  0  0  0
  -30.5374  -23.7993   16.8848 C   0  0  0  0  0  0  0  0  0  0  0  0
  -30.2830  -23.3480   19.3026 C   0  0  0  0  0  0  0  0  0  0  0  0
  -23.1312  -17.4086   19.9150 C   0  0  1  0  0  0  0  0  0  0  0  0
  -23.0853  -19.5899   16.8048 C   0  0  1  0  0  0  0  0  0  0  0  0
  -28.9613  -22.6050   19.0569 C   0  0  2  0  0  0  0  0  0  0  0  0
  -27.9733  -29.1108   22.2163 C   0  0  0  0  0  0  0  0  0  0  0  0
  -23.2520  -29.9764   22.0567 C   0  0  0  0  0  0  0  0  0  0  0  0
  -27.0540  -20.7193   10.2491 C   0  0  0  0  0  0  0  0  0  0  0  0
  -27.6416  -28.0470   15.1981 C   0  0  0  0  0  0  0  0  0  0  0  0
  -26.0303  -29.5882   16.3347 C   0  0  0  0  0  0  0  0  0  0  0  0
  -27.5238  -18.3600   16.4203 C   0  0  0  0  0  0  0  0  0  0  0  0
  -28.6543  -19.0507   14.2959 C   0  0  0  0  0  0  0  0  0  0  0  0
  -27.0091  -17.1757   14.2786 C   0  0  0  0  0  0  0  0  0  0  0  0
  -31.5721  -27.2510   20.2399 C   0  0  0  0  0  0  0  0  0  0  0  0
  -23.7954  -22.4084   11.2516 C   0  0  0  0  0  0  0  0  0  0  0  0
  -26.8866  -27.5690   17.5854 C   0  0  0  0  0  0  0  0  0  0  0  0
  -28.8741  -28.0723   19.6497 C   0  0  0  0  0  0  0  0  0  0  0  0
  -24.0738  -28.1198   18.1363 C   0  0  0  0  0  0  0  0  0  0  0  0
  -23.3796  -29.1572   20.7761 C   0  0  0  0  0  0  0  0  0  0  0  0
  -29.2477  -26.5884   19.7461 C   0  0  0  0  0  0  0  0  0  0  0  0
  -23.2926  -26.8359   18.3938 C   0  0  0  0  0  0  0  0  0  1  0  0
  -26.1818  -19.5479   14.5618 C   0  0  1  0  0  0  0  0  0  0  0  0
  -25.7665  -20.8888   11.0406 C   0  0  2  0  0  0  0  0  0  0  0  0
  -27.2276  -28.6568   16.5398 C   0  0  0  0  0  0  0  0  0  0  0  0
  -27.3258  -18.5519   14.9034 C   0  0  0  0  0  0  0  0  0  0  0  0
  -29.1050  -20.3062   19.9383 N   0  0  0  0  0  0  0  0  0  0  0  0
  -25.7019  -29.1022   21.4138 N   0  0  0  0  0  0  0  0  0  0  0  0
  -28.6899  -21.5696   20.1324 N   0  0  0  0  0  0  0  0  0  0  0  0
  -24.2623  -20.0238   16.0493 N   0  0  0  0  0  0  0  0  0  0  0  0
  -30.5454  -24.3365   18.2458 N   0  0  0  0  0  0  0  0  0  0  0  0
  -27.5711  -22.9738   21.6774 N   0  0  0  0  0  0  0  0  0  0  0  0
  -27.5677  -18.9524   23.7327 N   0  0  0  0  0  0  0  0  0  0  0  0
  -22.8310  -18.0447   18.6502 N   0  0  0  0  0  0  0  0  0  0  0  0
  -25.9538  -19.7285   13.1322 N   0  0  0  0  0  0  0  0  0  0  0  0
  -30.6732  -26.3633   19.5163 N   0  0  0  0  0  0  0  0  0  0  0  0
  -25.0876  -22.1305   10.5733 N   0  3  0  0  0  0  0  0  0  0  0  0
  -26.9043  -21.1396   23.9196 O   0  0  0  0  0  0  0  0  0  0  0  0
  -24.5637  -19.6003   18.6458 O   0  0  0  0  0  0  0  0  0  0  0  0
  -24.3650  -18.0450   14.8204 O   0  0  0  0  0  0  0  0  0  0  0  0
  -26.3094  -22.0198   13.1054 O   0  0  0  0  0  0  0  0  0  0  0  0
  -32.1565  -25.9271   17.8068 O   0  0  0  0  0  0  0  0  0  0  0  0
  -29.7503  -14.2316   21.7362 O   0  0  0  0  0  0  0  0  0  0  0  0
  -24.1855  -25.7228   18.4090 O   0  0  0  0  0  0  0  0  0  1  0  0
  -28.7587  -10.8726   17.4774 F   0  0  0  0  0  0  0  0  0  0  0  0
  -31.0551  -14.5771   19.3236 F   0  0  0  0  0  0  0  0  0  0  0  0
  1  2  1  0  0  0  0
  1  5  2  0  0  0  0
  2  6  2  0  0  0  0
  3  8  2  0  0  0  0
  3 15  1  0  0  0  0
  4  9  1  0  0  0  0
  4 15  2  0  0  0  0
  5 17  1  0  0  0  0
  6 19  1  0  0  0  0
  7 10  2  0  0  0  0
  7 18  1  0  0  0  0
  8 24  1  0  0  0  0
  9 24  2  0  0  0  0
 10 25  1  0  0  0  0
 11 12  2  0  0  0  0
 11 26  1  0  0  0  0
 12 27  1  0  0  0  0
 13 20  1  0  0  0  0
 13 25  2  0  0  0  0
 14 27  2  0  0  0  0
 14 28  1  0  0  0  0
 15 29  1  0  0  0  0
 16 29  1  0  0  0  0
 16 32  2  0  0  0  0
 16 33  1  0  0  0  0
 17 19  2  0  0  0  0
 17 38  1  0  0  0  0
 18 20  2  0  0  0  0
 18 39  1  0  0  0  0
 19 47  1  0  0  0  0
 20 40  1  0  0  0  0
 21 22  2  0  0  0  0
 21 23  1  0  0  0  0
 21 60  1  0  0  0  0
 22 30  1  0  0  0  0
 22 61  1  0  0  0  0
 23 31  2  0  0  0  0
 23 62  1  0  0  0  0
 24 86  1  0  0  0  0
 25 87  1  0  0  0  0
 26 28  2  0  0  0  0
 26 86  1  0  0  0  0
 27 88  1  0  0  0  0
 28 89  1  0  0  0  0
 29 70  2  0  0  0  0
 30 50  1  0  0  0  0
 30 71  2  0  0  0  0
 31 63  1  0  0  0  0
 31 71  1  0  0  0  0
 32 72  1  0  0  0  0
 32 75  1  0  0  0  0
 33 76  1  0  0  0  0
 33 81  2  0  0  0  0
 34 48  1  0  0  0  0
 34 77  1  0  0  0  0
 34 82  2  0  0  0  0
 35 66  1  0  0  0  0
 35 73  1  0  0  0  0
 35 83  2  0  0  0  0
 36 67  1  0  0  0  0
 36 78  1  0  0  0  0
 36 84  2  0  0  0  0
 37 74  1  0  0  0  0
 37 79  1  0  0  0  0
 37 85  2  0  0  0  0
 38 41  1  0  0  0  0
 39 48  1  0  0  0  0
 40 73  1  0  0  0  0
 41 43  1  0  0  0  0
 42 44  1  0  0  0  0
 42 45  1  0  0  0  0
 43 47  1  0  0  0  0
 44 49  1  0  0  0  0
 45 74  1  0  0  0  0
 46 49  1  0  0  0  0
 46 74  1  0  0  0  0
 47 77  1  0  0  0  0
 48 73  1  0  0  0  0
 49 72  1  0  0  0  0
 51 63  1  0  0  0  0
 52 67  1  0  0  0  0
 53 68  1  0  0  0  0
 54 68  1  0  0  0  0
 55 69  1  0  0  0  0
 56 69  1  0  0  0  0
 57 69  1  0  0  0  0
 58 79  1  0  0  0  0
 59 80  1  0  0  0  0
 60 68  1  0  0  0  0
 61 64  1  0  0  0  0
 62 65  1  0  0  0  0
 64 79  1  0  0  0  0
 65 87  1  0  0  0  0
 66 69  1  0  0  0  0
 66 78  1  0  0  0  0
 67 80  1  0  0  0  0
 70 72  1  0  0  0  0
M  CHG  1  80   1
M  ISO  4  37 100  65 101  79 100  87 101
M  END
> <Batch ID>
0087

> <Smiles>
CCc1nc(C)c(CC[100N:0](C)[100C:0](=O)N2CCCC(n3nc(-c4ccc(Oc5ccc(F)cc5F)cc4)c(C(N)=O)c3N)C2)c(CC(C)C)c1C[101CH2:1][101O:1]c1ccc2c(c1)CN(C(=O)C(NC(=O)C(C)NC)C(C)(C)C)C(C(=O)NC1CCCc3ccccc31)C2

> <Shape>
0.213

> <Color>
0.051

> <Negative vol penalty>
0.000

$$$$

  -OEChem-04052319013D

 84 92  0     1  0  0  0  0  0999 V2000
  -29.5881  -30.7100   24.6460 C   0  0  0  0  0  0  0  0  0  0  0  0
  -29.0452  -29.4306   24.7070 C   0  0  0  0  0  0  0  0  0  0  0  0
  -23.0457  -10.0024   19.8813 C   0  0  0  0  0  0  0  0  0  0  0  0
  -23.8838   -9.8326   22.1409 C   0  0  0  0  0  0  0  0  0  0  0  0
  -29.8342  -31.3034   23.4085 C   0  0  0  0  0  0  0  0  0  0  0  0
  -28.7470  -28.7442   23.5304 C   0  0  0  0  0  0  0  0  0  0  0  0
  -30.2725  -23.9170   23.6577 C   0  0  0  0  0  0  0  0  0  0  0  0
  -22.2977   -8.8406   20.0714 C   0  0  0  0  0  0  0  0  0  0  0  0
  -23.1357   -8.6708   22.3311 C   0  0  0  0  0  0  0  0  0  0  0  0
  -29.4828  -23.0183   24.3736 C   0  0  0  0  0  0  0  0  0  0  0  0
  -19.9212   -7.8593   22.9859 C   0  0  0  0  0  0  0  0  0  0  0  0
  -19.2045   -7.7394   24.1764 C   0  0  0  0  0  0  0  0  0  0  0  0
  -28.4848  -22.2621   22.3117 C   0  0  0  0  0  0  0  0  0  0  0  0
  -26.5199  -19.0563   21.1147 C   0  0  0  0  0  0  0  0  0  0  0  0
  -28.5449  -18.7519   22.3761 C   0  0  0  0  0  0  0  0  0  0  0  0
  -20.4481   -5.7417   24.7240 C   0  0  0  0  0  0  0  0  0  0  0  0
  -23.8389  -10.4984   20.9161 C   0  0  0  0  0  0  0  0  0  0  0  0
  -24.2053  -13.0224   20.9707 C   0  0  0  0  0  0  0  0  0  0  0  0
  -29.5478  -30.6200   22.2162 C   0  0  0  0  0  0  0  0  0  0  0  0
  -30.1663  -24.0028   22.2620 C   0  0  0  0  0  0  0  0  0  0  0  0
  -28.9882  -29.3294   22.2759 C   0  0  0  0  0  0  0  0  0  0  0  0
  -29.2761  -23.1608   21.5802 C   0  0  0  0  0  0  0  0  0  0  0  0
  -27.1965  -19.0878   22.3290 C   0  0  0  0  0  0  0  0  0  0  0  0
  -22.3426   -8.1748   21.2963 C   0  0  0  0  0  0  0  0  0  0  0  0
  -28.5867  -22.1927   23.7009 C   0  0  0  0  0  0  0  0  0  0  0  0
  -20.9014   -6.9203   22.6643 C   0  0  0  0  0  0  0  0  0  0  0  0
  -19.4679   -6.6806   25.0455 C   0  0  0  0  0  0  0  0  0  0  0  0
  -21.1648   -5.8616   23.5334 C   0  0  0  0  0  0  0  0  0  0  0  0
  -24.6123  -11.6982   20.7201 C   0  0  0  0  0  0  0  0  0  0  0  0
  -27.2315  -18.6852   19.9852 C   0  0  0  0  0  0  0  0  0  0  0  0
  -29.1658  -18.3942   21.1902 C   0  0  0  0  0  0  0  0  0  0  0  0
  -25.2929  -13.7870   20.6257 C   0  0  0  0  0  0  0  0  0  0  0  0
  -22.9560  -13.5170   21.4709 C   0  0  0  0  0  0  0  0  0  0  0  0
  -29.3310  -26.2838   20.2120 C   0  0  0  0  0  0  0  0  0  0  0  0
  -30.2543  -24.0954   18.0028 C   0  0  0  0  0  0  0  0  0  0  0  0
  -30.7819  -20.8164   17.2174 C   0  0  0  0  0  0  0  0  0  0  0  0
  -30.7912  -14.7403   20.6964 C   0  0  0  0  0  0  0  0  0  0  0  0
  -29.7871  -31.3210   20.9024 C   0  0  0  0  0  0  0  0  0  0  0  0
  -31.0444  -24.9585   21.5019 C   0  0  0  0  0  0  0  0  0  0  0  0
  -29.1387  -23.1996   20.0808 C   0  0  0  0  0  0  0  0  0  0  0  0
  -29.7915  -30.3788   19.7013 C   0  0  0  0  0  0  0  0  0  0  0  0
  -29.5451  -12.5495   18.1815 C   0  0  0  0  0  0  0  0  0  0  0  0
  -28.6043  -29.4234   19.7680 C   0  0  0  0  0  0  0  0  0  0  0  0
  -28.1201  -12.2374   18.6417 C   0  0  0  0  0  0  0  0  0  0  0  0
  -30.5054  -12.6726   19.3626 C   0  0  0  0  0  0  0  0  0  0  0  0
  -28.6608  -13.3157   20.8651 C   0  0  0  0  0  0  0  0  0  0  0  0
  -28.6743  -28.5430   21.0216 C   0  0  1  0  0  0  0  0  0  0  0  0
  -30.4838  -25.3235   20.1308 C   0  0  1  0  0  0  0  0  0  0  0  0
  -27.6449  -13.2376   19.7127 C   0  0  2  0  0  0  0  0  0  0  0  0
  -26.5383  -18.6418   18.6645 C   0  0  0  0  0  0  0  0  0  0  0  0
  -31.5020  -19.2063   21.6445 C   0  0  0  0  0  0  0  0  0  0  0  0
  -31.5077  -18.8351   15.8591 C   0  0  0  0  0  0  0  0  0  0  0  0
  -25.4629  -21.4306   24.8364 C   0  0  0  0  0  0  0  0  0  0  0  0
  -27.5226  -24.4518   16.6910 C   0  0  0  0  0  0  0  0  0  0  0  0
  -27.9271  -22.3257   15.4323 C   0  0  0  0  0  0  0  0  0  0  0  0
  -29.4352  -24.2828   15.0886 C   0  0  0  0  0  0  0  0  0  0  0  0
  -33.5365  -20.9422   18.2922 C   0  0  0  0  0  0  0  0  0  0  0  0
  -26.4697  -19.4863   23.5918 C   0  0  0  0  0  0  0  0  0  0  0  0
  -30.9241  -16.7926   22.0855 C   0  0  0  0  0  0  0  0  0  0  0  0
  -30.6118  -18.0259   21.2041 C   0  0  1  0  0  0  0  0  0  0  0  0
  -29.5686  -22.9800   17.2513 C   0  0  1  0  0  0  0  0  0  0  0  0
  -31.9508  -20.1164   16.5479 C   0  0  2  0  0  0  0  0  0  0  0  0
  -26.5368  -20.9958   23.8472 C   0  0  2  0  0  0  0  0  0  1  0  0
  -28.6144  -23.5105   16.1442 C   0  0  0  0  0  0  0  0  0  0  0  0
  -25.8608  -11.6224   20.2518 N   0  0  0  0  0  0  0  0  0  0  0  0
  -28.5417  -18.3521   19.9917 N   0  0  0  0  0  0  0  0  0  0  0  0
  -26.2478  -12.9085   20.2054 N   0  0  0  0  0  0  0  0  0  0  0  0
  -30.0145  -24.1553   19.3829 N   0  0  0  0  0  0  0  0  0  0  0  0
  -29.9974  -13.6374   20.3408 N   0  0  0  0  0  0  0  0  0  0  0  0
  -25.5160  -15.1182   20.6438 N   0  0  0  0  0  0  0  0  0  0  0  0
  -21.9458  -12.5944   21.7754 N   0  0  0  0  0  0  0  0  0  0  0  0
  -29.6362  -27.4774   20.8378 N   0  0  0  0  0  0  0  0  0  0  0  0
  -30.6290  -22.1077   16.7584 N   0  0  0  0  0  0  0  0  0  0  0  0
  -30.2320  -15.6095   21.6251 N   0  0  0  0  0  0  0  0  0  0  0  0
  -32.9940  -19.7721   17.5550 N   0  3  0  0  0  0  0  0  0  0  0  0
  -22.7360  -14.7420   21.6271 O   0  0  0  0  0  0  0  0  0  0  0  0
  -28.2456  -25.9660   19.7403 O   0  0  0  0  0  0  0  0  0  0  0  0
  -30.9818  -24.8801   17.3891 O   0  0  0  0  0  0  0  0  0  0  0  0
  -30.0728  -20.2710   18.0601 O   0  0  0  0  0  0  0  0  0  0  0  0
  -31.9129  -14.9388   20.2174 O   0  0  0  0  0  0  0  0  0  0  0  0
  -21.6126   -7.0412   21.4823 O   0  0  0  0  0  0  0  0  0  0  0  0
  -27.8143  -21.3151   24.3973 O   0  0  0  0  0  0  0  0  0  1  0  0
  -18.7806   -6.5665   26.1895 F   0  0  0  0  0  0  0  0  0  0  0  0
  -22.1061   -4.9571   23.2304 F   0  0  0  0  0  0  0  0  0  0  0  0
  1  2  1  0  0  0  0
  1  5  2  0  0  0  0
  2  6  2  0  0  0  0
  3  8  2  0  0  0  0
  3 17  1  0  0  0  0
  4  9  1  0  0  0  0
  4 17  2  0  0  0  0
  5 19  1  0  0  0  0
  6 21  1  0  0  0  0
  7 10  2  0  0  0  0
  7 20  1  0  0  0  0
  8 24  1  0  0  0  0
  9 24  2  0  0  0  0
 10 25  1  0  0  0  0
 11 12  2  0  0  0  0
 11 26  1  0  0  0  0
 12 27  1  0  0  0  0
 13 22  1  0  0  0  0
 13 25  2  0  0  0  0
 14 23  1  0  0  0  0
 14 30  2  0  0  0  0
 15 23  2  0  0  0  0
 15 31  1  0  0  0  0
 16 27  2  0  0  0  0
 16 28  1  0  0  0  0
 17 29  1  0  0  0  0
 18 29  1  0  0  0  0
 18 32  2  0  0  0  0
 18 33  1  0  0  0  0
 19 21  2  0  0  0  0
 19 38  1  0  0  0  0
 20 22  2  0  0  0  0
 20 39  1  0  0  0  0
 21 47  1  0  0  0  0
 22 40  1  0  0  0  0
 23 58  1  0  0  0  0
 24 81  1  0  0  0  0
 25 82  1  0  0  0  0
 26 28  2  0  0  0  0
 26 81  1  0  0  0  0
 27 83  1  0  0  0  0
 28 84  1  0  0  0  0
 29 65  2  0  0  0  0
 30 50  1  0  0  0  0
 30 66  1  0  0  0  0
 31 60  1  0  0  0  0
 31 66  2  0  0  0  0
 32 67  1  0  0  0  0
 32 70  1  0  0  0  0
 33 71  1  0  0  0  0
 33 76  2  0  0  0  0
 34 48  1  0  0  0  0
 34 72  1  0  0  0  0
 34 77  2  0  0  0  0
 35 61  1  0  0  0  0
 35 68  1  0  0  0  0
 35 78  2  0  0  0  0
 36 62  1  0  0  0  0
 36 73  1  0  0  0  0
 36 79  2  0  0  0  0
 37 69  1  0  0  0  0
 37 74  1  0  0  0  0
 37 80  2  0  0  0  0
 38 41  1  0  0  0  0
 39 48  1  0  0  0  0
 40 68  1  0  0  0  0
 41 43  1  0  0  0  0
 42 44  1  0  0  0  0
 42 45  1  0  0  0  0
 43 47  1  0  0  0  0
 44 49  1  0  0  0  0
 45 69  1  0  0  0  0
 46 49  1  0  0  0  0
 46 69  1  0  0  0  0
 47 72  1  0  0  0  0
 48 68  1  0  0  0  0
 49 67  1  0  0  0  0
 51 60  1  0  0  0  0
 52 62  1  0  0  0  0
 53 63  1  0  0  0  0
 54 64  1  0  0  0  0
 55 64  1  0  0  0  0
 56 64  1  0  0  0  0
 57 75  1  0  0  0  0
 58 63  1  0  0  0  0
 59 60  1  0  0  0  0
 59 74  1  0  0  0  0
 61 64  1  0  0  0  0
 61 73  1  0  0  0  0
 62 75  1  0  0  0  0
 63 82  1  0  0  0  0
 65 67  1  0  0  0  0
M  CHG  1  75   1
M  ISO  4  37 100  63 101  74 100  82 101
M  END
> <Batch ID>
0087

> <Smiles>
CNC(C)C(=O)NC(C(=O)N1Cc2cc([101O:1][101CH:1](C)Cc3cc(C)nc(C(C)C[100NH:0][100C:0](=O)N4CCCC(n5nc(-c6ccc(Oc7ccc(F)cc7F)cc6)c(C(N)=O)c5N)C4)c3)ccc2CC1C(=O)NC1CCCc2ccccc21)C(C)(C)C

> <Shape>
0.287

> <Color>
0.200

> <Negative vol penalty>
0.000

$$$$

  -OEChem-04052319013D

 91 99  0     1  0  0  0  0  0999 V2000
  -38.3183  -24.3604   17.4862 C   0  0  0  0  0  0  0  0  0  0  0  0
  -37.0760  -23.7832   17.2436 C   0  0  0  0  0  0  0  0  0  0  0  0
  -22.9986   -9.9036   19.9818 C   0  0  0  0  0  0  0  0  0  0  0  0
  -23.7277   -9.9513   22.2846 C   0  0  0  0  0  0  0  0  0  0  0  0
  -38.6068  -24.8883   18.7440 C   0  0  0  0  0  0  0  0  0  0  0  0
  -36.1217  -23.7327   18.2591 C   0  0  0  0  0  0  0  0  0  0  0  0
  -30.0488  -24.2152   17.6315 C   0  0  0  0  0  0  0  0  0  0  0  0
  -22.2308   -8.7700   20.2483 C   0  0  0  0  0  0  0  0  0  0  0  0
  -22.9600   -8.8177   22.5512 C   0  0  0  0  0  0  0  0  0  0  0  0
  -29.0332  -23.2618   17.5730 C   0  0  0  0  0  0  0  0  0  0  0  0
  -23.1986   -5.4788   22.0756 C   0  0  0  0  0  0  0  0  0  0  0  0
  -23.7860   -4.4601   22.8258 C   0  0  0  0  0  0  0  0  0  0  0  0
  -28.6300  -23.5555   19.9332 C   0  0  0  0  0  0  0  0  0  0  0  0
  -26.4946  -19.0225   20.5897 C   0  0  0  0  0  0  0  0  0  0  0  0
  -28.6517  -18.8197   19.5457 C   0  0  0  0  0  0  0  0  0  0  0  0
  -22.0653   -4.7039   24.5042 C   0  0  0  0  0  0  0  0  0  0  0  0
  -23.7471  -10.4943   20.9999 C   0  0  0  0  0  0  0  0  0  0  0  0
  -24.1357  -13.0095   20.8256 C   0  0  0  0  0  0  0  0  0  0  0  0
  -37.6521  -24.8529   19.7725 C   0  0  0  0  0  0  0  0  0  0  0  0
  -30.3705  -24.8390   18.8455 C   0  0  0  0  0  0  0  0  0  0  0  0
  -36.3981  -24.2595   19.5322 C   0  0  0  0  0  0  0  0  0  0  0  0
  -29.6484  -24.5183   20.0039 C   0  0  0  0  0  0  0  0  0  0  0  0
  -27.3058  -19.1601   19.4689 C   0  0  0  0  0  0  0  0  0  0  0  0
  -22.2115   -8.2270   21.5330 C   0  0  0  0  0  0  0  0  0  0  0  0
  -28.3256  -22.9297   18.7246 C   0  0  0  0  0  0  0  0  0  0  0  0
  -22.0446   -6.1102   22.5398 C   0  0  0  0  0  0  0  0  0  0  0  0
  -23.2193   -4.0726   24.0400 C   0  0  0  0  0  0  0  0  0  0  0  0
  -21.4780   -5.7227   23.7540 C   0  0  0  0  0  0  0  0  0  0  0  0
  -24.5408  -11.6650   20.7250 C   0  0  0  0  0  0  0  0  0  0  0  0
  -27.0731  -18.5439   21.7542 C   0  0  0  0  0  0  0  0  0  0  0  0
  -29.1338  -18.3504   20.7570 C   0  0  0  0  0  0  0  0  0  0  0  0
  -25.2459  -13.7308   20.4601 C   0  0  0  0  0  0  0  0  0  0  0  0
  -22.8692  -13.5573   21.2149 C   0  0  0  0  0  0  0  0  0  0  0  0
  -32.9595  -24.9660   20.6853 C   0  0  0  0  0  0  0  0  0  0  0  0
  -31.1897  -27.1097   22.3570 C   0  0  0  0  0  0  0  0  0  0  0  0
  -28.0985  -28.2873   23.1961 C   0  0  0  0  0  0  0  0  0  0  0  0
  -30.7441  -14.6572   20.7001 C   0  0  0  0  0  0  0  0  0  0  0  0
  -38.0267  -25.3939   21.1296 C   0  0  0  0  0  0  0  0  0  0  0  0
  -31.4508  -25.8847   18.8865 C   0  0  0  0  0  0  0  0  0  0  0  0
  -29.9412  -25.1739   21.3279 C   0  0  0  0  0  0  0  0  0  0  0  0
  -36.8265  -25.6370   22.0410 C   0  0  0  0  0  0  0  0  0  0  0  0
  -29.5959  -12.2374   18.3543 C   0  0  0  0  0  0  0  0  0  0  0  0
  -35.8827  -24.4390   22.0117 C   0  0  0  0  0  0  0  0  0  0  0  0
  -28.1477  -11.9794   18.7741 C   0  0  0  0  0  0  0  0  0  0  0  0
  -30.5007  -12.4703   19.5622 C   0  0  0  0  0  0  0  0  0  0  0  0
  -28.5940  -13.2673   20.9050 C   0  0  0  0  0  0  0  0  0  0  0  0
  -35.3279  -24.2081   20.6009 C   0  0  1  0  0  0  0  0  0  0  0  0
  -32.0388  -26.0822   20.2803 C   0  0  1  0  0  0  0  0  0  0  0  0
  -27.6327  -13.0822   19.7184 C   0  0  2  0  0  0  0  0  0  0  0  0
  -31.4540  -19.1906   21.2411 C   0  0  0  0  0  0  0  0  0  0  0  0
  -26.9699  -30.0243   24.6126 C   0  0  0  0  0  0  0  0  0  0  0  0
  -25.2059  -20.0174   18.2301 C   0  0  0  0  0  0  0  0  0  0  0  0
  -26.8795  -18.6051   17.0544 C   0  0  0  0  0  0  0  0  0  0  0  0
  -27.2048  -22.5486   24.5260 C   0  0  0  0  0  0  0  0  0  0  0  0
  -26.8639  -21.0081   26.4629 C   0  0  0  0  0  0  0  0  0  0  0  0
  -29.1798  -21.5198   25.6777 C   0  0  0  0  0  0  0  0  0  0  0  0
  -31.7372  -25.4321   24.8461 C   0  0  0  0  0  0  0  0  0  0  0  0
  -29.8614  -26.6367   25.9855 C   0  0  0  0  0  0  0  0  0  0  0  0
  -31.8636  -27.9038   25.2054 C   0  0  0  0  0  0  0  0  0  0  0  0
  -26.8669  -29.5793   20.8354 C   0  0  0  0  0  0  0  0  0  0  0  0
  -26.2325  -18.3817   22.9764 C   0  0  0  0  0  0  0  0  0  0  0  0
  -26.2190  -19.6505   23.8459 C   0  0  0  0  0  0  0  0  0  0  0  0
  -27.6350  -20.0472   24.2822 C   0  0  0  0  0  0  0  0  0  0  0  0
  -30.8320  -16.8348   21.8872 C   0  0  0  0  0  0  0  0  0  0  0  0
  -27.4660  -20.9657   17.6952 C   0  0  0  0  0  0  0  0  0  1  0  0
  -30.5737  -17.9776   20.8759 C   0  0  1  0  0  0  0  0  0  0  0  0
  -30.2122  -27.0257   23.5043 C   0  0  1  0  0  0  0  0  0  0  0  0
  -27.5349  -29.6962   23.2393 C   0  0  2  0  0  0  0  0  0  0  0  0
  -26.7155  -19.6864   18.1472 C   0  0  0  0  0  0  0  0  0  0  0  0
  -27.7319  -21.2812   25.2186 C   0  0  0  0  0  0  0  0  0  0  0  0
  -30.9141  -26.7356   24.8609 C   0  0  0  0  0  0  0  0  0  0  0  0
  -25.8092  -11.5370   20.3266 N   0  0  0  0  0  0  0  0  0  0  0  0
  -28.3764  -18.2031   21.8672 N   0  0  0  0  0  0  0  0  0  0  0  0
  -26.2108  -12.8104   20.1735 N   0  0  0  0  0  0  0  0  0  0  0  0
  -31.0108  -26.1855   21.3179 N   0  0  0  0  0  0  0  0  0  0  0  0
  -29.9569  -13.5290   20.4162 N   0  0  0  0  0  0  0  0  0  0  0  0
  -25.4811  -15.0562   20.3589 N   0  0  0  0  0  0  0  0  0  0  0  0
  -21.8367  -12.6744   21.5593 N   0  0  0  0  0  0  0  0  0  0  0  0
  -34.2755  -25.1579   20.3099 N   0  0  0  0  0  0  0  0  0  0  0  0
  -29.4475  -28.2679   23.4808 N   0  0  0  0  0  0  0  0  0  0  0  0
  -30.1505  -15.6160   21.5119 N   0  0  0  0  0  0  0  0  0  0  0  0
  -26.4454  -29.8493   22.2341 N   0  3  0  0  0  0  0  0  0  0  0  0
  -22.6544  -14.7929   21.2402 O   0  0  0  0  0  0  0  0  0  0  0  0
  -32.5096  -24.0026   21.2946 O   0  0  0  0  0  0  0  0  0  0  0  0
  -32.0750  -27.9685   22.3784 O   0  0  0  0  0  0  0  0  0  0  0  0
  -27.4100  -27.3021   22.9393 O   0  0  0  0  0  0  0  0  0  0  0  0
  -31.8889  -14.8018   20.2582 O   0  0  0  0  0  0  0  0  0  0  0  0
  -21.4623   -7.1210   21.7935 O   0  0  0  0  0  0  0  0  0  0  0  0
  -27.3342  -21.9991   18.6704 O   0  0  0  0  0  0  0  0  0  1  0  0
  -23.7826   -3.0932   24.7595 F   0  0  0  0  0  0  0  0  0  0  0  0
  -20.3687   -6.3248   24.2045 F   0  0  0  0  0  0  0  0  0  0  0  0
  1  2  1  0  0  0  0
  1  5  2  0  0  0  0
  2  6  2  0  0  0  0
  3  8  2  0  0  0  0
  3 17  1  0  0  0  0
  4  9  1  0  0  0  0
  4 17  2  0  0  0  0
  5 19  1  0  0  0  0
  6 21  1  0  0  0  0
  7 10  2  0  0  0  0
  7 20  1  0  0  0  0
  8 24  1  0  0  0  0
  9 24  2  0  0  0  0
 10 25  1  0  0  0  0
 11 12  2  0  0  0  0
 11 26  1  0  0  0  0
 12 27  1  0  0  0  0
 13 22  1  0  0  0  0
 13 25  2  0  0  0  0
 14 23  1  0  0  0  0
 14 30  2  0  0  0  0
 15 23  2  0  0  0  0
 15 31  1  0  0  0  0
 16 27  2  0  0  0  0
 16 28  1  0  0  0  0
 17 29  1  0  0  0  0
 18 29  1  0  0  0  0
 18 32  2  0  0  0  0
 18 33  1  0  0  0  0
 19 21  2  0  0  0  0
 19 38  1  0  0  0  0
 20 22  2  0  0  0  0
 20 39  1  0  0  0  0
 21 47  1  0  0  0  0
 22 40  1  0  0  0  0
 23 69  1  0  0  0  0
 24 88  1  0  0  0  0
 25 89  1  0  0  0  0
 26 28  2  0  0  0  0
 26 88  1  0  0  0  0
 27 90  1  0  0  0  0
 28 91  1  0  0  0  0
 29 72  2  0  0  0  0
 30 61  1  0  0  0  0
 30 73  1  0  0  0  0
 31 66  1  0  0  0  0
 31 73  2  0  0  0  0
 32 74  1  0  0  0  0
 32 77  1  0  0  0  0
 33 78  1  0  0  0  0
 33 83  2  0  0  0  0
 34 48  1  0  0  0  0
 34 79  1  0  0  0  0
 34 84  2  0  0  0  0
 35 67  1  0  0  0  0
 35 75  1  0  0  0  0
 35 85  2  0  0  0  0
 36 68  1  0  0  0  0
 36 80  1  0  0  0  0
 36 86  2  0  0  0  0
 37 76  1  0  0  0  0
 37 81  1  0  0  0  0
 37 87  2  0  0  0  0
 38 41  1  0  0  0  0
 39 48  1  0  0  0  0
 40 75  1  0  0  0  0
 41 43  1  0  0  0  0
 42 44  1  0  0  0  0
 42 45  1  0  0  0  0
 43 47  1  0  0  0  0
 44 49  1  0  0  0  0
 45 76  1  0  0  0  0
 46 49  1  0  0  0  0
 46 76  1  0  0  0  0
 47 79  1  0  0  0  0
 48 75  1  0  0  0  0
 49 74  1  0  0  0  0
 50 66  1  0  0  0  0
 51 68  1  0  0  0  0
 52 69  1  0  0  0  0
 53 69  1  0  0  0  0
 54 70  1  0  0  0  0
 55 70  1  0  0  0  0
 56 70  1  0  0  0  0
 57 71  1  0  0  0  0
 58 71  1  0  0  0  0
 59 71  1  0  0  0  0
 60 82  1  0  0  0  0
 61 62  1  0  0  0  0
 62 63  1  0  0  0  0
 63 70  1  0  0  0  0
 64 66  1  0  0  0  0
 64 81  1  0  0  0  0
 65 69  1  0  0  0  0
 65 89  1  0  0  0  0
 67 71  1  0  0  0  0
 67 80  1  0  0  0  0
 68 82  1  0  0  0  0
 72 74  1  0  0  0  0
M  CHG  1  82   1
M  ISO  4  37 100  65 101  81 100  89 101
M  END
> <Batch ID>
0087

> <Smiles>
CNC(C)C(=O)NC(C(=O)N1Cc2cc([101O:1][101CH2:1]C(C)(C)c3cc(CCCC(C)(C)C)nc(C(C)C[100NH:0][100C:0](=O)N4CCCC(n5nc(-c6ccc(Oc7ccc(F)cc7F)cc6)c(C(N)=O)c5N)C4)c3)ccc2CC1C(=O)NC1CCCc2ccccc21)C(C)(C)C

> <Shape>
0.284

> <Color>
0.186

> <Negative vol penalty>
0.000

$$$$

  -OEChem-04052319013D

 83 90  0     1  0  0  0  0  0999 V2000
  -26.2144  -34.2203   25.5530 C   0  0  0  0  0  0  0  0  0  0  0  0
  -26.7268  -33.0750   24.9519 C   0  0  0  0  0  0  0  0  0  0  0  0
  -25.5542  -12.7707   21.6941 C   0  0  0  0  0  0  0  0  0  0  0  0
  -25.6842  -12.7974   19.2818 C   0  0  0  0  0  0  0  0  0  0  0  0
  -24.8815  -34.2555   25.9606 C   0  0  0  0  0  0  0  0  0  0  0  0
  -25.9068  -31.9638   24.7591 C   0  0  0  0  0  0  0  0  0  0  0  0
  -26.4278  -29.9420   20.1455 C   0  0  0  0  0  0  0  0  0  0  0  0
  -25.0160  -11.4846   21.6509 C   0  0  0  0  0  0  0  0  0  0  0  0
  -25.1460  -11.5113   19.2386 C   0  0  0  0  0  0  0  0  0  0  0  0
  -27.5492  -29.1441   19.9229 C   0  0  0  0  0  0  0  0  0  0  0  0
  -22.0149  -10.0607   21.0262 C   0  0  0  0  0  0  0  0  0  0  0  0
  -20.9128   -9.7926   21.8381 C   0  0  0  0  0  0  0  0  0  0  0  0
  -26.1981  -27.1696   20.2312 C   0  0  0  0  0  0  0  0  0  0  0  0
  -22.1677   -8.0671   22.9716 C   0  0  0  0  0  0  0  0  0  0  0  0
  -25.8883  -13.4271   20.5096 C   0  0  0  0  0  0  0  0  0  0  0  0
  -27.8052  -15.1059   20.6306 C   0  0  0  0  0  0  0  0  0  0  0  0
  -24.0422  -33.1475   25.7639 C   0  0  0  0  0  0  0  0  0  0  0  0
  -25.1833  -29.3589   20.4238 C   0  0  0  0  0  0  0  0  0  0  0  0
  -24.5618  -31.9837   25.1657 C   0  0  0  0  0  0  0  0  0  0  0  0
  -25.0619  -27.9623   20.4543 C   0  0  0  0  0  0  0  0  0  0  0  0
  -24.8118  -10.8549   20.4232 C   0  0  0  0  0  0  0  0  0  0  0  0
  -27.4351  -27.7577   19.9686 C   0  0  0  0  0  0  0  0  0  0  0  0
  -23.1933   -9.3319   21.1869 C   0  0  0  0  0  0  0  0  0  0  0  0
  -20.9892   -8.7958   22.8108 C   0  0  0  0  0  0  0  0  0  0  0  0
  -23.2698   -8.3352   22.1597 C   0  0  0  0  0  0  0  0  0  0  0  0
  -26.4439  -14.7558   20.5535 C   0  0  0  0  0  0  0  0  0  0  0  0
  -27.8063  -16.4793   20.6450 C   0  0  0  0  0  0  0  0  0  0  0  0
  -28.9652  -14.2649   20.6842 C   0  0  0  0  0  0  0  0  0  0  0  0
  -23.1733  -29.4293   22.8853 C   0  0  0  0  0  0  0  0  0  0  0  0
  -21.2668  -27.7417   20.8754 C   0  0  0  0  0  0  0  0  0  0  0  0
  -21.0173  -25.6802   18.1672 C   0  0  0  0  0  0  0  0  0  0  0  0
  -25.9564  -21.3683   18.6900 C   0  0  0  0  0  0  0  0  0  0  0  0
  -22.6210  -33.2157   26.2641 C   0  0  0  0  0  0  0  0  0  0  0  0
  -23.9777  -30.2331   20.6352 C   0  0  0  0  0  0  0  0  0  0  0  0
  -23.7441  -27.2866   20.7290 C   0  0  0  0  0  0  0  0  0  0  0  0
  -21.7184  -32.1299   25.6839 C   0  0  0  0  0  0  0  0  0  0  0  0
  -24.0042  -19.7688   21.2014 C   0  0  0  0  0  0  0  0  0  0  0  0
  -22.4087  -30.7711   25.7483 C   0  0  0  0  0  0  0  0  0  0  0  0
  -24.5729  -18.3499   21.2584 C   0  0  0  0  0  0  0  0  0  0  0  0
  -23.9942  -20.3160   19.7757 C   0  0  0  0  0  0  0  0  0  0  0  0
  -25.8632  -18.8411   19.1388 C   0  0  0  0  0  0  0  0  0  0  0  0
  -23.6971  -30.7669   24.9169 C   0  0  1  0  0  0  0  0  0  0  0  0
  -22.8670  -29.5401   21.4184 C   0  0  1  0  0  0  0  0  0  0  0  0
  -25.9455  -18.2677   20.5639 C   0  0  2  0  0  0  0  0  0  0  0  0
  -19.3303  -24.4371   16.7866 C   0  0  0  0  0  0  0  0  0  0  0  0
  -31.0047  -24.9082   15.6035 C   0  0  0  0  0  0  0  0  0  0  0  0
  -29.1344  -23.2473   19.6258 C   0  0  0  0  0  0  0  0  0  0  0  0
  -21.0129  -25.6453   23.0778 C   0  0  0  0  0  0  0  0  0  0  0  0
  -20.1479  -24.0445   21.3581 C   0  0  0  0  0  0  0  0  0  0  0  0
  -18.8868  -26.1382   21.8566 C   0  0  0  0  0  0  0  0  0  0  0  0
  -21.7403  -27.1818   15.7215 C   0  0  0  0  0  0  0  0  0  0  0  0
  -32.0236  -21.2498   17.2943 C   0  0  0  0  0  0  0  0  0  0  0  0
  -30.0178  -21.2857   15.8191 C   0  0  0  0  0  0  0  0  0  0  0  0
  -30.2185  -26.3346   18.1723 C   0  0  0  0  0  0  0  0  0  0  0  0
  -29.2713  -25.4966   17.3106 C   0  0  0  0  0  0  0  0  0  0  0  0
  -27.9963  -22.2768   17.6071 C   0  0  0  0  0  0  0  0  0  0  0  0
  -29.5356  -27.4935   18.8852 C   0  0  0  0  0  0  0  0  0  1  0  0
  -21.0616  -26.2766   20.5748 C   0  0  1  0  0  0  0  0  0  0  0  0
  -20.1189  -25.7278   16.9444 C   0  0  2  0  0  0  0  0  0  0  0  0
  -29.9161  -24.3290   16.5212 C   0  0  2  0  0  0  0  0  0  0  0  0
  -29.3530  -22.4792   18.3101 C   0  0  1  0  0  0  0  0  0  0  0  0
  -30.4273  -23.1578   17.4092 C   0  0  1  0  0  0  0  0  0  0  0  0
  -20.3027  -25.5386   21.7135 C   0  0  0  0  0  0  0  0  0  0  0  0
  -25.6386  -15.8209   20.5214 N   0  0  0  0  0  0  0  0  0  0  0  0
  -26.4965  -16.8538   20.5786 N   0  0  0  0  0  0  0  0  0  0  0  0
  -22.5958  -28.1846   20.9354 N   0  0  0  0  0  0  0  0  0  0  0  0
  -25.3259  -20.2104   19.1745 N   0  0  0  0  0  0  0  0  0  0  0  0
  -28.7998  -17.3911   20.7079 N   0  0  0  0  0  0  0  0  0  0  0  0
  -28.7845  -12.8752   20.6598 N   0  0  0  0  0  0  0  0  0  0  0  0
  -23.3892  -30.6438   23.5082 N   0  0  0  0  0  0  0  0  0  0  0  0
  -20.3981  -26.2152   19.2770 N   0  0  0  0  0  0  0  0  0  0  0  0
  -27.2193  -21.1807   18.1415 N   0  0  0  0  0  0  0  0  0  0  0  0
  -20.9313  -25.9358   15.7125 N   0  3  0  0  0  0  0  0  0  0  0  0
  -31.0502  -22.1092   16.5372 N   0  3  0  0  0  0  0  0  0  0  0  0
  -30.1265  -14.7316   20.7683 O   0  0  0  0  0  0  0  0  0  0  0  0
  -23.2096  -28.3240   23.4132 O   0  0  0  0  0  0  0  0  0  0  0  0
  -20.2840  -28.4680   21.0436 O   0  0  0  0  0  0  0  0  0  0  0  0
  -22.1532  -25.2116   18.1413 O   0  0  0  0  0  0  0  0  0  0  0  0
  -25.4351  -22.4871   18.7472 O   0  0  0  0  0  0  0  0  0  0  0  0
  -24.2868   -9.5998   20.3806 O   0  0  0  0  0  0  0  0  0  0  0  0
  -28.5359  -26.9711   19.7508 O   0  0  0  0  0  0  0  0  0  1  0  0
  -19.9314   -8.5395   23.5915 F   0  0  0  0  0  0  0  0  0  0  0  0
  -24.3996   -7.6325   22.3196 F   0  0  0  0  0  0  0  0  0  0  0  0
  1  2  1  0  0  0  0
  1  5  2  0  0  0  0
  2  6  2  0  0  0  0
  3  8  2  0  0  0  0
  3 15  1  0  0  0  0
  4  9  1  0  0  0  0
  4 15  2  0  0  0  0
  5 17  1  0  0  0  0
  6 19  1  0  0  0  0
  7 10  2  0  0  0  0
  7 18  1  0  0  0  0
  8 21  1  0  0  0  0
  9 21  2  0  0  0  0
 10 22  1  0  0  0  0
 11 12  2  0  0  0  0
 11 23  1  0  0  0  0
 12 24  1  0  0  0  0
 13 20  1  0  0  0  0
 13 22  2  0  0  0  0
 14 24  2  0  0  0  0
 14 25  1  0  0  0  0
 15 26  1  0  0  0  0
 16 26  1  0  0  0  0
 16 27  2  0  0  0  0
 16 28  1  0  0  0  0
 17 19  2  0  0  0  0
 17 33  1  0  0  0  0
 18 20  2  0  0  0  0
 18 34  1  0  0  0  0
 19 42  1  0  0  0  0
 20 35  1  0  0  0  0
 21 80  1  0  0  0  0
 22 81  1  0  0  0  0
 23 25  2  0  0  0  0
 23 80  1  0  0  0  0
 24 82  1  0  0  0  0
 25 83  1  0  0  0  0
 26 64  2  0  0  0  0
 27 65  1  0  0  0  0
 27 68  1  0  0  0  0
 28 69  1  0  0  0  0
 28 75  2  0  0  0  0
 29 43  1  0  0  0  0
 29 70  1  0  0  0  0
 29 76  2  0  0  0  0
 30 58  1  0  0  0  0
 30 66  1  0  0  0  0
 30 77  2  0  0  0  0
 31 59  1  0  0  0  0
 31 71  1  0  0  0  0
 31 78  2  0  0  0  0
 32 67  1  0  0  0  0
 32 72  1  0  0  0  0
 32 79  2  0  0  0  0
 33 36  1  0  0  0  0
 34 43  1  0  0  0  0
 35 66  1  0  0  0  0
 36 38  1  0  0  0  0
 37 39  1  0  0  0  0
 37 40  1  0  0  0  0
 38 42  1  0  0  0  0
 39 44  1  0  0  0  0
 40 67  1  0  0  0  0
 41 44  1  0  0  0  0
 41 67  1  0  0  0  0
 42 70  1  0  0  0  0
 43 66  1  0  0  0  0
 44 65  1  0  0  0  0
 45 59  1  0  0  0  0
 46 60  1  0  0  0  0
 47 61  1  0  0  0  0
 48 63  1  0  0  0  0
 49 63  1  0  0  0  0
 50 63  1  0  0  0  0
 51 73  1  0  0  0  0
 52 74  1  0  0  0  0
 53 74  1  0  0  0  0
 54 55  1  0  0  0  0
 54 57  1  0  0  0  0
 55 60  1  0  0  0  0
 56 61  1  0  0  0  0
 56 72  1  0  0  0  0
 57 81  1  0  0  0  0
 58 63  1  0  0  0  0
 58 71  1  0  0  0  0
 59 73  1  0  0  0  0
 60 62  1  0  0  0  0
 61 62  1  0  0  0  0
 62 74  1  0  0  0  0
 64 65  1  0  0  0  0
M  CHG  2  73   1  74   1
M  ISO  4  32 100  57 101  72 100  81 101
M  END
> <Batch ID>
0087

> <Smiles>
CNC(C)C(=O)NC(C(=O)N1Cc2cc([101O:1][101CH2:1]CCC(C)C(C(C)C[100NH:0][100C:0](=O)N3CCCC(n4nc(-c5ccc(Oc6ccc(F)cc6F)cc5)c(C(N)=O)c4N)C3)N(C)C)ccc2CC1C(=O)NC1CCCc2ccccc21)C(C)(C)C

> <Shape>
0.269

> <Color>
0.078

> <Negative vol penalty>
0.000

$$$$

  -OEChem-04052319012D

  0  0  0     0  0  0  0  0  0999 V2000
M  END
$$$$

  -OEChem-04052319013D

 84 92  0     1  0  0  0  0  0999 V2000
  -17.7973  -26.0154   20.0739 C   0  0  0  0  0  0  0  0  0  0  0  0
  -18.9685  -26.4882   19.4907 C   0  0  0  0  0  0  0  0  0  0  0  0
  -26.9905  -15.2470   19.6996 C   0  0  0  0  0  0  0  0  0  0  0  0
  -25.1582  -15.3685   21.2696 C   0  0  0  0  0  0  0  0  0  0  0  0
  -17.5039  -26.3302   21.4000 C   0  0  0  0  0  0  0  0  0  0  0  0
  -19.8466  -27.2770   20.2331 C   0  0  0  0  0  0  0  0  0  0  0  0
  -24.6809  -25.8920   19.6360 C   0  0  0  0  0  0  0  0  0  0  0  0
  -26.9699  -13.8548   19.7833 C   0  0  0  0  0  0  0  0  0  0  0  0
  -25.1375  -13.9763   21.3533 C   0  0  0  0  0  0  0  0  0  0  0  0
  -25.3191  -26.2968   18.4645 C   0  0  0  0  0  0  0  0  0  0  0  0
  -23.9779  -11.3891   19.5143 C   0  0  0  0  0  0  0  0  0  0  0  0
  -22.7362  -10.7563   19.4578 C   0  0  0  0  0  0  0  0  0  0  0  0
  -26.3713  -28.1028   19.6689 C   0  0  0  0  0  0  0  0  0  0  0  0
  -29.2568  -25.1807   17.9951 C   0  0  0  0  0  0  0  0  0  0  0  0
  -23.1196   -9.8085   21.6469 C   0  0  0  0  0  0  0  0  0  0  0  0
  -31.9610  -25.4959   18.1791 C   0  0  0  0  0  0  0  0  0  0  0  0
  -26.0847  -16.0039   20.4428 C   0  0  0  0  0  0  0  0  0  0  0  0
  -25.3874  -18.2507   19.4563 C   0  0  0  0  0  0  0  0  0  0  0  0
  -18.3835  -27.1153   22.1620 C   0  0  0  0  0  0  0  0  0  0  0  0
  -24.8748  -26.5972   20.8324 C   0  0  0  0  0  0  0  0  0  0  0  0
  -19.5641  -27.6037   21.5703 C   0  0  0  0  0  0  0  0  0  0  0  0
  -25.7363  -27.7033   20.8548 C   0  0  0  0  0  0  0  0  0  0  0  0
  -29.9143  -25.9845   17.0705 C   0  0  0  0  0  0  0  0  0  0  0  0
  -31.2921  -26.1503   17.1574 C   0  0  0  0  0  0  0  0  0  0  0  0
  -26.0434  -13.2195   20.6101 C   0  0  0  0  0  0  0  0  0  0  0  0
  -26.1622  -27.4041   18.4802 C   0  0  0  0  0  0  0  0  0  0  0  0
  -24.7906  -11.2315   20.6370 C   0  0  0  0  0  0  0  0  0  0  0  0
  -22.3070   -9.9660   20.5241 C   0  0  0  0  0  0  0  0  0  0  0  0
  -24.3615  -10.4412   21.7033 C   0  0  0  0  0  0  0  0  0  0  0  0
  -26.1059  -17.4420   20.3572 C   0  0  0  0  0  0  0  0  0  0  0  0
  -30.0169  -24.5695   18.9793 C   0  0  0  0  0  0  0  0  0  0  0  0
  -25.7507  -19.5345   19.7823 C   0  0  0  0  0  0  0  0  0  0  0  0
  -24.4731  -17.8750   18.4177 C   0  0  0  0  0  0  0  0  0  0  0  0
  -22.9899  -28.2250   22.8076 C   0  0  0  0  0  0  0  0  0  0  0  0
  -25.6765  -28.3803   24.6187 C   0  0  0  0  0  0  0  0  0  0  0  0
  -29.0848  -28.2783   24.7606 C   0  0  0  0  0  0  0  0  0  0  0  0
  -30.0202  -23.0774   20.9715 C   0  0  0  0  0  0  0  0  0  0  0  0
  -18.0006  -27.4686   23.5774 C   0  0  0  0  0  0  0  0  0  0  0  0
  -24.1999  -26.1317   22.0934 C   0  0  0  0  0  0  0  0  0  0  0  0
  -25.9939  -28.4823   22.1178 C   0  0  0  0  0  0  0  0  0  0  0  0
  -19.1657  -27.9983   24.4094 C   0  0  0  0  0  0  0  0  0  0  0  0
  -28.3063  -21.3464   23.7421 C   0  0  0  0  0  0  0  0  0  0  0  0
  -19.9498  -29.0451   23.6244 C   0  0  0  0  0  0  0  0  0  0  0  0
  -27.5786  -20.2057   23.0327 C   0  0  0  0  0  0  0  0  0  0  0  0
  -29.5866  -21.7425   23.0128 C   0  0  0  0  0  0  0  0  0  0  0  0
  -28.6504  -20.9405   20.8655 C   0  0  0  0  0  0  0  0  0  0  0  0
  -20.5537  -28.4415   22.3507 C   0  0  1  0  0  0  0  0  0  0  0  0
  -24.0673  -27.2323   23.1415 C   0  0  1  0  0  0  0  0  0  0  0  0
  -27.3339  -20.5474   21.5527 C   0  0  1  0  0  0  0  0  0  0  0  0
  -33.0761  -26.1954   15.3772 C   0  0  0  0  0  0  0  0  0  0  0  0
  -32.7407  -28.1941   16.8764 C   0  0  0  0  0  0  0  0  0  0  0  0
  -30.9959  -28.4737   26.3752 C   0  0  0  0  0  0  0  0  0  0  0  0
  -25.3006  -31.4073   24.6936 C   0  0  0  0  0  0  0  0  0  0  0  0
  -27.6726  -31.6128   25.4679 C   0  0  0  0  0  0  0  0  0  0  0  0
  -26.0075  -30.3898   26.8660 C   0  0  0  0  0  0  0  0  0  0  0  0
  -27.8592  -23.7806   19.9687 C   0  0  0  0  0  0  0  0  0  0  0  0
  -30.0089  -25.5274   24.1794 C   0  0  0  0  0  0  0  0  0  0  0  0
  -29.1168  -26.6637   15.9860 C   0  0  0  0  0  0  0  0  0  0  0  0
  -28.8863  -28.1560   16.2337 C   0  0  0  0  0  0  0  0  0  0  0  0
  -28.0545  -28.4400   17.4790 C   0  0  0  0  0  0  0  0  0  1  0  0
  -32.0458  -26.9999   16.1936 C   0  0  0  0  0  0  0  0  0  0  0  0
  -26.8408  -29.3354   24.7245 C   0  0  1  0  0  0  0  0  0  0  0  0
  -30.0327  -27.5261   25.6772 C   0  0  2  0  0  0  0  0  0  0  0  0
  -26.4492  -30.6730   25.4136 C   0  0  0  0  0  0  0  0  0  0  0  0
  -31.3567  -24.7069   19.0956 N   0  0  0  0  0  0  0  0  0  0  0  0
  -26.8682  -18.1525   21.1927 N   0  0  0  0  0  0  0  0  0  0  0  0
  -26.6308  -19.4211   20.8181 N   0  0  0  0  0  0  0  0  0  0  0  0
  -25.3060  -27.9917   23.3235 N   0  0  0  0  0  0  0  0  0  0  0  0
  -29.3338  -22.0178   21.5979 N   0  0  0  0  0  0  0  0  0  0  0  0
  -25.4002  -20.7379   19.2811 N   0  0  0  0  0  0  0  0  0  0  0  0
  -24.2124  -16.5125   18.2177 N   0  0  0  0  0  0  0  0  0  0  0  0
  -21.7336  -27.6664   22.6689 N   0  0  0  0  0  0  0  0  0  0  0  0
  -27.9078  -28.6051   25.4002 N   0  0  0  0  0  0  0  0  0  0  0  0
  -29.3248  -23.7381   19.9357 N   0  0  0  0  0  0  0  0  0  0  0  0
  -30.8291  -26.5357   24.8988 N   0  3  0  0  0  0  0  0  0  0  0  0
  -23.9169  -18.7215   17.6778 O   0  0  0  0  0  0  0  0  0  0  0  0
  -23.2768  -29.4101   22.6862 O   0  0  0  0  0  0  0  0  0  0  0  0
  -25.1210  -27.9876   25.6477 O   0  0  0  0  0  0  0  0  0  0  0  0
  -29.3623  -28.5520   23.5950 O   0  0  0  0  0  0  0  0  0  0  0  0
  -31.1520  -23.4240   21.3301 O   0  0  0  0  0  0  0  0  0  0  0  0
  -26.0229  -11.8610   20.6918 O   0  0  0  0  0  0  0  0  0  0  0  0
  -26.7859  -27.8018   17.3379 O   0  0  0  0  0  0  0  0  0  1  0  0
  -21.1138   -9.3597   20.4704 F   0  0  0  0  0  0  0  0  0  0  0  0
  -25.1373  -10.2871   22.7850 F   0  0  0  0  0  0  0  0  0  0  0  0
  1  2  1  0  0  0  0
  1  5  2  0  0  0  0
  2  6  2  0  0  0  0
  3  8  2  0  0  0  0
  3 17  1  0  0  0  0
  4  9  1  0  0  0  0
  4 17  2  0  0  0  0
  5 19  1  0  0  0  0
  6 21  1  0  0  0  0
  7 10  2  0  0  0  0
  7 20  1  0  0  0  0
  8 25  1  0  0  0  0
  9 25  2  0  0  0  0
 10 26  1  0  0  0  0
 11 12  2  0  0  0  0
 11 27  1  0  0  0  0
 12 28  1  0  0  0  0
 13 22  1  0  0  0  0
 13 26  2  0  0  0  0
 14 23  1  0  0  0  0
 14 31  2  0  0  0  0
 15 28  2  0  0  0  0
 15 29  1  0  0  0  0
 16 24  1  0  0  0  0
 16 65  2  0  0  0  0
 17 30  1  0  0  0  0
 18 30  1  0  0  0  0
 18 32  2  0  0  0  0
 18 33  1  0  0  0  0
 19 21  2  0  0  0  0
 19 38  1  0  0  0  0
 20 22  2  0  0  0  0
 20 39  1  0  0  0  0
 21 47  1  0  0  0  0
 22 40  1  0  0  0  0
 23 24  2  0  0  0  0
 23 58  1  0  0  0  0
 24 61  1  0  0  0  0
 25 81  1  0  0  0  0
 26 82  1  0  0  0  0
 27 29  2  0  0  0  0
 27 81  1  0  0  0  0
 28 83  1  0  0  0  0
 29 84  1  0  0  0  0
 30 66  2  0  0  0  0
 31 65  1  0  0  0  0
 31 74  1  0  0  0  0
 32 67  1  0  0  0  0
 32 70  1  0  0  0  0
 33 71  1  0  0  0  0
 33 76  2  0  0  0  0
 34 48  1  0  0  0  0
 34 72  1  0  0  0  0
 34 77  2  0  0  0  0
 35 62  1  0  0  0  0
 35 68  1  0  0  0  0
 35 78  2  0  0  0  0
 36 63  1  0  0  0  0
 36 73  1  0  0  0  0
 36 79  2  0  0  0  0
 37 69  1  0  0  0  0
 37 74  1  0  0  0  0
 37 80  2  0  0  0  0
 38 41  1  0  0  0  0
 39 48  1  0  0  0  0
 40 68  1  0  0  0  0
 41 43  1  0  0  0  0
 42 44  1  0  0  0  0
 42 45  1  0  0  0  0
 43 47  1  0  0  0  0
 44 49  1  0  0  0  0
 45 69  1  0  0  0  0
 46 49  1  0  0  0  0
 46 69  1  0  0  0  0
 47 72  1  0  0  0  0
 48 68  1  0  0  0  0
 49 67  1  0  0  0  0
 50 61  1  0  0  0  0
 51 61  1  0  0  0  0
 52 63  1  0  0  0  0
 53 64  1  0  0  0  0
 54 64  1  0  0  0  0
 55 64  1  0  0  0  0
 56 74  1  0  0  0  0
 57 75  1  0  0  0  0
 58 59  1  0  0  0  0
 59 60  1  0  0  0  0
 60 82  1  0  0  0  0
 62 64  1  0  0  0  0
 62 73  1  0  0  0  0
 63 75  1  0  0  0  0
 66 67  1  0  0  0  0
M  CHG  1  75   1
M  ISO  4  37 100  60 101  74 100  82 101
M  END
> <Batch ID>
0087

> <Smiles>
CNC(C)C(=O)NC(C(=O)N1Cc2cc([101O:1][101CH2:1]CCc3cc([100N:0](C)[100C:0](=O)N4CCCC(n5nc(-c6ccc(Oc7ccc(F)cc7F)cc6)c(C(N)=O)c5N)C4)ncc3C(C)C)ccc2CC1C(=O)NC1CCCc2ccccc21)C(C)(C)C

> <Shape>
0.251

> <Color>
0.072

> <Negative vol penalty>
0.000

$$$$

  -OEChem-04052319013D

 85 93  0     1  0  0  0  0  0999 V2000
  -15.1480  -26.5910   24.3755 C   0  0  0  0  0  0  0  0  0  0  0  0
  -15.8577  -25.5630   23.7632 C   0  0  0  0  0  0  0  0  0  0  0  0
  -30.2394  -20.7271   20.8834 C   0  0  0  0  0  0  0  0  0  0  0  0
  -27.9399  -20.4262   20.2058 C   0  0  0  0  0  0  0  0  0  0  0  0
  -15.6573  -27.8889   24.3679 C   0  0  0  0  0  0  0  0  0  0  0  0
  -17.0766  -25.8325   23.1419 C   0  0  0  0  0  0  0  0  0  0  0  0
  -21.9636  -22.1515   22.8704 C   0  0  0  0  0  0  0  0  0  0  0  0
  -21.4391  -16.7870   18.9312 C   0  0  0  0  0  0  0  0  0  0  0  0
  -30.3308  -21.8574   20.0712 C   0  0  0  0  0  0  0  0  0  0  0  0
  -28.0313  -21.5566   19.3937 C   0  0  0  0  0  0  0  0  0  0  0  0
  -22.4354  -21.2903   21.8807 C   0  0  0  0  0  0  0  0  0  0  0  0
  -29.3955  -25.1040   20.2063 C   0  0  0  0  0  0  0  0  0  0  0  0
  -30.0055  -26.2387   20.7410 C   0  0  0  0  0  0  0  0  0  0  0  0
  -21.5021  -15.5330   19.5285 C   0  0  0  0  0  0  0  0  0  0  0  0
  -23.9212  -23.0197   21.0928 C   0  0  0  0  0  0  0  0  0  0  0  0
  -31.6700  -26.1684   18.9913 C   0  0  0  0  0  0  0  0  0  0  0  0
  -29.0439  -20.0114   20.9506 C   0  0  0  0  0  0  0  0  0  0  0  0
  -29.1359  -18.7799   23.1827 C   0  0  0  0  0  0  0  0  0  0  0  0
  -16.8877  -28.1727   23.7545 C   0  0  0  0  0  0  0  0  0  0  0  0
  -22.4600  -23.4590   22.9721 C   0  0  0  0  0  0  0  0  0  0  0  0
  -17.6021  -27.1356   23.1249 C   0  0  0  0  0  0  0  0  0  0  0  0
  -23.4559  -23.8947   22.0863 C   0  0  0  0  0  0  0  0  0  0  0  0
  -22.4611  -17.1993   18.0834 C   0  0  0  0  0  0  0  0  0  0  0  0
  -29.2268  -22.2722   19.3264 C   0  0  0  0  0  0  0  0  0  0  0  0
  -23.4123  -21.7253   20.9899 C   0  0  0  0  0  0  0  0  0  0  0  0
  -29.9228  -24.5014   19.0641 C   0  0  0  0  0  0  0  0  0  0  0  0
  -31.1427  -26.7709   20.1335 C   0  0  0  0  0  0  0  0  0  0  0  0
  -31.0600  -25.0336   18.4566 C   0  0  0  0  0  0  0  0  0  0  0  0
  -28.9490  -18.8434   21.7889 C   0  0  0  0  0  0  0  0  0  0  0  0
  -22.5997  -14.7353   19.2477 C   0  0  0  0  0  0  0  0  0  0  0  0
  -23.5159  -16.3271   17.8675 C   0  0  0  0  0  0  0  0  0  0  0  0
  -28.9377  -17.4573   23.4958 C   0  0  0  0  0  0  0  0  0  0  0  0
  -29.4595  -19.8232   24.1115 C   0  0  0  0  0  0  0  0  0  0  0  0
  -21.1939  -26.3644   22.7282 C   0  0  0  0  0  0  0  0  0  0  0  0
  -24.1526  -27.3077   23.6656 C   0  0  0  0  0  0  0  0  0  0  0  0
  -27.4858  -26.6061   23.8768 C   0  0  0  0  0  0  0  0  0  0  0  0
  -25.8565  -13.0581   20.8493 C   0  0  0  0  0  0  0  0  0  0  0  0
  -17.3749  -29.5998   23.7307 C   0  0  0  0  0  0  0  0  0  0  0  0
  -21.9599  -24.3669   24.0621 C   0  0  0  0  0  0  0  0  0  0  0  0
  -24.0363  -25.2822   22.1658 C   0  0  0  0  0  0  0  0  0  0  0  0
  -18.8538  -29.7327   23.3765 C   0  0  0  0  0  0  0  0  0  0  0  0
  -29.3299  -13.0686   21.6315 C   0  0  0  0  0  0  0  0  0  0  0  0
  -19.1929  -28.8671   22.1671 C   0  0  0  0  0  0  0  0  0  0  0  0
  -29.6430  -14.5440   21.8863 C   0  0  0  0  0  0  0  0  0  0  0  0
  -28.3052  -12.8941   20.5128 C   0  0  0  0  0  0  0  0  0  0  0  0
  -27.3686  -15.1318   20.9480 C   0  0  0  0  0  0  0  0  0  0  0  0
  -18.9398  -27.3837   22.4621 C   0  0  1  0  0  0  0  0  0  0  0  0
  -22.1663  -25.8458   23.7495 C   0  0  1  0  0  0  0  0  0  0  0  0
  -28.3553  -15.3607   22.1057 C   0  0  2  0  0  0  0  0  0  0  0  0
  -24.7598  -15.7846   15.7433 C   0  0  0  0  0  0  0  0  0  0  0  0
  -25.9890  -16.7864   17.7031 C   0  0  0  0  0  0  0  0  0  0  0  0
  -29.6594  -27.5862   24.6590 C   0  0  0  0  0  0  0  0  0  0  0  0
  -24.2157  -29.1199   21.2117 C   0  0  0  0  0  0  0  0  0  0  0  0
  -26.6922  -29.3272   21.5147 C   0  0  0  0  0  0  0  0  0  0  0  0
  -25.1469  -30.1485   23.2924 C   0  0  0  0  0  0  0  0  0  0  0  0
  -27.9059  -24.4168   25.8234 C   0  0  0  0  0  0  0  0  0  0  0  0
  -22.3991  -18.5586   17.4338 C   0  0  0  0  0  0  0  0  0  0  0  0
  -22.6988  -13.3827   19.8702 C   0  0  0  0  0  0  0  0  0  0  0  0
  -23.3249  -19.5923   18.0787 C   0  0  0  0  0  0  0  0  0  0  0  0
  -23.4240  -13.3808   21.2209 C   0  0  0  0  0  0  0  0  0  0  0  0
  -22.9658  -19.9043   19.5268 C   0  0  0  0  0  0  0  0  0  1  0  0
  -24.6402  -16.7152   16.9641 C   0  0  0  0  0  0  0  0  0  0  0  0
  -25.4375  -27.6597   22.9556 C   0  0  1  0  0  0  0  0  0  0  0  0
  -28.4675  -26.7174   25.0293 C   0  0  2  0  0  0  0  0  0  0  0  0
  -25.3609  -29.0383   22.2406 C   0  0  0  0  0  0  0  0  0  0  0  0
  -28.6549  -17.6556   21.2534 N   0  0  0  0  0  0  0  0  0  0  0  0
  -23.6118  -15.1014   18.4297 N   0  0  0  0  0  0  0  0  0  0  0  0
  -28.6555  -16.8333   22.3164 N   0  0  0  0  0  0  0  0  0  0  0  0
  -23.5102  -26.1346   23.2448 N   0  0  0  0  0  0  0  0  0  0  0  0
  -27.1075  -13.6933   20.7825 N   0  0  0  0  0  0  0  0  0  0  0  0
  -28.9791  -16.7789   24.6622 N   0  0  0  0  0  0  0  0  0  0  0  0
  -28.4103  -20.5295   24.7151 N   0  0  0  0  0  0  0  0  0  0  0  0
  -20.0124  -26.8380   23.2660 N   0  0  0  0  0  0  0  0  0  0  0  0
  -26.4959  -27.5628   23.9549 N   0  0  0  0  0  0  0  0  0  0  0  0
  -24.7740  -13.8877   21.1154 N   0  0  0  0  0  0  0  0  0  0  0  0
  -28.9706  -25.3682   25.4133 N   0  3  0  0  0  0  0  0  0  0  0  0
  -30.6443  -20.1312   24.3851 O   0  0  0  0  0  0  0  0  0  0  0  0
  -21.4940  -26.3383   21.5404 O   0  0  0  0  0  0  0  0  0  0  0  0
  -23.7380  -28.0425   24.5655 O   0  0  0  0  0  0  0  0  0  0  0  0
  -27.5889  -25.7578   22.9935 O   0  0  0  0  0  0  0  0  0  0  0  0
  -25.7154  -11.8409   20.6895 O   0  0  0  0  0  0  0  0  0  0  0  0
  -29.3156  -23.3753   18.5341 O   0  0  0  0  0  0  0  0  0  0  0  0
  -23.8741  -20.8870   20.0225 O   0  0  0  0  0  0  0  0  0  1  0  0
  -31.7274  -27.8615   20.6462 F   0  0  0  0  0  0  0  0  0  0  0  0
  -31.5705  -24.4599   17.3584 F   0  0  0  0  0  0  0  0  0  0  0  0
  1  2  1  0  0  0  0
  1  5  2  0  0  0  0
  2  6  2  0  0  0  0
  3  9  2  0  0  0  0
  3 17  1  0  0  0  0
  4 10  1  0  0  0  0
  4 17  2  0  0  0  0
  5 19  1  0  0  0  0
  6 21  1  0  0  0  0
  7 11  2  0  0  0  0
  7 20  1  0  0  0  0
  8 14  2  0  0  0  0
  8 23  1  0  0  0  0
  9 24  1  0  0  0  0
 10 24  2  0  0  0  0
 11 25  1  0  0  0  0
 12 13  2  0  0  0  0
 12 26  1  0  0  0  0
 13 27  1  0  0  0  0
 14 30  1  0  0  0  0
 15 22  1  0  0  0  0
 15 25  2  0  0  0  0
 16 27  2  0  0  0  0
 16 28  1  0  0  0  0
 17 29  1  0  0  0  0
 18 29  1  0  0  0  0
 18 32  2  0  0  0  0
 18 33  1  0  0  0  0
 19 21  2  0  0  0  0
 19 38  1  0  0  0  0
 20 22  2  0  0  0  0
 20 39  1  0  0  0  0
 21 47  1  0  0  0  0
 22 40  1  0  0  0  0
 23 31  2  0  0  0  0
 23 57  1  0  0  0  0
 24 82  1  0  0  0  0
 25 83  1  0  0  0  0
 26 28  2  0  0  0  0
 26 82  1  0  0  0  0
 27 84  1  0  0  0  0
 28 85  1  0  0  0  0
 29 66  2  0  0  0  0
 30 58  1  0  0  0  0
 30 67  2  0  0  0  0
 31 62  1  0  0  0  0
 31 67  1  0  0  0  0
 32 68  1  0  0  0  0
 32 71  1  0  0  0  0
 33 72  1  0  0  0  0
 33 77  2  0  0  0  0
 34 48  1  0  0  0  0
 34 73  1  0  0  0  0
 34 78  2  0  0  0  0
 35 63  1  0  0  0  0
 35 69  1  0  0  0  0
 35 79  2  0  0  0  0
 36 64  1  0  0  0  0
 36 74  1  0  0  0  0
 36 80  2  0  0  0  0
 37 70  1  0  0  0  0
 37 75  1  0  0  0  0
 37 81  2  0  0  0  0
 38 41  1  0  0  0  0
 39 48  1  0  0  0  0
 40 69  1  0  0  0  0
 41 43  1  0  0  0  0
 42 44  1  0  0  0  0
 42 45  1  0  0  0  0
 43 47  1  0  0  0  0
 44 49  1  0  0  0  0
 45 70  1  0  0  0  0
 46 49  1  0  0  0  0
 46 70  1  0  0  0  0
 47 73  1  0  0  0  0
 48 69  1  0  0  0  0
 49 68  1  0  0  0  0
 50 62  1  0  0  0  0
 51 62  1  0  0  0  0
 52 64  1  0  0  0  0
 53 65  1  0  0  0  0
 54 65  1  0  0  0  0
 55 65  1  0  0  0  0
 56 76  1  0  0  0  0
 57 59  1  0  0  0  0
 58 60  1  0  0  0  0
 59 61  1  0  0  0  0
 60 75  1  0  0  0  0
 61 83  1  0  0  0  0
 63 65  1  0  0  0  0
 63 74  1  0  0  0  0
 64 76  1  0  0  0  0
 66 68  1  0  0  0  0
M  CHG  1  76   1
M  ISO  4  37 100  61 101  75 100  83 101
M  END
> <Batch ID>
0087

> <Smiles>
CNC(C)C(=O)NC(C(=O)N1Cc2cc([101O:1][101CH2:1]CCc3ccc(CC[100NH:0][100C:0](=O)N4CCCC(n5nc(-c6ccc(Oc7ccc(F)cc7F)cc6)c(C(N)=O)c5N)C4)nc3C(C)C)ccc2CC1C(=O)NC1CCCc2ccccc21)C(C)(C)C

> <Shape>
0.213

> <Color>
0.042

> <Negative vol penalty>
0.000

$$$$

  -OEChem-04052319013D

 89 97  0     1  0  0  0  0  0999 V2000
  -17.5725  -19.8242   29.2778 C   0  0  0  0  0  0  0  0  0  0  0  0
  -17.8988  -19.0334   28.1808 C   0  0  0  0  0  0  0  0  0  0  0  0
  -28.5270  -26.4322   18.2492 C   0  0  0  0  0  0  0  0  0  0  0  0
  -27.0243  -25.6119   19.9539 C   0  0  0  0  0  0  0  0  0  0  0  0
  -18.1803  -21.0678   29.4447 C   0  0  0  0  0  0  0  0  0  0  0  0
  -18.8325  -19.4862   27.2493 C   0  0  0  0  0  0  0  0  0  0  0  0
  -22.8679  -16.0933   24.1334 C   0  0  0  0  0  0  0  0  0  0  0  0
  -27.7415  -27.5760   18.1072 C   0  0  0  0  0  0  0  0  0  0  0  0
  -26.2388  -26.7558   19.8119 C   0  0  0  0  0  0  0  0  0  0  0  0
  -22.8555  -15.5735   22.8398 C   0  0  0  0  0  0  0  0  0  0  0  0
  -26.3340  -29.9811   20.8162 C   0  0  0  0  0  0  0  0  0  0  0  0
  -25.9025  -30.6177   21.9798 C   0  0  0  0  0  0  0  0  0  0  0  0
  -24.1324  -17.4706   22.0717 C   0  0  0  0  0  0  0  0  0  0  0  0
  -24.1875  -12.6474   19.6069 C   0  0  0  0  0  0  0  0  0  0  0  0
  -23.6050  -30.2650   21.3210 C   0  0  0  0  0  0  0  0  0  0  0  0
  -28.1684  -25.4501   19.1725 C   0  0  0  0  0  0  0  0  0  0  0  0
  -30.0683  -24.0872   20.1927 C   0  0  0  0  0  0  0  0  0  0  0  0
  -19.1290  -21.5320   28.5199 C   0  0  0  0  0  0  0  0  0  0  0  0
  -23.5044  -17.3132   24.4042 C   0  0  0  0  0  0  0  0  0  0  0  0
  -19.4526  -20.7378   27.4033 C   0  0  0  0  0  0  0  0  0  0  0  0
  -24.1536  -18.0025   23.3701 C   0  0  0  0  0  0  0  0  0  0  0  0
  -25.1609  -13.6254   19.5015 C   0  0  0  0  0  0  0  0  0  0  0  0
  -26.5975  -27.7379   18.8885 C   0  0  0  0  0  0  0  0  0  0  0  0
  -23.4853  -16.2636   21.8081 C   0  0  0  0  0  0  0  0  0  0  0  0
  -25.4009  -29.4865   19.9048 C   0  0  0  0  0  0  0  0  0  0  0  0
  -24.5381  -30.7597   22.2323 C   0  0  0  0  0  0  0  0  0  0  0  0
  -24.0365  -29.6284   20.1573 C   0  0  0  0  0  0  0  0  0  0  0  0
  -28.9791  -24.2680   19.3193 C   0  0  0  0  0  0  0  0  0  0  0  0
  -24.5045  -11.4916   20.2918 C   0  0  0  0  0  0  0  0  0  0  0  0
  -26.3866  -13.3829   20.0883 C   0  0  0  0  0  0  0  0  0  0  0  0
  -30.4931  -22.8037   19.9507 C   0  0  0  0  0  0  0  0  0  0  0  0
  -30.6444  -24.9981   21.1383 C   0  0  0  0  0  0  0  0  0  0  0  0
  -22.5542  -20.1479   25.4836 C   0  0  0  0  0  0  0  0  0  0  0  0
  -25.7344  -20.7866   25.4625 C   0  0  0  0  0  0  0  0  0  0  0  0
  -28.8234  -20.0781   24.1963 C   0  0  0  0  0  0  0  0  0  0  0  0
  -29.4054  -17.4881   19.2379 C   0  0  0  0  0  0  0  0  0  0  0  0
  -19.7244  -22.9036   28.7172 C   0  0  0  0  0  0  0  0  0  0  0  0
  -23.5317  -17.8471   25.8101 C   0  0  0  0  0  0  0  0  0  0  0  0
  -24.8684  -19.3058   23.6124 C   0  0  0  0  0  0  0  0  0  0  0  0
  -20.9807  -23.1477   27.8851 C   0  0  0  0  0  0  0  0  0  0  0  0
  -29.2483  -19.5593   16.2743 C   0  0  0  0  0  0  0  0  0  0  0  0
  -20.7656  -22.6888   26.4464 C   0  0  0  0  0  0  0  0  0  0  0  0
  -29.2546  -20.9626   16.8834 C   0  0  0  0  0  0  0  0  0  0  0  0
  -28.4385  -18.5892   17.1295 C   0  0  0  0  0  0  0  0  0  0  0  0
  -28.8834  -19.9097   19.1623 C   0  0  0  0  0  0  0  0  0  0  0  0
  -20.4789  -21.1836   26.3844 C   0  0  1  0  0  0  0  0  0  0  0  0
  -23.7683  -19.3529   25.8729 C   0  0  1  0  0  0  0  0  0  0  0  0
  -29.7046  -20.9323   18.3560 C   0  0  2  0  0  0  0  0  0  0  0  0
  -27.8002  -15.0010   21.4082 C   0  0  0  0  0  0  0  0  0  0  0  0
  -31.2243  -20.7930   24.3442 C   0  0  0  0  0  0  0  0  0  0  0  0
  -23.0379   -9.8702   19.0405 C   0  0  0  0  0  0  0  0  0  0  0  0
  -22.2182  -10.9148   21.1789 C   0  0  0  0  0  0  0  0  0  0  0  0
  -23.9646   -9.1459   21.2310 C   0  0  0  0  0  0  0  0  0  0  0  0
  -25.1006  -23.2539   23.7831 C   0  0  0  0  0  0  0  0  0  0  0  0
  -27.5264  -23.3783   23.1764 C   0  0  0  0  0  0  0  0  0  0  0  0
  -26.8246  -23.6151   25.5584 C   0  0  0  0  0  0  0  0  0  0  0  0
  -29.4744  -12.7134   19.9069 C   0  0  0  0  0  0  0  0  0  0  0  0
  -28.4352  -13.5215   17.7887 C   0  0  0  0  0  0  0  0  0  0  0  0
  -29.6814  -17.4074   25.1399 C   0  0  0  0  0  0  0  0  0  0  0  0
  -24.8662  -14.9087   18.7636 C   0  0  0  0  0  0  0  0  0  0  0  0
  -29.8765  -15.0529   19.1647 C   0  0  0  0  0  0  0  0  0  0  0  0
  -24.5890  -16.0714   19.7103 C   0  0  0  0  0  0  0  0  0  1  0  0
  -27.4840  -14.3903   20.0149 C   0  0  1  0  0  0  0  0  0  0  0  0
  -26.7059  -21.3454   24.4511 C   0  0  1  0  0  0  0  0  0  0  0  0
  -30.1609  -19.8444   24.8752 C   0  0  2  0  0  0  0  0  0  0  0  0
  -23.4920  -10.4073   20.4336 C   0  0  0  0  0  0  0  0  0  0  0  0
  -26.5243  -22.8746   24.2370 C   0  0  0  0  0  0  0  0  0  0  0  0
  -28.8005  -13.9310   19.2362 C   0  0  0  0  0  0  0  0  0  0  0  0
  -28.7277  -23.1859   18.5777 N   0  0  0  0  0  0  0  0  0  0  0  0
  -25.7125  -11.2811   20.8562 N   0  0  0  0  0  0  0  0  0  0  0  0
  -26.6690  -12.2425   20.7529 N   0  0  0  0  0  0  0  0  0  0  0  0
  -29.6650  -22.3129   18.9845 N   0  0  0  0  0  0  0  0  0  0  0  0
  -24.8619  -19.7900   25.0027 N   0  0  0  0  0  0  0  0  0  0  0  0
  -28.9293  -18.5944   18.5149 N   0  0  0  0  0  0  0  0  0  0  0  0
  -31.4905  -22.0583   20.4723 N   0  0  0  0  0  0  0  0  0  0  0  0
  -30.0851  -26.2774   21.2598 N   0  0  0  0  0  0  0  0  0  0  0  0
  -21.7045  -20.4291   26.5365 N   0  0  0  0  0  0  0  0  0  0  0  0
  -28.0369  -20.9598   24.9073 N   0  0  0  0  0  0  0  0  0  0  0  0
  -29.4096  -16.2781   18.5548 N   0  0  0  0  0  0  0  0  0  0  0  0
  -30.6214  -18.4459   24.6448 N   0  3  0  0  0  0  0  0  0  0  0  0
  -31.6365  -24.6923   21.8425 O   0  0  0  0  0  0  0  0  0  0  0  0
  -22.4004  -20.4828   24.3149 O   0  0  0  0  0  0  0  0  0  0  0  0
  -25.7539  -21.2134   26.6197 O   0  0  0  0  0  0  0  0  0  0  0  0
  -28.5093  -19.5359   23.1390 O   0  0  0  0  0  0  0  0  0  0  0  0
  -29.8028  -17.5732   20.4049 O   0  0  0  0  0  0  0  0  0  0  0  0
  -25.8309  -28.8540   18.7503 O   0  0  0  0  0  0  0  0  0  0  0  0
  -23.4741  -15.7588   20.5444 O   0  0  0  0  0  0  0  0  0  1  0  0
  -24.1239  -31.3696   23.3505 F   0  0  0  0  0  0  0  0  0  0  0  0
  -23.1354  -29.1542   19.2861 F   0  0  0  0  0  0  0  0  0  0  0  0
  1  2  1  0  0  0  0
  1  5  2  0  0  0  0
  2  6  2  0  0  0  0
  3  8  2  0  0  0  0
  3 16  1  0  0  0  0
  4  9  1  0  0  0  0
  4 16  2  0  0  0  0
  5 18  1  0  0  0  0
  6 20  1  0  0  0  0
  7 10  2  0  0  0  0
  7 19  1  0  0  0  0
  8 23  1  0  0  0  0
  9 23  2  0  0  0  0
 10 24  1  0  0  0  0
 11 12  2  0  0  0  0
 11 25  1  0  0  0  0
 12 26  1  0  0  0  0
 13 21  1  0  0  0  0
 13 24  2  0  0  0  0
 14 22  1  0  0  0  0
 14 29  2  0  0  0  0
 15 26  2  0  0  0  0
 15 27  1  0  0  0  0
 16 28  1  0  0  0  0
 17 28  1  0  0  0  0
 17 31  2  0  0  0  0
 17 32  1  0  0  0  0
 18 20  2  0  0  0  0
 18 37  1  0  0  0  0
 19 21  2  0  0  0  0
 19 38  1  0  0  0  0
 20 46  1  0  0  0  0
 21 39  1  0  0  0  0
 22 30  2  0  0  0  0
 22 60  1  0  0  0  0
 23 86  1  0  0  0  0
 24 87  1  0  0  0  0
 25 27  2  0  0  0  0
 25 86  1  0  0  0  0
 26 88  1  0  0  0  0
 27 89  1  0  0  0  0
 28 69  2  0  0  0  0
 29 66  1  0  0  0  0
 29 70  1  0  0  0  0
 30 63  1  0  0  0  0
 30 71  1  0  0  0  0
 31 72  1  0  0  0  0
 31 75  1  0  0  0  0
 32 76  1  0  0  0  0
 32 81  2  0  0  0  0
 33 47  1  0  0  0  0
 33 77  1  0  0  0  0
 33 82  2  0  0  0  0
 34 64  1  0  0  0  0
 34 73  1  0  0  0  0
 34 83  2  0  0  0  0
 35 65  1  0  0  0  0
 35 78  1  0  0  0  0
 35 84  2  0  0  0  0
 36 74  1  0  0  0  0
 36 79  1  0  0  0  0
 36 85  2  0  0  0  0
 37 40  1  0  0  0  0
 38 47  1  0  0  0  0
 39 73  1  0  0  0  0
 40 42  1  0  0  0  0
 41 43  1  0  0  0  0
 41 44  1  0  0  0  0
 42 46  1  0  0  0  0
 43 48  1  0  0  0  0
 44 74  1  0  0  0  0
 45 48  1  0  0  0  0
 45 74  1  0  0  0  0
 46 77  1  0  0  0  0
 47 73  1  0  0  0  0
 48 72  1  0  0  0  0
 49 63  1  0  0  0  0
 50 65  1  0  0  0  0
 51 66  1  0  0  0  0
 52 66  1  0  0  0  0
 53 66  1  0  0  0  0
 54 67  1  0  0  0  0
 55 67  1  0  0  0  0
 56 67  1  0  0  0  0
 57 68  1  0  0  0  0
 58 68  1  0  0  0  0
 59 80  1  0  0  0  0
 60 62  1  0  0  0  0
 61 68  1  0  0  0  0
 61 79  1  0  0  0  0
 62 87  1  0  0  0  0
 63 68  1  0  0  0  0
 64 67  1  0  0  0  0
 64 78  1  0  0  0  0
 65 80  1  0  0  0  0
 69 72  1  0  0  0  0
 70 71  2  0  0  0  0
M  CHG  1  80   1
M  ISO  4  36 100  62 101  79 100  87 101
M  END
> <Batch ID>
0087

> <Smiles>
CNC(C)C(=O)NC(C(=O)N1Cc2cc([101O:1][101CH2:1]Cc3cc(C(C)(C)C)nnc3C(C)C(C)(C)C[100NH:0][100C:0](=O)N3CCCC(n4nc(-c5ccc(Oc6ccc(F)cc6F)cc5)c(C(N)=O)c4N)C3)ccc2CC1C(=O)NC1CCCc2ccccc21)C(C)(C)C

> <Shape>
0.208

> <Color>
0.080

> <Negative vol penalty>
0.000

$$$$

  -OEChem-04052319013D

 83 91  0     1  0  0  0  0  0999 V2000
  -18.7032  -32.7070   19.7590 C   0  0  0  0  0  0  0  0  0  0  0  0
  -19.9789  -32.2754   19.4099 C   0  0  0  0  0  0  0  0  0  0  0  0
  -27.8222  -17.3465   20.3575 C   0  0  0  0  0  0  0  0  0  0  0  0
  -30.0325  -18.1604   20.8953 C   0  0  0  0  0  0  0  0  0  0  0  0
  -18.2420  -32.5321   21.0631 C   0  0  0  0  0  0  0  0  0  0  0  0
  -20.7945  -31.6697   20.3650 C   0  0  0  0  0  0  0  0  0  0  0  0
  -24.8282  -27.1567   19.4330 C   0  0  0  0  0  0  0  0  0  0  0  0
  -28.2295  -16.0455   20.6521 C   0  0  0  0  0  0  0  0  0  0  0  0
  -30.4398  -16.8593   21.1899 C   0  0  0  0  0  0  0  0  0  0  0  0
  -26.2109  -27.1565   19.2549 C   0  0  0  0  0  0  0  0  0  0  0  0
  -28.7901  -12.4623   20.9173 C   0  0  0  0  0  0  0  0  0  0  0  0
  -28.4240  -11.4500   20.0304 C   0  0  0  0  0  0  0  0  0  0  0  0
  -26.5071  -26.6905   21.6032 C   0  0  0  0  0  0  0  0  0  0  0  0
  -31.3244  -27.0225   18.5849 C   0  0  0  0  0  0  0  0  0  0  0  0
  -29.6233  -12.5698   18.2571 C   0  0  0  0  0  0  0  0  0  0  0  0
  -28.7236  -18.4040   20.4790 C   0  0  0  0  0  0  0  0  0  0  0  0
  -27.7426  -20.6855   21.0624 C   0  0  0  0  0  0  0  0  0  0  0  0
  -19.0488  -31.9152   22.0323 C   0  0  0  0  0  0  0  0  0  0  0  0
  -24.2738  -26.9342   20.7017 C   0  0  0  0  0  0  0  0  0  0  0  0
  -20.3442  -31.4876   21.6836 C   0  0  0  0  0  0  0  0  0  0  0  0
  -25.1169  -26.6858   21.7942 C   0  0  0  0  0  0  0  0  0  0  0  0
  -31.3064  -26.9263   19.9652 C   0  0  0  0  0  0  0  0  0  0  0  0
  -29.5383  -15.8018   21.0683 C   0  0  0  0  0  0  0  0  0  0  0  0
  -27.0507  -26.9262   20.3407 C   0  0  0  0  0  0  0  0  0  0  0  0
  -29.5728  -13.5285   20.4741 C   0  0  0  0  0  0  0  0  0  0  0  0
  -28.8406  -11.5037   18.7003 C   0  0  0  0  0  0  0  0  0  0  0  0
  -29.9894  -13.5822   19.1440 C   0  0  0  0  0  0  0  0  0  0  0  0
  -28.3036  -19.7482   20.1743 C   0  0  0  0  0  0  0  0  0  0  0  0
  -32.0617  -26.0910   17.8819 C   0  0  0  0  0  0  0  0  0  0  0  0
  -32.0267  -25.9048   20.5512 C   0  0  0  0  0  0  0  0  0  0  0  0
  -27.5210  -21.7998   20.2906 C   0  0  0  0  0  0  0  0  0  0  0  0
  -27.4482  -20.5601   22.4600 C   0  0  0  0  0  0  0  0  0  0  0  0
  -22.4628  -28.6316   22.6873 C   0  0  0  0  0  0  0  0  0  0  0  0
  -22.4336  -25.8744   24.3960 C   0  0  0  0  0  0  0  0  0  0  0  0
  -23.9517  -22.9092   25.1375 C   0  0  0  0  0  0  0  0  0  0  0  0
  -30.0245  -23.8280   15.2438 C   0  0  0  0  0  0  0  0  0  0  0  0
  -18.5247  -31.7908   23.4410 C   0  0  0  0  0  0  0  0  0  0  0  0
  -22.7795  -26.9111   20.8720 C   0  0  0  0  0  0  0  0  0  0  0  0
  -24.5714  -26.4215   23.1729 C   0  0  0  0  0  0  0  0  0  0  0  0
  -19.3103  -30.8016   24.2980 C   0  0  0  0  0  0  0  0  0  0  0  0
  -26.5800  -23.1079   15.7857 C   0  0  0  0  0  0  0  0  0  0  0  0
  -20.8100  -31.0293   24.1369 C   0  0  0  0  0  0  0  0  0  0  0  0
  -26.5805  -22.2497   17.0520 C   0  0  0  0  0  0  0  0  0  0  0  0
  -27.7909  -22.8125   14.9033 C   0  0  0  0  0  0  0  0  0  0  0  0
  -29.0947  -22.0549   16.8526 C   0  0  0  0  0  0  0  0  0  0  0  0
  -21.2494  -30.8038   22.6852 C   0  0  1  0  0  0  0  0  0  0  0  0
  -22.3373  -27.1835   22.3064 C   0  0  1  0  0  0  0  0  0  0  0  0
  -27.9222  -22.3570   17.8014 C   0  0  2  0  0  0  0  0  0  0  0  0
  -32.0547  -25.7391   22.0331 C   0  0  0  0  0  0  0  0  0  0  0  0
  -33.2349  -27.0866   15.8928 C   0  0  0  0  0  0  0  0  0  0  0  0
  -23.7112  -20.8848   26.6008 C   0  0  0  0  0  0  0  0  0  0  0  0
  -23.3919  -27.4977   26.7952 C   0  0  0  0  0  0  0  0  0  0  0  0
  -24.0336  -25.3475   27.9055 C   0  0  0  0  0  0  0  0  0  0  0  0
  -21.6477  -25.7853   27.3239 C   0  0  0  0  0  0  0  0  0  0  0  0
  -23.7644  -21.1004   22.8025 C   0  0  0  0  0  0  0  0  0  0  0  0
  -30.5154  -27.9191   20.7819 C   0  0  0  0  0  0  0  0  0  0  0  0
  -32.2724  -24.7628   15.7256 C   0  0  0  0  0  0  0  0  0  0  0  0
  -29.1960  -27.3395   21.2803 C   0  0  0  0  0  0  0  0  0  1  0  0
  -32.1145  -26.1507   16.3937 C   0  0  1  0  0  0  0  0  0  0  0  0
  -23.3003  -25.2785   25.4789 C   0  0  1  0  0  0  0  0  0  0  0  0
  -23.4058  -21.4966   25.2424 C   0  0  2  0  0  0  0  0  0  0  0  0
  -23.1040  -25.9841   26.8504 C   0  0  0  0  0  0  0  0  0  0  0  0
  -28.4304  -20.2255   18.9333 N   0  0  0  0  0  0  0  0  0  0  0  0
  -32.7573  -25.1017   18.4817 N   0  0  0  0  0  0  0  0  0  0  0  0
  -32.7392  -25.0070   19.8383 N   0  0  0  0  0  0  0  0  0  0  0  0
  -27.9458  -21.4748   19.0360 N   0  0  0  0  0  0  0  0  0  0  0  0
  -23.1038  -26.4154   23.2897 N   0  0  0  0  0  0  0  0  0  0  0  0
  -29.0310  -22.9330   15.6737 N   0  0  0  0  0  0  0  0  0  0  0  0
  -27.0060  -23.0161   20.5695 N   0  0  0  0  0  0  0  0  0  0  0  0
  -27.7391  -19.3464   23.0977 N   0  0  0  0  0  0  0  0  0  0  0  0
  -21.3428  -29.3881   22.3995 N   0  0  0  0  0  0  0  0  0  0  0  0
  -23.0084  -23.8492   25.4951 N   0  0  0  0  0  0  0  0  0  0  0  0
  -31.1655  -23.8853   16.0347 N   0  0  0  0  0  0  0  0  0  0  0  0
  -24.0074  -20.6294   24.1903 N   0  3  0  0  0  0  0  0  0  0  0  0
  -26.9271  -21.4909   23.1199 O   0  0  0  0  0  0  0  0  0  0  0  0
  -23.4984  -29.0325   23.2055 O   0  0  0  0  0  0  0  0  0  0  0  0
  -21.2068  -25.8540   24.5236 O   0  0  0  0  0  0  0  0  0  0  0  0
  -25.1012  -23.1541   24.7781 O   0  0  0  0  0  0  0  0  0  0  0  0
  -29.9014  -24.5284   14.2332 O   0  0  0  0  0  0  0  0  0  0  0  0
  -29.9361  -14.5324   21.3561 O   0  0  0  0  0  0  0  0  0  0  0  0
  -28.4008  -26.9262   20.1698 O   0  0  0  0  0  0  0  0  0  1  0  0
  -28.4902  -10.5307   17.8490 F   0  0  0  0  0  0  0  0  0  0  0  0
  -30.7425  -14.6034   18.7127 F   0  0  0  0  0  0  0  0  0  0  0  0
  1  2  1  0  0  0  0
  1  5  2  0  0  0  0
  2  6  2  0  0  0  0
  3  8  2  0  0  0  0
  3 16  1  0  0  0  0
  4  9  1  0  0  0  0
  4 16  2  0  0  0  0
  5 18  1  0  0  0  0
  6 20  1  0  0  0  0
  7 10  2  0  0  0  0
  7 19  1  0  0  0  0
  8 23  1  0  0  0  0
  9 23  2  0  0  0  0
 10 24  1  0  0  0  0
 11 12  2  0  0  0  0
 11 25  1  0  0  0  0
 12 26  1  0  0  0  0
 13 21  1  0  0  0  0
 13 24  2  0  0  0  0
 14 22  1  0  0  0  0
 14 29  2  0  0  0  0
 15 26  2  0  0  0  0
 15 27  1  0  0  0  0
 16 28  1  0  0  0  0
 17 28  1  0  0  0  0
 17 31  2  0  0  0  0
 17 32  1  0  0  0  0
 18 20  2  0  0  0  0
 18 37  1  0  0  0  0
 19 21  2  0  0  0  0
 19 38  1  0  0  0  0
 20 46  1  0  0  0  0
 21 39  1  0  0  0  0
 22 30  2  0  0  0  0
 22 56  1  0  0  0  0
 23 80  1  0  0  0  0
 24 81  1  0  0  0  0
 25 27  2  0  0  0  0
 25 80  1  0  0  0  0
 26 82  1  0  0  0  0
 27 83  1  0  0  0  0
 28 63  2  0  0  0  0
 29 59  1  0  0  0  0
 29 64  1  0  0  0  0
 30 49  1  0  0  0  0
 30 65  1  0  0  0  0
 31 66  1  0  0  0  0
 31 69  1  0  0  0  0
 32 70  1  0  0  0  0
 32 75  2  0  0  0  0
 33 47  1  0  0  0  0
 33 71  1  0  0  0  0
 33 76  2  0  0  0  0
 34 60  1  0  0  0  0
 34 67  1  0  0  0  0
 34 77  2  0  0  0  0
 35 61  1  0  0  0  0
 35 72  1  0  0  0  0
 35 78  2  0  0  0  0
 36 68  1  0  0  0  0
 36 73  1  0  0  0  0
 36 79  2  0  0  0  0
 37 40  1  0  0  0  0
 38 47  1  0  0  0  0
 39 67  1  0  0  0  0
 40 42  1  0  0  0  0
 41 43  1  0  0  0  0
 41 44  1  0  0  0  0
 42 46  1  0  0  0  0
 43 48  1  0  0  0  0
 44 68  1  0  0  0  0
 45 48  1  0  0  0  0
 45 68  1  0  0  0  0
 46 71  1  0  0  0  0
 47 67  1  0  0  0  0
 48 66  1  0  0  0  0
 50 59  1  0  0  0  0
 51 61  1  0  0  0  0
 52 62  1  0  0  0  0
 53 62  1  0  0  0  0
 54 62  1  0  0  0  0
 55 74  1  0  0  0  0
 56 58  1  0  0  0  0
 57 59  1  0  0  0  0
 57 73  1  0  0  0  0
 58 81  1  0  0  0  0
 60 62  1  0  0  0  0
 60 72  1  0  0  0  0
 61 74  1  0  0  0  0
 63 66  1  0  0  0  0
 64 65  2  0  0  0  0
M  CHG  1  74   1
M  ISO  4  36 100  58 101  73 100  81 101
M  END
> <Batch ID>
0087

> <Smiles>
CNC(C)C(=O)NC(C(=O)N1Cc2cc([101O:1][101CH2:1]Cc3cc(C(C)C[100NH:0][100C:0](=O)N4CCCC(n5nc(-c6ccc(Oc7ccc(F)cc7F)cc6)c(C(N)=O)c5N)C4)nnc3C)ccc2CC1C(=O)NC1CCCc2ccccc21)C(C)(C)C

> <Shape>
0.195

> <Color>
0.077

> <Negative vol penalty>
0.000

$$$$

  -OEChem-04052319013D

 83 91  0     1  0  0  0  0  0999 V2000
  -19.6527  -16.1771   17.0066 C   0  0  0  0  0  0  0  0  0  0  0  0
  -20.6461  -17.1367   17.1735 C   0  0  0  0  0  0  0  0  0  0  0  0
  -21.8885  -27.8576   22.5308 C   0  0  0  0  0  0  0  0  0  0  0  0
  -21.3055  -28.4621   20.2655 C   0  0  0  0  0  0  0  0  0  0  0  0
  -19.6991  -14.9925   17.7404 C   0  0  0  0  0  0  0  0  0  0  0  0
  -21.6859  -16.9127   18.0751 C   0  0  0  0  0  0  0  0  0  0  0  0
  -27.5108  -18.7141   17.4988 C   0  0  0  0  0  0  0  0  0  0  0  0
  -20.7067  -27.1248   22.6395 C   0  0  0  0  0  0  0  0  0  0  0  0
  -20.1236  -27.7293   20.3741 C   0  0  0  0  0  0  0  0  0  0  0  0
  -28.2130  -19.7994   18.0211 C   0  0  0  0  0  0  0  0  0  0  0  0
  -17.4285  -27.7510   23.1741 C   0  0  0  0  0  0  0  0  0  0  0  0
  -16.6770  -27.9037   24.3392 C   0  0  0  0  0  0  0  0  0  0  0  0
  -29.0120  -18.4078   19.8223 C   0  0  0  0  0  0  0  0  0  0  0  0
  -16.9175  -25.5449   24.8033 C   0  0  0  0  0  0  0  0  0  0  0  0
  -22.1879  -28.5263   21.3438 C   0  0  0  0  0  0  0  0  0  0  0  0
  -23.8039  -30.3808   22.0198 C   0  0  0  0  0  0  0  0  0  0  0  0
  -20.7453  -14.7497   18.6444 C   0  0  0  0  0  0  0  0  0  0  0  0
  -27.5451  -17.4682   18.1415 C   0  0  0  0  0  0  0  0  0  0  0  0
  -21.7456  -15.7243   18.8227 C   0  0  0  0  0  0  0  0  0  0  0  0
  -28.3114  -17.3077   19.3048 C   0  0  0  0  0  0  0  0  0  0  0  0
  -19.8242  -27.0606   21.5612 C   0  0  0  0  0  0  0  0  0  0  0  0
  -28.9614  -19.6471   19.1846 C   0  0  0  0  0  0  0  0  0  0  0  0
  -17.9244  -26.4953   22.8235 C   0  0  0  0  0  0  0  0  0  0  0  0
  -16.4215  -26.8006   25.1539 C   0  0  0  0  0  0  0  0  0  0  0  0
  -17.6689  -25.3922   23.6381 C   0  0  0  0  0  0  0  0  0  0  0  0
  -23.4084  -29.2838   21.2311 C   0  0  0  0  0  0  0  0  0  0  0  0
  -25.0306  -30.7404   21.5173 C   0  0  0  0  0  0  0  0  0  0  0  0
  -23.1234  -31.0177   23.1092 C   0  0  0  0  0  0  0  0  0  0  0  0
  -25.3752  -15.5847   19.5007 C   0  0  0  0  0  0  0  0  0  0  0  0
  -27.8761  -13.5331   19.7425 C   0  0  0  0  0  0  0  0  0  0  0  0
  -31.2571  -13.0904   19.8843 C   0  0  0  0  0  0  0  0  0  0  0  0
  -29.7900  -28.5480   19.2903 C   0  0  0  0  0  0  0  0  0  0  0  0
  -20.7273  -13.4748   19.4500 C   0  0  0  0  0  0  0  0  0  0  0  0
  -26.8037  -16.3005   17.5506 C   0  0  0  0  0  0  0  0  0  0  0  0
  -28.3975  -15.9858   20.0215 C   0  0  0  0  0  0  0  0  0  0  0  0
  -22.0656  -13.1520   20.1094 C   0  0  0  0  0  0  0  0  0  0  0  0
  -27.4066  -30.0279   17.2518 C   0  0  0  0  0  0  0  0  0  0  0  0
  -22.6377  -14.3912   20.7906 C   0  0  0  0  0  0  0  0  0  0  0  0
  -30.3129  -24.3434   18.9952 C   0  0  0  0  0  0  0  0  0  0  0  0
  -29.8925  -23.1445   21.1775 C   0  0  0  0  0  0  0  0  0  0  0  0
  -31.0856  -25.4299   19.7409 C   0  0  0  0  0  0  0  0  0  0  0  0
  -30.6650  -24.2311   21.9232 C   0  0  0  0  0  0  0  0  0  0  0  0
  -26.1613  -30.0994   18.1344 C   0  0  0  0  0  0  0  0  0  0  0  0
  -28.1404  -28.7072   17.4517 C   0  0  0  0  0  0  0  0  0  0  0  0
  -27.2970  -28.5141   19.7696 C   0  0  0  0  0  0  0  0  0  0  0  0
  -22.9032  -15.5071   19.7729 C   0  0  1  0  0  0  0  0  0  0  0  0
  -26.4952  -15.2100   18.5718 C   0  0  1  0  0  0  0  0  0  0  0  0
  -30.3759  -22.9979   19.7291 C   0  0  0  0  0  0  0  0  0  0  0  0
  -30.6021  -25.5765   21.1892 C   0  0  0  0  0  0  0  0  0  0  0  0
  -26.5144  -29.8335   19.6083 C   0  0  2  0  0  0  0  0  0  0  0  0
  -33.0014  -11.3019   20.1207 C   0  0  0  0  0  0  0  0  0  0  0  0
  -32.8993  -26.1876   21.9678 C   0  0  0  0  0  0  0  0  0  0  0  0
  -30.9188  -26.7636   23.3786 C   0  0  0  0  0  0  0  0  0  0  0  0
  -27.2570  -13.3266   22.7231 C   0  0  0  0  0  0  0  0  0  0  0  0
  -29.5302  -12.3317   23.0554 C   0  0  0  0  0  0  0  0  0  0  0  0
  -27.8535  -11.1584   21.6289 C   0  0  0  0  0  0  0  0  0  0  0  0
  -29.0246  -28.6843   21.6298 C   0  0  0  0  0  0  0  0  0  0  0  0
  -32.4422  -13.7358   17.2503 C   0  0  0  0  0  0  0  0  0  0  0  0
  -29.5556  -21.9417   18.9909 C   0  0  0  0  0  0  0  0  0  1  0  0
  -31.3557  -27.9991   21.2014 C   0  0  0  0  0  0  0  0  0  0  0  0
  -28.9479  -13.2706   20.7728 C   0  0  1  0  0  0  0  0  0  0  0  0
  -32.1795  -12.1348   19.1493 C   0  0  2  0  0  0  0  0  0  0  0  0
  -31.4222  -26.6328   21.9275 C   0  0  0  0  0  0  0  0  0  0  0  0
  -28.3942  -12.5474   22.0329 C   0  0  0  0  0  0  0  0  0  0  0  0
  -24.3105  -28.9674   20.2983 N   0  0  0  0  0  0  0  0  0  0  0  0
  -25.2851  -29.8710   20.4977 N   0  0  0  0  0  0  0  0  0  0  0  0
  -27.6498  -14.8758   19.4081 N   0  0  0  0  0  0  0  0  0  0  0  0
  -28.4553  -28.4848   18.8632 N   0  0  0  0  0  0  0  0  0  0  0  0
  -25.9054  -31.7123   21.8525 N   0  0  0  0  0  0  0  0  0  0  0  0
  -21.8714  -30.5212   23.4967 N   0  0  0  0  0  0  0  0  0  0  0  0
  -24.1201  -15.2404   19.0364 N   0  0  0  0  0  0  0  0  0  0  0  0
  -30.0075  -12.5426   20.0832 N   0  0  0  0  0  0  0  0  0  0  0  0
  -30.0395  -28.3188   20.6518 N   0  0  0  0  0  0  0  0  0  0  0  0
  -33.1155  -12.8913   18.2703 N   0  3  0  0  0  0  0  0  0  0  0  0
  -23.6037  -32.0084   23.7103 O   0  0  0  0  0  0  0  0  0  0  0  0
  -25.6309  -16.1434   20.5609 O   0  0  0  0  0  0  0  0  0  0  0  0
  -27.2673  -12.5814   19.2473 O   0  0  0  0  0  0  0  0  0  0  0  0
  -31.6109  -14.2095   20.2490 O   0  0  0  0  0  0  0  0  0  0  0  0
  -30.7102  -28.7884   18.4981 O   0  0  0  0  0  0  0  0  0  0  0  0
  -18.6709  -26.3455   21.6668 O   0  0  0  0  0  0  0  0  0  0  0  0
  -29.6473  -20.7050   19.6969 O   0  0  0  0  0  0  0  0  0  1  0  0
  -15.7012  -26.9477   26.2735 F   0  0  0  0  0  0  0  0  0  0  0  0
  -18.1437  -24.1836   23.3071 F   0  0  0  0  0  0  0  0  0  0  0  0
  1  2  1  0  0  0  0
  1  5  2  0  0  0  0
  2  6  2  0  0  0  0
  3  8  2  0  0  0  0
  3 15  1  0  0  0  0
  4  9  1  0  0  0  0
  4 15  2  0  0  0  0
  5 17  1  0  0  0  0
  6 19  1  0  0  0  0
  7 10  2  0  0  0  0
  7 18  1  0  0  0  0
  8 21  1  0  0  0  0
  9 21  2  0  0  0  0
 10 22  1  0  0  0  0
 11 12  2  0  0  0  0
 11 23  1  0  0  0  0
 12 24  1  0  0  0  0
 13 20  1  0  0  0  0
 13 22  2  0  0  0  0
 14 24  2  0  0  0  0
 14 25  1  0  0  0  0
 15 26  1  0  0  0  0
 16 26  1  0  0  0  0
 16 27  2  0  0  0  0
 16 28  1  0  0  0  0
 17 19  2  0  0  0  0
 17 33  1  0  0  0  0
 18 20  2  0  0  0  0
 18 34  1  0  0  0  0
 19 46  1  0  0  0  0
 20 35  1  0  0  0  0
 21 80  1  0  0  0  0
 22 81  1  0  0  0  0
 23 25  2  0  0  0  0
 23 80  1  0  0  0  0
 24 82  1  0  0  0  0
 25 83  1  0  0  0  0
 26 65  2  0  0  0  0
 27 66  1  0  0  0  0
 27 69  1  0  0  0  0
 28 70  1  0  0  0  0
 28 75  2  0  0  0  0
 29 47  1  0  0  0  0
 29 71  1  0  0  0  0
 29 76  2  0  0  0  0
 30 61  1  0  0  0  0
 30 67  1  0  0  0  0
 30 77  2  0  0  0  0
 31 62  1  0  0  0  0
 31 72  1  0  0  0  0
 31 78  2  0  0  0  0
 32 68  1  0  0  0  0
 32 73  1  0  0  0  0
 32 79  2  0  0  0  0
 33 36  1  0  0  0  0
 34 47  1  0  0  0  0
 35 67  1  0  0  0  0
 36 38  1  0  0  0  0
 37 43  1  0  0  0  0
 37 44  1  0  0  0  0
 38 46  1  0  0  0  0
 39 41  1  0  0  0  0
 39 48  1  0  0  0  0
 40 42  1  0  0  0  0
 40 48  1  0  0  0  0
 41 49  1  0  0  0  0
 42 49  1  0  0  0  0
 43 50  1  0  0  0  0
 44 68  1  0  0  0  0
 45 50  1  0  0  0  0
 45 68  1  0  0  0  0
 46 71  1  0  0  0  0
 47 67  1  0  0  0  0
 48 59  1  0  0  0  0
 49 63  1  0  0  0  0
 50 66  1  0  0  0  0
 51 62  1  0  0  0  0
 52 63  1  0  0  0  0
 53 63  1  0  0  0  0
 54 64  1  0  0  0  0
 55 64  1  0  0  0  0
 56 64  1  0  0  0  0
 57 73  1  0  0  0  0
 58 74  1  0  0  0  0
 59 81  1  0  0  0  0
 60 63  1  0  0  0  0
 60 73  1  0  0  0  0
 61 64  1  0  0  0  0
 61 72  1  0  0  0  0
 62 74  1  0  0  0  0
 65 66  1  0  0  0  0
M  CHG  1  74   1
M  ISO  4  32 100  59 101  73 100  81 101
M  END
> <Batch ID>
0087

> <Smiles>
CNC(C)C(=O)NC(C(=O)N1Cc2cc([101O:1][101CH2:1]C3CCC(C(C)(C)C[100N:0](C)[100C:0](=O)N4CCCC(n5nc(-c6ccc(Oc7ccc(F)cc7F)cc6)c(C(N)=O)c5N)C4)CC3)ccc2CC1C(=O)NC1CCCc2ccccc21)C(C)(C)C

> <Shape>
0.270

> <Color>
0.076

> <Negative vol penalty>
0.000

$$$$

  -OEChem-04052319013D

 91 99  0     1  0  0  0  0  0999 V2000
  -14.8111  -25.7461   24.2112 C   0  0  0  0  0  0  0  0  0  0  0  0
  -15.7631  -24.8214   23.7941 C   0  0  0  0  0  0  0  0  0  0  0  0
  -27.3896  -12.6860   21.4526 C   0  0  0  0  0  0  0  0  0  0  0  0
  -27.0922  -13.7747   19.3164 C   0  0  0  0  0  0  0  0  0  0  0  0
  -14.9958  -27.1026   23.9469 C   0  0  0  0  0  0  0  0  0  0  0  0
  -16.9000  -25.2526   23.1113 C   0  0  0  0  0  0  0  0  0  0  0  0
  -22.5301  -22.8684   23.4616 C   0  0  0  0  0  0  0  0  0  0  0  0
  -26.5207  -11.6697   21.0557 C   0  0  0  0  0  0  0  0  0  0  0  0
  -26.2233  -12.7583   18.9194 C   0  0  0  0  0  0  0  0  0  0  0  0
  -23.2224  -21.9740   22.6464 C   0  0  0  0  0  0  0  0  0  0  0  0
  -23.1830  -11.2122   20.7822 C   0  0  0  0  0  0  0  0  0  0  0  0
  -22.2118  -10.7982   21.6937 C   0  0  0  0  0  0  0  0  0  0  0  0
  -24.2746  -23.8275   21.5166 C   0  0  0  0  0  0  0  0  0  0  0  0
  -23.1260   -8.5622   21.6522 C   0  0  0  0  0  0  0  0  0  0  0  0
  -27.6754  -13.7386   20.5830 C   0  0  0  0  0  0  0  0  0  0  0  0
  -29.9688  -14.8303   20.8191 C   0  0  0  0  0  0  0  0  0  0  0  0
  -16.1402  -27.5516   23.2691 C   0  0  0  0  0  0  0  0  0  0  0  0
  -22.6969  -24.2516   23.3029 C   0  0  0  0  0  0  0  0  0  0  0  0
  -17.0995  -26.6161   22.8365 C   0  0  0  0  0  0  0  0  0  0  0  0
  -23.5853  -24.7373   22.3328 C   0  0  0  0  0  0  0  0  0  0  0  0
  -28.2556  -25.2952   18.5482 C   0  0  0  0  0  0  0  0  0  0  0  0
  -25.9376  -11.7058   19.7891 C   0  0  0  0  0  0  0  0  0  0  0  0
  -24.0926  -22.4536   21.6717 C   0  0  0  0  0  0  0  0  0  0  0  0
  -24.1257  -10.3013   20.3056 C   0  0  0  0  0  0  0  0  0  0  0  0
  -22.1832   -9.4732   22.1287 C   0  0  0  0  0  0  0  0  0  0  0  0
  -24.0972   -8.9763   20.7406 C   0  0  0  0  0  0  0  0  0  0  0  0
  -28.5724  -14.7891   20.9927 C   0  0  0  0  0  0  0  0  0  0  0  0
  -29.5175  -25.8170   18.7473 C   0  0  0  0  0  0  0  0  0  0  0  0
  -28.1490  -23.9253   18.6761 C   0  0  0  0  0  0  0  0  0  0  0  0
  -30.3488  -16.0273   21.3752 C   0  0  0  0  0  0  0  0  0  0  0  0
  -30.3658  -23.7461   19.1459 C   0  0  0  0  0  0  0  0  0  0  0  0
  -30.8442  -13.8723   20.2095 C   0  0  0  0  0  0  0  0  0  0  0  0
  -20.7815  -26.6681   22.5311 C   0  0  0  0  0  0  0  0  0  0  0  0
  -23.4010  -28.4534   23.2188 C   0  0  0  0  0  0  0  0  0  0  0  0
  -26.7977  -28.6248   23.5012 C   0  0  0  0  0  0  0  0  0  0  0  0
  -29.5935  -21.5069   22.1167 C   0  0  0  0  0  0  0  0  0  0  0  0
  -16.2731  -29.0227   22.9646 C   0  0  0  0  0  0  0  0  0  0  0  0
  -21.9631  -25.2027   24.2081 C   0  0  0  0  0  0  0  0  0  0  0  0
  -23.8151  -26.2127   22.1357 C   0  0  0  0  0  0  0  0  0  0  0  0
  -17.6871  -29.4368   22.5654 C   0  0  0  0  0  0  0  0  0  0  0  0
  -27.7550  -19.3042   24.2249 C   0  0  0  0  0  0  0  0  0  0  0  0
  -18.2580  -28.4646   21.5378 C   0  0  0  0  0  0  0  0  0  0  0  0
  -27.9138  -17.9386   23.5544 C   0  0  0  0  0  0  0  0  0  0  0  0
  -27.6428  -20.4280   23.1971 C   0  0  0  0  0  0  0  0  0  0  0  0
  -28.8923  -19.1056   21.5347 C   0  0  0  0  0  0  0  0  0  0  0  0
  -18.3579  -27.0475   22.1150 C   0  0  1  0  0  0  0  0  0  0  0  0
  -21.8195  -26.6011   23.6154 C   0  0  1  0  0  0  0  0  0  0  0  0
  -29.0656  -17.9468   22.5313 C   0  0  2  0  0  0  0  0  0  0  0  0
  -29.7540  -27.2874   18.6351 C   0  0  0  0  0  0  0  0  0  0  0  0
  -28.6509  -30.2276   24.0434 C   0  0  0  0  0  0  0  0  0  0  0  0
  -25.9953  -27.8674   14.8704 C   0  0  0  0  0  0  0  0  0  0  0  0
  -24.5538  -26.7652   16.5931 C   0  0  0  0  0  0  0  0  0  0  0  0
  -32.9802  -22.0027   21.3687 C   0  0  0  0  0  0  0  0  0  0  0  0
  -23.1007  -29.7289   20.4633 C   0  0  0  0  0  0  0  0  0  0  0  0
  -25.4464  -30.5776   20.6774 C   0  0  0  0  0  0  0  0  0  0  0  0
  -23.6988  -31.3260   22.2925 C   0  0  0  0  0  0  0  0  0  0  0  0
  -23.1684  -21.1084   19.2593 C   0  0  0  0  0  0  0  0  0  0  0  0
  -27.6717  -27.0101   25.8224 C   0  0  0  0  0  0  0  0  0  0  0  0
  -27.0864  -26.1540   18.2189 C   0  0  0  0  0  0  0  0  0  0  0  0
  -26.8204  -23.2408   18.4801 C   0  0  0  0  0  0  0  0  0  0  0  0
  -31.5371  -22.8862   19.4806 C   0  0  0  0  0  0  0  0  0  0  0  0
  -27.0956  -26.6081   16.7457 C   0  0  0  0  0  0  0  0  0  0  0  0
  -26.8534  -21.7902   18.9686 C   0  0  0  0  0  0  0  0  0  0  0  0
  -25.5128  -21.0981   18.7278 C   0  0  0  0  0  0  0  0  0  0  0  0
  -24.5847  -28.9622   22.4320 C   0  0  1  0  0  0  0  0  0  0  0  0
  -27.6906  -29.1847   24.5938 C   0  0  2  0  0  0  0  0  0  0  0  0
  -25.8863  -27.4737   16.3457 C   0  0  0  0  0  0  0  0  0  0  0  0
  -31.5787  -22.4453   20.9602 C   0  0  1  0  0  0  0  0  0  0  0  0
  -24.2021  -30.1208   21.4685 C   0  0  0  0  0  0  0  0  0  0  0  0
  -28.0974  -15.8736   21.6110 N   0  0  0  0  0  0  0  0  0  0  0  0
  -30.5990  -25.0688   19.0487 N   0  0  0  0  0  0  0  0  0  0  0  0
  -29.1873  -23.1173   18.9751 N   0  0  0  0  0  0  0  0  0  0  0  0
  -29.2016  -16.6075   21.8308 N   0  0  0  0  0  0  0  0  0  0  0  0
  -23.0697  -27.1027   23.0412 N   0  0  0  0  0  0  0  0  0  0  0  0
  -28.7660  -20.3807   22.2579 N   0  0  0  0  0  0  0  0  0  0  0  0
  -31.5489  -16.6296   21.5143 N   0  0  0  0  0  0  0  0  0  0  0  0
  -30.2883  -12.6961   19.6883 N   0  0  0  0  0  0  0  0  0  0  0  0
  -19.5060  -26.9376   22.9893 N   0  0  0  0  0  0  0  0  0  0  0  0
  -25.6062  -29.3132   23.4127 N   0  0  0  0  0  0  0  0  0  0  0  0
  -30.6386  -21.3756   21.2104 N   0  0  0  0  0  0  0  0  0  0  0  0
  -24.4488  -21.7840   19.4581 N   0  0  2  0  0  0  0  0  0  1  0  0
  -28.4900  -28.0936   25.2194 N   0  3  0  0  0  0  0  0  0  0  0  0
  -32.0848  -14.0466   20.1440 O   0  0  0  0  0  0  0  0  0  0  0  0
  -21.1134  -26.4900   21.3650 O   0  0  0  0  0  0  0  0  0  0  0  0
  -22.7971  -29.2243   23.9690 O   0  0  0  0  0  0  0  0  0  0  0  0
  -27.1260  -27.6745   22.7944 O   0  0  0  0  0  0  0  0  0  0  0  0
  -29.4175  -22.5501   22.7551 O   0  0  0  0  0  0  0  0  0  0  0  0
  -25.0898  -10.7141   19.4013 O   0  0  0  0  0  0  0  0  0  0  0  0
  -24.7690  -21.5828   20.8742 O   0  0  0  0  0  0  0  0  0  1  0  0
  -21.2514   -9.0761   23.0052 F   0  0  0  0  0  0  0  0  0  0  0  0
  -25.0010   -8.0968   20.2872 F   0  0  0  0  0  0  0  0  0  0  0  0
  1  2  1  0  0  0  0
  1  5  2  0  0  0  0
  2  6  2  0  0  0  0
  3  8  2  0  0  0  0
  3 15  1  0  0  0  0
  4  9  1  0  0  0  0
  4 15  2  0  0  0  0
  5 17  1  0  0  0  0
  6 19  1  0  0  0  0
  7 10  2  0  0  0  0
  7 18  1  0  0  0  0
  8 22  1  0  0  0  0
  9 22  2  0  0  0  0
 10 23  1  0  0  0  0
 11 12  2  0  0  0  0
 11 24  1  0  0  0  0
 12 25  1  0  0  0  0
 13 20  1  0  0  0  0
 13 23  2  0  0  0  0
 14 25  2  0  0  0  0
 14 26  1  0  0  0  0
 15 27  1  0  0  0  0
 16 27  1  0  0  0  0
 16 30  2  0  0  0  0
 16 32  1  0  0  0  0
 17 19  2  0  0  0  0
 17 37  1  0  0  0  0
 18 20  2  0  0  0  0
 18 38  1  0  0  0  0
 19 46  1  0  0  0  0
 20 39  1  0  0  0  0
 21 28  1  0  0  0  0
 21 29  2  0  0  0  0
 21 59  1  0  0  0  0
 22 88  1  0  0  0  0
 23 89  1  0  0  0  0
 24 26  2  0  0  0  0
 24 88  1  0  0  0  0
 25 90  1  0  0  0  0
 26 91  1  0  0  0  0
 27 70  2  0  0  0  0
 28 49  1  0  0  0  0
 28 71  2  0  0  0  0
 29 60  1  0  0  0  0
 29 72  1  0  0  0  0
 30 73  1  0  0  0  0
 30 76  1  0  0  0  0
 31 61  1  0  0  0  0
 31 71  1  0  0  0  0
 31 72  2  0  0  0  0
 32 77  1  0  0  0  0
 32 83  2  0  0  0  0
 33 47  1  0  0  0  0
 33 78  1  0  0  0  0
 33 84  2  0  0  0  0
 34 65  1  0  0  0  0
 34 74  1  0  0  0  0
 34 85  2  0  0  0  0
 35 66  1  0  0  0  0
 35 79  1  0  0  0  0
 35 86  2  0  0  0  0
 36 75  1  0  0  0  0
 36 80  1  0  0  0  0
 36 87  2  0  0  0  0
 37 40  1  0  0  0  0
 38 47  1  0  0  0  0
 39 74  1  0  0  0  0
 40 42  1  0  0  0  0
 41 43  1  0  0  0  0
 41 44  1  0  0  0  0
 42 46  1  0  0  0  0
 43 48  1  0  0  0  0
 44 75  1  0  0  0  0
 45 48  1  0  0  0  0
 45 75  1  0  0  0  0
 46 78  1  0  0  0  0
 47 74  1  0  0  0  0
 48 73  1  0  0  0  0
 50 66  1  0  0  0  0
 51 67  1  0  0  0  0
 52 67  1  0  0  0  0
 53 68  1  0  0  0  0
 54 69  1  0  0  0  0
 55 69  1  0  0  0  0
 56 69  1  0  0  0  0
 57 81  1  0  0  0  0
 58 82  1  0  0  0  0
 59 62  1  0  0  0  0
 60 63  1  0  0  0  0
 61 68  1  0  0  0  0
 62 67  1  0  0  0  0
 63 64  1  0  0  0  0
 64 81  1  0  0  0  0
 65 69  1  0  0  0  0
 65 79  1  0  0  0  0
 66 82  1  0  0  0  0
 68 80  1  0  0  0  0
 70 73  1  0  0  0  0
 81 89  1  0  0  0  0
M  CHG  1  82   1
M  ISO  4  36 100  80 100  81 101  89 101
M  END
> <Batch ID>
0087

> <Smiles>
CNC(C)C(=O)NC(C(=O)N1Cc2cc([101O:1][101N:1](C)CCCc3nc(CC(C)[100NH:0][100C:0](=O)N4CCCC(n5nc(-c6ccc(Oc7ccc(F)cc7F)cc6)c(C(N)=O)c5N)C4)nc(C)c3CCC(C)C)ccc2CC1C(=O)NC1CCCc2ccccc21)C(C)(C)C

> <Shape>
0.263

> <Color>
0.067

> <Negative vol penalty>
0.000

$$$$

  -OEChem-04052319013D

 88 96  0     1  0  0  0  0  0999 V2000
  -34.9380  -29.8112   21.0844 C   0  0  0  0  0  0  0  0  0  0  0  0
  -34.7587  -28.6024   21.7493 C   0  0  0  0  0  0  0  0  0  0  0  0
  -23.3058   -9.7907   19.9025 C   0  0  0  0  0  0  0  0  0  0  0  0
  -23.7335   -9.9331   22.2760 C   0  0  0  0  0  0  0  0  0  0  0  0
  -34.3244  -30.0246   19.8508 C   0  0  0  0  0  0  0  0  0  0  0  0
  -33.9648  -27.6066   21.1814 C   0  0  0  0  0  0  0  0  0  0  0  0
  -34.8160  -21.5540   21.5646 C   0  0  0  0  0  0  0  0  0  0  0  0
  -22.5842   -8.6139   20.1030 C   0  0  0  0  0  0  0  0  0  0  0  0
  -23.0119   -8.7563   22.4767 C   0  0  0  0  0  0  0  0  0  0  0  0
  -34.2498  -20.5770   22.3823 C   0  0  0  0  0  0  0  0  0  0  0  0
  -19.7683   -7.8265   22.6633 C   0  0  0  0  0  0  0  0  0  0  0  0
  -18.8561   -7.7993   23.7181 C   0  0  0  0  0  0  0  0  0  0  0  0
  -32.6540  -20.0596   20.6488 C   0  0  0  0  0  0  0  0  0  0  0  0
  -35.3343  -16.6563   21.6415 C   0  0  0  0  0  0  0  0  0  0  0  0
  -20.0632   -5.9587   24.7144 C   0  0  0  0  0  0  0  0  0  0  0  0
  -23.8804  -10.4503   20.9889 C   0  0  0  0  0  0  0  0  0  0  0  0
  -24.1271  -12.9818   20.7935 C   0  0  0  0  0  0  0  0  0  0  0  0
  -33.5304  -29.0273   19.2629 C   0  0  0  0  0  0  0  0  0  0  0  0
  -34.2977  -21.7990   20.2848 C   0  0  0  0  0  0  0  0  0  0  0  0
  -33.3389  -27.8074   19.9394 C   0  0  0  0  0  0  0  0  0  0  0  0
  -33.2171  -21.0384   19.8158 C   0  0  0  0  0  0  0  0  0  0  0  0
  -34.4054  -15.7718   22.1783 C   0  0  0  0  0  0  0  0  0  0  0  0
  -36.1070  -16.2681   20.5527 C   0  0  0  0  0  0  0  0  0  0  0  0
  -22.4373   -8.0968   21.3901 C   0  0  0  0  0  0  0  0  0  0  0  0
  -33.1668  -19.8316   21.9256 C   0  0  0  0  0  0  0  0  0  0  0  0
  -20.8279   -6.9198   22.6339 C   0  0  0  0  0  0  0  0  0  0  0  0
  -19.0036   -6.8654   24.7437 C   0  0  0  0  0  0  0  0  0  0  0  0
  -20.9753   -5.9860   23.6594 C   0  0  0  0  0  0  0  0  0  0  0  0
  -24.6264  -11.6656   20.7823 C   0  0  0  0  0  0  0  0  0  0  0  0
  -34.2886  -14.5206   21.5945 C   0  0  0  0  0  0  0  0  0  0  0  0
  -35.9142  -14.9947   20.0418 C   0  0  0  0  0  0  0  0  0  0  0  0
  -25.2264  -13.7681   20.5491 C   0  0  0  0  0  0  0  0  0  0  0  0
  -22.7893  -13.4516   21.0059 C   0  0  0  0  0  0  0  0  0  0  0  0
  -32.9584  -24.2979   18.8477 C   0  0  0  0  0  0  0  0  0  0  0  0
  -33.1035  -22.3797   16.2358 C   0  0  0  0  0  0  0  0  0  0  0  0
  -33.2645  -19.2139   14.9716 C   0  0  0  0  0  0  0  0  0  0  0  0
  -30.9817  -12.9001   21.5387 C   0  0  0  0  0  0  0  0  0  0  0  0
  -32.8491  -29.3218   17.9500 C   0  0  0  0  0  0  0  0  0  0  0  0
  -34.9368  -22.8380   19.4048 C   0  0  0  0  0  0  0  0  0  0  0  0
  -32.6364  -21.2486   18.4421 C   0  0  0  0  0  0  0  0  0  0  0  0
  -32.3278  -28.0745   17.2410 C   0  0  0  0  0  0  0  0  0  0  0  0
  -29.4736  -13.6861   18.3441 C   0  0  0  0  0  0  0  0  0  0  0  0
  -31.5794  -27.1768   18.2212 C   0  0  0  0  0  0  0  0  0  0  0  0
  -28.0007  -13.3774   18.6188 C   0  0  0  0  0  0  0  0  0  0  0  0
  -30.3883  -12.6892   19.0495 C   0  0  0  0  0  0  0  0  0  0  0  0
  -28.6998  -12.2790   20.7971 C   0  0  0  0  0  0  0  0  0  0  0  0
  -32.5052  -26.6935   19.3441 C   0  0  1  0  0  0  0  0  0  0  0  0
  -34.0018  -23.3563   18.3164 C   0  0  1  0  0  0  0  0  0  0  0  0
  -27.7241  -13.2654   20.1298 C   0  0  2  0  0  0  0  0  0  0  0  0
  -36.7156  -14.5250   18.8720 C   0  0  0  0  0  0  0  0  0  0  0  0
  -34.9789  -12.4582   23.7538 C   0  0  0  0  0  0  0  0  0  0  0  0
  -33.4840  -17.4034   13.2479 C   0  0  0  0  0  0  0  0  0  0  0  0
  -37.1129  -18.5700   20.7405 C   0  0  0  0  0  0  0  0  0  0  0  0
  -36.7898  -17.5198   18.4757 C   0  0  0  0  0  0  0  0  0  0  0  0
  -38.5891  -16.7150   19.9911 C   0  0  0  0  0  0  0  0  0  0  0  0
  -30.1166  -22.8770   15.8596 C   0  0  0  0  0  0  0  0  0  0  0  0
  -30.0552  -20.9104   14.3114 C   0  0  0  0  0  0  0  0  0  0  0  0
  -31.4522  -22.8980   13.7452 C   0  0  0  0  0  0  0  0  0  0  0  0
  -36.2174  -19.2229   15.1698 C   0  0  0  0  0  0  0  0  0  0  0  0
  -33.5642  -16.1866   23.3589 C   0  0  0  0  0  0  0  0  0  0  0  0
  -33.9913  -12.2294   22.6162 C   0  0  0  0  0  0  0  0  0  0  0  0
  -32.1224  -16.5447   22.9924 C   0  0  0  0  0  0  0  0  0  0  0  0
  -32.0161  -17.7555   22.0725 C   0  0  0  0  0  0  0  0  0  1  0  0
  -33.3084  -13.5284   22.1290 C   0  0  2  0  0  0  0  0  0  0  0  0
  -32.1879  -21.3561   15.6090 C   0  0  1  0  0  0  0  0  0  0  0  0
  -34.1548  -18.5984   13.9071 C   0  0  2  0  0  0  0  0  0  0  0  0
  -37.1043  -17.2109   19.9731 C   0  0  0  0  0  0  0  0  0  0  0  0
  -30.9625  -22.0075   14.9080 C   0  0  0  0  0  0  0  0  0  0  0  0
  -25.9405  -11.6145   20.5491 N   0  0  0  0  0  0  0  0  0  0  0  0
  -35.0216  -14.1078   20.5363 N   0  0  0  0  0  0  0  0  0  0  0  0
  -26.2763  -12.9085   20.4114 N   0  0  0  0  0  0  0  0  0  0  0  0
  -33.2919  -22.2804   17.6216 N   0  0  0  0  0  0  0  0  0  0  0  0
  -30.0860  -12.6443   20.4871 N   0  0  0  0  0  0  0  0  0  0  0  0
  -25.3877  -15.1040   20.4406 N   0  0  0  0  0  0  0  0  0  0  0  0
  -21.7798  -12.5088   21.2436 N   0  0  0  0  0  0  0  0  0  0  0  0
  -33.3550  -25.6213   18.8722 N   0  0  0  0  0  0  0  0  0  0  0  0
  -33.0223  -20.5488   14.7255 N   0  0  0  0  0  0  0  0  0  0  0  0
  -32.2766  -13.2324   21.1601 N   0  0  0  0  0  0  0  0  0  0  0  0
  -35.4409  -18.1436   14.5071 N   0  3  0  0  0  0  0  0  0  0  0  0
  -22.4947  -14.6704   20.9693 O   0  0  0  0  0  0  0  0  0  0  0  0
  -31.8732  -23.8566   19.2074 O   0  0  0  0  0  0  0  0  0  0  0  0
  -33.6375  -23.2316   15.5212 O   0  0  0  0  0  0  0  0  0  0  0  0
  -32.8247  -18.5735   15.9239 O   0  0  0  0  0  0  0  0  0  0  0  0
  -30.6503  -12.8420   22.7278 O   0  0  0  0  0  0  0  0  0  0  0  0
  -21.7331   -6.9486   21.5863 O   0  0  0  0  0  0  0  0  0  0  0  0
  -32.6118  -18.8779   22.7220 O   0  0  0  0  0  0  0  0  0  1  0  0
  -18.1284   -6.8404   25.7575 F   0  0  0  0  0  0  0  0  0  0  0  0
  -21.9919   -5.1131   23.6373 F   0  0  0  0  0  0  0  0  0  0  0  0
  1  2  1  0  0  0  0
  1  5  2  0  0  0  0
  2  6  2  0  0  0  0
  3  8  2  0  0  0  0
  3 16  1  0  0  0  0
  4  9  1  0  0  0  0
  4 16  2  0  0  0  0
  5 18  1  0  0  0  0
  6 20  1  0  0  0  0
  7 10  2  0  0  0  0
  7 19  1  0  0  0  0
  8 24  1  0  0  0  0
  9 24  2  0  0  0  0
 10 25  1  0  0  0  0
 11 12  2  0  0  0  0
 11 26  1  0  0  0  0
 12 27  1  0  0  0  0
 13 21  1  0  0  0  0
 13 25  2  0  0  0  0
 14 22  1  0  0  0  0
 14 23  2  0  0  0  0
 15 27  2  0  0  0  0
 15 28  1  0  0  0  0
 16 29  1  0  0  0  0
 17 29  1  0  0  0  0
 17 32  2  0  0  0  0
 17 33  1  0  0  0  0
 18 20  2  0  0  0  0
 18 38  1  0  0  0  0
 19 21  2  0  0  0  0
 19 39  1  0  0  0  0
 20 47  1  0  0  0  0
 21 40  1  0  0  0  0
 22 30  2  0  0  0  0
 22 60  1  0  0  0  0
 23 31  1  0  0  0  0
 23 67  1  0  0  0  0
 24 85  1  0  0  0  0
 25 86  1  0  0  0  0
 26 28  2  0  0  0  0
 26 85  1  0  0  0  0
 27 87  1  0  0  0  0
 28 88  1  0  0  0  0
 29 69  2  0  0  0  0
 30 64  1  0  0  0  0
 30 70  1  0  0  0  0
 31 50  1  0  0  0  0
 31 70  2  0  0  0  0
 32 71  1  0  0  0  0
 32 74  1  0  0  0  0
 33 75  1  0  0  0  0
 33 80  2  0  0  0  0
 34 48  1  0  0  0  0
 34 76  1  0  0  0  0
 34 81  2  0  0  0  0
 35 65  1  0  0  0  0
 35 72  1  0  0  0  0
 35 82  2  0  0  0  0
 36 66  1  0  0  0  0
 36 77  1  0  0  0  0
 36 83  2  0  0  0  0
 37 73  1  0  0  0  0
 37 78  1  0  0  0  0
 37 84  2  0  0  0  0
 38 41  1  0  0  0  0
 39 48  1  0  0  0  0
 40 72  1  0  0  0  0
 41 43  1  0  0  0  0
 42 44  1  0  0  0  0
 42 45  1  0  0  0  0
 43 47  1  0  0  0  0
 44 49  1  0  0  0  0
 45 73  1  0  0  0  0
 46 49  1  0  0  0  0
 46 73  1  0  0  0  0
 47 76  1  0  0  0  0
 48 72  1  0  0  0  0
 49 71  1  0  0  0  0
 51 61  1  0  0  0  0
 52 66  1  0  0  0  0
 53 67  1  0  0  0  0
 54 67  1  0  0  0  0
 55 67  1  0  0  0  0
 56 68  1  0  0  0  0
 57 68  1  0  0  0  0
 58 68  1  0  0  0  0
 59 79  1  0  0  0  0
 60 62  1  0  0  0  0
 61 64  1  0  0  0  0
 62 63  1  0  0  0  0
 63 86  1  0  0  0  0
 64 78  1  0  0  0  0
 65 68  1  0  0  0  0
 65 77  1  0  0  0  0
 66 79  1  0  0  0  0
 69 71  1  0  0  0  0
M  CHG  1  79   1
M  ISO  4  37 100  63 101  78 100  86 101
M  END
> <Batch ID>
0087

> <Smiles>
CCC([100NH:0][100C:0](=O)N1CCCC(n2nc(-c3ccc(Oc4ccc(F)cc4F)cc3)c(C(N)=O)c2N)C1)c1nc(C)c(C(C)(C)C)cc1CC[101CH2:1][101O:1]c1ccc2c(c1)CN(C(=O)C(NC(=O)C(C)NC)C(C)(C)C)C(C(=O)NC1CCCc3ccccc31)C2

> <Shape>
0.149

> <Color>
0.170

> <Negative vol penalty>
0.000

$$$$

  -OEChem-04052319013D

 89 97  0     1  0  0  0  0  0999 V2000
  -21.4032  -12.7153   19.7963 C   0  0  0  0  0  0  0  0  0  0  0  0
  -21.5187  -14.0488   20.1756 C   0  0  0  0  0  0  0  0  0  0  0  0
  -29.0352  -25.9337   23.8538 C   0  0  0  0  0  0  0  0  0  0  0  0
  -27.0319  -24.6487   24.2693 C   0  0  0  0  0  0  0  0  0  0  0  0
  -22.5023  -11.8640   19.9022 C   0  0  0  0  0  0  0  0  0  0  0  0
  -22.7331  -14.5315   20.6621 C   0  0  0  0  0  0  0  0  0  0  0  0
  -23.9870  -19.0095   18.6572 C   0  0  0  0  0  0  0  0  0  0  0  0
  -29.6380  -25.3552   24.9707 C   0  0  0  0  0  0  0  0  0  0  0  0
  -27.6347  -24.0701   25.3862 C   0  0  0  0  0  0  0  0  0  0  0  0
  -23.3435  -20.1372   19.1652 C   0  0  0  0  0  0  0  0  0  0  0  0
  -29.8749  -21.6196   26.0164 C   0  0  0  0  0  0  0  0  0  0  0  0
  -29.7403  -20.2412   26.1824 C   0  0  0  0  0  0  0  0  0  0  0  0
  -25.2770  -20.6209   20.5241 C   0  0  0  0  0  0  0  0  0  0  0  0
  -20.6361  -25.6723   22.2817 C   0  0  0  0  0  0  0  0  0  0  0  0
  -28.6400  -20.6041   28.3025 C   0  0  0  0  0  0  0  0  0  0  0  0
  -27.7321  -25.5805   23.5031 C   0  0  0  0  0  0  0  0  0  0  0  0
  -27.1387  -25.7028   21.0251 C   0  0  0  0  0  0  0  0  0  0  0  0
  -23.7335  -12.3389   20.3811 C   0  0  0  0  0  0  0  0  0  0  0  0
  -25.2783  -18.6724   19.0877 C   0  0  0  0  0  0  0  0  0  0  0  0
  -23.8493  -13.6854   20.7757 C   0  0  0  0  0  0  0  0  0  0  0  0
  -25.9357  -19.4899   20.0182 C   0  0  0  0  0  0  0  0  0  0  0  0
  -21.0595  -24.6914   23.1716 C   0  0  0  0  0  0  0  0  0  0  0  0
  -20.7101  -24.7812   24.5144 C   0  0  0  0  0  0  0  0  0  0  0  0
  -28.9378  -24.4234   25.7369 C   0  0  0  0  0  0  0  0  0  0  0  0
  -23.9874  -20.9415   20.1009 C   0  0  0  0  0  0  0  0  0  0  0  0
  -29.3921  -22.4902   26.9934 C   0  0  0  0  0  0  0  0  0  0  0  0
  -29.1229  -19.7335   27.3255 C   0  0  0  0  0  0  0  0  0  0  0  0
  -28.7747  -21.9825   28.1365 C   0  0  0  0  0  0  0  0  0  0  0  0
  -27.1087  -26.1783   22.3498 C   0  0  0  0  0  0  0  0  0  0  0  0
  -19.8713  -26.7143   22.7808 C   0  0  0  0  0  0  0  0  0  0  0  0
  -19.9422  -25.8632   24.9136 C   0  0  0  0  0  0  0  0  0  0  0  0
  -26.4025  -26.6191   20.3146 C   0  0  0  0  0  0  0  0  0  0  0  0
  -27.7751  -24.5370   20.4851 C   0  0  0  0  0  0  0  0  0  0  0  0
  -26.5614  -16.1887   20.6005 C   0  0  0  0  0  0  0  0  0  0  0  0
  -29.3396  -17.7461   19.9851 C   0  0  0  0  0  0  0  0  0  0  0  0
  -30.9207  -20.6953   19.3149 C   0  0  0  0  0  0  0  0  0  0  0  0
  -22.0478  -30.4281   21.8571 C   0  0  0  0  0  0  0  0  0  0  0  0
  -24.8803  -11.3695   20.5221 C   0  0  0  0  0  0  0  0  0  0  0  0
  -25.9691  -17.4676   18.5101 C   0  0  0  0  0  0  0  0  0  0  0  0
  -27.3301  -19.1829   20.4977 C   0  0  0  0  0  0  0  0  0  0  0  0
  -26.2356  -12.0503   20.6948 C   0  0  0  0  0  0  0  0  0  0  0  0
  -25.1574  -31.2387   20.3243 C   0  0  0  0  0  0  0  0  0  0  0  0
  -26.1441  -13.1668   21.7301 C   0  0  0  0  0  0  0  0  0  0  0  0
  -26.0128  -29.9908   20.5500 C   0  0  0  0  0  0  0  0  0  0  0  0
  -24.2448  -31.5204   21.5158 C   0  0  0  0  0  0  0  0  0  0  0  0
  -24.2499  -29.1395   22.1519 C   0  0  0  0  0  0  0  0  0  0  0  0
  -25.1567  -14.2524   21.2849 C   0  0  1  0  0  0  0  0  0  0  0  0
  -27.0836  -16.9323   19.4038 C   0  0  1  0  0  0  0  0  0  0  0  0
  -25.1465  -28.7827   20.9539 C   0  0  2  0  0  0  0  0  0  0  0  0
  -20.3212  -22.4635   25.3882 C   0  0  0  0  0  0  0  0  0  0  0  0
  -17.0137  -25.9724   25.8895 C   0  0  0  0  0  0  0  0  0  0  0  0
  -17.8588  -27.8253   21.7612 C   0  0  0  0  0  0  0  0  0  0  0  0
  -20.6148  -26.7491   27.1616 C   0  0  0  0  0  0  0  0  0  0  0  0
  -33.2005  -21.6581   18.8989 C   0  0  0  0  0  0  0  0  0  0  0  0
  -29.9618  -17.5545   22.9661 C   0  0  0  0  0  0  0  0  0  0  0  0
  -31.7146  -19.3125   22.6422 C   0  0  0  0  0  0  0  0  0  0  0  0
  -31.9136  -17.1232   21.4632 C   0  0  0  0  0  0  0  0  0  0  0  0
  -30.1629  -21.6215   16.6080 C   0  0  0  0  0  0  0  0  0  0  0  0
  -21.8955  -23.5468   22.6573 C   0  0  0  0  0  0  0  0  0  0  0  0
  -21.1479  -23.7425   25.4915 C   0  0  0  0  0  0  0  0  0  0  0  0
  -18.1686  -26.7255   26.5384 C   0  0  0  0  0  0  0  0  0  0  0  0
  -23.2021  -23.9877   21.9941 C   0  0  0  0  0  0  0  0  0  0  0  0
  -19.9263  -29.1925   22.2202 C   0  0  0  0  0  0  0  0  0  0  0  0
  -24.0797  -22.8215   21.5545 C   0  0  0  0  0  0  0  0  0  1  0  0
  -19.3981  -27.7844   21.8546 C   0  0  1  0  0  0  0  0  0  0  0  0
  -19.5341  -26.0134   26.3428 C   0  0  1  0  0  0  0  0  0  0  0  0
  -30.1652  -18.7847   20.7053 C   0  0  1  0  0  0  0  0  0  0  0  0
  -31.9499  -21.0703   18.2639 C   0  0  2  0  0  0  0  0  0  0  0  0
  -30.9118  -18.1987   21.9368 C   0  0  0  0  0  0  0  0  0  0  0  0
  -26.4090  -27.3089   22.4760 N   0  0  0  0  0  0  0  0  0  0  0  0
  -19.5121  -26.8355   24.0785 N   0  0  0  0  0  0  0  0  0  0  0  0
  -25.9926  -27.5516   21.2215 N   0  0  0  0  0  0  0  0  0  0  0  0
  -27.9611  -17.9905   19.9082 N   0  0  0  0  0  0  0  0  0  0  0  0
  -23.4494  -30.3356   21.8464 N   0  0  0  0  0  0  0  0  0  0  0  0
  -26.0724  -26.7102   19.0088 N   0  0  0  0  0  0  0  0  0  0  0  0
  -28.4912  -23.7033   21.3549 N   0  0  0  0  0  0  0  0  0  0  0  0
  -25.7617  -15.1067   20.2855 N   0  0  0  0  0  0  0  0  0  0  0  0
  -31.0421  -19.3772   19.7012 N   0  0  0  0  0  0  0  0  0  0  0  0
  -21.3701  -29.2573   22.1745 N   0  0  0  0  0  0  0  0  0  0  0  0
  -31.3844  -22.0763   17.3209 N   0  3  0  0  0  0  0  0  0  0  0  0
  -27.7244  -24.2521   19.2646 O   0  0  0  0  0  0  0  0  0  0  0  0
  -26.8630  -16.5677   21.7262 O   0  0  0  0  0  0  0  0  0  0  0  0
  -29.8982  -16.7580   19.5022 O   0  0  0  0  0  0  0  0  0  0  0  0
  -30.0943  -21.4929   19.7523 O   0  0  0  0  0  0  0  0  0  0  0  0
  -21.4449  -31.4750   21.5975 O   0  0  0  0  0  0  0  0  0  0  0  0
  -29.5258  -23.8584   26.8267 O   0  0  0  0  0  0  0  0  0  0  0  0
  -23.3613  -22.0424   20.5989 O   0  0  0  0  0  0  0  0  0  1  0  0
  -28.9923  -18.4098   27.4841 F   0  0  0  0  0  0  0  0  0  0  0  0
  -28.3078  -22.8140   29.0780 F   0  0  0  0  0  0  0  0  0  0  0  0
  1  2  1  0  0  0  0
  1  5  2  0  0  0  0
  2  6  2  0  0  0  0
  3  8  2  0  0  0  0
  3 16  1  0  0  0  0
  4  9  1  0  0  0  0
  4 16  2  0  0  0  0
  5 18  1  0  0  0  0
  6 20  1  0  0  0  0
  7 10  2  0  0  0  0
  7 19  1  0  0  0  0
  8 24  1  0  0  0  0
  9 24  2  0  0  0  0
 10 25  1  0  0  0  0
 11 12  2  0  0  0  0
 11 26  1  0  0  0  0
 12 27  1  0  0  0  0
 13 21  1  0  0  0  0
 13 25  2  0  0  0  0
 14 22  2  0  0  0  0
 14 30  1  0  0  0  0
 15 27  2  0  0  0  0
 15 28  1  0  0  0  0
 16 29  1  0  0  0  0
 17 29  1  0  0  0  0
 17 32  2  0  0  0  0
 17 33  1  0  0  0  0
 18 20  2  0  0  0  0
 18 38  1  0  0  0  0
 19 21  2  0  0  0  0
 19 39  1  0  0  0  0
 20 47  1  0  0  0  0
 21 40  1  0  0  0  0
 22 23  1  0  0  0  0
 22 59  1  0  0  0  0
 23 31  2  0  0  0  0
 23 60  1  0  0  0  0
 24 86  1  0  0  0  0
 25 87  1  0  0  0  0
 26 28  2  0  0  0  0
 26 86  1  0  0  0  0
 27 88  1  0  0  0  0
 28 89  1  0  0  0  0
 29 70  2  0  0  0  0
 30 65  1  0  0  0  0
 30 71  2  0  0  0  0
 31 66  1  0  0  0  0
 31 71  1  0  0  0  0
 32 72  1  0  0  0  0
 32 75  1  0  0  0  0
 33 76  1  0  0  0  0
 33 81  2  0  0  0  0
 34 48  1  0  0  0  0
 34 77  1  0  0  0  0
 34 82  2  0  0  0  0
 35 67  1  0  0  0  0
 35 73  1  0  0  0  0
 35 83  2  0  0  0  0
 36 68  1  0  0  0  0
 36 78  1  0  0  0  0
 36 84  2  0  0  0  0
 37 74  1  0  0  0  0
 37 79  1  0  0  0  0
 37 85  2  0  0  0  0
 38 41  1  0  0  0  0
 39 48  1  0  0  0  0
 40 73  1  0  0  0  0
 41 43  1  0  0  0  0
 42 44  1  0  0  0  0
 42 45  1  0  0  0  0
 43 47  1  0  0  0  0
 44 49  1  0  0  0  0
 45 74  1  0  0  0  0
 46 49  1  0  0  0  0
 46 74  1  0  0  0  0
 47 77  1  0  0  0  0
 48 73  1  0  0  0  0
 49 72  1  0  0  0  0
 50 60  1  0  0  0  0
 51 61  1  0  0  0  0
 52 65  1  0  0  0  0
 53 66  1  0  0  0  0
 54 68  1  0  0  0  0
 55 69  1  0  0  0  0
 56 69  1  0  0  0  0
 57 69  1  0  0  0  0
 58 80  1  0  0  0  0
 59 62  1  0  0  0  0
 61 66  1  0  0  0  0
 62 64  1  0  0  0  0
 63 65  1  0  0  0  0
 63 79  1  0  0  0  0
 64 87  1  0  0  0  0
 67 69  1  0  0  0  0
 67 78  1  0  0  0  0
 68 80  1  0  0  0  0
 70 72  1  0  0  0  0
M  CHG  1  80   1
M  ISO  4  37 100  64 101  79 100  87 101
M  END
> <Batch ID>
0087

> <Smiles>
CCc1c(CC[101CH2:1][101O:1]c2ccc3c(c2)CN(C(=O)C(NC(=O)C(C)NC)C(C)(C)C)C(C(=O)NC2CCCc4ccccc42)C3)cc(C(C)C[100NH:0][100C:0](=O)N2CCCC(n3nc(-c4ccc(Oc5ccc(F)cc5F)cc4)c(C(N)=O)c3N)C2)nc1C(C)CC

> <Shape>
0.192

> <Color>
0.076

> <Negative vol penalty>
0.000

$$$$

  -OEChem-04052319013D

 90 98  0     1  0  0  0  0  0999 V2000
  -31.0655  -30.1513   24.8569 C   0  0  0  0  0  0  0  0  0  0  0  0
  -31.4043  -29.0108   24.1358 C   0  0  0  0  0  0  0  0  0  0  0  0
  -23.0378  -10.0139   19.7436 C   0  0  0  0  0  0  0  0  0  0  0  0
  -23.8925   -9.7049   21.9821 C   0  0  0  0  0  0  0  0  0  0  0  0
  -29.7244  -30.4657   25.0721 C   0  0  0  0  0  0  0  0  0  0  0  0
  -30.4021  -28.1835   23.6303 C   0  0  0  0  0  0  0  0  0  0  0  0
  -30.5264  -25.0366   18.3780 C   0  0  0  0  0  0  0  0  0  0  0  0
  -27.0933  -18.7154   20.4242 C   0  0  0  0  0  0  0  0  0  0  0  0
  -22.2920   -8.8417   19.8665 C   0  0  0  0  0  0  0  0  0  0  0  0
  -23.1466   -8.5326   22.1050 C   0  0  0  0  0  0  0  0  0  0  0  0
  -30.8162  -23.7036   18.0898 C   0  0  0  0  0  0  0  0  0  0  0  0
  -21.1880   -5.6504   23.1419 C   0  0  0  0  0  0  0  0  0  0  0  0
  -20.4806   -5.4523   24.3276 C   0  0  0  0  0  0  0  0  0  0  0  0
  -26.5198  -18.9873   21.6613 C   0  0  0  0  0  0  0  0  0  0  0  0
  -28.4599  -23.1886   18.1314 C   0  0  0  0  0  0  0  0  0  0  0  0
  -19.2288   -7.4780   23.9193 C   0  0  0  0  0  0  0  0  0  0  0  0
  -23.8382  -10.4455   20.8014 C   0  0  0  0  0  0  0  0  0  0  0  0
  -24.2034  -12.9616   21.0102 C   0  0  0  0  0  0  0  0  0  0  0  0
  -28.7051  -29.6470   24.5608 C   0  0  0  0  0  0  0  0  0  0  0  0
  -29.1996  -25.4541   18.5561 C   0  0  0  0  0  0  0  0  0  0  0  0
  -29.0460  -28.4866   23.8401 C   0  0  0  0  0  0  0  0  0  0  0  0
  -28.1558  -24.5279   18.4192 C   0  0  0  0  0  0  0  0  0  0  0  0
  -28.4385  -18.3717   20.3482 C   0  0  0  0  0  0  0  0  0  0  0  0
  -22.3463   -8.1010   21.0472 C   0  0  0  0  0  0  0  0  0  0  0  0
  -29.7831  -22.7789   17.9693 C   0  0  0  0  0  0  0  0  0  0  0  0
  -20.9158   -6.7624   22.3449 C   0  0  0  0  0  0  0  0  0  0  0  0
  -19.5010   -6.3660   24.7164 C   0  0  0  0  0  0  0  0  0  0  0  0
  -19.9362   -7.6761   22.7336 C   0  0  0  0  0  0  0  0  0  0  0  0
  -24.6093  -11.6560   20.6748 C   0  0  0  0  0  0  0  0  0  0  0  0
  -27.3280  -18.9024   22.7835 C   0  0  0  0  0  0  0  0  0  0  0  0
  -29.1608  -18.3146   21.5292 C   0  0  0  0  0  0  0  0  0  0  0  0
  -25.2879  -13.7473   20.7056 C   0  0  0  0  0  0  0  0  0  0  0  0
  -22.9574  -13.4228   21.5492 C   0  0  0  0  0  0  0  0  0  0  0  0
  -27.5499  -26.7197   20.9603 C   0  0  0  0  0  0  0  0  0  0  0  0
  -25.2147  -26.9543   18.7211 C   0  0  0  0  0  0  0  0  0  0  0  0
  -23.8933  -25.8258   15.7839 C   0  0  0  0  0  0  0  0  0  0  0  0
  -30.7860  -14.7005   20.7957 C   0  0  0  0  0  0  0  0  0  0  0  0
  -27.2701  -30.0023   24.8596 C   0  0  0  0  0  0  0  0  0  0  0  0
  -28.9020  -26.9008   18.8402 C   0  0  0  0  0  0  0  0  0  0  0  0
  -26.7132  -24.9294   18.5811 C   0  0  0  0  0  0  0  0  0  0  0  0
  -26.2647  -29.2754   23.9701 C   0  0  0  0  0  0  0  0  0  0  0  0
  -29.5231  -12.6690   18.1586 C   0  0  0  0  0  0  0  0  0  0  0  0
  -26.6047  -27.7909   23.8829 C   0  0  0  0  0  0  0  0  0  0  0  0
  -28.1016  -12.3272   18.6087 C   0  0  0  0  0  0  0  0  0  0  0  0
  -30.4918  -12.7194   19.3380 C   0  0  0  0  0  0  0  0  0  0  0  0
  -28.6578  -13.2659   20.8909 C   0  0  0  0  0  0  0  0  0  0  0  0
  -27.9872  -27.5776   23.2546 C   0  0  1  0  0  0  0  0  0  0  0  0
  -27.5476  -27.1119   19.5099 C   0  0  1  0  0  0  0  0  0  0  0  0
  -27.6336  -13.2584   19.7432 C   0  0  2  0  0  0  0  0  0  0  0  0
  -31.4999  -19.1000   22.0150 C   0  0  0  0  0  0  0  0  0  0  0  0
  -21.9585  -26.1864   14.2270 C   0  0  0  0  0  0  0  0  0  0  0  0
  -26.1838  -15.7337   27.0389 C   0  0  0  0  0  0  0  0  0  0  0  0
  -25.6986  -14.9426   24.7194 C   0  0  0  0  0  0  0  0  0  0  0  0
  -27.9421  -14.5147   25.7320 C   0  0  0  0  0  0  0  0  0  0  0  0
  -23.3840  -25.4646   20.6549 C   0  0  0  0  0  0  0  0  0  0  0  0
  -21.8340  -25.0242   18.7387 C   0  0  0  0  0  0  0  0  0  0  0  0
  -22.3001  -27.3693   19.4500 C   0  0  0  0  0  0  0  0  0  0  0  0
  -25.6818  -26.5799   13.5498 C   0  0  0  0  0  0  0  0  0  0  0  0
  -29.0664  -18.0770   19.0093 C   0  0  0  0  0  0  0  0  0  0  0  0
  -26.7449  -19.1861   24.1276 C   0  0  0  0  0  0  0  0  0  0  0  0
  -29.9405  -19.2138   18.4753 C   0  0  0  0  0  0  0  0  0  0  0  0
  -26.1745  -17.9219   24.7927 C   0  0  0  0  0  0  0  0  0  0  0  0
  -27.2664  -16.8711   25.0299 C   0  0  0  0  0  0  0  0  0  0  0  0
  -30.9277  -16.6626   22.3088 C   0  0  0  0  0  0  0  0  0  0  0  0
  -29.1621  -20.4945   18.1975 C   0  0  0  0  0  0  0  0  0  1  0  0
  -30.6085  -17.9478   21.5087 C   0  0  1  0  0  0  0  0  0  0  0  0
  -24.0959  -26.0593   18.2454 C   0  0  1  0  0  0  0  0  0  0  0  0
  -23.3950  -26.5634   14.5543 C   0  0  2  0  0  0  0  0  0  0  0  0
  -26.7881  -15.5266   25.6403 C   0  0  0  0  0  0  0  0  0  0  0  0
  -22.9307  -25.9711   19.2710 C   0  0  0  0  0  0  0  0  0  0  0  0
  -25.8545  -11.6108   20.1937 N   0  0  0  0  0  0  0  0  0  0  0  0
  -28.6384  -18.5719   22.7492 N   0  0  0  0  0  0  0  0  0  0  0  0
  -26.2403  -12.8978   20.2246 N   0  0  0  0  0  0  0  0  0  0  0  0
  -26.4737  -26.3541   18.8644 N   0  0  0  0  0  0  0  0  0  0  0  0
  -29.9903  -13.6210   20.3779 N   0  0  0  0  0  0  0  0  0  0  0  0
  -25.5102  -15.0752   20.8048 N   0  0  0  0  0  0  0  0  0  0  0  0
  -21.9501  -12.4819   21.8030 N   0  0  0  0  0  0  0  0  0  0  0  0
  -27.9197  -27.7382   21.8179 N   0  0  0  0  0  0  0  0  0  0  0  0
  -23.7008  -26.5617   16.9340 N   0  0  0  0  0  0  0  0  0  0  0  0
  -30.2330  -15.5096   21.7807 N   0  0  0  0  0  0  0  0  0  0  0  0
  -24.2465  -26.2388   13.3751 N   0  3  0  0  0  0  0  0  0  0  0  0
  -22.7377  -14.6355   21.7828 O   0  0  0  0  0  0  0  0  0  0  0  0
  -27.2378  -25.5781   21.2780 O   0  0  0  0  0  0  0  0  0  0  0  0
  -24.9817  -28.1438   18.9501 O   0  0  0  0  0  0  0  0  0  0  0  0
  -24.3990  -24.7069   15.7301 O   0  0  0  0  0  0  0  0  0  0  0  0
  -31.9040  -14.9296   20.3219 O   0  0  0  0  0  0  0  0  0  0  0  0
  -21.6184   -6.9573   21.1676 O   0  0  0  0  0  0  0  0  0  0  0  0
  -30.0632  -21.4771   17.6887 O   0  0  0  0  0  0  0  0  0  1  0  0
  -18.8208   -6.1748   25.8543 F   0  0  0  0  0  0  0  0  0  0  0  0
  -19.6695   -8.7456   21.9714 F   0  0  0  0  0  0  0  0  0  0  0  0
  1  2  1  0  0  0  0
  1  5  2  0  0  0  0
  2  6  2  0  0  0  0
  3  9  2  0  0  0  0
  3 17  1  0  0  0  0
  4 10  1  0  0  0  0
  4 17  2  0  0  0  0
  5 19  1  0  0  0  0
  6 21  1  0  0  0  0
  7 11  2  0  0  0  0
  7 20  1  0  0  0  0
  8 14  2  0  0  0  0
  8 23  1  0  0  0  0
  9 24  1  0  0  0  0
 10 24  2  0  0  0  0
 11 25  1  0  0  0  0
 12 13  2  0  0  0  0
 12 26  1  0  0  0  0
 13 27  1  0  0  0  0
 14 30  1  0  0  0  0
 15 22  1  0  0  0  0
 15 25  2  0  0  0  0
 16 27  2  0  0  0  0
 16 28  1  0  0  0  0
 17 29  1  0  0  0  0
 18 29  1  0  0  0  0
 18 32  2  0  0  0  0
 18 33  1  0  0  0  0
 19 21  2  0  0  0  0
 19 38  1  0  0  0  0
 20 22  2  0  0  0  0
 20 39  1  0  0  0  0
 21 47  1  0  0  0  0
 22 40  1  0  0  0  0
 23 31  2  0  0  0  0
 23 59  1  0  0  0  0
 24 87  1  0  0  0  0
 25 88  1  0  0  0  0
 26 28  2  0  0  0  0
 26 87  1  0  0  0  0
 27 89  1  0  0  0  0
 28 90  1  0  0  0  0
 29 71  2  0  0  0  0
 30 60  1  0  0  0  0
 30 72  2  0  0  0  0
 31 66  1  0  0  0  0
 31 72  1  0  0  0  0
 32 73  1  0  0  0  0
 32 76  1  0  0  0  0
 33 77  1  0  0  0  0
 33 82  2  0  0  0  0
 34 48  1  0  0  0  0
 34 78  1  0  0  0  0
 34 83  2  0  0  0  0
 35 67  1  0  0  0  0
 35 74  1  0  0  0  0
 35 84  2  0  0  0  0
 36 68  1  0  0  0  0
 36 79  1  0  0  0  0
 36 85  2  0  0  0  0
 37 75  1  0  0  0  0
 37 80  1  0  0  0  0
 37 86  2  0  0  0  0
 38 41  1  0  0  0  0
 39 48  1  0  0  0  0
 40 74  1  0  0  0  0
 41 43  1  0  0  0  0
 42 44  1  0  0  0  0
 42 45  1  0  0  0  0
 43 47  1  0  0  0  0
 44 49  1  0  0  0  0
 45 75  1  0  0  0  0
 46 49  1  0  0  0  0
 46 75  1  0  0  0  0
 47 78  1  0  0  0  0
 48 74  1  0  0  0  0
 49 73  1  0  0  0  0
 50 66  1  0  0  0  0
 51 68  1  0  0  0  0
 52 69  1  0  0  0  0
 53 69  1  0  0  0  0
 54 69  1  0  0  0  0
 55 70  1  0  0  0  0
 56 70  1  0  0  0  0
 57 70  1  0  0  0  0
 58 81  1  0  0  0  0
 59 61  1  0  0  0  0
 60 62  1  0  0  0  0
 61 65  1  0  0  0  0
 62 63  1  0  0  0  0
 63 69  1  0  0  0  0
 64 66  1  0  0  0  0
 64 80  1  0  0  0  0
 65 88  1  0  0  0  0
 67 70  1  0  0  0  0
 67 79  1  0  0  0  0
 68 81  1  0  0  0  0
 71 73  1  0  0  0  0
M  CHG  1  81   1
M  ISO  4  37 100  65 101  80 100  88 101
M  END
> <Batch ID>
0087

> <Smiles>
CNC(C)C(=O)NC(C(=O)N1Cc2cc([101O:1][101CH2:1]CCc3ccc(CCCC(C)(C)C)nc3C(C)C[100NH:0][100C:0](=O)N3CCCC(n4nc(-c5ccc(Oc6ccc(F)cc6F)cc5)c(C(N)=O)c4N)C3)ccc2CC1C(=O)NC1CCCc2ccccc21)C(C)(C)C

> <Shape>
0.289

> <Color>
0.167

> <Negative vol penalty>
0.000

$$$$

  -OEChem-04052319013D

 85 93  0     1  0  0  0  0  0999 V2000
  -17.1006  -29.8378   24.6364 C   0  0  0  0  0  0  0  0  0  0  0  0
  -17.6448  -28.5593   24.5664 C   0  0  0  0  0  0  0  0  0  0  0  0
  -30.4044  -21.2333   17.6311 C   0  0  0  0  0  0  0  0  0  0  0  0
  -29.3536  -21.5544   19.7828 C   0  0  0  0  0  0  0  0  0  0  0  0
  -17.4589  -30.7992   23.6924 C   0  0  0  0  0  0  0  0  0  0  0  0
  -18.5468  -28.2413   23.5517 C   0  0  0  0  0  0  0  0  0  0  0  0
  -23.3488  -24.4609   23.9461 C   0  0  0  0  0  0  0  0  0  0  0  0
  -21.2200  -17.4858   19.8066 C   0  0  0  0  0  0  0  0  0  0  0  0
  -30.2464  -22.5906   17.3514 C   0  0  0  0  0  0  0  0  0  0  0  0
  -29.1957  -22.9118   19.5031 C   0  0  0  0  0  0  0  0  0  0  0  0
  -23.5261  -23.1282   23.5774 C   0  0  0  0  0  0  0  0  0  0  0  0
  -27.7681  -24.6519   16.3349 C   0  0  0  0  0  0  0  0  0  0  0  0
  -27.2933  -25.0014   15.0708 C   0  0  0  0  0  0  0  0  0  0  0  0
  -21.0350  -16.4714   18.8738 C   0  0  0  0  0  0  0  0  0  0  0  0
  -24.4908  -23.8418   21.4847 C   0  0  0  0  0  0  0  0  0  0  0  0
  -29.3180  -26.2528   14.6564 C   0  0  0  0  0  0  0  0  0  0  0  0
  -29.9579  -20.7152   18.8468 C   0  0  0  0  0  0  0  0  0  0  0  0
  -31.2186  -18.6963   19.7647 C   0  0  0  0  0  0  0  0  0  0  0  0
  -18.3732  -30.4957   22.6713 C   0  0  0  0  0  0  0  0  0  0  0  0
  -23.7318  -25.4959   23.0809 C   0  0  0  0  0  0  0  0  0  0  0  0
  -18.9167  -29.1993   22.5924 C   0  0  0  0  0  0  0  0  0  0  0  0
  -24.3197  -25.1869   21.8459 C   0  0  0  0  0  0  0  0  0  0  0  0
  -22.0026  -17.2533   20.9321 C   0  0  0  0  0  0  0  0  0  0  0  0
  -29.6421  -23.4299   18.2874 C   0  0  0  0  0  0  0  0  0  0  0  0
  -24.0945  -22.8184   22.3453 C   0  0  0  0  0  0  0  0  0  0  0  0
  -29.0178  -25.1030   16.7599 C   0  0  0  0  0  0  0  0  0  0  0  0
  -28.0683  -25.8018   14.2315 C   0  0  0  0  0  0  0  0  0  0  0  0
  -29.7928  -25.9034   15.9206 C   0  0  0  0  0  0  0  0  0  0  0  0
  -30.1203  -19.3130   19.1361 C   0  0  0  0  0  0  0  0  0  0  0  0
  -21.6493  -15.2523   19.1109 C   0  0  0  0  0  0  0  0  0  0  0  0
  -22.5735  -15.9991   21.0772 C   0  0  0  0  0  0  0  0  0  0  0  0
  -30.8884  -17.3637   19.8033 C   0  0  0  0  0  0  0  0  0  0  0  0
  -32.4291  -19.2762   20.2688 C   0  0  0  0  0  0  0  0  0  0  0  0
  -22.2065  -27.8507   21.5869 C   0  0  0  0  0  0  0  0  0  0  0  0
  -25.2110  -28.7406   20.7482 C   0  0  0  0  0  0  0  0  0  0  0  0
  -28.4619  -27.8394   20.2323 C   0  0  0  0  0  0  0  0  0  0  0  0
  -25.6538  -14.4571   19.7581 C   0  0  0  0  0  0  0  0  0  0  0  0
  -18.6938  -31.5541   21.6458 C   0  0  0  0  0  0  0  0  0  0  0  0
  -23.5584  -26.9286   23.5048 C   0  0  0  0  0  0  0  0  0  0  0  0
  -24.7665  -26.2611   20.8894 C   0  0  0  0  0  0  0  0  0  0  0  0
  -19.9428  -31.2470   20.8236 C   0  0  0  0  0  0  0  0  0  0  0  0
  -28.3383  -14.0683   17.4519 C   0  0  0  0  0  0  0  0  0  0  0  0
  -19.9209  -29.8006   20.3395 C   0  0  0  0  0  0  0  0  0  0  0  0
  -29.1985  -15.3128   17.6787 C   0  0  0  0  0  0  0  0  0  0  0  0
  -26.8495  -14.3786   17.5900 C   0  0  0  0  0  0  0  0  0  0  0  0
  -27.3291  -16.2820   19.0802 C   0  0  0  0  0  0  0  0  0  0  0  0
  -19.9173  -28.8233   21.5212 C   0  0  1  0  0  0  0  0  0  0  0  0
  -23.5127  -27.8985   22.3281 C   0  0  1  0  0  0  0  0  0  0  0  0
  -28.8408  -16.0073   19.0065 C   0  0  2  0  0  0  0  0  0  0  0  0
  -22.5473  -14.1510   17.0452 C   0  0  0  0  0  0  0  0  0  0  0  0
  -22.5879  -15.2046   23.4631 C   0  0  0  0  0  0  0  0  0  0  0  0
  -30.6759  -28.7773   19.5139 C   0  0  0  0  0  0  0  0  0  0  0  0
  -24.2657  -28.7439   17.8471 C   0  0  0  0  0  0  0  0  0  0  0  0
  -26.6667  -28.7418   17.1377 C   0  0  0  0  0  0  0  0  0  0  0  0
  -25.7602  -30.6533   18.4595 C   0  0  0  0  0  0  0  0  0  0  0  0
  -29.7182  -27.1707   22.8272 C   0  0  0  0  0  0  0  0  0  0  0  0
  -22.2059  -18.3490   21.9479 C   0  0  0  0  0  0  0  0  0  0  0  0
  -21.4734  -14.1419   18.1295 C   0  0  0  0  0  0  0  0  0  0  0  0
  -23.2014  -19.4231   21.5044 C   0  0  0  0  0  0  0  0  0  0  0  0
  -24.5455  -14.6669   21.9687 C   0  0  0  0  0  0  0  0  0  0  0  0
  -23.3358  -20.5697   22.4997 C   0  0  0  0  0  0  0  0  0  1  0  0
  -23.4263  -15.6934   22.2646 C   0  0  1  0  0  0  0  0  0  0  0  0
  -26.1369  -28.4274   19.5977 C   0  0  1  0  0  0  0  0  0  0  0  0
  -29.7660  -28.4658   20.6920 C   0  0  2  0  0  0  0  0  0  0  0  0
  -25.6973  -29.1211   18.2775 C   0  0  0  0  0  0  0  0  0  0  0  0
  -29.1639  -18.4435   18.7994 N   0  0  0  0  0  0  0  0  0  0  0  0
  -22.4165  -14.9891   20.1924 N   0  0  0  0  0  0  0  0  0  0  0  0
  -29.6603  -17.2669   19.2179 N   0  0  0  0  0  0  0  0  0  0  0  0
  -24.5700  -27.6467   21.3467 N   0  0  0  0  0  0  0  0  0  0  0  0
  -26.5771  -15.0348   18.8711 N   0  0  0  0  0  0  0  0  0  0  0  0
  -31.5316  -16.2769   20.2804 N   0  0  0  0  0  0  0  0  0  0  0  0
  -32.6072  -20.6612   20.1483 N   0  0  0  0  0  0  0  0  0  0  0  0
  -21.2448  -28.7083   22.0860 N   0  0  0  0  0  0  0  0  0  0  0  0
  -27.4785  -28.7873   20.0437 N   0  0  0  0  0  0  0  0  0  0  0  0
  -25.4590  -15.1398   20.9526 N   0  0  0  0  0  0  0  0  0  0  0  0
  -30.4881  -27.5425   21.6123 N   0  3  0  0  0  0  0  0  0  0  0  0
  -33.3334  -18.5845   20.7953 O   0  0  0  0  0  0  0  0  0  0  0  0
  -22.0811  -27.0930   20.6320 O   0  0  0  0  0  0  0  0  0  0  0  0
  -25.0676  -29.9120   21.1074 O   0  0  0  0  0  0  0  0  0  0  0  0
  -28.3300  -26.6304   20.0543 O   0  0  0  0  0  0  0  0  0  0  0  0
  -25.0519  -13.4076   19.5067 O   0  0  0  0  0  0  0  0  0  0  0  0
  -29.4880  -24.7545   18.0149 O   0  0  0  0  0  0  0  0  0  0  0  0
  -24.2681  -21.5183   21.9826 O   0  0  0  0  0  0  0  0  0  1  0  0
  -27.6130  -26.1360   13.0170 F   0  0  0  0  0  0  0  0  0  0  0  0
  -30.9946  -26.3387   16.3228 F   0  0  0  0  0  0  0  0  0  0  0  0
  1  2  1  0  0  0  0
  1  5  2  0  0  0  0
  2  6  2  0  0  0  0
  3  9  2  0  0  0  0
  3 17  1  0  0  0  0
  4 10  1  0  0  0  0
  4 17  2  0  0  0  0
  5 19  1  0  0  0  0
  6 21  1  0  0  0  0
  7 11  2  0  0  0  0
  7 20  1  0  0  0  0
  8 14  2  0  0  0  0
  8 23  1  0  0  0  0
  9 24  1  0  0  0  0
 10 24  2  0  0  0  0
 11 25  1  0  0  0  0
 12 13  2  0  0  0  0
 12 26  1  0  0  0  0
 13 27  1  0  0  0  0
 14 30  1  0  0  0  0
 15 22  1  0  0  0  0
 15 25  2  0  0  0  0
 16 27  2  0  0  0  0
 16 28  1  0  0  0  0
 17 29  1  0  0  0  0
 18 29  1  0  0  0  0
 18 32  2  0  0  0  0
 18 33  1  0  0  0  0
 19 21  2  0  0  0  0
 19 38  1  0  0  0  0
 20 22  2  0  0  0  0
 20 39  1  0  0  0  0
 21 47  1  0  0  0  0
 22 40  1  0  0  0  0
 23 31  2  0  0  0  0
 23 57  1  0  0  0  0
 24 82  1  0  0  0  0
 25 83  1  0  0  0  0
 26 28  2  0  0  0  0
 26 82  1  0  0  0  0
 27 84  1  0  0  0  0
 28 85  1  0  0  0  0
 29 66  2  0  0  0  0
 30 58  1  0  0  0  0
 30 67  2  0  0  0  0
 31 62  1  0  0  0  0
 31 67  1  0  0  0  0
 32 68  1  0  0  0  0
 32 71  1  0  0  0  0
 33 72  1  0  0  0  0
 33 77  2  0  0  0  0
 34 48  1  0  0  0  0
 34 73  1  0  0  0  0
 34 78  2  0  0  0  0
 35 63  1  0  0  0  0
 35 69  1  0  0  0  0
 35 79  2  0  0  0  0
 36 64  1  0  0  0  0
 36 74  1  0  0  0  0
 36 80  2  0  0  0  0
 37 70  1  0  0  0  0
 37 75  1  0  0  0  0
 37 81  2  0  0  0  0
 38 41  1  0  0  0  0
 39 48  1  0  0  0  0
 40 69  1  0  0  0  0
 41 43  1  0  0  0  0
 42 44  1  0  0  0  0
 42 45  1  0  0  0  0
 43 47  1  0  0  0  0
 44 49  1  0  0  0  0
 45 70  1  0  0  0  0
 46 49  1  0  0  0  0
 46 70  1  0  0  0  0
 47 73  1  0  0  0  0
 48 69  1  0  0  0  0
 49 68  1  0  0  0  0
 50 58  1  0  0  0  0
 51 62  1  0  0  0  0
 52 64  1  0  0  0  0
 53 65  1  0  0  0  0
 54 65  1  0  0  0  0
 55 65  1  0  0  0  0
 56 76  1  0  0  0  0
 57 59  1  0  0  0  0
 59 61  1  0  0  0  0
 60 62  1  0  0  0  0
 60 75  1  0  0  0  0
 61 83  1  0  0  0  0
 63 65  1  0  0  0  0
 63 74  1  0  0  0  0
 64 76  1  0  0  0  0
 66 68  1  0  0  0  0
M  CHG  1  76   1
M  ISO  4  37 100  61 101  75 100  83 101
M  END
> <Batch ID>
0087

> <Smiles>
CCc1ccc(CC[101CH2:1][101O:1]c2ccc3c(c2)CN(C(=O)C(NC(=O)C(C)NC)C(C)(C)C)C(C(=O)NC2CCCc4ccccc42)C3)c(C(C)C[100NH:0][100C:0](=O)N2CCCC(n3nc(-c4ccc(Oc5ccc(F)cc5F)cc4)c(C(N)=O)c3N)C2)n1

> <Shape>
0.187

> <Color>
0.078

> <Negative vol penalty>
0.000

$$$$

  -OEChem-04052319013D

 86 94  0     1  0  0  0  0  0999 V2000
  -17.7059  -26.9002   25.7188 C   0  0  0  0  0  0  0  0  0  0  0  0
  -18.8349  -26.1449   25.4181 C   0  0  0  0  0  0  0  0  0  0  0  0
  -22.9772   -9.9880   19.9102 C   0  0  0  0  0  0  0  0  0  0  0  0
  -23.8210   -9.8232   22.1681 C   0  0  0  0  0  0  0  0  0  0  0  0
  -17.0307  -27.5769   24.7039 C   0  0  0  0  0  0  0  0  0  0  0  0
  -19.2887  -26.0650   24.1020 C   0  0  0  0  0  0  0  0  0  0  0  0
  -25.1077  -25.6858   22.2308 C   0  0  0  0  0  0  0  0  0  0  0  0
  -22.2092   -8.8415   20.1135 C   0  0  0  0  0  0  0  0  0  0  0  0
  -23.0530   -8.6767   22.3714 C   0  0  0  0  0  0  0  0  0  0  0  0
  -25.8993  -24.6062   21.8414 C   0  0  0  0  0  0  0  0  0  0  0  0
  -19.2942   -8.0314   21.6232 C   0  0  0  0  0  0  0  0  0  0  0  0
  -17.9695   -8.0528   21.1869 C   0  0  0  0  0  0  0  0  0  0  0  0
  -25.3769  -25.0643   19.5313 C   0  0  0  0  0  0  0  0  0  0  0  0
  -18.4222   -6.1866   19.7208 C   0  0  0  0  0  0  0  0  0  0  0  0
  -23.7832  -10.4788   20.9375 C   0  0  0  0  0  0  0  0  0  0  0  0
  -24.1951  -12.9962   20.9683 C   0  0  0  0  0  0  0  0  0  0  0  0
  -17.4821  -27.5131   23.3761 C   0  0  0  0  0  0  0  0  0  0  0  0
  -24.4349  -26.4574   21.2725 C   0  0  0  0  0  0  0  0  0  0  0  0
  -18.6181  -26.7405   23.0681 C   0  0  0  0  0  0  0  0  0  0  0  0
  -24.5795  -26.1547   19.9110 C   0  0  0  0  0  0  0  0  0  0  0  0
  -29.1373  -18.4753   18.3257 C   0  0  0  0  0  0  0  0  0  0  0  0
  -22.2471   -8.1859   21.3441 C   0  0  0  0  0  0  0  0  0  0  0  0
  -26.0317  -24.2936   20.4916 C   0  0  0  0  0  0  0  0  0  0  0  0
  -20.1829   -7.0877   21.1082 C   0  0  0  0  0  0  0  0  0  0  0  0
  -17.5335   -7.1304   20.2358 C   0  0  0  0  0  0  0  0  0  0  0  0
  -19.7469   -6.1653   20.1571 C   0  0  0  0  0  0  0  0  0  0  0  0
  -24.5772  -11.6628   20.7279 C   0  0  0  0  0  0  0  0  0  0  0  0
  -30.5396  -18.3645   18.2697 C   0  0  0  0  0  0  0  0  0  0  0  0
  -28.8343  -18.3292   19.6574 C   0  0  0  0  0  0  0  0  0  0  0  0
  -25.2948  -13.7380   20.6123 C   0  0  0  0  0  0  0  0  0  0  0  0
  -22.9568  -13.5176   21.4686 C   0  0  0  0  0  0  0  0  0  0  0  0
  -21.3847  -27.0947   20.6447 C   0  0  0  0  0  0  0  0  0  0  0  0
  -22.6631  -29.1350   18.4709 C   0  0  0  0  0  0  0  0  0  0  0  0
  -25.3140  -29.9704   16.4906 C   0  0  0  0  0  0  0  0  0  0  0  0
  -30.8096  -14.5930   20.6538 C   0  0  0  0  0  0  0  0  0  0  0  0
  -16.6917  -28.2234   22.3058 C   0  0  0  0  0  0  0  0  0  0  0  0
  -23.6063  -27.6350   21.7072 C   0  0  0  0  0  0  0  0  0  0  0  0
  -23.8943  -26.9643   18.8416 C   0  0  0  0  0  0  0  0  0  0  0  0
  -17.4556  -28.3913   20.9949 C   0  0  0  0  0  0  0  0  0  0  0  0
  -29.5146  -12.4028   18.1634 C   0  0  0  0  0  0  0  0  0  0  0  0
  -18.1321  -27.0824   20.5998 C   0  0  0  0  0  0  0  0  0  0  0  0
  -28.0860  -12.1204   18.6317 C   0  0  0  0  0  0  0  0  0  0  0  0
  -30.4815  -12.5190   19.3396 C   0  0  0  0  0  0  0  0  0  0  0  0
  -28.6547  -13.2085   20.8433 C   0  0  0  0  0  0  0  0  0  0  0  0
  -19.1556  -26.6495   21.6564 C   0  0  1  0  0  0  0  0  0  0  0  0
  -22.5541  -28.0376   20.6784 C   0  0  1  0  0  0  0  0  0  0  0  0
  -27.6330  -13.1384   19.6954 C   0  0  2  0  0  0  0  0  0  0  0  0
  -28.2020  -18.6971   17.2093 C   0  0  0  0  0  0  0  0  0  0  0  0
  -32.1898  -17.1383   16.8113 C   0  0  0  0  0  0  0  0  0  0  0  0
  -32.3992  -19.6300   17.1319 C   0  0  0  0  0  0  0  0  0  0  0  0
  -26.0490  -31.6694   14.7963 C   0  0  0  0  0  0  0  0  0  0  0  0
  -20.9184  -27.7844   16.3633 C   0  0  0  0  0  0  0  0  0  0  0  0
  -22.3551  -28.8340   14.6019 C   0  0  0  0  0  0  0  0  0  0  0  0
  -21.0521  -30.2740   16.1675 C   0  0  0  0  0  0  0  0  0  0  0  0
  -27.5659  -30.8627   18.1910 C   0  0  0  0  0  0  0  0  0  0  0  0
  -27.5139  -18.3453   20.3856 C   0  0  0  0  0  0  0  0  0  0  0  0
  -27.2418  -19.6482   21.1455 C   0  0  0  0  0  0  0  0  0  0  0  0
  -27.1373  -20.8664   20.2268 C   0  0  0  0  0  0  0  0  0  0  0  0
  -30.2347  -17.9464   21.7086 C   0  0  0  0  0  0  0  0  0  0  0  0
  -30.9847  -16.6548   22.0241 C   0  0  0  0  0  0  0  0  0  0  0  0
  -26.9066  -22.1460   21.0193 C   0  0  0  0  0  0  0  0  0  1  0  0
  -31.4056  -18.4449   17.0802 C   0  0  0  0  0  0  0  0  0  0  0  0
  -23.0805  -29.0314   17.0238 C   0  0  1  0  0  0  0  0  0  0  0  0
  -26.0292  -31.2909   16.2691 C   0  0  2  0  0  0  0  0  0  0  0  0
  -21.8630  -28.9643   16.0591 C   0  0  0  0  0  0  0  0  0  0  0  0
  -25.8224  -11.5604   20.2556 N   0  0  0  0  0  0  0  0  0  0  0  0
  -31.0894  -18.1638   19.4703 N   0  0  0  0  0  0  0  0  0  0  0  0
  -30.0271  -18.1473   20.2933 N   0  0  0  0  0  0  0  0  0  0  0  0
  -26.2322  -12.8389   20.1963 N   0  0  0  0  0  0  0  0  0  0  0  0
  -23.0901  -28.1020   19.3173 N   0  0  0  0  0  0  0  0  0  0  0  0
  -29.9947  -13.5015   20.3111 N   0  0  0  0  0  0  0  0  0  0  0  0
  -25.5418  -15.0652   20.6177 N   0  0  0  0  0  0  0  0  0  0  0  0
  -21.9314  -12.6160   21.7852 N   0  0  0  0  0  0  0  0  0  0  0  0
  -20.3728  -27.4216   21.5271 N   0  0  0  0  0  0  0  0  0  0  0  0
  -23.9778  -30.1549   16.7764 N   0  0  0  0  0  0  0  0  0  0  0  0
  -30.2697  -15.4803   21.5769 N   0  0  0  0  0  0  0  0  0  0  0  0
  -27.4367  -31.2050   16.7512 N   0  3  0  0  0  0  0  0  0  0  0  0
  -22.7594  -14.7477   21.6147 O   0  0  0  0  0  0  0  0  0  0  0  0
  -21.3988  -26.1421   19.8740 O   0  0  0  0  0  0  0  0  0  0  0  0
  -21.9892  -30.1007   18.8382 O   0  0  0  0  0  0  0  0  0  0  0  0
  -25.8830  -28.8837   16.4138 O   0  0  0  0  0  0  0  0  0  0  0  0
  -31.9328  -14.7671   20.1689 O   0  0  0  0  0  0  0  0  0  0  0  0
  -21.4976   -7.0673   21.5429 O   0  0  0  0  0  0  0  0  0  0  0  0
  -26.8032  -23.2400   20.1088 O   0  0  0  0  0  0  0  0  0  1  0  0
  -16.2610   -7.1500   19.8181 F   0  0  0  0  0  0  0  0  0  0  0  0
  -20.5958   -5.2555   19.6596 F   0  0  0  0  0  0  0  0  0  0  0  0
  1  2  1  0  0  0  0
  1  5  2  0  0  0  0
  2  6  2  0  0  0  0
  3  8  2  0  0  0  0
  3 15  1  0  0  0  0
  4  9  1  0  0  0  0
  4 15  2  0  0  0  0
  5 17  1  0  0  0  0
  6 19  1  0  0  0  0
  7 10  2  0  0  0  0
  7 18  1  0  0  0  0
  8 22  1  0  0  0  0
  9 22  2  0  0  0  0
 10 23  1  0  0  0  0
 11 12  2  0  0  0  0
 11 24  1  0  0  0  0
 12 25  1  0  0  0  0
 13 20  1  0  0  0  0
 13 23  2  0  0  0  0
 14 25  2  0  0  0  0
 14 26  1  0  0  0  0
 15 27  1  0  0  0  0
 16 27  1  0  0  0  0
 16 30  2  0  0  0  0
 16 31  1  0  0  0  0
 17 19  2  0  0  0  0
 17 36  1  0  0  0  0
 18 20  2  0  0  0  0
 18 37  1  0  0  0  0
 19 45  1  0  0  0  0
 20 38  1  0  0  0  0
 21 28  1  0  0  0  0
 21 29  2  0  0  0  0
 21 48  1  0  0  0  0
 22 83  1  0  0  0  0
 23 84  1  0  0  0  0
 24 26  2  0  0  0  0
 24 83  1  0  0  0  0
 25 85  1  0  0  0  0
 26 86  1  0  0  0  0
 27 66  2  0  0  0  0
 28 62  1  0  0  0  0
 28 67  2  0  0  0  0
 29 56  1  0  0  0  0
 29 68  1  0  0  0  0
 30 69  1  0  0  0  0
 30 72  1  0  0  0  0
 31 73  1  0  0  0  0
 31 78  2  0  0  0  0
 32 46  1  0  0  0  0
 32 74  1  0  0  0  0
 32 79  2  0  0  0  0
 33 63  1  0  0  0  0
 33 70  1  0  0  0  0
 33 80  2  0  0  0  0
 34 64  1  0  0  0  0
 34 75  1  0  0  0  0
 34 81  2  0  0  0  0
 35 71  1  0  0  0  0
 35 76  1  0  0  0  0
 35 82  2  0  0  0  0
 36 39  1  0  0  0  0
 37 46  1  0  0  0  0
 38 70  1  0  0  0  0
 39 41  1  0  0  0  0
 40 42  1  0  0  0  0
 40 43  1  0  0  0  0
 41 45  1  0  0  0  0
 42 47  1  0  0  0  0
 43 71  1  0  0  0  0
 44 47  1  0  0  0  0
 44 71  1  0  0  0  0
 45 74  1  0  0  0  0
 46 70  1  0  0  0  0
 47 69  1  0  0  0  0
 49 62  1  0  0  0  0
 50 62  1  0  0  0  0
 51 64  1  0  0  0  0
 52 65  1  0  0  0  0
 53 65  1  0  0  0  0
 54 65  1  0  0  0  0
 55 77  1  0  0  0  0
 56 57  1  0  0  0  0
 57 58  1  0  0  0  0
 58 61  1  0  0  0  0
 59 60  1  0  0  0  0
 59 68  1  0  0  0  0
 60 76  1  0  0  0  0
 61 84  1  0  0  0  0
 63 65  1  0  0  0  0
 63 75  1  0  0  0  0
 64 77  1  0  0  0  0
 66 69  1  0  0  0  0
 67 68  1  0  0  0  0
M  CHG  1  77   1
M  ISO  4  35 100  61 101  76 100  84 101
M  END
> <Batch ID>
0087

> <Smiles>
CNC(C)C(=O)NC(C(=O)N1Cc2cc([101O:1][101CH2:1]CCCc3c(C)c(C(C)C)nn3CC[100NH:0][100C:0](=O)N3CCCC(n4nc(-c5ccc(Oc6ccc(F)cc6F)cc5)c(C(N)=O)c4N)C3)ccc2CC1C(=O)NC1CCCc2ccccc21)C(C)(C)C

> <Shape>
0.261

> <Color>
0.198

> <Negative vol penalty>
0.000

$$$$

  -OEChem-04052319013D

 85 93  0     1  0  0  0  0  0999 V2000
  -19.1318  -25.3544   19.8333 C   0  0  0  0  0  0  0  0  0  0  0  0
  -19.5158  -24.2200   19.1253 C   0  0  0  0  0  0  0  0  0  0  0  0
  -26.1192  -25.6894   20.6453 C   0  0  0  0  0  0  0  0  0  0  0  0
  -27.2574  -25.6383   22.7758 C   0  0  0  0  0  0  0  0  0  0  0  0
  -19.7094  -25.6304   21.0719 C   0  0  0  0  0  0  0  0  0  0  0  0
  -20.4784  -23.3615   19.6551 C   0  0  0  0  0  0  0  0  0  0  0  0
  -22.2774  -16.4302   19.8484 C   0  0  0  0  0  0  0  0  0  0  0  0
  -25.3337  -26.7527   21.0905 C   0  0  0  0  0  0  0  0  0  0  0  0
  -26.4719  -26.7016   23.2210 C   0  0  0  0  0  0  0  0  0  0  0  0
  -23.3679  -15.5936   19.6145 C   0  0  0  0  0  0  0  0  0  0  0  0
  -25.6645  -30.0925   21.5020 C   0  0  0  0  0  0  0  0  0  0  0  0
  -25.4827  -31.1710   20.6364 C   0  0  0  0  0  0  0  0  0  0  0  0
  -24.2396  -16.1291   21.7991 C   0  0  0  0  0  0  0  0  0  0  0  0
  -28.3354  -13.1423   20.8986 C   0  0  0  0  0  0  0  0  0  0  0  0
  -23.0960  -30.7977   20.6724 C   0  0  0  0  0  0  0  0  0  0  0  0
  -29.5629  -13.3232   18.4684 C   0  0  0  0  0  0  0  0  0  0  0  0
  -27.0810  -25.1322   21.4880 C   0  0  0  0  0  0  0  0  0  0  0  0
  -29.1329  -24.1107   20.3683 C   0  0  0  0  0  0  0  0  0  0  0  0
  -20.6726  -24.7697   21.6216 C   0  0  0  0  0  0  0  0  0  0  0  0
  -22.1653  -17.1322   21.0571 C   0  0  0  0  0  0  0  0  0  0  0  0
  -21.0704  -23.6270   20.9016 C   0  0  0  0  0  0  0  0  0  0  0  0
  -23.1455  -16.9720   22.0469 C   0  0  0  0  0  0  0  0  0  0  0  0
  -27.6206  -12.8274   19.7483 C   0  0  0  0  0  0  0  0  0  0  0  0
  -28.2388  -12.9169   18.5061 C   0  0  0  0  0  0  0  0  0  0  0  0
  -25.5101  -27.2588   22.3782 C   0  0  0  0  0  0  0  0  0  0  0  0
  -24.3507  -15.4451   20.5887 C   0  0  0  0  0  0  0  0  0  0  0  0
  -24.5620  -29.3665   21.9528 C   0  0  0  0  0  0  0  0  0  0  0  0
  -24.1985  -31.5236   20.2216 C   0  0  0  0  0  0  0  0  0  0  0  0
  -23.2778  -29.7191   21.5380 C   0  0  0  0  0  0  0  0  0  0  0  0
  -27.8923  -24.0334   21.0290 C   0  0  0  0  0  0  0  0  0  0  0  0
  -29.6552  -13.5383   20.7539 C   0  0  0  0  0  0  0  0  0  0  0  0
  -29.4871  -22.8020   20.1486 C   0  0  0  0  0  0  0  0  0  0  0  0
  -29.8970  -25.2626   19.9873 C   0  0  0  0  0  0  0  0  0  0  0  0
  -22.0753  -20.2047   21.8667 C   0  0  0  0  0  0  0  0  0  0  0  0
  -21.4746  -19.0071   24.8208 C   0  0  0  0  0  0  0  0  0  0  0  0
  -21.7362  -16.3885   26.9937 C   0  0  0  0  0  0  0  0  0  0  0  0
  -30.0841  -17.6692   21.9499 C   0  0  0  0  0  0  0  0  0  0  0  0
  -21.3032  -25.1347   22.9421 C   0  0  0  0  0  0  0  0  0  0  0  0
  -20.9692  -18.0101   21.3046 C   0  0  0  0  0  0  0  0  0  0  0  0
  -23.0614  -17.6876   23.3695 C   0  0  0  0  0  0  0  0  0  0  0  0
  -22.0433  -23.9756   23.6047 C   0  0  0  0  0  0  0  0  0  0  0  0
  -26.8163  -18.5361   20.6585 C   0  0  0  0  0  0  0  0  0  0  0  0
  -22.9295  -23.2589   22.5910 C   0  0  0  0  0  0  0  0  0  0  0  0
  -26.9126  -20.0611   20.5863 C   0  0  0  0  0  0  0  0  0  0  0  0
  -27.5379  -17.9943   21.8890 C   0  0  0  0  0  0  0  0  0  0  0  0
  -29.0651  -19.9282   21.9239 C   0  0  0  0  0  0  0  0  0  0  0  0
  -22.0934  -22.6584   21.4545 C   0  0  1  0  0  0  0  0  0  0  0  0
  -21.2197  -19.0756   22.3673 C   0  0  1  0  0  0  0  0  0  0  0  0
  -28.3742  -20.5358   20.6895 C   0  0  2  0  0  0  0  0  0  0  0  0
  -28.1515  -11.4031   16.4925 C   0  0  0  0  0  0  0  0  0  0  0  0
  -27.4089  -13.8042   16.2974 C   0  0  0  0  0  0  0  0  0  0  0  0
  -31.6492  -12.9300   22.1603 C   0  0  0  0  0  0  0  0  0  0  0  0
  -21.1856  -15.7207   29.3492 C   0  0  0  0  0  0  0  0  0  0  0  0
  -23.8072  -20.6892   25.8403 C   0  0  0  0  0  0  0  0  0  0  0  0
  -23.8148  -19.2932   27.9186 C   0  0  0  0  0  0  0  0  0  0  0  0
  -21.8081  -20.6586   27.3427 C   0  0  0  0  0  0  0  0  0  0  0  0
  -19.9899  -14.1795   26.0825 C   0  0  0  0  0  0  0  0  0  0  0  0
  -26.1806  -12.3920   19.8716 C   0  0  0  0  0  0  0  0  0  0  0  0
  -30.9584  -15.3471   21.9739 C   0  0  0  0  0  0  0  0  0  0  0  0
  -25.2050  -13.5062   19.5086 C   0  0  0  0  0  0  0  0  0  1  0  0
  -27.5200  -12.5921   17.2428 C   0  0  0  0  0  0  0  0  0  0  0  0
  -30.4527  -13.8844   21.9668 C   0  0  1  0  0  0  0  0  0  0  0  0
  -22.3230  -18.5823   25.9951 C   0  0  1  0  0  0  0  0  0  0  0  0
  -20.7155  -15.7282   27.9029 C   0  0  2  0  0  0  0  0  0  0  0  0
  -22.9411  -19.7937   26.7486 C   0  0  0  0  0  0  0  0  0  0  0  0
  -30.2897  -13.6374   19.5642 N   0  0  0  0  0  0  0  0  0  0  0  0
  -27.4855  -22.7751   21.2167 N   0  0  0  0  0  0  0  0  0  0  0  0
  -28.4762  -22.0497   20.6705 N   0  0  0  0  0  0  0  0  0  0  0  0
  -21.8761  -18.5395   23.5615 N   0  0  0  0  0  0  0  0  0  0  0  0
  -28.9289  -18.4679   21.9176 N   0  0  0  0  0  0  0  0  0  0  0  0
  -30.5614  -22.2329   19.5618 N   0  0  0  0  0  0  0  0  0  0  0  0
  -29.3869  -26.5326   20.2894 N   0  0  0  0  0  0  0  0  0  0  0  0
  -21.4508  -21.4371   21.8905 N   0  0  0  0  0  0  0  0  0  0  0  0
  -21.4758  -17.7319   26.8243 N   0  0  0  0  0  0  0  0  0  0  0  0
  -29.8681  -16.2966   21.9487 N   0  0  0  0  0  0  0  0  0  0  0  0
  -20.4783  -14.3195   27.4785 N   0  3  0  0  0  0  0  0  0  0  0  0
  -30.9915  -25.1688   19.3817 O   0  0  0  0  0  0  0  0  0  0  0  0
  -23.2181  -19.9751   21.4883 O   0  0  0  0  0  0  0  0  0  0  0  0
  -20.4878  -19.7214   25.0148 O   0  0  0  0  0  0  0  0  0  0  0  0
  -22.6730  -15.7747   26.4876 O   0  0  0  0  0  0  0  0  0  0  0  0
  -31.2247  -18.1443   21.9727 O   0  0  0  0  0  0  0  0  0  0  0  0
  -24.7440  -28.2965   22.8128 O   0  0  0  0  0  0  0  0  0  0  0  0
  -25.4164  -14.6296   20.3627 O   0  0  0  0  0  0  0  0  0  1  0  0
  -24.0240  -32.5603   19.3915 F   0  0  0  0  0  0  0  0  0  0  0  0
  -22.2147  -29.0262   21.9687 F   0  0  0  0  0  0  0  0  0  0  0  0
  1  2  1  0  0  0  0
  1  5  2  0  0  0  0
  2  6  2  0  0  0  0
  3  8  2  0  0  0  0
  3 17  1  0  0  0  0
  4  9  1  0  0  0  0
  4 17  2  0  0  0  0
  5 19  1  0  0  0  0
  6 21  1  0  0  0  0
  7 10  2  0  0  0  0
  7 20  1  0  0  0  0
  8 25  1  0  0  0  0
  9 25  2  0  0  0  0
 10 26  1  0  0  0  0
 11 12  2  0  0  0  0
 11 27  1  0  0  0  0
 12 28  1  0  0  0  0
 13 22  1  0  0  0  0
 13 26  2  0  0  0  0
 14 23  1  0  0  0  0
 14 31  2  0  0  0  0
 15 28  2  0  0  0  0
 15 29  1  0  0  0  0
 16 24  1  0  0  0  0
 16 66  2  0  0  0  0
 17 30  1  0  0  0  0
 18 30  1  0  0  0  0
 18 32  2  0  0  0  0
 18 33  1  0  0  0  0
 19 21  2  0  0  0  0
 19 38  1  0  0  0  0
 20 22  2  0  0  0  0
 20 39  1  0  0  0  0
 21 47  1  0  0  0  0
 22 40  1  0  0  0  0
 23 24  2  0  0  0  0
 23 58  1  0  0  0  0
 24 61  1  0  0  0  0
 25 82  1  0  0  0  0
 26 83  1  0  0  0  0
 27 29  2  0  0  0  0
 27 82  1  0  0  0  0
 28 84  1  0  0  0  0
 29 85  1  0  0  0  0
 30 67  2  0  0  0  0
 31 62  1  0  0  0  0
 31 66  1  0  0  0  0
 32 68  1  0  0  0  0
 32 71  1  0  0  0  0
 33 72  1  0  0  0  0
 33 77  2  0  0  0  0
 34 48  1  0  0  0  0
 34 73  1  0  0  0  0
 34 78  2  0  0  0  0
 35 63  1  0  0  0  0
 35 69  1  0  0  0  0
 35 79  2  0  0  0  0
 36 64  1  0  0  0  0
 36 74  1  0  0  0  0
 36 80  2  0  0  0  0
 37 70  1  0  0  0  0
 37 75  1  0  0  0  0
 37 81  2  0  0  0  0
 38 41  1  0  0  0  0
 39 48  1  0  0  0  0
 40 69  1  0  0  0  0
 41 43  1  0  0  0  0
 42 44  1  0  0  0  0
 42 45  1  0  0  0  0
 43 47  1  0  0  0  0
 44 49  1  0  0  0  0
 45 70  1  0  0  0  0
 46 49  1  0  0  0  0
 46 70  1  0  0  0  0
 47 73  1  0  0  0  0
 48 69  1  0  0  0  0
 49 68  1  0  0  0  0
 50 61  1  0  0  0  0
 51 61  1  0  0  0  0
 52 62  1  0  0  0  0
 53 64  1  0  0  0  0
 54 65  1  0  0  0  0
 55 65  1  0  0  0  0
 56 65  1  0  0  0  0
 57 76  1  0  0  0  0
 58 60  1  0  0  0  0
 59 62  1  0  0  0  0
 59 75  1  0  0  0  0
 60 83  1  0  0  0  0
 63 65  1  0  0  0  0
 63 74  1  0  0  0  0
 64 76  1  0  0  0  0
 67 68  1  0  0  0  0
M  CHG  1  76   1
M  ISO  4  37 100  60 101  75 100  83 101
M  END
> <Batch ID>
0087

> <Smiles>
CNC(C)C(=O)NC(C(=O)N1Cc2cc([101O:1][101CH2:1]Cc3cc(C(C)C[100NH:0][100C:0](=O)N4CCCC(n5nc(-c6ccc(Oc7ccc(F)cc7F)cc6)c(C(N)=O)c5N)C4)ncc3C(C)C)ccc2CC1C(=O)NC1CCCc2ccccc21)C(C)(C)C

> <Shape>
0.206

> <Color>
0.064

> <Negative vol penalty>
0.000

$$$$

  -OEChem-04052319013D

 86 94  0     1  0  0  0  0  0999 V2000
  -32.7773  -17.4830   13.3638 C   0  0  0  0  0  0  0  0  0  0  0  0
  -31.7088  -17.1953   14.2070 C   0  0  0  0  0  0  0  0  0  0  0  0
  -23.4335   -9.5910   20.8404 C   0  0  0  0  0  0  0  0  0  0  0  0
  -24.0845  -10.3009   23.0561 C   0  0  0  0  0  0  0  0  0  0  0  0
  -33.7137  -18.4483   13.7315 C   0  0  0  0  0  0  0  0  0  0  0  0
  -31.5768  -17.8719   15.4191 C   0  0  0  0  0  0  0  0  0  0  0  0
  -26.5799  -20.3499   19.9143 C   0  0  0  0  0  0  0  0  0  0  0  0
  -22.8219   -8.4606   21.3822 C   0  0  0  0  0  0  0  0  0  0  0  0
  -23.4728   -9.1705   23.5980 C   0  0  0  0  0  0  0  0  0  0  0  0
  -26.2212  -20.2980   21.2605 C   0  0  0  0  0  0  0  0  0  0  0  0
  -24.1815   -5.8840   23.9551 C   0  0  0  0  0  0  0  0  0  0  0  0
  -24.8822   -5.1717   24.9285 C   0  0  0  0  0  0  0  0  0  0  0  0
  -27.8556  -22.0019   21.7553 C   0  0  0  0  0  0  0  0  0  0  0  0
  -29.4296  -18.9211   23.9960 C   0  0  0  0  0  0  0  0  0  0  0  0
  -23.0980   -5.5740   26.5071 C   0  0  0  0  0  0  0  0  0  0  0  0
  -24.0649  -10.5111   21.6773 C   0  0  0  0  0  0  0  0  0  0  0  0
  -24.1088  -12.9366   20.8883 C   0  0  0  0  0  0  0  0  0  0  0  0
  -33.5878  -19.1440   14.9443 C   0  0  0  0  0  0  0  0  0  0  0  0
  -27.5884  -21.2218   19.4794 C   0  0  0  0  0  0  0  0  0  0  0  0
  -32.5132  -18.8465   15.8040 C   0  0  0  0  0  0  0  0  0  0  0  0
  -28.2234  -22.0647   20.4026 C   0  0  0  0  0  0  0  0  0  0  0  0
  -28.6897  -18.6874   25.1498 C   0  0  0  0  0  0  0  0  0  0  0  0
  -28.6945  -17.4229   25.7279 C   0  0  0  0  0  0  0  0  0  0  0  0
  -22.8414   -8.2503   22.7610 C   0  0  0  0  0  0  0  0  0  0  0  0
  -26.8611  -21.1221   22.1817 C   0  0  0  0  0  0  0  0  0  0  0  0
  -22.9391   -6.4413   24.2578 C   0  0  0  0  0  0  0  0  0  0  0  0
  -24.3404   -5.0167   26.2045 C   0  0  0  0  0  0  0  0  0  0  0  0
  -22.3974   -6.2863   25.5338 C   0  0  0  0  0  0  0  0  0  0  0  0
  -24.6975  -11.6787   21.1181 C   0  0  0  0  0  0  0  0  0  0  0  0
  -30.1518  -17.8653   23.4638 C   0  0  0  0  0  0  0  0  0  0  0  0
  -29.4495  -16.4340   25.1179 C   0  0  0  0  0  0  0  0  0  0  0  0
  -25.1190  -13.6952   20.3494 C   0  0  0  0  0  0  0  0  0  0  0  0
  -22.7686  -13.3798   21.1396 C   0  0  0  0  0  0  0  0  0  0  0  0
  -30.4282  -20.8561   18.0990 C   0  0  0  0  0  0  0  0  0  0  0  0
  -30.3348  -24.0949   17.9431 C   0  0  0  0  0  0  0  0  0  0  0  0
  -29.0941  -27.0207   19.1869 C   0  0  0  0  0  0  0  0  0  0  0  0
  -30.4286  -15.4134   20.3178 C   0  0  0  0  0  0  0  0  0  0  0  0
  -34.6511  -20.1452   15.3206 C   0  0  0  0  0  0  0  0  0  0  0  0
  -27.9450  -21.2848   18.0195 C   0  0  0  0  0  0  0  0  0  0  0  0
  -29.2984  -23.0329   19.9836 C   0  0  0  0  0  0  0  0  0  0  0  0
  -34.2321  -21.0833   16.4497 C   0  0  0  0  0  0  0  0  0  0  0  0
  -29.6902  -12.3581   18.6455 C   0  0  0  0  0  0  0  0  0  0  0  0
  -33.5915  -20.2956   17.5881 C   0  0  0  0  0  0  0  0  0  0  0  0
  -28.2801  -12.0099   19.1256 C   0  0  0  0  0  0  0  0  0  0  0  0
  -30.5202  -13.0032   19.7532 C   0  0  0  0  0  0  0  0  0  0  0  0
  -28.4852  -13.8283   20.8720 C   0  0  0  0  0  0  0  0  0  0  0  0
  -32.3221  -19.5767   17.1157 C   0  0  1  0  0  0  0  0  0  0  0  0
  -29.3431  -21.8419   17.7695 C   0  0  1  0  0  0  0  0  0  0  0  0
  -27.5921  -13.2264   19.7737 C   0  0  2  0  0  0  0  0  0  0  0  0
  -27.9123  -17.1435   26.9670 C   0  0  0  0  0  0  0  0  0  0  0  0
  -30.9137  -14.6518   26.1344 C   0  0  0  0  0  0  0  0  0  0  0  0
  -28.9243  -13.9992   24.7303 C   0  0  0  0  0  0  0  0  0  0  0  0
  -29.2310  -29.5074   18.8788 C   0  0  0  0  0  0  0  0  0  0  0  0
  -33.0504  -24.1152   19.3343 C   0  0  0  0  0  0  0  0  0  0  0  0
  -32.6926  -26.5400   19.8449 C   0  0  0  0  0  0  0  0  0  0  0  0
  -32.8183  -25.7716   17.4750 C   0  0  0  0  0  0  0  0  0  0  0  0
  -26.2120  -27.2163   18.5432 C   0  0  0  0  0  0  0  0  0  0  0  0
  -27.8916  -19.8171   25.7501 C   0  0  0  0  0  0  0  0  0  0  0  0
  -30.9586  -18.0798   22.2268 C   0  0  0  0  0  0  0  0  0  0  0  0
  -26.3890  -19.7233   25.4762 C   0  0  0  0  0  0  0  0  0  0  0  0
  -30.1830  -17.8051   20.9333 C   0  0  0  0  0  0  0  0  0  0  0  0
  -26.0377  -19.8240   23.9964 C   0  0  0  0  0  0  0  0  0  1  0  0
  -29.4953  -15.0561   25.6932 C   0  0  0  0  0  0  0  0  0  0  0  0
  -30.7686  -25.2217   18.8492 C   0  0  1  0  0  0  0  0  0  0  0  0
  -28.4930  -28.2331   18.4990 C   0  0  2  0  0  0  0  0  0  0  0  0
  -32.3136  -25.3926   18.8844 C   0  0  0  0  0  0  0  0  0  0  0  0
  -25.9821  -11.6365   20.7548 N   0  0  0  0  0  0  0  0  0  0  0  0
  -30.1809  -16.6233   23.9969 N   0  0  0  0  0  0  0  0  0  0  0  0
  -26.2089  -12.8773   20.2911 N   0  0  0  0  0  0  0  0  0  0  0  0
  -29.6162  -23.0529   18.5462 N   0  0  0  0  0  0  0  0  0  0  0  0
  -29.8123  -14.1512   20.3248 N   0  0  0  0  0  0  0  0  0  0  0  0
  -25.1725  -14.9754   19.9243 N   0  0  0  0  0  0  0  0  0  0  0  0
  -21.8581  -12.4718   21.6972 N   0  0  0  0  0  0  0  0  0  0  0  0
  -31.2192  -20.5088   17.0204 N   0  0  0  0  0  0  0  0  0  0  0  0
  -30.0464  -26.4073   18.4007 N   0  0  0  0  0  0  0  0  0  0  0  0
  -29.6863  -16.4484   20.8733 N   0  0  0  0  0  0  0  0  0  0  0  0
  -27.0607  -28.3880   18.8805 N   0  3  0  0  0  0  0  0  0  0  0  0
  -22.3852  -14.5415   20.8622 O   0  0  0  0  0  0  0  0  0  0  0  0
  -30.5404  -20.4424   19.2470 O   0  0  0  0  0  0  0  0  0  0  0  0
  -30.6168  -24.1410   16.7431 O   0  0  0  0  0  0  0  0  0  0  0  0
  -28.7556  -26.6566   20.3109 O   0  0  0  0  0  0  0  0  0  0  0  0
  -31.5546  -15.6049   19.8462 O   0  0  0  0  0  0  0  0  0  0  0  0
  -22.2444   -7.1475   23.2901 O   0  0  0  0  0  0  0  0  0  0  0  0
  -26.5134  -21.0730   23.4965 O   0  0  0  0  0  0  0  0  0  1  0  0
  -25.0126   -4.3314   27.1386 F   0  0  0  0  0  0  0  0  0  0  0  0
  -21.2037   -6.8185   25.8301 F   0  0  0  0  0  0  0  0  0  0  0  0
  1  2  1  0  0  0  0
  1  5  2  0  0  0  0
  2  6  2  0  0  0  0
  3  8  2  0  0  0  0
  3 16  1  0  0  0  0
  4  9  1  0  0  0  0
  4 16  2  0  0  0  0
  5 18  1  0  0  0  0
  6 20  1  0  0  0  0
  7 10  2  0  0  0  0
  7 19  1  0  0  0  0
  8 24  1  0  0  0  0
  9 24  2  0  0  0  0
 10 25  1  0  0  0  0
 11 12  2  0  0  0  0
 11 26  1  0  0  0  0
 12 27  1  0  0  0  0
 13 21  1  0  0  0  0
 13 25  2  0  0  0  0
 14 22  1  0  0  0  0
 14 30  2  0  0  0  0
 15 27  2  0  0  0  0
 15 28  1  0  0  0  0
 16 29  1  0  0  0  0
 17 29  1  0  0  0  0
 17 32  2  0  0  0  0
 17 33  1  0  0  0  0
 18 20  2  0  0  0  0
 18 38  1  0  0  0  0
 19 21  2  0  0  0  0
 19 39  1  0  0  0  0
 20 47  1  0  0  0  0
 21 40  1  0  0  0  0
 22 23  2  0  0  0  0
 22 58  1  0  0  0  0
 23 31  1  0  0  0  0
 23 50  1  0  0  0  0
 24 83  1  0  0  0  0
 25 84  1  0  0  0  0
 26 28  2  0  0  0  0
 26 83  1  0  0  0  0
 27 85  1  0  0  0  0
 28 86  1  0  0  0  0
 29 67  2  0  0  0  0
 30 59  1  0  0  0  0
 30 68  1  0  0  0  0
 31 63  1  0  0  0  0
 31 68  2  0  0  0  0
 32 69  1  0  0  0  0
 32 72  1  0  0  0  0
 33 73  1  0  0  0  0
 33 78  2  0  0  0  0
 34 48  1  0  0  0  0
 34 74  1  0  0  0  0
 34 79  2  0  0  0  0
 35 64  1  0  0  0  0
 35 70  1  0  0  0  0
 35 80  2  0  0  0  0
 36 65  1  0  0  0  0
 36 75  1  0  0  0  0
 36 81  2  0  0  0  0
 37 71  1  0  0  0  0
 37 76  1  0  0  0  0
 37 82  2  0  0  0  0
 38 41  1  0  0  0  0
 39 48  1  0  0  0  0
 40 70  1  0  0  0  0
 41 43  1  0  0  0  0
 42 44  1  0  0  0  0
 42 45  1  0  0  0  0
 43 47  1  0  0  0  0
 44 49  1  0  0  0  0
 45 71  1  0  0  0  0
 46 49  1  0  0  0  0
 46 71  1  0  0  0  0
 47 74  1  0  0  0  0
 48 70  1  0  0  0  0
 49 69  1  0  0  0  0
 51 63  1  0  0  0  0
 52 63  1  0  0  0  0
 53 65  1  0  0  0  0
 54 66  1  0  0  0  0
 55 66  1  0  0  0  0
 56 66  1  0  0  0  0
 57 77  1  0  0  0  0
 58 60  1  0  0  0  0
 59 61  1  0  0  0  0
 60 62  1  0  0  0  0
 61 76  1  0  0  0  0
 62 84  1  0  0  0  0
 64 66  1  0  0  0  0
 64 75  1  0  0  0  0
 65 77  1  0  0  0  0
 67 69  1  0  0  0  0
M  CHG  1  77   1
M  ISO  4  37 100  62 101  76 100  84 101
M  END
> <Batch ID>
0087

> <Smiles>
CNC(C)C(=O)NC(C(=O)N1Cc2cc([101O:1][101CH2:1]CCc3cc(CC[100NH:0][100C:0](=O)N4CCCC(n5nc(-c6ccc(Oc7ccc(F)cc7F)cc6)c(C(N)=O)c5N)C4)nc(C(C)C)c3C)ccc2CC1C(=O)NC1CCCc2ccccc21)C(C)(C)C

> <Shape>
0.237

> <Color>
0.159

> <Negative vol penalty>
0.000

$$$$

  -OEChem-04052319013D

 92100  0     1  0  0  0  0  0999 V2000
  -16.7083  -30.2966   24.0171 C   0  0  0  0  0  0  0  0  0  0  0  0
  -16.9323  -28.9594   23.7055 C   0  0  0  0  0  0  0  0  0  0  0  0
  -22.9593  -10.0648   19.9260 C   0  0  0  0  0  0  0  0  0  0  0  0
  -23.9443   -9.7242   22.1056 C   0  0  0  0  0  0  0  0  0  0  0  0
  -17.5767  -31.2774   23.5398 C   0  0  0  0  0  0  0  0  0  0  0  0
  -18.0243  -28.6023   22.9153 C   0  0  0  0  0  0  0  0  0  0  0  0
  -20.5139  -24.5885   24.7419 C   0  0  0  0  0  0  0  0  0  0  0  0
  -22.1977   -8.9078   20.0893 C   0  0  0  0  0  0  0  0  0  0  0  0
  -23.1826   -8.5671   22.2689 C   0  0  0  0  0  0  0  0  0  0  0  0
  -19.9501  -23.3333   24.5173 C   0  0  0  0  0  0  0  0  0  0  0  0
  -20.0010   -7.7765   23.0892 C   0  0  0  0  0  0  0  0  0  0  0  0
  -19.3639   -7.5896   24.3159 C   0  0  0  0  0  0  0  0  0  0  0  0
  -21.4780  -22.9818   22.6839 C   0  0  0  0  0  0  0  0  0  0  0  0
  -24.5544  -18.7924   22.2300 C   0  0  0  0  0  0  0  0  0  0  0  0
  -20.5926   -5.5349   24.6410 C   0  0  0  0  0  0  0  0  0  0  0  0
  -23.8327  -10.4730   20.9341 C   0  0  0  0  0  0  0  0  0  0  0  0
  -24.2636  -12.9796   21.1321 C   0  0  0  0  0  0  0  0  0  0  0  0
  -18.6855  -30.9312   22.7515 C   0  0  0  0  0  0  0  0  0  0  0  0
  -21.5584  -25.0551   23.9308 C   0  0  0  0  0  0  0  0  0  0  0  0
  -18.9077  -29.5795   22.4259 C   0  0  0  0  0  0  0  0  0  0  0  0
  -22.0550  -24.2422   22.9019 C   0  0  0  0  0  0  0  0  0  0  0  0
  -25.9002  -18.8788   21.8917 C   0  0  0  0  0  0  0  0  0  0  0  0
  -24.1619  -18.9790   23.5508 C   0  0  0  0  0  0  0  0  0  0  0  0
  -22.3093   -8.1589   21.2608 C   0  0  0  0  0  0  0  0  0  0  0  0
  -20.4302  -22.5309   23.4864 C   0  0  0  0  0  0  0  0  0  0  0  0
  -20.9339   -6.8425   22.6383 C   0  0  0  0  0  0  0  0  0  0  0  0
  -19.6597   -6.4688   25.0918 C   0  0  0  0  0  0  0  0  0  0  0  0
  -21.2297   -5.7218   23.4142 C   0  0  0  0  0  0  0  0  0  0  0  0
  -24.6201  -11.6679   20.7657 C   0  0  0  0  0  0  0  0  0  0  0  0
  -26.8070  -19.1518   22.9031 C   0  0  0  0  0  0  0  0  0  0  0  0
  -25.1465  -19.2473   24.4880 C   0  0  0  0  0  0  0  0  0  0  0  0
  -25.3437  -13.7443   20.7644 C   0  0  0  0  0  0  0  0  0  0  0  0
  -23.0635  -13.4635   21.7496 C   0  0  0  0  0  0  0  0  0  0  0  0
  -21.9363  -27.5159   21.9547 C   0  0  0  0  0  0  0  0  0  0  0  0
  -24.9937  -26.4401   21.8242 C   0  0  0  0  0  0  0  0  0  0  0  0
  -27.1654  -23.8324   22.1852 C   0  0  0  0  0  0  0  0  0  0  0  0
  -30.8558  -14.5815   20.5175 C   0  0  0  0  0  0  0  0  0  0  0  0
  -19.5696  -32.0310   22.2192 C   0  0  0  0  0  0  0  0  0  0  0  0
  -22.1737  -26.4003   24.2030 C   0  0  0  0  0  0  0  0  0  0  0  0
  -23.1882  -24.6883   22.0157 C   0  0  0  0  0  0  0  0  0  0  0  0
  -20.9156  -31.5327   21.6995 C   0  0  0  0  0  0  0  0  0  0  0  0
  -29.3888  -12.5931   17.9541 C   0  0  0  0  0  0  0  0  0  0  0  0
  -20.7243  -30.3089   20.8092 C   0  0  0  0  0  0  0  0  0  0  0  0
  -27.9911  -12.2785   18.4900 C   0  0  0  0  0  0  0  0  0  0  0  0
  -30.4297  -12.6160   19.0713 C   0  0  0  0  0  0  0  0  0  0  0  0
  -28.7075  -13.1912   20.7378 C   0  0  0  0  0  0  0  0  0  0  0  0
  -20.0954  -29.1501   21.5922 C   0  0  1  0  0  0  0  0  0  0  0  0
  -22.8885  -26.9870   22.9897 C   0  0  1  0  0  0  0  0  0  0  0  0
  -27.6142  -13.2123   19.6559 C   0  0  2  0  0  0  0  0  0  0  0  0
  -26.3272  -18.6800   20.4784 C   0  0  0  0  0  0  0  0  0  0  0  0
  -24.7823  -19.4578   25.9213 C   0  0  0  0  0  0  0  0  0  0  0  0
  -19.7242  -18.5419   22.1222 C   0  0  0  0  0  0  0  0  0  0  0  0
  -29.5972  -23.2502   21.9734 C   0  0  0  0  0  0  0  0  0  0  0  0
  -29.2447  -17.5559   24.1961 C   0  0  0  0  0  0  0  0  0  0  0  0
  -24.7154  -26.3934   18.7860 C   0  0  0  0  0  0  0  0  0  0  0  0
  -26.7550  -24.9445   18.6912 C   0  0  0  0  0  0  0  0  0  0  0  0
  -26.9104  -27.2547   19.6194 C   0  0  0  0  0  0  0  0  0  0  0  0
  -30.1050  -18.1610   20.3858 C   0  0  0  0  0  0  0  0  0  0  0  0
  -31.3191  -19.0368   22.3727 C   0  0  0  0  0  0  0  0  0  0  0  0
  -20.3244  -20.4874   25.4567 C   0  0  0  0  0  0  0  0  0  0  0  0
  -27.3605  -23.1075   25.0480 C   0  0  0  0  0  0  0  0  0  0  0  0
  -22.7029  -18.8862   23.9247 C   0  0  0  0  0  0  0  0  0  0  0  0
  -28.2658  -19.2553   22.5994 C   0  0  0  0  0  0  0  0  0  0  0  0
  -19.6625  -18.9285   23.5956 C   0  0  0  0  0  0  0  0  0  0  0  0
  -21.9435  -20.1568   23.5299 C   0  0  0  0  0  0  0  0  0  0  0  0
  -31.1327  -16.5309   22.0283 C   0  0  0  0  0  0  0  0  0  0  0  0
  -25.7448  -25.4560   20.9603 C   0  0  1  0  0  0  0  0  0  0  0  0
  -28.4951  -23.7217   22.9092 C   0  0  2  0  0  0  0  0  0  0  0  0
  -29.0509  -17.9103   22.7087 C   0  0  1  0  0  0  0  0  0  0  0  0
  -26.0087  -26.0043   19.5295 C   0  0  0  0  0  0  0  0  0  0  0  0
  -30.4010  -17.8906   21.8807 C   0  0  0  0  0  0  0  0  0  0  0  0
  -20.4604  -20.1997   23.9560 C   0  0  2  0  0  0  0  0  0  1  0  0
  -25.8318  -11.5996   20.2080 N   0  0  0  0  0  0  0  0  0  0  0  0
  -26.4636  -19.3390   24.1972 N   0  0  0  0  0  0  0  0  0  0  0  0
  -26.2461  -12.8780   20.2211 N   0  0  0  0  0  0  0  0  0  0  0  0
  -23.7524  -26.0142   22.3176 N   0  0  0  0  0  0  0  0  0  0  0  0
  -30.0129  -13.5215   20.1447 N   0  0  0  0  0  0  0  0  0  0  0  0
  -25.5999  -15.0665   20.8561 N   0  0  0  0  0  0  0  0  0  0  0  0
  -22.0541  -12.5423   22.0609 N   0  0  0  0  0  0  0  0  0  0  0  0
  -21.0889  -28.5025   22.4216 N   0  0  0  0  0  0  0  0  0  0  0  0
  -26.9535  -25.1048   21.6980 N   0  0  0  0  0  0  0  0  0  0  0  0
  -30.3822  -15.3960   21.5389 N   0  0  0  0  0  0  0  0  0  0  0  0
  -28.3913  -22.7543   24.0381 N   0  3  0  0  0  0  0  0  0  0  0  0
  -22.8846  -14.6790   22.0023 O   0  0  0  0  0  0  0  0  0  0  0  0
  -21.9689  -27.0634   20.8163 O   0  0  0  0  0  0  0  0  0  0  0  0
  -25.4933  -27.5433   22.0585 O   0  0  0  0  0  0  0  0  0  0  0  0
  -26.3937  -22.8839   22.0608 O   0  0  0  0  0  0  0  0  0  0  0  0
  -31.9469  -14.7901   19.9763 O   0  0  0  0  0  0  0  0  0  0  0  0
  -21.5661   -7.0299   21.4206 O   0  0  0  0  0  0  0  0  0  0  0  0
  -19.8813  -21.3056   23.2646 O   0  0  0  0  0  0  0  0  0  1  0  0
  -19.0490   -6.2903   26.2705 F   0  0  0  0  0  0  0  0  0  0  0  0
  -22.1258   -4.8217   22.9869 F   0  0  0  0  0  0  0  0  0  0  0  0
  1  2  1  0  0  0  0
  1  5  2  0  0  0  0
  2  6  2  0  0  0  0
  3  8  2  0  0  0  0
  3 16  1  0  0  0  0
  4  9  1  0  0  0  0
  4 16  2  0  0  0  0
  5 18  1  0  0  0  0
  6 20  1  0  0  0  0
  7 10  2  0  0  0  0
  7 19  1  0  0  0  0
  8 24  1  0  0  0  0
  9 24  2  0  0  0  0
 10 25  1  0  0  0  0
 11 12  2  0  0  0  0
 11 26  1  0  0  0  0
 12 27  1  0  0  0  0
 13 21  1  0  0  0  0
 13 25  2  0  0  0  0
 14 22  2  0  0  0  0
 14 23  1  0  0  0  0
 15 27  2  0  0  0  0
 15 28  1  0  0  0  0
 16 29  1  0  0  0  0
 17 29  1  0  0  0  0
 17 32  2  0  0  0  0
 17 33  1  0  0  0  0
 18 20  2  0  0  0  0
 18 38  1  0  0  0  0
 19 21  2  0  0  0  0
 19 39  1  0  0  0  0
 20 47  1  0  0  0  0
 21 40  1  0  0  0  0
 22 30  1  0  0  0  0
 22 50  1  0  0  0  0
 23 31  2  0  0  0  0
 23 62  1  0  0  0  0
 24 89  1  0  0  0  0
 25 90  1  0  0  0  0
 26 28  2  0  0  0  0
 26 89  1  0  0  0  0
 27 91  1  0  0  0  0
 28 92  1  0  0  0  0
 29 73  2  0  0  0  0
 30 63  1  0  0  0  0
 30 74  2  0  0  0  0
 31 51  1  0  0  0  0
 31 74  1  0  0  0  0
 32 75  1  0  0  0  0
 32 78  1  0  0  0  0
 33 79  1  0  0  0  0
 33 84  2  0  0  0  0
 34 48  1  0  0  0  0
 34 80  1  0  0  0  0
 34 85  2  0  0  0  0
 35 67  1  0  0  0  0
 35 76  1  0  0  0  0
 35 86  2  0  0  0  0
 36 68  1  0  0  0  0
 36 81  1  0  0  0  0
 36 87  2  0  0  0  0
 37 77  1  0  0  0  0
 37 82  1  0  0  0  0
 37 88  2  0  0  0  0
 38 41  1  0  0  0  0
 39 48  1  0  0  0  0
 40 76  1  0  0  0  0
 41 43  1  0  0  0  0
 42 44  1  0  0  0  0
 42 45  1  0  0  0  0
 43 47  1  0  0  0  0
 44 49  1  0  0  0  0
 45 77  1  0  0  0  0
 46 49  1  0  0  0  0
 46 77  1  0  0  0  0
 47 80  1  0  0  0  0
 48 76  1  0  0  0  0
 49 75  1  0  0  0  0
 52 64  1  0  0  0  0
 53 68  1  0  0  0  0
 54 69  1  0  0  0  0
 55 70  1  0  0  0  0
 56 70  1  0  0  0  0
 57 70  1  0  0  0  0
 58 71  1  0  0  0  0
 59 71  1  0  0  0  0
 60 72  1  0  0  0  0
 61 83  1  0  0  0  0
 62 65  1  0  0  0  0
 63 69  1  0  0  0  0
 64 72  1  0  0  0  0
 65 72  1  0  0  0  0
 66 71  1  0  0  0  0
 66 82  1  0  0  0  0
 67 70  1  0  0  0  0
 67 81  1  0  0  0  0
 68 83  1  0  0  0  0
 69 71  1  0  0  0  0
 72 90  1  0  0  0  0
 73 75  1  0  0  0  0
M  CHG  1  83   1
M  ISO  4  37 100  72 101  82 100  90 101
M  END
> <Batch ID>
0087

> <Smiles>
CC[101C:1](C)(CCc1cc(C)c(CC(C)C(C)(C)C[100NH:0][100C:0](=O)N2CCCC(n3nc(-c4ccc(Oc5ccc(F)cc5F)cc4)c(C(N)=O)c3N)C2)nc1C)[101O:1]c1ccc2c(c1)CN(C(=O)C(NC(=O)C(C)NC)C(C)(C)C)C(C(=O)NC1CCCc3ccccc31)C2

> <Shape>
0.264

> <Color>
0.195

> <Negative vol penalty>
0.000

$$$$

  -OEChem-04052319013D

 80 87  0     1  0  0  0  0  0999 V2000
  -25.5603  -18.2156   24.1729 C   0  0  0  0  0  0  0  0  0  0  0  0
  -26.0280  -19.1751   23.2807 C   0  0  0  0  0  0  0  0  0  0  0  0
  -27.8527  -15.3146   19.6382 C   0  0  0  0  0  0  0  0  0  0  0  0
  -25.7802  -16.1107   20.5910 C   0  0  0  0  0  0  0  0  0  0  0  0
  -24.2181  -18.2116   24.5503 C   0  0  0  0  0  0  0  0  0  0  0  0
  -25.1534  -20.1306   22.7646 C   0  0  0  0  0  0  0  0  0  0  0  0
  -27.1244  -24.7952   22.8117 C   0  0  0  0  0  0  0  0  0  0  0  0
  -27.4251  -13.9978   19.8082 C   0  0  0  0  0  0  0  0  0  0  0  0
  -25.3525  -14.7940   20.7610 C   0  0  0  0  0  0  0  0  0  0  0  0
  -28.0445  -25.1077   21.8119 C   0  0  0  0  0  0  0  0  0  0  0  0
  -23.5645  -11.6481   21.1144 C   0  0  0  0  0  0  0  0  0  0  0  0
  -22.2562  -11.3374   20.7438 C   0  0  0  0  0  0  0  0  0  0  0  0
  -26.3121  -26.2522   20.5838 C   0  0  0  0  0  0  0  0  0  0  0  0
  -22.7359  -12.0212   18.4768 C   0  0  0  0  0  0  0  0  0  0  0  0
  -27.0302  -16.3710   20.0296 C   0  0  0  0  0  0  0  0  0  0  0  0
  -28.6140  -18.3332   20.4156 C   0  0  0  0  0  0  0  0  0  0  0  0
  -23.3287  -19.1735   24.0460 C   0  0  0  0  0  0  0  0  0  0  0  0
  -25.7866  -25.2001   22.6996 C   0  0  0  0  0  0  0  0  0  0  0  0
  -23.7977  -20.1387   23.1346 C   0  0  0  0  0  0  0  0  0  0  0  0
  -25.3776  -25.9457   21.5847 C   0  0  0  0  0  0  0  0  0  0  0  0
  -26.1750  -13.7375   20.3696 C   0  0  0  0  0  0  0  0  0  0  0  0
  -27.6378  -25.8338   20.6964 C   0  0  0  0  0  0  0  0  0  0  0  0
  -24.4585  -12.1455   20.1662 C   0  0  0  0  0  0  0  0  0  0  0  0
  -21.8418  -11.5239   19.4250 C   0  0  0  0  0  0  0  0  0  0  0  0
  -24.0442  -12.3320   18.8474 C   0  0  0  0  0  0  0  0  0  0  0  0
  -27.4716  -17.7314   19.8547 C   0  0  0  0  0  0  0  0  0  0  0  0
  -28.5863  -19.6245   19.9484 C   0  0  0  0  0  0  0  0  0  0  0  0
  -29.6112  -17.7749   21.2814 C   0  0  0  0  0  0  0  0  0  0  0  0
  -22.9943  -23.6921   22.5172 C   0  0  0  0  0  0  0  0  0  0  0  0
  -21.7988  -26.7019   22.7021 C   0  0  0  0  0  0  0  0  0  0  0  0
  -22.2836  -30.0462   22.2256 C   0  0  0  0  0  0  0  0  0  0  0  0
  -27.8885  -23.1610   15.6719 C   0  0  0  0  0  0  0  0  0  0  0  0
  -21.8765  -19.1001   24.4465 C   0  0  0  0  0  0  0  0  0  0  0  0
  -24.8125  -24.8779   23.7995 C   0  0  0  0  0  0  0  0  0  0  0  0
  -23.9574  -26.4214   21.4265 C   0  0  0  0  0  0  0  0  0  0  0  0
  -21.0960  -20.3767   24.1440 C   0  0  0  0  0  0  0  0  0  0  0  0
  -24.9630  -22.1910   17.5428 C   0  0  0  0  0  0  0  0  0  0  0  0
  -21.3988  -20.8653   22.7311 C   0  0  0  0  0  0  0  0  0  0  0  0
  -25.4409  -20.9687   18.3257 C   0  0  0  0  0  0  0  0  0  0  0  0
  -25.6267  -22.2713   16.1718 C   0  0  0  0  0  0  0  0  0  0  0  0
  -27.6062  -21.0319   17.0097 C   0  0  0  0  0  0  0  0  0  0  0  0
  -22.8852  -21.2070   22.5721 C   0  0  1  0  0  0  0  0  0  0  0  0
  -23.3593  -24.8982   23.3356 C   0  0  1  0  0  0  0  0  0  0  0  0
  -26.9772  -20.9331   18.4102 C   0  0  2  0  0  0  0  0  0  0  0  0
  -33.4539  -23.1896   18.3065 C   0  0  0  0  0  0  0  0  0  0  0  0
  -21.1112  -32.2555   22.4301 C   0  0  0  0  0  0  0  0  0  0  0  0
  -30.5010  -26.5847   17.6128 C   0  0  0  0  0  0  0  0  0  0  0  0
  -30.4452  -23.4192   13.8679 C   0  0  0  0  0  0  0  0  0  0  0  0
  -20.2202  -26.0965   20.1621 C   0  0  0  0  0  0  0  0  0  0  0  0
  -19.8427  -28.5570   19.8937 C   0  0  0  0  0  0  0  0  0  0  0  0
  -18.9517  -27.3717   21.8997 C   0  0  0  0  0  0  0  0  0  0  0  0
  -24.2559  -31.0419   24.1948 C   0  0  0  0  0  0  0  0  0  0  0  0
  -32.4046  -24.2725   18.5181 C   0  0  0  0  0  0  0  0  0  0  0  0
  -31.3548  -23.9816   16.1863 C   0  0  0  0  0  0  0  0  0  0  0  0
  -29.6085  -25.2275   19.5112 C   0  0  0  0  0  0  0  0  0  1  0  0
  -21.4400  -27.7731   21.7008 C   0  0  1  0  0  0  0  0  0  0  0  0
  -22.0097  -31.2414   23.1207 C   0  0  2  0  0  0  0  0  0  0  0  0
  -30.0209  -25.1842   18.0270 C   0  0  2  0  0  0  0  0  0  0  0  0
  -31.0942  -24.0844   17.7118 C   0  0  2  0  0  0  0  0  0  0  0  0
  -30.1194  -23.8878   15.2799 C   0  0  2  0  0  0  0  0  0  0  0  0
  -20.1400  -27.4391   20.9159 C   0  0  0  0  0  0  0  0  0  0  0  0
  -26.7692  -18.5714   19.0899 N   0  0  0  0  0  0  0  0  0  0  0  0
  -27.4721  -19.7143   19.1668 N   0  0  0  0  0  0  0  0  0  0  0  0
  -23.0409  -26.0759   22.5257 N   0  0  0  0  0  0  0  0  0  0  0  0
  -27.0828  -22.1958   16.2839 N   0  0  0  0  0  0  0  0  0  0  0  0
  -29.4064  -20.6806   20.1340 N   0  0  0  0  0  0  0  0  0  0  0  0
  -30.7375  -17.1738   20.7030 N   0  0  0  0  0  0  0  0  0  0  0  0
  -23.1761  -22.4903   23.1746 N   0  0  0  0  0  0  0  0  0  0  0  0
  -21.3827  -29.0259   22.4461 N   0  0  0  0  0  0  0  0  0  0  0  0
  -23.2863  -31.9173   23.4873 N   0  3  0  0  0  0  0  0  0  0  0  0
  -29.4987  -17.7935   22.5306 O   0  0  0  0  0  0  0  0  0  0  0  0
  -22.5772  -23.8409   21.3746 O   0  0  0  0  0  0  0  0  0  0  0  0
  -21.0093  -26.4354   23.6117 O   0  0  0  0  0  0  0  0  0  0  0  0
  -23.2024  -30.0218   21.4097 O   0  0  0  0  0  0  0  0  0  0  0  0
  -27.4581  -24.1098   15.0186 O   0  0  0  0  0  0  0  0  0  0  0  0
  -25.7573  -12.4528   20.5355 O   0  0  0  0  0  0  0  0  0  0  0  0
  -28.5404  -26.1420   19.7113 O   0  0  0  0  0  0  0  0  0  1  0  0
  -29.2250  -22.9409   15.8758 O   0  0  0  0  0  0  0  0  0  0  0  0
  -20.5859  -11.2240   19.0690 F   0  0  0  0  0  0  0  0  0  0  0  0
  -24.8989  -12.8083   17.9317 F   0  0  0  0  0  0  0  0  0  0  0  0
  1  2  1  0  0  0  0
  1  5  2  0  0  0  0
  2  6  2  0  0  0  0
  3  8  2  0  0  0  0
  3 15  1  0  0  0  0
  4  9  1  0  0  0  0
  4 15  2  0  0  0  0
  5 17  1  0  0  0  0
  6 19  1  0  0  0  0
  7 10  2  0  0  0  0
  7 18  1  0  0  0  0
  8 21  1  0  0  0  0
  9 21  2  0  0  0  0
 10 22  1  0  0  0  0
 11 12  2  0  0  0  0
 11 23  1  0  0  0  0
 12 24  1  0  0  0  0
 13 20  1  0  0  0  0
 13 22  2  0  0  0  0
 14 24  2  0  0  0  0
 14 25  1  0  0  0  0
 15 26  1  0  0  0  0
 16 26  1  0  0  0  0
 16 27  2  0  0  0  0
 16 28  1  0  0  0  0
 17 19  2  0  0  0  0
 17 33  1  0  0  0  0
 18 20  2  0  0  0  0
 18 34  1  0  0  0  0
 19 42  1  0  0  0  0
 20 35  1  0  0  0  0
 21 76  1  0  0  0  0
 22 77  1  0  0  0  0
 23 25  2  0  0  0  0
 23 76  1  0  0  0  0
 24 79  1  0  0  0  0
 25 80  1  0  0  0  0
 26 62  2  0  0  0  0
 27 63  1  0  0  0  0
 27 66  1  0  0  0  0
 28 67  1  0  0  0  0
 28 71  2  0  0  0  0
 29 43  1  0  0  0  0
 29 68  1  0  0  0  0
 29 72  2  0  0  0  0
 30 56  1  0  0  0  0
 30 64  1  0  0  0  0
 30 73  2  0  0  0  0
 31 57  1  0  0  0  0
 31 69  1  0  0  0  0
 31 74  2  0  0  0  0
 32 65  1  0  0  0  0
 32 75  2  0  0  0  0
 32 78  1  0  0  0  0
 33 36  1  0  0  0  0
 34 43  1  0  0  0  0
 35 64  1  0  0  0  0
 36 38  1  0  0  0  0
 37 39  1  0  0  0  0
 37 40  1  0  0  0  0
 38 42  1  0  0  0  0
 39 44  1  0  0  0  0
 40 65  1  0  0  0  0
 41 44  1  0  0  0  0
 41 65  1  0  0  0  0
 42 68  1  0  0  0  0
 43 64  1  0  0  0  0
 44 63  1  0  0  0  0
 45 53  1  0  0  0  0
 46 57  1  0  0  0  0
 47 58  1  0  0  0  0
 48 60  1  0  0  0  0
 49 61  1  0  0  0  0
 50 61  1  0  0  0  0
 51 61  1  0  0  0  0
 52 70  1  0  0  0  0
 53 59  1  0  0  0  0
 54 59  1  0  0  0  0
 54 60  1  0  0  0  0
 55 58  1  0  0  0  0
 55 77  1  0  0  0  0
 56 61  1  0  0  0  0
 56 69  1  0  0  0  0
 57 70  1  0  0  0  0
 58 59  1  0  0  0  0
 60 78  1  0  0  0  0
 62 63  1  0  0  0  0
M  CHG  1  70   1
M  ISO  4  32 100  55 101  77 101  78 100
M  END
> <Batch ID>
0087

> <Smiles>
CCC(CC(C)[100O:0][100C:0](=O)N1CCCC(n2nc(-c3ccc(Oc4ccc(F)cc4F)cc3)c(C(N)=O)c2N)C1)C(C)[101CH2:1][101O:1]c1ccc2c(c1)CN(C(=O)C(NC(=O)C(C)NC)C(C)(C)C)C(C(=O)NC1CCCc3ccccc31)C2

> <Shape>
0.195

> <Color>
0.057

> <Negative vol penalty>
0.000

$$$$

  -OEChem-04052319013D

 85 93  0     1  0  0  0  0  0999 V2000
  -23.0512  -22.7608   23.0620 C   0  0  0  0  0  0  0  0  0  0  0  0
  -24.2423  -23.3886   22.7121 C   0  0  0  0  0  0  0  0  0  0  0  0
  -24.1660  -13.6167   20.8046 C   0  0  0  0  0  0  0  0  0  0  0  0
  -26.5721  -13.4229   20.7018 C   0  0  0  0  0  0  0  0  0  0  0  0
  -21.8510  -23.4685   23.0133 C   0  0  0  0  0  0  0  0  0  0  0  0
  -24.2337  -24.7244   22.3121 C   0  0  0  0  0  0  0  0  0  0  0  0
  -27.9410  -27.4207   24.4642 C   0  0  0  0  0  0  0  0  0  0  0  0
  -28.7144  -27.0707   18.7441 C   0  0  0  0  0  0  0  0  0  0  0  0
  -24.0420  -12.2823   20.4177 C   0  0  0  0  0  0  0  0  0  0  0  0
  -26.4480  -12.0885   20.3149 C   0  0  0  0  0  0  0  0  0  0  0  0
  -29.2225  -27.2777   23.9340 C   0  0  0  0  0  0  0  0  0  0  0  0
  -24.3081   -9.2356   21.8598 C   0  0  0  0  0  0  0  0  0  0  0  0
  -23.3984   -8.4405   22.5568 C   0  0  0  0  0  0  0  0  0  0  0  0
  -29.8545  -27.3490   19.4897 C   0  0  0  0  0  0  0  0  0  0  0  0
  -28.9391  -29.3367   22.7096 C   0  0  0  0  0  0  0  0  0  0  0  0
  -22.1884   -8.0279   20.5068 C   0  0  0  0  0  0  0  0  0  0  0  0
  -25.4311  -14.1870   20.9466 C   0  0  0  0  0  0  0  0  0  0  0  0
  -25.6564  -16.0650   22.6583 C   0  0  0  0  0  0  0  0  0  0  0  0
  -21.8289  -24.8165   22.6218 C   0  0  0  0  0  0  0  0  0  0  0  0
  -27.1434  -28.5189   24.1120 C   0  0  0  0  0  0  0  0  0  0  0  0
  -23.0319  -25.4505   22.2568 C   0  0  0  0  0  0  0  0  0  0  0  0
  -27.6488  -29.4926   23.2387 C   0  0  0  0  0  0  0  0  0  0  0  0
  -28.2954  -25.7539   18.5902 C   0  0  0  0  0  0  0  0  0  0  0  0
  -25.1830  -11.5182   20.1729 C   0  0  0  0  0  0  0  0  0  0  0  0
  -29.7206  -28.2343   23.0543 C   0  0  0  0  0  0  0  0  0  0  0  0
  -24.1579   -9.4270   20.4863 C   0  0  0  0  0  0  0  0  0  0  0  0
  -22.3386   -7.8366   21.8803 C   0  0  0  0  0  0  0  0  0  0  0  0
  -23.0980   -8.8231   19.8098 C   0  0  0  0  0  0  0  0  0  0  0  0
  -25.5599  -15.5655   21.3457 C   0  0  0  0  0  0  0  0  0  0  0  0
  -30.5349  -26.2834   20.0566 C   0  0  0  0  0  0  0  0  0  0  0  0
  -29.0457  -24.7596   19.1971 C   0  0  0  0  0  0  0  0  0  0  0  0
  -25.7601  -17.4256   22.5011 C   0  0  0  0  0  0  0  0  0  0  0  0
  -25.6527  -15.3621   23.9079 C   0  0  0  0  0  0  0  0  0  0  0  0
  -24.3468  -28.8817   22.6453 C   0  0  0  0  0  0  0  0  0  0  0  0
  -24.7634  -31.9932   23.4620 C   0  0  0  0  0  0  0  0  0  0  0  0
  -26.9178  -34.5107   24.2790 C   0  0  0  0  0  0  0  0  0  0  0  0
  -27.6249  -20.5583   17.5770 C   0  0  0  0  0  0  0  0  0  0  0  0
  -20.5010  -25.5267   22.5392 C   0  0  0  0  0  0  0  0  0  0  0  0
  -25.7734  -28.6725   24.7134 C   0  0  0  0  0  0  0  0  0  0  0  0
  -26.8404  -30.7008   22.8446 C   0  0  0  0  0  0  0  0  0  0  0  0
  -20.6266  -27.0463   22.4644 C   0  0  0  0  0  0  0  0  0  0  0  0
  -24.5188  -20.9711   19.5476 C   0  0  0  0  0  0  0  0  0  0  0  0
  -21.6875  -27.4447   21.4433 C   0  0  0  0  0  0  0  0  0  0  0  0
  -24.4133  -19.6380   20.2863 C   0  0  0  0  0  0  0  0  0  0  0  0
  -25.2574  -20.8272   18.2204 C   0  0  0  0  0  0  0  0  0  0  0  0
  -26.4969  -18.8692   19.0829 C   0  0  0  0  0  0  0  0  0  0  0  0
  -23.0666  -26.9053   21.8416 C   0  0  1  0  0  0  0  0  0  0  0  0
  -24.8534  -29.5637   23.8846 C   0  0  1  0  0  0  0  0  0  0  0  0
  -25.7988  -18.9881   20.4460 C   0  0  2  0  0  0  0  0  0  0  0  0
  -27.0755  -25.4494   17.7915 C   0  0  0  0  0  0  0  0  0  0  0  0
  -26.9663  -36.9526   24.8554 C   0  0  0  0  0  0  0  0  0  0  0  0
  -32.7044  -26.5912   23.2155 C   0  0  0  0  0  0  0  0  0  0  0  0
  -24.3267  -32.6929   20.5243 C   0  0  0  0  0  0  0  0  0  0  0  0
  -25.3086  -34.9488   20.9877 C   0  0  0  0  0  0  0  0  0  0  0  0
  -23.2135  -34.2414   22.1422 C   0  0  0  0  0  0  0  0  0  0  0  0
  -30.0416  -20.2086   17.2349 C   0  0  0  0  0  0  0  0  0  0  0  0
  -28.0842  -33.9768   26.9461 C   0  0  0  0  0  0  0  0  0  0  0  0
  -31.7766  -26.5492   20.8745 C   0  0  0  0  0  0  0  0  0  0  0  0
  -28.6415  -23.3275   19.0685 C   0  0  0  0  0  0  0  0  0  0  0  0
  -29.6968  -22.3217   19.5665 C   0  0  0  0  0  0  0  0  0  0  0  0
  -29.2618  -20.8602   19.4828 C   0  0  0  0  0  0  0  0  0  0  0  0
  -25.4133  -33.1912   22.8128 C   0  0  1  0  0  0  0  0  0  0  0  0
  -26.8922  -35.5345   25.3996 C   0  0  2  0  0  0  0  0  0  0  0  0
  -31.4580  -26.7673   22.3575 C   0  0  2  0  0  0  0  0  0  1  0  0
  -24.5803  -33.7449   21.6225 C   0  0  0  0  0  0  0  0  0  0  0  0
  -25.5986  -16.5302   20.4227 N   0  0  0  0  0  0  0  0  0  0  0  0
  -30.1585  -24.9912   19.9290 N   0  0  0  0  0  0  0  0  0  0  0  0
  -25.7206  -17.6495   21.1563 N   0  0  0  0  0  0  0  0  0  0  0  0
  -25.5042  -30.8029   23.4543 N   0  0  0  0  0  0  0  0  0  0  0  0
  -26.5520  -20.1678   18.3950 N   0  0  0  0  0  0  0  0  0  0  0  0
  -25.8803  -18.4402   23.3835 N   0  0  0  0  0  0  0  0  0  0  0  0
  -25.5386  -13.9653   23.8884 N   0  0  0  0  0  0  0  0  0  0  0  0
  -23.6433  -27.7181   22.8911 N   0  0  0  0  0  0  0  0  0  0  0  0
  -25.6459  -34.1580   23.8803 N   0  0  0  0  0  0  0  0  0  0  0  0
  -28.9141  -20.4577   18.1218 N   0  0  0  0  0  0  0  0  0  0  0  0
  -28.0450  -35.3236   26.3202 N   0  3  0  0  0  0  0  0  0  0  0  0
  -25.7313  -15.9563   25.0098 O   0  0  0  0  0  0  0  0  0  0  0  0
  -24.5760  -29.3755   21.5474 O   0  0  0  0  0  0  0  0  0  0  0  0
  -23.6428  -32.1112   23.9639 O   0  0  0  0  0  0  0  0  0  0  0  0
  -27.9618  -34.0710   23.8022 O   0  0  0  0  0  0  0  0  0  0  0  0
  -27.4404  -20.9821   16.4289 O   0  0  0  0  0  0  0  0  0  0  0  0
  -25.0623  -10.2161   19.7956 O   0  0  0  0  0  0  0  0  0  0  0  0
  -30.9709  -28.0968   22.5349 O   0  0  0  0  0  0  0  0  0  1  0  0
  -21.4660   -7.0718   22.5495 F   0  0  0  0  0  0  0  0  0  0  0  0
  -22.9493   -9.0023   18.4901 F   0  0  0  0  0  0  0  0  0  0  0  0
  1  2  1  0  0  0  0
  1  5  2  0  0  0  0
  2  6  2  0  0  0  0
  3  9  2  0  0  0  0
  3 17  1  0  0  0  0
  4 10  1  0  0  0  0
  4 17  2  0  0  0  0
  5 19  1  0  0  0  0
  6 21  1  0  0  0  0
  7 11  2  0  0  0  0
  7 20  1  0  0  0  0
  8 14  2  0  0  0  0
  8 23  1  0  0  0  0
  9 24  1  0  0  0  0
 10 24  2  0  0  0  0
 11 25  1  0  0  0  0
 12 13  2  0  0  0  0
 12 26  1  0  0  0  0
 13 27  1  0  0  0  0
 14 30  1  0  0  0  0
 15 22  1  0  0  0  0
 15 25  2  0  0  0  0
 16 27  2  0  0  0  0
 16 28  1  0  0  0  0
 17 29  1  0  0  0  0
 18 29  1  0  0  0  0
 18 32  2  0  0  0  0
 18 33  1  0  0  0  0
 19 21  2  0  0  0  0
 19 38  1  0  0  0  0
 20 22  2  0  0  0  0
 20 39  1  0  0  0  0
 21 47  1  0  0  0  0
 22 40  1  0  0  0  0
 23 31  2  0  0  0  0
 23 50  1  0  0  0  0
 24 82  1  0  0  0  0
 25 83  1  0  0  0  0
 26 28  2  0  0  0  0
 26 82  1  0  0  0  0
 27 84  1  0  0  0  0
 28 85  1  0  0  0  0
 29 66  2  0  0  0  0
 30 58  1  0  0  0  0
 30 67  2  0  0  0  0
 31 59  1  0  0  0  0
 31 67  1  0  0  0  0
 32 68  1  0  0  0  0
 32 71  1  0  0  0  0
 33 72  1  0  0  0  0
 33 77  2  0  0  0  0
 34 48  1  0  0  0  0
 34 73  1  0  0  0  0
 34 78  2  0  0  0  0
 35 62  1  0  0  0  0
 35 69  1  0  0  0  0
 35 79  2  0  0  0  0
 36 63  1  0  0  0  0
 36 74  1  0  0  0  0
 36 80  2  0  0  0  0
 37 70  1  0  0  0  0
 37 75  1  0  0  0  0
 37 81  2  0  0  0  0
 38 41  1  0  0  0  0
 39 48  1  0  0  0  0
 40 69  1  0  0  0  0
 41 43  1  0  0  0  0
 42 44  1  0  0  0  0
 42 45  1  0  0  0  0
 43 47  1  0  0  0  0
 44 49  1  0  0  0  0
 45 70  1  0  0  0  0
 46 49  1  0  0  0  0
 46 70  1  0  0  0  0
 47 73  1  0  0  0  0
 48 69  1  0  0  0  0
 49 68  1  0  0  0  0
 51 63  1  0  0  0  0
 52 64  1  0  0  0  0
 53 65  1  0  0  0  0
 54 65  1  0  0  0  0
 55 65  1  0  0  0  0
 56 75  1  0  0  0  0
 57 76  1  0  0  0  0
 58 64  1  0  0  0  0
 59 60  1  0  0  0  0
 60 61  1  0  0  0  0
 61 75  1  0  0  0  0
 62 65  1  0  0  0  0
 62 74  1  0  0  0  0
 63 76  1  0  0  0  0
 64 83  1  0  0  0  0
 66 68  1  0  0  0  0
M  CHG  1  76   1
M  ISO  4  37 100  64 101  75 100  83 101
M  END
> <Batch ID>
0087

> <Smiles>
CNC(C)C(=O)NC(C(=O)N1Cc2cc([101O:1][101CH:1](C)Cc3ccc(C)c(CCC[100N:0](C)[100C:0](=O)N4CCCC(n5nc(-c6ccc(Oc7ccc(F)cc7F)cc6)c(C(N)=O)c5N)C4)n3)ccc2CC1C(=O)NC1CCCc2ccccc21)C(C)(C)C

> <Shape>
0.233

> <Color>
0.083

> <Negative vol penalty>
0.000

$$$$

  -OEChem-04052319013D

 85 93  0     1  0  0  0  0  0999 V2000
  -15.0134  -27.1875   25.1871 C   0  0  0  0  0  0  0  0  0  0  0  0
  -15.9077  -26.3280   24.5570 C   0  0  0  0  0  0  0  0  0  0  0  0
  -22.9425   -9.9195   20.0204 C   0  0  0  0  0  0  0  0  0  0  0  0
  -23.6605  -10.0002   22.3259 C   0  0  0  0  0  0  0  0  0  0  0  0
  -15.1847  -28.5674   25.0846 C   0  0  0  0  0  0  0  0  0  0  0  0
  -16.9732  -26.8480   23.8230 C   0  0  0  0  0  0  0  0  0  0  0  0
  -21.3361  -24.4592   24.7737 C   0  0  0  0  0  0  0  0  0  0  0  0
  -22.1419   -8.8143   20.3084 C   0  0  0  0  0  0  0  0  0  0  0  0
  -22.8598   -8.8950   22.6139 C   0  0  0  0  0  0  0  0  0  0  0  0
  -21.5299  -23.2206   24.1638 C   0  0  0  0  0  0  0  0  0  0  0  0
  -23.0072   -5.5406   22.2168 C   0  0  0  0  0  0  0  0  0  0  0  0
  -23.5617   -4.5235   22.9937 C   0  0  0  0  0  0  0  0  0  0  0  0
  -27.4396  -17.9293   19.0775 C   0  0  0  0  0  0  0  0  0  0  0  0
  -28.8420  -17.7421   19.0048 C   0  0  0  0  0  0  0  0  0  0  0  0
  -22.8999  -24.2713   22.4790 C   0  0  0  0  0  0  0  0  0  0  0  0
  -21.8397   -4.8541   24.6557 C   0  0  0  0  0  0  0  0  0  0  0  0
  -23.7019  -10.5125   21.0292 C   0  0  0  0  0  0  0  0  0  0  0  0
  -24.1619  -13.0112   20.7994 C   0  0  0  0  0  0  0  0  0  0  0  0
  -16.2585  -29.1044   24.3571 C   0  0  0  0  0  0  0  0  0  0  0  0
  -21.9148  -25.6168   24.2337 C   0  0  0  0  0  0  0  0  0  0  0  0
  -17.1583  -28.2364   23.7096 C   0  0  0  0  0  0  0  0  0  0  0  0
  -22.7140  -25.5230   23.0855 C   0  0  0  0  0  0  0  0  0  0  0  0
  -22.1005   -8.3020   21.6051 C   0  0  0  0  0  0  0  0  0  0  0  0
  -22.3095  -23.1269   23.0146 C   0  0  0  0  0  0  0  0  0  0  0  0
  -21.8690   -6.2146   22.6594 C   0  0  0  0  0  0  0  0  0  0  0  0
  -22.9780   -4.1802   24.2131 C   0  0  0  0  0  0  0  0  0  0  0  0
  -21.2852   -5.8713   23.8788 C   0  0  0  0  0  0  0  0  0  0  0  0
  -24.5296  -11.6539   20.7322 C   0  0  0  0  0  0  0  0  0  0  0  0
  -27.1292  -18.2061   20.3906 C   0  0  0  0  0  0  0  0  0  0  0  0
  -29.3459  -17.9100   20.2757 C   0  0  0  0  0  0  0  0  0  0  0  0
  -25.2938  -13.6925   20.4239 C   0  0  0  0  0  0  0  0  0  0  0  0
  -22.9092  -13.6031   21.1683 C   0  0  0  0  0  0  0  0  0  0  0  0
  -20.7900  -28.3379   23.0363 C   0  0  0  0  0  0  0  0  0  0  0  0
  -23.9303  -29.1468   22.9553 C   0  0  0  0  0  0  0  0  0  0  0  0
  -27.1838  -28.1229   22.8419 C   0  0  0  0  0  0  0  0  0  0  0  0
  -30.8145  -14.4703   20.6754 C   0  0  0  0  0  0  0  0  0  0  0  0
  -16.3754  -30.6032   24.2353 C   0  0  0  0  0  0  0  0  0  0  0  0
  -21.7182  -26.9413   24.9188 C   0  0  0  0  0  0  0  0  0  0  0  0
  -23.3741  -26.7327   22.4777 C   0  0  0  0  0  0  0  0  0  0  0  0
  -17.7455  -31.0698   23.7503 C   0  0  0  0  0  0  0  0  0  0  0  0
  -29.6113  -12.0298   18.3791 C   0  0  0  0  0  0  0  0  0  0  0  0
  -18.1977  -30.2423   22.5513 C   0  0  0  0  0  0  0  0  0  0  0  0
  -28.1543  -11.8221   18.7961 C   0  0  0  0  0  0  0  0  0  0  0  0
  -30.5159  -12.2653   19.5867 C   0  0  0  0  0  0  0  0  0  0  0  0
  -28.6252  -13.1462   20.8994 C   0  0  0  0  0  0  0  0  0  0  0  0
  -18.3408  -28.7620   22.9250 C   0  0  1  0  0  0  0  0  0  0  0  0
  -21.9328  -28.1322   23.9898 C   0  0  1  0  0  0  0  0  0  0  0  0
  -27.6654  -12.9605   19.7117 C   0  0  2  0  0  0  0  0  0  0  0  0
  -29.5275  -29.0149   22.7467 C   0  0  0  0  0  0  0  0  0  0  0  0
  -31.3170  -19.1299   21.4260 C   0  0  0  0  0  0  0  0  0  0  0  0
  -31.7256  -17.5258   19.5778 C   0  0  0  0  0  0  0  0  0  0  0  0
  -23.5527  -29.8169   20.0026 C   0  0  0  0  0  0  0  0  0  0  0  0
  -26.0429  -29.7754   19.7465 C   0  0  0  0  0  0  0  0  0  0  0  0
  -24.9748  -31.4397   21.2670 C   0  0  0  0  0  0  0  0  0  0  0  0
  -28.4022  -18.4360   22.5329 C   0  0  0  0  0  0  0  0  0  0  0  0
  -27.8993  -26.8424   25.4123 C   0  0  0  0  0  0  0  0  0  0  0  0
  -25.7922  -18.4882   21.0286 C   0  0  0  0  0  0  0  0  0  0  0  0
  -25.4137  -19.9734   21.0421 C   0  0  0  0  0  0  0  0  0  0  0  0
  -24.0920  -20.2479   21.7609 C   0  0  0  0  0  0  0  0  0  0  0  0
  -30.9571  -16.6716   21.8126 C   0  0  0  0  0  0  0  0  0  0  0  0
  -23.7296  -21.7262   21.7196 C   0  0  0  0  0  0  0  0  0  1  0  0
  -25.0450  -29.0056   21.9471 C   0  0  1  0  0  0  0  0  0  0  0  0
  -28.3997  -28.5397   23.6495 C   0  0  2  0  0  0  0  0  0  0  0  0
  -30.7390  -17.8251   20.7603 C   0  0  0  0  0  0  0  0  0  0  0  0
  -24.8900  -29.9867   20.7509 C   0  0  0  0  0  0  0  0  0  0  0  0
  -25.7960  -11.4814   20.3443 N   0  0  0  0  0  0  0  0  0  0  0  0
  -28.2956  -18.1915   21.1099 N   0  0  0  0  0  0  0  0  0  0  0  0
  -26.2340  -12.7391   20.1644 N   0  0  0  0  0  0  0  0  0  0  0  0
  -23.1467  -28.0062   23.1806 N   0  0  0  0  0  0  0  0  0  0  0  0
  -29.9974  -13.3583   20.4129 N   0  0  0  0  0  0  0  0  0  0  0  0
  -25.5667  -15.0082   20.2936 N   0  0  0  0  0  0  0  0  0  0  0  0
  -21.8506  -12.7575   21.5268 N   0  0  0  0  0  0  0  0  0  0  0  0
  -19.5711  -28.5416   23.6546 N   0  0  0  0  0  0  0  0  0  0  0  0
  -26.2903  -29.1622   22.6908 N   0  0  0  0  0  0  0  0  0  0  0  0
  -30.2437  -15.4639   21.4614 N   0  0  0  0  0  0  0  0  0  0  0  0
  -28.8990  -27.3947   24.4623 N   0  3  0  0  0  0  0  0  0  0  0  0
  -22.7290  -14.8444   21.1639 O   0  0  0  0  0  0  0  0  0  0  0  0
  -20.9988  -28.3151   21.8290 O   0  0  0  0  0  0  0  0  0  0  0  0
  -23.7655  -30.2272   23.5272 O   0  0  0  0  0  0  0  0  0  0  0  0
  -27.0427  -26.9899   22.3871 O   0  0  0  0  0  0  0  0  0  0  0  0
  -31.9653  -14.5726   20.2372 O   0  0  0  0  0  0  0  0  0  0  0  0
  -21.3192   -7.2236   21.8866 O   0  0  0  0  0  0  0  0  0  0  0  0
  -22.4997  -21.9192   22.4169 O   0  0  0  0  0  0  0  0  0  1  0  0
  -23.5097   -3.2024   24.9583 F   0  0  0  0  0  0  0  0  0  0  0  0
  -20.1909   -6.5144   24.3087 F   0  0  0  0  0  0  0  0  0  0  0  0
  1  2  1  0  0  0  0
  1  5  2  0  0  0  0
  2  6  2  0  0  0  0
  3  8  2  0  0  0  0
  3 17  1  0  0  0  0
  4  9  1  0  0  0  0
  4 17  2  0  0  0  0
  5 19  1  0  0  0  0
  6 21  1  0  0  0  0
  7 10  2  0  0  0  0
  7 20  1  0  0  0  0
  8 23  1  0  0  0  0
  9 23  2  0  0  0  0
 10 24  1  0  0  0  0
 11 12  2  0  0  0  0
 11 25  1  0  0  0  0
 12 26  1  0  0  0  0
 13 14  1  0  0  0  0
 13 29  2  0  0  0  0
 14 30  2  0  0  0  0
 15 22  1  0  0  0  0
 15 24  2  0  0  0  0
 16 26  2  0  0  0  0
 16 27  1  0  0  0  0
 17 28  1  0  0  0  0
 18 28  1  0  0  0  0
 18 31  2  0  0  0  0
 18 32  1  0  0  0  0
 19 21  2  0  0  0  0
 19 37  1  0  0  0  0
 20 22  2  0  0  0  0
 20 38  1  0  0  0  0
 21 46  1  0  0  0  0
 22 39  1  0  0  0  0
 23 82  1  0  0  0  0
 24 83  1  0  0  0  0
 25 27  2  0  0  0  0
 25 82  1  0  0  0  0
 26 84  1  0  0  0  0
 27 85  1  0  0  0  0
 28 66  2  0  0  0  0
 29 57  1  0  0  0  0
 29 67  1  0  0  0  0
 30 64  1  0  0  0  0
 30 67  1  0  0  0  0
 31 68  1  0  0  0  0
 31 71  1  0  0  0  0
 32 72  1  0  0  0  0
 32 77  2  0  0  0  0
 33 47  1  0  0  0  0
 33 73  1  0  0  0  0
 33 78  2  0  0  0  0
 34 62  1  0  0  0  0
 34 69  1  0  0  0  0
 34 79  2  0  0  0  0
 35 63  1  0  0  0  0
 35 74  1  0  0  0  0
 35 80  2  0  0  0  0
 36 70  1  0  0  0  0
 36 75  1  0  0  0  0
 36 81  2  0  0  0  0
 37 40  1  0  0  0  0
 38 47  1  0  0  0  0
 39 69  1  0  0  0  0
 40 42  1  0  0  0  0
 41 43  1  0  0  0  0
 41 44  1  0  0  0  0
 42 46  1  0  0  0  0
 43 48  1  0  0  0  0
 44 70  1  0  0  0  0
 45 48  1  0  0  0  0
 45 70  1  0  0  0  0
 46 73  1  0  0  0  0
 47 69  1  0  0  0  0
 48 68  1  0  0  0  0
 49 63  1  0  0  0  0
 50 64  1  0  0  0  0
 51 64  1  0  0  0  0
 52 65  1  0  0  0  0
 53 65  1  0  0  0  0
 54 65  1  0  0  0  0
 55 67  1  0  0  0  0
 56 76  1  0  0  0  0
 57 58  1  0  0  0  0
 58 59  1  0  0  0  0
 59 61  1  0  0  0  0
 60 64  1  0  0  0  0
 60 75  1  0  0  0  0
 61 83  1  0  0  0  0
 62 65  1  0  0  0  0
 62 74  1  0  0  0  0
 63 76  1  0  0  0  0
 66 68  1  0  0  0  0
M  CHG  1  76   1
M  ISO  4  36 100  61 101  75 100  83 101
M  END
> <Batch ID>
0087

> <Smiles>
CNC(C)C(=O)NC(C(=O)N1Cc2cc([101O:1][101CH2:1]CCCc3ccc(C(C)(C)C[100NH:0][100C:0](=O)N4CCCC(n5nc(-c6ccc(Oc7ccc(F)cc7F)cc6)c(C(N)=O)c5N)C4)n3C)ccc2CC1C(=O)NC1CCCc2ccccc21)C(C)(C)C

> <Shape>
0.331

> <Color>
0.221

> <Negative vol penalty>
0.000

$$$$

  -OEChem-04052319013D

 85 93  0     1  0  0  0  0  0999 V2000
  -35.6973  -19.8393   13.9858 C   0  0  0  0  0  0  0  0  0  0  0  0
  -34.8226  -19.7025   15.0590 C   0  0  0  0  0  0  0  0  0  0  0  0
  -23.1658   -9.8355   20.0028 C   0  0  0  0  0  0  0  0  0  0  0  0
  -23.7914   -9.9884   22.3313 C   0  0  0  0  0  0  0  0  0  0  0  0
  -36.6253  -20.8797   13.9727 C   0  0  0  0  0  0  0  0  0  0  0  0
  -34.8762  -20.6055   16.1202 C   0  0  0  0  0  0  0  0  0  0  0  0
  -30.2848  -22.1759   17.5686 C   0  0  0  0  0  0  0  0  0  0  0  0
  -22.4116   -8.6955   20.2802 C   0  0  0  0  0  0  0  0  0  0  0  0
  -23.0371   -8.8484   22.6088 C   0  0  0  0  0  0  0  0  0  0  0  0
  -29.5334  -21.3053   18.3568 C   0  0  0  0  0  0  0  0  0  0  0  0
  -20.0297   -5.9539   20.4400 C   0  0  0  0  0  0  0  0  0  0  0  0
  -18.7546   -5.8680   19.8811 C   0  0  0  0  0  0  0  0  0  0  0  0
  -30.1721  -22.5455   20.3248 C   0  0  0  0  0  0  0  0  0  0  0  0
  -31.8940  -18.8930   21.2553 C   0  0  0  0  0  0  0  0  0  0  0  0
  -18.1091   -7.8851   21.0437 C   0  0  0  0  0  0  0  0  0  0  0  0
  -23.8558  -10.4819   21.0283 C   0  0  0  0  0  0  0  0  0  0  0  0
  -24.1978  -12.9969   20.7722 C   0  0  0  0  0  0  0  0  0  0  0  0
  -36.6839  -21.8016   15.0297 C   0  0  0  0  0  0  0  0  0  0  0  0
  -30.9955  -23.2331   18.1548 C   0  0  0  0  0  0  0  0  0  0  0  0
  -35.8068  -21.6584   16.1218 C   0  0  0  0  0  0  0  0  0  0  0  0
  -30.9297  -23.4296   19.5416 C   0  0  0  0  0  0  0  0  0  0  0  0
  -30.9328  -17.9732   21.6359 C   0  0  0  0  0  0  0  0  0  0  0  0
  -22.3472   -8.2019   21.5832 C   0  0  0  0  0  0  0  0  0  0  0  0
  -29.4793  -21.4883   19.7355 C   0  0  0  0  0  0  0  0  0  0  0  0
  -20.3445   -7.0054   21.3009 C   0  0  0  0  0  0  0  0  0  0  0  0
  -17.7943   -6.8336   20.1829 C   0  0  0  0  0  0  0  0  0  0  0  0
  -19.3842   -7.9710   21.6027 C   0  0  0  0  0  0  0  0  0  0  0  0
  -24.6356  -11.6593   20.7422 C   0  0  0  0  0  0  0  0  0  0  0  0
  -33.0711  -18.4125   20.7178 C   0  0  0  0  0  0  0  0  0  0  0  0
  -31.2122  -16.6337   21.4535 C   0  0  0  0  0  0  0  0  0  0  0  0
  -25.3074  -13.7292   20.4269 C   0  0  0  0  0  0  0  0  0  0  0  0
  -22.9039  -13.5299   21.0844 C   0  0  0  0  0  0  0  0  0  0  0  0
  -34.0641  -24.0400   18.3453 C   0  0  0  0  0  0  0  0  0  0  0  0
  -32.8714  -26.7194   19.7311 C   0  0  0  0  0  0  0  0  0  0  0  0
  -30.3178  -28.2077   21.4373 C   0  0  0  0  0  0  0  0  0  0  0  0
  -31.1338  -13.2677   21.3878 C   0  0  0  0  0  0  0  0  0  0  0  0
  -37.7357  -22.8818   14.9933 C   0  0  0  0  0  0  0  0  0  0  0  0
  -31.7798  -24.1794   17.2877 C   0  0  0  0  0  0  0  0  0  0  0  0
  -31.6581  -24.5615   20.2176 C   0  0  0  0  0  0  0  0  0  0  0  0
  -37.4767  -24.0177   15.9798 C   0  0  0  0  0  0  0  0  0  0  0  0
  -29.5436  -12.7705   18.0825 C   0  0  0  0  0  0  0  0  0  0  0  0
  -37.1066  -23.4602   17.3506 C   0  0  0  0  0  0  0  0  0  0  0  0
  -28.0886  -12.4868   18.4521 C   0  0  0  0  0  0  0  0  0  0  0  0
  -30.5035  -12.3424   19.1883 C   0  0  0  0  0  0  0  0  0  0  0  0
  -28.7344  -12.6456   20.8890 C   0  0  0  0  0  0  0  0  0  0  0  0
  -35.8176  -22.6325   17.2798 C   0  0  1  0  0  0  0  0  0  0  0  0
  -32.8791  -24.9147   18.0481 C   0  0  1  0  0  0  0  0  0  0  0  0
  -27.7378  -13.1079   19.8154 C   0  0  2  0  0  0  0  0  0  0  0  0
  -36.2324  -20.6126   20.9842 C   0  0  0  0  0  0  0  0  0  0  0  0
  -29.6474  -30.3970   22.4644 C   0  0  0  0  0  0  0  0  0  0  0  0
  -34.7495  -26.1911   22.0771 C   0  0  0  0  0  0  0  0  0  0  0  0
  -33.3929  -27.7987   23.4349 C   0  0  0  0  0  0  0  0  0  0  0  0
  -34.5853  -28.5907   21.3920 C   0  0  0  0  0  0  0  0  0  0  0  0
  -31.5011  -14.3663   23.5645 C   0  0  0  0  0  0  0  0  0  0  0  0
  -27.9628  -28.4521   19.6615 C   0  0  0  0  0  0  0  0  0  0  0  0
  -29.6288  -18.4448   22.2281 C   0  0  0  0  0  0  0  0  0  0  0  0
  -34.1387  -19.3613   20.2924 C   0  0  0  0  0  0  0  0  0  0  0  0
  -30.2247  -15.5853   21.8409 C   0  0  0  0  0  0  0  0  0  0  0  0
  -35.1243  -19.6717   21.4298 C   0  0  0  0  0  0  0  0  0  0  0  0
  -28.4504  -18.3790   21.2540 C   0  0  0  0  0  0  0  0  0  0  0  0
  -28.6129  -19.2955   20.0470 C   0  0  0  0  0  0  0  0  0  1  0  0
  -32.5345  -27.1333   21.1432 C   0  0  1  0  0  0  0  0  0  0  0  0
  -29.5938  -29.5242   21.2201 C   0  0  2  0  0  0  0  0  0  0  0  0
  -33.8033  -27.4059   21.9996 C   0  0  0  0  0  0  0  0  0  0  0  0
  -25.9229  -11.5455   20.4044 N   0  0  0  0  0  0  0  0  0  0  0  0
  -33.3177  -17.0959   20.5509 N   0  0  0  0  0  0  0  0  0  0  0  0
  -32.3729  -16.1919   20.9246 N   0  0  0  0  0  0  0  0  0  0  0  0
  -26.3034  -12.8210   20.2188 N   0  0  0  0  0  0  0  0  0  0  0  0
  -32.4164  -25.4561   19.3275 N   0  0  0  0  0  0  0  0  0  0  0  0
  -30.1219  -12.9120   20.4810 N   0  0  0  0  0  0  0  0  0  0  0  0
  -25.5184  -15.0548   20.2839 N   0  0  0  0  0  0  0  0  0  0  0  0
  -21.8764  -12.6371   21.4183 N   0  0  0  0  0  0  0  0  0  0  0  0
  -34.6616  -23.5013   17.2217 N   0  0  0  0  0  0  0  0  0  0  0  0
  -31.6334  -28.2751   21.0300 N   0  0  0  0  0  0  0  0  0  0  0  0
  -30.8692  -14.3402   22.2530 N   0  0  0  0  0  0  0  0  0  0  0  0
  -28.1639  -29.2789   20.8793 N   0  3  0  0  0  0  0  0  0  0  0  0
  -22.6617  -14.7603   21.0517 O   0  0  0  0  0  0  0  0  0  0  0  0
  -34.4116  -23.8678   19.5077 O   0  0  0  0  0  0  0  0  0  0  0  0
  -33.5084  -27.4916   19.0102 O   0  0  0  0  0  0  0  0  0  0  0  0
  -29.7719  -27.2196   21.9233 O   0  0  0  0  0  0  0  0  0  0  0  0
  -32.2158  -12.6674   21.4157 O   0  0  0  0  0  0  0  0  0  0  0  0
  -21.6110   -7.0897   21.8544 O   0  0  0  0  0  0  0  0  0  0  0  0
  -28.7472  -20.6396   20.5072 O   0  0  0  0  0  0  0  0  0  1  0  0
  -16.5704   -6.7519   19.6448 F   0  0  0  0  0  0  0  0  0  0  0  0
  -19.6811   -8.9841   22.4281 F   0  0  0  0  0  0  0  0  0  0  0  0
  1  2  1  0  0  0  0
  1  5  2  0  0  0  0
  2  6  2  0  0  0  0
  3  8  2  0  0  0  0
  3 16  1  0  0  0  0
  4  9  1  0  0  0  0
  4 16  2  0  0  0  0
  5 18  1  0  0  0  0
  6 20  1  0  0  0  0
  7 10  2  0  0  0  0
  7 19  1  0  0  0  0
  8 23  1  0  0  0  0
  9 23  2  0  0  0  0
 10 24  1  0  0  0  0
 11 12  2  0  0  0  0
 11 25  1  0  0  0  0
 12 26  1  0  0  0  0
 13 21  1  0  0  0  0
 13 24  2  0  0  0  0
 14 22  2  0  0  0  0
 14 29  1  0  0  0  0
 15 26  2  0  0  0  0
 15 27  1  0  0  0  0
 16 28  1  0  0  0  0
 17 28  1  0  0  0  0
 17 31  2  0  0  0  0
 17 32  1  0  0  0  0
 18 20  2  0  0  0  0
 18 37  1  0  0  0  0
 19 21  2  0  0  0  0
 19 38  1  0  0  0  0
 20 46  1  0  0  0  0
 21 39  1  0  0  0  0
 22 30  1  0  0  0  0
 22 56  1  0  0  0  0
 23 82  1  0  0  0  0
 24 83  1  0  0  0  0
 25 27  2  0  0  0  0
 25 82  1  0  0  0  0
 26 84  1  0  0  0  0
 27 85  1  0  0  0  0
 28 65  2  0  0  0  0
 29 57  1  0  0  0  0
 29 66  2  0  0  0  0
 30 58  1  0  0  0  0
 30 67  2  0  0  0  0
 31 68  1  0  0  0  0
 31 71  1  0  0  0  0
 32 72  1  0  0  0  0
 32 77  2  0  0  0  0
 33 47  1  0  0  0  0
 33 73  1  0  0  0  0
 33 78  2  0  0  0  0
 34 62  1  0  0  0  0
 34 69  1  0  0  0  0
 34 79  2  0  0  0  0
 35 63  1  0  0  0  0
 35 74  1  0  0  0  0
 35 80  2  0  0  0  0
 36 70  1  0  0  0  0
 36 75  1  0  0  0  0
 36 81  2  0  0  0  0
 37 40  1  0  0  0  0
 38 47  1  0  0  0  0
 39 69  1  0  0  0  0
 40 42  1  0  0  0  0
 41 43  1  0  0  0  0
 41 44  1  0  0  0  0
 42 46  1  0  0  0  0
 43 48  1  0  0  0  0
 44 70  1  0  0  0  0
 45 48  1  0  0  0  0
 45 70  1  0  0  0  0
 46 73  1  0  0  0  0
 47 69  1  0  0  0  0
 48 68  1  0  0  0  0
 49 59  1  0  0  0  0
 50 63  1  0  0  0  0
 51 64  1  0  0  0  0
 52 64  1  0  0  0  0
 53 64  1  0  0  0  0
 54 75  1  0  0  0  0
 55 76  1  0  0  0  0
 56 60  1  0  0  0  0
 57 59  1  0  0  0  0
 58 75  1  0  0  0  0
 60 61  1  0  0  0  0
 61 83  1  0  0  0  0
 62 64  1  0  0  0  0
 62 74  1  0  0  0  0
 63 76  1  0  0  0  0
 65 68  1  0  0  0  0
 66 67  1  0  0  0  0
M  CHG  1  76   1
M  ISO  4  36 100  61 101  75 100  83 101
M  END
> <Batch ID>
0087

> <Smiles>
CCCc1cc(CC[101CH2:1][101O:1]c2ccc3c(c2)CN(C(=O)C(NC(=O)C(C)NC)C(C)(C)C)C(C(=O)NC2CCCc4ccccc42)C3)c(C[100N:0](C)[100C:0](=O)N2CCCC(n3nc(-c4ccc(Oc5ccc(F)cc5F)cc4)c(C(N)=O)c3N)C2)nn1

> <Shape>
0.234

> <Color>
0.179

> <Negative vol penalty>
0.000

$$$$

  -OEChem-04052319013D

 88 96  0     1  0  0  0  0  0999 V2000
  -28.6529  -23.6305   27.9642 C   0  0  0  0  0  0  0  0  0  0  0  0
  -29.3342  -23.2384   26.8164 C   0  0  0  0  0  0  0  0  0  0  0  0
  -23.0021   -9.8947   19.9821 C   0  0  0  0  0  0  0  0  0  0  0  0
  -23.7321   -9.9448   22.2846 C   0  0  0  0  0  0  0  0  0  0  0  0
  -27.2983  -23.9532   27.8936 C   0  0  0  0  0  0  0  0  0  0  0  0
  -28.6609  -23.1676   25.5973 C   0  0  0  0  0  0  0  0  0  0  0  0
  -31.3024  -25.2232   21.7971 C   0  0  0  0  0  0  0  0  0  0  0  0
  -22.2375   -8.7590   20.2491 C   0  0  0  0  0  0  0  0  0  0  0  0
  -22.9675   -8.8091   22.5517 C   0  0  0  0  0  0  0  0  0  0  0  0
  -32.3407  -24.4638   21.2595 C   0  0  0  0  0  0  0  0  0  0  0  0
  -23.2149   -5.4708   22.0767 C   0  0  0  0  0  0  0  0  0  0  0  0
  -23.8053   -4.4538   22.8268 C   0  0  0  0  0  0  0  0  0  0  0  0
  -30.9116  -23.8186   19.4263 C   0  0  0  0  0  0  0  0  0  0  0  0
  -28.8125  -17.6989   19.1635 C   0  0  0  0  0  0  0  0  0  0  0  0
  -22.0847   -4.6933   24.5058 C   0  0  0  0  0  0  0  0  0  0  0  0
  -30.3306  -18.6600   17.8064 C   0  0  0  0  0  0  0  0  0  0  0  0
  -23.7494  -10.4875   20.9998 C   0  0  0  0  0  0  0  0  0  0  0  0
  -24.1312  -13.0037   20.8249 C   0  0  0  0  0  0  0  0  0  0  0  0
  -26.6105  -23.8956   26.6712 C   0  0  0  0  0  0  0  0  0  0  0  0
  -30.0554  -25.2774   21.1579 C   0  0  0  0  0  0  0  0  0  0  0  0
  -27.2956  -23.4885   25.5105 C   0  0  0  0  0  0  0  0  0  0  0  0
  -29.8600  -24.5815   19.9564 C   0  0  0  0  0  0  0  0  0  0  0  0
  -29.1156  -18.0112   17.8152 C   0  0  0  0  0  0  0  0  0  0  0  0
  -22.2202   -8.2162   21.5340 C   0  0  0  0  0  0  0  0  0  0  0  0
  -32.1445  -23.7590   20.0755 C   0  0  0  0  0  0  0  0  0  0  0  0
  -22.0595   -6.0992   22.5412 C   0  0  0  0  0  0  0  0  0  0  0  0
  -23.2402   -4.0650   24.0413 C   0  0  0  0  0  0  0  0  0  0  0  0
  -21.4944   -5.7104   23.7558 C   0  0  0  0  0  0  0  0  0  0  0  0
  -24.5398  -11.6603   20.7244 C   0  0  0  0  0  0  0  0  0  0  0  0
  -29.8515  -18.1666   19.9375 C   0  0  0  0  0  0  0  0  0  0  0  0
  -25.2393  -13.7280   20.4587 C   0  0  0  0  0  0  0  0  0  0  0  0
  -22.8634  -13.5483   21.2145 C   0  0  0  0  0  0  0  0  0  0  0  0
  -27.0933  -24.4343   21.9443 C   0  0  0  0  0  0  0  0  0  0  0  0
  -26.3545  -25.8691   19.1304 C   0  0  0  0  0  0  0  0  0  0  0  0
  -27.3774  -26.8695   16.0321 C   0  0  0  0  0  0  0  0  0  0  0  0
  -30.7350  -14.6692   20.6963 C   0  0  0  0  0  0  0  0  0  0  0  0
  -25.1351  -24.2082   26.6531 C   0  0  0  0  0  0  0  0  0  0  0  0
  -28.9540  -26.1227   21.7365 C   0  0  0  0  0  0  0  0  0  0  0  0
  -28.5465  -24.6231   19.2206 C   0  0  0  0  0  0  0  0  0  0  0  0
  -24.5849  -24.4687   25.2532 C   0  0  0  0  0  0  0  0  0  0  0  0
  -29.5923  -12.2459   18.3513 C   0  0  0  0  0  0  0  0  0  0  0  0
  -25.0769  -23.4027   24.2793 C   0  0  0  0  0  0  0  0  0  0  0  0
  -28.1451  -11.9841   18.7718 C   0  0  0  0  0  0  0  0  0  0  0  0
  -30.4970  -12.4815   19.5588 C   0  0  0  0  0  0  0  0  0  0  0  0
  -28.5888  -13.2736   20.9023 C   0  0  0  0  0  0  0  0  0  0  0  0
  -26.6059  -23.4234   24.1650 C   0  0  1  0  0  0  0  0  0  0  0  0
  -27.5652  -25.6932   21.2735 C   0  0  1  0  0  0  0  0  0  0  0  0
  -27.6275  -13.0857   19.7162 C   0  0  2  0  0  0  0  0  0  0  0  0
  -28.7087  -18.1965   22.1774 C   0  0  0  0  0  0  0  0  0  0  0  0
  -26.5389  -27.9812   13.9444 C   0  0  0  0  0  0  0  0  0  0  0  0
  -26.8719  -18.3695   16.7276 C   0  0  0  0  0  0  0  0  0  0  0  0
  -28.0495  -16.1584   16.4819 C   0  0  0  0  0  0  0  0  0  0  0  0
  -28.8594  -18.1595   15.2485 C   0  0  0  0  0  0  0  0  0  0  0  0
  -24.9242  -23.2935   18.3364 C   0  0  0  0  0  0  0  0  0  0  0  0
  -24.9467  -24.0945   15.9644 C   0  0  0  0  0  0  0  0  0  0  0  0
  -23.7198  -25.3926   17.7058 C   0  0  0  0  0  0  0  0  0  0  0  0
  -33.4377  -21.6192   21.4807 C   0  0  0  0  0  0  0  0  0  0  0  0
  -34.4590  -21.0290   19.2675 C   0  0  0  0  0  0  0  0  0  0  0  0
  -29.3028  -29.1002   16.3076 C   0  0  0  0  0  0  0  0  0  0  0  0
  -31.9612  -20.9254   19.5163 C   0  0  0  0  0  0  0  0  0  0  0  0
  -32.0656  -19.3937   19.5247 C   0  0  0  0  0  0  0  0  0  0  0  0
  -30.8176  -16.8473   21.8829 C   0  0  0  0  0  0  0  0  0  0  0  0
  -30.0451  -18.1062   21.4011 C   0  0  1  0  0  0  0  0  0  0  0  0
  -26.2479  -25.4153   17.6946 C   0  0  1  0  0  0  0  0  0  0  0  0
  -27.2121  -28.1850   15.2928 C   0  0  2  0  0  0  0  0  0  0  0  0
  -28.2843  -17.6991   16.6370 C   0  0  0  0  0  0  0  0  0  0  0  0
  -24.9839  -24.5464   17.4399 C   0  0  0  0  0  0  0  0  0  0  0  0
  -33.2451  -21.6538   19.9631 C   0  0  0  0  0  0  0  0  0  1  0  0
  -25.8084  -11.5357   20.3254 N   0  0  0  0  0  0  0  0  0  0  0  0
  -30.7684  -18.7492   19.1020 N   0  0  0  0  0  0  0  0  0  0  0  0
  -26.2065  -12.8101   20.1719 N   0  0  0  0  0  0  0  0  0  0  0  0
  -27.4983  -25.4585   19.8296 N   0  0  0  0  0  0  0  0  0  0  0  0
  -29.9507  -13.5389   20.4129 N   0  0  0  0  0  0  0  0  0  0  0  0
  -25.4709  -15.0540   20.3572 N   0  0  0  0  0  0  0  0  0  0  0  0
  -21.8334  -12.6626   21.5596 N   0  0  0  0  0  0  0  0  0  0  0  0
  -27.0350  -24.5190   23.3223 N   0  0  0  0  0  0  0  0  0  0  0  0
  -26.3174  -26.6227   16.8786 N   0  0  0  0  0  0  0  0  0  0  0  0
  -30.1392  -15.6266   21.5081 N   0  0  0  0  0  0  0  0  0  0  0  0
  -28.5403  -28.8209   15.0636 N   0  3  0  0  0  0  0  0  0  0  0  0
  -22.6452  -14.7833   21.2397 O   0  0  0  0  0  0  0  0  0  0  0  0
  -26.8020  -23.4589   21.2621 O   0  0  0  0  0  0  0  0  0  0  0  0
  -25.4594  -26.5683   19.6117 O   0  0  0  0  0  0  0  0  0  0  0  0
  -28.3480  -26.1327   15.8718 O   0  0  0  0  0  0  0  0  0  0  0  0
  -31.8793  -14.8169   20.2538 O   0  0  0  0  0  0  0  0  0  0  0  0
  -21.4741   -7.1082   21.7950 O   0  0  0  0  0  0  0  0  0  0  0  0
  -33.1561  -23.0165   19.5490 O   0  0  0  0  0  0  0  0  0  1  0  0
  -23.8064   -3.0872   24.7607 F   0  0  0  0  0  0  0  0  0  0  0  0
  -20.3837   -6.3095   24.2066 F   0  0  0  0  0  0  0  0  0  0  0  0
  1  2  1  0  0  0  0
  1  5  2  0  0  0  0
  2  6  2  0  0  0  0
  3  8  2  0  0  0  0
  3 17  1  0  0  0  0
  4  9  1  0  0  0  0
  4 17  2  0  0  0  0
  5 19  1  0  0  0  0
  6 21  1  0  0  0  0
  7 10  2  0  0  0  0
  7 20  1  0  0  0  0
  8 24  1  0  0  0  0
  9 24  2  0  0  0  0
 10 25  1  0  0  0  0
 11 12  2  0  0  0  0
 11 26  1  0  0  0  0
 12 27  1  0  0  0  0
 13 22  1  0  0  0  0
 13 25  2  0  0  0  0
 14 23  1  0  0  0  0
 14 30  2  0  0  0  0
 15 27  2  0  0  0  0
 15 28  1  0  0  0  0
 16 23  2  0  0  0  0
 16 70  1  0  0  0  0
 17 29  1  0  0  0  0
 18 29  1  0  0  0  0
 18 31  2  0  0  0  0
 18 32  1  0  0  0  0
 19 21  2  0  0  0  0
 19 37  1  0  0  0  0
 20 22  2  0  0  0  0
 20 38  1  0  0  0  0
 21 46  1  0  0  0  0
 22 39  1  0  0  0  0
 23 66  1  0  0  0  0
 24 85  1  0  0  0  0
 25 86  1  0  0  0  0
 26 28  2  0  0  0  0
 26 85  1  0  0  0  0
 27 87  1  0  0  0  0
 28 88  1  0  0  0  0
 29 69  2  0  0  0  0
 30 63  1  0  0  0  0
 30 70  1  0  0  0  0
 31 71  1  0  0  0  0
 31 74  1  0  0  0  0
 32 75  1  0  0  0  0
 32 80  2  0  0  0  0
 33 47  1  0  0  0  0
 33 76  1  0  0  0  0
 33 81  2  0  0  0  0
 34 64  1  0  0  0  0
 34 72  1  0  0  0  0
 34 82  2  0  0  0  0
 35 65  1  0  0  0  0
 35 77  1  0  0  0  0
 35 83  2  0  0  0  0
 36 73  1  0  0  0  0
 36 78  1  0  0  0  0
 36 84  2  0  0  0  0
 37 40  1  0  0  0  0
 38 47  1  0  0  0  0
 39 72  1  0  0  0  0
 40 42  1  0  0  0  0
 41 43  1  0  0  0  0
 41 44  1  0  0  0  0
 42 46  1  0  0  0  0
 43 48  1  0  0  0  0
 44 73  1  0  0  0  0
 45 48  1  0  0  0  0
 45 73  1  0  0  0  0
 46 76  1  0  0  0  0
 47 72  1  0  0  0  0
 48 71  1  0  0  0  0
 49 63  1  0  0  0  0
 50 65  1  0  0  0  0
 51 66  1  0  0  0  0
 52 66  1  0  0  0  0
 53 66  1  0  0  0  0
 54 67  1  0  0  0  0
 55 67  1  0  0  0  0
 56 67  1  0  0  0  0
 57 68  1  0  0  0  0
 58 68  1  0  0  0  0
 59 79  1  0  0  0  0
 60 61  1  0  0  0  0
 60 68  1  0  0  0  0
 61 70  1  0  0  0  0
 62 63  1  0  0  0  0
 62 78  1  0  0  0  0
 64 67  1  0  0  0  0
 64 77  1  0  0  0  0
 65 79  1  0  0  0  0
 68 86  1  0  0  0  0
 69 71  1  0  0  0  0
M  CHG  1  79   1
M  ISO  4  36 100  68 101  78 100  86 101
M  END
> <Batch ID>
0087

> <Smiles>
CNC(C)C(=O)NC(C(=O)N1Cc2cc([101O:1][101C:1](C)(C)CCn3cc(C(C)(C)C)cc3C(C)C[100NH:0][100C:0](=O)N3CCCC(n4nc(-c5ccc(Oc6ccc(F)cc6F)cc5)c(C(N)=O)c4N)C3)ccc2CC1C(=O)NC1CCCc2ccccc21)C(C)(C)C

> <Shape>
0.242

> <Color>
0.193

> <Negative vol penalty>
0.000

$$$$

  -OEChem-04052319013D

 87 95  0     1  0  0  0  0  0999 V2000
  -23.9057  -29.5509   16.0421 C   0  0  0  0  0  0  0  0  0  0  0  0
  -24.4990  -28.2926   16.0463 C   0  0  0  0  0  0  0  0  0  0  0  0
  -23.1696   -9.7408   20.0528 C   0  0  0  0  0  0  0  0  0  0  0  0
  -23.8519   -9.9572   22.3603 C   0  0  0  0  0  0  0  0  0  0  0  0
  -24.3521  -30.5339   16.9244 C   0  0  0  0  0  0  0  0  0  0  0  0
  -25.5400  -28.0169   16.9322 C   0  0  0  0  0  0  0  0  0  0  0  0
  -25.0174  -23.5219   19.2053 C   0  0  0  0  0  0  0  0  0  0  0  0
  -22.4613   -8.5820   20.3709 C   0  0  0  0  0  0  0  0  0  0  0  0
  -23.1435   -8.7985   22.6784 C   0  0  0  0  0  0  0  0  0  0  0  0
  -25.3575  -22.3906   18.4649 C   0  0  0  0  0  0  0  0  0  0  0  0
  -19.9291   -7.9225   23.2444 C   0  0  0  0  0  0  0  0  0  0  0  0
  -19.1356   -7.9442   24.3913 C   0  0  0  0  0  0  0  0  0  0  0  0
  -27.4871  -22.2991   19.5943 C   0  0  0  0  0  0  0  0  0  0  0  0
  -20.4231   -6.1211   25.3165 C   0  0  0  0  0  0  0  0  0  0  0  0
  -30.3359  -17.0710   17.0596 C   0  0  0  0  0  0  0  0  0  0  0  0
  -23.8650  -10.4284   21.0475 C   0  0  0  0  0  0  0  0  0  0  0  0
  -24.1163  -12.9480   20.7377 C   0  0  0  0  0  0  0  0  0  0  0  0
  -25.3926  -30.2671   17.8281 C   0  0  0  0  0  0  0  0  0  0  0  0
  -25.9155  -24.0576   20.1396 C   0  0  0  0  0  0  0  0  0  0  0  0
  -26.0017  -28.9977   17.8265 C   0  0  0  0  0  0  0  0  0  0  0  0
  -27.1549  -23.4357   20.3471 C   0  0  0  0  0  0  0  0  0  0  0  0
  -29.8482  -17.4074   18.3121 C   0  0  0  0  0  0  0  0  0  0  0  0
  -30.7513  -17.8841   19.2557 C   0  0  0  0  0  0  0  0  0  0  0  0
  -32.0956  -18.0080   18.9227 C   0  0  0  0  0  0  0  0  0  0  0  0
  -22.4482   -8.1109   21.6837 C   0  0  0  0  0  0  0  0  0  0  0  0
  -26.5936  -21.7807   18.6572 C   0  0  0  0  0  0  0  0  0  0  0  0
  -20.9695   -7.0001   23.1335 C   0  0  0  0  0  0  0  0  0  0  0  0
  -19.3826   -7.0435   25.4274 C   0  0  0  0  0  0  0  0  0  0  0  0
  -21.2165   -6.0994   24.1695 C   0  0  0  0  0  0  0  0  0  0  0  0
  -24.5973  -11.6251   20.7194 C   0  0  0  0  0  0  0  0  0  0  0  0
  -32.4828  -17.6445   17.6430 C   0  0  0  0  0  0  0  0  0  0  0  0
  -25.1913  -13.7096   20.3493 C   0  0  0  0  0  0  0  0  0  0  0  0
  -22.8142  -13.4440   21.0757 C   0  0  0  0  0  0  0  0  0  0  0  0
  -27.4329  -26.8326   20.4566 C   0  0  0  0  0  0  0  0  0  0  0  0
  -28.3573  -25.5584   23.2928 C   0  0  0  0  0  0  0  0  0  0  0  0
  -28.9211  -22.7623   25.1664 C   0  0  0  0  0  0  0  0  0  0  0  0
  -30.6239  -14.9575   20.6221 C   0  0  0  0  0  0  0  0  0  0  0  0
  -25.8728  -31.3762   18.7303 C   0  0  0  0  0  0  0  0  0  0  0  0
  -25.5228  -25.2627   20.9495 C   0  0  0  0  0  0  0  0  0  0  0  0
  -28.1465  -23.9596   21.3525 C   0  0  0  0  0  0  0  0  0  0  0  0
  -26.7295  -30.8862   19.8949 C   0  0  0  0  0  0  0  0  0  0  0  0
  -29.6561  -12.3503   18.3988 C   0  0  0  0  0  0  0  0  0  0  0  0
  -27.7774  -29.8918   19.4054 C   0  0  0  0  0  0  0  0  0  0  0  0
  -28.2169  -12.0344   18.8100 C   0  0  0  0  0  0  0  0  0  0  0  0
  -30.5238  -12.7006   19.6056 C   0  0  0  0  0  0  0  0  0  0  0  0
  -28.5510  -13.4617   20.8716 C   0  0  0  0  0  0  0  0  0  0  0  0
  -27.1168  -28.6525   18.7895 C   0  0  1  0  0  0  0  0  0  0  0  0
  -26.7213  -26.0255   21.5053 C   0  0  1  0  0  0  0  0  0  0  0  0
  -27.6238  -13.1570   19.6826 C   0  0  2  0  0  0  0  0  0  0  0  0
  -36.1440  -20.7397   16.1138 C   0  0  0  0  0  0  0  0  0  0  0  0
  -29.7094  -22.0377   27.4359 C   0  0  0  0  0  0  0  0  0  0  0  0
  -31.2366  -26.1608   22.4824 C   0  0  0  0  0  0  0  0  0  0  0  0
  -31.9973  -24.5994   24.2856 C   0  0  0  0  0  0  0  0  0  0  0  0
  -30.7030  -26.6483   24.8765 C   0  0  0  0  0  0  0  0  0  0  0  0
  -26.3383  -21.4504   25.7724 C   0  0  0  0  0  0  0  0  0  0  0  0
  -28.3796  -17.2520   18.6164 C   0  0  0  0  0  0  0  0  0  0  0  0
  -30.2723  -18.2604   20.6220 C   0  0  0  0  0  0  0  0  0  0  0  0
  -33.9131  -17.7543   17.2238 C   0  0  0  0  0  0  0  0  0  0  0  0
  -35.7657  -19.3068   16.4529 C   0  0  0  0  0  0  0  0  0  0  0  0
  -27.5046  -18.3488   18.0056 C   0  0  0  0  0  0  0  0  0  0  0  0
  -34.3131  -19.2058   16.9184 C   0  0  0  0  0  0  0  0  0  0  0  0
  -30.5684  -17.1990   21.6857 C   0  0  0  0  0  0  0  0  0  0  0  0
  -27.8077  -19.7384   18.5539 C   0  0  0  0  0  0  0  0  0  1  0  0
  -29.5196  -24.7146   23.7576 C   0  0  1  0  0  0  0  0  0  0  0  0
  -28.5048  -22.3958   26.5795 C   0  0  2  0  0  0  0  0  0  0  0  0
  -30.8464  -25.5218   23.8301 C   0  0  0  0  0  0  0  0  0  0  0  0
  -31.6346  -17.1777   16.6994 N   0  0  0  0  0  0  0  0  0  0  0  0
  -25.8781  -11.5472   20.3485 N   0  0  0  0  0  0  0  0  0  0  0  0
  -26.2110  -12.8308   20.1301 N   0  0  0  0  0  0  0  0  0  0  0  0
  -27.7188  -25.1439   22.1153 N   0  0  0  0  0  0  0  0  0  0  0  0
  -29.9061  -13.7726   20.3900 N   0  0  0  0  0  0  0  0  0  0  0  0
  -33.0332  -18.4878   19.8577 N   0  0  0  0  0  0  0  0  0  0  0  0
  -25.3542  -15.0386   20.1772 N   0  0  0  0  0  0  0  0  0  0  0  0
  -21.8262  -12.5245   21.4533 N   0  0  0  0  0  0  0  0  0  0  0  0
  -26.6334  -27.7685   19.8285 N   0  0  0  0  0  0  0  0  0  0  0  0
  -29.1113  -24.1207   25.0261 N   0  0  0  0  0  0  0  0  0  0  0  0
  -29.9629  -15.9247   21.3692 N   0  0  0  0  0  0  0  0  0  0  0  0
  -27.5782  -21.2288   26.5603 N   0  3  0  0  0  0  0  0  0  0  0  0
  -22.5305  -14.6650   21.0280 O   0  0  0  0  0  0  0  0  0  0  0  0
  -28.6197  -26.6229   20.2347 O   0  0  0  0  0  0  0  0  0  0  0  0
  -28.0236  -26.5448   23.9541 O   0  0  0  0  0  0  0  0  0  0  0  0
  -29.0668  -21.9266   24.2770 O   0  0  0  0  0  0  0  0  0  0  0  0
  -31.7670  -15.1420   20.1905 O   0  0  0  0  0  0  0  0  0  0  0  0
  -21.7569   -6.9804   21.9945 O   0  0  0  0  0  0  0  0  0  0  0  0
  -26.9284  -20.6767   17.9354 O   0  0  0  0  0  0  0  0  0  1  0  0
  -18.6214   -7.0655   26.5294 F   0  0  0  0  0  0  0  0  0  0  0  0
  -22.2154   -5.2118   24.0692 F   0  0  0  0  0  0  0  0  0  0  0  0
  1  2  1  0  0  0  0
  1  5  2  0  0  0  0
  2  6  2  0  0  0  0
  3  8  2  0  0  0  0
  3 16  1  0  0  0  0
  4  9  1  0  0  0  0
  4 16  2  0  0  0  0
  5 18  1  0  0  0  0
  6 20  1  0  0  0  0
  7 10  2  0  0  0  0
  7 19  1  0  0  0  0
  8 25  1  0  0  0  0
  9 25  2  0  0  0  0
 10 26  1  0  0  0  0
 11 12  2  0  0  0  0
 11 27  1  0  0  0  0
 12 28  1  0  0  0  0
 13 21  1  0  0  0  0
 13 26  2  0  0  0  0
 14 28  2  0  0  0  0
 14 29  1  0  0  0  0
 15 22  1  0  0  0  0
 15 67  2  0  0  0  0
 16 30  1  0  0  0  0
 17 30  1  0  0  0  0
 17 32  2  0  0  0  0
 17 33  1  0  0  0  0
 18 20  2  0  0  0  0
 18 38  1  0  0  0  0
 19 21  2  0  0  0  0
 19 39  1  0  0  0  0
 20 47  1  0  0  0  0
 21 40  1  0  0  0  0
 22 23  2  0  0  0  0
 22 56  1  0  0  0  0
 23 24  1  0  0  0  0
 23 57  1  0  0  0  0
 24 31  2  0  0  0  0
 24 72  1  0  0  0  0
 25 84  1  0  0  0  0
 26 85  1  0  0  0  0
 27 29  2  0  0  0  0
 27 84  1  0  0  0  0
 28 86  1  0  0  0  0
 29 87  1  0  0  0  0
 30 68  2  0  0  0  0
 31 58  1  0  0  0  0
 31 67  1  0  0  0  0
 32 69  1  0  0  0  0
 32 73  1  0  0  0  0
 33 74  1  0  0  0  0
 33 79  2  0  0  0  0
 34 48  1  0  0  0  0
 34 75  1  0  0  0  0
 34 80  2  0  0  0  0
 35 64  1  0  0  0  0
 35 70  1  0  0  0  0
 35 81  2  0  0  0  0
 36 65  1  0  0  0  0
 36 76  1  0  0  0  0
 36 82  2  0  0  0  0
 37 71  1  0  0  0  0
 37 77  1  0  0  0  0
 37 83  2  0  0  0  0
 38 41  1  0  0  0  0
 39 48  1  0  0  0  0
 40 70  1  0  0  0  0
 41 43  1  0  0  0  0
 42 44  1  0  0  0  0
 42 45  1  0  0  0  0
 43 47  1  0  0  0  0
 44 49  1  0  0  0  0
 45 71  1  0  0  0  0
 46 49  1  0  0  0  0
 46 71  1  0  0  0  0
 47 75  1  0  0  0  0
 48 70  1  0  0  0  0
 49 69  1  0  0  0  0
 50 59  1  0  0  0  0
 51 65  1  0  0  0  0
 52 66  1  0  0  0  0
 53 66  1  0  0  0  0
 54 66  1  0  0  0  0
 55 78  1  0  0  0  0
 56 60  1  0  0  0  0
 57 62  1  0  0  0  0
 58 61  1  0  0  0  0
 59 61  1  0  0  0  0
 60 63  1  0  0  0  0
 62 77  1  0  0  0  0
 63 85  1  0  0  0  0
 64 66  1  0  0  0  0
 64 76  1  0  0  0  0
 65 78  1  0  0  0  0
 68 69  1  0  0  0  0
M  CHG  1  78   1
M  ISO  4  37 100  63 101  77 100  85 101
M  END
> <Batch ID>
0087

> <Smiles>
CCCCc1ncc(CC[101CH2:1][101O:1]c2ccc3c(c2)CN(C(=O)C(NC(=O)C(C)NC)C(C)(C)C)C(C(=O)NC2CCCc4ccccc42)C3)c(CC[100NH:0][100C:0](=O)N2CCCC(n3nc(-c4ccc(Oc5ccc(F)cc5F)cc4)c(C(N)=O)c3N)C2)c1N

> <Shape>
0.227

> <Color>
0.198

> <Negative vol penalty>
0.000

$$$$

  -OEChem-04052319013D

 90 98  0     1  0  0  0  0  0999 V2000
  -18.9692  -28.1922   21.6202 C   0  0  0  0  0  0  0  0  0  0  0  0
  -20.0710  -27.4362   21.2332 C   0  0  0  0  0  0  0  0  0  0  0  0
  -26.6306  -14.1359   21.2835 C   0  0  0  0  0  0  0  0  0  0  0  0
  -26.5586  -15.2128   19.1220 C   0  0  0  0  0  0  0  0  0  0  0  0
  -18.4832  -28.0974   22.9235 C   0  0  0  0  0  0  0  0  0  0  0  0
  -20.6882  -26.5856   22.1498 C   0  0  0  0  0  0  0  0  0  0  0  0
  -21.7378  -22.0398   20.1802 C   0  0  0  0  0  0  0  0  0  0  0  0
  -25.6340  -13.2496   20.8751 C   0  0  0  0  0  0  0  0  0  0  0  0
  -25.5620  -14.3265   18.7136 C   0  0  0  0  0  0  0  0  0  0  0  0
  -22.8559  -21.9473   19.3525 C   0  0  0  0  0  0  0  0  0  0  0  0
  -22.2747  -13.2793   20.5028 C   0  0  0  0  0  0  0  0  0  0  0  0
  -21.2271  -13.0302   21.3893 C   0  0  0  0  0  0  0  0  0  0  0  0
  -24.1309  -21.0366   21.1866 C   0  0  0  0  0  0  0  0  0  0  0  0
  -30.3716  -23.7217   17.7412 C   0  0  0  0  0  0  0  0  0  0  0  0
  -28.8802  -25.6021   17.8968 C   0  0  0  0  0  0  0  0  0  0  0  0
  -21.8042  -10.6842   21.4121 C   0  0  0  0  0  0  0  0  0  0  0  0
  -27.0929  -15.1176   20.4069 C   0  0  0  0  0  0  0  0  0  0  0  0
  -29.5138  -15.8670   20.6987 C   0  0  0  0  0  0  0  0  0  0  0  0
  -19.0887  -27.2380   23.8538 C   0  0  0  0  0  0  0  0  0  0  0  0
  -21.8110  -21.6409   21.5226 C   0  0  0  0  0  0  0  0  0  0  0  0
  -20.2106  -26.4802   23.4672 C   0  0  0  0  0  0  0  0  0  0  0  0
  -23.0116  -21.1226   22.0286 C   0  0  0  0  0  0  0  0  0  0  0  0
  -29.2430  -24.4014   17.2967 C   0  0  0  0  0  0  0  0  0  0  0  0
  -25.0997  -13.3448   19.5902 C   0  0  0  0  0  0  0  0  0  0  0  0
  -24.0534  -21.4483   19.8564 C   0  0  0  0  0  0  0  0  0  0  0  0
  -23.0871  -12.2309   20.0708 C   0  0  0  0  0  0  0  0  0  0  0  0
  -20.9918  -11.7327   21.8440 C   0  0  0  0  0  0  0  0  0  0  0  0
  -22.8519  -10.9334   20.5255 C   0  0  0  0  0  0  0  0  0  0  0  0
  -28.1220  -16.0338   20.8284 C   0  0  0  0  0  0  0  0  0  0  0  0
  -31.0977  -24.2803   18.7806 C   0  0  0  0  0  0  0  0  0  0  0  0
  -29.6730  -26.0764   18.9294 C   0  0  0  0  0  0  0  0  0  0  0  0
  -30.0488  -17.0067   21.2477 C   0  0  0  0  0  0  0  0  0  0  0  0
  -30.2567  -14.7792   20.1324 C   0  0  0  0  0  0  0  0  0  0  0  0
  -21.4474  -23.1046   24.3206 C   0  0  0  0  0  0  0  0  0  0  0  0
  -21.7591  -20.0964   25.4937 C   0  0  0  0  0  0  0  0  0  0  0  0
  -22.9291  -16.9211   25.0515 C   0  0  0  0  0  0  0  0  0  0  0  0
  -30.0842  -22.5516   21.8783 C   0  0  0  0  0  0  0  0  0  0  0  0
  -18.5568  -27.2047   25.2647 C   0  0  0  0  0  0  0  0  0  0  0  0
  -20.5886  -21.7221   22.3952 C   0  0  0  0  0  0  0  0  0  0  0  0
  -23.1368  -20.6619   23.4571 C   0  0  0  0  0  0  0  0  0  0  0  0
  -19.0372  -25.9990   26.0684 C   0  0  0  0  0  0  0  0  0  0  0  0
  -27.8817  -20.6844   23.9614 C   0  0  0  0  0  0  0  0  0  0  0  0
  -20.5398  -25.8043   25.8922 C   0  0  0  0  0  0  0  0  0  0  0  0
  -27.8580  -19.2969   23.3178 C   0  0  0  0  0  0  0  0  0  0  0  0
  -27.9656  -21.7915   22.9129 C   0  0  0  0  0  0  0  0  0  0  0  0
  -29.0556  -20.2673   21.3122 C   0  0  0  0  0  0  0  0  0  0  0  0
  -20.8920  -25.5276   24.4256 C   0  0  1  0  0  0  0  0  0  0  0  0
  -20.9191  -21.7675   23.8839 C   0  0  1  0  0  0  0  0  0  0  0  0
  -29.0279  -19.1160   22.3320 C   0  0  2  0  0  0  0  0  0  0  0  0
  -33.5921  -24.4189   19.0684 C   0  0  0  0  0  0  0  0  0  0  0  0
  -23.2966  -14.4864   25.5361 C   0  0  0  0  0  0  0  0  0  0  0  0
  -28.3909  -24.8583   14.9870 C   0  0  0  0  0  0  0  0  0  0  0  0
  -28.9621  -22.5135   15.5507 C   0  0  0  0  0  0  0  0  0  0  0  0
  -27.8941  -27.2831   20.2428 C   0  0  0  0  0  0  0  0  0  0  0  0
  -29.3023  -28.5437   18.5803 C   0  0  0  0  0  0  0  0  0  0  0  0
  -30.2705  -27.8101   20.7496 C   0  0  0  0  0  0  0  0  0  0  0  0
  -23.9817  -21.1624   27.2920 C   0  0  0  0  0  0  0  0  0  0  0  0
  -24.6984  -18.7968   27.6907 C   0  0  0  0  0  0  0  0  0  0  0  0
  -22.4275  -19.5467   28.4004 C   0  0  0  0  0  0  0  0  0  0  0  0
  -20.4529  -16.1450   23.6285 C   0  0  0  0  0  0  0  0  0  0  0  0
  -26.7353  -22.5507   17.7025 C   0  0  0  0  0  0  0  0  0  0  0  0
  -26.9214  -23.5866   16.5873 C   0  0  0  0  0  0  0  0  0  0  0  0
  -32.2184  -23.1663   20.7710 C   0  0  0  0  0  0  0  0  0  0  0  0
  -25.2590  -22.3148   17.9985 C   0  0  0  0  0  0  0  0  0  1  0  0
  -32.3157  -23.5793   19.2825 C   0  0  1  0  0  0  0  0  0  0  0  0
  -22.9178  -19.2375   25.9395 C   0  0  1  0  0  0  0  0  0  0  0  0
  -22.2682  -15.5681   25.2443 C   0  0  2  0  0  0  0  0  0  0  0  0
  -28.3992  -23.8276   16.1441 C   0  0  0  0  0  0  0  0  0  0  0  0
  -29.3121  -27.3610   19.5975 C   0  0  0  0  0  0  0  0  0  0  0  0
  -23.5049  -19.6963   27.3042 C   0  0  0  0  0  0  0  0  0  0  0  0
  -27.7934  -17.1883   21.4140 N   0  0  0  0  0  0  0  0  0  0  0  0
  -30.7764  -25.4443   19.3884 N   0  0  0  0  0  0  0  0  0  0  0  0
  -28.9863  -17.7574   21.6573 N   0  0  0  0  0  0  0  0  0  0  0  0
  -21.9154  -20.7671   24.2724 N   0  0  0  0  0  0  0  0  0  0  0  0
  -29.0967  -21.5615   22.0108 N   0  0  0  0  0  0  0  0  0  0  0  0
  -31.3198  -17.4298   21.4154 N   0  0  0  0  0  0  0  0  0  0  0  0
  -29.5497  -13.6865   19.6124 N   0  0  0  0  0  0  0  0  0  0  0  0
  -20.5834  -24.1562   24.0817 N   0  0  0  0  0  0  0  0  0  0  0  0
  -22.4334  -17.8614   25.9297 N   0  0  0  0  0  0  0  0  0  0  0  0
  -31.1247  -22.2507   21.0079 N   0  0  0  0  0  0  0  0  0  0  0  0
  -21.5137  -15.1809   24.0188 N   0  3  0  0  0  0  0  0  0  0  0  0
  -31.5107  -14.7690   20.1038 O   0  0  0  0  0  0  0  0  0  0  0  0
  -22.5561  -23.1766   24.8375 O   0  0  0  0  0  0  0  0  0  0  0  0
  -20.7497  -20.1638   26.1994 O   0  0  0  0  0  0  0  0  0  0  0  0
  -23.8009  -17.1226   24.2089 O   0  0  0  0  0  0  0  0  0  0  0  0
  -30.0444  -23.6221   22.4943 O   0  0  0  0  0  0  0  0  0  0  0  0
  -24.1273  -12.4800   19.1913 O   0  0  0  0  0  0  0  0  0  0  0  0
  -25.1465  -21.3576   19.0508 O   0  0  0  0  0  0  0  0  0  1  0  0
  -19.9867  -11.4939   22.6965 F   0  0  0  0  0  0  0  0  0  0  0  0
  -23.6297   -9.9223   20.1150 F   0  0  0  0  0  0  0  0  0  0  0  0
  1  2  1  0  0  0  0
  1  5  2  0  0  0  0
  2  6  2  0  0  0  0
  3  8  2  0  0  0  0
  3 17  1  0  0  0  0
  4  9  1  0  0  0  0
  4 17  2  0  0  0  0
  5 19  1  0  0  0  0
  6 21  1  0  0  0  0
  7 10  2  0  0  0  0
  7 20  1  0  0  0  0
  8 24  1  0  0  0  0
  9 24  2  0  0  0  0
 10 25  1  0  0  0  0
 11 12  2  0  0  0  0
 11 26  1  0  0  0  0
 12 27  1  0  0  0  0
 13 22  1  0  0  0  0
 13 25  2  0  0  0  0
 14 23  1  0  0  0  0
 14 30  2  0  0  0  0
 15 23  2  0  0  0  0
 15 31  1  0  0  0  0
 16 27  2  0  0  0  0
 16 28  1  0  0  0  0
 17 29  1  0  0  0  0
 18 29  1  0  0  0  0
 18 32  2  0  0  0  0
 18 33  1  0  0  0  0
 19 21  2  0  0  0  0
 19 38  1  0  0  0  0
 20 22  2  0  0  0  0
 20 39  1  0  0  0  0
 21 47  1  0  0  0  0
 22 40  1  0  0  0  0
 23 68  1  0  0  0  0
 24 87  1  0  0  0  0
 25 88  1  0  0  0  0
 26 28  2  0  0  0  0
 26 87  1  0  0  0  0
 27 89  1  0  0  0  0
 28 90  1  0  0  0  0
 29 71  2  0  0  0  0
 30 65  1  0  0  0  0
 30 72  1  0  0  0  0
 31 69  1  0  0  0  0
 31 72  2  0  0  0  0
 32 73  1  0  0  0  0
 32 76  1  0  0  0  0
 33 77  1  0  0  0  0
 33 82  2  0  0  0  0
 34 48  1  0  0  0  0
 34 78  1  0  0  0  0
 34 83  2  0  0  0  0
 35 66  1  0  0  0  0
 35 74  1  0  0  0  0
 35 84  2  0  0  0  0
 36 67  1  0  0  0  0
 36 79  1  0  0  0  0
 36 85  2  0  0  0  0
 37 75  1  0  0  0  0
 37 80  1  0  0  0  0
 37 86  2  0  0  0  0
 38 41  1  0  0  0  0
 39 48  1  0  0  0  0
 40 74  1  0  0  0  0
 41 43  1  0  0  0  0
 42 44  1  0  0  0  0
 42 45  1  0  0  0  0
 43 47  1  0  0  0  0
 44 49  1  0  0  0  0
 45 75  1  0  0  0  0
 46 49  1  0  0  0  0
 46 75  1  0  0  0  0
 47 78  1  0  0  0  0
 48 74  1  0  0  0  0
 49 73  1  0  0  0  0
 50 65  1  0  0  0  0
 51 67  1  0  0  0  0
 52 68  1  0  0  0  0
 53 68  1  0  0  0  0
 54 69  1  0  0  0  0
 55 69  1  0  0  0  0
 56 69  1  0  0  0  0
 57 70  1  0  0  0  0
 58 70  1  0  0  0  0
 59 70  1  0  0  0  0
 60 81  1  0  0  0  0
 61 62  1  0  0  0  0
 61 64  1  0  0  0  0
 62 68  1  0  0  0  0
 63 65  1  0  0  0  0
 63 80  1  0  0  0  0
 64 88  1  0  0  0  0
 66 70  1  0  0  0  0
 66 79  1  0  0  0  0
 67 81  1  0  0  0  0
 71 73  1  0  0  0  0
M  CHG  1  81   1
M  ISO  4  37 100  64 101  80 100  88 101
M  END
> <Batch ID>
0087

> <Smiles>
CNC(C)C(=O)NC(C(=O)N1Cc2cc([101O:1][101CH2:1]CCC(C)(C)c3cc(C(C)C[100NH:0][100C:0](=O)N4CCCC(n5nc(-c6ccc(Oc7ccc(F)cc7F)cc6)c(C(N)=O)c5N)C4)nc(C(C)(C)C)c3)ccc2CC1C(=O)NC1CCCc2ccccc21)C(C)(C)C

> <Shape>
0.187

> <Color>
0.051

> <Negative vol penalty>
0.000

$$$$

  -OEChem-04052319013D

 86 94  0     1  0  0  0  0  0999 V2000
  -29.9069  -20.4404   21.7759 C   0  0  0  0  0  0  0  0  0  0  0  0
  -28.5679  -20.5002   21.4032 C   0  0  0  0  0  0  0  0  0  0  0  0
  -26.2547  -28.1434   21.6902 C   0  0  0  0  0  0  0  0  0  0  0  0
  -25.1777  -29.0486   19.7261 C   0  0  0  0  0  0  0  0  0  0  0  0
  -30.5851  -19.2226   21.7418 C   0  0  0  0  0  0  0  0  0  0  0  0
  -27.9066  -19.3424   20.9951 C   0  0  0  0  0  0  0  0  0  0  0  0
  -23.3091  -18.8970   23.0712 C   0  0  0  0  0  0  0  0  0  0  0  0
  -27.4594  -28.0617   20.9920 C   0  0  0  0  0  0  0  0  0  0  0  0
  -26.3825  -28.9671   19.0279 C   0  0  0  0  0  0  0  0  0  0  0  0
  -22.2850  -19.6671   22.5217 C   0  0  0  0  0  0  0  0  0  0  0  0
  -28.8843  -26.0096   18.7155 C   0  0  0  0  0  0  0  0  0  0  0  0
  -29.6270  -24.8356   18.8409 C   0  0  0  0  0  0  0  0  0  0  0  0
  -21.5088  -17.7442   21.2891 C   0  0  0  0  0  0  0  0  0  0  0  0
  -19.2001  -22.1798   19.4613 C   0  0  0  0  0  0  0  0  0  0  0  0
  -17.9850  -22.1273   21.5361 C   0  0  0  0  0  0  0  0  0  0  0  0
  -31.4763  -26.1018   19.7431 C   0  0  0  0  0  0  0  0  0  0  0  0
  -25.1137  -28.6368   21.0573 C   0  0  0  0  0  0  0  0  0  0  0  0
  -23.3979  -29.8086   22.5372 C   0  0  0  0  0  0  0  0  0  0  0  0
  -29.9291  -18.0476   21.3423 C   0  0  0  0  0  0  0  0  0  0  0  0
  -23.4476  -17.5453   22.7248 C   0  0  0  0  0  0  0  0  0  0  0  0
  -28.5769  -18.1080   20.9544 C   0  0  0  0  0  0  0  0  0  0  0  0
  -22.5340  -16.9586   21.8376 C   0  0  0  0  0  0  0  0  0  0  0  0
  -19.1400  -21.8545   20.8118 C   0  0  0  0  0  0  0  0  0  0  0  0
  -27.5233  -28.4736   19.6609 C   0  0  0  0  0  0  0  0  0  0  0  0
  -21.3864  -19.0915   21.6282 C   0  0  0  0  0  0  0  0  0  0  0  0
  -29.4377  -27.2297   19.1038 C   0  0  0  0  0  0  0  0  0  0  0  0
  -30.9229  -24.8816   19.3547 C   0  0  0  0  0  0  0  0  0  0  0  0
  -30.7336  -27.2758   19.6176 C   0  0  0  0  0  0  0  0  0  0  0  0
  -23.8688  -28.7208   21.7778 C   0  0  0  0  0  0  0  0  0  0  0  0
  -18.0870  -22.7719   18.8866 C   0  0  0  0  0  0  0  0  0  0  0  0
  -16.9263  -22.7219   20.8687 C   0  0  0  0  0  0  0  0  0  0  0  0
  -22.1784  -29.3927   23.0131 C   0  0  0  0  0  0  0  0  0  0  0  0
  -24.0081  -31.0812   22.7897 C   0  0  0  0  0  0  0  0  0  0  0  0
  -25.7010  -15.8141   21.3004 C   0  0  0  0  0  0  0  0  0  0  0  0
  -17.2825  -27.0593   22.0838 C   0  0  0  0  0  0  0  0  0  0  0  0
  -23.7544  -13.3427   22.0910 C   0  0  0  0  0  0  0  0  0  0  0  0
  -20.6092  -12.2626   22.8580 C   0  0  0  0  0  0  0  0  0  0  0  0
  -30.7166  -16.7631   21.2763 C   0  0  0  0  0  0  0  0  0  0  0  0
  -24.5415  -16.7215   23.3470 C   0  0  0  0  0  0  0  0  0  0  0  0
  -22.6270  -15.5064   21.4488 C   0  0  0  0  0  0  0  0  0  0  0  0
  -29.8411  -15.5156   21.1902 C   0  0  0  0  0  0  0  0  0  0  0  0
  -20.0084  -24.8324   22.9990 C   0  0  0  0  0  0  0  0  0  0  0  0
  -28.7418  -15.7057   20.1499 C   0  0  0  0  0  0  0  0  0  0  0  0
  -21.2234  -25.7361   22.7936 C   0  0  0  0  0  0  0  0  0  0  0  0
  -18.9174  -25.1162   21.9697 C   0  0  0  0  0  0  0  0  0  0  0  0
  -19.6987  -27.4514   21.7232 C   0  0  0  0  0  0  0  0  0  0  0  0
  -27.8183  -16.8695   20.5296 C   0  0  1  0  0  0  0  0  0  0  0  0
  -24.8983  -15.4853   22.5273 C   0  0  1  0  0  0  0  0  0  0  0  0
  -20.8098  -27.2178   22.7603 C   0  0  2  0  0  0  0  0  0  0  0  0
  -17.9634  -24.6484   17.2083 C   0  0  0  0  0  0  0  0  0  0  0  0
  -17.0550  -22.3711   16.6220 C   0  0  0  0  0  0  0  0  0  0  0  0
  -19.3228  -10.1821   23.4183 C   0  0  0  0  0  0  0  0  0  0  0  0
  -14.7023  -26.6016   20.2777 C   0  0  0  0  0  0  0  0  0  0  0  0
  -23.8268  -12.5105   19.1564 C   0  0  0  0  0  0  0  0  0  0  0  0
  -21.8312  -11.0621   19.5900 C   0  0  0  0  0  0  0  0  0  0  0  0
  -23.9766  -10.6159   20.7819 C   0  0  0  0  0  0  0  0  0  0  0  0
  -19.8283  -13.3201   25.5095 C   0  0  0  0  0  0  0  0  0  0  0  0
  -20.3166  -21.2106   21.4845 C   0  0  0  0  0  0  0  0  0  1  0  0
  -16.1685  -26.0595   22.2659 C   0  0  0  0  0  0  0  0  0  0  0  0
  -14.8394  -24.2060   21.0420 C   0  0  0  0  0  0  0  0  0  0  0  0
  -18.1150  -23.1332   17.4391 C   0  0  0  0  0  0  0  0  0  0  0  0
  -15.6719  -23.0306   21.6156 C   0  0  1  0  0  0  0  0  0  0  0  0
  -22.5989  -12.6362   21.4241 C   0  0  1  0  0  0  0  0  0  0  0  0
  -20.0947  -11.3695   23.9724 C   0  0  2  0  0  0  0  0  0  0  0  0
  -15.6027  -25.5466   20.9328 C   0  0  1  0  0  0  0  0  0  0  0  0
  -23.0575  -11.7341   20.2437 C   0  0  0  0  0  0  0  0  0  0  0  0
  -23.0180  -27.6912   21.7691 N   0  0  0  0  0  0  0  0  0  0  0  0
  -16.9476  -23.0523   19.5580 N   0  0  0  0  0  0  0  0  0  0  0  0
  -22.0002  -28.1302   22.5290 N   0  0  0  0  0  0  0  0  0  0  0  0
  -23.7176  -14.7442   22.0791 N   0  0  0  0  0  0  0  0  0  0  0  0
  -18.5714  -26.5424   21.9498 N   0  0  0  0  0  0  0  0  0  0  0  0
  -21.2520  -29.9875   23.7944 N   0  0  0  0  0  0  0  0  0  0  0  0
  -25.2630  -31.3445   22.2239 N   0  0  0  0  0  0  0  0  0  0  0  0
  -26.8922  -16.4628   21.5646 N   0  0  0  0  0  0  0  0  0  0  0  0
  -21.8915  -11.9226   22.4818 N   0  0  0  0  0  0  0  0  0  0  0  0
  -14.7444  -21.8427   21.6887 N   0  3  0  0  0  0  0  0  0  0  0  0
  -19.1915  -12.1368   24.8760 N   0  3  0  0  0  0  0  0  0  0  0  0
  -23.4642  -31.9526   23.5097 O   0  0  0  0  0  0  0  0  0  0  0  0
  -25.2721  -15.5011   20.1960 O   0  0  0  0  0  0  0  0  0  0  0  0
  -17.0137  -28.2633   22.0642 O   0  0  0  0  0  0  0  0  0  0  0  0
  -24.6529  -12.6755   22.6100 O   0  0  0  0  0  0  0  0  0  0  0  0
  -19.9392  -13.1687   22.3675 O   0  0  0  0  0  0  0  0  0  0  0  0
  -28.6988  -28.3943   18.9793 O   0  0  0  0  0  0  0  0  0  0  0  0
  -20.3863  -19.8410   21.0899 O   0  0  0  0  0  0  0  0  0  1  0  0
  -31.6354  -23.7539   19.4766 F   0  0  0  0  0  0  0  0  0  0  0  0
  -31.2701  -28.4449   19.9935 F   0  0  0  0  0  0  0  0  0  0  0  0
  1  2  1  0  0  0  0
  1  5  2  0  0  0  0
  2  6  2  0  0  0  0
  3  8  2  0  0  0  0
  3 17  1  0  0  0  0
  4  9  1  0  0  0  0
  4 17  2  0  0  0  0
  5 19  1  0  0  0  0
  6 21  1  0  0  0  0
  7 10  2  0  0  0  0
  7 20  1  0  0  0  0
  8 24  1  0  0  0  0
  9 24  2  0  0  0  0
 10 25  1  0  0  0  0
 11 12  2  0  0  0  0
 11 26  1  0  0  0  0
 12 27  1  0  0  0  0
 13 22  1  0  0  0  0
 13 25  2  0  0  0  0
 14 23  1  0  0  0  0
 14 30  2  0  0  0  0
 15 23  2  0  0  0  0
 15 31  1  0  0  0  0
 16 27  2  0  0  0  0
 16 28  1  0  0  0  0
 17 29  1  0  0  0  0
 18 29  1  0  0  0  0
 18 32  2  0  0  0  0
 18 33  1  0  0  0  0
 19 21  2  0  0  0  0
 19 38  1  0  0  0  0
 20 22  2  0  0  0  0
 20 39  1  0  0  0  0
 21 47  1  0  0  0  0
 22 40  1  0  0  0  0
 23 58  1  0  0  0  0
 24 83  1  0  0  0  0
 25 84  1  0  0  0  0
 26 28  2  0  0  0  0
 26 83  1  0  0  0  0
 27 85  1  0  0  0  0
 28 86  1  0  0  0  0
 29 67  2  0  0  0  0
 30 61  1  0  0  0  0
 30 68  1  0  0  0  0
 31 62  1  0  0  0  0
 31 68  2  0  0  0  0
 32 69  1  0  0  0  0
 32 72  1  0  0  0  0
 33 73  1  0  0  0  0
 33 78  2  0  0  0  0
 34 48  1  0  0  0  0
 34 74  1  0  0  0  0
 34 79  2  0  0  0  0
 35 59  1  0  0  0  0
 35 71  1  0  0  0  0
 35 80  2  0  0  0  0
 36 63  1  0  0  0  0
 36 70  1  0  0  0  0
 36 81  2  0  0  0  0
 37 64  1  0  0  0  0
 37 75  1  0  0  0  0
 37 82  2  0  0  0  0
 38 41  1  0  0  0  0
 39 48  1  0  0  0  0
 40 70  1  0  0  0  0
 41 43  1  0  0  0  0
 42 44  1  0  0  0  0
 42 45  1  0  0  0  0
 43 47  1  0  0  0  0
 44 49  1  0  0  0  0
 45 71  1  0  0  0  0
 46 49  1  0  0  0  0
 46 71  1  0  0  0  0
 47 74  1  0  0  0  0
 48 70  1  0  0  0  0
 49 69  1  0  0  0  0
 50 61  1  0  0  0  0
 51 61  1  0  0  0  0
 52 64  1  0  0  0  0
 53 65  1  0  0  0  0
 54 66  1  0  0  0  0
 55 66  1  0  0  0  0
 56 66  1  0  0  0  0
 57 77  1  0  0  0  0
 58 84  1  0  0  0  0
 59 65  1  0  0  0  0
 60 62  1  0  0  0  0
 60 65  1  0  0  0  0
 62 76  1  0  0  0  0
 63 66  1  0  0  0  0
 63 75  1  0  0  0  0
 64 77  1  0  0  0  0
 67 69  1  0  0  0  0
M  CHG  2  76   1  77   1
M  ISO  4  35 100  58 101  59 100  84 101
M  END
> <Batch ID>
0087

> <Smiles>
CNC(C)C(=O)NC(C(=O)N1Cc2cc([101O:1][101CH2:1]c3cc(C(C)C)nc(C(N)CC(C)[100CH2:0][100C:0](=O)N4CCCC(n5nc(-c6ccc(Oc7ccc(F)cc7F)cc6)c(C(N)=O)c5N)C4)c3)ccc2CC1C(=O)NC1CCCc2ccccc21)C(C)(C)C

> <Shape>
0.239

> <Color>
0.057

> <Negative vol penalty>
0.000

$$$$

  -OEChem-04052319013D

 88 96  0     1  0  0  0  0  0999 V2000
  -22.3636  -34.1792   22.7974 C   0  0  0  0  0  0  0  0  0  0  0  0
  -23.3924  -33.2575   22.6314 C   0  0  0  0  0  0  0  0  0  0  0  0
  -25.4920  -13.8808   21.3297 C   0  0  0  0  0  0  0  0  0  0  0  0
  -25.5663  -14.1674   18.9319 C   0  0  0  0  0  0  0  0  0  0  0  0
  -21.1220  -33.7583   23.2719 C   0  0  0  0  0  0  0  0  0  0  0  0
  -23.1804  -31.9145   22.9409 C   0  0  0  0  0  0  0  0  0  0  0  0
  -25.0179  -28.7920   19.4027 C   0  0  0  0  0  0  0  0  0  0  0  0
  -24.4951  -12.9163   21.1836 C   0  0  0  0  0  0  0  0  0  0  0  0
  -24.5693  -13.2028   18.7857 C   0  0  0  0  0  0  0  0  0  0  0  0
  -26.3939  -28.5677   19.4039 C   0  0  0  0  0  0  0  0  0  0  0  0
  -24.2950   -9.6492   20.3354 C   0  0  0  0  0  0  0  0  0  0  0  0
  -24.4162   -8.4742   21.0772 C   0  0  0  0  0  0  0  0  0  0  0  0
  -26.0450  -26.4714   20.5454 C   0  0  0  0  0  0  0  0  0  0  0  0
  -22.3077   -8.9407   22.1606 C   0  0  0  0  0  0  0  0  0  0  0  0
  -29.2320  -25.0172   17.2090 C   0  0  0  0  0  0  0  0  0  0  0  0
  -26.0276  -14.5064   20.2038 C   0  0  0  0  0  0  0  0  0  0  0  0
  -28.4488  -15.2920   20.3718 C   0  0  0  0  0  0  0  0  0  0  0  0
  -20.8918  -32.4078   23.5782 C   0  0  0  0  0  0  0  0  0  0  0  0
  -24.1445  -27.8613   19.9835 C   0  0  0  0  0  0  0  0  0  0  0  0
  -21.9350  -31.4754   23.4212 C   0  0  0  0  0  0  0  0  0  0  0  0
  -24.6581  -26.6850   20.5479 C   0  0  0  0  0  0  0  0  0  0  0  0
  -29.9301  -25.4585   18.3065 C   0  0  0  0  0  0  0  0  0  0  0  0
  -24.0337  -12.5773   19.9116 C   0  0  0  0  0  0  0  0  0  0  0  0
  -26.9079  -27.4086   19.9779 C   0  0  0  0  0  0  0  0  0  0  0  0
  -23.1802  -10.4701   20.5063 C   0  0  0  0  0  0  0  0  0  0  0  0
  -23.4225   -8.1199   21.9897 C   0  0  0  0  0  0  0  0  0  0  0  0
  -22.1866  -10.1158   21.4189 C   0  0  0  0  0  0  0  0  0  0  0  0
  -27.0571  -15.5032   20.3542 C   0  0  0  0  0  0  0  0  0  0  0  0
  -30.2601  -24.2843   19.0093 C   0  0  0  0  0  0  0  0  0  0  0  0
  -28.9843  -16.5459   20.5374 C   0  0  0  0  0  0  0  0  0  0  0  0
  -29.1911  -14.0715   20.2494 C   0  0  0  0  0  0  0  0  0  0  0  0
  -22.0761  -27.9282   22.3962 C   0  0  0  0  0  0  0  0  0  0  0  0
  -21.3417  -24.9512   21.3376 C   0  0  0  0  0  0  0  0  0  0  0  0
  -22.3180  -22.1583   19.6367 C   0  0  0  0  0  0  0  0  0  0  0  0
  -26.9706  -22.0399   19.2676 C   0  0  0  0  0  0  0  0  0  0  0  0
  -19.5475  -32.0083   24.1331 C   0  0  0  0  0  0  0  0  0  0  0  0
  -22.6606  -28.1054   19.9502 C   0  0  0  0  0  0  0  0  0  0  0  0
  -23.7614  -25.6449   21.1663 C   0  0  0  0  0  0  0  0  0  0  0  0
  -19.2902  -30.5044   24.0826 C   0  0  0  0  0  0  0  0  0  0  0  0
  -27.9939  -20.8176   22.4512 C   0  0  0  0  0  0  0  0  0  0  0  0
  -20.5048  -29.7375   24.5960 C   0  0  0  0  0  0  0  0  0  0  0  0
  -27.9954  -19.2980   22.2764 C   0  0  0  0  0  0  0  0  0  0  0  0
  -26.8533  -21.4737   21.6763 C   0  0  0  0  0  0  0  0  0  0  0  0
  -26.7983  -19.6060   20.0694 C   0  0  0  0  0  0  0  0  0  0  0  0
  -21.7363  -30.0057   23.7226 C   0  0  1  0  0  0  0  0  0  0  0  0
  -21.9039  -27.3339   21.0270 C   0  0  1  0  0  0  0  0  0  0  0  0
  -27.9643  -18.9048   20.7872 C   0  0  2  0  0  0  0  0  0  0  0  0
  -33.3730  -24.2274   19.1541 C   0  0  0  0  0  0  0  0  0  0  0  0
  -31.1566  -27.5404   17.6044 C   0  0  0  0  0  0  0  0  0  0  0  0
  -21.5157  -19.8751   18.9728 C   0  0  0  0  0  0  0  0  0  0  0  0
  -31.2244  -22.7052   20.8166 C   0  0  0  0  0  0  0  0  0  0  0  0
  -30.2552  -24.9005   21.4369 C   0  0  0  0  0  0  0  0  0  0  0  0
  -21.8293  -23.9559   24.1804 C   0  0  0  0  0  0  0  0  0  0  0  0
  -21.9520  -21.6271   23.2696 C   0  0  0  0  0  0  0  0  0  0  0  0
  -19.8441  -22.9423   23.0464 C   0  0  0  0  0  0  0  0  0  0  0  0
  -28.5418  -23.2480   14.9292 C   0  0  0  0  0  0  0  0  0  0  0  0
  -29.3443  -21.4136   16.3945 C   0  0  0  0  0  0  0  0  0  0  0  0
  -22.5381  -22.7921   16.7542 C   0  0  0  0  0  0  0  0  0  0  0  0
  -32.4523  -24.8284   20.2123 C   0  0  0  0  0  0  0  0  0  0  0  0
  -27.0942  -22.4469   16.8225 C   0  0  0  0  0  0  0  0  0  0  0  0
  -29.0023  -27.7392   18.9008 C   0  0  0  0  0  0  0  0  0  1  0  0
  -30.2643  -26.8969   18.6694 C   0  0  1  0  0  0  0  0  0  0  0  0
  -21.8453  -23.5583   21.6294 C   0  0  1  0  0  0  0  0  0  0  0  0
  -21.6231  -21.3365   18.5661 C   0  0  2  0  0  0  0  0  0  0  0  0
  -31.0123  -24.1680   20.2709 C   0  0  0  0  0  0  0  0  0  0  0  0
  -21.3850  -23.0412   23.0216 C   0  0  0  0  0  0  0  0  0  0  0  0
  -28.5567  -22.7459   16.3939 C   0  0  0  0  0  0  0  0  0  0  0  0
  -26.7290  -16.7900   20.4973 N   0  0  0  0  0  0  0  0  0  0  0  0
  -29.8087  -23.1799   18.4088 N   0  0  0  0  0  0  0  0  0  0  0  0
  -29.1878  -23.6583   17.3171 N   0  0  0  0  0  0  0  0  0  0  0  0
  -27.9221  -17.3987   20.6066 N   0  0  0  0  0  0  0  0  0  0  0  0
  -22.3184  -25.9322   21.1147 N   0  0  0  0  0  0  0  0  0  0  0  0
  -26.8813  -21.0610   20.2711 N   0  0  0  0  0  0  0  0  0  0  0  0
  -30.2554  -16.9912   20.6293 N   0  0  0  0  0  0  0  0  0  0  0  0
  -28.4837  -12.8728   20.0849 N   0  0  0  0  0  0  0  0  0  0  0  0
  -21.6613  -29.2426   22.4952 N   0  0  0  0  0  0  0  0  0  0  0  0
  -21.4155  -22.7262   20.5109 N   0  0  0  0  0  0  0  0  0  0  0  0
  -26.9981  -21.5629   17.9628 N   0  0  0  0  0  0  0  0  0  0  0  0
  -22.3775  -21.4131   17.2832 N   0  3  0  0  0  0  0  0  0  0  0  0
  -30.4441  -14.0427   20.3012 O   0  0  0  0  0  0  0  0  0  0  0  0
  -22.5489  -27.2445   23.2965 O   0  0  0  0  0  0  0  0  0  0  0  0
  -20.1264  -25.1597   21.3015 O   0  0  0  0  0  0  0  0  0  0  0  0
  -23.5396  -22.2809   19.6942 O   0  0  0  0  0  0  0  0  0  0  0  0
  -27.0274  -23.2489   19.5163 O   0  0  0  0  0  0  0  0  0  0  0  0
  -23.0610  -11.6360   19.7686 O   0  0  0  0  0  0  0  0  0  0  0  0
  -28.2506  -27.1875   19.9811 O   0  0  0  0  0  0  0  0  0  1  0  0
  -23.5382   -6.9907   22.7008 F   0  0  0  0  0  0  0  0  0  0  0  0
  -21.1127  -10.8998   21.5865 F   0  0  0  0  0  0  0  0  0  0  0  0
  1  2  1  0  0  0  0
  1  5  2  0  0  0  0
  2  6  2  0  0  0  0
  3  8  2  0  0  0  0
  3 16  1  0  0  0  0
  4  9  1  0  0  0  0
  4 16  2  0  0  0  0
  5 18  1  0  0  0  0
  6 20  1  0  0  0  0
  7 10  2  0  0  0  0
  7 19  1  0  0  0  0
  8 23  1  0  0  0  0
  9 23  2  0  0  0  0
 10 24  1  0  0  0  0
 11 12  2  0  0  0  0
 11 25  1  0  0  0  0
 12 26  1  0  0  0  0
 13 21  1  0  0  0  0
 13 24  2  0  0  0  0
 14 26  2  0  0  0  0
 14 27  1  0  0  0  0
 15 22  2  0  0  0  0
 15 70  1  0  0  0  0
 16 28  1  0  0  0  0
 17 28  1  0  0  0  0
 17 30  2  0  0  0  0
 17 31  1  0  0  0  0
 18 20  2  0  0  0  0
 18 36  1  0  0  0  0
 19 21  2  0  0  0  0
 19 37  1  0  0  0  0
 20 45  1  0  0  0  0
 21 38  1  0  0  0  0
 22 29  1  0  0  0  0
 22 62  1  0  0  0  0
 23 85  1  0  0  0  0
 24 86  1  0  0  0  0
 25 27  2  0  0  0  0
 25 85  1  0  0  0  0
 26 87  1  0  0  0  0
 27 88  1  0  0  0  0
 28 68  2  0  0  0  0
 29 65  1  0  0  0  0
 29 69  2  0  0  0  0
 30 71  1  0  0  0  0
 30 74  1  0  0  0  0
 31 75  1  0  0  0  0
 31 80  2  0  0  0  0
 32 46  1  0  0  0  0
 32 76  1  0  0  0  0
 32 81  2  0  0  0  0
 33 63  1  0  0  0  0
 33 72  1  0  0  0  0
 33 82  2  0  0  0  0
 34 64  1  0  0  0  0
 34 77  1  0  0  0  0
 34 83  2  0  0  0  0
 35 73  1  0  0  0  0
 35 78  1  0  0  0  0
 35 84  2  0  0  0  0
 36 39  1  0  0  0  0
 37 46  1  0  0  0  0
 38 72  1  0  0  0  0
 39 41  1  0  0  0  0
 40 42  1  0  0  0  0
 40 43  1  0  0  0  0
 41 45  1  0  0  0  0
 42 47  1  0  0  0  0
 43 73  1  0  0  0  0
 44 47  1  0  0  0  0
 44 73  1  0  0  0  0
 45 76  1  0  0  0  0
 46 72  1  0  0  0  0
 47 71  1  0  0  0  0
 48 59  1  0  0  0  0
 49 62  1  0  0  0  0
 50 64  1  0  0  0  0
 51 65  1  0  0  0  0
 52 65  1  0  0  0  0
 53 66  1  0  0  0  0
 54 66  1  0  0  0  0
 55 66  1  0  0  0  0
 56 67  1  0  0  0  0
 57 67  1  0  0  0  0
 58 79  1  0  0  0  0
 59 65  1  0  0  0  0
 60 67  1  0  0  0  0
 60 78  1  0  0  0  0
 61 62  1  0  0  0  0
 61 86  1  0  0  0  0
 63 66  1  0  0  0  0
 63 77  1  0  0  0  0
 64 79  1  0  0  0  0
 67 70  1  0  0  0  0
 68 71  1  0  0  0  0
 69 70  1  0  0  0  0
M  CHG  1  79   1
M  ISO  4  35 100  61 101  78 100  86 101
M  END
> <Batch ID>
0087

> <Smiles>
CCC(C)(C)c1nn(C(C)(C)C[100NH:0][100C:0](=O)N2CCCC(n3nc(-c4ccc(Oc5ccc(F)cc5F)cc4)c(C(N)=O)c3N)C2)cc1C(C)[101CH2:1][101O:1]c1ccc2c(c1)CN(C(=O)C(NC(=O)C(C)NC)C(C)(C)C)C(C(=O)NC1CCCc3ccccc31)C2

> <Shape>
0.245

> <Color>
0.082

> <Negative vol penalty>
0.000

$$$$

  -OEChem-04052319013D

 89 97  0     1  0  0  0  0  0999 V2000
  -25.0614  -28.8971   20.3953 C   0  0  0  0  0  0  0  0  0  0  0  0
  -24.7407  -27.7424   19.6887 C   0  0  0  0  0  0  0  0  0  0  0  0
  -18.7122  -23.5044   18.1011 C   0  0  0  0  0  0  0  0  0  0  0  0
  -20.9606  -23.8669   18.9075 C   0  0  0  0  0  0  0  0  0  0  0  0
  -26.3821  -29.1391   20.7708 C   0  0  0  0  0  0  0  0  0  0  0  0
  -25.7410  -26.8295   19.3563 C   0  0  0  0  0  0  0  0  0  0  0  0
  -25.2116  -20.7356   19.0561 C   0  0  0  0  0  0  0  0  0  0  0  0
  -18.3027  -24.6910   18.7092 C   0  0  0  0  0  0  0  0  0  0  0  0
  -20.5512  -25.0536   19.5156 C   0  0  0  0  0  0  0  0  0  0  0  0
  -25.0170  -19.8625   17.9867 C   0  0  0  0  0  0  0  0  0  0  0  0
  -18.9140  -25.9769   22.3259 C   0  0  0  0  0  0  0  0  0  0  0  0
  -19.3443  -26.2186   23.6305 C   0  0  0  0  0  0  0  0  0  0  0  0
  -27.3960  -19.4793   17.8744 C   0  0  0  0  0  0  0  0  0  0  0  0
  -26.8757  -14.0342   17.6812 C   0  0  0  0  0  0  0  0  0  0  0  0
  -20.4500  -28.2358   22.8921 C   0  0  0  0  0  0  0  0  0  0  0  0
  -20.0411  -23.0923   18.2003 C   0  0  0  0  0  0  0  0  0  0  0  0
  -20.9595  -21.7077   16.2645 C   0  0  0  0  0  0  0  0  0  0  0  0
  -27.3975  -28.2240   20.4512 C   0  0  0  0  0  0  0  0  0  0  0  0
  -26.5030  -20.9959   19.5365 C   0  0  0  0  0  0  0  0  0  0  0  0
  -27.0768  -27.0601   19.7267 C   0  0  0  0  0  0  0  0  0  0  0  0
  -27.6041  -20.3541   18.9517 C   0  0  0  0  0  0  0  0  0  0  0  0
  -27.6994  -14.4287   16.6328 C   0  0  0  0  0  0  0  0  0  0  0  0
  -29.0806  -14.3651   16.7794 C   0  0  0  0  0  0  0  0  0  0  0  0
  -19.2222  -25.4656   19.4164 C   0  0  0  0  0  0  0  0  0  0  0  0
  -26.1095  -19.2365   17.3938 C   0  0  0  0  0  0  0  0  0  0  0  0
  -19.2517  -26.8647   21.3043 C   0  0  0  0  0  0  0  0  0  0  0  0
  -20.1123  -27.3480   23.9136 C   0  0  0  0  0  0  0  0  0  0  0  0
  -20.0197  -27.9941   21.5874 C   0  0  0  0  0  0  0  0  0  0  0  0
  -20.4645  -21.8663   17.5728 C   0  0  0  0  0  0  0  0  0  0  0  0
  -27.4779  -13.5872   18.8463 C   0  0  0  0  0  0  0  0  0  0  0  0
  -29.5841  -13.9035   17.9849 C   0  0  0  0  0  0  0  0  0  0  0  0
  -21.2164  -20.3629   16.1551 C   0  0  0  0  0  0  0  0  0  0  0  0
  -21.1685  -22.6884   15.2396 C   0  0  0  0  0  0  0  0  0  0  0  0
  -28.3327  -23.5853   19.7621 C   0  0  0  0  0  0  0  0  0  0  0  0
  -22.3977  -16.1552   20.2797 C   0  0  0  0  0  0  0  0  0  0  0  0
  -30.3074  -21.5735   21.3670 C   0  0  0  0  0  0  0  0  0  0  0  0
  -31.3209  -18.3689   21.9587 C   0  0  0  0  0  0  0  0  0  0  0  0
  -28.8181  -28.5518   20.8373 C   0  0  0  0  0  0  0  0  0  0  0  0
  -26.6936  -21.9196   20.7081 C   0  0  0  0  0  0  0  0  0  0  0  0
  -29.0091  -20.5841   19.4432 C   0  0  0  0  0  0  0  0  0  0  0  0
  -29.7593  -27.3517   20.7724 C   0  0  0  0  0  0  0  0  0  0  0  0
  -19.7872  -16.1219   17.8252 C   0  0  0  0  0  0  0  0  0  0  0  0
  -29.5574  -26.5847   19.4694 C   0  0  0  0  0  0  0  0  0  0  0  0
  -19.6906  -17.5818   17.3841 C   0  0  0  0  0  0  0  0  0  0  0  0
  -20.1288  -16.0080   19.3076 C   0  0  0  0  0  0  0  0  0  0  0  0
  -21.2762  -18.1996   19.2627 C   0  0  0  0  0  0  0  0  0  0  0  0
  -28.1298  -26.0338   19.3691 C   0  0  1  0  0  0  0  0  0  0  0  0
  -28.0993  -22.5077   20.7829 C   0  0  1  0  0  0  0  0  0  0  0  0
  -20.9629  -18.3595   17.7645 C   0  0  2  0  0  0  0  0  0  0  0  0
  -30.0825  -13.7240   14.5722 C   0  0  0  0  0  0  0  0  0  0  0  0
  -31.4118  -12.9969   19.4424 C   0  0  0  0  0  0  0  0  0  0  0  0
  -27.2737  -12.0018   20.7901 C   0  0  0  0  0  0  0  0  0  0  0  0
  -32.9813  -17.0426   23.2935 C   0  0  0  0  0  0  0  0  0  0  0  0
  -32.5210  -22.4109   19.4411 C   0  0  0  0  0  0  0  0  0  0  0  0
  -33.8314  -20.4128   20.1885 C   0  0  0  0  0  0  0  0  0  0  0  0
  -33.2394  -22.1981   21.8271 C   0  0  0  0  0  0  0  0  0  0  0  0
  -29.1800  -16.9116   23.3911 C   0  0  0  0  0  0  0  0  0  0  0  0
  -27.0721  -14.9223   15.3536 C   0  0  0  0  0  0  0  0  0  0  0  0
  -29.9889  -14.7794   15.6710 C   0  0  0  0  0  0  0  0  0  0  0  0
  -31.0593  -13.8111   18.2013 C   0  0  0  0  0  0  0  0  0  0  0  0
  -23.6018  -17.0126   20.5779 C   0  0  0  0  0  0  0  0  0  0  0  0
  -26.1613  -16.1373   15.5431 C   0  0  0  0  0  0  0  0  0  0  0  0
  -24.6821  -16.2101   21.2802 C   0  0  0  0  0  0  0  0  0  0  0  0
  -26.2577  -14.2974   20.9671 C   0  0  0  0  0  0  0  0  0  0  0  0
  -26.8610  -17.3192   16.2040 C   0  0  0  0  0  0  0  0  0  1  0  0
  -26.6251  -13.1544   19.9918 C   0  0  1  0  0  0  0  0  0  0  0  0
  -31.4332  -20.6454   20.9792 C   0  0  1  0  0  0  0  0  0  0  0  0
  -31.5728  -17.6146   23.2517 C   0  0  2  0  0  0  0  0  0  0  0  0
  -32.7301  -21.4137   20.5982 C   0  0  0  0  0  0  0  0  0  0  0  0
  -20.4093  -20.7142   18.2463 N   0  0  0  0  0  0  0  0  0  0  0  0
  -28.8157  -13.5114   19.0258 N   0  0  0  0  0  0  0  0  0  0  0  0
  -20.8728  -19.8188   17.3577 N   0  0  0  0  0  0  0  0  0  0  0  0
  -29.1444  -21.5008   20.5873 N   0  0  0  0  0  0  0  0  0  0  0  0
  -21.3304  -16.7785   19.6328 N   0  0  0  0  0  0  0  0  0  0  0  0
  -21.7004  -19.6046   15.1486 N   0  0  0  0  0  0  0  0  0  0  0  0
  -20.8519  -24.0248   15.5192 N   0  0  0  0  0  0  0  0  0  0  0  0
  -27.9853  -24.8519   20.1916 N   0  0  0  0  0  0  0  0  0  0  0  0
  -31.5952  -19.7138   22.0902 N   0  0  0  0  0  0  0  0  0  0  0  0
  -30.6046  -16.4904   23.3926 N   0  3  0  0  0  0  0  0  0  0  0  0
  -25.1541  -15.1113   20.3955 N   0  3  0  0  0  0  0  0  0  0  0  0
  -21.6070  -22.3860   14.1039 O   0  0  0  0  0  0  0  0  0  0  0  0
  -28.7953  -23.2897   18.6665 O   0  0  0  0  0  0  0  0  0  0  0  0
  -22.4084  -14.9665   20.6099 O   0  0  0  0  0  0  0  0  0  0  0  0
  -30.4519  -22.3299   22.3306 O   0  0  0  0  0  0  0  0  0  0  0  0
  -30.9245  -17.8194   20.9333 O   0  0  0  0  0  0  0  0  0  0  0  0
  -18.8231  -26.6238   20.0097 O   0  0  0  0  0  0  0  0  0  0  0  0
  -25.9225  -18.3843   16.3494 O   0  0  0  0  0  0  0  0  0  1  0  0
  -20.5241  -27.5808   25.1667 F   0  0  0  0  0  0  0  0  0  0  0  0
  -20.3464  -28.8512   20.6104 F   0  0  0  0  0  0  0  0  0  0  0  0
  1  2  1  0  0  0  0
  1  5  2  0  0  0  0
  2  6  2  0  0  0  0
  3  8  2  0  0  0  0
  3 16  1  0  0  0  0
  4  9  1  0  0  0  0
  4 16  2  0  0  0  0
  5 18  1  0  0  0  0
  6 20  1  0  0  0  0
  7 10  2  0  0  0  0
  7 19  1  0  0  0  0
  8 24  1  0  0  0  0
  9 24  2  0  0  0  0
 10 25  1  0  0  0  0
 11 12  2  0  0  0  0
 11 26  1  0  0  0  0
 12 27  1  0  0  0  0
 13 21  1  0  0  0  0
 13 25  2  0  0  0  0
 14 22  2  0  0  0  0
 14 30  1  0  0  0  0
 15 27  2  0  0  0  0
 15 28  1  0  0  0  0
 16 29  1  0  0  0  0
 17 29  1  0  0  0  0
 17 32  2  0  0  0  0
 17 33  1  0  0  0  0
 18 20  2  0  0  0  0
 18 38  1  0  0  0  0
 19 21  2  0  0  0  0
 19 39  1  0  0  0  0
 20 47  1  0  0  0  0
 21 40  1  0  0  0  0
 22 23  1  0  0  0  0
 22 58  1  0  0  0  0
 23 31  2  0  0  0  0
 23 59  1  0  0  0  0
 24 86  1  0  0  0  0
 25 87  1  0  0  0  0
 26 28  2  0  0  0  0
 26 86  1  0  0  0  0
 27 88  1  0  0  0  0
 28 89  1  0  0  0  0
 29 70  2  0  0  0  0
 30 66  1  0  0  0  0
 30 71  2  0  0  0  0
 31 60  1  0  0  0  0
 31 71  1  0  0  0  0
 32 72  1  0  0  0  0
 32 75  1  0  0  0  0
 33 76  1  0  0  0  0
 33 81  2  0  0  0  0
 34 48  1  0  0  0  0
 34 77  1  0  0  0  0
 34 82  2  0  0  0  0
 35 61  1  0  0  0  0
 35 74  1  0  0  0  0
 35 83  2  0  0  0  0
 36 67  1  0  0  0  0
 36 73  1  0  0  0  0
 36 84  2  0  0  0  0
 37 68  1  0  0  0  0
 37 78  1  0  0  0  0
 37 85  2  0  0  0  0
 38 41  1  0  0  0  0
 39 48  1  0  0  0  0
 40 73  1  0  0  0  0
 41 43  1  0  0  0  0
 42 44  1  0  0  0  0
 42 45  1  0  0  0  0
 43 47  1  0  0  0  0
 44 49  1  0  0  0  0
 45 74  1  0  0  0  0
 46 49  1  0  0  0  0
 46 74  1  0  0  0  0
 47 77  1  0  0  0  0
 48 73  1  0  0  0  0
 49 72  1  0  0  0  0
 50 59  1  0  0  0  0
 51 60  1  0  0  0  0
 52 66  1  0  0  0  0
 53 68  1  0  0  0  0
 54 69  1  0  0  0  0
 55 69  1  0  0  0  0
 56 69  1  0  0  0  0
 57 79  1  0  0  0  0
 58 62  1  0  0  0  0
 61 63  1  0  0  0  0
 62 65  1  0  0  0  0
 63 80  1  0  0  0  0
 64 66  1  0  0  0  0
 64 80  1  0  0  0  0
 65 87  1  0  0  0  0
 67 69  1  0  0  0  0
 67 78  1  0  0  0  0
 68 79  1  0  0  0  0
 70 72  1  0  0  0  0
M  CHG  2  79   1  80   1
M  ISO  4  35 100  61 100  65 101  87 101
M  END
> <Batch ID>
0087

> <Smiles>
CCc1nc(C(C)CNC[100CH2:0][100C:0](=O)N2CCCC(n3nc(-c4ccc(Oc5ccc(F)cc5F)cc4)c(C(N)=O)c3N)C2)cc(CC[101CH2:1][101O:1]c2ccc3c(c2)CN(C(=O)C(NC(=O)C(C)NC)C(C)(C)C)C(C(=O)NC2CCCc4ccccc42)C3)c1CC

> <Shape>
0.206

> <Color>
0.083

> <Negative vol penalty>
0.000

$$$$

  -OEChem-04052319013D

 85 93  0     1  0  0  0  0  0999 V2000
  -27.7769  -36.1192   22.7642 C   0  0  0  0  0  0  0  0  0  0  0  0
  -28.0453  -34.7578   22.6645 C   0  0  0  0  0  0  0  0  0  0  0  0
  -26.5934  -13.6363   21.8998 C   0  0  0  0  0  0  0  0  0  0  0  0
  -26.1175  -13.6744   19.5315 C   0  0  0  0  0  0  0  0  0  0  0  0
  -26.5136  -36.5520   23.1649 C   0  0  0  0  0  0  0  0  0  0  0  0
  -27.0508  -33.8283   22.9667 C   0  0  0  0  0  0  0  0  0  0  0  0
  -26.7844  -30.0912   19.5596 C   0  0  0  0  0  0  0  0  0  0  0  0
  -25.7569  -12.5303   22.0502 C   0  0  0  0  0  0  0  0  0  0  0  0
  -25.2810  -12.5683   19.6818 C   0  0  0  0  0  0  0  0  0  0  0  0
  -27.7430  -29.0824   19.6448 C   0  0  0  0  0  0  0  0  0  0  0  0
  -25.9139   -9.1965   21.5081 C   0  0  0  0  0  0  0  0  0  0  0  0
  -26.3754   -8.1359   22.2876 C   0  0  0  0  0  0  0  0  0  0  0  0
  -26.1464  -27.6688   20.7725 C   0  0  0  0  0  0  0  0  0  0  0  0
  -29.2106  -22.1606   17.9273 C   0  0  0  0  0  0  0  0  0  0  0  0
  -24.4930   -8.4114   23.7769 C   0  0  0  0  0  0  0  0  0  0  0  0
  -26.7736  -14.2084   20.6405 C   0  0  0  0  0  0  0  0  0  0  0  0
  -29.0172  -15.3425   20.2069 C   0  0  0  0  0  0  0  0  0  0  0  0
  -25.5002  -35.6274   23.4628 C   0  0  0  0  0  0  0  0  0  0  0  0
  -25.5008  -29.9000   20.0909 C   0  0  0  0  0  0  0  0  0  0  0  0
  -25.7731  -34.2491   23.3731 C   0  0  0  0  0  0  0  0  0  0  0  0
  -25.1725  -28.6758   20.6905 C   0  0  0  0  0  0  0  0  0  0  0  0
  -28.3754  -21.5327   16.9706 C   0  0  0  0  0  0  0  0  0  0  0  0
  -25.1008  -11.9963   20.9412 C   0  0  0  0  0  0  0  0  0  0  0  0
  -27.4249  -27.8721   20.2539 C   0  0  0  0  0  0  0  0  0  0  0  0
  -24.7420   -9.8646   21.8629 C   0  0  0  0  0  0  0  0  0  0  0  0
  -25.6650   -7.7433   23.4220 C   0  0  0  0  0  0  0  0  0  0  0  0
  -24.0315   -9.4720   22.9973 C   0  0  0  0  0  0  0  0  0  0  0  0
  -27.6371  -15.3513   20.4846 C   0  0  0  0  0  0  0  0  0  0  0  0
  -30.1258  -22.9239   17.2366 C   0  0  0  0  0  0  0  0  0  0  0  0
  -28.8058  -21.9312   15.7243 C   0  0  0  0  0  0  0  0  0  0  0  0
  -29.3660  -16.6700   20.1573 C   0  0  0  0  0  0  0  0  0  0  0  0
  -29.9046  -14.2334   20.0113 C   0  0  0  0  0  0  0  0  0  0  0  0
  -23.7872  -31.2976   22.3743 C   0  0  0  0  0  0  0  0  0  0  0  0
  -21.4512  -29.3272   21.2867 C   0  0  0  0  0  0  0  0  0  0  0  0
  -20.6160  -26.4455   19.6602 C   0  0  0  0  0  0  0  0  0  0  0  0
  -25.7666  -21.5155   19.1066 C   0  0  0  0  0  0  0  0  0  0  0  0
  -24.1644  -36.1424   23.9375 C   0  0  0  0  0  0  0  0  0  0  0  0
  -24.4699  -30.9883   19.9672 C   0  0  0  0  0  0  0  0  0  0  0  0
  -23.8025  -28.4130   21.2584 C   0  0  0  0  0  0  0  0  0  0  0  0
  -23.0529  -35.0977   23.8783 C   0  0  0  0  0  0  0  0  0  0  0  0
  -28.1308  -20.9458   21.8972 C   0  0  0  0  0  0  0  0  0  0  0  0
  -23.5318  -33.7747   24.4674 C   0  0  0  0  0  0  0  0  0  0  0  0
  -28.3270  -19.4311   21.8635 C   0  0  0  0  0  0  0  0  0  0  0  0
  -26.7624  -21.3525   21.3590 C   0  0  0  0  0  0  0  0  0  0  0  0
  -26.6668  -19.3136   19.9634 C   0  0  0  0  0  0  0  0  0  0  0  0
  -24.7129  -33.2104   23.6685 C   0  0  1  0  0  0  0  0  0  0  0  0
  -23.3528  -30.8734   20.9998 C   0  0  1  0  0  0  0  0  0  0  0  0
  -28.0537  -18.8736   20.4558 C   0  0  2  0  0  0  0  0  0  0  0  0
  -28.2944  -21.5794   14.3824 C   0  0  0  0  0  0  0  0  0  0  0  0
  -31.5797  -22.4629   14.1522 C   0  0  0  0  0  0  0  0  0  0  0  0
  -18.6276  -25.0844   18.9594 C   0  0  0  0  0  0  0  0  0  0  0  0
  -21.1084  -28.3539   24.1582 C   0  0  0  0  0  0  0  0  0  0  0  0
  -19.8392  -26.3885   23.2668 C   0  0  0  0  0  0  0  0  0  0  0  0
  -18.9682  -28.6989   22.9111 C   0  0  0  0  0  0  0  0  0  0  0  0
  -25.3273  -22.0742   16.7455 C   0  0  0  0  0  0  0  0  0  0  0  0
  -21.3047  -26.7023   16.7934 C   0  0  0  0  0  0  0  0  0  0  0  0
  -27.2519  -20.6206   17.2639 C   0  0  0  0  0  0  0  0  0  0  0  0
  -31.2416  -23.7967   17.7532 C   0  0  0  0  0  0  0  0  0  0  0  0
  -30.8230  -25.2482   18.0122 C   0  0  0  0  0  0  0  0  0  0  0  0
  -29.7580  -25.3788   19.1020 C   0  0  0  0  0  0  0  0  0  0  0  0
  -30.6121  -23.4163   14.8320 C   0  0  0  0  0  0  0  0  0  0  0  0
  -29.3391  -26.8288   19.3034 C   0  0  0  0  0  0  0  0  0  1  0  0
  -20.9963  -27.9255   21.6146 C   0  0  1  0  0  0  0  0  0  0  0  0
  -19.6150  -26.1675   18.5534 C   0  0  2  0  0  0  0  0  0  0  0  0
  -20.2545  -27.8470   22.9788 C   0  0  0  0  0  0  0  0  0  0  0  0
  -27.1429  -16.5865   20.6033 N   0  0  0  0  0  0  0  0  0  0  0  0
  -29.8704  -22.7765   15.8982 N   0  0  0  0  0  0  0  0  0  0  0  0
  -28.2184  -17.3662   20.3992 N   0  0  0  0  0  0  0  0  0  0  0  0
  -22.8310  -29.5104   21.1187 N   0  0  0  0  0  0  0  0  0  0  0  0
  -26.5110  -20.7739   20.0387 N   0  0  0  0  0  0  0  0  0  0  0  0
  -30.5393  -17.2981   19.9309 N   0  0  0  0  0  0  0  0  0  0  0  0
  -29.3813  -12.9360   20.0964 N   0  0  0  0  0  0  0  0  0  0  0  0
  -24.2474  -32.5988   22.4423 N   0  0  0  0  0  0  0  0  0  0  0  0
  -20.2020  -27.4773   20.4759 N   0  0  0  0  0  0  0  0  0  0  0  0
  -26.0641  -21.3197   17.7494 N   0  0  0  0  0  0  0  0  0  0  0  0
  -20.3193  -25.7221   17.3179 N   0  3  0  0  0  0  0  0  0  0  0  0
  -31.1286  -14.3881   19.7845 O   0  0  0  0  0  0  0  0  0  0  0  0
  -23.7090  -30.5038   23.3045 O   0  0  0  0  0  0  0  0  0  0  0  0
  -20.6124  -30.2249   21.1766 O   0  0  0  0  0  0  0  0  0  0  0  0
  -21.6589  -25.8085   19.7906 O   0  0  0  0  0  0  0  0  0  0  0  0
  -24.8927  -22.3144   19.4673 O   0  0  0  0  0  0  0  0  0  0  0  0
  -24.2846  -10.9169   21.0875 O   0  0  0  0  0  0  0  0  0  0  0  0
  -28.3589  -26.8860   20.3389 O   0  0  0  0  0  0  0  0  0  1  0  0
  -26.1075   -6.7238   24.1697 F   0  0  0  0  0  0  0  0  0  0  0  0
  -22.9044  -10.1093   23.3426 F   0  0  0  0  0  0  0  0  0  0  0  0
  1  2  1  0  0  0  0
  1  5  2  0  0  0  0
  2  6  2  0  0  0  0
  3  8  2  0  0  0  0
  3 16  1  0  0  0  0
  4  9  1  0  0  0  0
  4 16  2  0  0  0  0
  5 18  1  0  0  0  0
  6 20  1  0  0  0  0
  7 10  2  0  0  0  0
  7 19  1  0  0  0  0
  8 23  1  0  0  0  0
  9 23  2  0  0  0  0
 10 24  1  0  0  0  0
 11 12  2  0  0  0  0
 11 25  1  0  0  0  0
 12 26  1  0  0  0  0
 13 21  1  0  0  0  0
 13 24  2  0  0  0  0
 14 22  1  0  0  0  0
 14 29  2  0  0  0  0
 15 26  2  0  0  0  0
 15 27  1  0  0  0  0
 16 28  1  0  0  0  0
 17 28  1  0  0  0  0
 17 31  2  0  0  0  0
 17 32  1  0  0  0  0
 18 20  2  0  0  0  0
 18 37  1  0  0  0  0
 19 21  2  0  0  0  0
 19 38  1  0  0  0  0
 20 46  1  0  0  0  0
 21 39  1  0  0  0  0
 22 30  2  0  0  0  0
 22 57  1  0  0  0  0
 23 82  1  0  0  0  0
 24 83  1  0  0  0  0
 25 27  2  0  0  0  0
 25 82  1  0  0  0  0
 26 84  1  0  0  0  0
 27 85  1  0  0  0  0
 28 66  2  0  0  0  0
 29 58  1  0  0  0  0
 29 67  1  0  0  0  0
 30 49  1  0  0  0  0
 30 67  1  0  0  0  0
 31 68  1  0  0  0  0
 31 71  1  0  0  0  0
 32 72  1  0  0  0  0
 32 77  2  0  0  0  0
 33 47  1  0  0  0  0
 33 73  1  0  0  0  0
 33 78  2  0  0  0  0
 34 63  1  0  0  0  0
 34 69  1  0  0  0  0
 34 79  2  0  0  0  0
 35 64  1  0  0  0  0
 35 74  1  0  0  0  0
 35 80  2  0  0  0  0
 36 70  1  0  0  0  0
 36 75  1  0  0  0  0
 36 81  2  0  0  0  0
 37 40  1  0  0  0  0
 38 47  1  0  0  0  0
 39 69  1  0  0  0  0
 40 42  1  0  0  0  0
 41 43  1  0  0  0  0
 41 44  1  0  0  0  0
 42 46  1  0  0  0  0
 43 48  1  0  0  0  0
 44 70  1  0  0  0  0
 45 48  1  0  0  0  0
 45 70  1  0  0  0  0
 46 73  1  0  0  0  0
 47 69  1  0  0  0  0
 48 68  1  0  0  0  0
 50 61  1  0  0  0  0
 51 64  1  0  0  0  0
 52 65  1  0  0  0  0
 53 65  1  0  0  0  0
 54 65  1  0  0  0  0
 55 75  1  0  0  0  0
 56 76  1  0  0  0  0
 57 75  1  0  0  0  0
 58 59  1  0  0  0  0
 59 60  1  0  0  0  0
 60 62  1  0  0  0  0
 61 67  1  0  0  0  0
 62 83  1  0  0  0  0
 63 65  1  0  0  0  0
 63 74  1  0  0  0  0
 64 76  1  0  0  0  0
 66 68  1  0  0  0  0
M  CHG  1  76   1
M  ISO  4  36 100  62 101  75 100  83 101
M  END
> <Batch ID>
0087

> <Smiles>
CCn1c(CCC[101CH2:1][101O:1]c2ccc3c(c2)CN(C(=O)C(NC(=O)C(C)NC)C(C)(C)C)C(C(=O)NC2CCCc4ccccc42)C3)cc(C[100N:0](C)[100C:0](=O)N2CCCC(n3nc(-c4ccc(Oc5ccc(F)cc5F)cc4)c(C(N)=O)c3N)C2)c1C

> <Shape>
0.300

> <Color>
0.083

> <Negative vol penalty>
0.000

$$$$

  -OEChem-04052319013D

 86 94  0     1  0  0  0  0  0999 V2000
  -27.6279  -11.6263   23.3788 C   0  0  0  0  0  0  0  0  0  0  0  0
  -28.0258  -12.9571   23.3001 C   0  0  0  0  0  0  0  0  0  0  0  0
  -22.6774  -29.6591   21.1227 C   0  0  0  0  0  0  0  0  0  0  0  0
  -23.9233  -29.0824   23.1107 C   0  0  0  0  0  0  0  0  0  0  0  0
  -26.7806  -11.0947   22.4076 C   0  0  0  0  0  0  0  0  0  0  0  0
  -27.5775  -13.7567   22.2494 C   0  0  0  0  0  0  0  0  0  0  0  0
  -26.0520  -18.3292   23.8019 C   0  0  0  0  0  0  0  0  0  0  0  0
  -21.6093  -30.0809   21.9144 C   0  0  0  0  0  0  0  0  0  0  0  0
  -22.8552  -29.5043   23.9025 C   0  0  0  0  0  0  0  0  0  0  0  0
  -27.0424  -19.2687   24.0847 C   0  0  0  0  0  0  0  0  0  0  0  0
  -18.4146  -30.9746   23.4039 C   0  0  0  0  0  0  0  0  0  0  0  0
  -17.1313  -30.5751   23.0308 C   0  0  0  0  0  0  0  0  0  0  0  0
  -32.0246  -18.9302   22.9662 C   0  0  0  0  0  0  0  0  0  0  0  0
  -32.2024  -17.7633   22.1827 C   0  0  0  0  0  0  0  0  0  0  0  0
  -26.6822  -20.2887   21.9286 C   0  0  0  0  0  0  0  0  0  0  0  0
  -17.7846  -28.2607   23.2622 C   0  0  0  0  0  0  0  0  0  0  0  0
  -23.8344  -29.1598   21.7208 C   0  0  0  0  0  0  0  0  0  0  0  0
  -26.0204  -29.5012   20.4510 C   0  0  0  0  0  0  0  0  0  0  0  0
  -26.3139  -11.8908   21.3498 C   0  0  0  0  0  0  0  0  0  0  0  0
  -25.3757  -18.3557   22.5738 C   0  0  0  0  0  0  0  0  0  0  0  0
  -26.7242  -13.2348   21.2624 C   0  0  0  0  0  0  0  0  0  0  0  0
  -25.6818  -19.3499   21.6336 C   0  0  0  0  0  0  0  0  0  0  0  0
  -21.6982  -30.0036   23.3042 C   0  0  0  0  0  0  0  0  0  0  0  0
  -27.3597  -20.2469   23.1469 C   0  0  0  0  0  0  0  0  0  0  0  0
  -19.3829  -30.0171   23.7061 C   0  0  0  0  0  0  0  0  0  0  0  0
  -16.8163  -29.2182   22.9599 C   0  0  0  0  0  0  0  0  0  0  0  0
  -19.0679  -28.6602   23.6353 C   0  0  0  0  0  0  0  0  0  0  0  0
  -24.9379  -28.7233   20.9035 C   0  0  0  0  0  0  0  0  0  0  0  0
  -31.4781  -19.8950   22.1490 C   0  0  0  0  0  0  0  0  0  0  0  0
  -31.7594  -18.0506   20.9105 C   0  0  0  0  0  0  0  0  0  0  0  0
  -26.7875  -28.6288   19.7182 C   0  0  0  0  0  0  0  0  0  0  0  0
  -26.3070  -30.8883   20.6732 C   0  0  0  0  0  0  0  0  0  0  0  0
  -25.0930  -16.3490   20.1249 C   0  0  0  0  0  0  0  0  0  0  0  0
  -22.9574  -18.5514   19.0707 C   0  0  0  0  0  0  0  0  0  0  0  0
  -21.8627  -21.7833   19.1255 C   0  0  0  0  0  0  0  0  0  0  0  0
  -29.2602  -23.7783   19.1659 C   0  0  0  0  0  0  0  0  0  0  0  0
  -25.4374  -11.2589   20.2976 C   0  0  0  0  0  0  0  0  0  0  0  0
  -24.2912  -17.3514   22.2947 C   0  0  0  0  0  0  0  0  0  0  0  0
  -24.9709  -19.4341   20.3085 C   0  0  0  0  0  0  0  0  0  0  0  0
  -24.7066  -12.2747   19.4232 C   0  0  0  0  0  0  0  0  0  0  0  0
  -25.8053  -23.9374   18.1001 C   0  0  0  0  0  0  0  0  0  0  0  0
  -25.6651  -13.3666   18.9587 C   0  0  0  0  0  0  0  0  0  0  0  0
  -25.3621  -25.2716   18.7033 C   0  0  0  0  0  0  0  0  0  0  0  0
  -26.7621  -23.2000   19.0323 C   0  0  0  0  0  0  0  0  0  0  0  0
  -27.5237  -25.3200   20.0319 C   0  0  0  0  0  0  0  0  0  0  0  0
  -26.2392  -14.1408   20.1514 C   0  0  1  0  0  0  0  0  0  0  0  0
  -24.0250  -17.1579   20.8051 C   0  0  1  0  0  0  0  0  0  0  0  0
  -26.5725  -26.1245   19.1273 C   0  0  2  0  0  0  0  0  0  0  0  0
  -20.1192  -23.2897   18.1312 C   0  0  0  0  0  0  0  0  0  0  0  0
  -32.2775  -15.7615   19.9954 C   0  0  0  0  0  0  0  0  0  0  0  0
  -32.5724  -17.7939   18.5399 C   0  0  0  0  0  0  0  0  0  0  0  0
  -30.2961  -16.9554   19.0843 C   0  0  0  0  0  0  0  0  0  0  0  0
  -24.5276  -18.6388   16.4560 C   0  0  0  0  0  0  0  0  0  0  0  0
  -23.3521  -20.7790   15.9027 C   0  0  0  0  0  0  0  0  0  0  0  0
  -22.0420  -18.6746   16.1819 C   0  0  0  0  0  0  0  0  0  0  0  0
  -20.6976  -22.3795   21.7799 C   0  0  0  0  0  0  0  0  0  0  0  0
  -31.0858  -21.3169   22.4616 C   0  0  0  0  0  0  0  0  0  0  0  0
  -30.6462  -21.5299   23.9118 C   0  0  0  0  0  0  0  0  0  0  0  0
  -31.5080  -21.3428   19.4045 C   0  0  0  0  0  0  0  0  0  0  0  0
  -30.7769  -20.0387   19.7510 C   0  0  0  0  0  0  0  0  0  0  0  0
  -30.8831  -22.1352   18.2582 C   0  0  0  0  0  0  0  0  0  0  0  0
  -29.3875  -20.7538   24.2814 C   0  0  0  0  0  0  0  0  0  1  0  0
  -23.0366  -19.7949   18.2185 C   0  0  1  0  0  0  0  0  0  0  0  0
  -20.4741  -22.3738   19.2922 C   0  0  2  0  0  0  0  0  0  0  0  0
  -31.7183  -17.1948   19.7069 C   0  0  0  0  0  0  0  0  0  0  0  0
  -23.2545  -19.4693   16.7139 C   0  0  0  0  0  0  0  0  0  0  0  0
  -25.0073  -27.4543   20.4925 N   0  0  0  0  0  0  0  0  0  0  0  0
  -31.3215  -19.3492   20.9016 N   0  0  0  0  0  0  0  0  0  0  0  0
  -26.1427  -27.4282   19.7739 N   0  0  0  0  0  0  0  0  0  0  0  0
  -23.9227  -18.4259   20.0798 N   0  0  0  0  0  0  0  0  0  0  0  0
  -27.9012  -24.0601   19.3828 N   0  0  0  0  0  0  0  0  0  0  0  0
  -27.9438  -28.7792   19.0380 N   0  0  0  0  0  0  0  0  0  0  0  0
  -25.4139  -31.6391   21.4498 N   0  0  0  0  0  0  0  0  0  0  0  0
  -25.2660  -15.0853   20.6565 N   0  0  0  0  0  0  0  0  0  0  0  0
  -21.8241  -20.5574   18.4953 N   0  0  0  0  0  0  0  0  0  0  0  0
  -29.5330  -22.5618   18.5524 N   0  0  0  0  0  0  0  0  0  0  0  0
  -20.3947  -23.1624   20.5542 N   0  3  0  0  0  0  0  0  0  0  0  0
  -27.3164  -31.4495   20.1836 O   0  0  0  0  0  0  0  0  0  0  0  0
  -25.7131  -16.8348   19.1862 O   0  0  0  0  0  0  0  0  0  0  0  0
  -22.0673  -17.7253   18.8538 O   0  0  0  0  0  0  0  0  0  0  0  0
  -22.8801  -22.3542   19.5120 O   0  0  0  0  0  0  0  0  0  0  0  0
  -30.1641  -24.5560   19.4902 O   0  0  0  0  0  0  0  0  0  0  0  0
  -20.6562  -30.4154   24.0771 O   0  0  0  0  0  0  0  0  0  0  0  0
  -28.3265  -21.1648   23.4201 O   0  0  0  0  0  0  0  0  0  1  0  0
  -15.5835  -28.8347   22.6031 F   0  0  0  0  0  0  0  0  0  0  0  0
  -19.9936  -27.7357   23.9256 F   0  0  0  0  0  0  0  0  0  0  0  0
  1  2  1  0  0  0  0
  1  5  2  0  0  0  0
  2  6  2  0  0  0  0
  3  8  2  0  0  0  0
  3 17  1  0  0  0  0
  4  9  1  0  0  0  0
  4 17  2  0  0  0  0
  5 19  1  0  0  0  0
  6 21  1  0  0  0  0
  7 10  2  0  0  0  0
  7 20  1  0  0  0  0
  8 23  1  0  0  0  0
  9 23  2  0  0  0  0
 10 24  1  0  0  0  0
 11 12  2  0  0  0  0
 11 25  1  0  0  0  0
 12 26  1  0  0  0  0
 13 14  1  0  0  0  0
 13 29  2  0  0  0  0
 14 30  2  0  0  0  0
 15 22  1  0  0  0  0
 15 24  2  0  0  0  0
 16 26  2  0  0  0  0
 16 27  1  0  0  0  0
 17 28  1  0  0  0  0
 18 28  1  0  0  0  0
 18 31  2  0  0  0  0
 18 32  1  0  0  0  0
 19 21  2  0  0  0  0
 19 37  1  0  0  0  0
 20 22  2  0  0  0  0
 20 38  1  0  0  0  0
 21 46  1  0  0  0  0
 22 39  1  0  0  0  0
 23 83  1  0  0  0  0
 24 84  1  0  0  0  0
 25 27  2  0  0  0  0
 25 83  1  0  0  0  0
 26 85  1  0  0  0  0
 27 86  1  0  0  0  0
 28 67  2  0  0  0  0
 29 57  1  0  0  0  0
 29 68  1  0  0  0  0
 30 65  1  0  0  0  0
 30 68  1  0  0  0  0
 31 69  1  0  0  0  0
 31 72  1  0  0  0  0
 32 73  1  0  0  0  0
 32 78  2  0  0  0  0
 33 47  1  0  0  0  0
 33 74  1  0  0  0  0
 33 79  2  0  0  0  0
 34 63  1  0  0  0  0
 34 70  1  0  0  0  0
 34 80  2  0  0  0  0
 35 64  1  0  0  0  0
 35 75  1  0  0  0  0
 35 81  2  0  0  0  0
 36 71  1  0  0  0  0
 36 76  1  0  0  0  0
 36 82  2  0  0  0  0
 37 40  1  0  0  0  0
 38 47  1  0  0  0  0
 39 70  1  0  0  0  0
 40 42  1  0  0  0  0
 41 43  1  0  0  0  0
 41 44  1  0  0  0  0
 42 46  1  0  0  0  0
 43 48  1  0  0  0  0
 44 71  1  0  0  0  0
 45 48  1  0  0  0  0
 45 71  1  0  0  0  0
 46 74  1  0  0  0  0
 47 70  1  0  0  0  0
 48 69  1  0  0  0  0
 49 64  1  0  0  0  0
 50 65  1  0  0  0  0
 51 65  1  0  0  0  0
 52 65  1  0  0  0  0
 53 66  1  0  0  0  0
 54 66  1  0  0  0  0
 55 66  1  0  0  0  0
 56 77  1  0  0  0  0
 57 58  1  0  0  0  0
 58 62  1  0  0  0  0
 59 60  1  0  0  0  0
 59 61  1  0  0  0  0
 60 68  1  0  0  0  0
 61 76  1  0  0  0  0
 62 84  1  0  0  0  0
 63 66  1  0  0  0  0
 63 75  1  0  0  0  0
 64 77  1  0  0  0  0
 67 69  1  0  0  0  0
M  CHG  1  77   1
M  ISO  4  36 100  62 101  76 100  84 101
M  END
> <Batch ID>
0087

> <Smiles>
CNC(C)C(=O)NC(C(=O)N1Cc2cc([101O:1][101CH2:1]CCc3ccc(C(C)(C)C)n3CCC[100NH:0][100C:0](=O)N3CCCC(n4nc(-c5ccc(Oc6ccc(F)cc6F)cc5)c(C(N)=O)c4N)C3)ccc2CC1C(=O)NC1CCCc2ccccc21)C(C)(C)C

> <Shape>
0.198

> <Color>
0.072

> <Negative vol penalty>
0.000

$$$$

  -OEChem-04052319013D

 88 96  0     1  0  0  0  0  0999 V2000
  -19.8928  -10.5132   23.1673 C   0  0  0  0  0  0  0  0  0  0  0  0
  -20.7310  -11.6215   23.2339 C   0  0  0  0  0  0  0  0  0  0  0  0
  -26.2304  -27.6903   18.8704 C   0  0  0  0  0  0  0  0  0  0  0  0
  -26.5008  -27.5685   21.2681 C   0  0  0  0  0  0  0  0  0  0  0  0
  -20.3307   -9.3460   22.5427 C   0  0  0  0  0  0  0  0  0  0  0  0
  -22.0080  -11.5630   22.6770 C   0  0  0  0  0  0  0  0  0  0  0  0
  -23.1441  -15.6979   19.9832 C   0  0  0  0  0  0  0  0  0  0  0  0
  -25.0404  -28.3978   19.0405 C   0  0  0  0  0  0  0  0  0  0  0  0
  -25.3108  -28.2760   21.4383 C   0  0  0  0  0  0  0  0  0  0  0  0
  -23.5141  -16.8389   20.6938 C   0  0  0  0  0  0  0  0  0  0  0  0
  -21.9932  -27.6337   21.3292 C   0  0  0  0  0  0  0  0  0  0  0  0
  -21.0923  -27.1660   22.2859 C   0  0  0  0  0  0  0  0  0  0  0  0
  -25.8350  -16.3593   20.2436 C   0  0  0  0  0  0  0  0  0  0  0  0
  -25.2470  -19.1539   24.9628 C   0  0  0  0  0  0  0  0  0  0  0  0
  -27.0296  -20.3792   23.8867 C   0  0  0  0  0  0  0  0  0  0  0  0
  -21.2565  -29.2669   23.4676 C   0  0  0  0  0  0  0  0  0  0  0  0
  -26.9606  -27.2756   19.9842 C   0  0  0  0  0  0  0  0  0  0  0  0
  -29.4869  -27.0780   19.6902 C   0  0  0  0  0  0  0  0  0  0  0  0
  -21.6101   -9.2764   21.9694 C   0  0  0  0  0  0  0  0  0  0  0  0
  -24.1190  -14.8717   19.4058 C   0  0  0  0  0  0  0  0  0  0  0  0
  -22.4639  -10.3934   22.0454 C   0  0  0  0  0  0  0  0  0  0  0  0
  -25.4746  -15.2097   19.5241 C   0  0  0  0  0  0  0  0  0  0  0  0
  -25.7046  -19.9438   23.9081 C   0  0  0  0  0  0  0  0  0  0  0  0
  -26.1144  -18.7995   25.9961 C   0  0  0  0  0  0  0  0  0  0  0  0
  -27.8970  -20.0248   24.9200 C   0  0  0  0  0  0  0  0  0  0  0  0
  -27.4394  -19.2349   25.9747 C   0  0  0  0  0  0  0  0  0  0  0  0
  -24.5806  -28.6907   20.3245 C   0  0  0  0  0  0  0  0  0  0  0  0
  -24.8599  -17.1682   20.8265 C   0  0  0  0  0  0  0  0  0  0  0  0
  -22.5258  -28.9180   21.4418 C   0  0  0  0  0  0  0  0  0  0  0  0
  -20.7239  -27.9826   23.3551 C   0  0  0  0  0  0  0  0  0  0  0  0
  -22.1574  -29.7346   22.5110 C   0  0  0  0  0  0  0  0  0  0  0  0
  -28.1897  -26.5443   19.8091 C   0  0  0  0  0  0  0  0  0  0  0  0
  -30.2981  -25.9794   19.5437 C   0  0  0  0  0  0  0  0  0  0  0  0
  -29.9199  -28.4447   19.7103 C   0  0  0  0  0  0  0  0  0  0  0  0
  -25.0039  -11.8426   19.7869 C   0  0  0  0  0  0  0  0  0  0  0  0
  -26.9264  -12.4933   17.2565 C   0  0  0  0  0  0  0  0  0  0  0  0
  -28.5901  -14.8299   15.4073 C   0  0  0  0  0  0  0  0  0  0  0  0
  -29.7343  -20.2475   21.1803 C   0  0  0  0  0  0  0  0  0  0  0  0
  -22.0567   -7.9774   21.3465 C   0  0  0  0  0  0  0  0  0  0  0  0
  -23.7021  -13.6589   18.6198 C   0  0  0  0  0  0  0  0  0  0  0  0
  -26.5590  -14.3669   18.9058 C   0  0  0  0  0  0  0  0  0  0  0  0
  -23.2852   -8.1216   20.4518 C   0  0  0  0  0  0  0  0  0  0  0  0
  -30.2605  -21.4914   17.8860 C   0  0  0  0  0  0  0  0  0  0  0  0
  -24.3553   -8.9588   21.1452 C   0  0  0  0  0  0  0  0  0  0  0  0
  -29.9065  -22.9756   17.9946 C   0  0  0  0  0  0  0  0  0  0  0  0
  -29.3544  -20.6295   18.7624 C   0  0  0  0  0  0  0  0  0  0  0  0
  -28.9395  -22.5206   20.2873 C   0  0  0  0  0  0  0  0  0  0  0  0
  -23.8469  -10.3770   21.4313 C   0  0  1  0  0  0  0  0  0  0  0  0
  -24.8043  -12.6098   18.5105 C   0  0  1  0  0  0  0  0  0  0  0  0
  -29.8624  -23.4355   19.4642 C   0  0  2  0  0  0  0  0  0  0  0  0
  -25.5997  -17.9519   27.1134 C   0  0  0  0  0  0  0  0  0  0  0  0
  -28.8901  -20.0791   27.8553 C   0  0  0  0  0  0  0  0  0  0  0  0
  -29.5516  -18.0031   26.5872 C   0  0  0  0  0  0  0  0  0  0  0  0
  -30.1078  -15.0550   13.4216 C   0  0  0  0  0  0  0  0  0  0  0  0
  -31.5916  -20.1081   23.8441 C   0  0  0  0  0  0  0  0  0  0  0  0
  -25.4070  -21.2123   21.6763 C   0  0  0  0  0  0  0  0  0  0  0  0
  -23.5725  -21.1540   23.3522 C   0  0  0  0  0  0  0  0  0  0  0  0
  -29.2654  -11.4781   18.9322 C   0  0  0  0  0  0  0  0  0  0  0  0
  -30.8177  -12.5885   17.3119 C   0  0  0  0  0  0  0  0  0  0  0  0
  -29.3086  -10.7596   16.5372 C   0  0  0  0  0  0  0  0  0  0  0  0
  -26.6318  -16.5073   13.9546 C   0  0  0  0  0  0  0  0  0  0  0  0
  -29.3113  -20.5038   24.8735 C   0  0  0  0  0  0  0  0  0  0  0  0
  -24.1748  -19.0659   22.0857 C   0  0  0  0  0  0  0  0  0  1  0  0
  -28.3692  -18.8544   27.0826 C   0  0  0  0  0  0  0  0  0  0  0  0
  -28.3295  -13.0244   17.0886 C   0  0  1  0  0  0  0  0  0  0  0  0
  -28.6672  -15.0604   13.9089 C   0  0  2  0  0  0  0  0  0  0  0  0
  -30.0840  -20.0233   23.6271 C   0  0  1  0  0  0  0  0  0  0  0  0
  -24.7467  -20.3356   22.7675 C   0  0  0  0  0  0  0  0  0  0  0  0
  -29.4102  -11.9777   17.4809 C   0  0  0  0  0  0  0  0  0  0  0  0
  -28.1729  -25.2103   19.7438 N   0  0  0  0  0  0  0  0  0  0  0  0
  -29.4697  -24.8966   19.5820 N   0  0  0  0  0  0  0  0  0  0  0  0
  -26.1012  -13.1877   18.1524 N   0  0  0  0  0  0  0  0  0  0  0  0
  -29.3585  -21.1176   20.1436 N   0  0  0  0  0  0  0  0  0  0  0  0
  -31.6320  -25.8436   19.3871 N   0  0  0  0  0  0  0  0  0  0  0  0
  -28.9553  -29.4489   19.8694 N   0  0  0  0  0  0  0  0  0  0  0  0
  -23.8753  -11.1768   20.2255 N   0  0  0  0  0  0  0  0  0  0  0  0
  -28.4257  -13.4950   15.7110 N   0  0  0  0  0  0  0  0  0  0  0  0
  -29.7169  -20.7919   22.4586 N   0  0  0  0  0  0  0  0  0  0  0  0
  -28.0561  -16.3726   13.5544 N   0  3  0  0  0  0  0  0  0  0  0  0
  -31.1247  -28.7666   19.5744 O   0  0  0  0  0  0  0  0  0  0  0  0
  -26.1011  -11.8526   20.3325 O   0  0  0  0  0  0  0  0  0  0  0  0
  -26.5732  -11.5033   16.6110 O   0  0  0  0  0  0  0  0  0  0  0  0
  -28.6715  -15.7424   16.2266 O   0  0  0  0  0  0  0  0  0  0  0  0
  -30.0662  -19.0740   20.9809 O   0  0  0  0  0  0  0  0  0  0  0  0
  -23.4196  -29.3812   20.4908 O   0  0  0  0  0  0  0  0  0  0  0  0
  -25.2238  -18.2810   21.5201 O   0  0  0  0  0  0  0  0  0  1  0  0
  -19.8575  -27.5338   24.2728 F   0  0  0  0  0  0  0  0  0  0  0  0
  -22.6649  -30.9697   22.6238 F   0  0  0  0  0  0  0  0  0  0  0  0
  1  2  1  0  0  0  0
  1  5  2  0  0  0  0
  2  6  2  0  0  0  0
  3  8  2  0  0  0  0
  3 17  1  0  0  0  0
  4  9  1  0  0  0  0
  4 17  2  0  0  0  0
  5 19  1  0  0  0  0
  6 21  1  0  0  0  0
  7 10  2  0  0  0  0
  7 20  1  0  0  0  0
  8 27  1  0  0  0  0
  9 27  2  0  0  0  0
 10 28  1  0  0  0  0
 11 12  2  0  0  0  0
 11 29  1  0  0  0  0
 12 30  1  0  0  0  0
 13 22  1  0  0  0  0
 13 28  2  0  0  0  0
 14 23  1  0  0  0  0
 14 24  2  0  0  0  0
 15 23  2  0  0  0  0
 15 25  1  0  0  0  0
 16 30  2  0  0  0  0
 16 31  1  0  0  0  0
 17 32  1  0  0  0  0
 18 32  1  0  0  0  0
 18 33  2  0  0  0  0
 18 34  1  0  0  0  0
 19 21  2  0  0  0  0
 19 39  1  0  0  0  0
 20 22  2  0  0  0  0
 20 40  1  0  0  0  0
 21 48  1  0  0  0  0
 22 41  1  0  0  0  0
 23 68  1  0  0  0  0
 24 26  1  0  0  0  0
 24 51  1  0  0  0  0
 25 26  2  0  0  0  0
 25 62  1  0  0  0  0
 26 64  1  0  0  0  0
 27 85  1  0  0  0  0
 28 86  1  0  0  0  0
 29 31  2  0  0  0  0
 29 85  1  0  0  0  0
 30 87  1  0  0  0  0
 31 88  1  0  0  0  0
 32 70  2  0  0  0  0
 33 71  1  0  0  0  0
 33 74  1  0  0  0  0
 34 75  1  0  0  0  0
 34 80  2  0  0  0  0
 35 49  1  0  0  0  0
 35 76  1  0  0  0  0
 35 81  2  0  0  0  0
 36 65  1  0  0  0  0
 36 72  1  0  0  0  0
 36 82  2  0  0  0  0
 37 66  1  0  0  0  0
 37 77  1  0  0  0  0
 37 83  2  0  0  0  0
 38 73  1  0  0  0  0
 38 78  1  0  0  0  0
 38 84  2  0  0  0  0
 39 42  1  0  0  0  0
 40 49  1  0  0  0  0
 41 72  1  0  0  0  0
 42 44  1  0  0  0  0
 43 45  1  0  0  0  0
 43 46  1  0  0  0  0
 44 48  1  0  0  0  0
 45 50  1  0  0  0  0
 46 73  1  0  0  0  0
 47 50  1  0  0  0  0
 47 73  1  0  0  0  0
 48 76  1  0  0  0  0
 49 72  1  0  0  0  0
 50 71  1  0  0  0  0
 52 64  1  0  0  0  0
 53 64  1  0  0  0  0
 54 66  1  0  0  0  0
 55 67  1  0  0  0  0
 56 68  1  0  0  0  0
 57 68  1  0  0  0  0
 58 69  1  0  0  0  0
 59 69  1  0  0  0  0
 60 69  1  0  0  0  0
 61 79  1  0  0  0  0
 62 67  1  0  0  0  0
 63 68  1  0  0  0  0
 63 86  1  0  0  0  0
 65 69  1  0  0  0  0
 65 77  1  0  0  0  0
 66 79  1  0  0  0  0
 67 78  1  0  0  0  0
 70 71  1  0  0  0  0
M  CHG  1  79   1
M  ISO  4  38 100  63 101  78 100  86 101
M  END
> <Batch ID>
0087

> <Smiles>
CNC(C)C(=O)NC(C(=O)N1Cc2cc([101O:1][101CH2:1]C(C)(C)c3cc(C)c(C(C)C)c(CC(C)[100NH:0][100C:0](=O)N4CCCC(n5nc(-c6ccc(Oc7ccc(F)cc7F)cc6)c(C(N)=O)c5N)C4)c3)ccc2CC1C(=O)NC1CCCc2ccccc21)C(C)(C)C

> <Shape>
0.239

> <Color>
0.060

> <Negative vol penalty>
0.000

$$$$

  -OEChem-04052319013D

 88 96  0     1  0  0  0  0  0999 V2000
  -30.4457  -23.6785   17.3586 C   0  0  0  0  0  0  0  0  0  0  0  0
  -29.2349  -23.3506   17.9580 C   0  0  0  0  0  0  0  0  0  0  0  0
  -26.2567  -12.5130   19.9527 C   0  0  0  0  0  0  0  0  0  0  0  0
  -24.3728  -13.8087   20.7331 C   0  0  0  0  0  0  0  0  0  0  0  0
  -31.0130  -24.9313   17.5821 C   0  0  0  0  0  0  0  0  0  0  0  0
  -28.5851  -24.2795   18.7715 C   0  0  0  0  0  0  0  0  0  0  0  0
  -24.0791  -23.0986   20.3542 C   0  0  0  0  0  0  0  0  0  0  0  0
  -25.8166  -11.4218   20.7019 C   0  0  0  0  0  0  0  0  0  0  0  0
  -23.9326  -12.7175   21.4822 C   0  0  0  0  0  0  0  0  0  0  0  0
  -23.8525  -22.1220   21.3231 C   0  0  0  0  0  0  0  0  0  0  0  0
  -24.9921   -8.1798   22.1248 C   0  0  0  0  0  0  0  0  0  0  0  0
  -24.9977   -6.9272   21.5112 C   0  0  0  0  0  0  0  0  0  0  0  0
  -23.4678  -23.8480   22.9640 C   0  0  0  0  0  0  0  0  0  0  0  0
  -23.4762   -7.7475   19.8231 C   0  0  0  0  0  0  0  0  0  0  0  0
  -26.7798  -22.1634   24.4563 C   0  0  0  0  0  0  0  0  0  0  0  0
  -25.5348  -13.7064   19.9683 C   0  0  0  0  0  0  0  0  0  0  0  0
  -25.6509  -15.1441   17.8642 C   0  0  0  0  0  0  0  0  0  0  0  0
  -30.3753  -25.8709   18.4088 C   0  0  0  0  0  0  0  0  0  0  0  0
  -24.0124  -24.4594   20.6860 C   0  0  0  0  0  0  0  0  0  0  0  0
  -29.1297  -25.5579   18.9901 C   0  0  0  0  0  0  0  0  0  0  0  0
  -23.6915  -24.8398   21.9969 C   0  0  0  0  0  0  0  0  0  0  0  0
  -24.6546  -11.5241   21.4666 C   0  0  0  0  0  0  0  0  0  0  0  0
  -23.5496  -22.4966   22.6289 C   0  0  0  0  0  0  0  0  0  0  0  0
  -24.2285   -9.2163   21.5877 C   0  0  0  0  0  0  0  0  0  0  0  0
  -24.2397   -6.7111   20.3603 C   0  0  0  0  0  0  0  0  0  0  0  0
  -23.4706   -9.0001   20.4368 C   0  0  0  0  0  0  0  0  0  0  0  0
  -25.9893  -14.8341   19.1950 C   0  0  0  0  0  0  0  0  0  0  0  0
  -28.0746  -22.0779   24.0284 C   0  0  0  0  0  0  0  0  0  0  0  0
  -26.3366  -16.3037   17.5967 C   0  0  0  0  0  0  0  0  0  0  0  0
  -27.5539  -20.1666   25.0165 C   0  0  0  0  0  0  0  0  0  0  0  0
  -24.7934  -14.4462   16.9513 C   0  0  0  0  0  0  0  0  0  0  0  0
  -26.0737  -26.8789   20.6570 C   0  0  0  0  0  0  0  0  0  0  0  0
  -23.4475  -28.6155   21.4378 C   0  0  0  0  0  0  0  0  0  0  0  0
  -20.3230  -28.6858   22.8087 C   0  0  0  0  0  0  0  0  0  0  0  0
  -28.2801  -20.6254   21.1182 C   0  0  0  0  0  0  0  0  0  0  0  0
  -31.0300  -27.2148   18.6102 C   0  0  0  0  0  0  0  0  0  0  0  0
  -24.2332  -25.5006   19.6231 C   0  0  0  0  0  0  0  0  0  0  0  0
  -23.5879  -26.2874   22.3997 C   0  0  0  0  0  0  0  0  0  0  0  0
  -30.4967  -27.9591   19.8300 C   0  0  0  0  0  0  0  0  0  0  0  0
  -30.3032  -18.6790   18.8344 C   0  0  0  0  0  0  0  0  0  0  0  0
  -28.9754  -27.9677   19.8096 C   0  0  0  0  0  0  0  0  0  0  0  0
  -29.3797  -17.4946   18.5438 C   0  0  0  0  0  0  0  0  0  0  0  0
  -30.1908  -19.1236   20.2897 C   0  0  0  0  0  0  0  0  0  0  0  0
  -27.8813  -18.2761   20.4369 C   0  0  0  0  0  0  0  0  0  0  0  0
  -28.4199  -26.5410   19.9034 C   0  0  1  0  0  0  0  0  0  0  0  0
  -24.6456  -26.8554   20.1904 C   0  0  1  0  0  0  0  0  0  0  0  0
  -27.9319  -17.7937   18.9758 C   0  0  2  0  0  0  0  0  0  0  0  0
  -30.4215  -22.9282   23.7236 C   0  0  0  0  0  0  0  0  0  0  0  0
  -18.4400  -30.2571   23.3402 C   0  0  0  0  0  0  0  0  0  0  0  0
  -28.9511  -15.9702   25.5841 C   0  0  0  0  0  0  0  0  0  0  0  0
  -27.4433  -15.2783   23.7162 C   0  0  0  0  0  0  0  0  0  0  0  0
  -26.4771  -15.9499   25.9305 C   0  0  0  0  0  0  0  0  0  0  0  0
  -25.0220  -29.6932   23.8189 C   0  0  0  0  0  0  0  0  0  0  0  0
  -22.8580  -30.4711   24.8088 C   0  0  0  0  0  0  0  0  0  0  0  0
  -23.6346  -31.3991   22.6275 C   0  0  0  0  0  0  0  0  0  0  0  0
  -18.4478  -27.2173   21.0520 C   0  0  0  0  0  0  0  0  0  0  0  0
  -27.6611  -18.7881   25.5561 C   0  0  0  0  0  0  0  0  0  0  0  0
  -27.5618  -17.7177   24.4479 C   0  0  0  0  0  0  0  0  0  0  0  0
  -24.2822  -19.7185   24.8052 C   0  0  0  0  0  0  0  0  0  0  0  0
  -25.1559  -20.6151   25.6852 C   0  0  0  0  0  0  0  0  0  0  0  0
  -28.8322  -22.9559   21.7671 C   0  0  0  0  0  0  0  0  0  0  0  0
  -24.0151  -20.3039   23.4235 C   0  0  0  0  0  0  0  0  0  1  0  0
  -28.9257  -23.0379   23.3208 C   0  0  1  0  0  0  0  0  0  0  0  0
  -22.7797  -29.0219   22.7292 C   0  0  1  0  0  0  0  0  0  0  0  0
  -19.0211  -29.2929   22.3178 C   0  0  2  0  0  0  0  0  0  0  0  0
  -27.5907  -16.2362   24.9098 C   0  0  0  0  0  0  0  0  0  0  0  0
  -23.5773  -30.1189   23.4893 C   0  0  0  0  0  0  0  0  0  0  0  0
  -26.8251  -15.7249   19.7354 N   0  0  0  0  0  0  0  0  0  0  0  0
  -26.4839  -20.9669   25.0636 N   0  0  0  0  0  0  0  0  0  0  0  0
  -27.0178  -16.6059   18.7390 N   0  0  0  0  0  0  0  0  0  0  0  0
  -28.5287  -20.8321   24.3886 N   0  3  0  0  0  0  0  0  0  0  0  0
  -23.8185  -27.2681   21.3261 N   0  0  0  0  0  0  0  0  0  0  0  0
  -28.7904  -19.4106   20.6314 N   0  0  0  0  0  0  0  0  0  0  0  0
  -26.4174  -17.0841   16.4982 N   0  0  0  0  0  0  0  0  0  0  0  0
  -24.1672  -13.2711   17.3886 N   0  0  0  0  0  0  0  0  0  0  0  0
  -26.9927  -26.5739   19.6712 N   0  0  0  0  0  0  0  0  0  0  0  0
  -21.4168  -29.4079   22.3801 N   0  0  0  0  0  0  0  0  0  0  0  0
  -29.2078  -21.6470   21.2806 N   0  0  0  0  0  0  0  0  0  0  0  0
  -18.0168  -28.2232   22.0568 N   0  3  0  0  0  0  0  0  0  0  0  0
  -24.6014  -14.8438   15.7772 O   0  0  0  0  0  0  0  0  0  0  0  0
  -26.3234  -27.1549   21.8245 O   0  0  0  0  0  0  0  0  0  0  0  0
  -23.6267  -29.4609   20.5575 O   0  0  0  0  0  0  0  0  0  0  0  0
  -20.3653  -27.6746   23.5059 O   0  0  0  0  0  0  0  0  0  0  0  0
  -27.0844  -20.7896   21.3836 O   0  0  0  0  0  0  0  0  0  0  0  0
  -24.2247  -10.4595   22.1976 O   0  0  0  0  0  0  0  0  0  0  0  0
  -23.3286  -21.5455   23.5767 O   0  0  0  0  0  0  0  0  0  1  0  0
  -24.2464   -5.5086   19.7703 F   0  0  0  0  0  0  0  0  0  0  0  0
  -22.7360   -9.9922   19.9155 F   0  0  0  0  0  0  0  0  0  0  0  0
  1  2  1  0  0  0  0
  1  5  2  0  0  0  0
  2  6  2  0  0  0  0
  3  8  2  0  0  0  0
  3 16  1  0  0  0  0
  4  9  1  0  0  0  0
  4 16  2  0  0  0  0
  5 18  1  0  0  0  0
  6 20  1  0  0  0  0
  7 10  2  0  0  0  0
  7 19  1  0  0  0  0
  8 22  1  0  0  0  0
  9 22  2  0  0  0  0
 10 23  1  0  0  0  0
 11 12  2  0  0  0  0
 11 24  1  0  0  0  0
 12 25  1  0  0  0  0
 13 21  1  0  0  0  0
 13 23  2  0  0  0  0
 14 25  2  0  0  0  0
 14 26  1  0  0  0  0
 15 28  2  0  0  0  0
 15 69  1  0  0  0  0
 16 27  1  0  0  0  0
 17 27  1  0  0  0  0
 17 29  2  0  0  0  0
 17 31  1  0  0  0  0
 18 20  2  0  0  0  0
 18 36  1  0  0  0  0
 19 21  2  0  0  0  0
 19 37  1  0  0  0  0
 20 45  1  0  0  0  0
 21 38  1  0  0  0  0
 22 85  1  0  0  0  0
 23 86  1  0  0  0  0
 24 26  2  0  0  0  0
 24 85  1  0  0  0  0
 25 87  1  0  0  0  0
 26 88  1  0  0  0  0
 27 68  2  0  0  0  0
 28 63  1  0  0  0  0
 28 71  1  0  0  0  0
 29 70  1  0  0  0  0
 29 74  1  0  0  0  0
 30 57  1  0  0  0  0
 30 69  1  0  0  0  0
 30 71  2  0  0  0  0
 31 75  1  0  0  0  0
 31 80  2  0  0  0  0
 32 46  1  0  0  0  0
 32 76  1  0  0  0  0
 32 81  2  0  0  0  0
 33 64  1  0  0  0  0
 33 72  1  0  0  0  0
 33 82  2  0  0  0  0
 34 65  1  0  0  0  0
 34 77  1  0  0  0  0
 34 83  2  0  0  0  0
 35 73  1  0  0  0  0
 35 78  1  0  0  0  0
 35 84  2  0  0  0  0
 36 39  1  0  0  0  0
 37 46  1  0  0  0  0
 38 72  1  0  0  0  0
 39 41  1  0  0  0  0
 40 42  1  0  0  0  0
 40 43  1  0  0  0  0
 41 45  1  0  0  0  0
 42 47  1  0  0  0  0
 43 73  1  0  0  0  0
 44 47  1  0  0  0  0
 44 73  1  0  0  0  0
 45 76  1  0  0  0  0
 46 72  1  0  0  0  0
 47 70  1  0  0  0  0
 48 63  1  0  0  0  0
 49 65  1  0  0  0  0
 50 66  1  0  0  0  0
 51 66  1  0  0  0  0
 52 66  1  0  0  0  0
 53 67  1  0  0  0  0
 54 67  1  0  0  0  0
 55 67  1  0  0  0  0
 56 79  1  0  0  0  0
 57 58  1  0  0  0  0
 58 66  1  0  0  0  0
 59 60  1  0  0  0  0
 59 62  1  0  0  0  0
 60 69  1  0  0  0  0
 61 63  1  0  0  0  0
 61 78  1  0  0  0  0
 62 86  1  0  0  0  0
 64 67  1  0  0  0  0
 64 77  1  0  0  0  0
 65 79  1  0  0  0  0
 68 70  1  0  0  0  0
M  CHG  2  71   1  79   1
M  ISO  4  35 100  62 101  78 100  86 101
M  END
> <Batch ID>
0087

> <Smiles>
CNC(C)C(=O)NC(C(=O)N1Cc2cc([101O:1][101CH2:1]CCn3cc(C(C)C[100NH:0][100C:0](=O)N4CCCC(n5nc(-c6ccc(Oc7ccc(F)cc7F)cc6)c(C(N)=O)c5N)C4)nc3CCC(C)(C)C)ccc2CC1C(=O)NC1CCCc2ccccc21)C(C)(C)C

> <Shape>
0.247

> <Color>
0.037

> <Negative vol penalty>
0.000

$$$$

  -OEChem-04052319013D

 85 93  0     1  0  0  0  0  0999 V2000
  -26.1766   -8.3463   23.2077 C   0  0  0  0  0  0  0  0  0  0  0  0
  -26.6853   -9.3079   22.3406 C   0  0  0  0  0  0  0  0  0  0  0  0
  -24.7088  -30.6742   21.0528 C   0  0  0  0  0  0  0  0  0  0  0  0
  -25.0331  -29.3372   23.0388 C   0  0  0  0  0  0  0  0  0  0  0  0
  -24.8287   -7.9956   23.1446 C   0  0  0  0  0  0  0  0  0  0  0  0
  -25.8465   -9.9187   21.4090 C   0  0  0  0  0  0  0  0  0  0  0  0
  -26.5155  -14.9334   21.1866 C   0  0  0  0  0  0  0  0  0  0  0  0
  -23.9875  -31.6067   21.7983 C   0  0  0  0  0  0  0  0  0  0  0  0
  -24.3119  -30.2697   23.7844 C   0  0  0  0  0  0  0  0  0  0  0  0
  -27.6249  -15.3971   20.4809 C   0  0  0  0  0  0  0  0  0  0  0  0
  -24.6551  -34.1380   23.9384 C   0  0  0  0  0  0  0  0  0  0  0  0
  -24.9424  -35.4884   23.7400 C   0  0  0  0  0  0  0  0  0  0  0  0
  -26.2120  -15.8736   18.5846 C   0  0  0  0  0  0  0  0  0  0  0  0
  -22.6585  -35.8734   23.0527 C   0  0  0  0  0  0  0  0  0  0  0  0
  -27.6586  -19.5665   19.8432 C   0  0  0  0  0  0  0  0  0  0  0  0
  -25.2315  -29.5394   21.6730 C   0  0  0  0  0  0  0  0  0  0  0  0
  -27.3642  -28.5640   20.6691 C   0  0  0  0  0  0  0  0  0  0  0  0
  -23.9708   -8.6094   22.2183 C   0  0  0  0  0  0  0  0  0  0  0  0
  -25.2457  -14.9262   20.5917 C   0  0  0  0  0  0  0  0  0  0  0  0
  -24.4861   -9.5749   21.3326 C   0  0  0  0  0  0  0  0  0  0  0  0
  -25.0877  -15.4117   19.2858 C   0  0  0  0  0  0  0  0  0  0  0  0
  -27.3709  -20.5682   20.7439 C   0  0  0  0  0  0  0  0  0  0  0  0
  -28.3107  -21.6076   20.5351 C   0  0  0  0  0  0  0  0  0  0  0  0
  -23.7891  -31.4045   23.1641 C   0  0  0  0  0  0  0  0  0  0  0  0
  -27.4738  -15.8646   19.1787 C   0  0  0  0  0  0  0  0  0  0  0  0
  -23.3695  -33.6552   23.6938 C   0  0  0  0  0  0  0  0  0  0  0  0
  -23.9441  -36.3561   23.2972 C   0  0  0  0  0  0  0  0  0  0  0  0
  -22.3712  -34.5229   23.2510 C   0  0  0  0  0  0  0  0  0  0  0  0
  -25.9761  -28.5755   20.9033 C   0  0  0  0  0  0  0  0  0  0  0  0
  -29.1439  -21.2095   19.5130 C   0  0  0  0  0  0  0  0  0  0  0  0
  -27.5716  -27.4532   19.8884 C   0  0  0  0  0  0  0  0  0  0  0  0
  -28.3758  -29.4760   21.1173 C   0  0  0  0  0  0  0  0  0  0  0  0
  -23.1334  -12.6728   19.8406 C   0  0  0  0  0  0  0  0  0  0  0  0
  -21.2736  -15.2185   19.0770 C   0  0  0  0  0  0  0  0  0  0  0  0
  -21.0894  -18.4990   18.1544 C   0  0  0  0  0  0  0  0  0  0  0  0
  -24.5406  -22.3369   19.1899 C   0  0  0  0  0  0  0  0  0  0  0  0
  -22.5314   -8.1634   22.1557 C   0  0  0  0  0  0  0  0  0  0  0  0
  -24.0546  -14.4477   21.3759 C   0  0  0  0  0  0  0  0  0  0  0  0
  -23.7425  -15.4439   18.6091 C   0  0  0  0  0  0  0  0  0  0  0  0
  -21.6275   -9.1279   21.3921 C   0  0  0  0  0  0  0  0  0  0  0  0
  -25.3846  -24.6887   16.6534 C   0  0  0  0  0  0  0  0  0  0  0  0
  -22.2797   -9.5428   20.0771 C   0  0  0  0  0  0  0  0  0  0  0  0
  -25.7571  -25.9505   17.4339 C   0  0  0  0  0  0  0  0  0  0  0  0
  -24.2373  -23.9317   17.3188 C   0  0  0  0  0  0  0  0  0  0  0  0
  -24.8252  -24.8678   19.5215 C   0  0  0  0  0  0  0  0  0  0  0  0
  -23.6024  -10.2778   20.3250 C   0  0  1  0  0  0  0  0  0  0  0  0
  -22.8938  -14.0066   20.4896 C   0  0  1  0  0  0  0  0  0  0  0  0
  -26.0148  -25.6352   18.9196 C   0  0  2  0  0  0  0  0  0  0  0  0
  -28.3855  -22.8840   21.2755 C   0  0  0  0  0  0  0  0  0  0  0  0
  -30.2919  -21.9043   18.8927 C   0  0  0  0  0  0  0  0  0  0  0  0
  -20.0324  -20.7095   17.6122 C   0  0  0  0  0  0  0  0  0  0  0  0
  -20.8713  -13.9431   16.3344 C   0  0  0  0  0  0  0  0  0  0  0  0
  -20.0413  -16.1547   15.5049 C   0  0  0  0  0  0  0  0  0  0  0  0
  -18.8133  -14.9653   17.3216 C   0  0  0  0  0  0  0  0  0  0  0  0
  -30.9159  -17.3776   17.1498 C   0  0  0  0  0  0  0  0  0  0  0  0
  -31.5044  -18.5455   19.2746 C   0  0  0  0  0  0  0  0  0  0  0  0
  -21.1616  -19.3591   20.9853 C   0  0  0  0  0  0  0  0  0  0  0  0
  -26.2809  -20.5502   21.7398 C   0  0  0  0  0  0  0  0  0  0  0  0
  -29.3703  -19.1497   17.9975 C   0  0  0  0  0  0  0  0  0  0  0  0
  -24.8913  -20.8653   21.1572 C   0  0  0  0  0  0  0  0  0  0  0  0
  -29.6118  -16.9039   19.2458 C   0  0  0  0  0  0  0  0  0  1  0  0
  -21.0445  -16.0397   17.8312 C   0  0  1  0  0  0  0  0  0  0  0  0
  -20.2463  -19.6471   18.6792 C   0  0  2  0  0  0  0  0  0  0  0  0
  -20.2184  -15.2734   16.7598 C   0  0  0  0  0  0  0  0  0  0  0  0
  -30.3317  -18.0048   18.4361 C   0  0  0  0  0  0  0  0  0  0  0  0
  -25.3461  -27.5531   20.3185 N   0  0  0  0  0  0  0  0  0  0  0  0
  -28.7380  -19.9674   19.1000 N   0  0  0  0  0  0  0  0  0  0  0  0
  -26.3429  -26.8889   19.7091 N   0  0  0  0  0  0  0  0  0  0  0  0
  -22.6095  -14.9596   19.4148 N   0  0  0  0  0  0  0  0  0  0  0  0
  -24.5454  -23.6625   18.7254 N   0  0  0  0  0  0  0  0  0  0  0  0
  -28.6833  -26.9138   19.3446 N   0  0  0  0  0  0  0  0  0  0  0  0
  -27.9898  -30.5640   21.9119 N   0  0  0  0  0  0  0  0  0  0  0  0
  -23.3528  -11.6430   20.7354 N   0  0  0  0  0  0  0  0  0  0  0  0
  -20.4365  -17.2902   18.2727 N   0  0  0  0  0  0  0  0  0  0  0  0
  -24.8496  -22.1695   20.5342 N   0  0  0  0  0  0  0  0  0  0  0  0
  -20.9112  -20.2847   19.8506 N   0  3  0  0  0  0  0  0  0  0  0  0
  -29.5838  -29.3394   20.8082 O   0  0  0  0  0  0  0  0  0  0  0  0
  -23.1187  -12.5843   18.6184 O   0  0  0  0  0  0  0  0  0  0  0  0
  -20.3031  -14.8273   19.7304 O   0  0  0  0  0  0  0  0  0  0  0  0
  -22.2131  -18.6589   17.6829 O   0  0  0  0  0  0  0  0  0  0  0  0
  -24.2856  -21.3735   18.4593 O   0  0  0  0  0  0  0  0  0  0  0  0
  -23.0856  -32.3144   23.8920 O   0  0  0  0  0  0  0  0  0  0  0  0
  -28.5550  -16.3171   18.4873 O   0  0  0  0  0  0  0  0  0  1  0  0
  -24.2198  -37.6532   23.1083 F   0  0  0  0  0  0  0  0  0  0  0  0
  -21.1339  -34.0652   23.0155 F   0  0  0  0  0  0  0  0  0  0  0  0
  1  2  1  0  0  0  0
  1  5  2  0  0  0  0
  2  6  2  0  0  0  0
  3  8  2  0  0  0  0
  3 16  1  0  0  0  0
  4  9  1  0  0  0  0
  4 16  2  0  0  0  0
  5 18  1  0  0  0  0
  6 20  1  0  0  0  0
  7 10  2  0  0  0  0
  7 19  1  0  0  0  0
  8 24  1  0  0  0  0
  9 24  2  0  0  0  0
 10 25  1  0  0  0  0
 11 12  2  0  0  0  0
 11 26  1  0  0  0  0
 12 27  1  0  0  0  0
 13 21  1  0  0  0  0
 13 25  2  0  0  0  0
 14 27  2  0  0  0  0
 14 28  1  0  0  0  0
 15 22  2  0  0  0  0
 15 67  1  0  0  0  0
 16 29  1  0  0  0  0
 17 29  1  0  0  0  0
 17 31  2  0  0  0  0
 17 32  1  0  0  0  0
 18 20  2  0  0  0  0
 18 37  1  0  0  0  0
 19 21  2  0  0  0  0
 19 38  1  0  0  0  0
 20 46  1  0  0  0  0
 21 39  1  0  0  0  0
 22 23  1  0  0  0  0
 22 58  1  0  0  0  0
 23 30  2  0  0  0  0
 23 49  1  0  0  0  0
 24 82  1  0  0  0  0
 25 83  1  0  0  0  0
 26 28  2  0  0  0  0
 26 82  1  0  0  0  0
 27 84  1  0  0  0  0
 28 85  1  0  0  0  0
 29 66  2  0  0  0  0
 30 50  1  0  0  0  0
 30 67  1  0  0  0  0
 31 68  1  0  0  0  0
 31 71  1  0  0  0  0
 32 72  1  0  0  0  0
 32 77  2  0  0  0  0
 33 47  1  0  0  0  0
 33 73  1  0  0  0  0
 33 78  2  0  0  0  0
 34 62  1  0  0  0  0
 34 69  1  0  0  0  0
 34 79  2  0  0  0  0
 35 63  1  0  0  0  0
 35 74  1  0  0  0  0
 35 80  2  0  0  0  0
 36 70  1  0  0  0  0
 36 75  1  0  0  0  0
 36 81  2  0  0  0  0
 37 40  1  0  0  0  0
 38 47  1  0  0  0  0
 39 69  1  0  0  0  0
 40 42  1  0  0  0  0
 41 43  1  0  0  0  0
 41 44  1  0  0  0  0
 42 46  1  0  0  0  0
 43 48  1  0  0  0  0
 44 70  1  0  0  0  0
 45 48  1  0  0  0  0
 45 70  1  0  0  0  0
 46 73  1  0  0  0  0
 47 69  1  0  0  0  0
 48 68  1  0  0  0  0
 51 63  1  0  0  0  0
 52 64  1  0  0  0  0
 53 64  1  0  0  0  0
 54 64  1  0  0  0  0
 55 65  1  0  0  0  0
 56 65  1  0  0  0  0
 57 76  1  0  0  0  0
 58 60  1  0  0  0  0
 59 65  1  0  0  0  0
 59 67  1  0  0  0  0
 60 75  1  0  0  0  0
 61 65  1  0  0  0  0
 61 83  1  0  0  0  0
 62 64  1  0  0  0  0
 62 74  1  0  0  0  0
 63 76  1  0  0  0  0
 66 68  1  0  0  0  0
M  CHG  1  76   1
M  ISO  4  36 100  61 101  75 100  83 101
M  END
> <Batch ID>
0087

> <Smiles>
CNC(C)C(=O)NC(C(=O)N1Cc2cc([101O:1][101CH2:1]C(C)(C)Cn3cc(CC[100NH:0][100C:0](=O)N4CCCC(n5nc(-c6ccc(Oc7ccc(F)cc7F)cc6)c(C(N)=O)c5N)C4)c(C)c3C)ccc2CC1C(=O)NC1CCCc2ccccc21)C(C)(C)C

> <Shape>
0.234

> <Color>
0.060

> <Negative vol penalty>
0.000

$$$$

  -OEChem-04052319013D

 86 94  0     1  0  0  0  0  0999 V2000
  -16.6575  -28.4858   23.3719 C   0  0  0  0  0  0  0  0  0  0  0  0
  -17.3598  -28.1420   22.2213 C   0  0  0  0  0  0  0  0  0  0  0  0
  -26.8686  -14.7350   22.0201 C   0  0  0  0  0  0  0  0  0  0  0  0
  -28.0789  -14.2724   19.9809 C   0  0  0  0  0  0  0  0  0  0  0  0
  -17.1924  -29.4163   24.2618 C   0  0  0  0  0  0  0  0  0  0  0  0
  -18.5971  -28.7294   21.9593 C   0  0  0  0  0  0  0  0  0  0  0  0
  -22.0575  -25.3671   20.4217 C   0  0  0  0  0  0  0  0  0  0  0  0
  -25.6339  -22.0664   13.2796 C   0  0  0  0  0  0  0  0  0  0  0  0
  -26.1780  -13.5309   21.8835 C   0  0  0  0  0  0  0  0  0  0  0  0
  -27.3884  -13.0681   19.8443 C   0  0  0  0  0  0  0  0  0  0  0  0
  -21.9869  -24.9417   19.0958 C   0  0  0  0  0  0  0  0  0  0  0  0
  -23.5779  -12.3418   20.0808 C   0  0  0  0  0  0  0  0  0  0  0  0
  -22.1994  -12.3584   20.2931 C   0  0  0  0  0  0  0  0  0  0  0  0
  -27.0160  -21.9716   13.3992 C   0  0  0  0  0  0  0  0  0  0  0  0
  -23.7575  -26.4741   18.5162 C   0  0  0  0  0  0  0  0  0  0  0  0
  -22.4571  -10.7654   22.0911 C   0  0  0  0  0  0  0  0  0  0  0  0
  -27.8190  -15.1058   21.0688 C   0  0  0  0  0  0  0  0  0  0  0  0
  -29.7498  -16.5604   21.8837 C   0  0  0  0  0  0  0  0  0  0  0  0
  -18.4412  -30.0082   24.0155 C   0  0  0  0  0  0  0  0  0  0  0  0
  -22.9728  -26.3586   20.8033 C   0  0  0  0  0  0  0  0  0  0  0  0
  -19.1485  -29.6698   22.8461 C   0  0  0  0  0  0  0  0  0  0  0  0
  -23.8395  -26.9085   19.8480 C   0  0  0  0  0  0  0  0  0  0  0  0
  -24.8213  -21.1327   13.9129 C   0  0  0  0  0  0  0  0  0  0  0  0
  -26.4379  -12.6974   20.7956 C   0  0  0  0  0  0  0  0  0  0  0  0
  -22.8349  -25.4973   18.1423 C   0  0  0  0  0  0  0  0  0  0  0  0
  -24.3960  -11.5369   20.8736 C   0  0  0  0  0  0  0  0  0  0  0  0
  -21.6390  -11.5702   21.2982 C   0  0  0  0  0  0  0  0  0  0  0  0
  -23.8356  -10.7488   21.8788 C   0  0  0  0  0  0  0  0  0  0  0  0
  -28.5323  -16.3499   21.2091 C   0  0  0  0  0  0  0  0  0  0  0  0
  -27.5316  -20.9328   14.1573 C   0  0  0  0  0  0  0  0  0  0  0  0
  -25.4352  -20.1313   14.6478 C   0  0  0  0  0  0  0  0  0  0  0  0
  -30.0014  -17.9016   21.7277 C   0  0  0  0  0  0  0  0  0  0  0  0
  -30.5792  -15.6270   22.5884 C   0  0  0  0  0  0  0  0  0  0  0  0
  -22.7321  -29.2791   22.0348 C   0  0  0  0  0  0  0  0  0  0  0  0
  -25.9643  -29.0558   22.1938 C   0  0  0  0  0  0  0  0  0  0  0  0
  -28.8313  -27.6286   21.0146 C   0  0  0  0  0  0  0  0  0  0  0  0
  -28.3099  -21.9167   17.6206 C   0  0  0  0  0  0  0  0  0  0  0  0
  -18.9570  -31.0441   24.9828 C   0  0  0  0  0  0  0  0  0  0  0  0
  -23.0549  -26.7873   22.2427 C   0  0  0  0  0  0  0  0  0  0  0  0
  -24.8537  -27.9614   20.2103 C   0  0  0  0  0  0  0  0  0  0  0  0
  -20.4455  -31.3411   24.8208 C   0  0  0  0  0  0  0  0  0  0  0  0
  -27.7612  -22.0873   21.1344 C   0  0  0  0  0  0  0  0  0  0  0  0
  -20.7937  -31.5370   23.3486 C   0  0  0  0  0  0  0  0  0  0  0  0
  -28.0065  -20.6552   21.6128 C   0  0  0  0  0  0  0  0  0  0  0  0
  -27.0860  -22.1170   19.7650 C   0  0  0  0  0  0  0  0  0  0  0  0
  -28.0210  -19.9089   19.1959 C   0  0  0  0  0  0  0  0  0  0  0  0
  -20.5049  -30.2668   22.5396 C   0  0  1  0  0  0  0  0  0  0  0  0
  -23.6717  -28.1714   22.4196 C   0  0  1  0  0  0  0  0  0  0  0  0
  -28.7508  -19.8279   20.5476 C   0  0  2  0  0  0  0  0  0  0  0  0
  -24.8053  -19.1420   16.8790 C   0  0  0  0  0  0  0  0  0  0  0  0
  -24.8765  -17.6798   14.8267 C   0  0  0  0  0  0  0  0  0  0  0  0
  -31.2775  -27.0846   20.8815 C   0  0  0  0  0  0  0  0  0  0  0  0
  -26.0966  -31.6923   20.6637 C   0  0  0  0  0  0  0  0  0  0  0  0
  -28.5026  -31.2055   20.1712 C   0  0  0  0  0  0  0  0  0  0  0  0
  -27.7466  -31.4864   22.5318 C   0  0  0  0  0  0  0  0  0  0  0  0
  -28.5493  -25.3658   22.9012 C   0  0  0  0  0  0  0  0  0  0  0  0
  -23.3218  -21.2295   13.7859 C   0  0  0  0  0  0  0  0  0  0  0  0
  -29.0105  -20.8019   14.3082 C   0  0  0  0  0  0  0  0  0  0  0  0
  -22.6296  -21.7891   15.0337 C   0  0  0  0  0  0  0  0  0  0  0  0
  -23.0370  -23.2290   15.3493 C   0  0  0  0  0  0  0  0  0  0  0  0
  -29.5736  -21.5627   15.5142 C   0  0  0  0  0  0  0  0  0  0  0  0
  -22.3608  -23.7364   16.6158 C   0  0  0  0  0  0  0  0  0  1  0  0
  -24.6124  -19.1027   15.3520 C   0  0  0  0  0  0  0  0  0  0  0  0
  -27.1062  -29.3936   21.2659 C   0  0  1  0  0  0  0  0  0  0  0  0
  -30.0189  -27.0128   21.7322 C   0  0  2  0  0  0  0  0  0  0  0  0
  -27.3427  -30.9260   21.1506 C   0  0  0  0  0  0  0  0  0  0  0  0
  -28.0442  -17.4679   20.6651 N   0  0  0  0  0  0  0  0  0  0  0  0
  -26.7741  -20.0069   14.7869 N   0  0  0  0  0  0  0  0  0  0  0  0
  -28.9597  -18.3938   20.9979 N   0  0  0  0  0  0  0  0  0  0  0  0
  -24.8911  -28.3520   21.6293 N   0  0  0  0  0  0  0  0  0  0  0  0
  -27.8424  -21.3148   18.8005 N   0  0  0  0  0  0  0  0  0  0  0  0
  -31.0098  -18.6961   22.1452 N   0  0  0  0  0  0  0  0  0  0  0  0
  -30.1725  -14.2872   22.6518 N   0  0  0  0  0  0  0  0  0  0  0  0
  -21.5488  -29.2864   22.7484 N   0  0  0  0  0  0  0  0  0  0  0  0
  -28.2611  -28.6456   21.7507 N   0  0  0  0  0  0  0  0  0  0  0  0
  -29.0232  -21.0872   16.7640 N   0  0  0  0  0  0  0  0  0  0  0  0
  -29.7473  -25.5823   22.0497 N   0  3  0  0  0  0  0  0  0  0  0  0
  -31.6409  -15.9739   23.1592 O   0  0  0  0  0  0  0  0  0  0  0  0
  -23.0574  -30.0695   21.1567 O   0  0  0  0  0  0  0  0  0  0  0  0
  -26.0257  -29.3973   23.3775 O   0  0  0  0  0  0  0  0  0  0  0  0
  -28.4501  -27.2482   19.9099 O   0  0  0  0  0  0  0  0  0  0  0  0
  -28.1112  -23.1067   17.3531 O   0  0  0  0  0  0  0  0  0  0  0  0
  -25.7645  -11.5222   20.6621 O   0  0  0  0  0  0  0  0  0  0  0  0
  -22.7676  -25.0844   16.8474 O   0  0  0  0  0  0  0  0  0  1  0  0
  -20.3154  -11.5874   21.5030 F   0  0  0  0  0  0  0  0  0  0  0  0
  -24.6166   -9.9744   22.6444 F   0  0  0  0  0  0  0  0  0  0  0  0
  1  2  1  0  0  0  0
  1  5  2  0  0  0  0
  2  6  2  0  0  0  0
  3  9  2  0  0  0  0
  3 17  1  0  0  0  0
  4 10  1  0  0  0  0
  4 17  2  0  0  0  0
  5 19  1  0  0  0  0
  6 21  1  0  0  0  0
  7 11  2  0  0  0  0
  7 20  1  0  0  0  0
  8 14  2  0  0  0  0
  8 23  1  0  0  0  0
  9 24  1  0  0  0  0
 10 24  2  0  0  0  0
 11 25  1  0  0  0  0
 12 13  2  0  0  0  0
 12 26  1  0  0  0  0
 13 27  1  0  0  0  0
 14 30  1  0  0  0  0
 15 22  1  0  0  0  0
 15 25  2  0  0  0  0
 16 27  2  0  0  0  0
 16 28  1  0  0  0  0
 17 29  1  0  0  0  0
 18 29  1  0  0  0  0
 18 32  2  0  0  0  0
 18 33  1  0  0  0  0
 19 21  2  0  0  0  0
 19 38  1  0  0  0  0
 20 22  2  0  0  0  0
 20 39  1  0  0  0  0
 21 47  1  0  0  0  0
 22 40  1  0  0  0  0
 23 31  2  0  0  0  0
 23 57  1  0  0  0  0
 24 83  1  0  0  0  0
 25 84  1  0  0  0  0
 26 28  2  0  0  0  0
 26 83  1  0  0  0  0
 27 85  1  0  0  0  0
 28 86  1  0  0  0  0
 29 67  2  0  0  0  0
 30 58  1  0  0  0  0
 30 68  2  0  0  0  0
 31 63  1  0  0  0  0
 31 68  1  0  0  0  0
 32 69  1  0  0  0  0
 32 72  1  0  0  0  0
 33 73  1  0  0  0  0
 33 78  2  0  0  0  0
 34 48  1  0  0  0  0
 34 74  1  0  0  0  0
 34 79  2  0  0  0  0
 35 64  1  0  0  0  0
 35 70  1  0  0  0  0
 35 80  2  0  0  0  0
 36 65  1  0  0  0  0
 36 75  1  0  0  0  0
 36 81  2  0  0  0  0
 37 71  1  0  0  0  0
 37 76  1  0  0  0  0
 37 82  2  0  0  0  0
 38 41  1  0  0  0  0
 39 48  1  0  0  0  0
 40 70  1  0  0  0  0
 41 43  1  0  0  0  0
 42 44  1  0  0  0  0
 42 45  1  0  0  0  0
 43 47  1  0  0  0  0
 44 49  1  0  0  0  0
 45 71  1  0  0  0  0
 46 49  1  0  0  0  0
 46 71  1  0  0  0  0
 47 74  1  0  0  0  0
 48 70  1  0  0  0  0
 49 69  1  0  0  0  0
 50 63  1  0  0  0  0
 51 63  1  0  0  0  0
 52 65  1  0  0  0  0
 53 66  1  0  0  0  0
 54 66  1  0  0  0  0
 55 66  1  0  0  0  0
 56 77  1  0  0  0  0
 57 59  1  0  0  0  0
 58 61  1  0  0  0  0
 59 60  1  0  0  0  0
 60 62  1  0  0  0  0
 61 76  1  0  0  0  0
 62 84  1  0  0  0  0
 64 66  1  0  0  0  0
 64 75  1  0  0  0  0
 65 77  1  0  0  0  0
 67 69  1  0  0  0  0
M  CHG  1  77   1
M  ISO  4  37 100  62 101  76 100  84 101
M  END
> <Batch ID>
0087

> <Smiles>
CNC(C)C(=O)NC(C(=O)N1Cc2cc([101O:1][101CH2:1]CCCc3ccc(CC[100NH:0][100C:0](=O)N4CCCC(n5nc(-c6ccc(Oc7ccc(F)cc7F)cc6)c(C(N)=O)c5N)C4)nc3C(C)C)ccc2CC1C(=O)NC1CCCc2ccccc21)C(C)(C)C

> <Shape>
0.260

> <Color>
0.065

> <Negative vol penalty>
0.000

$$$$

  -OEChem-04052319013D

 87 95  0     1  0  0  0  0  0999 V2000
  -30.9077  -30.3803   23.6594 C   0  0  0  0  0  0  0  0  0  0  0  0
  -31.2815  -29.2020   23.0212 C   0  0  0  0  0  0  0  0  0  0  0  0
  -23.0609   -9.9065   19.9395 C   0  0  0  0  0  0  0  0  0  0  0  0
  -23.8340   -9.8912   22.2283 C   0  0  0  0  0  0  0  0  0  0  0  0
  -29.5580  -30.7085   23.7799 C   0  0  0  0  0  0  0  0  0  0  0  0
  -30.3057  -28.3506   22.5042 C   0  0  0  0  0  0  0  0  0  0  0  0
  -30.7151  -24.9249   17.4442 C   0  0  0  0  0  0  0  0  0  0  0  0
  -22.3090   -8.7577   20.1857 C   0  0  0  0  0  0  0  0  0  0  0  0
  -23.0821   -8.7424   22.4746 C   0  0  0  0  0  0  0  0  0  0  0  0
  -31.0143  -23.5778   17.2452 C   0  0  0  0  0  0  0  0  0  0  0  0
  -19.8511   -7.9668   23.0904 C   0  0  0  0  0  0  0  0  0  0  0  0
  -19.1006   -7.9248   24.2654 C   0  0  0  0  0  0  0  0  0  0  0  0
  -28.6568  -23.0704   17.1787 C   0  0  0  0  0  0  0  0  0  0  0  0
  -27.1384  -18.7300   19.6265 C   0  0  0  0  0  0  0  0  0  0  0  0
  -20.3303   -5.9722   24.9811 C   0  0  0  0  0  0  0  0  0  0  0  0
  -23.8234  -10.4732   20.9608 C   0  0  0  0  0  0  0  0  0  0  0  0
  -24.1853  -12.9963   20.8564 C   0  0  0  0  0  0  0  0  0  0  0  0
  -28.5656  -29.8655   23.2555 C   0  0  0  0  0  0  0  0  0  0  0  0
  -29.3824  -25.3539   17.5231 C   0  0  0  0  0  0  0  0  0  0  0  0
  -28.9414  -28.6672   22.6189 C   0  0  0  0  0  0  0  0  0  0  0  0
  -28.3435  -24.4238   17.3763 C   0  0  0  0  0  0  0  0  0  0  0  0
  -26.4965  -19.0684   20.8126 C   0  0  0  0  0  0  0  0  0  0  0  0
  -28.4840  -18.3800   19.6461 C   0  0  0  0  0  0  0  0  0  0  0  0
  -22.3196   -8.1757   21.4533 C   0  0  0  0  0  0  0  0  0  0  0  0
  -29.9851  -22.6498   17.1153 C   0  0  0  0  0  0  0  0  0  0  0  0
  -20.8411   -7.0114   22.8607 C   0  0  0  0  0  0  0  0  0  0  0  0
  -19.3402   -6.9275   25.2107 C   0  0  0  0  0  0  0  0  0  0  0  0
  -21.0808   -6.0141   23.8060 C   0  0  0  0  0  0  0  0  0  0  0  0
  -24.6008  -11.6595   20.7069 C   0  0  0  0  0  0  0  0  0  0  0  0
  -27.2388  -19.0415   21.9823 C   0  0  0  0  0  0  0  0  0  0  0  0
  -29.1373  -18.3842   20.8680 C   0  0  0  0  0  0  0  0  0  0  0  0
  -25.2814  -13.7393   20.4920 C   0  0  0  0  0  0  0  0  0  0  0  0
  -22.9215  -13.5195   21.2863 C   0  0  0  0  0  0  0  0  0  0  0  0
  -27.6040  -26.7506   19.7569 C   0  0  0  0  0  0  0  0  0  0  0  0
  -25.4022  -26.8687   17.3777 C   0  0  0  0  0  0  0  0  0  0  0  0
  -24.2457  -25.5861   14.4342 C   0  0  0  0  0  0  0  0  0  0  0  0
  -30.7744  -14.7122   20.6554 C   0  0  0  0  0  0  0  0  0  0  0  0
  -27.1176  -30.2391   23.4517 C   0  0  0  0  0  0  0  0  0  0  0  0
  -29.0763  -26.8145   17.7114 C   0  0  0  0  0  0  0  0  0  0  0  0
  -26.8960  -24.8362   17.4331 C   0  0  0  0  0  0  0  0  0  0  0  0
  -26.1613  -29.4673   22.5462 C   0  0  0  0  0  0  0  0  0  0  0  0
  -29.6034  -12.3539   18.2587 C   0  0  0  0  0  0  0  0  0  0  0  0
  -26.4982  -27.9796   22.5585 C   0  0  0  0  0  0  0  0  0  0  0  0
  -28.1662  -12.0689   18.6980 C   0  0  0  0  0  0  0  0  0  0  0  0
  -30.5293  -12.5587   19.4557 C   0  0  0  0  0  0  0  0  0  0  0  0
  -28.6417  -13.2956   20.8585 C   0  0  0  0  0  0  0  0  0  0  0  0
  -27.9134  -27.7300   22.0232 C   0  0  1  0  0  0  0  0  0  0  0  0
  -27.6869  -27.0640   18.2898 C   0  0  1  0  0  0  0  0  0  0  0  0
  -27.6593  -13.1372   19.6854 C   0  0  2  0  0  0  0  0  0  0  0  0
  -27.6321  -19.6166   24.3908 C   0  0  0  0  0  0  0  0  0  0  0  0
  -23.3600  -21.2443   20.2359 C   0  0  0  0  0  0  0  0  0  0  0  0
  -22.4053  -25.8660   12.7514 C   0  0  0  0  0  0  0  0  0  0  0  0
  -23.4561  -25.4890   19.2802 C   0  0  0  0  0  0  0  0  0  0  0  0
  -22.0164  -24.9490   17.3044 C   0  0  0  0  0  0  0  0  0  0  0  0
  -22.4528  -27.3281   17.9144 C   0  0  0  0  0  0  0  0  0  0  0  0
  -26.1632  -26.2151   12.2694 C   0  0  0  0  0  0  0  0  0  0  0  0
  -25.0551  -19.4441   20.7983 C   0  0  0  0  0  0  0  0  0  0  0  0
  -29.1861  -18.0123   18.3634 C   0  0  0  0  0  0  0  0  0  0  0  0
  -26.6028  -19.3964   23.2863 C   0  0  0  0  0  0  0  0  0  0  0  0
  -30.5826  -18.0154   20.9486 C   0  0  0  0  0  0  0  0  0  0  0  0
  -24.8342  -20.8749   20.2824 C   0  0  0  0  0  0  0  0  0  0  0  0
  -30.0951  -19.1169   17.8203 C   0  0  0  0  0  0  0  0  0  0  0  0
  -30.8650  -16.8534   21.9069 C   0  0  0  0  0  0  0  0  0  0  0  0
  -29.3404  -20.3824   17.4297 C   0  0  0  0  0  0  0  0  0  1  0  0
  -24.3081  -25.9516   16.8872 C   0  0  1  0  0  0  0  0  0  0  0  0
  -23.8225  -26.2574   13.1401 C   0  0  2  0  0  0  0  0  0  0  0  0
  -23.0855  -25.9211   17.8473 C   0  0  0  0  0  0  0  0  0  0  0  0
  -25.8624  -11.5563   20.2805 N   0  0  0  0  0  0  0  0  0  0  0  0
  -28.5473  -18.7069   22.0407 N   0  0  0  0  0  0  0  0  0  0  0  0
  -26.2490  -12.8376   20.1590 N   0  0  0  0  0  0  0  0  0  0  0  0
  -26.6479  -26.2747   17.6252 N   0  0  0  0  0  0  0  0  0  0  0  0
  -29.9923  -13.5855   20.3521 N   0  0  0  0  0  0  0  0  0  0  0  0
  -25.5024  -15.0695   20.4270 N   0  0  0  0  0  0  0  0  0  0  0  0
  -21.9042  -12.6163   21.6231 N   0  0  0  0  0  0  0  0  0  0  0  0
  -27.9291  -27.8131   20.5784 N   0  0  0  0  0  0  0  0  0  0  0  0
  -23.9914  -26.3834   15.5301 N   0  0  0  0  0  0  0  0  0  0  0  0
  -30.1877  -15.6399   21.5074 N   0  0  0  0  0  0  0  0  0  0  0  0
  -24.7386  -25.8680   12.0310 N   0  3  0  0  0  0  0  0  0  0  0  0
  -22.6957  -14.7515   21.3536 O   0  0  0  0  0  0  0  0  0  0  0  0
  -27.2684  -25.6284   20.1170 O   0  0  0  0  0  0  0  0  0  0  0  0
  -25.1625  -28.0693   17.5288 O   0  0  0  0  0  0  0  0  0  0  0  0
  -24.7480  -24.4649   14.4698 O   0  0  0  0  0  0  0  0  0  0  0  0
  -31.9091  -14.8815   20.1964 O   0  0  0  0  0  0  0  0  0  0  0  0
  -21.5859   -7.0549   21.6940 O   0  0  0  0  0  0  0  0  0  0  0  0
  -30.2743  -21.3343   16.9216 O   0  0  0  0  0  0  0  0  0  1  0  0
  -18.6205   -6.8883   26.3398 F   0  0  0  0  0  0  0  0  0  0  0  0
  -22.0313   -5.0943   23.5914 F   0  0  0  0  0  0  0  0  0  0  0  0
  1  2  1  0  0  0  0
  1  5  2  0  0  0  0
  2  6  2  0  0  0  0
  3  8  2  0  0  0  0
  3 16  1  0  0  0  0
  4  9  1  0  0  0  0
  4 16  2  0  0  0  0
  5 18  1  0  0  0  0
  6 20  1  0  0  0  0
  7 10  2  0  0  0  0
  7 19  1  0  0  0  0
  8 24  1  0  0  0  0
  9 24  2  0  0  0  0
 10 25  1  0  0  0  0
 11 12  2  0  0  0  0
 11 26  1  0  0  0  0
 12 27  1  0  0  0  0
 13 21  1  0  0  0  0
 13 25  2  0  0  0  0
 14 22  1  0  0  0  0
 14 23  2  0  0  0  0
 15 27  2  0  0  0  0
 15 28  1  0  0  0  0
 16 29  1  0  0  0  0
 17 29  1  0  0  0  0
 17 32  2  0  0  0  0
 17 33  1  0  0  0  0
 18 20  2  0  0  0  0
 18 38  1  0  0  0  0
 19 21  2  0  0  0  0
 19 39  1  0  0  0  0
 20 47  1  0  0  0  0
 21 40  1  0  0  0  0
 22 30  2  0  0  0  0
 22 57  1  0  0  0  0
 23 31  1  0  0  0  0
 23 58  1  0  0  0  0
 24 84  1  0  0  0  0
 25 85  1  0  0  0  0
 26 28  2  0  0  0  0
 26 84  1  0  0  0  0
 27 86  1  0  0  0  0
 28 87  1  0  0  0  0
 29 68  2  0  0  0  0
 30 59  1  0  0  0  0
 30 69  1  0  0  0  0
 31 60  1  0  0  0  0
 31 69  2  0  0  0  0
 32 70  1  0  0  0  0
 32 73  1  0  0  0  0
 33 74  1  0  0  0  0
 33 79  2  0  0  0  0
 34 48  1  0  0  0  0
 34 75  1  0  0  0  0
 34 80  2  0  0  0  0
 35 65  1  0  0  0  0
 35 71  1  0  0  0  0
 35 81  2  0  0  0  0
 36 66  1  0  0  0  0
 36 76  1  0  0  0  0
 36 82  2  0  0  0  0
 37 72  1  0  0  0  0
 37 77  1  0  0  0  0
 37 83  2  0  0  0  0
 38 41  1  0  0  0  0
 39 48  1  0  0  0  0
 40 71  1  0  0  0  0
 41 43  1  0  0  0  0
 42 44  1  0  0  0  0
 42 45  1  0  0  0  0
 43 47  1  0  0  0  0
 44 49  1  0  0  0  0
 45 72  1  0  0  0  0
 46 49  1  0  0  0  0
 46 72  1  0  0  0  0
 47 75  1  0  0  0  0
 48 71  1  0  0  0  0
 49 70  1  0  0  0  0
 50 59  1  0  0  0  0
 51 61  1  0  0  0  0
 52 66  1  0  0  0  0
 53 67  1  0  0  0  0
 54 67  1  0  0  0  0
 55 67  1  0  0  0  0
 56 78  1  0  0  0  0
 57 61  1  0  0  0  0
 58 62  1  0  0  0  0
 60 63  1  0  0  0  0
 62 64  1  0  0  0  0
 63 77  1  0  0  0  0
 64 85  1  0  0  0  0
 65 67  1  0  0  0  0
 65 76  1  0  0  0  0
 66 78  1  0  0  0  0
 68 70  1  0  0  0  0
M  CHG  1  78   1
M  ISO  4  37 100  64 101  77 100  85 101
M  END
> <Batch ID>
0087

> <Smiles>
CCCc1cc(CC[101CH2:1][101O:1]c2ccc3c(c2)CN(C(=O)C(NC(=O)C(C)NC)C(C)(C)C)C(C(=O)NC2CCCc4ccccc42)C3)c(CC[100NH:0][100C:0](=O)N2CCCC(n3nc(-c4ccc(Oc5ccc(F)cc5F)cc4)c(C(N)=O)c3N)C2)nc1CC

> <Shape>
0.278

> <Color>
0.189

> <Negative vol penalty>
0.000

$$$$

  -OEChem-04052319013D

 86 94  0     1  0  0  0  0  0999 V2000
  -16.6794  -29.7661   24.3155 C   0  0  0  0  0  0  0  0  0  0  0  0
  -17.2783  -28.5244   24.1288 C   0  0  0  0  0  0  0  0  0  0  0  0
  -25.6091  -11.5024   21.5439 C   0  0  0  0  0  0  0  0  0  0  0  0
  -25.4728  -12.7848   23.5869 C   0  0  0  0  0  0  0  0  0  0  0  0
  -17.1681  -30.8833   23.6395 C   0  0  0  0  0  0  0  0  0  0  0  0
  -18.3658  -28.3989   23.2650 C   0  0  0  0  0  0  0  0  0  0  0  0
  -22.0924  -25.5881   25.2289 C   0  0  0  0  0  0  0  0  0  0  0  0
  -25.7241  -10.3285   22.2884 C   0  0  0  0  0  0  0  0  0  0  0  0
  -25.5877  -11.6109   24.3315 C   0  0  0  0  0  0  0  0  0  0  0  0
  -21.9250  -24.2042   25.2076 C   0  0  0  0  0  0  0  0  0  0  0  0
  -23.6731   -8.2461   23.9885 C   0  0  0  0  0  0  0  0  0  0  0  0
  -22.9053   -7.1505   23.5940 C   0  0  0  0  0  0  0  0  0  0  0  0
  -23.3473  -24.0681   23.2639 C   0  0  0  0  0  0  0  0  0  0  0  0
  -26.2564  -19.8384   25.6187 C   0  0  0  0  0  0  0  0  0  0  0  0
  -26.9436  -19.7122   23.3174 C   0  0  0  0  0  0  0  0  0  0  0  0
  -24.9198   -5.8606   23.2554 C   0  0  0  0  0  0  0  0  0  0  0  0
  -25.4835  -12.7306   22.1932 C   0  0  0  0  0  0  0  0  0  0  0  0
  -24.1790  -14.5476   20.9666 C   0  0  0  0  0  0  0  0  0  0  0  0
  -18.2682  -30.7732   22.7744 C   0  0  0  0  0  0  0  0  0  0  0  0
  -22.8810  -26.2247   24.2598 C   0  0  0  0  0  0  0  0  0  0  0  0
  -18.8689  -29.5154   22.5758 C   0  0  0  0  0  0  0  0  0  0  0  0
  -23.5252  -25.4600   23.2767 C   0  0  0  0  0  0  0  0  0  0  0  0
  -25.9717  -19.5260   24.2941 C   0  0  0  0  0  0  0  0  0  0  0  0
  -25.7134  -10.3827   23.6822 C   0  0  0  0  0  0  0  0  0  0  0  0
  -22.5501  -23.4443   24.2233 C   0  0  0  0  0  0  0  0  0  0  0  0
  -25.0644   -8.1490   24.0163 C   0  0  0  0  0  0  0  0  0  0  0  0
  -23.5286   -5.9577   23.2274 C   0  0  0  0  0  0  0  0  0  0  0  0
  -25.6877   -6.9562   23.6498 C   0  0  0  0  0  0  0  0  0  0  0  0
  -25.3653  -13.9437   21.4246 C   0  0  0  0  0  0  0  0  0  0  0  0
  -27.5181  -20.3300   25.9123 C   0  0  0  0  0  0  0  0  0  0  0  0
  -28.1745  -20.2096   23.7140 C   0  0  0  0  0  0  0  0  0  0  0  0
  -24.6018  -15.6674   20.2929 C   0  0  0  0  0  0  0  0  0  0  0  0
  -22.8168  -14.1335   21.1351 C   0  0  0  0  0  0  0  0  0  0  0  0
  -22.3404  -28.3901   21.9965 C   0  0  0  0  0  0  0  0  0  0  0  0
  -25.5620  -28.2545   21.6425 C   0  0  0  0  0  0  0  0  0  0  0  0
  -28.4481  -26.4774   22.0408 C   0  0  0  0  0  0  0  0  0  0  0  0
  -29.3734  -19.1033   20.6141 C   0  0  0  0  0  0  0  0  0  0  0  0
  -18.7314  -32.0000   22.0293 C   0  0  0  0  0  0  0  0  0  0  0  0
  -23.0732  -27.7156   24.3125 C   0  0  0  0  0  0  0  0  0  0  0  0
  -24.3988  -26.0930   22.2257 C   0  0  0  0  0  0  0  0  0  0  0  0
  -20.1231  -31.8532   21.4196 C   0  0  0  0  0  0  0  0  0  0  0  0
  -28.3012  -17.3778   17.8035 C   0  0  0  0  0  0  0  0  0  0  0  0
  -20.2504  -30.5166   20.6956 C   0  0  0  0  0  0  0  0  0  0  0  0
  -27.3117  -16.3532   18.3567 C   0  0  0  0  0  0  0  0  0  0  0  0
  -29.5111  -17.5159   18.7200 C   0  0  0  0  0  0  0  0  0  0  0  0
  -28.1704  -16.8691   20.6961 C   0  0  0  0  0  0  0  0  0  0  0  0
  -20.0661  -29.3437   21.6661 C   0  0  1  0  0  0  0  0  0  0  0  0
  -23.4825  -28.3131   22.9698 C   0  0  1  0  0  0  0  0  0  0  0  0
  -26.9229  -16.6896   19.8069 C   0  0  2  0  0  0  0  0  0  0  0  0
  -27.8596  -20.6745   27.3235 C   0  0  0  0  0  0  0  0  0  0  0  0
  -31.8641  -18.6969   22.8169 C   0  0  0  0  0  0  0  0  0  0  0  0
  -30.9188  -26.6133   21.6227 C   0  0  0  0  0  0  0  0  0  0  0  0
  -24.4277  -18.6778   22.4002 C   0  0  0  0  0  0  0  0  0  0  0  0
  -24.3767  -17.6274   24.6450 C   0  0  0  0  0  0  0  0  0  0  0  0
  -25.0878  -27.7088   18.6782 C   0  0  0  0  0  0  0  0  0  0  0  0
  -27.4602  -26.9258   18.5143 C   0  0  0  0  0  0  0  0  0  0  0  0
  -26.9690  -29.2844   19.1610 C   0  0  0  0  0  0  0  0  0  0  0  0
  -29.0666  -26.2447   24.9257 C   0  0  0  0  0  0  0  0  0  0  0  0
  -29.2404  -20.4236   22.6918 C   0  0  0  0  0  0  0  0  0  0  0  0
  -23.4508  -19.9480   24.3506 C   0  0  0  0  0  0  0  0  0  0  0  0
  -30.4156  -18.2554   22.7588 C   0  0  0  0  0  0  0  0  0  0  0  0
  -23.4657  -21.3188   23.6756 C   0  0  0  0  0  0  0  0  0  1  0  0
  -26.5124  -27.4256   20.8127 C   0  0  1  0  0  0  0  0  0  0  0  0
  -29.7975  -26.8641   22.6189 C   0  0  2  0  0  0  0  0  0  0  0  0
  -24.5862  -18.9753   23.9106 C   0  0  0  0  0  0  0  0  0  0  0  0
  -26.4894  -27.8241   19.3100 C   0  0  0  0  0  0  0  0  0  0  0  0
  -26.4596  -14.6233   21.0716 N   0  0  0  0  0  0  0  0  0  0  0  0
  -28.4880  -20.5244   24.9908 N   0  0  0  0  0  0  0  0  0  0  0  0
  -25.9626  -15.6660   20.3845 N   0  0  0  0  0  0  0  0  0  0  0  0
  -24.5506  -27.5546   22.3156 N   0  0  0  0  0  0  0  0  0  0  0  0
  -29.1046  -17.8302   20.0900 N   0  0  0  0  0  0  0  0  0  0  0  0
  -23.9386  -16.6432   19.6370 N   0  0  0  0  0  0  0  0  0  0  0  0
  -22.5597  -12.9585   21.8546 N   0  0  0  0  0  0  0  0  0  0  0  0
  -21.2686  -29.1383   22.4448 N   0  0  0  0  0  0  0  0  0  0  0  0
  -27.8215  -27.5510   21.4442 N   0  0  0  0  0  0  0  0  0  0  0  0
  -29.5946  -19.1943   21.9966 N   0  0  0  0  0  0  0  0  0  0  0  0
  -30.0785  -26.0746   23.8513 N   0  3  0  0  0  0  0  0  0  0  0  0
  -21.8568  -14.7773   20.6477 O   0  0  0  0  0  0  0  0  0  0  0  0
  -22.4259  -27.8146   20.9180 O   0  0  0  0  0  0  0  0  0  0  0  0
  -25.7157  -29.4772   21.6973 O   0  0  0  0  0  0  0  0  0  0  0  0
  -27.9969  -25.3362   22.1082 O   0  0  0  0  0  0  0  0  0  0  0  0
  -29.4212  -20.1037   19.8867 O   0  0  0  0  0  0  0  0  0  0  0  0
  -25.8253   -9.2374   24.4090 O   0  0  0  0  0  0  0  0  0  0  0  0
  -22.3879  -22.0933   24.1998 O   0  0  0  0  0  0  0  0  0  1  0  0
  -22.7910   -4.9052   22.8501 F   0  0  0  0  0  0  0  0  0  0  0  0
  -27.0238   -6.8565   23.6757 F   0  0  0  0  0  0  0  0  0  0  0  0
  1  2  1  0  0  0  0
  1  5  2  0  0  0  0
  2  6  2  0  0  0  0
  3  8  2  0  0  0  0
  3 17  1  0  0  0  0
  4  9  1  0  0  0  0
  4 17  2  0  0  0  0
  5 19  1  0  0  0  0
  6 21  1  0  0  0  0
  7 10  2  0  0  0  0
  7 20  1  0  0  0  0
  8 24  1  0  0  0  0
  9 24  2  0  0  0  0
 10 25  1  0  0  0  0
 11 12  2  0  0  0  0
 11 26  1  0  0  0  0
 12 27  1  0  0  0  0
 13 22  1  0  0  0  0
 13 25  2  0  0  0  0
 14 23  1  0  0  0  0
 14 30  2  0  0  0  0
 15 23  2  0  0  0  0
 15 31  1  0  0  0  0
 16 27  2  0  0  0  0
 16 28  1  0  0  0  0
 17 29  1  0  0  0  0
 18 29  1  0  0  0  0
 18 32  2  0  0  0  0
 18 33  1  0  0  0  0
 19 21  2  0  0  0  0
 19 38  1  0  0  0  0
 20 22  2  0  0  0  0
 20 39  1  0  0  0  0
 21 47  1  0  0  0  0
 22 40  1  0  0  0  0
 23 65  1  0  0  0  0
 24 83  1  0  0  0  0
 25 84  1  0  0  0  0
 26 28  2  0  0  0  0
 26 83  1  0  0  0  0
 27 85  1  0  0  0  0
 28 86  1  0  0  0  0
 29 67  2  0  0  0  0
 30 50  1  0  0  0  0
 30 68  1  0  0  0  0
 31 59  1  0  0  0  0
 31 68  2  0  0  0  0
 32 69  1  0  0  0  0
 32 72  1  0  0  0  0
 33 73  1  0  0  0  0
 33 78  2  0  0  0  0
 34 48  1  0  0  0  0
 34 74  1  0  0  0  0
 34 79  2  0  0  0  0
 35 63  1  0  0  0  0
 35 70  1  0  0  0  0
 35 80  2  0  0  0  0
 36 64  1  0  0  0  0
 36 75  1  0  0  0  0
 36 81  2  0  0  0  0
 37 71  1  0  0  0  0
 37 76  1  0  0  0  0
 37 82  2  0  0  0  0
 38 41  1  0  0  0  0
 39 48  1  0  0  0  0
 40 70  1  0  0  0  0
 41 43  1  0  0  0  0
 42 44  1  0  0  0  0
 42 45  1  0  0  0  0
 43 47  1  0  0  0  0
 44 49  1  0  0  0  0
 45 71  1  0  0  0  0
 46 49  1  0  0  0  0
 46 71  1  0  0  0  0
 47 74  1  0  0  0  0
 48 70  1  0  0  0  0
 49 69  1  0  0  0  0
 51 61  1  0  0  0  0
 52 64  1  0  0  0  0
 53 65  1  0  0  0  0
 54 65  1  0  0  0  0
 55 66  1  0  0  0  0
 56 66  1  0  0  0  0
 57 66  1  0  0  0  0
 58 77  1  0  0  0  0
 59 76  1  0  0  0  0
 60 62  1  0  0  0  0
 60 65  1  0  0  0  0
 61 76  1  0  0  0  0
 62 84  1  0  0  0  0
 63 66  1  0  0  0  0
 63 75  1  0  0  0  0
 64 77  1  0  0  0  0
 67 69  1  0  0  0  0
M  CHG  1  77   1
M  ISO  4  37 100  62 101  76 100  84 101
M  END
> <Batch ID>
0087

> <Smiles>
CC[100N:0](Cc1cc(C(C)(C)C[101CH2:1][101O:1]c2ccc3c(c2)CN(C(=O)C(NC(=O)C(C)NC)C(C)(C)C)C(C(=O)NC2CCCc4ccccc42)C3)cc(C)n1)[100C:0](=O)N1CCCC(n2nc(-c3ccc(Oc4ccc(F)cc4F)cc3)c(C(N)=O)c2N)C1

> <Shape>
0.187

> <Color>
0.087

> <Negative vol penalty>
0.000

$$$$

  -OEChem-04052319013D

 85 93  0     1  0  0  0  0  0999 V2000
  -41.3807  -21.1049   32.2239 C   0  0  0  0  0  0  0  0  0  0  0  0
  -40.3280  -21.0391   31.3168 C   0  0  0  0  0  0  0  0  0  0  0  0
  -23.0005   -9.8938   19.9810 C   0  0  0  0  0  0  0  0  0  0  0  0
  -23.7307   -9.9434   22.2834 C   0  0  0  0  0  0  0  0  0  0  0  0
  -42.6320  -21.5563   31.8064 C   0  0  0  0  0  0  0  0  0  0  0  0
  -40.5257  -21.4257   29.9917 C   0  0  0  0  0  0  0  0  0  0  0  0
  -38.4844  -18.1704   26.6930 C   0  0  0  0  0  0  0  0  0  0  0  0
  -22.2358   -8.7582   20.2479 C   0  0  0  0  0  0  0  0  0  0  0  0
  -22.9660   -8.8078   22.5504 C   0  0  0  0  0  0  0  0  0  0  0  0
  -37.1054  -18.2402   26.5000 C   0  0  0  0  0  0  0  0  0  0  0  0
  -23.2130   -5.4696   22.0749 C   0  0  0  0  0  0  0  0  0  0  0  0
  -23.8033   -4.4524   22.8247 C   0  0  0  0  0  0  0  0  0  0  0  0
  -37.4589  -19.4994   24.4730 C   0  0  0  0  0  0  0  0  0  0  0  0
  -22.0829   -4.6918   24.5040 C   0  0  0  0  0  0  0  0  0  0  0  0
  -32.6198  -18.5132   23.6796 C   0  0  0  0  0  0  0  0  0  0  0  0
  -23.7480  -10.4864   20.9987 C   0  0  0  0  0  0  0  0  0  0  0  0
  -24.1302  -13.0025   20.8242 C   0  0  0  0  0  0  0  0  0  0  0  0
  -42.8477  -21.9394   30.4732 C   0  0  0  0  0  0  0  0  0  0  0  0
  -39.3622  -18.7750   25.7817 C   0  0  0  0  0  0  0  0  0  0  0  0
  -41.7808  -21.8839   29.5562 C   0  0  0  0  0  0  0  0  0  0  0  0
  -38.8487  -19.4336   24.6554 C   0  0  0  0  0  0  0  0  0  0  0  0
  -22.2185   -8.2152   21.5327 C   0  0  0  0  0  0  0  0  0  0  0  0
  -36.5924  -18.9073   25.3915 C   0  0  0  0  0  0  0  0  0  0  0  0
  -22.0576   -6.0980   22.5396 C   0  0  0  0  0  0  0  0  0  0  0  0
  -23.2383   -4.0634   24.0393 C   0  0  0  0  0  0  0  0  0  0  0  0
  -21.4926   -5.7091   23.7541 C   0  0  0  0  0  0  0  0  0  0  0  0
  -24.5386  -11.6591   20.7234 C   0  0  0  0  0  0  0  0  0  0  0  0
  -33.2898  -19.6684   24.0273 C   0  0  0  0  0  0  0  0  0  0  0  0
  -31.2424  -18.5957   23.6903 C   0  0  0  0  0  0  0  0  0  0  0  0
  -25.2383  -13.7267   20.4580 C   0  0  0  0  0  0  0  0  0  0  0  0
  -31.3276  -20.7741   24.3341 C   0  0  0  0  0  0  0  0  0  0  0  0
  -22.8625  -13.5472   21.2140 C   0  0  0  0  0  0  0  0  0  0  0  0
  -41.5279  -21.0951   25.9553 C   0  0  0  0  0  0  0  0  0  0  0  0
  -42.1596  -20.2020   22.9015 C   0  0  0  0  0  0  0  0  0  0  0  0
  -41.0598  -18.7237   20.0288 C   0  0  0  0  0  0  0  0  0  0  0  0
  -30.7342  -14.6672   20.6952 C   0  0  0  0  0  0  0  0  0  0  0  0
  -44.2054  -22.4655   30.0797 C   0  0  0  0  0  0  0  0  0  0  0  0
  -40.8479  -18.6677   25.9900 C   0  0  0  0  0  0  0  0  0  0  0  0
  -39.7491  -20.0818   23.6367 C   0  0  0  0  0  0  0  0  0  0  0  0
  -44.4305  -22.5016   28.5703 C   0  0  0  0  0  0  0  0  0  0  0  0
  -29.5910  -12.2444   18.3500 C   0  0  0  0  0  0  0  0  0  0  0  0
  -43.2230  -23.1107   27.8648 C   0  0  0  0  0  0  0  0  0  0  0  0
  -28.1437  -11.9827   18.7705 C   0  0  0  0  0  0  0  0  0  0  0  0
  -30.4958  -12.4797   19.5574 C   0  0  0  0  0  0  0  0  0  0  0  0
  -28.5878  -13.2718   20.9012 C   0  0  0  0  0  0  0  0  0  0  0  0
  -41.9625  -22.2709   28.1046 C   0  0  1  0  0  0  0  0  0  0  0  0
  -41.6325  -19.7612   25.2716 C   0  0  1  0  0  0  0  0  0  0  0  0
  -27.6263  -13.0842   19.7151 C   0  0  2  0  0  0  0  0  0  0  0  0
  -30.0642  -22.7593   23.4684 C   0  0  0  0  0  0  0  0  0  0  0  0
  -41.7891  -18.1768   17.6908 C   0  0  0  0  0  0  0  0  0  0  0  0
  -30.6303  -17.8753   20.7648 C   0  0  0  0  0  0  0  0  0  0  0  0
  -28.8749  -17.6168   23.3761 C   0  0  0  0  0  0  0  0  0  0  0  0
  -30.6882  -16.2468   24.3652 C   0  0  0  0  0  0  0  0  0  0  0  0
  -41.7685  -23.1198   22.0996 C   0  0  0  0  0  0  0  0  0  0  0  0
  -41.5629  -22.3660   19.7210 C   0  0  0  0  0  0  0  0  0  0  0  0
  -43.6855  -21.9760   20.9720 C   0  0  0  0  0  0  0  0  0  0  0  0
  -40.7352  -15.8174   20.4833 C   0  0  0  0  0  0  0  0  0  0  0  0
  -34.7902  -19.6766   24.0438 C   0  0  0  0  0  0  0  0  0  1  0  0
  -30.6093  -22.0304   24.6940 C   0  0  0  0  0  0  0  0  0  0  0  0
  -41.6408  -20.6022   21.5415 C   0  0  1  0  0  0  0  0  0  0  0  0
  -41.6943  -17.6816   19.1255 C   0  0  2  0  0  0  0  0  0  0  0  0
  -30.8171  -16.8451   21.8822 C   0  0  1  0  0  0  0  0  0  0  0  0
  -30.4315  -17.3972   23.3265 C   0  0  0  0  0  0  0  0  0  0  0  0
  -42.1471  -22.0056   21.1036 C   0  0  0  0  0  0  0  0  0  0  0  0
  -25.8071  -11.5344   20.3243 N   0  0  0  0  0  0  0  0  0  0  0  0
  -32.6731  -20.8210   24.3614 N   0  0  0  0  0  0  0  0  0  0  0  0
  -30.5609  -19.7142   24.0139 N   0  0  0  0  0  0  0  0  0  0  0  0
  -26.2053  -12.8087   20.1710 N   0  0  0  0  0  0  0  0  0  0  0  0
  -41.1943  -19.9551   23.8879 N   0  0  0  0  0  0  0  0  0  0  0  0
  -29.9497  -13.5370   20.4117 N   0  0  0  0  0  0  0  0  0  0  0  0
  -25.4701  -15.0528   20.3566 N   0  0  0  0  0  0  0  0  0  0  0  0
  -21.8324  -12.6616   21.5590 N   0  0  0  0  0  0  0  0  0  0  0  0
  -41.9724  -21.0931   27.2637 N   0  0  0  0  0  0  0  0  0  0  0  0
  -42.0083  -19.5234   20.6307 N   0  0  0  0  0  0  0  0  0  0  0  0
  -30.1386  -15.6245   21.5072 N   0  0  0  0  0  0  0  0  0  0  0  0
  -40.8899  -16.4271   19.1375 N   0  3  0  0  0  0  0  0  0  0  0  0
  -22.6444  -14.7822   21.2394 O   0  0  0  0  0  0  0  0  0  0  0  0
  -41.0787  -22.0555   25.3407 O   0  0  0  0  0  0  0  0  0  0  0  0
  -43.3763  -20.1047   23.0800 O   0  0  0  0  0  0  0  0  0  0  0  0
  -39.8443  -18.8212   20.1821 O   0  0  0  0  0  0  0  0  0  0  0  0
  -31.8785  -14.8147   20.2527 O   0  0  0  0  0  0  0  0  0  0  0  0
  -21.4723   -7.1073   21.7936 O   0  0  0  0  0  0  0  0  0  0  0  0
  -35.2468  -18.9775   25.2010 O   0  0  0  0  0  0  0  0  0  1  0  0
  -23.8044   -3.0855   24.7585 F   0  0  0  0  0  0  0  0  0  0  0  0
  -20.3820   -6.3083   24.2052 F   0  0  0  0  0  0  0  0  0  0  0  0
  1  2  1  0  0  0  0
  1  5  2  0  0  0  0
  2  6  2  0  0  0  0
  3  8  2  0  0  0  0
  3 16  1  0  0  0  0
  4  9  1  0  0  0  0
  4 16  2  0  0  0  0
  5 18  1  0  0  0  0
  6 20  1  0  0  0  0
  7 10  2  0  0  0  0
  7 19  1  0  0  0  0
  8 22  1  0  0  0  0
  9 22  2  0  0  0  0
 10 23  1  0  0  0  0
 11 12  2  0  0  0  0
 11 24  1  0  0  0  0
 12 25  1  0  0  0  0
 13 21  1  0  0  0  0
 13 23  2  0  0  0  0
 14 25  2  0  0  0  0
 14 26  1  0  0  0  0
 15 28  2  0  0  0  0
 15 29  1  0  0  0  0
 16 27  1  0  0  0  0
 17 27  1  0  0  0  0
 17 30  2  0  0  0  0
 17 32  1  0  0  0  0
 18 20  2  0  0  0  0
 18 37  1  0  0  0  0
 19 21  2  0  0  0  0
 19 38  1  0  0  0  0
 20 46  1  0  0  0  0
 21 39  1  0  0  0  0
 22 82  1  0  0  0  0
 23 83  1  0  0  0  0
 24 26  2  0  0  0  0
 24 82  1  0  0  0  0
 25 84  1  0  0  0  0
 26 85  1  0  0  0  0
 27 65  2  0  0  0  0
 28 58  1  0  0  0  0
 28 66  1  0  0  0  0
 29 63  1  0  0  0  0
 29 67  2  0  0  0  0
 30 68  1  0  0  0  0
 30 71  1  0  0  0  0
 31 59  1  0  0  0  0
 31 66  2  0  0  0  0
 31 67  1  0  0  0  0
 32 72  1  0  0  0  0
 32 77  2  0  0  0  0
 33 47  1  0  0  0  0
 33 73  1  0  0  0  0
 33 78  2  0  0  0  0
 34 60  1  0  0  0  0
 34 69  1  0  0  0  0
 34 79  2  0  0  0  0
 35 61  1  0  0  0  0
 35 74  1  0  0  0  0
 35 80  2  0  0  0  0
 36 70  1  0  0  0  0
 36 75  1  0  0  0  0
 36 81  2  0  0  0  0
 37 40  1  0  0  0  0
 38 47  1  0  0  0  0
 39 69  1  0  0  0  0
 40 42  1  0  0  0  0
 41 43  1  0  0  0  0
 41 44  1  0  0  0  0
 42 46  1  0  0  0  0
 43 48  1  0  0  0  0
 44 70  1  0  0  0  0
 45 48  1  0  0  0  0
 45 70  1  0  0  0  0
 46 73  1  0  0  0  0
 47 69  1  0  0  0  0
 48 68  1  0  0  0  0
 49 59  1  0  0  0  0
 50 61  1  0  0  0  0
 51 62  1  0  0  0  0
 52 63  1  0  0  0  0
 53 63  1  0  0  0  0
 54 64  1  0  0  0  0
 55 64  1  0  0  0  0
 56 64  1  0  0  0  0
 57 76  1  0  0  0  0
 58 83  1  0  0  0  0
 60 64  1  0  0  0  0
 60 74  1  0  0  0  0
 61 76  1  0  0  0  0
 62 63  1  0  0  0  0
 62 75  1  0  0  0  0
 65 68  1  0  0  0  0
M  CHG  1  76   1
M  ISO  4  36 100  58 101  75 100  83 101
M  END
> <Batch ID>
0087

> <Smiles>
CCc1nc(C(C)(C)C(C)[100NH:0][100C:0](=O)N2CCCC(n3nc(-c4ccc(Oc5ccc(F)cc5F)cc4)c(C(N)=O)c3N)C2)cc([101CH2:1][101O:1]c2ccc3c(c2)CN(C(=O)C(NC(=O)C(C)NC)C(C)(C)C)C(C(=O)NC2CCCc4ccccc42)C3)n1

> <Shape>
0.176

> <Color>
0.189

> <Negative vol penalty>
0.000

$$$$

  -OEChem-04052319013D

 85 93  0     1  0  0  0  0  0999 V2000
  -37.5939  -29.7352   19.4907 C   0  0  0  0  0  0  0  0  0  0  0  0
  -37.2141  -28.5477   20.1080 C   0  0  0  0  0  0  0  0  0  0  0  0
  -22.9822   -9.9183   20.0149 C   0  0  0  0  0  0  0  0  0  0  0  0
  -23.7069   -9.9969   22.3183 C   0  0  0  0  0  0  0  0  0  0  0  0
  -36.7803  -30.8630   19.5914 C   0  0  0  0  0  0  0  0  0  0  0  0
  -36.0210  -28.4876   20.8272 C   0  0  0  0  0  0  0  0  0  0  0  0
  -33.3508  -24.3055   19.8150 C   0  0  0  0  0  0  0  0  0  0  0  0
  -22.1936   -8.8039   20.3010 C   0  0  0  0  0  0  0  0  0  0  0  0
  -22.9182   -8.8825   22.6044 C   0  0  0  0  0  0  0  0  0  0  0  0
  -33.7678  -23.1215   20.4216 C   0  0  0  0  0  0  0  0  0  0  0  0
  -23.0980   -5.5315   22.1933 C   0  0  0  0  0  0  0  0  0  0  0  0
  -23.6652   -4.5169   22.9642 C   0  0  0  0  0  0  0  0  0  0  0  0
  -32.0415  -23.3743   22.0876 C   0  0  0  0  0  0  0  0  0  0  0  0
  -31.5628  -19.7207   19.6028 C   0  0  0  0  0  0  0  0  0  0  0  0
  -21.9454   -4.8235   24.6332 C   0  0  0  0  0  0  0  0  0  0  0  0
  -23.7389  -10.5148   21.0235 C   0  0  0  0  0  0  0  0  0  0  0  0
  -24.1731  -13.0188   20.8024 C   0  0  0  0  0  0  0  0  0  0  0  0
  -35.5719  -30.8140   20.3041 C   0  0  0  0  0  0  0  0  0  0  0  0
  -32.2813  -25.0397   20.3473 C   0  0  0  0  0  0  0  0  0  0  0  0
  -35.1912  -29.6162   20.9386 C   0  0  0  0  0  0  0  0  0  0  0  0
  -31.6113  -24.5659   21.4843 C   0  0  0  0  0  0  0  0  0  0  0  0
  -31.7708  -18.7459   20.5722 C   0  0  0  0  0  0  0  0  0  0  0  0
  -30.3738  -19.7340   18.8820 C   0  0  0  0  0  0  0  0  0  0  0  0
  -22.1616   -8.2860   21.5958 C   0  0  0  0  0  0  0  0  0  0  0  0
  -33.1149  -22.6572   21.5598 C   0  0  0  0  0  0  0  0  0  0  0  0
  -21.9545   -6.1922   22.6423 C   0  0  0  0  0  0  0  0  0  0  0  0
  -23.0889   -4.1629   24.1842 C   0  0  0  0  0  0  0  0  0  0  0  0
  -21.3782   -5.8382   23.8622 C   0  0  0  0  0  0  0  0  0  0  0  0
  -24.5541  -11.6656   20.7285 C   0  0  0  0  0  0  0  0  0  0  0  0
  -30.7666  -17.8143   20.7810 C   0  0  0  0  0  0  0  0  0  0  0  0
  -29.4323  -18.7581   19.1664 C   0  0  0  0  0  0  0  0  0  0  0  0
  -25.2969  -13.7130   20.4260 C   0  0  0  0  0  0  0  0  0  0  0  0
  -22.9157  -13.5966   21.1777 C   0  0  0  0  0  0  0  0  0  0  0  0
  -31.9483  -27.9584   21.5614 C   0  0  0  0  0  0  0  0  0  0  0  0
  -28.8042  -27.1612   21.5991 C   0  0  0  0  0  0  0  0  0  0  0  0
  -26.4396  -24.7013   21.6668 C   0  0  0  0  0  0  0  0  0  0  0  0
  -30.8102  -14.5451   20.6628 C   0  0  0  0  0  0  0  0  0  0  0  0
  -34.7489  -32.0721   20.4249 C   0  0  0  0  0  0  0  0  0  0  0  0
  -31.8266  -26.3010   19.6656 C   0  0  0  0  0  0  0  0  0  0  0  0
  -30.4445  -25.3064   22.0833 C   0  0  0  0  0  0  0  0  0  0  0  0
  -33.3171  -31.8208   20.8910 C   0  0  0  0  0  0  0  0  0  0  0  0
  -29.6240  -12.1019   18.3605 C   0  0  0  0  0  0  0  0  0  0  0  0
  -33.3031  -30.8695   22.0833 C   0  0  0  0  0  0  0  0  0  0  0  0
  -28.1705  -11.8780   18.7813 C   0  0  0  0  0  0  0  0  0  0  0  0
  -30.5301  -12.3416   19.5661 C   0  0  0  0  0  0  0  0  0  0  0  0
  -28.6350  -13.1982   20.8884 C   0  0  0  0  0  0  0  0  0  0  0  0
  -33.8922  -29.5046   21.7069 C   0  0  1  0  0  0  0  0  0  0  0  0
  -31.0557  -27.2364   20.5920 C   0  0  1  0  0  0  0  0  0  0  0  0
  -27.6733  -13.0077   19.7031 C   0  0  2  0  0  0  0  0  0  0  0  0
  -28.1365  -18.7250   18.4240 C   0  0  0  0  0  0  0  0  0  0  0  0
  -31.1665  -20.6951   16.6908 C   0  0  0  0  0  0  0  0  0  0  0  0
  -30.1306  -22.2013   18.4267 C   0  0  0  0  0  0  0  0  0  0  0  0
  -23.9544  -24.3589   21.7297 C   0  0  0  0  0  0  0  0  0  0  0  0
  -28.7784  -27.9094   24.5570 C   0  0  0  0  0  0  0  0  0  0  0  0
  -26.6106  -26.6767   24.7784 C   0  0  0  0  0  0  0  0  0  0  0  0
  -26.7675  -28.6600   23.2736 C   0  0  0  0  0  0  0  0  0  0  0  0
  -26.4571  -23.2525   19.0861 C   0  0  0  0  0  0  0  0  0  0  0  0
  -33.0579  -18.7260   21.3573 C   0  0  0  0  0  0  0  0  0  0  0  0
  -30.9345  -16.7431   21.8084 C   0  0  0  0  0  0  0  0  0  0  0  0
  -32.9186  -19.2661   22.7823 C   0  0  0  0  0  0  0  0  0  0  0  0
  -32.5254  -20.7379   22.8344 C   0  0  0  0  0  0  0  0  0  1  0  0
  -30.1449  -20.7756   17.8418 C   0  0  0  0  0  0  0  0  0  0  0  0
  -27.8818  -26.4954   22.5916 C   0  0  1  0  0  0  0  0  0  0  0  0
  -25.1826  -24.4894   20.8424 C   0  0  2  0  0  0  0  0  0  0  0  0
  -27.5328  -27.4222   23.7902 C   0  0  0  0  0  0  0  0  0  0  0  0
  -25.8209  -11.5074   20.3359 N   0  0  0  0  0  0  0  0  0  0  0  0
  -29.5986  -17.7952   20.1007 N   0  0  0  0  0  0  0  0  0  0  0  0
  -26.2456  -12.7701   20.1596 N   0  0  0  0  0  0  0  0  0  0  0  0
  -30.0415  -26.5378   21.3842 N   0  0  0  0  0  0  0  0  0  0  0  0
  -30.0035  -13.4260   20.3984 N   0  0  0  0  0  0  0  0  0  0  0  0
  -25.5561  -15.0319   20.3002 N   0  0  0  0  0  0  0  0  0  0  0  0
  -21.8668  -12.7391   21.5362 N   0  0  0  0  0  0  0  0  0  0  0  0
  -32.9273  -28.7262   20.9603 N   0  0  0  0  0  0  0  0  0  0  0  0
  -26.7231  -26.0407   21.8307 N   0  0  0  0  0  0  0  0  0  0  0  0
  -30.2321  -15.5298   21.4546 N   0  0  0  0  0  0  0  0  0  0  0  0
  -25.3036  -23.2509   20.0223 N   0  3  0  0  0  0  0  0  0  0  0  0
  -22.7230  -14.8362   21.1789 O   0  0  0  0  0  0  0  0  0  0  0  0
  -31.7615  -27.8297   22.7657 O   0  0  0  0  0  0  0  0  0  0  0  0
  -28.4373  -28.1922   21.0299 O   0  0  0  0  0  0  0  0  0  0  0  0
  -27.1016  -23.7716   22.1230 O   0  0  0  0  0  0  0  0  0  0  0  0
  -31.9585  -14.6608   20.2212 O   0  0  0  0  0  0  0  0  0  0  0  0
  -21.3920   -7.1988   21.8754 O   0  0  0  0  0  0  0  0  0  0  0  0
  -33.5203  -21.5021   22.1543 O   0  0  0  0  0  0  0  0  0  1  0  0
  -23.6328   -3.1874   24.9237 F   0  0  0  0  0  0  0  0  0  0  0  0
  -20.2789   -6.4685   24.2982 F   0  0  0  0  0  0  0  0  0  0  0  0
  1  2  1  0  0  0  0
  1  5  2  0  0  0  0
  2  6  2  0  0  0  0
  3  8  2  0  0  0  0
  3 16  1  0  0  0  0
  4  9  1  0  0  0  0
  4 16  2  0  0  0  0
  5 18  1  0  0  0  0
  6 20  1  0  0  0  0
  7 10  2  0  0  0  0
  7 19  1  0  0  0  0
  8 24  1  0  0  0  0
  9 24  2  0  0  0  0
 10 25  1  0  0  0  0
 11 12  2  0  0  0  0
 11 26  1  0  0  0  0
 12 27  1  0  0  0  0
 13 21  1  0  0  0  0
 13 25  2  0  0  0  0
 14 22  1  0  0  0  0
 14 23  2  0  0  0  0
 15 27  2  0  0  0  0
 15 28  1  0  0  0  0
 16 29  1  0  0  0  0
 17 29  1  0  0  0  0
 17 32  2  0  0  0  0
 17 33  1  0  0  0  0
 18 20  2  0  0  0  0
 18 38  1  0  0  0  0
 19 21  2  0  0  0  0
 19 39  1  0  0  0  0
 20 47  1  0  0  0  0
 21 40  1  0  0  0  0
 22 30  2  0  0  0  0
 22 58  1  0  0  0  0
 23 31  1  0  0  0  0
 23 62  1  0  0  0  0
 24 82  1  0  0  0  0
 25 83  1  0  0  0  0
 26 28  2  0  0  0  0
 26 82  1  0  0  0  0
 27 84  1  0  0  0  0
 28 85  1  0  0  0  0
 29 66  2  0  0  0  0
 30 59  1  0  0  0  0
 30 67  1  0  0  0  0
 31 50  1  0  0  0  0
 31 67  2  0  0  0  0
 32 68  1  0  0  0  0
 32 71  1  0  0  0  0
 33 72  1  0  0  0  0
 33 77  2  0  0  0  0
 34 48  1  0  0  0  0
 34 73  1  0  0  0  0
 34 78  2  0  0  0  0
 35 63  1  0  0  0  0
 35 69  1  0  0  0  0
 35 79  2  0  0  0  0
 36 64  1  0  0  0  0
 36 74  1  0  0  0  0
 36 80  2  0  0  0  0
 37 70  1  0  0  0  0
 37 75  1  0  0  0  0
 37 81  2  0  0  0  0
 38 41  1  0  0  0  0
 39 48  1  0  0  0  0
 40 69  1  0  0  0  0
 41 43  1  0  0  0  0
 42 44  1  0  0  0  0
 42 45  1  0  0  0  0
 43 47  1  0  0  0  0
 44 49  1  0  0  0  0
 45 70  1  0  0  0  0
 46 49  1  0  0  0  0
 46 70  1  0  0  0  0
 47 73  1  0  0  0  0
 48 69  1  0  0  0  0
 49 68  1  0  0  0  0
 51 62  1  0  0  0  0
 52 62  1  0  0  0  0
 53 64  1  0  0  0  0
 54 65  1  0  0  0  0
 55 65  1  0  0  0  0
 56 65  1  0  0  0  0
 57 76  1  0  0  0  0
 58 60  1  0  0  0  0
 59 75  1  0  0  0  0
 60 61  1  0  0  0  0
 61 83  1  0  0  0  0
 63 65  1  0  0  0  0
 63 74  1  0  0  0  0
 64 76  1  0  0  0  0
 66 68  1  0  0  0  0
M  CHG  1  76   1
M  ISO  4  37 100  61 101  75 100  83 101
M  END
> <Batch ID>
0087

> <Smiles>
CNC(C)C(=O)NC(C(=O)N1Cc2cc([101O:1][101CH2:1]CCc3cc(C(C)C)c(C)nc3C[100NH:0][100C:0](=O)N3CCCC(n4nc(-c5ccc(Oc6ccc(F)cc6F)cc5)c(C(N)=O)c4N)C3)ccc2CC1C(=O)NC1CCCc2ccccc21)C(C)(C)C

> <Shape>
0.244

> <Color>
0.210

> <Negative vol penalty>
0.000

$$$$

  -OEChem-04052319013D

 82 90  0     1  0  0  0  0  0999 V2000
  -23.9412   -7.8473   21.3234 C   0  0  0  0  0  0  0  0  0  0  0  0
  -24.5393   -8.9478   20.7179 C   0  0  0  0  0  0  0  0  0  0  0  0
  -23.6549  -26.8015   20.3934 C   0  0  0  0  0  0  0  0  0  0  0  0
  -24.4930  -25.4586   22.2186 C   0  0  0  0  0  0  0  0  0  0  0  0
  -22.6435   -7.9479   21.8232 C   0  0  0  0  0  0  0  0  0  0  0  0
  -23.8396  -10.1492   20.6108 C   0  0  0  0  0  0  0  0  0  0  0  0
  -26.6680  -14.1620   21.8529 C   0  0  0  0  0  0  0  0  0  0  0  0
  -22.3547  -26.6404   20.8719 C   0  0  0  0  0  0  0  0  0  0  0  0
  -23.1927  -25.2975   22.6971 C   0  0  0  0  0  0  0  0  0  0  0  0
  -27.5802  -14.6169   20.9017 C   0  0  0  0  0  0  0  0  0  0  0  0
  -20.4199  -27.9495   23.3165 C   0  0  0  0  0  0  0  0  0  0  0  0
  -19.6037  -29.0793   23.3686 C   0  0  0  0  0  0  0  0  0  0  0  0
  -30.4672  -20.5724   22.0564 C   0  0  0  0  0  0  0  0  0  0  0  0
  -26.0406  -16.3629   20.2690 C   0  0  0  0  0  0  0  0  0  0  0  0
  -18.0353  -28.0154   21.8701 C   0  0  0  0  0  0  0  0  0  0  0  0
  -29.9508  -19.8657   23.1305 C   0  0  0  0  0  0  0  0  0  0  0  0
  -29.8673  -17.9141   21.9211 C   0  0  0  0  0  0  0  0  0  0  0  0
  -24.7241  -26.2105   21.0668 C   0  0  0  0  0  0  0  0  0  0  0  0
  -26.9764  -27.3977   20.9072 C   0  0  0  0  0  0  0  0  0  0  0  0
  -21.9311   -9.1539   21.7309 C   0  0  0  0  0  0  0  0  0  0  0  0
  -25.4286  -14.7985   22.0119 C   0  0  0  0  0  0  0  0  0  0  0  0
  -22.5307  -10.2656   21.1087 C   0  0  0  0  0  0  0  0  0  0  0  0
  -25.1155  -15.9157   21.2246 C   0  0  0  0  0  0  0  0  0  0  0  0
  -30.6827  -19.8842   20.8676 C   0  0  0  0  0  0  0  0  0  0  0  0
  -30.3796  -18.5295   20.7903 C   0  0  0  0  0  0  0  0  0  0  0  0
  -22.1235  -25.8884   22.0238 C   0  0  0  0  0  0  0  0  0  0  0  0
  -27.2655  -15.7158   20.1076 C   0  0  0  0  0  0  0  0  0  0  0  0
  -20.0439  -26.8525   22.5411 C   0  0  0  0  0  0  0  0  0  0  0  0
  -18.4114  -29.1124   22.6454 C   0  0  0  0  0  0  0  0  0  0  0  0
  -18.8516  -26.8855   21.8180 C   0  0  0  0  0  0  0  0  0  0  0  0
  -26.0675  -26.3761   20.5727 C   0  0  0  0  0  0  0  0  0  0  0  0
  -28.1031  -27.1074   20.1774 C   0  0  0  0  0  0  0  0  0  0  0  0
  -26.8166  -28.5097   21.7982 C   0  0  0  0  0  0  0  0  0  0  0  0
  -22.3936  -13.9132   21.6824 C   0  0  0  0  0  0  0  0  0  0  0  0
  -21.8077  -16.8646   22.8940 C   0  0  0  0  0  0  0  0  0  0  0  0
  -22.4469  -20.4029   23.1935 C   0  0  0  0  0  0  0  0  0  0  0  0
  -30.2785  -22.0215   17.8856 C   0  0  0  0  0  0  0  0  0  0  0  0
  -20.5134   -9.2006   22.2434 C   0  0  0  0  0  0  0  0  0  0  0  0
  -24.4666  -14.3120   23.0608 C   0  0  0  0  0  0  0  0  0  0  0  0
  -23.8067  -16.6467   21.3701 C   0  0  0  0  0  0  0  0  0  0  0  0
  -19.9780  -10.6186   22.4256 C   0  0  0  0  0  0  0  0  0  0  0  0
  -29.4912  -25.0053   16.1098 C   0  0  0  0  0  0  0  0  0  0  0  0
  -20.2985  -11.4715   21.2022 C   0  0  0  0  0  0  0  0  0  0  0  0
  -28.6064  -25.7872   17.0824 C   0  0  0  0  0  0  0  0  0  0  0  0
  -29.2343  -23.5025   16.1966 C   0  0  0  0  0  0  0  0  0  0  0  0
  -28.4568  -23.7151   18.5256 C   0  0  0  0  0  0  0  0  0  0  0  0
  -21.8131  -11.5931   20.9959 C   0  0  1  0  0  0  0  0  0  0  0  0
  -23.0230  -14.7198   22.7828 C   0  0  1  0  0  0  0  0  0  0  0  0
  -28.7195  -25.2307   18.5145 C   0  0  2  0  0  0  0  0  0  0  0  0
  -32.6243  -21.2190   19.9674 C   0  0  0  0  0  0  0  0  0  0  0  0
  -21.3677  -22.1382   24.6501 C   0  0  0  0  0  0  0  0  0  0  0  0
  -20.0186  -17.3659   20.4737 C   0  0  0  0  0  0  0  0  0  0  0  0
  -20.1068  -19.8115   21.0025 C   0  0  0  0  0  0  0  0  0  0  0  0
  -19.1057  -18.2184   22.6403 C   0  0  0  0  0  0  0  0  0  0  0  0
  -25.0476  -21.2207   24.3453 C   0  0  0  0  0  0  0  0  0  0  0  0
  -30.5947  -17.7350   19.5269 C   0  0  0  0  0  0  0  0  0  0  0  0
  -29.5334  -17.9857   18.4535 C   0  0  0  0  0  0  0  0  0  0  0  0
  -28.1334  -17.5561   18.8765 C   0  0  0  0  0  0  0  0  0  1  0  0
  -31.2392  -20.6171   19.6922 C   0  0  2  0  0  0  0  0  0  0  0  0
  -21.6117  -18.2416   22.3070 C   0  0  1  0  0  0  0  0  0  0  0  0
  -22.5536  -21.2013   24.4802 C   0  0  2  0  0  0  0  0  0  0  0  0
  -20.2346  -18.3946   21.6016 C   0  0  0  0  0  0  0  0  0  0  0  0
  -29.6442  -18.5495   23.0934 N   0  0  0  0  0  0  0  0  0  0  0  0
  -26.5730  -25.5022   19.6982 N   0  0  0  0  0  0  0  0  0  0  0  0
  -27.8118  -25.9739   19.4771 N   0  0  0  0  0  0  0  0  0  0  0  0
  -22.8966  -16.1290   22.4051 N   0  0  0  0  0  0  0  0  0  0  0  0
  -29.3585  -23.0381   17.5804 N   0  0  0  0  0  0  0  0  0  0  0  0
  -29.3047  -27.7137   20.0727 N   0  0  0  0  0  0  0  0  0  0  0  0
  -25.5945  -28.6588   22.4680 N   0  0  0  0  0  0  0  0  0  0  0  0
  -22.3740  -12.5525   21.9229 N   0  0  0  0  0  0  0  0  0  0  0  0
  -21.8327  -19.1854   23.3974 N   0  0  0  0  0  0  0  0  0  0  0  0
  -30.3375  -21.6449   19.2218 N   0  0  0  0  0  0  0  0  0  0  0  0
  -23.8009  -22.0169   24.4818 N   0  3  0  0  0  0  0  0  0  0  0  0
  -27.7246  -29.3554   21.9819 O   0  0  0  0  0  0  0  0  0  0  0  0
  -21.9567  -14.4831   20.6895 O   0  0  0  0  0  0  0  0  0  0  0  0
  -21.0278  -16.4596   23.7596 O   0  0  0  0  0  0  0  0  0  0  0  0
  -22.8633  -20.8192   22.1147 O   0  0  0  0  0  0  0  0  0  0  0  0
  -30.9981  -21.4926   17.0315 O   0  0  0  0  0  0  0  0  0  0  0  0
  -20.8549  -25.7312   22.4911 O   0  0  0  0  0  0  0  0  0  0  0  0
  -28.1538  -16.1614   19.1781 O   0  0  0  0  0  0  0  0  0  1  0  0
  -17.6269  -30.1969   22.6968 F   0  0  0  0  0  0  0  0  0  0  0  0
  -18.4844  -25.8344   21.0723 F   0  0  0  0  0  0  0  0  0  0  0  0
  1  2  1  0  0  0  0
  1  5  2  0  0  0  0
  2  6  2  0  0  0  0
  3  8  2  0  0  0  0
  3 18  1  0  0  0  0
  4  9  1  0  0  0  0
  4 18  2  0  0  0  0
  5 20  1  0  0  0  0
  6 22  1  0  0  0  0
  7 10  2  0  0  0  0
  7 21  1  0  0  0  0
  8 26  1  0  0  0  0
  9 26  2  0  0  0  0
 10 27  1  0  0  0  0
 11 12  2  0  0  0  0
 11 28  1  0  0  0  0
 12 29  1  0  0  0  0
 13 16  2  0  0  0  0
 13 24  1  0  0  0  0
 14 23  1  0  0  0  0
 14 27  2  0  0  0  0
 15 29  2  0  0  0  0
 15 30  1  0  0  0  0
 16 63  1  0  0  0  0
 17 25  1  0  0  0  0
 17 63  2  0  0  0  0
 18 31  1  0  0  0  0
 19 31  1  0  0  0  0
 19 32  2  0  0  0  0
 19 33  1  0  0  0  0
 20 22  2  0  0  0  0
 20 38  1  0  0  0  0
 21 23  2  0  0  0  0
 21 39  1  0  0  0  0
 22 47  1  0  0  0  0
 23 40  1  0  0  0  0
 24 25  2  0  0  0  0
 24 59  1  0  0  0  0
 25 56  1  0  0  0  0
 26 79  1  0  0  0  0
 27 80  1  0  0  0  0
 28 30  2  0  0  0  0
 28 79  1  0  0  0  0
 29 81  1  0  0  0  0
 30 82  1  0  0  0  0
 31 64  2  0  0  0  0
 32 65  1  0  0  0  0
 32 68  1  0  0  0  0
 33 69  1  0  0  0  0
 33 74  2  0  0  0  0
 34 48  1  0  0  0  0
 34 70  1  0  0  0  0
 34 75  2  0  0  0  0
 35 60  1  0  0  0  0
 35 66  1  0  0  0  0
 35 76  2  0  0  0  0
 36 61  1  0  0  0  0
 36 71  1  0  0  0  0
 36 77  2  0  0  0  0
 37 67  1  0  0  0  0
 37 72  1  0  0  0  0
 37 78  2  0  0  0  0
 38 41  1  0  0  0  0
 39 48  1  0  0  0  0
 40 66  1  0  0  0  0
 41 43  1  0  0  0  0
 42 44  1  0  0  0  0
 42 45  1  0  0  0  0
 43 47  1  0  0  0  0
 44 49  1  0  0  0  0
 45 67  1  0  0  0  0
 46 49  1  0  0  0  0
 46 67  1  0  0  0  0
 47 70  1  0  0  0  0
 48 66  1  0  0  0  0
 49 65  1  0  0  0  0
 50 59  1  0  0  0  0
 51 61  1  0  0  0  0
 52 62  1  0  0  0  0
 53 62  1  0  0  0  0
 54 62  1  0  0  0  0
 55 73  1  0  0  0  0
 56 57  1  0  0  0  0
 57 58  1  0  0  0  0
 58 80  1  0  0  0  0
 59 72  1  0  0  0  0
 60 62  1  0  0  0  0
 60 71  1  0  0  0  0
 61 73  1  0  0  0  0
 64 65  1  0  0  0  0
M  CHG  1  73   1
M  ISO  4  37 100  58 101  72 100  80 101
M  END
> <Batch ID>
0087

> <Smiles>
CNC(C)C(=O)NC(C(=O)N1Cc2cc([101O:1][101CH2:1]CCc3cnccc3C(C)[100NH:0][100C:0](=O)N3CCCC(n4nc(-c5ccc(Oc6ccc(F)cc6F)cc5)c(C(N)=O)c4N)C3)ccc2CC1C(=O)NC1CCCc2ccccc21)C(C)(C)C

> <Shape>
0.220

> <Color>
0.072

> <Negative vol penalty>
0.000

$$$$

  -OEChem-04052319013D

 91 99  0     1  0  0  0  0  0999 V2000
  -34.2234  -29.3400   14.2937 C   0  0  0  0  0  0  0  0  0  0  0  0
  -34.7435  -28.7876   15.4598 C   0  0  0  0  0  0  0  0  0  0  0  0
  -22.9987   -9.8182   20.0109 C   0  0  0  0  0  0  0  0  0  0  0  0
  -23.7089   -9.9313   22.3174 C   0  0  0  0  0  0  0  0  0  0  0  0
  -32.8430  -29.3983   14.1067 C   0  0  0  0  0  0  0  0  0  0  0  0
  -33.8833  -28.2941   16.4401 C   0  0  0  0  0  0  0  0  0  0  0  0
  -33.4519  -23.1616   21.4189 C   0  0  0  0  0  0  0  0  0  0  0  0
  -22.2398   -8.6842   20.3002 C   0  0  0  0  0  0  0  0  0  0  0  0
  -22.9499   -8.7973   22.6067 C   0  0  0  0  0  0  0  0  0  0  0  0
  -33.1819  -22.9984   22.7769 C   0  0  0  0  0  0  0  0  0  0  0  0
  -23.2243   -5.4500   22.2180 C   0  0  0  0  0  0  0  0  0  0  0  0
  -23.8153   -4.4563   22.9983 C   0  0  0  0  0  0  0  0  0  0  0  0
  -30.8165  -23.0799   22.3103 C   0  0  0  0  0  0  0  0  0  0  0  0
  -29.9867  -18.5130   25.5212 C   0  0  0  0  0  0  0  0  0  0  0  0
  -22.0789   -4.7258   24.6565 C   0  0  0  0  0  0  0  0  0  0  0  0
  -23.7333  -10.4417   21.0195 C   0  0  0  0  0  0  0  0  0  0  0  0
  -24.0993  -12.9553   20.7845 C   0  0  0  0  0  0  0  0  0  0  0  0
  -31.9657  -28.8964   15.0810 C   0  0  0  0  0  0  0  0  0  0  0  0
  -32.4046  -23.2964   20.4961 C   0  0  0  0  0  0  0  0  0  0  0  0
  -32.4899  -28.3469   16.2666 C   0  0  0  0  0  0  0  0  0  0  0  0
  -31.0759  -23.2422   20.9408 C   0  0  0  0  0  0  0  0  0  0  0  0
  -29.0095  -19.4605   25.8051 C   0  0  0  0  0  0  0  0  0  0  0  0
  -27.7471  -19.3415   25.2346 C   0  0  0  0  0  0  0  0  0  0  0  0
  -22.2153   -8.1738   21.5980 C   0  0  0  0  0  0  0  0  0  0  0  0
  -31.8641  -22.9604   23.2231 C   0  0  0  0  0  0  0  0  0  0  0  0
  -22.0606   -6.0816   22.6569 C   0  0  0  0  0  0  0  0  0  0  0  0
  -23.2426   -4.0942   24.2175 C   0  0  0  0  0  0  0  0  0  0  0  0
  -21.4879   -5.7195   23.8762 C   0  0  0  0  0  0  0  0  0  0  0  0
  -24.5180  -11.6128   20.7212 C   0  0  0  0  0  0  0  0  0  0  0  0
  -29.6538  -17.4737   24.6674 C   0  0  0  0  0  0  0  0  0  0  0  0
  -27.5145  -18.2652   24.3935 C   0  0  0  0  0  0  0  0  0  0  0  0
  -25.2054  -13.6780   20.4093 C   0  0  0  0  0  0  0  0  0  0  0  0
  -22.8245  -13.5005   21.1498 C   0  0  0  0  0  0  0  0  0  0  0  0
  -31.4707  -25.5686   18.4790 C   0  0  0  0  0  0  0  0  0  0  0  0
  -29.3439  -23.3100   17.5314 C   0  0  0  0  0  0  0  0  0  0  0  0
  -27.5862  -20.4852   18.2914 C   0  0  0  0  0  0  0  0  0  0  0  0
  -30.6924  -14.6638   20.6687 C   0  0  0  0  0  0  0  0  0  0  0  0
  -30.4800  -29.0244   14.8550 C   0  0  0  0  0  0  0  0  0  0  0  0
  -32.7122  -23.4450   19.0313 C   0  0  0  0  0  0  0  0  0  0  0  0
  -29.9154  -23.3618   19.9882 C   0  0  0  0  0  0  0  0  0  0  0  0
  -29.6453  -28.1391   15.7768 C   0  0  0  0  0  0  0  0  0  0  0  0
  -29.5863  -12.1743   18.3761 C   0  0  0  0  0  0  0  0  0  0  0  0
  -30.1371  -28.2535   17.2162 C   0  0  0  0  0  0  0  0  0  0  0  0
  -28.1373  -11.9129   18.7911 C   0  0  0  0  0  0  0  0  0  0  0  0
  -30.4791  -12.4466   19.5848 C   0  0  0  0  0  0  0  0  0  0  0  0
  -28.5541  -13.2587   20.8920 C   0  0  0  0  0  0  0  0  0  0  0  0
  -31.5898  -27.7786   17.3422 C   0  0  1  0  0  0  0  0  0  0  0  0
  -31.5746  -24.0881   18.2441 C   0  0  1  0  0  0  0  0  0  0  0  0
  -27.6042  -13.0342   19.7031 C   0  0  2  0  0  0  0  0  0  0  0  0
  -27.0675  -21.7618   25.0509 C   0  0  0  0  0  0  0  0  0  0  0  0
  -26.3068  -20.3850   27.0208 C   0  0  0  0  0  0  0  0  0  0  0  0
  -25.8998  -18.8956   17.3287 C   0  0  0  0  0  0  0  0  0  0  0  0
  -28.1749  -21.6074   26.9817 C   0  0  0  0  0  0  0  0  0  0  0  0
  -29.7072  -20.0401   28.1394 C   0  0  0  0  0  0  0  0  0  0  0  0
  -27.1400  -25.3671   18.0016 C   0  0  0  0  0  0  0  0  0  0  0  0
  -25.4785  -23.4948   17.9544 C   0  0  0  0  0  0  0  0  0  0  0  0
  -26.8564  -23.9885   15.9344 C   0  0  0  0  0  0  0  0  0  0  0  0
  -25.9486  -18.7549   22.5312 C   0  0  0  0  0  0  0  0  0  0  0  0
  -25.1975  -17.3793   24.4786 C   0  0  0  0  0  0  0  0  0  0  0  0
  -29.4508  -18.1967   18.5026 C   0  0  0  0  0  0  0  0  0  0  0  0
  -30.6773  -16.4380   24.3408 C   0  0  0  0  0  0  0  0  0  0  0  0
  -31.5382  -16.7608   23.1040 C   0  0  0  0  0  0  0  0  0  0  0  0
  -30.5795  -21.4321   26.2340 C   0  0  0  0  0  0  0  0  0  0  0  0
  -30.7499  -16.8716   21.8007 C   0  0  0  0  0  0  0  0  0  0  0  0
  -30.3838  -22.1350   24.8914 C   0  0  0  0  0  0  0  0  0  1  0  0
  -26.6849  -20.3490   25.5287 C   0  0  0  0  0  0  0  0  0  0  0  0
  -27.9473  -22.9153   17.9469 C   0  0  1  0  0  0  0  0  0  0  0  0
  -27.3786  -19.1913   17.5252 C   0  0  2  0  0  0  0  0  0  0  0  0
  -29.3495  -20.6266   26.7509 C   0  0  0  0  0  0  0  0  0  0  0  0
  -26.8772  -23.9411   17.4778 C   0  0  0  0  0  0  0  0  0  0  0  0
  -25.7907  -11.4872   20.3360 N   0  0  0  0  0  0  0  0  0  0  0  0
  -28.4385  -17.3249   24.0943 N   0  0  0  0  0  0  0  0  0  0  0  0
  -26.1813  -12.7601   20.1538 N   0  0  0  0  0  0  0  0  0  0  0  0
  -30.2676  -23.5119   18.5666 N   0  0  0  0  0  0  0  0  0  0  0  0
  -29.9183  -13.5212   20.4074 N   0  0  0  0  0  0  0  0  0  0  0  0
  -25.4288  -15.0027   20.2764 N   0  0  0  0  0  0  0  0  0  0  0  0
  -21.7978  -12.6165   21.5084 N   0  0  0  0  0  0  0  0  0  0  0  0
  -31.6506  -26.3327   17.3418 N   0  0  0  0  0  0  0  0  0  0  0  0
  -27.7388  -21.5619   17.4436 N   0  0  0  0  0  0  0  0  0  0  0  0
  -30.0831  -15.6371   21.4512 N   0  0  0  0  0  0  0  0  0  0  0  0
  -26.2298  -18.1381   23.8083 N   0  0  0  0  0  0  0  0  0  0  0  0
  -27.9925  -18.0497   18.2605 N   0  3  0  0  0  0  0  0  0  0  0  0
  -22.5976  -14.7342   21.1420 O   0  0  0  0  0  0  0  0  0  0  0  0
  -31.2426  -25.9866   19.6082 O   0  0  0  0  0  0  0  0  0  0  0  0
  -29.6074  -23.4278   16.3321 O   0  0  0  0  0  0  0  0  0  0  0  0
  -27.6068  -20.5363   19.5192 O   0  0  0  0  0  0  0  0  0  0  0  0
  -31.8393  -14.8084   20.2322 O   0  0  0  0  0  0  0  0  0  0  0  0
  -21.4746   -7.0674   21.8807 O   0  0  0  0  0  0  0  0  0  0  0  0
  -31.5978  -22.8018   24.5482 O   0  0  0  0  0  0  0  0  0  1  0  0
  -23.8094   -3.1389   24.9660 F   0  0  0  0  0  0  0  0  0  0  0  0
  -20.3694   -6.3219   24.3026 F   0  0  0  0  0  0  0  0  0  0  0  0
  1  2  1  0  0  0  0
  1  5  2  0  0  0  0
  2  6  2  0  0  0  0
  3  8  2  0  0  0  0
  3 16  1  0  0  0  0
  4  9  1  0  0  0  0
  4 16  2  0  0  0  0
  5 18  1  0  0  0  0
  6 20  1  0  0  0  0
  7 10  2  0  0  0  0
  7 19  1  0  0  0  0
  8 24  1  0  0  0  0
  9 24  2  0  0  0  0
 10 25  1  0  0  0  0
 11 12  2  0  0  0  0
 11 26  1  0  0  0  0
 12 27  1  0  0  0  0
 13 21  1  0  0  0  0
 13 25  2  0  0  0  0
 14 22  1  0  0  0  0
 14 30  2  0  0  0  0
 15 27  2  0  0  0  0
 15 28  1  0  0  0  0
 16 29  1  0  0  0  0
 17 29  1  0  0  0  0
 17 32  2  0  0  0  0
 17 33  1  0  0  0  0
 18 20  2  0  0  0  0
 18 38  1  0  0  0  0
 19 21  2  0  0  0  0
 19 39  1  0  0  0  0
 20 47  1  0  0  0  0
 21 40  1  0  0  0  0
 22 23  2  0  0  0  0
 22 69  1  0  0  0  0
 23 31  1  0  0  0  0
 23 66  1  0  0  0  0
 24 88  1  0  0  0  0
 25 89  1  0  0  0  0
 26 28  2  0  0  0  0
 26 88  1  0  0  0  0
 27 90  1  0  0  0  0
 28 91  1  0  0  0  0
 29 71  2  0  0  0  0
 30 61  1  0  0  0  0
 30 72  1  0  0  0  0
 31 72  2  0  0  0  0
 31 81  1  0  0  0  0
 32 73  1  0  0  0  0
 32 76  1  0  0  0  0
 33 77  1  0  0  0  0
 33 83  2  0  0  0  0
 34 48  1  0  0  0  0
 34 78  1  0  0  0  0
 34 84  2  0  0  0  0
 35 67  1  0  0  0  0
 35 74  1  0  0  0  0
 35 85  2  0  0  0  0
 36 68  1  0  0  0  0
 36 79  1  0  0  0  0
 36 86  2  0  0  0  0
 37 75  1  0  0  0  0
 37 80  1  0  0  0  0
 37 87  2  0  0  0  0
 38 41  1  0  0  0  0
 39 48  1  0  0  0  0
 40 74  1  0  0  0  0
 41 43  1  0  0  0  0
 42 44  1  0  0  0  0
 42 45  1  0  0  0  0
 43 47  1  0  0  0  0
 44 49  1  0  0  0  0
 45 75  1  0  0  0  0
 46 49  1  0  0  0  0
 46 75  1  0  0  0  0
 47 78  1  0  0  0  0
 48 74  1  0  0  0  0
 49 73  1  0  0  0  0
 50 66  1  0  0  0  0
 51 66  1  0  0  0  0
 52 68  1  0  0  0  0
 53 69  1  0  0  0  0
 54 69  1  0  0  0  0
 55 70  1  0  0  0  0
 56 70  1  0  0  0  0
 57 70  1  0  0  0  0
 58 81  1  0  0  0  0
 59 81  1  0  0  0  0
 60 82  1  0  0  0  0
 61 62  1  0  0  0  0
 62 64  1  0  0  0  0
 63 65  1  0  0  0  0
 63 69  1  0  0  0  0
 64 80  1  0  0  0  0
 65 89  1  0  0  0  0
 67 70  1  0  0  0  0
 67 79  1  0  0  0  0
 68 82  1  0  0  0  0
 71 73  1  0  0  0  0
M  CHG  1  82   1
M  ISO  4  37 100  65 101  80 100  89 101
M  END
> <Batch ID>
0087

> <Smiles>
CNC(C)C(=O)NC(C(=O)N1Cc2cc([101O:1][101CH2:1]CC(C)(C)c3cc(CCC[100NH:0][100C:0](=O)N4CCCC(n5nc(-c6ccc(Oc7ccc(F)cc7F)cc6)c(C(N)=O)c5N)C4)nc(N(C)C)c3C(C)C)ccc2CC1C(=O)NC1CCCc2ccccc21)C(C)(C)C

> <Shape>
0.237

> <Color>
0.206

> <Negative vol penalty>
0.000

$$$$

  -OEChem-04052319013D

 89 97  0     1  0  0  0  0  0999 V2000
  -16.9915  -26.5015   25.2850 C   0  0  0  0  0  0  0  0  0  0  0  0
  -17.6856  -25.3857   24.8282 C   0  0  0  0  0  0  0  0  0  0  0  0
  -22.2117  -16.1466   20.0558 C   0  0  0  0  0  0  0  0  0  0  0  0
  -23.4230  -16.8771   22.0144 C   0  0  0  0  0  0  0  0  0  0  0  0
  -17.2069  -27.7454   24.6933 C   0  0  0  0  0  0  0  0  0  0  0  0
  -18.5949  -25.5131   23.7787 C   0  0  0  0  0  0  0  0  0  0  0  0
  -23.8302  -22.4207   23.0475 C   0  0  0  0  0  0  0  0  0  0  0  0
  -21.2721  -17.1571   20.2600 C   0  0  0  0  0  0  0  0  0  0  0  0
  -22.4835  -17.8877   22.2186 C   0  0  0  0  0  0  0  0  0  0  0  0
  -24.1597  -21.3014   22.2844 C   0  0  0  0  0  0  0  0  0  0  0  0
  -21.0365  -20.4861   19.7167 C   0  0  0  0  0  0  0  0  0  0  0  0
  -20.6379  -21.2340   18.6089 C   0  0  0  0  0  0  0  0  0  0  0  0
  -24.9792  -22.7441   20.5333 C   0  0  0  0  0  0  0  0  0  0  0  0
  -27.9510  -18.9785   18.8043 C   0  0  0  0  0  0  0  0  0  0  0  0
  -29.5730  -18.7280   17.0314 C   0  0  0  0  0  0  0  0  0  0  0  0
  -27.3474  -17.8254   16.7688 C   0  0  0  0  0  0  0  0  0  0  0  0
  -18.3547  -20.5208   18.9490 C   0  0  0  0  0  0  0  0  0  0  0  0
  -23.2871  -16.0065   20.9331 C   0  0  0  0  0  0  0  0  0  0  0  0
  -24.0212  -13.5750   20.6955 C   0  0  0  0  0  0  0  0  0  0  0  0
  -18.1263  -27.8900   23.6424 C   0  0  0  0  0  0  0  0  0  0  0  0
  -24.0630  -23.7124   22.5539 C   0  0  0  0  0  0  0  0  0  0  0  0
  -18.8218  -26.7599   23.1715 C   0  0  0  0  0  0  0  0  0  0  0  0
  -24.6541  -23.8781   21.2932 C   0  0  0  0  0  0  0  0  0  0  0  0
  -29.2335  -19.1958   18.3009 C   0  0  0  0  0  0  0  0  0  0  0  0
  -27.0079  -18.2932   18.0382 C   0  0  0  0  0  0  0  0  0  0  0  0
  -28.6300  -18.0428   16.2654 C   0  0  0  0  0  0  0  0  0  0  0  0
  -21.4080  -18.0277   21.3413 C   0  0  0  0  0  0  0  0  0  0  0  0
  -24.7316  -21.4630   21.0259 C   0  0  0  0  0  0  0  0  0  0  0  0
  -20.0943  -19.7554   20.4406 C   0  0  0  0  0  0  0  0  0  0  0  0
  -19.2970  -21.2514   18.2250 C   0  0  0  0  0  0  0  0  0  0  0  0
  -18.7534  -19.7728   20.0568 C   0  0  0  0  0  0  0  0  0  0  0  0
  -24.2577  -14.9625   20.7231 C   0  0  0  0  0  0  0  0  0  0  0  0
  -25.2566  -13.0207   20.4651 C   0  0  0  0  0  0  0  0  0  0  0  0
  -22.7945  -12.8519   20.8630 C   0  0  0  0  0  0  0  0  0  0  0  0
  -22.2263  -26.2080   21.8456 C   0  0  0  0  0  0  0  0  0  0  0  0
  -25.0786  -27.6783   21.3717 C   0  0  0  0  0  0  0  0  0  0  0  0
  -28.4017  -27.3908   20.6497 C   0  0  0  0  0  0  0  0  0  0  0  0
  -30.2369  -15.0958   17.8688 C   0  0  0  0  0  0  0  0  0  0  0  0
  -18.2906  -29.2460   23.0029 C   0  0  0  0  0  0  0  0  0  0  0  0
  -23.7265  -24.9091   23.4007 C   0  0  0  0  0  0  0  0  0  0  0  0
  -24.9433  -25.2431   20.7262 C   0  0  0  0  0  0  0  0  0  0  0  0
  -19.5474  -29.3665   22.1450 C   0  0  0  0  0  0  0  0  0  0  0  0
  -29.9170  -13.8314   21.1818 C   0  0  0  0  0  0  0  0  0  0  0  0
  -19.6904  -28.1515   21.2338 C   0  0  0  0  0  0  0  0  0  0  0  0
  -28.4090  -13.8528   21.4374 C   0  0  0  0  0  0  0  0  0  0  0  0
  -30.3640  -15.0259   20.3418 C   0  0  0  0  0  0  0  0  0  0  0  0
  -28.1263  -15.2187   19.3272 C   0  0  0  0  0  0  0  0  0  0  0  0
  -19.8346  -26.8625   22.0518 C   0  0  1  0  0  0  0  0  0  0  0  0
  -23.5344  -26.1836   22.5844 C   0  0  1  0  0  0  0  0  0  0  0  0
  -27.6196  -14.0038   20.1231 C   0  0  2  0  0  0  0  0  0  0  0  0
  -31.2388  -23.6794   19.3958 C   0  0  0  0  0  0  0  0  0  0  0  0
  -30.4667  -28.7713   20.2932 C   0  0  0  0  0  0  0  0  0  0  0  0
  -27.8533  -16.7878   14.1408 C   0  0  0  0  0  0  0  0  0  0  0  0
  -29.3668  -18.7440   13.9769 C   0  0  0  0  0  0  0  0  0  0  0  0
  -24.0699  -28.4675   18.6023 C   0  0  0  0  0  0  0  0  0  0  0  0
  -26.4354  -28.9826   17.9640 C   0  0  0  0  0  0  0  0  0  0  0  0
  -25.3348  -30.2607   19.8019 C   0  0  0  0  0  0  0  0  0  0  0  0
  -29.7926  -26.1082   22.9256 C   0  0  0  0  0  0  0  0  0  0  0  0
  -30.2413  -19.9288   19.1203 C   0  0  0  0  0  0  0  0  0  0  0  0
  -25.6211  -18.0583   18.5817 C   0  0  0  0  0  0  0  0  0  0  0  0
  -31.2607  -22.1862   19.6810 C   0  0  0  0  0  0  0  0  0  0  0  0
  -30.1992  -21.4448   18.8683 C   0  0  0  0  0  0  0  0  0  0  0  0
  -24.6300  -19.1740   18.2436 C   0  0  0  0  0  0  0  0  0  0  0  0
  -30.2469  -16.5834   14.9222 C   0  0  0  0  0  0  0  0  0  0  0  0
  -29.9468  -15.1634   15.4050 C   0  0  0  0  0  0  0  0  0  0  0  0
  -25.0003  -20.5180   18.8601 C   0  0  0  0  0  0  0  0  0  1  0  0
  -26.0076  -27.8555   20.1950 C   0  0  1  0  0  0  0  0  0  0  0  0
  -29.6304  -27.9990   21.3015 C   0  0  2  0  0  0  0  0  0  0  0  0
  -28.9934  -17.5426   14.9080 C   0  0  0  0  0  0  0  0  0  0  0  0
  -25.4548  -28.8657   19.1504 C   0  0  0  0  0  0  0  0  0  0  0  0
  -25.5423  -15.2707   20.5262 N   0  0  0  0  0  0  0  0  0  0  0  0
  -26.1242  -14.0690   20.3727 N   0  0  0  0  0  0  0  0  0  0  0  0
  -24.5904  -26.3822   21.5896 N   0  0  0  0  0  0  0  0  0  0  0  0
  -29.5774  -15.1113   19.1089 N   0  0  0  0  0  0  0  0  0  0  0  0
  -25.6745  -11.7437   20.3348 N   0  0  0  0  0  0  0  0  0  0  0  0
  -22.4230  -12.4567   22.1553 N   0  0  0  0  0  0  0  0  0  0  0  0
  -21.1795  -26.7422   22.5726 N   0  0  0  0  0  0  0  0  0  0  0  0
  -27.3057  -28.2213   20.7513 N   0  0  0  0  0  0  0  0  0  0  0  0
  -29.4165  -15.1744   16.7502 N   0  0  0  0  0  0  0  0  0  0  0  0
  -30.4818  -26.9316   21.8990 N   0  3  0  0  0  0  0  0  0  0  0  0
  -22.0581  -12.5505   19.8933 O   0  0  0  0  0  0  0  0  0  0  0  0
  -22.1710  -25.7757   20.7003 O   0  0  0  0  0  0  0  0  0  0  0  0
  -24.8022  -28.6526   22.0760 O   0  0  0  0  0  0  0  0  0  0  0  0
  -28.4139  -26.2907   20.1018 O   0  0  0  0  0  0  0  0  0  0  0  0
  -31.4655  -15.0124   17.7661 O   0  0  0  0  0  0  0  0  0  0  0  0
  -20.4915  -19.0140   21.5407 O   0  0  0  0  0  0  0  0  0  0  0  0
  -25.0536  -20.3722   20.2786 O   0  0  0  0  0  0  0  0  0  1  0  0
  -18.9140  -21.9709   17.1621 F   0  0  0  0  0  0  0  0  0  0  0  0
  -17.8435  -19.0738   20.7491 F   0  0  0  0  0  0  0  0  0  0  0  0
  1  2  1  0  0  0  0
  1  5  2  0  0  0  0
  2  6  2  0  0  0  0
  3  8  2  0  0  0  0
  3 18  1  0  0  0  0
  4  9  1  0  0  0  0
  4 18  2  0  0  0  0
  5 20  1  0  0  0  0
  6 22  1  0  0  0  0
  7 10  2  0  0  0  0
  7 21  1  0  0  0  0
  8 27  1  0  0  0  0
  9 27  2  0  0  0  0
 10 28  1  0  0  0  0
 11 12  2  0  0  0  0
 11 29  1  0  0  0  0
 12 30  1  0  0  0  0
 13 23  1  0  0  0  0
 13 28  2  0  0  0  0
 14 24  1  0  0  0  0
 14 25  2  0  0  0  0
 15 24  2  0  0  0  0
 15 26  1  0  0  0  0
 16 25  1  0  0  0  0
 16 26  2  0  0  0  0
 17 30  2  0  0  0  0
 17 31  1  0  0  0  0
 18 32  1  0  0  0  0
 19 32  1  0  0  0  0
 19 33  2  0  0  0  0
 19 34  1  0  0  0  0
 20 22  2  0  0  0  0
 20 39  1  0  0  0  0
 21 23  2  0  0  0  0
 21 40  1  0  0  0  0
 22 48  1  0  0  0  0
 23 41  1  0  0  0  0
 24 59  1  0  0  0  0
 25 60  1  0  0  0  0
 26 69  1  0  0  0  0
 27 86  1  0  0  0  0
 28 87  1  0  0  0  0
 29 31  2  0  0  0  0
 29 86  1  0  0  0  0
 30 88  1  0  0  0  0
 31 89  1  0  0  0  0
 32 71  2  0  0  0  0
 33 72  1  0  0  0  0
 33 75  1  0  0  0  0
 34 76  1  0  0  0  0
 34 81  2  0  0  0  0
 35 49  1  0  0  0  0
 35 77  1  0  0  0  0
 35 82  2  0  0  0  0
 36 67  1  0  0  0  0
 36 73  1  0  0  0  0
 36 83  2  0  0  0  0
 37 68  1  0  0  0  0
 37 78  1  0  0  0  0
 37 84  2  0  0  0  0
 38 74  1  0  0  0  0
 38 79  1  0  0  0  0
 38 85  2  0  0  0  0
 39 42  1  0  0  0  0
 40 49  1  0  0  0  0
 41 73  1  0  0  0  0
 42 44  1  0  0  0  0
 43 45  1  0  0  0  0
 43 46  1  0  0  0  0
 44 48  1  0  0  0  0
 45 50  1  0  0  0  0
 46 74  1  0  0  0  0
 47 50  1  0  0  0  0
 47 74  1  0  0  0  0
 48 77  1  0  0  0  0
 49 73  1  0  0  0  0
 50 72  1  0  0  0  0
 51 61  1  0  0  0  0
 52 68  1  0  0  0  0
 53 69  1  0  0  0  0
 54 69  1  0  0  0  0
 55 70  1  0  0  0  0
 56 70  1  0  0  0  0
 57 70  1  0  0  0  0
 58 80  1  0  0  0  0
 59 62  1  0  0  0  0
 60 63  1  0  0  0  0
 61 62  1  0  0  0  0
 63 66  1  0  0  0  0
 64 65  1  0  0  0  0
 64 69  1  0  0  0  0
 65 79  1  0  0  0  0
 66 87  1  0  0  0  0
 67 70  1  0  0  0  0
 67 78  1  0  0  0  0
 68 80  1  0  0  0  0
 71 72  1  0  0  0  0
M  CHG  1  80   1
M  ISO  4  38 100  66 101  79 100  87 101
M  END
> <Batch ID>
0087

> <Smiles>
CCCCc1cc(CC[101CH2:1][101O:1]c2ccc3c(c2)CN(C(=O)C(NC(=O)C(C)NC)C(C)(C)C)C(C(=O)NC2CCCc4ccccc42)C3)cc(C(C)(C)CC[100NH:0][100C:0](=O)N2CCCC(n3nc(-c4ccc(Oc5ccc(F)cc5F)cc4)c(C(N)=O)c3N)C2)c1

> <Shape>
0.192

> <Color>
0.085

> <Negative vol penalty>
0.000

$$$$

  -OEChem-04052319013D

 85 93  0     1  0  0  0  0  0999 V2000
  -28.2293  -22.9116   14.8937 C   0  0  0  0  0  0  0  0  0  0  0  0
  -27.3667  -22.9864   15.9827 C   0  0  0  0  0  0  0  0  0  0  0  0
  -27.8486  -16.8346   18.7486 C   0  0  0  0  0  0  0  0  0  0  0  0
  -28.0000  -17.1392   21.1406 C   0  0  0  0  0  0  0  0  0  0  0  0
  -29.4203  -23.6364   14.8982 C   0  0  0  0  0  0  0  0  0  0  0  0
  -27.6953  -23.7852   17.0773 C   0  0  0  0  0  0  0  0  0  0  0  0
  -23.7811  -26.5557   18.7049 C   0  0  0  0  0  0  0  0  0  0  0  0
  -28.6158  -17.9831   18.5538 C   0  0  0  0  0  0  0  0  0  0  0  0
  -28.7672  -18.2877   20.9457 C   0  0  0  0  0  0  0  0  0  0  0  0
  -22.8187  -25.9064   19.4768 C   0  0  0  0  0  0  0  0  0  0  0  0
  -28.2429  -21.5229   20.1152 C   0  0  0  0  0  0  0  0  0  0  0  0
  -27.9256  -22.6504   20.8726 C   0  0  0  0  0  0  0  0  0  0  0  0
  -23.8169  -26.8159   21.4756 C   0  0  0  0  0  0  0  0  0  0  0  0
  -20.0824  -17.8851   24.1670 C   0  0  0  0  0  0  0  0  0  0  0  0
  -30.1433  -22.6306   21.8310 C   0  0  0  0  0  0  0  0  0  0  0  0
  -17.9038  -18.7989   24.3307 C   0  0  0  0  0  0  0  0  0  0  0  0
  -27.5406  -16.4127   20.0420 C   0  0  0  0  0  0  0  0  0  0  0  0
  -27.2140  -13.9057   20.3829 C   0  0  0  0  0  0  0  0  0  0  0  0
  -29.7590  -24.4522   15.9893 C   0  0  0  0  0  0  0  0  0  0  0  0
  -24.7769  -27.3325   19.3143 C   0  0  0  0  0  0  0  0  0  0  0  0
  -28.8926  -24.5207   17.0970 C   0  0  0  0  0  0  0  0  0  0  0  0
  -24.7893  -27.4762   20.7091 C   0  0  0  0  0  0  0  0  0  0  0  0
  -19.1345  -18.7815   23.7058 C   0  0  0  0  0  0  0  0  0  0  0  0
  -29.0751  -18.7096   19.6523 C   0  0  0  0  0  0  0  0  0  0  0  0
  -22.8382  -26.0341   20.8626 C   0  0  0  0  0  0  0  0  0  0  0  0
  -29.5103  -20.9491   20.2157 C   0  0  0  0  0  0  0  0  0  0  0  0
  -28.8758  -23.2043   21.7304 C   0  0  0  0  0  0  0  0  0  0  0  0
  -30.4606  -21.5030   21.0736 C   0  0  0  0  0  0  0  0  0  0  0  0
  -26.7476  -15.2267   20.2440 C   0  0  0  0  0  0  0  0  0  0  0  0
  -19.7370  -17.0656   25.2228 C   0  0  0  0  0  0  0  0  0  0  0  0
  -26.0758  -13.1557   20.5513 C   0  0  0  0  0  0  0  0  0  0  0  0
  -28.5561  -13.4017   20.3617 C   0  0  0  0  0  0  0  0  0  0  0  0
  -27.9496  -27.2021   19.4578 C   0  0  0  0  0  0  0  0  0  0  0  0
  -27.6087  -30.0464   20.9797 C   0  0  0  0  0  0  0  0  0  0  0  0
  -25.6229  -32.1338   22.8090 C   0  0  0  0  0  0  0  0  0  0  0  0
  -20.6022  -14.4557   22.6008 C   0  0  0  0  0  0  0  0  0  0  0  0
  -31.0797  -25.1801   15.9691 C   0  0  0  0  0  0  0  0  0  0  0  0
  -25.7919  -28.0483   18.4658 C   0  0  0  0  0  0  0  0  0  0  0  0
  -25.8249  -28.3150   21.4107 C   0  0  0  0  0  0  0  0  0  0  0  0
  -31.1762  -26.2959   17.0064 C   0  0  0  0  0  0  0  0  0  0  0  0
  -21.4285  -13.0963   19.4156 C   0  0  0  0  0  0  0  0  0  0  0  0
  -30.6773  -25.8083   18.3629 C   0  0  0  0  0  0  0  0  0  0  0  0
  -22.9275  -13.3690   19.2792 C   0  0  0  0  0  0  0  0  0  0  0  0
  -20.7109  -14.2357   20.1358 C   0  0  0  0  0  0  0  0  0  0  0  0
  -22.7828  -14.8713   21.3091 C   0  0  0  0  0  0  0  0  0  0  0  0
  -29.2021  -25.3956   18.2924 C   0  0  1  0  0  0  0  0  0  0  0  0
  -27.0677  -28.3964   19.2263 C   0  0  1  0  0  0  0  0  0  0  0  0
  -23.5587  -13.7246   20.6388 C   0  0  2  0  0  0  0  0  0  0  0  0
  -25.6338  -34.3741   23.9395 C   0  0  0  0  0  0  0  0  0  0  0  0
  -21.2989  -13.6196   25.9311 C   0  0  0  0  0  0  0  0  0  0  0  0
  -29.2812  -28.8881   23.2536 C   0  0  0  0  0  0  0  0  0  0  0  0
  -28.4704  -30.7570   24.7089 C   0  0  0  0  0  0  0  0  0  0  0  0
  -29.8155  -31.2603   22.6693 C   0  0  0  0  0  0  0  0  0  0  0  0
  -23.4189  -33.1337   21.1055 C   0  0  0  0  0  0  0  0  0  0  0  0
  -19.4362  -19.7102   22.5566 C   0  0  0  0  0  0  0  0  0  0  0  0
  -20.7215  -16.0830   25.7576 C   0  0  0  0  0  0  0  0  0  0  0  0
  -20.0321  -21.0554   22.9871 C   0  0  0  0  0  0  0  0  0  0  0  0
  -20.4027  -21.9534   21.8026 C   0  0  0  0  0  0  0  0  0  0  0  0
  -20.9631  -23.2928   22.2779 C   0  0  0  0  0  0  0  0  0  0  0  0
  -21.3738  -24.1764   21.1086 C   0  0  0  0  0  0  0  0  0  1  0  0
  -27.4256  -30.4756   22.4154 C   0  0  1  0  0  0  0  0  0  0  0  0
  -25.3118  -33.6125   22.6632 C   0  0  2  0  0  0  0  0  0  0  0  0
  -20.6547  -14.7014   25.0698 C   0  0  1  0  0  0  0  0  0  0  0  0
  -28.7297  -30.3278   23.2490 C   0  0  0  0  0  0  0  0  0  0  0  0
  -17.5931  -17.9852   25.3620 N   0  0  0  0  0  0  0  0  0  0  0  0
  -25.4169  -15.3141   20.3175 N   0  0  0  0  0  0  0  0  0  0  0  0
  -18.5249  -17.1044   25.8155 N   0  0  0  0  0  0  0  0  0  0  0  0
  -25.0373  -14.0386   20.5045 N   0  0  0  0  0  0  0  0  0  0  0  0
  -26.7997  -28.9899   20.5379 N   0  0  0  0  0  0  0  0  0  0  0  0
  -21.3577  -14.5222   21.4186 N   0  0  0  0  0  0  0  0  0  0  0  0
  -25.8720  -11.8337   20.7333 N   0  0  0  0  0  0  0  0  0  0  0  0
  -29.6080  -14.3097   20.1788 N   0  0  0  0  0  0  0  0  0  0  0  0
  -28.3493  -26.5648   18.2987 N   0  0  0  0  0  0  0  0  0  0  0  0
  -26.8955  -31.8340   22.3710 N   0  0  0  0  0  0  0  0  0  0  0  0
  -21.2937  -14.7353   23.7731 N   0  0  0  0  0  0  0  0  0  0  0  0
  -23.8683  -33.8097   22.3497 N   0  3  0  0  0  0  0  0  0  0  0  0
  -28.8139  -12.1803   20.4845 O   0  0  0  0  0  0  0  0  0  0  0  0
  -28.2467  -26.8834   20.6032 O   0  0  0  0  0  0  0  0  0  0  0  0
  -28.4339  -30.6320   20.2741 O   0  0  0  0  0  0  0  0  0  0  0  0
  -24.8188  -31.3261   23.2690 O   0  0  0  0  0  0  0  0  0  0  0  0
  -19.4017  -14.1631   22.6114 O   0  0  0  0  0  0  0  0  0  0  0  0
  -29.8240  -19.8302   19.4626 O   0  0  0  0  0  0  0  0  0  0  0  0
  -21.9004  -25.4008   21.6184 O   0  0  0  0  0  0  0  0  0  1  0  0
  -28.5716  -24.2880   22.4565 F   0  0  0  0  0  0  0  0  0  0  0  0
  -31.6803  -20.9570   21.1735 F   0  0  0  0  0  0  0  0  0  0  0  0
  1  2  1  0  0  0  0
  1  5  2  0  0  0  0
  2  6  2  0  0  0  0
  3  8  2  0  0  0  0
  3 17  1  0  0  0  0
  4  9  1  0  0  0  0
  4 17  2  0  0  0  0
  5 19  1  0  0  0  0
  6 21  1  0  0  0  0
  7 10  2  0  0  0  0
  7 20  1  0  0  0  0
  8 24  1  0  0  0  0
  9 24  2  0  0  0  0
 10 25  1  0  0  0  0
 11 12  2  0  0  0  0
 11 26  1  0  0  0  0
 12 27  1  0  0  0  0
 13 22  1  0  0  0  0
 13 25  2  0  0  0  0
 14 23  2  0  0  0  0
 14 30  1  0  0  0  0
 15 27  2  0  0  0  0
 15 28  1  0  0  0  0
 16 23  1  0  0  0  0
 16 65  2  0  0  0  0
 17 29  1  0  0  0  0
 18 29  1  0  0  0  0
 18 31  2  0  0  0  0
 18 32  1  0  0  0  0
 19 21  2  0  0  0  0
 19 37  1  0  0  0  0
 20 22  2  0  0  0  0
 20 38  1  0  0  0  0
 21 46  1  0  0  0  0
 22 39  1  0  0  0  0
 23 55  1  0  0  0  0
 24 82  1  0  0  0  0
 25 83  1  0  0  0  0
 26 28  2  0  0  0  0
 26 82  1  0  0  0  0
 27 84  1  0  0  0  0
 28 85  1  0  0  0  0
 29 66  2  0  0  0  0
 30 56  1  0  0  0  0
 30 67  2  0  0  0  0
 31 68  1  0  0  0  0
 31 71  1  0  0  0  0
 32 72  1  0  0  0  0
 32 77  2  0  0  0  0
 33 47  1  0  0  0  0
 33 73  1  0  0  0  0
 33 78  2  0  0  0  0
 34 61  1  0  0  0  0
 34 69  1  0  0  0  0
 34 79  2  0  0  0  0
 35 62  1  0  0  0  0
 35 74  1  0  0  0  0
 35 80  2  0  0  0  0
 36 70  1  0  0  0  0
 36 75  1  0  0  0  0
 36 81  2  0  0  0  0
 37 40  1  0  0  0  0
 38 47  1  0  0  0  0
 39 69  1  0  0  0  0
 40 42  1  0  0  0  0
 41 43  1  0  0  0  0
 41 44  1  0  0  0  0
 42 46  1  0  0  0  0
 43 48  1  0  0  0  0
 44 70  1  0  0  0  0
 45 48  1  0  0  0  0
 45 70  1  0  0  0  0
 46 73  1  0  0  0  0
 47 69  1  0  0  0  0
 48 68  1  0  0  0  0
 49 62  1  0  0  0  0
 50 63  1  0  0  0  0
 51 64  1  0  0  0  0
 52 64  1  0  0  0  0
 53 64  1  0  0  0  0
 54 76  1  0  0  0  0
 55 57  1  0  0  0  0
 56 63  1  0  0  0  0
 57 58  1  0  0  0  0
 58 59  1  0  0  0  0
 59 60  1  0  0  0  0
 60 83  1  0  0  0  0
 61 64  1  0  0  0  0
 61 74  1  0  0  0  0
 62 76  1  0  0  0  0
 63 75  1  0  0  0  0
 65 67  1  0  0  0  0
 66 68  1  0  0  0  0
M  CHG  1  76   1
M  ISO  4  36 100  60 101  75 100  83 101
M  END
> <Batch ID>
0087

> <Smiles>
CNC(C)C(=O)NC(C(=O)N1Cc2cc([101O:1][101CH2:1]CCCCc3cnnc(CC(C)[100NH:0][100C:0](=O)N4CCCC(n5nc(-c6ccc(Oc7ccc(F)cc7F)cc6)c(C(N)=O)c5N)C4)c3)ccc2CC1C(=O)NC1CCCc2ccccc21)C(C)(C)C

> <Shape>
0.234

> <Color>
0.076

> <Negative vol penalty>
0.000

$$$$

  -OEChem-04052319013D

 88 96  0     1  0  0  0  0  0999 V2000
  -17.8280  -32.6218   20.2231 C   0  0  0  0  0  0  0  0  0  0  0  0
  -19.1596  -32.4837   19.8449 C   0  0  0  0  0  0  0  0  0  0  0  0
  -26.3583  -17.5709   22.6346 C   0  0  0  0  0  0  0  0  0  0  0  0
  -25.5672  -17.0309   20.4166 C   0  0  0  0  0  0  0  0  0  0  0  0
  -17.4146  -32.1939   21.4840 C   0  0  0  0  0  0  0  0  0  0  0  0
  -20.0790  -31.9185   20.7280 C   0  0  0  0  0  0  0  0  0  0  0  0
  -24.8761  -28.3932   19.2907 C   0  0  0  0  0  0  0  0  0  0  0  0
  -25.5170  -16.5968   23.1719 C   0  0  0  0  0  0  0  0  0  0  0  0
  -24.7258  -16.0567   20.9539 C   0  0  0  0  0  0  0  0  0  0  0  0
  -26.2338  -28.6724   19.1406 C   0  0  0  0  0  0  0  0  0  0  0  0
  -25.0007  -12.8936   22.1115 C   0  0  0  0  0  0  0  0  0  0  0  0
  -24.9608  -11.6522   21.4767 C   0  0  0  0  0  0  0  0  0  0  0  0
  -26.6246  -27.9630   21.4129 C   0  0  0  0  0  0  0  0  0  0  0  0
  -30.6467  -26.9290   20.9768 C   0  0  0  0  0  0  0  0  0  0  0  0
  -22.5962  -11.9360   21.0704 C   0  0  0  0  0  0  0  0  0  0  0  0
  -26.3834  -17.7880   21.2569 C   0  0  0  0  0  0  0  0  0  0  0  0
  -28.5807  -18.6258   20.2682 C   0  0  0  0  0  0  0  0  0  0  0  0
  -18.3275  -31.6143   22.3793 C   0  0  0  0  0  0  0  0  0  0  0  0
  -24.3799  -27.9063   20.5085 C   0  0  0  0  0  0  0  0  0  0  0  0
  -19.6778  -31.4837   22.0026 C   0  0  0  0  0  0  0  0  0  0  0  0
  -25.2606  -27.6760   21.5750 C   0  0  0  0  0  0  0  0  0  0  0  0
  -30.8822  -25.7338   21.6470 C   0  0  0  0  0  0  0  0  0  0  0  0
  -30.7283  -26.9694   19.5894 C   0  0  0  0  0  0  0  0  0  0  0  0
  -24.7007  -15.8396   22.3316 C   0  0  0  0  0  0  0  0  0  0  0  0
  -27.1078  -28.4600   20.2028 C   0  0  0  0  0  0  0  0  0  0  0  0
  -23.8383  -13.6562   22.2258 C   0  0  0  0  0  0  0  0  0  0  0  0
  -23.7586  -11.1734   20.9562 C   0  0  0  0  0  0  0  0  0  0  0  0
  -22.6361  -13.1774   21.7052 C   0  0  0  0  0  0  0  0  0  0  0  0
  -27.2519  -18.7945   20.7013 C   0  0  0  0  0  0  0  0  0  0  0  0
  -31.1933  -24.6160   20.8897 C   0  0  0  0  0  0  0  0  0  0  0  0
  -31.0464  -25.7964   18.9242 C   0  0  0  0  0  0  0  0  0  0  0  0
  -28.9595  -19.8708   19.8290 C   0  0  0  0  0  0  0  0  0  0  0  0
  -29.3995  -17.4488   20.2632 C   0  0  0  0  0  0  0  0  0  0  0  0
  -22.2960  -28.9618   22.6642 C   0  0  0  0  0  0  0  0  0  0  0  0
  -22.7894  -26.0456   23.9965 C   0  0  0  0  0  0  0  0  0  0  0  0
  -24.8365  -23.3410   24.3724 C   0  0  0  0  0  0  0  0  0  0  0  0
  -27.9077  -24.5569   16.9866 C   0  0  0  0  0  0  0  0  0  0  0  0
  -17.8434  -31.2101   23.7494 C   0  0  0  0  0  0  0  0  0  0  0  0
  -22.9169  -27.5848   20.6457 C   0  0  0  0  0  0  0  0  0  0  0  0
  -24.7814  -27.1355   22.8966 C   0  0  0  0  0  0  0  0  0  0  0  0
  -18.8041  -30.2789   24.4845 C   0  0  0  0  0  0  0  0  0  0  0  0
  -26.6973  -24.3674   20.3296 C   0  0  0  0  0  0  0  0  0  0  0  0
  -20.2343  -30.7993   24.3833 C   0  0  0  0  0  0  0  0  0  0  0  0
  -26.8375  -22.8864   20.6859 C   0  0  0  0  0  0  0  0  0  0  0  0
  -26.2970  -24.5609   18.8686 C   0  0  0  0  0  0  0  0  0  0  0  0
  -27.3100  -22.4014   18.2486 C   0  0  0  0  0  0  0  0  0  0  0  0
  -20.6999  -30.8529   22.9232 C   0  0  1  0  0  0  0  0  0  0  0  0
  -22.4398  -27.5788   22.0947 C   0  0  1  0  0  0  0  0  0  0  0  0
  -27.7669  -22.1572   19.6970 C   0  0  2  0  0  0  0  0  0  0  0  0
  -30.7962  -25.6839   23.1333 C   0  0  0  0  0  0  0  0  0  0  0  0
  -31.4574  -23.3050   21.5549 C   0  0  0  0  0  0  0  0  0  0  0  0
  -25.5612  -21.0534   25.1068 C   0  0  0  0  0  0  0  0  0  0  0  0
  -33.0073  -24.1096   17.0611 C   0  0  0  0  0  0  0  0  0  0  0  0
  -23.4427  -27.4867   26.6054 C   0  0  0  0  0  0  0  0  0  0  0  0
  -24.4792  -25.3647   27.4368 C   0  0  0  0  0  0  0  0  0  0  0  0
  -22.0502  -25.4265   26.8720 C   0  0  0  0  0  0  0  0  0  0  0  0
  -31.8153  -25.2843   14.4358 C   0  0  0  0  0  0  0  0  0  0  0  0
  -31.5233  -22.8395   14.7917 C   0  0  0  0  0  0  0  0  0  0  0  0
  -23.7093  -22.0778   21.9450 C   0  0  0  0  0  0  0  0  0  0  0  0
  -30.4740  -28.2638   18.8557 C   0  0  0  0  0  0  0  0  0  0  0  0
  -31.1464  -25.7810   17.4338 C   0  0  0  0  0  0  0  0  0  0  0  0
  -29.5491  -24.3950   15.1322 C   0  0  0  0  0  0  0  0  0  0  0  0
  -28.9880  -28.5894   18.7522 C   0  0  0  0  0  0  0  0  0  1  0  0
  -23.7579  -25.4826   25.0085 C   0  0  1  0  0  0  0  0  0  0  0  0
  -24.5634  -21.8505   24.2811 C   0  0  2  0  0  0  0  0  0  0  0  0
  -31.5117  -24.3930   16.8198 C   0  0  1  0  0  0  0  0  0  0  0  0
  -23.4415  -25.9522   26.4565 C   0  0  0  0  0  0  0  0  0  0  0  0
  -31.0822  -24.2331   15.3036 C   0  0  0  0  0  0  0  0  0  0  0  0
  -26.8159  -20.0480   20.5511 N   0  0  0  0  0  0  0  0  0  0  0  0
  -31.2818  -24.6165   19.5407 N   0  0  0  0  0  0  0  0  0  0  0  0
  -27.8768  -20.6783   20.0187 N   0  0  0  0  0  0  0  0  0  0  0  0
  -23.3412  -26.8426   22.9835 N   0  0  0  0  0  0  0  0  0  0  0  0
  -27.2192  -23.8457   17.9831 N   0  0  0  0  0  0  0  0  0  0  0  0
  -30.1097  -20.3428   19.3031 N   0  0  0  0  0  0  0  0  0  0  0  0
  -28.8537  -16.2531   20.7498 N   0  0  0  0  0  0  0  0  0  0  0  0
  -21.0533  -29.5293   22.4565 N   0  0  0  0  0  0  0  0  0  0  0  0
  -23.7369  -24.0346   24.8319 N   0  0  0  0  0  0  0  0  0  0  0  0
  -28.7667  -23.8043   16.1951 N   0  0  0  0  0  0  0  0  0  0  0  0
  -24.6531  -21.3932   22.8656 N   0  3  0  0  0  0  0  0  0  0  0  0
  -30.5856  -17.4608   19.8550 O   0  0  0  0  0  0  0  0  0  0  0  0
  -23.2419  -29.4753   23.2501 O   0  0  0  0  0  0  0  0  0  0  0  0
  -21.5886  -25.7819   24.0968 O   0  0  0  0  0  0  0  0  0  0  0  0
  -25.9184  -23.8397   24.0702 O   0  0  0  0  0  0  0  0  0  0  0  0
  -27.7713  -25.7735   16.8183 O   0  0  0  0  0  0  0  0  0  0  0  0
  -23.8797  -14.8888   22.8555 O   0  0  0  0  0  0  0  0  0  0  0  0
  -28.4334  -28.7323   20.0592 O   0  0  0  0  0  0  0  0  0  1  0  0
  -23.7207   -9.9820   20.3453 F   0  0  0  0  0  0  0  0  0  0  0  0
  -21.5164  -13.9060   21.8109 F   0  0  0  0  0  0  0  0  0  0  0  0
  1  2  1  0  0  0  0
  1  5  2  0  0  0  0
  2  6  2  0  0  0  0
  3  8  2  0  0  0  0
  3 16  1  0  0  0  0
  4  9  1  0  0  0  0
  4 16  2  0  0  0  0
  5 18  1  0  0  0  0
  6 20  1  0  0  0  0
  7 10  2  0  0  0  0
  7 19  1  0  0  0  0
  8 24  1  0  0  0  0
  9 24  2  0  0  0  0
 10 25  1  0  0  0  0
 11 12  2  0  0  0  0
 11 26  1  0  0  0  0
 12 27  1  0  0  0  0
 13 21  1  0  0  0  0
 13 25  2  0  0  0  0
 14 22  2  0  0  0  0
 14 23  1  0  0  0  0
 15 27  2  0  0  0  0
 15 28  1  0  0  0  0
 16 29  1  0  0  0  0
 17 29  1  0  0  0  0
 17 32  2  0  0  0  0
 17 33  1  0  0  0  0
 18 20  2  0  0  0  0
 18 38  1  0  0  0  0
 19 21  2  0  0  0  0
 19 39  1  0  0  0  0
 20 47  1  0  0  0  0
 21 40  1  0  0  0  0
 22 30  1  0  0  0  0
 22 50  1  0  0  0  0
 23 31  2  0  0  0  0
 23 60  1  0  0  0  0
 24 85  1  0  0  0  0
 25 86  1  0  0  0  0
 26 28  2  0  0  0  0
 26 85  1  0  0  0  0
 27 87  1  0  0  0  0
 28 88  1  0  0  0  0
 29 69  2  0  0  0  0
 30 51  1  0  0  0  0
 30 70  2  0  0  0  0
 31 61  1  0  0  0  0
 31 70  1  0  0  0  0
 32 71  1  0  0  0  0
 32 74  1  0  0  0  0
 33 75  1  0  0  0  0
 33 80  2  0  0  0  0
 34 48  1  0  0  0  0
 34 76  1  0  0  0  0
 34 81  2  0  0  0  0
 35 64  1  0  0  0  0
 35 72  1  0  0  0  0
 35 82  2  0  0  0  0
 36 65  1  0  0  0  0
 36 77  1  0  0  0  0
 36 83  2  0  0  0  0
 37 73  1  0  0  0  0
 37 78  1  0  0  0  0
 37 84  2  0  0  0  0
 38 41  1  0  0  0  0
 39 48  1  0  0  0  0
 40 72  1  0  0  0  0
 41 43  1  0  0  0  0
 42 44  1  0  0  0  0
 42 45  1  0  0  0  0
 43 47  1  0  0  0  0
 44 49  1  0  0  0  0
 45 73  1  0  0  0  0
 46 49  1  0  0  0  0
 46 73  1  0  0  0  0
 47 76  1  0  0  0  0
 48 72  1  0  0  0  0
 49 71  1  0  0  0  0
 52 65  1  0  0  0  0
 53 66  1  0  0  0  0
 54 67  1  0  0  0  0
 55 67  1  0  0  0  0
 56 67  1  0  0  0  0
 57 68  1  0  0  0  0
 58 68  1  0  0  0  0
 59 79  1  0  0  0  0
 60 63  1  0  0  0  0
 61 66  1  0  0  0  0
 62 68  1  0  0  0  0
 62 78  1  0  0  0  0
 63 86  1  0  0  0  0
 64 67  1  0  0  0  0
 64 77  1  0  0  0  0
 65 79  1  0  0  0  0
 66 68  1  0  0  0  0
 69 71  1  0  0  0  0
M  CHG  1  79   1
M  ISO  4  37 100  63 101  78 100  86 101
M  END
> <Batch ID>
0087

> <Smiles>
CNC(C)C(=O)NC(C(=O)N1Cc2cc([101O:1][101CH2:1]Cc3cc(C)c(C)nc3CC(C)C(C)(C)C[100NH:0][100C:0](=O)N3CCCC(n4nc(-c5ccc(Oc6ccc(F)cc6F)cc5)c(C(N)=O)c4N)C3)ccc2CC1C(=O)NC1CCCc2ccccc21)C(C)(C)C

> <Shape>
0.202

> <Color>
0.079

> <Negative vol penalty>
0.000

$$$$

  -OEChem-04052319013D

 87 95  0     1  0  0  0  0  0999 V2000
  -32.2907  -12.8488   20.4188 C   0  0  0  0  0  0  0  0  0  0  0  0
  -31.7232  -14.0776   20.7404 C   0  0  0  0  0  0  0  0  0  0  0  0
  -22.5733  -28.4893   23.1380 C   0  0  0  0  0  0  0  0  0  0  0  0
  -22.3405  -26.2067   22.3815 C   0  0  0  0  0  0  0  0  0  0  0  0
  -31.5034  -11.8441   19.8581 C   0  0  0  0  0  0  0  0  0  0  0  0
  -30.3682  -14.3027   20.5004 C   0  0  0  0  0  0  0  0  0  0  0  0
  -26.5440  -17.6898   23.8781 C   0  0  0  0  0  0  0  0  0  0  0  0
  -21.2701  -28.7604   22.7212 C   0  0  0  0  0  0  0  0  0  0  0  0
  -21.0373  -26.4777   21.9648 C   0  0  0  0  0  0  0  0  0  0  0  0
  -26.0785  -18.9968   23.7411 C   0  0  0  0  0  0  0  0  0  0  0  0
  -17.8796  -29.9571   22.1851 C   0  0  0  0  0  0  0  0  0  0  0  0
  -17.0586  -30.6792   23.0513 C   0  0  0  0  0  0  0  0  0  0  0  0
  -24.0922  -18.1686   22.6512 C   0  0  0  0  0  0  0  0  0  0  0  0
  -25.8482  -20.4192   19.7623 C   0  0  0  0  0  0  0  0  0  0  0  0
  -26.1822  -22.6625   18.9621 C   0  0  0  0  0  0  0  0  0  0  0  0
  -17.3081  -28.9549   24.7251 C   0  0  0  0  0  0  0  0  0  0  0  0
  -23.1086  -27.2125   22.9681 C   0  0  0  0  0  0  0  0  0  0  0  0
  -24.8647  -26.4707   24.6633 C   0  0  0  0  0  0  0  0  0  0  0  0
  -30.1359  -12.0536   19.6200 C   0  0  0  0  0  0  0  0  0  0  0  0
  -25.7909  -16.6114   23.3922 C   0  0  0  0  0  0  0  0  0  0  0  0
  -29.5621  -13.3003   19.9347 C   0  0  0  0  0  0  0  0  0  0  0  0
  -24.5492  -16.8487   22.7856 C   0  0  0  0  0  0  0  0  0  0  0  0
  -25.4892  -21.7624   19.7638 C   0  0  0  0  0  0  0  0  0  0  0  0
  -20.5020  -27.7546   22.1346 C   0  0  0  0  0  0  0  0  0  0  0  0
  -24.8537  -19.2366   23.1249 C   0  0  0  0  0  0  0  0  0  0  0  0
  -18.4147  -28.7339   22.5889 C   0  0  0  0  0  0  0  0  0  0  0  0
  -16.7729  -30.1781   24.3213 C   0  0  0  0  0  0  0  0  0  0  0  0
  -18.1290  -28.2328   23.8589 C   0  0  0  0  0  0  0  0  0  0  0  0
  -24.4549  -26.9321   23.3979 C   0  0  0  0  0  0  0  0  0  0  0  0
  -26.8992  -20.0298   18.9476 C   0  0  0  0  0  0  0  0  0  0  0  0
  -27.2183  -22.1727   18.1834 C   0  0  0  0  0  0  0  0  0  0  0  0
  -26.2304  -26.3635   24.5639 C   0  0  0  0  0  0  0  0  0  0  0  0
  -24.0809  -26.1663   25.8246 C   0  0  0  0  0  0  0  0  0  0  0  0
  -26.2551  -14.3598   21.1970 C   0  0  0  0  0  0  0  0  0  0  0  0
  -23.4432  -13.2147   22.3393 C   0  0  0  0  0  0  0  0  0  0  0  0
  -20.5000  -13.8407   23.9494 C   0  0  0  0  0  0  0  0  0  0  0  0
  -29.9310  -25.5653   19.9251 C   0  0  0  0  0  0  0  0  0  0  0  0
  -29.3356  -10.9538   18.9683 C   0  0  0  0  0  0  0  0  0  0  0  0
  -26.2947  -15.2055   23.5717 C   0  0  0  0  0  0  0  0  0  0  0  0
  -23.6930  -15.7242   22.2652 C   0  0  0  0  0  0  0  0  0  0  0  0
  -27.8260  -11.1437   19.0922 C   0  0  0  0  0  0  0  0  0  0  0  0
  -29.9770  -28.2502   22.2630 C   0  0  0  0  0  0  0  0  0  0  0  0
  -27.4382  -12.5778   18.7462 C   0  0  0  0  0  0  0  0  0  0  0  0
  -28.6039  -28.1752   22.9331 C   0  0  0  0  0  0  0  0  0  0  0  0
  -29.9020  -27.8897   20.7809 C   0  0  0  0  0  0  0  0  0  0  0  0
  -27.8906  -26.5173   21.1608 C   0  0  0  0  0  0  0  0  0  0  0  0
  -28.0905  -13.5741   19.7122 C   0  0  1  0  0  0  0  0  0  0  0  0
  -25.6837  -14.2206   22.5797 C   0  0  1  0  0  0  0  0  0  0  0  0
  -27.9244  -26.8181   22.6690 C   0  0  2  0  0  0  0  0  0  0  0  0
  -28.7560  -18.3892   19.4107 C   0  0  0  0  0  0  0  0  0  0  0  0
  -27.1367  -17.9613   17.5266 C   0  0  0  0  0  0  0  0  0  0  0  0
  -27.8087  -22.7642   15.8183 C   0  0  0  0  0  0  0  0  0  0  0  0
  -18.3879  -12.7139   24.7020 C   0  0  0  0  0  0  0  0  0  0  0  0
  -22.4128  -13.2334   19.4674 C   0  0  0  0  0  0  0  0  0  0  0  0
  -20.0880  -13.0283   20.3740 C   0  0  0  0  0  0  0  0  0  0  0  0
  -21.7544  -11.2213   20.7989 C   0  0  0  0  0  0  0  0  0  0  0  0
  -21.0484  -14.4543   26.7923 C   0  0  0  0  0  0  0  0  0  0  0  0
  -24.3521  -22.2409   20.6308 C   0  0  0  0  0  0  0  0  0  0  0  0
  -24.7868  -22.6765   22.0318 C   0  0  0  0  0  0  0  0  0  0  0  0
  -29.5037  -23.1858   17.6428 C   0  0  0  0  0  0  0  0  0  0  0  0
  -29.8149  -23.2140   19.1394 C   0  0  0  0  0  0  0  0  0  0  0  0
  -25.3763  -21.5417   22.8612 C   0  0  0  0  0  0  0  0  0  1  0  0
  -27.3111  -18.5958   18.9191 C   0  0  0  0  0  0  0  0  0  0  0  0
  -27.9848  -23.1109   17.3122 C   0  0  2  0  0  0  0  0  0  0  0  0
  -21.9867  -13.4305   22.0062 C   0  0  1  0  0  0  0  0  0  0  0  0
  -19.8017  -13.1198   25.0883 C   0  0  2  0  0  0  0  0  0  0  0  0
  -21.5773  -12.7499   20.6696 C   0  0  0  0  0  0  0  0  0  0  0  0
  -25.4776  -27.1061   22.5565 N   0  0  0  0  0  0  0  0  0  0  0  0
  -27.5960  -20.8749   18.1553 N   0  0  0  0  0  0  0  0  0  0  0  0
  -26.5435  -26.7523   23.2947 N   0  0  0  0  0  0  0  0  0  0  0  0
  -24.2319  -14.3678   22.4586 N   0  0  0  0  0  0  0  0  0  0  0  0
  -29.2486  -26.5913   20.5993 N   0  0  0  0  0  0  0  0  0  0  0  0
  -27.1820  -25.9756   25.4394 N   0  0  0  0  0  0  0  0  0  0  0  0
  -22.6909  -26.3320   25.7547 N   0  0  0  0  0  0  0  0  0  0  0  0
  -27.3822  -13.5921   20.9742 N   0  0  0  0  0  0  0  0  0  0  0  0
  -21.2304  -12.9719   23.1664 N   0  0  0  0  0  0  0  0  0  0  0  0
  -29.2424  -24.3647   19.8020 N   0  0  0  0  0  0  0  0  0  0  0  0
  -19.7268  -13.9989   26.2893 N   0  3  0  0  0  0  0  0  0  0  0  0
  -24.5994  -25.7751   26.8977 O   0  0  0  0  0  0  0  0  0  0  0  0
  -25.7125  -15.1071   20.3915 O   0  0  0  0  0  0  0  0  0  0  0  0
  -23.8641  -12.0657   22.4951 O   0  0  0  0  0  0  0  0  0  0  0  0
  -20.4040  -15.0528   23.7700 O   0  0  0  0  0  0  0  0  0  0  0  0
  -31.0717  -25.7069   19.4714 O   0  0  0  0  0  0  0  0  0  0  0  0
  -19.2302  -28.0186   21.7281 O   0  0  0  0  0  0  0  0  0  0  0  0
  -24.3973  -20.5114   22.9893 O   0  0  0  0  0  0  0  0  0  1  0  0
  -15.9858  -30.8723   25.1536 F   0  0  0  0  0  0  0  0  0  0  0  0
  -18.6412  -27.0588   24.2528 F   0  0  0  0  0  0  0  0  0  0  0  0
  1  2  1  0  0  0  0
  1  5  2  0  0  0  0
  2  6  2  0  0  0  0
  3  8  2  0  0  0  0
  3 17  1  0  0  0  0
  4  9  1  0  0  0  0
  4 17  2  0  0  0  0
  5 19  1  0  0  0  0
  6 21  1  0  0  0  0
  7 10  2  0  0  0  0
  7 20  1  0  0  0  0
  8 24  1  0  0  0  0
  9 24  2  0  0  0  0
 10 25  1  0  0  0  0
 11 12  2  0  0  0  0
 11 26  1  0  0  0  0
 12 27  1  0  0  0  0
 13 22  1  0  0  0  0
 13 25  2  0  0  0  0
 14 23  1  0  0  0  0
 14 30  2  0  0  0  0
 15 23  2  0  0  0  0
 15 31  1  0  0  0  0
 16 27  2  0  0  0  0
 16 28  1  0  0  0  0
 17 29  1  0  0  0  0
 18 29  1  0  0  0  0
 18 32  2  0  0  0  0
 18 33  1  0  0  0  0
 19 21  2  0  0  0  0
 19 38  1  0  0  0  0
 20 22  2  0  0  0  0
 20 39  1  0  0  0  0
 21 47  1  0  0  0  0
 22 40  1  0  0  0  0
 23 58  1  0  0  0  0
 24 84  1  0  0  0  0
 25 85  1  0  0  0  0
 26 28  2  0  0  0  0
 26 84  1  0  0  0  0
 27 86  1  0  0  0  0
 28 87  1  0  0  0  0
 29 68  2  0  0  0  0
 30 63  1  0  0  0  0
 30 69  1  0  0  0  0
 31 64  1  0  0  0  0
 31 69  2  0  0  0  0
 32 70  1  0  0  0  0
 32 73  1  0  0  0  0
 33 74  1  0  0  0  0
 33 79  2  0  0  0  0
 34 48  1  0  0  0  0
 34 75  1  0  0  0  0
 34 80  2  0  0  0  0
 35 65  1  0  0  0  0
 35 71  1  0  0  0  0
 35 81  2  0  0  0  0
 36 66  1  0  0  0  0
 36 76  1  0  0  0  0
 36 82  2  0  0  0  0
 37 72  1  0  0  0  0
 37 77  1  0  0  0  0
 37 83  2  0  0  0  0
 38 41  1  0  0  0  0
 39 48  1  0  0  0  0
 40 71  1  0  0  0  0
 41 43  1  0  0  0  0
 42 44  1  0  0  0  0
 42 45  1  0  0  0  0
 43 47  1  0  0  0  0
 44 49  1  0  0  0  0
 45 72  1  0  0  0  0
 46 49  1  0  0  0  0
 46 72  1  0  0  0  0
 47 75  1  0  0  0  0
 48 71  1  0  0  0  0
 49 70  1  0  0  0  0
 50 63  1  0  0  0  0
 51 63  1  0  0  0  0
 52 64  1  0  0  0  0
 53 66  1  0  0  0  0
 54 67  1  0  0  0  0
 55 67  1  0  0  0  0
 56 67  1  0  0  0  0
 57 78  1  0  0  0  0
 58 59  1  0  0  0  0
 59 62  1  0  0  0  0
 60 61  1  0  0  0  0
 60 64  1  0  0  0  0
 61 77  1  0  0  0  0
 62 85  1  0  0  0  0
 65 67  1  0  0  0  0
 65 76  1  0  0  0  0
 66 78  1  0  0  0  0
 68 70  1  0  0  0  0
M  CHG  1  78   1
M  ISO  4  37 100  62 101  77 100  85 101
M  END
> <Batch ID>
0087

> <Smiles>
CNC(C)C(=O)NC(C(=O)N1Cc2cc([101O:1][101CH2:1]CCc3cc(C(C)C)nc(C(C)CC[100NH:0][100C:0](=O)N4CCCC(n5nc(-c6ccc(Oc7ccc(F)cc7F)cc6)c(C(N)=O)c5N)C4)c3)ccc2CC1C(=O)NC1CCCc2ccccc21)C(C)(C)C

> <Shape>
0.219

> <Color>
0.064

> <Negative vol penalty>
0.000

$$$$

  -OEChem-04052319013D

 85 93  0     1  0  0  0  0  0999 V2000
  -34.8685  -25.3125   20.5058 C   0  0  0  0  0  0  0  0  0  0  0  0
  -33.7876  -24.4596   20.3069 C   0  0  0  0  0  0  0  0  0  0  0  0
  -22.4086  -10.4452   20.2968 C   0  0  0  0  0  0  0  0  0  0  0  0
  -24.2812   -9.6584   21.6049 C   0  0  0  0  0  0  0  0  0  0  0  0
  -34.6487  -26.6529   20.8206 C   0  0  0  0  0  0  0  0  0  0  0  0
  -32.4861  -24.9464   20.4239 C   0  0  0  0  0  0  0  0  0  0  0  0
  -29.4739  -23.3585   16.6755 C   0  0  0  0  0  0  0  0  0  0  0  0
  -21.6551   -9.3489   20.7160 C   0  0  0  0  0  0  0  0  0  0  0  0
  -23.5277   -8.5620   22.0242 C   0  0  0  0  0  0  0  0  0  0  0  0
  -28.9863  -22.0551   16.7593 C   0  0  0  0  0  0  0  0  0  0  0  0
  -19.9219   -8.4232   23.4678 C   0  0  0  0  0  0  0  0  0  0  0  0
  -18.6093   -8.6573   23.8774 C   0  0  0  0  0  0  0  0  0  0  0  0
  -26.8858  -22.9008   17.5912 C   0  0  0  0  0  0  0  0  0  0  0  0
  -27.9120  -18.5597   20.6534 C   0  0  0  0  0  0  0  0  0  0  0  0
  -28.6719  -17.9839   18.4453 C   0  0  0  0  0  0  0  0  0  0  0  0
  -17.8043   -7.1838   22.1402 C   0  0  0  0  0  0  0  0  0  0  0  0
  -23.7217  -10.6000   20.7412 C   0  0  0  0  0  0  0  0  0  0  0  0
  -24.5929  -12.9899   20.9333 C   0  0  0  0  0  0  0  0  0  0  0  0
  -33.3439  -27.1585   20.9320 C   0  0  0  0  0  0  0  0  0  0  0  0
  -28.6736  -24.4440   17.0599 C   0  0  0  0  0  0  0  0  0  0  0  0
  -32.2487  -26.2944   20.7418 C   0  0  0  0  0  0  0  0  0  0  0  0
  -27.3648  -24.2173   17.5089 C   0  0  0  0  0  0  0  0  0  0  0  0
  -27.6681  -18.4460   19.2893 C   0  0  0  0  0  0  0  0  0  0  0  0
  -22.2146   -8.4073   21.5797 C   0  0  0  0  0  0  0  0  0  0  0  0
  -27.6931  -21.8259   17.2200 C   0  0  0  0  0  0  0  0  0  0  0  0
  -20.1757   -7.5695   22.3942 C   0  0  0  0  0  0  0  0  0  0  0  0
  -17.5505   -8.0376   23.2137 C   0  0  0  0  0  0  0  0  0  0  0  0
  -19.1169   -6.9498   21.7305 C   0  0  0  0  0  0  0  0  0  0  0  0
  -24.5008  -11.7320   20.3081 C   0  0  0  0  0  0  0  0  0  0  0  0
  -29.1665  -18.2013   21.1200 C   0  0  0  0  0  0  0  0  0  0  0  0
  -29.8924  -17.6515   19.0108 C   0  0  0  0  0  0  0  0  0  0  0  0
  -25.4517  -13.7072   20.1368 C   0  0  0  0  0  0  0  0  0  0  0  0
  -23.9588  -13.4673   22.1273 C   0  0  0  0  0  0  0  0  0  0  0  0
  -28.8773  -26.7037   19.2861 C   0  0  0  0  0  0  0  0  0  0  0  0
  -26.2363  -27.8601   17.7995 C   0  0  0  0  0  0  0  0  0  0  0  0
  -23.5111  -27.2439   15.8398 C   0  0  0  0  0  0  0  0  0  0  0  0
  -30.1536  -14.0847   17.1543 C   0  0  0  0  0  0  0  0  0  0  0  0
  -33.1561  -28.6036   21.3206 C   0  0  0  0  0  0  0  0  0  0  0  0
  -29.2051  -25.8458   16.9382 C   0  0  0  0  0  0  0  0  0  0  0  0
  -26.4582  -25.3496   17.9145 C   0  0  0  0  0  0  0  0  0  0  0  0
  -31.7464  -29.1269   21.0574 C   0  0  0  0  0  0  0  0  0  0  0  0
  -27.3022  -12.6915   15.5401 C   0  0  0  0  0  0  0  0  0  0  0  0
  -30.7052  -28.1345   21.5650 C   0  0  0  0  0  0  0  0  0  0  0  0
  -26.3300  -12.4159   16.6884 C   0  0  0  0  0  0  0  0  0  0  0  0
  -28.7500  -12.4348   15.9524 C   0  0  0  0  0  0  0  0  0  0  0  0
  -28.2110  -12.8720   18.3172 C   0  0  0  0  0  0  0  0  0  0  0  0
  -30.8221  -26.7907   20.8356 C   0  0  1  0  0  0  0  0  0  0  0  0
  -28.4825  -26.8394   17.8427 C   0  0  1  0  0  0  0  0  0  0  0  0
  -26.7433  -13.1705   17.9663 C   0  0  2  0  0  0  0  0  0  0  0  0
  -30.5946  -19.3108   22.8758 C   0  0  0  0  0  0  0  0  0  0  0  0
  -29.7926  -16.9449   23.2137 C   0  0  0  0  0  0  0  0  0  0  0  0
  -32.2088  -18.1032   18.1425 C   0  0  0  0  0  0  0  0  0  0  0  0
  -21.5160  -28.3799   14.8265 C   0  0  0  0  0  0  0  0  0  0  0  0
  -24.8579  -27.8621   20.5216 C   0  0  0  0  0  0  0  0  0  0  0  0
  -22.6648  -28.0767   19.3332 C   0  0  0  0  0  0  0  0  0  0  0  0
  -24.3830  -29.8714   19.1104 C   0  0  0  0  0  0  0  0  0  0  0  0
  -24.4032  -26.6128   13.0893 C   0  0  0  0  0  0  0  0  0  0  0  0
  -26.3187  -18.8218   18.7270 C   0  0  0  0  0  0  0  0  0  0  0  0
  -31.4598  -15.7210   18.4867 C   0  0  0  0  0  0  0  0  0  0  0  0
  -26.2486  -20.2895   18.3195 C   0  0  0  0  0  0  0  0  0  1  0  0
  -29.4635  -18.3087   22.5784 C   0  0  0  0  0  0  0  0  0  0  0  0
  -30.9929  -17.1539   18.1344 C   0  0  1  0  0  0  0  0  0  0  0  0
  -24.7483  -27.6548   17.9504 C   0  0  1  0  0  0  0  0  0  0  0  0
  -22.9640  -27.9635   14.6201 C   0  0  2  0  0  0  0  0  0  0  0  0
  -24.1810  -28.3446   19.2232 C   0  0  0  0  0  0  0  0  0  0  0  0
  -25.2419  -11.6516   19.1997 N   0  0  0  0  0  0  0  0  0  0  0  0
  -30.1665  -17.7485   20.3310 N   0  0  0  0  0  0  0  0  0  0  0  0
  -25.8078  -12.8681   19.1223 N   0  0  0  0  0  0  0  0  0  0  0  0
  -27.0259  -26.7016   17.7836 N   0  0  0  0  0  0  0  0  0  0  0  0
  -29.0786  -13.1807   17.1696 N   0  0  0  0  0  0  0  0  0  0  0  0
  -25.9295  -14.9676   20.2123 N   0  0  0  0  0  0  0  0  0  0  0  0
  -23.1066  -12.5997   22.8240 N   0  0  0  0  0  0  0  0  0  0  0  0
  -30.2283  -26.8772   19.5186 N   0  0  0  0  0  0  0  0  0  0  0  0
  -24.1446  -28.1122   16.7035 N   0  0  0  0  0  0  0  0  0  0  0  0
  -30.3930  -14.7549   18.3477 N   0  0  0  0  0  0  0  0  0  0  0  0
  -23.0326  -27.0788   13.4228 N   0  3  0  0  0  0  0  0  0  0  0  0
  -24.1296  -14.6343   22.5546 O   0  0  0  0  0  0  0  0  0  0  0  0
  -28.0194  -26.4610   20.1268 O   0  0  0  0  0  0  0  0  0  0  0  0
  -26.6809  -29.0057   17.6922 O   0  0  0  0  0  0  0  0  0  0  0  0
  -23.3855  -26.0334   16.0110 O   0  0  0  0  0  0  0  0  0  0  0  0
  -30.8451  -14.2840   16.1498 O   0  0  0  0  0  0  0  0  0  0  0  0
  -21.4795   -7.3375   21.9892 O   0  0  0  0  0  0  0  0  0  0  0  0
  -27.2148  -20.5546   17.3034 O   0  0  0  0  0  0  0  0  0  1  0  0
  -16.2901   -8.2613   23.6082 F   0  0  0  0  0  0  0  0  0  0  0  0
  -19.3546   -6.1276   20.6993 F   0  0  0  0  0  0  0  0  0  0  0  0
  1  2  1  0  0  0  0
  1  5  2  0  0  0  0
  2  6  2  0  0  0  0
  3  8  2  0  0  0  0
  3 17  1  0  0  0  0
  4  9  1  0  0  0  0
  4 17  2  0  0  0  0
  5 19  1  0  0  0  0
  6 21  1  0  0  0  0
  7 10  2  0  0  0  0
  7 20  1  0  0  0  0
  8 24  1  0  0  0  0
  9 24  2  0  0  0  0
 10 25  1  0  0  0  0
 11 12  2  0  0  0  0
 11 26  1  0  0  0  0
 12 27  1  0  0  0  0
 13 22  1  0  0  0  0
 13 25  2  0  0  0  0
 14 23  1  0  0  0  0
 14 30  2  0  0  0  0
 15 23  2  0  0  0  0
 15 31  1  0  0  0  0
 16 27  2  0  0  0  0
 16 28  1  0  0  0  0
 17 29  1  0  0  0  0
 18 29  1  0  0  0  0
 18 32  2  0  0  0  0
 18 33  1  0  0  0  0
 19 21  2  0  0  0  0
 19 38  1  0  0  0  0
 20 22  2  0  0  0  0
 20 39  1  0  0  0  0
 21 47  1  0  0  0  0
 22 40  1  0  0  0  0
 23 58  1  0  0  0  0
 24 82  1  0  0  0  0
 25 83  1  0  0  0  0
 26 28  2  0  0  0  0
 26 82  1  0  0  0  0
 27 84  1  0  0  0  0
 28 85  1  0  0  0  0
 29 66  2  0  0  0  0
 30 61  1  0  0  0  0
 30 67  1  0  0  0  0
 31 62  1  0  0  0  0
 31 67  2  0  0  0  0
 32 68  1  0  0  0  0
 32 71  1  0  0  0  0
 33 72  1  0  0  0  0
 33 77  2  0  0  0  0
 34 48  1  0  0  0  0
 34 73  1  0  0  0  0
 34 78  2  0  0  0  0
 35 63  1  0  0  0  0
 35 69  1  0  0  0  0
 35 79  2  0  0  0  0
 36 64  1  0  0  0  0
 36 74  1  0  0  0  0
 36 80  2  0  0  0  0
 37 70  1  0  0  0  0
 37 75  1  0  0  0  0
 37 81  2  0  0  0  0
 38 41  1  0  0  0  0
 39 48  1  0  0  0  0
 40 69  1  0  0  0  0
 41 43  1  0  0  0  0
 42 44  1  0  0  0  0
 42 45  1  0  0  0  0
 43 47  1  0  0  0  0
 44 49  1  0  0  0  0
 45 70  1  0  0  0  0
 46 49  1  0  0  0  0
 46 70  1  0  0  0  0
 47 73  1  0  0  0  0
 48 69  1  0  0  0  0
 49 68  1  0  0  0  0
 50 61  1  0  0  0  0
 51 61  1  0  0  0  0
 52 62  1  0  0  0  0
 53 64  1  0  0  0  0
 54 65  1  0  0  0  0
 55 65  1  0  0  0  0
 56 65  1  0  0  0  0
 57 76  1  0  0  0  0
 58 60  1  0  0  0  0
 59 62  1  0  0  0  0
 59 75  1  0  0  0  0
 60 83  1  0  0  0  0
 63 65  1  0  0  0  0
 63 74  1  0  0  0  0
 64 76  1  0  0  0  0
 66 68  1  0  0  0  0
M  CHG  1  76   1
M  ISO  4  37 100  60 101  75 100  83 101
M  END
> <Batch ID>
0087

> <Smiles>
CNC(C)C(=O)NC(C(=O)N1Cc2cc([101O:1][101CH2:1]Cc3cc(C(C)C)nc(C(C)C[100NH:0][100C:0](=O)N4CCCC(n5nc(-c6ccc(Oc7ccc(F)cc7F)cc6)c(C(N)=O)c5N)C4)c3)ccc2CC1C(=O)NC1CCCc2ccccc21)C(C)(C)C

> <Shape>
0.202

> <Color>
0.104

> <Negative vol penalty>
0.000

$$$$

  -OEChem-04052319013D

 83 91  0     1  0  0  0  0  0999 V2000
  -27.7637  -23.5247   17.9417 C   0  0  0  0  0  0  0  0  0  0  0  0
  -26.6015  -23.8666   18.6257 C   0  0  0  0  0  0  0  0  0  0  0  0
  -26.3035  -13.6735   19.8593 C   0  0  0  0  0  0  0  0  0  0  0  0
  -24.1960  -13.8584   21.0260 C   0  0  0  0  0  0  0  0  0  0  0  0
  -28.9861  -24.0715   18.3300 C   0  0  0  0  0  0  0  0  0  0  0  0
  -26.6612  -24.7546   19.6992 C   0  0  0  0  0  0  0  0  0  0  0  0
  -22.9875  -28.2367   19.5466 C   0  0  0  0  0  0  0  0  0  0  0  0
  -26.3812  -12.3265   20.2130 C   0  0  0  0  0  0  0  0  0  0  0  0
  -24.2736  -12.5113   21.3797 C   0  0  0  0  0  0  0  0  0  0  0  0
  -21.7155  -27.8387   19.9560 C   0  0  0  0  0  0  0  0  0  0  0  0
  -23.7120   -9.5172   19.9167 C   0  0  0  0  0  0  0  0  0  0  0  0
  -22.5614   -8.7427   19.7693 C   0  0  0  0  0  0  0  0  0  0  0  0
  -22.0924  -28.8663   22.1057 C   0  0  0  0  0  0  0  0  0  0  0  0
  -20.1146  -23.2018   22.6545 C   0  0  0  0  0  0  0  0  0  0  0  0
  -22.5861   -8.2558   22.1356 C   0  0  0  0  0  0  0  0  0  0  0  0
  -21.7398  -24.7365   23.4669 C   0  0  0  0  0  0  0  0  0  0  0  0
  -25.2109  -14.4395   20.2659 C   0  0  0  0  0  0  0  0  0  0  0  0
  -24.5379  -16.3742   18.7455 C   0  0  0  0  0  0  0  0  0  0  0  0
  -29.0594  -24.9741   19.4026 C   0  0  0  0  0  0  0  0  0  0  0  0
  -23.8270  -28.9442   20.4190 C   0  0  0  0  0  0  0  0  0  0  0  0
  -27.8859  -25.3129   20.1030 C   0  0  0  0  0  0  0  0  0  0  0  0
  -23.3736  -29.2744   21.7041 C   0  0  0  0  0  0  0  0  0  0  0  0
  -20.4161  -24.4592   23.1656 C   0  0  0  0  0  0  0  0  0  0  0  0
  -21.1315  -22.2731   22.4632 C   0  0  0  0  0  0  0  0  0  0  0  0
  -25.3663  -11.7454   20.9732 C   0  0  0  0  0  0  0  0  0  0  0  0
  -21.2689  -28.1510   21.2367 C   0  0  0  0  0  0  0  0  0  0  0  0
  -24.2997   -9.6610   21.1735 C   0  0  0  0  0  0  0  0  0  0  0  0
  -21.9984   -8.1120   20.8788 C   0  0  0  0  0  0  0  0  0  0  0  0
  -23.7368   -9.0303   22.2830 C   0  0  0  0  0  0  0  0  0  0  0  0
  -25.1304  -15.8311   19.9013 C   0  0  0  0  0  0  0  0  0  0  0  0
  -22.4232  -22.6483   22.7957 C   0  0  0  0  0  0  0  0  0  0  0  0
  -24.7240  -17.7294   18.8687 C   0  0  0  0  0  0  0  0  0  0  0  0
  -23.8783  -15.7128   17.6578 C   0  0  0  0  0  0  0  0  0  0  0  0
  -26.6686  -28.3968   21.7341 C   0  0  0  0  0  0  0  0  0  0  0  0
  -26.3286  -31.4422   22.7980 C   0  0  0  0  0  0  0  0  0  0  0  0
  -24.2337  -34.0150   23.5974 C   0  0  0  0  0  0  0  0  0  0  0  0
  -24.8234  -21.8873   22.8765 C   0  0  0  0  0  0  0  0  0  0  0  0
  -30.4103  -25.5025   19.8156 C   0  0  0  0  0  0  0  0  0  0  0  0
  -25.1860  -29.3896   19.9530 C   0  0  0  0  0  0  0  0  0  0  0  0
  -24.2284  -30.0499   22.6717 C   0  0  0  0  0  0  0  0  0  0  0  0
  -30.3336  -26.7256   20.7258 C   0  0  0  0  0  0  0  0  0  0  0  0
  -27.8202  -20.6018   21.4469 C   0  0  0  0  0  0  0  0  0  0  0  0
  -29.3109  -26.5021   21.8353 C   0  0  0  0  0  0  0  0  0  0  0  0
  -27.3758  -19.2934   20.7890 C   0  0  0  0  0  0  0  0  0  0  0  0
  -27.0812  -20.8560   22.7595 C   0  0  0  0  0  0  0  0  0  0  0  0
  -25.1723  -19.4905   22.0108 C   0  0  0  0  0  0  0  0  0  0  0  0
  -27.9064  -26.2918   21.2568 C   0  0  1  0  0  0  0  0  0  0  0  0
  -26.1531  -29.6586   21.1018 C   0  0  1  0  0  0  0  0  0  0  0  0
  -25.8421  -19.2235   20.6529 C   0  0  2  0  0  0  0  0  0  0  0  0
  -21.1765  -20.7938   20.4393 C   0  0  0  0  0  0  0  0  0  0  0  0
  -18.3245  -25.0049   24.4373 C   0  0  0  0  0  0  0  0  0  0  0  0
  -24.2467  -36.3658   24.4756 C   0  0  0  0  0  0  0  0  0  0  0  0
  -26.8586  -30.3859   25.6111 C   0  0  0  0  0  0  0  0  0  0  0  0
  -25.9359  -32.5305   26.5150 C   0  0  0  0  0  0  0  0  0  0  0  0
  -27.9792  -32.5587   25.0844 C   0  0  0  0  0  0  0  0  0  0  0  0
  -22.9863  -35.0676   21.1286 C   0  0  0  0  0  0  0  0  0  0  0  0
  -20.8045  -20.9260   21.9140 C   0  0  0  0  0  0  0  0  0  0  0  0
  -18.5961  -25.8904   22.0900 C   0  0  0  0  0  0  0  0  0  0  0  0
  -19.5047  -26.5653   21.0667 C   0  0  0  0  0  0  0  0  0  1  0  0
  -19.3283  -25.4959   23.3872 C   0  0  2  0  0  0  0  0  0  0  0  0
  -25.7321  -32.0851   24.0269 C   0  0  1  0  0  0  0  0  0  0  0  0
  -24.2634  -35.4885   23.2335 C   0  0  2  0  0  0  0  0  0  0  0  0
  -26.6108  -31.8737   25.2920 C   0  0  0  0  0  0  0  0  0  0  0  0
  -22.7548  -23.8603   23.2945 N   0  0  0  0  0  0  0  0  0  0  0  0
  -25.6538  -16.7651   20.6998 N   0  0  0  0  0  0  0  0  0  0  0  0
  -25.3910  -17.9087   20.0448 N   0  0  0  0  0  0  0  0  0  0  0  0
  -25.5517  -30.4574   22.1715 N   0  0  0  0  0  0  0  0  0  0  0  0
  -25.6335  -20.7783   22.5528 N   0  0  0  0  0  0  0  0  0  0  0  0
  -24.3807  -18.7733   18.0845 N   0  0  0  0  0  0  0  0  0  0  0  0
  -23.7743  -14.3155   17.6898 N   0  0  0  0  0  0  0  0  0  0  0  0
  -23.4669  -21.7088   22.6067 N   0  0  0  0  0  0  0  0  0  0  0  0
  -27.3296  -27.5576   20.8575 N   0  0  0  0  0  0  0  0  0  0  0  0
  -25.5035  -33.4848   23.6851 N   0  0  0  0  0  0  0  0  0  0  0  0
  -23.0825  -35.8388   22.3947 N   0  3  0  0  0  0  0  0  0  0  0  0
  -23.4098  -16.3409   16.6782 O   0  0  0  0  0  0  0  0  0  0  0  0
  -26.4818  -28.1999   22.9291 O   0  0  0  0  0  0  0  0  0  0  0  0
  -27.4397  -31.8057   22.4043 O   0  0  0  0  0  0  0  0  0  0  0  0
  -23.1886  -33.3971   23.7887 O   0  0  0  0  0  0  0  0  0  0  0  0
  -25.3015  -22.9292   23.3323 O   0  0  0  0  0  0  0  0  0  0  0  0
  -25.4416  -10.4310   21.3183 O   0  0  0  0  0  0  0  0  0  0  0  0
  -20.0281  -27.7632   21.6390 O   0  0  0  0  0  0  0  0  0  1  0  0
  -20.8926   -7.3695   20.7374 F   0  0  0  0  0  0  0  0  0  0  0  0
  -24.2962   -9.1657   23.4932 F   0  0  0  0  0  0  0  0  0  0  0  0
  1  2  1  0  0  0  0
  1  5  2  0  0  0  0
  2  6  2  0  0  0  0
  3  8  2  0  0  0  0
  3 17  1  0  0  0  0
  4  9  1  0  0  0  0
  4 17  2  0  0  0  0
  5 19  1  0  0  0  0
  6 21  1  0  0  0  0
  7 10  2  0  0  0  0
  7 20  1  0  0  0  0
  8 25  1  0  0  0  0
  9 25  2  0  0  0  0
 10 26  1  0  0  0  0
 11 12  2  0  0  0  0
 11 27  1  0  0  0  0
 12 28  1  0  0  0  0
 13 22  1  0  0  0  0
 13 26  2  0  0  0  0
 14 23  2  0  0  0  0
 14 24  1  0  0  0  0
 15 28  2  0  0  0  0
 15 29  1  0  0  0  0
 16 23  1  0  0  0  0
 16 64  2  0  0  0  0
 17 30  1  0  0  0  0
 18 30  1  0  0  0  0
 18 32  2  0  0  0  0
 18 33  1  0  0  0  0
 19 21  2  0  0  0  0
 19 38  1  0  0  0  0
 20 22  2  0  0  0  0
 20 39  1  0  0  0  0
 21 47  1  0  0  0  0
 22 40  1  0  0  0  0
 23 60  1  0  0  0  0
 24 31  2  0  0  0  0
 24 57  1  0  0  0  0
 25 80  1  0  0  0  0
 26 81  1  0  0  0  0
 27 29  2  0  0  0  0
 27 80  1  0  0  0  0
 28 82  1  0  0  0  0
 29 83  1  0  0  0  0
 30 65  2  0  0  0  0
 31 64  1  0  0  0  0
 31 71  1  0  0  0  0
 32 66  1  0  0  0  0
 32 69  1  0  0  0  0
 33 70  1  0  0  0  0
 33 75  2  0  0  0  0
 34 48  1  0  0  0  0
 34 72  1  0  0  0  0
 34 76  2  0  0  0  0
 35 61  1  0  0  0  0
 35 67  1  0  0  0  0
 35 77  2  0  0  0  0
 36 62  1  0  0  0  0
 36 73  1  0  0  0  0
 36 78  2  0  0  0  0
 37 68  1  0  0  0  0
 37 71  1  0  0  0  0
 37 79  2  0  0  0  0
 38 41  1  0  0  0  0
 39 48  1  0  0  0  0
 40 67  1  0  0  0  0
 41 43  1  0  0  0  0
 42 44  1  0  0  0  0
 42 45  1  0  0  0  0
 43 47  1  0  0  0  0
 44 49  1  0  0  0  0
 45 68  1  0  0  0  0
 46 49  1  0  0  0  0
 46 68  1  0  0  0  0
 47 72  1  0  0  0  0
 48 67  1  0  0  0  0
 49 66  1  0  0  0  0
 50 57  1  0  0  0  0
 51 60  1  0  0  0  0
 52 62  1  0  0  0  0
 53 63  1  0  0  0  0
 54 63  1  0  0  0  0
 55 63  1  0  0  0  0
 56 74  1  0  0  0  0
 58 59  1  0  0  0  0
 58 60  1  0  0  0  0
 59 81  1  0  0  0  0
 61 63  1  0  0  0  0
 61 73  1  0  0  0  0
 62 74  1  0  0  0  0
 65 66  1  0  0  0  0
M  CHG  1  74   1
M  ISO  4  37 100  59 101  71 100  81 101
M  END
> <Batch ID>
0087

> <Smiles>
CCc1cc(C(C)C[101CH2:1][101O:1]c2ccc3c(c2)CN(C(=O)C(NC(=O)C(C)NC)C(C)(C)C)C(C(=O)NC2CCCc4ccccc42)C3)cnc1[100NH:0][100C:0](=O)N1CCCC(n2nc(-c3ccc(Oc4ccc(F)cc4F)cc3)c(C(N)=O)c2N)C1

> <Shape>
0.282

> <Color>
0.078

> <Negative vol penalty>
0.000

$$$$

  -OEChem-04052319013D

 88 96  0     1  0  0  0  0  0999 V2000
  -30.3145  -12.5863   19.7853 C   0  0  0  0  0  0  0  0  0  0  0  0
  -30.0309  -13.6900   20.5833 C   0  0  0  0  0  0  0  0  0  0  0  0
  -26.5102  -28.3593   18.9400 C   0  0  0  0  0  0  0  0  0  0  0  0
  -26.1392  -27.3162   21.0874 C   0  0  0  0  0  0  0  0  0  0  0  0
  -29.4200  -12.2003   18.7879 C   0  0  0  0  0  0  0  0  0  0  0  0
  -28.8530  -14.4091   20.3836 C   0  0  0  0  0  0  0  0  0  0  0  0
  -26.4929  -15.5157   24.7253 C   0  0  0  0  0  0  0  0  0  0  0  0
  -25.4880  -29.2703   19.2058 C   0  0  0  0  0  0  0  0  0  0  0  0
  -25.1170  -28.2272   21.3533 C   0  0  0  0  0  0  0  0  0  0  0  0
  -27.0034  -16.5741   25.4757 C   0  0  0  0  0  0  0  0  0  0  0  0
  -21.8741  -28.6528   20.4967 C   0  0  0  0  0  0  0  0  0  0  0  0
  -20.6856  -28.1554   21.0310 C   0  0  0  0  0  0  0  0  0  0  0  0
  -25.2800  -18.0177   24.6007 C   0  0  0  0  0  0  0  0  0  0  0  0
  -30.5487  -21.1549   23.8055 C   0  0  0  0  0  0  0  0  0  0  0  0
  -28.6901  -19.7267   23.2201 C   0  0  0  0  0  0  0  0  0  0  0  0
  -20.9776  -29.5519   22.9808 C   0  0  0  0  0  0  0  0  0  0  0  0
  -26.8358  -27.3822   19.8807 C   0  0  0  0  0  0  0  0  0  0  0  0
  -29.2582  -26.5828   19.9119 C   0  0  0  0  0  0  0  0  0  0  0  0
  -28.2259  -12.9093   18.5823 C   0  0  0  0  0  0  0  0  0  0  0  0
  -25.3769  -15.7035   23.8973 C   0  0  0  0  0  0  0  0  0  0  0  0
  -27.9423  -14.0331   19.3817 C   0  0  0  0  0  0  0  0  0  0  0  0
  -24.7558  -16.9594   23.8428 C   0  0  0  0  0  0  0  0  0  0  0  0
  -29.2724  -20.6615   24.0761 C   0  0  0  0  0  0  0  0  0  0  0  0
  -31.2427  -20.7136   22.6788 C   0  0  0  0  0  0  0  0  0  0  0  0
  -29.3841  -19.2853   22.0935 C   0  0  0  0  0  0  0  0  0  0  0  0
  -30.6604  -19.7788   21.8229 C   0  0  0  0  0  0  0  0  0  0  0  0
  -24.7914  -29.2042   20.4125 C   0  0  0  0  0  0  0  0  0  0  0  0
  -26.3987  -17.8261   25.4112 C   0  0  0  0  0  0  0  0  0  0  0  0
  -22.6145  -29.5997   21.2045 C   0  0  0  0  0  0  0  0  0  0  0  0
  -20.2373  -28.6050   22.2730 C   0  0  0  0  0  0  0  0  0  0  0  0
  -22.1663  -30.0493   22.4465 C   0  0  0  0  0  0  0  0  0  0  0  0
  -27.8913  -26.4405   19.6064 C   0  0  0  0  0  0  0  0  0  0  0  0
  -29.8355  -25.4252   19.4503 C   0  0  0  0  0  0  0  0  0  0  0  0
  -29.9445  -27.6647   20.5555 C   0  0  0  0  0  0  0  0  0  0  0  0
  -24.8389  -15.4778   20.7726 C   0  0  0  0  0  0  0  0  0  0  0  0
  -21.7638  -16.0075   21.6588 C   0  0  0  0  0  0  0  0  0  0  0  0
  -19.5906  -17.2832   23.9604 C   0  0  0  0  0  0  0  0  0  0  0  0
  -27.7094  -19.9115   18.4862 C   0  0  0  0  0  0  0  0  0  0  0  0
  -27.3123  -12.4827   17.4607 C   0  0  0  0  0  0  0  0  0  0  0  0
  -24.8223  -14.5448   23.1147 C   0  0  0  0  0  0  0  0  0  0  0  0
  -23.5431  -17.2079   22.9849 C   0  0  0  0  0  0  0  0  0  0  0  0
  -25.9082  -13.0732   17.5607 C   0  0  0  0  0  0  0  0  0  0  0  0
  -29.2902  -22.0419   16.1116 C   0  0  0  0  0  0  0  0  0  0  0  0
  -25.9774  -14.5663   17.8649 C   0  0  0  0  0  0  0  0  0  0  0  0
  -29.2343  -23.4236   16.7656 C   0  0  0  0  0  0  0  0  0  0  0  0
  -28.0356  -21.2245   16.4112 C   0  0  0  0  0  0  0  0  0  0  0  0
  -27.6506  -22.4791   18.4972 C   0  0  0  0  0  0  0  0  0  0  0  0
  -26.6631  -14.8237   19.2121 C   0  0  1  0  0  0  0  0  0  0  0  0
  -23.9931  -14.9796   21.9102 C   0  0  1  0  0  0  0  0  0  0  0  0
  -28.9187  -23.3197   18.2698 C   0  0  2  0  0  0  0  0  0  0  0  0
  -32.5667  -22.6672   21.8320 C   0  0  0  0  0  0  0  0  0  0  0  0
  -17.1388  -17.6011   24.3900 C   0  0  0  0  0  0  0  0  0  0  0  0
  -21.7122  -18.3042   19.6508 C   0  0  0  0  0  0  0  0  0  0  0  0
  -19.6450  -19.1528   20.7799 C   0  0  0  0  0  0  0  0  0  0  0  0
  -19.6378  -16.9079   19.6921 C   0  0  0  0  0  0  0  0  0  0  0  0
  -19.6902  -15.6399   26.4198 C   0  0  0  0  0  0  0  0  0  0  0  0
  -32.6886  -17.4654   19.5342 C   0  0  0  0  0  0  0  0  0  0  0  0
  -32.8038  -17.7816   22.0015 C   0  0  0  0  0  0  0  0  0  0  0  0
  -28.5219  -21.1391   25.2936 C   0  0  0  0  0  0  0  0  0  0  0  0
  -32.6085  -21.2568   22.4122 C   0  0  0  0  0  0  0  0  0  0  0  0
  -28.7384  -18.2835   21.1927 C   0  0  0  0  0  0  0  0  0  0  0  0
  -31.4049  -19.3054   20.6152 C   0  0  0  0  0  0  0  0  0  0  0  0
  -28.7763  -20.2950   26.5443 C   0  0  0  0  0  0  0  0  0  0  0  0
  -27.3800  -18.7371   20.6476 C   0  0  0  0  0  0  0  0  0  0  0  0
  -28.2973  -18.8544   26.4082 C   0  0  0  0  0  0  0  0  0  1  0  0
  -20.9040  -17.2325   21.8563 C   0  0  1  0  0  0  0  0  0  0  0  0
  -18.3447  -16.6990   24.6013 C   0  0  2  0  0  0  0  0  0  0  0  0
  -20.4988  -17.8955   20.5096 C   0  0  0  0  0  0  0  0  0  0  0  0
  -27.6168  -25.2838   18.9977 N   0  0  0  0  0  0  0  0  0  0  0  0
  -28.8191  -24.6887   18.9168 N   0  0  0  0  0  0  0  0  0  0  0  0
  -23.0421  -16.0451   22.2336 N   0  0  0  0  0  0  0  0  0  0  0  0
  -27.7935  -21.1633   17.8546 N   0  0  0  0  0  0  0  0  0  0  0  0
  -31.1084  -24.9757   19.4526 N   0  0  0  0  0  0  0  0  0  0  0  0
  -29.1994  -28.7782   20.9668 N   0  0  0  0  0  0  0  0  0  0  0  0
  -25.7516  -14.5526   20.3031 N   0  0  0  0  0  0  0  0  0  0  0  0
  -19.7748  -16.8106   22.6782 N   0  0  0  0  0  0  0  0  0  0  0  0
  -27.4845  -19.9433   19.8571 N   0  0  0  0  0  0  0  0  0  0  0  0
  -18.5497  -16.5241   26.0671 N   0  3  0  0  0  0  0  0  0  0  0  0
  -31.9535  -17.9311   20.7655 N   0  3  0  0  0  0  0  0  0  0  0  0
  -31.1845  -27.6516   20.7450 O   0  0  0  0  0  0  0  0  0  0  0  0
  -24.6745  -16.6166   20.3511 O   0  0  0  0  0  0  0  0  0  0  0  0
  -21.3150  -15.0496   21.0243 O   0  0  0  0  0  0  0  0  0  0  0  0
  -20.3248  -18.0819   24.5379 O   0  0  0  0  0  0  0  0  0  0  0  0
  -27.8314  -18.8446   17.8747 O   0  0  0  0  0  0  0  0  0  0  0  0
  -23.7939  -30.0932   20.6724 O   0  0  0  0  0  0  0  0  0  0  0  0
  -26.8953  -18.8610   26.1421 O   0  0  0  0  0  0  0  0  0  1  0  0
  -19.0951  -28.1284   22.7852 F   0  0  0  0  0  0  0  0  0  0  0  0
  -22.8726  -30.9597   23.1306 F   0  0  0  0  0  0  0  0  0  0  0  0
  1  2  1  0  0  0  0
  1  5  2  0  0  0  0
  2  6  2  0  0  0  0
  3  8  2  0  0  0  0
  3 17  1  0  0  0  0
  4  9  1  0  0  0  0
  4 17  2  0  0  0  0
  5 19  1  0  0  0  0
  6 21  1  0  0  0  0
  7 10  2  0  0  0  0
  7 20  1  0  0  0  0
  8 27  1  0  0  0  0
  9 27  2  0  0  0  0
 10 28  1  0  0  0  0
 11 12  2  0  0  0  0
 11 29  1  0  0  0  0
 12 30  1  0  0  0  0
 13 22  1  0  0  0  0
 13 28  2  0  0  0  0
 14 23  2  0  0  0  0
 14 24  1  0  0  0  0
 15 23  1  0  0  0  0
 15 25  2  0  0  0  0
 16 30  2  0  0  0  0
 16 31  1  0  0  0  0
 17 32  1  0  0  0  0
 18 32  1  0  0  0  0
 18 33  2  0  0  0  0
 18 34  1  0  0  0  0
 19 21  2  0  0  0  0
 19 39  1  0  0  0  0
 20 22  2  0  0  0  0
 20 40  1  0  0  0  0
 21 48  1  0  0  0  0
 22 41  1  0  0  0  0
 23 59  1  0  0  0  0
 24 26  2  0  0  0  0
 24 60  1  0  0  0  0
 25 26  1  0  0  0  0
 25 61  1  0  0  0  0
 26 62  1  0  0  0  0
 27 85  1  0  0  0  0
 28 86  1  0  0  0  0
 29 31  2  0  0  0  0
 29 85  1  0  0  0  0
 30 87  1  0  0  0  0
 31 88  1  0  0  0  0
 32 69  2  0  0  0  0
 33 70  1  0  0  0  0
 33 73  1  0  0  0  0
 34 74  1  0  0  0  0
 34 80  2  0  0  0  0
 35 49  1  0  0  0  0
 35 75  1  0  0  0  0
 35 81  2  0  0  0  0
 36 66  1  0  0  0  0
 36 71  1  0  0  0  0
 36 82  2  0  0  0  0
 37 67  1  0  0  0  0
 37 76  1  0  0  0  0
 37 83  2  0  0  0  0
 38 72  1  0  0  0  0
 38 77  1  0  0  0  0
 38 84  2  0  0  0  0
 39 42  1  0  0  0  0
 40 49  1  0  0  0  0
 41 71  1  0  0  0  0
 42 44  1  0  0  0  0
 43 45  1  0  0  0  0
 43 46  1  0  0  0  0
 44 48  1  0  0  0  0
 45 50  1  0  0  0  0
 46 72  1  0  0  0  0
 47 50  1  0  0  0  0
 47 72  1  0  0  0  0
 48 75  1  0  0  0  0
 49 71  1  0  0  0  0
 50 70  1  0  0  0  0
 51 60  1  0  0  0  0
 52 67  1  0  0  0  0
 53 68  1  0  0  0  0
 54 68  1  0  0  0  0
 55 68  1  0  0  0  0
 56 78  1  0  0  0  0
 57 79  1  0  0  0  0
 58 79  1  0  0  0  0
 59 63  1  0  0  0  0
 61 64  1  0  0  0  0
 62 79  1  0  0  0  0
 63 65  1  0  0  0  0
 64 77  1  0  0  0  0
 65 86  1  0  0  0  0
 66 68  1  0  0  0  0
 66 76  1  0  0  0  0
 67 78  1  0  0  0  0
 69 70  1  0  0  0  0
M  CHG  2  78   1  79   1
M  ISO  4  38 100  65 101  77 100  86 101
M  END
> <Batch ID>
0087

> <Smiles>
CCc1cc(CC[101CH2:1][101O:1]c2ccc3c(c2)CN(C(=O)C(NC(=O)C(C)NC)C(C)(C)C)C(C(=O)NC2CCCc4ccccc42)C3)cc(CC[100NH:0][100C:0](=O)N2CCCC(n3nc(-c4ccc(Oc5ccc(F)cc5F)cc4)c(C(N)=O)c3N)C2)c1CN(C)C

> <Shape>
0.216

> <Color>
0.063

> <Negative vol penalty>
0.000

$$$$

  -OEChem-04052319013D

 85 93  0     1  0  0  0  0  0999 V2000
  -29.3264  -17.6446   20.8342 C   0  0  0  0  0  0  0  0  0  0  0  0
  -28.1121  -18.2100   20.4587 C   0  0  0  0  0  0  0  0  0  0  0  0
  -24.2613  -13.3030   19.5710 C   0  0  0  0  0  0  0  0  0  0  0  0
  -25.1091  -14.0586   21.7035 C   0  0  0  0  0  0  0  0  0  0  0  0
  -30.2307  -18.3815   21.5979 C   0  0  0  0  0  0  0  0  0  0  0  0
  -27.8008  -19.5124   20.8476 C   0  0  0  0  0  0  0  0  0  0  0  0
  -24.2757  -25.3231   18.5834 C   0  0  0  0  0  0  0  0  0  0  0  0
  -25.1643  -12.2401   19.5886 C   0  0  0  0  0  0  0  0  0  0  0  0
  -26.0121  -12.9956   21.7211 C   0  0  0  0  0  0  0  0  0  0  0  0
  -23.3018  -26.2257   19.0084 C   0  0  0  0  0  0  0  0  0  0  0  0
  -28.9846  -12.2282   20.3046 C   0  0  0  0  0  0  0  0  0  0  0  0
  -30.3019  -12.5030   20.6716 C   0  0  0  0  0  0  0  0  0  0  0  0
  -24.9747  -27.4320   20.2597 C   0  0  0  0  0  0  0  0  0  0  0  0
  -21.0379  -26.9300   23.2013 C   0  0  0  0  0  0  0  0  0  0  0  0
  -30.1068  -10.9642   22.5239 C   0  0  0  0  0  0  0  0  0  0  0  0
  -18.6517  -26.7043   21.8971 C   0  0  0  0  0  0  0  0  0  0  0  0
  -24.2337  -14.2123   20.6284 C   0  0  0  0  0  0  0  0  0  0  0  0
  -21.9920  -15.3230   21.1271 C   0  0  0  0  0  0  0  0  0  0  0  0
  -29.9344  -19.6971   21.9882 C   0  0  0  0  0  0  0  0  0  0  0  0
  -25.6065  -25.4620   19.0029 C   0  0  0  0  0  0  0  0  0  0  0  0
  -28.7013  -20.2672   21.6183 C   0  0  0  0  0  0  0  0  0  0  0  0
  -25.9639  -26.5312   19.8366 C   0  0  0  0  0  0  0  0  0  0  0  0
  -20.6344  -27.9420   22.3374 C   0  0  0  0  0  0  0  0  0  0  0  0
  -19.4199  -27.8347   21.6690 C   0  0  0  0  0  0  0  0  0  0  0  0
  -26.0397  -12.0863   20.6636 C   0  0  0  0  0  0  0  0  0  0  0  0
  -23.6507  -27.2787   19.8490 C   0  0  0  0  0  0  0  0  0  0  0  0
  -28.2283  -11.3214   21.0473 C   0  0  0  0  0  0  0  0  0  0  0  0
  -30.8631  -11.8709   21.7812 C   0  0  0  0  0  0  0  0  0  0  0  0
  -28.7894  -10.6894   22.1569 C   0  0  0  0  0  0  0  0  0  0  0  0
  -23.3015  -15.3108   20.6106 C   0  0  0  0  0  0  0  0  0  0  0  0
  -20.1973  -25.8402   23.3610 C   0  0  0  0  0  0  0  0  0  0  0  0
  -21.5304  -16.5893   20.8629 C   0  0  0  0  0  0  0  0  0  0  0  0
  -21.2584  -14.2827   21.7869 C   0  0  0  0  0  0  0  0  0  0  0  0
  -27.6243  -23.6779   20.6908 C   0  0  0  0  0  0  0  0  0  0  0  0
  -29.7490  -25.9822   19.8554 C   0  0  0  0  0  0  0  0  0  0  0  0
  -30.2906  -29.2068   18.8780 C   0  0  0  0  0  0  0  0  0  0  0  0
  -22.2752  -22.1194   20.7675 C   0  0  0  0  0  0  0  0  0  0  0  0
  -30.9232  -20.4377   22.8533 C   0  0  0  0  0  0  0  0  0  0  0  0
  -26.6501  -24.4954   18.5140 C   0  0  0  0  0  0  0  0  0  0  0  0
  -27.3826  -26.7364   20.2990 C   0  0  0  0  0  0  0  0  0  0  0  0
  -30.6770  -21.9433   22.9075 C   0  0  0  0  0  0  0  0  0  0  0  0
  -23.4649  -20.2622   17.9725 C   0  0  0  0  0  0  0  0  0  0  0  0
  -29.1985  -22.2343   23.1444 C   0  0  0  0  0  0  0  0  0  0  0  0
  -23.4263  -18.8109   18.4544 C   0  0  0  0  0  0  0  0  0  0  0  0
  -23.8641  -21.2188   19.0939 C   0  0  0  0  0  0  0  0  0  0  0  0
  -23.0118  -19.6592   20.8012 C   0  0  0  0  0  0  0  0  0  0  0  0
  -28.3380  -21.6859   21.9998 C   0  0  1  0  0  0  0  0  0  0  0  0
  -27.8778  -24.4342   19.4175 C   0  0  1  0  0  0  0  0  0  0  0  0
  -22.5598  -18.6631   19.7196 C   0  0  2  0  0  0  0  0  0  0  0  0
  -18.3848  -30.1091   21.4638 C   0  0  0  0  0  0  0  0  0  0  0  0
  -21.7164  -29.9221   23.4509 C   0  0  0  0  0  0  0  0  0  0  0  0
  -32.1362  -30.8092   18.3092 C   0  0  0  0  0  0  0  0  0  0  0  0
  -30.3995  -26.2821   22.8214 C   0  0  0  0  0  0  0  0  0  0  0  0
  -31.4891  -28.4726   22.2895 C   0  0  0  0  0  0  0  0  0  0  0  0
  -32.3860  -26.3637   21.3043 C   0  0  0  0  0  0  0  0  0  0  0  0
  -29.2741  -29.5809   16.1238 C   0  0  0  0  0  0  0  0  0  0  0  0
  -18.9399  -28.8885   20.7325 C   0  0  0  0  0  0  0  0  0  0  0  0
  -20.5983  -24.7350   24.2800 C   0  0  0  0  0  0  0  0  0  0  0  0
  -21.4126  -23.6119   23.6086 C   0  0  0  0  0  0  0  0  0  0  0  0
  -20.6665  -22.8697   22.5019 C   0  0  0  0  0  0  0  0  0  0  0  0
  -22.8943  -28.7656   21.5440 C   0  0  0  0  0  0  0  0  0  1  0  0
  -21.5338  -29.1521   22.1400 C   0  0  1  0  0  0  0  0  0  0  0  0
  -30.1940  -27.2943   20.4551 C   0  0  1  0  0  0  0  0  0  0  0  0
  -31.1432  -29.7930   17.7671 C   0  0  2  0  0  0  0  0  0  0  0  0
  -31.0900  -27.0985   21.7106 C   0  0  0  0  0  0  0  0  0  0  0  0
  -19.0104  -25.7007   22.7288 N   0  0  0  0  0  0  0  0  0  0  0  0
  -23.6494  -16.4768   20.0597 N   0  0  0  0  0  0  0  0  0  0  0  0
  -22.5516  -17.2335   20.2286 N   0  0  0  0  0  0  0  0  0  0  0  0
  -28.3656  -25.7611   19.7989 N   0  0  0  0  0  0  0  0  0  0  0  0
  -23.0029  -21.0287   20.2636 N   0  0  0  0  0  0  0  0  0  0  0  0
  -20.3547  -17.2035   21.1136 N   0  0  0  0  0  0  0  0  0  0  0  0
  -21.8828  -13.0424   21.9773 N   0  0  0  0  0  0  0  0  0  0  0  0
  -28.4166  -22.5565   20.8464 N   0  0  0  0  0  0  0  0  0  0  0  0
  -30.8321  -28.0406   19.3761 N   0  0  0  0  0  0  0  0  0  0  0  0
  -21.4788  -21.8515   21.8741 N   0  0  0  0  0  0  0  0  0  0  0  0
  -30.2826  -30.4698   16.7561 N   0  3  0  0  0  0  0  0  0  0  0  0
  -20.0783  -14.4428   22.1808 O   0  0  0  0  0  0  0  0  0  0  0  0
  -26.7739  -24.0826   21.4748 O   0  0  0  0  0  0  0  0  0  0  0  0
  -30.5973  -25.1860   19.4456 O   0  0  0  0  0  0  0  0  0  0  0  0
  -29.2505  -29.7330   19.2677 O   0  0  0  0  0  0  0  0  0  0  0  0
  -22.3270  -23.2471   20.2649 O   0  0  0  0  0  0  0  0  0  0  0  0
  -26.9208  -11.0491   20.6812 O   0  0  0  0  0  0  0  0  0  0  0  0
  -22.7020  -28.1608   20.2659 O   0  0  0  0  0  0  0  0  0  1  0  0
  -32.1286  -12.1337   22.1327 F   0  0  0  0  0  0  0  0  0  0  0  0
  -28.0682   -9.8165   22.8736 F   0  0  0  0  0  0  0  0  0  0  0  0
  1  2  1  0  0  0  0
  1  5  2  0  0  0  0
  2  6  2  0  0  0  0
  3  8  2  0  0  0  0
  3 17  1  0  0  0  0
  4  9  1  0  0  0  0
  4 17  2  0  0  0  0
  5 19  1  0  0  0  0
  6 21  1  0  0  0  0
  7 10  2  0  0  0  0
  7 20  1  0  0  0  0
  8 25  1  0  0  0  0
  9 25  2  0  0  0  0
 10 26  1  0  0  0  0
 11 12  2  0  0  0  0
 11 27  1  0  0  0  0
 12 28  1  0  0  0  0
 13 22  1  0  0  0  0
 13 26  2  0  0  0  0
 14 23  1  0  0  0  0
 14 31  2  0  0  0  0
 15 28  2  0  0  0  0
 15 29  1  0  0  0  0
 16 24  1  0  0  0  0
 16 66  2  0  0  0  0
 17 30  1  0  0  0  0
 18 30  1  0  0  0  0
 18 32  2  0  0  0  0
 18 33  1  0  0  0  0
 19 21  2  0  0  0  0
 19 38  1  0  0  0  0
 20 22  2  0  0  0  0
 20 39  1  0  0  0  0
 21 47  1  0  0  0  0
 22 40  1  0  0  0  0
 23 24  2  0  0  0  0
 23 62  1  0  0  0  0
 24 57  1  0  0  0  0
 25 82  1  0  0  0  0
 26 83  1  0  0  0  0
 27 29  2  0  0  0  0
 27 82  1  0  0  0  0
 28 84  1  0  0  0  0
 29 85  1  0  0  0  0
 30 67  2  0  0  0  0
 31 58  1  0  0  0  0
 31 66  1  0  0  0  0
 32 68  1  0  0  0  0
 32 71  1  0  0  0  0
 33 72  1  0  0  0  0
 33 77  2  0  0  0  0
 34 48  1  0  0  0  0
 34 73  1  0  0  0  0
 34 78  2  0  0  0  0
 35 63  1  0  0  0  0
 35 69  1  0  0  0  0
 35 79  2  0  0  0  0
 36 64  1  0  0  0  0
 36 74  1  0  0  0  0
 36 80  2  0  0  0  0
 37 70  1  0  0  0  0
 37 75  1  0  0  0  0
 37 81  2  0  0  0  0
 38 41  1  0  0  0  0
 39 48  1  0  0  0  0
 40 69  1  0  0  0  0
 41 43  1  0  0  0  0
 42 44  1  0  0  0  0
 42 45  1  0  0  0  0
 43 47  1  0  0  0  0
 44 49  1  0  0  0  0
 45 70  1  0  0  0  0
 46 49  1  0  0  0  0
 46 70  1  0  0  0  0
 47 73  1  0  0  0  0
 48 69  1  0  0  0  0
 49 68  1  0  0  0  0
 50 57  1  0  0  0  0
 51 62  1  0  0  0  0
 52 64  1  0  0  0  0
 53 65  1  0  0  0  0
 54 65  1  0  0  0  0
 55 65  1  0  0  0  0
 56 76  1  0  0  0  0
 58 59  1  0  0  0  0
 59 60  1  0  0  0  0
 60 75  1  0  0  0  0
 61 62  1  0  0  0  0
 61 83  1  0  0  0  0
 63 65  1  0  0  0  0
 63 74  1  0  0  0  0
 64 76  1  0  0  0  0
 67 68  1  0  0  0  0
M  CHG  1  76   1
M  ISO  4  37 100  61 101  75 100  83 101
M  END
> <Batch ID>
0087

> <Smiles>
CCc1cnc(CCC[100NH:0][100C:0](=O)N2CCCC(n3nc(-c4ccc(Oc5ccc(F)cc5F)cc4)c(C(N)=O)c3N)C2)cc1C(C)[101CH2:1][101O:1]c1ccc2c(c1)CN(C(=O)C(NC(=O)C(C)NC)C(C)(C)C)C(C(=O)NC1CCCc3ccccc31)C2

> <Shape>
0.213

> <Color>
0.062

> <Negative vol penalty>
0.000

$$$$

  -OEChem-04052319013D

 87 95  0     1  0  0  0  0  0999 V2000
  -28.1434  -11.6138   22.4713 C   0  0  0  0  0  0  0  0  0  0  0  0
  -28.5513  -12.8015   21.8727 C   0  0  0  0  0  0  0  0  0  0  0  0
  -19.8008  -26.8061   21.2997 C   0  0  0  0  0  0  0  0  0  0  0  0
  -20.3146  -27.4754   23.5635 C   0  0  0  0  0  0  0  0  0  0  0  0
  -26.8490  -11.1388   22.2643 C   0  0  0  0  0  0  0  0  0  0  0  0
  -27.6653  -13.5145   21.0658 C   0  0  0  0  0  0  0  0  0  0  0  0
  -27.7318  -18.4858   22.0283 C   0  0  0  0  0  0  0  0  0  0  0  0
  -18.5151  -26.4414   21.6993 C   0  0  0  0  0  0  0  0  0  0  0  0
  -19.0289  -27.1108   23.9631 C   0  0  0  0  0  0  0  0  0  0  0  0
  -28.7923  -19.2221   21.5020 C   0  0  0  0  0  0  0  0  0  0  0  0
  -15.2147  -24.9982   22.1972 C   0  0  0  0  0  0  0  0  0  0  0  0
  -14.7126  -23.7802   21.7392 C   0  0  0  0  0  0  0  0  0  0  0  0
  -27.3731  -19.9656   19.6986 C   0  0  0  0  0  0  0  0  0  0  0  0
  -16.5367  -22.6219   22.8200 C   0  0  0  0  0  0  0  0  0  0  0  0
  -31.5465  -26.3341   21.6395 C   0  0  0  0  0  0  0  0  0  0  0  0
  -20.7005  -27.3231   22.2318 C   0  0  0  0  0  0  0  0  0  0  0  0
  -22.4491  -28.9591   21.3522 C   0  0  0  0  0  0  0  0  0  0  0  0
  -25.9436  -11.8513   21.4623 C   0  0  0  0  0  0  0  0  0  0  0  0
  -26.4850  -18.4751   21.3867 C   0  0  0  0  0  0  0  0  0  0  0  0
  -26.3580  -13.0480   20.8469 C   0  0  0  0  0  0  0  0  0  0  0  0
  -26.2977  -19.2304   20.2202 C   0  0  0  0  0  0  0  0  0  0  0  0
  -18.1292  -26.5937   23.0310 C   0  0  0  0  0  0  0  0  0  0  0  0
  -28.6138  -19.9599   20.3354 C   0  0  0  0  0  0  0  0  0  0  0  0
  -16.3778  -25.0282   22.9666 C   0  0  0  0  0  0  0  0  0  0  0  0
  -15.3736  -22.5920   22.0506 C   0  0  0  0  0  0  0  0  0  0  0  0
  -17.0388  -23.8400   23.2780 C   0  0  0  0  0  0  0  0  0  0  0  0
  -22.0289  -27.6994   21.8198 C   0  0  0  0  0  0  0  0  0  0  0  0
  -31.7647  -25.5196   20.5471 C   0  0  0  0  0  0  0  0  0  0  0  0
  -30.5891  -27.3137   21.4720 C   0  0  0  0  0  0  0  0  0  0  0  0
  -23.7891  -28.8007   21.0958 C   0  0  0  0  0  0  0  0  0  0  0  0
  -30.1960  -26.6355   19.3383 C   0  0  0  0  0  0  0  0  0  0  0  0
  -21.6955  -30.1645   21.1663 C   0  0  0  0  0  0  0  0  0  0  0  0
  -24.6751  -16.2366   20.0386 C   0  0  0  0  0  0  0  0  0  0  0  0
  -22.5397  -18.6655   19.7878 C   0  0  0  0  0  0  0  0  0  0  0  0
  -21.9826  -22.0289   19.6317 C   0  0  0  0  0  0  0  0  0  0  0  0
  -28.2239  -25.7442   23.5604 C   0  0  0  0  0  0  0  0  0  0  0  0
  -24.5699  -11.2740   21.2296 C   0  0  0  0  0  0  0  0  0  0  0  0
  -25.3436  -17.6971   21.9819 C   0  0  0  0  0  0  0  0  0  0  0  0
  -24.9731  -19.2685   19.5043 C   0  0  0  0  0  0  0  0  0  0  0  0
  -23.5732  -12.2823   20.6638 C   0  0  0  0  0  0  0  0  0  0  0  0
  -26.7608  -24.9509   20.2541 C   0  0  0  0  0  0  0  0  0  0  0  0
  -24.1987  -13.0621   19.5116 C   0  0  0  0  0  0  0  0  0  0  0  0
  -25.3997  -25.6417   20.3178 C   0  0  0  0  0  0  0  0  0  0  0  0
  -27.2529  -24.5386   21.6382 C   0  0  0  0  0  0  0  0  0  0  0  0
  -25.9295  -26.3460   22.6850 C   0  0  0  0  0  0  0  0  0  0  0  0
  -25.4180  -13.8626   19.9849 C   0  0  1  0  0  0  0  0  0  0  0  0
  -24.2633  -17.3473   20.9630 C   0  0  1  0  0  0  0  0  0  0  0  0
  -25.4263  -26.8158   21.3118 C   0  0  2  0  0  0  0  0  0  0  0  0
  -29.4430  -26.8011   18.0618 C   0  0  0  0  0  0  0  0  0  0  0  0
  -27.9507  -27.5261   26.3034 C   0  0  0  0  0  0  0  0  0  0  0  0
  -30.6204  -29.7057   22.2475 C   0  0  0  0  0  0  0  0  0  0  0  0
  -20.1358  -23.7105   19.3893 C   0  0  0  0  0  0  0  0  0  0  0  0
  -22.3521  -18.0266   16.8101 C   0  0  0  0  0  0  0  0  0  0  0  0
  -21.2804  -20.2634   16.4688 C   0  0  0  0  0  0  0  0  0  0  0  0
  -20.1657  -18.5542   17.9037 C   0  0  0  0  0  0  0  0  0  0  0  0
  -22.5895  -23.2467   22.2599 C   0  0  0  0  0  0  0  0  0  0  0  0
  -32.7918  -24.4190   20.6341 C   0  0  0  0  0  0  0  0  0  0  0  0
  -32.2280  -23.0838   21.1326 C   0  0  0  0  0  0  0  0  0  0  0  0
  -31.1747  -22.4914   20.1952 C   0  0  0  0  0  0  0  0  0  0  0  0
  -29.0826  -27.2116   25.3463 C   0  0  0  0  0  0  0  0  0  0  0  0
  -28.8150  -28.1580   23.0839 C   0  0  0  0  0  0  0  0  0  0  0  0
  -30.6097  -21.1875   20.7421 C   0  0  0  0  0  0  0  0  0  1  0  0
  -30.2825  -28.2421   22.5992 C   0  0  1  0  0  0  0  0  0  0  0  0
  -22.2403  -19.7232   18.7531 C   0  0  1  0  0  0  0  0  0  0  0  0
  -20.9967  -22.9216   20.3635 C   0  0  2  0  0  0  0  0  0  0  0  0
  -21.5352  -19.1398   17.4961 C   0  0  0  0  0  0  0  0  0  0  0  0
  -23.0216  -26.8066   21.8590 N   0  0  0  0  0  0  0  0  0  0  0  0
  -31.1049  -25.6426   19.3767 N   0  0  0  0  0  0  0  0  0  0  0  0
  -29.8923  -27.4936   20.3308 N   0  0  0  0  0  0  0  0  0  0  0  0
  -24.0788  -27.5061   21.4127 N   0  0  0  0  0  0  0  0  0  0  0  0
  -23.8895  -18.4863   20.1220 N   0  0  0  0  0  0  0  0  0  0  0  0
  -27.2271  -25.6630   22.5742 N   0  0  0  0  0  0  0  0  0  0  0  0
  -24.7361  -29.6438   20.6324 N   0  0  0  0  0  0  0  0  0  0  0  0
  -20.3293  -30.1533   21.4789 N   0  0  0  0  0  0  0  0  0  0  0  0
  -24.9975  -15.0580   20.6839 N   0  0  0  0  0  0  0  0  0  0  0  0
  -21.4772  -20.7605   19.4387 N   0  0  0  0  0  0  0  0  0  0  0  0
  -28.6008  -27.0275   23.9847 N   0  0  0  0  0  0  0  0  0  0  0  0
  -21.7218  -23.8865   21.2377 N   0  3  0  0  0  0  0  0  0  0  0  0
  -22.2146  -31.2158   20.7203 O   0  0  0  0  0  0  0  0  0  0  0  0
  -24.6972  -16.4339   18.8294 O   0  0  0  0  0  0  0  0  0  0  0  0
  -21.6096  -18.0270   20.2866 O   0  0  0  0  0  0  0  0  0  0  0  0
  -23.0888  -22.4188   19.2644 O   0  0  0  0  0  0  0  0  0  0  0  0
  -28.7539  -24.7281   24.0278 O   0  0  0  0  0  0  0  0  0  0  0  0
  -16.8746  -26.2382   23.4212 O   0  0  0  0  0  0  0  0  0  0  0  0
  -29.6474  -20.6789   19.8192 O   0  0  0  0  0  0  0  0  0  1  0  0
  -14.8905  -21.4222   21.6120 F   0  0  0  0  0  0  0  0  0  0  0  0
  -18.1560  -23.8623   24.0177 F   0  0  0  0  0  0  0  0  0  0  0  0
  1  2  1  0  0  0  0
  1  5  2  0  0  0  0
  2  6  2  0  0  0  0
  3  8  2  0  0  0  0
  3 16  1  0  0  0  0
  4  9  1  0  0  0  0
  4 16  2  0  0  0  0
  5 18  1  0  0  0  0
  6 20  1  0  0  0  0
  7 10  2  0  0  0  0
  7 19  1  0  0  0  0
  8 22  1  0  0  0  0
  9 22  2  0  0  0  0
 10 23  1  0  0  0  0
 11 12  2  0  0  0  0
 11 24  1  0  0  0  0
 12 25  1  0  0  0  0
 13 21  1  0  0  0  0
 13 23  2  0  0  0  0
 14 25  2  0  0  0  0
 14 26  1  0  0  0  0
 15 28  2  0  0  0  0
 15 29  1  0  0  0  0
 16 27  1  0  0  0  0
 17 27  1  0  0  0  0
 17 30  2  0  0  0  0
 17 32  1  0  0  0  0
 18 20  2  0  0  0  0
 18 37  1  0  0  0  0
 19 21  2  0  0  0  0
 19 38  1  0  0  0  0
 20 46  1  0  0  0  0
 21 39  1  0  0  0  0
 22 84  1  0  0  0  0
 23 85  1  0  0  0  0
 24 26  2  0  0  0  0
 24 84  1  0  0  0  0
 25 86  1  0  0  0  0
 26 87  1  0  0  0  0
 27 67  2  0  0  0  0
 28 57  1  0  0  0  0
 28 68  1  0  0  0  0
 29 63  1  0  0  0  0
 29 69  2  0  0  0  0
 30 70  1  0  0  0  0
 30 73  1  0  0  0  0
 31 49  1  0  0  0  0
 31 68  2  0  0  0  0
 31 69  1  0  0  0  0
 32 74  1  0  0  0  0
 32 79  2  0  0  0  0
 33 47  1  0  0  0  0
 33 75  1  0  0  0  0
 33 80  2  0  0  0  0
 34 64  1  0  0  0  0
 34 71  1  0  0  0  0
 34 81  2  0  0  0  0
 35 65  1  0  0  0  0
 35 76  1  0  0  0  0
 35 82  2  0  0  0  0
 36 72  1  0  0  0  0
 36 77  1  0  0  0  0
 36 83  2  0  0  0  0
 37 40  1  0  0  0  0
 38 47  1  0  0  0  0
 39 71  1  0  0  0  0
 40 42  1  0  0  0  0
 41 43  1  0  0  0  0
 41 44  1  0  0  0  0
 42 46  1  0  0  0  0
 43 48  1  0  0  0  0
 44 72  1  0  0  0  0
 45 48  1  0  0  0  0
 45 72  1  0  0  0  0
 46 75  1  0  0  0  0
 47 71  1  0  0  0  0
 48 70  1  0  0  0  0
 50 60  1  0  0  0  0
 51 63  1  0  0  0  0
 52 65  1  0  0  0  0
 53 66  1  0  0  0  0
 54 66  1  0  0  0  0
 55 66  1  0  0  0  0
 56 78  1  0  0  0  0
 57 58  1  0  0  0  0
 58 59  1  0  0  0  0
 59 62  1  0  0  0  0
 60 77  1  0  0  0  0
 61 63  1  0  0  0  0
 61 77  1  0  0  0  0
 62 85  1  0  0  0  0
 64 66  1  0  0  0  0
 64 76  1  0  0  0  0
 65 78  1  0  0  0  0
 67 70  1  0  0  0  0
M  CHG  1  78   1
M  ISO  4  36 100  62 101  77 100  85 101
M  END
> <Batch ID>
0087

> <Smiles>
CC[100N:0](CC(C)c1cc(CCC[101CH2:1][101O:1]c2ccc3c(c2)CN(C(=O)C(NC(=O)C(C)NC)C(C)(C)C)C(C(=O)NC2CCCc4ccccc42)C3)nc(C)n1)[100C:0](=O)N1CCCC(n2nc(-c3ccc(Oc4ccc(F)cc4F)cc3)c(C(N)=O)c2N)C1

> <Shape>
0.188

> <Color>
0.080

> <Negative vol penalty>
0.000

$$$$

  -OEChem-04052319013D

 81 89  0     1  0  0  0  0  0999 V2000
  -16.7863  -28.6117   22.7451 C   0  0  0  0  0  0  0  0  0  0  0  0
  -17.6671  -27.5360   22.6952 C   0  0  0  0  0  0  0  0  0  0  0  0
  -23.5035   -9.6701   20.2529 C   0  0  0  0  0  0  0  0  0  0  0  0
  -23.9913  -10.1438   22.5712 C   0  0  0  0  0  0  0  0  0  0  0  0
  -17.2803  -29.9118   22.8422 C   0  0  0  0  0  0  0  0  0  0  0  0
  -19.0427  -27.7600   22.7411 C   0  0  0  0  0  0  0  0  0  0  0  0
  -23.2663  -24.1992   25.3845 C   0  0  0  0  0  0  0  0  0  0  0  0
  -22.9042   -8.4668   20.6248 C   0  0  0  0  0  0  0  0  0  0  0  0
  -23.3919   -8.9404   22.9432 C   0  0  0  0  0  0  0  0  0  0  0  0
  -24.1364  -23.2378   24.8723 C   0  0  0  0  0  0  0  0  0  0  0  0
  -20.2593   -7.7507   23.3810 C   0  0  0  0  0  0  0  0  0  0  0  0
  -19.3881   -7.7718   24.4700 C   0  0  0  0  0  0  0  0  0  0  0  0
  -25.8819  -24.8975   24.7386 C   0  0  0  0  0  0  0  0  0  0  0  0
  -27.5151  -19.5275   24.1710 C   0  0  0  0  0  0  0  0  0  0  0  0
  -20.7963   -6.1860   25.6273 C   0  0  0  0  0  0  0  0  0  0  0  0
  -27.2667  -20.5170   22.0226 C   0  0  0  0  0  0  0  0  0  0  0  0
  -24.0471  -10.5086   21.2261 C   0  0  0  0  0  0  0  0  0  0  0  0
  -24.0450  -13.0083   20.7167 C   0  0  0  0  0  0  0  0  0  0  0  0
  -18.6624  -30.1513   22.8990 C   0  0  0  0  0  0  0  0  0  0  0  0
  -23.6950  -25.5218   25.5677 C   0  0  0  0  0  0  0  0  0  0  0  0
  -19.5557  -29.0647   22.8376 C   0  0  0  0  0  0  0  0  0  0  0  0
  -25.0161  -25.8732   25.2557 C   0  0  0  0  0  0  0  0  0  0  0  0
  -26.8713  -20.4453   23.3486 C   0  0  0  0  0  0  0  0  0  0  0  0
  -28.5204  -18.7207   23.6496 C   0  0  0  0  0  0  0  0  0  0  0  0
  -22.8484   -8.1019   21.9700 C   0  0  0  0  0  0  0  0  0  0  0  0
  -25.4436  -23.5875   24.5466 C   0  0  0  0  0  0  0  0  0  0  0  0
  -21.3990   -6.9472   23.4150 C   0  0  0  0  0  0  0  0  0  0  0  0
  -19.6565   -6.9895   25.5932 C   0  0  0  0  0  0  0  0  0  0  0  0
  -21.6675   -6.1649   24.5382 C   0  0  0  0  0  0  0  0  0  0  0  0
  -24.6668  -11.7516   20.8424 C   0  0  0  0  0  0  0  0  0  0  0  0
  -28.8418  -18.8694   22.3101 C   0  0  0  0  0  0  0  0  0  0  0  0
  -25.0560  -13.8546   20.3319 C   0  0  0  0  0  0  0  0  0  0  0  0
  -22.6759  -13.3776   20.9288 C   0  0  0  0  0  0  0  0  0  0  0  0
  -22.8323  -28.3435   24.3857 C   0  0  0  0  0  0  0  0  0  0  0  0
  -24.9598  -29.4678   26.5611 C   0  0  0  0  0  0  0  0  0  0  0  0
  -27.7114  -28.8821   28.4930 C   0  0  0  0  0  0  0  0  0  0  0  0
  -30.2876  -15.7317   20.8344 C   0  0  0  0  0  0  0  0  0  0  0  0
  -19.1503  -31.5772   22.9561 C   0  0  0  0  0  0  0  0  0  0  0  0
  -22.7520  -26.5408   26.1463 C   0  0  0  0  0  0  0  0  0  0  0  0
  -25.5315  -27.2747   25.4527 C   0  0  0  0  0  0  0  0  0  0  0  0
  -20.6121  -31.7044   23.3772 C   0  0  0  0  0  0  0  0  0  0  0  0
  -29.7701  -12.8645   18.7880 C   0  0  0  0  0  0  0  0  0  0  0  0
  -21.4770  -30.7088   22.6107 C   0  0  0  0  0  0  0  0  0  0  0  0
  -28.3480  -12.4198   19.1343 C   0  0  0  0  0  0  0  0  0  0  0  0
  -30.5060  -13.4053   20.0119 C   0  0  0  0  0  0  0  0  0  0  0  0
  -28.3768  -14.0335   21.0821 C   0  0  0  0  0  0  0  0  0  0  0  0
  -21.0539  -29.2655   22.9099 C   0  0  1  0  0  0  0  0  0  0  0  0
  -23.1433  -27.9763   25.8091 C   0  0  1  0  0  0  0  0  0  0  0  0
  -27.5756  -13.5324   19.8682 C   0  0  2  0  0  0  0  0  0  0  0  0
  -30.2429  -18.3966   25.4425 C   0  0  0  0  0  0  0  0  0  0  0  0
  -29.2386  -30.0043   30.1379 C   0  0  0  0  0  0  0  0  0  0  0  0
  -26.3102  -30.9734   24.2765 C   0  0  0  0  0  0  0  0  0  0  0  0
  -28.3095  -31.2788   25.7522 C   0  0  0  0  0  0  0  0  0  0  0  0
  -26.1151  -32.2678   26.4074 C   0  0  0  0  0  0  0  0  0  0  0  0
  -27.0183  -26.9537   30.6284 C   0  0  0  0  0  0  0  0  0  0  0  0
  -29.2154  -17.7364   24.5257 C   0  0  0  0  0  0  0  0  0  0  0  0
  -25.7820  -21.3299   23.8799 C   0  0  0  0  0  0  0  0  0  1  0  0
  -29.9130  -18.0290   21.6954 C   0  0  0  0  0  0  0  0  0  0  0  0
  -26.4399  -29.7648   26.5543 C   0  0  1  0  0  0  0  0  0  0  0  0
  -27.9890  -29.1560   29.9601 C   0  0  2  0  0  0  0  0  0  0  0  0
  -26.7837  -31.0451   25.7420 C   0  0  0  0  0  0  0  0  0  0  0  0
  -28.2389  -19.7500   21.4802 N   0  0  0  0  0  0  0  0  0  0  0  0
  -25.9717  -11.7914   20.5602 N   0  0  0  0  0  0  0  0  0  0  0  0
  -26.1781  -13.0834   20.2533 N   0  0  0  0  0  0  0  0  0  0  0  0
  -24.5695  -28.2367   26.0154 N   0  0  0  0  0  0  0  0  0  0  0  0
  -29.7211  -14.4581   20.6610 N   0  0  0  0  0  0  0  0  0  0  0  0
  -25.0857  -15.1759   20.0564 N   0  0  0  0  0  0  0  0  0  0  0  0
  -21.7691  -12.3839   21.3219 N   0  0  0  0  0  0  0  0  0  0  0  0
  -21.5593  -28.8479   24.2001 N   0  0  0  0  0  0  0  0  0  0  0  0
  -26.8524  -29.8156   27.9528 N   0  0  0  0  0  0  0  0  0  0  0  0
  -29.4736  -16.6730   21.4527 N   0  0  0  0  0  0  0  0  0  0  0  0
  -28.1809  -27.8759   30.6987 N   0  3  0  0  0  0  0  0  0  0  0  0
  -22.2655  -14.5506   20.7585 O   0  0  0  0  0  0  0  0  0  0  0  0
  -23.6847  -28.1827   23.5202 O   0  0  0  0  0  0  0  0  0  0  0  0
  -24.1793  -30.2945   27.0397 O   0  0  0  0  0  0  0  0  0  0  0  0
  -28.2099  -27.9368   27.8859 O   0  0  0  0  0  0  0  0  0  0  0  0
  -31.4318  -16.0109   20.4607 O   0  0  0  0  0  0  0  0  0  0  0  0
  -22.2634   -6.9279   22.3333 O   0  0  0  0  0  0  0  0  0  0  0  0
  -26.2947  -22.6512   24.0458 O   0  0  0  0  0  0  0  0  0  1  0  0
  -18.8206   -7.0111   26.6396 F   0  0  0  0  0  0  0  0  0  0  0  0
  -22.7615   -5.3918   24.5772 F   0  0  0  0  0  0  0  0  0  0  0  0
  1  2  1  0  0  0  0
  1  5  2  0  0  0  0
  2  6  2  0  0  0  0
  3  8  2  0  0  0  0
  3 17  1  0  0  0  0
  4  9  1  0  0  0  0
  4 17  2  0  0  0  0
  5 19  1  0  0  0  0
  6 21  1  0  0  0  0
  7 10  2  0  0  0  0
  7 20  1  0  0  0  0
  8 25  1  0  0  0  0
  9 25  2  0  0  0  0
 10 26  1  0  0  0  0
 11 12  2  0  0  0  0
 11 27  1  0  0  0  0
 12 28  1  0  0  0  0
 13 22  1  0  0  0  0
 13 26  2  0  0  0  0
 14 23  2  0  0  0  0
 14 24  1  0  0  0  0
 15 28  2  0  0  0  0
 15 29  1  0  0  0  0
 16 23  1  0  0  0  0
 16 62  2  0  0  0  0
 17 30  1  0  0  0  0
 18 30  1  0  0  0  0
 18 32  2  0  0  0  0
 18 33  1  0  0  0  0
 19 21  2  0  0  0  0
 19 38  1  0  0  0  0
 20 22  2  0  0  0  0
 20 39  1  0  0  0  0
 21 47  1  0  0  0  0
 22 40  1  0  0  0  0
 23 57  1  0  0  0  0
 24 31  2  0  0  0  0
 24 56  1  0  0  0  0
 25 78  1  0  0  0  0
 26 79  1  0  0  0  0
 27 29  2  0  0  0  0
 27 78  1  0  0  0  0
 28 80  1  0  0  0  0
 29 81  1  0  0  0  0
 30 63  2  0  0  0  0
 31 58  1  0  0  0  0
 31 62  1  0  0  0  0
 32 64  1  0  0  0  0
 32 67  1  0  0  0  0
 33 68  1  0  0  0  0
 33 73  2  0  0  0  0
 34 48  1  0  0  0  0
 34 69  1  0  0  0  0
 34 74  2  0  0  0  0
 35 59  1  0  0  0  0
 35 65  1  0  0  0  0
 35 75  2  0  0  0  0
 36 60  1  0  0  0  0
 36 70  1  0  0  0  0
 36 76  2  0  0  0  0
 37 66  1  0  0  0  0
 37 71  1  0  0  0  0
 37 77  2  0  0  0  0
 38 41  1  0  0  0  0
 39 48  1  0  0  0  0
 40 65  1  0  0  0  0
 41 43  1  0  0  0  0
 42 44  1  0  0  0  0
 42 45  1  0  0  0  0
 43 47  1  0  0  0  0
 44 49  1  0  0  0  0
 45 66  1  0  0  0  0
 46 49  1  0  0  0  0
 46 66  1  0  0  0  0
 47 69  1  0  0  0  0
 48 65  1  0  0  0  0
 49 64  1  0  0  0  0
 50 56  1  0  0  0  0
 51 60  1  0  0  0  0
 52 61  1  0  0  0  0
 53 61  1  0  0  0  0
 54 61  1  0  0  0  0
 55 72  1  0  0  0  0
 57 79  1  0  0  0  0
 58 71  1  0  0  0  0
 59 61  1  0  0  0  0
 59 70  1  0  0  0  0
 60 72  1  0  0  0  0
 63 64  1  0  0  0  0
M  CHG  1  72   1
M  ISO  4  37 100  57 101  71 100  79 101
M  END
> <Batch ID>
0087

> <Smiles>
CCc1cc([101CH2:1][101O:1]c2ccc3c(c2)CN(C(=O)C(NC(=O)C(C)NC)C(C)(C)C)C(C(=O)NC2CCCc4ccccc42)C3)cnc1C[100NH:0][100C:0](=O)N1CCCC(n2nc(-c3ccc(Oc4ccc(F)cc4F)cc3)c(C(N)=O)c2N)C1

> <Shape>
0.267

> <Color>
0.187

> <Negative vol penalty>
0.000

$$$$

  -OEChem-04052319013D

 92100  0     1  0  0  0  0  0999 V2000
  -18.8889  -33.3949   20.9734 C   0  0  0  0  0  0  0  0  0  0  0  0
  -20.1839  -33.0917   20.5651 C   0  0  0  0  0  0  0  0  0  0  0  0
  -25.4444  -13.3306   21.9980 C   0  0  0  0  0  0  0  0  0  0  0  0
  -26.8073  -13.1643   20.0101 C   0  0  0  0  0  0  0  0  0  0  0  0
  -18.3595  -32.7918   22.1135 C   0  0  0  0  0  0  0  0  0  0  0  0
  -20.9506  -32.1860   21.2975 C   0  0  0  0  0  0  0  0  0  0  0  0
  -25.0537  -28.2095   19.0937 C   0  0  0  0  0  0  0  0  0  0  0  0
  -24.4993  -12.4825   21.4210 C   0  0  0  0  0  0  0  0  0  0  0  0
  -25.8622  -12.3160   19.4331 C   0  0  0  0  0  0  0  0  0  0  0  0
  -26.4441  -28.2520   18.9989 C   0  0  0  0  0  0  0  0  0  0  0  0
  -24.1221   -9.1636   20.8957 C   0  0  0  0  0  0  0  0  0  0  0  0
  -23.6039   -8.1376   21.6858 C   0  0  0  0  0  0  0  0  0  0  0  0
  -26.6166  -27.0093   21.0592 C   0  0  0  0  0  0  0  0  0  0  0  0
  -28.0936  -24.9399   17.7845 C   0  0  0  0  0  0  0  0  0  0  0  0
  -30.1012  -23.6036   17.6399 C   0  0  0  0  0  0  0  0  0  0  0  0
  -21.3818   -9.0436   21.4048 C   0  0  0  0  0  0  0  0  0  0  0  0
  -26.5984  -13.6716   21.2925 C   0  0  0  0  0  0  0  0  0  0  0  0
  -28.6806  -14.1781   22.6766 C   0  0  0  0  0  0  0  0  0  0  0  0
  -19.1167  -31.8709   22.8547 C   0  0  0  0  0  0  0  0  0  0  0  0
  -24.4335  -27.5749   20.1795 C   0  0  0  0  0  0  0  0  0  0  0  0
  -20.4312  -31.5711   22.4494 C   0  0  0  0  0  0  0  0  0  0  0  0
  -25.2182  -26.9578   21.1642 C   0  0  0  0  0  0  0  0  0  0  0  0
  -29.4824  -24.8342   17.8599 C   0  0  0  0  0  0  0  0  0  0  0  0
  -27.3235  -23.8149   17.4894 C   0  0  0  0  0  0  0  0  0  0  0  0
  -29.3311  -22.4786   17.3448 C   0  0  0  0  0  0  0  0  0  0  0  0
  -27.9423  -22.5843   17.2695 C   0  0  0  0  0  0  0  0  0  0  0  0
  -24.7081  -11.9751   20.1386 C   0  0  0  0  0  0  0  0  0  0  0  0
  -27.2257  -27.6544   19.9832 C   0  0  0  0  0  0  0  0  0  0  0  0
  -23.2703  -10.1297   20.3602 C   0  0  0  0  0  0  0  0  0  0  0  0
  -22.2337   -8.0775   21.9403 C   0  0  0  0  0  0  0  0  0  0  0  0
  -21.9001  -10.0697   20.6147 C   0  0  0  0  0  0  0  0  0  0  0  0
  -27.5749  -14.5481   21.8878 C   0  0  0  0  0  0  0  0  0  0  0  0
  -29.2896  -15.3676   22.9936 C   0  0  0  0  0  0  0  0  0  0  0  0
  -29.1181  -12.8755   23.0861 C   0  0  0  0  0  0  0  0  0  0  0  0
  -22.5091  -28.5167   22.5276 C   0  0  0  0  0  0  0  0  0  0  0  0
  -22.4039  -25.3427   23.1888 C   0  0  0  0  0  0  0  0  0  0  0  0
  -23.8968  -22.2830   22.9523 C   0  0  0  0  0  0  0  0  0  0  0  0
  -29.3691  -20.7394   20.3500 C   0  0  0  0  0  0  0  0  0  0  0  0
  -18.5185  -31.2804   24.1070 C   0  0  0  0  0  0  0  0  0  0  0  0
  -22.9324  -27.5145   20.2533 C   0  0  0  0  0  0  0  0  0  0  0  0
  -24.6010  -26.2462   22.3394 C   0  0  0  0  0  0  0  0  0  0  0  0
  -19.2626  -30.0481   24.6149 C   0  0  0  0  0  0  0  0  0  0  0  0
  -28.3244  -20.0041   23.6734 C   0  0  0  0  0  0  0  0  0  0  0  0
  -20.7674  -30.2975   24.6198 C   0  0  0  0  0  0  0  0  0  0  0  0
  -28.1136  -18.4891   23.6638 C   0  0  0  0  0  0  0  0  0  0  0  0
  -27.9089  -20.6401   22.3487 C   0  0  0  0  0  0  0  0  0  0  0  0
  -28.3249  -18.5311   21.1434 C   0  0  0  0  0  0  0  0  0  0  0  0
  -21.2853  -30.5749   23.2033 C   0  0  1  0  0  0  0  0  0  0  0  0
  -22.4124  -27.2871   21.6694 C   0  0  1  0  0  0  0  0  0  0  0  0
  -28.7821  -17.8377   22.4382 C   0  0  2  0  0  0  0  0  0  0  0  0
  -27.1164  -21.3783   16.9526 C   0  0  0  0  0  0  0  0  0  0  0  0
  -30.9430  -21.2209   15.8805 C   0  0  0  0  0  0  0  0  0  0  0  0
  -23.5897  -19.8841   23.6222 C   0  0  0  0  0  0  0  0  0  0  0  0
  -23.0765  -23.0128   16.3939 C   0  0  0  0  0  0  0  0  0  0  0  0
  -23.4484  -24.2725   14.2688 C   0  0  0  0  0  0  0  0  0  0  0  0
  -23.3384  -25.4965   16.4545 C   0  0  0  0  0  0  0  0  0  0  0  0
  -23.2231  -26.0379   26.0446 C   0  0  0  0  0  0  0  0  0  0  0  0
  -23.8165  -23.6297   26.3864 C   0  0  0  0  0  0  0  0  0  0  0  0
  -21.4627  -24.2706   25.8652 C   0  0  0  0  0  0  0  0  0  0  0  0
  -31.3728  -25.1601   20.3328 C   0  0  0  0  0  0  0  0  0  0  0  0
  -31.5178  -27.5800   19.7572 C   0  0  0  0  0  0  0  0  0  0  0  0
  -23.8451  -21.3815   20.1338 C   0  0  0  0  0  0  0  0  0  0  0  0
  -30.3165  -26.0526   18.1802 C   0  0  0  0  0  0  0  0  0  0  0  0
  -25.8382  -23.9551   17.4135 C   0  0  0  0  0  0  0  0  0  0  0  0
  -25.3387  -23.9960   15.9570 C   0  0  0  0  0  0  0  0  0  0  0  0
  -30.8215  -20.6760   18.3387 C   0  0  0  0  0  0  0  0  0  0  0  0
  -29.3047  -26.6047   20.4650 C   0  0  0  0  0  0  0  0  0  1  0  0
  -30.0180  -21.1723   17.1133 C   0  0  1  0  0  0  0  0  0  0  0  0
  -23.2146  -24.4020   24.0471 C   0  0  1  0  0  0  0  0  0  0  0  0
  -23.3540  -20.9265   22.5401 C   0  0  2  0  0  0  0  0  0  0  0  0
  -23.8139  -24.2094   15.7609 C   0  0  0  0  0  0  0  0  0  0  0  0
  -22.9412  -24.6000   25.5648 C   0  0  0  0  0  0  0  0  0  0  0  0
  -30.6099  -26.3313   19.6839 C   0  0  0  0  0  0  0  0  0  0  0  0
  -27.4842  -15.8694   21.7145 N   0  0  0  0  0  0  0  0  0  0  0  0
  -28.5407  -16.3400   22.3989 N   0  0  0  0  0  0  0  0  0  0  0  0
  -23.1293  -26.2198   22.3701 N   0  0  0  0  0  0  0  0  0  0  0  0
  -28.5792  -19.9778   21.2270 N   0  0  0  0  0  0  0  0  0  0  0  0
  -30.3874  -15.6663   23.7204 N   0  0  0  0  0  0  0  0  0  0  0  0
  -28.3765  -11.7608   22.6719 N   0  0  0  0  0  0  0  0  0  0  0  0
  -21.4019  -29.3405   22.4570 N   0  0  0  0  0  0  0  0  0  0  0  0
  -22.9304  -23.0568   23.5593 N   0  0  0  0  0  0  0  0  0  0  0  0
  -29.9739  -20.0328   19.3177 N   0  0  0  0  0  0  0  0  0  0  0  0
  -24.0160  -20.4623   21.2882 N   0  3  0  0  0  0  0  0  0  0  0  0
  -30.1271  -12.7064   23.8119 O   0  0  0  0  0  0  0  0  0  0  0  0
  -23.5132  -28.7033   23.2048 O   0  0  0  0  0  0  0  0  0  0  0  0
  -21.1722  -25.2959   23.2374 O   0  0  0  0  0  0  0  0  0  0  0  0
  -25.0625  -22.6208   22.7586 O   0  0  0  0  0  0  0  0  0  0  0  0
  -29.5281  -21.9578   20.4806 O   0  0  0  0  0  0  0  0  0  0  0  0
  -23.7862  -11.1473   19.5753 O   0  0  0  0  0  0  0  0  0  0  0  0
  -28.5830  -27.6950   19.8935 O   0  0  0  0  0  0  0  0  0  1  0  0
  -21.7360   -7.0913   22.6978 F   0  0  0  0  0  0  0  0  0  0  0  0
  -21.0766  -10.9943   20.1021 F   0  0  0  0  0  0  0  0  0  0  0  0
  1  2  1  0  0  0  0
  1  5  2  0  0  0  0
  2  6  2  0  0  0  0
  3  8  2  0  0  0  0
  3 17  1  0  0  0  0
  4  9  1  0  0  0  0
  4 17  2  0  0  0  0
  5 19  1  0  0  0  0
  6 21  1  0  0  0  0
  7 10  2  0  0  0  0
  7 20  1  0  0  0  0
  8 27  1  0  0  0  0
  9 27  2  0  0  0  0
 10 28  1  0  0  0  0
 11 12  2  0  0  0  0
 11 29  1  0  0  0  0
 12 30  1  0  0  0  0
 13 22  1  0  0  0  0
 13 28  2  0  0  0  0
 14 23  1  0  0  0  0
 14 24  2  0  0  0  0
 15 23  2  0  0  0  0
 15 25  1  0  0  0  0
 16 30  2  0  0  0  0
 16 31  1  0  0  0  0
 17 32  1  0  0  0  0
 18 32  1  0  0  0  0
 18 33  2  0  0  0  0
 18 34  1  0  0  0  0
 19 21  2  0  0  0  0
 19 39  1  0  0  0  0
 20 22  2  0  0  0  0
 20 40  1  0  0  0  0
 21 48  1  0  0  0  0
 22 41  1  0  0  0  0
 23 63  1  0  0  0  0
 24 26  1  0  0  0  0
 24 64  1  0  0  0  0
 25 26  2  0  0  0  0
 25 68  1  0  0  0  0
 26 51  1  0  0  0  0
 27 89  1  0  0  0  0
 28 90  1  0  0  0  0
 29 31  2  0  0  0  0
 29 89  1  0  0  0  0
 30 91  1  0  0  0  0
 31 92  1  0  0  0  0
 32 74  2  0  0  0  0
 33 75  1  0  0  0  0
 33 78  1  0  0  0  0
 34 79  1  0  0  0  0
 34 84  2  0  0  0  0
 35 49  1  0  0  0  0
 35 80  1  0  0  0  0
 35 85  2  0  0  0  0
 36 69  1  0  0  0  0
 36 76  1  0  0  0  0
 36 86  2  0  0  0  0
 37 70  1  0  0  0  0
 37 81  1  0  0  0  0
 37 87  2  0  0  0  0
 38 77  1  0  0  0  0
 38 82  1  0  0  0  0
 38 88  2  0  0  0  0
 39 42  1  0  0  0  0
 40 49  1  0  0  0  0
 41 76  1  0  0  0  0
 42 44  1  0  0  0  0
 43 45  1  0  0  0  0
 43 46  1  0  0  0  0
 44 48  1  0  0  0  0
 45 50  1  0  0  0  0
 46 77  1  0  0  0  0
 47 50  1  0  0  0  0
 47 77  1  0  0  0  0
 48 80  1  0  0  0  0
 49 76  1  0  0  0  0
 50 75  1  0  0  0  0
 52 68  1  0  0  0  0
 53 70  1  0  0  0  0
 54 71  1  0  0  0  0
 55 71  1  0  0  0  0
 56 71  1  0  0  0  0
 57 72  1  0  0  0  0
 58 72  1  0  0  0  0
 59 72  1  0  0  0  0
 60 73  1  0  0  0  0
 61 73  1  0  0  0  0
 62 83  1  0  0  0  0
 63 73  1  0  0  0  0
 64 65  1  0  0  0  0
 65 71  1  0  0  0  0
 66 68  1  0  0  0  0
 66 82  1  0  0  0  0
 67 73  1  0  0  0  0
 67 90  1  0  0  0  0
 69 72  1  0  0  0  0
 69 81  1  0  0  0  0
 70 83  1  0  0  0  0
 74 75  1  0  0  0  0
M  CHG  1  83   1
M  ISO  4  38 100  67 101  82 100  90 101
M  END
> <Batch ID>
0087

> <Smiles>
CNC(C)C(=O)NC(C(=O)N1Cc2cc([101O:1][101CH2:1]C(C)(C)Cc3cc(CCC(C)(C)C)c(C)c(C(C)C[100NH:0][100C:0](=O)N4CCCC(n5nc(-c6ccc(Oc7ccc(F)cc7F)cc6)c(C(N)=O)c5N)C4)c3)ccc2CC1C(=O)NC1CCCc2ccccc21)C(C)(C)C

> <Shape>
0.229

> <Color>
0.090

> <Negative vol penalty>
0.000

$$$$

  -OEChem-04052319013D

 81 89  0     1  0  0  0  0  0999 V2000
  -25.3663  -11.2874   20.3646 C   0  0  0  0  0  0  0  0  0  0  0  0
  -26.2328  -12.3334   20.0639 C   0  0  0  0  0  0  0  0  0  0  0  0
  -26.3208  -27.8887   18.9044 C   0  0  0  0  0  0  0  0  0  0  0  0
  -26.1155  -26.9063   21.1020 C   0  0  0  0  0  0  0  0  0  0  0  0
  -24.1684  -11.5455   21.0299 C   0  0  0  0  0  0  0  0  0  0  0  0
  -25.9015  -13.6382   20.4272 C   0  0  0  0  0  0  0  0  0  0  0  0
  -29.7961  -16.1271   22.4967 C   0  0  0  0  0  0  0  0  0  0  0  0
  -25.7840  -29.0820   19.3876 C   0  0  0  0  0  0  0  0  0  0  0  0
  -25.5787  -28.0995   21.5853 C   0  0  0  0  0  0  0  0  0  0  0  0
  -30.7680  -16.6232   21.6290 C   0  0  0  0  0  0  0  0  0  0  0  0
  -26.7190  -31.1290   22.5562 C   0  0  0  0  0  0  0  0  0  0  0  0
  -27.1998  -31.6074   23.7750 C   0  0  0  0  0  0  0  0  0  0  0  0
  -28.5938  -18.3383   15.9713 C   0  0  0  0  0  0  0  0  0  0  0  0
  -29.7699  -18.8145   21.7736 C   0  0  0  0  0  0  0  0  0  0  0  0
  -24.9725  -31.4824   24.7027 C   0  0  0  0  0  0  0  0  0  0  0  0
  -29.8437  -18.8652   16.2106 C   0  0  0  0  0  0  0  0  0  0  0  0
  -29.7269  -16.9052   17.2873 C   0  0  0  0  0  0  0  0  0  0  0  0
  -26.4865  -26.8008   19.7615 C   0  0  0  0  0  0  0  0  0  0  0  0
  -28.3988  -25.1998   19.2254 C   0  0  0  0  0  0  0  0  0  0  0  0
  -23.8267  -12.8529   21.4101 C   0  0  0  0  0  0  0  0  0  0  0  0
  -28.7956  -16.9700   23.0016 C   0  0  0  0  0  0  0  0  0  0  0  0
  -24.6973  -13.9142   21.0969 C   0  0  0  0  0  0  0  0  0  0  0  0
  -28.7879  -18.3272   22.6495 C   0  0  0  0  0  0  0  0  0  0  0  0
  -28.5199  -17.0983   16.6524 C   0  0  0  0  0  0  0  0  0  0  0  0
  -25.4130  -29.1874   20.7281 C   0  0  0  0  0  0  0  0  0  0  0  0
  -30.7534  -17.9664   21.2650 C   0  0  0  0  0  0  0  0  0  0  0  0
  -25.3649  -30.8273   22.4105 C   0  0  0  0  0  0  0  0  0  0  0  0
  -26.3266  -31.7841   24.8483 C   0  0  0  0  0  0  0  0  0  0  0  0
  -24.4917  -31.0040   23.4838 C   0  0  0  0  0  0  0  0  0  0  0  0
  -27.0405  -25.5678   19.2628 C   0  0  0  0  0  0  0  0  0  0  0  0
  -28.3994  -23.9455   18.6656 C   0  0  0  0  0  0  0  0  0  0  0  0
  -29.5565  -25.9267   19.6580 C   0  0  0  0  0  0  0  0  0  0  0  0
  -25.6249  -17.0614   22.7961 C   0  0  0  0  0  0  0  0  0  0  0  0
  -25.9453  -19.4797   24.9342 C   0  0  0  0  0  0  0  0  0  0  0  0
  -27.9191  -21.9208   26.2730 C   0  0  0  0  0  0  0  0  0  0  0  0
  -26.3915  -18.8628   18.3807 C   0  0  0  0  0  0  0  0  0  0  0  0
  -22.4990  -13.0889   22.0855 C   0  0  0  0  0  0  0  0  0  0  0  0
  -27.7701  -16.4253   23.9577 C   0  0  0  0  0  0  0  0  0  0  0  0
  -27.7474  -19.2782   23.1800 C   0  0  0  0  0  0  0  0  0  0  0  0
  -22.3964  -14.4503   22.7682 C   0  0  0  0  0  0  0  0  0  0  0  0
  -24.7051  -21.3584   16.3744 C   0  0  0  0  0  0  0  0  0  0  0  0
  -22.9059  -15.5511   21.8433 C   0  0  0  0  0  0  0  0  0  0  0  0
  -25.2815  -22.6527   16.9511 C   0  0  0  0  0  0  0  0  0  0  0  0
  -24.4827  -20.3171   17.4672 C   0  0  0  0  0  0  0  0  0  0  0  0
  -26.2734  -21.2934   18.8507 C   0  0  0  0  0  0  0  0  0  0  0  0
  -24.3846  -15.3399   21.4966 C   0  0  1  0  0  0  0  0  0  0  0  0
  -26.4944  -17.2605   24.0053 C   0  0  1  0  0  0  0  0  0  0  0  0
  -26.5422  -22.3786   17.7924 C   0  0  2  0  0  0  0  0  0  0  0  0
  -27.8917  -23.7619   27.9779 C   0  0  0  0  0  0  0  0  0  0  0  0
  -24.2939  -21.2080   23.0378 C   0  0  0  0  0  0  0  0  0  0  0  0
  -25.0932  -23.2232   24.2901 C   0  0  0  0  0  0  0  0  0  0  0  0
  -23.7344  -21.4884   25.4591 C   0  0  0  0  0  0  0  0  0  0  0  0
  -30.1059  -20.6715   27.8273 C   0  0  0  0  0  0  0  0  0  0  0  0
  -27.3644  -16.1811   16.6770 C   0  0  0  0  0  0  0  0  0  0  0  0
  -32.1360  -19.4795   18.2933 C   0  0  0  0  0  0  0  0  0  0  0  0
  -31.9323  -18.1780   17.5146 C   0  0  0  0  0  0  0  0  0  0  0  0
  -26.3757  -16.4439   17.8279 C   0  0  0  0  0  0  0  0  0  0  0  0
  -31.3238  -19.5463   19.5814 C   0  0  0  0  0  0  0  0  0  1  0  0
  -26.1306  -20.9748   24.8374 C   0  0  1  0  0  0  0  0  0  0  0  0
  -28.2154  -22.2999   27.7127 C   0  0  2  0  0  0  0  0  0  0  0  0
  -24.8316  -21.7055   24.3944 C   0  0  0  0  0  0  0  0  0  0  0  0
  -26.2367  -24.6237   18.7662 N   0  0  0  0  0  0  0  0  0  0  0  0
  -30.5237  -17.9857   17.0120 N   0  0  0  0  0  0  0  0  0  0  0  0
  -27.0924  -23.6501   18.4114 N   0  0  0  0  0  0  0  0  0  0  0  0
  -26.7624  -18.6965   24.1067 N   0  0  0  0  0  0  0  0  0  0  0  0
  -25.7252  -20.0888   18.2184 N   0  0  0  0  0  0  0  0  0  0  0  0
  -29.3905  -23.0775   18.3709 N   0  0  0  0  0  0  0  0  0  0  0  0
  -29.3766  -27.2021   20.2105 N   0  0  0  0  0  0  0  0  0  0  0  0
  -25.2262  -15.7531   22.5990 N   0  0  0  0  0  0  0  0  0  0  0  0
  -26.6475  -21.4067   26.1315 N   0  0  0  0  0  0  0  0  0  0  0  0
  -25.8033  -17.7698   17.7561 N   0  0  0  0  0  0  0  0  0  0  0  0
  -29.6556  -22.0738   28.0220 N   0  3  0  0  0  0  0  0  0  0  0  0
  -30.7174  -25.4658   19.5424 O   0  0  0  0  0  0  0  0  0  0  0  0
  -25.3359  -18.0239   22.0947 O   0  0  0  0  0  0  0  0  0  0  0  0
  -25.1115  -19.0234   25.7204 O   0  0  0  0  0  0  0  0  0  0  0  0
  -28.7329  -22.0696   25.3640 O   0  0  0  0  0  0  0  0  0  0  0  0
  -27.4369  -18.7511   19.0302 O   0  0  0  0  0  0  0  0  0  0  0  0
  -24.8893  -30.3517   21.2001 O   0  0  0  0  0  0  0  0  0  0  0  0
  -31.7005  -18.4531   20.4177 O   0  0  0  0  0  0  0  0  0  1  0  0
  -26.7887  -32.2420   26.0191 F   0  0  0  0  0  0  0  0  0  0  0  0
  -23.1900  -30.7148   23.3503 F   0  0  0  0  0  0  0  0  0  0  0  0
  1  2  1  0  0  0  0
  1  5  2  0  0  0  0
  2  6  2  0  0  0  0
  3  8  2  0  0  0  0
  3 18  1  0  0  0  0
  4  9  1  0  0  0  0
  4 18  2  0  0  0  0
  5 20  1  0  0  0  0
  6 22  1  0  0  0  0
  7 10  2  0  0  0  0
  7 21  1  0  0  0  0
  8 25  1  0  0  0  0
  9 25  2  0  0  0  0
 10 26  1  0  0  0  0
 11 12  2  0  0  0  0
 11 27  1  0  0  0  0
 12 28  1  0  0  0  0
 13 16  2  0  0  0  0
 13 24  1  0  0  0  0
 14 23  1  0  0  0  0
 14 26  2  0  0  0  0
 15 28  2  0  0  0  0
 15 29  1  0  0  0  0
 16 63  1  0  0  0  0
 17 24  2  0  0  0  0
 17 63  1  0  0  0  0
 18 30  1  0  0  0  0
 19 30  1  0  0  0  0
 19 31  2  0  0  0  0
 19 32  1  0  0  0  0
 20 22  2  0  0  0  0
 20 37  1  0  0  0  0
 21 23  2  0  0  0  0
 21 38  1  0  0  0  0
 22 46  1  0  0  0  0
 23 39  1  0  0  0  0
 24 54  1  0  0  0  0
 25 78  1  0  0  0  0
 26 79  1  0  0  0  0
 27 29  2  0  0  0  0
 27 78  1  0  0  0  0
 28 80  1  0  0  0  0
 29 81  1  0  0  0  0
 30 62  2  0  0  0  0
 31 64  1  0  0  0  0
 31 67  1  0  0  0  0
 32 68  1  0  0  0  0
 32 73  2  0  0  0  0
 33 47  1  0  0  0  0
 33 69  1  0  0  0  0
 33 74  2  0  0  0  0
 34 59  1  0  0  0  0
 34 65  1  0  0  0  0
 34 75  2  0  0  0  0
 35 60  1  0  0  0  0
 35 70  1  0  0  0  0
 35 76  2  0  0  0  0
 36 66  1  0  0  0  0
 36 71  1  0  0  0  0
 36 77  2  0  0  0  0
 37 40  1  0  0  0  0
 38 47  1  0  0  0  0
 39 65  1  0  0  0  0
 40 42  1  0  0  0  0
 41 43  1  0  0  0  0
 41 44  1  0  0  0  0
 42 46  1  0  0  0  0
 43 48  1  0  0  0  0
 44 66  1  0  0  0  0
 45 48  1  0  0  0  0
 45 66  1  0  0  0  0
 46 69  1  0  0  0  0
 47 65  1  0  0  0  0
 48 64  1  0  0  0  0
 49 60  1  0  0  0  0
 50 61  1  0  0  0  0
 51 61  1  0  0  0  0
 52 61  1  0  0  0  0
 53 72  1  0  0  0  0
 54 57  1  0  0  0  0
 55 56  1  0  0  0  0
 55 58  1  0  0  0  0
 56 63  1  0  0  0  0
 57 71  1  0  0  0  0
 58 79  1  0  0  0  0
 59 61  1  0  0  0  0
 59 70  1  0  0  0  0
 60 72  1  0  0  0  0
 62 64  1  0  0  0  0
M  CHG  1  72   1
M  ISO  4  36 100  58 101  71 100  79 101
M  END
> <Batch ID>
0087

> <Smiles>
CNC(C)C(=O)NC(C(=O)N1Cc2cc([101O:1][101CH2:1]CCn3ccc(CC[100NH:0][100C:0](=O)N4CCCC(n5nc(-c6ccc(Oc7ccc(F)cc7F)cc6)c(C(N)=O)c5N)C4)c3)ccc2CC1C(=O)NC1CCCc2ccccc21)C(C)(C)C

> <Shape>
0.194

> <Color>
0.071

> <Negative vol penalty>
0.000

$$$$

  -OEChem-04052319013D

 85 93  0     1  0  0  0  0  0999 V2000
  -21.8351  -12.1496   21.6597 C   0  0  0  0  0  0  0  0  0  0  0  0
  -22.1073  -13.3389   22.3281 C   0  0  0  0  0  0  0  0  0  0  0  0
  -25.3126  -28.4820   20.1179 C   0  0  0  0  0  0  0  0  0  0  0  0
  -24.9002  -26.1924   19.4660 C   0  0  0  0  0  0  0  0  0  0  0  0
  -22.8077  -11.5702   20.8459 C   0  0  0  0  0  0  0  0  0  0  0  0
  -23.3528  -13.9491   22.1838 C   0  0  0  0  0  0  0  0  0  0  0  0
  -22.9942  -18.9468   21.4492 C   0  0  0  0  0  0  0  0  0  0  0  0
  -26.6811  -28.2186   20.1770 C   0  0  0  0  0  0  0  0  0  0  0  0
  -26.2687  -25.9291   19.5251 C   0  0  0  0  0  0  0  0  0  0  0  0
  -22.7441  -19.7387   22.5691 C   0  0  0  0  0  0  0  0  0  0  0  0
  -28.8440  -26.7482   22.3180 C   0  0  0  0  0  0  0  0  0  0  0  0
  -29.5484  -27.2281   23.4221 C   0  0  0  0  0  0  0  0  0  0  0  0
  -25.0875  -20.2979   22.6896 C   0  0  0  0  0  0  0  0  0  0  0  0
  -21.7167  -20.0534   26.0936 C   0  0  0  0  0  0  0  0  0  0  0  0
  -30.9555  -28.5352   21.9563 C   0  0  0  0  0  0  0  0  0  0  0  0
  -19.4776  -19.2937   26.3502 C   0  0  0  0  0  0  0  0  0  0  0  0
  -24.4221  -27.4688   19.7624 C   0  0  0  0  0  0  0  0  0  0  0  0
  -22.2760  -28.1893   18.5865 C   0  0  0  0  0  0  0  0  0  0  0  0
  -24.0623  -12.1787   20.6839 C   0  0  0  0  0  0  0  0  0  0  0  0
  -24.2968  -18.8156   20.9468 C   0  0  0  0  0  0  0  0  0  0  0  0
  -24.3436  -13.3767   21.3680 C   0  0  0  0  0  0  0  0  0  0  0  0
  -25.3512  -19.5058   21.5617 C   0  0  0  0  0  0  0  0  0  0  0  0
  -20.8045  -19.2300   26.7440 C   0  0  0  0  0  0  0  0  0  0  0  0
  -21.2804  -20.9034   25.0834 C   0  0  0  0  0  0  0  0  0  0  0  0
  -27.1591  -26.9422   19.8806 C   0  0  0  0  0  0  0  0  0  0  0  0
  -23.7912  -20.4120   23.1912 C   0  0  0  0  0  0  0  0  0  0  0  0
  -29.1953  -27.1617   21.0330 C   0  0  0  0  0  0  0  0  0  0  0  0
  -30.6041  -28.1216   23.2413 C   0  0  0  0  0  0  0  0  0  0  0  0
  -30.2510  -28.0552   20.8521 C   0  0  0  0  0  0  0  0  0  0  0  0
  -23.0083  -27.7401   19.7018 C   0  0  0  0  0  0  0  0  0  0  0  0
  -19.9323  -20.8921   24.7638 C   0  0  0  0  0  0  0  0  0  0  0  0
  -20.9844  -28.2913   19.0424 C   0  0  0  0  0  0  0  0  0  0  0  0
  -22.7233  -28.4877   17.2574 C   0  0  0  0  0  0  0  0  0  0  0  0
  -26.3181  -16.3933   20.5590 C   0  0  0  0  0  0  0  0  0  0  0  0
  -28.1152  -18.6417   19.0633 C   0  0  0  0  0  0  0  0  0  0  0  0
  -28.8727  -21.9442   18.6546 C   0  0  0  0  0  0  0  0  0  0  0  0
  -18.0065  -25.6088   23.4907 C   0  0  0  0  0  0  0  0  0  0  0  0
  -25.0983  -11.4902   19.8310 C   0  0  0  0  0  0  0  0  0  0  0  0
  -24.5459  -17.9790   19.7219 C   0  0  0  0  0  0  0  0  0  0  0  0
  -26.7645  -19.4143   21.0493 C   0  0  0  0  0  0  0  0  0  0  0  0
  -26.2614  -12.3963   19.4353 C   0  0  0  0  0  0  0  0  0  0  0  0
  -18.4756  -29.1085   23.0335 C   0  0  0  0  0  0  0  0  0  0  0  0
  -26.7691  -13.1728   20.6461 C   0  0  0  0  0  0  0  0  0  0  0  0
  -19.6244  -29.1952   22.0272 C   0  0  0  0  0  0  0  0  0  0  0  0
  -18.6608  -27.9427   24.0023 C   0  0  0  0  0  0  0  0  0  0  0  0
  -20.0245  -26.7189   22.3541 C   0  0  0  0  0  0  0  0  0  0  0  0
  -25.6740  -14.0818   21.2172 C   0  0  1  0  0  0  0  0  0  0  0  0
  -25.9918  -17.5070   19.6045 C   0  0  1  0  0  0  0  0  0  0  0  0
  -19.8540  -27.8456   21.3207 C   0  0  2  0  0  0  0  0  0  0  0  0
  -21.8269  -19.0570   29.0415 C   0  0  0  0  0  0  0  0  0  0  0  0
  -22.2442  -17.2475   27.3367 C   0  0  0  0  0  0  0  0  0  0  0  0
  -22.4236  -23.1475   25.0714 C   0  0  0  0  0  0  0  0  0  0  0  0
  -29.9633  -23.9784   17.6698 C   0  0  0  0  0  0  0  0  0  0  0  0
  -30.4065  -17.8681   20.9238 C   0  0  0  0  0  0  0  0  0  0  0  0
  -31.5514  -20.0017   20.2872 C   0  0  0  0  0  0  0  0  0  0  0  0
  -31.0817  -18.2739   18.5502 C   0  0  0  0  0  0  0  0  0  0  0  0
  -26.7480  -22.2387   16.6156 C   0  0  0  0  0  0  0  0  0  0  0  0
  -19.4069  -21.7835   23.6864 C   0  0  0  0  0  0  0  0  0  0  0  0
  -17.9838  -22.3162   23.9398 C   0  0  0  0  0  0  0  0  0  0  0  0
  -17.4675  -23.2689   22.8636 C   0  0  0  0  0  0  0  0  0  0  0  0
  -21.2392  -18.3090   27.8279 C   0  0  0  0  0  0  0  0  0  0  0  0
  -22.2665  -21.8025   24.3734 C   0  0  1  0  0  0  0  0  0  1  0  0
  -29.1701  -19.6302   19.4982 C   0  0  1  0  0  0  0  0  0  0  0  0
  -29.0523  -22.7895   17.4066 C   0  0  2  0  0  0  0  0  0  0  0  0
  -30.5262  -18.9439   19.8259 C   0  0  0  0  0  0  0  0  0  0  0  0
  -19.0163  -20.1064   25.3733 N   0  0  0  0  0  0  0  0  0  0  0  0
  -22.2454  -27.5687   20.7846 N   0  0  0  0  0  0  0  0  0  0  0  0
  -21.0202  -27.9121   20.3520 N   0  0  0  0  0  0  0  0  0  0  0  0
  -26.9582  -18.5788   19.8527 N   0  0  0  0  0  0  0  0  0  0  0  0
  -18.8724  -26.6924   23.2688 N   0  0  0  0  0  0  0  0  0  0  0  0
  -19.8328  -28.6676   18.4467 N   0  0  0  0  0  0  0  0  0  0  0  0
  -24.0833  -28.3285   16.9586 N   0  0  0  0  0  0  0  0  0  0  0  0
  -25.5283  -15.2700   20.4039 N   0  0  0  0  0  0  0  0  0  0  0  0
  -29.2483  -20.6345   18.4428 N   0  0  0  0  0  0  0  0  0  0  0  0
  -18.2737  -24.4639   22.7501 N   0  0  0  0  0  0  0  0  0  0  0  0
  -27.7351  -23.3022   16.9343 N   0  3  0  0  0  0  0  0  0  0  0  0
  -21.9429  -28.8993   16.3657 O   0  0  0  0  0  0  0  0  0  0  0  0
  -27.2205  -16.5415   21.3746 O   0  0  0  0  0  0  0  0  0  0  0  0
  -28.3075  -17.9560   18.0561 O   0  0  0  0  0  0  0  0  0  0  0  0
  -28.4458  -22.4009   19.7128 O   0  0  0  0  0  0  0  0  0  0  0  0
  -17.0619  -25.6599   24.2858 O   0  0  0  0  0  0  0  0  0  0  0  0
  -28.4945  -26.6850   19.9379 O   0  0  0  0  0  0  0  0  0  0  0  0
  -23.5499  -21.1851   24.2849 O   0  0  0  0  0  0  0  0  0  1  0  0
  -31.2795  -28.5835   24.3017 F   0  0  0  0  0  0  0  0  0  0  0  0
  -30.5924  -28.4571   19.6201 F   0  0  0  0  0  0  0  0  0  0  0  0
  1  2  1  0  0  0  0
  1  5  2  0  0  0  0
  2  6  2  0  0  0  0
  3  8  2  0  0  0  0
  3 17  1  0  0  0  0
  4  9  1  0  0  0  0
  4 17  2  0  0  0  0
  5 19  1  0  0  0  0
  6 21  1  0  0  0  0
  7 10  2  0  0  0  0
  7 20  1  0  0  0  0
  8 25  1  0  0  0  0
  9 25  2  0  0  0  0
 10 26  1  0  0  0  0
 11 12  2  0  0  0  0
 11 27  1  0  0  0  0
 12 28  1  0  0  0  0
 13 22  1  0  0  0  0
 13 26  2  0  0  0  0
 14 23  2  0  0  0  0
 14 24  1  0  0  0  0
 15 28  2  0  0  0  0
 15 29  1  0  0  0  0
 16 23  1  0  0  0  0
 16 66  2  0  0  0  0
 17 30  1  0  0  0  0
 18 30  1  0  0  0  0
 18 32  2  0  0  0  0
 18 33  1  0  0  0  0
 19 21  2  0  0  0  0
 19 38  1  0  0  0  0
 20 22  2  0  0  0  0
 20 39  1  0  0  0  0
 21 47  1  0  0  0  0
 22 40  1  0  0  0  0
 23 61  1  0  0  0  0
 24 31  2  0  0  0  0
 24 62  1  0  0  0  0
 25 82  1  0  0  0  0
 26 83  1  0  0  0  0
 27 29  2  0  0  0  0
 27 82  1  0  0  0  0
 28 84  1  0  0  0  0
 29 85  1  0  0  0  0
 30 67  2  0  0  0  0
 31 58  1  0  0  0  0
 31 66  1  0  0  0  0
 32 68  1  0  0  0  0
 32 71  1  0  0  0  0
 33 72  1  0  0  0  0
 33 77  2  0  0  0  0
 34 48  1  0  0  0  0
 34 73  1  0  0  0  0
 34 78  2  0  0  0  0
 35 63  1  0  0  0  0
 35 69  1  0  0  0  0
 35 79  2  0  0  0  0
 36 64  1  0  0  0  0
 36 74  1  0  0  0  0
 36 80  2  0  0  0  0
 37 70  1  0  0  0  0
 37 75  1  0  0  0  0
 37 81  2  0  0  0  0
 38 41  1  0  0  0  0
 39 48  1  0  0  0  0
 40 69  1  0  0  0  0
 41 43  1  0  0  0  0
 42 44  1  0  0  0  0
 42 45  1  0  0  0  0
 43 47  1  0  0  0  0
 44 49  1  0  0  0  0
 45 70  1  0  0  0  0
 46 49  1  0  0  0  0
 46 70  1  0  0  0  0
 47 73  1  0  0  0  0
 48 69  1  0  0  0  0
 49 68  1  0  0  0  0
 50 61  1  0  0  0  0
 51 61  1  0  0  0  0
 52 62  1  0  0  0  0
 53 64  1  0  0  0  0
 54 65  1  0  0  0  0
 55 65  1  0  0  0  0
 56 65  1  0  0  0  0
 57 76  1  0  0  0  0
 58 59  1  0  0  0  0
 59 60  1  0  0  0  0
 60 75  1  0  0  0  0
 62 83  1  0  0  0  0
 63 65  1  0  0  0  0
 63 74  1  0  0  0  0
 64 76  1  0  0  0  0
 67 68  1  0  0  0  0
M  CHG  1  76   1
M  ISO  4  37 100  62 101  75 100  83 101
M  END
> <Batch ID>
0087

> <Smiles>
CNC(C)C(=O)NC(C(=O)N1Cc2cc([101O:1][101CH:1](C)c3cc(C(C)C)cnc3CCC[100NH:0][100C:0](=O)N3CCCC(n4nc(-c5ccc(Oc6ccc(F)cc6F)cc5)c(C(N)=O)c4N)C3)ccc2CC1C(=O)NC1CCCc2ccccc21)C(C)(C)C

> <Shape>
0.210

> <Color>
0.085

> <Negative vol penalty>
0.000

$$$$

  -OEChem-04052319013D

 88 96  0     1  0  0  0  0  0999 V2000
  -30.1260  -23.6835   17.8941 C   0  0  0  0  0  0  0  0  0  0  0  0
  -28.7531  -23.6700   18.1185 C   0  0  0  0  0  0  0  0  0  0  0  0
  -28.1353  -14.9121   21.2589 C   0  0  0  0  0  0  0  0  0  0  0  0
  -26.0411  -15.6435   20.3018 C   0  0  0  0  0  0  0  0  0  0  0  0
  -30.9695  -24.3523   18.7801 C   0  0  0  0  0  0  0  0  0  0  0  0
  -28.2229  -24.3244   19.2298 C   0  0  0  0  0  0  0  0  0  0  0  0
  -22.8462  -27.2366   19.5691 C   0  0  0  0  0  0  0  0  0  0  0  0
  -27.7275  -13.5838   21.1362 C   0  0  0  0  0  0  0  0  0  0  0  0
  -25.6333  -14.3152   20.1790 C   0  0  0  0  0  0  0  0  0  0  0  0
  -21.6006  -26.8519   20.0635 C   0  0  0  0  0  0  0  0  0  0  0  0
  -27.5165  -11.2588   18.6903 C   0  0  0  0  0  0  0  0  0  0  0  0
  -28.4361  -10.3430   18.1791 C   0  0  0  0  0  0  0  0  0  0  0  0
  -22.1087  -27.9263   22.1627 C   0  0  0  0  0  0  0  0  0  0  0  0
  -20.3513  -23.7630   23.6409 C   0  0  0  0  0  0  0  0  0  0  0  0
  -28.3061   -9.0689   20.2277 C   0  0  0  0  0  0  0  0  0  0  0  0
  -18.8755  -25.1559   24.8813 C   0  0  0  0  0  0  0  0  0  0  0  0
  -27.2921  -15.9419   20.8418 C   0  0  0  0  0  0  0  0  0  0  0  0
  -28.4141  -18.0799   20.0184 C   0  0  0  0  0  0  0  0  0  0  0  0
  -30.4484  -25.0235   19.8976 C   0  0  0  0  0  0  0  0  0  0  0  0
  -23.7382  -27.9609   20.3729 C   0  0  0  0  0  0  0  0  0  0  0  0
  -29.0603  -25.0017   20.1324 C   0  0  0  0  0  0  0  0  0  0  0  0
  -23.3639  -28.3212   21.6753 C   0  0  0  0  0  0  0  0  0  0  0  0
  -19.2582  -24.6221   23.6613 C   0  0  0  0  0  0  0  0  0  0  0  0
  -21.0190  -23.4682   24.8244 C   0  0  0  0  0  0  0  0  0  0  0  0
  -26.4765  -13.2854   20.5962 C   0  0  0  0  0  0  0  0  0  0  0  0
  -21.2329  -27.1942   21.3614 C   0  0  0  0  0  0  0  0  0  0  0  0
  -26.9918  -11.0797   19.9703 C   0  0  0  0  0  0  0  0  0  0  0  0
  -28.8308   -9.2481   18.9477 C   0  0  0  0  0  0  0  0  0  0  0  0
  -27.3866   -9.9848   20.7389 C   0  0  0  0  0  0  0  0  0  0  0  0
  -27.7125  -17.3142   20.9689 C   0  0  0  0  0  0  0  0  0  0  0  0
  -20.5576  -24.0539   25.9923 C   0  0  0  0  0  0  0  0  0  0  0  0
  -28.5698  -19.3077   20.6139 C   0  0  0  0  0  0  0  0  0  0  0  0
  -28.8830  -17.7139   18.7138 C   0  0  0  0  0  0  0  0  0  0  0  0
  -26.6532  -27.4341   21.5259 C   0  0  0  0  0  0  0  0  0  0  0  0
  -26.3836  -30.5037   22.5394 C   0  0  0  0  0  0  0  0  0  0  0  0
  -24.3455  -33.1004   23.4057 C   0  0  0  0  0  0  0  0  0  0  0  0
  -25.5001  -22.1954   24.8670 C   0  0  0  0  0  0  0  0  0  0  0  0
  -31.4042  -25.6928   20.8532 C   0  0  0  0  0  0  0  0  0  0  0  0
  -25.0673  -28.3914   19.8157 C   0  0  0  0  0  0  0  0  0  0  0  0
  -24.2771  -29.1155   22.5718 C   0  0  0  0  0  0  0  0  0  0  0  0
  -30.7267  -26.6781   21.8021 C   0  0  0  0  0  0  0  0  0  0  0  0
  -28.9605  -21.3590   24.9186 C   0  0  0  0  0  0  0  0  0  0  0  0
  -29.4683  -26.0605   22.4036 C   0  0  0  0  0  0  0  0  0  0  0  0
  -29.0964  -20.2967   23.8264 C   0  0  0  0  0  0  0  0  0  0  0  0
  -27.6365  -21.2312   25.6687 C   0  0  0  0  0  0  0  0  0  0  0  0
  -26.5726  -20.1637   23.7187 C   0  0  0  0  0  0  0  0  0  0  0  0
  -28.4450  -25.7210   21.3132 C   0  0  1  0  0  0  0  0  0  0  0  0
  -26.1026  -28.6830   20.8976 C   0  0  1  0  0  0  0  0  0  0  0  0
  -27.8675  -20.2871   22.8975 C   0  0  2  0  0  0  0  0  0  0  0  0
  -21.8001  -21.1242   24.3559 C   0  0  0  0  0  0  0  0  0  0  0  0
  -24.4158  -35.4702   24.2281 C   0  0  0  0  0  0  0  0  0  0  0  0
  -17.3112  -25.9400   22.5884 C   0  0  0  0  0  0  0  0  0  0  0  0
  -17.9115  -23.6742   21.7620 C   0  0  0  0  0  0  0  0  0  0  0  0
  -22.7316  -24.2145   27.2547 C   0  0  0  0  0  0  0  0  0  0  0  0
  -21.2006  -22.2524   27.6318 C   0  0  0  0  0  0  0  0  0  0  0  0
  -20.6201  -24.4938   28.5375 C   0  0  0  0  0  0  0  0  0  0  0  0
  -27.0809  -29.5090   25.3384 C   0  0  0  0  0  0  0  0  0  0  0  0
  -26.2184  -31.6764   26.2478 C   0  0  0  0  0  0  0  0  0  0  0  0
  -28.1715  -31.6660   24.6960 C   0  0  0  0  0  0  0  0  0  0  0  0
  -22.9529  -34.1012   20.9936 C   0  0  0  0  0  0  0  0  0  0  0  0
  -23.3652  -23.0559   23.9392 C   0  0  0  0  0  0  0  0  0  0  0  0
  -19.4587  -25.6107   21.3343 C   0  0  0  0  0  0  0  0  0  1  0  0
  -22.1898  -22.5472   24.8099 C   0  0  1  0  0  0  0  0  0  0  0  0
  -25.8637  -31.1758   23.7872 C   0  0  1  0  0  0  0  0  0  0  0  0
  -24.3558  -34.5652   23.0074 C   0  0  2  0  0  0  0  0  0  0  0  0
  -18.4970  -24.9702   22.3683 C   0  0  0  0  0  0  0  0  0  0  0  0
  -21.2362  -23.7742   27.2933 C   0  0  0  0  0  0  0  0  0  0  0  0
  -26.8170  -30.9902   25.0014 C   0  0  0  0  0  0  0  0  0  0  0  0
  -19.4993  -24.8930   26.0515 N   0  0  0  0  0  0  0  0  0  0  0  0
  -27.4414  -17.9983   22.0835 N   0  0  0  0  0  0  0  0  0  0  0  0
  -27.9755  -19.2067   21.8373 N   0  0  0  0  0  0  0  0  0  0  0  0
  -25.5685  -29.5076   21.9834 N   0  0  0  0  0  0  0  0  0  0  0  0
  -26.5114  -21.2301   24.7306 N   0  0  0  0  0  0  0  0  0  0  0  0
  -29.1558  -20.4531   20.2051 N   0  0  0  0  0  0  0  0  0  0  0  0
  -28.6380  -16.4118   18.2567 N   0  0  0  0  0  0  0  0  0  0  0  0
  -27.7572  -26.9167   20.8756 N   0  0  0  0  0  0  0  0  0  0  0  0
  -25.6173  -32.5683   23.4284 N   0  0  0  0  0  0  0  0  0  0  0  0
  -24.4738  -22.1275   23.9328 N   0  0  0  0  0  0  0  0  0  0  0  0
  -23.1269  -34.9003   22.2338 N   0  3  0  0  0  0  0  0  0  0  0  0
  -29.5153  -18.5127   17.9820 O   0  0  0  0  0  0  0  0  0  0  0  0
  -26.1170  -26.9748   22.5275 O   0  0  0  0  0  0  0  0  0  0  0  0
  -27.4695  -30.8547   22.0712 O   0  0  0  0  0  0  0  0  0  0  0  0
  -23.3128  -32.4902   23.6737 O   0  0  0  0  0  0  0  0  0  0  0  0
  -25.5138  -23.0573   25.7524 O   0  0  0  0  0  0  0  0  0  0  0  0
  -26.0784  -11.9894   20.4761 O   0  0  0  0  0  0  0  0  0  0  0  0
  -20.0180  -26.8194   21.8467 O   0  0  0  0  0  0  0  0  0  1  0  0
  -29.7127   -8.3679   18.4561 F   0  0  0  0  0  0  0  0  0  0  0  0
  -26.8851   -9.8068   21.9688 F   0  0  0  0  0  0  0  0  0  0  0  0
  1  2  1  0  0  0  0
  1  5  2  0  0  0  0
  2  6  2  0  0  0  0
  3  8  2  0  0  0  0
  3 17  1  0  0  0  0
  4  9  1  0  0  0  0
  4 17  2  0  0  0  0
  5 19  1  0  0  0  0
  6 21  1  0  0  0  0
  7 10  2  0  0  0  0
  7 20  1  0  0  0  0
  8 25  1  0  0  0  0
  9 25  2  0  0  0  0
 10 26  1  0  0  0  0
 11 12  2  0  0  0  0
 11 27  1  0  0  0  0
 12 28  1  0  0  0  0
 13 22  1  0  0  0  0
 13 26  2  0  0  0  0
 14 23  2  0  0  0  0
 14 24  1  0  0  0  0
 15 28  2  0  0  0  0
 15 29  1  0  0  0  0
 16 23  1  0  0  0  0
 16 69  2  0  0  0  0
 17 30  1  0  0  0  0
 18 30  1  0  0  0  0
 18 32  2  0  0  0  0
 18 33  1  0  0  0  0
 19 21  2  0  0  0  0
 19 38  1  0  0  0  0
 20 22  2  0  0  0  0
 20 39  1  0  0  0  0
 21 47  1  0  0  0  0
 22 40  1  0  0  0  0
 23 66  1  0  0  0  0
 24 31  2  0  0  0  0
 24 63  1  0  0  0  0
 25 85  1  0  0  0  0
 26 86  1  0  0  0  0
 27 29  2  0  0  0  0
 27 85  1  0  0  0  0
 28 87  1  0  0  0  0
 29 88  1  0  0  0  0
 30 70  2  0  0  0  0
 31 67  1  0  0  0  0
 31 69  1  0  0  0  0
 32 71  1  0  0  0  0
 32 74  1  0  0  0  0
 33 75  1  0  0  0  0
 33 80  2  0  0  0  0
 34 48  1  0  0  0  0
 34 76  1  0  0  0  0
 34 81  2  0  0  0  0
 35 64  1  0  0  0  0
 35 72  1  0  0  0  0
 35 82  2  0  0  0  0
 36 65  1  0  0  0  0
 36 77  1  0  0  0  0
 36 83  2  0  0  0  0
 37 73  1  0  0  0  0
 37 78  1  0  0  0  0
 37 84  2  0  0  0  0
 38 41  1  0  0  0  0
 39 48  1  0  0  0  0
 40 72  1  0  0  0  0
 41 43  1  0  0  0  0
 42 44  1  0  0  0  0
 42 45  1  0  0  0  0
 43 47  1  0  0  0  0
 44 49  1  0  0  0  0
 45 73  1  0  0  0  0
 46 49  1  0  0  0  0
 46 73  1  0  0  0  0
 47 76  1  0  0  0  0
 48 72  1  0  0  0  0
 49 71  1  0  0  0  0
 50 63  1  0  0  0  0
 51 65  1  0  0  0  0
 52 66  1  0  0  0  0
 53 66  1  0  0  0  0
 54 67  1  0  0  0  0
 55 67  1  0  0  0  0
 56 67  1  0  0  0  0
 57 68  1  0  0  0  0
 58 68  1  0  0  0  0
 59 68  1  0  0  0  0
 60 79  1  0  0  0  0
 61 63  1  0  0  0  0
 61 78  1  0  0  0  0
 62 66  1  0  0  0  0
 62 86  1  0  0  0  0
 64 68  1  0  0  0  0
 64 77  1  0  0  0  0
 65 79  1  0  0  0  0
 70 71  1  0  0  0  0
M  CHG  1  79   1
M  ISO  4  37 100  62 101  78 100  86 101
M  END
> <Batch ID>
0087

> <Smiles>
CNC(C)C(=O)NC(C(=O)N1Cc2cc([101O:1][101CH2:1]C(C)(C)c3cnc(C(C)(C)C)c(C(C)C[100NH:0][100C:0](=O)N4CCCC(n5nc(-c6ccc(Oc7ccc(F)cc7F)cc6)c(C(N)=O)c5N)C4)c3)ccc2CC1C(=O)NC1CCCc2ccccc21)C(C)(C)C

> <Shape>
0.251

> <Color>
0.064

> <Negative vol penalty>
0.000

$$$$

  -OEChem-04052319013D

 91 99  0     1  0  0  0  0  0999 V2000
  -31.2621  -25.6172   16.9200 C   0  0  0  0  0  0  0  0  0  0  0  0
  -29.9952  -25.4377   17.4658 C   0  0  0  0  0  0  0  0  0  0  0  0
  -24.6532   -8.7356   20.8496 C   0  0  0  0  0  0  0  0  0  0  0  0
  -22.8428  -10.2625   20.3719 C   0  0  0  0  0  0  0  0  0  0  0  0
  -32.1994  -26.4090   17.5821 C   0  0  0  0  0  0  0  0  0  0  0  0
  -29.6651  -26.0492   18.6748 C   0  0  0  0  0  0  0  0  0  0  0  0
  -25.0873  -28.2121   18.5718 C   0  0  0  0  0  0  0  0  0  0  0  0
  -23.7299   -7.7493   21.1963 C   0  0  0  0  0  0  0  0  0  0  0  0
  -21.9195   -9.2761   20.7185 C   0  0  0  0  0  0  0  0  0  0  0  0
  -23.9829  -27.3716   18.7037 C   0  0  0  0  0  0  0  0  0  0  0  0
  -21.7853   -6.9812   23.8521 C   0  0  0  0  0  0  0  0  0  0  0  0
  -22.0260   -6.2491   25.0147 C   0  0  0  0  0  0  0  0  0  0  0  0
  -23.8085  -27.9760   21.0325 C   0  0  0  0  0  0  0  0  0  0  0  0
  -24.5749  -23.9294   21.4563 C   0  0  0  0  0  0  0  0  0  0  0  0
  -22.0962   -4.2121   23.7174 C   0  0  0  0  0  0  0  0  0  0  0  0
  -24.2097   -9.9922   20.4375 C   0  0  0  0  0  0  0  0  0  0  0  0
  -25.7066  -11.2575   18.8046 C   0  0  0  0  0  0  0  0  0  0  0  0
  -31.8775  -27.0383   18.7949 C   0  0  0  0  0  0  0  0  0  0  0  0
  -25.5682  -28.9338   19.6738 C   0  0  0  0  0  0  0  0  0  0  0  0
  -30.5994  -26.8491   19.3545 C   0  0  0  0  0  0  0  0  0  0  0  0
  -24.9176  -28.8270   20.9114 C   0  0  0  0  0  0  0  0  0  0  0  0
  -23.4535  -23.1731   21.1341 C   0  0  0  0  0  0  0  0  0  0  0  0
  -25.8424  -23.3721   21.3293 C   0  0  0  0  0  0  0  0  0  0  0  0
  -22.3630   -8.0195   21.1307 C   0  0  0  0  0  0  0  0  0  0  0  0
  -23.3450  -27.2512   19.9348 C   0  0  0  0  0  0  0  0  0  0  0  0
  -21.7000   -6.3288   22.6221 C   0  0  0  0  0  0  0  0  0  0  0  0
  -22.1815   -4.8646   24.9474 C   0  0  0  0  0  0  0  0  0  0  0  0
  -21.8554   -4.9443   22.5548 C   0  0  0  0  0  0  0  0  0  0  0  0
  -25.1630  -11.0117   20.0798 C   0  0  0  0  0  0  0  0  0  0  0  0
  -23.6518  -21.8748   20.6928 C   0  0  0  0  0  0  0  0  0  0  0  0
  -25.9338  -22.0647   20.8795 C   0  0  0  0  0  0  0  0  0  0  0  0
  -26.5539  -12.3222   18.9920 C   0  0  0  0  0  0  0  0  0  0  0  0
  -25.4669  -10.5838   17.5619 C   0  0  0  0  0  0  0  0  0  0  0  0
  -28.3018  -28.9962   21.2945 C   0  0  0  0  0  0  0  0  0  0  0  0
  -26.6719  -16.6763   23.1320 C   0  0  0  0  0  0  0  0  0  0  0  0
  -26.8938  -31.4937   22.8118 C   0  0  0  0  0  0  0  0  0  0  0  0
  -24.0120  -33.0814   23.7181 C   0  0  0  0  0  0  0  0  0  0  0  0
  -32.9394  -27.8464   19.4977 C   0  0  0  0  0  0  0  0  0  0  0  0
  -26.7443  -29.8567   19.5086 C   0  0  0  0  0  0  0  0  0  0  0  0
  -25.3821  -29.5958   22.1204 C   0  0  0  0  0  0  0  0  0  0  0  0
  -32.3866  -28.7633   20.5858 C   0  0  0  0  0  0  0  0  0  0  0  0
  -29.3047  -14.3907   22.3045 C   0  0  0  0  0  0  0  0  0  0  0  0
  -31.3966  -28.0089   21.4675 C   0  0  0  0  0  0  0  0  0  0  0  0
  -28.5860  -13.2736   21.5491 C   0  0  0  0  0  0  0  0  0  0  0  0
  -28.4323  -14.9634   23.4172 C   0  0  0  0  0  0  0  0  0  0  0  0
  -26.3746  -14.3286   22.1987 C   0  0  0  0  0  0  0  0  0  0  0  0
  -30.1955  -27.5159   20.6515 C   0  0  1  0  0  0  0  0  0  0  0  0
  -27.4630  -30.1498   20.8220 C   0  0  1  0  0  0  0  0  0  0  0  0
  -27.2095  -13.7432   21.0460 C   0  0  2  0  0  0  0  0  0  0  0  0
  -22.4847  -21.0148   20.3333 C   0  0  0  0  0  0  0  0  0  0  0  0
  -27.6368  -23.7935   23.0291 C   0  0  0  0  0  0  0  0  0  0  0  0
  -24.6205  -18.0302   23.4813 C   0  0  0  0  0  0  0  0  0  0  0  0
  -23.1793  -35.0798   24.9870 C   0  0  0  0  0  0  0  0  0  0  0  0
  -27.4823  -30.0651   25.4429 C   0  0  0  0  0  0  0  0  0  0  0  0
  -25.8337  -31.5851   26.5565 C   0  0  0  0  0  0  0  0  0  0  0  0
  -27.8769  -32.5343   25.4856 C   0  0  0  0  0  0  0  0  0  0  0  0
  -27.2008  -21.1101   18.1863 C   0  0  0  0  0  0  0  0  0  0  0  0
  -28.9248  -19.9286   19.5340 C   0  0  0  0  0  0  0  0  0  0  0  0
  -22.7186  -34.2165   21.3103 C   0  0  0  0  0  0  0  0  0  0  0  0
  -27.0479  -24.1769   21.6732 C   0  0  0  0  0  0  0  0  0  0  0  0
  -22.0762  -23.7717   21.2696 C   0  0  0  0  0  0  0  0  0  0  0  0
  -27.2699  -21.4156   20.7227 C   0  0  0  0  0  0  0  0  0  0  0  0
  -21.4480  -24.1797   19.9353 C   0  0  0  0  0  0  0  0  0  0  0  0
  -25.4510  -17.4962   21.1196 C   0  0  0  0  0  0  0  0  0  0  0  0
  -26.5005  -19.1919   19.6156 C   0  0  0  0  0  0  0  0  0  0  0  0
  -22.2164  -25.2841   19.2188 C   0  0  0  0  0  0  0  0  0  1  0  0
  -25.3186  -17.0295   22.5683 C   0  0  1  0  0  0  0  0  0  0  0  0
  -26.0120  -31.6466   24.0275 C   0  0  1  0  0  0  0  0  0  0  0  0
  -23.5931  -34.5377   23.6278 C   0  0  2  0  0  0  0  0  0  0  0  0
  -26.7934  -31.4417   25.3560 C   0  0  0  0  0  0  0  0  0  0  0  0
  -27.4543  -20.4064   19.5370 C   0  0  0  0  0  0  0  0  0  0  0  0
  -25.6262  -11.8524   21.0086 N   0  0  0  0  0  0  0  0  0  0  0  0
  -24.8674  -21.2990   20.5567 N   0  0  0  0  0  0  0  0  0  0  0  0
  -26.4699  -12.6368   20.3164 N   0  0  0  0  0  0  0  0  0  0  0  0
  -26.5401  -30.4803   21.9098 N   0  0  0  0  0  0  0  0  0  0  0  0
  -27.1255  -15.3772   22.9029 N   0  0  0  0  0  0  0  0  0  0  0  0
  -27.3552  -13.0104   18.1514 N   0  0  0  0  0  0  0  0  0  0  0  0
  -24.5663   -9.5101   17.5469 N   0  0  0  0  0  0  0  0  0  0  0  0
  -29.2765  -28.6044   20.3967 N   0  0  0  0  0  0  0  0  0  0  0  0
  -25.3719  -32.9519   23.9060 N   0  0  0  0  0  0  0  0  0  0  0  0
  -22.4434  -34.6889   22.6916 N   0  3  0  0  0  0  0  0  0  0  0  0
  -26.2998  -18.7137   21.0050 N   0  3  0  0  0  0  0  0  0  0  0  0
  -26.0470  -10.9134   16.4997 O   0  0  0  0  0  0  0  0  0  0  0  0
  -28.0821  -28.4994   22.3930 O   0  0  0  0  0  0  0  0  0  0  0  0
  -27.3068  -17.5318   23.7544 O   0  0  0  0  0  0  0  0  0  0  0  0
  -27.8568  -32.2505   22.6642 O   0  0  0  0  0  0  0  0  0  0  0  0
  -23.2124  -32.1519   23.6343 O   0  0  0  0  0  0  0  0  0  0  0  0
  -21.4618   -7.0572   21.4687 O   0  0  0  0  0  0  0  0  0  0  0  0
  -22.2672  -26.4310   20.0665 O   0  0  0  0  0  0  0  0  0  1  0  0
  -22.4141   -4.1619   26.0637 F   0  0  0  0  0  0  0  0  0  0  0  0
  -21.7757   -4.3121   21.3759 F   0  0  0  0  0  0  0  0  0  0  0  0
  1  2  1  0  0  0  0
  1  5  2  0  0  0  0
  2  6  2  0  0  0  0
  3  8  2  0  0  0  0
  3 16  1  0  0  0  0
  4  9  1  0  0  0  0
  4 16  2  0  0  0  0
  5 18  1  0  0  0  0
  6 20  1  0  0  0  0
  7 10  2  0  0  0  0
  7 19  1  0  0  0  0
  8 24  1  0  0  0  0
  9 24  2  0  0  0  0
 10 25  1  0  0  0  0
 11 12  2  0  0  0  0
 11 26  1  0  0  0  0
 12 27  1  0  0  0  0
 13 21  1  0  0  0  0
 13 25  2  0  0  0  0
 14 22  2  0  0  0  0
 14 23  1  0  0  0  0
 15 27  2  0  0  0  0
 15 28  1  0  0  0  0
 16 29  1  0  0  0  0
 17 29  1  0  0  0  0
 17 32  2  0  0  0  0
 17 33  1  0  0  0  0
 18 20  2  0  0  0  0
 18 38  1  0  0  0  0
 19 21  2  0  0  0  0
 19 39  1  0  0  0  0
 20 47  1  0  0  0  0
 21 40  1  0  0  0  0
 22 30  1  0  0  0  0
 22 61  1  0  0  0  0
 23 31  2  0  0  0  0
 23 60  1  0  0  0  0
 24 88  1  0  0  0  0
 25 89  1  0  0  0  0
 26 28  2  0  0  0  0
 26 88  1  0  0  0  0
 27 90  1  0  0  0  0
 28 91  1  0  0  0  0
 29 72  2  0  0  0  0
 30 50  1  0  0  0  0
 30 73  2  0  0  0  0
 31 62  1  0  0  0  0
 31 73  1  0  0  0  0
 32 74  1  0  0  0  0
 32 77  1  0  0  0  0
 33 78  1  0  0  0  0
 33 83  2  0  0  0  0
 34 48  1  0  0  0  0
 34 79  1  0  0  0  0
 34 84  2  0  0  0  0
 35 67  1  0  0  0  0
 35 76  1  0  0  0  0
 35 85  2  0  0  0  0
 36 68  1  0  0  0  0
 36 75  1  0  0  0  0
 36 86  2  0  0  0  0
 37 69  1  0  0  0  0
 37 80  1  0  0  0  0
 37 87  2  0  0  0  0
 38 41  1  0  0  0  0
 39 48  1  0  0  0  0
 40 75  1  0  0  0  0
 41 43  1  0  0  0  0
 42 44  1  0  0  0  0
 42 45  1  0  0  0  0
 43 47  1  0  0  0  0
 44 49  1  0  0  0  0
 45 76  1  0  0  0  0
 46 49  1  0  0  0  0
 46 76  1  0  0  0  0
 47 79  1  0  0  0  0
 48 75  1  0  0  0  0
 49 74  1  0  0  0  0
 51 60  1  0  0  0  0
 52 67  1  0  0  0  0
 53 69  1  0  0  0  0
 54 70  1  0  0  0  0
 55 70  1  0  0  0  0
 56 70  1  0  0  0  0
 57 71  1  0  0  0  0
 58 71  1  0  0  0  0
 59 81  1  0  0  0  0
 61 63  1  0  0  0  0
 62 71  1  0  0  0  0
 63 66  1  0  0  0  0
 64 67  1  0  0  0  0
 64 82  1  0  0  0  0
 65 71  1  0  0  0  0
 65 82  1  0  0  0  0
 66 89  1  0  0  0  0
 68 70  1  0  0  0  0
 68 80  1  0  0  0  0
 69 81  1  0  0  0  0
 72 74  1  0  0  0  0
M  CHG  2  81   1  82   1
M  ISO  4  35 100  66 101  67 100  89 101
M  END
> <Batch ID>
0087

> <Smiles>
CCc1cc(CC[101CH2:1][101O:1]c2ccc3c(c2)CN(C(=O)C(NC(=O)C(C)NC)C(C)(C)C)C(C(=O)NC2CCCc4ccccc42)C3)c(C)nc1CC(C)(C)CNC[100CH:0](C)[100C:0](=O)N1CCCC(n2nc(-c3ccc(Oc4ccc(F)cc4F)cc3)c(C(N)=O)c2N)C1

> <Shape>
0.288

> <Color>
0.107

> <Negative vol penalty>
0.000

$$$$

  -OEChem-04052319013D

 81 89  0     1  0  0  0  0  0999 V2000
  -19.3059  -24.7050   23.9157 C   0  0  0  0  0  0  0  0  0  0  0  0
  -20.5827  -24.7452   23.3647 C   0  0  0  0  0  0  0  0  0  0  0  0
  -22.6018  -13.1228   20.2352 C   0  0  0  0  0  0  0  0  0  0  0  0
  -24.2609  -12.7922   21.9601 C   0  0  0  0  0  0  0  0  0  0  0  0
  -18.4596  -25.8060   23.7920 C   0  0  0  0  0  0  0  0  0  0  0  0
  -21.0135  -25.8861   22.6886 C   0  0  0  0  0  0  0  0  0  0  0  0
  -26.6970  -28.1638   22.5608 C   0  0  0  0  0  0  0  0  0  0  0  0
  -21.6553  -12.4634   21.0192 C   0  0  0  0  0  0  0  0  0  0  0  0
  -23.3143  -12.1328   22.7442 C   0  0  0  0  0  0  0  0  0  0  0  0
  -27.7278  -28.0614   21.6277 C   0  0  0  0  0  0  0  0  0  0  0  0
  -21.9008   -9.0650   22.8895 C   0  0  0  0  0  0  0  0  0  0  0  0
  -22.2878   -7.8779   23.5112 C   0  0  0  0  0  0  0  0  0  0  0  0
  -27.0568  -30.1686   20.6640 C   0  0  0  0  0  0  0  0  0  0  0  0
  -21.8186   -8.8557   25.6701 C   0  0  0  0  0  0  0  0  0  0  0  0
  -23.9047  -13.2872   20.7056 C   0  0  0  0  0  0  0  0  0  0  0  0
  -25.3284  -13.6001   18.6121 C   0  0  0  0  0  0  0  0  0  0  0  0
  -18.8837  -26.9646   23.1224 C   0  0  0  0  0  0  0  0  0  0  0  0
  -25.8301  -29.2660   22.5456 C   0  0  0  0  0  0  0  0  0  0  0  0
  -20.1715  -27.0032   22.5547 C   0  0  0  0  0  0  0  0  0  0  0  0
  -26.0173  -30.2839   21.5996 C   0  0  0  0  0  0  0  0  0  0  0  0
  -22.0115  -11.9684   22.2737 C   0  0  0  0  0  0  0  0  0  0  0  0
  -27.9060  -29.0624   20.6773 C   0  0  0  0  0  0  0  0  0  0  0  0
  -21.4727  -10.1475   23.6580 C   0  0  0  0  0  0  0  0  0  0  0  0
  -22.2467   -7.7733   24.9016 C   0  0  0  0  0  0  0  0  0  0  0  0
  -21.4316  -10.0429   25.0483 C   0  0  0  0  0  0  0  0  0  0  0  0
  -24.8831  -13.9678   19.8959 C   0  0  0  0  0  0  0  0  0  0  0  0
  -26.2511  -14.5618   18.2801 C   0  0  0  0  0  0  0  0  0  0  0  0
  -24.9424  -12.4886   17.7928 C   0  0  0  0  0  0  0  0  0  0  0  0
  -26.8520  -20.1784   20.1150 C   0  0  0  0  0  0  0  0  0  0  0  0
  -22.7052  -29.6563   22.1136 C   0  0  0  0  0  0  0  0  0  0  0  0
  -23.3776  -32.7339   22.8872 C   0  0  0  0  0  0  0  0  0  0  0  0
  -25.6870  -35.2411   23.0541 C   0  0  0  0  0  0  0  0  0  0  0  0
  -17.9163  -28.1120   22.9732 C   0  0  0  0  0  0  0  0  0  0  0  0
  -24.7396  -29.3747   23.5759 C   0  0  0  0  0  0  0  0  0  0  0  0
  -25.1265  -31.4975   21.5537 C   0  0  0  0  0  0  0  0  0  0  0  0
  -18.5842  -29.4229   22.5662 C   0  0  0  0  0  0  0  0  0  0  0  0
  -29.3943  -17.5806   20.2374 C   0  0  0  0  0  0  0  0  0  0  0  0
  -19.5617  -29.1902   21.4185 C   0  0  0  0  0  0  0  0  0  0  0  0
  -28.6507  -21.5321   19.1030 C   0  0  0  0  0  0  0  0  0  0  0  0
  -26.9628  -22.5943   20.6539 C   0  0  0  0  0  0  0  0  0  0  0  0
  -29.5495  -22.7592   19.2400 C   0  0  0  0  0  0  0  0  0  0  0  0
  -27.8616  -23.8212   20.7926 C   0  0  0  0  0  0  0  0  0  0  0  0
  -28.5493  -16.3180   20.0730 C   0  0  0  0  0  0  0  0  0  0  0  0
  -28.6577  -18.6482   21.0422 C   0  0  0  0  0  0  0  0  0  0  0  0
  -26.4703  -17.7426   20.3210 C   0  0  0  0  0  0  0  0  0  0  0  0
  -20.6841  -28.2321   21.8354 C   0  0  1  0  0  0  0  0  0  0  0  0
  -27.7740  -21.3372   20.3402 C   0  0  0  0  0  0  0  0  0  0  0  0
  -23.5979  -30.2894   23.1432 C   0  0  1  0  0  0  0  0  0  0  0  0
  -28.7382  -24.0245   19.5496 C   0  0  0  0  0  0  0  0  0  0  0  0
  -27.1656  -16.6522   19.4888 C   0  0  2  0  0  0  0  0  0  0  0  0
  -25.9306  -37.6555   23.6931 C   0  0  0  0  0  0  0  0  0  0  0  0
  -21.9873  -33.5568   20.2987 C   0  0  0  0  0  0  0  0  0  0  0  0
  -23.0728  -35.8029   20.5116 C   0  0  0  0  0  0  0  0  0  0  0  0
  -21.4813  -35.0175   22.2647 C   0  0  0  0  0  0  0  0  0  0  0  0
  -30.4016  -27.8064   21.2205 C   0  0  0  0  0  0  0  0  0  0  0  0
  -30.8225  -27.9364   18.7568 C   0  0  0  0  0  0  0  0  0  0  0  0
  -27.6752  -34.6053   25.1520 C   0  0  0  0  0  0  0  0  0  0  0  0
  -29.6629  -25.2266   19.7326 C   0  0  0  0  0  0  0  0  0  0  0  0
  -28.8957  -26.5460   19.5880 C   0  0  0  0  0  0  0  0  0  0  0  0
  -23.7764  -33.9678   22.1143 C   0  0  1  0  0  0  0  0  0  0  0  0
  -26.0391  -36.2139   24.1650 C   0  0  2  0  0  0  0  0  0  0  0  0
  -22.5952  -34.5626   21.2967 C   0  0  0  0  0  0  0  0  0  0  0  0
  -29.7453  -27.8092   19.8391 C   0  0  0  0  0  0  0  0  0  1  0  0
  -25.4744  -15.0766   20.3488 N   0  0  0  0  0  0  0  0  0  0  0  0
  -26.3008  -15.4137   19.3440 N   0  0  0  0  0  0  0  0  0  0  0  0
  -27.3334  -18.9180   20.4696 N   0  0  0  0  0  0  0  0  0  0  0  0
  -24.0707  -31.5549   22.5781 N   0  0  0  0  0  0  0  0  0  0  0  0
  -27.0168  -14.7532   17.1849 N   0  0  0  0  0  0  0  0  0  0  0  0
  -25.6553  -11.2882   17.9161 N   0  0  0  0  0  0  0  0  0  0  0  0
  -21.6627  -28.9230   22.6474 N   0  0  0  0  0  0  0  0  0  0  0  0
  -24.3541  -34.8895   23.0865 N   0  0  0  0  0  0  0  0  0  0  0  0
  -27.4325  -35.9777   24.6378 N   0  3  0  0  0  0  0  0  0  0  0  0
  -24.0039  -12.5628   16.9637 O   0  0  0  0  0  0  0  0  0  0  0  0
  -25.7342  -20.3830   19.6346 O   0  0  0  0  0  0  0  0  0  0  0  0
  -22.9437  -29.8220   20.9231 O   0  0  0  0  0  0  0  0  0  0  0  0
  -22.4890  -32.8148   23.7389 O   0  0  0  0  0  0  0  0  0  0  0  0
  -26.5110  -34.8366   22.2368 O   0  0  0  0  0  0  0  0  0  0  0  0
  -21.0880  -11.3251   23.0391 O   0  0  0  0  0  0  0  0  0  0  0  0
  -28.9110  -28.9645   19.7649 O   0  0  0  0  0  0  0  0  0  1  0  0
  -22.6169   -6.6327   25.4984 F   0  0  0  0  0  0  0  0  0  0  0  0
  -21.0201  -11.0790   25.7919 F   0  0  0  0  0  0  0  0  0  0  0  0
  1  2  1  0  0  0  0
  1  5  2  0  0  0  0
  2  6  2  0  0  0  0
  3  8  2  0  0  0  0
  3 15  1  0  0  0  0
  4  9  1  0  0  0  0
  4 15  2  0  0  0  0
  5 17  1  0  0  0  0
  6 19  1  0  0  0  0
  7 10  2  0  0  0  0
  7 18  1  0  0  0  0
  8 21  1  0  0  0  0
  9 21  2  0  0  0  0
 10 22  1  0  0  0  0
 11 12  2  0  0  0  0
 11 23  1  0  0  0  0
 12 24  1  0  0  0  0
 13 20  1  0  0  0  0
 13 22  2  0  0  0  0
 14 24  2  0  0  0  0
 14 25  1  0  0  0  0
 15 26  1  0  0  0  0
 16 26  1  0  0  0  0
 16 27  2  0  0  0  0
 16 28  1  0  0  0  0
 17 19  2  0  0  0  0
 17 33  1  0  0  0  0
 18 20  2  0  0  0  0
 18 34  1  0  0  0  0
 19 46  1  0  0  0  0
 20 35  1  0  0  0  0
 21 78  1  0  0  0  0
 22 79  1  0  0  0  0
 23 25  2  0  0  0  0
 23 78  1  0  0  0  0
 24 80  1  0  0  0  0
 25 81  1  0  0  0  0
 26 64  2  0  0  0  0
 27 65  1  0  0  0  0
 27 68  1  0  0  0  0
 28 69  1  0  0  0  0
 28 73  2  0  0  0  0
 29 47  1  0  0  0  0
 29 66  1  0  0  0  0
 29 74  2  0  0  0  0
 30 48  1  0  0  0  0
 30 70  1  0  0  0  0
 30 75  2  0  0  0  0
 31 60  1  0  0  0  0
 31 67  1  0  0  0  0
 31 76  2  0  0  0  0
 32 61  1  0  0  0  0
 32 71  1  0  0  0  0
 32 77  2  0  0  0  0
 33 36  1  0  0  0  0
 34 48  1  0  0  0  0
 35 67  1  0  0  0  0
 36 38  1  0  0  0  0
 37 43  1  0  0  0  0
 37 44  1  0  0  0  0
 38 46  1  0  0  0  0
 39 41  1  0  0  0  0
 39 47  1  0  0  0  0
 40 42  1  0  0  0  0
 40 47  1  0  0  0  0
 41 49  1  0  0  0  0
 42 49  1  0  0  0  0
 43 50  1  0  0  0  0
 44 66  1  0  0  0  0
 45 50  1  0  0  0  0
 45 66  1  0  0  0  0
 46 70  1  0  0  0  0
 48 67  1  0  0  0  0
 49 58  1  0  0  0  0
 50 65  1  0  0  0  0
 51 61  1  0  0  0  0
 52 62  1  0  0  0  0
 53 62  1  0  0  0  0
 54 62  1  0  0  0  0
 55 63  1  0  0  0  0
 56 63  1  0  0  0  0
 57 72  1  0  0  0  0
 58 59  1  0  0  0  0
 59 63  1  0  0  0  0
 60 62  1  0  0  0  0
 60 71  1  0  0  0  0
 61 72  1  0  0  0  0
 63 79  1  0  0  0  0
 64 65  1  0  0  0  0
M  CHG  1  72   1
M  ISO  4  29 100  47 100  63 101  79 101
M  END
> <Batch ID>
0087

> <Smiles>
CNC(C)C(=O)NC(C(=O)N1Cc2cc([101O:1][101C:1](C)(C)CCC3CC[100CH:0]([100C:0](=O)N4CCCC(n5nc(-c6ccc(Oc7ccc(F)cc7F)cc6)c(C(N)=O)c5N)C4)CC3)ccc2CC1C(=O)NC1CCCc2ccccc21)C(C)(C)C

> <Shape>
0.287

> <Color>
0.077

> <Negative vol penalty>
0.000

$$$$

  -OEChem-04052319013D

 83 91  0     1  0  0  0  0  0999 V2000
  -30.0407  -35.8729   21.5514 C   0  0  0  0  0  0  0  0  0  0  0  0
  -30.0284  -34.4831   21.4907 C   0  0  0  0  0  0  0  0  0  0  0  0
  -23.6026  -14.3704   17.8653 C   0  0  0  0  0  0  0  0  0  0  0  0
  -22.7895  -13.3289   19.8881 C   0  0  0  0  0  0  0  0  0  0  0  0
  -29.0562  -36.5467   22.2730 C   0  0  0  0  0  0  0  0  0  0  0  0
  -29.0321  -33.7662   22.1525 C   0  0  0  0  0  0  0  0  0  0  0  0
  -27.0928  -30.0543   19.3055 C   0  0  0  0  0  0  0  0  0  0  0  0
  -22.9947  -13.3705   17.1062 C   0  0  0  0  0  0  0  0  0  0  0  0
  -22.1816  -12.3291   19.1289 C   0  0  0  0  0  0  0  0  0  0  0  0
  -27.8437  -28.8857   19.1850 C   0  0  0  0  0  0  0  0  0  0  0  0
  -23.1174   -9.5075   17.5183 C   0  0  0  0  0  0  0  0  0  0  0  0
  -23.2715   -8.1877   17.9424 C   0  0  0  0  0  0  0  0  0  0  0  0
  -26.4561  -27.8296   20.8519 C   0  0  0  0  0  0  0  0  0  0  0  0
  -20.8751   -7.9806   18.1688 C   0  0  0  0  0  0  0  0  0  0  0  0
  -29.6610  -20.8545   20.3918 C   0  0  0  0  0  0  0  0  0  0  0  0
  -23.5000  -14.3496   19.2563 C   0  0  0  0  0  0  0  0  0  0  0  0
  -23.5625  -16.6062   20.4443 C   0  0  0  0  0  0  0  0  0  0  0  0
  -28.0418  -35.8382   22.9360 C   0  0  0  0  0  0  0  0  0  0  0  0
  -26.0230  -30.1229   20.2094 C   0  0  0  0  0  0  0  0  0  0  0  0
  -28.0339  -34.4311   22.8847 C   0  0  0  0  0  0  0  0  0  0  0  0
  -25.6916  -28.9993   20.9800 C   0  0  0  0  0  0  0  0  0  0  0  0
  -22.2842  -12.3499   17.7379 C   0  0  0  0  0  0  0  0  0  0  0  0
  -27.5272  -27.7741   19.9604 C   0  0  0  0  0  0  0  0  0  0  0  0
  -21.8421  -10.0639   17.4195 C   0  0  0  0  0  0  0  0  0  0  0  0
  -22.1504   -7.4242   18.2677 C   0  0  0  0  0  0  0  0  0  0  0  0
  -20.7209   -9.3005   17.7447 C   0  0  0  0  0  0  0  0  0  0  0  0
  -24.1283  -15.3818   20.0411 C   0  0  0  0  0  0  0  0  0  0  0  0
  -29.2110  -19.9375   21.3082 C   0  0  0  0  0  0  0  0  0  0  0  0
  -24.5568  -17.2238   21.1629 C   0  0  0  0  0  0  0  0  0  0  0  0
  -22.2550  -17.1377   20.1919 C   0  0  0  0  0  0  0  0  0  0  0  0
  -29.8925  -18.7098   21.7384 C   0  0  0  0  0  0  0  0  0  0  0  0
  -25.3630  -31.8803   22.7745 C   0  0  0  0  0  0  0  0  0  0  0  0
  -22.5048  -30.3560   22.6022 C   0  0  0  0  0  0  0  0  0  0  0  0
  -20.7289  -27.6398   21.5462 C   0  0  0  0  0  0  0  0  0  0  0  0
  -27.0264  -36.6083   23.7425 C   0  0  0  0  0  0  0  0  0  0  0  0
  -25.2062  -31.3821   20.3081 C   0  0  0  0  0  0  0  0  0  0  0  0
  -24.5400  -29.0149   21.9506 C   0  0  0  0  0  0  0  0  0  0  0  0
  -25.7895  -35.7904   24.1052 C   0  0  0  0  0  0  0  0  0  0  0  0
  -28.9702  -15.4600   22.8915 C   0  0  0  0  0  0  0  0  0  0  0  0
  -26.1933  -34.4175   24.6333 C   0  0  0  0  0  0  0  0  0  0  0  0
  -27.5895  -15.2393   22.2710 C   0  0  0  0  0  0  0  0  0  0  0  0
  -29.8874  -16.2479   21.9597 C   0  0  0  0  0  0  0  0  0  0  0  0
  -27.9442  -17.3151   20.8689 C   0  0  0  0  0  0  0  0  0  0  0  0
  -26.9555  -33.6192   23.5688 C   0  0  1  0  0  0  0  0  0  0  0  0
  -24.4600  -31.5079   21.6328 C   0  0  1  0  0  0  0  0  0  0  0  0
  -26.9720  -16.5684   21.7970 C   0  0  1  0  0  0  0  0  0  0  0  0
  -27.3983  -21.8079   17.6167 C   0  0  0  0  0  0  0  0  0  0  0  0
  -18.4194  -26.6589   21.5869 C   0  0  0  0  0  0  0  0  0  0  0  0
  -22.9037  -29.5438   25.5161 C   0  0  0  0  0  0  0  0  0  0  0  0
  -21.1051  -27.8290   25.2117 C   0  0  0  0  0  0  0  0  0  0  0  0
  -20.5753  -30.2514   24.9398 C   0  0  0  0  0  0  0  0  0  0  0  0
  -29.7519  -24.1447   22.2814 C   0  0  0  0  0  0  0  0  0  0  0  0
  -30.8868  -25.9796   21.0312 C   0  0  0  0  0  0  0  0  0  0  0  0
  -20.5326  -27.6837   18.5935 C   0  0  0  0  0  0  0  0  0  0  0  0
  -28.5729  -22.6979   18.0079 C   0  0  0  0  0  0  0  0  0  0  0  0
  -29.7799  -24.0400   19.7807 C   0  0  0  0  0  0  0  0  0  0  0  0
  -28.3693  -25.8119   21.0075 C   0  0  0  0  0  0  0  0  0  1  0  0
  -21.9407  -29.0747   23.1670 C   0  0  1  0  0  0  0  0  0  0  0  0
  -19.4031  -27.5251   20.8156 C   0  0  2  0  0  0  0  0  0  0  0  0
  -28.6101  -23.0498   19.5188 C   0  0  2  0  0  0  0  0  0  0  0  0
  -21.6542  -29.1747   24.6919 C   0  0  0  0  0  0  0  0  0  0  0  0
  -29.6897  -25.0119   20.9998 C   0  0  0  0  0  0  0  0  0  0  0  0
  -25.3846  -15.2290   20.4679 N   0  0  0  0  0  0  0  0  0  0  0  0
  -27.9935  -20.3301   21.7912 N   0  0  0  0  0  0  0  0  0  0  0  0
  -27.6686  -21.4737   21.1983 N   0  0  0  0  0  0  0  0  0  0  0  0
  -28.6698  -21.7864   20.3597 N   0  0  0  0  0  0  0  0  0  0  0  0
  -25.6165  -16.3654   21.1468 N   0  0  0  0  0  0  0  0  0  0  0  0
  -29.2453  -17.4895   21.5298 N   0  0  0  0  0  0  0  0  0  0  0  0
  -23.7754  -30.2714   22.0155 N   0  0  0  0  0  0  0  0  0  0  0  0
  -24.6192  -18.4120   21.8006 N   0  0  0  0  0  0  0  0  0  0  0  0
  -21.3570  -16.3720   19.4358 N   0  0  0  0  0  0  0  0  0  0  0  0
  -26.0370  -33.0728   22.5929 N   0  0  0  0  0  0  0  0  0  0  0  0
  -20.7695  -28.7531   22.3588 N   0  0  0  0  0  0  0  0  0  0  0  0
  -19.6049  -26.9213   19.4681 N   0  3  0  0  0  0  0  0  0  0  0  0
  -21.8993  -18.2656   20.6101 O   0  0  0  0  0  0  0  0  0  0  0  0
  -30.9929  -18.8562   22.2683 O   0  0  0  0  0  0  0  0  0  0  0  0
  -25.4412  -31.1412   23.7488 O   0  0  0  0  0  0  0  0  0  0  0  0
  -21.8394  -31.3924   22.6724 O   0  0  0  0  0  0  0  0  0  0  0  0
  -21.6361  -26.8216   21.4125 O   0  0  0  0  0  0  0  0  0  0  0  0
  -21.6907  -11.3742   16.9975 O   0  0  0  0  0  0  0  0  0  0  0  0
  -28.2588  -26.6325   19.8453 O   0  0  0  0  0  0  0  0  0  1  0  0
  -22.2985   -6.1563   18.6735 F   0  0  0  0  0  0  0  0  0  0  0  0
  -19.4932   -9.8292   17.6506 F   0  0  0  0  0  0  0  0  0  0  0  0
  1  2  1  0  0  0  0
  1  5  2  0  0  0  0
  2  6  2  0  0  0  0
  3  8  2  0  0  0  0
  3 16  1  0  0  0  0
  4  9  1  0  0  0  0
  4 16  2  0  0  0  0
  5 18  1  0  0  0  0
  6 20  1  0  0  0  0
  7 10  2  0  0  0  0
  7 19  1  0  0  0  0
  8 22  1  0  0  0  0
  9 22  2  0  0  0  0
 10 23  1  0  0  0  0
 11 12  2  0  0  0  0
 11 24  1  0  0  0  0
 12 25  1  0  0  0  0
 13 21  1  0  0  0  0
 13 23  2  0  0  0  0
 14 25  2  0  0  0  0
 14 26  1  0  0  0  0
 15 28  2  0  0  0  0
 15 66  1  0  0  0  0
 16 27  1  0  0  0  0
 17 27  1  0  0  0  0
 17 29  2  0  0  0  0
 17 30  1  0  0  0  0
 18 20  2  0  0  0  0
 18 35  1  0  0  0  0
 19 21  2  0  0  0  0
 19 36  1  0  0  0  0
 20 44  1  0  0  0  0
 21 37  1  0  0  0  0
 22 80  1  0  0  0  0
 23 81  1  0  0  0  0
 24 26  2  0  0  0  0
 24 80  1  0  0  0  0
 25 82  1  0  0  0  0
 26 83  1  0  0  0  0
 27 63  2  0  0  0  0
 28 31  1  0  0  0  0
 28 64  1  0  0  0  0
 29 67  1  0  0  0  0
 29 70  1  0  0  0  0
 30 71  1  0  0  0  0
 30 75  2  0  0  0  0
 31 68  1  0  0  0  0
 31 76  2  0  0  0  0
 32 45  1  0  0  0  0
 32 72  1  0  0  0  0
 32 77  2  0  0  0  0
 33 58  1  0  0  0  0
 33 69  1  0  0  0  0
 33 78  2  0  0  0  0
 34 59  1  0  0  0  0
 34 73  1  0  0  0  0
 34 79  2  0  0  0  0
 35 38  1  0  0  0  0
 36 45  1  0  0  0  0
 37 69  1  0  0  0  0
 38 40  1  0  0  0  0
 39 41  1  0  0  0  0
 39 42  1  0  0  0  0
 40 44  1  0  0  0  0
 41 46  1  0  0  0  0
 42 68  1  0  0  0  0
 43 46  1  0  0  0  0
 43 68  1  0  0  0  0
 44 72  1  0  0  0  0
 45 69  1  0  0  0  0
 46 67  1  0  0  0  0
 47 55  1  0  0  0  0
 48 59  1  0  0  0  0
 49 61  1  0  0  0  0
 50 61  1  0  0  0  0
 51 61  1  0  0  0  0
 52 62  1  0  0  0  0
 53 62  1  0  0  0  0
 54 74  1  0  0  0  0
 55 60  1  0  0  0  0
 56 60  1  0  0  0  0
 56 62  1  0  0  0  0
 57 62  1  0  0  0  0
 57 81  1  0  0  0  0
 58 61  1  0  0  0  0
 58 73  1  0  0  0  0
 59 74  1  0  0  0  0
 60 66  1  0  0  0  0
 63 67  1  0  0  0  0
 64 65  2  0  0  0  0
 65 66  1  0  0  0  0
M  CHG  1  74   1
M  ISO  4  28 100  31 100  57 101  81 101
M  END
> <Batch ID>
0087

> <Smiles>
CCC(CC(C)(C)[101CH2:1][101O:1]c1ccc2c(c1)CN(C(=O)C(NC(=O)C(C)NC)C(C)(C)C)C(C(=O)NC1CCCc3ccccc31)C2)n1c[100c:0]([100C:0](=O)N2CCCC(n3nc(-c4ccc(Oc5ccc(F)cc5F)cc4)c(C(N)=O)c3N)C2)nn1

> <Shape>
0.245

> <Color>
0.070

> <Negative vol penalty>
0.000

$$$$

  -OEChem-04052319013D

 87 95  0     1  0  0  0  0  0999 V2000
  -28.3933  -24.5250   16.5953 C   0  0  0  0  0  0  0  0  0  0  0  0
  -27.2309  -25.1954   16.9590 C   0  0  0  0  0  0  0  0  0  0  0  0
  -23.1096  -15.2624   20.2321 C   0  0  0  0  0  0  0  0  0  0  0  0
  -25.2129  -14.1176   20.5521 C   0  0  0  0  0  0  0  0  0  0  0  0
  -29.5168  -24.5899   17.4168 C   0  0  0  0  0  0  0  0  0  0  0  0
  -27.1952  -25.9404   18.1382 C   0  0  0  0  0  0  0  0  0  0  0  0
  -23.1661  -28.6434   18.9530 C   0  0  0  0  0  0  0  0  0  0  0  0
  -22.4411  -14.2084   20.8547 C   0  0  0  0  0  0  0  0  0  0  0  0
  -24.5444  -13.0635   21.1747 C   0  0  0  0  0  0  0  0  0  0  0  0
  -21.9375  -28.0805   19.2956 C   0  0  0  0  0  0  0  0  0  0  0  0
  -22.7114  -10.3794   20.2437 C   0  0  0  0  0  0  0  0  0  0  0  0
  -23.0626   -9.0810   19.8745 C   0  0  0  0  0  0  0  0  0  0  0  0
  -22.2789  -28.7460   21.5890 C   0  0  0  0  0  0  0  0  0  0  0  0
  -22.2487  -24.5125   22.0605 C   0  0  0  0  0  0  0  0  0  0  0  0
  -23.7037   -8.6059   22.1549 C   0  0  0  0  0  0  0  0  0  0  0  0
  -24.4955  -15.2170   20.0808 C   0  0  0  0  0  0  0  0  0  0  0  0
  -24.9977  -16.7738   18.1233 C   0  0  0  0  0  0  0  0  0  0  0  0
  -29.4901  -25.3261   18.6127 C   0  0  0  0  0  0  0  0  0  0  0  0
  -23.9667  -29.2532   19.9296 C   0  0  0  0  0  0  0  0  0  0  0  0
  -28.3263  -26.0377   18.9687 C   0  0  0  0  0  0  0  0  0  0  0  0
  -23.5161  -29.3181   21.2558 C   0  0  0  0  0  0  0  0  0  0  0  0
  -20.8796  -24.1545   21.9939 C   0  0  0  0  0  0  0  0  0  0  0  0
  -23.1585  -13.1089   21.3260 C   0  0  0  0  0  0  0  0  0  0  0  0
  -21.4950  -28.1292   20.6143 C   0  0  0  0  0  0  0  0  0  0  0  0
  -22.8564  -10.7911   21.5686 C   0  0  0  0  0  0  0  0  0  0  0  0
  -23.5587   -8.1942   20.8301 C   0  0  0  0  0  0  0  0  0  0  0  0
  -23.3525   -9.9043   22.5242 C   0  0  0  0  0  0  0  0  0  0  0  0
  -25.1866  -16.3053   19.4373 C   0  0  0  0  0  0  0  0  0  0  0  0
  -22.9817  -23.4045   21.6969 C   0  0  0  0  0  0  0  0  0  0  0  0
  -20.8177  -22.8384   21.5919 C   0  0  0  0  0  0  0  0  0  0  0  0
  -25.8870  -17.8130   17.9981 C   0  0  0  0  0  0  0  0  0  0  0  0
  -24.0988  -16.3109   17.1067 C   0  0  0  0  0  0  0  0  0  0  0  0
  -26.8689  -28.7135   21.1085 C   0  0  0  0  0  0  0  0  0  0  0  0
  -26.3175  -31.4911   22.6906 C   0  0  0  0  0  0  0  0  0  0  0  0
  -24.0477  -33.7112   23.9421 C   0  0  0  0  0  0  0  0  0  0  0  0
  -28.4527  -21.4850   21.9712 C   0  0  0  0  0  0  0  0  0  0  0  0
  -30.7370  -25.3687   19.4603 C   0  0  0  0  0  0  0  0  0  0  0  0
  -25.2773  -29.8793   19.5389 C   0  0  0  0  0  0  0  0  0  0  0  0
  -24.3287  -29.9793   22.3379 C   0  0  0  0  0  0  0  0  0  0  0  0
  -30.4659  -25.8102   20.8948 C   0  0  0  0  0  0  0  0  0  0  0  0
  -30.1058  -19.3508   19.6497 C   0  0  0  0  0  0  0  0  0  0  0  0
  -29.6276  -27.0798   20.8983 C   0  0  0  0  0  0  0  0  0  0  0  0
  -29.0155  -18.3706   19.2134 C   0  0  0  0  0  0  0  0  0  0  0  0
  -29.9735  -19.7221   21.1250 C   0  0  0  0  0  0  0  0  0  0  0  0
  -27.5553  -19.2482   21.0833 C   0  0  0  0  0  0  0  0  0  0  0  0
  -28.2545  -26.8293   20.2620 C   0  0  1  0  0  0  0  0  0  0  0  0
  -26.2446  -30.0208   20.7101 C   0  0  1  0  0  0  0  0  0  0  0  0
  -27.6137  -18.8875   19.5890 C   0  0  2  0  0  0  0  0  0  0  0  0
  -19.6458  -21.9669   21.3615 C   0  0  0  0  0  0  0  0  0  0  0  0
  -25.0621  -24.0698   20.4368 C   0  0  0  0  0  0  0  0  0  0  0  0
  -23.1944  -35.8114   25.0184 C   0  0  0  0  0  0  0  0  0  0  0  0
  -26.9860  -30.0079   25.2720 C   0  0  0  0  0  0  0  0  0  0  0  0
  -25.9198  -31.8828   26.5433 C   0  0  0  0  0  0  0  0  0  0  0  0
  -27.9246  -32.3213   25.1250 C   0  0  0  0  0  0  0  0  0  0  0  0
  -25.1134  -24.8006   23.5659 C   0  0  0  0  0  0  0  0  0  0  0  0
  -24.7576  -22.3709   24.0015 C   0  0  0  0  0  0  0  0  0  0  0  0
  -22.4718  -21.0579   20.9935 C   0  0  0  0  0  0  0  0  0  0  0  0
  -23.9123  -35.1249   21.3456 C   0  0  0  0  0  0  0  0  0  0  0  0
  -19.7111  -25.0548   22.3067 C   0  0  0  0  0  0  0  0  0  0  0  0
  -18.9843  -25.5745   21.0644 C   0  0  0  0  0  0  0  0  0  0  0  0
  -26.8034  -23.1577   22.7719 C   0  0  0  0  0  0  0  0  0  0  0  0
  -19.8550  -26.4619   20.1825 C   0  0  0  0  0  0  0  0  0  1  0  0
  -24.4452  -23.2293   21.5959 C   0  0  1  0  0  0  0  0  0  0  0  0
  -25.6991  -31.8613   24.0171 C   0  0  1  0  0  0  0  0  0  0  0  0
  -23.9563  -35.2231   23.8410 C   0  0  2  0  0  0  0  0  0  0  0  0
  -26.6177  -31.5041   25.2195 C   0  0  0  0  0  0  0  0  0  0  0  0
  -25.2760  -23.3899   22.9577 C   0  0  0  0  0  0  0  0  0  0  0  0
  -26.1225  -16.9907   20.0995 N   0  0  0  0  0  0  0  0  0  0  0  0
  -22.1014  -22.3927   21.4146 N   0  0  0  0  0  0  0  0  0  0  0  0
  -26.5297  -17.9003   19.1979 N   0  0  0  0  0  0  0  0  0  0  0  0
  -25.6059  -30.5714   21.9072 N   0  0  0  0  0  0  0  0  0  0  0  0
  -28.6216  -20.2063   21.4148 N   0  0  0  0  0  0  0  0  0  0  0  0
  -26.1741  -18.6516   16.9798 N   0  0  0  0  0  0  0  0  0  0  0  0
  -24.5399  -15.3107   16.2297 N   0  0  0  0  0  0  0  0  0  0  0  0
  -27.5741  -28.0945   20.0941 N   0  0  0  0  0  0  0  0  0  0  0  0
  -25.3562  -33.2765   23.9268 N   0  0  0  0  0  0  0  0  0  0  0  0
  -27.1385  -21.8688   22.2087 N   0  0  0  0  0  0  0  0  0  0  0  0
  -23.2575  -35.6169   22.5850 N   0  3  0  0  0  0  0  0  0  0  0  0
  -22.9445  -16.7824   16.9695 O   0  0  0  0  0  0  0  0  0  0  0  0
  -26.7228  -28.2978   22.2520 O   0  0  0  0  0  0  0  0  0  0  0  0
  -27.3888  -32.0046   22.3585 O   0  0  0  0  0  0  0  0  0  0  0  0
  -23.0576  -32.9883   24.0299 O   0  0  0  0  0  0  0  0  0  0  0  0
  -29.4023  -22.2315   22.2317 O   0  0  0  0  0  0  0  0  0  0  0  0
  -22.5065  -12.0802   21.9338 O   0  0  0  0  0  0  0  0  0  0  0  0
  -20.2964  -27.5800   20.9515 O   0  0  0  0  0  0  0  0  0  1  0  0
  -23.8945   -6.9469   20.4756 F   0  0  0  0  0  0  0  0  0  0  0  0
  -23.4928  -10.2937   23.7987 F   0  0  0  0  0  0  0  0  0  0  0  0
  1  2  1  0  0  0  0
  1  5  2  0  0  0  0
  2  6  2  0  0  0  0
  3  8  2  0  0  0  0
  3 16  1  0  0  0  0
  4  9  1  0  0  0  0
  4 16  2  0  0  0  0
  5 18  1  0  0  0  0
  6 20  1  0  0  0  0
  7 10  2  0  0  0  0
  7 19  1  0  0  0  0
  8 23  1  0  0  0  0
  9 23  2  0  0  0  0
 10 24  1  0  0  0  0
 11 12  2  0  0  0  0
 11 25  1  0  0  0  0
 12 26  1  0  0  0  0
 13 21  1  0  0  0  0
 13 24  2  0  0  0  0
 14 22  1  0  0  0  0
 14 29  2  0  0  0  0
 15 26  2  0  0  0  0
 15 27  1  0  0  0  0
 16 28  1  0  0  0  0
 17 28  1  0  0  0  0
 17 31  2  0  0  0  0
 17 32  1  0  0  0  0
 18 20  2  0  0  0  0
 18 37  1  0  0  0  0
 19 21  2  0  0  0  0
 19 38  1  0  0  0  0
 20 46  1  0  0  0  0
 21 39  1  0  0  0  0
 22 30  2  0  0  0  0
 22 59  1  0  0  0  0
 23 84  1  0  0  0  0
 24 85  1  0  0  0  0
 25 27  2  0  0  0  0
 25 84  1  0  0  0  0
 26 86  1  0  0  0  0
 27 87  1  0  0  0  0
 28 68  2  0  0  0  0
 29 63  1  0  0  0  0
 29 69  1  0  0  0  0
 30 49  1  0  0  0  0
 30 69  1  0  0  0  0
 31 70  1  0  0  0  0
 31 73  1  0  0  0  0
 32 74  1  0  0  0  0
 32 79  2  0  0  0  0
 33 47  1  0  0  0  0
 33 75  1  0  0  0  0
 33 80  2  0  0  0  0
 34 64  1  0  0  0  0
 34 71  1  0  0  0  0
 34 81  2  0  0  0  0
 35 65  1  0  0  0  0
 35 76  1  0  0  0  0
 35 82  2  0  0  0  0
 36 72  1  0  0  0  0
 36 77  1  0  0  0  0
 36 83  2  0  0  0  0
 37 40  1  0  0  0  0
 38 47  1  0  0  0  0
 39 71  1  0  0  0  0
 40 42  1  0  0  0  0
 41 43  1  0  0  0  0
 41 44  1  0  0  0  0
 42 46  1  0  0  0  0
 43 48  1  0  0  0  0
 44 72  1  0  0  0  0
 45 48  1  0  0  0  0
 45 72  1  0  0  0  0
 46 75  1  0  0  0  0
 47 71  1  0  0  0  0
 48 70  1  0  0  0  0
 50 63  1  0  0  0  0
 51 65  1  0  0  0  0
 52 66  1  0  0  0  0
 53 66  1  0  0  0  0
 54 66  1  0  0  0  0
 55 67  1  0  0  0  0
 56 67  1  0  0  0  0
 57 69  1  0  0  0  0
 58 78  1  0  0  0  0
 59 60  1  0  0  0  0
 60 62  1  0  0  0  0
 61 67  1  0  0  0  0
 61 77  1  0  0  0  0
 62 85  1  0  0  0  0
 63 67  1  0  0  0  0
 64 66  1  0  0  0  0
 64 76  1  0  0  0  0
 65 78  1  0  0  0  0
 68 70  1  0  0  0  0
M  CHG  1  78   1
M  ISO  4  36 100  62 101  77 100  85 101
M  END
> <Batch ID>
0087

> <Smiles>
CNC(C)C(=O)NC(C(=O)N1Cc2cc([101O:1][101CH2:1]CCc3cc(C(C)C(C)(C)C[100NH:0][100C:0](=O)N4CCCC(n5nc(-c6ccc(Oc7ccc(F)cc7F)cc6)c(C(N)=O)c5N)C4)n(C)c3C)ccc2CC1C(=O)NC1CCCc2ccccc21)C(C)(C)C

> <Shape>
0.299

> <Color>
0.072

> <Negative vol penalty>
0.000

$$$$

  -OEChem-04052319013D

 85 93  0     1  0  0  0  0  0999 V2000
  -28.0839  -22.2618   14.0358 C   0  0  0  0  0  0  0  0  0  0  0  0
  -28.4535  -21.3256   14.9962 C   0  0  0  0  0  0  0  0  0  0  0  0
  -23.5100  -29.0634   20.6622 C   0  0  0  0  0  0  0  0  0  0  0  0
  -24.7427  -28.8823   22.7322 C   0  0  0  0  0  0  0  0  0  0  0  0
  -26.8247  -22.8577   14.0930 C   0  0  0  0  0  0  0  0  0  0  0  0
  -27.5643  -20.9855   16.0151 C   0  0  0  0  0  0  0  0  0  0  0  0
  -27.3376  -15.9891   16.8082 C   0  0  0  0  0  0  0  0  0  0  0  0
  -22.3236  -29.2079   21.3814 C   0  0  0  0  0  0  0  0  0  0  0  0
  -23.5563  -29.0269   23.4514 C   0  0  0  0  0  0  0  0  0  0  0  0
  -28.3787  -15.4117   17.5338 C   0  0  0  0  0  0  0  0  0  0  0  0
  -18.9236  -29.2644   22.6699 C   0  0  0  0  0  0  0  0  0  0  0  0
  -17.8139  -28.5325   22.2473 C   0  0  0  0  0  0  0  0  0  0  0  0
  -26.9951  -15.4147   19.5098 C   0  0  0  0  0  0  0  0  0  0  0  0
  -31.5918  -18.0724   21.8511 C   0  0  0  0  0  0  0  0  0  0  0  0
  -19.0346  -26.4777   22.6008 C   0  0  0  0  0  0  0  0  0  0  0  0
  -29.8362  -18.9860   19.9725 C   0  0  0  0  0  0  0  0  0  0  0  0
  -24.7196  -28.9005   21.3376 C   0  0  0  0  0  0  0  0  0  0  0  0
  -26.8118  -29.7750   20.1691 C   0  0  0  0  0  0  0  0  0  0  0  0
  -25.9160  -22.5176   15.1075 C   0  0  0  0  0  0  0  0  0  0  0  0
  -26.1191  -16.2942   17.4316 C   0  0  0  0  0  0  0  0  0  0  0  0
  -26.2923  -21.5784   16.0867 C   0  0  0  0  0  0  0  0  0  0  0  0
  -25.9392  -15.9936   18.7893 C   0  0  0  0  0  0  0  0  0  0  0  0
  -31.1222  -19.3785   21.9343 C   0  0  0  0  0  0  0  0  0  0  0  0
  -30.2275  -19.8518   20.9810 C   0  0  0  0  0  0  0  0  0  0  0  0
  -22.3468  -29.1897   22.7759 C   0  0  0  0  0  0  0  0  0  0  0  0
  -28.2086  -15.1271   18.8855 C   0  0  0  0  0  0  0  0  0  0  0  0
  -20.0888  -28.6030   23.0579 C   0  0  0  0  0  0  0  0  0  0  0  0
  -17.8694  -27.1392   22.2127 C   0  0  0  0  0  0  0  0  0  0  0  0
  -20.1442  -27.2097   23.0234 C   0  0  0  0  0  0  0  0  0  0  0  0
  -25.9453  -28.7506   20.5953 C   0  0  0  0  0  0  0  0  0  0  0  0
  -31.1393  -17.2862   20.8037 C   0  0  0  0  0  0  0  0  0  0  0  0
  -27.8225  -29.1180   19.5107 C   0  0  0  0  0  0  0  0  0  0  0  0
  -26.7121  -31.1935   20.3521 C   0  0  0  0  0  0  0  0  0  0  0  0
  -24.4809  -18.9647   17.9684 C   0  0  0  0  0  0  0  0  0  0  0  0
  -29.8612  -23.5665   20.0582 C   0  0  0  0  0  0  0  0  0  0  0  0
  -22.2351  -16.9024   19.0754 C   0  0  0  0  0  0  0  0  0  0  0  0
  -21.5125  -13.8337   20.3821 C   0  0  0  0  0  0  0  0  0  0  0  0
  -24.5840  -23.2232   15.1555 C   0  0  0  0  0  0  0  0  0  0  0  0
  -24.9967  -16.8923   16.6286 C   0  0  0  0  0  0  0  0  0  0  0  0
  -24.6436  -16.2829   19.5007 C   0  0  0  0  0  0  0  0  0  0  0  0
  -23.5598  -22.5308   16.0510 C   0  0  0  0  0  0  0  0  0  0  0  0
  -28.7068  -25.1534   16.9961 C   0  0  0  0  0  0  0  0  0  0  0  0
  -24.1891  -22.1522   17.3880 C   0  0  0  0  0  0  0  0  0  0  0  0
  -27.9182  -26.3412   17.5460 C   0  0  0  0  0  0  0  0  0  0  0  0
  -28.5748  -23.9272   17.8956 C   0  0  0  0  0  0  0  0  0  0  0  0
  -28.1735  -25.3657   19.8690 C   0  0  0  0  0  0  0  0  0  0  0  0
  -25.3462  -21.1650   17.1932 C   0  0  1  0  0  0  0  0  0  0  0  0
  -23.9766  -17.6335   17.4873 C   0  0  1  0  0  0  0  0  0  0  0  0
  -28.3053  -26.6321   19.0065 C   0  0  2  0  0  0  0  0  0  0  0  0
  -31.5902  -20.2514   23.0512 C   0  0  0  0  0  0  0  0  0  0  0  0
  -31.8665  -22.7500   18.0945 C   0  0  0  0  0  0  0  0  0  0  0  0
  -28.1626  -21.2172   21.2592 C   0  0  0  0  0  0  0  0  0  0  0  0
  -19.5928  -12.4519   21.2203 C   0  0  0  0  0  0  0  0  0  0  0  0
  -22.1975  -18.5259   21.6585 C   0  0  0  0  0  0  0  0  0  0  0  0
  -21.0266  -16.6091   22.7643 C   0  0  0  0  0  0  0  0  0  0  0  0
  -19.9457  -17.7939   20.8536 C   0  0  0  0  0  0  0  0  0  0  0  0
  -21.9525  -11.7598   18.3171 C   0  0  0  0  0  0  0  0  0  0  0  0
  -31.6274  -15.8648   20.6815 C   0  0  0  0  0  0  0  0  0  0  0  0
  -31.4968  -21.8856   19.2952 C   0  0  0  0  0  0  0  0  0  0  0  0
  -30.7549  -14.8483   21.4210 C   0  0  0  0  0  0  0  0  0  0  0  0
  -29.2941  -14.8771   20.9867 C   0  0  0  0  0  0  0  0  0  1  0  0
  -29.6938  -21.2416   21.0224 C   0  0  2  0  0  0  0  0  0  0  0  0
  -30.0425  -22.0999   19.7583 C   0  0  1  0  0  0  0  0  0  0  0  0
  -21.9226  -16.2801   20.4148 C   0  0  1  0  0  0  0  0  0  0  0  0
  -20.4542  -12.8079   20.0187 C   0  0  2  0  0  0  0  0  0  0  0  0
  -21.2983  -17.2985   21.4102 C   0  0  0  0  0  0  0  0  0  0  0  0
  -30.2706  -17.7109   19.8588 N   0  0  0  0  0  0  0  0  0  0  0  0
  -26.3685  -27.5352   20.2376 N   0  0  0  0  0  0  0  0  0  0  0  0
  -27.5119  -27.7918   19.5796 N   0  0  0  0  0  0  0  0  0  0  0  0
  -23.5782  -16.8737   18.6740 N   0  0  0  0  0  0  0  0  0  0  0  0
  -28.9259  -24.2526   19.2832 N   0  0  0  0  0  0  0  0  0  0  0  0
  -28.9376  -29.5513   18.8853 N   0  0  0  0  0  0  0  0  0  0  0  0
  -25.6092  -31.7009   21.0524 N   0  0  0  0  0  0  0  0  0  0  0  0
  -24.8378  -19.8314   16.9530 N   0  0  0  0  0  0  0  0  0  0  0  0
  -21.0809  -15.1206   20.1399 N   0  0  0  0  0  0  0  0  0  0  0  0
  -21.0939  -11.5605   19.5130 N   0  3  0  0  0  0  0  0  0  0  0  0
  -27.5669  -31.9888   19.8935 O   0  0  0  0  0  0  0  0  0  0  0  0
  -24.5403  -19.1894   19.1716 O   0  0  0  0  0  0  0  0  0  0  0  0
  -30.5335  -24.0856   20.9530 O   0  0  0  0  0  0  0  0  0  0  0  0
  -21.3201  -17.3894   18.4066 O   0  0  0  0  0  0  0  0  0  0  0  0
  -22.6108  -13.5244   20.8391 O   0  0  0  0  0  0  0  0  0  0  0  0
  -21.1893  -29.3310   23.4780 O   0  0  0  0  0  0  0  0  0  0  0  0
  -29.2233  -14.5641   19.5962 O   0  0  0  0  0  0  0  0  0  1  0  0
  -16.8032  -26.4365   21.8083 F   0  0  0  0  0  0  0  0  0  0  0  0
  -21.2605  -26.5686   23.3961 F   0  0  0  0  0  0  0  0  0  0  0  0
  1  2  1  0  0  0  0
  1  5  2  0  0  0  0
  2  6  2  0  0  0  0
  3  8  2  0  0  0  0
  3 17  1  0  0  0  0
  4  9  1  0  0  0  0
  4 17  2  0  0  0  0
  5 19  1  0  0  0  0
  6 21  1  0  0  0  0
  7 10  2  0  0  0  0
  7 20  1  0  0  0  0
  8 25  1  0  0  0  0
  9 25  2  0  0  0  0
 10 26  1  0  0  0  0
 11 12  2  0  0  0  0
 11 27  1  0  0  0  0
 12 28  1  0  0  0  0
 13 22  1  0  0  0  0
 13 26  2  0  0  0  0
 14 23  1  0  0  0  0
 14 31  2  0  0  0  0
 15 28  2  0  0  0  0
 15 29  1  0  0  0  0
 16 24  1  0  0  0  0
 16 67  2  0  0  0  0
 17 30  1  0  0  0  0
 18 30  1  0  0  0  0
 18 32  2  0  0  0  0
 18 33  1  0  0  0  0
 19 21  2  0  0  0  0
 19 38  1  0  0  0  0
 20 22  2  0  0  0  0
 20 39  1  0  0  0  0
 21 47  1  0  0  0  0
 22 40  1  0  0  0  0
 23 24  2  0  0  0  0
 23 50  1  0  0  0  0
 24 62  1  0  0  0  0
 25 82  1  0  0  0  0
 26 83  1  0  0  0  0
 27 29  2  0  0  0  0
 27 82  1  0  0  0  0
 28 84  1  0  0  0  0
 29 85  1  0  0  0  0
 30 68  2  0  0  0  0
 31 58  1  0  0  0  0
 31 67  1  0  0  0  0
 32 69  1  0  0  0  0
 32 72  1  0  0  0  0
 33 73  1  0  0  0  0
 33 77  2  0  0  0  0
 34 48  1  0  0  0  0
 34 74  1  0  0  0  0
 34 78  2  0  0  0  0
 35 63  1  0  0  0  0
 35 71  1  0  0  0  0
 35 79  2  0  0  0  0
 36 64  1  0  0  0  0
 36 70  1  0  0  0  0
 36 80  2  0  0  0  0
 37 65  1  0  0  0  0
 37 75  1  0  0  0  0
 37 81  2  0  0  0  0
 38 41  1  0  0  0  0
 39 48  1  0  0  0  0
 40 70  1  0  0  0  0
 41 43  1  0  0  0  0
 42 44  1  0  0  0  0
 42 45  1  0  0  0  0
 43 47  1  0  0  0  0
 44 49  1  0  0  0  0
 45 71  1  0  0  0  0
 46 49  1  0  0  0  0
 46 71  1  0  0  0  0
 47 74  1  0  0  0  0
 48 70  1  0  0  0  0
 49 69  1  0  0  0  0
 51 59  1  0  0  0  0
 52 62  1  0  0  0  0
 53 65  1  0  0  0  0
 54 66  1  0  0  0  0
 55 66  1  0  0  0  0
 56 66  1  0  0  0  0
 57 76  1  0  0  0  0
 58 60  1  0  0  0  0
 59 63  1  0  0  0  0
 60 61  1  0  0  0  0
 61 83  1  0  0  0  0
 62 63  1  0  0  0  0
 64 66  1  0  0  0  0
 64 75  1  0  0  0  0
 65 76  1  0  0  0  0
 68 69  1  0  0  0  0
M  CHG  1  76   1
M  ISO  4  35 100  61 101  63 100  83 101
M  END
> <Batch ID>
0087

> <Smiles>
CC[100CH:0](C(C)c1cnc(CC[101CH2:1][101O:1]c2ccc3c(c2)CN(C(=O)C(NC(=O)C(C)NC)C(C)(C)C)C(C(=O)NC2CCCc4ccccc42)C3)cc1C)[100C:0](=O)N1CCCC(n2nc(-c3ccc(Oc4ccc(F)cc4F)cc3)c(C(N)=O)c2N)C1

> <Shape>
0.218

> <Color>
0.049

> <Negative vol penalty>
0.000

$$$$

  -OEChem-04052319013D

 85 93  0     1  0  0  0  0  0999 V2000
  -17.2848  -25.6938   25.4076 C   0  0  0  0  0  0  0  0  0  0  0  0
  -17.6711  -24.6245   24.6060 C   0  0  0  0  0  0  0  0  0  0  0  0
  -26.6560  -14.2284   23.0049 C   0  0  0  0  0  0  0  0  0  0  0  0
  -25.7973  -14.2874   20.7474 C   0  0  0  0  0  0  0  0  0  0  0  0
  -17.6671  -26.9912   25.0690 C   0  0  0  0  0  0  0  0  0  0  0  0
  -18.4390  -24.8520   23.4645 C   0  0  0  0  0  0  0  0  0  0  0  0
  -23.5647  -21.8146   19.4873 C   0  0  0  0  0  0  0  0  0  0  0  0
  -25.6693  -13.3072   23.3562 C   0  0  0  0  0  0  0  0  0  0  0  0
  -24.8105  -13.3661   21.0987 C   0  0  0  0  0  0  0  0  0  0  0  0
  -23.8405  -21.4722   18.1643 C   0  0  0  0  0  0  0  0  0  0  0  0
  -24.5778  -10.0289   21.5771 C   0  0  0  0  0  0  0  0  0  0  0  0
  -24.3444   -8.9668   20.7035 C   0  0  0  0  0  0  0  0  0  0  0  0
  -24.5090  -23.7472   17.7211 C   0  0  0  0  0  0  0  0  0  0  0  0
  -29.1646  -22.2794   15.2454 C   0  0  0  0  0  0  0  0  0  0  0  0
  -22.0558   -9.6923   20.4330 C   0  0  0  0  0  0  0  0  0  0  0  0
  -26.7200  -14.7185   21.7005 C   0  0  0  0  0  0  0  0  0  0  0  0
  -29.0256  -15.3904   20.8400 C   0  0  0  0  0  0  0  0  0  0  0  0
  -18.4482  -27.2337   23.9280 C   0  0  0  0  0  0  0  0  0  0  0  0
  -23.7490  -23.1306   19.9351 C   0  0  0  0  0  0  0  0  0  0  0  0
  -18.8309  -26.1540   23.1095 C   0  0  0  0  0  0  0  0  0  0  0  0
  -24.2373  -24.1032   19.0509 C   0  0  0  0  0  0  0  0  0  0  0  0
  -28.4887  -23.1620   14.4102 C   0  0  0  0  0  0  0  0  0  0  0  0
  -28.8285  -24.5102   14.4117 C   0  0  0  0  0  0  0  0  0  0  0  0
  -24.7466  -12.8761   22.4031 C   0  0  0  0  0  0  0  0  0  0  0  0
  -24.3099  -22.4392   17.2802 C   0  0  0  0  0  0  0  0  0  0  0  0
  -23.5502  -10.9226   21.8787 C   0  0  0  0  0  0  0  0  0  0  0  0
  -23.0834   -8.7985   20.1315 C   0  0  0  0  0  0  0  0  0  0  0  0
  -22.2892  -10.7544   21.3067 C   0  0  0  0  0  0  0  0  0  0  0  0
  -27.7386  -15.6705   21.3371 C   0  0  0  0  0  0  0  0  0  0  0  0
  -30.1645  -22.7912   16.0567 C   0  0  0  0  0  0  0  0  0  0  0  0
  -29.8433  -24.9222   15.2604 C   0  0  0  0  0  0  0  0  0  0  0  0
  -29.5979  -16.6249   20.6536 C   0  0  0  0  0  0  0  0  0  0  0  0
  -29.6480  -14.1271   20.5707 C   0  0  0  0  0  0  0  0  0  0  0  0
  -21.8449  -25.3860   21.1147 C   0  0  0  0  0  0  0  0  0  0  0  0
  -24.6407  -26.9732   21.5467 C   0  0  0  0  0  0  0  0  0  0  0  0
  -27.8981  -27.4070   20.6260 C   0  0  0  0  0  0  0  0  0  0  0  0
  -29.3103  -21.9020   18.8605 C   0  0  0  0  0  0  0  0  0  0  0  0
  -18.7971  -28.6583   23.5766 C   0  0  0  0  0  0  0  0  0  0  0  0
  -23.4723  -23.4778   21.3722 C   0  0  0  0  0  0  0  0  0  0  0  0
  -24.4714  -25.5256   19.4872 C   0  0  0  0  0  0  0  0  0  0  0  0
  -19.9264  -28.7747   22.5561 C   0  0  0  0  0  0  0  0  0  0  0  0
  -28.0734  -21.2171   22.1282 C   0  0  0  0  0  0  0  0  0  0  0  0
  -19.6972  -27.8132   21.3942 C   0  0  0  0  0  0  0  0  0  0  0  0
  -27.9764  -19.6911   22.1702 C   0  0  0  0  0  0  0  0  0  0  0  0
  -27.7139  -21.7677   20.7500 C   0  0  0  0  0  0  0  0  0  0  0  0
  -28.3748  -19.6521   19.6725 C   0  0  0  0  0  0  0  0  0  0  0  0
  -19.6849  -26.3578   21.8769 C   0  0  1  0  0  0  0  0  0  0  0  0
  -23.2075  -24.9648   21.5874 C   0  0  1  0  0  0  0  0  0  0  0  0
  -28.7823  -19.0463   21.0265 C   0  0  2  0  0  0  0  0  0  0  0  0
  -30.2540  -26.3578   15.3054 C   0  0  0  0  0  0  0  0  0  0  0  0
  -27.8536  -26.3466   11.1586 C   0  0  0  0  0  0  0  0  0  0  0  0
  -30.2400  -28.3053   20.7039 C   0  0  0  0  0  0  0  0  0  0  0  0
  -23.4107  -29.3037   20.0085 C   0  0  0  0  0  0  0  0  0  0  0  0
  -25.7147  -30.2414   19.7244 C   0  0  0  0  0  0  0  0  0  0  0  0
  -24.7542  -29.9683   22.0104 C   0  0  0  0  0  0  0  0  0  0  0  0
  -28.7707  -25.2920   22.5032 C   0  0  0  0  0  0  0  0  0  0  0  0
  -27.3937  -22.6339   13.5181 C   0  0  0  0  0  0  0  0  0  0  0  0
  -28.1224  -25.4797   13.5247 C   0  0  0  0  0  0  0  0  0  0  0  0
  -30.9120  -21.8731   16.9650 C   0  0  0  0  0  0  0  0  0  0  0  0
  -28.5985  -25.3817   12.0675 C   0  0  0  0  0  0  0  0  0  0  0  0
  -26.2556  -21.9501   14.2788 C   0  0  0  0  0  0  0  0  0  0  0  0
  -25.6083  -22.8450   15.3294 C   0  0  0  0  0  0  0  0  0  1  0  0
  -25.4725  -27.9194   20.7149 C   0  0  1  0  0  0  0  0  0  0  0  0
  -29.1704  -27.5196   21.4464 C   0  0  2  0  0  0  0  0  0  0  0  0
  -24.8319  -29.3319   20.6055 C   0  0  0  0  0  0  0  0  0  0  0  0
  -27.5068  -16.9803   21.4590 N   0  0  0  0  0  0  0  0  0  0  0  0
  -30.5225  -24.0945   16.0858 N   0  0  0  0  0  0  0  0  0  0  0  0
  -28.6559  -17.5341   21.0359 N   0  0  0  0  0  0  0  0  0  0  0  0
  -24.1801  -25.8172   20.9006 N   0  0  0  0  0  0  0  0  0  0  0  0
  -28.5145  -21.1163   19.7104 N   0  0  0  0  0  0  0  0  0  0  0  0
  -30.8102  -17.0106   20.2018 N   0  0  0  0  0  0  0  0  0  0  0  0
  -28.9182  -12.9565   20.8185 N   0  0  0  0  0  0  0  0  0  0  0  0
  -21.0347  -25.8922   22.1131 N   0  0  0  0  0  0  0  0  0  0  0  0
  -26.8080  -27.9128   21.3020 N   0  0  0  0  0  0  0  0  0  0  0  0
  -30.0423  -21.2048   17.9072 N   0  0  0  0  0  0  0  0  0  0  0  0
  -29.7103  -26.1650   21.7535 N   0  3  0  0  0  0  0  0  0  0  0  0
  -30.8224  -14.0387   20.1391 O   0  0  0  0  0  0  0  0  0  0  0  0
  -21.5509  -25.2624   19.9315 O   0  0  0  0  0  0  0  0  0  0  0  0
  -24.4142  -27.2461   22.7281 O   0  0  0  0  0  0  0  0  0  0  0  0
  -27.8745  -26.9225   19.4967 O   0  0  0  0  0  0  0  0  0  0  0  0
  -29.3685  -23.1332   18.9484 O   0  0  0  0  0  0  0  0  0  0  0  0
  -23.7838  -11.9770   22.7455 O   0  0  0  0  0  0  0  0  0  0  0  0
  -24.5793  -22.1077   15.9881 O   0  0  0  0  0  0  0  0  0  1  0  0
  -22.8598   -7.7795   19.2914 F   0  0  0  0  0  0  0  0  0  0  0  0
  -21.2984  -11.6105   21.5917 F   0  0  0  0  0  0  0  0  0  0  0  0
  1  2  1  0  0  0  0
  1  5  2  0  0  0  0
  2  6  2  0  0  0  0
  3  8  2  0  0  0  0
  3 16  1  0  0  0  0
  4  9  1  0  0  0  0
  4 16  2  0  0  0  0
  5 18  1  0  0  0  0
  6 20  1  0  0  0  0
  7 10  2  0  0  0  0
  7 19  1  0  0  0  0
  8 24  1  0  0  0  0
  9 24  2  0  0  0  0
 10 25  1  0  0  0  0
 11 12  2  0  0  0  0
 11 26  1  0  0  0  0
 12 27  1  0  0  0  0
 13 21  1  0  0  0  0
 13 25  2  0  0  0  0
 14 22  2  0  0  0  0
 14 30  1  0  0  0  0
 15 27  2  0  0  0  0
 15 28  1  0  0  0  0
 16 29  1  0  0  0  0
 17 29  1  0  0  0  0
 17 32  2  0  0  0  0
 17 33  1  0  0  0  0
 18 20  2  0  0  0  0
 18 38  1  0  0  0  0
 19 21  2  0  0  0  0
 19 39  1  0  0  0  0
 20 47  1  0  0  0  0
 21 40  1  0  0  0  0
 22 23  1  0  0  0  0
 22 57  1  0  0  0  0
 23 31  2  0  0  0  0
 23 58  1  0  0  0  0
 24 82  1  0  0  0  0
 25 83  1  0  0  0  0
 26 28  2  0  0  0  0
 26 82  1  0  0  0  0
 27 84  1  0  0  0  0
 28 85  1  0  0  0  0
 29 66  2  0  0  0  0
 30 59  1  0  0  0  0
 30 67  2  0  0  0  0
 31 50  1  0  0  0  0
 31 67  1  0  0  0  0
 32 68  1  0  0  0  0
 32 71  1  0  0  0  0
 33 72  1  0  0  0  0
 33 77  2  0  0  0  0
 34 48  1  0  0  0  0
 34 73  1  0  0  0  0
 34 78  2  0  0  0  0
 35 63  1  0  0  0  0
 35 69  1  0  0  0  0
 35 79  2  0  0  0  0
 36 64  1  0  0  0  0
 36 74  1  0  0  0  0
 36 80  2  0  0  0  0
 37 70  1  0  0  0  0
 37 75  1  0  0  0  0
 37 81  2  0  0  0  0
 38 41  1  0  0  0  0
 39 48  1  0  0  0  0
 40 69  1  0  0  0  0
 41 43  1  0  0  0  0
 42 44  1  0  0  0  0
 42 45  1  0  0  0  0
 43 47  1  0  0  0  0
 44 49  1  0  0  0  0
 45 70  1  0  0  0  0
 46 49  1  0  0  0  0
 46 70  1  0  0  0  0
 47 73  1  0  0  0  0
 48 69  1  0  0  0  0
 49 68  1  0  0  0  0
 51 60  1  0  0  0  0
 52 64  1  0  0  0  0
 53 65  1  0  0  0  0
 54 65  1  0  0  0  0
 55 65  1  0  0  0  0
 56 76  1  0  0  0  0
 57 61  1  0  0  0  0
 58 60  1  0  0  0  0
 59 75  1  0  0  0  0
 61 62  1  0  0  0  0
 62 83  1  0  0  0  0
 63 65  1  0  0  0  0
 63 74  1  0  0  0  0
 64 76  1  0  0  0  0
 66 68  1  0  0  0  0
M  CHG  1  76   1
M  ISO  4  37 100  62 101  75 100  83 101
M  END
> <Batch ID>
0087

> <Smiles>
CCCc1c(CC[101CH2:1][101O:1]c2ccc3c(c2)CN(C(=O)C(NC(=O)C(C)NC)C(C)(C)C)C(C(=O)NC2CCCc4ccccc42)C3)cc(C[100NH:0][100C:0](=O)N2CCCC(n3nc(-c4ccc(Oc5ccc(F)cc5F)cc4)c(C(N)=O)c3N)C2)nc1C

> <Shape>
0.236

> <Color>
0.072

> <Negative vol penalty>
0.000

$$$$

  -OEChem-04052319013D

 85 93  0     1  0  0  0  0  0999 V2000
  -36.1319  -24.2604   20.6390 C   0  0  0  0  0  0  0  0  0  0  0  0
  -35.0294  -24.6078   19.8649 C   0  0  0  0  0  0  0  0  0  0  0  0
  -26.3257  -12.6015   21.6495 C   0  0  0  0  0  0  0  0  0  0  0  0
  -25.7526  -13.5906   19.5210 C   0  0  0  0  0  0  0  0  0  0  0  0
  -35.9542  -23.8566   21.9616 C   0  0  0  0  0  0  0  0  0  0  0  0
  -33.7484  -24.5504   20.4126 C   0  0  0  0  0  0  0  0  0  0  0  0
  -30.9686  -28.6301   19.2839 C   0  0  0  0  0  0  0  0  0  0  0  0
  -25.1115  -11.9150   21.6574 C   0  0  0  0  0  0  0  0  0  0  0  0
  -24.5384  -12.9040   19.5289 C   0  0  0  0  0  0  0  0  0  0  0  0
  -30.4121  -28.6880   18.0069 C   0  0  0  0  0  0  0  0  0  0  0  0
  -22.3202   -9.6221   22.0657 C   0  0  0  0  0  0  0  0  0  0  0  0
  -22.3392   -8.2751   22.4271 C   0  0  0  0  0  0  0  0  0  0  0  0
  -28.2965  -27.9514   18.9019 C   0  0  0  0  0  0  0  0  0  0  0  0
  -28.2222  -22.2625   16.6120 C   0  0  0  0  0  0  0  0  0  0  0  0
  -23.8226   -7.8005   20.5801 C   0  0  0  0  0  0  0  0  0  0  0  0
  -26.6462  -13.4394   20.5813 C   0  0  0  0  0  0  0  0  0  0  0  0
  -29.1241  -13.7062   20.0371 C   0  0  0  0  0  0  0  0  0  0  0  0
  -34.6712  -23.8036   22.5288 C   0  0  0  0  0  0  0  0  0  0  0  0
  -30.1948  -28.2213   20.3796 C   0  0  0  0  0  0  0  0  0  0  0  0
  -33.5532  -24.1443   21.7437 C   0  0  0  0  0  0  0  0  0  0  0  0
  -28.8448  -27.8916   20.1922 C   0  0  0  0  0  0  0  0  0  0  0  0
  -28.2480  -21.2460   17.5506 C   0  0  0  0  0  0  0  0  0  0  0  0
  -24.2179  -12.0662   20.5972 C   0  0  0  0  0  0  0  0  0  0  0  0
  -29.0767  -28.3458   17.8153 C   0  0  0  0  0  0  0  0  0  0  0  0
  -23.0524  -10.0584   20.9615 C   0  0  0  0  0  0  0  0  0  0  0  0
  -23.0905   -7.3642   21.6843 C   0  0  0  0  0  0  0  0  0  0  0  0
  -23.8036   -9.1476   20.2187 C   0  0  0  0  0  0  0  0  0  0  0  0
  -27.9000  -14.1492   20.5728 C   0  0  0  0  0  0  0  0  0  0  0  0
  -28.7022  -23.5010   16.9876 C   0  0  0  0  0  0  0  0  0  0  0  0
  -28.7524  -21.5352   18.8026 C   0  0  0  0  0  0  0  0  0  0  0  0
  -29.9985  -14.7372   20.2799 C   0  0  0  0  0  0  0  0  0  0  0  0
  -29.4424  -12.4729   19.3788 C   0  0  0  0  0  0  0  0  0  0  0  0
  -30.3323  -25.8121   22.4486 C   0  0  0  0  0  0  0  0  0  0  0  0
  -27.8778  -27.3957   23.8593 C   0  0  0  0  0  0  0  0  0  0  0  0
  -25.2897  -29.5981   23.5459 C   0  0  0  0  0  0  0  0  0  0  0  0
  -29.2592  -20.6110   21.0907 C   0  0  0  0  0  0  0  0  0  0  0  0
  -34.5246  -23.3156   23.9483 C   0  0  0  0  0  0  0  0  0  0  0  0
  -30.8027  -28.1898   21.7551 C   0  0  0  0  0  0  0  0  0  0  0  0
  -27.9659  -27.4659   21.3388 C   0  0  0  0  0  0  0  0  0  0  0  0
  -33.1678  -23.6413   24.5674 C   0  0  0  0  0  0  0  0  0  0  0  0
  -30.7963  -18.3266   23.3481 C   0  0  0  0  0  0  0  0  0  0  0  0
  -32.0419  -23.2947   23.5983 C   0  0  0  0  0  0  0  0  0  0  0  0
  -30.3444  -16.9555   22.8402 C   0  0  0  0  0  0  0  0  0  0  0  0
  -29.6960  -19.3763   23.2025 C   0  0  0  0  0  0  0  0  0  0  0  0
  -28.6703  -18.1205   21.3477 C   0  0  0  0  0  0  0  0  0  0  0  0
  -32.1499  -24.1187   22.3096 C   0  0  1  0  0  0  0  0  0  0  0  0
  -30.0605  -27.2655   22.7154 C   0  0  1  0  0  0  0  0  0  0  0  0
  -29.7671  -17.0451   21.4139 C   0  0  2  0  0  0  0  0  0  0  0  0
  -28.3582  -17.5118   16.5764 C   0  0  0  0  0  0  0  0  0  0  0  0
  -23.4398  -30.6642   24.8644 C   0  0  0  0  0  0  0  0  0  0  0  0
  -26.2896  -24.7937   23.7304 C   0  0  0  0  0  0  0  0  0  0  0  0
  -24.2109  -26.1228   24.1560 C   0  0  0  0  0  0  0  0  0  0  0  0
  -26.0278  -26.0710   25.8645 C   0  0  0  0  0  0  0  0  0  0  0  0
  -29.9080  -27.2631   14.9656 C   0  0  0  0  0  0  0  0  0  0  0  0
  -27.4046  -27.2090   14.8270 C   0  0  0  0  0  0  0  0  0  0  0  0
  -26.3651  -32.3152   23.0775 C   0  0  0  0  0  0  0  0  0  0  0  0
  -27.7388  -19.8930   17.1861 C   0  0  0  0  0  0  0  0  0  0  0  0
  -28.6966  -24.6440   16.0025 C   0  0  0  0  0  0  0  0  0  0  0  0
  -28.8791  -18.8997   16.9144 C   0  0  0  0  0  0  0  0  0  0  0  0
  -28.5407  -25.9967   16.7116 C   0  0  0  0  0  0  0  0  0  0  0  0
  -26.3743  -27.3741   23.7258 C   0  0  1  0  0  0  0  0  0  0  0  0
  -24.8773  -30.7938   24.3853 C   0  0  2  0  0  0  0  0  0  0  0  0
  -25.7425  -26.0965   24.3470 C   0  0  0  0  0  0  0  0  0  0  0  0
  -28.6093  -27.2190   15.7737 C   0  0  0  0  0  0  0  0  0  1  0  0
  -27.9851  -15.3669   21.1152 N   0  0  0  0  0  0  0  0  0  0  0  0
  -29.1901  -23.7558   18.2202 N   0  0  0  0  0  0  0  0  0  0  0  0
  -29.2158  -22.7566   19.1425 N   0  0  0  0  0  0  0  0  0  0  0  0
  -29.2732  -15.6977   20.9216 N   0  0  0  0  0  0  0  0  0  0  0  0
  -28.6082  -27.4449   22.6634 N   0  0  0  0  0  0  0  0  0  0  0  0
  -29.2004  -19.4074   21.8247 N   0  0  0  0  0  0  0  0  0  0  0  0
  -31.3092  -14.9069   20.0050 N   0  0  0  0  0  0  0  0  0  0  0  0
  -28.4257  -11.5228   19.2119 N   0  0  0  0  0  0  0  0  0  0  0  0
  -28.7897  -20.5114   19.7814 N   0  0  0  0  0  0  0  0  0  0  0  0
  -31.6675  -25.4654   22.5288 N   0  0  0  0  0  0  0  0  0  0  0  0
  -25.8947  -28.6222   24.3095 N   0  0  0  0  0  0  0  0  0  0  0  0
  -24.9970  -32.0496   23.5920 N   0  3  0  0  0  0  0  0  0  0  0  0
  -30.5983  -12.2140   18.9658 O   0  0  0  0  0  0  0  0  0  0  0  0
  -29.3995  -25.0604   22.1905 O   0  0  0  0  0  0  0  0  0  0  0  0
  -28.3855  -27.3771   24.9834 O   0  0  0  0  0  0  0  0  0  0  0  0
  -25.0914  -29.5343   22.3346 O   0  0  0  0  0  0  0  0  0  0  0  0
  -29.7192  -21.6467   21.5782 O   0  0  0  0  0  0  0  0  0  0  0  0
  -23.0331  -11.3963   20.6045 O   0  0  0  0  0  0  0  0  0  0  0  0
  -28.5313  -28.4008   16.5697 O   0  0  0  0  0  0  0  0  0  1  0  0
  -23.1099   -6.0709   22.0323 F   0  0  0  0  0  0  0  0  0  0  0  0
  -24.5099   -9.5611   19.1576 F   0  0  0  0  0  0  0  0  0  0  0  0
  1  2  1  0  0  0  0
  1  5  2  0  0  0  0
  2  6  2  0  0  0  0
  3  8  2  0  0  0  0
  3 16  1  0  0  0  0
  4  9  1  0  0  0  0
  4 16  2  0  0  0  0
  5 18  1  0  0  0  0
  6 20  1  0  0  0  0
  7 10  2  0  0  0  0
  7 19  1  0  0  0  0
  8 23  1  0  0  0  0
  9 23  2  0  0  0  0
 10 24  1  0  0  0  0
 11 12  2  0  0  0  0
 11 25  1  0  0  0  0
 12 26  1  0  0  0  0
 13 21  1  0  0  0  0
 13 24  2  0  0  0  0
 14 22  1  0  0  0  0
 14 29  2  0  0  0  0
 15 26  2  0  0  0  0
 15 27  1  0  0  0  0
 16 28  1  0  0  0  0
 17 28  1  0  0  0  0
 17 31  2  0  0  0  0
 17 32  1  0  0  0  0
 18 20  2  0  0  0  0
 18 37  1  0  0  0  0
 19 21  2  0  0  0  0
 19 38  1  0  0  0  0
 20 46  1  0  0  0  0
 21 39  1  0  0  0  0
 22 30  2  0  0  0  0
 22 57  1  0  0  0  0
 23 82  1  0  0  0  0
 24 83  1  0  0  0  0
 25 27  2  0  0  0  0
 25 82  1  0  0  0  0
 26 84  1  0  0  0  0
 27 85  1  0  0  0  0
 28 65  2  0  0  0  0
 29 58  1  0  0  0  0
 29 66  1  0  0  0  0
 30 67  1  0  0  0  0
 30 73  1  0  0  0  0
 31 68  1  0  0  0  0
 31 71  1  0  0  0  0
 32 72  1  0  0  0  0
 32 77  2  0  0  0  0
 33 47  1  0  0  0  0
 33 74  1  0  0  0  0
 33 78  2  0  0  0  0
 34 61  1  0  0  0  0
 34 69  1  0  0  0  0
 34 79  2  0  0  0  0
 35 62  1  0  0  0  0
 35 75  1  0  0  0  0
 35 80  2  0  0  0  0
 36 70  1  0  0  0  0
 36 73  1  0  0  0  0
 36 81  2  0  0  0  0
 37 40  1  0  0  0  0
 38 47  1  0  0  0  0
 39 69  1  0  0  0  0
 40 42  1  0  0  0  0
 41 43  1  0  0  0  0
 41 44  1  0  0  0  0
 42 46  1  0  0  0  0
 43 48  1  0  0  0  0
 44 70  1  0  0  0  0
 45 48  1  0  0  0  0
 45 70  1  0  0  0  0
 46 74  1  0  0  0  0
 47 69  1  0  0  0  0
 48 68  1  0  0  0  0
 49 59  1  0  0  0  0
 50 62  1  0  0  0  0
 51 63  1  0  0  0  0
 52 63  1  0  0  0  0
 53 63  1  0  0  0  0
 54 64  1  0  0  0  0
 55 64  1  0  0  0  0
 56 76  1  0  0  0  0
 57 59  1  0  0  0  0
 58 60  1  0  0  0  0
 60 64  1  0  0  0  0
 61 63  1  0  0  0  0
 61 75  1  0  0  0  0
 62 76  1  0  0  0  0
 64 83  1  0  0  0  0
 65 68  1  0  0  0  0
 66 67  2  0  0  0  0
M  CHG  1  76   1
M  ISO  4  36 100  64 101  73 100  83 101
M  END
> <Batch ID>
0087

> <Smiles>
CCCc1cc(CC[101C:1](C)(C)[101O:1]c2ccc3c(c2)CN(C(=O)C(NC(=O)C(C)NC)C(C)(C)C)C(C(=O)NC2CCCc4ccccc42)C3)nnc1[100NH:0][100C:0](=O)N1CCCC(n2nc(-c3ccc(Oc4ccc(F)cc4F)cc3)c(C(N)=O)c2N)C1

> <Shape>
0.226

> <Color>
0.068

> <Negative vol penalty>
0.000

$$$$

  -OEChem-04052319013D

 91 99  0     1  0  0  0  0  0999 V2000
  -20.3670  -17.3483   14.9042 C   0  0  0  0  0  0  0  0  0  0  0  0
  -20.8248  -17.8592   16.1145 C   0  0  0  0  0  0  0  0  0  0  0  0
  -22.6705  -29.2419   20.8158 C   0  0  0  0  0  0  0  0  0  0  0  0
  -24.1297  -29.1788   22.7403 C   0  0  0  0  0  0  0  0  0  0  0  0
  -20.1615  -15.9767   14.7610 C   0  0  0  0  0  0  0  0  0  0  0  0
  -21.0764  -16.9989   17.1827 C   0  0  0  0  0  0  0  0  0  0  0  0
  -25.4499  -18.0293   19.5184 C   0  0  0  0  0  0  0  0  0  0  0  0
  -21.5841  -29.5103   21.6483 C   0  0  0  0  0  0  0  0  0  0  0  0
  -23.0433  -29.4472   23.5729 C   0  0  0  0  0  0  0  0  0  0  0  0
  -25.4630  -19.1119   20.3967 C   0  0  0  0  0  0  0  0  0  0  0  0
  -18.3646  -29.8560   23.3034 C   0  0  0  0  0  0  0  0  0  0  0  0
  -17.1835  -29.1486   23.0792 C   0  0  0  0  0  0  0  0  0  0  0  0
  -25.2517  -17.5949   22.2604 C   0  0  0  0  0  0  0  0  0  0  0  0
  -31.0314  -19.7413   22.1688 C   0  0  0  0  0  0  0  0  0  0  0  0
  -29.9518  -21.3683   23.5730 C   0  0  0  0  0  0  0  0  0  0  0  0
  -18.3509  -27.0719   23.4814 C   0  0  0  0  0  0  0  0  0  0  0  0
  -23.9434  -29.0761   21.3618 C   0  0  0  0  0  0  0  0  0  0  0  0
  -25.9180  -29.7350   19.8873 C   0  0  0  0  0  0  0  0  0  0  0  0
  -20.4200  -15.0981   15.8249 C   0  0  0  0  0  0  0  0  0  0  0  0
  -25.3264  -16.7198   20.0046 C   0  0  0  0  0  0  0  0  0  0  0  0
  -20.8729  -15.6145   17.0539 C   0  0  0  0  0  0  0  0  0  0  0  0
  -25.2398  -16.4972   21.3863 C   0  0  0  0  0  0  0  0  0  0  0  0
  -31.0720  -20.9425   22.8679 C   0  0  0  0  0  0  0  0  0  0  0  0
  -21.7704  -29.6130   23.0269 C   0  0  0  0  0  0  0  0  0  0  0  0
  -25.3610  -18.8951   21.7677 C   0  0  0  0  0  0  0  0  0  0  0  0
  -19.5389  -29.1713   23.6165 C   0  0  0  0  0  0  0  0  0  0  0  0
  -17.1767  -27.7566   23.1682 C   0  0  0  0  0  0  0  0  0  0  0  0
  -19.5321  -27.7793   23.7055 C   0  0  0  0  0  0  0  0  0  0  0  0
  -25.0660  -28.7983   20.5023 C   0  0  0  0  0  0  0  0  0  0  0  0
  -29.8561  -19.0086   22.2060 C   0  0  0  0  0  0  0  0  0  0  0  0
  -28.8247  -20.5628   23.5472 C   0  0  0  0  0  0  0  0  0  0  0  0
  -26.8161  -28.9714   19.1824 C   0  0  0  0  0  0  0  0  0  0  0  0
  -25.8995  -31.1674   19.9478 C   0  0  0  0  0  0  0  0  0  0  0  0
  -23.1933  -14.3892   19.6553 C   0  0  0  0  0  0  0  0  0  0  0  0
  -25.3684  -12.6749   21.3443 C   0  0  0  0  0  0  0  0  0  0  0  0
  -27.9707  -12.6697   23.5522 C   0  0  0  0  0  0  0  0  0  0  0  0
  -30.2885  -24.5557   19.4022 C   0  0  0  0  0  0  0  0  0  0  0  0
  -20.1378  -13.6284   15.6375 C   0  0  0  0  0  0  0  0  0  0  0  0
  -25.3407  -15.5609   19.0458 C   0  0  0  0  0  0  0  0  0  0  0  0
  -25.1258  -15.1094   21.9604 C   0  0  0  0  0  0  0  0  0  0  0  0
  -20.7856  -12.7436   16.6995 C   0  0  0  0  0  0  0  0  0  0  0  0
  -26.8231  -24.0427   18.0907 C   0  0  0  0  0  0  0  0  0  0  0  0
  -20.5486  -13.3202   18.0917 C   0  0  0  0  0  0  0  0  0  0  0  0
  -26.1231  -25.2936   18.6197 C   0  0  0  0  0  0  0  0  0  0  0  0
  -27.9737  -23.6281   19.0000 C   0  0  0  0  0  0  0  0  0  0  0  0
  -28.2896  -25.9609   19.7580 C   0  0  0  0  0  0  0  0  0  0  0  0
  -21.1808  -14.7106   18.2280 C   0  0  1  0  0  0  0  0  0  0  0  0
  -24.6930  -14.3038   19.6181 C   0  0  1  0  0  0  0  0  0  0  0  0
  -27.1326  -26.4291   18.8597 C   0  0  2  0  0  0  0  0  0  0  0  0
  -29.2833  -17.8918   20.0355 C   0  0  0  0  0  0  0  0  0  0  0  0
  -29.7799  -21.7716   17.6124 C   0  0  0  0  0  0  0  0  0  0  0  0
  -29.5156  -11.1137   24.7726 C   0  0  0  0  0  0  0  0  0  0  0  0
  -33.3238  -23.9659   22.1416 C   0  0  0  0  0  0  0  0  0  0  0  0
  -25.4439  -22.3006   24.3470 C   0  0  0  0  0  0  0  0  0  0  0  0
  -34.3034  -22.0184   20.1571 C   0  0  0  0  0  0  0  0  0  0  0  0
  -23.1188  -11.9622   23.2786 C   0  0  0  0  0  0  0  0  0  0  0  0
  -24.8593  -11.2409   24.9275 C   0  0  0  0  0  0  0  0  0  0  0  0
  -24.6629  -10.0722   22.7324 C   0  0  0  0  0  0  0  0  0  0  0  0
  -30.3602  -13.8383   22.2548 C   0  0  0  0  0  0  0  0  0  0  0  0
  -32.3123  -21.7703   22.8624 C   0  0  0  0  0  0  0  0  0  0  0  0
  -29.7767  -17.7137   21.4687 C   0  0  0  0  0  0  0  0  0  0  0  0
  -27.5896  -20.9948   24.2999 C   0  0  0  0  0  0  0  0  0  0  0  0
  -29.9296  -22.0711   19.0902 C   0  0  0  0  0  0  0  0  0  0  0  0
  -32.2049  -23.0208   19.1758 C   0  0  0  0  0  0  0  0  0  0  0  0
  -26.1100  -21.1049   22.2278 C   0  0  0  0  0  0  0  0  0  1  0  0
  -25.6176  -12.4120   22.8098 C   0  0  1  0  0  0  0  0  0  0  0  0
  -29.3126  -11.9606   23.5259 C   0  0  2  0  0  0  0  0  0  0  0  0
  -32.3978  -22.8180   21.7152 C   0  0  2  0  0  0  0  0  0  0  0  0
  -26.6188  -21.8554   23.4668 C   0  0  1  0  0  0  0  0  0  0  0  0
  -32.7901  -22.1971   20.3384 C   0  0  2  0  0  0  0  0  0  0  0  0
  -24.5648  -11.4482   23.4265 C   0  0  0  0  0  0  0  0  0  0  0  0
  -25.3933  -27.5360   20.2134 N   0  0  0  0  0  0  0  0  0  0  0  0
  -28.7476  -19.3898   22.8796 N   0  0  0  0  0  0  0  0  0  0  0  0
  -26.4609  -27.6742   19.4089 N   0  0  0  0  0  0  0  0  0  0  0  0
  -25.1379  -14.0095   20.9818 N   0  0  0  0  0  0  0  0  0  0  0  0
  -28.9057  -24.7386   19.2364 N   0  0  0  0  0  0  0  0  0  0  0  0
  -27.8669  -29.2897   18.3970 N   0  0  0  0  0  0  0  0  0  0  0  0
  -24.9087  -31.7908   20.7186 N   0  0  0  0  0  0  0  0  0  0  0  0
  -22.6109  -14.5989   18.4199 N   0  0  0  0  0  0  0  0  0  0  0  0
  -26.9936  -11.9378   22.9113 N   0  0  0  0  0  0  0  0  0  0  0  0
  -30.7731  -23.2415   19.3216 N   0  0  0  0  0  0  0  0  0  0  0  0
  -30.4215  -12.9532   23.4463 N   0  3  0  0  0  0  0  0  0  0  0  0
  -26.7267  -31.8740   19.3233 O   0  0  0  0  0  0  0  0  0  0  0  0
  -22.6079  -14.2718   20.7255 O   0  0  0  0  0  0  0  0  0  0  0  0
  -25.3849  -11.7317   20.5494 O   0  0  0  0  0  0  0  0  0  0  0  0
  -27.8048  -13.7619   24.0910 O   0  0  0  0  0  0  0  0  0  0  0  0
  -31.0475  -25.5132   19.6001 O   0  0  0  0  0  0  0  0  0  0  0  0
  -20.7105  -29.8751   23.8396 O   0  0  0  0  0  0  0  0  0  0  0  0
  -25.3729  -19.9501   22.6272 O   0  0  0  0  0  0  0  0  0  1  0  0
  -16.0421  -27.0776   22.9544 F   0  0  0  0  0  0  0  0  0  0  0  0
  -20.6568  -27.1162   24.0071 F   0  0  0  0  0  0  0  0  0  0  0  0
  1  2  1  0  0  0  0
  1  5  2  0  0  0  0
  2  6  2  0  0  0  0
  3  8  2  0  0  0  0
  3 17  1  0  0  0  0
  4  9  1  0  0  0  0
  4 17  2  0  0  0  0
  5 19  1  0  0  0  0
  6 21  1  0  0  0  0
  7 10  2  0  0  0  0
  7 20  1  0  0  0  0
  8 24  1  0  0  0  0
  9 24  2  0  0  0  0
 10 25  1  0  0  0  0
 11 12  2  0  0  0  0
 11 26  1  0  0  0  0
 12 27  1  0  0  0  0
 13 22  1  0  0  0  0
 13 25  2  0  0  0  0
 14 23  2  0  0  0  0
 14 30  1  0  0  0  0
 15 23  1  0  0  0  0
 15 31  2  0  0  0  0
 16 27  2  0  0  0  0
 16 28  1  0  0  0  0
 17 29  1  0  0  0  0
 18 29  1  0  0  0  0
 18 32  2  0  0  0  0
 18 33  1  0  0  0  0
 19 21  2  0  0  0  0
 19 38  1  0  0  0  0
 20 22  2  0  0  0  0
 20 39  1  0  0  0  0
 21 47  1  0  0  0  0
 22 40  1  0  0  0  0
 23 60  1  0  0  0  0
 24 88  1  0  0  0  0
 25 89  1  0  0  0  0
 26 28  2  0  0  0  0
 26 88  1  0  0  0  0
 27 90  1  0  0  0  0
 28 91  1  0  0  0  0
 29 72  2  0  0  0  0
 30 61  1  0  0  0  0
 30 73  2  0  0  0  0
 31 62  1  0  0  0  0
 31 73  1  0  0  0  0
 32 74  1  0  0  0  0
 32 77  1  0  0  0  0
 33 78  1  0  0  0  0
 33 83  2  0  0  0  0
 34 48  1  0  0  0  0
 34 79  1  0  0  0  0
 34 84  2  0  0  0  0
 35 66  1  0  0  0  0
 35 75  1  0  0  0  0
 35 85  2  0  0  0  0
 36 67  1  0  0  0  0
 36 80  1  0  0  0  0
 36 86  2  0  0  0  0
 37 76  1  0  0  0  0
 37 81  1  0  0  0  0
 37 87  2  0  0  0  0
 38 41  1  0  0  0  0
 39 48  1  0  0  0  0
 40 75  1  0  0  0  0
 41 43  1  0  0  0  0
 42 44  1  0  0  0  0
 42 45  1  0  0  0  0
 43 47  1  0  0  0  0
 44 49  1  0  0  0  0
 45 76  1  0  0  0  0
 46 49  1  0  0  0  0
 46 76  1  0  0  0  0
 47 79  1  0  0  0  0
 48 75  1  0  0  0  0
 49 74  1  0  0  0  0
 50 61  1  0  0  0  0
 51 63  1  0  0  0  0
 52 67  1  0  0  0  0
 53 68  1  0  0  0  0
 54 69  1  0  0  0  0
 55 70  1  0  0  0  0
 56 71  1  0  0  0  0
 57 71  1  0  0  0  0
 58 71  1  0  0  0  0
 59 82  1  0  0  0  0
 60 68  1  0  0  0  0
 62 69  1  0  0  0  0
 63 81  1  0  0  0  0
 64 70  1  0  0  0  0
 64 81  1  0  0  0  0
 65 69  1  0  0  0  0
 65 89  1  0  0  0  0
 66 71  1  0  0  0  0
 66 80  1  0  0  0  0
 67 82  1  0  0  0  0
 68 70  1  0  0  0  0
 72 74  1  0  0  0  0
M  CHG  1  82   1
M  ISO  4  37 100  65 101  81 100  89 101
M  END
> <Batch ID>
0087

> <Smiles>
CCc1cc(CC(C)C(C)C[100N:0](CC)[100C:0](=O)N2CCCC(n3nc(-c4ccc(Oc5ccc(F)cc5F)cc4)c(C(N)=O)c3N)C2)cc(CC(C)[101CH2:1][101O:1]c2ccc3c(c2)CN(C(=O)C(NC(=O)C(C)NC)C(C)(C)C)C(C(=O)NC2CCCc4ccccc42)C3)n1

> <Shape>
0.211

> <Color>
0.069

> <Negative vol penalty>
0.000

$$$$

  -OEChem-04052319013D

 87 95  0     1  0  0  0  0  0999 V2000
  -34.1313  -28.0671    8.9458 C   0  0  0  0  0  0  0  0  0  0  0  0
  -34.3300  -26.7987    9.4816 C   0  0  0  0  0  0  0  0  0  0  0  0
  -22.9284   -9.9789   20.0147 C   0  0  0  0  0  0  0  0  0  0  0  0
  -23.6468  -10.0310   22.3208 C   0  0  0  0  0  0  0  0  0  0  0  0
  -33.7440  -29.1196    9.7740 C   0  0  0  0  0  0  0  0  0  0  0  0
  -34.1424  -26.5824   10.8464 C   0  0  0  0  0  0  0  0  0  0  0  0
  -31.9606  -21.5151   13.5050 C   0  0  0  0  0  0  0  0  0  0  0  0
  -22.1171   -8.8788   20.2923 C   0  0  0  0  0  0  0  0  0  0  0  0
  -22.8354   -8.9309   22.5985 C   0  0  0  0  0  0  0  0  0  0  0  0
  -32.5893  -20.4345   14.1221 C   0  0  0  0  0  0  0  0  0  0  0  0
  -22.9503   -5.5792   22.1700 C   0  0  0  0  0  0  0  0  0  0  0  0
  -23.4949   -4.5495   22.9373 C   0  0  0  0  0  0  0  0  0  0  0  0
  -32.2669  -21.4820   16.2711 C   0  0  0  0  0  0  0  0  0  0  0  0
  -21.7758   -4.8812   24.6022 C   0  0  0  0  0  0  0  0  0  0  0  0
  -32.4356  -17.5444   18.8460 C   0  0  0  0  0  0  0  0  0  0  0  0
  -23.6933  -10.5550   21.0290 C   0  0  0  0  0  0  0  0  0  0  0  0
  -24.1776  -13.0511   20.8226 C   0  0  0  0  0  0  0  0  0  0  0  0
  -33.5422  -28.9140   11.1479 C   0  0  0  0  0  0  0  0  0  0  0  0
  -31.4892  -22.5941   14.2666 C   0  0  0  0  0  0  0  0  0  0  0  0
  -33.7533  -27.6335   11.6940 C   0  0  0  0  0  0  0  0  0  0  0  0
  -31.6303  -22.5738   15.6615 C   0  0  0  0  0  0  0  0  0  0  0  0
  -22.0705   -8.3548   21.5841 C   0  0  0  0  0  0  0  0  0  0  0  0
  -32.7452  -20.4192   15.5051 C   0  0  0  0  0  0  0  0  0  0  0  0
  -21.8186   -6.2600   22.6188 C   0  0  0  0  0  0  0  0  0  0  0  0
  -22.9076   -4.2005   24.1534 C   0  0  0  0  0  0  0  0  0  0  0  0
  -21.2313   -5.9109   23.8349 C   0  0  0  0  0  0  0  0  0  0  0  0
  -24.5321  -11.6910   20.7427 C   0  0  0  0  0  0  0  0  0  0  0  0
  -31.2214  -17.4492   19.4653 C   0  0  0  0  0  0  0  0  0  0  0  0
  -25.3161  -13.7249   20.4536 C   0  0  0  0  0  0  0  0  0  0  0  0
  -30.9945  -16.6933   17.3971 C   0  0  0  0  0  0  0  0  0  0  0  0
  -22.9306  -13.6516   21.1970 C   0  0  0  0  0  0  0  0  0  0  0  0
  -32.1483  -25.7007   14.4034 C   0  0  0  0  0  0  0  0  0  0  0  0
  -29.6471  -25.7431   16.4685 C   0  0  0  0  0  0  0  0  0  0  0  0
  -27.6776  -24.0327   18.6691 C   0  0  0  0  0  0  0  0  0  0  0  0
  -30.8439  -14.4468   20.7127 C   0  0  0  0  0  0  0  0  0  0  0  0
  -33.1695  -30.0930   12.0114 C   0  0  0  0  0  0  0  0  0  0  0  0
  -30.7894  -23.7398   13.5883 C   0  0  0  0  0  0  0  0  0  0  0  0
  -31.1236  -23.6981   16.5262 C   0  0  0  0  0  0  0  0  0  0  0  0
  -32.6282  -29.6968   13.3826 C   0  0  0  0  0  0  0  0  0  0  0  0
  -29.6175  -12.0397   18.3935 C   0  0  0  0  0  0  0  0  0  0  0  0
  -33.5126  -28.6284   14.0173 C   0  0  0  0  0  0  0  0  0  0  0  0
  -28.1585  -11.8423   18.8085 C   0  0  0  0  0  0  0  0  0  0  0  0
  -30.5241  -12.2551   19.6034 C   0  0  0  0  0  0  0  0  0  0  0  0
  -28.6419  -13.1419   20.9241 C   0  0  0  0  0  0  0  0  0  0  0  0
  -33.5358  -27.3537   13.1652 C   0  0  1  0  0  0  0  0  0  0  0  0
  -30.8071  -25.0232   14.4128 C   0  0  1  0  0  0  0  0  0  0  0  0
  -27.6805  -12.9767   19.7347 C   0  0  2  0  0  0  0  0  0  0  0  0
  -25.7383  -24.3447   20.2309 C   0  0  0  0  0  0  0  0  0  0  0  0
  -28.1044  -17.7365   13.4209 C   0  0  0  0  0  0  0  0  0  0  0  0
  -29.9717  -16.0982   13.1210 C   0  0  0  0  0  0  0  0  0  0  0  0
  -29.2910  -18.2492   20.9918 C   0  0  0  0  0  0  0  0  0  0  0  0
  -31.6160  -19.0239   21.3790 C   0  0  0  0  0  0  0  0  0  0  0  0
  -31.4862  -27.1265   18.4719 C   0  0  0  0  0  0  0  0  0  0  0  0
  -29.8402  -26.5572   20.2704 C   0  0  0  0  0  0  0  0  0  0  0  0
  -29.1609  -28.0427   18.3851 C   0  0  0  0  0  0  0  0  0  0  0  0
  -26.0209  -22.0778   17.1883 C   0  0  0  0  0  0  0  0  0  0  0  0
  -30.3899  -16.1255   16.1663 C   0  0  0  0  0  0  0  0  0  0  0  0
  -29.5422  -17.1619   15.3998 C   0  0  0  0  0  0  0  0  0  0  0  0
  -33.3510  -16.9865   16.5217 C   0  0  0  0  0  0  0  0  0  0  0  0
  -31.0077  -16.6358   21.8705 C   0  0  0  0  0  0  0  0  0  0  0  0
  -33.2361  -18.0923   15.4782 C   0  0  0  0  0  0  0  0  0  1  0  0
  -29.4892  -25.5722   17.9601 C   0  0  1  0  0  0  0  0  0  0  0  0
  -26.1693  -23.9594   18.8243 C   0  0  2  0  0  0  0  0  0  0  0  0
  -28.9198  -16.6303   14.0953 C   0  0  0  0  0  0  0  0  0  0  0  0
  -30.7969  -17.8014   20.8227 C   0  0  0  0  0  0  0  0  0  0  0  0
  -30.0055  -26.8042   18.7557 C   0  0  0  0  0  0  0  0  0  0  0  0
  -25.7968  -11.5099   20.3534 N   0  0  0  0  0  0  0  0  0  0  0  0
  -32.2661  -17.0694   17.5678 N   0  0  0  0  0  0  0  0  0  0  0  0
  -26.2470  -12.7649   20.1853 N   0  0  0  0  0  0  0  0  0  0  0  0
  -30.3486  -16.9198   18.5455 N   0  3  0  0  0  0  0  0  0  0  0  0
  -30.4520  -24.7988   15.8156 N   0  0  0  0  0  0  0  0  0  0  0  0
  -30.0162  -13.3453   20.4397 N   0  0  0  0  0  0  0  0  0  0  0  0
  -25.6017  -15.0391   20.3357 N   0  0  0  0  0  0  0  0  0  0  0  0
  -21.8637  -12.8130   21.5475 N   0  0  0  0  0  0  0  0  0  0  0  0
  -32.3209  -26.5922   13.3618 N   0  0  0  0  0  0  0  0  0  0  0  0
  -28.0825  -25.2601   18.1885 N   0  0  0  0  0  0  0  0  0  0  0  0
  -30.2827  -15.4385   21.5079 N   0  0  0  0  0  0  0  0  0  0  0  0
  -25.6867  -22.5769   18.5470 N   0  3  0  0  0  0  0  0  0  0  0  0
  -22.7624  -14.8947   21.2042 O   0  0  0  0  0  0  0  0  0  0  0  0
  -32.9654  -25.4353   15.2773 O   0  0  0  0  0  0  0  0  0  0  0  0
  -29.0714  -26.6757   15.9023 O   0  0  0  0  0  0  0  0  0  0  0  0
  -28.4224  -23.0963   18.9499 O   0  0  0  0  0  0  0  0  0  0  0  0
  -31.9958  -14.5421   20.2755 O   0  0  0  0  0  0  0  0  0  0  0  0
  -21.2787   -7.2815   21.8554 O   0  0  0  0  0  0  0  0  0  0  0  0
  -33.3591  -19.3660   16.1099 O   0  0  0  0  0  0  0  0  0  1  0  0
  -23.4297   -3.2106   24.8895 F   0  0  0  0  0  0  0  0  0  0  0  0
  -20.1432   -6.5605   24.2707 F   0  0  0  0  0  0  0  0  0  0  0  0
  1  2  1  0  0  0  0
  1  5  2  0  0  0  0
  2  6  2  0  0  0  0
  3  8  2  0  0  0  0
  3 16  1  0  0  0  0
  4  9  1  0  0  0  0
  4 16  2  0  0  0  0
  5 18  1  0  0  0  0
  6 20  1  0  0  0  0
  7 10  2  0  0  0  0
  7 19  1  0  0  0  0
  8 22  1  0  0  0  0
  9 22  2  0  0  0  0
 10 23  1  0  0  0  0
 11 12  2  0  0  0  0
 11 24  1  0  0  0  0
 12 25  1  0  0  0  0
 13 21  1  0  0  0  0
 13 23  2  0  0  0  0
 14 25  2  0  0  0  0
 14 26  1  0  0  0  0
 15 28  2  0  0  0  0
 15 68  1  0  0  0  0
 16 27  1  0  0  0  0
 17 27  1  0  0  0  0
 17 29  2  0  0  0  0
 17 31  1  0  0  0  0
 18 20  2  0  0  0  0
 18 36  1  0  0  0  0
 19 21  2  0  0  0  0
 19 37  1  0  0  0  0
 20 45  1  0  0  0  0
 21 38  1  0  0  0  0
 22 84  1  0  0  0  0
 23 85  1  0  0  0  0
 24 26  2  0  0  0  0
 24 84  1  0  0  0  0
 25 86  1  0  0  0  0
 26 87  1  0  0  0  0
 27 67  2  0  0  0  0
 28 65  1  0  0  0  0
 28 70  1  0  0  0  0
 29 69  1  0  0  0  0
 29 73  1  0  0  0  0
 30 57  1  0  0  0  0
 30 68  1  0  0  0  0
 30 70  2  0  0  0  0
 31 74  1  0  0  0  0
 31 79  2  0  0  0  0
 32 46  1  0  0  0  0
 32 75  1  0  0  0  0
 32 80  2  0  0  0  0
 33 62  1  0  0  0  0
 33 71  1  0  0  0  0
 33 81  2  0  0  0  0
 34 63  1  0  0  0  0
 34 76  1  0  0  0  0
 34 82  2  0  0  0  0
 35 72  1  0  0  0  0
 35 77  1  0  0  0  0
 35 83  2  0  0  0  0
 36 39  1  0  0  0  0
 37 46  1  0  0  0  0
 38 71  1  0  0  0  0
 39 41  1  0  0  0  0
 40 42  1  0  0  0  0
 40 43  1  0  0  0  0
 41 45  1  0  0  0  0
 42 47  1  0  0  0  0
 43 72  1  0  0  0  0
 44 47  1  0  0  0  0
 44 72  1  0  0  0  0
 45 75  1  0  0  0  0
 46 71  1  0  0  0  0
 47 69  1  0  0  0  0
 48 63  1  0  0  0  0
 49 64  1  0  0  0  0
 50 64  1  0  0  0  0
 51 65  1  0  0  0  0
 52 65  1  0  0  0  0
 53 66  1  0  0  0  0
 54 66  1  0  0  0  0
 55 66  1  0  0  0  0
 56 78  1  0  0  0  0
 57 58  1  0  0  0  0
 58 64  1  0  0  0  0
 59 61  1  0  0  0  0
 59 68  1  0  0  0  0
 60 65  1  0  0  0  0
 60 77  1  0  0  0  0
 61 85  1  0  0  0  0
 62 66  1  0  0  0  0
 62 76  1  0  0  0  0
 63 78  1  0  0  0  0
 67 69  1  0  0  0  0
M  CHG  2  70   1  78   1
M  ISO  4  35 100  61 101  77 100  85 101
M  END
> <Batch ID>
0087

> <Smiles>
CNC(C)C(=O)NC(C(=O)N1Cc2cc([101O:1][101CH2:1]Cn3cc(C(C)(C)C[100NH:0][100C:0](=O)N4CCCC(n5nc(-c6ccc(Oc7ccc(F)cc7F)cc6)c(C(N)=O)c5N)C4)nc3CCC(C)C)ccc2CC1C(=O)NC1CCCc2ccccc21)C(C)(C)C

> <Shape>
0.227

> <Color>
0.202

> <Negative vol penalty>
0.000

$$$$

  -OEChem-04052319013D

 87 95  0     1  0  0  0  0  0999 V2000
  -30.0645  -23.8775   15.6666 C   0  0  0  0  0  0  0  0  0  0  0  0
  -28.7180  -24.0908   15.9437 C   0  0  0  0  0  0  0  0  0  0  0  0
  -26.2720  -12.8585   19.6205 C   0  0  0  0  0  0  0  0  0  0  0  0
  -24.3532  -13.2717   21.0292 C   0  0  0  0  0  0  0  0  0  0  0  0
  -31.0121  -24.0019   16.6817 C   0  0  0  0  0  0  0  0  0  0  0  0
  -28.3182  -24.4274   17.2364 C   0  0  0  0  0  0  0  0  0  0  0  0
  -23.7244  -28.1570   18.8154 C   0  0  0  0  0  0  0  0  0  0  0  0
  -26.2390  -11.5089   19.9713 C   0  0  0  0  0  0  0  0  0  0  0  0
  -24.3201  -11.9221   21.3800 C   0  0  0  0  0  0  0  0  0  0  0  0
  -22.4113  -27.9111   19.2144 C   0  0  0  0  0  0  0  0  0  0  0  0
  -23.2538   -9.0207   20.0142 C   0  0  0  0  0  0  0  0  0  0  0  0
  -22.0139   -8.3818   20.0104 C   0  0  0  0  0  0  0  0  0  0  0  0
  -23.0903  -28.0670   21.5239 C   0  0  0  0  0  0  0  0  0  0  0  0
  -21.8233  -24.1450   21.4823 C   0  0  0  0  0  0  0  0  0  0  0  0
  -22.2657   -7.8788   22.3600 C   0  0  0  0  0  0  0  0  0  0  0  0
  -25.3292  -13.7399   20.1495 C   0  0  0  0  0  0  0  0  0  0  0  0
  -24.7021  -15.7487   18.7075 C   0  0  0  0  0  0  0  0  0  0  0  0
  -30.6248  -24.3497   17.9854 C   0  0  0  0  0  0  0  0  0  0  0  0
  -24.7340  -28.3494   19.7694 C   0  0  0  0  0  0  0  0  0  0  0  0
  -29.2613  -24.5552   18.2702 C   0  0  0  0  0  0  0  0  0  0  0  0
  -24.4149  -28.3178   21.1344 C   0  0  0  0  0  0  0  0  0  0  0  0
  -20.4368  -24.0474   21.4476 C   0  0  0  0  0  0  0  0  0  0  0  0
  -19.8382  -22.9212   20.8939 C   0  0  0  0  0  0  0  0  0  0  0  0
  -25.2630  -11.0407   20.8510 C   0  0  0  0  0  0  0  0  0  0  0  0
  -22.0947  -27.8632   20.5688 C   0  0  0  0  0  0  0  0  0  0  0  0
  -23.9998   -9.0885   21.1910 C   0  0  0  0  0  0  0  0  0  0  0  0
  -21.5198   -7.8110   21.1832 C   0  0  0  0  0  0  0  0  0  0  0  0
  -23.5057   -8.5176   22.3638 C   0  0  0  0  0  0  0  0  0  0  0  0
  -25.3632  -15.1343   19.7879 C   0  0  0  0  0  0  0  0  0  0  0  0
  -22.5606  -23.0973   20.9544 C   0  0  0  0  0  0  0  0  0  0  0  0
  -20.6643  -21.9284   20.3922 C   0  0  0  0  0  0  0  0  0  0  0  0
  -25.0532  -17.0734   18.7986 C   0  0  0  0  0  0  0  0  0  0  0  0
  -23.8470  -15.1734   17.7107 C   0  0  0  0  0  0  0  0  0  0  0  0
  -27.4241  -26.8341   20.5250 C   0  0  0  0  0  0  0  0  0  0  0  0
  -27.8225  -29.3547   22.5276 C   0  0  0  0  0  0  0  0  0  0  0  0
  -26.3960  -31.8821   24.3233 C   0  0  0  0  0  0  0  0  0  0  0  0
  -25.8645  -21.6966   21.8174 C   0  0  0  0  0  0  0  0  0  0  0  0
  -31.6801  -24.4260   19.0602 C   0  0  0  0  0  0  0  0  0  0  0  0
  -26.1404  -28.6402   19.3224 C   0  0  0  0  0  0  0  0  0  0  0  0
  -25.4583  -28.5380   22.1980 C   0  0  0  0  0  0  0  0  0  0  0  0
  -31.2153  -25.1529   20.3196 C   0  0  0  0  0  0  0  0  0  0  0  0
  -28.5493  -19.3643   21.6475 C   0  0  0  0  0  0  0  0  0  0  0  0
  -29.8345  -24.6604   20.7413 C   0  0  0  0  0  0  0  0  0  0  0  0
  -27.9039  -18.1054   21.0656 C   0  0  0  0  0  0  0  0  0  0  0  0
  -27.5985  -20.1034   22.5865 C   0  0  0  0  0  0  0  0  0  0  0  0
  -25.6368  -19.1689   21.4237 C   0  0  0  0  0  0  0  0  0  0  0  0
  -28.7912  -24.9462   19.6545 C   0  0  1  0  0  0  0  0  0  0  0  0
  -27.1850  -28.3109   20.3844 C   0  0  1  0  0  0  0  0  0  0  0  0
  -26.5377  -18.4197   20.4269 C   0  0  2  0  0  0  0  0  0  0  0  0
  -17.7910  -23.0660   19.4537 C   0  0  0  0  0  0  0  0  0  0  0  0
  -20.4718  -19.4205   20.5573 C   0  0  0  0  0  0  0  0  0  0  0  0
  -20.4462  -20.5408   18.2991 C   0  0  0  0  0  0  0  0  0  0  0  0
  -24.6341  -23.8353   19.7225 C   0  0  0  0  0  0  0  0  0  0  0  0
  -26.9737  -33.7531   25.8926 C   0  0  0  0  0  0  0  0  0  0  0  0
  -28.2028  -27.3393   24.7867 C   0  0  0  0  0  0  0  0  0  0  0  0
  -27.8240  -29.2009   26.4175 C   0  0  0  0  0  0  0  0  0  0  0  0
  -29.7664  -29.2899   24.8548 C   0  0  0  0  0  0  0  0  0  0  0  0
  -25.3294  -33.9243   22.4658 C   0  0  0  0  0  0  0  0  0  0  0  0
  -19.6084  -25.1737   22.0123 C   0  0  0  0  0  0  0  0  0  0  0  0
  -18.3533  -22.7880   20.8453 C   0  0  0  0  0  0  0  0  0  0  0  0
  -18.9822  -26.0732   20.9445 C   0  0  0  0  0  0  0  0  0  0  0  0
  -20.0119  -26.8150   20.1002 C   0  0  0  0  0  0  0  0  0  1  0  0
  -20.0798  -20.6942   19.7865 C   0  0  0  0  0  0  0  0  0  0  0  0
  -24.0511  -23.1670   20.9757 C   0  0  2  0  0  0  0  0  0  0  0  0
  -27.4330  -29.6588   23.9541 C   0  0  1  0  0  0  0  0  0  0  0  0
  -26.7455  -33.3545   24.4429 C   0  0  2  0  0  0  0  0  0  0  0  0
  -28.2870  -28.8661   24.9835 C   0  0  0  0  0  0  0  0  0  0  0  0
  -26.0801  -15.9977   20.5121 N   0  0  0  0  0  0  0  0  0  0  0  0
  -22.0149  -21.9875   20.4083 N   0  0  0  0  0  0  0  0  0  0  0  0
  -25.8716  -17.1682   19.8855 N   0  0  0  0  0  0  0  0  0  0  0  0
  -26.8202  -28.8126   21.7108 N   0  0  0  0  0  0  0  0  0  0  0  0
  -26.3223  -20.3726   21.9196 N   0  0  0  0  0  0  0  0  0  0  0  0
  -24.7387  -18.1548   18.0542 N   0  0  0  0  0  0  0  0  0  0  0  0
  -23.5907  -13.7966   17.7642 N   0  0  0  0  0  0  0  0  0  0  0  0
  -28.4012  -26.3396   19.6822 N   0  0  0  0  0  0  0  0  0  0  0  0
  -27.5150  -31.1081   24.0995 N   0  0  0  0  0  0  0  0  0  0  0  0
  -24.6492  -21.8643   21.1650 N   0  0  0  0  0  0  0  0  0  0  0  0
  -25.6445  -34.1945   23.8922 N   0  3  0  0  0  0  0  0  0  0  0  0
  -23.3389  -15.8572   16.7900 O   0  0  0  0  0  0  0  0  0  0  0  0
  -26.7716  -26.1913   21.3390 O   0  0  0  0  0  0  0  0  0  0  0  0
  -28.9718  -29.5961   22.1500 O   0  0  0  0  0  0  0  0  0  0  0  0
  -25.2459  -31.4602   24.4225 O   0  0  0  0  0  0  0  0  0  0  0  0
  -26.4950  -22.6586   22.2691 O   0  0  0  0  0  0  0  0  0  0  0  0
  -25.2302   -9.7238   21.1934 O   0  0  0  0  0  0  0  0  0  0  0  0
  -20.8140  -27.6226   20.9610 O   0  0  0  0  0  0  0  0  0  1  0  0
  -20.3283   -7.1989   21.1797 F   0  0  0  0  0  0  0  0  0  0  0  0
  -24.2172   -8.5807   23.4977 F   0  0  0  0  0  0  0  0  0  0  0  0
  1  2  1  0  0  0  0
  1  5  2  0  0  0  0
  2  6  2  0  0  0  0
  3  8  2  0  0  0  0
  3 16  1  0  0  0  0
  4  9  1  0  0  0  0
  4 16  2  0  0  0  0
  5 18  1  0  0  0  0
  6 20  1  0  0  0  0
  7 10  2  0  0  0  0
  7 19  1  0  0  0  0
  8 24  1  0  0  0  0
  9 24  2  0  0  0  0
 10 25  1  0  0  0  0
 11 12  2  0  0  0  0
 11 26  1  0  0  0  0
 12 27  1  0  0  0  0
 13 21  1  0  0  0  0
 13 25  2  0  0  0  0
 14 22  2  0  0  0  0
 14 30  1  0  0  0  0
 15 27  2  0  0  0  0
 15 28  1  0  0  0  0
 16 29  1  0  0  0  0
 17 29  1  0  0  0  0
 17 32  2  0  0  0  0
 17 33  1  0  0  0  0
 18 20  2  0  0  0  0
 18 38  1  0  0  0  0
 19 21  2  0  0  0  0
 19 39  1  0  0  0  0
 20 47  1  0  0  0  0
 21 40  1  0  0  0  0
 22 23  1  0  0  0  0
 22 59  1  0  0  0  0
 23 31  2  0  0  0  0
 23 60  1  0  0  0  0
 24 84  1  0  0  0  0
 25 85  1  0  0  0  0
 26 28  2  0  0  0  0
 26 84  1  0  0  0  0
 27 86  1  0  0  0  0
 28 87  1  0  0  0  0
 29 68  2  0  0  0  0
 30 64  1  0  0  0  0
 30 69  2  0  0  0  0
 31 63  1  0  0  0  0
 31 69  1  0  0  0  0
 32 70  1  0  0  0  0
 32 73  1  0  0  0  0
 33 74  1  0  0  0  0
 33 79  2  0  0  0  0
 34 48  1  0  0  0  0
 34 75  1  0  0  0  0
 34 80  2  0  0  0  0
 35 65  1  0  0  0  0
 35 71  1  0  0  0  0
 35 81  2  0  0  0  0
 36 66  1  0  0  0  0
 36 76  1  0  0  0  0
 36 82  2  0  0  0  0
 37 72  1  0  0  0  0
 37 77  1  0  0  0  0
 37 83  2  0  0  0  0
 38 41  1  0  0  0  0
 39 48  1  0  0  0  0
 40 71  1  0  0  0  0
 41 43  1  0  0  0  0
 42 44  1  0  0  0  0
 42 45  1  0  0  0  0
 43 47  1  0  0  0  0
 44 49  1  0  0  0  0
 45 72  1  0  0  0  0
 46 49  1  0  0  0  0
 46 72  1  0  0  0  0
 47 75  1  0  0  0  0
 48 71  1  0  0  0  0
 49 70  1  0  0  0  0
 50 60  1  0  0  0  0
 51 63  1  0  0  0  0
 52 63  1  0  0  0  0
 53 64  1  0  0  0  0
 54 66  1  0  0  0  0
 55 67  1  0  0  0  0
 56 67  1  0  0  0  0
 57 67  1  0  0  0  0
 58 78  1  0  0  0  0
 59 61  1  0  0  0  0
 61 62  1  0  0  0  0
 62 85  1  0  0  0  0
 64 77  1  0  0  0  0
 65 67  1  0  0  0  0
 65 76  1  0  0  0  0
 66 78  1  0  0  0  0
 68 70  1  0  0  0  0
M  CHG  1  78   1
M  ISO  4  37 100  62 101  77 100  85 101
M  END
> <Batch ID>
0087

> <Smiles>
CCc1c(CC[101CH2:1][101O:1]c2ccc3c(c2)CN(C(=O)C(NC(=O)C(C)NC)C(C)(C)C)C(C(=O)NC2CCCc4ccccc42)C3)cc(C(C)[100NH:0][100C:0](=O)N2CCCC(n3nc(-c4ccc(Oc5ccc(F)cc5F)cc4)c(C(N)=O)c3N)C2)nc1C(C)C

> <Shape>
0.241

> <Color>
0.059

> <Negative vol penalty>
0.000

$$$$

  -OEChem-04052319013D

 83 91  0     1  0  0  0  0  0999 V2000
  -29.6610  -24.1828   17.4479 C   0  0  0  0  0  0  0  0  0  0  0  0
  -28.4511  -24.2305   18.1330 C   0  0  0  0  0  0  0  0  0  0  0  0
  -28.1476  -14.4556   19.5969 C   0  0  0  0  0  0  0  0  0  0  0  0
  -25.9972  -15.3572   20.2295 C   0  0  0  0  0  0  0  0  0  0  0  0
  -30.7386  -24.9524   17.8842 C   0  0  0  0  0  0  0  0  0  0  0  0
  -28.3185  -25.0469   19.2556 C   0  0  0  0  0  0  0  0  0  0  0  0
  -23.9900  -27.6753   19.2459 C   0  0  0  0  0  0  0  0  0  0  0  0
  -27.6788  -13.1651   19.8429 C   0  0  0  0  0  0  0  0  0  0  0  0
  -25.5285  -14.0667   20.4754 C   0  0  0  0  0  0  0  0  0  0  0  0
  -22.8305  -26.9939   19.6135 C   0  0  0  0  0  0  0  0  0  0  0  0
  -23.8766  -11.0363   21.6148 C   0  0  0  0  0  0  0  0  0  0  0  0
  -23.1488  -10.8230   22.7854 C   0  0  0  0  0  0  0  0  0  0  0  0
  -22.9757  -27.9510   21.8230 C   0  0  0  0  0  0  0  0  0  0  0  0
  -23.3695  -23.9469   22.5236 C   0  0  0  0  0  0  0  0  0  0  0  0
  -25.0487  -11.5361   24.0966 C   0  0  0  0  0  0  0  0  0  0  0  0
  -22.1879  -21.9072   22.7516 C   0  0  0  0  0  0  0  0  0  0  0  0
  -27.3068  -15.5517   19.7903 C   0  0  0  0  0  0  0  0  0  0  0  0
  -27.7307  -17.5947   18.3226 C   0  0  0  0  0  0  0  0  0  0  0  0
  -30.6162  -25.7861   19.0070 C   0  0  0  0  0  0  0  0  0  0  0  0
  -24.6582  -28.4925   20.1690 C   0  0  0  0  0  0  0  0  0  0  0  0
  -29.3960  -25.8274   19.7081 C   0  0  0  0  0  0  0  0  0  0  0  0
  -24.1420  -28.6437   21.4639 C   0  0  0  0  0  0  0  0  0  0  0  0
  -22.1688  -23.2871   22.7177 C   0  0  0  0  0  0  0  0  0  0  0  0
  -26.3693  -12.9706   20.2821 C   0  0  0  0  0  0  0  0  0  0  0  0
  -22.3248  -27.1294   20.9031 C   0  0  0  0  0  0  0  0  0  0  0  0
  -25.1905  -11.4994   21.6850 C   0  0  0  0  0  0  0  0  0  0  0  0
  -23.7348  -11.0729   24.0263 C   0  0  0  0  0  0  0  0  0  0  0  0
  -25.7765  -11.7493   22.9259 C   0  0  0  0  0  0  0  0  0  0  0  0
  -27.7905  -16.8850   19.5369 C   0  0  0  0  0  0  0  0  0  0  0  0
  -24.5100  -23.1831   22.3765 C   0  0  0  0  0  0  0  0  0  0  0  0
  -28.3190  -18.8039   18.6021 C   0  0  0  0  0  0  0  0  0  0  0  0
  -27.1914  -17.1964   17.0552 C   0  0  0  0  0  0  0  0  0  0  0  0
  -27.5482  -28.4833   21.4926 C   0  0  0  0  0  0  0  0  0  0  0  0
  -26.5672  -31.3205   22.7216 C   0  0  0  0  0  0  0  0  0  0  0  0
  -23.9722  -33.3405   23.6341 C   0  0  0  0  0  0  0  0  0  0  0  0
  -29.0350  -21.9158   23.6672 C   0  0  0  0  0  0  0  0  0  0  0  0
  -31.8233  -26.5635   19.4689 C   0  0  0  0  0  0  0  0  0  0  0  0
  -25.8929  -29.2418   19.7488 C   0  0  0  0  0  0  0  0  0  0  0  0
  -24.8106  -29.5249   22.4862 C   0  0  0  0  0  0  0  0  0  0  0  0
  -31.4867  -27.6875   20.4454 C   0  0  0  0  0  0  0  0  0  0  0  0
  -31.5960  -20.8023   21.4585 C   0  0  0  0  0  0  0  0  0  0  0  0
  -30.5321  -27.1884   21.5254 C   0  0  0  0  0  0  0  0  0  0  0  0
  -30.9057  -19.7361   20.6060 C   0  0  0  0  0  0  0  0  0  0  0  0
  -31.0989  -20.7793   22.9023 C   0  0  0  0  0  0  0  0  0  0  0  0
  -28.9448  -19.8080   22.2024 C   0  0  0  0  0  0  0  0  0  0  0  0
  -29.2056  -26.7196   20.9155 C   0  0  1  0  0  0  0  0  0  0  0  0
  -26.7782  -29.6421   20.9250 C   0  0  1  0  0  0  0  0  0  0  0  0
  -29.3726  -19.8291   20.7249 C   0  0  2  0  0  0  0  0  0  0  0  0
  -23.4840  -35.5855   24.6436 C   0  0  0  0  0  0  0  0  0  0  0  0
  -27.3027  -30.2383   25.4780 C   0  0  0  0  0  0  0  0  0  0  0  0
  -25.9438  -32.0827   26.4879 C   0  0  0  0  0  0  0  0  0  0  0  0
  -27.9379  -32.6260   25.0912 C   0  0  0  0  0  0  0  0  0  0  0  0
  -22.5357  -34.2471   21.2106 C   0  0  0  0  0  0  0  0  0  0  0  0
  -20.8799  -24.0511   22.8866 C   0  0  0  0  0  0  0  0  0  0  0  0
  -25.8287  -23.8445   22.1657 C   0  0  0  0  0  0  0  0  0  0  0  0
  -20.1499  -24.3263   21.5702 C   0  0  0  0  0  0  0  0  0  0  0  0
  -26.5976  -24.1655   23.4632 C   0  0  0  0  0  0  0  0  0  0  0  0
  -26.8819  -22.9492   24.3419 C   0  0  0  0  0  0  0  0  0  0  0  0
  -20.9376  -25.2188   20.6182 C   0  0  0  0  0  0  0  0  0  1  0  0
  -25.8450  -31.7498   23.9758 C   0  0  1  0  0  0  0  0  0  0  0  0
  -23.6895  -34.8055   23.3543 C   0  0  2  0  0  0  0  0  0  0  0  0
  -26.7456  -31.6560   25.2398 C   0  0  0  0  0  0  0  0  0  0  0  0
  -23.3191  -21.1854   22.6047 N   0  0  0  0  0  0  0  0  0  0  0  0
  -28.3712  -17.5850   20.5151 N   0  0  0  0  0  0  0  0  0  0  0  0
  -24.4993  -21.8339   22.4144 N   0  0  0  0  0  0  0  0  0  0  0  0
  -28.6817  -18.7471   19.9157 N   0  0  0  0  0  0  0  0  0  0  0  0
  -26.0185  -30.2318   22.0292 N   0  0  0  0  0  0  0  0  0  0  0  0
  -29.6376  -20.8724   22.9452 N   0  0  0  0  0  0  0  0  0  0  0  0
  -28.5563  -19.8995   17.8500 N   0  0  0  0  0  0  0  0  0  0  0  0
  -26.6237  -15.9200   16.9420 N   0  0  0  0  0  0  0  0  0  0  0  0
  -28.3742  -27.8556   20.5798 N   0  0  0  0  0  0  0  0  0  0  0  0
  -25.3254  -33.0869   23.7103 N   0  0  0  0  0  0  0  0  0  0  0  0
  -27.6457  -21.9343   23.6510 N   0  0  0  0  0  0  0  0  0  0  0  0
  -22.4631  -34.9461   22.5194 N   0  3  0  0  0  0  0  0  0  0  0  0
  -27.2270  -17.9440   16.0485 O   0  0  0  0  0  0  0  0  0  0  0  0
  -27.4046  -28.1821   22.6717 O   0  0  0  0  0  0  0  0  0  0  0  0
  -27.5768  -31.9333   22.3653 O   0  0  0  0  0  0  0  0  0  0  0  0
  -23.0816  -32.5053   23.7749 O   0  0  0  0  0  0  0  0  0  0  0  0
  -29.6869  -22.7708   24.2762 O   0  0  0  0  0  0  0  0  0  0  0  0
  -25.9115  -11.7115   20.5219 O   0  0  0  0  0  0  0  0  0  0  0  0
  -21.1936  -26.4649   21.2647 O   0  0  0  0  0  0  0  0  0  1  0  0
  -23.0352  -10.8695   25.1503 F   0  0  0  0  0  0  0  0  0  0  0  0
  -27.0380  -12.1955   22.9997 F   0  0  0  0  0  0  0  0  0  0  0  0
  1  2  1  0  0  0  0
  1  5  2  0  0  0  0
  2  6  2  0  0  0  0
  3  8  2  0  0  0  0
  3 17  1  0  0  0  0
  4  9  1  0  0  0  0
  4 17  2  0  0  0  0
  5 19  1  0  0  0  0
  6 21  1  0  0  0  0
  7 10  2  0  0  0  0
  7 20  1  0  0  0  0
  8 24  1  0  0  0  0
  9 24  2  0  0  0  0
 10 25  1  0  0  0  0
 11 12  2  0  0  0  0
 11 26  1  0  0  0  0
 12 27  1  0  0  0  0
 13 22  1  0  0  0  0
 13 25  2  0  0  0  0
 14 23  2  0  0  0  0
 14 30  1  0  0  0  0
 15 27  2  0  0  0  0
 15 28  1  0  0  0  0
 16 23  1  0  0  0  0
 16 63  2  0  0  0  0
 17 29  1  0  0  0  0
 18 29  1  0  0  0  0
 18 31  2  0  0  0  0
 18 32  1  0  0  0  0
 19 21  2  0  0  0  0
 19 37  1  0  0  0  0
 20 22  2  0  0  0  0
 20 38  1  0  0  0  0
 21 46  1  0  0  0  0
 22 39  1  0  0  0  0
 23 54  1  0  0  0  0
 24 80  1  0  0  0  0
 25 81  1  0  0  0  0
 26 28  2  0  0  0  0
 26 80  1  0  0  0  0
 27 82  1  0  0  0  0
 28 83  1  0  0  0  0
 29 64  2  0  0  0  0
 30 55  1  0  0  0  0
 30 65  2  0  0  0  0
 31 66  1  0  0  0  0
 31 69  1  0  0  0  0
 32 70  1  0  0  0  0
 32 75  2  0  0  0  0
 33 47  1  0  0  0  0
 33 71  1  0  0  0  0
 33 76  2  0  0  0  0
 34 60  1  0  0  0  0
 34 67  1  0  0  0  0
 34 77  2  0  0  0  0
 35 61  1  0  0  0  0
 35 72  1  0  0  0  0
 35 78  2  0  0  0  0
 36 68  1  0  0  0  0
 36 73  1  0  0  0  0
 36 79  2  0  0  0  0
 37 40  1  0  0  0  0
 38 47  1  0  0  0  0
 39 67  1  0  0  0  0
 40 42  1  0  0  0  0
 41 43  1  0  0  0  0
 41 44  1  0  0  0  0
 42 46  1  0  0  0  0
 43 48  1  0  0  0  0
 44 68  1  0  0  0  0
 45 48  1  0  0  0  0
 45 68  1  0  0  0  0
 46 71  1  0  0  0  0
 47 67  1  0  0  0  0
 48 66  1  0  0  0  0
 49 61  1  0  0  0  0
 50 62  1  0  0  0  0
 51 62  1  0  0  0  0
 52 62  1  0  0  0  0
 53 74  1  0  0  0  0
 54 56  1  0  0  0  0
 55 57  1  0  0  0  0
 56 59  1  0  0  0  0
 57 58  1  0  0  0  0
 58 73  1  0  0  0  0
 59 81  1  0  0  0  0
 60 62  1  0  0  0  0
 60 72  1  0  0  0  0
 61 74  1  0  0  0  0
 63 65  1  0  0  0  0
 64 66  1  0  0  0  0
M  CHG  1  74   1
M  ISO  4  36 100  59 101  73 100  81 101
M  END
> <Batch ID>
0087

> <Smiles>
CNC(C)C(=O)NC(C(=O)N1Cc2cc([101O:1][101CH2:1]CCc3cnnc(CCC[100NH:0][100C:0](=O)N4CCCC(n5nc(-c6ccc(Oc7ccc(F)cc7F)cc6)c(C(N)=O)c5N)C4)c3)ccc2CC1C(=O)NC1CCCc2ccccc21)C(C)(C)C

> <Shape>
0.264

> <Color>
0.063

> <Negative vol penalty>
0.000

$$$$

  -OEChem-04052319013D

 83 91  0     1  0  0  0  0  0999 V2000
  -36.6941  -24.8955   15.1159 C   0  0  0  0  0  0  0  0  0  0  0  0
  -35.7906  -23.8727   15.3860 C   0  0  0  0  0  0  0  0  0  0  0  0
  -23.2683   -9.6704   20.0102 C   0  0  0  0  0  0  0  0  0  0  0  0
  -23.9299   -9.8848   22.3239 C   0  0  0  0  0  0  0  0  0  0  0  0
  -36.7697  -25.9994   15.9642 C   0  0  0  0  0  0  0  0  0  0  0  0
  -34.9630  -23.9527   16.5054 C   0  0  0  0  0  0  0  0  0  0  0  0
  -30.1721  -22.6761   15.4743 C   0  0  0  0  0  0  0  0  0  0  0  0
  -22.6145   -8.4748   20.3079 C   0  0  0  0  0  0  0  0  0  0  0  0
  -23.2760   -8.6892   22.6217 C   0  0  0  0  0  0  0  0  0  0  0  0
  -29.8844  -21.3161   15.3677 C   0  0  0  0  0  0  0  0  0  0  0  0
  -20.1044   -7.6535   23.1591 C   0  0  0  0  0  0  0  0  0  0  0  0
  -19.3060   -7.6205   24.3024 C   0  0  0  0  0  0  0  0  0  0  0  0
  -29.0072  -21.3317   17.6148 C   0  0  0  0  0  0  0  0  0  0  0  0
  -20.6747   -5.8471   25.2071 C   0  0  0  0  0  0  0  0  0  0  0  0
  -26.4967  -18.6082   19.7810 C   0  0  0  0  0  0  0  0  0  0  0  0
  -23.9261  -10.3754   21.0182 C   0  0  0  0  0  0  0  0  0  0  0  0
  -24.0588  -12.9084   20.7465 C   0  0  0  0  0  0  0  0  0  0  0  0
  -35.9358  -26.0975   17.0892 C   0  0  0  0  0  0  0  0  0  0  0  0
  -29.8890  -23.3729   16.6579 C   0  0  0  0  0  0  0  0  0  0  0  0
  -35.0284  -25.0583   17.3703 C   0  0  0  0  0  0  0  0  0  0  0  0
  -29.2899  -22.7011   17.7330 C   0  0  0  0  0  0  0  0  0  0  0  0
  -22.6183   -7.9842   21.6136 C   0  0  0  0  0  0  0  0  0  0  0  0
  -29.3045  -20.6430   16.4391 C   0  0  0  0  0  0  0  0  0  0  0  0
  -21.1880   -6.7832   23.0398 C   0  0  0  0  0  0  0  0  0  0  0  0
  -19.5912   -6.7174   25.3264 C   0  0  0  0  0  0  0  0  0  0  0  0
  -21.4732   -5.8801   24.0638 C   0  0  0  0  0  0  0  0  0  0  0  0
  -24.6021  -11.6102   20.7112 C   0  0  0  0  0  0  0  0  0  0  0  0
  -26.5925  -19.3473   20.9753 C   0  0  0  0  0  0  0  0  0  0  0  0
  -27.7806  -18.1874   19.5337 C   0  0  0  0  0  0  0  0  0  0  0  0
  -25.0980  -13.7258   20.3745 C   0  0  0  0  0  0  0  0  0  0  0  0
  -22.7332  -13.3372   21.0853 C   0  0  0  0  0  0  0  0  0  0  0  0
  -31.6276  -24.9379   18.8100 C   0  0  0  0  0  0  0  0  0  0  0  0
  -28.7202  -25.7108   20.0232 C   0  0  0  0  0  0  0  0  0  0  0  0
  -25.4093  -24.9406   20.3260 C   0  0  0  0  0  0  0  0  0  0  0  0
  -30.4641  -15.2257   20.6918 C   0  0  0  0  0  0  0  0  0  0  0  0
  -36.0869  -27.2876   18.0033 C   0  0  0  0  0  0  0  0  0  0  0  0
  -30.1809  -24.8457   16.7474 C   0  0  0  0  0  0  0  0  0  0  0  0
  -28.9476  -23.4079   19.0182 C   0  0  0  0  0  0  0  0  0  0  0  0
  -34.9126  -27.4732   18.9607 C   0  0  0  0  0  0  0  0  0  0  0  0
  -29.6304  -12.6088   18.4261 C   0  0  0  0  0  0  0  0  0  0  0  0
  -34.5398  -26.1452   19.6121 C   0  0  0  0  0  0  0  0  0  0  0  0
  -28.2062  -12.2190   18.8256 C   0  0  0  0  0  0  0  0  0  0  0  0
  -30.4755  -12.9820   19.6421 C   0  0  0  0  0  0  0  0  0  0  0  0
  -28.4635  -13.6298   20.9094 C   0  0  0  0  0  0  0  0  0  0  0  0
  -34.0965  -25.1204   18.5610 C   0  0  1  0  0  0  0  0  0  0  0  0
  -30.3226  -25.3405   18.1835 C   0  0  1  0  0  0  0  0  0  0  0  0
  -27.5568  -13.2991   19.7116 C   0  0  2  0  0  0  0  0  0  0  0  0
  -25.5063  -20.0317   21.6965 C   0  0  0  0  0  0  0  0  0  0  0  0
  -23.2923  -25.7391   21.4113 C   0  0  0  0  0  0  0  0  0  0  0  0
  -26.9752  -18.9824   15.1320 C   0  0  0  0  0  0  0  0  0  0  0  0
  -29.6931  -24.6345   22.7074 C   0  0  0  0  0  0  0  0  0  0  0  0
  -27.3085  -24.5719   23.4677 C   0  0  0  0  0  0  0  0  0  0  0  0
  -28.3625  -26.7471   22.8510 C   0  0  0  0  0  0  0  0  0  0  0  0
  -24.0726  -25.3128   17.7119 C   0  0  0  0  0  0  0  0  0  0  0  0
  -28.3522  -17.3576   18.4120 C   0  0  0  0  0  0  0  0  0  0  0  0
  -27.6003  -17.5124   17.0820 C   0  0  0  0  0  0  0  0  0  0  0  0
  -29.9593  -18.5074   20.7441 C   0  0  0  0  0  0  0  0  0  0  0  0
  -30.2978  -17.4461   21.7878 C   0  0  0  0  0  0  0  0  0  0  0  0
  -27.7831  -25.0905   21.0311 C   0  0  1  0  0  0  0  0  0  0  0  0
  -24.1593  -25.7864   20.1628 C   0  0  2  0  0  0  0  0  0  0  0  0
  -27.6589  -18.9269   16.4922 C   0  0  1  0  0  0  0  0  0  1  0  0
  -28.2949  -25.2469   22.4909 C   0  0  0  0  0  0  0  0  0  0  0  0
  -25.8867  -11.5987   20.3455 N   0  0  0  0  0  0  0  0  0  0  0  0
  -27.8387  -19.3949   21.4536 N   0  0  0  0  0  0  0  0  0  0  0  0
  -28.5377  -18.6804   20.5554 N   0  0  0  0  0  0  0  0  0  0  0  0
  -26.1592  -12.8997   20.1474 N   0  0  0  0  0  0  0  0  0  0  0  0
  -29.2581  -24.8464   19.0592 N   0  0  0  0  0  0  0  0  0  0  0  0
  -29.8043  -14.0117   20.4391 N   0  0  0  0  0  0  0  0  0  0  0  0
  -25.1984  -15.0635   20.2225 N   0  0  0  0  0  0  0  0  0  0  0  0
  -21.7884  -12.3663   21.4447 N   0  0  0  0  0  0  0  0  0  0  0  0
  -32.7418  -25.3919   18.1304 N   0  0  0  0  0  0  0  0  0  0  0  0
  -26.4728  -25.6852   20.7904 N   0  0  0  0  0  0  0  0  0  0  0  0
  -29.7547  -16.1493   21.4497 N   0  0  0  0  0  0  0  0  0  0  0  0
  -23.3505  -25.2983   19.0101 N   0  3  0  0  0  0  0  0  0  0  0  0
  -22.3921  -14.5439   21.0540 O   0  0  0  0  0  0  0  0  0  0  0  0
  -31.6239  -24.2663   19.8351 O   0  0  0  0  0  0  0  0  0  0  0  0
  -28.9603  -26.9192   20.0844 O   0  0  0  0  0  0  0  0  0  0  0  0
  -25.4383  -23.7387   20.0708 O   0  0  0  0  0  0  0  0  0  0  0  0
  -31.5989  -15.4705   20.2686 O   0  0  0  0  0  0  0  0  0  0  0  0
  -21.9802   -6.8177   21.9045 O   0  0  0  0  0  0  0  0  0  0  0  0
  -29.0233  -19.3154   16.3379 O   0  0  0  0  0  0  0  0  0  1  0  0
  -18.8253   -6.6869   26.4249 F   0  0  0  0  0  0  0  0  0  0  0  0
  -22.5135   -5.0423   23.9555 F   0  0  0  0  0  0  0  0  0  0  0  0
  1  2  1  0  0  0  0
  1  5  2  0  0  0  0
  2  6  2  0  0  0  0
  3  8  2  0  0  0  0
  3 16  1  0  0  0  0
  4  9  1  0  0  0  0
  4 16  2  0  0  0  0
  5 18  1  0  0  0  0
  6 20  1  0  0  0  0
  7 10  2  0  0  0  0
  7 19  1  0  0  0  0
  8 22  1  0  0  0  0
  9 22  2  0  0  0  0
 10 23  1  0  0  0  0
 11 12  2  0  0  0  0
 11 24  1  0  0  0  0
 12 25  1  0  0  0  0
 13 21  1  0  0  0  0
 13 23  2  0  0  0  0
 14 25  2  0  0  0  0
 14 26  1  0  0  0  0
 15 28  1  0  0  0  0
 15 29  2  0  0  0  0
 16 27  1  0  0  0  0
 17 27  1  0  0  0  0
 17 30  2  0  0  0  0
 17 31  1  0  0  0  0
 18 20  2  0  0  0  0
 18 36  1  0  0  0  0
 19 21  2  0  0  0  0
 19 37  1  0  0  0  0
 20 45  1  0  0  0  0
 21 38  1  0  0  0  0
 22 80  1  0  0  0  0
 23 81  1  0  0  0  0
 24 26  2  0  0  0  0
 24 80  1  0  0  0  0
 25 82  1  0  0  0  0
 26 83  1  0  0  0  0
 27 63  2  0  0  0  0
 28 48  1  0  0  0  0
 28 64  2  0  0  0  0
 29 55  1  0  0  0  0
 29 65  1  0  0  0  0
 30 66  1  0  0  0  0
 30 69  1  0  0  0  0
 31 70  1  0  0  0  0
 31 75  2  0  0  0  0
 32 46  1  0  0  0  0
 32 71  1  0  0  0  0
 32 76  2  0  0  0  0
 33 59  1  0  0  0  0
 33 67  1  0  0  0  0
 33 77  2  0  0  0  0
 34 60  1  0  0  0  0
 34 72  1  0  0  0  0
 34 78  2  0  0  0  0
 35 68  1  0  0  0  0
 35 73  1  0  0  0  0
 35 79  2  0  0  0  0
 36 39  1  0  0  0  0
 37 46  1  0  0  0  0
 38 67  1  0  0  0  0
 39 41  1  0  0  0  0
 40 42  1  0  0  0  0
 40 43  1  0  0  0  0
 41 45  1  0  0  0  0
 42 47  1  0  0  0  0
 43 68  1  0  0  0  0
 44 47  1  0  0  0  0
 44 68  1  0  0  0  0
 45 71  1  0  0  0  0
 46 67  1  0  0  0  0
 47 66  1  0  0  0  0
 49 60  1  0  0  0  0
 50 61  1  0  0  0  0
 51 62  1  0  0  0  0
 52 62  1  0  0  0  0
 53 62  1  0  0  0  0
 54 74  1  0  0  0  0
 55 56  1  0  0  0  0
 56 61  1  0  0  0  0
 57 58  1  0  0  0  0
 57 65  1  0  0  0  0
 58 73  1  0  0  0  0
 59 62  1  0  0  0  0
 59 72  1  0  0  0  0
 60 74  1  0  0  0  0
 61 81  1  0  0  0  0
 63 66  1  0  0  0  0
 64 65  1  0  0  0  0
M  CHG  1  74   1
M  ISO  4  35 100  61 101  73 100  81 101
M  END
> <Batch ID>
0087

> <Smiles>
CNC(C)C(=O)NC(C(=O)N1Cc2cc([101O:1][101CH:1](C)CCc3cc(C)nn3CC[100NH:0][100C:0](=O)N3CCCC(n4nc(-c5ccc(Oc6ccc(F)cc6F)cc5)c(C(N)=O)c4N)C3)ccc2CC1C(=O)NC1CCCc2ccccc21)C(C)(C)C

> <Shape>
0.259

> <Color>
0.197

> <Negative vol penalty>
0.000

$$$$

  -OEChem-04052319013D

 86 94  0     1  0  0  0  0  0999 V2000
  -20.1550  -24.0238   21.5491 C   0  0  0  0  0  0  0  0  0  0  0  0
  -21.0640  -24.6946   20.7372 C   0  0  0  0  0  0  0  0  0  0  0  0
  -28.1724  -12.5272   20.6793 C   0  0  0  0  0  0  0  0  0  0  0  0
  -29.7181  -13.6725   19.2177 C   0  0  0  0  0  0  0  0  0  0  0  0
  -19.3119  -24.7450   22.3935 C   0  0  0  0  0  0  0  0  0  0  0  0
  -21.1296  -26.0871   20.7684 C   0  0  0  0  0  0  0  0  0  0  0  0
  -25.8911  -27.8045   20.9220 C   0  0  0  0  0  0  0  0  0  0  0  0
  -28.0673  -11.4886   19.7542 C   0  0  0  0  0  0  0  0  0  0  0  0
  -29.6131  -12.6338   18.2927 C   0  0  0  0  0  0  0  0  0  0  0  0
  -26.6068  -27.8048   19.7255 C   0  0  0  0  0  0  0  0  0  0  0  0
  -27.4249  -11.6198   15.9231 C   0  0  0  0  0  0  0  0  0  0  0  0
  -27.2651  -11.9616   14.5803 C   0  0  0  0  0  0  0  0  0  0  0  0
  -26.1574  -30.1605   19.4643 C   0  0  0  0  0  0  0  0  0  0  0  0
  -29.3129  -10.7986   14.0406 C   0  0  0  0  0  0  0  0  0  0  0  0
  -28.9978  -13.6193   20.4110 C   0  0  0  0  0  0  0  0  0  0  0  0
  -29.5545  -14.6041   22.6974 C   0  0  0  0  0  0  0  0  0  0  0  0
  -19.3739  -26.1465   22.4422 C   0  0  0  0  0  0  0  0  0  0  0  0
  -25.2930  -28.9818   21.3939 C   0  0  0  0  0  0  0  0  0  0  0  0
  -20.2856  -26.8278   21.6133 C   0  0  0  0  0  0  0  0  0  0  0  0
  -25.4369  -30.1730   20.6684 C   0  0  0  0  0  0  0  0  0  0  0  0
  -28.7877  -11.5418   18.5610 C   0  0  0  0  0  0  0  0  0  0  0  0
  -26.7376  -28.9822   18.9950 C   0  0  0  0  0  0  0  0  0  0  0  0
  -28.5287  -10.8675   16.3248 C   0  0  0  0  0  0  0  0  0  0  0  0
  -28.2091  -11.5510   13.6390 C   0  0  0  0  0  0  0  0  0  0  0  0
  -29.4727  -10.4569   15.3835 C   0  0  0  0  0  0  0  0  0  0  0  0
  -29.1063  -14.6928   21.3659 C   0  0  0  0  0  0  0  0  0  0  0  0
  -29.4689  -15.8891   23.1749 C   0  0  0  0  0  0  0  0  0  0  0  0
  -30.0078  -13.4622   23.4366 C   0  0  0  0  0  0  0  0  0  0  0  0
  -22.3091  -29.8954   21.9981 C   0  0  0  0  0  0  0  0  0  0  0  0
  -23.7702  -32.5481   23.1603 C   0  0  0  0  0  0  0  0  0  0  0  0
  -26.5075  -34.5862   23.1534 C   0  0  0  0  0  0  0  0  0  0  0  0
  -29.6744  -21.1207   20.4467 C   0  0  0  0  0  0  0  0  0  0  0  0
  -18.4096  -26.8853   23.3361 C   0  0  0  0  0  0  0  0  0  0  0  0
  -24.5470  -28.9707   22.6999 C   0  0  0  0  0  0  0  0  0  0  0  0
  -24.8311  -31.4681   21.1420 C   0  0  0  0  0  0  0  0  0  0  0  0
  -18.8015  -28.3395   23.5848 C   0  0  0  0  0  0  0  0  0  0  0  0
  -27.0004  -19.9468   22.5842 C   0  0  0  0  0  0  0  0  0  0  0  0
  -19.1885  -29.0195   22.2754 C   0  0  0  0  0  0  0  0  0  0  0  0
  -27.2894  -18.4455   22.6362 C   0  0  0  0  0  0  0  0  0  0  0  0
  -30.1887  -23.8349   18.6805 C   0  0  0  0  0  0  0  0  0  0  0  0
  -29.9299  -24.7733   20.9940 C   0  0  0  0  0  0  0  0  0  0  0  0
  -27.2949  -20.5188   21.2006 C   0  0  0  0  0  0  0  0  0  0  0  0
  -28.9704  -18.7655   20.7622 C   0  0  0  0  0  0  0  0  0  0  0  0
  -31.1310  -24.9749   18.3283 C   0  0  0  0  0  0  0  0  0  0  0  0
  -20.4039  -28.3363   21.6371 C   0  0  1  0  0  0  0  0  0  0  0  0
  -23.5444  -30.1138   22.8251 C   0  0  1  0  0  0  0  0  0  0  0  0
  -28.7139  -18.1316   22.1415 C   0  0  2  0  0  0  0  0  0  0  0  0
  -30.2318  -23.5210   20.1729 C   0  0  1  0  0  0  0  0  0  0  0  0
  -30.8699  -25.9364   20.6461 C   0  0  2  0  0  0  0  0  0  0  0  0
  -30.4699  -27.1794   21.4388 C   0  0  0  0  0  0  0  0  0  0  0  0
  -27.3938  -36.6980   24.1793 C   0  0  0  0  0  0  0  0  0  0  0  0
  -28.1457  -27.7198   15.1968 C   0  0  0  0  0  0  0  0  0  0  0  0
  -26.8716  -26.3276   16.8334 C   0  0  0  0  0  0  0  0  0  0  0  0
  -32.1784  -28.8350   16.6949 C   0  0  0  0  0  0  0  0  0  0  0  0
  -21.9648  -34.1919   21.3304 C   0  0  0  0  0  0  0  0  0  0  0  0
  -23.5036  -36.1365   21.6746 C   0  0  0  0  0  0  0  0  0  0  0  0
  -22.2856  -35.1531   23.6168 C   0  0  0  0  0  0  0  0  0  0  0  0
  -28.7915  -33.1654   24.3879 C   0  0  0  0  0  0  0  0  0  0  0  0
  -29.8204  -28.8330   17.5616 C   0  0  0  0  0  0  0  0  0  0  0  0
  -31.6316  -27.3713   18.6911 C   0  0  0  0  0  0  0  0  0  0  0  0
  -24.2023  -33.8724   22.5784 C   0  0  1  0  0  0  0  0  0  0  0  0
  -27.3221  -35.1827   24.2870 C   0  0  2  0  0  0  0  0  0  0  0  0
  -28.1991  -27.0507   16.5734 C   0  0  0  0  0  0  0  0  0  0  0  0
  -31.1019  -27.9927   17.3915 C   0  0  2  0  0  0  0  0  0  0  0  0
  -28.5097  -28.0429   17.7171 C   0  0  2  0  0  0  0  0  0  1  0  0
  -22.9990  -34.8138   22.2899 C   0  0  0  0  0  0  0  0  0  0  0  0
  -28.7614  -15.9359   21.0197 N   0  0  0  0  0  0  0  0  0  0  0  0
  -28.9928  -16.6400   22.1407 N   0  0  0  0  0  0  0  0  0  0  0  0
  -24.1058  -31.4046   22.4216 N   0  0  0  0  0  0  0  0  0  0  0  0
  -28.6720  -20.2011   20.7970 N   0  0  0  0  0  0  0  0  0  0  0  0
  -29.7550  -16.4385   24.3743 N   0  0  0  0  0  0  0  0  0  0  0  0
  -31.3729  -13.1461   23.4070 N   0  0  0  0  0  0  0  0  0  0  0  0
  -21.6208  -28.7384   22.3095 N   0  0  0  0  0  0  0  0  0  0  0  0
  -25.1842  -34.4247   23.5053 N   0  0  0  0  0  0  0  0  0  0  0  0
  -29.3085  -22.4602   20.4989 N   0  0  0  0  0  0  0  0  0  0  0  0
  -30.7883  -26.2043   19.1458 N   0  3  1  0  0  0  0  0  0  0  0  0
  -28.7114  -34.6438   24.2660 N   0  3  0  0  0  0  0  0  0  0  0  0
  -29.2230  -12.7340   24.0902 O   0  0  0  0  0  0  0  0  0  0  0  0
  -22.0023  -30.7167   21.1419 O   0  0  0  0  0  0  0  0  0  0  0  0
  -23.1638  -32.5285   24.2343 O   0  0  0  0  0  0  0  0  0  0  0  0
  -26.9956  -34.2963   22.0633 O   0  0  0  0  0  0  0  0  0  0  0  0
  -30.8138  -20.7740   20.1169 O   0  0  0  0  0  0  0  0  0  0  0  0
  -28.6855  -10.5283   17.6582 O   0  0  0  0  0  0  0  0  0  0  0  0
  -27.4378  -28.9852   17.8218 O   0  0  0  0  0  0  0  0  0  1  0  0
  -28.0547  -11.8779   12.3493 F   0  0  0  0  0  0  0  0  0  0  0  0
  -30.5346   -9.7329   15.7632 F   0  0  0  0  0  0  0  0  0  0  0  0
  1  2  1  0  0  0  0
  1  5  2  0  0  0  0
  2  6  2  0  0  0  0
  3  8  2  0  0  0  0
  3 15  1  0  0  0  0
  4  9  1  0  0  0  0
  4 15  2  0  0  0  0
  5 17  1  0  0  0  0
  6 19  1  0  0  0  0
  7 10  2  0  0  0  0
  7 18  1  0  0  0  0
  8 21  1  0  0  0  0
  9 21  2  0  0  0  0
 10 22  1  0  0  0  0
 11 12  2  0  0  0  0
 11 23  1  0  0  0  0
 12 24  1  0  0  0  0
 13 20  1  0  0  0  0
 13 22  2  0  0  0  0
 14 24  2  0  0  0  0
 14 25  1  0  0  0  0
 15 26  1  0  0  0  0
 16 26  1  0  0  0  0
 16 27  2  0  0  0  0
 16 28  1  0  0  0  0
 17 19  2  0  0  0  0
 17 33  1  0  0  0  0
 18 20  2  0  0  0  0
 18 34  1  0  0  0  0
 19 45  1  0  0  0  0
 20 35  1  0  0  0  0
 21 83  1  0  0  0  0
 22 84  1  0  0  0  0
 23 25  2  0  0  0  0
 23 83  1  0  0  0  0
 24 85  1  0  0  0  0
 25 86  1  0  0  0  0
 26 67  2  0  0  0  0
 27 68  1  0  0  0  0
 27 71  1  0  0  0  0
 28 72  1  0  0  0  0
 28 78  2  0  0  0  0
 29 46  1  0  0  0  0
 29 73  1  0  0  0  0
 29 79  2  0  0  0  0
 30 61  1  0  0  0  0
 30 69  1  0  0  0  0
 30 80  2  0  0  0  0
 31 62  1  0  0  0  0
 31 74  1  0  0  0  0
 31 81  2  0  0  0  0
 32 70  1  0  0  0  0
 32 75  1  0  0  0  0
 32 82  2  0  0  0  0
 33 36  1  0  0  0  0
 34 46  1  0  0  0  0
 35 69  1  0  0  0  0
 36 38  1  0  0  0  0
 37 39  1  0  0  0  0
 37 42  1  0  0  0  0
 38 45  1  0  0  0  0
 39 47  1  0  0  0  0
 40 44  1  0  0  0  0
 40 48  1  0  0  0  0
 41 48  1  0  0  0  0
 41 49  1  0  0  0  0
 42 70  1  0  0  0  0
 43 47  1  0  0  0  0
 43 70  1  0  0  0  0
 44 76  1  0  0  0  0
 45 73  1  0  0  0  0
 46 69  1  0  0  0  0
 47 68  1  0  0  0  0
 48 75  1  0  0  0  0
 49 50  1  0  0  0  0
 49 76  1  0  0  0  0
 51 62  1  0  0  0  0
 52 63  1  0  0  0  0
 53 63  1  0  0  0  0
 54 64  1  0  0  0  0
 55 66  1  0  0  0  0
 56 66  1  0  0  0  0
 57 66  1  0  0  0  0
 58 77  1  0  0  0  0
 59 64  1  0  0  0  0
 59 65  1  0  0  0  0
 60 64  1  0  0  0  0
 60 76  1  0  0  0  0
 61 66  1  0  0  0  0
 61 74  1  0  0  0  0
 62 77  1  0  0  0  0
 63 65  1  0  0  0  0
 65 84  1  0  0  0  0
 67 68  1  0  0  0  0
M  CHG  2  76   1  77   1
M  ISO  4  32 100  65 101  75 100  84 101
M  END
> <Batch ID>
0087

> <Smiles>
CNC(C)C(=O)NC(C(=O)N1Cc2cc([101O:1][101CH:1](CC(C)CN3CCC([100NH:0][100C:0](=O)N4CCCC(n5nc(-c6ccc(Oc7ccc(F)cc7F)cc6)c(C(N)=O)c5N)C4)CC3C)C(C)C)ccc2CC1C(=O)NC1CCCc2ccccc21)C(C)(C)C

> <Shape>
0.285

> <Color>
0.099

> <Negative vol penalty>
0.000

$$$$

  -OEChem-04052319013D

 85 93  0     1  0  0  0  0  0999 V2000
  -22.8777  -17.6962   22.3288 C   0  0  0  0  0  0  0  0  0  0  0  0
  -23.9792  -18.4914   22.0291 C   0  0  0  0  0  0  0  0  0  0  0  0
  -25.9709  -13.5198   21.1834 C   0  0  0  0  0  0  0  0  0  0  0  0
  -25.7017  -13.8598   18.8066 C   0  0  0  0  0  0  0  0  0  0  0  0
  -21.5924  -18.1463   22.0298 C   0  0  0  0  0  0  0  0  0  0  0  0
  -23.7960  -19.7368   21.4291 C   0  0  0  0  0  0  0  0  0  0  0  0
  -27.1318  -24.7905   22.3447 C   0  0  0  0  0  0  0  0  0  0  0  0
  -24.8467  -12.6943   21.1927 C   0  0  0  0  0  0  0  0  0  0  0  0
  -24.5774  -13.0342   18.8159 C   0  0  0  0  0  0  0  0  0  0  0  0
  -28.1777  -25.3671   21.6255 C   0  0  0  0  0  0  0  0  0  0  0  0
  -24.0923   -9.5036   20.3663 C   0  0  0  0  0  0  0  0  0  0  0  0
  -24.1755   -8.3029   21.0713 C   0  0  0  0  0  0  0  0  0  0  0  0
  -26.6057  -26.8246   20.5194 C   0  0  0  0  0  0  0  0  0  0  0  0
  -30.6323  -23.8703   16.9641 C   0  0  0  0  0  0  0  0  0  0  0  0
  -22.3435   -9.0042   22.4817 C   0  0  0  0  0  0  0  0  0  0  0  0
  -26.3985  -14.1026   19.9904 C   0  0  0  0  0  0  0  0  0  0  0  0
  -28.8971  -14.5690   19.7732 C   0  0  0  0  0  0  0  0  0  0  0  0
  -21.3928  -19.4019   21.4347 C   0  0  0  0  0  0  0  0  0  0  0  0
  -25.8113  -25.2199   22.1484 C   0  0  0  0  0  0  0  0  0  0  0  0
  -22.5069  -20.2035   21.1206 C   0  0  0  0  0  0  0  0  0  0  0  0
  -25.5451  -26.2536   21.2392 C   0  0  0  0  0  0  0  0  0  0  0  0
  -31.6135  -24.2848   17.8578 C   0  0  0  0  0  0  0  0  0  0  0  0
  -32.3045  -23.3412   18.6097 C   0  0  0  0  0  0  0  0  0  0  0  0
  -24.1499  -12.4515   20.0089 C   0  0  0  0  0  0  0  0  0  0  0  0
  -27.9145  -26.3823   20.7106 C   0  0  0  0  0  0  0  0  0  0  0  0
  -23.1348  -10.4546   20.7190 C   0  0  0  0  0  0  0  0  0  0  0  0
  -23.3011   -8.0532   22.1290 C   0  0  0  0  0  0  0  0  0  0  0  0
  -22.2604  -10.2049   21.7767 C   0  0  0  0  0  0  0  0  0  0  0  0
  -27.5594  -14.9559   19.9802 C   0  0  0  0  0  0  0  0  0  0  0  0
  -30.3819  -22.5115   16.8602 C   0  0  0  0  0  0  0  0  0  0  0  0
  -31.9791  -22.0061   18.4323 C   0  0  0  0  0  0  0  0  0  0  0  0
  -29.6103  -15.7397   19.8590 C   0  0  0  0  0  0  0  0  0  0  0  0
  -29.4458  -13.2678   19.5254 C   0  0  0  0  0  0  0  0  0  0  0  0
  -23.1340  -23.8449   21.1262 C   0  0  0  0  0  0  0  0  0  0  0  0
  -21.8150  -26.6872   21.9649 C   0  0  0  0  0  0  0  0  0  0  0  0
  -22.2424  -30.0261   22.5270 C   0  0  0  0  0  0  0  0  0  0  0  0
  -28.1522  -21.4776   18.9642 C   0  0  0  0  0  0  0  0  0  0  0  0
  -19.9877  -19.8253   21.0869 C   0  0  0  0  0  0  0  0  0  0  0  0
  -24.6975  -24.6062   22.9515 C   0  0  0  0  0  0  0  0  0  0  0  0
  -24.1475  -26.7646   21.0064 C   0  0  0  0  0  0  0  0  0  0  0  0
  -19.8562  -21.3176   20.7934 C   0  0  0  0  0  0  0  0  0  0  0  0
  -29.4985  -20.0490   21.9346 C   0  0  0  0  0  0  0  0  0  0  0  0
  -20.9679  -21.7771   19.8555 C   0  0  0  0  0  0  0  0  0  0  0  0
  -29.2749  -18.5468   21.7519 C   0  0  0  0  0  0  0  0  0  0  0  0
  -28.3447  -20.8657   21.3569 C   0  0  0  0  0  0  0  0  0  0  0  0
  -27.7941  -19.0645   19.7674 C   0  0  0  0  0  0  0  0  0  0  0  0
  -22.3475  -21.5710   20.4924 C   0  0  1  0  0  0  0  0  0  0  0  0
  -23.3293  -24.7672   22.2961 C   0  0  1  0  0  0  0  0  0  0  0  0
  -28.9578  -18.2015   20.2844 C   0  0  2  0  0  0  0  0  0  0  0  0
  -32.6879  -20.9462   19.2107 C   0  0  0  0  0  0  0  0  0  0  0  0
  -34.6721  -24.1218   18.8780 C   0  0  0  0  0  0  0  0  0  0  0  0
  -20.9726  -32.0951   23.1629 C   0  0  0  0  0  0  0  0  0  0  0  0
  -20.6533  -26.8372   19.1474 C   0  0  0  0  0  0  0  0  0  0  0  0
  -20.2300  -29.2755   19.5269 C   0  0  0  0  0  0  0  0  0  0  0  0
  -19.0956  -27.5768   20.9588 C   0  0  0  0  0  0  0  0  0  0  0  0
  -23.8633  -30.4093   24.9734 C   0  0  0  0  0  0  0  0  0  0  0  0
  -31.9058  -25.7577   17.9941 C   0  0  0  0  0  0  0  0  0  0  0  0
  -33.3639  -23.7563   19.5744 C   0  0  0  0  0  0  0  0  0  0  0  0
  -29.3366  -22.0301   15.9102 C   0  0  0  0  0  0  0  0  0  0  0  0
  -30.6926  -26.5901   18.4146 C   0  0  0  0  0  0  0  0  0  0  0  0
  -27.9395  -21.9320   16.5337 C   0  0  0  0  0  0  0  0  0  0  0  0
  -30.0600  -26.1190   19.7190 C   0  0  0  0  0  0  0  0  0  1  0  0
  -21.5695  -28.0007   21.2623 C   0  0  1  0  0  0  0  0  0  0  0  0
  -21.7954  -30.9206   23.6692 C   0  0  2  0  0  0  0  0  0  0  0  0
  -20.4133  -27.9118   20.2266 C   0  0  0  0  0  0  0  0  0  0  0  0
  -27.4281  -16.2697   20.1825 N   0  0  0  0  0  0  0  0  0  0  0  0
  -31.0323  -21.5653   17.5739 N   0  0  0  0  0  0  0  0  0  0  0  0
  -28.6924  -16.7184   20.1031 N   0  0  0  0  0  0  0  0  0  0  0  0
  -23.0916  -26.1283   21.8112 N   0  0  0  0  0  0  0  0  0  0  0  0
  -28.0963  -20.4912   19.9626 N   0  0  0  0  0  0  0  0  0  0  0  0
  -30.9269  -16.0170   19.7488 N   0  0  0  0  0  0  0  0  0  0  0  0
  -28.5716  -12.1738   19.4686 N   0  0  0  0  0  0  0  0  0  0  0  0
  -22.6158  -22.6093   21.4642 N   0  0  0  0  0  0  0  0  0  0  0  0
  -21.3567  -28.9914   22.3119 N   0  0  0  0  0  0  0  0  0  0  0  0
  -27.9108  -21.0367   17.6688 N   0  0  0  0  0  0  0  0  0  0  0  0
  -22.9780  -31.4561   24.4011 N   0  3  0  0  0  0  0  0  0  0  0  0
  -30.6767  -13.0785   19.3754 O   0  0  0  0  0  0  0  0  0  0  0  0
  -23.4301  -24.2265   19.9999 O   0  0  0  0  0  0  0  0  0  0  0  0
  -20.9097  -26.1795   22.6314 O   0  0  0  0  0  0  0  0  0  0  0  0
  -23.2722  -30.2274   21.8871 O   0  0  0  0  0  0  0  0  0  0  0  0
  -28.4042  -22.6625   19.2085 O   0  0  0  0  0  0  0  0  0  0  0  0
  -23.0529  -11.6458   20.0176 O   0  0  0  0  0  0  0  0  0  0  0  0
  -28.9335  -26.9463   20.0068 O   0  0  0  0  0  0  0  0  0  1  0  0
  -23.3801   -6.8995   22.8050 F   0  0  0  0  0  0  0  0  0  0  0  0
  -21.3376  -11.1142   22.1194 F   0  0  0  0  0  0  0  0  0  0  0  0
  1  2  1  0  0  0  0
  1  5  2  0  0  0  0
  2  6  2  0  0  0  0
  3  8  2  0  0  0  0
  3 16  1  0  0  0  0
  4  9  1  0  0  0  0
  4 16  2  0  0  0  0
  5 18  1  0  0  0  0
  6 20  1  0  0  0  0
  7 10  2  0  0  0  0
  7 19  1  0  0  0  0
  8 24  1  0  0  0  0
  9 24  2  0  0  0  0
 10 25  1  0  0  0  0
 11 12  2  0  0  0  0
 11 26  1  0  0  0  0
 12 27  1  0  0  0  0
 13 21  1  0  0  0  0
 13 25  2  0  0  0  0
 14 22  2  0  0  0  0
 14 30  1  0  0  0  0
 15 27  2  0  0  0  0
 15 28  1  0  0  0  0
 16 29  1  0  0  0  0
 17 29  1  0  0  0  0
 17 32  2  0  0  0  0
 17 33  1  0  0  0  0
 18 20  2  0  0  0  0
 18 38  1  0  0  0  0
 19 21  2  0  0  0  0
 19 39  1  0  0  0  0
 20 47  1  0  0  0  0
 21 40  1  0  0  0  0
 22 23  1  0  0  0  0
 22 57  1  0  0  0  0
 23 31  2  0  0  0  0
 23 58  1  0  0  0  0
 24 82  1  0  0  0  0
 25 83  1  0  0  0  0
 26 28  2  0  0  0  0
 26 82  1  0  0  0  0
 27 84  1  0  0  0  0
 28 85  1  0  0  0  0
 29 66  2  0  0  0  0
 30 59  1  0  0  0  0
 30 67  2  0  0  0  0
 31 50  1  0  0  0  0
 31 67  1  0  0  0  0
 32 68  1  0  0  0  0
 32 71  1  0  0  0  0
 33 72  1  0  0  0  0
 33 77  2  0  0  0  0
 34 48  1  0  0  0  0
 34 73  1  0  0  0  0
 34 78  2  0  0  0  0
 35 63  1  0  0  0  0
 35 69  1  0  0  0  0
 35 79  2  0  0  0  0
 36 64  1  0  0  0  0
 36 74  1  0  0  0  0
 36 80  2  0  0  0  0
 37 70  1  0  0  0  0
 37 75  1  0  0  0  0
 37 81  2  0  0  0  0
 38 41  1  0  0  0  0
 39 48  1  0  0  0  0
 40 69  1  0  0  0  0
 41 43  1  0  0  0  0
 42 44  1  0  0  0  0
 42 45  1  0  0  0  0
 43 47  1  0  0  0  0
 44 49  1  0  0  0  0
 45 70  1  0  0  0  0
 46 49  1  0  0  0  0
 46 70  1  0  0  0  0
 47 73  1  0  0  0  0
 48 69  1  0  0  0  0
 49 68  1  0  0  0  0
 51 58  1  0  0  0  0
 52 64  1  0  0  0  0
 53 65  1  0  0  0  0
 54 65  1  0  0  0  0
 55 65  1  0  0  0  0
 56 76  1  0  0  0  0
 57 60  1  0  0  0  0
 59 61  1  0  0  0  0
 60 62  1  0  0  0  0
 61 75  1  0  0  0  0
 62 83  1  0  0  0  0
 63 65  1  0  0  0  0
 63 74  1  0  0  0  0
 64 76  1  0  0  0  0
 66 68  1  0  0  0  0
M  CHG  1  76   1
M  ISO  4  37 100  62 101  75 100  83 101
M  END
> <Batch ID>
0087

> <Smiles>
CCc1c(CC[101CH2:1][101O:1]c2ccc3c(c2)CN(C(=O)C(NC(=O)C(C)NC)C(C)(C)C)C(C(=O)NC2CCCc4ccccc42)C3)cc(CC[100NH:0][100C:0](=O)N2CCCC(n3nc(-c4ccc(Oc5ccc(F)cc5F)cc4)c(C(N)=O)c3N)C2)nc1C

> <Shape>
0.238

> <Color>
0.071

> <Negative vol penalty>
0.000

$$$$

  -OEChem-04052319013D

 82 90  0     1  0  0  0  0  0999 V2000
  -32.4021  -12.6840   21.1619 C   0  0  0  0  0  0  0  0  0  0  0  0
  -32.0291  -13.8612   21.8025 C   0  0  0  0  0  0  0  0  0  0  0  0
  -28.9877  -25.4951   18.1115 C   0  0  0  0  0  0  0  0  0  0  0  0
  -27.1192  -23.9868   18.3785 C   0  0  0  0  0  0  0  0  0  0  0  0
  -31.5677  -12.1227   20.1962 C   0  0  0  0  0  0  0  0  0  0  0  0
  -30.8219  -14.4785   21.4769 C   0  0  0  0  0  0  0  0  0  0  0  0
  -25.5698  -18.3667   24.4118 C   0  0  0  0  0  0  0  0  0  0  0  0
  -21.6741  -23.4586   24.4252 C   0  0  0  0  0  0  0  0  0  0  0  0
  -29.8695  -24.4177   18.1966 C   0  0  0  0  0  0  0  0  0  0  0  0
  -28.0011  -22.9095   18.4637 C   0  0  0  0  0  0  0  0  0  0  0  0
  -24.8697  -19.5558   24.2126 C   0  0  0  0  0  0  0  0  0  0  0  0
  -29.7756  -19.8045   19.1120 C   0  0  0  0  0  0  0  0  0  0  0  0
  -29.5503  -18.8598   20.1132 C   0  0  0  0  0  0  0  0  0  0  0  0
  -20.8538  -24.5357   24.1087 C   0  0  0  0  0  0  0  0  0  0  0  0
  -23.4716  -18.4528   22.5854 C   0  0  0  0  0  0  0  0  0  0  0  0
  -29.8010  -20.5791   21.7919 C   0  0  0  0  0  0  0  0  0  0  0  0
  -27.6125  -25.2796   18.2025 C   0  0  0  0  0  0  0  0  0  0  0  0
  -26.1102  -26.9176   16.9504 C   0  0  0  0  0  0  0  0  0  0  0  0
  -30.3452  -12.7282   19.8655 C   0  0  0  0  0  0  0  0  0  0  0  0
  -25.2326  -17.2127   23.6902 C   0  0  0  0  0  0  0  0  0  0  0  0
  -29.9710  -13.9255   20.5048 C   0  0  0  0  0  0  0  0  0  0  0  0
  -24.1673  -17.2497   22.7792 C   0  0  0  0  0  0  0  0  0  0  0  0
  -22.6585  -23.0550   23.5300 C   0  0  0  0  0  0  0  0  0  0  0  0
  -29.3763  -23.1249   18.3727 C   0  0  0  0  0  0  0  0  0  0  0  0
  -23.8223  -19.5998   23.2971 C   0  0  0  0  0  0  0  0  0  0  0  0
  -30.0137  -21.1366   19.4508 C   0  0  0  0  0  0  0  0  0  0  0  0
  -29.5630  -19.2471   21.4531 C   0  0  0  0  0  0  0  0  0  0  0  0
  -30.0264  -21.5238   20.7907 C   0  0  0  0  0  0  0  0  0  0  0  0
  -26.7011  -26.3922   18.1151 C   0  0  0  0  0  0  0  0  0  0  0  0
  -21.0569  -25.1706   22.8940 C   0  0  0  0  0  0  0  0  0  0  0  0
  -22.7807  -23.7560   22.3411 C   0  0  0  0  0  0  0  0  0  0  0  0
  -25.3335  -27.9579   17.3988 C   0  0  0  0  0  0  0  0  0  0  0  0
  -26.2507  -26.5025   15.5853 C   0  0  0  0  0  0  0  0  0  0  0  0
  -26.7437  -15.3494   21.6049 C   0  0  0  0  0  0  0  0  0  0  0  0
  -24.0707  -13.5328   21.8829 C   0  0  0  0  0  0  0  0  0  0  0  0
  -20.7509  -13.3624   22.6553 C   0  0  0  0  0  0  0  0  0  0  0  0
  -22.7427  -29.1365   22.6666 C   0  0  0  0  0  0  0  0  0  0  0  0
  -29.4986  -12.1098   18.7812 C   0  0  0  0  0  0  0  0  0  0  0  0
  -25.9802  -15.9309   23.9362 C   0  0  0  0  0  0  0  0  0  0  0  0
  -23.7525  -16.0331   21.9941 C   0  0  0  0  0  0  0  0  0  0  0  0
  -28.0616  -12.6244   18.7625 C   0  0  0  0  0  0  0  0  0  0  0  0
  -25.0696  -31.1876   20.9188 C   0  0  0  0  0  0  0  0  0  0  0  0
  -28.0377  -14.1455   18.8739 C   0  0  0  0  0  0  0  0  0  0  0  0
  -25.6983  -30.2386   19.8970 C   0  0  0  0  0  0  0  0  0  0  0  0
  -24.7792  -30.4811   22.2411 C   0  0  0  0  0  0  0  0  0  0  0  0
  -24.6004  -28.3037   21.1008 C   0  0  0  0  0  0  0  0  0  0  0  0
  -28.6577  -14.6115   20.1968 C   0  0  1  0  0  0  0  0  0  0  0  0
  -25.8847  -14.9504   22.7713 C   0  0  1  0  0  0  0  0  0  0  0  0
  -24.8600  -28.9567   19.7324 C   0  0  2  0  0  0  0  0  0  0  0  0
  -23.2370  -22.5945   20.1665 C   0  0  0  0  0  0  0  0  0  0  0  0
  -18.8308  -11.7495   22.7507 C   0  0  0  0  0  0  0  0  0  0  0  0
  -23.8337  -13.6388   18.8428 C   0  0  0  0  0  0  0  0  0  0  0  0
  -21.4644  -12.8622   19.0700 C   0  0  0  0  0  0  0  0  0  0  0  0
  -23.3329  -11.4056   19.8509 C   0  0  0  0  0  0  0  0  0  0  0  0
  -20.3983  -13.7744   25.5648 C   0  0  0  0  0  0  0  0  0  0  0  0
  -23.5459  -21.8925   23.8654 C   0  0  0  0  0  0  0  0  0  1  0  0
  -20.1957  -26.3315   22.5228 C   0  0  0  0  0  0  0  0  0  0  0  0
  -23.8225  -23.3692   21.3432 C   0  0  0  0  0  0  0  0  0  0  0  0
  -20.7563  -27.6825   22.9817 C   0  0  0  0  0  0  0  0  0  0  0  0
  -22.7385  -13.4757   21.1751 C   0  0  1  0  0  0  0  0  0  0  0  0
  -19.9676  -12.3969   23.5262 C   0  0  2  0  0  0  0  0  0  0  0  0
  -22.8512  -12.8692   19.7479 C   0  0  0  0  0  0  0  0  0  0  0  0
  -26.3315  -27.0449   19.2203 N   0  0  0  0  0  0  0  0  0  0  0  0
  -22.0026  -24.8073   21.9989 N   0  0  0  0  0  0  0  0  0  0  0  0
  -25.5001  -27.9912   18.7521 N   0  0  0  0  0  0  0  0  0  0  0  0
  -24.5182  -14.8053   22.2654 N   0  0  0  0  0  0  0  0  0  0  0  0
  -23.9796  -29.2747   22.0154 N   0  0  0  0  0  0  0  0  0  0  0  0
  -24.5311  -28.8383   16.7636 N   0  0  0  0  0  0  0  0  0  0  0  0
  -27.0884  -25.4155   15.3004 N   0  0  0  0  0  0  0  0  0  0  0  0
  -27.7225  -14.4276   21.2858 N   0  0  0  0  0  0  0  0  0  0  0  0
  -21.8354  -12.7510   22.0627 N   0  0  0  0  0  0  0  0  0  0  0  0
  -22.0460  -27.9660   22.3925 N   0  0  0  0  0  0  0  0  0  0  0  0
  -19.3893  -13.1103   24.7000 N   0  3  0  0  0  0  0  0  0  0  0  0
  -25.6641  -27.0887   14.6442 O   0  0  0  0  0  0  0  0  0  0  0  0
  -26.5331  -16.4139   21.0356 O   0  0  0  0  0  0  0  0  0  0  0  0
  -24.6881  -12.4861   22.0952 O   0  0  0  0  0  0  0  0  0  0  0  0
  -20.4304  -14.5403   22.5119 O   0  0  0  0  0  0  0  0  0  0  0  0
  -22.2902  -29.9953   23.4313 O   0  0  0  0  0  0  0  0  0  0  0  0
  -30.2365  -22.0734   18.4556 O   0  0  0  0  0  0  0  0  0  0  0  0
  -23.1377  -20.7593   23.1002 O   0  0  0  0  0  0  0  0  0  1  0  0
  -29.3451  -18.3401   22.4144 F   0  0  0  0  0  0  0  0  0  0  0  0
  -30.2534  -22.8023   21.1223 F   0  0  0  0  0  0  0  0  0  0  0  0
  1  2  1  0  0  0  0
  1  5  2  0  0  0  0
  2  6  2  0  0  0  0
  3  9  2  0  0  0  0
  3 17  1  0  0  0  0
  4 10  1  0  0  0  0
  4 17  2  0  0  0  0
  5 19  1  0  0  0  0
  6 21  1  0  0  0  0
  7 11  2  0  0  0  0
  7 20  1  0  0  0  0
  8 14  2  0  0  0  0
  8 23  1  0  0  0  0
  9 24  1  0  0  0  0
 10 24  2  0  0  0  0
 11 25  1  0  0  0  0
 12 13  2  0  0  0  0
 12 26  1  0  0  0  0
 13 27  1  0  0  0  0
 14 30  1  0  0  0  0
 15 22  1  0  0  0  0
 15 25  2  0  0  0  0
 16 27  2  0  0  0  0
 16 28  1  0  0  0  0
 17 29  1  0  0  0  0
 18 29  1  0  0  0  0
 18 32  2  0  0  0  0
 18 33  1  0  0  0  0
 19 21  2  0  0  0  0
 19 38  1  0  0  0  0
 20 22  2  0  0  0  0
 20 39  1  0  0  0  0
 21 47  1  0  0  0  0
 22 40  1  0  0  0  0
 23 31  2  0  0  0  0
 23 56  1  0  0  0  0
 24 79  1  0  0  0  0
 25 80  1  0  0  0  0
 26 28  2  0  0  0  0
 26 79  1  0  0  0  0
 27 81  1  0  0  0  0
 28 82  1  0  0  0  0
 29 63  2  0  0  0  0
 30 57  1  0  0  0  0
 30 64  2  0  0  0  0
 31 58  1  0  0  0  0
 31 64  1  0  0  0  0
 32 65  1  0  0  0  0
 32 68  1  0  0  0  0
 33 69  1  0  0  0  0
 33 74  2  0  0  0  0
 34 48  1  0  0  0  0
 34 70  1  0  0  0  0
 34 75  2  0  0  0  0
 35 60  1  0  0  0  0
 35 66  1  0  0  0  0
 35 76  2  0  0  0  0
 36 61  1  0  0  0  0
 36 71  1  0  0  0  0
 36 77  2  0  0  0  0
 37 67  1  0  0  0  0
 37 72  1  0  0  0  0
 37 78  2  0  0  0  0
 38 41  1  0  0  0  0
 39 48  1  0  0  0  0
 40 66  1  0  0  0  0
 41 43  1  0  0  0  0
 42 44  1  0  0  0  0
 42 45  1  0  0  0  0
 43 47  1  0  0  0  0
 44 49  1  0  0  0  0
 45 67  1  0  0  0  0
 46 49  1  0  0  0  0
 46 67  1  0  0  0  0
 47 70  1  0  0  0  0
 48 66  1  0  0  0  0
 49 65  1  0  0  0  0
 50 58  1  0  0  0  0
 51 61  1  0  0  0  0
 52 62  1  0  0  0  0
 53 62  1  0  0  0  0
 54 62  1  0  0  0  0
 55 73  1  0  0  0  0
 56 80  1  0  0  0  0
 57 59  1  0  0  0  0
 59 72  1  0  0  0  0
 60 62  1  0  0  0  0
 60 71  1  0  0  0  0
 61 73  1  0  0  0  0
 63 65  1  0  0  0  0
M  CHG  1  73   1
M  ISO  4  37 100  56 101  72 100  80 101
M  END
> <Batch ID>
0087

> <Smiles>
CCc1nc(CC[100NH:0][100C:0](=O)N2CCCC(n3nc(-c4ccc(Oc5ccc(F)cc5F)cc4)c(C(N)=O)c3N)C2)ccc1[101CH2:1][101O:1]c1ccc2c(c1)CN(C(=O)C(NC(=O)C(C)NC)C(C)(C)C)C(C(=O)NC1CCCc3ccccc31)C2

> <Shape>
0.224

> <Color>
0.053

> <Negative vol penalty>
0.000

$$$$

  -OEChem-04052319013D

 88 96  0     1  0  0  0  0  0999 V2000
  -19.9667  -10.5621   20.0355 C   0  0  0  0  0  0  0  0  0  0  0  0
  -20.0902  -11.8833   20.4532 C   0  0  0  0  0  0  0  0  0  0  0  0
  -27.9389  -24.9964   18.6549 C   0  0  0  0  0  0  0  0  0  0  0  0
  -25.7319  -24.0177   18.7473 C   0  0  0  0  0  0  0  0  0  0  0  0
  -21.0577   -9.6987   20.1259 C   0  0  0  0  0  0  0  0  0  0  0  0
  -21.3046  -12.3416   20.9628 C   0  0  0  0  0  0  0  0  0  0  0  0
  -23.6950  -17.9414   20.3038 C   0  0  0  0  0  0  0  0  0  0  0  0
  -28.5062  -23.7326   18.8178 C   0  0  0  0  0  0  0  0  0  0  0  0
  -26.2992  -22.7538   18.9101 C   0  0  0  0  0  0  0  0  0  0  0  0
  -23.7122  -19.0581   21.1384 C   0  0  0  0  0  0  0  0  0  0  0  0
  -30.5304  -20.8067   19.5699 C   0  0  0  0  0  0  0  0  0  0  0  0
  -31.5816  -20.6781   20.4776 C   0  0  0  0  0  0  0  0  0  0  0  0
  -25.8959  -18.4183   21.9393 C   0  0  0  0  0  0  0  0  0  0  0  0
  -30.1368  -21.4387   22.2584 C   0  0  0  0  0  0  0  0  0  0  0  0
  -21.3510  -26.1796   23.4880 C   0  0  0  0  0  0  0  0  0  0  0  0
  -26.5518  -25.1389   18.6197 C   0  0  0  0  0  0  0  0  0  0  0  0
  -25.6333  -27.0778   17.2396 C   0  0  0  0  0  0  0  0  0  0  0  0
  -22.2889  -10.1492   20.6278 C   0  0  0  0  0  0  0  0  0  0  0  0
  -24.7752  -17.0473   20.2887 C   0  0  0  0  0  0  0  0  0  0  0  0
  -22.4127  -11.4830   21.0613 C   0  0  0  0  0  0  0  0  0  0  0  0
  -25.8910  -17.2924   21.1018 C   0  0  0  0  0  0  0  0  0  0  0  0
  -20.3171  -27.0153   23.8486 C   0  0  0  0  0  0  0  0  0  0  0  0
  -20.1371  -26.8861   25.2479 C   0  0  0  0  0  0  0  0  0  0  0  0
  -27.6864  -22.6113   18.9453 C   0  0  0  0  0  0  0  0  0  0  0  0
  -24.8115  -19.2951   21.9584 C   0  0  0  0  0  0  0  0  0  0  0  0
  -29.2824  -21.2514   20.0063 C   0  0  0  0  0  0  0  0  0  0  0  0
  -31.3848  -20.9940   21.8219 C   0  0  0  0  0  0  0  0  0  0  0  0
  -29.0856  -21.5673   21.3506 C   0  0  0  0  0  0  0  0  0  0  0  0
  -25.9651  -26.4443   18.4521 C   0  0  0  0  0  0  0  0  0  0  0  0
  -21.0666  -25.9755   25.6999 C   0  0  0  0  0  0  0  0  0  0  0  0
  -25.1104  -28.2903   17.6175 C   0  0  0  0  0  0  0  0  0  0  0  0
  -25.7840  -26.6118   15.8920 C   0  0  0  0  0  0  0  0  0  0  0  0
  -25.1472  -13.9668   20.9783 C   0  0  0  0  0  0  0  0  0  0  0  0
  -28.1384  -14.4713   19.8292 C   0  0  0  0  0  0  0  0  0  0  0  0
  -30.6589  -16.6789   19.1812 C   0  0  0  0  0  0  0  0  0  0  0  0
  -22.4484  -30.1987   22.6298 C   0  0  0  0  0  0  0  0  0  0  0  0
  -23.4263   -9.1663   20.7505 C   0  0  0  0  0  0  0  0  0  0  0  0
  -24.7528  -15.8619   19.3631 C   0  0  0  0  0  0  0  0  0  0  0  0
  -27.0848  -16.3741   21.1078 C   0  0  0  0  0  0  0  0  0  0  0  0
  -24.7858   -9.8303   20.9531 C   0  0  0  0  0  0  0  0  0  0  0  0
  -25.3665  -31.5548   21.1059 C   0  0  0  0  0  0  0  0  0  0  0  0
  -24.6952  -10.9180   22.0187 C   0  0  0  0  0  0  0  0  0  0  0  0
  -25.8209  -30.4560   20.1435 C   0  0  0  0  0  0  0  0  0  0  0  0
  -24.7897  -30.9732   22.3947 C   0  0  0  0  0  0  0  0  0  0  0  0
  -24.1641  -28.8888   21.2380 C   0  0  0  0  0  0  0  0  0  0  0  0
  -23.7207  -12.0241   21.5965 C   0  0  1  0  0  0  0  0  0  0  0  0
  -25.6854  -14.7393   19.8073 C   0  0  1  0  0  0  0  0  0  0  0  0
  -24.7018  -29.4255   19.9004 C   0  0  2  0  0  0  0  0  0  0  0  0
  -20.7607  -24.0641   27.2935 C   0  0  0  0  0  0  0  0  0  0  0  0
  -19.7782  -28.5114   27.1409 C   0  0  0  0  0  0  0  0  0  0  0  0
  -18.1324  -26.6409   26.7563 C   0  0  0  0  0  0  0  0  0  0  0  0
  -32.8598  -17.5089   18.3067 C   0  0  0  0  0  0  0  0  0  0  0  0
  -19.3062  -30.1495   21.8000 C   0  0  0  0  0  0  0  0  0  0  0  0
  -29.2029  -13.3070   22.4409 C   0  0  0  0  0  0  0  0  0  0  0  0
  -31.4348  -14.3001   21.8928 C   0  0  0  0  0  0  0  0  0  0  0  0
  -30.4371  -12.5748   20.3926 C   0  0  0  0  0  0  0  0  0  0  0  0
  -29.4990  -17.3153   16.5338 C   0  0  0  0  0  0  0  0  0  0  0  0
  -19.5453  -27.8815   22.9354 C   0  0  0  0  0  0  0  0  0  0  0  0
  -21.3218  -25.4709   27.0657 C   0  0  0  0  0  0  0  0  0  0  0  0
  -22.7211  -23.3534   23.7244 C   0  0  0  0  0  0  0  0  0  0  0  0
  -23.9173  -22.4005   23.7014 C   0  0  0  0  0  0  0  0  0  0  0  0
  -22.9275  -24.5530   24.6561 C   0  0  0  0  0  0  0  0  0  0  0  0
  -23.6907  -21.2417   22.7398 C   0  0  0  0  0  0  0  0  0  1  0  0
  -19.1376  -27.5958   26.0727 C   0  0  0  0  0  0  0  0  0  0  0  0
  -29.4548  -14.9042   20.4280 C   0  0  1  0  0  0  0  0  0  0  0  0
  -31.5155  -16.8958   17.9468 C   0  0  2  0  0  0  0  0  0  0  0  0
  -20.1374  -29.3034   22.7592 C   0  0  1  0  0  0  0  0  0  0  0  0
  -30.1092  -13.7880   21.2901 C   0  0  0  0  0  0  0  0  0  0  0  0
  -25.6774  -27.1926   19.5205 N   0  0  0  0  0  0  0  0  0  0  0  0
  -21.7991  -25.5529   24.6215 N   0  0  0  0  0  0  0  0  0  0  0  0
  -25.1594  -28.3088   18.9804 N   0  0  0  0  0  0  0  0  0  0  0  0
  -27.0126  -15.2252   20.1900 N   0  0  0  0  0  0  0  0  0  0  0  0
  -23.7324  -30.0047   22.0944 N   0  0  0  0  0  0  0  0  0  0  0  0
  -24.6183  -29.3319   16.9137 N   0  0  0  0  0  0  0  0  0  0  0  0
  -26.3391  -25.3421   15.6823 N   0  0  0  0  0  0  0  0  0  0  0  0
  -24.3410  -12.9010   20.6266 N   0  0  0  0  0  0  0  0  0  0  0  0
  -30.2796  -15.3600   19.3144 N   0  0  0  0  0  0  0  0  0  0  0  0
  -21.5038  -29.2378   22.2907 N   0  0  0  0  0  0  0  0  0  0  0  0
  -30.8247  -17.8063   16.9904 N   0  3  0  0  0  0  0  0  0  0  0  0
  -25.4519  -27.3077   14.9026 O   0  0  0  0  0  0  0  0  0  0  0  0
  -25.4427  -14.3112   22.1166 O   0  0  0  0  0  0  0  0  0  0  0  0
  -28.1110  -13.5044   19.0636 O   0  0  0  0  0  0  0  0  0  0  0  0
  -30.3596  -17.5879   19.9523 O   0  0  0  0  0  0  0  0  0  0  0  0
  -22.1635  -31.1602   23.3519 O   0  0  0  0  0  0  0  0  0  0  0  0
  -28.2396  -21.3778   19.1040 O   0  0  0  0  0  0  0  0  0  0  0  0
  -24.8307  -20.3839   22.7745 O   0  0  0  0  0  0  0  0  0  1  0  0
  -32.3939  -20.8690   22.6938 F   0  0  0  0  0  0  0  0  0  0  0  0
  -27.8886  -21.9939   21.7761 F   0  0  0  0  0  0  0  0  0  0  0  0
  1  2  1  0  0  0  0
  1  5  2  0  0  0  0
  2  6  2  0  0  0  0
  3  8  2  0  0  0  0
  3 16  1  0  0  0  0
  4  9  1  0  0  0  0
  4 16  2  0  0  0  0
  5 18  1  0  0  0  0
  6 20  1  0  0  0  0
  7 10  2  0  0  0  0
  7 19  1  0  0  0  0
  8 24  1  0  0  0  0
  9 24  2  0  0  0  0
 10 25  1  0  0  0  0
 11 12  2  0  0  0  0
 11 26  1  0  0  0  0
 12 27  1  0  0  0  0
 13 21  1  0  0  0  0
 13 25  2  0  0  0  0
 14 27  2  0  0  0  0
 14 28  1  0  0  0  0
 15 22  2  0  0  0  0
 15 70  1  0  0  0  0
 16 29  1  0  0  0  0
 17 29  1  0  0  0  0
 17 31  2  0  0  0  0
 17 32  1  0  0  0  0
 18 20  2  0  0  0  0
 18 37  1  0  0  0  0
 19 21  2  0  0  0  0
 19 38  1  0  0  0  0
 20 46  1  0  0  0  0
 21 39  1  0  0  0  0
 22 23  1  0  0  0  0
 22 58  1  0  0  0  0
 23 30  2  0  0  0  0
 23 64  1  0  0  0  0
 24 85  1  0  0  0  0
 25 86  1  0  0  0  0
 26 28  2  0  0  0  0
 26 85  1  0  0  0  0
 27 87  1  0  0  0  0
 28 88  1  0  0  0  0
 29 69  2  0  0  0  0
 30 59  1  0  0  0  0
 30 70  1  0  0  0  0
 31 71  1  0  0  0  0
 31 74  1  0  0  0  0
 32 75  1  0  0  0  0
 32 80  2  0  0  0  0
 33 47  1  0  0  0  0
 33 76  1  0  0  0  0
 33 81  2  0  0  0  0
 34 65  1  0  0  0  0
 34 72  1  0  0  0  0
 34 82  2  0  0  0  0
 35 66  1  0  0  0  0
 35 77  1  0  0  0  0
 35 83  2  0  0  0  0
 36 73  1  0  0  0  0
 36 78  1  0  0  0  0
 36 84  2  0  0  0  0
 37 40  1  0  0  0  0
 38 47  1  0  0  0  0
 39 72  1  0  0  0  0
 40 42  1  0  0  0  0
 41 43  1  0  0  0  0
 41 44  1  0  0  0  0
 42 46  1  0  0  0  0
 43 48  1  0  0  0  0
 44 73  1  0  0  0  0
 45 48  1  0  0  0  0
 45 73  1  0  0  0  0
 46 76  1  0  0  0  0
 47 72  1  0  0  0  0
 48 71  1  0  0  0  0
 49 59  1  0  0  0  0
 50 64  1  0  0  0  0
 51 64  1  0  0  0  0
 52 66  1  0  0  0  0
 53 67  1  0  0  0  0
 54 68  1  0  0  0  0
 55 68  1  0  0  0  0
 56 68  1  0  0  0  0
 57 79  1  0  0  0  0
 58 67  1  0  0  0  0
 60 61  1  0  0  0  0
 60 62  1  0  0  0  0
 61 63  1  0  0  0  0
 62 70  1  0  0  0  0
 63 86  1  0  0  0  0
 65 68  1  0  0  0  0
 65 77  1  0  0  0  0
 66 79  1  0  0  0  0
 67 78  1  0  0  0  0
 69 71  1  0  0  0  0
M  CHG  1  79   1
M  ISO  4  36 100  63 101  78 100  86 101
M  END
> <Batch ID>
0087

> <Smiles>
CCc1c(C(C)C)c(CC(C)[100NH:0][100C:0](=O)N2CCCC(n3nc(-c4ccc(Oc5ccc(F)cc5F)cc4)c(C(N)=O)c3N)C2)cn1CCC[101CH2:1][101O:1]c1ccc2c(c1)CN(C(=O)C(NC(=O)C(C)NC)C(C)(C)C)C(C(=O)NC1CCCc3ccccc31)C2

> <Shape>
0.233

> <Color>
0.062

> <Negative vol penalty>
0.000

$$$$

  -OEChem-04052319013D

 81 89  0     1  0  0  0  0  0999 V2000
  -29.8019  -12.6483   20.2712 C   0  0  0  0  0  0  0  0  0  0  0  0
  -29.7293  -14.0285   20.4296 C   0  0  0  0  0  0  0  0  0  0  0  0
  -28.9924  -25.7454   21.0748 C   0  0  0  0  0  0  0  0  0  0  0  0
  -27.0373  -24.5647   20.2872 C   0  0  0  0  0  0  0  0  0  0  0  0
  -28.8025  -11.9747   19.5702 C   0  0  0  0  0  0  0  0  0  0  0  0
  -28.6576  -14.7361   19.8862 C   0  0  0  0  0  0  0  0  0  0  0  0
  -24.5545  -20.4758   21.1260 C   0  0  0  0  0  0  0  0  0  0  0  0
  -29.6071  -24.5291   21.3723 C   0  0  0  0  0  0  0  0  0  0  0  0
  -27.6520  -23.3484   20.5845 C   0  0  0  0  0  0  0  0  0  0  0  0
  -24.1058  -21.6355   20.4955 C   0  0  0  0  0  0  0  0  0  0  0  0
  -28.8475  -19.9217   20.8007 C   0  0  0  0  0  0  0  0  0  0  0  0
  -28.7654  -18.9034   19.8511 C   0  0  0  0  0  0  0  0  0  0  0  0
  -22.3965  -20.3563   19.3724 C   0  0  0  0  0  0  0  0  0  0  0  0
  -29.8982  -20.3092   18.2456 C   0  0  0  0  0  0  0  0  0  0  0  0
  -19.5576  -27.6680   19.9658 C   0  0  0  0  0  0  0  0  0  0  0  0
  -27.7075  -25.7632   20.5323 C   0  0  0  0  0  0  0  0  0  0  0  0
  -27.1326  -27.7284   19.0109 C   0  0  0  0  0  0  0  0  0  0  0  0
  -27.7131  -12.6732   19.0262 C   0  0  0  0  0  0  0  0  0  0  0  0
  -23.9334  -19.2437   20.8757 C   0  0  0  0  0  0  0  0  0  0  0  0
  -27.6434  -14.0714   19.1762 C   0  0  0  0  0  0  0  0  0  0  0  0
  -22.8376  -19.1829   20.0029 C   0  0  0  0  0  0  0  0  0  0  0  0
  -28.9369  -23.3306   21.1271 C   0  0  0  0  0  0  0  0  0  0  0  0
  -23.0285  -21.5754   19.6163 C   0  0  0  0  0  0  0  0  0  0  0  0
  -29.4550  -21.1339   20.4728 C   0  0  0  0  0  0  0  0  0  0  0  0
  -29.2907  -19.0971   18.5735 C   0  0  0  0  0  0  0  0  0  0  0  0
  -29.9803  -21.3276   19.1953 C   0  0  0  0  0  0  0  0  0  0  0  0
  -27.0718  -27.0193   20.2254 C   0  0  0  0  0  0  0  0  0  0  0  0
  -19.3194  -27.8474   21.3053 C   0  0  0  0  0  0  0  0  0  0  0  0
  -26.3677  -28.8483   19.2284 C   0  0  0  0  0  0  0  0  0  0  0  0
  -27.8191  -27.4039   17.7947 C   0  0  0  0  0  0  0  0  0  0  0  0
  -24.8707  -16.4695   19.6390 C   0  0  0  0  0  0  0  0  0  0  0  0
  -21.9038  -15.5124   20.5355 C   0  0  0  0  0  0  0  0  0  0  0  0
  -18.6848  -16.3680   21.2789 C   0  0  0  0  0  0  0  0  0  0  0  0
  -21.8531  -30.0370   22.9776 C   0  0  0  0  0  0  0  0  0  0  0  0
  -26.6815  -11.9077   18.2360 C   0  0  0  0  0  0  0  0  0  0  0  0
  -24.4124  -18.0064   21.5843 C   0  0  0  0  0  0  0  0  0  0  0  0
  -22.1234  -17.8883   19.7157 C   0  0  0  0  0  0  0  0  0  0  0  0
  -25.3859  -12.6837   18.0131 C   0  0  0  0  0  0  0  0  0  0  0  0
  -24.9426  -31.7884   22.7235 C   0  0  0  0  0  0  0  0  0  0  0  0
  -25.6882  -14.1076   17.5570 C   0  0  0  0  0  0  0  0  0  0  0  0
  -25.8441  -30.8287   21.9449 C   0  0  0  0  0  0  0  0  0  0  0  0
  -24.0086  -31.0406   23.6725 C   0  0  0  0  0  0  0  0  0  0  0  0
  -24.1011  -29.0228   22.2605 C   0  0  0  0  0  0  0  0  0  0  0  0
  -26.4839  -14.8710   18.6226 C   0  0  1  0  0  0  0  0  0  0  0  0
  -24.0320  -16.7184   20.8607 C   0  0  1  0  0  0  0  0  0  0  0  0
  -25.0220  -29.7270   21.2494 C   0  0  2  0  0  0  0  0  0  0  0  0
  -16.4819  -15.3637   21.9392 C   0  0  0  0  0  0  0  0  0  0  0  0
  -21.4797  -14.5629   17.6669 C   0  0  0  0  0  0  0  0  0  0  0  0
  -19.0226  -14.4630   18.1371 C   0  0  0  0  0  0  0  0  0  0  0  0
  -20.5961  -13.0136   19.4200 C   0  0  0  0  0  0  0  0  0  0  0  0
  -18.6328  -17.8695   23.8287 C   0  0  0  0  0  0  0  0  0  0  0  0
  -19.7784  -28.9262   22.1897 C   0  0  0  0  0  0  0  0  0  0  0  0
  -19.2701  -24.3646   18.3642 C   0  0  0  0  0  0  0  0  0  0  0  0
  -20.7576  -24.2262   18.6921 C   0  0  0  0  0  0  0  0  0  0  0  0
  -18.7941  -25.8216   18.3402 C   0  0  0  0  0  0  0  0  0  0  0  0
  -21.2014  -22.7696   18.6723 C   0  0  0  0  0  0  0  0  0  1  0  0
  -20.5424  -15.4984   19.8833 C   0  0  1  0  0  0  0  0  0  0  0  0
  -17.7807  -15.9800   22.4350 C   0  0  2  0  0  0  0  0  0  0  0  0
  -20.4247  -14.4087   18.7806 C   0  0  0  0  0  0  0  0  0  0  0  0
  -26.3272  -27.6369   21.1464 N   0  0  0  0  0  0  0  0  0  0  0  0
  -18.5371  -26.8283   21.7733 N   0  0  0  0  0  0  0  0  0  0  0  0
  -18.2794  -26.0119   20.7574 N   0  0  0  0  0  0  0  0  0  0  0  0
  -18.8923  -26.5170   19.6746 N   0  0  0  0  0  0  0  0  0  0  0  0
  -25.9131  -28.7459   20.5103 N   0  0  0  0  0  0  0  0  0  0  0  0
  -22.6331  -16.7050   20.4281 N   0  0  0  0  0  0  0  0  0  0  0  0
  -23.2572  -30.0112   22.9503 N   0  0  0  0  0  0  0  0  0  0  0  0
  -26.0463  -29.9007   18.4464 N   0  0  0  0  0  0  0  0  0  0  0  0
  -28.5592  -26.2149   17.7421 N   0  0  0  0  0  0  0  0  0  0  0  0
  -25.6103  -15.3035   19.6923 N   0  0  0  0  0  0  0  0  0  0  0  0
  -19.5730  -15.3611   20.9649 N   0  0  0  0  0  0  0  0  0  0  0  0
  -21.2189  -29.0290   22.2618 N   0  0  0  0  0  0  0  0  0  0  0  0
  -17.4488  -17.1776   23.2575 N   0  3  0  0  0  0  0  0  0  0  0  0
  -27.7908  -28.1544   16.7900 O   0  0  0  0  0  0  0  0  0  0  0  0
  -24.8473  -17.2750   18.7158 O   0  0  0  0  0  0  0  0  0  0  0  0
  -22.3024  -14.5047   21.1248 O   0  0  0  0  0  0  0  0  0  0  0  0
  -18.6080  -17.4540   20.7087 O   0  0  0  0  0  0  0  0  0  0  0  0
  -21.2121  -30.8980   23.5898 O   0  0  0  0  0  0  0  0  0  0  0  0
  -29.5365  -22.1436   21.4170 O   0  0  0  0  0  0  0  0  0  0  0  0
  -22.5890  -22.7058   18.9991 O   0  0  0  0  0  0  0  0  0  1  0  0
  -29.2131  -18.1186   17.6622 F   0  0  0  0  0  0  0  0  0  0  0  0
  -30.5661  -22.4894   18.8747 F   0  0  0  0  0  0  0  0  0  0  0  0
  1  2  1  0  0  0  0
  1  5  2  0  0  0  0
  2  6  2  0  0  0  0
  3  8  2  0  0  0  0
  3 16  1  0  0  0  0
  4  9  1  0  0  0  0
  4 16  2  0  0  0  0
  5 18  1  0  0  0  0
  6 20  1  0  0  0  0
  7 10  2  0  0  0  0
  7 19  1  0  0  0  0
  8 22  1  0  0  0  0
  9 22  2  0  0  0  0
 10 23  1  0  0  0  0
 11 12  2  0  0  0  0
 11 24  1  0  0  0  0
 12 25  1  0  0  0  0
 13 21  1  0  0  0  0
 13 23  2  0  0  0  0
 14 25  2  0  0  0  0
 14 26  1  0  0  0  0
 15 28  2  0  0  0  0
 15 63  1  0  0  0  0
 16 27  1  0  0  0  0
 17 27  1  0  0  0  0
 17 29  2  0  0  0  0
 17 30  1  0  0  0  0
 18 20  2  0  0  0  0
 18 35  1  0  0  0  0
 19 21  2  0  0  0  0
 19 36  1  0  0  0  0
 20 44  1  0  0  0  0
 21 37  1  0  0  0  0
 22 78  1  0  0  0  0
 23 79  1  0  0  0  0
 24 26  2  0  0  0  0
 24 78  1  0  0  0  0
 25 80  1  0  0  0  0
 26 81  1  0  0  0  0
 27 60  2  0  0  0  0
 28 52  1  0  0  0  0
 28 61  1  0  0  0  0
 29 64  1  0  0  0  0
 29 67  1  0  0  0  0
 30 68  1  0  0  0  0
 30 73  2  0  0  0  0
 31 45  1  0  0  0  0
 31 69  1  0  0  0  0
 31 74  2  0  0  0  0
 32 57  1  0  0  0  0
 32 65  1  0  0  0  0
 32 75  2  0  0  0  0
 33 58  1  0  0  0  0
 33 70  1  0  0  0  0
 33 76  2  0  0  0  0
 34 66  1  0  0  0  0
 34 71  1  0  0  0  0
 34 77  2  0  0  0  0
 35 38  1  0  0  0  0
 36 45  1  0  0  0  0
 37 65  1  0  0  0  0
 38 40  1  0  0  0  0
 39 41  1  0  0  0  0
 39 42  1  0  0  0  0
 40 44  1  0  0  0  0
 41 46  1  0  0  0  0
 42 66  1  0  0  0  0
 43 46  1  0  0  0  0
 43 66  1  0  0  0  0
 44 69  1  0  0  0  0
 45 65  1  0  0  0  0
 46 64  1  0  0  0  0
 47 58  1  0  0  0  0
 48 59  1  0  0  0  0
 49 59  1  0  0  0  0
 50 59  1  0  0  0  0
 51 72  1  0  0  0  0
 52 71  1  0  0  0  0
 53 54  1  0  0  0  0
 53 55  1  0  0  0  0
 54 56  1  0  0  0  0
 55 63  1  0  0  0  0
 56 79  1  0  0  0  0
 57 59  1  0  0  0  0
 57 70  1  0  0  0  0
 58 72  1  0  0  0  0
 60 64  1  0  0  0  0
 61 62  2  0  0  0  0
 62 63  1  0  0  0  0
M  CHG  1  72   1
M  ISO  4  34 100  56 101  71 100  79 101
M  END
> <Batch ID>
0087

> <Smiles>
CNC(C)C(=O)NC(C(=O)N1Cc2cc([101O:1][101CH2:1]CCCn3cc(C[100NH:0][100C:0](=O)N4CCCC(n5nc(-c6ccc(Oc7ccc(F)cc7F)cc6)c(C(N)=O)c5N)C4)nn3)ccc2CC1C(=O)NC1CCCc2ccccc21)C(C)(C)C

> <Shape>
0.212

> <Color>
0.070

> <Negative vol penalty>
0.000

$$$$

  -OEChem-04052319013D

 85 93  0     1  0  0  0  0  0999 V2000
  -30.1936  -12.3950   20.4245 C   0  0  0  0  0  0  0  0  0  0  0  0
  -30.0580  -13.7099   20.8584 C   0  0  0  0  0  0  0  0  0  0  0  0
  -21.2951  -29.1507   20.1149 C   0  0  0  0  0  0  0  0  0  0  0  0
  -21.9515  -27.4780   21.7298 C   0  0  0  0  0  0  0  0  0  0  0  0
  -29.2636  -11.8558   19.5366 C   0  0  0  0  0  0  0  0  0  0  0  0
  -28.9930  -14.4866   20.4037 C   0  0  0  0  0  0  0  0  0  0  0  0
  -25.9606  -18.7784   23.5487 C   0  0  0  0  0  0  0  0  0  0  0  0
  -25.4351  -24.3662   20.2064 C   0  0  0  0  0  0  0  0  0  0  0  0
  -20.0272  -28.5750   20.0338 C   0  0  0  0  0  0  0  0  0  0  0  0
  -20.6836  -26.9022   21.6488 C   0  0  0  0  0  0  0  0  0  0  0  0
  -26.0630  -20.1686   23.5769 C   0  0  0  0  0  0  0  0  0  0  0  0
  -19.0062  -24.8569   19.5431 C   0  0  0  0  0  0  0  0  0  0  0  0
  -18.9306  -23.4679   19.4399 C   0  0  0  0  0  0  0  0  0  0  0  0
  -25.3032  -24.2027   18.8319 C   0  0  0  0  0  0  0  0  0  0  0  0
  -24.2637  -20.3275   21.9779 C   0  0  0  0  0  0  0  0  0  0  0  0
  -17.6604  -23.3845   21.4934 C   0  0  0  0  0  0  0  0  0  0  0  0
  -22.2572  -28.6022   20.9629 C   0  0  0  0  0  0  0  0  0  0  0  0
  -23.9858  -30.2110   21.9280 C   0  0  0  0  0  0  0  0  0  0  0  0
  -28.1812  -12.6233   19.0783 C   0  0  0  0  0  0  0  0  0  0  0  0
  -25.0147  -18.1510   22.7253 C   0  0  0  0  0  0  0  0  0  0  0  0
  -28.0484  -13.9576   19.5078 C   0  0  0  0  0  0  0  0  0  0  0  0
  -24.1496  -18.9293   21.9430 C   0  0  0  0  0  0  0  0  0  0  0  0
  -26.6181  -23.9935   20.8348 C   0  0  0  0  0  0  0  0  0  0  0  0
  -19.7214  -27.4507   20.8008 C   0  0  0  0  0  0  0  0  0  0  0  0
  -25.2164  -20.9432   22.7893 C   0  0  0  0  0  0  0  0  0  0  0  0
  -18.4090  -25.5097   20.6215 C   0  0  0  0  0  0  0  0  0  0  0  0
  -18.2577  -22.7317   20.4150 C   0  0  0  0  0  0  0  0  0  0  0  0
  -17.7361  -24.7735   21.5966 C   0  0  0  0  0  0  0  0  0  0  0  0
  -23.5673  -29.1962   21.0466 C   0  0  0  0  0  0  0  0  0  0  0  0
  -26.3750  -23.6662   18.1368 C   0  0  0  0  0  0  0  0  0  0  0  0
  -27.6310  -23.4662   20.0501 C   0  0  0  0  0  0  0  0  0  0  0  0
  -25.3054  -30.4200   21.6093 C   0  0  0  0  0  0  0  0  0  0  0  0
  -23.2477  -30.9030   22.9440 C   0  0  0  0  0  0  0  0  0  0  0  0
  -25.1620  -16.1339   20.2731 C   0  0  0  0  0  0  0  0  0  0  0  0
  -21.9344  -16.1175   20.5959 C   0  0  0  0  0  0  0  0  0  0  0  0
  -19.1234  -17.7181   21.6837 C   0  0  0  0  0  0  0  0  0  0  0  0
  -29.4891  -26.9564   19.0892 C   0  0  0  0  0  0  0  0  0  0  0  0
  -27.2279  -12.0120   18.0823 C   0  0  0  0  0  0  0  0  0  0  0  0
  -24.8990  -16.6513   22.7264 C   0  0  0  0  0  0  0  0  0  0  0  0
  -23.1036  -18.3051   21.0573 C   0  0  0  0  0  0  0  0  0  0  0  0
  -25.9182  -12.7831   17.9401 C   0  0  0  0  0  0  0  0  0  0  0  0
  -28.3622  -30.1322   17.9399 C   0  0  0  0  0  0  0  0  0  0  0  0
  -26.1907  -14.2781   17.8073 C   0  0  0  0  0  0  0  0  0  0  0  0
  -27.0433  -30.3440   18.6854 C   0  0  0  0  0  0  0  0  0  0  0  0
  -28.5645  -28.6682   17.5558 C   0  0  0  0  0  0  0  0  0  0  0  0
  -27.1334  -27.9250   19.4196 C   0  0  0  0  0  0  0  0  0  0  0  0
  -26.8927  -14.8241   19.0565 C   0  0  1  0  0  0  0  0  0  0  0  0
  -24.2448  -16.1015   21.4627 C   0  0  1  0  0  0  0  0  0  0  0  0
  -26.9111  -29.3768   19.8771 C   0  0  2  0  0  0  0  0  0  0  0  0
  -26.2684  -23.4785   16.6601 C   0  0  0  0  0  0  0  0  0  0  0  0
  -29.1157  -21.5225   20.5332 C   0  0  0  0  0  0  0  0  0  0  0  0
  -16.6274  -17.4738   21.7735 C   0  0  0  0  0  0  0  0  0  0  0  0
  -31.4941  -23.0890   20.3189 C   0  0  0  0  0  0  0  0  0  0  0  0
  -21.7599  -16.8363   17.6356 C   0  0  0  0  0  0  0  0  0  0  0  0
  -19.3751  -17.5008   18.0090 C   0  0  0  0  0  0  0  0  0  0  0  0
  -20.0863  -15.1416   18.3981 C   0  0  0  0  0  0  0  0  0  0  0  0
  -19.1083  -17.7721   24.6427 C   0  0  0  0  0  0  0  0  0  0  0  0
  -26.7668  -24.1673   22.3268 C   0  0  0  0  0  0  0  0  0  0  0  0
  -30.2810  -25.2585   20.7168 C   0  0  0  0  0  0  0  0  0  0  0  0
  -26.6025  -22.8534   23.0829 C   0  0  0  0  0  0  0  0  0  1  0  0
  -28.9248  -23.0514   20.6703 C   0  0  1  0  0  0  0  0  0  0  0  0
  -20.7992  -16.9362   20.0300 C   0  0  1  0  0  0  0  0  0  0  0  0
  -17.9405  -17.2323   22.5018 C   0  0  2  0  0  0  0  0  0  0  0  0
  -30.1690  -23.8402   20.1190 C   0  0  2  0  0  0  0  0  0  0  0  0
  -20.5260  -16.6157   18.5333 C   0  0  0  0  0  0  0  0  0  0  0  0
  -24.5420  -28.7888   20.2293 N   0  0  0  0  0  0  0  0  0  0  0  0
  -27.5397  -23.2924   18.7125 N   0  0  0  0  0  0  0  0  0  0  0  0
  -25.5860  -29.5516   20.5957 N   0  0  0  0  0  0  0  0  0  0  0  0
  -23.0339  -16.8348   21.0882 N   0  0  0  0  0  0  0  0  0  0  0  0
  -28.4279  -27.8040   18.7307 N   0  0  0  0  0  0  0  0  0  0  0  0
  -26.2414  -31.2599   22.1000 N   0  0  0  0  0  0  0  0  0  0  0  0
  -21.9018  -30.5646   23.1395 N   0  0  0  0  0  0  0  0  0  0  0  0
  -25.9423  -15.0020   20.1333 N   0  0  0  0  0  0  0  0  0  0  0  0
  -19.6560  -16.7104   20.9077 N   0  0  0  0  0  0  0  0  0  0  0  0
  -29.2798  -26.1754   20.2192 N   0  0  0  0  0  0  0  0  0  0  0  0
  -17.8894  -17.9428   23.8108 N   0  3  0  0  0  0  0  0  0  0  0  0
  -23.7620  -31.8063   23.6462 O   0  0  0  0  0  0  0  0  0  0  0  0
  -25.1609  -17.1127   19.5357 O   0  0  0  0  0  0  0  0  0  0  0  0
  -21.8457  -14.8872   20.6073 O   0  0  0  0  0  0  0  0  0  0  0  0
  -19.5316  -18.8766   21.7257 O   0  0  0  0  0  0  0  0  0  0  0  0
  -30.5469  -26.9036   18.4525 O   0  0  0  0  0  0  0  0  0  0  0  0
  -18.4843  -26.8888   20.7221 O   0  0  0  0  0  0  0  0  0  0  0  0
  -25.3147  -22.3003   22.8144 O   0  0  0  0  0  0  0  0  0  1  0  0
  -18.1839  -21.3981   20.3150 F   0  0  0  0  0  0  0  0  0  0  0  0
  -17.1593  -25.3952   22.6342 F   0  0  0  0  0  0  0  0  0  0  0  0
  1  2  1  0  0  0  0
  1  5  2  0  0  0  0
  2  6  2  0  0  0  0
  3  9  2  0  0  0  0
  3 17  1  0  0  0  0
  4 10  1  0  0  0  0
  4 17  2  0  0  0  0
  5 19  1  0  0  0  0
  6 21  1  0  0  0  0
  7 11  2  0  0  0  0
  7 20  1  0  0  0  0
  8 14  2  0  0  0  0
  8 23  1  0  0  0  0
  9 24  1  0  0  0  0
 10 24  2  0  0  0  0
 11 25  1  0  0  0  0
 12 13  2  0  0  0  0
 12 26  1  0  0  0  0
 13 27  1  0  0  0  0
 14 30  1  0  0  0  0
 15 22  1  0  0  0  0
 15 25  2  0  0  0  0
 16 27  2  0  0  0  0
 16 28  1  0  0  0  0
 17 29  1  0  0  0  0
 18 29  1  0  0  0  0
 18 32  2  0  0  0  0
 18 33  1  0  0  0  0
 19 21  2  0  0  0  0
 19 38  1  0  0  0  0
 20 22  2  0  0  0  0
 20 39  1  0  0  0  0
 21 47  1  0  0  0  0
 22 40  1  0  0  0  0
 23 31  2  0  0  0  0
 23 58  1  0  0  0  0
 24 82  1  0  0  0  0
 25 83  1  0  0  0  0
 26 28  2  0  0  0  0
 26 82  1  0  0  0  0
 27 84  1  0  0  0  0
 28 85  1  0  0  0  0
 29 66  2  0  0  0  0
 30 50  1  0  0  0  0
 30 67  2  0  0  0  0
 31 61  1  0  0  0  0
 31 67  1  0  0  0  0
 32 68  1  0  0  0  0
 32 71  1  0  0  0  0
 33 72  1  0  0  0  0
 33 77  2  0  0  0  0
 34 48  1  0  0  0  0
 34 73  1  0  0  0  0
 34 78  2  0  0  0  0
 35 62  1  0  0  0  0
 35 69  1  0  0  0  0
 35 79  2  0  0  0  0
 36 63  1  0  0  0  0
 36 74  1  0  0  0  0
 36 80  2  0  0  0  0
 37 70  1  0  0  0  0
 37 75  1  0  0  0  0
 37 81  2  0  0  0  0
 38 41  1  0  0  0  0
 39 48  1  0  0  0  0
 40 69  1  0  0  0  0
 41 43  1  0  0  0  0
 42 44  1  0  0  0  0
 42 45  1  0  0  0  0
 43 47  1  0  0  0  0
 44 49  1  0  0  0  0
 45 70  1  0  0  0  0
 46 49  1  0  0  0  0
 46 70  1  0  0  0  0
 47 73  1  0  0  0  0
 48 69  1  0  0  0  0
 49 68  1  0  0  0  0
 51 61  1  0  0  0  0
 52 63  1  0  0  0  0
 53 64  1  0  0  0  0
 54 65  1  0  0  0  0
 55 65  1  0  0  0  0
 56 65  1  0  0  0  0
 57 76  1  0  0  0  0
 58 60  1  0  0  0  0
 59 64  1  0  0  0  0
 59 75  1  0  0  0  0
 60 83  1  0  0  0  0
 61 64  1  0  0  0  0
 62 65  1  0  0  0  0
 62 74  1  0  0  0  0
 63 76  1  0  0  0  0
 66 68  1  0  0  0  0
M  CHG  1  76   1
M  ISO  4  37 100  60 101  75 100  83 101
M  END
> <Batch ID>
0087

> <Smiles>
CNC(C)C(=O)NC(C(=O)N1Cc2cc([101O:1][101CH2:1]Cc3ccc(C)nc3C(C)C(C)C[100NH:0][100C:0](=O)N3CCCC(n4nc(-c5ccc(Oc6ccc(F)cc6F)cc5)c(C(N)=O)c4N)C3)ccc2CC1C(=O)NC1CCCc2ccccc21)C(C)(C)C

> <Shape>
0.198

> <Color>
0.074

> <Negative vol penalty>
0.000

$$$$

  -OEChem-04052319013D

 86 94  0     1  0  0  0  0  0999 V2000
  -17.3664  -26.3908   22.9382 C   0  0  0  0  0  0  0  0  0  0  0  0
  -18.6156  -25.9548   22.5081 C   0  0  0  0  0  0  0  0  0  0  0  0
  -25.5583  -16.2925   22.1196 C   0  0  0  0  0  0  0  0  0  0  0  0
  -26.5305  -16.8517   19.9797 C   0  0  0  0  0  0  0  0  0  0  0  0
  -17.0428  -27.7455   22.8761 C   0  0  0  0  0  0  0  0  0  0  0  0
  -19.5415  -26.8733   22.0146 C   0  0  0  0  0  0  0  0  0  0  0  0
  -25.6289  -26.6691   22.6531 C   0  0  0  0  0  0  0  0  0  0  0  0
  -25.8204  -14.9426   21.8860 C   0  0  0  0  0  0  0  0  0  0  0  0
  -26.7927  -15.5018   19.7461 C   0  0  0  0  0  0  0  0  0  0  0  0
  -26.6466  -26.2314   21.8067 C   0  0  0  0  0  0  0  0  0  0  0  0
  -28.0444  -12.2390   18.7434 C   0  0  0  0  0  0  0  0  0  0  0  0
  -29.2994  -11.8993   18.2383 C   0  0  0  0  0  0  0  0  0  0  0  0
  -26.9841  -28.4972   21.0508 C   0  0  0  0  0  0  0  0  0  0  0  0
  -28.4010  -24.0872   17.7933 C   0  0  0  0  0  0  0  0  0  0  0  0
  -26.8099  -25.7288   17.0461 C   0  0  0  0  0  0  0  0  0  0  0  0
  -30.3466  -12.8698   20.1873 C   0  0  0  0  0  0  0  0  0  0  0  0
  -25.9133  -17.2471   21.1665 C   0  0  0  0  0  0  0  0  0  0  0  0
  -26.4876  -19.5760   22.0350 C   0  0  0  0  0  0  0  0  0  0  0  0
  -17.9687  -28.6823   22.3907 C   0  0  0  0  0  0  0  0  0  0  0  0
  -25.2732  -28.0248   22.6968 C   0  0  0  0  0  0  0  0  0  0  0  0
  -19.2294  -28.2417   21.9448 C   0  0  0  0  0  0  0  0  0  0  0  0
  -25.9633  -28.9499   21.9005 C   0  0  0  0  0  0  0  0  0  0  0  0
  -28.0623  -25.4159   17.5628 C   0  0  0  0  0  0  0  0  0  0  0  0
  -26.4376  -14.5472   20.6992 C   0  0  0  0  0  0  0  0  0  0  0  0
  -27.3225  -27.1450   21.0032 C   0  0  0  0  0  0  0  0  0  0  0  0
  -27.9405  -12.8942   19.9705 C   0  0  0  0  0  0  0  0  0  0  0  0
  -30.4505  -12.2146   18.9602 C   0  0  0  0  0  0  0  0  0  0  0  0
  -29.0916  -13.2096   20.6924 C   0  0  0  0  0  0  0  0  0  0  0  0
  -25.6423  -18.6417   21.4070 C   0  0  0  0  0  0  0  0  0  0  0  0
  -27.4592  -23.1164   17.4928 C   0  0  0  0  0  0  0  0  0  0  0  0
  -25.9394  -24.6844   16.7789 C   0  0  0  0  0  0  0  0  0  0  0  0
  -25.7750  -20.7500   22.0171 C   0  0  0  0  0  0  0  0  0  0  0  0
  -27.7996  -19.3985   22.5851 C   0  0  0  0  0  0  0  0  0  0  0  0
  -22.6342  -29.6734   22.0477 C   0  0  0  0  0  0  0  0  0  0  0  0
  -24.3550  -32.1499   23.2428 C   0  0  0  0  0  0  0  0  0  0  0  0
  -27.4208  -33.4925   23.9100 C   0  0  0  0  0  0  0  0  0  0  0  0
  -22.0853  -23.6881   18.6603 C   0  0  0  0  0  0  0  0  0  0  0  0
  -17.5562  -30.1301   22.2986 C   0  0  0  0  0  0  0  0  0  0  0  0
  -24.1911  -28.4848   23.6348 C   0  0  0  0  0  0  0  0  0  0  0  0
  -25.6334  -30.4192   21.9252 C   0  0  0  0  0  0  0  0  0  0  0  0
  -18.7305  -31.0874   22.1122 C   0  0  0  0  0  0  0  0  0  0  0  0
  -20.9936  -21.9170   21.5496 C   0  0  0  0  0  0  0  0  0  0  0  0
  -19.6759  -30.5688   21.0333 C   0  0  0  0  0  0  0  0  0  0  0  0
  -22.1596  -20.9787   21.8657 C   0  0  0  0  0  0  0  0  0  0  0  0
  -20.7981  -22.0871   20.0446 C   0  0  0  0  0  0  0  0  0  0  0  0
  -23.1704  -21.5687   19.6232 C   0  0  0  0  0  0  0  0  0  0  0  0
  -20.2697  -29.2107   21.4263 C   0  0  1  0  0  0  0  0  0  0  0  0
  -23.5647  -29.8123   23.2193 C   0  0  1  0  0  0  0  0  0  0  0  0
  -23.4420  -21.4099   21.1289 C   0  0  2  0  0  0  0  0  0  0  0  0
  -28.4312  -21.0244   16.5103 C   0  0  0  0  0  0  0  0  0  0  0  0
  -30.0742  -26.4899   15.5257 C   0  0  0  0  0  0  0  0  0  0  0  0
  -28.5081  -35.5473   24.8550 C   0  0  0  0  0  0  0  0  0  0  0  0
  -23.8691  -26.3691   18.2189 C   0  0  0  0  0  0  0  0  0  0  0  0
  -23.7404  -33.6587   20.6629 C   0  0  0  0  0  0  0  0  0  0  0  0
  -25.5829  -35.2531   21.2386 C   0  0  0  0  0  0  0  0  0  0  0  0
  -23.6019  -35.0445   22.7402 C   0  0  0  0  0  0  0  0  0  0  0  0
  -28.7159  -31.9508   26.0790 C   0  0  0  0  0  0  0  0  0  0  0  0
  -27.7873  -21.6800   17.7289 C   0  0  0  0  0  0  0  0  0  0  0  0
  -24.5877  -24.9836   16.2221 C   0  0  0  0  0  0  0  0  0  0  0  0
  -29.4495  -27.3398   16.6258 C   0  0  0  0  0  0  0  0  0  0  0  0
  -28.5174  -27.4583   18.9710 C   0  0  0  0  0  0  0  0  0  1  0  0
  -29.0585  -26.5239   17.8758 C   0  0  1  0  0  0  0  0  0  0  0  0
  -25.3005  -33.1735   22.6621 C   0  0  1  0  0  0  0  0  0  0  0  0
  -27.9816  -34.1528   25.1566 C   0  0  2  0  0  0  0  0  0  0  0  0
  -23.5083  -25.2030   17.3041 C   0  0  1  0  0  0  0  0  0  0  0  0
  -24.5616  -34.2545   21.8238 C   0  0  0  0  0  0  0  0  0  0  0  0
  -24.4814  -19.1760   21.0187 N   0  0  0  0  0  0  0  0  0  0  0  0
  -26.2327  -23.3817   16.9898 N   0  0  0  0  0  0  0  0  0  0  0  0
  -24.5921  -20.4588   21.4038 N   0  0  0  0  0  0  0  0  0  0  0  0
  -24.5635  -30.8190   22.8543 N   0  0  0  0  0  0  0  0  0  0  0  0
  -22.0508  -22.4983   19.4061 N   0  0  0  0  0  0  0  0  0  0  0  0
  -26.0511  -21.9927   22.4665 N   0  0  0  0  0  0  0  0  0  0  0  0
  -28.3852  -18.1268   22.5197 N   0  0  0  0  0  0  0  0  0  0  0  0
  -21.3289  -29.3842   22.3971 N   0  0  0  0  0  0  0  0  0  0  0  0
  -26.0644  -33.7068   23.7848 N   0  0  0  0  0  0  0  0  0  0  0  0
  -23.3132  -24.0076   18.0939 N   0  0  0  0  0  0  0  0  0  0  0  0
  -29.0984  -33.3396   25.7156 N   0  3  0  0  0  0  0  0  0  0  0  0
  -28.4273  -20.3358   23.1337 O   0  0  0  0  0  0  0  0  0  0  0  0
  -23.0680  -29.8195   20.9110 O   0  0  0  0  0  0  0  0  0  0  0  0
  -23.4687  -32.5168   24.0184 O   0  0  0  0  0  0  0  0  0  0  0  0
  -28.1170  -32.8540   23.1238 O   0  0  0  0  0  0  0  0  0  0  0  0
  -21.0965  -24.4148   18.5149 O   0  0  0  0  0  0  0  0  0  0  0  0
  -26.6938  -13.2301   20.4710 O   0  0  0  0  0  0  0  0  0  0  0  0
  -28.3158  -26.7204   20.1757 O   0  0  0  0  0  0  0  0  0  1  0  0
  -31.6555  -11.8870   18.4757 F   0  0  0  0  0  0  0  0  0  0  0  0
  -28.9980  -13.8379   21.8724 F   0  0  0  0  0  0  0  0  0  0  0  0
  1  2  1  0  0  0  0
  1  5  2  0  0  0  0
  2  6  2  0  0  0  0
  3  8  2  0  0  0  0
  3 17  1  0  0  0  0
  4  9  1  0  0  0  0
  4 17  2  0  0  0  0
  5 19  1  0  0  0  0
  6 21  1  0  0  0  0
  7 10  2  0  0  0  0
  7 20  1  0  0  0  0
  8 24  1  0  0  0  0
  9 24  2  0  0  0  0
 10 25  1  0  0  0  0
 11 12  2  0  0  0  0
 11 26  1  0  0  0  0
 12 27  1  0  0  0  0
 13 22  1  0  0  0  0
 13 25  2  0  0  0  0
 14 23  2  0  0  0  0
 14 30  1  0  0  0  0
 15 23  1  0  0  0  0
 15 31  2  0  0  0  0
 16 27  2  0  0  0  0
 16 28  1  0  0  0  0
 17 29  1  0  0  0  0
 18 29  1  0  0  0  0
 18 32  2  0  0  0  0
 18 33  1  0  0  0  0
 19 21  2  0  0  0  0
 19 38  1  0  0  0  0
 20 22  2  0  0  0  0
 20 39  1  0  0  0  0
 21 47  1  0  0  0  0
 22 40  1  0  0  0  0
 23 62  1  0  0  0  0
 24 83  1  0  0  0  0
 25 84  1  0  0  0  0
 26 28  2  0  0  0  0
 26 83  1  0  0  0  0
 27 85  1  0  0  0  0
 28 86  1  0  0  0  0
 29 67  2  0  0  0  0
 30 58  1  0  0  0  0
 30 68  2  0  0  0  0
 31 59  1  0  0  0  0
 31 68  1  0  0  0  0
 32 69  1  0  0  0  0
 32 72  1  0  0  0  0
 33 73  1  0  0  0  0
 33 78  2  0  0  0  0
 34 48  1  0  0  0  0
 34 74  1  0  0  0  0
 34 79  2  0  0  0  0
 35 63  1  0  0  0  0
 35 70  1  0  0  0  0
 35 80  2  0  0  0  0
 36 64  1  0  0  0  0
 36 75  1  0  0  0  0
 36 81  2  0  0  0  0
 37 71  1  0  0  0  0
 37 76  1  0  0  0  0
 37 82  2  0  0  0  0
 38 41  1  0  0  0  0
 39 48  1  0  0  0  0
 40 70  1  0  0  0  0
 41 43  1  0  0  0  0
 42 44  1  0  0  0  0
 42 45  1  0  0  0  0
 43 47  1  0  0  0  0
 44 49  1  0  0  0  0
 45 71  1  0  0  0  0
 46 49  1  0  0  0  0
 46 71  1  0  0  0  0
 47 74  1  0  0  0  0
 48 70  1  0  0  0  0
 49 69  1  0  0  0  0
 50 58  1  0  0  0  0
 51 60  1  0  0  0  0
 52 64  1  0  0  0  0
 53 65  1  0  0  0  0
 54 66  1  0  0  0  0
 55 66  1  0  0  0  0
 56 66  1  0  0  0  0
 57 77  1  0  0  0  0
 59 65  1  0  0  0  0
 60 62  1  0  0  0  0
 61 62  1  0  0  0  0
 61 84  1  0  0  0  0
 63 66  1  0  0  0  0
 63 75  1  0  0  0  0
 64 77  1  0  0  0  0
 65 76  1  0  0  0  0
 67 69  1  0  0  0  0
M  CHG  1  77   1
M  ISO  4  37 100  61 101  76 100  84 101
M  END
> <Batch ID>
0087

> <Smiles>
CCc1cc(C(CC)[101CH2:1][101O:1]c2ccc3c(c2)CN(C(=O)C(NC(=O)C(C)NC)C(C)(C)C)C(C(=O)NC2CCCc4ccccc42)C3)cc(CC(C)[100NH:0][100C:0](=O)N2CCCC(n3nc(-c4ccc(Oc5ccc(F)cc5F)cc4)c(C(N)=O)c3N)C2)n1

> <Shape>
0.232

> <Color>
0.091

> <Negative vol penalty>
0.000

$$$$

  -OEChem-04052319013D

 89 97  0     1  0  0  0  0  0999 V2000
  -29.7170  -30.5111   24.8116 C   0  0  0  0  0  0  0  0  0  0  0  0
  -29.0912  -29.2779   24.9631 C   0  0  0  0  0  0  0  0  0  0  0  0
  -26.5919  -12.9066   21.6362 C   0  0  0  0  0  0  0  0  0  0  0  0
  -26.1671  -13.9212   19.4851 C   0  0  0  0  0  0  0  0  0  0  0  0
  -28.9798  -31.6192   24.3960 C   0  0  0  0  0  0  0  0  0  0  0  0
  -27.7275  -29.1523   24.7001 C   0  0  0  0  0  0  0  0  0  0  0  0
  -26.6469  -25.0232   21.9747 C   0  0  0  0  0  0  0  0  0  0  0  0
  -25.3015  -12.3770   21.6412 C   0  0  0  0  0  0  0  0  0  0  0  0
  -24.8767  -13.3915   19.4901 C   0  0  0  0  0  0  0  0  0  0  0  0
  -26.6217  -23.8035   22.6495 C   0  0  0  0  0  0  0  0  0  0  0  0
  -23.6730   -9.7711   20.2305 C   0  0  0  0  0  0  0  0  0  0  0  0
  -23.5211   -8.4377   20.6108 C   0  0  0  0  0  0  0  0  0  0  0  0
  -24.2141  -23.9155   22.7498 C   0  0  0  0  0  0  0  0  0  0  0  0
  -25.4608  -20.5586   20.4732 C   0  0  0  0  0  0  0  0  0  0  0  0
  -22.0902   -9.1207   22.4337 C   0  0  0  0  0  0  0  0  0  0  0  0
  -24.6873  -18.3141   20.6161 C   0  0  0  0  0  0  0  0  0  0  0  0
  -27.0247  -13.6788   20.5582 C   0  0  0  0  0  0  0  0  0  0  0  0
  -29.5217  -13.6251   20.0387 C   0  0  0  0  0  0  0  0  0  0  0  0
  -27.6085  -31.5050   24.1185 C   0  0  0  0  0  0  0  0  0  0  0  0
  -25.4545  -25.7047   21.6915 C   0  0  0  0  0  0  0  0  0  0  0  0
  -26.9711  -30.2602   24.2817 C   0  0  0  0  0  0  0  0  0  0  0  0
  -24.2267  -25.1425   22.0690 C   0  0  0  0  0  0  0  0  0  0  0  0
  -25.2813  -19.4055   21.2291 C   0  0  0  0  0  0  0  0  0  0  0  0
  -25.0465  -20.5848   19.1462 C   0  0  0  0  0  0  0  0  0  0  0  0
  -24.4440  -12.6194   20.5682 C   0  0  0  0  0  0  0  0  0  0  0  0
  -25.4054  -23.2509   23.0398 C   0  0  0  0  0  0  0  0  0  0  0  0
  -23.0336  -10.7793   20.9519 C   0  0  0  0  0  0  0  0  0  0  0  0
  -22.7297   -8.1125   21.7124 C   0  0  0  0  0  0  0  0  0  0  0  0
  -22.2422  -10.4541   22.0535 C   0  0  0  0  0  0  0  0  0  0  0  0
  -28.3573  -14.2267   20.5526 C   0  0  0  0  0  0  0  0  0  0  0  0
  -24.4632  -19.4405   18.6264 C   0  0  0  0  0  0  0  0  0  0  0  0
  -30.5154  -14.5434   20.2747 C   0  0  0  0  0  0  0  0  0  0  0  0
  -29.6899  -12.3502   19.4047 C   0  0  0  0  0  0  0  0  0  0  0  0
  -24.2343  -28.5243   22.5070 C   0  0  0  0  0  0  0  0  0  0  0  0
  -21.9112  -27.6899   20.4024 C   0  0  0  0  0  0  0  0  0  0  0  0
  -20.2433  -25.2042   18.7634 C   0  0  0  0  0  0  0  0  0  0  0  0
  -30.4859  -20.4861   21.0055 C   0  0  0  0  0  0  0  0  0  0  0  0
  -26.8436  -32.7414   23.7175 C   0  0  0  0  0  0  0  0  0  0  0  0
  -25.4970  -27.0065   20.9392 C   0  0  0  0  0  0  0  0  0  0  0  0
  -22.9172  -25.8243   21.7709 C   0  0  0  0  0  0  0  0  0  0  0  0
  -25.4811  -32.4406   23.0983 C   0  0  0  0  0  0  0  0  0  0  0  0
  -31.7305  -18.0545   23.2891 C   0  0  0  0  0  0  0  0  0  0  0  0
  -24.7325  -31.4057   23.9322 C   0  0  0  0  0  0  0  0  0  0  0  0
  -31.1122  -16.7435   22.8003 C   0  0  0  0  0  0  0  0  0  0  0  0
  -30.7690  -19.2290   23.1211 C   0  0  0  0  0  0  0  0  0  0  0  0
  -29.6104  -18.0861   21.2704 C   0  0  0  0  0  0  0  0  0  0  0  0
  -25.4989  -30.0785   23.9822 C   0  0  1  0  0  0  0  0  0  0  0  0
  -24.2541  -27.8637   21.1576 C   0  0  1  0  0  0  0  0  0  0  0  0
  -30.5630  -16.8823   21.3677 C   0  0  2  0  0  0  0  0  0  0  0  0
  -23.9832  -22.7254   18.3581 C   0  0  0  0  0  0  0  0  0  0  0  0
  -22.4809  -19.1881   17.0900 C   0  0  0  0  0  0  0  0  0  0  0  0
  -24.7496  -18.3603   16.3669 C   0  0  0  0  0  0  0  0  0  0  0  0
  -18.6421  -24.1491   17.1448 C   0  0  0  0  0  0  0  0  0  0  0  0
  -19.8846  -28.2228   22.6203 C   0  0  0  0  0  0  0  0  0  0  0  0
  -18.1917  -26.9522   21.2832 C   0  0  0  0  0  0  0  0  0  0  0  0
  -19.1960  -29.0404   20.3594 C   0  0  0  0  0  0  0  0  0  0  0  0
  -22.2549  -25.2069   16.5926 C   0  0  0  0  0  0  0  0  0  0  0  0
  -25.7202  -19.3441   22.6704 C   0  0  0  0  0  0  0  0  0  0  0  0
  -24.6391  -19.7785   23.6624 C   0  0  0  0  0  0  0  0  0  0  0  0
  -30.1388  -21.6100   18.8202 C   0  0  0  0  0  0  0  0  0  0  0  0
  -28.9595  -22.5593   18.9210 C   0  0  0  0  0  0  0  0  0  0  0  0
  -26.4707  -22.6568   18.7342 C   0  0  0  0  0  0  0  0  0  0  0  0
  -24.2281  -21.2380   23.5068 C   0  0  0  0  0  0  0  0  0  1  0  0
  -25.2341  -21.8176   18.3312 C   0  0  1  0  0  0  0  0  0  0  0  0
  -23.9998  -19.4105   17.2065 C   0  0  0  0  0  0  0  0  0  0  0  0
  -20.6022  -26.9438   20.4954 C   0  0  1  0  0  0  0  0  0  0  0  0
  -19.8661  -25.0377   17.3024 C   0  0  2  0  0  0  0  0  0  0  0  0
  -19.4932  -27.7776   21.1970 C   0  0  0  0  0  0  0  0  0  0  0  0
  -24.2722  -18.3018   19.3296 N   0  0  0  0  0  0  0  0  0  0  0  0
  -28.5884  -15.4337   21.0758 N   0  0  0  0  0  0  0  0  0  0  0  0
  -29.9095  -15.5980   20.8918 N   0  0  0  0  0  0  0  0  0  0  0  0
  -23.0115  -27.0981   21.0387 N   0  0  0  0  0  0  0  0  0  0  0  0
  -30.2863  -19.3057   21.7402 N   0  0  0  0  0  0  0  0  0  0  0  0
  -31.8397  -14.5435   20.0124 N   0  0  0  0  0  0  0  0  0  0  0  0
  -28.5642  -11.5313   19.2416 N   0  0  0  0  0  0  0  0  0  0  0  0
  -25.3199  -29.3447   22.7477 N   0  0  0  0  0  0  0  0  0  0  0  0
  -20.2698  -26.5315   19.1360 N   0  0  0  0  0  0  0  0  0  0  0  0
  -30.0033  -20.4725   19.7025 N   0  0  0  0  0  0  0  0  0  0  0  0
  -20.9926  -24.4250   16.5432 N   0  3  0  0  0  0  0  0  0  0  0  0
  -27.7001  -21.8324   18.6079 N   0  3  0  0  0  0  0  0  0  0  0  0
  -30.8083  -11.9421   19.0097 O   0  0  0  0  0  0  0  0  0  0  0  0
  -23.3024  -28.3070   23.2725 O   0  0  0  0  0  0  0  0  0  0  0  0
  -21.9574  -28.7550   19.7818 O   0  0  0  0  0  0  0  0  0  0  0  0
  -20.4863  -24.2519   19.5014 O   0  0  0  0  0  0  0  0  0  0  0  0
  -31.0568  -21.4767   21.4741 O   0  0  0  0  0  0  0  0  0  0  0  0
  -23.1848  -12.1025   20.5726 O   0  0  0  0  0  0  0  0  0  0  0  0
  -25.3780  -22.0608   23.6992 O   0  0  0  0  0  0  0  0  0  1  0  0
  -22.5826   -6.8319   22.0765 F   0  0  0  0  0  0  0  0  0  0  0  0
  -21.6245  -11.4182   22.7497 F   0  0  0  0  0  0  0  0  0  0  0  0
  1  2  1  0  0  0  0
  1  5  2  0  0  0  0
  2  6  2  0  0  0  0
  3  8  2  0  0  0  0
  3 17  1  0  0  0  0
  4  9  1  0  0  0  0
  4 17  2  0  0  0  0
  5 19  1  0  0  0  0
  6 21  1  0  0  0  0
  7 10  2  0  0  0  0
  7 20  1  0  0  0  0
  8 25  1  0  0  0  0
  9 25  2  0  0  0  0
 10 26  1  0  0  0  0
 11 12  2  0  0  0  0
 11 27  1  0  0  0  0
 12 28  1  0  0  0  0
 13 22  1  0  0  0  0
 13 26  2  0  0  0  0
 14 23  2  0  0  0  0
 14 24  1  0  0  0  0
 15 28  2  0  0  0  0
 15 29  1  0  0  0  0
 16 23  1  0  0  0  0
 16 69  2  0  0  0  0
 17 30  1  0  0  0  0
 18 30  1  0  0  0  0
 18 32  2  0  0  0  0
 18 33  1  0  0  0  0
 19 21  2  0  0  0  0
 19 38  1  0  0  0  0
 20 22  2  0  0  0  0
 20 39  1  0  0  0  0
 21 47  1  0  0  0  0
 22 40  1  0  0  0  0
 23 58  1  0  0  0  0
 24 31  2  0  0  0  0
 24 64  1  0  0  0  0
 25 86  1  0  0  0  0
 26 87  1  0  0  0  0
 27 29  2  0  0  0  0
 27 86  1  0  0  0  0
 28 88  1  0  0  0  0
 29 89  1  0  0  0  0
 30 70  2  0  0  0  0
 31 65  1  0  0  0  0
 31 69  1  0  0  0  0
 32 71  1  0  0  0  0
 32 74  1  0  0  0  0
 33 75  1  0  0  0  0
 33 81  2  0  0  0  0
 34 48  1  0  0  0  0
 34 76  1  0  0  0  0
 34 82  2  0  0  0  0
 35 66  1  0  0  0  0
 35 72  1  0  0  0  0
 35 83  2  0  0  0  0
 36 67  1  0  0  0  0
 36 77  1  0  0  0  0
 36 84  2  0  0  0  0
 37 73  1  0  0  0  0
 37 78  1  0  0  0  0
 37 85  2  0  0  0  0
 38 41  1  0  0  0  0
 39 48  1  0  0  0  0
 40 72  1  0  0  0  0
 41 43  1  0  0  0  0
 42 44  1  0  0  0  0
 42 45  1  0  0  0  0
 43 47  1  0  0  0  0
 44 49  1  0  0  0  0
 45 73  1  0  0  0  0
 46 49  1  0  0  0  0
 46 73  1  0  0  0  0
 47 76  1  0  0  0  0
 48 72  1  0  0  0  0
 49 71  1  0  0  0  0
 50 64  1  0  0  0  0
 51 65  1  0  0  0  0
 52 65  1  0  0  0  0
 53 67  1  0  0  0  0
 54 68  1  0  0  0  0
 55 68  1  0  0  0  0
 56 68  1  0  0  0  0
 57 79  1  0  0  0  0
 58 59  1  0  0  0  0
 59 63  1  0  0  0  0
 60 61  1  0  0  0  0
 60 78  1  0  0  0  0
 61 80  1  0  0  0  0
 62 64  1  0  0  0  0
 62 80  1  0  0  0  0
 63 87  1  0  0  0  0
 66 68  1  0  0  0  0
 66 77  1  0  0  0  0
 67 79  1  0  0  0  0
 70 71  1  0  0  0  0
M  CHG  2  79   1  80   1
M  ISO  4  37 100  63 101  78 100  87 101
M  END
> <Batch ID>
0087

> <Smiles>
CNC(C)C(=O)NC(C(=O)N1Cc2cc([101O:1][101CH2:1]CCc3cnc(C(C)C)c(C(C)CNCC[100NH:0][100C:0](=O)N4CCCC(n5nc(-c6ccc(Oc7ccc(F)cc7F)cc6)c(C(N)=O)c5N)C4)c3)ccc2CC1C(=O)NC1CCCc2ccccc21)C(C)(C)C

> <Shape>
0.241

> <Color>
0.058

> <Negative vol penalty>
0.000

$$$$

  -OEChem-04052319013D

 88 96  0     1  0  0  0  0  0999 V2000
  -31.2701  -32.1636   17.6288 C   0  0  0  0  0  0  0  0  0  0  0  0
  -32.0373  -31.1197   18.1358 C   0  0  0  0  0  0  0  0  0  0  0  0
  -19.4917  -22.6662   23.4136 C   0  0  0  0  0  0  0  0  0  0  0  0
  -18.8176  -22.0267   21.1834 C   0  0  0  0  0  0  0  0  0  0  0  0
  -29.9679  -32.3570   18.0877 C   0  0  0  0  0  0  0  0  0  0  0  0
  -31.5029  -30.2691   19.1030 C   0  0  0  0  0  0  0  0  0  0  0  0
  -30.7487  -22.4938   19.0597 C   0  0  0  0  0  0  0  0  0  0  0  0
  -18.9491  -23.9355   23.2136 C   0  0  0  0  0  0  0  0  0  0  0  0
  -18.2749  -23.2960   20.9835 C   0  0  0  0  0  0  0  0  0  0  0  0
  -30.4179  -21.1392   19.1016 C   0  0  0  0  0  0  0  0  0  0  0  0
  -19.8233  -26.7987   21.6445 C   0  0  0  0  0  0  0  0  0  0  0  0
  -20.5827  -27.8979   22.0454 C   0  0  0  0  0  0  0  0  0  0  0  0
  -28.5836  -21.6227   20.6015 C   0  0  0  0  0  0  0  0  0  0  0  0
  -27.6585  -12.3622   19.0449 C   0  0  0  0  0  0  0  0  0  0  0  0
  -18.8220  -28.5615   23.5609 C   0  0  0  0  0  0  0  0  0  0  0  0
  -19.4261  -21.7118   22.3985 C   0  0  0  0  0  0  0  0  0  0  0  0
  -19.3329  -19.2686   23.1263 C   0  0  0  0  0  0  0  0  0  0  0  0
  -29.4139  -31.5025   19.0540 C   0  0  0  0  0  0  0  0  0  0  0  0
  -29.9879  -23.4210   19.7772 C   0  0  0  0  0  0  0  0  0  0  0  0
  -30.1925  -30.4521   19.5763 C   0  0  0  0  0  0  0  0  0  0  0  0
  -28.9027  -22.9823   20.5534 C   0  0  0  0  0  0  0  0  0  0  0  0
  -29.0190  -12.1309   18.8751 C   0  0  0  0  0  0  0  0  0  0  0  0
  -29.9424  -12.9179   19.5544 C   0  0  0  0  0  0  0  0  0  0  0  0
  -18.3407  -24.2504   21.9986 C   0  0  0  0  0  0  0  0  0  0  0  0
  -29.3382  -20.7047   19.8708 C   0  0  0  0  0  0  0  0  0  0  0  0
  -18.5632  -26.5810   22.2017 C   0  0  0  0  0  0  0  0  0  0  0  0
  -20.0821  -28.7793   23.0036 C   0  0  0  0  0  0  0  0  0  0  0  0
  -18.0626  -27.4623   23.1600 C   0  0  0  0  0  0  0  0  0  0  0  0
  -19.9869  -20.4006   22.6042 C   0  0  0  0  0  0  0  0  0  0  0  0
  -27.2760  -13.3844   19.8985 C   0  0  0  0  0  0  0  0  0  0  0  0
  -29.4576  -13.9153   20.3850 C   0  0  0  0  0  0  0  0  0  0  0  0
  -20.2909  -18.2844   23.1181 C   0  0  0  0  0  0  0  0  0  0  0  0
  -17.9804  -19.1200   23.5783 C   0  0  0  0  0  0  0  0  0  0  0  0
  -29.4416  -27.0149   20.7053 C   0  0  0  0  0  0  0  0  0  0  0  0
  -26.6703  -25.7815   20.2479 C   0  0  0  0  0  0  0  0  0  0  0  0
  -23.8416  -24.1598   19.2451 C   0  0  0  0  0  0  0  0  0  0  0  0
  -24.2766  -15.5472   20.5551 C   0  0  0  0  0  0  0  0  0  0  0  0
  -28.0182  -31.7799   19.5538 C   0  0  0  0  0  0  0  0  0  0  0  0
  -30.3454  -24.8821   19.8102 C   0  0  0  0  0  0  0  0  0  0  0  0
  -28.1337  -24.0112   21.3364 C   0  0  0  0  0  0  0  0  0  0  0  0
  -27.3966  -30.6067   20.3070 C   0  0  0  0  0  0  0  0  0  0  0  0
  -25.2783  -18.5478   22.3131 C   0  0  0  0  0  0  0  0  0  0  0  0
  -28.3889  -30.0322   21.3131 C   0  0  0  0  0  0  0  0  0  0  0  0
  -23.9247  -19.2050   22.5887 C   0  0  0  0  0  0  0  0  0  0  0  0
  -25.2961  -17.8711   20.9456 C   0  0  0  0  0  0  0  0  0  0  0  0
  -22.8568  -17.5262   21.0135 C   0  0  0  0  0  0  0  0  0  0  0  0
  -29.6395  -29.4932   20.6083 C   0  0  1  0  0  0  0  0  0  0  0  0
  -29.1143  -25.8031   19.8831 C   0  0  1  0  0  0  0  0  0  0  0  0
  -22.7672  -18.2084   22.3907 C   0  0  2  0  0  0  0  0  0  0  0  0
  -31.8980  -11.4800   20.1826 C   0  0  0  0  0  0  0  0  0  0  0  0
  -29.0205  -11.2779   16.5032 C   0  0  0  0  0  0  0  0  0  0  0  0
  -28.9846   -9.6504   18.4280 C   0  0  0  0  0  0  0  0  0  0  0  0
  -21.4279  -23.8514   18.6316 C   0  0  0  0  0  0  0  0  0  0  0  0
  -32.1661  -16.5792   20.9598 C   0  0  0  0  0  0  0  0  0  0  0  0
  -26.3146  -25.5147   23.2655 C   0  0  0  0  0  0  0  0  0  0  0  0
  -23.9210  -24.9042   22.8580 C   0  0  0  0  0  0  0  0  0  0  0  0
  -24.7680  -27.1482   22.1728 C   0  0  0  0  0  0  0  0  0  0  0  0
  -24.3428  -24.9059   16.4253 C   0  0  0  0  0  0  0  0  0  0  0  0
  -31.4080  -12.6912   19.3935 C   0  0  0  0  0  0  0  0  0  0  0  0
  -30.4108  -14.8013   21.1503 C   0  0  0  0  0  0  0  0  0  0  0  0
  -25.8242  -13.6603   20.1061 C   0  0  0  0  0  0  0  0  0  0  0  0
  -29.7391  -17.1661   20.4760 C   0  0  0  0  0  0  0  0  0  0  0  0
  -30.0863  -18.4511   19.7322 C   0  0  0  0  0  0  0  0  0  1  0  0
  -29.4605  -11.0377   17.9591 C   0  0  0  0  0  0  0  0  0  0  0  0
  -25.4702  -25.1046   20.8604 C   0  0  1  0  0  0  0  0  0  0  0  0
  -22.7267  -24.5696   18.2999 C   0  0  2  0  0  0  0  0  0  0  0  0
  -30.8317  -16.0813   20.3926 C   0  0  1  0  0  0  0  0  0  0  0  0
  -25.1395  -25.6530   22.2772 C   0  0  0  0  0  0  0  0  0  0  0  0
  -21.2619  -20.1592   22.2875 N   0  0  0  0  0  0  0  0  0  0  0  0
  -28.1436  -14.1697   20.5753 N   0  0  0  0  0  0  0  0  0  0  0  0
  -21.4167  -18.8642   22.6116 N   0  0  0  0  0  0  0  0  0  0  0  0
  -27.9217  -25.2129   20.5144 N   0  0  0  0  0  0  0  0  0  0  0  0
  -24.1803  -16.9217   20.8288 N   0  0  0  0  0  0  0  0  0  0  0  0
  -20.2717  -16.9882   23.4949 N   0  0  0  0  0  0  0  0  0  0  0  0
  -17.1296  -20.2321   23.5173 N   0  0  0  0  0  0  0  0  0  0  0  0
  -29.3657  -28.2053   20.0077 N   0  0  0  0  0  0  0  0  0  0  0  0
  -24.3848  -25.2472   19.8960 N   0  0  0  0  0  0  0  0  0  0  0  0
  -25.5650  -15.0549   20.3868 N   0  0  0  0  0  0  0  0  0  0  0  0
  -23.0959  -24.2471   16.8926 N   0  3  0  0  0  0  0  0  0  0  0  0
  -17.5440  -18.0377   24.0382 O   0  0  0  0  0  0  0  0  0  0  0  0
  -29.7397  -26.8812   21.8864 O   0  0  0  0  0  0  0  0  0  0  0  0
  -26.5060  -26.7904   19.5562 O   0  0  0  0  0  0  0  0  0  0  0  0
  -24.1927  -22.9915   19.3941 O   0  0  0  0  0  0  0  0  0  0  0  0
  -23.2872  -14.8113   20.4722 O   0  0  0  0  0  0  0  0  0  0  0  0
  -17.8108  -25.4888   21.8032 O   0  0  0  0  0  0  0  0  0  0  0  0
  -29.0179  -19.3814   19.9037 O   0  0  0  0  0  0  0  0  0  1  0  0
  -20.8120  -29.8339   23.3897 F   0  0  0  0  0  0  0  0  0  0  0  0
  -16.8532  -27.2577   23.6998 F   0  0  0  0  0  0  0  0  0  0  0  0
  1  2  1  0  0  0  0
  1  5  2  0  0  0  0
  2  6  2  0  0  0  0
  3  8  2  0  0  0  0
  3 16  1  0  0  0  0
  4  9  1  0  0  0  0
  4 16  2  0  0  0  0
  5 18  1  0  0  0  0
  6 20  1  0  0  0  0
  7 10  2  0  0  0  0
  7 19  1  0  0  0  0
  8 24  1  0  0  0  0
  9 24  2  0  0  0  0
 10 25  1  0  0  0  0
 11 12  2  0  0  0  0
 11 26  1  0  0  0  0
 12 27  1  0  0  0  0
 13 21  1  0  0  0  0
 13 25  2  0  0  0  0
 14 22  2  0  0  0  0
 14 30  1  0  0  0  0
 15 27  2  0  0  0  0
 15 28  1  0  0  0  0
 16 29  1  0  0  0  0
 17 29  1  0  0  0  0
 17 32  2  0  0  0  0
 17 33  1  0  0  0  0
 18 20  2  0  0  0  0
 18 38  1  0  0  0  0
 19 21  2  0  0  0  0
 19 39  1  0  0  0  0
 20 47  1  0  0  0  0
 21 40  1  0  0  0  0
 22 23  1  0  0  0  0
 22 64  1  0  0  0  0
 23 31  2  0  0  0  0
 23 59  1  0  0  0  0
 24 85  1  0  0  0  0
 25 86  1  0  0  0  0
 26 28  2  0  0  0  0
 26 85  1  0  0  0  0
 27 87  1  0  0  0  0
 28 88  1  0  0  0  0
 29 69  2  0  0  0  0
 30 61  1  0  0  0  0
 30 70  2  0  0  0  0
 31 60  1  0  0  0  0
 31 70  1  0  0  0  0
 32 71  1  0  0  0  0
 32 74  1  0  0  0  0
 33 75  1  0  0  0  0
 33 80  2  0  0  0  0
 34 48  1  0  0  0  0
 34 76  1  0  0  0  0
 34 81  2  0  0  0  0
 35 65  1  0  0  0  0
 35 72  1  0  0  0  0
 35 82  2  0  0  0  0
 36 66  1  0  0  0  0
 36 77  1  0  0  0  0
 36 83  2  0  0  0  0
 37 73  1  0  0  0  0
 37 78  1  0  0  0  0
 37 84  2  0  0  0  0
 38 41  1  0  0  0  0
 39 48  1  0  0  0  0
 40 72  1  0  0  0  0
 41 43  1  0  0  0  0
 42 44  1  0  0  0  0
 42 45  1  0  0  0  0
 43 47  1  0  0  0  0
 44 49  1  0  0  0  0
 45 73  1  0  0  0  0
 46 49  1  0  0  0  0
 46 73  1  0  0  0  0
 47 76  1  0  0  0  0
 48 72  1  0  0  0  0
 49 71  1  0  0  0  0
 50 59  1  0  0  0  0
 51 64  1  0  0  0  0
 52 64  1  0  0  0  0
 53 66  1  0  0  0  0
 54 67  1  0  0  0  0
 55 68  1  0  0  0  0
 56 68  1  0  0  0  0
 57 68  1  0  0  0  0
 58 79  1  0  0  0  0
 60 67  1  0  0  0  0
 61 78  1  0  0  0  0
 62 63  1  0  0  0  0
 62 67  1  0  0  0  0
 63 86  1  0  0  0  0
 65 68  1  0  0  0  0
 65 77  1  0  0  0  0
 66 79  1  0  0  0  0
 69 71  1  0  0  0  0
M  CHG  1  79   1
M  ISO  4  37 100  63 101  78 100  86 101
M  END
> <Batch ID>
0087

> <Smiles>
CCc1c(C(C)C)cc(C[100NH:0][100C:0](=O)N2CCCC(n3nc(-c4ccc(Oc5ccc(F)cc5F)cc4)c(C(N)=O)c3N)C2)nc1CC(C)C[101CH2:1][101O:1]c1ccc2c(c1)CN(C(=O)C(NC(=O)C(C)NC)C(C)(C)C)C(C(=O)NC1CCCc3ccccc31)C2

> <Shape>
0.232

> <Color>
0.062

> <Negative vol penalty>
0.000

$$$$

  -OEChem-04052319013D

 84 92  0     1  0  0  0  0  0999 V2000
  -21.8473  -13.9865   18.6963 C   0  0  0  0  0  0  0  0  0  0  0  0
  -22.1715  -15.2733   19.1140 C   0  0  0  0  0  0  0  0  0  0  0  0
  -19.9677  -28.2629   23.9589 C   0  0  0  0  0  0  0  0  0  0  0  0
  -20.5502  -26.7916   22.1333 C   0  0  0  0  0  0  0  0  0  0  0  0
  -22.6065  -12.9014   19.1321 C   0  0  0  0  0  0  0  0  0  0  0  0
  -23.2546  -15.4756   19.9687 C   0  0  0  0  0  0  0  0  0  0  0  0
  -27.0687  -20.2669   20.0079 C   0  0  0  0  0  0  0  0  0  0  0  0
  -18.6153  -28.0056   23.7349 C   0  0  0  0  0  0  0  0  0  0  0  0
  -19.1977  -26.5342   21.9092 C   0  0  0  0  0  0  0  0  0  0  0  0
  -27.1197  -21.4189   20.7917 C   0  0  0  0  0  0  0  0  0  0  0  0
  -16.2150  -29.0030   21.5742 C   0  0  0  0  0  0  0  0  0  0  0  0
  -15.3406  -30.0897   21.5746 C   0  0  0  0  0  0  0  0  0  0  0  0
  -28.7308  -20.3559   22.2386 C   0  0  0  0  0  0  0  0  0  0  0  0
  -14.1184  -29.1054   23.4117 C   0  0  0  0  0  0  0  0  0  0  0  0
  -28.4801  -27.4260   20.2185 C   0  0  0  0  0  0  0  0  0  0  0  0
  -28.3577  -25.5910   19.0043 C   0  0  0  0  0  0  0  0  0  0  0  0
  -20.9352  -27.6560   23.1581 C   0  0  0  0  0  0  0  0  0  0  0  0
  -23.2038  -27.2133   24.2375 C   0  0  0  0  0  0  0  0  0  0  0  0
  -23.7053  -13.0914   19.9849 C   0  0  0  0  0  0  0  0  0  0  0  0
  -27.8416  -19.1451   20.3405 C   0  0  0  0  0  0  0  0  0  0  0  0
  -24.0284  -14.3918   20.4174 C   0  0  0  0  0  0  0  0  0  0  0  0
  -28.6898  -19.1919   21.4560 C   0  0  0  0  0  0  0  0  0  0  0  0
  -18.2303  -27.1412   22.7101 C   0  0  0  0  0  0  0  0  0  0  0  0
  -27.9486  -21.4625   21.9088 C   0  0  0  0  0  0  0  0  0  0  0  0
  -16.0411  -27.9675   22.4925 C   0  0  0  0  0  0  0  0  0  0  0  0
  -14.2923  -30.1409   22.4934 C   0  0  0  0  0  0  0  0  0  0  0  0
  -14.9928  -28.0187   23.4112 C   0  0  0  0  0  0  0  0  0  0  0  0
  -22.3324  -27.9218   23.3887 C   0  0  0  0  0  0  0  0  0  0  0  0
  -28.6115  -27.7006   18.8777 C   0  0  0  0  0  0  0  0  0  0  0  0
  -24.4107  -27.8554   24.1039 C   0  0  0  0  0  0  0  0  0  0  0  0
  -22.9455  -26.0764   25.0719 C   0  0  0  0  0  0  0  0  0  0  0  0
  -27.1997  -16.1398   21.1528 C   0  0  0  0  0  0  0  0  0  0  0  0
  -30.4226  -15.8155   20.9808 C   0  0  0  0  0  0  0  0  0  0  0  0
  -33.4947  -17.2956   21.1165 C   0  0  0  0  0  0  0  0  0  0  0  0
  -26.7977  -31.1825   19.7355 C   0  0  0  0  0  0  0  0  0  0  0  0
  -24.4675  -11.8827   20.4673 C   0  0  0  0  0  0  0  0  0  0  0  0
  -27.7954  -17.9196   19.4695 C   0  0  0  0  0  0  0  0  0  0  0  0
  -29.5548  -18.0216   21.8442 C   0  0  0  0  0  0  0  0  0  0  0  0
  -25.8273  -12.2216   21.0724 C   0  0  0  0  0  0  0  0  0  0  0  0
  -26.2793  -32.1491   23.1227 C   0  0  0  0  0  0  0  0  0  0  0  0
  -25.7030  -13.3920   22.0428 C   0  0  0  0  0  0  0  0  0  0  0  0
  -25.2876  -31.1114   23.6516 C   0  0  0  0  0  0  0  0  0  0  0  0
  -25.9951  -32.5105   21.6665 C   0  0  0  0  0  0  0  0  0  0  0  0
  -24.9301  -30.3227   21.2748 C   0  0  0  0  0  0  0  0  0  0  0  0
  -25.2110  -14.6543   21.3244 C   0  0  1  0  0  0  0  0  0  0  0  0
  -28.2382  -16.6533   20.1960 C   0  0  1  0  0  0  0  0  0  0  0  0
  -25.2107  -29.8849   22.7225 C   0  0  2  0  0  0  0  0  0  0  0  0
  -35.9439  -16.7668   20.9784 C   0  0  0  0  0  0  0  0  0  0  0  0
  -25.5995  -25.2993   21.5063 C   0  0  0  0  0  0  0  0  0  0  0  0
  -30.3333  -14.6746   23.8093 C   0  0  0  0  0  0  0  0  0  0  0  0
  -32.8025  -15.0573   23.9668 C   0  0  0  0  0  0  0  0  0  0  0  0
  -31.8921  -13.4882   22.2546 C   0  0  0  0  0  0  0  0  0  0  0  0
  -26.8205  -24.0547   24.1166 C   0  0  0  0  0  0  0  0  0  0  0  0
  -25.6326  -22.4115   22.6512 C   0  0  0  0  0  0  0  0  0  0  0  0
  -33.8538  -19.0295   18.7450 C   0  0  0  0  0  0  0  0  0  0  0  0
  -28.8098  -29.0067   18.2311 C   0  0  0  0  0  0  0  0  0  0  0  0
  -28.1351  -25.2508   21.5402 C   0  0  0  0  0  0  0  0  0  0  0  0
  -27.5033  -29.7312   17.8500 C   0  0  0  0  0  0  0  0  0  0  0  0
  -31.5667  -15.9771   21.9524 C   0  0  1  0  0  0  0  0  0  0  0  0
  -34.7046  -17.1906   20.2056 C   0  0  2  0  0  0  0  0  0  0  0  0
  -26.8402  -24.3945   21.5496 C   0  0  1  0  0  0  0  0  0  0  0  0
  -31.6310  -14.8208   22.9898 C   0  0  0  0  0  0  0  0  0  0  0  0
  -26.8178  -23.3824   22.7402 C   0  0  0  0  0  0  0  0  0  1  0  0
  -28.5341  -26.5541   18.1271 N   0  0  0  0  0  0  0  0  0  0  0  0
  -22.9344  -28.9364   22.7624 N   0  0  0  0  0  0  0  0  0  0  0  0
  -28.3177  -26.0708   20.2839 N   0  0  0  0  0  0  0  0  0  0  0  0
  -24.1970  -28.8701   23.2180 N   0  0  0  0  0  0  0  0  0  0  0  0
  -29.4698  -16.8440   20.9647 N   0  0  0  0  0  0  0  0  0  0  0  0
  -25.9365  -31.3034   20.8385 N   0  0  0  0  0  0  0  0  0  0  0  0
  -25.6231  -27.6453   24.6591 N   0  0  0  0  0  0  0  0  0  0  0  0
  -21.6501  -25.5418   25.0905 N   0  0  0  0  0  0  0  0  0  0  0  0
  -26.2919  -15.2676   20.5828 N   0  0  0  0  0  0  0  0  0  0  0  0
  -32.7721  -16.1216   21.1433 N   0  0  0  0  0  0  0  0  0  0  0  0
  -26.6815  -30.0044   19.0079 N   0  0  0  0  0  0  0  0  0  0  0  0
  -34.9808  -18.5039   19.5578 N   0  3  0  0  0  0  0  0  0  0  0  0
  -23.8331  -25.5603   25.7927 O   0  0  0  0  0  0  0  0  0  0  0  0
  -27.2212  -16.5064   22.3218 O   0  0  0  0  0  0  0  0  0  0  0  0
  -30.3799  -14.8171   20.2576 O   0  0  0  0  0  0  0  0  0  0  0  0
  -33.2204  -18.3159   21.7446 O   0  0  0  0  0  0  0  0  0  0  0  0
  -27.6136  -32.0572   19.4253 O   0  0  0  0  0  0  0  0  0  0  0  0
  -16.9106  -26.8897   22.4913 O   0  0  0  0  0  0  0  0  0  0  0  0
  -27.9997  -22.5854   22.6758 O   0  0  0  0  0  0  0  0  0  1  0  0
  -13.4535  -31.1853   22.4947 F   0  0  0  0  0  0  0  0  0  0  0  0
  -14.8214  -27.0275   24.2966 F   0  0  0  0  0  0  0  0  0  0  0  0
  1  2  1  0  0  0  0
  1  5  2  0  0  0  0
  2  6  2  0  0  0  0
  3  8  2  0  0  0  0
  3 17  1  0  0  0  0
  4  9  1  0  0  0  0
  4 17  2  0  0  0  0
  5 19  1  0  0  0  0
  6 21  1  0  0  0  0
  7 10  2  0  0  0  0
  7 20  1  0  0  0  0
  8 23  1  0  0  0  0
  9 23  2  0  0  0  0
 10 24  1  0  0  0  0
 11 12  2  0  0  0  0
 11 25  1  0  0  0  0
 12 26  1  0  0  0  0
 13 22  1  0  0  0  0
 13 24  2  0  0  0  0
 14 26  2  0  0  0  0
 14 27  1  0  0  0  0
 15 29  2  0  0  0  0
 15 66  1  0  0  0  0
 16 64  2  0  0  0  0
 16 66  1  0  0  0  0
 17 28  1  0  0  0  0
 18 28  1  0  0  0  0
 18 30  2  0  0  0  0
 18 31  1  0  0  0  0
 19 21  2  0  0  0  0
 19 36  1  0  0  0  0
 20 22  2  0  0  0  0
 20 37  1  0  0  0  0
 21 45  1  0  0  0  0
 22 38  1  0  0  0  0
 23 81  1  0  0  0  0
 24 82  1  0  0  0  0
 25 27  2  0  0  0  0
 25 81  1  0  0  0  0
 26 83  1  0  0  0  0
 27 84  1  0  0  0  0
 28 65  2  0  0  0  0
 29 56  1  0  0  0  0
 29 64  1  0  0  0  0
 30 67  1  0  0  0  0
 30 70  1  0  0  0  0
 31 71  1  0  0  0  0
 31 76  2  0  0  0  0
 32 46  1  0  0  0  0
 32 72  1  0  0  0  0
 32 77  2  0  0  0  0
 33 59  1  0  0  0  0
 33 68  1  0  0  0  0
 33 78  2  0  0  0  0
 34 60  1  0  0  0  0
 34 73  1  0  0  0  0
 34 79  2  0  0  0  0
 35 69  1  0  0  0  0
 35 74  1  0  0  0  0
 35 80  2  0  0  0  0
 36 39  1  0  0  0  0
 37 46  1  0  0  0  0
 38 68  1  0  0  0  0
 39 41  1  0  0  0  0
 40 42  1  0  0  0  0
 40 43  1  0  0  0  0
 41 45  1  0  0  0  0
 42 47  1  0  0  0  0
 43 69  1  0  0  0  0
 44 47  1  0  0  0  0
 44 69  1  0  0  0  0
 45 72  1  0  0  0  0
 46 68  1  0  0  0  0
 47 67  1  0  0  0  0
 48 60  1  0  0  0  0
 49 61  1  0  0  0  0
 50 62  1  0  0  0  0
 51 62  1  0  0  0  0
 52 62  1  0  0  0  0
 53 63  1  0  0  0  0
 54 63  1  0  0  0  0
 55 75  1  0  0  0  0
 56 58  1  0  0  0  0
 57 61  1  0  0  0  0
 57 66  1  0  0  0  0
 58 74  1  0  0  0  0
 59 62  1  0  0  0  0
 59 73  1  0  0  0  0
 60 75  1  0  0  0  0
 61 63  1  0  0  0  0
 63 82  1  0  0  0  0
 65 67  1  0  0  0  0
M  CHG  1  75   1
M  ISO  4  35 100  63 101  74 100  82 101
M  END
> <Batch ID>
0087

> <Smiles>
CNC(C)C(=O)NC(C(=O)N1Cc2cc([101O:1][101C:1](C)(C)C(C)Cn3cnc(CC[100NH:0][100C:0](=O)N4CCCC(n5nc(-c6ccc(Oc7ccc(F)cc7F)cc6)c(C(N)=O)c5N)C4)c3)ccc2CC1C(=O)NC1CCCc2ccccc21)C(C)(C)C

> <Shape>
0.226

> <Color>
0.046

> <Negative vol penalty>
0.000

$$$$

  -OEChem-04052319013D

 88 96  0     1  0  0  0  0  0999 V2000
  -27.4991  -33.1173   20.5825 C   0  0  0  0  0  0  0  0  0  0  0  0
  -28.2290  -32.2233   21.3593 C   0  0  0  0  0  0  0  0  0  0  0  0
  -23.5720   -9.6020   21.2292 C   0  0  0  0  0  0  0  0  0  0  0  0
  -24.2431  -10.5175   23.3619 C   0  0  0  0  0  0  0  0  0  0  0  0
  -26.1806  -32.8238   20.2372 C   0  0  0  0  0  0  0  0  0  0  0  0
  -27.6403  -31.0357   21.7923 C   0  0  0  0  0  0  0  0  0  0  0  0
  -29.2576  -24.2120   23.2544 C   0  0  0  0  0  0  0  0  0  0  0  0
  -23.0042   -8.5058   21.8783 C   0  0  0  0  0  0  0  0  0  0  0  0
  -23.6753   -9.4213   24.0111 C   0  0  0  0  0  0  0  0  0  0  0  0
  -29.1196  -23.2660   24.2693 C   0  0  0  0  0  0  0  0  0  0  0  0
  -20.5875   -8.3915   24.9199 C   0  0  0  0  0  0  0  0  0  0  0  0
  -19.8058   -8.6417   26.0477 C   0  0  0  0  0  0  0  0  0  0  0  0
  -26.8607  -22.8277   23.5453 C   0  0  0  0  0  0  0  0  0  0  0  0
  -29.7567  -15.9628   25.1263 C   0  0  0  0  0  0  0  0  0  0  0  0
  -21.3018   -7.2942   27.3833 C   0  0  0  0  0  0  0  0  0  0  0  0
  -24.1915  -10.6079   21.9709 C   0  0  0  0  0  0  0  0  0  0  0  0
  -24.1488  -12.9569   20.9770 C   0  0  0  0  0  0  0  0  0  0  0  0
  -25.5786  -31.6275   20.6581 C   0  0  0  0  0  0  0  0  0  0  0  0
  -28.1927  -24.4812   22.3828 C   0  0  0  0  0  0  0  0  0  0  0  0
  -26.3120  -30.7265   21.4535 C   0  0  0  0  0  0  0  0  0  0  0  0
  -26.9885  -23.7757   22.5186 C   0  0  0  0  0  0  0  0  0  0  0  0
  -28.8882  -16.4788   26.0817 C   0  0  0  0  0  0  0  0  0  0  0  0
  -27.5288  -16.1979   26.0013 C   0  0  0  0  0  0  0  0  0  0  0  0
  -23.0558   -8.4154   23.2693 C   0  0  0  0  0  0  0  0  0  0  0  0
  -27.9201  -22.5758   24.4167 C   0  0  0  0  0  0  0  0  0  0  0  0
  -21.7263   -7.5927   25.0237 C   0  0  0  0  0  0  0  0  0  0  0  0
  -20.1630   -8.0930   27.2794 C   0  0  0  0  0  0  0  0  0  0  0  0
  -22.0834   -7.0441   26.2554 C   0  0  0  0  0  0  0  0  0  0  0  0
  -24.7787  -11.7403   21.3008 C   0  0  0  0  0  0  0  0  0  0  0  0
  -29.2200  -15.1778   24.1186 C   0  0  0  0  0  0  0  0  0  0  0  0
  -27.0918  -15.4025   24.9543 C   0  0  0  0  0  0  0  0  0  0  0  0
  -25.1259  -13.6942   20.3540 C   0  0  0  0  0  0  0  0  0  0  0  0
  -22.8010  -13.3826   21.2179 C   0  0  0  0  0  0  0  0  0  0  0  0
  -26.4331  -27.0428   21.7150 C   0  0  0  0  0  0  0  0  0  0  0  0
  -25.2035  -25.1163   19.4130 C   0  0  0  0  0  0  0  0  0  0  0  0
  -30.8559  -14.5922   20.6829 C   0  0  0  0  0  0  0  0  0  0  0  0
  -24.5901  -21.9447   18.3123 C   0  0  0  0  0  0  0  0  0  0  0  0
  -24.1354  -31.3758   20.2995 C   0  0  0  0  0  0  0  0  0  0  0  0
  -28.3665  -25.4854   21.2765 C   0  0  0  0  0  0  0  0  0  0  0  0
  -25.8219  -24.0132   21.5962 C   0  0  0  0  0  0  0  0  0  0  0  0
  -23.7064  -29.9225   20.4846 C   0  0  0  0  0  0  0  0  0  0  0  0
  -29.3719  -12.6434   18.0676 C   0  0  0  0  0  0  0  0  0  0  0  0
  -24.1858  -29.3918   21.8319 C   0  0  0  0  0  0  0  0  0  0  0  0
  -27.9867  -12.3027   18.6156 C   0  0  0  0  0  0  0  0  0  0  0  0
  -30.4179  -12.6802   19.1773 C   0  0  0  0  0  0  0  0  0  0  0  0
  -28.6929  -13.2640   20.8522 C   0  0  0  0  0  0  0  0  0  0  0  0
  -25.7164  -29.4165   21.9216 C   0  0  1  0  0  0  0  0  0  0  0  0
  -27.0433  -26.0489   20.7676 C   0  0  1  0  0  0  0  0  0  0  0  0
  -27.6006  -13.2467   19.7681 C   0  0  2  0  0  0  0  0  0  0  0  0
  -26.5738  -16.7357   27.0133 C   0  0  0  0  0  0  0  0  0  0  0  0
  -25.3804  -13.5521   24.9273 C   0  0  0  0  0  0  0  0  0  0  0  0
  -25.0366  -15.6079   23.5092 C   0  0  0  0  0  0  0  0  0  0  0  0
  -23.5353  -20.6880   16.4136 C   0  0  0  0  0  0  0  0  0  0  0  0
  -31.4538  -16.5118   22.0852 C   0  0  0  0  0  0  0  0  0  0  0  0
  -29.0873  -16.1947   21.3451 C   0  0  0  0  0  0  0  0  0  0  0  0
  -22.4368  -25.7636   20.5249 C   0  0  0  0  0  0  0  0  0  0  0  0
  -21.5432  -23.8005   19.2536 C   0  0  0  0  0  0  0  0  0  0  0  0
  -22.5724  -25.7142   18.0281 C   0  0  0  0  0  0  0  0  0  0  0  0
  -27.1499  -20.6413   17.6001 C   0  0  0  0  0  0  0  0  0  0  0  0
  -29.4435  -17.3390   27.1887 C   0  0  0  0  0  0  0  0  0  0  0  0
  -30.1225  -14.6060   23.0767 C   0  0  0  0  0  0  0  0  0  0  0  0
  -29.7906  -18.7658   26.7493 C   0  0  0  0  0  0  0  0  0  0  0  0
  -28.5714  -19.5612   26.2808 C   0  0  0  0  0  0  0  0  0  0  0  0
  -28.9602  -20.9579   25.8154 C   0  0  0  0  0  0  0  0  0  1  0  0
  -25.6432  -15.0649   24.8159 C   0  0  0  0  0  0  0  0  0  0  0  0
  -24.0550  -24.1395   19.3375 C   0  0  1  0  0  0  0  0  0  0  0  0
  -24.8211  -21.2836   16.9655 C   0  0  2  0  0  0  0  0  0  0  0  0
  -30.3586  -15.4702   21.8035 C   0  0  0  0  0  0  0  0  0  0  0  0
  -22.6730  -24.8511   19.3048 C   0  0  0  0  0  0  0  0  0  0  0  0
  -26.0569  -11.7027   20.9153 N   0  0  0  0  0  0  0  0  0  0  0  0
  -27.9053  -14.8833   24.0075 N   0  0  0  0  0  0  0  0  0  0  0  0
  -26.2382  -12.9050   20.3427 N   0  0  0  0  0  0  0  0  0  0  0  0
  -26.0388  -25.0094   20.5340 N   0  0  0  0  0  0  0  0  0  0  0  0
  -30.0038  -13.5705   20.2633 N   0  0  0  0  0  0  0  0  0  0  0  0
  -25.1336  -14.9341   19.8202 N   0  0  0  0  0  0  0  0  0  0  0  0
  -21.9284  -12.5009   21.8701 N   0  0  0  0  0  0  0  0  0  0  0  0
  -26.2839  -28.3092   21.1826 N   0  0  0  0  0  0  0  0  0  0  0  0
  -24.3171  -23.2899   18.1809 N   0  0  0  0  0  0  0  0  0  0  0  0
  -25.8288  -20.1927   17.0900 N   0  3  0  0  0  0  0  0  0  0  0  0
  -22.3784  -14.5051   20.8506 O   0  0  0  0  0  0  0  0  0  0  0  0
  -26.1195  -26.6867   22.8448 O   0  0  0  0  0  0  0  0  0  0  0  0
  -25.3582  -25.9391   18.5071 O   0  0  0  0  0  0  0  0  0  0  0  0
  -31.9674  -14.8113   20.1943 O   0  0  0  0  0  0  0  0  0  0  0  0
  -24.6426  -21.3287   19.3745 O   0  0  0  0  0  0  0  0  0  0  0  0
  -22.5017   -7.3459   23.9032 O   0  0  0  0  0  0  0  0  0  0  0  0
  -27.7825  -21.6524   25.4068 O   0  0  0  0  0  0  0  0  0  1  0  0
  -19.4132   -8.3346   28.3627 F   0  0  0  0  0  0  0  0  0  0  0  0
  -23.1770   -6.2768   26.3615 F   0  0  0  0  0  0  0  0  0  0  0  0
  1  2  1  0  0  0  0
  1  5  2  0  0  0  0
  2  6  2  0  0  0  0
  3  8  2  0  0  0  0
  3 16  1  0  0  0  0
  4  9  1  0  0  0  0
  4 16  2  0  0  0  0
  5 18  1  0  0  0  0
  6 20  1  0  0  0  0
  7 10  2  0  0  0  0
  7 19  1  0  0  0  0
  8 24  1  0  0  0  0
  9 24  2  0  0  0  0
 10 25  1  0  0  0  0
 11 12  2  0  0  0  0
 11 26  1  0  0  0  0
 12 27  1  0  0  0  0
 13 21  1  0  0  0  0
 13 25  2  0  0  0  0
 14 22  1  0  0  0  0
 14 30  2  0  0  0  0
 15 27  2  0  0  0  0
 15 28  1  0  0  0  0
 16 29  1  0  0  0  0
 17 29  1  0  0  0  0
 17 32  2  0  0  0  0
 17 33  1  0  0  0  0
 18 20  2  0  0  0  0
 18 38  1  0  0  0  0
 19 21  2  0  0  0  0
 19 39  1  0  0  0  0
 20 47  1  0  0  0  0
 21 40  1  0  0  0  0
 22 23  2  0  0  0  0
 22 60  1  0  0  0  0
 23 31  1  0  0  0  0
 23 50  1  0  0  0  0
 24 85  1  0  0  0  0
 25 86  1  0  0  0  0
 26 28  2  0  0  0  0
 26 85  1  0  0  0  0
 27 87  1  0  0  0  0
 28 88  1  0  0  0  0
 29 70  2  0  0  0  0
 30 61  1  0  0  0  0
 30 71  1  0  0  0  0
 31 65  1  0  0  0  0
 31 71  2  0  0  0  0
 32 72  1  0  0  0  0
 32 75  1  0  0  0  0
 33 76  1  0  0  0  0
 33 80  2  0  0  0  0
 34 48  1  0  0  0  0
 34 77  1  0  0  0  0
 34 81  2  0  0  0  0
 35 66  1  0  0  0  0
 35 73  1  0  0  0  0
 35 82  2  0  0  0  0
 36 68  1  0  0  0  0
 36 74  1  0  0  0  0
 36 83  2  0  0  0  0
 37 67  1  0  0  0  0
 37 78  1  0  0  0  0
 37 84  2  0  0  0  0
 38 41  1  0  0  0  0
 39 48  1  0  0  0  0
 40 73  1  0  0  0  0
 41 43  1  0  0  0  0
 42 44  1  0  0  0  0
 42 45  1  0  0  0  0
 43 47  1  0  0  0  0
 44 49  1  0  0  0  0
 45 74  1  0  0  0  0
 46 49  1  0  0  0  0
 46 74  1  0  0  0  0
 47 77  1  0  0  0  0
 48 73  1  0  0  0  0
 49 72  1  0  0  0  0
 51 65  1  0  0  0  0
 52 65  1  0  0  0  0
 53 67  1  0  0  0  0
 54 68  1  0  0  0  0
 55 68  1  0  0  0  0
 56 69  1  0  0  0  0
 57 69  1  0  0  0  0
 58 69  1  0  0  0  0
 59 79  1  0  0  0  0
 60 62  1  0  0  0  0
 61 68  1  0  0  0  0
 62 63  1  0  0  0  0
 63 64  1  0  0  0  0
 64 86  1  0  0  0  0
 66 69  1  0  0  0  0
 66 78  1  0  0  0  0
 67 79  1  0  0  0  0
 70 72  1  0  0  0  0
M  CHG  1  79   1
M  ISO  4  36 100  64 101  68 100  86 101
M  END
> <Batch ID>
0087

> <Smiles>
CNC(C)C(=O)NC(C(=O)N1Cc2cc([101O:1][101CH2:1]CCCc3cc(C[100C:0](C)(C)[100C:0](=O)N4CCCC(n5nc(-c6ccc(Oc7ccc(F)cc7F)cc6)c(C(N)=O)c5N)C4)nc(C(C)C)c3C)ccc2CC1C(=O)NC1CCCc2ccccc21)C(C)(C)C

> <Shape>
0.198

> <Color>
0.162

> <Negative vol penalty>
0.000

$$$$

  -OEChem-04052319013D

 84 92  0     1  0  0  0  0  0999 V2000
  -24.0743   -8.8208   24.1210 C   0  0  0  0  0  0  0  0  0  0  0  0
  -24.7744   -9.6440   23.2448 C   0  0  0  0  0  0  0  0  0  0  0  0
  -22.3246  -28.2175   20.9389 C   0  0  0  0  0  0  0  0  0  0  0  0
  -23.4828  -27.3547   22.8758 C   0  0  0  0  0  0  0  0  0  0  0  0
  -22.6897   -8.9404   24.2320 C   0  0  0  0  0  0  0  0  0  0  0  0
  -24.0899  -10.5865   22.4782 C   0  0  0  0  0  0  0  0  0  0  0  0
  -26.3876  -15.0992   22.4412 C   0  0  0  0  0  0  0  0  0  0  0  0
  -21.1030  -28.0272   21.5846 C   0  0  0  0  0  0  0  0  0  0  0  0
  -22.2611  -27.1645   23.5215 C   0  0  0  0  0  0  0  0  0  0  0  0
  -27.4985  -15.2413   21.6109 C   0  0  0  0  0  0  0  0  0  0  0  0
  -19.2616  -29.5994   23.9448 C   0  0  0  0  0  0  0  0  0  0  0  0
  -18.3249  -30.6307   23.8768 C   0  0  0  0  0  0  0  0  0  0  0  0
  -26.1205  -16.3429   19.9657 C   0  0  0  0  0  0  0  0  0  0  0  0
  -16.7621  -29.1398   22.7942 C   0  0  0  0  0  0  0  0  0  0  0  0
  -30.5979  -20.3566   20.1151 C   0  0  0  0  0  0  0  0  0  0  0  0
  -23.5146  -27.8812   21.5845 C   0  0  0  0  0  0  0  0  0  0  0  0
  -25.5846  -29.2294   20.9483 C   0  0  0  0  0  0  0  0  0  0  0  0
  -21.9890   -9.8914   23.4735 C   0  0  0  0  0  0  0  0  0  0  0  0
  -25.1304  -15.5690   22.0347 C   0  0  0  0  0  0  0  0  0  0  0  0
  -22.6944  -10.7180   22.5782 C   0  0  0  0  0  0  0  0  0  0  0  0
  -24.9957  -16.2078   20.7938 C   0  0  0  0  0  0  0  0  0  0  0  0
  -21.0712  -27.5008   22.8759 C   0  0  0  0  0  0  0  0  0  0  0  0
  -27.3645  -15.8606   20.3718 C   0  0  0  0  0  0  0  0  0  0  0  0
  -18.9486  -28.3383   23.4374 C   0  0  0  0  0  0  0  0  0  0  0  0
  -17.0752  -30.4009   23.3015 C   0  0  0  0  0  0  0  0  0  0  0  0
  -17.6988  -28.1085   22.8621 C   0  0  0  0  0  0  0  0  0  0  0  0
  -24.7768  -28.0769   20.9177 C   0  0  0  0  0  0  0  0  0  0  0  0
  -30.1165  -19.1016   20.4275 C   0  0  0  0  0  0  0  0  0  0  0  0
  -30.0357  -21.4034   20.8167 C   0  0  0  0  0  0  0  0  0  0  0  0
  -26.6652  -28.9123   20.1620 C   0  0  0  0  0  0  0  0  0  0  0  0
  -28.6917  -19.9764   21.9675 C   0  0  0  0  0  0  0  0  0  0  0  0
  -25.3769  -30.4752   21.6269 C   0  0  0  0  0  0  0  0  0  0  0  0
  -22.3076  -14.2214   21.4694 C   0  0  0  0  0  0  0  0  0  0  0  0
  -21.3448  -17.2995   21.1223 C   0  0  0  0  0  0  0  0  0  0  0  0
  -22.1771  -20.5337   20.4192 C   0  0  0  0  0  0  0  0  0  0  0  0
  -29.2089  -23.7122   18.6325 C   0  0  0  0  0  0  0  0  0  0  0  0
  -20.4868   -9.9513   23.5927 C   0  0  0  0  0  0  0  0  0  0  0  0
  -23.9473  -15.4319   22.9533 C   0  0  0  0  0  0  0  0  0  0  0  0
  -23.6721  -16.7476   20.3193 C   0  0  0  0  0  0  0  0  0  0  0  0
  -19.8809  -11.2305   23.0211 C   0  0  0  0  0  0  0  0  0  0  0  0
  -27.9098  -26.1896   16.4299 C   0  0  0  0  0  0  0  0  0  0  0  0
  -20.4776  -11.5381   21.6513 C   0  0  0  0  0  0  0  0  0  0  0  0
  -27.0325  -27.0582   17.3331 C   0  0  0  0  0  0  0  0  0  0  0  0
  -27.8431  -24.7163   16.8262 C   0  0  0  0  0  0  0  0  0  0  0  0
  -27.2656  -25.3108   19.1472 C   0  0  0  0  0  0  0  0  0  0  0  0
  -21.9905  -11.7693   21.7479 C   0  0  1  0  0  0  0  0  0  0  0  0
  -22.6112  -15.4876   22.2191 C   0  0  1  0  0  0  0  0  0  0  0  0
  -27.3436  -26.8122   18.8217 C   0  0  2  0  0  0  0  0  0  0  0  0
  -26.2655  -19.4978   22.3813 C   0  0  0  0  0  0  0  0  0  0  0  0
  -31.0937  -23.4764   21.7885 C   0  0  0  0  0  0  0  0  0  0  0  0
  -21.8761  -23.0112   20.1575 C   0  0  0  0  0  0  0  0  0  0  0  0
  -20.2187  -16.5089   18.3989 C   0  0  0  0  0  0  0  0  0  0  0  0
  -20.0967  -18.9418   17.8208 C   0  0  0  0  0  0  0  0  0  0  0  0
  -18.7582  -18.0455   19.7255 C   0  0  0  0  0  0  0  0  0  0  0  0
  -22.8646  -21.0338   23.2540 C   0  0  0  0  0  0  0  0  0  0  0  0
  -30.6704  -17.8944   19.7138 C   0  0  0  0  0  0  0  0  0  0  0  0
  -27.6356  -19.7656   22.9990 C   0  0  0  0  0  0  0  0  0  0  0  0
  -29.9114  -17.5327   18.4352 C   0  0  0  0  0  0  0  0  0  0  0  0
  -28.4632  -17.1291   18.6866 C   0  0  0  0  0  0  0  0  0  1  0  0
  -30.4938  -22.7979   20.5488 C   0  0  2  0  0  0  0  0  0  0  0  0
  -21.2645  -18.2710   19.9696 C   0  0  1  0  0  0  0  0  0  0  0  0
  -21.8398  -21.8362   21.1222 C   0  0  2  0  0  0  0  0  0  0  0  0
  -20.1092  -17.9300   18.9866 C   0  0  0  0  0  0  0  0  0  0  0  0
  -25.2994  -27.1006   20.1710 N   0  0  0  0  0  0  0  0  0  0  0  0
  -29.1603  -18.8742   21.3518 N   0  0  0  0  0  0  0  0  0  0  0  0
  -29.0768  -21.2489   21.7532 N   0  0  0  0  0  0  0  0  0  0  0  0
  -26.4472  -27.6389   19.7250 N   0  0  0  0  0  0  0  0  0  0  0  0
  -22.5437  -16.5839   21.2507 N   0  0  0  0  0  0  0  0  0  0  0  0
  -28.1499  -24.5516   18.2491 N   0  0  0  0  0  0  0  0  0  0  0  0
  -27.7710  -29.6014   19.8086 N   0  0  0  0  0  0  0  0  0  0  0  0
  -24.2133  -30.6333   22.3921 N   0  0  0  0  0  0  0  0  0  0  0  0
  -22.2675  -13.0923   22.2650 N   0  0  0  0  0  0  0  0  0  0  0  0
  -21.1717  -19.6009   20.5623 N   0  0  0  0  0  0  0  0  0  0  0  0
  -29.4362  -23.6171   20.0000 N   0  0  0  0  0  0  0  0  0  0  0  0
  -22.8127  -22.0992   22.2201 N   0  3  0  0  0  0  0  0  0  0  0  0
  -26.1907  -31.4262   21.5435 O   0  0  0  0  0  0  0  0  0  0  0  0
  -22.1220  -14.2657   20.2589 O   0  0  0  0  0  0  0  0  0  0  0  0
  -20.3821  -17.1852   21.8850 O   0  0  0  0  0  0  0  0  0  0  0  0
  -23.2257  -20.3622   19.8015 O   0  0  0  0  0  0  0  0  0  0  0  0
  -29.9039  -23.0975   17.8164 O   0  0  0  0  0  0  0  0  0  0  0  0
  -19.8793  -27.3152   23.5064 O   0  0  0  0  0  0  0  0  0  0  0  0
  -28.4471  -16.0000   19.5591 O   0  0  0  0  0  0  0  0  0  1  0  0
  -16.1752  -31.3909   23.2377 F   0  0  0  0  0  0  0  0  0  0  0  0
  -17.3919  -26.8988   22.3741 F   0  0  0  0  0  0  0  0  0  0  0  0
  1  2  1  0  0  0  0
  1  5  2  0  0  0  0
  2  6  2  0  0  0  0
  3  8  2  0  0  0  0
  3 16  1  0  0  0  0
  4  9  1  0  0  0  0
  4 16  2  0  0  0  0
  5 18  1  0  0  0  0
  6 20  1  0  0  0  0
  7 10  2  0  0  0  0
  7 19  1  0  0  0  0
  8 22  1  0  0  0  0
  9 22  2  0  0  0  0
 10 23  1  0  0  0  0
 11 12  2  0  0  0  0
 11 24  1  0  0  0  0
 12 25  1  0  0  0  0
 13 21  1  0  0  0  0
 13 23  2  0  0  0  0
 14 25  2  0  0  0  0
 14 26  1  0  0  0  0
 15 28  1  0  0  0  0
 15 29  2  0  0  0  0
 16 27  1  0  0  0  0
 17 27  1  0  0  0  0
 17 30  2  0  0  0  0
 17 32  1  0  0  0  0
 18 20  2  0  0  0  0
 18 37  1  0  0  0  0
 19 21  2  0  0  0  0
 19 38  1  0  0  0  0
 20 46  1  0  0  0  0
 21 39  1  0  0  0  0
 22 81  1  0  0  0  0
 23 82  1  0  0  0  0
 24 26  2  0  0  0  0
 24 81  1  0  0  0  0
 25 83  1  0  0  0  0
 26 84  1  0  0  0  0
 27 64  2  0  0  0  0
 28 56  1  0  0  0  0
 28 65  2  0  0  0  0
 29 60  1  0  0  0  0
 29 66  1  0  0  0  0
 30 67  1  0  0  0  0
 30 70  1  0  0  0  0
 31 57  1  0  0  0  0
 31 65  1  0  0  0  0
 31 66  2  0  0  0  0
 32 71  1  0  0  0  0
 32 76  2  0  0  0  0
 33 47  1  0  0  0  0
 33 72  1  0  0  0  0
 33 77  2  0  0  0  0
 34 61  1  0  0  0  0
 34 68  1  0  0  0  0
 34 78  2  0  0  0  0
 35 62  1  0  0  0  0
 35 73  1  0  0  0  0
 35 79  2  0  0  0  0
 36 69  1  0  0  0  0
 36 74  1  0  0  0  0
 36 80  2  0  0  0  0
 37 40  1  0  0  0  0
 38 47  1  0  0  0  0
 39 68  1  0  0  0  0
 40 42  1  0  0  0  0
 41 43  1  0  0  0  0
 41 44  1  0  0  0  0
 42 46  1  0  0  0  0
 43 48  1  0  0  0  0
 44 69  1  0  0  0  0
 45 48  1  0  0  0  0
 45 69  1  0  0  0  0
 46 72  1  0  0  0  0
 47 68  1  0  0  0  0
 48 67  1  0  0  0  0
 49 57  1  0  0  0  0
 50 60  1  0  0  0  0
 51 62  1  0  0  0  0
 52 63  1  0  0  0  0
 53 63  1  0  0  0  0
 54 63  1  0  0  0  0
 55 75  1  0  0  0  0
 56 58  1  0  0  0  0
 58 59  1  0  0  0  0
 59 82  1  0  0  0  0
 60 74  1  0  0  0  0
 61 63  1  0  0  0  0
 61 73  1  0  0  0  0
 62 75  1  0  0  0  0
 64 67  1  0  0  0  0
M  CHG  1  75   1
M  ISO  4  36 100  59 101  74 100  82 101
M  END
> <Batch ID>
0087

> <Smiles>
CCc1nc(CC[101CH2:1][101O:1]c2ccc3c(c2)CN(C(=O)C(NC(=O)C(C)NC)C(C)(C)C)C(C(=O)NC2CCCc4ccccc42)C3)cc(C(C)[100NH:0][100C:0](=O)N2CCCC(n3nc(-c4ccc(Oc5ccc(F)cc5F)cc4)c(C(N)=O)c3N)C2)n1

> <Shape>
0.238

> <Color>
0.067

> <Negative vol penalty>
0.000

$$$$

  -OEChem-04052319013D

 84 92  0     1  0  0  0  0  0999 V2000
  -17.1518  -26.4945   21.5463 C   0  0  0  0  0  0  0  0  0  0  0  0
  -18.4085  -26.4113   20.9554 C   0  0  0  0  0  0  0  0  0  0  0  0
  -25.1440  -13.3654   19.6746 C   0  0  0  0  0  0  0  0  0  0  0  0
  -27.3981  -12.7724   20.3106 C   0  0  0  0  0  0  0  0  0  0  0  0
  -16.9315  -27.3928   22.5896 C   0  0  0  0  0  0  0  0  0  0  0  0
  -19.4454  -27.2272   21.4067 C   0  0  0  0  0  0  0  0  0  0  0  0
  -23.8012  -24.7047   21.9623 C   0  0  0  0  0  0  0  0  0  0  0  0
  -24.7760  -12.0210   19.7253 C   0  0  0  0  0  0  0  0  0  0  0  0
  -27.0300  -11.4280   20.3615 C   0  0  0  0  0  0  0  0  0  0  0  0
  -24.5301  -24.4304   20.8060 C   0  0  0  0  0  0  0  0  0  0  0  0
  -23.1537   -8.7829   20.0389 C   0  0  0  0  0  0  0  0  0  0  0  0
  -21.9534   -8.4627   20.6731 C   0  0  0  0  0  0  0  0  0  0  0  0
  -25.9795  -26.2987   21.2836 C   0  0  0  0  0  0  0  0  0  0  0  0
  -28.0804  -22.3936   21.2688 C   0  0  0  0  0  0  0  0  0  0  0  0
  -22.7840   -9.4213   22.7294 C   0  0  0  0  0  0  0  0  0  0  0  0
  -30.7777  -22.1610   21.6092 C   0  0  0  0  0  0  0  0  0  0  0  0
  -26.4551  -13.7412   19.9671 C   0  0  0  0  0  0  0  0  0  0  0  0
  -26.7860  -16.0656   20.9648 C   0  0  0  0  0  0  0  0  0  0  0  0
  -17.9687  -28.2133   23.0604 C   0  0  0  0  0  0  0  0  0  0  0  0
  -24.1499  -25.7865   22.7837 C   0  0  0  0  0  0  0  0  0  0  0  0
  -19.2383  -28.1383   22.4564 C   0  0  0  0  0  0  0  0  0  0  0  0
  -25.2549  -26.5830   22.4512 C   0  0  0  0  0  0  0  0  0  0  0  0
  -28.9234  -22.5702   20.1773 C   0  0  0  0  0  0  0  0  0  0  0  0
  -30.2990  -22.4534   20.3423 C   0  0  0  0  0  0  0  0  0  0  0  0
  -25.7189  -11.0523   20.0688 C   0  0  0  0  0  0  0  0  0  0  0  0
  -25.6176  -25.2292   20.4649 C   0  0  0  0  0  0  0  0  0  0  0  0
  -24.1693   -9.4223   20.7500 C   0  0  0  0  0  0  0  0  0  0  0  0
  -21.7685   -8.7819   22.0183 C   0  0  0  0  0  0  0  0  0  0  0  0
  -23.9844   -9.7415   22.0952 C   0  0  0  0  0  0  0  0  0  0  0  0
  -26.8361  -15.1298   19.9143 C   0  0  0  0  0  0  0  0  0  0  0  0
  -28.6583  -22.1036   22.4942 C   0  0  0  0  0  0  0  0  0  0  0  0
  -27.2509  -17.2319   20.4080 C   0  0  0  0  0  0  0  0  0  0  0  0
  -26.3577  -15.8957   22.3225 C   0  0  0  0  0  0  0  0  0  0  0  0
  -22.7002  -28.4603   23.7072 C   0  0  0  0  0  0  0  0  0  0  0  0
  -25.3262  -28.7737   25.5856 C   0  0  0  0  0  0  0  0  0  0  0  0
  -28.6051  -28.0022   26.1337 C   0  0  0  0  0  0  0  0  0  0  0  0
  -30.9166  -19.9812   17.2222 C   0  0  0  0  0  0  0  0  0  0  0  0
  -17.6700  -29.2025   24.1590 C   0  0  0  0  0  0  0  0  0  0  0  0
  -23.3698  -26.0529   24.0418 C   0  0  0  0  0  0  0  0  0  0  0  0
  -25.6827  -27.7440   23.3101 C   0  0  0  0  0  0  0  0  0  0  0  0
  -18.9211  -29.7653   24.8285 C   0  0  0  0  0  0  0  0  0  0  0  0
  -28.1560  -18.4440   15.5812 C   0  0  0  0  0  0  0  0  0  0  0  0
  -19.9444  -30.1872   23.7789 C   0  0  0  0  0  0  0  0  0  0  0  0
  -27.5667  -17.5179   16.6465 C   0  0  0  0  0  0  0  0  0  0  0  0
  -29.6796  -18.5037   15.6655 C   0  0  0  0  0  0  0  0  0  0  0  0
  -29.6237  -17.9265   18.0608 C   0  0  0  0  0  0  0  0  0  0  0  0
  -20.3949  -28.9890   22.9346 C   0  0  1  0  0  0  0  0  0  0  0  0
  -23.4997  -27.4917   24.5320 C   0  0  1  0  0  0  0  0  0  0  0  0
  -28.0863  -17.8773   18.0515 C   0  0  2  0  0  0  0  0  0  0  0  0
  -27.7842  -21.9079   23.6877 C   0  0  0  0  0  0  0  0  0  0  0  0
  -32.1875  -23.8380   19.4255 C   0  0  0  0  0  0  0  0  0  0  0  0
  -30.4906  -28.4370   27.7315 C   0  0  0  0  0  0  0  0  0  0  0  0
  -25.6993  -31.5538   24.3850 C   0  0  0  0  0  0  0  0  0  0  0  0
  -28.0423  -31.5442   25.2673 C   0  0  0  0  0  0  0  0  0  0  0  0
  -26.1159  -31.4163   26.8471 C   0  0  0  0  0  0  0  0  0  0  0  0
  -28.8357  -25.1334   26.8238 C   0  0  0  0  0  0  0  0  0  0  0  0
  -28.3260  -22.8865   18.8294 C   0  0  0  0  0  0  0  0  0  0  0  0
  -28.4642  -24.3554   18.4237 C   0  0  0  0  0  0  0  0  0  0  0  0
  -32.0952  -21.3732   18.9052 C   0  0  0  0  0  0  0  0  0  0  0  0
  -27.7149  -25.3097   19.3464 C   0  0  0  0  0  0  0  0  0  1  0  0
  -31.2469  -22.6333   19.2078 C   0  0  1  0  0  0  0  0  0  0  0  0
  -26.6872  -29.4064   25.4236 C   0  0  1  0  0  0  0  0  0  0  0  0
  -29.3321  -27.5184   27.3754 C   0  0  2  0  0  0  0  0  0  0  0  0
  -26.6272  -30.9596   25.4633 C   0  0  0  0  0  0  0  0  0  0  0  0
  -29.9900  -21.9824   22.6933 N   0  0  0  0  0  0  0  0  0  0  0  0
  -27.2962  -15.6562   18.7762 N   0  0  0  0  0  0  0  0  0  0  0  0
  -27.5395  -16.9355   19.1084 N   0  0  0  0  0  0  0  0  0  0  0  0
  -24.8844  -27.9678   24.5267 N   0  0  0  0  0  0  0  0  0  0  0  0
  -30.1068  -18.8509   17.0230 N   0  0  0  0  0  0  0  0  0  0  0  0
  -27.4367  -18.4720   20.9082 N   0  0  0  0  0  0  0  0  0  0  0  0
  -25.9097  -14.6313   22.7285 N   0  0  0  0  0  0  0  0  0  0  0  0
  -21.3470  -28.1831   23.6685 N   0  0  0  0  0  0  0  0  0  0  0  0
  -27.5373  -28.8148   26.4511 N   0  0  0  0  0  0  0  0  0  0  0  0
  -31.2711  -20.2426   18.5400 N   0  0  0  0  0  0  0  0  0  0  0  0
  -29.8702  -26.1456   27.1588 N   0  3  0  0  0  0  0  0  0  0  0  0
  -26.3564  -16.8414   23.1467 O   0  0  0  0  0  0  0  0  0  0  0  0
  -23.2687  -29.3911   23.1485 O   0  0  0  0  0  0  0  0  0  0  0  0
  -24.6818  -28.9808   26.6169 O   0  0  0  0  0  0  0  0  0  0  0  0
  -28.9521  -27.6933   24.9958 O   0  0  0  0  0  0  0  0  0  0  0  0
  -31.2911  -20.7070   16.2949 O   0  0  0  0  0  0  0  0  0  0  0  0
  -25.3601   -9.7403   20.1187 O   0  0  0  0  0  0  0  0  0  0  0  0
  -26.3304  -24.9640   19.3364 O   0  0  0  0  0  0  0  0  0  1  0  0
  -20.6151   -8.4757   22.6268 F   0  0  0  0  0  0  0  0  0  0  0  0
  -24.9559  -10.3568   22.7832 F   0  0  0  0  0  0  0  0  0  0  0  0
  1  2  1  0  0  0  0
  1  5  2  0  0  0  0
  2  6  2  0  0  0  0
  3  8  2  0  0  0  0
  3 17  1  0  0  0  0
  4  9  1  0  0  0  0
  4 17  2  0  0  0  0
  5 19  1  0  0  0  0
  6 21  1  0  0  0  0
  7 10  2  0  0  0  0
  7 20  1  0  0  0  0
  8 25  1  0  0  0  0
  9 25  2  0  0  0  0
 10 26  1  0  0  0  0
 11 12  2  0  0  0  0
 11 27  1  0  0  0  0
 12 28  1  0  0  0  0
 13 22  1  0  0  0  0
 13 26  2  0  0  0  0
 14 23  1  0  0  0  0
 14 31  2  0  0  0  0
 15 28  2  0  0  0  0
 15 29  1  0  0  0  0
 16 24  1  0  0  0  0
 16 65  2  0  0  0  0
 17 30  1  0  0  0  0
 18 30  1  0  0  0  0
 18 32  2  0  0  0  0
 18 33  1  0  0  0  0
 19 21  2  0  0  0  0
 19 38  1  0  0  0  0
 20 22  2  0  0  0  0
 20 39  1  0  0  0  0
 21 47  1  0  0  0  0
 22 40  1  0  0  0  0
 23 24  2  0  0  0  0
 23 57  1  0  0  0  0
 24 61  1  0  0  0  0
 25 81  1  0  0  0  0
 26 82  1  0  0  0  0
 27 29  2  0  0  0  0
 27 81  1  0  0  0  0
 28 83  1  0  0  0  0
 29 84  1  0  0  0  0
 30 66  2  0  0  0  0
 31 50  1  0  0  0  0
 31 65  1  0  0  0  0
 32 67  1  0  0  0  0
 32 70  1  0  0  0  0
 33 71  1  0  0  0  0
 33 76  2  0  0  0  0
 34 48  1  0  0  0  0
 34 72  1  0  0  0  0
 34 77  2  0  0  0  0
 35 62  1  0  0  0  0
 35 68  1  0  0  0  0
 35 78  2  0  0  0  0
 36 63  1  0  0  0  0
 36 73  1  0  0  0  0
 36 79  2  0  0  0  0
 37 69  1  0  0  0  0
 37 74  1  0  0  0  0
 37 80  2  0  0  0  0
 38 41  1  0  0  0  0
 39 48  1  0  0  0  0
 40 68  1  0  0  0  0
 41 43  1  0  0  0  0
 42 44  1  0  0  0  0
 42 45  1  0  0  0  0
 43 47  1  0  0  0  0
 44 49  1  0  0  0  0
 45 69  1  0  0  0  0
 46 49  1  0  0  0  0
 46 69  1  0  0  0  0
 47 72  1  0  0  0  0
 48 68  1  0  0  0  0
 49 67  1  0  0  0  0
 51 61  1  0  0  0  0
 52 63  1  0  0  0  0
 53 64  1  0  0  0  0
 54 64  1  0  0  0  0
 55 64  1  0  0  0  0
 56 75  1  0  0  0  0
 57 58  1  0  0  0  0
 58 60  1  0  0  0  0
 59 61  1  0  0  0  0
 59 74  1  0  0  0  0
 60 82  1  0  0  0  0
 62 64  1  0  0  0  0
 62 73  1  0  0  0  0
 63 75  1  0  0  0  0
 66 67  1  0  0  0  0
M  CHG  1  75   1
M  ISO  4  37 100  60 101  74 100  82 101
M  END
> <Batch ID>
0087

> <Smiles>
CNC(C)C(=O)NC(C(=O)N1Cc2cc([101O:1][101CH2:1]CCc3cc(C)ncc3C(C)C[100NH:0][100C:0](=O)N3CCCC(n4nc(-c5ccc(Oc6ccc(F)cc6F)cc5)c(C(N)=O)c4N)C3)ccc2CC1C(=O)NC1CCCc2ccccc21)C(C)(C)C

> <Shape>
0.232

> <Color>
0.064

> <Negative vol penalty>
0.000

$$$$

  -OEChem-04052319013D

 87 95  0     1  0  0  0  0  0999 V2000
  -28.2001  -27.4986   16.7923 C   0  0  0  0  0  0  0  0  0  0  0  0
  -27.7076  -26.2223   17.0453 C   0  0  0  0  0  0  0  0  0  0  0  0
  -26.5588  -20.9091   20.6988 C   0  0  0  0  0  0  0  0  0  0  0  0
  -28.8551  -20.2515   21.0619 C   0  0  0  0  0  0  0  0  0  0  0  0
  -27.8834  -28.5498   17.6518 C   0  0  0  0  0  0  0  0  0  0  0  0
  -26.8990  -25.9963   18.1586 C   0  0  0  0  0  0  0  0  0  0  0  0
  -22.2146  -22.0729   18.5705 C   0  0  0  0  0  0  0  0  0  0  0  0
  -26.9915  -22.0214   19.9769 C   0  0  0  0  0  0  0  0  0  0  0  0
  -29.2878  -21.3638   20.3400 C   0  0  0  0  0  0  0  0  0  0  0  0
  -22.1128  -20.7854   19.0956 C   0  0  0  0  0  0  0  0  0  0  0  0
  -29.6827  -24.6793   20.8715 C   0  0  0  0  0  0  0  0  0  0  0  0
  -30.7310  -25.4297   21.4039 C   0  0  0  0  0  0  0  0  0  0  0  0
  -21.2901  -21.7028   21.1694 C   0  0  0  0  0  0  0  0  0  0  0  0
  -32.0549  -24.9777   19.4342 C   0  0  0  0  0  0  0  0  0  0  0  0
  -21.6192  -14.1923   22.0629 C   0  0  0  0  0  0  0  0  0  0  0  0
  -27.4906  -20.0241   21.2413 C   0  0  0  0  0  0  0  0  0  0  0  0
  -26.2684  -18.8735   23.1622 C   0  0  0  0  0  0  0  0  0  0  0  0
  -27.0626  -28.3385   18.7708 C   0  0  0  0  0  0  0  0  0  0  0  0
  -21.8646  -23.1876   19.3460 C   0  0  0  0  0  0  0  0  0  0  0  0
  -26.5721  -27.0453   19.0345 C   0  0  0  0  0  0  0  0  0  0  0  0
  -21.3859  -23.0032   20.6509 C   0  0  0  0  0  0  0  0  0  0  0  0
  -28.3560  -22.2488   19.7975 C   0  0  0  0  0  0  0  0  0  0  0  0
  -21.6533  -20.6004   20.3963 C   0  0  0  0  0  0  0  0  0  0  0  0
  -29.8205  -24.0780   19.6205 C   0  0  0  0  0  0  0  0  0  0  0  0
  -31.9171  -25.5790   20.6853 C   0  0  0  0  0  0  0  0  0  0  0  0
  -31.0066  -24.2272   18.9018 C   0  0  0  0  0  0  0  0  0  0  0  0
  -27.0443  -18.8752   21.9876 C   0  0  0  0  0  0  0  0  0  0  0  0
  -22.0191  -14.4263   20.7775 C   0  0  0  0  0  0  0  0  0  0  0  0
  -26.1175  -17.5440   23.4721 C   0  0  0  0  0  0  0  0  0  0  0  0
  -22.1312  -12.2457   21.1416 C   0  0  0  0  0  0  0  0  0  0  0  0
  -25.7318  -19.9753   23.9066 C   0  0  0  0  0  0  0  0  0  0  0  0
  -23.4193  -25.7329   20.4452 C   0  0  0  0  0  0  0  0  0  0  0  0
  -20.4603  -26.6330   21.4233 C   0  0  0  0  0  0  0  0  0  0  0  0
  -17.2926  -25.7113   22.2970 C   0  0  0  0  0  0  0  0  0  0  0  0
  -26.2800  -12.5458   20.1793 C   0  0  0  0  0  0  0  0  0  0  0  0
  -26.7864  -29.4960   19.6974 C   0  0  0  0  0  0  0  0  0  0  0  0
  -21.9548  -24.5681   18.7557 C   0  0  0  0  0  0  0  0  0  0  0  0
  -20.9781  -24.1655   21.5177 C   0  0  0  0  0  0  0  0  0  0  0  0
  -25.6167  -29.2503   20.6470 C   0  0  0  0  0  0  0  0  0  0  0  0
  -28.3094  -13.3173   23.0012 C   0  0  0  0  0  0  0  0  0  0  0  0
  -25.7263  -27.8680   21.2825 C   0  0  0  0  0  0  0  0  0  0  0  0
  -28.1453  -14.8291   23.1674 C   0  0  0  0  0  0  0  0  0  0  0  0
  -28.3247  -12.9097   21.5296 C   0  0  0  0  0  0  0  0  0  0  0  0
  -27.0077  -14.8983   20.9091 C   0  0  0  0  0  0  0  0  0  0  0  0
  -25.6716  -26.7655   20.2181 C   0  0  1  0  0  0  0  0  0  0  0  0
  -22.0584  -25.6640   19.8119 C   0  0  1  0  0  0  0  0  0  0  0  0
  -26.9305  -15.3515   22.3771 C   0  0  2  0  0  0  0  0  0  0  0  0
  -15.1102  -26.6660   23.0863 C   0  0  0  0  0  0  0  0  0  0  0  0
  -24.6008   -8.2424   22.9095 C   0  0  0  0  0  0  0  0  0  0  0  0
  -22.2932   -7.8969   22.0063 C   0  0  0  0  0  0  0  0  0  0  0  0
  -21.8046  -12.1291   18.0843 C   0  0  0  0  0  0  0  0  0  0  0  0
  -21.6282  -26.9841   24.2202 C   0  0  0  0  0  0  0  0  0  0  0  0
  -19.2913  -26.9992   25.1184 C   0  0  0  0  0  0  0  0  0  0  0  0
  -20.0253  -28.7741   23.5267 C   0  0  0  0  0  0  0  0  0  0  0  0
  -15.8619  -24.7253   19.9012 C   0  0  0  0  0  0  0  0  0  0  0  0
  -22.1351  -15.7189   20.0098 C   0  0  0  0  0  0  0  0  0  0  0  0
  -22.3455  -10.7881   20.9628 C   0  0  0  0  0  0  0  0  0  0  0  0
  -21.7351  -16.9542   20.8194 C   0  0  0  0  0  0  0  0  0  0  0  0
  -23.3550  -10.2165   21.9800 C   0  0  0  0  0  0  0  0  0  0  0  0
  -24.1998  -12.3408   18.8414 C   0  0  0  0  0  0  0  0  0  0  0  0
  -21.9369  -18.2626   20.0640 C   0  0  0  0  0  0  0  0  0  1  0  0
  -19.6383  -26.4262   22.6725 C   0  0  1  0  0  0  0  0  0  0  0  0
  -15.9358  -26.2487   21.8792 C   0  0  2  0  0  0  0  0  0  0  0  0
  -23.5868   -8.6990   21.8576 C   0  0  0  0  0  0  0  0  0  0  0  0
  -22.8024  -12.9796   18.8778 C   0  0  2  0  0  0  0  0  0  0  0  0
  -20.1552  -27.2739   23.8691 C   0  0  0  0  0  0  0  0  0  0  0  0
  -27.3642  -17.6445   21.5792 N   0  0  0  0  0  0  0  0  0  0  0  0
  -22.3304  -13.2045   20.2313 N   0  0  0  0  0  0  0  0  0  0  0  0
  -26.7865  -16.8570   22.5023 N   0  0  0  0  0  0  0  0  0  0  0  0
  -21.6982  -12.8349   22.2608 N   0  3  0  0  0  0  0  0  0  0  0  0
  -21.0902  -25.4960   20.8975 N   0  0  0  0  0  0  0  0  0  0  0  0
  -27.1453  -13.4352   20.8376 N   0  0  0  0  0  0  0  0  0  0  0  0
  -25.4793  -16.9073   24.4770 N   0  0  0  0  0  0  0  0  0  0  0  0
  -24.4544  -20.4469   23.5747 N   0  0  0  0  0  0  0  0  0  0  0  0
  -24.3089  -26.5540   19.7790 N   0  0  0  0  0  0  0  0  0  0  0  0
  -18.2544  -26.6994   22.3004 N   0  0  0  0  0  0  0  0  0  0  0  0
  -25.1829  -13.1258   19.5542 N   0  0  0  0  0  0  0  0  0  0  0  0
  -15.1766  -25.2102   21.1269 N   0  3  0  0  0  0  0  0  0  0  0  0
  -26.3731  -20.5357   24.8275 O   0  0  0  0  0  0  0  0  0  0  0  0
  -23.6449  -25.0899   21.4637 O   0  0  0  0  0  0  0  0  0  0  0  0
  -20.5346  -27.7603   20.9280 O   0  0  0  0  0  0  0  0  0  0  0  0
  -17.4798  -24.5336   22.5944 O   0  0  0  0  0  0  0  0  0  0  0  0
  -26.4680  -11.3247   20.1554 O   0  0  0  0  0  0  0  0  0  0  0  0
  -28.7785  -23.3339   19.0929 O   0  0  0  0  0  0  0  0  0  0  0  0
  -21.5536  -19.3448   20.9115 O   0  0  0  0  0  0  0  0  0  1  0  0
  -32.9232  -26.3009   21.1960 F   0  0  0  0  0  0  0  0  0  0  0  0
  -31.1444  -23.6529   17.6989 F   0  0  0  0  0  0  0  0  0  0  0  0
  1  2  1  0  0  0  0
  1  5  2  0  0  0  0
  2  6  2  0  0  0  0
  3  8  2  0  0  0  0
  3 16  1  0  0  0  0
  4  9  1  0  0  0  0
  4 16  2  0  0  0  0
  5 18  1  0  0  0  0
  6 20  1  0  0  0  0
  7 10  2  0  0  0  0
  7 19  1  0  0  0  0
  8 22  1  0  0  0  0
  9 22  2  0  0  0  0
 10 23  1  0  0  0  0
 11 12  2  0  0  0  0
 11 24  1  0  0  0  0
 12 25  1  0  0  0  0
 13 21  1  0  0  0  0
 13 23  2  0  0  0  0
 14 25  2  0  0  0  0
 14 26  1  0  0  0  0
 15 28  2  0  0  0  0
 15 70  1  0  0  0  0
 16 27  1  0  0  0  0
 17 27  1  0  0  0  0
 17 29  2  0  0  0  0
 17 31  1  0  0  0  0
 18 20  2  0  0  0  0
 18 36  1  0  0  0  0
 19 21  2  0  0  0  0
 19 37  1  0  0  0  0
 20 45  1  0  0  0  0
 21 38  1  0  0  0  0
 22 84  1  0  0  0  0
 23 85  1  0  0  0  0
 24 26  2  0  0  0  0
 24 84  1  0  0  0  0
 25 86  1  0  0  0  0
 26 87  1  0  0  0  0
 27 67  2  0  0  0  0
 28 56  1  0  0  0  0
 28 68  1  0  0  0  0
 29 69  1  0  0  0  0
 29 73  1  0  0  0  0
 30 57  1  0  0  0  0
 30 68  1  0  0  0  0
 30 70  2  0  0  0  0
 31 74  1  0  0  0  0
 31 79  2  0  0  0  0
 32 46  1  0  0  0  0
 32 75  1  0  0  0  0
 32 80  2  0  0  0  0
 33 62  1  0  0  0  0
 33 71  1  0  0  0  0
 33 81  2  0  0  0  0
 34 63  1  0  0  0  0
 34 76  1  0  0  0  0
 34 82  2  0  0  0  0
 35 72  1  0  0  0  0
 35 77  1  0  0  0  0
 35 83  2  0  0  0  0
 36 39  1  0  0  0  0
 37 46  1  0  0  0  0
 38 71  1  0  0  0  0
 39 41  1  0  0  0  0
 40 42  1  0  0  0  0
 40 43  1  0  0  0  0
 41 45  1  0  0  0  0
 42 47  1  0  0  0  0
 43 72  1  0  0  0  0
 44 47  1  0  0  0  0
 44 72  1  0  0  0  0
 45 75  1  0  0  0  0
 46 71  1  0  0  0  0
 47 69  1  0  0  0  0
 48 63  1  0  0  0  0
 49 64  1  0  0  0  0
 50 64  1  0  0  0  0
 51 65  1  0  0  0  0
 52 66  1  0  0  0  0
 53 66  1  0  0  0  0
 54 66  1  0  0  0  0
 55 78  1  0  0  0  0
 56 58  1  0  0  0  0
 57 59  1  0  0  0  0
 58 61  1  0  0  0  0
 59 64  1  0  0  0  0
 60 65  1  0  0  0  0
 60 77  1  0  0  0  0
 61 85  1  0  0  0  0
 62 66  1  0  0  0  0
 62 76  1  0  0  0  0
 63 78  1  0  0  0  0
 65 68  1  0  0  0  0
 67 69  1  0  0  0  0
M  CHG  2  70   1  78   1
M  ISO  4  35 100  61 101  77 100  85 101
M  END
> <Batch ID>
0087

> <Smiles>
CNC(C)C(=O)NC(C(=O)N1Cc2cc([101O:1][101CH2:1]CCc3cnc(CCC(C)C)n3C(C)C[100NH:0][100C:0](=O)N3CCCC(n4nc(-c5ccc(Oc6ccc(F)cc6F)cc5)c(C(N)=O)c4N)C3)ccc2CC1C(=O)NC1CCCc2ccccc21)C(C)(C)C

> <Shape>
0.216

> <Color>
0.057

> <Negative vol penalty>
0.000

$$$$

  -OEChem-04052319013D

 90 98  0     1  0  0  0  0  0999 V2000
  -29.9964  -12.4397   19.6731 C   0  0  0  0  0  0  0  0  0  0  0  0
  -29.8716  -13.7807   20.0216 C   0  0  0  0  0  0  0  0  0  0  0  0
  -28.7864  -22.5050   19.8108 C   0  0  0  0  0  0  0  0  0  0  0  0
  -27.8020  -22.3651   22.0127 C   0  0  0  0  0  0  0  0  0  0  0  0
  -28.8927  -11.7419   19.1844 C   0  0  0  0  0  0  0  0  0  0  0  0
  -28.6431  -14.4251   19.8804 C   0  0  0  0  0  0  0  0  0  0  0  0
  -24.6444  -19.5441   22.9009 C   0  0  0  0  0  0  0  0  0  0  0  0
  -29.8094  -21.6466   20.2136 C   0  0  0  0  0  0  0  0  0  0  0  0
  -28.8250  -21.5067   22.4156 C   0  0  0  0  0  0  0  0  0  0  0  0
  -23.9559  -20.7099   22.5682 C   0  0  0  0  0  0  0  0  0  0  0  0
  -30.9789  -18.9920   23.9173 C   0  0  0  0  0  0  0  0  0  0  0  0
  -30.6244  -17.8564   24.6454 C   0  0  0  0  0  0  0  0  0  0  0  0
  -22.0984  -19.3830   21.7882 C   0  0  0  0  0  0  0  0  0  0  0  0
  -29.2586  -17.1004   22.8015 C   0  0  0  0  0  0  0  0  0  0  0  0
  -20.3808  -27.4604   21.5222 C   0  0  0  0  0  0  0  0  0  0  0  0
  -27.7827  -22.8643   20.7104 C   0  0  0  0  0  0  0  0  0  0  0  0
  -25.4918  -23.3931   19.7207 C   0  0  0  0  0  0  0  0  0  0  0  0
  -27.6477  -12.3755   19.0463 C   0  0  0  0  0  0  0  0  0  0  0  0
  -24.0686  -18.2866   22.6693 C   0  0  0  0  0  0  0  0  0  0  0  0
  -27.5220  -13.7356   19.3881 C   0  0  0  0  0  0  0  0  0  0  0  0
  -22.7807  -18.2028   22.1213 C   0  0  0  0  0  0  0  0  0  0  0  0
  -19.4963  -26.4462   21.8160 C   0  0  0  0  0  0  0  0  0  0  0  0
  -18.7460  -26.8535   22.9466 C   0  0  0  0  0  0  0  0  0  0  0  0
  -29.8287  -21.1474   21.5160 C   0  0  0  0  0  0  0  0  0  0  0  0
  -22.6839  -20.6294   22.0091 C   0  0  0  0  0  0  0  0  0  0  0  0
  -30.4731  -19.1819   22.6313 C   0  0  0  0  0  0  0  0  0  0  0  0
  -29.7643  -16.9105   24.0875 C   0  0  0  0  0  0  0  0  0  0  0  0
  -29.6131  -18.2361   22.0733 C   0  0  0  0  0  0  0  0  0  0  0  0
  -26.7261  -23.7514   20.2950 C   0  0  0  0  0  0  0  0  0  0  0  0
  -19.1948  -28.1043   23.3092 C   0  0  0  0  0  0  0  0  0  0  0  0
  -24.8505  -24.5894   19.5108 C   0  0  0  0  0  0  0  0  0  0  0  0
  -24.9714  -22.0949   19.4051 C   0  0  0  0  0  0  0  0  0  0  0  0
  -24.8222  -15.7695   20.8805 C   0  0  0  0  0  0  0  0  0  0  0  0
  -22.2984  -14.4194   22.4070 C   0  0  0  0  0  0  0  0  0  0  0  0
  -19.3601  -14.8519   24.0881 C   0  0  0  0  0  0  0  0  0  0  0  0
  -24.2167  -29.8067   21.9382 C   0  0  0  0  0  0  0  0  0  0  0  0
  -26.4949  -11.5929   18.4690 C   0  0  0  0  0  0  0  0  0  0  0  0
  -24.8135  -17.0392   23.0585 C   0  0  0  0  0  0  0  0  0  0  0  0
  -22.1099  -16.8777   21.8714 C   0  0  0  0  0  0  0  0  0  0  0  0
  -25.1361  -12.2482   18.7026 C   0  0  0  0  0  0  0  0  0  0  0  0
  -26.3042  -29.2968   19.0994 C   0  0  0  0  0  0  0  0  0  0  0  0
  -25.1964  -13.7355   18.3696 C   0  0  0  0  0  0  0  0  0  0  0  0
  -26.5111  -27.7815   19.0650 C   0  0  0  0  0  0  0  0  0  0  0  0
  -26.2550  -29.8272   20.5306 C   0  0  0  0  0  0  0  0  0  0  0  0
  -25.4801  -27.6438   21.3708 C   0  0  0  0  0  0  0  0  0  0  0  0
  -26.1999  -14.4628   19.2726 C   0  0  1  0  0  0  0  0  0  0  0  0
  -24.3406  -15.8008   22.3035 C   0  0  1  0  0  0  0  0  0  0  0  0
  -25.4806  -27.0546   19.9498 C   0  0  2  0  0  0  0  0  0  0  0  0
  -16.3537  -26.1096   22.8474 C   0  0  0  0  0  0  0  0  0  0  0  0
  -18.9080  -25.3947   19.6171 C   0  0  0  0  0  0  0  0  0  0  0  0
  -17.5059  -13.5596   25.1786 C   0  0  0  0  0  0  0  0  0  0  0  0
  -21.3089  -30.1437   21.0417 C   0  0  0  0  0  0  0  0  0  0  0  0
  -18.9616  -28.3135   25.8087 C   0  0  0  0  0  0  0  0  0  0  0  0
  -17.2488  -29.3655   24.2936 C   0  0  0  0  0  0  0  0  0  0  0  0
  -19.5140  -30.3654   24.5179 C   0  0  0  0  0  0  0  0  0  0  0  0
  -21.1629  -13.7346   19.6590 C   0  0  0  0  0  0  0  0  0  0  0  0
  -18.9473  -13.3300   20.7524 C   0  0  0  0  0  0  0  0  0  0  0  0
  -20.9155  -11.9274   21.3699 C   0  0  0  0  0  0  0  0  0  0  0  0
  -19.9112  -16.0661   26.7302 C   0  0  0  0  0  0  0  0  0  0  0  0
  -17.6787  -26.0810   23.6154 C   0  0  0  0  0  0  0  0  0  0  0  0
  -21.0548  -23.8368   22.4834 C   0  0  0  0  0  0  0  0  0  0  0  0
  -20.6517  -24.2897   21.0726 C   0  0  0  0  0  0  0  0  0  0  0  0
  -22.1826  -29.6229   23.3482 C   0  0  0  0  0  0  0  0  0  0  0  0
  -22.2784  -22.9277   22.4662 C   0  0  0  0  0  0  0  0  0  1  0  0
  -19.3603  -25.1360   21.0595 C   0  0  1  0  0  0  0  0  0  0  0  0
  -20.8140  -14.3312   22.1466 C   0  0  1  0  0  0  0  0  0  0  0  0
  -18.8435  -14.2533   25.3840 C   0  0  2  0  0  0  0  0  0  0  0  0
  -20.9308  -29.7043   22.4603 C   0  0  2  0  0  0  0  0  0  0  0  0
  -18.7635  -28.9899   24.4114 C   0  0  0  0  0  0  0  0  0  0  0  0
  -20.4731  -13.3559   20.9847 C   0  0  0  0  0  0  0  0  0  0  0  0
  -26.8630  -25.0721   20.4406 N   0  0  0  0  0  0  0  0  0  0  0  0
  -20.1883  -28.4633   22.4362 N   0  0  0  0  0  0  0  0  0  0  0  0
  -25.7064  -25.5540   19.9547 N   0  0  0  0  0  0  0  0  0  0  0  0
  -22.8813  -15.6864   22.2630 N   0  0  0  0  0  0  0  0  0  0  0  0
  -25.2571  -29.0971   21.3162 N   0  0  0  0  0  0  0  0  0  0  0  0
  -23.6436  -24.8997   18.9917 N   0  0  0  0  0  0  0  0  0  0  0  0
  -25.7616  -20.9719   19.6862 N   0  0  0  0  0  0  0  0  0  0  0  0
  -25.6294  -14.6880   20.5834 N   0  0  0  0  0  0  0  0  0  0  0  0
  -20.1961  -13.9815   23.4211 N   0  0  0  0  0  0  0  0  0  0  0  0
  -23.3104  -29.0377   22.6580 N   0  0  0  0  0  0  0  0  0  0  0  0
  -18.6680  -15.3175   26.4124 N   0  3  0  0  0  0  0  0  0  0  0  0
  -23.8461  -21.9363   18.8740 O   0  0  0  0  0  0  0  0  0  0  0  0
  -24.4852  -16.6598   20.1089 O   0  0  0  0  0  0  0  0  0  0  0  0
  -22.9166  -13.4031   22.7333 O   0  0  0  0  0  0  0  0  0  0  0  0
  -19.0499  -15.9774   23.7040 O   0  0  0  0  0  0  0  0  0  0  0  0
  -24.1007  -31.0340   21.8537 O   0  0  0  0  0  0  0  0  0  0  0  0
  -30.8266  -20.3096   21.9093 O   0  0  0  0  0  0  0  0  0  0  0  0
  -22.0099  -21.7656   21.6828 O   0  0  0  0  0  0  0  0  0  1  0  0
  -29.4253  -15.8192   24.7863 F   0  0  0  0  0  0  0  0  0  0  0  0
  -29.1250  -18.4125   20.8378 F   0  0  0  0  0  0  0  0  0  0  0  0
  1  2  1  0  0  0  0
  1  5  2  0  0  0  0
  2  6  2  0  0  0  0
  3  8  2  0  0  0  0
  3 16  1  0  0  0  0
  4  9  1  0  0  0  0
  4 16  2  0  0  0  0
  5 18  1  0  0  0  0
  6 20  1  0  0  0  0
  7 10  2  0  0  0  0
  7 19  1  0  0  0  0
  8 24  1  0  0  0  0
  9 24  2  0  0  0  0
 10 25  1  0  0  0  0
 11 12  2  0  0  0  0
 11 26  1  0  0  0  0
 12 27  1  0  0  0  0
 13 21  1  0  0  0  0
 13 25  2  0  0  0  0
 14 27  2  0  0  0  0
 14 28  1  0  0  0  0
 15 22  2  0  0  0  0
 15 72  1  0  0  0  0
 16 29  1  0  0  0  0
 17 29  1  0  0  0  0
 17 31  2  0  0  0  0
 17 32  1  0  0  0  0
 18 20  2  0  0  0  0
 18 37  1  0  0  0  0
 19 21  2  0  0  0  0
 19 38  1  0  0  0  0
 20 46  1  0  0  0  0
 21 39  1  0  0  0  0
 22 23  1  0  0  0  0
 22 65  1  0  0  0  0
 23 30  2  0  0  0  0
 23 60  1  0  0  0  0
 24 87  1  0  0  0  0
 25 88  1  0  0  0  0
 26 28  2  0  0  0  0
 26 87  1  0  0  0  0
 27 89  1  0  0  0  0
 28 90  1  0  0  0  0
 29 71  2  0  0  0  0
 30 69  1  0  0  0  0
 30 72  1  0  0  0  0
 31 73  1  0  0  0  0
 31 76  1  0  0  0  0
 32 77  1  0  0  0  0
 32 82  2  0  0  0  0
 33 47  1  0  0  0  0
 33 78  1  0  0  0  0
 33 83  2  0  0  0  0
 34 66  1  0  0  0  0
 34 74  1  0  0  0  0
 34 84  2  0  0  0  0
 35 67  1  0  0  0  0
 35 79  1  0  0  0  0
 35 85  2  0  0  0  0
 36 75  1  0  0  0  0
 36 80  1  0  0  0  0
 36 86  2  0  0  0  0
 37 40  1  0  0  0  0
 38 47  1  0  0  0  0
 39 74  1  0  0  0  0
 40 42  1  0  0  0  0
 41 43  1  0  0  0  0
 41 44  1  0  0  0  0
 42 46  1  0  0  0  0
 43 48  1  0  0  0  0
 44 75  1  0  0  0  0
 45 48  1  0  0  0  0
 45 75  1  0  0  0  0
 46 78  1  0  0  0  0
 47 74  1  0  0  0  0
 48 73  1  0  0  0  0
 49 60  1  0  0  0  0
 50 65  1  0  0  0  0
 51 67  1  0  0  0  0
 52 68  1  0  0  0  0
 53 69  1  0  0  0  0
 54 69  1  0  0  0  0
 55 69  1  0  0  0  0
 56 70  1  0  0  0  0
 57 70  1  0  0  0  0
 58 70  1  0  0  0  0
 59 81  1  0  0  0  0
 61 62  1  0  0  0  0
 61 64  1  0  0  0  0
 62 65  1  0  0  0  0
 63 68  1  0  0  0  0
 63 80  1  0  0  0  0
 64 88  1  0  0  0  0
 66 70  1  0  0  0  0
 66 79  1  0  0  0  0
 67 81  1  0  0  0  0
 68 72  1  0  0  0  0
 71 73  1  0  0  0  0
M  CHG  1  81   1
M  ISO  4  36 100  64 101  80 100  88 101
M  END
> <Batch ID>
0087

> <Smiles>
CCc1c(C(C)CC[101CH2:1][101O:1]c2ccc3c(c2)CN(C(=O)C(NC(=O)C(C)NC)C(C)(C)C)C(C(=O)NC2CCCc4ccccc42)C3)cn(C(C)C[100NH:0][100C:0](=O)N2CCCC(n3nc(-c4ccc(Oc5ccc(F)cc5F)cc4)c(C(N)=O)c3N)C2)c1C(C)(C)C

> <Shape>
0.229

> <Color>
0.065

> <Negative vol penalty>
0.000

$$$$

  -OEChem-04052319013D

 89 97  0     1  0  0  0  0  0999 V2000
  -26.7302  -31.9456   24.0675 C   0  0  0  0  0  0  0  0  0  0  0  0
  -26.3314  -30.7352   24.6252 C   0  0  0  0  0  0  0  0  0  0  0  0
  -23.1539   -9.7099   19.9776 C   0  0  0  0  0  0  0  0  0  0  0  0
  -23.7813   -9.9072   22.3024 C   0  0  0  0  0  0  0  0  0  0  0  0
  -26.4621  -32.2158   22.7262 C   0  0  0  0  0  0  0  0  0  0  0  0
  -25.6631  -29.7946   23.8422 C   0  0  0  0  0  0  0  0  0  0  0  0
  -26.1063  -23.6988   24.2304 C   0  0  0  0  0  0  0  0  0  0  0  0
  -22.4441   -8.5448   20.2680 C   0  0  0  0  0  0  0  0  0  0  0  0
  -23.0715   -8.7421   22.5928 C   0  0  0  0  0  0  0  0  0  0  0  0
  -25.3055  -22.7373   24.8453 C   0  0  0  0  0  0  0  0  0  0  0  0
  -23.5273   -5.4058   22.2881 C   0  0  0  0  0  0  0  0  0  0  0  0
  -24.1418   -4.4602   23.1088 C   0  0  0  0  0  0  0  0  0  0  0  0
  -24.1822  -22.3401   22.7478 C   0  0  0  0  0  0  0  0  0  0  0  0
  -22.3405   -4.6747   24.7046 C   0  0  0  0  0  0  0  0  0  0  0  0
  -23.8226  -10.3911   20.9948 C   0  0  0  0  0  0  0  0  0  0  0  0
  -24.0686  -12.9148   20.7152 C   0  0  0  0  0  0  0  0  0  0  0  0
  -25.7987  -31.2741   21.9238 C   0  0  0  0  0  0  0  0  0  0  0  0
  -25.9434  -23.9963   22.8697 C   0  0  0  0  0  0  0  0  0  0  0  0
  -25.3846  -30.0530   22.4893 C   0  0  0  0  0  0  0  0  0  0  0  0
  -24.9840  -23.3039   22.1173 C   0  0  0  0  0  0  0  0  0  0  0  0
  -22.4029   -8.0609   21.5756 C   0  0  0  0  0  0  0  0  0  0  0  0
  -24.3413  -22.0599   24.1047 C   0  0  0  0  0  0  0  0  0  0  0  0
  -22.3194   -5.9860   22.6756 C   0  0  0  0  0  0  0  0  0  0  0  0
  -23.5484   -4.0945   24.3171 C   0  0  0  0  0  0  0  0  0  0  0  0
  -21.7260   -5.6204   23.8839 C   0  0  0  0  0  0  0  0  0  0  0  0
  -24.5564  -11.5944   20.6954 C   0  0  0  0  0  0  0  0  0  0  0  0
  -26.3724  -17.0854   23.6232 C   0  0  0  0  0  0  0  0  0  0  0  0
  -25.8053  -18.2720   23.2135 C   0  0  0  0  0  0  0  0  0  0  0  0
  -27.8864  -19.1199   22.7890 C   0  0  0  0  0  0  0  0  0  0  0  0
  -28.4534  -17.9335   23.1995 C   0  0  0  0  0  0  0  0  0  0  0  0
  -25.1485  -13.6852   20.3593 C   0  0  0  0  0  0  0  0  0  0  0  0
  -22.7566  -13.4014   21.0275 C   0  0  0  0  0  0  0  0  0  0  0  0
  -25.1324  -26.5911   21.2225 C   0  0  0  0  0  0  0  0  0  0  0  0
  -25.8494  -24.7201   18.6715 C   0  0  0  0  0  0  0  0  0  0  0  0
  -25.8494  -21.5891   16.8788 C   0  0  0  0  0  0  0  0  0  0  0  0
  -30.5672  -14.9559   20.7704 C   0  0  0  0  0  0  0  0  0  0  0  0
  -25.4891  -31.6305   20.4914 C   0  0  0  0  0  0  0  0  0  0  0  0
  -26.8334  -25.0171   22.2151 C   0  0  0  0  0  0  0  0  0  0  0  0
  -24.7831  -23.5719   20.6489 C   0  0  0  0  0  0  0  0  0  0  0  0
  -25.1085  -30.4270   19.6329 C   0  0  0  0  0  0  0  0  0  0  0  0
  -29.6641  -12.3660   18.5003 C   0  0  0  0  0  0  0  0  0  0  0  0
  -24.0940  -29.5512   20.3613 C   0  0  0  0  0  0  0  0  0  0  0  0
  -28.2174  -12.0393   18.8748 C   0  0  0  0  0  0  0  0  0  0  0  0
  -30.5018  -12.7086   19.7302 C   0  0  0  0  0  0  0  0  0  0  0  0
  -28.4964  -13.4480   20.9572 C   0  0  0  0  0  0  0  0  0  0  0  0
  -24.6794  -28.9971   21.6658 C   0  0  1  0  0  0  0  0  0  0  0  0
  -26.2319  -25.6059   20.9427 C   0  0  1  0  0  0  0  0  0  0  0  0
  -27.5986  -13.1505   19.7440 C   0  0  2  0  0  0  0  0  0  0  0  0
  -25.8862  -15.5096   25.5119 C   0  0  0  0  0  0  0  0  0  0  0  0
  -28.5711  -21.5086   23.2122 C   0  0  0  0  0  0  0  0  0  0  0  0
  -28.4466  -20.6322   20.8517 C   0  0  0  0  0  0  0  0  0  0  0  0
  -30.3935  -16.8176   24.3462 C   0  0  0  0  0  0  0  0  0  0  0  0
  -26.8515  -20.9793   14.6604 C   0  0  0  0  0  0  0  0  0  0  0  0
  -23.9285  -19.9859   26.7842 C   0  0  0  0  0  0  0  0  0  0  0  0
  -23.0836  -25.3831   17.5664 C   0  0  0  0  0  0  0  0  0  0  0  0
  -23.3277  -23.4537   15.9897 C   0  0  0  0  0  0  0  0  0  0  0  0
  -24.9136  -25.3749   15.8619 C   0  0  0  0  0  0  0  0  0  0  0  0
  -27.3838  -19.3492   18.0568 C   0  0  0  0  0  0  0  0  0  0  0  0
  -25.5355  -15.9442   24.0908 C   0  0  0  0  0  0  0  0  0  0  0  0
  -24.3109  -18.4724   23.2191 C   0  0  0  0  0  0  0  0  0  0  0  0
  -23.7238  -18.7143   24.6174 C   0  0  0  0  0  0  0  0  0  0  0  0
  -30.4759  -17.1867   21.8539 C   0  0  0  0  0  0  0  0  0  0  0  0
  -28.7237  -20.2608   22.3212 C   0  0  0  0  0  0  0  0  0  0  0  0
  -29.9308  -17.7357   23.1952 C   0  0  1  0  0  0  0  0  0  0  0  0
  -25.0774  -23.7593   17.7997 C   0  0  1  0  0  0  0  0  0  0  0  0
  -27.0289  -20.9475   16.1704 C   0  0  2  0  0  0  0  0  0  0  0  0
  -24.2192  -20.0011   25.2888 C   0  0  1  0  0  0  0  0  0  1  0  0
  -24.1028  -24.4888   16.8325 C   0  0  0  0  0  0  0  0  0  0  0  0
  -25.8458  -11.5261   20.3537 N   0  0  0  0  0  0  0  0  0  0  0  0
  -27.7066  -16.8948   23.6236 N   0  0  0  0  0  0  0  0  0  0  0  0
  -26.5522  -19.3105   22.7890 N   0  0  0  0  0  0  0  0  0  0  0  0
  -26.1774  -12.8133   20.1554 N   0  0  0  0  0  0  0  0  0  0  0  0
  -25.6734  -24.5834   20.0558 N   0  0  0  0  0  0  0  0  0  0  0  0
  -29.8608  -13.7699   20.5103 N   0  0  0  0  0  0  0  0  0  0  0  0
  -25.3089  -15.0165   20.2038 N   0  0  0  0  0  0  0  0  0  0  0  0
  -21.7646  -12.4736   21.3732 N   0  0  0  0  0  0  0  0  0  0  0  0
  -25.5707  -27.8908   21.3901 N   0  0  0  0  0  0  0  0  0  0  0  0
  -26.0710  -22.9264   17.1309 N   0  0  0  0  0  0  0  0  0  0  0  0
  -29.8842  -15.9127   21.5112 N   0  0  0  0  0  0  0  0  0  0  0  0
  -27.1787  -19.5272   16.5962 N   0  3  0  0  0  0  0  0  0  0  0  0
  -22.4681  -14.6214   20.9850 O   0  0  0  0  0  0  0  0  0  0  0  0
  -23.9721  -26.2011   21.2805 O   0  0  0  0  0  0  0  0  0  0  0  0
  -26.5870  -25.5563   18.1439 O   0  0  0  0  0  0  0  0  0  0  0  0
  -24.8317  -20.9670   17.1752 O   0  0  0  0  0  0  0  0  0  0  0  0
  -31.7191  -15.1499   20.3674 O   0  0  0  0  0  0  0  0  0  0  0  0
  -21.7102   -6.9242   21.8593 O   0  0  0  0  0  0  0  0  0  0  0  0
  -23.5579  -21.1215   24.7026 O   0  0  0  0  0  0  0  0  0  1  0  0
  -24.1379   -3.1853   25.1044 F   0  0  0  0  0  0  0  0  0  0  0  0
  -20.5651   -6.1734   24.2610 F   0  0  0  0  0  0  0  0  0  0  0  0
  1  2  1  0  0  0  0
  1  5  2  0  0  0  0
  2  6  2  0  0  0  0
  3  8  2  0  0  0  0
  3 15  1  0  0  0  0
  4  9  1  0  0  0  0
  4 15  2  0  0  0  0
  5 17  1  0  0  0  0
  6 19  1  0  0  0  0
  7 10  2  0  0  0  0
  7 18  1  0  0  0  0
  8 21  1  0  0  0  0
  9 21  2  0  0  0  0
 10 22  1  0  0  0  0
 11 12  2  0  0  0  0
 11 23  1  0  0  0  0
 12 24  1  0  0  0  0
 13 20  1  0  0  0  0
 13 22  2  0  0  0  0
 14 24  2  0  0  0  0
 14 25  1  0  0  0  0
 15 26  1  0  0  0  0
 16 26  1  0  0  0  0
 16 31  2  0  0  0  0
 16 32  1  0  0  0  0
 17 19  2  0  0  0  0
 17 37  1  0  0  0  0
 18 20  2  0  0  0  0
 18 38  1  0  0  0  0
 19 46  1  0  0  0  0
 20 39  1  0  0  0  0
 21 86  1  0  0  0  0
 22 87  1  0  0  0  0
 23 25  2  0  0  0  0
 23 86  1  0  0  0  0
 24 88  1  0  0  0  0
 25 89  1  0  0  0  0
 26 69  2  0  0  0  0
 27 28  2  0  0  0  0
 27 59  1  0  0  0  0
 27 70  1  0  0  0  0
 28 60  1  0  0  0  0
 28 71  1  0  0  0  0
 29 30  1  0  0  0  0
 29 63  1  0  0  0  0
 29 71  2  0  0  0  0
 30 64  1  0  0  0  0
 30 70  2  0  0  0  0
 31 72  1  0  0  0  0
 31 75  1  0  0  0  0
 32 76  1  0  0  0  0
 32 81  2  0  0  0  0
 33 47  1  0  0  0  0
 33 77  1  0  0  0  0
 33 82  2  0  0  0  0
 34 65  1  0  0  0  0
 34 73  1  0  0  0  0
 34 83  2  0  0  0  0
 35 66  1  0  0  0  0
 35 78  1  0  0  0  0
 35 84  2  0  0  0  0
 36 74  1  0  0  0  0
 36 79  1  0  0  0  0
 36 85  2  0  0  0  0
 37 40  1  0  0  0  0
 38 47  1  0  0  0  0
 39 73  1  0  0  0  0
 40 42  1  0  0  0  0
 41 43  1  0  0  0  0
 41 44  1  0  0  0  0
 42 46  1  0  0  0  0
 43 48  1  0  0  0  0
 44 74  1  0  0  0  0
 45 48  1  0  0  0  0
 45 74  1  0  0  0  0
 46 77  1  0  0  0  0
 47 73  1  0  0  0  0
 48 72  1  0  0  0  0
 49 59  1  0  0  0  0
 50 63  1  0  0  0  0
 51 63  1  0  0  0  0
 52 64  1  0  0  0  0
 53 66  1  0  0  0  0
 54 67  1  0  0  0  0
 55 68  1  0  0  0  0
 56 68  1  0  0  0  0
 57 68  1  0  0  0  0
 58 80  1  0  0  0  0
 60 61  1  0  0  0  0
 61 67  1  0  0  0  0
 62 64  1  0  0  0  0
 62 79  1  0  0  0  0
 65 68  1  0  0  0  0
 65 78  1  0  0  0  0
 66 80  1  0  0  0  0
 67 87  1  0  0  0  0
 69 72  1  0  0  0  0
M  CHG  1  80   1
M  ISO  4  36 100  67 101  79 100  87 101
M  END
> <Batch ID>
0087

> <Smiles>
CCc1nc(C(C)C[100NH:0][100C:0](=O)N2CCCC(n3nc(-c4ccc(Oc5ccc(F)cc5F)cc4)c(C(N)=O)c3N)C2)c(C(C)C)nc1CC[101CH:1](C)[101O:1]c1ccc2c(c1)CN(C(=O)C(NC(=O)C(C)NC)C(C)(C)C)C(C(=O)NC1CCCc3ccccc31)C2

> <Shape>
0.251

> <Color>
0.196

> <Negative vol penalty>
0.000

$$$$

  -OEChem-04052319013D

 87 95  0     1  0  0  0  0  0999 V2000
  -18.1844  -25.7447   19.8015 C   0  0  0  0  0  0  0  0  0  0  0  0
  -19.2916  -26.3561   19.2222 C   0  0  0  0  0  0  0  0  0  0  0  0
  -26.1965  -14.1927   21.1800 C   0  0  0  0  0  0  0  0  0  0  0  0
  -26.1613  -14.4717   18.7804 C   0  0  0  0  0  0  0  0  0  0  0  0
  -17.9103  -25.9396   21.1546 C   0  0  0  0  0  0  0  0  0  0  0  0
  -20.1248  -27.1638   19.9954 C   0  0  0  0  0  0  0  0  0  0  0  0
  -25.0355  -26.2452   19.1669 C   0  0  0  0  0  0  0  0  0  0  0  0
  -30.3046  -26.9645   16.3642 C   0  0  0  0  0  0  0  0  0  0  0  0
  -25.0862  -13.3524   21.0986 C   0  0  0  0  0  0  0  0  0  0  0  0
  -25.0510  -13.6313   18.6990 C   0  0  0  0  0  0  0  0  0  0  0  0
  -25.5979  -26.7844   18.0107 C   0  0  0  0  0  0  0  0  0  0  0  0
  -24.4534  -10.1327   20.2824 C   0  0  0  0  0  0  0  0  0  0  0  0
  -24.4795   -8.9506   21.0224 C   0  0  0  0  0  0  0  0  0  0  0  0
  -30.6147  -25.6310   16.1216 C   0  0  0  0  0  0  0  0  0  0  0  0
  -26.5346  -28.5856   19.3136 C   0  0  0  0  0  0  0  0  0  0  0  0
  -22.5086   -9.6606   22.2260 C   0  0  0  0  0  0  0  0  0  0  0  0
  -26.7341  -14.7524   20.0209 C   0  0  0  0  0  0  0  0  0  0  0  0
  -29.2365  -15.2474   20.0408 C   0  0  0  0  0  0  0  0  0  0  0  0
  -18.7460  -26.7422   21.9470 C   0  0  0  0  0  0  0  0  0  0  0  0
  -25.2096  -26.8792   20.4055 C   0  0  0  0  0  0  0  0  0  0  0  0
  -19.8609  -27.3707   21.3601 C   0  0  0  0  0  0  0  0  0  0  0  0
  -25.9755  -28.0510   20.4844 C   0  0  0  0  0  0  0  0  0  0  0  0
  -29.3185  -27.5915   15.6107 C   0  0  0  0  0  0  0  0  0  0  0  0
  -24.5134  -13.0717   19.8581 C   0  0  0  0  0  0  0  0  0  0  0  0
  -26.3452  -27.9563   18.0835 C   0  0  0  0  0  0  0  0  0  0  0  0
  -23.4550  -11.0788   20.5143 C   0  0  0  0  0  0  0  0  0  0  0  0
  -23.5071   -8.7145   21.9942 C   0  0  0  0  0  0  0  0  0  0  0  0
  -22.4826  -10.8428   21.4861 C   0  0  0  0  0  0  0  0  0  0  0  0
  -27.8807  -15.6209   20.1043 C   0  0  0  0  0  0  0  0  0  0  0  0
  -29.9152  -24.9740   15.1221 C   0  0  0  0  0  0  0  0  0  0  0  0
  -28.6771  -26.8468   14.6340 C   0  0  0  0  0  0  0  0  0  0  0  0
  -29.9246  -16.4293   20.1673 C   0  0  0  0  0  0  0  0  0  0  0  0
  -29.8217  -13.9482   19.8816 C   0  0  0  0  0  0  0  0  0  0  0  0
  -23.2621  -28.1965   22.5445 C   0  0  0  0  0  0  0  0  0  0  0  0
  -25.9854  -28.4555   24.2876 C   0  0  0  0  0  0  0  0  0  0  0  0
  -29.3931  -28.6377   24.3281 C   0  0  0  0  0  0  0  0  0  0  0  0
  -28.4988  -22.1238   18.9875 C   0  0  0  0  0  0  0  0  0  0  0  0
  -18.3825  -26.9615   23.3942 C   0  0  0  0  0  0  0  0  0  0  0  0
  -24.6189  -26.2702   21.6475 C   0  0  0  0  0  0  0  0  0  0  0  0
  -26.2091  -28.7591   21.7930 C   0  0  0  0  0  0  0  0  0  0  0  0
  -19.5263  -27.5301   24.2302 C   0  0  0  0  0  0  0  0  0  0  0  0
  -29.5588  -20.7854   22.1119 C   0  0  0  0  0  0  0  0  0  0  0  0
  -20.1930  -28.6928   23.5019 C   0  0  0  0  0  0  0  0  0  0  0  0
  -29.3712  -19.2764   21.9459 C   0  0  0  0  0  0  0  0  0  0  0  0
  -28.4591  -21.5722   21.4021 C   0  0  0  0  0  0  0  0  0  0  0  0
  -28.0896  -19.7260   19.8120 C   0  0  0  0  0  0  0  0  0  0  0  0
  -20.8023  -28.2339   22.1716 C   0  0  1  0  0  0  0  0  0  0  0  0
  -24.4296  -27.2794   22.7759 C   0  0  1  0  0  0  0  0  0  0  0  0
  -29.2056  -18.8916   20.4634 C   0  0  2  0  0  0  0  0  0  0  0  0
  -26.8119  -26.4280   13.0115 C   0  0  0  0  0  0  0  0  0  0  0  0
  -31.3341  -28.8836   25.8995 C   0  0  0  0  0  0  0  0  0  0  0  0
  -29.3183  -22.9999   13.6750 C   0  0  0  0  0  0  0  0  0  0  0  0
  -31.6847  -23.2625   14.3411 C   0  0  0  0  0  0  0  0  0  0  0  0
  -25.3595  -31.4263   24.5921 C   0  0  0  0  0  0  0  0  0  0  0  0
  -27.7306  -31.7806   25.3138 C   0  0  0  0  0  0  0  0  0  0  0  0
  -26.2219  -30.3241   26.6647 C   0  0  0  0  0  0  0  0  0  0  0  0
  -30.5247  -26.0240   23.5238 C   0  0  0  0  0  0  0  0  0  0  0  0
  -28.9783  -29.0392   15.8685 C   0  0  0  0  0  0  0  0  0  0  0  0
  -27.6075  -27.4669   13.7961 C   0  0  0  0  0  0  0  0  0  0  0  0
  -28.5238  -22.5166   16.5371 C   0  0  0  0  0  0  0  0  0  0  0  0
  -28.1092  -29.2187   17.1085 C   0  0  0  0  0  0  0  0  0  1  0  0
  -27.0683  -29.4976   24.4304 C   0  0  1  0  0  0  0  0  0  0  0  0
  -30.4310  -27.9077   25.1614 C   0  0  2  0  0  0  0  0  0  0  0  0
  -29.9786  -22.5978   16.0789 C   0  0  2  0  0  0  0  0  0  0  0  0
  -30.2211  -23.5416   14.8361 C   0  0  0  0  0  0  0  0  0  0  0  0
  -26.5892  -30.7451   25.2251 C   0  0  0  0  0  0  0  0  0  0  0  0
  -27.7152  -16.9372   20.2593 N   0  0  0  0  0  0  0  0  0  0  0  0
  -28.9510  -25.5496   14.3694 N   0  0  0  0  0  0  0  0  0  0  0  0
  -28.9761  -17.4011   20.2943 N   0  0  0  0  0  0  0  0  0  0  0  0
  -25.6056  -28.1280   22.9783 N   0  0  0  0  0  0  0  0  0  0  0  0
  -28.3549  -21.1609   20.0000 N   0  0  0  0  0  0  0  0  0  0  0  0
  -31.2424  -16.7218   20.1812 N   0  0  0  0  0  0  0  0  0  0  0  0
  -28.9697  -12.8413   19.7661 N   0  0  0  0  0  0  0  0  0  0  0  0
  -22.0532  -27.5429   22.4003 N   0  0  0  0  0  0  0  0  0  0  0  0
  -28.2149  -28.8165   25.0218 N   0  0  0  0  0  0  0  0  0  0  0  0
  -28.3924  -21.6486   17.6861 N   0  0  0  0  0  0  0  0  0  0  0  0
  -31.2811  -27.0464   24.2916 N   0  3  0  0  0  0  0  0  0  0  0  0
  -31.0634  -13.7721   19.8593 O   0  0  0  0  0  0  0  0  0  0  0  0
  -23.4443  -29.4075   22.5016 O   0  0  0  0  0  0  0  0  0  0  0  0
  -25.4997  -27.9456   25.3003 O   0  0  0  0  0  0  0  0  0  0  0  0
  -29.6074  -29.0151   23.1782 O   0  0  0  0  0  0  0  0  0  0  0  0
  -28.7120  -23.3174   19.2255 O   0  0  0  0  0  0  0  0  0  0  0  0
  -23.4301  -12.2516   19.7783 O   0  0  0  0  0  0  0  0  0  0  0  0
  -26.8947  -28.4851   16.9564 O   0  0  0  0  0  0  0  0  0  1  0  0
  -23.5313   -7.5786   22.7036 F   0  0  0  0  0  0  0  0  0  0  0  0
  -21.5203  -11.7474   21.7125 F   0  0  0  0  0  0  0  0  0  0  0  0
  -30.3720  -21.3325   15.7444 F   0  0  0  0  0  0  0  0  0  0  0  0
  1  2  1  0  0  0  0
  1  5  2  0  0  0  0
  2  6  2  0  0  0  0
  3  9  2  0  0  0  0
  3 17  1  0  0  0  0
  4 10  1  0  0  0  0
  4 17  2  0  0  0  0
  5 19  1  0  0  0  0
  6 21  1  0  0  0  0
  7 11  2  0  0  0  0
  7 20  1  0  0  0  0
  8 14  2  0  0  0  0
  8 23  1  0  0  0  0
  9 24  1  0  0  0  0
 10 24  2  0  0  0  0
 11 25  1  0  0  0  0
 12 13  2  0  0  0  0
 12 26  1  0  0  0  0
 13 27  1  0  0  0  0
 14 30  1  0  0  0  0
 15 22  1  0  0  0  0
 15 25  2  0  0  0  0
 16 27  2  0  0  0  0
 16 28  1  0  0  0  0
 17 29  1  0  0  0  0
 18 29  1  0  0  0  0
 18 32  2  0  0  0  0
 18 33  1  0  0  0  0
 19 21  2  0  0  0  0
 19 38  1  0  0  0  0
 20 22  2  0  0  0  0
 20 39  1  0  0  0  0
 21 47  1  0  0  0  0
 22 40  1  0  0  0  0
 23 31  2  0  0  0  0
 23 58  1  0  0  0  0
 24 83  1  0  0  0  0
 25 84  1  0  0  0  0
 26 28  2  0  0  0  0
 26 83  1  0  0  0  0
 27 85  1  0  0  0  0
 28 86  1  0  0  0  0
 29 67  2  0  0  0  0
 30 65  1  0  0  0  0
 30 68  2  0  0  0  0
 31 59  1  0  0  0  0
 31 68  1  0  0  0  0
 32 69  1  0  0  0  0
 32 72  1  0  0  0  0
 33 73  1  0  0  0  0
 33 78  2  0  0  0  0
 34 48  1  0  0  0  0
 34 74  1  0  0  0  0
 34 79  2  0  0  0  0
 35 62  1  0  0  0  0
 35 70  1  0  0  0  0
 35 80  2  0  0  0  0
 36 63  1  0  0  0  0
 36 75  1  0  0  0  0
 36 81  2  0  0  0  0
 37 71  1  0  0  0  0
 37 76  1  0  0  0  0
 37 82  2  0  0  0  0
 38 41  1  0  0  0  0
 39 48  1  0  0  0  0
 40 70  1  0  0  0  0
 41 43  1  0  0  0  0
 42 44  1  0  0  0  0
 42 45  1  0  0  0  0
 43 47  1  0  0  0  0
 44 49  1  0  0  0  0
 45 71  1  0  0  0  0
 46 49  1  0  0  0  0
 46 71  1  0  0  0  0
 47 74  1  0  0  0  0
 48 70  1  0  0  0  0
 49 69  1  0  0  0  0
 50 59  1  0  0  0  0
 51 63  1  0  0  0  0
 52 65  1  0  0  0  0
 53 65  1  0  0  0  0
 54 66  1  0  0  0  0
 55 66  1  0  0  0  0
 56 66  1  0  0  0  0
 57 77  1  0  0  0  0
 58 61  1  0  0  0  0
 60 64  1  0  0  0  0
 60 76  1  0  0  0  0
 61 84  1  0  0  0  0
 62 66  1  0  0  0  0
 62 75  1  0  0  0  0
 63 77  1  0  0  0  0
 64 65  1  0  0  0  0
 64 87  1  0  0  0  0
 67 69  1  0  0  0  0
M  CHG  1  77   1
M  ISO  4  37 100  61 101  76 100  84 101
M  END
> <Batch ID>
0087

> <Smiles>
CCc1nc(C(C)(C)C(F)C[100NH:0][100C:0](=O)N2CCCC(n3nc(-c4ccc(Oc5ccc(F)cc5F)cc4)c(C(N)=O)c3N)C2)ccc1C[101CH2:1][101O:1]c1ccc2c(c1)CN(C(=O)C(NC(=O)C(C)NC)C(C)(C)C)C(C(=O)NC1CCCc3ccccc31)C2

> <Shape>
0.272

> <Color>
0.081

> <Negative vol penalty>
0.000

$$$$

  -OEChem-04052319013D

 85 93  0     1  0  0  0  0  0999 V2000
  -21.5778  -23.3747   20.0360 C   0  0  0  0  0  0  0  0  0  0  0  0
  -22.8906  -22.9578   19.8401 C   0  0  0  0  0  0  0  0  0  0  0  0
  -26.1832  -29.9988   20.2268 C   0  0  0  0  0  0  0  0  0  0  0  0
  -24.7745  -28.6963   21.6951 C   0  0  0  0  0  0  0  0  0  0  0  0
  -20.7341  -22.6468   20.8739 C   0  0  0  0  0  0  0  0  0  0  0  0
  -23.3607  -21.8132   20.4829 C   0  0  0  0  0  0  0  0  0  0  0  0
  -27.3987  -17.7600   18.2986 C   0  0  0  0  0  0  0  0  0  0  0  0
  -25.0773  -30.7533   19.8352 C   0  0  0  0  0  0  0  0  0  0  0  0
  -23.6686  -29.4508   21.3036 C   0  0  0  0  0  0  0  0  0  0  0  0
  -28.7688  -17.5990   18.5002 C   0  0  0  0  0  0  0  0  0  0  0  0
  -20.5389  -31.2691   20.9614 C   0  0  0  0  0  0  0  0  0  0  0  0
  -19.6694  -31.7122   21.9580 C   0  0  0  0  0  0  0  0  0  0  0  0
  -28.3183  -15.9561   20.2082 C   0  0  0  0  0  0  0  0  0  0  0  0
  -30.2250  -18.8145   22.5245 C   0  0  0  0  0  0  0  0  0  0  0  0
  -21.4800  -32.9288   22.9967 C   0  0  0  0  0  0  0  0  0  0  0  0
  -26.0318  -28.9702   21.1567 C   0  0  0  0  0  0  0  0  0  0  0  0
  -28.0469  -28.4541   22.6334 C   0  0  0  0  0  0  0  0  0  0  0  0
  -21.1913  -21.4872   21.5198 C   0  0  0  0  0  0  0  0  0  0  0  0
  -26.4764  -17.0269   19.0591 C   0  0  0  0  0  0  0  0  0  0  0  0
  -22.5227  -21.0698   21.3313 C   0  0  0  0  0  0  0  0  0  0  0  0
  -26.9371  -16.1077   20.0124 C   0  0  0  0  0  0  0  0  0  0  0  0
  -31.5893  -18.8121   22.2933 C   0  0  0  0  0  0  0  0  0  0  0  0
  -23.8201  -30.4794   20.3736 C   0  0  0  0  0  0  0  0  0  0  0  0
  -29.2288  -16.6991   19.4572 C   0  0  0  0  0  0  0  0  0  0  0  0
  -21.8790  -31.6557   20.9825 C   0  0  0  0  0  0  0  0  0  0  0  0
  -20.1400  -32.5420   22.9757 C   0  0  0  0  0  0  0  0  0  0  0  0
  -22.3495  -32.4856   22.0001 C   0  0  0  0  0  0  0  0  0  0  0  0
  -27.1736  -28.1901   21.5612 C   0  0  0  0  0  0  0  0  0  0  0  0
  -29.6474  -19.9860   22.9710 C   0  0  0  0  0  0  0  0  0  0  0  0
  -32.2857  -19.9815   22.5235 C   0  0  0  0  0  0  0  0  0  0  0  0
  -28.9570  -27.4261   22.5960 C   0  0  0  0  0  0  0  0  0  0  0  0
  -28.0362  -29.5320   23.5787 C   0  0  0  0  0  0  0  0  0  0  0  0
  -24.1743  -17.7712   21.1207 C   0  0  0  0  0  0  0  0  0  0  0  0
  -23.5678  -14.5871   20.9944 C   0  0  0  0  0  0  0  0  0  0  0  0
  -24.7270  -11.4397   20.3644 C   0  0  0  0  0  0  0  0  0  0  0  0
  -28.7138  -21.8407   20.4523 C   0  0  0  0  0  0  0  0  0  0  0  0
  -20.2564  -20.7598   22.4533 C   0  0  0  0  0  0  0  0  0  0  0  0
  -25.0021  -17.1925   18.8108 C   0  0  0  0  0  0  0  0  0  0  0  0
  -25.9884  -15.2818   20.8409 C   0  0  0  0  0  0  0  0  0  0  0  0
  -20.7208  -19.3482   22.8025 C   0  0  0  0  0  0  0  0  0  0  0  0
  -31.0420  -24.3797   19.5524 C   0  0  0  0  0  0  0  0  0  0  0  0
  -22.2013  -19.3489   23.1701 C   0  0  0  0  0  0  0  0  0  0  0  0
  -30.3934  -25.6680   20.0620 C   0  0  0  0  0  0  0  0  0  0  0  0
  -30.0020  -23.3971   19.0188 C   0  0  0  0  0  0  0  0  0  0  0  0
  -28.2611  -24.3689   20.4675 C   0  0  0  0  0  0  0  0  0  0  0  0
  -23.0621  -19.8195   21.9916 C   0  0  1  0  0  0  0  0  0  0  0  0
  -24.1448  -16.7707   20.0001 C   0  0  1  0  0  0  0  0  0  0  0  0
  -29.2651  -25.3682   21.0672 C   0  0  2  0  0  0  0  0  0  0  0  0
  -33.7581  -20.0537   22.2972 C   0  0  0  0  0  0  0  0  0  0  0  0
  -24.0090   -9.0353   20.3846 C   0  0  0  0  0  0  0  0  0  0  0  0
  -27.7355  -21.0431   24.3579 C   0  0  0  0  0  0  0  0  0  0  0  0
  -27.6601  -18.6474   23.7169 C   0  0  0  0  0  0  0  0  0  0  0  0
  -23.7711  -14.5545   24.0386 C   0  0  0  0  0  0  0  0  0  0  0  0
  -23.9986  -12.0637   23.9272 C   0  0  0  0  0  0  0  0  0  0  0  0
  -21.9166  -13.1624   23.1020 C   0  0  0  0  0  0  0  0  0  0  0  0
  -25.2337  -11.1434   17.4636 C   0  0  0  0  0  0  0  0  0  0  0  0
  -32.2701  -17.5587   21.8044 C   0  0  0  0  0  0  0  0  0  0  0  0
  -32.6206  -17.5890   20.3151 C   0  0  0  0  0  0  0  0  0  0  0  0
  -27.3501  -20.4118   21.9548 C   0  0  0  0  0  0  0  0  0  0  0  0
  -31.3980  -17.6728   19.4087 C   0  0  0  0  0  0  0  0  0  1  0  0
  -24.0473  -13.3763   21.7579 C   0  0  1  0  0  0  0  0  0  0  0  0
  -24.1486  -10.2978   19.5484 C   0  0  2  0  0  0  0  0  0  0  0  0
  -28.1818  -20.0414   23.2357 C   0  0  0  0  0  0  0  0  0  0  0  0
  -23.4515  -13.3061   23.1923 C   0  0  0  0  0  0  0  0  0  0  0  0
  -27.4998  -27.0815   20.8915 N   0  0  0  0  0  0  0  0  0  0  0  0
  -30.3535  -21.1159   23.1879 N   0  0  0  0  0  0  0  0  0  0  0  0
  -31.6944  -21.1136   22.9603 N   0  0  0  0  0  0  0  0  0  0  0  0
  -28.5882  -26.6397   21.5445 N   0  0  0  0  0  0  0  0  0  0  0  0
  -24.5563  -15.4841   20.5655 N   0  0  0  0  0  0  0  0  0  0  0  0
  -28.9613  -23.1544   20.0208 N   0  0  0  0  0  0  0  0  0  0  0  0
  -30.0289  -27.1272   23.3603 N   0  0  0  0  0  0  0  0  0  0  0  0
  -27.0307  -30.5027   23.4738 N   0  0  0  0  0  0  0  0  0  0  0  0
  -23.2121  -18.7578   21.0196 N   0  0  0  0  0  0  0  0  0  0  0  0
  -23.7375  -12.2194   20.9249 N   0  0  0  0  0  0  0  0  0  0  0  0
  -27.7154  -21.6997   21.4083 N   0  0  0  0  0  0  0  0  0  0  0  0
  -25.0284   -9.9955   18.3841 N   0  3  0  0  0  0  0  0  0  0  0  0
  -28.9027  -29.6405   24.4792 O   0  0  0  0  0  0  0  0  0  0  0  0
  -25.0074  -17.6558   22.0120 O   0  0  0  0  0  0  0  0  0  0  0  0
  -22.3612  -14.7281   20.7800 O   0  0  0  0  0  0  0  0  0  0  0  0
  -25.9358  -11.6198   20.4948 O   0  0  0  0  0  0  0  0  0  0  0  0
  -29.3401  -20.8665   20.0216 O   0  0  0  0  0  0  0  0  0  0  0  0
  -22.7408  -31.2156   19.9919 O   0  0  0  0  0  0  0  0  0  0  0  0
  -30.5655  -16.5405   19.6565 O   0  0  0  0  0  0  0  0  0  1  0  0
  -19.3045  -32.9687   23.9318 F   0  0  0  0  0  0  0  0  0  0  0  0
  -23.6356  -32.8614   22.0249 F   0  0  0  0  0  0  0  0  0  0  0  0
  1  2  1  0  0  0  0
  1  5  2  0  0  0  0
  2  6  2  0  0  0  0
  3  8  2  0  0  0  0
  3 16  1  0  0  0  0
  4  9  1  0  0  0  0
  4 16  2  0  0  0  0
  5 18  1  0  0  0  0
  6 20  1  0  0  0  0
  7 10  2  0  0  0  0
  7 19  1  0  0  0  0
  8 23  1  0  0  0  0
  9 23  2  0  0  0  0
 10 24  1  0  0  0  0
 11 12  2  0  0  0  0
 11 25  1  0  0  0  0
 12 26  1  0  0  0  0
 13 21  1  0  0  0  0
 13 24  2  0  0  0  0
 14 22  1  0  0  0  0
 14 29  2  0  0  0  0
 15 26  2  0  0  0  0
 15 27  1  0  0  0  0
 16 28  1  0  0  0  0
 17 28  1  0  0  0  0
 17 31  2  0  0  0  0
 17 32  1  0  0  0  0
 18 20  2  0  0  0  0
 18 37  1  0  0  0  0
 19 21  2  0  0  0  0
 19 38  1  0  0  0  0
 20 46  1  0  0  0  0
 21 39  1  0  0  0  0
 22 30  2  0  0  0  0
 22 57  1  0  0  0  0
 23 82  1  0  0  0  0
 24 83  1  0  0  0  0
 25 27  2  0  0  0  0
 25 82  1  0  0  0  0
 26 84  1  0  0  0  0
 27 85  1  0  0  0  0
 28 65  2  0  0  0  0
 29 63  1  0  0  0  0
 29 66  1  0  0  0  0
 30 49  1  0  0  0  0
 30 67  1  0  0  0  0
 31 68  1  0  0  0  0
 31 71  1  0  0  0  0
 32 72  1  0  0  0  0
 32 77  2  0  0  0  0
 33 47  1  0  0  0  0
 33 73  1  0  0  0  0
 33 78  2  0  0  0  0
 34 61  1  0  0  0  0
 34 69  1  0  0  0  0
 34 79  2  0  0  0  0
 35 62  1  0  0  0  0
 35 74  1  0  0  0  0
 35 80  2  0  0  0  0
 36 70  1  0  0  0  0
 36 75  1  0  0  0  0
 36 81  2  0  0  0  0
 37 40  1  0  0  0  0
 38 47  1  0  0  0  0
 39 69  1  0  0  0  0
 40 42  1  0  0  0  0
 41 43  1  0  0  0  0
 41 44  1  0  0  0  0
 42 46  1  0  0  0  0
 43 48  1  0  0  0  0
 44 70  1  0  0  0  0
 45 48  1  0  0  0  0
 45 70  1  0  0  0  0
 46 73  1  0  0  0  0
 47 69  1  0  0  0  0
 48 68  1  0  0  0  0
 50 62  1  0  0  0  0
 51 63  1  0  0  0  0
 52 63  1  0  0  0  0
 53 64  1  0  0  0  0
 54 64  1  0  0  0  0
 55 64  1  0  0  0  0
 56 76  1  0  0  0  0
 57 58  1  0  0  0  0
 58 60  1  0  0  0  0
 59 63  1  0  0  0  0
 59 75  1  0  0  0  0
 60 83  1  0  0  0  0
 61 64  1  0  0  0  0
 61 74  1  0  0  0  0
 62 76  1  0  0  0  0
 65 68  1  0  0  0  0
 66 67  2  0  0  0  0
M  CHG  1  76   1
M  ISO  4  36 100  60 101  75 100  83 101
M  END
> <Batch ID>
0087

> <Smiles>
CNC(C)C(=O)NC(C(=O)N1Cc2cc([101O:1][101CH2:1]CCc3cc(C(C)(C)C[100NH:0][100C:0](=O)N4CCCC(n5nc(-c6ccc(Oc7ccc(F)cc7F)cc6)c(C(N)=O)c5N)C4)nnc3C)ccc2CC1C(=O)NC1CCCc2ccccc21)C(C)(C)C

> <Shape>
0.195

> <Color>
0.075

> <Negative vol penalty>
0.000

$$$$
