
  -OEChem-04052319043D

 85 93  0     1  0  0  0  0  0999 V2000
  -17.6479  -31.0997   23.7669 C   0  0  0  0  0  0  0  0  0  0  0  0
  -18.8610  -30.4289   23.6497 C   0  0  0  0  0  0  0  0  0  0  0  0
  -24.2800  -13.5521   20.0537 C   0  0  0  0  0  0  0  0  0  0  0  0
  -26.0336  -13.7748   21.7005 C   0  0  0  0  0  0  0  0  0  0  0  0
  -16.4496  -30.3967   23.6493 C   0  0  0  0  0  0  0  0  0  0  0  0
  -18.8765  -29.0543   23.4160 C   0  0  0  0  0  0  0  0  0  0  0  0
  -22.2132  -27.7285   19.8447 C   0  0  0  0  0  0  0  0  0  0  0  0
  -24.4504  -12.1678   20.0593 C   0  0  0  0  0  0  0  0  0  0  0  0
  -26.2041  -12.3904   21.7062 C   0  0  0  0  0  0  0  0  0  0  0  0
  -23.5557  -27.6732   20.2167 C   0  0  0  0  0  0  0  0  0  0  0  0
  -23.5624   -9.5565   22.0152 C   0  0  0  0  0  0  0  0  0  0  0  0
  -22.4166   -8.7625   22.0637 C   0  0  0  0  0  0  0  0  0  0  0  0
  -23.3913  -25.2760   20.4305 C   0  0  0  0  0  0  0  0  0  0  0  0
  -30.2916  -24.0581   16.5544 C   0  0  0  0  0  0  0  0  0  0  0  0
  -30.2888  -24.8282   18.8443 C   0  0  0  0  0  0  0  0  0  0  0  0
  -23.0290   -7.7503   19.9571 C   0  0  0  0  0  0  0  0  0  0  0  0
  -25.0716  -14.3557   20.8742 C   0  0  0  0  0  0  0  0  0  0  0  0
  -24.0332  -16.5398   21.6859 C   0  0  0  0  0  0  0  0  0  0  0  0
  -16.4504  -29.0144   23.4044 C   0  0  0  0  0  0  0  0  0  0  0  0
  -21.4454  -26.5572   19.7733 C   0  0  0  0  0  0  0  0  0  0  0  0
  -17.6771  -28.3319   23.2964 C   0  0  0  0  0  0  0  0  0  0  0  0
  -22.0399  -25.3189   20.0549 C   0  0  0  0  0  0  0  0  0  0  0  0
  -30.3486  -23.7845   17.9209 C   0  0  0  0  0  0  0  0  0  0  0  0
  -30.1749  -25.3756   16.1112 C   0  0  0  0  0  0  0  0  0  0  0  0
  -30.1720  -26.1457   18.4011 C   0  0  0  0  0  0  0  0  0  0  0  0
  -30.1150  -26.4193   17.0346 C   0  0  0  0  0  0  0  0  0  0  0  0
  -25.4125  -11.5869   20.8855 C   0  0  0  0  0  0  0  0  0  0  0  0
  -24.1442  -26.4471   20.5125 C   0  0  0  0  0  0  0  0  0  0  0  0
  -24.4415   -9.4476   20.9377 C   0  0  0  0  0  0  0  0  0  0  0  0
  -22.1500   -7.8594   21.0347 C   0  0  0  0  0  0  0  0  0  0  0  0
  -24.1748   -8.5444   19.9087 C   0  0  0  0  0  0  0  0  0  0  0  0
  -24.8964  -15.7858   20.8685 C   0  0  0  0  0  0  0  0  0  0  0  0
  -24.2376  -17.8401   21.2937 C   0  0  0  0  0  0  0  0  0  0  0  0
  -23.1277  -16.1038   22.7085 C   0  0  0  0  0  0  0  0  0  0  0  0
  -18.8574  -25.4768   21.2694 C   0  0  0  0  0  0  0  0  0  0  0  0
  -19.0980  -23.0621   19.1168 C   0  0  0  0  0  0  0  0  0  0  0  0
  -21.0736  -21.2480   17.0067 C   0  0  0  0  0  0  0  0  0  0  0  0
  -28.8846  -20.5208   18.8288 C   0  0  0  0  0  0  0  0  0  0  0  0
  -15.1300  -28.2892   23.3320 C   0  0  0  0  0  0  0  0  0  0  0  0
  -20.0056  -26.6311   19.3445 C   0  0  0  0  0  0  0  0  0  0  0  0
  -21.2646  -24.0303   19.9735 C   0  0  0  0  0  0  0  0  0  0  0  0
  -15.2322  -26.8984   22.7112 C   0  0  0  0  0  0  0  0  0  0  0  0
  -25.5228  -20.4464   17.4907 C   0  0  0  0  0  0  0  0  0  0  0  0
  -16.4087  -26.1326   23.3080 C   0  0  0  0  0  0  0  0  0  0  0  0
  -24.9007  -19.3032   18.2945 C   0  0  0  0  0  0  0  0  0  0  0  0
  -26.9799  -20.1516   17.1469 C   0  0  0  0  0  0  0  0  0  0  0  0
  -27.2220  -18.7075   19.1293 C   0  0  0  0  0  0  0  0  0  0  0  0
  -17.7351  -26.8455   23.0181 C   0  0  1  0  0  0  0  0  0  0  0  0
  -19.1833  -25.4308   19.8033 C   0  0  1  0  0  0  0  0  0  0  0  0
  -25.7556  -18.9551   19.5275 C   0  0  2  0  0  0  0  0  0  0  0  0
  -30.1148  -25.6416   14.6424 C   0  0  0  0  0  0  0  0  0  0  0  0
  -29.9894  -27.8317   16.5591 C   0  0  0  0  0  0  0  0  0  0  0  0
  -31.7520  -21.6890   17.8917 C   0  0  0  0  0  0  0  0  0  0  0  0
  -20.9948  -19.3137   15.4100 C   0  0  0  0  0  0  0  0  0  0  0  0
  -19.0341  -21.1235   21.4722 C   0  0  0  0  0  0  0  0  0  0  0  0
  -19.8992  -19.3425   19.9399 C   0  0  0  0  0  0  0  0  0  0  0  0
  -17.6867  -20.4039   19.4920 C   0  0  0  0  0  0  0  0  0  0  0  0
  -21.8926  -22.9472   14.7262 C   0  0  0  0  0  0  0  0  0  0  0  0
  -30.1092  -27.2558   19.4198 C   0  0  0  0  0  0  0  0  0  0  0  0
  -28.7018  -27.8262   19.6280 C   0  0  0  0  0  0  0  0  0  0  0  0
  -27.7157  -26.7985   20.1850 C   0  0  0  0  0  0  0  0  0  0  0  0
  -26.3210  -27.3893   20.3408 C   0  0  0  0  0  0  0  0  0  1  0  0
  -30.4741  -22.3760   18.3948 C   0  0  2  0  0  0  0  0  0  0  0  0
  -19.8017  -21.7270   19.0821 C   0  0  1  0  0  0  0  0  0  0  0  0
  -20.8803  -20.8224   15.5624 C   0  0  2  0  0  0  0  0  0  0  0  0
  -19.1198  -20.6735   20.0001 C   0  0  0  0  0  0  0  0  0  0  0  0
  -25.5968  -16.5440   20.0208 N   0  0  0  0  0  0  0  0  0  0  0  0
  -25.1740  -17.7880   20.3035 N   0  0  0  0  0  0  0  0  0  0  0  0
  -19.8584  -24.1552   19.5558 N   0  0  0  0  0  0  0  0  0  0  0  0
  -27.7425  -19.8464   18.3657 N   0  0  0  0  0  0  0  0  0  0  0  0
  -23.7059  -19.0116   21.7026 N   0  0  0  0  0  0  0  0  0  0  0  0
  -23.0417  -14.7324   22.9844 N   0  0  0  0  0  0  0  0  0  0  0  0
  -18.1525  -26.6013   21.6541 N   0  0  0  0  0  0  0  0  0  0  0  0
  -19.8724  -21.3392   17.6775 N   0  0  0  0  0  0  0  0  0  0  0  0
  -29.3168  -21.5831   18.0443 N   0  0  0  0  0  0  0  0  0  0  0  0
  -21.9070  -21.4621   14.6921 N   0  3  0  0  0  0  0  0  0  0  0  0
  -22.4039  -16.9050   23.3470 O   0  0  0  0  0  0  0  0  0  0  0  0
  -19.2175  -24.5592   21.9975 O   0  0  0  0  0  0  0  0  0  0  0  0
  -17.9191  -23.1337   18.7606 O   0  0  0  0  0  0  0  0  0  0  0  0
  -22.1799  -21.4731   17.4924 O   0  0  0  0  0  0  0  0  0  0  0  0
  -29.4728  -20.2031   19.8681 O   0  0  0  0  0  0  0  0  0  0  0  0
  -25.5789  -10.2360   20.8914 O   0  0  0  0  0  0  0  0  0  0  0  0
  -25.4542  -26.3903   20.8765 O   0  0  0  0  0  0  0  0  0  1  0  0
  -21.0505   -7.0958   21.0821 F   0  0  0  0  0  0  0  0  0  0  0  0
  -25.0162   -8.4344   18.8715 F   0  0  0  0  0  0  0  0  0  0  0  0
  1  2  1  0  0  0  0
  1  5  2  0  0  0  0
  2  6  2  0  0  0  0
  3  8  2  0  0  0  0
  3 17  1  0  0  0  0
  4  9  1  0  0  0  0
  4 17  2  0  0  0  0
  5 19  1  0  0  0  0
  6 21  1  0  0  0  0
  7 10  2  0  0  0  0
  7 20  1  0  0  0  0
  8 27  1  0  0  0  0
  9 27  2  0  0  0  0
 10 28  1  0  0  0  0
 11 12  2  0  0  0  0
 11 29  1  0  0  0  0
 12 30  1  0  0  0  0
 13 22  1  0  0  0  0
 13 28  2  0  0  0  0
 14 23  1  0  0  0  0
 14 24  2  0  0  0  0
 15 23  2  0  0  0  0
 15 25  1  0  0  0  0
 16 30  2  0  0  0  0
 16 31  1  0  0  0  0
 17 32  1  0  0  0  0
 18 32  1  0  0  0  0
 18 33  2  0  0  0  0
 18 34  1  0  0  0  0
 19 21  2  0  0  0  0
 19 39  1  0  0  0  0
 20 22  2  0  0  0  0
 20 40  1  0  0  0  0
 21 48  1  0  0  0  0
 22 41  1  0  0  0  0
 23 63  1  0  0  0  0
 24 26  1  0  0  0  0
 24 51  1  0  0  0  0
 25 26  2  0  0  0  0
 25 59  1  0  0  0  0
 26 52  1  0  0  0  0
 27 82  1  0  0  0  0
 28 83  1  0  0  0  0
 29 31  2  0  0  0  0
 29 82  1  0  0  0  0
 30 84  1  0  0  0  0
 31 85  1  0  0  0  0
 32 67  2  0  0  0  0
 33 68  1  0  0  0  0
 33 71  1  0  0  0  0
 34 72  1  0  0  0  0
 34 77  2  0  0  0  0
 35 49  1  0  0  0  0
 35 73  1  0  0  0  0
 35 78  2  0  0  0  0
 36 64  1  0  0  0  0
 36 69  1  0  0  0  0
 36 79  2  0  0  0  0
 37 65  1  0  0  0  0
 37 74  1  0  0  0  0
 37 80  2  0  0  0  0
 38 70  1  0  0  0  0
 38 75  1  0  0  0  0
 38 81  2  0  0  0  0
 39 42  1  0  0  0  0
 40 49  1  0  0  0  0
 41 69  1  0  0  0  0
 42 44  1  0  0  0  0
 43 45  1  0  0  0  0
 43 46  1  0  0  0  0
 44 48  1  0  0  0  0
 45 50  1  0  0  0  0
 46 70  1  0  0  0  0
 47 50  1  0  0  0  0
 47 70  1  0  0  0  0
 48 73  1  0  0  0  0
 49 69  1  0  0  0  0
 50 68  1  0  0  0  0
 53 63  1  0  0  0  0
 54 65  1  0  0  0  0
 55 66  1  0  0  0  0
 56 66  1  0  0  0  0
 57 66  1  0  0  0  0
 58 76  1  0  0  0  0
 59 60  1  0  0  0  0
 60 61  1  0  0  0  0
 61 62  1  0  0  0  0
 62 83  1  0  0  0  0
 63 75  1  0  0  0  0
 64 66  1  0  0  0  0
 64 74  1  0  0  0  0
 65 76  1  0  0  0  0
 67 68  1  0  0  0  0
M  CHG  1  76   1
M  ISO  4  38 100  62 101  75 100  83 101
M  END
> <Batch ID>
0088

> <Smiles>
CNC(C)C(=O)NC(C(=O)N1Cc2cc([101O:1][101CH2:1]CCCc3cc(C(C)[100NH:0][100C:0](=O)N4CCCC(n5nc(-c6ccc(Oc7ccc(F)cc7F)cc6)c(C(N)=O)c5N)C4)cc(C)c3C)ccc2CC1C(=O)NC1CCCc2ccccc21)C(C)(C)C

> <Shape>
0.206

> <Color>
0.071

> <Negative vol penalty>
0.000

$$$$

  -OEChem-04052319043D

 84 92  0     1  0  0  0  0  0999 V2000
  -31.4890  -25.2467   19.3856 C   0  0  0  0  0  0  0  0  0  0  0  0
  -30.3032  -25.1734   18.6618 C   0  0  0  0  0  0  0  0  0  0  0  0
  -26.9782  -13.2170   21.0433 C   0  0  0  0  0  0  0  0  0  0  0  0
  -26.9773  -13.4034   18.6345 C   0  0  0  0  0  0  0  0  0  0  0  0
  -31.4518  -25.3061   20.7781 C   0  0  0  0  0  0  0  0  0  0  0  0
  -29.0795  -25.1583   19.3302 C   0  0  0  0  0  0  0  0  0  0  0  0
  -25.6683  -28.2408   17.2073 C   0  0  0  0  0  0  0  0  0  0  0  0
  -26.2594  -12.0251   20.9514 C   0  0  0  0  0  0  0  0  0  0  0  0
  -26.2585  -12.2115   18.5426 C   0  0  0  0  0  0  0  0  0  0  0  0
  -25.0341  -27.7887   16.0510 C   0  0  0  0  0  0  0  0  0  0  0  0
  -23.0552  -11.0830   20.4318 C   0  0  0  0  0  0  0  0  0  0  0  0
  -21.9727  -10.9118   21.2945 C   0  0  0  0  0  0  0  0  0  0  0  0
  -23.1069  -27.1627   17.3600 C   0  0  0  0  0  0  0  0  0  0  0  0
  -23.0277   -8.9494   22.2289 C   0  0  0  0  0  0  0  0  0  0  0  0
  -23.9118  -22.5213   15.9528 C   0  0  0  0  0  0  0  0  0  0  0  0
  -27.3371  -13.9062   19.8849 C   0  0  0  0  0  0  0  0  0  0  0  0
  -29.4787  -15.2882   19.9901 C   0  0  0  0  0  0  0  0  0  0  0  0
  -30.2267  -25.3015   21.4635 C   0  0  0  0  0  0  0  0  0  0  0  0
  -25.0298  -28.1471   18.4523 C   0  0  0  0  0  0  0  0  0  0  0  0
  -29.0260  -25.2163   20.7332 C   0  0  0  0  0  0  0  0  0  0  0  0
  -23.7341  -27.6167   18.5302 C   0  0  0  0  0  0  0  0  0  0  0  0
  -25.8996  -11.5224   19.7010 C   0  0  0  0  0  0  0  0  0  0  0  0
  -23.7544  -27.2469   16.1276 C   0  0  0  0  0  0  0  0  0  0  0  0
  -24.1240  -10.1874   20.4676 C   0  0  0  0  0  0  0  0  0  0  0  0
  -21.9589   -9.8450   22.1931 C   0  0  0  0  0  0  0  0  0  0  0  0
  -24.1103   -9.1206   21.3661 C   0  0  0  0  0  0  0  0  0  0  0  0
  -28.0790  -15.1377   19.9792 C   0  0  0  0  0  0  0  0  0  0  0  0
  -24.9788  -21.7329   15.6260 C   0  0  0  0  0  0  0  0  0  0  0  0
  -29.6775  -16.6432   20.0941 C   0  0  0  0  0  0  0  0  0  0  0  0
  -23.2700  -21.1317   14.3535 C   0  0  0  0  0  0  0  0  0  0  0  0
  -30.5071  -14.2921   19.9131 C   0  0  0  0  0  0  0  0  0  0  0  0
  -25.6429  -26.6337   21.1794 C   0  0  0  0  0  0  0  0  0  0  0  0
  -23.0712  -28.3064   22.2334 C   0  0  0  0  0  0  0  0  0  0  0  0
  -20.1737  -29.9446   21.4802 C   0  0  0  0  0  0  0  0  0  0  0  0
  -26.3324  -21.3811   18.6063 C   0  0  0  0  0  0  0  0  0  0  0  0
  -30.2385  -25.3195   22.9715 C   0  0  0  0  0  0  0  0  0  0  0  0
  -25.7168  -28.6639   19.6866 C   0  0  0  0  0  0  0  0  0  0  0  0
  -22.9973  -27.5125   19.8397 C   0  0  0  0  0  0  0  0  0  0  0  0
  -28.8880  -25.6768   23.5869 C   0  0  0  0  0  0  0  0  0  0  0  0
  -27.6328  -20.6056   21.8288 C   0  0  0  0  0  0  0  0  0  0  0  0
  -27.7693  -24.8873   22.9146 C   0  0  0  0  0  0  0  0  0  0  0  0
  -28.0209  -19.1299   21.7212 C   0  0  0  0  0  0  0  0  0  0  0  0
  -26.3628  -20.9142   21.0389 C   0  0  0  0  0  0  0  0  0  0  0  0
  -26.7850  -19.0226   19.5167 C   0  0  0  0  0  0  0  0  0  0  0  0
  -27.6780  -25.2227   21.4210 C   0  0  1  0  0  0  0  0  0  0  0  0
  -25.1771  -28.0472   20.9733 C   0  0  1  0  0  0  0  0  0  0  0  0
  -28.0909  -18.6743   20.2512 C   0  0  2  0  0  0  0  0  0  0  0  0
  -22.4565  -20.4194   13.3368 C   0  0  0  0  0  0  0  0  0  0  0  0
  -27.3972  -21.2462   15.1004 C   0  0  0  0  0  0  0  0  0  0  0  0
  -18.2694  -31.1747   22.5562 C   0  0  0  0  0  0  0  0  0  0  0  0
  -21.6822  -25.7576   12.6888 C   0  0  0  0  0  0  0  0  0  0  0  0
  -21.8775  -25.6520   23.1495 C   0  0  0  0  0  0  0  0  0  0  0  0
  -19.6554  -26.7920   23.3257 C   0  0  0  0  0  0  0  0  0  0  0  0
  -21.5589  -27.5469   24.7502 C   0  0  0  0  0  0  0  0  0  0  0  0
  -20.8085  -32.4397   20.0207 C   0  0  0  0  0  0  0  0  0  0  0  0
  -21.1984  -23.6668   13.9855 C   0  0  0  0  0  0  0  0  0  0  0  0
  -21.4858  -22.7302   15.1671 C   0  0  0  0  0  0  0  0  0  0  0  0
  -22.2083  -25.7278   15.1488 C   0  0  0  0  0  0  0  0  0  1  0  0
  -26.3486  -21.6942   16.1444 C   0  0  2  0  0  0  0  0  0  0  0  0
  -21.5819  -28.0633   22.2754 C   0  0  1  0  0  0  0  0  0  0  0  0
  -19.6411  -31.2991   21.9114 C   0  0  2  0  0  0  0  0  0  0  0  0
  -22.1379  -24.8871   13.8669 C   0  0  2  0  0  0  0  0  0  0  0  0
  -21.1828  -27.0136   23.3507 C   0  0  0  0  0  0  0  0  0  0  0  0
  -27.4343  -16.3040   20.0692 N   0  0  0  0  0  0  0  0  0  0  0  0
  -22.8685  -22.1279   15.1497 N   0  0  0  0  0  0  0  0  0  0  0  0
  -28.4334  -17.2003   20.1378 N   0  0  0  0  0  0  0  0  0  0  0  0
  -24.5531  -20.8824   14.6343 N   0  3  0  0  0  0  0  0  0  0  0  0
  -23.7137  -28.0255   21.0192 N   0  0  0  0  0  0  0  0  0  0  0  0
  -26.4951  -20.4586   19.6530 N   0  0  0  0  0  0  0  0  0  0  0  0
  -30.7935  -17.4006   20.1515 N   0  0  0  0  0  0  0  0  0  0  0  0
  -30.1280  -12.9468   19.8099 N   0  0  0  0  0  0  0  0  0  0  0  0
  -27.0170  -26.4956   21.2284 N   0  0  0  0  0  0  0  0  0  0  0  0
  -20.9600  -29.3705   22.4567 N   0  0  0  0  0  0  0  0  0  0  0  0
  -26.4805  -20.8678   17.3236 N   0  0  0  0  0  0  0  0  0  0  0  0
  -19.5274  -32.2089   20.7366 N   0  3  0  0  0  0  0  0  0  0  0  0
  -31.7262  -14.5852   19.9517 O   0  0  0  0  0  0  0  0  0  0  0  0
  -24.8169  -25.7350   21.2876 O   0  0  0  0  0  0  0  0  0  0  0  0
  -23.6424  -28.7365   23.2386 O   0  0  0  0  0  0  0  0  0  0  0  0
  -19.9149  -29.4440   20.3880 O   0  0  0  0  0  0  0  0  0  0  0  0
  -26.0797  -22.5750   18.8007 O   0  0  0  0  0  0  0  0  0  0  0  0
  -25.1985  -10.3593   19.6110 O   0  0  0  0  0  0  0  0  0  0  0  0
  -23.1333  -26.8042   15.0005 O   0  0  0  0  0  0  0  0  0  1  0  0
  -20.9199   -9.6815   23.0225 F   0  0  0  0  0  0  0  0  0  0  0  0
  -25.1347   -8.2576   21.4059 F   0  0  0  0  0  0  0  0  0  0  0  0
  1  2  1  0  0  0  0
  1  5  2  0  0  0  0
  2  6  2  0  0  0  0
  3  8  2  0  0  0  0
  3 16  1  0  0  0  0
  4  9  1  0  0  0  0
  4 16  2  0  0  0  0
  5 18  1  0  0  0  0
  6 20  1  0  0  0  0
  7 10  2  0  0  0  0
  7 19  1  0  0  0  0
  8 22  1  0  0  0  0
  9 22  2  0  0  0  0
 10 23  1  0  0  0  0
 11 12  2  0  0  0  0
 11 24  1  0  0  0  0
 12 25  1  0  0  0  0
 13 21  1  0  0  0  0
 13 23  2  0  0  0  0
 14 25  2  0  0  0  0
 14 26  1  0  0  0  0
 15 28  2  0  0  0  0
 15 65  1  0  0  0  0
 16 27  1  0  0  0  0
 17 27  1  0  0  0  0
 17 29  2  0  0  0  0
 17 31  1  0  0  0  0
 18 20  2  0  0  0  0
 18 36  1  0  0  0  0
 19 21  2  0  0  0  0
 19 37  1  0  0  0  0
 20 45  1  0  0  0  0
 21 38  1  0  0  0  0
 22 81  1  0  0  0  0
 23 82  1  0  0  0  0
 24 26  2  0  0  0  0
 24 81  1  0  0  0  0
 25 83  1  0  0  0  0
 26 84  1  0  0  0  0
 27 64  2  0  0  0  0
 28 59  1  0  0  0  0
 28 67  1  0  0  0  0
 29 66  1  0  0  0  0
 29 70  1  0  0  0  0
 30 48  1  0  0  0  0
 30 65  1  0  0  0  0
 30 67  2  0  0  0  0
 31 71  1  0  0  0  0
 31 76  2  0  0  0  0
 32 46  1  0  0  0  0
 32 72  1  0  0  0  0
 32 77  2  0  0  0  0
 33 60  1  0  0  0  0
 33 68  1  0  0  0  0
 33 78  2  0  0  0  0
 34 61  1  0  0  0  0
 34 73  1  0  0  0  0
 34 79  2  0  0  0  0
 35 69  1  0  0  0  0
 35 74  1  0  0  0  0
 35 80  2  0  0  0  0
 36 39  1  0  0  0  0
 37 46  1  0  0  0  0
 38 68  1  0  0  0  0
 39 41  1  0  0  0  0
 40 42  1  0  0  0  0
 40 43  1  0  0  0  0
 41 45  1  0  0  0  0
 42 47  1  0  0  0  0
 43 69  1  0  0  0  0
 44 47  1  0  0  0  0
 44 69  1  0  0  0  0
 45 72  1  0  0  0  0
 46 68  1  0  0  0  0
 47 66  1  0  0  0  0
 49 59  1  0  0  0  0
 50 61  1  0  0  0  0
 51 62  1  0  0  0  0
 52 63  1  0  0  0  0
 53 63  1  0  0  0  0
 54 63  1  0  0  0  0
 55 75  1  0  0  0  0
 56 57  1  0  0  0  0
 56 62  1  0  0  0  0
 57 65  1  0  0  0  0
 58 62  1  0  0  0  0
 58 82  1  0  0  0  0
 59 74  1  0  0  0  0
 60 63  1  0  0  0  0
 60 73  1  0  0  0  0
 61 75  1  0  0  0  0
 64 66  1  0  0  0  0
M  CHG  2  67   1  75   1
M  ISO  4  35 100  58 101  74 100  82 101
M  END
> <Batch ID>
0088

> <Smiles>
CNC(C)C(=O)NC(C(=O)N1Cc2cc([101O:1][101CH2:1]C(C)CCn3cc(C(C)[100NH:0][100C:0](=O)N4CCCC(n5nc(-c6ccc(Oc7ccc(F)cc7F)cc6)c(C(N)=O)c5N)C4)nc3C)ccc2CC1C(=O)NC1CCCc2ccccc21)C(C)(C)C

> <Shape>
0.203

> <Color>
0.078

> <Negative vol penalty>
0.000

$$$$

  -OEChem-04052319043D

 83 91  0     1  0  0  0  0  0999 V2000
  -23.3179  -24.1178   19.0518 C   0  0  0  0  0  0  0  0  0  0  0  0
  -23.7315  -22.8046   18.8519 C   0  0  0  0  0  0  0  0  0  0  0  0
  -26.4000  -27.9653   18.8218 C   0  0  0  0  0  0  0  0  0  0  0  0
  -26.3668  -27.5251   21.1971 C   0  0  0  0  0  0  0  0  0  0  0  0
  -23.2622  -24.6410   20.3429 C   0  0  0  0  0  0  0  0  0  0  0  0
  -24.0906  -22.0141   19.9431 C   0  0  0  0  0  0  0  0  0  0  0  0
  -23.2000  -15.9881   20.5756 C   0  0  0  0  0  0  0  0  0  0  0  0
  -25.3922  -28.9159   18.9838 C   0  0  0  0  0  0  0  0  0  0  0  0
  -25.3591  -28.4758   21.3592 C   0  0  0  0  0  0  0  0  0  0  0  0
  -24.0381  -14.8908   20.3828 C   0  0  0  0  0  0  0  0  0  0  0  0
  -22.0158  -28.6665   20.8930 C   0  0  0  0  0  0  0  0  0  0  0  0
  -20.9311  -28.3294   21.7024 C   0  0  0  0  0  0  0  0  0  0  0  0
  -24.5534  -14.8779   22.7394 C   0  0  0  0  0  0  0  0  0  0  0  0
  -29.0871  -15.5404   19.7904 C   0  0  0  0  0  0  0  0  0  0  0  0
  -21.4393  -30.1895   23.1581 C   0  0  0  0  0  0  0  0  0  0  0  0
  -26.8873  -27.2698   19.9284 C   0  0  0  0  0  0  0  0  0  0  0  0
  -29.3179  -26.5027   19.8211 C   0  0  0  0  0  0  0  0  0  0  0  0
  -23.6116  -23.8535   21.4513 C   0  0  0  0  0  0  0  0  0  0  0  0
  -23.0405  -16.5463   21.8521 C   0  0  0  0  0  0  0  0  0  0  0  0
  -24.0407  -22.5277   21.2502 C   0  0  0  0  0  0  0  0  0  0  0  0
  -23.7107  -15.9807   22.9462 C   0  0  0  0  0  0  0  0  0  0  0  0
  -29.5633  -14.4605   19.0679 C   0  0  0  0  0  0  0  0  0  0  0  0
  -24.8718  -29.1712   20.2525 C   0  0  0  0  0  0  0  0  0  0  0  0
  -24.7172  -14.3373   21.4642 C   0  0  0  0  0  0  0  0  0  0  0  0
  -22.8124  -29.7651   21.2161 C   0  0  0  0  0  0  0  0  0  0  0  0
  -20.6427  -29.0909   22.8350 C   0  0  0  0  0  0  0  0  0  0  0  0
  -22.5241  -30.5266   22.3486 C   0  0  0  0  0  0  0  0  0  0  0  0
  -27.9279  -26.2873   19.7616 C   0  0  0  0  0  0  0  0  0  0  0  0
  -29.9921  -16.2679   20.5369 C   0  0  0  0  0  0  0  0  0  0  0  0
  -30.9130  -14.1799   19.1394 C   0  0  0  0  0  0  0  0  0  0  0  0
  -29.8671  -25.2634   19.6000 C   0  0  0  0  0  0  0  0  0  0  0  0
  -30.0473  -27.7146   20.0554 C   0  0  0  0  0  0  0  0  0  0  0  0
  -23.6446  -19.3839   23.1509 C   0  0  0  0  0  0  0  0  0  0  0  0
  -22.1370  -18.0951   25.7176 C   0  0  0  0  0  0  0  0  0  0  0  0
  -21.2039  -15.2897   27.4224 C   0  0  0  0  0  0  0  0  0  0  0  0
  -28.9091  -19.7980   20.8744 C   0  0  0  0  0  0  0  0  0  0  0  0
  -23.5806  -24.4777   22.8239 C   0  0  0  0  0  0  0  0  0  0  0  0
  -22.1121  -17.7134   22.0479 C   0  0  0  0  0  0  0  0  0  0  0  0
  -23.5578  -16.5301   24.3402 C   0  0  0  0  0  0  0  0  0  0  0  0
  -23.6194  -23.4569   23.9583 C   0  0  0  0  0  0  0  0  0  0  0  0
  -28.2698  -21.0596   17.5432 C   0  0  0  0  0  0  0  0  0  0  0  0
  -24.6998  -22.4118   23.6992 C   0  0  0  0  0  0  0  0  0  0  0  0
  -28.2529  -22.5696   17.7879 C   0  0  0  0  0  0  0  0  0  0  0  0
  -27.6318  -20.3041   18.7053 C   0  0  0  0  0  0  0  0  0  0  0  0
  -28.2209  -22.1041   20.2823 C   0  0  0  0  0  0  0  0  0  0  0  0
  -24.4146  -21.6311   22.4105 C   0  0  1  0  0  0  0  0  0  0  0  0
  -22.4241  -18.5210   23.3040 C   0  0  1  0  0  0  0  0  0  0  0  0
  -28.8723  -22.9229   19.1530 C   0  0  2  0  0  0  0  0  0  0  0  0
  -31.4977  -13.0314   18.3887 C   0  0  0  0  0  0  0  0  0  0  0  0
  -20.0148  -14.5554   29.5066 C   0  0  0  0  0  0  0  0  0  0  0  0
  -24.5827  -18.8532   27.3772 C   0  0  0  0  0  0  0  0  0  0  0  0
  -23.7714  -17.2918   29.1583 C   0  0  0  0  0  0  0  0  0  0  0  0
  -22.3886  -19.2627   28.5054 C   0  0  0  0  0  0  0  0  0  0  0  0
  -19.1392  -13.8419   25.8734 C   0  0  0  0  0  0  0  0  0  0  0  0
  -28.6171  -13.6326   18.2354 C   0  0  0  0  0  0  0  0  0  0  0  0
  -29.5305  -17.4400   21.3334 C   0  0  0  0  0  0  0  0  0  0  0  0
  -28.2544  -12.2841   18.8673 C   0  0  0  0  0  0  0  0  0  0  0  0
  -27.5045  -12.4263   20.1926 C   0  0  0  0  0  0  0  0  0  0  0  0
  -26.1787  -13.1524   20.0096 C   0  0  0  0  0  0  0  0  0  1  0  0
  -22.5717  -17.2985   26.9241 C   0  0  1  0  0  0  0  0  0  0  0  0
  -19.8748  -14.8733   28.0260 C   0  0  2  0  0  0  0  0  0  0  0  0
  -23.3332  -18.1672   27.9648 C   0  0  0  0  0  0  0  0  0  0  0  0
  -27.6137  -25.0116   19.5213 N   0  0  0  0  0  0  0  0  0  0  0  0
  -31.3078  -15.9705   20.5884 N   0  0  0  0  0  0  0  0  0  0  0  0
  -31.7758  -14.9094   19.8780 N   0  0  0  0  0  0  0  0  0  0  0  0
  -28.8138  -24.4142   19.4278 N   0  0  0  0  0  0  0  0  0  0  0  0
  -22.6436  -17.6757   24.4794 N   0  0  0  0  0  0  0  0  0  0  0  0
  -28.2791  -20.6716   19.9727 N   0  0  0  0  0  0  0  0  0  0  0  0
  -31.1435  -24.8281   19.5379 N   0  0  0  0  0  0  0  0  0  0  0  0
  -29.3266  -28.8984   20.2640 N   0  0  0  0  0  0  0  0  0  0  0  0
  -23.3845  -20.6402   22.6374 N   0  0  0  0  0  0  0  0  0  0  0  0
  -21.3689  -16.6585   27.4457 N   0  0  0  0  0  0  0  0  0  0  0  0
  -28.9148  -18.4571   20.5103 N   0  0  0  0  0  0  0  0  0  0  0  0
  -19.3477  -13.6635   27.3334 N   0  3  0  0  0  0  0  0  0  0  0  0
  -31.3011  -27.7498   20.0628 O   0  0  0  0  0  0  0  0  0  0  0  0
  -24.7409  -18.9432   23.4759 O   0  0  0  0  0  0  0  0  0  0  0  0
  -21.3703  -19.0498   25.8675 O   0  0  0  0  0  0  0  0  0  0  0  0
  -22.0163  -14.4814   26.9782 O   0  0  0  0  0  0  0  0  0  0  0  0
  -29.4331  -20.1851   21.9245 O   0  0  0  0  0  0  0  0  0  0  0  0
  -23.8885  -30.0989   20.4110 O   0  0  0  0  0  0  0  0  0  0  0  0
  -25.5364  -13.2665   21.2787 O   0  0  0  0  0  0  0  0  0  1  0  0
  -19.6001  -28.7680   23.6113 F   0  0  0  0  0  0  0  0  0  0  0  0
  -23.2850  -31.5838   22.6635 F   0  0  0  0  0  0  0  0  0  0  0  0
  1  2  1  0  0  0  0
  1  5  2  0  0  0  0
  2  6  2  0  0  0  0
  3  8  2  0  0  0  0
  3 16  1  0  0  0  0
  4  9  1  0  0  0  0
  4 16  2  0  0  0  0
  5 18  1  0  0  0  0
  6 20  1  0  0  0  0
  7 10  2  0  0  0  0
  7 19  1  0  0  0  0
  8 23  1  0  0  0  0
  9 23  2  0  0  0  0
 10 24  1  0  0  0  0
 11 12  2  0  0  0  0
 11 25  1  0  0  0  0
 12 26  1  0  0  0  0
 13 21  1  0  0  0  0
 13 24  2  0  0  0  0
 14 22  1  0  0  0  0
 14 29  2  0  0  0  0
 15 26  2  0  0  0  0
 15 27  1  0  0  0  0
 16 28  1  0  0  0  0
 17 28  1  0  0  0  0
 17 31  2  0  0  0  0
 17 32  1  0  0  0  0
 18 20  2  0  0  0  0
 18 37  1  0  0  0  0
 19 21  2  0  0  0  0
 19 38  1  0  0  0  0
 20 46  1  0  0  0  0
 21 39  1  0  0  0  0
 22 30  2  0  0  0  0
 22 55  1  0  0  0  0
 23 80  1  0  0  0  0
 24 81  1  0  0  0  0
 25 27  2  0  0  0  0
 25 80  1  0  0  0  0
 26 82  1  0  0  0  0
 27 83  1  0  0  0  0
 28 63  2  0  0  0  0
 29 56  1  0  0  0  0
 29 64  1  0  0  0  0
 30 49  1  0  0  0  0
 30 65  1  0  0  0  0
 31 66  1  0  0  0  0
 31 69  1  0  0  0  0
 32 70  1  0  0  0  0
 32 75  2  0  0  0  0
 33 47  1  0  0  0  0
 33 71  1  0  0  0  0
 33 76  2  0  0  0  0
 34 60  1  0  0  0  0
 34 67  1  0  0  0  0
 34 77  2  0  0  0  0
 35 61  1  0  0  0  0
 35 72  1  0  0  0  0
 35 78  2  0  0  0  0
 36 68  1  0  0  0  0
 36 73  1  0  0  0  0
 36 79  2  0  0  0  0
 37 40  1  0  0  0  0
 38 47  1  0  0  0  0
 39 67  1  0  0  0  0
 40 42  1  0  0  0  0
 41 43  1  0  0  0  0
 41 44  1  0  0  0  0
 42 46  1  0  0  0  0
 43 48  1  0  0  0  0
 44 68  1  0  0  0  0
 45 48  1  0  0  0  0
 45 68  1  0  0  0  0
 46 71  1  0  0  0  0
 47 67  1  0  0  0  0
 48 66  1  0  0  0  0
 50 61  1  0  0  0  0
 51 62  1  0  0  0  0
 52 62  1  0  0  0  0
 53 62  1  0  0  0  0
 54 74  1  0  0  0  0
 55 57  1  0  0  0  0
 56 73  1  0  0  0  0
 57 58  1  0  0  0  0
 58 59  1  0  0  0  0
 59 81  1  0  0  0  0
 60 62  1  0  0  0  0
 60 72  1  0  0  0  0
 61 74  1  0  0  0  0
 63 66  1  0  0  0  0
 64 65  2  0  0  0  0
M  CHG  1  74   1
M  ISO  4  36 100  59 101  73 100  81 101
M  END
> <Batch ID>
0088

> <Smiles>
CNC(C)C(=O)NC(C(=O)N1Cc2cc([101O:1][101CH2:1]CCCc3cc(C[100NH:0][100C:0](=O)N4CCCC(n5nc(-c6ccc(Oc7ccc(F)cc7F)cc6)c(C(N)=O)c5N)C4)nnc3C)ccc2CC1C(=O)NC1CCCc2ccccc21)C(C)(C)C

> <Shape>
0.225

> <Color>
0.052

> <Negative vol penalty>
0.000

$$$$

  -OEChem-04052319043D

 86 94  0     1  0  0  0  0  0999 V2000
  -23.6436  -11.9825   22.1065 C   0  0  0  0  0  0  0  0  0  0  0  0
  -23.6111  -13.2047   21.4428 C   0  0  0  0  0  0  0  0  0  0  0  0
  -29.6963  -17.5022   20.1766 C   0  0  0  0  0  0  0  0  0  0  0  0
  -27.4411  -18.1350   19.5843 C   0  0  0  0  0  0  0  0  0  0  0  0
  -23.4539  -11.9350   23.4870 C   0  0  0  0  0  0  0  0  0  0  0  0
  -23.3877  -14.3801   22.1591 C   0  0  0  0  0  0  0  0  0  0  0  0
  -25.1458  -21.3245   22.1801 C   0  0  0  0  0  0  0  0  0  0  0  0
  -29.2743  -16.1883   20.3797 C   0  0  0  0  0  0  0  0  0  0  0  0
  -27.0191  -16.8211   19.7873 C   0  0  0  0  0  0  0  0  0  0  0  0
  -24.5527  -22.5856   22.2211 C   0  0  0  0  0  0  0  0  0  0  0  0
  -28.5347  -13.4883   18.4834 C   0  0  0  0  0  0  0  0  0  0  0  0
  -29.3209  -12.4656   17.9530 C   0  0  0  0  0  0  0  0  0  0  0  0
  -24.3169  -22.3902   24.6139 C   0  0  0  0  0  0  0  0  0  0  0  0
  -23.7076  -31.7655   23.6421 C   0  0  0  0  0  0  0  0  0  0  0  0
  -22.7964  -29.7287   22.7159 C   0  0  0  0  0  0  0  0  0  0  0  0
  -29.6480  -11.5665   20.1716 C   0  0  0  0  0  0  0  0  0  0  0  0
  -28.7797  -18.4755   19.7790 C   0  0  0  0  0  0  0  0  0  0  0  0
  -29.6883  -20.3986   18.3705 C   0  0  0  0  0  0  0  0  0  0  0  0
  -23.2378  -13.1113   24.2219 C   0  0  0  0  0  0  0  0  0  0  0  0
  -25.3193  -20.5810   23.3563 C   0  0  0  0  0  0  0  0  0  0  0  0
  -23.1937  -14.3481   23.5505 C   0  0  0  0  0  0  0  0  0  0  0  0
  -24.9148  -21.1210   24.5854 C   0  0  0  0  0  0  0  0  0  0  0  0
  -22.6100  -31.0168   23.2176 C   0  0  0  0  0  0  0  0  0  0  0  0
  -24.9917  -31.2263   23.5646 C   0  0  0  0  0  0  0  0  0  0  0  0
  -24.0805  -29.1894   22.6385 C   0  0  0  0  0  0  0  0  0  0  0  0
  -25.1781  -29.9382   23.0629 C   0  0  0  0  0  0  0  0  0  0  0  0
  -27.9357  -15.8477   20.1851 C   0  0  0  0  0  0  0  0  0  0  0  0
  -24.1355  -23.1174   23.4378 C   0  0  0  0  0  0  0  0  0  0  0  0
  -28.3051  -13.5502   19.8579 C   0  0  0  0  0  0  0  0  0  0  0  0
  -29.8776  -11.5046   18.7971 C   0  0  0  0  0  0  0  0  0  0  0  0
  -28.8617  -12.5893   20.7020 C   0  0  0  0  0  0  0  0  0  0  0  0
  -29.2149  -19.8331   19.5696 C   0  0  0  0  0  0  0  0  0  0  0  0
  -29.9688  -21.7037   18.6937 C   0  0  0  0  0  0  0  0  0  0  0  0
  -29.8592  -19.7979   17.0799 C   0  0  0  0  0  0  0  0  0  0  0  0
  -24.2553  -17.7797   24.4167 C   0  0  0  0  0  0  0  0  0  0  0  0
  -26.2835  -18.3807   26.8758 C   0  0  0  0  0  0  0  0  0  0  0  0
  -27.9919  -20.6845   28.7253 C   0  0  0  0  0  0  0  0  0  0  0  0
  -28.5512  -26.4264   21.0672 C   0  0  0  0  0  0  0  0  0  0  0  0
  -22.9909  -13.0051   25.7059 C   0  0  0  0  0  0  0  0  0  0  0  0
  -25.9851  -19.2334   23.2985 C   0  0  0  0  0  0  0  0  0  0  0  0
  -25.0969  -20.3717   25.8792 C   0  0  0  0  0  0  0  0  0  0  0  0
  -23.1330  -14.3339   26.4437 C   0  0  0  0  0  0  0  0  0  0  0  0
  -30.2030  -24.0067   23.1918 C   0  0  0  0  0  0  0  0  0  0  0  0
  -22.3934  -15.4402   25.6982 C   0  0  0  0  0  0  0  0  0  0  0  0
  -30.1296  -22.7449   22.3299 C   0  0  0  0  0  0  0  0  0  0  0  0
  -28.9358  -24.8452   23.0533 C   0  0  0  0  0  0  0  0  0  0  0  0
  -28.5233  -23.9638   20.7891 C   0  0  0  0  0  0  0  0  0  0  0  0
  -22.9788  -15.6474   24.2961 C   0  0  1  0  0  0  0  0  0  0  0  0
  -25.6446  -18.3470   24.4925 C   0  0  1  0  0  0  0  0  0  0  0  0
  -29.7845  -23.0844   20.8678 C   0  0  2  0  0  0  0  0  0  0  0  0
  -21.2371  -31.5935   23.2997 C   0  0  0  0  0  0  0  0  0  0  0  0
  -26.6567  -31.6142   25.3986 C   0  0  0  0  0  0  0  0  0  0  0  0
  -29.5365  -20.8769   30.6938 C   0  0  0  0  0  0  0  0  0  0  0  0
  -23.9304  -17.9245   28.7637 C   0  0  0  0  0  0  0  0  0  0  0  0
  -25.2563  -19.0364   30.5730 C   0  0  0  0  0  0  0  0  0  0  0  0
  -26.0923  -16.9293   29.5319 C   0  0  0  0  0  0  0  0  0  0  0  0
  -30.1394  -21.8728   27.0715 C   0  0  0  0  0  0  0  0  0  0  0  0
  -26.1502  -32.0485   24.0267 C   0  0  0  0  0  0  0  0  0  0  0  0
  -24.2549  -27.7948   22.0923 C   0  0  0  0  0  0  0  0  0  0  0  0
  -26.5550  -29.3602   22.9804 C   0  0  0  0  0  0  0  0  0  0  0  0
  -23.8618  -26.6933   23.0790 C   0  0  0  0  0  0  0  0  0  0  0  0
  -27.1805  -29.4105   21.5743 C   0  0  0  0  0  0  0  0  0  0  0  0
  -28.6066  -28.8692   21.4995 C   0  0  0  0  0  0  0  0  0  0  0  0
  -23.9601  -25.2912   22.4892 C   0  0  0  0  0  0  0  0  0  1  0  0
  -26.1704  -19.0818   28.2080 C   0  0  1  0  0  0  0  0  0  0  0  0
  -29.4385  -20.7368   29.1827 C   0  0  2  0  0  0  0  0  0  0  0  0
  -25.3570  -18.2565   29.2447 C   0  0  0  0  0  0  0  0  0  0  0  0
  -29.1945  -20.7073   20.5792 N   0  0  0  0  0  0  0  0  0  0  0  0
  -29.6587  -21.8354   20.0153 N   0  0  0  0  0  0  0  0  0  0  0  0
  -25.7473  -19.0555   25.7699 N   0  0  0  0  0  0  0  0  0  0  0  0
  -28.6742  -25.1494   21.6394 N   0  0  0  0  0  0  0  0  0  0  0  0
  -30.4480  -22.7401   17.9735 N   0  0  0  0  0  0  0  0  0  0  0  0
  -29.5223  -18.4467   16.9219 N   0  0  0  0  0  0  0  0  0  0  0  0
  -24.2131  -16.3993   24.3698 N   0  0  0  0  0  0  0  0  0  0  0  0
  -27.5344  -19.3876   28.6255 N   0  0  0  0  0  0  0  0  0  0  0  0
  -28.7006  -27.4957   21.9419 N   0  0  0  0  0  0  0  0  0  0  0  0
  -30.1381  -21.8944   28.5570 N   0  3  0  0  0  0  0  0  0  0  0  0
  -30.3132  -20.4361   16.1000 O   0  0  0  0  0  0  0  0  0  0  0  0
  -23.2929  -18.5381   24.4032 O   0  0  0  0  0  0  0  0  0  0  0  0
  -26.8340  -17.2783   26.8174 O   0  0  0  0  0  0  0  0  0  0  0  0
  -27.3326  -21.6934   28.4846 O   0  0  0  0  0  0  0  0  0  0  0  0
  -28.3298  -26.6012   19.8641 O   0  0  0  0  0  0  0  0  0  0  0  0
  -27.5236  -14.5657   20.3829 O   0  0  0  0  0  0  0  0  0  0  0  0
  -23.5557  -24.3478   23.4806 O   0  0  0  0  0  0  0  0  0  1  0  0
  -30.6314  -10.5217   18.2874 F   0  0  0  0  0  0  0  0  0  0  0  0
  -28.6437  -12.6428   22.0231 F   0  0  0  0  0  0  0  0  0  0  0  0
  1  2  1  0  0  0  0
  1  5  2  0  0  0  0
  2  6  2  0  0  0  0
  3  8  2  0  0  0  0
  3 17  1  0  0  0  0
  4  9  1  0  0  0  0
  4 17  2  0  0  0  0
  5 19  1  0  0  0  0
  6 21  1  0  0  0  0
  7 10  2  0  0  0  0
  7 20  1  0  0  0  0
  8 27  1  0  0  0  0
  9 27  2  0  0  0  0
 10 28  1  0  0  0  0
 11 12  2  0  0  0  0
 11 29  1  0  0  0  0
 12 30  1  0  0  0  0
 13 22  1  0  0  0  0
 13 28  2  0  0  0  0
 14 23  2  0  0  0  0
 14 24  1  0  0  0  0
 15 23  1  0  0  0  0
 15 25  2  0  0  0  0
 16 30  2  0  0  0  0
 16 31  1  0  0  0  0
 17 32  1  0  0  0  0
 18 32  1  0  0  0  0
 18 33  2  0  0  0  0
 18 34  1  0  0  0  0
 19 21  2  0  0  0  0
 19 39  1  0  0  0  0
 20 22  2  0  0  0  0
 20 40  1  0  0  0  0
 21 48  1  0  0  0  0
 22 41  1  0  0  0  0
 23 51  1  0  0  0  0
 24 26  2  0  0  0  0
 24 58  1  0  0  0  0
 25 26  1  0  0  0  0
 25 59  1  0  0  0  0
 26 60  1  0  0  0  0
 27 83  1  0  0  0  0
 28 84  1  0  0  0  0
 29 31  2  0  0  0  0
 29 83  1  0  0  0  0
 30 85  1  0  0  0  0
 31 86  1  0  0  0  0
 32 68  2  0  0  0  0
 33 69  1  0  0  0  0
 33 72  1  0  0  0  0
 34 73  1  0  0  0  0
 34 78  2  0  0  0  0
 35 49  1  0  0  0  0
 35 74  1  0  0  0  0
 35 79  2  0  0  0  0
 36 65  1  0  0  0  0
 36 70  1  0  0  0  0
 36 80  2  0  0  0  0
 37 66  1  0  0  0  0
 37 75  1  0  0  0  0
 37 81  2  0  0  0  0
 38 71  1  0  0  0  0
 38 76  1  0  0  0  0
 38 82  2  0  0  0  0
 39 42  1  0  0  0  0
 40 49  1  0  0  0  0
 41 70  1  0  0  0  0
 42 44  1  0  0  0  0
 43 45  1  0  0  0  0
 43 46  1  0  0  0  0
 44 48  1  0  0  0  0
 45 50  1  0  0  0  0
 46 71  1  0  0  0  0
 47 50  1  0  0  0  0
 47 71  1  0  0  0  0
 48 74  1  0  0  0  0
 49 70  1  0  0  0  0
 50 69  1  0  0  0  0
 52 58  1  0  0  0  0
 53 66  1  0  0  0  0
 54 67  1  0  0  0  0
 55 67  1  0  0  0  0
 56 67  1  0  0  0  0
 57 77  1  0  0  0  0
 59 61  1  0  0  0  0
 60 62  1  0  0  0  0
 61 64  1  0  0  0  0
 62 63  1  0  0  0  0
 63 76  1  0  0  0  0
 64 84  1  0  0  0  0
 65 67  1  0  0  0  0
 65 75  1  0  0  0  0
 66 77  1  0  0  0  0
 68 69  1  0  0  0  0
M  CHG  1  77   1
M  ISO  4  38 100  64 101  76 100  84 101
M  END
> <Batch ID>
0088

> <Smiles>
CCc1cc(C)cc(CC[101CH2:1][101O:1]c2ccc3c(c2)CN(C(=O)C(NC(=O)C(C)NC)C(C)(C)C)C(C(=O)NC2CCCc4ccccc42)C3)c1CCC[100NH:0][100C:0](=O)N1CCCC(n2nc(-c3ccc(Oc4ccc(F)cc4F)cc3)c(C(N)=O)c2N)C1

> <Shape>
0.194

> <Color>
0.067

> <Negative vol penalty>
0.000

$$$$

  -OEChem-04052319043D

 87 95  0     1  0  0  0  0  0999 V2000
  -18.2980  -24.6276   24.4766 C   0  0  0  0  0  0  0  0  0  0  0  0
  -19.6825  -24.5254   24.3864 C   0  0  0  0  0  0  0  0  0  0  0  0
  -25.4352  -11.6855   19.8353 C   0  0  0  0  0  0  0  0  0  0  0  0
  -24.8062  -12.6769   21.9468 C   0  0  0  0  0  0  0  0  0  0  0  0
  -17.6484  -25.7510   23.9667 C   0  0  0  0  0  0  0  0  0  0  0  0
  -20.4182  -25.5462   23.7854 C   0  0  0  0  0  0  0  0  0  0  0  0
  -24.5505  -26.7839   26.4382 C   0  0  0  0  0  0  0  0  0  0  0  0
  -25.5700  -10.4447   20.4581 C   0  0  0  0  0  0  0  0  0  0  0  0
  -24.9410  -11.4361   22.5696 C   0  0  0  0  0  0  0  0  0  0  0  0
  -25.6527  -25.9368   26.3319 C   0  0  0  0  0  0  0  0  0  0  0  0
  -24.7696   -8.4565   24.6459 C   0  0  0  0  0  0  0  0  0  0  0  0
  -23.7671   -8.0625   25.5320 C   0  0  0  0  0  0  0  0  0  0  0  0
  -26.6616  -27.4574   24.7542 C   0  0  0  0  0  0  0  0  0  0  0  0
  -26.2477  -24.1439   22.3059 C   0  0  0  0  0  0  0  0  0  0  0  0
  -22.1407   -8.1930   23.7501 C   0  0  0  0  0  0  0  0  0  0  0  0
  -24.8384  -22.4249   21.4599 C   0  0  0  0  0  0  0  0  0  0  0  0
  -25.0533  -12.8017   20.5797 C   0  0  0  0  0  0  0  0  0  0  0  0
  -23.7544  -14.6153   19.3422 C   0  0  0  0  0  0  0  0  0  0  0  0
  -18.3774  -26.7904   23.3678 C   0  0  0  0  0  0  0  0  0  0  0  0
  -24.4905  -27.9708   25.6937 C   0  0  0  0  0  0  0  0  0  0  0  0
  -19.7776  -26.6839   23.2659 C   0  0  0  0  0  0  0  0  0  0  0  0
  -25.5587  -28.3191   24.8547 C   0  0  0  0  0  0  0  0  0  0  0  0
  -25.0450  -23.7708   21.7163 C   0  0  0  0  0  0  0  0  0  0  0  0
  -27.1937  -23.1735   22.6167 C   0  0  0  0  0  0  0  0  0  0  0  0
  -25.3229  -10.3200   21.8252 C   0  0  0  0  0  0  0  0  0  0  0  0
  -26.7072  -26.2721   25.4877 C   0  0  0  0  0  0  0  0  0  0  0  0
  -24.4577   -8.7190   23.3118 C   0  0  0  0  0  0  0  0  0  0  0  0
  -22.4526   -7.9307   25.0842 C   0  0  0  0  0  0  0  0  0  0  0  0
  -23.1432   -8.5872   22.8640 C   0  0  0  0  0  0  0  0  0  0  0  0
  -24.9143  -14.0838   19.9371 C   0  0  0  0  0  0  0  0  0  0  0  0
  -26.8908  -21.8543   22.3202 C   0  0  0  0  0  0  0  0  0  0  0  0
  -24.1407  -15.8492   18.8789 C   0  0  0  0  0  0  0  0  0  0  0  0
  -22.4448  -14.0447   19.2195 C   0  0  0  0  0  0  0  0  0  0  0  0
  -22.5574  -29.1117   23.4430 C   0  0  0  0  0  0  0  0  0  0  0  0
  -24.3428  -31.7939   23.8177 C   0  0  0  0  0  0  0  0  0  0  0  0
  -27.2983  -33.1943   24.7928 C   0  0  0  0  0  0  0  0  0  0  0  0
  -28.4787  -19.6413   20.5077 C   0  0  0  0  0  0  0  0  0  0  0  0
  -17.6268  -27.9635   22.7887 C   0  0  0  0  0  0  0  0  0  0  0  0
  -23.3066  -28.8869   25.8398 C   0  0  0  0  0  0  0  0  0  0  0  0
  -25.5521  -29.5918   24.0494 C   0  0  0  0  0  0  0  0  0  0  0  0
  -18.5135  -29.1727   22.5027 C   0  0  0  0  0  0  0  0  0  0  0  0
  -27.9804  -18.2159   17.2833 C   0  0  0  0  0  0  0  0  0  0  0  0
  -19.7861  -28.7426   21.7801 C   0  0  0  0  0  0  0  0  0  0  0  0
  -27.0335  -17.0433   17.5441 C   0  0  0  0  0  0  0  0  0  0  0  0
  -28.9794  -18.3991   18.4237 C   0  0  0  0  0  0  0  0  0  0  0  0
  -27.4274  -17.3484   20.0241 C   0  0  0  0  0  0  0  0  0  0  0  0
  -20.6127  -27.7817   22.6432 C   0  0  1  0  0  0  0  0  0  0  0  0
  -23.1196  -29.8168   24.6449 C   0  0  1  0  0  0  0  0  0  0  0  0
  -26.3655  -17.1589   18.9275 C   0  0  2  0  0  0  0  0  0  0  0  0
  -28.4748  -35.4056   24.9455 C   0  0  0  0  0  0  0  0  0  0  0  0
  -22.1256  -28.1176   18.0485 C   0  0  0  0  0  0  0  0  0  0  0  0
  -23.0602  -25.9718   17.1639 C   0  0  0  0  0  0  0  0  0  0  0  0
  -24.8269  -31.7417   20.8056 C   0  0  0  0  0  0  0  0  0  0  0  0
  -26.7184  -33.3449   21.1521 C   0  0  0  0  0  0  0  0  0  0  0  0
  -24.3919  -34.0149   21.7530 C   0  0  0  0  0  0  0  0  0  0  0  0
  -27.5613  -32.9824   27.7330 C   0  0  0  0  0  0  0  0  0  0  0  0
  -24.0122  -24.7843   21.3724 C   0  0  0  0  0  0  0  0  0  0  0  0
  -28.5008  -23.5713   23.2545 C   0  0  0  0  0  0  0  0  0  0  0  0
  -27.8688  -20.7692   22.6326 C   0  0  0  0  0  0  0  0  0  0  0  0
  -24.1432  -25.3736   19.9531 C   0  0  0  0  0  0  0  0  0  0  0  0
  -28.5720  -23.2695   24.7529 C   0  0  0  0  0  0  0  0  0  0  0  0
  -23.0998  -26.4613   19.6674 C   0  0  0  0  0  0  0  0  0  0  0  0
  -27.5545  -24.0516   25.5754 C   0  0  0  0  0  0  0  0  0  1  0  0
  -25.6084  -32.3315   23.1946 C   0  0  1  0  0  0  0  0  0  0  0  0
  -27.6031  -34.3934   25.6724 C   0  0  2  0  0  0  0  0  0  0  0  0
  -23.1993  -27.0444   18.2450 C   0  0  0  0  0  0  0  0  0  0  0  0
  -25.3860  -32.8332   21.7399 C   0  0  0  0  0  0  0  0  0  0  0  0
  -25.7335  -21.4536   21.7477 N   0  0  0  0  0  0  0  0  0  0  0  0
  -25.9592  -14.9122   19.8600 N   0  0  0  0  0  0  0  0  0  0  0  0
  -25.4573  -15.9767   19.2112 N   0  0  0  0  0  0  0  0  0  0  0  0
  -24.3695  -30.4516   24.2217 N   0  0  0  0  0  0  0  0  0  0  0  0
  -28.2815  -18.5038   19.7075 N   0  0  0  0  0  0  0  0  0  0  0  0
  -23.4792  -16.8268   18.2237 N   0  0  0  0  0  0  0  0  0  0  0  0
  -22.2200  -12.7676   19.7513 N   0  0  0  0  0  0  0  0  0  0  0  0
  -21.3325  -28.5118   23.6646 N   0  0  0  0  0  0  0  0  0  0  0  0
  -26.1118  -33.3515   24.1081 N   0  0  0  0  0  0  0  0  0  0  0  0
  -27.7747  -19.6635   21.7055 N   0  0  0  0  0  0  0  0  0  0  0  0
  -28.3151  -33.9616   26.9083 N   0  3  0  0  0  0  0  0  0  0  0  0
  -21.5063  -14.6426   18.6405 O   0  0  0  0  0  0  0  0  0  0  0  0
  -23.1877  -29.1131   22.3921 O   0  0  0  0  0  0  0  0  0  0  0  0
  -23.3688  -32.5396   23.9479 O   0  0  0  0  0  0  0  0  0  0  0  0
  -28.0405  -32.2176   24.7175 O   0  0  0  0  0  0  0  0  0  0  0  0
  -29.2227  -20.5707   20.1766 O   0  0  0  0  0  0  0  0  0  0  0  0
  -25.4542   -9.1093   22.4331 O   0  0  0  0  0  0  0  0  0  0  0  0
  -27.7839  -25.4467   25.3816 O   0  0  0  0  0  0  0  0  0  1  0  0
  -21.4903   -7.5508   25.9349 F   0  0  0  0  0  0  0  0  0  0  0  0
  -22.8377   -8.8367   21.5833 F   0  0  0  0  0  0  0  0  0  0  0  0
  1  2  1  0  0  0  0
  1  5  2  0  0  0  0
  2  6  2  0  0  0  0
  3  8  2  0  0  0  0
  3 17  1  0  0  0  0
  4  9  1  0  0  0  0
  4 17  2  0  0  0  0
  5 19  1  0  0  0  0
  6 21  1  0  0  0  0
  7 10  2  0  0  0  0
  7 20  1  0  0  0  0
  8 25  1  0  0  0  0
  9 25  2  0  0  0  0
 10 26  1  0  0  0  0
 11 12  2  0  0  0  0
 11 27  1  0  0  0  0
 12 28  1  0  0  0  0
 13 22  1  0  0  0  0
 13 26  2  0  0  0  0
 14 23  2  0  0  0  0
 14 24  1  0  0  0  0
 15 28  2  0  0  0  0
 15 29  1  0  0  0  0
 16 23  1  0  0  0  0
 16 68  2  0  0  0  0
 17 30  1  0  0  0  0
 18 30  1  0  0  0  0
 18 32  2  0  0  0  0
 18 33  1  0  0  0  0
 19 21  2  0  0  0  0
 19 38  1  0  0  0  0
 20 22  2  0  0  0  0
 20 39  1  0  0  0  0
 21 47  1  0  0  0  0
 22 40  1  0  0  0  0
 23 57  1  0  0  0  0
 24 31  2  0  0  0  0
 24 58  1  0  0  0  0
 25 84  1  0  0  0  0
 26 85  1  0  0  0  0
 27 29  2  0  0  0  0
 27 84  1  0  0  0  0
 28 86  1  0  0  0  0
 29 87  1  0  0  0  0
 30 69  2  0  0  0  0
 31 59  1  0  0  0  0
 31 68  1  0  0  0  0
 32 70  1  0  0  0  0
 32 73  1  0  0  0  0
 33 74  1  0  0  0  0
 33 79  2  0  0  0  0
 34 48  1  0  0  0  0
 34 75  1  0  0  0  0
 34 80  2  0  0  0  0
 35 64  1  0  0  0  0
 35 71  1  0  0  0  0
 35 81  2  0  0  0  0
 36 65  1  0  0  0  0
 36 76  1  0  0  0  0
 36 82  2  0  0  0  0
 37 72  1  0  0  0  0
 37 77  1  0  0  0  0
 37 83  2  0  0  0  0
 38 41  1  0  0  0  0
 39 48  1  0  0  0  0
 40 71  1  0  0  0  0
 41 43  1  0  0  0  0
 42 44  1  0  0  0  0
 42 45  1  0  0  0  0
 43 47  1  0  0  0  0
 44 49  1  0  0  0  0
 45 72  1  0  0  0  0
 46 49  1  0  0  0  0
 46 72  1  0  0  0  0
 47 75  1  0  0  0  0
 48 71  1  0  0  0  0
 49 70  1  0  0  0  0
 50 65  1  0  0  0  0
 51 66  1  0  0  0  0
 52 66  1  0  0  0  0
 53 67  1  0  0  0  0
 54 67  1  0  0  0  0
 55 67  1  0  0  0  0
 56 78  1  0  0  0  0
 57 60  1  0  0  0  0
 58 61  1  0  0  0  0
 59 77  1  0  0  0  0
 60 62  1  0  0  0  0
 61 63  1  0  0  0  0
 62 66  1  0  0  0  0
 63 85  1  0  0  0  0
 64 67  1  0  0  0  0
 64 76  1  0  0  0  0
 65 78  1  0  0  0  0
 69 70  1  0  0  0  0
M  CHG  1  78   1
M  ISO  4  37 100  63 101  77 100  85 101
M  END
> <Batch ID>
0088

> <Smiles>
CNC(C)C(=O)NC(C(=O)N1Cc2cc([101O:1][101CH2:1]CCc3cc(CCCC(C)C)cnc3C[100NH:0][100C:0](=O)N3CCCC(n4nc(-c5ccc(Oc6ccc(F)cc6F)cc5)c(C(N)=O)c4N)C3)ccc2CC1C(=O)NC1CCCc2ccccc21)C(C)(C)C

> <Shape>
0.215

> <Color>
0.084

> <Negative vol penalty>
0.000

$$$$

  -OEChem-04052319043D

 83 91  0     1  0  0  0  0  0999 V2000
  -16.3117  -28.2942   23.5250 C   0  0  0  0  0  0  0  0  0  0  0  0
  -17.3309  -27.9354   22.6486 C   0  0  0  0  0  0  0  0  0  0  0  0
  -25.7702  -15.0569   21.5376 C   0  0  0  0  0  0  0  0  0  0  0  0
  -24.7145  -16.5683   19.9761 C   0  0  0  0  0  0  0  0  0  0  0  0
  -16.2269  -29.6041   23.9949 C   0  0  0  0  0  0  0  0  0  0  0  0
  -18.2654  -28.8868   22.2409 C   0  0  0  0  0  0  0  0  0  0  0  0
  -24.2016  -27.9478   21.0640 C   0  0  0  0  0  0  0  0  0  0  0  0
  -24.5959  -14.3074   21.6060 C   0  0  0  0  0  0  0  0  0  0  0  0
  -23.5402  -15.8188   20.0445 C   0  0  0  0  0  0  0  0  0  0  0  0
  -24.9031  -27.7559   19.8745 C   0  0  0  0  0  0  0  0  0  0  0  0
  -23.0128  -11.9810   19.7313 C   0  0  0  0  0  0  0  0  0  0  0  0
  -23.1250  -10.5925   19.6603 C   0  0  0  0  0  0  0  0  0  0  0  0
  -25.4519  -30.1045   19.8264 C   0  0  0  0  0  0  0  0  0  0  0  0
  -28.5668  -24.6347   18.6792 C   0  0  0  0  0  0  0  0  0  0  0  0
  -22.1038  -10.3986   21.8413 C   0  0  0  0  0  0  0  0  0  0  0  0
  -30.6136  -25.8243   18.4508 C   0  0  0  0  0  0  0  0  0  0  0  0
  -25.8296  -16.1874   20.7227 C   0  0  0  0  0  0  0  0  0  0  0  0
  -28.1133  -16.7852   19.7559 C   0  0  0  0  0  0  0  0  0  0  0  0
  -17.1664  -30.5696   23.6003 C   0  0  0  0  0  0  0  0  0  0  0  0
  -24.1107  -29.2236   21.6388 C   0  0  0  0  0  0  0  0  0  0  0  0
  -18.1922  -30.2111   22.7050 C   0  0  0  0  0  0  0  0  0  0  0  0
  -24.7508  -30.3094   21.0246 C   0  0  0  0  0  0  0  0  0  0  0  0
  -29.3377  -25.5576   17.9811 C   0  0  0  0  0  0  0  0  0  0  0  0
  -29.0881  -24.0155   19.8097 C   0  0  0  0  0  0  0  0  0  0  0  0
  -23.4809  -14.6882   20.8595 C   0  0  0  0  0  0  0  0  0  0  0  0
  -25.5260  -28.8349   19.2540 C   0  0  0  0  0  0  0  0  0  0  0  0
  -22.4462  -12.5783   20.8573 C   0  0  0  0  0  0  0  0  0  0  0  0
  -22.6705   -9.8013   20.7153 C   0  0  0  0  0  0  0  0  0  0  0  0
  -21.9917  -11.7871   21.9123 C   0  0  0  0  0  0  0  0  0  0  0  0
  -27.0422  -16.9625   20.6520 C   0  0  0  0  0  0  0  0  0  0  0  0
  -30.3753  -24.3511   20.1975 C   0  0  0  0  0  0  0  0  0  0  0  0
  -29.0121  -17.7663   20.0967 C   0  0  0  0  0  0  0  0  0  0  0  0
  -28.2809  -15.8200   18.7090 C   0  0  0  0  0  0  0  0  0  0  0  0
  -21.7268  -31.2147   22.3146 C   0  0  0  0  0  0  0  0  0  0  0  0
  -24.0863  -32.9439   23.7165 C   0  0  0  0  0  0  0  0  0  0  0  0
  -27.4108  -33.6920   23.9021 C   0  0  0  0  0  0  0  0  0  0  0  0
  -27.9685  -23.0173   23.0761 C   0  0  0  0  0  0  0  0  0  0  0  0
  -17.0061  -31.9843   24.0977 C   0  0  0  0  0  0  0  0  0  0  0  0
  -23.3727  -29.4090   22.9363 C   0  0  0  0  0  0  0  0  0  0  0  0
  -24.7003  -31.6955   21.6118 C   0  0  0  0  0  0  0  0  0  0  0  0
  -18.2559  -32.8408   23.9115 C   0  0  0  0  0  0  0  0  0  0  0  0
  -30.4755  -20.3946   23.8096 C   0  0  0  0  0  0  0  0  0  0  0  0
  -18.8203  -32.6630   22.5056 C   0  0  0  0  0  0  0  0  0  0  0  0
  -29.9213  -19.1848   23.0590 C   0  0  0  0  0  0  0  0  0  0  0  0
  -29.3676  -21.3507   24.2409 C   0  0  0  0  0  0  0  0  0  0  0  0
  -27.9357  -20.5883   22.3747 C   0  0  0  0  0  0  0  0  0  0  0  0
  -19.2393  -31.2086   22.2592 C   0  0  1  0  0  0  0  0  0  0  0  0
  -22.9118  -30.8457   23.1616 C   0  0  1  0  0  0  0  0  0  0  0  0
  -29.0304  -19.6282   21.8855 C   0  0  2  0  0  0  0  0  0  0  0  0
  -30.9873  -23.7169   21.4036 C   0  0  0  0  0  0  0  0  0  0  0  0
  -29.0319  -35.1726   25.1176 C   0  0  0  0  0  0  0  0  0  0  0  0
  -23.1699  -35.3213   22.0378 C   0  0  0  0  0  0  0  0  0  0  0  0
  -25.3472  -36.4410   22.5611 C   0  0  0  0  0  0  0  0  0  0  0  0
  -23.7609  -35.8801   24.4027 C   0  0  0  0  0  0  0  0  0  0  0  0
  -27.1892  -24.9221   21.7181 C   0  0  0  0  0  0  0  0  0  0  0  0
  -28.8779  -31.3725   25.0095 C   0  0  0  0  0  0  0  0  0  0  0  0
  -28.8024  -26.2460   16.7509 C   0  0  0  0  0  0  0  0  0  0  0  0
  -28.2669  -23.0271   20.5634 C   0  0  0  0  0  0  0  0  0  0  0  0
  -28.0741  -27.5587   17.0474 C   0  0  0  0  0  0  0  0  0  0  0  0
  -26.8189  -27.3752   17.8926 C   0  0  0  0  0  0  0  0  0  1  0  0
  -25.0380  -34.0224   23.2581 C   0  0  1  0  0  0  0  0  0  0  0  0
  -28.3515  -33.8129   25.0875 C   0  0  2  0  0  0  0  0  0  0  0  0
  -24.3285  -35.3906   23.0526 C   0  0  0  0  0  0  0  0  0  0  0  0
  -31.1542  -25.2427   19.5449 N   0  0  0  0  0  0  0  0  0  0  0  0
  -27.2405  -17.9764   21.4985 N   0  0  0  0  0  0  0  0  0  0  0  0
  -28.4467  -18.4450   21.1359 N   0  0  0  0  0  0  0  0  0  0  0  0
  -23.9612  -31.8269   22.8783 N   0  0  0  0  0  0  0  0  0  0  0  0
  -28.5100  -21.7219   23.1148 N   0  0  0  0  0  0  0  0  0  0  0  0
  -30.2229  -18.1061   19.6058 N   0  0  0  0  0  0  0  0  0  0  0  0
  -27.2604  -14.8837   18.4938 N   0  0  0  0  0  0  0  0  0  0  0  0
  -20.5073  -30.9325   22.8998 N   0  0  0  0  0  0  0  0  0  0  0  0
  -26.1219  -34.0521   24.2341 N   0  0  0  0  0  0  0  0  0  0  0  0
  -27.7388  -23.5769   21.8101 N   0  0  0  0  0  0  0  0  0  0  0  0
  -29.4054  -32.7612   25.0217 N   0  3  0  0  0  0  0  0  0  0  0  0
  -29.3125  -15.7784   17.9965 O   0  0  0  0  0  0  0  0  0  0  0  0
  -21.9057  -31.7194   21.2124 O   0  0  0  0  0  0  0  0  0  0  0  0
  -23.4817  -33.0839   24.7825 O   0  0  0  0  0  0  0  0  0  0  0  0
  -27.7831  -33.3193   22.7917 O   0  0  0  0  0  0  0  0  0  0  0  0
  -27.7142  -23.6419   24.1139 O   0  0  0  0  0  0  0  0  0  0  0  0
  -22.3349  -13.9569   20.9259 O   0  0  0  0  0  0  0  0  0  0  0  0
  -26.2108  -28.6505   18.0926 O   0  0  0  0  0  0  0  0  0  1  0  0
  -22.7768   -8.4678   20.6464 F   0  0  0  0  0  0  0  0  0  0  0  0
  -21.4454  -12.3552   22.9961 F   0  0  0  0  0  0  0  0  0  0  0  0
  1  2  1  0  0  0  0
  1  5  2  0  0  0  0
  2  6  2  0  0  0  0
  3  8  2  0  0  0  0
  3 17  1  0  0  0  0
  4  9  1  0  0  0  0
  4 17  2  0  0  0  0
  5 19  1  0  0  0  0
  6 21  1  0  0  0  0
  7 10  2  0  0  0  0
  7 20  1  0  0  0  0
  8 25  1  0  0  0  0
  9 25  2  0  0  0  0
 10 26  1  0  0  0  0
 11 12  2  0  0  0  0
 11 27  1  0  0  0  0
 12 28  1  0  0  0  0
 13 22  1  0  0  0  0
 13 26  2  0  0  0  0
 14 23  2  0  0  0  0
 14 24  1  0  0  0  0
 15 28  2  0  0  0  0
 15 29  1  0  0  0  0
 16 23  1  0  0  0  0
 16 64  2  0  0  0  0
 17 30  1  0  0  0  0
 18 30  1  0  0  0  0
 18 32  2  0  0  0  0
 18 33  1  0  0  0  0
 19 21  2  0  0  0  0
 19 38  1  0  0  0  0
 20 22  2  0  0  0  0
 20 39  1  0  0  0  0
 21 47  1  0  0  0  0
 22 40  1  0  0  0  0
 23 57  1  0  0  0  0
 24 31  2  0  0  0  0
 24 58  1  0  0  0  0
 25 80  1  0  0  0  0
 26 81  1  0  0  0  0
 27 29  2  0  0  0  0
 27 80  1  0  0  0  0
 28 82  1  0  0  0  0
 29 83  1  0  0  0  0
 30 65  2  0  0  0  0
 31 50  1  0  0  0  0
 31 64  1  0  0  0  0
 32 66  1  0  0  0  0
 32 69  1  0  0  0  0
 33 70  1  0  0  0  0
 33 75  2  0  0  0  0
 34 48  1  0  0  0  0
 34 71  1  0  0  0  0
 34 76  2  0  0  0  0
 35 61  1  0  0  0  0
 35 67  1  0  0  0  0
 35 77  2  0  0  0  0
 36 62  1  0  0  0  0
 36 72  1  0  0  0  0
 36 78  2  0  0  0  0
 37 68  1  0  0  0  0
 37 73  1  0  0  0  0
 37 79  2  0  0  0  0
 38 41  1  0  0  0  0
 39 48  1  0  0  0  0
 40 67  1  0  0  0  0
 41 43  1  0  0  0  0
 42 44  1  0  0  0  0
 42 45  1  0  0  0  0
 43 47  1  0  0  0  0
 44 49  1  0  0  0  0
 45 68  1  0  0  0  0
 46 49  1  0  0  0  0
 46 68  1  0  0  0  0
 47 71  1  0  0  0  0
 48 67  1  0  0  0  0
 49 66  1  0  0  0  0
 51 62  1  0  0  0  0
 52 63  1  0  0  0  0
 53 63  1  0  0  0  0
 54 63  1  0  0  0  0
 55 73  1  0  0  0  0
 56 74  1  0  0  0  0
 57 59  1  0  0  0  0
 58 73  1  0  0  0  0
 59 60  1  0  0  0  0
 60 81  1  0  0  0  0
 61 63  1  0  0  0  0
 61 72  1  0  0  0  0
 62 74  1  0  0  0  0
 65 66  1  0  0  0  0
M  CHG  1  74   1
M  ISO  4  37 100  60 101  73 100  81 101
M  END
> <Batch ID>
0088

> <Smiles>
CNC(C)C(=O)NC(C(=O)N1Cc2cc([101O:1][101CH2:1]CCc3cnc(C)c(C[100N:0](C)[100C:0](=O)N4CCCC(n5nc(-c6ccc(Oc7ccc(F)cc7F)cc6)c(C(N)=O)c5N)C4)c3)ccc2CC1C(=O)NC1CCCc2ccccc21)C(C)(C)C

> <Shape>
0.289

> <Color>
0.085

> <Negative vol penalty>
0.000

$$$$

  -OEChem-04052319043D

 90 98  0     1  0  0  0  0  0999 V2000
  -17.4435  -26.6878   21.8306 C   0  0  0  0  0  0  0  0  0  0  0  0
  -18.5086  -27.0483   21.0114 C   0  0  0  0  0  0  0  0  0  0  0  0
  -26.5158  -15.1349   21.2796 C   0  0  0  0  0  0  0  0  0  0  0  0
  -26.9109  -14.8861   18.9092 C   0  0  0  0  0  0  0  0  0  0  0  0
  -17.4228  -27.0938   23.1643 C   0  0  0  0  0  0  0  0  0  0  0  0
  -19.5531  -27.8161   21.5252 C   0  0  0  0  0  0  0  0  0  0  0  0
  -24.1042  -26.0799   20.1405 C   0  0  0  0  0  0  0  0  0  0  0  0
  -26.2510  -13.7691   21.3789 C   0  0  0  0  0  0  0  0  0  0  0  0
  -26.6461  -13.5202   19.0085 C   0  0  0  0  0  0  0  0  0  0  0  0
  -24.5322  -26.3761   18.8471 C   0  0  0  0  0  0  0  0  0  0  0  0
  -25.7229  -10.0322   18.5709 C   0  0  0  0  0  0  0  0  0  0  0  0
  -24.8988   -9.4594   17.6021 C   0  0  0  0  0  0  0  0  0  0  0  0
  -25.8908  -28.1710   19.7143 C   0  0  0  0  0  0  0  0  0  0  0  0
  -24.8488  -24.1929   14.1409 C   0  0  0  0  0  0  0  0  0  0  0  0
  -23.1059  -10.9437   18.2499 C   0  0  0  0  0  0  0  0  0  0  0  0
  -26.8457  -15.6935   20.0447 C   0  0  0  0  0  0  0  0  0  0  0  0
  -28.3662  -17.7415   20.0823 C   0  0  0  0  0  0  0  0  0  0  0  0
  -18.4722  -27.8589   23.6972 C   0  0  0  0  0  0  0  0  0  0  0  0
  -24.5586  -26.8352   21.2311 C   0  0  0  0  0  0  0  0  0  0  0  0
  -19.5457  -28.2340   22.8669 C   0  0  0  0  0  0  0  0  0  0  0  0
  -25.4690  -27.8806   21.0208 C   0  0  0  0  0  0  0  0  0  0  0  0
  -25.8160  -25.1402   13.8051 C   0  0  0  0  0  0  0  0  0  0  0  0
  -25.1793  -22.8380   14.1680 C   0  0  0  0  0  0  0  0  0  0  0  0
  -27.1137  -24.7326   13.4961 C   0  0  0  0  0  0  0  0  0  0  0  0
  -26.4771  -22.4304   13.8590 C   0  0  0  0  0  0  0  0  0  0  0  0
  -27.4443  -23.3777   13.5231 C   0  0  0  0  0  0  0  0  0  0  0  0
  -26.3162  -12.9617   20.2434 C   0  0  0  0  0  0  0  0  0  0  0  0
  -25.4234  -27.4237   18.6335 C   0  0  0  0  0  0  0  0  0  0  0  0
  -25.2385  -11.0606   19.3792 C   0  0  0  0  0  0  0  0  0  0  0  0
  -23.5903   -9.9152   17.4416 C   0  0  0  0  0  0  0  0  0  0  0  0
  -23.9300  -11.5164   19.2186 C   0  0  0  0  0  0  0  0  0  0  0  0
  -27.1187  -17.1045   19.9414 C   0  0  0  0  0  0  0  0  0  0  0  0
  -28.0939  -19.0747   19.8960 C   0  0  0  0  0  0  0  0  0  0  0  0
  -29.6558  -17.1783   20.3568 C   0  0  0  0  0  0  0  0  0  0  0  0
  -23.1722  -28.6914   23.4073 C   0  0  0  0  0  0  0  0  0  0  0  0
  -26.1560  -28.7657   24.6777 C   0  0  0  0  0  0  0  0  0  0  0  0
  -29.5191  -28.4437   24.1954 C   0  0  0  0  0  0  0  0  0  0  0  0
  -23.7451  -21.9797   16.9804 C   0  0  0  0  0  0  0  0  0  0  0  0
  -18.3826  -28.3142   25.1322 C   0  0  0  0  0  0  0  0  0  0  0  0
  -24.1082  -26.4858   22.6230 C   0  0  0  0  0  0  0  0  0  0  0  0
  -26.0025  -28.7088   22.1601 C   0  0  0  0  0  0  0  0  0  0  0  0
  -19.7110  -28.8096   25.6981 C   0  0  0  0  0  0  0  0  0  0  0  0
  -24.5911  -22.2905   20.4249 C   0  0  0  0  0  0  0  0  0  0  0  0
  -20.3903  -29.7569   24.7143 C   0  0  0  0  0  0  0  0  0  0  0  0
  -25.4474  -21.0541   20.7043 C   0  0  0  0  0  0  0  0  0  0  0  0
  -23.4633  -21.9855   19.4415 C   0  0  0  0  0  0  0  0  0  0  0  0
  -24.7532  -20.1327   18.4531 C   0  0  0  0  0  0  0  0  0  0  0  0
  -20.7094  -29.0452   23.3940 C   0  0  1  0  0  0  0  0  0  0  0  0
  -24.2364  -27.6487   23.6021 C   0  0  1  0  0  0  0  0  0  0  0  0
  -25.9376  -20.4044   19.3964 C   0  0  2  0  0  0  0  0  0  0  0  0
  -28.1492  -25.7507   13.1364 C   0  0  0  0  0  0  0  0  0  0  0  0
  -31.7076  -28.5991   25.4134 C   0  0  0  0  0  0  0  0  0  0  0  0
  -27.4693  -20.8526   11.4240 C   0  0  0  0  0  0  0  0  0  0  0  0
  -26.9512  -18.7574   12.6909 C   0  0  0  0  0  0  0  0  0  0  0  0
  -29.7019  -23.1246   15.5827 C   0  0  0  0  0  0  0  0  0  0  0  0
  -31.3123  -23.0655   13.6678 C   0  0  0  0  0  0  0  0  0  0  0  0
  -25.9695  -31.8106   24.6194 C   0  0  0  0  0  0  0  0  0  0  0  0
  -28.4525  -31.8991   24.9278 C   0  0  0  0  0  0  0  0  0  0  0  0
  -27.0149  -30.8689   26.6870 C   0  0  0  0  0  0  0  0  0  0  0  0
  -30.1631  -25.6094   23.6379 C   0  0  0  0  0  0  0  0  0  0  0  0
  -25.4322  -26.5982   13.7829 C   0  0  0  0  0  0  0  0  0  0  0  0
  -26.8285  -20.9766   13.8880 C   0  0  0  0  0  0  0  0  0  0  0  0
  -28.8365  -22.9405   13.1922 C   0  0  0  0  0  0  0  0  0  0  0  0
  -24.1253  -21.8440   14.5317 C   0  0  0  0  0  0  0  0  0  0  0  0
  -25.9302  -27.3847   14.9973 C   0  0  0  0  0  0  0  0  0  0  0  0
  -25.3285  -26.9074   16.3140 C   0  0  0  0  0  0  0  0  0  1  0  0
  -27.3705  -29.6451   24.5034 C   0  0  1  0  0  0  0  0  0  0  0  0
  -30.5792  -27.6812   24.9695 C   0  0  2  0  0  0  0  0  0  0  0  0
  -26.6189  -20.2442   12.5419 C   0  0  0  0  0  0  0  0  0  0  0  0
  -29.9249  -23.5256   14.1223 C   0  0  0  0  0  0  0  0  0  0  0  0
  -27.1905  -31.0418   25.1625 C   0  0  0  0  0  0  0  0  0  0  0  0
  -26.1276  -17.9625   19.6856 N   0  0  0  0  0  0  0  0  0  0  0  0
  -26.7521  -19.1523   19.6643 N   0  0  0  0  0  0  0  0  0  0  0  0
  -25.5274  -28.3323   23.5018 N   0  0  0  0  0  0  0  0  0  0  0  0
  -23.9953  -21.3724   18.2221 N   0  0  0  0  0  0  0  0  0  0  0  0
  -28.8737  -20.1766   19.9096 N   0  0  0  0  0  0  0  0  0  0  0  0
  -29.7576  -15.7901   20.5203 N   0  0  0  0  0  0  0  0  0  0  0  0
  -21.8832  -28.2114   23.5401 N   0  0  0  0  0  0  0  0  0  0  0  0
  -28.5034  -28.8832   25.0179 N   0  0  0  0  0  0  0  0  0  0  0  0
  -24.2908  -21.3372   15.8758 N   0  0  0  0  0  0  0  0  0  0  0  0
  -31.1587  -26.5985   24.1251 N   0  3  0  0  0  0  0  0  0  0  0  0
  -30.6847  -17.8869   20.4706 O   0  0  0  0  0  0  0  0  0  0  0  0
  -23.4965  -29.8463   23.1567 O   0  0  0  0  0  0  0  0  0  0  0  0
  -25.7830  -28.4682   25.8153 O   0  0  0  0  0  0  0  0  0  0  0  0
  -29.5871  -28.6338   22.9831 O   0  0  0  0  0  0  0  0  0  0  0  0
  -23.0889  -23.0204   16.8654 O   0  0  0  0  0  0  0  0  0  0  0  0
  -26.0581  -11.6288   20.3399 O   0  0  0  0  0  0  0  0  0  0  0  0
  -25.8422  -27.7154   17.3721 O   0  0  0  0  0  0  0  0  0  1  0  0
  -22.7996   -9.3661   16.5103 F   0  0  0  0  0  0  0  0  0  0  0  0
  -23.4594  -12.5049   19.9914 F   0  0  0  0  0  0  0  0  0  0  0  0
  1  2  1  0  0  0  0
  1  5  2  0  0  0  0
  2  6  2  0  0  0  0
  3  8  2  0  0  0  0
  3 16  1  0  0  0  0
  4  9  1  0  0  0  0
  4 16  2  0  0  0  0
  5 18  1  0  0  0  0
  6 20  1  0  0  0  0
  7 10  2  0  0  0  0
  7 19  1  0  0  0  0
  8 27  1  0  0  0  0
  9 27  2  0  0  0  0
 10 28  1  0  0  0  0
 11 12  2  0  0  0  0
 11 29  1  0  0  0  0
 12 30  1  0  0  0  0
 13 21  1  0  0  0  0
 13 28  2  0  0  0  0
 14 22  1  0  0  0  0
 14 23  2  0  0  0  0
 15 30  2  0  0  0  0
 15 31  1  0  0  0  0
 16 32  1  0  0  0  0
 17 32  1  0  0  0  0
 17 33  2  0  0  0  0
 17 34  1  0  0  0  0
 18 20  2  0  0  0  0
 18 39  1  0  0  0  0
 19 21  2  0  0  0  0
 19 40  1  0  0  0  0
 20 48  1  0  0  0  0
 21 41  1  0  0  0  0
 22 24  2  0  0  0  0
 22 61  1  0  0  0  0
 23 25  1  0  0  0  0
 23 64  1  0  0  0  0
 24 26  1  0  0  0  0
 24 51  1  0  0  0  0
 25 26  2  0  0  0  0
 25 62  1  0  0  0  0
 26 63  1  0  0  0  0
 27 87  1  0  0  0  0
 28 88  1  0  0  0  0
 29 31  2  0  0  0  0
 29 87  1  0  0  0  0
 30 89  1  0  0  0  0
 31 90  1  0  0  0  0
 32 72  2  0  0  0  0
 33 73  1  0  0  0  0
 33 76  1  0  0  0  0
 34 77  1  0  0  0  0
 34 82  2  0  0  0  0
 35 49  1  0  0  0  0
 35 78  1  0  0  0  0
 35 83  2  0  0  0  0
 36 67  1  0  0  0  0
 36 74  1  0  0  0  0
 36 84  2  0  0  0  0
 37 68  1  0  0  0  0
 37 79  1  0  0  0  0
 37 85  2  0  0  0  0
 38 75  1  0  0  0  0
 38 80  1  0  0  0  0
 38 86  2  0  0  0  0
 39 42  1  0  0  0  0
 40 49  1  0  0  0  0
 41 74  1  0  0  0  0
 42 44  1  0  0  0  0
 43 45  1  0  0  0  0
 43 46  1  0  0  0  0
 44 48  1  0  0  0  0
 45 50  1  0  0  0  0
 46 75  1  0  0  0  0
 47 50  1  0  0  0  0
 47 75  1  0  0  0  0
 48 78  1  0  0  0  0
 49 74  1  0  0  0  0
 50 73  1  0  0  0  0
 52 68  1  0  0  0  0
 53 69  1  0  0  0  0
 54 69  1  0  0  0  0
 55 70  1  0  0  0  0
 56 70  1  0  0  0  0
 57 71  1  0  0  0  0
 58 71  1  0  0  0  0
 59 71  1  0  0  0  0
 60 81  1  0  0  0  0
 61 65  1  0  0  0  0
 62 69  1  0  0  0  0
 63 70  1  0  0  0  0
 64 80  1  0  0  0  0
 65 66  1  0  0  0  0
 66 88  1  0  0  0  0
 67 71  1  0  0  0  0
 67 79  1  0  0  0  0
 68 81  1  0  0  0  0
 72 73  1  0  0  0  0
M  CHG  1  81   1
M  ISO  4  38 100  66 101  80 100  88 101
M  END
> <Batch ID>
0088

> <Smiles>
CNC(C)C(=O)NC(C(=O)N1Cc2cc([101O:1][101CH2:1]CCc3cc(C[100NH:0][100C:0](=O)N4CCCC(n5nc(-c6ccc(Oc7ccc(F)cc7F)cc6)c(C(N)=O)c5N)C4)c(CC(C)C)c(CC(C)C)c3C)ccc2CC1C(=O)NC1CCCc2ccccc21)C(C)(C)C

> <Shape>
0.187

> <Color>
0.078

> <Negative vol penalty>
0.000

$$$$

  -OEChem-04052319043D

 88 96  0     1  0  0  0  0  0999 V2000
  -33.2833  -32.7264   28.6434 C   0  0  0  0  0  0  0  0  0  0  0  0
  -32.9949  -31.3797   28.8402 C   0  0  0  0  0  0  0  0  0  0  0  0
  -23.0046   -9.8895   19.9828 C   0  0  0  0  0  0  0  0  0  0  0  0
  -23.7341   -9.9427   22.2854 C   0  0  0  0  0  0  0  0  0  0  0  0
  -32.9327  -33.3452   27.4442 C   0  0  0  0  0  0  0  0  0  0  0  0
  -32.3546  -30.6514   27.8382 C   0  0  0  0  0  0  0  0  0  0  0  0
  -33.2278  -24.7519   26.4453 C   0  0  0  0  0  0  0  0  0  0  0  0
  -29.1980  -15.5513   26.5308 C   0  0  0  0  0  0  0  0  0  0  0  0
  -29.2002  -16.8765   26.0956 C   0  0  0  0  0  0  0  0  0  0  0  0
  -22.2421   -8.7527   20.2506 C   0  0  0  0  0  0  0  0  0  0  0  0
  -22.9715   -8.8059   22.5532 C   0  0  0  0  0  0  0  0  0  0  0  0
  -32.5247  -23.5953   26.7793 C   0  0  0  0  0  0  0  0  0  0  0  0
  -23.2251   -5.4677   22.0809 C   0  0  0  0  0  0  0  0  0  0  0  0
  -23.8172   -4.4523   22.8319 C   0  0  0  0  0  0  0  0  0  0  0  0
  -31.3304  -23.7244   24.6874 C   0  0  0  0  0  0  0  0  0  0  0  0
  -22.0958   -4.6900   24.5104 C   0  0  0  0  0  0  0  0  0  0  0  0
  -23.7507  -10.4845   21.0002 C   0  0  0  0  0  0  0  0  0  0  0  0
  -24.1280  -13.0012   20.8234 C   0  0  0  0  0  0  0  0  0  0  0  0
  -32.2965  -32.6217   26.4233 C   0  0  0  0  0  0  0  0  0  0  0  0
  -32.9793  -25.4107   25.2326 C   0  0  0  0  0  0  0  0  0  0  0  0
  -31.9940  -31.2615   26.6247 C   0  0  0  0  0  0  0  0  0  0  0  0
  -32.0335  -24.8878   24.3392 C   0  0  0  0  0  0  0  0  0  0  0  0
  -29.9800  -14.6005   25.8749 C   0  0  0  0  0  0  0  0  0  0  0  0
  -29.9844  -17.2510   25.0045 C   0  0  0  0  0  0  0  0  0  0  0  0
  -30.7641  -14.9750   24.7838 C   0  0  0  0  0  0  0  0  0  0  0  0
  -30.7664  -16.3002   24.3486 C   0  0  0  0  0  0  0  0  0  0  0  0
  -22.2255   -8.2109   21.5358 C   0  0  0  0  0  0  0  0  0  0  0  0
  -31.5738  -23.0830   25.9016 C   0  0  0  0  0  0  0  0  0  0  0  0
  -22.0684   -6.0943   22.5447 C   0  0  0  0  0  0  0  0  0  0  0  0
  -23.2525   -4.0634   24.0466 C   0  0  0  0  0  0  0  0  0  0  0  0
  -21.5037   -5.7054   23.7594 C   0  0  0  0  0  0  0  0  0  0  0  0
  -24.5391  -11.6585   20.7240 C   0  0  0  0  0  0  0  0  0  0  0  0
  -25.2349  -13.7272   20.4568 C   0  0  0  0  0  0  0  0  0  0  0  0
  -22.8592  -13.5438   21.2124 C   0  0  0  0  0  0  0  0  0  0  0  0
  -31.9155  -28.2947   24.4235 C   0  0  0  0  0  0  0  0  0  0  0  0
  -32.6328  -27.2899   21.4239 C   0  0  0  0  0  0  0  0  0  0  0  0
  -33.1130  -24.6778   19.2807 C   0  0  0  0  0  0  0  0  0  0  0  0
  -30.7289  -14.6785   20.6948 C   0  0  0  0  0  0  0  0  0  0  0  0
  -31.8944  -33.3456   25.1627 C   0  0  0  0  0  0  0  0  0  0  0  0
  -33.7653  -26.6424   24.8752 C   0  0  0  0  0  0  0  0  0  0  0  0
  -31.7440  -25.5460   23.0158 C   0  0  0  0  0  0  0  0  0  0  0  0
  -31.5549  -32.4102   24.0051 C   0  0  0  0  0  0  0  0  0  0  0  0
  -29.5910  -12.2513   18.3515 C   0  0  0  0  0  0  0  0  0  0  0  0
  -30.6385  -31.2862   24.4781 C   0  0  0  0  0  0  0  0  0  0  0  0
  -28.1441  -11.9872   18.7719 C   0  0  0  0  0  0  0  0  0  0  0  0
  -30.4950  -12.4895   19.5590 C   0  0  0  0  0  0  0  0  0  0  0  0
  -28.5851  -13.2792   20.9014 C   0  0  0  0  0  0  0  0  0  0  0  0
  -31.3227  -30.4316   25.5520 C   0  0  1  0  0  0  0  0  0  0  0  0
  -33.0642  -27.5198   23.8426 C   0  0  1  0  0  0  0  0  0  0  0  0
  -27.6244  -13.0886   19.7153 C   0  0  2  0  0  0  0  0  0  0  0  0
  -32.8689  -13.6147   24.8623 C   0  0  0  0  0  0  0  0  0  0  0  0
  -26.5785  -11.9258   24.9127 C   0  0  0  0  0  0  0  0  0  0  0  0
  -33.6511  -24.1706   16.8827 C   0  0  0  0  0  0  0  0  0  0  0  0
  -29.7782  -28.0201   20.6314 C   0  0  0  0  0  0  0  0  0  0  0  0
  -30.0755  -26.6447   18.5606 C   0  0  0  0  0  0  0  0  0  0  0  0
  -31.5197  -28.6415   18.9475 C   0  0  0  0  0  0  0  0  0  0  0  0
  -35.5956  -23.2463   20.0196 C   0  0  0  0  0  0  0  0  0  0  0  0
  -29.9596  -13.1883   26.3615 C   0  0  0  0  0  0  0  0  0  0  0  0
  -29.9669  -18.6897   24.5535 C   0  0  0  0  0  0  0  0  0  0  0  0
  -31.6028  -13.9535   24.0831 C   0  0  0  0  0  0  0  0  0  0  0  0
  -31.6056  -16.7033   23.1776 C   0  0  0  0  0  0  0  0  0  0  0  0
  -27.9638  -12.5521   24.9294 C   0  0  0  0  0  0  0  0  0  0  0  0
  -28.5431  -12.5934   26.3434 C   0  0  0  0  0  0  0  0  0  0  0  0
  -30.3971  -19.6803   25.6376 C   0  0  0  0  0  0  0  0  0  0  0  0
  -30.8073  -16.8576   21.8797 C   0  0  0  0  0  0  0  0  0  0  0  0
  -30.4586  -21.1224   25.1477 C   0  0  0  0  0  0  0  0  0  1  0  0
  -31.8863  -26.5594   20.3339 C   0  0  1  0  0  0  0  0  0  0  0  0
  -34.2152  -24.3868   18.2783 C   0  0  2  0  0  0  0  0  0  0  0  0
  -30.8188  -27.4549   19.6441 C   0  0  0  0  0  0  0  0  0  0  0  0
  -25.8080  -11.5358   20.3254 N   0  0  0  0  0  0  0  0  0  0  0  0
  -26.2038  -12.8108   20.1710 N   0  0  0  0  0  0  0  0  0  0  0  0
  -32.5339  -26.7514   22.7146 N   0  0  0  0  0  0  0  0  0  0  0  0
  -29.9467  -13.5465   20.4121 N   0  0  0  0  0  0  0  0  0  0  0  0
  -25.4641  -15.0536   20.3543 N   0  0  0  0  0  0  0  0  0  0  0  0
  -21.8307  -12.6565   21.5579 N   0  0  0  0  0  0  0  0  0  0  0  0
  -32.2724  -29.5233   24.9458 N   0  0  0  0  0  0  0  0  0  0  0  0
  -32.9004  -26.0323   19.4272 N   0  0  0  0  0  0  0  0  0  0  0  0
  -30.1312  -15.6354   21.5057 N   0  0  0  0  0  0  0  0  0  0  0  0
  -34.9673  -23.1633   18.6760 N   0  3  0  0  0  0  0  0  0  0  0  0
  -22.6388  -14.7784   21.2365 O   0  0  0  0  0  0  0  0  0  0  0  0
  -30.7884  -27.8143   24.3984 O   0  0  0  0  0  0  0  0  0  0  0  0
  -33.2857  -28.2971   21.1392 O   0  0  0  0  0  0  0  0  0  0  0  0
  -32.4992  -23.7920   19.8716 O   0  0  0  0  0  0  0  0  0  0  0  0
  -31.8730  -14.8279   20.2525 O   0  0  0  0  0  0  0  0  0  0  0  0
  -21.4813   -7.1017   21.7976 O   0  0  0  0  0  0  0  0  0  0  0  0
  -30.8856  -21.9545   26.2255 O   0  0  0  0  0  0  0  0  0  1  0  0
  -23.8204   -3.0872   24.7669 F   0  0  0  0  0  0  0  0  0  0  0  0
  -20.3919   -6.3029   24.2096 F   0  0  0  0  0  0  0  0  0  0  0  0
  1  2  1  0  0  0  0
  1  5  2  0  0  0  0
  2  6  2  0  0  0  0
  3 10  2  0  0  0  0
  3 17  1  0  0  0  0
  4 11  1  0  0  0  0
  4 17  2  0  0  0  0
  5 19  1  0  0  0  0
  6 21  1  0  0  0  0
  7 12  2  0  0  0  0
  7 20  1  0  0  0  0
  8  9  2  0  0  0  0
  8 23  1  0  0  0  0
  9 24  1  0  0  0  0
 10 27  1  0  0  0  0
 11 27  2  0  0  0  0
 12 28  1  0  0  0  0
 13 14  2  0  0  0  0
 13 29  1  0  0  0  0
 14 30  1  0  0  0  0
 15 22  1  0  0  0  0
 15 28  2  0  0  0  0
 16 30  2  0  0  0  0
 16 31  1  0  0  0  0
 17 32  1  0  0  0  0
 18 32  1  0  0  0  0
 18 33  2  0  0  0  0
 18 34  1  0  0  0  0
 19 21  2  0  0  0  0
 19 39  1  0  0  0  0
 20 22  2  0  0  0  0
 20 40  1  0  0  0  0
 21 48  1  0  0  0  0
 22 41  1  0  0  0  0
 23 25  2  0  0  0  0
 23 58  1  0  0  0  0
 24 26  2  0  0  0  0
 24 59  1  0  0  0  0
 25 26  1  0  0  0  0
 25 60  1  0  0  0  0
 26 61  1  0  0  0  0
 27 85  1  0  0  0  0
 28 86  1  0  0  0  0
 29 31  2  0  0  0  0
 29 85  1  0  0  0  0
 30 87  1  0  0  0  0
 31 88  1  0  0  0  0
 32 70  2  0  0  0  0
 33 71  1  0  0  0  0
 33 74  1  0  0  0  0
 34 75  1  0  0  0  0
 34 80  2  0  0  0  0
 35 49  1  0  0  0  0
 35 76  1  0  0  0  0
 35 81  2  0  0  0  0
 36 67  1  0  0  0  0
 36 72  1  0  0  0  0
 36 82  2  0  0  0  0
 37 68  1  0  0  0  0
 37 77  1  0  0  0  0
 37 83  2  0  0  0  0
 38 73  1  0  0  0  0
 38 78  1  0  0  0  0
 38 84  2  0  0  0  0
 39 42  1  0  0  0  0
 40 49  1  0  0  0  0
 41 72  1  0  0  0  0
 42 44  1  0  0  0  0
 43 45  1  0  0  0  0
 43 46  1  0  0  0  0
 44 48  1  0  0  0  0
 45 50  1  0  0  0  0
 46 73  1  0  0  0  0
 47 50  1  0  0  0  0
 47 73  1  0  0  0  0
 48 76  1  0  0  0  0
 49 72  1  0  0  0  0
 50 71  1  0  0  0  0
 51 60  1  0  0  0  0
 52 62  1  0  0  0  0
 53 68  1  0  0  0  0
 54 69  1  0  0  0  0
 55 69  1  0  0  0  0
 56 69  1  0  0  0  0
 57 79  1  0  0  0  0
 58 63  1  0  0  0  0
 59 64  1  0  0  0  0
 61 65  1  0  0  0  0
 62 63  1  0  0  0  0
 64 66  1  0  0  0  0
 65 78  1  0  0  0  0
 66 86  1  0  0  0  0
 67 69  1  0  0  0  0
 67 77  1  0  0  0  0
 68 79  1  0  0  0  0
 70 71  1  0  0  0  0
M  CHG  1  79   1
M  ISO  4  38 100  66 101  78 100  86 101
M  END
> <Batch ID>
0088

> <Smiles>
CCCCc1ccc(CC[101CH2:1][101O:1]c2ccc3c(c2)CN(C(=O)C(NC(=O)C(C)NC)C(C)(C)C)C(C(=O)NC2CCCc4ccccc42)C3)c(CC[100NH:0][100C:0](=O)N2CCCC(n3nc(-c4ccc(Oc5ccc(F)cc5F)cc4)c(C(N)=O)c3N)C2)c1CC

> <Shape>
0.196

> <Color>
0.197

> <Negative vol penalty>
0.000

$$$$

  -OEChem-04052319043D

 85 93  0     1  0  0  0  0  0999 V2000
  -28.9021  -28.7947   21.0021 C   0  0  0  0  0  0  0  0  0  0  0  0
  -27.9600  -27.7827   20.8478 C   0  0  0  0  0  0  0  0  0  0  0  0
  -21.5880  -25.8737   23.8445 C   0  0  0  0  0  0  0  0  0  0  0  0
  -23.6490  -25.4107   22.6720 C   0  0  0  0  0  0  0  0  0  0  0  0
  -30.1920  -28.6272   20.5002 C   0  0  0  0  0  0  0  0  0  0  0  0
  -28.3071  -26.6029   20.1905 C   0  0  0  0  0  0  0  0  0  0  0  0
  -26.2902  -20.9584   21.4465 C   0  0  0  0  0  0  0  0  0  0  0  0
  -21.9209  -27.2273   23.8951 C   0  0  0  0  0  0  0  0  0  0  0  0
  -23.9819  -26.7644   22.7224 C   0  0  0  0  0  0  0  0  0  0  0  0
  -25.2915  -20.1706   20.8758 C   0  0  0  0  0  0  0  0  0  0  0  0
  -23.1552  -29.5942   21.0704 C   0  0  0  0  0  0  0  0  0  0  0  0
  -23.6486  -30.1825   19.9059 C   0  0  0  0  0  0  0  0  0  0  0  0
  -26.9467  -19.0772   19.5033 C   0  0  0  0  0  0  0  0  0  0  0  0
  -26.4978  -12.4586   20.8981 C   0  0  0  0  0  0  0  0  0  0  0  0
  -25.6989  -30.7398   21.0562 C   0  0  0  0  0  0  0  0  0  0  0  0
  -22.4522  -24.9654   23.2330 C   0  0  0  0  0  0  0  0  0  0  0  0
  -21.3859  -22.9060   22.1702 C   0  0  0  0  0  0  0  0  0  0  0  0
  -30.5579  -27.4409   19.8449 C   0  0  0  0  0  0  0  0  0  0  0  0
  -27.6254  -20.8189   21.0414 C   0  0  0  0  0  0  0  0  0  0  0  0
  -29.6028  -26.4199   19.6782 C   0  0  0  0  0  0  0  0  0  0  0  0
  -27.9608  -19.8627   20.0723 C   0  0  0  0  0  0  0  0  0  0  0  0
  -25.6020  -11.6303   20.2312 C   0  0  0  0  0  0  0  0  0  0  0  0
  -26.1006  -13.7334   21.2862 C   0  0  0  0  0  0  0  0  0  0  0  0
  -23.1177  -27.6727   23.3340 C   0  0  0  0  0  0  0  0  0  0  0  0
  -25.6193  -19.2318   19.9020 C   0  0  0  0  0  0  0  0  0  0  0  0
  -23.9336  -29.5787   22.2278 C   0  0  0  0  0  0  0  0  0  0  0  0
  -24.9204  -30.7553   19.8988 C   0  0  0  0  0  0  0  0  0  0  0  0
  -25.2054  -30.1515   22.2207 C   0  0  0  0  0  0  0  0  0  0  0  0
  -22.1092  -23.5669   23.1811 C   0  0  0  0  0  0  0  0  0  0  0  0
  -24.3308  -12.1199   19.9784 C   0  0  0  0  0  0  0  0  0  0  0  0
  -24.8070  -14.1289   20.9860 C   0  0  0  0  0  0  0  0  0  0  0  0
  -21.3301  -21.5984   22.5868 C   0  0  0  0  0  0  0  0  0  0  0  0
  -20.8154  -23.4275   20.9626 C   0  0  0  0  0  0  0  0  0  0  0  0
  -29.7646  -22.7285   19.6698 C   0  0  0  0  0  0  0  0  0  0  0  0
  -31.7648  -20.2339   20.2162 C   0  0  0  0  0  0  0  0  0  0  0  0
  -32.1409  -16.8821   20.7369 C   0  0  0  0  0  0  0  0  0  0  0  0
  -23.7754  -17.0698   24.7449 C   0  0  0  0  0  0  0  0  0  0  0  0
  -31.9505  -27.3247   19.2776 C   0  0  0  0  0  0  0  0  0  0  0  0
  -28.6946  -21.6577   21.6859 C   0  0  0  0  0  0  0  0  0  0  0  0
  -29.3822  -19.6597   19.6171 C   0  0  0  0  0  0  0  0  0  0  0  0
  -32.3466  -25.8936   18.9236 C   0  0  0  0  0  0  0  0  0  0  0  0
  -22.5389  -19.5043   27.0298 C   0  0  0  0  0  0  0  0  0  0  0  0
  -31.2263  -25.2055   18.1501 C   0  0  0  0  0  0  0  0  0  0  0  0
  -22.2634  -20.7250   26.1500 C   0  0  0  0  0  0  0  0  0  0  0  0
  -23.7816  -18.7456   26.5692 C   0  0  0  0  0  0  0  0  0  0  0  0
  -23.5028  -19.5784   24.2665 C   0  0  0  0  0  0  0  0  0  0  0  0
  -29.9484  -25.1157   18.9928 C   0  0  1  0  0  0  0  0  0  0  0  0
  -29.9492  -21.7892   20.8280 C   0  0  1  0  0  0  0  0  0  0  0  0
  -22.2273  -20.3440   24.6578 C   0  0  2  0  0  0  0  0  0  0  0  0
  -26.0214  -10.2635   19.8129 C   0  0  0  0  0  0  0  0  0  0  0  0
  -27.0556  -14.6260   22.0007 C   0  0  0  0  0  0  0  0  0  0  0  0
  -23.3264  -11.2755   19.2647 C   0  0  0  0  0  0  0  0  0  0  0  0
  -33.8997  -15.1322   21.1132 C   0  0  0  0  0  0  0  0  0  0  0  0
  -32.4866  -20.3258   17.2530 C   0  0  0  0  0  0  0  0  0  0  0  0
  -33.4666  -18.0343   17.4921 C   0  0  0  0  0  0  0  0  0  0  0  0
  -34.4236  -19.9396   18.7871 C   0  0  0  0  0  0  0  0  0  0  0  0
  -31.0309  -16.1704   23.3865 C   0  0  0  0  0  0  0  0  0  0  0  0
  -23.8241  -16.2203   18.9665 C   0  0  0  0  0  0  0  0  0  0  0  0
  -23.2774  -16.0827   20.3950 C   0  0  0  0  0  0  0  0  0  0  0  0
  -23.7344  -15.5121   22.8133 C   0  0  0  0  0  0  0  0  0  0  0  0
  -25.0235  -17.1590   18.8997 C   0  0  0  0  0  0  0  0  0  1  0  0
  -24.3168  -15.5126   21.3876 C   0  0  1  0  0  0  0  0  0  0  0  0
  -32.1706  -19.0005   19.4461 C   0  0  1  0  0  0  0  0  0  0  0  0
  -32.9356  -16.1065   21.7719 C   0  0  2  0  0  0  0  0  0  0  0  0
  -33.1097  -19.3300   18.2516 C   0  0  0  0  0  0  0  0  0  0  0  0
  -22.4858  -22.7469   24.1658 N   0  0  0  0  0  0  0  0  0  0  0  0
  -23.9087  -13.3523   20.3399 N   0  0  0  0  0  0  0  0  0  0  0  0
  -21.9971  -21.5573   23.7758 N   0  0  0  0  0  0  0  0  0  0  0  0
  -30.3910  -20.5083   20.2727 N   0  0  0  0  0  0  0  0  0  0  0  0
  -23.6834  -18.4128   25.1460 N   0  0  0  0  0  0  0  0  0  0  0  0
  -20.7760  -20.4914   22.0485 N   0  0  0  0  0  0  0  0  0  0  0  0
  -20.9655  -24.7937   20.6884 N   0  0  0  0  0  0  0  0  0  0  0  0
  -30.0566  -24.0470   19.9627 N   0  0  0  0  0  0  0  0  0  0  0  0
  -32.7453  -18.0807   20.4219 N   0  0  0  0  0  0  0  0  0  0  0  0
  -23.6659  -16.8411   23.3787 N   0  0  0  0  0  0  0  0  0  0  0  0
  -32.0185  -15.3341   22.6570 N   0  3  0  0  0  0  0  0  0  0  0  0
  -20.1770  -22.7065   20.1588 O   0  0  0  0  0  0  0  0  0  0  0  0
  -29.3866  -22.2893   18.5900 O   0  0  0  0  0  0  0  0  0  0  0  0
  -32.6341  -20.9243   20.7540 O   0  0  0  0  0  0  0  0  0  0  0  0
  -31.0909  -16.4647   20.2532 O   0  0  0  0  0  0  0  0  0  0  0  0
  -23.9372  -16.1426   25.5456 O   0  0  0  0  0  0  0  0  0  0  0  0
  -23.4427  -28.9935   23.3829 O   0  0  0  0  0  0  0  0  0  0  0  0
  -24.6463  -18.4620   19.3428 O   0  0  0  0  0  0  0  0  0  1  0  0
  -25.3947  -31.3189   18.7800 F   0  0  0  0  0  0  0  0  0  0  0  0
  -25.9583  -30.1386   23.3292 F   0  0  0  0  0  0  0  0  0  0  0  0
  1  2  1  0  0  0  0
  1  5  2  0  0  0  0
  2  6  2  0  0  0  0
  3  8  2  0  0  0  0
  3 16  1  0  0  0  0
  4  9  1  0  0  0  0
  4 16  2  0  0  0  0
  5 18  1  0  0  0  0
  6 20  1  0  0  0  0
  7 10  2  0  0  0  0
  7 19  1  0  0  0  0
  8 24  1  0  0  0  0
  9 24  2  0  0  0  0
 10 25  1  0  0  0  0
 11 12  2  0  0  0  0
 11 26  1  0  0  0  0
 12 27  1  0  0  0  0
 13 21  1  0  0  0  0
 13 25  2  0  0  0  0
 14 22  2  0  0  0  0
 14 23  1  0  0  0  0
 15 27  2  0  0  0  0
 15 28  1  0  0  0  0
 16 29  1  0  0  0  0
 17 29  1  0  0  0  0
 17 32  2  0  0  0  0
 17 33  1  0  0  0  0
 18 20  2  0  0  0  0
 18 38  1  0  0  0  0
 19 21  2  0  0  0  0
 19 39  1  0  0  0  0
 20 47  1  0  0  0  0
 21 40  1  0  0  0  0
 22 30  1  0  0  0  0
 22 50  1  0  0  0  0
 23 31  2  0  0  0  0
 23 51  1  0  0  0  0
 24 82  1  0  0  0  0
 25 83  1  0  0  0  0
 26 28  2  0  0  0  0
 26 82  1  0  0  0  0
 27 84  1  0  0  0  0
 28 85  1  0  0  0  0
 29 66  2  0  0  0  0
 30 52  1  0  0  0  0
 30 67  2  0  0  0  0
 31 62  1  0  0  0  0
 31 67  1  0  0  0  0
 32 68  1  0  0  0  0
 32 71  1  0  0  0  0
 33 72  1  0  0  0  0
 33 77  2  0  0  0  0
 34 48  1  0  0  0  0
 34 73  1  0  0  0  0
 34 78  2  0  0  0  0
 35 63  1  0  0  0  0
 35 69  1  0  0  0  0
 35 79  2  0  0  0  0
 36 64  1  0  0  0  0
 36 74  1  0  0  0  0
 36 80  2  0  0  0  0
 37 70  1  0  0  0  0
 37 75  1  0  0  0  0
 37 81  2  0  0  0  0
 38 41  1  0  0  0  0
 39 48  1  0  0  0  0
 40 69  1  0  0  0  0
 41 43  1  0  0  0  0
 42 44  1  0  0  0  0
 42 45  1  0  0  0  0
 43 47  1  0  0  0  0
 44 49  1  0  0  0  0
 45 70  1  0  0  0  0
 46 49  1  0  0  0  0
 46 70  1  0  0  0  0
 47 73  1  0  0  0  0
 48 69  1  0  0  0  0
 49 68  1  0  0  0  0
 53 64  1  0  0  0  0
 54 65  1  0  0  0  0
 55 65  1  0  0  0  0
 56 65  1  0  0  0  0
 57 76  1  0  0  0  0
 58 59  1  0  0  0  0
 58 61  1  0  0  0  0
 59 62  1  0  0  0  0
 60 62  1  0  0  0  0
 60 75  1  0  0  0  0
 61 83  1  0  0  0  0
 63 65  1  0  0  0  0
 63 74  1  0  0  0  0
 64 76  1  0  0  0  0
 66 68  1  0  0  0  0
M  CHG  1  76   1
M  ISO  4  37 100  61 101  75 100  83 101
M  END
> <Batch ID>
0088

> <Smiles>
CNC(C)C(=O)NC(C(=O)N1Cc2cc([101O:1][101CH2:1]CCC(C[100NH:0][100C:0](=O)N3CCCC(n4nc(-c5ccc(Oc6ccc(F)cc6F)cc5)c(C(N)=O)c4N)C3)c3nc(C)c(C)cc3C)ccc2CC1C(=O)NC1CCCc2ccccc21)C(C)(C)C

> <Shape>
0.204

> <Color>
0.067

> <Negative vol penalty>
0.000

$$$$

  -OEChem-04052319043D

 86 94  0     1  0  0  0  0  0999 V2000
  -23.8878  -23.7812   28.2137 C   0  0  0  0  0  0  0  0  0  0  0  0
  -24.2173  -22.5705   27.6128 C   0  0  0  0  0  0  0  0  0  0  0  0
  -23.0011   -9.8941   19.9813 C   0  0  0  0  0  0  0  0  0  0  0  0
  -23.7314   -9.9435   22.2838 C   0  0  0  0  0  0  0  0  0  0  0  0
  -24.3009  -24.0455   29.5189 C   0  0  0  0  0  0  0  0  0  0  0  0
  -24.9610  -21.6238   28.3164 C   0  0  0  0  0  0  0  0  0  0  0  0
  -24.4443  -15.5317   27.9618 C   0  0  0  0  0  0  0  0  0  0  0  0
  -22.2365   -8.7584   20.2482 C   0  0  0  0  0  0  0  0  0  0  0  0
  -22.9668   -8.8079   22.5507 C   0  0  0  0  0  0  0  0  0  0  0  0
  -25.1685  -14.5681   27.2613 C   0  0  0  0  0  0  0  0  0  0  0  0
  -23.2140   -5.4697   22.0748 C   0  0  0  0  0  0  0  0  0  0  0  0
  -23.8045   -4.4524   22.8246 C   0  0  0  0  0  0  0  0  0  0  0  0
  -26.5097  -14.1580   29.2240 C   0  0  0  0  0  0  0  0  0  0  0  0
  -30.5834  -14.9358   24.6378 C   0  0  0  0  0  0  0  0  0  0  0  0
  -29.2196  -15.5385   26.5387 C   0  0  0  0  0  0  0  0  0  0  0  0
  -30.1986  -17.2633   25.1590 C   0  0  0  0  0  0  0  0  0  0  0  0
  -22.0840   -4.6916   24.5039 C   0  0  0  0  0  0  0  0  0  0  0  0
  -23.7486  -10.4866   20.9991 C   0  0  0  0  0  0  0  0  0  0  0  0
  -24.1305  -13.0029   20.8248 C   0  0  0  0  0  0  0  0  0  0  0  0
  -25.0418  -23.0976   30.2422 C   0  0  0  0  0  0  0  0  0  0  0  0
  -24.7549  -15.8239   29.2976 C   0  0  0  0  0  0  0  0  0  0  0  0
  -25.3855  -21.8762   29.6320 C   0  0  0  0  0  0  0  0  0  0  0  0
  -25.7862  -15.1239   29.9400 C   0  0  0  0  0  0  0  0  0  0  0  0
  -29.8025  -14.5617   25.7313 C   0  0  0  0  0  0  0  0  0  0  0  0
  -30.7815  -16.2865   24.3516 C   0  0  0  0  0  0  0  0  0  0  0  0
  -29.4176  -16.8893   26.2526 C   0  0  0  0  0  0  0  0  0  0  0  0
  -22.2193   -8.2153   21.5329 C   0  0  0  0  0  0  0  0  0  0  0  0
  -26.2033  -13.8832   27.8915 C   0  0  0  0  0  0  0  0  0  0  0  0
  -22.0586   -6.0980   22.5396 C   0  0  0  0  0  0  0  0  0  0  0  0
  -23.2395   -4.0633   24.0391 C   0  0  0  0  0  0  0  0  0  0  0  0
  -21.4936   -5.7089   23.7541 C   0  0  0  0  0  0  0  0  0  0  0  0
  -24.5390  -11.6595   20.7239 C   0  0  0  0  0  0  0  0  0  0  0  0
  -25.2386  -13.7272   20.4587 C   0  0  0  0  0  0  0  0  0  0  0  0
  -22.8627  -13.5473   21.2147 C   0  0  0  0  0  0  0  0  0  0  0  0
  -25.7538  -18.4088   30.8546 C   0  0  0  0  0  0  0  0  0  0  0  0
  -25.3062  -16.5332   33.4631 C   0  0  0  0  0  0  0  0  0  0  0  0
  -25.0986  -13.3865   34.7677 C   0  0  0  0  0  0  0  0  0  0  0  0
  -30.7344  -14.6681   20.6959 C   0  0  0  0  0  0  0  0  0  0  0  0
  -25.5063  -23.4476   31.6338 C   0  0  0  0  0  0  0  0  0  0  0  0
  -23.9467  -16.8471   30.0475 C   0  0  0  0  0  0  0  0  0  0  0  0
  -26.1461  -15.3860   31.3789 C   0  0  0  0  0  0  0  0  0  0  0  0
  -25.9708  -22.2393   32.4428 C   0  0  0  0  0  0  0  0  0  0  0  0
  -29.5913  -12.2455   18.3505 C   0  0  0  0  0  0  0  0  0  0  0  0
  -26.8957  -21.3606   31.6067 C   0  0  0  0  0  0  0  0  0  0  0  0
  -28.1441  -11.9836   18.7710 C   0  0  0  0  0  0  0  0  0  0  0  0
  -30.4962  -12.4807   19.5579 C   0  0  0  0  0  0  0  0  0  0  0  0
  -28.5881  -13.2725   20.9018 C   0  0  0  0  0  0  0  0  0  0  0  0
  -26.1697  -20.8140   30.3715 C   0  0  1  0  0  0  0  0  0  0  0  0
  -24.6855  -17.4286   31.2489 C   0  0  1  0  0  0  0  0  0  0  0  0
  -27.6266  -13.0849   19.7157 C   0  0  2  0  0  0  0  0  0  0  0  0
  -24.7636  -12.1720   36.9380 C   0  0  0  0  0  0  0  0  0  0  0  0
  -29.2872  -17.8152   28.5917 C   0  0  0  0  0  0  0  0  0  0  0  0
  -27.2394  -17.8036   27.1279 C   0  0  0  0  0  0  0  0  0  0  0  0
  -29.0851  -19.4127   26.6972 C   0  0  0  0  0  0  0  0  0  0  0  0
  -28.1789  -17.1780   34.2645 C   0  0  0  0  0  0  0  0  0  0  0  0
  -28.0959  -15.2446   35.8531 C   0  0  0  0  0  0  0  0  0  0  0  0
  -26.5438  -17.1737   36.1569 C   0  0  0  0  0  0  0  0  0  0  0  0
  -22.6302  -12.0797   33.7890 C   0  0  0  0  0  0  0  0  0  0  0  0
  -29.5884  -13.1014   26.0399 C   0  0  0  0  0  0  0  0  0  0  0  0
  -31.6161  -16.6871   23.1822 C   0  0  0  0  0  0  0  0  0  0  0  0
  -28.3621  -12.4995   25.3503 C   0  0  0  0  0  0  0  0  0  0  0  0
  -30.8171  -16.8459   21.8831 C   0  0  0  0  0  0  0  0  0  0  0  0
  -27.0477  -13.1259   25.8011 C   0  0  0  0  0  0  0  0  0  1  0  0
  -26.1625  -15.5655   34.2436 C   0  0  1  0  0  0  0  0  0  0  0  0
  -24.0879  -12.7488   35.7037 C   0  0  2  0  0  0  0  0  0  0  0  0
  -28.7942  -17.9334   27.1162 C   0  0  0  0  0  0  0  0  0  0  0  0
  -27.2400  -16.2866   35.1018 C   0  0  0  0  0  0  0  0  0  0  0  0
  -25.8076  -11.5349   20.3248 N   0  0  0  0  0  0  0  0  0  0  0  0
  -26.2057  -12.8093   20.1716 N   0  0  0  0  0  0  0  0  0  0  0  0
  -25.3308  -16.4002   32.0675 N   0  0  0  0  0  0  0  0  0  0  0  0
  -29.9500  -13.5379   20.4123 N   0  0  0  0  0  0  0  0  0  0  0  0
  -25.4702  -15.0532   20.3575 N   0  0  0  0  0  0  0  0  0  0  0  0
  -21.8328  -12.6616   21.5596 N   0  0  0  0  0  0  0  0  0  0  0  0
  -25.3072  -19.7114   30.7389 N   0  0  0  0  0  0  0  0  0  0  0  0
  -25.2423  -14.7356   35.0137 N   0  0  0  0  0  0  0  0  0  0  0  0
  -30.1387  -15.6253   21.5081 N   0  0  0  0  0  0  0  0  0  0  0  0
  -23.3604  -11.6493   35.0090 N   0  3  0  0  0  0  0  0  0  0  0  0
  -22.6446  -14.7824   21.2402 O   0  0  0  0  0  0  0  0  0  0  0  0
  -26.8988  -18.0130   30.6705 O   0  0  0  0  0  0  0  0  0  0  0  0
  -24.6346  -17.3715   34.0695 O   0  0  0  0  0  0  0  0  0  0  0  0
  -25.7032  -12.7507   33.9071 O   0  0  0  0  0  0  0  0  0  0  0  0
  -31.8786  -14.8158   20.2534 O   0  0  0  0  0  0  0  0  0  0  0  0
  -21.4732   -7.1072   21.7937 O   0  0  0  0  0  0  0  0  0  0  0  0
  -26.9123  -12.9426   27.2098 O   0  0  0  0  0  0  0  0  0  1  0  0
  -23.8057   -3.0854   24.7582 F   0  0  0  0  0  0  0  0  0  0  0  0
  -20.3830   -6.3080   24.2052 F   0  0  0  0  0  0  0  0  0  0  0  0
  1  2  1  0  0  0  0
  1  5  2  0  0  0  0
  2  6  2  0  0  0  0
  3  8  2  0  0  0  0
  3 18  1  0  0  0  0
  4  9  1  0  0  0  0
  4 18  2  0  0  0  0
  5 20  1  0  0  0  0
  6 22  1  0  0  0  0
  7 10  2  0  0  0  0
  7 21  1  0  0  0  0
  8 27  1  0  0  0  0
  9 27  2  0  0  0  0
 10 28  1  0  0  0  0
 11 12  2  0  0  0  0
 11 29  1  0  0  0  0
 12 30  1  0  0  0  0
 13 23  1  0  0  0  0
 13 28  2  0  0  0  0
 14 24  1  0  0  0  0
 14 25  2  0  0  0  0
 15 24  2  0  0  0  0
 15 26  1  0  0  0  0
 16 25  1  0  0  0  0
 16 26  2  0  0  0  0
 17 30  2  0  0  0  0
 17 31  1  0  0  0  0
 18 32  1  0  0  0  0
 19 32  1  0  0  0  0
 19 33  2  0  0  0  0
 19 34  1  0  0  0  0
 20 22  2  0  0  0  0
 20 39  1  0  0  0  0
 21 23  2  0  0  0  0
 21 40  1  0  0  0  0
 22 48  1  0  0  0  0
 23 41  1  0  0  0  0
 24 59  1  0  0  0  0
 25 60  1  0  0  0  0
 26 66  1  0  0  0  0
 27 83  1  0  0  0  0
 28 84  1  0  0  0  0
 29 31  2  0  0  0  0
 29 83  1  0  0  0  0
 30 85  1  0  0  0  0
 31 86  1  0  0  0  0
 32 68  2  0  0  0  0
 33 69  1  0  0  0  0
 33 72  1  0  0  0  0
 34 73  1  0  0  0  0
 34 78  2  0  0  0  0
 35 49  1  0  0  0  0
 35 74  1  0  0  0  0
 35 79  2  0  0  0  0
 36 64  1  0  0  0  0
 36 70  1  0  0  0  0
 36 80  2  0  0  0  0
 37 65  1  0  0  0  0
 37 75  1  0  0  0  0
 37 81  2  0  0  0  0
 38 71  1  0  0  0  0
 38 76  1  0  0  0  0
 38 82  2  0  0  0  0
 39 42  1  0  0  0  0
 40 49  1  0  0  0  0
 41 70  1  0  0  0  0
 42 44  1  0  0  0  0
 43 45  1  0  0  0  0
 43 46  1  0  0  0  0
 44 48  1  0  0  0  0
 45 50  1  0  0  0  0
 46 71  1  0  0  0  0
 47 50  1  0  0  0  0
 47 71  1  0  0  0  0
 48 74  1  0  0  0  0
 49 70  1  0  0  0  0
 50 69  1  0  0  0  0
 51 65  1  0  0  0  0
 52 66  1  0  0  0  0
 53 66  1  0  0  0  0
 54 66  1  0  0  0  0
 55 67  1  0  0  0  0
 56 67  1  0  0  0  0
 57 67  1  0  0  0  0
 58 77  1  0  0  0  0
 59 61  1  0  0  0  0
 60 62  1  0  0  0  0
 61 63  1  0  0  0  0
 62 76  1  0  0  0  0
 63 84  1  0  0  0  0
 64 67  1  0  0  0  0
 64 75  1  0  0  0  0
 65 77  1  0  0  0  0
 68 69  1  0  0  0  0
M  CHG  1  77   1
M  ISO  4  38 100  63 101  76 100  84 101
M  END
> <Batch ID>
0088

> <Smiles>
CNC(C)C(=O)NC(C(=O)N1Cc2cc([101O:1][101CH2:1]CCc3cc(CC[100NH:0][100C:0](=O)N4CCCC(n5nc(-c6ccc(Oc7ccc(F)cc7F)cc6)c(C(N)=O)c5N)C4)cc(C(C)(C)C)c3)ccc2CC1C(=O)NC1CCCc2ccccc21)C(C)(C)C

> <Shape>
0.167

> <Color>
0.202

> <Negative vol penalty>
0.000

$$$$

  -OEChem-04052319043D

 85 93  0     1  0  0  0  0  0999 V2000
  -35.7214  -31.7495   23.5261 C   0  0  0  0  0  0  0  0  0  0  0  0
  -35.0329  -30.6245   23.9684 C   0  0  0  0  0  0  0  0  0  0  0  0
  -22.9395  -10.0211   19.9777 C   0  0  0  0  0  0  0  0  0  0  0  0
  -23.7199   -9.9628   22.2635 C   0  0  0  0  0  0  0  0  0  0  0  0
  -35.2015  -32.5195   22.4865 C   0  0  0  0  0  0  0  0  0  0  0  0
  -33.8234  -30.2694   23.3721 C   0  0  0  0  0  0  0  0  0  0  0  0
  -33.5214  -25.3097   22.3949 C   0  0  0  0  0  0  0  0  0  0  0  0
  -22.1392   -8.9053   20.2225 C   0  0  0  0  0  0  0  0  0  0  0  0
  -22.9195   -8.8470   22.5083 C   0  0  0  0  0  0  0  0  0  0  0  0
  -33.2323  -24.4661   23.4666 C   0  0  0  0  0  0  0  0  0  0  0  0
  -23.0324   -5.5209   21.9122 C   0  0  0  0  0  0  0  0  0  0  0  0
  -23.6005   -4.4571   22.6130 C   0  0  0  0  0  0  0  0  0  0  0  0
  -30.9276  -24.3693   22.7610 C   0  0  0  0  0  0  0  0  0  0  0  0
  -28.6481  -20.0747   23.0165 C   0  0  0  0  0  0  0  0  0  0  0  0
  -30.3445  -18.3820   23.3228 C   0  0  0  0  0  0  0  0  0  0  0  0
  -21.9262   -4.6993   24.3379 C   0  0  0  0  0  0  0  0  0  0  0  0
  -23.7300  -10.5499   20.9982 C   0  0  0  0  0  0  0  0  0  0  0  0
  -24.2013  -13.0551   20.9022 C   0  0  0  0  0  0  0  0  0  0  0  0
  -33.9899  -32.1683   21.8706 C   0  0  0  0  0  0  0  0  0  0  0  0
  -32.5117  -25.6989   21.5030 C   0  0  0  0  0  0  0  0  0  0  0  0
  -33.2862  -31.0362   22.3242 C   0  0  0  0  0  0  0  0  0  0  0  0
  -31.2069  -25.2159   21.6773 C   0  0  0  0  0  0  0  0  0  0  0  0
  -29.5954  -19.4462   23.8247 C   0  0  0  0  0  0  0  0  0  0  0  0
  -28.4498  -19.6389   21.7063 C   0  0  0  0  0  0  0  0  0  0  0  0
  -30.1462  -17.9462   22.0126 C   0  0  0  0  0  0  0  0  0  0  0  0
  -29.1989  -18.5747   21.2044 C   0  0  0  0  0  0  0  0  0  0  0  0
  -22.1291   -8.3183   21.4877 C   0  0  0  0  0  0  0  0  0  0  0  0
  -31.9347  -23.9980   23.6515 C   0  0  0  0  0  0  0  0  0  0  0  0
  -21.9113   -6.1740   22.4243 C   0  0  0  0  0  0  0  0  0  0  0  0
  -23.0474   -4.0462   23.8258 C   0  0  0  0  0  0  0  0  0  0  0  0
  -21.3582   -5.7632   23.6371 C   0  0  0  0  0  0  0  0  0  0  0  0
  -24.5574  -11.7022   20.7458 C   0  0  0  0  0  0  0  0  0  0  0  0
  -25.3275  -13.7511   20.5363 C   0  0  0  0  0  0  0  0  0  0  0  0
  -22.9632  -13.6313   21.3391 C   0  0  0  0  0  0  0  0  0  0  0  0
  -31.2039  -28.4728   20.6671 C   0  0  0  0  0  0  0  0  0  0  0  0
  -30.8765  -14.4140   20.7780 C   0  0  0  0  0  0  0  0  0  0  0  0
  -29.6543  -26.6398   18.4851 C   0  0  0  0  0  0  0  0  0  0  0  0
  -28.5099  -23.5537   17.5833 C   0  0  0  0  0  0  0  0  0  0  0  0
  -33.4440  -33.0582   20.7822 C   0  0  0  0  0  0  0  0  0  0  0  0
  -32.8453  -26.5880   20.3366 C   0  0  0  0  0  0  0  0  0  0  0  0
  -30.0913  -25.5877   20.7362 C   0  0  0  0  0  0  0  0  0  0  0  0
  -32.3439  -32.4012   19.9527 C   0  0  0  0  0  0  0  0  0  0  0  0
  -29.5711  -12.2091   18.2731 C   0  0  0  0  0  0  0  0  0  0  0  0
  -31.3265  -31.7177   20.8609 C   0  0  0  0  0  0  0  0  0  0  0  0
  -28.1306  -11.9679   18.7226 C   0  0  0  0  0  0  0  0  0  0  0  0
  -30.5119  -12.3503   19.4656 C   0  0  0  0  0  0  0  0  0  0  0  0
  -28.6623  -13.1667   20.8917 C   0  0  0  0  0  0  0  0  0  0  0  0
  -31.9837  -30.6046   21.6860 C   0  0  1  0  0  0  0  0  0  0  0  0
  -31.6327  -27.3329   19.7871 C   0  0  1  0  0  0  0  0  0  0  0  0
  -27.6738  -13.0490   19.7181 C   0  0  2  0  0  0  0  0  0  0  0  0
  -28.9864  -18.1080   19.7995 C   0  0  0  0  0  0  0  0  0  0  0  0
  -26.0063  -19.9105   21.2144 C   0  0  0  0  0  0  0  0  0  0  0  0
  -30.5535  -14.9349   23.1611 C   0  0  0  0  0  0  0  0  0  0  0  0
  -27.2475  -22.3756   15.7624 C   0  0  0  0  0  0  0  0  0  0  0  0
  -27.0424  -27.8116   19.5409 C   0  0  0  0  0  0  0  0  0  0  0  0
  -25.8240  -25.9509   18.3915 C   0  0  0  0  0  0  0  0  0  0  0  0
  -27.1529  -27.5834   17.0530 C   0  0  0  0  0  0  0  0  0  0  0  0
  -30.8099  -21.7963   16.9666 C   0  0  0  0  0  0  0  0  0  0  0  0
  -29.8093  -19.9169   25.2412 C   0  0  0  0  0  0  0  0  0  0  0  0
  -27.4300  -20.3298   20.8612 C   0  0  0  0  0  0  0  0  0  0  0  0
  -30.9613  -16.8045   21.4990 C   0  0  0  0  0  0  0  0  0  0  0  0
  -30.8743  -21.0076   25.3736 C   0  0  0  0  0  0  0  0  0  0  0  0
  -30.5925  -22.2342   24.5137 C   0  0  0  0  0  0  0  0  0  1  0  0
  -30.3096  -15.4285   21.7389 C   0  0  1  0  0  0  0  0  0  0  0  0
  -28.3575  -25.8672   18.4658 C   0  0  1  0  0  0  0  0  0  0  0  0
  -28.6185  -22.7799   16.2818 C   0  0  2  0  0  0  0  0  0  0  0  0
  -27.1146  -26.7976   18.3818 C   0  0  0  0  0  0  0  0  0  0  0  0
  -25.8117  -11.5457   20.3142 N   0  0  0  0  0  0  0  0  0  0  0  0
  -26.2535  -12.8094   20.1961 N   0  0  0  0  0  0  0  0  0  0  0  0
  -30.4663  -26.4645   19.6146 N   0  0  0  0  0  0  0  0  0  0  0  0
  -30.0315  -13.3709   20.3987 N   0  0  0  0  0  0  0  0  0  0  0  0
  -25.6060  -15.0706   20.4757 N   0  0  0  0  0  0  0  0  0  0  0  0
  -21.9086  -12.7720   21.6764 N   0  0  0  0  0  0  0  0  0  0  0  0
  -32.1846  -29.4243   20.8730 N   0  0  0  0  0  0  0  0  0  0  0  0
  -28.4662  -24.9147   17.3661 N   0  0  0  0  0  0  0  0  0  0  0  0
  -29.4291  -21.5451   16.4795 N   0  3  0  0  0  0  0  0  0  0  0  0
  -22.7917  -14.8718   21.4120 O   0  0  0  0  0  0  0  0  0  0  0  0
  -30.0671  -28.4887   21.1242 O   0  0  0  0  0  0  0  0  0  0  0  0
  -32.0350  -14.5479   20.3752 O   0  0  0  0  0  0  0  0  0  0  0  0
  -29.9397  -27.3663   17.5299 O   0  0  0  0  0  0  0  0  0  0  0  0
  -28.4644  -23.0056   18.6824 O   0  0  0  0  0  0  0  0  0  0  0  0
  -21.3480   -7.2296   21.7270 O   0  0  0  0  0  0  0  0  0  0  0  0
  -31.6497  -23.1750   24.6970 O   0  0  0  0  0  0  0  0  0  1  0  0
  -23.5920   -3.0235   24.4979 F   0  0  0  0  0  0  0  0  0  0  0  0
  -20.2804   -6.3860   24.1335 F   0  0  0  0  0  0  0  0  0  0  0  0
  1  2  1  0  0  0  0
  1  5  2  0  0  0  0
  2  6  2  0  0  0  0
  3  8  2  0  0  0  0
  3 17  1  0  0  0  0
  4  9  1  0  0  0  0
  4 17  2  0  0  0  0
  5 19  1  0  0  0  0
  6 21  1  0  0  0  0
  7 10  2  0  0  0  0
  7 20  1  0  0  0  0
  8 27  1  0  0  0  0
  9 27  2  0  0  0  0
 10 28  1  0  0  0  0
 11 12  2  0  0  0  0
 11 29  1  0  0  0  0
 12 30  1  0  0  0  0
 13 22  1  0  0  0  0
 13 28  2  0  0  0  0
 14 23  2  0  0  0  0
 14 24  1  0  0  0  0
 15 23  1  0  0  0  0
 15 25  2  0  0  0  0
 16 30  2  0  0  0  0
 16 31  1  0  0  0  0
 17 32  1  0  0  0  0
 18 32  1  0  0  0  0
 18 33  2  0  0  0  0
 18 34  1  0  0  0  0
 19 21  2  0  0  0  0
 19 39  1  0  0  0  0
 20 22  2  0  0  0  0
 20 40  1  0  0  0  0
 21 48  1  0  0  0  0
 22 41  1  0  0  0  0
 23 59  1  0  0  0  0
 24 26  2  0  0  0  0
 24 60  1  0  0  0  0
 25 26  1  0  0  0  0
 25 61  1  0  0  0  0
 26 51  1  0  0  0  0
 27 82  1  0  0  0  0
 28 83  1  0  0  0  0
 29 31  2  0  0  0  0
 29 82  1  0  0  0  0
 30 84  1  0  0  0  0
 31 85  1  0  0  0  0
 32 68  2  0  0  0  0
 33 69  1  0  0  0  0
 33 72  1  0  0  0  0
 34 73  1  0  0  0  0
 34 77  2  0  0  0  0
 35 49  1  0  0  0  0
 35 74  1  0  0  0  0
 35 78  2  0  0  0  0
 36 64  1  0  0  0  0
 36 71  1  0  0  0  0
 36 79  2  0  0  0  0
 37 65  1  0  0  0  0
 37 70  1  0  0  0  0
 37 80  2  0  0  0  0
 38 66  1  0  0  0  0
 38 75  1  0  0  0  0
 38 81  2  0  0  0  0
 39 42  1  0  0  0  0
 40 49  1  0  0  0  0
 41 70  1  0  0  0  0
 42 44  1  0  0  0  0
 43 45  1  0  0  0  0
 43 46  1  0  0  0  0
 44 48  1  0  0  0  0
 45 50  1  0  0  0  0
 46 71  1  0  0  0  0
 47 50  1  0  0  0  0
 47 71  1  0  0  0  0
 48 74  1  0  0  0  0
 49 70  1  0  0  0  0
 50 69  1  0  0  0  0
 52 60  1  0  0  0  0
 53 64  1  0  0  0  0
 54 66  1  0  0  0  0
 55 67  1  0  0  0  0
 56 67  1  0  0  0  0
 57 67  1  0  0  0  0
 58 76  1  0  0  0  0
 59 62  1  0  0  0  0
 61 64  1  0  0  0  0
 62 63  1  0  0  0  0
 63 83  1  0  0  0  0
 65 67  1  0  0  0  0
 65 75  1  0  0  0  0
 66 76  1  0  0  0  0
 68 69  1  0  0  0  0
M  CHG  1  76   1
M  ISO  4  36 100  63 101  64 100  83 101
M  END
> <Batch ID>
0088

> <Smiles>
CCc1cc(CC[101CH2:1][101O:1]c2ccc3c(c2)CN(C(=O)C(NC(=O)C(C)NC)C(C)(C)C)C(C(=O)NC2CCCc4ccccc42)C3)cc(C[100CH:0](C)[100C:0](=O)N2CCCC(n3nc(-c4ccc(Oc5ccc(F)cc5F)cc4)c(C(N)=O)c3N)C2)c1C

> <Shape>
0.271

> <Color>
0.214

> <Negative vol penalty>
0.000

$$$$

  -OEChem-04052319043D

 86 94  0     1  0  0  0  0  0999 V2000
  -20.3300  -22.9574   19.4519 C   0  0  0  0  0  0  0  0  0  0  0  0
  -21.6992  -22.7226   19.3760 C   0  0  0  0  0  0  0  0  0  0  0  0
  -23.5484  -27.7302   20.2606 C   0  0  0  0  0  0  0  0  0  0  0  0
  -24.9143  -26.9540   22.0961 C   0  0  0  0  0  0  0  0  0  0  0  0
  -19.5264  -22.1383   20.2439 C   0  0  0  0  0  0  0  0  0  0  0  0
  -22.2656  -21.6692   20.0929 C   0  0  0  0  0  0  0  0  0  0  0  0
  -26.9885  -18.1682   18.3775 C   0  0  0  0  0  0  0  0  0  0  0  0
  -22.4215  -27.1704   20.8624 C   0  0  0  0  0  0  0  0  0  0  0  0
  -23.7873  -26.3942   22.6980 C   0  0  0  0  0  0  0  0  0  0  0  0
  -28.3460  -18.2038   18.6934 C   0  0  0  0  0  0  0  0  0  0  0  0
  -19.1246  -26.2584   22.0927 C   0  0  0  0  0  0  0  0  0  0  0  0
  -17.9613  -27.0271   22.1325 C   0  0  0  0  0  0  0  0  0  0  0  0
  -27.9825  -16.5532   20.4147 C   0  0  0  0  0  0  0  0  0  0  0  0
  -32.2411  -22.4577   22.9501 C   0  0  0  0  0  0  0  0  0  0  0  0
  -32.8072  -22.4366   20.6127 C   0  0  0  0  0  0  0  0  0  0  0  0
  -19.1232  -28.7194   23.4065 C   0  0  0  0  0  0  0  0  0  0  0  0
  -24.7949  -27.6220   20.8774 C   0  0  0  0  0  0  0  0  0  0  0  0
  -26.4602  -29.5030   20.4348 C   0  0  0  0  0  0  0  0  0  0  0  0
  -20.0818  -21.0684   20.9633 C   0  0  0  0  0  0  0  0  0  0  0  0
  -26.1145  -17.3314   19.0862 C   0  0  0  0  0  0  0  0  0  0  0  0
  -21.4689  -20.8359   20.8963 C   0  0  0  0  0  0  0  0  0  0  0  0
  -26.6148  -16.5069   20.1040 C   0  0  0  0  0  0  0  0  0  0  0  0
  -32.6213  -21.7566   21.8112 C   0  0  0  0  0  0  0  0  0  0  0  0
  -22.5409  -26.5024   22.0811 C   0  0  0  0  0  0  0  0  0  0  0  0
  -28.8427  -17.3984   19.7141 C   0  0  0  0  0  0  0  0  0  0  0  0
  -20.2872  -26.7202   22.7099 C   0  0  0  0  0  0  0  0  0  0  0  0
  -17.9606  -28.2576   22.7894 C   0  0  0  0  0  0  0  0  0  0  0  0
  -20.2865  -27.9507   23.3667 C   0  0  0  0  0  0  0  0  0  0  0  0
  -25.9595  -28.1996   20.2559 C   0  0  0  0  0  0  0  0  0  0  0  0
  -32.0609  -23.8270   22.8389 C   0  0  0  0  0  0  0  0  0  0  0  0
  -32.6015  -23.8068   20.6060 C   0  0  0  0  0  0  0  0  0  0  0  0
  -27.5726  -29.5568   19.6309 C   0  0  0  0  0  0  0  0  0  0  0  0
  -25.9643  -30.5698   21.2544 C   0  0  0  0  0  0  0  0  0  0  0  0
  -23.5676  -17.7950   20.9306 C   0  0  0  0  0  0  0  0  0  0  0  0
  -23.4145  -14.5555   20.8644 C   0  0  0  0  0  0  0  0  0  0  0  0
  -25.0417  -11.5863   20.4364 C   0  0  0  0  0  0  0  0  0  0  0  0
  -31.2890  -25.3605   17.5261 C   0  0  0  0  0  0  0  0  0  0  0  0
  -19.1801  -20.2394   21.8432 C   0  0  0  0  0  0  0  0  0  0  0  0
  -24.6575  -17.2849   18.7153 C   0  0  0  0  0  0  0  0  0  0  0  0
  -25.7217  -15.5761   20.8815 C   0  0  0  0  0  0  0  0  0  0  0  0
  -19.8021  -18.9143   22.2762 C   0  0  0  0  0  0  0  0  0  0  0  0
  -29.3861  -27.6872   15.6176 C   0  0  0  0  0  0  0  0  0  0  0  0
  -21.2325  -19.1291   22.7608 C   0  0  0  0  0  0  0  0  0  0  0  0
  -28.3373  -28.1999   16.6061 C   0  0  0  0  0  0  0  0  0  0  0  0
  -29.6894  -26.2063   15.8342 C   0  0  0  0  0  0  0  0  0  0  0  0
  -29.0216  -26.3602   18.2016 C   0  0  0  0  0  0  0  0  0  0  0  0
  -22.1168  -19.6880   21.6396 C   0  0  1  0  0  0  0  0  0  0  0  0
  -23.7692  -16.7750   19.8459 C   0  0  1  0  0  0  0  0  0  0  0  0
  -28.7236  -27.8625   18.0587 C   0  0  2  0  0  0  0  0  0  0  0  0
  -30.2843  -25.2926   23.8632 C   0  0  0  0  0  0  0  0  0  0  0  0
  -32.7099  -25.6588   24.4443 C   0  0  0  0  0  0  0  0  0  0  0  0
  -33.8815  -25.6428   19.4432 C   0  0  0  0  0  0  0  0  0  0  0  0
  -24.6598   -9.1065   20.4808 C   0  0  0  0  0  0  0  0  0  0  0  0
  -23.3642  -14.6203   23.9145 C   0  0  0  0  0  0  0  0  0  0  0  0
  -23.9385  -12.1834   23.9063 C   0  0  0  0  0  0  0  0  0  0  0  0
  -21.8025  -12.9631   22.8804 C   0  0  0  0  0  0  0  0  0  0  0  0
  -25.8257  -11.2977   17.5973 C   0  0  0  0  0  0  0  0  0  0  0  0
  -32.8324  -20.2649   21.8758 C   0  0  0  0  0  0  0  0  0  0  0  0
  -31.5706  -19.4476   21.5770 C   0  0  0  0  0  0  0  0  0  0  0  0
  -31.7852  -17.9404   21.7227 C   0  0  0  0  0  0  0  0  0  0  0  0
  -30.5232  -17.1604   21.3799 C   0  0  0  0  0  0  0  0  0  1  0  0
  -31.6545  -24.6121   24.0410 C   0  0  0  0  0  0  0  0  0  0  0  0
  -32.7901  -24.5683   19.3367 C   0  0  2  0  0  0  0  0  0  0  0  0
  -23.9892  -13.4406   21.7046 C   0  0  1  0  0  0  0  0  0  0  0  0
  -24.6952  -10.3569   19.6160 C   0  0  2  0  0  0  0  0  0  0  0  0
  -23.2904  -13.3207   23.0883 C   0  0  0  0  0  0  0  0  0  0  0  0
  -26.6934  -27.4775   19.4051 N   0  0  0  0  0  0  0  0  0  0  0  0
  -32.2319  -24.5221   21.6921 N   0  0  0  0  0  0  0  0  0  0  0  0
  -27.6666  -28.3302   19.0421 N   0  0  0  0  0  0  0  0  0  0  0  0
  -24.3037  -15.5712   20.4857 N   0  0  0  0  0  0  0  0  0  0  0  0
  -30.0503  -25.9537   17.2313 N   0  0  0  0  0  0  0  0  0  0  0  0
  -28.4696  -30.5333   19.3773 N   0  0  0  0  0  0  0  0  0  0  0  0
  -24.8102  -30.3451   22.0172 N   0  0  0  0  0  0  0  0  0  0  0  0
  -22.4915  -18.6358   20.7194 N   0  0  0  0  0  0  0  0  0  0  0  0
  -23.9114  -12.2333   20.8892 N   0  0  0  0  0  0  0  0  0  0  0  0
  -31.5550  -25.1621   18.8754 N   0  0  0  0  0  0  0  0  0  0  0  0
  -25.7026  -10.1536   18.5368 N   0  3  0  0  0  0  0  0  0  0  0  0
  -26.5185  -31.6944   21.2961 O   0  0  0  0  0  0  0  0  0  0  0  0
  -24.3308  -17.8166   21.8891 O   0  0  0  0  0  0  0  0  0  0  0  0
  -22.2223  -14.5225   20.5495 O   0  0  0  0  0  0  0  0  0  0  0  0
  -26.1992  -11.9355   20.6569 O   0  0  0  0  0  0  0  0  0  0  0  0
  -32.1002  -25.0369   16.6518 O   0  0  0  0  0  0  0  0  0  0  0  0
  -21.4414  -25.9563   22.6688 O   0  0  0  0  0  0  0  0  0  0  0  0
  -30.1671  -17.4317   20.0249 O   0  0  0  0  0  0  0  0  0  1  0  0
  -16.8439  -28.9963   22.8262 F   0  0  0  0  0  0  0  0  0  0  0  0
  -21.4006  -28.4001   23.9605 F   0  0  0  0  0  0  0  0  0  0  0  0
  1  2  1  0  0  0  0
  1  5  2  0  0  0  0
  2  6  2  0  0  0  0
  3  8  2  0  0  0  0
  3 17  1  0  0  0  0
  4  9  1  0  0  0  0
  4 17  2  0  0  0  0
  5 19  1  0  0  0  0
  6 21  1  0  0  0  0
  7 10  2  0  0  0  0
  7 20  1  0  0  0  0
  8 24  1  0  0  0  0
  9 24  2  0  0  0  0
 10 25  1  0  0  0  0
 11 12  2  0  0  0  0
 11 26  1  0  0  0  0
 12 27  1  0  0  0  0
 13 22  1  0  0  0  0
 13 25  2  0  0  0  0
 14 23  1  0  0  0  0
 14 30  2  0  0  0  0
 15 23  2  0  0  0  0
 15 31  1  0  0  0  0
 16 27  2  0  0  0  0
 16 28  1  0  0  0  0
 17 29  1  0  0  0  0
 18 29  1  0  0  0  0
 18 32  2  0  0  0  0
 18 33  1  0  0  0  0
 19 21  2  0  0  0  0
 19 38  1  0  0  0  0
 20 22  2  0  0  0  0
 20 39  1  0  0  0  0
 21 47  1  0  0  0  0
 22 40  1  0  0  0  0
 23 58  1  0  0  0  0
 24 83  1  0  0  0  0
 25 84  1  0  0  0  0
 26 28  2  0  0  0  0
 26 83  1  0  0  0  0
 27 85  1  0  0  0  0
 28 86  1  0  0  0  0
 29 67  2  0  0  0  0
 30 62  1  0  0  0  0
 30 68  1  0  0  0  0
 31 63  1  0  0  0  0
 31 68  2  0  0  0  0
 32 69  1  0  0  0  0
 32 72  1  0  0  0  0
 33 73  1  0  0  0  0
 33 78  2  0  0  0  0
 34 48  1  0  0  0  0
 34 74  1  0  0  0  0
 34 79  2  0  0  0  0
 35 64  1  0  0  0  0
 35 70  1  0  0  0  0
 35 80  2  0  0  0  0
 36 65  1  0  0  0  0
 36 75  1  0  0  0  0
 36 81  2  0  0  0  0
 37 71  1  0  0  0  0
 37 76  1  0  0  0  0
 37 82  2  0  0  0  0
 38 41  1  0  0  0  0
 39 48  1  0  0  0  0
 40 70  1  0  0  0  0
 41 43  1  0  0  0  0
 42 44  1  0  0  0  0
 42 45  1  0  0  0  0
 43 47  1  0  0  0  0
 44 49  1  0  0  0  0
 45 71  1  0  0  0  0
 46 49  1  0  0  0  0
 46 71  1  0  0  0  0
 47 74  1  0  0  0  0
 48 70  1  0  0  0  0
 49 69  1  0  0  0  0
 50 62  1  0  0  0  0
 51 62  1  0  0  0  0
 52 63  1  0  0  0  0
 53 65  1  0  0  0  0
 54 66  1  0  0  0  0
 55 66  1  0  0  0  0
 56 66  1  0  0  0  0
 57 77  1  0  0  0  0
 58 59  1  0  0  0  0
 59 60  1  0  0  0  0
 60 61  1  0  0  0  0
 61 84  1  0  0  0  0
 63 76  1  0  0  0  0
 64 66  1  0  0  0  0
 64 75  1  0  0  0  0
 65 77  1  0  0  0  0
 67 69  1  0  0  0  0
M  CHG  1  77   1
M  ISO  4  37 100  61 101  76 100  84 101
M  END
> <Batch ID>
0088

> <Smiles>
CNC(C)C(=O)NC(C(=O)N1Cc2cc([101O:1][101CH2:1]CCCc3cc(C(C)C)nc(C(C)[100NH:0][100C:0](=O)N4CCCC(n5nc(-c6ccc(Oc7ccc(F)cc7F)cc6)c(C(N)=O)c5N)C4)c3)ccc2CC1C(=O)NC1CCCc2ccccc21)C(C)(C)C

> <Shape>
0.206

> <Color>
0.078

> <Negative vol penalty>
0.000

$$$$

  -OEChem-04052319043D

 88 96  0     1  0  0  0  0  0999 V2000
  -24.8357  -32.7392   24.3423 C   0  0  0  0  0  0  0  0  0  0  0  0
  -24.8307  -31.3686   24.5804 C   0  0  0  0  0  0  0  0  0  0  0  0
  -22.9862   -9.9049   19.9697 C   0  0  0  0  0  0  0  0  0  0  0  0
  -23.7456   -9.9007   22.2633 C   0  0  0  0  0  0  0  0  0  0  0  0
  -24.7290  -33.2194   23.0377 C   0  0  0  0  0  0  0  0  0  0  0  0
  -24.7180  -30.4772   23.5140 C   0  0  0  0  0  0  0  0  0  0  0  0
  -27.3524  -24.9703   23.0245 C   0  0  0  0  0  0  0  0  0  0  0  0
  -22.2169   -8.7691   20.2223 C   0  0  0  0  0  0  0  0  0  0  0  0
  -22.9763   -8.7650   22.5159 C   0  0  0  0  0  0  0  0  0  0  0  0
  -26.8780  -23.6798   23.2551 C   0  0  0  0  0  0  0  0  0  0  0  0
  -23.1937   -5.4360   21.9669 C   0  0  0  0  0  0  0  0  0  0  0  0
  -23.7862   -4.3991   22.6875 C   0  0  0  0  0  0  0  0  0  0  0  0
  -26.3810  -23.4493   20.9058 C   0  0  0  0  0  0  0  0  0  0  0  0
  -26.4858  -19.0384   20.7315 C   0  0  0  0  0  0  0  0  0  0  0  0
  -28.4980  -18.6725   22.0176 C   0  0  0  0  0  0  0  0  0  0  0  0
  -22.0887   -4.6146   24.3932 C   0  0  0  0  0  0  0  0  0  0  0  0
  -23.7506  -10.4707   20.9902 C   0  0  0  0  0  0  0  0  0  0  0  0
  -24.1483  -12.9873   20.8640 C   0  0  0  0  0  0  0  0  0  0  0  0
  -24.6247  -32.3333   21.9539 C   0  0  0  0  0  0  0  0  0  0  0  0
  -27.3345  -25.5150   21.7325 C   0  0  0  0  0  0  0  0  0  0  0  0
  -24.6085  -30.9460   22.1938 C   0  0  0  0  0  0  0  0  0  0  0  0
  -26.8581  -24.7461   20.6611 C   0  0  0  0  0  0  0  0  0  0  0  0
  -27.1535  -19.0388   21.9561 C   0  0  0  0  0  0  0  0  0  0  0  0
  -27.1626  -18.6715   19.5683 C   0  0  0  0  0  0  0  0  0  0  0  0
  -29.1748  -18.3057   20.8543 C   0  0  0  0  0  0  0  0  0  0  0  0
  -28.5071  -18.3052   19.6297 C   0  0  0  0  0  0  0  0  0  0  0  0
  -22.2119   -8.1992   21.4954 C   0  0  0  0  0  0  0  0  0  0  0  0
  -26.3895  -22.9201   22.1961 C   0  0  0  0  0  0  0  0  0  0  0  0
  -22.0487   -6.0623   22.4594 C   0  0  0  0  0  0  0  0  0  0  0  0
  -23.2337   -3.9883   23.9006 C   0  0  0  0  0  0  0  0  0  0  0  0
  -21.4962   -5.6515   23.6725 C   0  0  0  0  0  0  0  0  0  0  0  0
  -24.5459  -11.6436   20.7297 C   0  0  0  0  0  0  0  0  0  0  0  0
  -25.2568  -13.7116   20.4991 C   0  0  0  0  0  0  0  0  0  0  0  0
  -22.8895  -13.5322   21.2813 C   0  0  0  0  0  0  0  0  0  0  0  0
  -25.9117  -28.0091   20.3691 C   0  0  0  0  0  0  0  0  0  0  0  0
  -27.7240  -27.1539   17.8184 C   0  0  0  0  0  0  0  0  0  0  0  0
  -29.4403  -24.7045   16.1747 C   0  0  0  0  0  0  0  0  0  0  0  0
  -30.7618  -14.6094   20.6863 C   0  0  0  0  0  0  0  0  0  0  0  0
  -24.4641  -32.9003   20.5656 C   0  0  0  0  0  0  0  0  0  0  0  0
  -27.8746  -26.8988   21.4961 C   0  0  0  0  0  0  0  0  0  0  0  0
  -26.8361  -25.2772   19.2519 C   0  0  0  0  0  0  0  0  0  0  0  0
  -24.7254  -31.8827   19.4581 C   0  0  0  0  0  0  0  0  0  0  0  0
  -29.5721  -12.2447   18.3051 C   0  0  0  0  0  0  0  0  0  0  0  0
  -24.0043  -30.5720   19.7564 C   0  0  0  0  0  0  0  0  0  0  0  0
  -28.1284  -11.9840   18.7384 C   0  0  0  0  0  0  0  0  0  0  0  0
  -30.4937  -12.4482   19.5057 C   0  0  0  0  0  0  0  0  0  0  0  0
  -28.6083  -13.2246   20.8900 C   0  0  0  0  0  0  0  0  0  0  0  0
  -24.5129  -29.9470   21.0611 C   0  0  1  0  0  0  0  0  0  0  0  0
  -27.3325  -27.5425   20.2236 C   0  0  1  0  0  0  0  0  0  0  0  0
  -27.6307  -13.0687   19.7126 C   0  0  2  0  0  0  0  0  0  0  0  0
  -26.4249  -18.6804   18.2693 C   0  0  0  0  0  0  0  0  0  0  0  0
  -30.9273  -23.6660   14.4403 C   0  0  0  0  0  0  0  0  0  0  0  0
  -31.8397  -17.5731   16.7596 C   0  0  0  0  0  0  0  0  0  0  0  0
  -31.7303  -19.9826   16.1089 C   0  0  0  0  0  0  0  0  0  0  0  0
  -29.9094  -18.4064   15.4102 C   0  0  0  0  0  0  0  0  0  0  0  0
  -25.1574  -27.1070   16.1690 C   0  0  0  0  0  0  0  0  0  0  0  0
  -26.3883  -25.8072   14.4188 C   0  0  0  0  0  0  0  0  0  0  0  0
  -27.1272  -28.1166   15.0049 C   0  0  0  0  0  0  0  0  0  0  0  0
  -31.8763  -25.2688   17.7580 C   0  0  0  0  0  0  0  0  0  0  0  0
  -26.4210  -19.4351   23.2150 C   0  0  0  0  0  0  0  0  0  0  0  0
  -30.6145  -17.9176   20.9470 C   0  0  0  0  0  0  0  0  0  0  0  0
  -29.2326  -17.9123   18.3822 C   0  0  0  0  0  0  0  0  0  0  0  0
  -30.1415  -19.0437   17.8679 C   0  0  0  0  0  0  0  0  0  0  0  0
  -30.8750  -16.7610   21.9179 C   0  0  0  0  0  0  0  0  0  0  0  0
  -26.5151  -20.9312   23.4940 C   0  0  0  0  0  0  0  0  0  1  0  0
  -27.5404  -26.2311   16.6378 C   0  0  1  0  0  0  0  0  0  0  0  0
  -30.8309  -24.6839   15.5662 C   0  0  2  0  0  0  0  0  0  0  0  0
  -30.8910  -18.7676   16.5371 C   0  0  0  0  0  0  0  0  0  0  0  0
  -26.5518  -26.8059   15.5844 C   0  0  0  0  0  0  0  0  0  0  0  0
  -25.8084  -11.5187   20.3119 N   0  0  0  0  0  0  0  0  0  0  0  0
  -26.2137  -12.7933   20.1805 N   0  0  0  0  0  0  0  0  0  0  0  0
  -27.3690  -26.6378   19.0728 N   0  0  0  0  0  0  0  0  0  0  0  0
  -29.9658  -13.4908   20.3890 N   0  0  0  0  0  0  0  0  0  0  0  0
  -25.4967  -15.0378   20.4229 N   0  0  0  0  0  0  0  0  0  0  0  0
  -21.8576  -12.6465   21.6206 N   0  0  0  0  0  0  0  0  0  0  0  0
  -25.7896  -29.2998   20.8473 N   0  0  0  0  0  0  0  0  0  0  0  0
  -28.8769  -25.9618   16.1185 N   0  0  0  0  0  0  0  0  0  0  0  0
  -30.1832  -15.5533   21.5259 N   0  0  0  0  0  0  0  0  0  0  0  0
  -31.8444  -24.3362   16.6020 N   0  3  0  0  0  0  0  0  0  0  0  0
  -22.6805  -14.7679   21.3356 O   0  0  0  0  0  0  0  0  0  0  0  0
  -24.9941  -27.2546   20.0683 O   0  0  0  0  0  0  0  0  0  0  0  0
  -28.1727  -28.2882   17.6352 O   0  0  0  0  0  0  0  0  0  0  0  0
  -28.9057  -23.7046   16.6488 O   0  0  0  0  0  0  0  0  0  0  0  0
  -31.9014  -14.7585   20.2325 O   0  0  0  0  0  0  0  0  0  0  0  0
  -21.4612   -7.0910   21.7424 O   0  0  0  0  0  0  0  0  0  0  0  0
  -25.9253  -21.6604   22.4185 O   0  0  0  0  0  0  0  0  0  1  0  0
  -23.8019   -2.9915   24.5918 F   0  0  0  0  0  0  0  0  0  0  0  0
  -20.3957   -6.2486   24.1502 F   0  0  0  0  0  0  0  0  0  0  0  0
  1  2  1  0  0  0  0
  1  5  2  0  0  0  0
  2  6  2  0  0  0  0
  3  8  2  0  0  0  0
  3 17  1  0  0  0  0
  4  9  1  0  0  0  0
  4 17  2  0  0  0  0
  5 19  1  0  0  0  0
  6 21  1  0  0  0  0
  7 10  2  0  0  0  0
  7 20  1  0  0  0  0
  8 27  1  0  0  0  0
  9 27  2  0  0  0  0
 10 28  1  0  0  0  0
 11 12  2  0  0  0  0
 11 29  1  0  0  0  0
 12 30  1  0  0  0  0
 13 22  1  0  0  0  0
 13 28  2  0  0  0  0
 14 23  1  0  0  0  0
 14 24  2  0  0  0  0
 15 23  2  0  0  0  0
 15 25  1  0  0  0  0
 16 30  2  0  0  0  0
 16 31  1  0  0  0  0
 17 32  1  0  0  0  0
 18 32  1  0  0  0  0
 18 33  2  0  0  0  0
 18 34  1  0  0  0  0
 19 21  2  0  0  0  0
 19 39  1  0  0  0  0
 20 22  2  0  0  0  0
 20 40  1  0  0  0  0
 21 48  1  0  0  0  0
 22 41  1  0  0  0  0
 23 60  1  0  0  0  0
 24 26  1  0  0  0  0
 24 51  1  0  0  0  0
 25 26  2  0  0  0  0
 25 61  1  0  0  0  0
 26 62  1  0  0  0  0
 27 85  1  0  0  0  0
 28 86  1  0  0  0  0
 29 31  2  0  0  0  0
 29 85  1  0  0  0  0
 30 87  1  0  0  0  0
 31 88  1  0  0  0  0
 32 70  2  0  0  0  0
 33 71  1  0  0  0  0
 33 74  1  0  0  0  0
 34 75  1  0  0  0  0
 34 80  2  0  0  0  0
 35 49  1  0  0  0  0
 35 76  1  0  0  0  0
 35 81  2  0  0  0  0
 36 66  1  0  0  0  0
 36 72  1  0  0  0  0
 36 82  2  0  0  0  0
 37 67  1  0  0  0  0
 37 77  1  0  0  0  0
 37 83  2  0  0  0  0
 38 73  1  0  0  0  0
 38 78  1  0  0  0  0
 38 84  2  0  0  0  0
 39 42  1  0  0  0  0
 40 49  1  0  0  0  0
 41 72  1  0  0  0  0
 42 44  1  0  0  0  0
 43 45  1  0  0  0  0
 43 46  1  0  0  0  0
 44 48  1  0  0  0  0
 45 50  1  0  0  0  0
 46 73  1  0  0  0  0
 47 50  1  0  0  0  0
 47 73  1  0  0  0  0
 48 76  1  0  0  0  0
 49 72  1  0  0  0  0
 50 71  1  0  0  0  0
 52 67  1  0  0  0  0
 53 68  1  0  0  0  0
 54 68  1  0  0  0  0
 55 68  1  0  0  0  0
 56 69  1  0  0  0  0
 57 69  1  0  0  0  0
 58 69  1  0  0  0  0
 59 79  1  0  0  0  0
 60 65  1  0  0  0  0
 61 64  1  0  0  0  0
 62 63  1  0  0  0  0
 63 68  1  0  0  0  0
 64 78  1  0  0  0  0
 65 86  1  0  0  0  0
 66 69  1  0  0  0  0
 66 77  1  0  0  0  0
 67 79  1  0  0  0  0
 70 71  1  0  0  0  0
M  CHG  1  79   1
M  ISO  4  38 100  65 101  78 100  86 101
M  END
> <Batch ID>
0088

> <Smiles>
CNC(C)C(=O)NC(C(=O)N1Cc2cc([101O:1][101CH2:1]Cc3cc(C)c(CCC(C)(C)C)c(CC[100NH:0][100C:0](=O)N4CCCC(n5nc(-c6ccc(Oc7ccc(F)cc7F)cc6)c(C(N)=O)c5N)C4)c3)ccc2CC1C(=O)NC1CCCc2ccccc21)C(C)(C)C

> <Shape>
0.318

> <Color>
0.205

> <Negative vol penalty>
0.000

$$$$

  -OEChem-04052319043D

 83 91  0     1  0  0  0  0  0999 V2000
  -32.1035  -24.0696   31.4089 C   0  0  0  0  0  0  0  0  0  0  0  0
  -31.1566  -23.9256   30.3999 C   0  0  0  0  0  0  0  0  0  0  0  0
  -23.0767   -9.8670   19.9417 C   0  0  0  0  0  0  0  0  0  0  0  0
  -23.8399   -9.8747   22.2339 C   0  0  0  0  0  0  0  0  0  0  0  0
  -33.2580  -24.8166   31.1784 C   0  0  0  0  0  0  0  0  0  0  0  0
  -31.3632  -24.5294   29.1601 C   0  0  0  0  0  0  0  0  0  0  0  0
  -30.2987  -21.4386   25.2924 C   0  0  0  0  0  0  0  0  0  0  0  0
  -22.3351   -8.7126   20.1924 C   0  0  0  0  0  0  0  0  0  0  0  0
  -23.0983   -8.7203   22.4847 C   0  0  0  0  0  0  0  0  0  0  0  0
  -28.9537  -21.2588   24.9727 C   0  0  0  0  0  0  0  0  0  0  0  0
  -19.8724   -7.9170   23.0918 C   0  0  0  0  0  0  0  0  0  0  0  0
  -19.1173   -7.8755   24.2638 C   0  0  0  0  0  0  0  0  0  0  0  0
  -29.1783  -22.8401   23.1648 C   0  0  0  0  0  0  0  0  0  0  0  0
  -20.3630   -5.9399   24.9979 C   0  0  0  0  0  0  0  0  0  0  0  0
  -26.9974  -18.7585   20.0028 C   0  0  0  0  0  0  0  0  0  0  0  0
  -28.2758  -18.8624   21.8384 C   0  0  0  0  0  0  0  0  0  0  0  0
  -23.8292  -10.4481   20.9624 C   0  0  0  0  0  0  0  0  0  0  0  0
  -24.1666  -12.9738   20.8425 C   0  0  0  0  0  0  0  0  0  0  0  0
  -33.4834  -25.4219   29.9320 C   0  0  0  0  0  0  0  0  0  0  0  0
  -31.0923  -22.3303   24.5564 C   0  0  0  0  0  0  0  0  0  0  0  0
  -32.5211  -25.2864   28.9132 C   0  0  0  0  0  0  0  0  0  0  0  0
  -30.5338  -23.0275   23.4756 C   0  0  0  0  0  0  0  0  0  0  0  0
  -28.2625  -18.3462   19.6467 C   0  0  0  0  0  0  0  0  0  0  0  0
  -29.0714  -18.4121   20.8080 C   0  0  0  0  0  0  0  0  0  0  0  0
  -22.3459   -8.1392   21.4639 C   0  0  0  0  0  0  0  0  0  0  0  0
  -28.3925  -21.9617   23.9105 C   0  0  0  0  0  0  0  0  0  0  0  0
  -20.8728   -6.9699   22.8728 C   0  0  0  0  0  0  0  0  0  0  0  0
  -19.3625   -6.8870   25.2169 C   0  0  0  0  0  0  0  0  0  0  0  0
  -21.1181   -5.9814   23.8259 C   0  0  0  0  0  0  0  0  0  0  0  0
  -24.5959  -11.6403   20.7038 C   0  0  0  0  0  0  0  0  0  0  0  0
  -25.2570  -13.7252   20.4778 C   0  0  0  0  0  0  0  0  0  0  0  0
  -22.8959  -13.4874   21.2634 C   0  0  0  0  0  0  0  0  0  0  0  0
  -32.7006  -24.9867   25.2347 C   0  0  0  0  0  0  0  0  0  0  0  0
  -33.7251  -24.6840   22.1718 C   0  0  0  0  0  0  0  0  0  0  0  0
  -33.1723  -23.4427   19.0413 C   0  0  0  0  0  0  0  0  0  0  0  0
  -30.7393  -14.7533   20.6582 C   0  0  0  0  0  0  0  0  0  0  0  0
  -34.7239  -26.2591   29.7453 C   0  0  0  0  0  0  0  0  0  0  0  0
  -32.5482  -22.4929   24.8972 C   0  0  0  0  0  0  0  0  0  0  0  0
  -31.3479  -23.9813   22.6414 C   0  0  0  0  0  0  0  0  0  0  0  0
  -35.0445  -26.5550   28.2824 C   0  0  0  0  0  0  0  0  0  0  0  0
  -29.6021  -12.3675   18.2726 C   0  0  0  0  0  0  0  0  0  0  0  0
  -33.7895  -27.0054   27.5415 C   0  0  0  0  0  0  0  0  0  0  0  0
  -28.1658  -12.0713   18.7075 C   0  0  0  0  0  0  0  0  0  0  0  0
  -30.5207  -12.5895   19.4721 C   0  0  0  0  0  0  0  0  0  0  0  0
  -28.6198  -13.3171   20.8617 C   0  0  0  0  0  0  0  0  0  0  0  0
  -32.7210  -25.9056   27.5469 C   0  0  1  0  0  0  0  0  0  0  0  0
  -33.1337  -23.8123   24.4034 C   0  0  1  0  0  0  0  0  0  0  0  0
  -27.6442  -13.1412   19.6855 C   0  0  2  0  0  0  0  0  0  0  0  0
  -28.6856  -17.9155   18.2994 C   0  0  0  0  0  0  0  0  0  0  0  0
  -31.3806  -19.2821   21.2921 C   0  0  0  0  0  0  0  0  0  0  0  0
  -33.6426  -22.8900   16.6390 C   0  0  0  0  0  0  0  0  0  0  0  0
  -32.7851  -27.5492   21.7063 C   0  0  0  0  0  0  0  0  0  0  0  0
  -32.9153  -27.1179   19.2435 C   0  0  0  0  0  0  0  0  0  0  0  0
  -34.9766  -26.9843   20.6420 C   0  0  0  0  0  0  0  0  0  0  0  0
  -34.4720  -20.8838   19.7636 C   0  0  0  0  0  0  0  0  0  0  0  0
  -25.5273  -21.0463   21.9248 C   0  0  0  0  0  0  0  0  0  0  0  0
  -25.8347  -19.5618   22.1330 C   0  0  0  0  0  0  0  0  0  0  0  0
  -30.8035  -16.9036   21.8956 C   0  0  0  0  0  0  0  0  0  0  0  0
  -26.7114  -21.9568   22.2284 C   0  0  0  0  0  0  0  0  0  1  0  0
  -30.5028  -18.0654   20.9080 C   0  0  1  0  0  0  0  0  0  0  0  0
  -33.2328  -25.1631   20.8276 C   0  0  1  0  0  0  0  0  0  0  0  0
  -34.0760  -22.6884   18.0827 C   0  0  2  0  0  0  0  0  0  0  0  0
  -33.4614  -26.6872   20.6216 C   0  0  0  0  0  0  0  0  0  0  0  0
  -25.8603  -11.5467   20.2836 N   0  0  0  0  0  0  0  0  0  0  0  0
  -27.0172  -19.0694   21.3374 N   0  0  0  0  0  0  0  0  0  0  0  0
  -26.2349  -12.8309   20.1550 N   0  0  0  0  0  0  0  0  0  0  0  0
  -32.7652  -24.1109   23.0180 N   0  0  0  0  0  0  0  0  0  0  0  0
  -29.9697  -13.6169   20.3592 N   0  0  0  0  0  0  0  0  0  0  0  0
  -25.4651  -15.0570   20.4048 N   0  0  0  0  0  0  0  0  0  0  0  0
  -21.8860  -12.5765   21.6020 N   0  0  0  0  0  0  0  0  0  0  0  0
  -33.0401  -24.8862   26.5704 N   0  0  0  0  0  0  0  0  0  0  0  0
  -33.8845  -24.3210   19.8303 N   0  0  0  0  0  0  0  0  0  0  0  0
  -30.1399  -15.6809   21.5014 N   0  0  0  0  0  0  0  0  0  0  0  0
  -34.0462  -21.2289   18.3829 N   0  3  0  0  0  0  0  0  0  0  0  0
  -22.6577  -14.7176   21.3214 O   0  0  0  0  0  0  0  0  0  0  0  0
  -32.1041  -25.9159   24.7033 O   0  0  0  0  0  0  0  0  0  0  0  0
  -34.9188  -24.8070   22.4577 O   0  0  0  0  0  0  0  0  0  0  0  0
  -31.9558  -23.2727   19.0831 O   0  0  0  0  0  0  0  0  0  0  0  0
  -31.8743  -14.9307   20.2030 O   0  0  0  0  0  0  0  0  0  0  0  0
  -21.6221   -7.0129   21.7091 O   0  0  0  0  0  0  0  0  0  0  0  0
  -27.0797  -21.7885   23.5967 O   0  0  0  0  0  0  0  0  0  1  0  0
  -18.6383   -6.8482   26.3431 F   0  0  0  0  0  0  0  0  0  0  0  0
  -22.0786   -5.0695   23.6216 F   0  0  0  0  0  0  0  0  0  0  0  0
  1  2  1  0  0  0  0
  1  5  2  0  0  0  0
  2  6  2  0  0  0  0
  3  8  2  0  0  0  0
  3 17  1  0  0  0  0
  4  9  1  0  0  0  0
  4 17  2  0  0  0  0
  5 19  1  0  0  0  0
  6 21  1  0  0  0  0
  7 10  2  0  0  0  0
  7 20  1  0  0  0  0
  8 25  1  0  0  0  0
  9 25  2  0  0  0  0
 10 26  1  0  0  0  0
 11 12  2  0  0  0  0
 11 27  1  0  0  0  0
 12 28  1  0  0  0  0
 13 22  1  0  0  0  0
 13 26  2  0  0  0  0
 14 28  2  0  0  0  0
 14 29  1  0  0  0  0
 15 23  2  0  0  0  0
 15 65  1  0  0  0  0
 16 24  2  0  0  0  0
 16 65  1  0  0  0  0
 17 30  1  0  0  0  0
 18 30  1  0  0  0  0
 18 31  2  0  0  0  0
 18 32  1  0  0  0  0
 19 21  2  0  0  0  0
 19 37  1  0  0  0  0
 20 22  2  0  0  0  0
 20 38  1  0  0  0  0
 21 46  1  0  0  0  0
 22 39  1  0  0  0  0
 23 24  1  0  0  0  0
 23 49  1  0  0  0  0
 24 60  1  0  0  0  0
 25 80  1  0  0  0  0
 26 81  1  0  0  0  0
 27 29  2  0  0  0  0
 27 80  1  0  0  0  0
 28 82  1  0  0  0  0
 29 83  1  0  0  0  0
 30 64  2  0  0  0  0
 31 66  1  0  0  0  0
 31 69  1  0  0  0  0
 32 70  1  0  0  0  0
 32 75  2  0  0  0  0
 33 47  1  0  0  0  0
 33 71  1  0  0  0  0
 33 76  2  0  0  0  0
 34 61  1  0  0  0  0
 34 67  1  0  0  0  0
 34 77  2  0  0  0  0
 35 62  1  0  0  0  0
 35 72  1  0  0  0  0
 35 78  2  0  0  0  0
 36 68  1  0  0  0  0
 36 73  1  0  0  0  0
 36 79  2  0  0  0  0
 37 40  1  0  0  0  0
 38 47  1  0  0  0  0
 39 67  1  0  0  0  0
 40 42  1  0  0  0  0
 41 43  1  0  0  0  0
 41 44  1  0  0  0  0
 42 46  1  0  0  0  0
 43 48  1  0  0  0  0
 44 68  1  0  0  0  0
 45 48  1  0  0  0  0
 45 68  1  0  0  0  0
 46 71  1  0  0  0  0
 47 67  1  0  0  0  0
 48 66  1  0  0  0  0
 50 60  1  0  0  0  0
 51 62  1  0  0  0  0
 52 63  1  0  0  0  0
 53 63  1  0  0  0  0
 54 63  1  0  0  0  0
 55 74  1  0  0  0  0
 56 57  1  0  0  0  0
 56 59  1  0  0  0  0
 57 65  1  0  0  0  0
 58 60  1  0  0  0  0
 58 73  1  0  0  0  0
 59 81  1  0  0  0  0
 61 63  1  0  0  0  0
 61 72  1  0  0  0  0
 62 74  1  0  0  0  0
 64 66  1  0  0  0  0
M  CHG  1  74   1
M  ISO  4  36 100  59 101  73 100  81 101
M  END
> <Batch ID>
0088

> <Smiles>
CNC(C)C(=O)NC(C(=O)N1Cc2cc([101O:1][101CH2:1]CCn3cc(C)c(C(C)C[100NH:0][100C:0](=O)N4CCCC(n5nc(-c6ccc(Oc7ccc(F)cc7F)cc6)c(C(N)=O)c5N)C4)c3)ccc2CC1C(=O)NC1CCCc2ccccc21)C(C)(C)C

> <Shape>
0.202

> <Color>
0.196

> <Negative vol penalty>
0.000

$$$$

  -OEChem-04052319043D

 88 96  0     1  0  0  0  0  0999 V2000
  -31.8360  -27.2216   18.7084 C   0  0  0  0  0  0  0  0  0  0  0  0
  -30.5638  -27.1749   18.1473 C   0  0  0  0  0  0  0  0  0  0  0  0
  -28.0008  -14.2985   21.3652 C   0  0  0  0  0  0  0  0  0  0  0  0
  -26.0838  -14.9170   20.0311 C   0  0  0  0  0  0  0  0  0  0  0  0
  -31.9851  -27.4355   20.0780 C   0  0  0  0  0  0  0  0  0  0  0  0
  -29.4399  -27.3411   18.9558 C   0  0  0  0  0  0  0  0  0  0  0  0
  -22.7955  -30.0137   18.7985 C   0  0  0  0  0  0  0  0  0  0  0  0
  -27.6378  -12.9555   21.2643 C   0  0  0  0  0  0  0  0  0  0  0  0
  -25.7208  -13.5739   19.9302 C   0  0  0  0  0  0  0  0  0  0  0  0
  -21.4800  -29.6466   19.0788 C   0  0  0  0  0  0  0  0  0  0  0  0
  -26.6599  -10.8697   18.1342 C   0  0  0  0  0  0  0  0  0  0  0  0
  -26.2799  -10.3952   16.8788 C   0  0  0  0  0  0  0  0  0  0  0  0
  -21.8616  -30.0892   21.4193 C   0  0  0  0  0  0  0  0  0  0  0  0
  -20.6294  -26.4571   22.1323 C   0  0  0  0  0  0  0  0  0  0  0  0
  -24.1096   -9.8027   17.7597 C   0  0  0  0  0  0  0  0  0  0  0  0
  -27.2238  -15.2793   20.7486 C   0  0  0  0  0  0  0  0  0  0  0  0
  -28.4364  -17.3889   19.9826 C   0  0  0  0  0  0  0  0  0  0  0  0
  -30.8628  -27.6141   20.9022 C   0  0  0  0  0  0  0  0  0  0  0  0
  -23.6585  -30.4115   19.8297 C   0  0  0  0  0  0  0  0  0  0  0  0
  -29.5741  -27.5564   20.3380 C   0  0  0  0  0  0  0  0  0  0  0  0
  -23.1868  -30.4632   21.1491 C   0  0  0  0  0  0  0  0  0  0  0  0
  -21.7061  -25.6272   22.4245 C   0  0  0  0  0  0  0  0  0  0  0  0
  -19.8856  -26.2410   20.9776 C   0  0  0  0  0  0  0  0  0  0  0  0
  -26.4978  -12.5932   20.5468 C   0  0  0  0  0  0  0  0  0  0  0  0
  -21.0137  -29.6816   20.3897 C   0  0  0  0  0  0  0  0  0  0  0  0
  -25.7648  -10.8106   19.2024 C   0  0  0  0  0  0  0  0  0  0  0  0
  -25.0048   -9.8617   16.6915 C   0  0  0  0  0  0  0  0  0  0  0  0
  -24.4897  -10.2772   19.0152 C   0  0  0  0  0  0  0  0  0  0  0  0
  -27.5980  -16.6668   20.8529 C   0  0  0  0  0  0  0  0  0  0  0  0
  -21.9954  -24.6035   21.5367 C   0  0  0  0  0  0  0  0  0  0  0  0
  -20.2565  -25.1900   20.1545 C   0  0  0  0  0  0  0  0  0  0  0  0
  -28.4740  -18.6549   20.5138 C   0  0  0  0  0  0  0  0  0  0  0  0
  -29.1200  -16.9541   18.7996 C   0  0  0  0  0  0  0  0  0  0  0  0
  -26.3923  -29.3076   21.0177 C   0  0  0  0  0  0  0  0  0  0  0  0
  -26.2715  -32.0263   22.7831 C   0  0  0  0  0  0  0  0  0  0  0  0
  -24.3732  -34.5117   24.1492 C   0  0  0  0  0  0  0  0  0  0  0  0
  -24.7021  -21.7249   24.0065 C   0  0  0  0  0  0  0  0  0  0  0  0
  -31.0723  -27.7954   22.3847 C   0  0  0  0  0  0  0  0  0  0  0  0
  -25.0669  -30.8300   19.5073 C   0  0  0  0  0  0  0  0  0  0  0  0
  -24.0673  -30.9024   22.2894 C   0  0  0  0  0  0  0  0  0  0  0  0
  -29.8437  -28.3358   23.1119 C   0  0  0  0  0  0  0  0  0  0  0  0
  -28.1177  -20.9792   24.6805 C   0  0  0  0  0  0  0  0  0  0  0  0
  -28.5917  -27.5797   22.6789 C   0  0  0  0  0  0  0  0  0  0  0  0
  -28.4474  -19.8546   23.6975 C   0  0  0  0  0  0  0  0  0  0  0  0
  -26.6897  -20.8656   25.2096 C   0  0  0  0  0  0  0  0  0  0  0  0
  -25.9784  -19.6529   23.1855 C   0  0  0  0  0  0  0  0  0  0  0  0
  -28.3315  -27.7569   21.1781 C   0  0  1  0  0  0  0  0  0  0  0  0
  -26.0095  -30.7259   20.7023 C   0  0  1  0  0  0  0  0  0  0  0  0
  -27.3895  -19.7569   22.5819 C   0  0  2  0  0  0  0  0  0  0  0  0
  -22.5069  -25.8534   23.6600 C   0  0  0  0  0  0  0  0  0  0  0  0
  -19.4924  -24.9106   18.9018 C   0  0  0  0  0  0  0  0  0  0  0  0
  -24.5520  -36.5714   25.5714 C   0  0  0  0  0  0  0  0  0  0  0  0
  -25.0549  -23.5475   18.3532 C   0  0  0  0  0  0  0  0  0  0  0  0
  -25.5104  -25.0334   20.3126 C   0  0  0  0  0  0  0  0  0  0  0  0
  -17.9206  -28.9840   19.1348 C   0  0  0  0  0  0  0  0  0  0  0  0
  -26.6044  -30.2815   25.2640 C   0  0  0  0  0  0  0  0  0  0  0  0
  -25.8332  -32.2212   26.6463 C   0  0  0  0  0  0  0  0  0  0  0  0
  -27.9237  -32.4058   25.2979 C   0  0  0  0  0  0  0  0  0  0  0  0
  -23.3127  -36.2355   21.9898 C   0  0  0  0  0  0  0  0  0  0  0  0
  -18.7149  -27.1392   20.6542 C   0  0  0  0  0  0  0  0  0  0  0  0
  -23.8064  -23.1382   20.4963 C   0  0  0  0  0  0  0  0  0  0  0  0
  -22.7383  -22.4729   22.6861 C   0  0  0  0  0  0  0  0  0  0  0  0
  -23.1409  -23.6812   21.7979 C   0  0  2  0  0  0  0  0  0  0  0  0
  -25.6859  -32.4068   24.1215 C   0  0  1  0  0  0  0  0  0  0  0  0
  -24.5410  -36.0204   24.1540 C   0  0  2  0  0  0  0  0  0  0  0  0
  -24.4412  -24.2142   19.5882 C   0  0  0  0  0  0  0  0  0  0  0  0
  -19.1293  -28.3507   19.8122 C   0  0  2  0  0  0  0  0  0  1  0  0
  -26.4955  -31.8186   25.3114 C   0  0  0  0  0  0  0  0  0  0  0  0
  -27.1365  -17.4120   21.8607 N   0  0  0  0  0  0  0  0  0  0  0  0
  -21.2959  -24.3626   20.4053 N   0  0  0  0  0  0  0  0  0  0  0  0
  -27.6868  -18.6156   21.6269 N   0  0  0  0  0  0  0  0  0  0  0  0
  -25.4381  -31.2958   21.9241 N   0  0  0  0  0  0  0  0  0  0  0  0
  -25.7355  -20.7783   24.1015 N   0  0  0  0  0  0  0  0  0  0  0  0
  -29.1034  -19.7867   20.1328 N   0  0  0  0  0  0  0  0  0  0  0  0
  -28.9724  -15.6205   18.3947 N   0  0  0  0  0  0  0  0  0  0  0  0
  -27.7470  -29.0547   20.9162 N   0  0  0  0  0  0  0  0  0  0  0  0
  -25.5894  -33.8625   24.1259 N   0  0  0  0  0  0  0  0  0  0  0  0
  -23.8456  -21.5737   22.9228 N   0  0  0  0  0  0  0  0  0  0  0  0
  -23.4262  -36.6680   23.4065 N   0  3  0  0  0  0  0  0  0  0  0  0
  -29.8534  -17.7212   18.1309 O   0  0  0  0  0  0  0  0  0  0  0  0
  -25.5232  -28.5027   21.3316 O   0  0  0  0  0  0  0  0  0  0  0  0
  -27.4233  -32.3709   22.5070 O   0  0  0  0  0  0  0  0  0  0  0  0
  -23.2732  -33.9638   24.1682 O   0  0  0  0  0  0  0  0  0  0  0  0
  -24.5568  -22.6403   24.8237 O   0  0  0  0  0  0  0  0  0  0  0  0
  -26.1433  -11.2828   20.4480 O   0  0  0  0  0  0  0  0  0  0  0  0
  -19.7303  -29.3232   20.6661 O   0  0  0  0  0  0  0  0  0  1  0  0
  -24.6395   -9.4076   15.4856 F   0  0  0  0  0  0  0  0  0  0  0  0
  -23.6250  -10.2189   20.0373 F   0  0  0  0  0  0  0  0  0  0  0  0
  1  2  1  0  0  0  0
  1  5  2  0  0  0  0
  2  6  2  0  0  0  0
  3  8  2  0  0  0  0
  3 16  1  0  0  0  0
  4  9  1  0  0  0  0
  4 16  2  0  0  0  0
  5 18  1  0  0  0  0
  6 20  1  0  0  0  0
  7 10  2  0  0  0  0
  7 19  1  0  0  0  0
  8 24  1  0  0  0  0
  9 24  2  0  0  0  0
 10 25  1  0  0  0  0
 11 12  2  0  0  0  0
 11 26  1  0  0  0  0
 12 27  1  0  0  0  0
 13 21  1  0  0  0  0
 13 25  2  0  0  0  0
 14 22  2  0  0  0  0
 14 23  1  0  0  0  0
 15 27  2  0  0  0  0
 15 28  1  0  0  0  0
 16 29  1  0  0  0  0
 17 29  1  0  0  0  0
 17 32  2  0  0  0  0
 17 33  1  0  0  0  0
 18 20  2  0  0  0  0
 18 38  1  0  0  0  0
 19 21  2  0  0  0  0
 19 39  1  0  0  0  0
 20 47  1  0  0  0  0
 21 40  1  0  0  0  0
 22 30  1  0  0  0  0
 22 50  1  0  0  0  0
 23 31  2  0  0  0  0
 23 60  1  0  0  0  0
 24 85  1  0  0  0  0
 25 86  1  0  0  0  0
 26 28  2  0  0  0  0
 26 85  1  0  0  0  0
 27 87  1  0  0  0  0
 28 88  1  0  0  0  0
 29 69  2  0  0  0  0
 30 63  1  0  0  0  0
 30 70  2  0  0  0  0
 31 51  1  0  0  0  0
 31 70  1  0  0  0  0
 32 71  1  0  0  0  0
 32 74  1  0  0  0  0
 33 75  1  0  0  0  0
 33 80  2  0  0  0  0
 34 48  1  0  0  0  0
 34 76  1  0  0  0  0
 34 81  2  0  0  0  0
 35 64  1  0  0  0  0
 35 72  1  0  0  0  0
 35 82  2  0  0  0  0
 36 65  1  0  0  0  0
 36 77  1  0  0  0  0
 36 83  2  0  0  0  0
 37 73  1  0  0  0  0
 37 78  1  0  0  0  0
 37 84  2  0  0  0  0
 38 41  1  0  0  0  0
 39 48  1  0  0  0  0
 40 72  1  0  0  0  0
 41 43  1  0  0  0  0
 42 44  1  0  0  0  0
 42 45  1  0  0  0  0
 43 47  1  0  0  0  0
 44 49  1  0  0  0  0
 45 73  1  0  0  0  0
 46 49  1  0  0  0  0
 46 73  1  0  0  0  0
 47 76  1  0  0  0  0
 48 72  1  0  0  0  0
 49 71  1  0  0  0  0
 52 65  1  0  0  0  0
 53 66  1  0  0  0  0
 54 66  1  0  0  0  0
 55 67  1  0  0  0  0
 56 68  1  0  0  0  0
 57 68  1  0  0  0  0
 58 68  1  0  0  0  0
 59 79  1  0  0  0  0
 60 67  1  0  0  0  0
 61 63  1  0  0  0  0
 61 66  1  0  0  0  0
 62 63  1  0  0  0  0
 62 78  1  0  0  0  0
 64 68  1  0  0  0  0
 64 77  1  0  0  0  0
 65 79  1  0  0  0  0
 67 86  1  0  0  0  0
 69 71  1  0  0  0  0
M  CHG  1  79   1
M  ISO  4  37 100  67 101  78 100  86 101
M  END
> <Batch ID>
0088

> <Smiles>
CNC(C)C(=O)NC(C(=O)N1Cc2cc([101O:1][101CH:1](C)Cc3cc(C)c(C(C[100NH:0][100C:0](=O)N4CCCC(n5nc(-c6ccc(Oc7ccc(F)cc7F)cc6)c(C(N)=O)c5N)C4)CC(C)C)nc3C)ccc2CC1C(=O)NC1CCCc2ccccc21)C(C)(C)C

> <Shape>
0.276

> <Color>
0.076

> <Negative vol penalty>
0.000

$$$$

  -OEChem-04052319043D

 83 91  0     1  0  0  0  0  0999 V2000
  -20.8210  -20.5619   21.4389 C   0  0  0  0  0  0  0  0  0  0  0  0
  -21.9331  -21.2439   20.9557 C   0  0  0  0  0  0  0  0  0  0  0  0
  -26.9178  -13.2741   21.1199 C   0  0  0  0  0  0  0  0  0  0  0  0
  -26.6917  -13.7080   18.7539 C   0  0  0  0  0  0  0  0  0  0  0  0
  -19.5912  -21.2124   21.5304 C   0  0  0  0  0  0  0  0  0  0  0  0
  -21.8157  -22.5766   20.5627 C   0  0  0  0  0  0  0  0  0  0  0  0
  -25.6153  -25.4503   22.2802 C   0  0  0  0  0  0  0  0  0  0  0  0
  -26.2597  -12.0548   20.9592 C   0  0  0  0  0  0  0  0  0  0  0  0
  -26.0337  -12.4887   18.5932 C   0  0  0  0  0  0  0  0  0  0  0  0
  -26.8326  -25.3661   21.6056 C   0  0  0  0  0  0  0  0  0  0  0  0
  -23.0781  -10.9692   20.6080 C   0  0  0  0  0  0  0  0  0  0  0  0
  -22.0878  -10.6411   21.5338 C   0  0  0  0  0  0  0  0  0  0  0  0
  -26.3136  -27.4059   20.4270 C   0  0  0  0  0  0  0  0  0  0  0  0
  -28.7318  -21.9306   17.5198 C   0  0  0  0  0  0  0  0  0  0  0  0
  -28.0534  -24.1987   17.0958 C   0  0  0  0  0  0  0  0  0  0  0  0
  -23.3275   -8.6638   22.1591 C   0  0  0  0  0  0  0  0  0  0  0  0
  -27.1337  -14.1008   20.0173 C   0  0  0  0  0  0  0  0  0  0  0  0
  -29.1976  -15.5982   20.0938 C   0  0  0  0  0  0  0  0  0  0  0  0
  -19.4609  -22.5566   21.1474 C   0  0  0  0  0  0  0  0  0  0  0  0
  -24.7318  -26.5089   22.0248 C   0  0  0  0  0  0  0  0  0  0  0  0
  -20.5827  -23.2453   20.6479 C   0  0  0  0  0  0  0  0  0  0  0  0
  -25.0870  -27.5027   21.1015 C   0  0  0  0  0  0  0  0  0  0  0  0
  -27.8179  -22.8327   16.9867 C   0  0  0  0  0  0  0  0  0  0  0  0
  -25.8177  -11.6620   19.6958 C   0  0  0  0  0  0  0  0  0  0  0  0
  -27.1806  -26.3424   20.6767 C   0  0  0  0  0  0  0  0  0  0  0  0
  -24.1931  -10.1446   20.4576 C   0  0  0  0  0  0  0  0  0  0  0  0
  -22.2125   -9.4884   22.3094 C   0  0  0  0  0  0  0  0  0  0  0  0
  -24.3178   -8.9920   21.2332 C   0  0  0  0  0  0  0  0  0  0  0  0
  -27.8129  -15.3607   20.1828 C   0  0  0  0  0  0  0  0  0  0  0  0
  -29.8566  -22.4413   18.1474 C   0  0  0  0  0  0  0  0  0  0  0  0
  -29.2085  -24.6079   17.7426 C   0  0  0  0  0  0  0  0  0  0  0  0
  -29.3307  -16.9451   20.3273 C   0  0  0  0  0  0  0  0  0  0  0  0
  -30.2679  -14.6830   19.8242 C   0  0  0  0  0  0  0  0  0  0  0  0
  -21.7710  -26.7356   20.8907 C   0  0  0  0  0  0  0  0  0  0  0  0
  -22.1322  -29.8657   21.6617 C   0  0  0  0  0  0  0  0  0  0  0  0
  -24.2457  -32.4840   22.2313 C   0  0  0  0  0  0  0  0  0  0  0  0
  -25.6128  -21.5886   19.6448 C   0  0  0  0  0  0  0  0  0  0  0  0
  -18.1004  -23.2035   21.2199 C   0  0  0  0  0  0  0  0  0  0  0  0
  -23.4344  -26.5998   22.7803 C   0  0  0  0  0  0  0  0  0  0  0  0
  -24.1827  -28.6703   20.8061 C   0  0  0  0  0  0  0  0  0  0  0  0
  -18.1451  -24.7270   21.1350 C   0  0  0  0  0  0  0  0  0  0  0  0
  -27.2358  -20.5686   22.6451 C   0  0  0  0  0  0  0  0  0  0  0  0
  -19.0614  -25.1717   19.9995 C   0  0  0  0  0  0  0  0  0  0  0  0
  -27.6927  -19.1397   22.3462 C   0  0  0  0  0  0  0  0  0  0  0  0
  -25.8855  -20.8757   22.0014 C   0  0  0  0  0  0  0  0  0  0  0  0
  -26.2727  -19.1822   20.2533 C   0  0  0  0  0  0  0  0  0  0  0  0
  -20.5010  -24.6989   20.2350 C   0  0  1  0  0  0  0  0  0  0  0  0
  -22.3843  -27.4443   22.0651 C   0  0  1  0  0  0  0  0  0  0  0  0
  -27.6560  -18.8438   20.8348 C   0  0  2  0  0  0  0  0  0  0  0  0
  -30.8598  -21.5027   18.7299 C   0  0  0  0  0  0  0  0  0  0  0  0
  -29.6657  -26.7537   16.5104 C   0  0  0  0  0  0  0  0  0  0  0  0
  -24.2454  -34.9272   22.8042 C   0  0  0  0  0  0  0  0  0  0  0  0
  -21.3278  -30.5353   18.7955 C   0  0  0  0  0  0  0  0  0  0  0  0
  -22.2494  -32.8362   19.1483 C   0  0  0  0  0  0  0  0  0  0  0  0
  -20.3367  -32.0346   20.5346 C   0  0  0  0  0  0  0  0  0  0  0  0
  -25.7351  -32.0134   24.7450 C   0  0  0  0  0  0  0  0  0  0  0  0
  -26.5907  -22.3372   16.2996 C   0  0  0  0  0  0  0  0  0  0  0  0
  -25.3921  -22.1549   17.2386 C   0  0  0  0  0  0  0  0  0  0  0  0
  -28.4184  -26.8149   18.7018 C   0  0  0  0  0  0  0  0  0  1  0  0
  -29.4975  -26.0943   17.8821 C   0  0  1  0  0  0  0  0  0  0  0  0
  -22.6461  -31.0909   20.9448 C   0  0  1  0  0  0  0  0  0  0  0  0
  -24.3012  -33.5087   23.3499 C   0  0  2  0  0  0  0  0  0  0  0  0
  -21.6564  -31.6013   19.8597 C   0  0  0  0  0  0  0  0  0  0  0  0
  -27.1161  -16.4680   20.4519 N   0  0  0  0  0  0  0  0  0  0  0  0
  -30.1194  -23.7614   18.2730 N   0  0  0  0  0  0  0  0  0  0  0  0
  -28.0669  -17.4142   20.5342 N   0  0  0  0  0  0  0  0  0  0  0  0
  -22.9223  -28.7114   21.5658 N   0  0  0  0  0  0  0  0  0  0  0  0
  -25.9182  -20.5751   20.5681 N   0  0  0  0  0  0  0  0  0  0  0  0
  -30.4044  -17.7621   20.3738 N   0  0  0  0  0  0  0  0  0  0  0  0
  -29.9549  -13.3341   19.6075 N   0  0  0  0  0  0  0  0  0  0  0  0
  -21.1559  -25.5410   21.2130 N   0  0  0  0  0  0  0  0  0  0  0  0
  -22.9543  -32.0707   21.9809 N   0  0  0  0  0  0  0  0  0  0  0  0
  -25.6735  -21.2211   18.3061 N   0  0  0  0  0  0  0  0  0  0  0  0
  -25.5609  -33.3550   24.1312 N   0  3  0  0  0  0  0  0  0  0  0  0
  -31.4677  -15.0475   19.7931 O   0  0  0  0  0  0  0  0  0  0  0  0
  -21.8488  -27.2363   19.7749 O   0  0  0  0  0  0  0  0  0  0  0  0
  -21.0725  -29.9324   22.2896 O   0  0  0  0  0  0  0  0  0  0  0  0
  -25.2473  -32.0923   21.6364 O   0  0  0  0  0  0  0  0  0  0  0  0
  -25.3136  -22.7374   19.9879 O   0  0  0  0  0  0  0  0  0  0  0  0
  -25.1758  -10.4722   19.5386 O   0  0  0  0  0  0  0  0  0  0  0  0
  -28.3678  -26.2622   20.0164 O   0  0  0  0  0  0  0  0  0  1  0  0
  -21.2622   -9.1743   23.1995 F   0  0  0  0  0  0  0  0  0  0  0  0
  -25.3873   -8.1965   21.0940 F   0  0  0  0  0  0  0  0  0  0  0  0
  1  2  1  0  0  0  0
  1  5  2  0  0  0  0
  2  6  2  0  0  0  0
  3  8  2  0  0  0  0
  3 17  1  0  0  0  0
  4  9  1  0  0  0  0
  4 17  2  0  0  0  0
  5 19  1  0  0  0  0
  6 21  1  0  0  0  0
  7 10  2  0  0  0  0
  7 20  1  0  0  0  0
  8 24  1  0  0  0  0
  9 24  2  0  0  0  0
 10 25  1  0  0  0  0
 11 12  2  0  0  0  0
 11 26  1  0  0  0  0
 12 27  1  0  0  0  0
 13 22  1  0  0  0  0
 13 25  2  0  0  0  0
 14 23  1  0  0  0  0
 14 30  2  0  0  0  0
 15 23  2  0  0  0  0
 15 31  1  0  0  0  0
 16 27  2  0  0  0  0
 16 28  1  0  0  0  0
 17 29  1  0  0  0  0
 18 29  1  0  0  0  0
 18 32  2  0  0  0  0
 18 33  1  0  0  0  0
 19 21  2  0  0  0  0
 19 38  1  0  0  0  0
 20 22  2  0  0  0  0
 20 39  1  0  0  0  0
 21 47  1  0  0  0  0
 22 40  1  0  0  0  0
 23 57  1  0  0  0  0
 24 80  1  0  0  0  0
 25 81  1  0  0  0  0
 26 28  2  0  0  0  0
 26 80  1  0  0  0  0
 27 82  1  0  0  0  0
 28 83  1  0  0  0  0
 29 64  2  0  0  0  0
 30 50  1  0  0  0  0
 30 65  1  0  0  0  0
 31 60  1  0  0  0  0
 31 65  2  0  0  0  0
 32 66  1  0  0  0  0
 32 69  1  0  0  0  0
 33 70  1  0  0  0  0
 33 75  2  0  0  0  0
 34 48  1  0  0  0  0
 34 71  1  0  0  0  0
 34 76  2  0  0  0  0
 35 61  1  0  0  0  0
 35 67  1  0  0  0  0
 35 77  2  0  0  0  0
 36 62  1  0  0  0  0
 36 72  1  0  0  0  0
 36 78  2  0  0  0  0
 37 68  1  0  0  0  0
 37 73  1  0  0  0  0
 37 79  2  0  0  0  0
 38 41  1  0  0  0  0
 39 48  1  0  0  0  0
 40 67  1  0  0  0  0
 41 43  1  0  0  0  0
 42 44  1  0  0  0  0
 42 45  1  0  0  0  0
 43 47  1  0  0  0  0
 44 49  1  0  0  0  0
 45 68  1  0  0  0  0
 46 49  1  0  0  0  0
 46 68  1  0  0  0  0
 47 71  1  0  0  0  0
 48 67  1  0  0  0  0
 49 66  1  0  0  0  0
 51 60  1  0  0  0  0
 52 62  1  0  0  0  0
 53 63  1  0  0  0  0
 54 63  1  0  0  0  0
 55 63  1  0  0  0  0
 56 74  1  0  0  0  0
 57 58  1  0  0  0  0
 58 73  1  0  0  0  0
 59 60  1  0  0  0  0
 59 81  1  0  0  0  0
 61 63  1  0  0  0  0
 61 72  1  0  0  0  0
 62 74  1  0  0  0  0
 64 66  1  0  0  0  0
M  CHG  1  74   1
M  ISO  4  37 100  59 101  73 100  81 101
M  END
> <Batch ID>
0088

> <Smiles>
CNC(C)C(=O)NC(C(=O)N1Cc2cc([101O:1][101CH2:1]C(C)c3cc(CC[100NH:0][100C:0](=O)N4CCCC(n5nc(-c6ccc(Oc7ccc(F)cc7F)cc6)c(C(N)=O)c5N)C4)cc(C)n3)ccc2CC1C(=O)NC1CCCc2ccccc21)C(C)(C)C

> <Shape>
0.226

> <Color>
0.079

> <Negative vol penalty>
0.000

$$$$

  -OEChem-04052319043D

 85 93  0     1  0  0  0  0  0999 V2000
  -27.0291  -36.1943   19.2905 C   0  0  0  0  0  0  0  0  0  0  0  0
  -27.8569  -35.1050   19.5427 C   0  0  0  0  0  0  0  0  0  0  0  0
  -24.4949   -9.6773   21.5487 C   0  0  0  0  0  0  0  0  0  0  0  0
  -24.8119  -10.8185   23.6545 C   0  0  0  0  0  0  0  0  0  0  0  0
  -25.7152  -36.1926   19.7572 C   0  0  0  0  0  0  0  0  0  0  0  0
  -27.3716  -34.0138   20.2626 C   0  0  0  0  0  0  0  0  0  0  0  0
  -28.8291  -28.1219   19.4457 C   0  0  0  0  0  0  0  0  0  0  0  0
  -24.1664   -8.5068   22.2325 C   0  0  0  0  0  0  0  0  0  0  0  0
  -24.4834   -9.6480   24.3383 C   0  0  0  0  0  0  0  0  0  0  0  0
  -29.7248  -27.2777   20.1005 C   0  0  0  0  0  0  0  0  0  0  0  0
  -22.8934   -5.3166   23.4230 C   0  0  0  0  0  0  0  0  0  0  0  0
  -21.7861   -4.5946   22.9779 C   0  0  0  0  0  0  0  0  0  0  0  0
  -27.9279  -26.4533   21.4827 C   0  0  0  0  0  0  0  0  0  0  0  0
  -20.3710   -6.5079   23.3944 C   0  0  0  0  0  0  0  0  0  0  0  0
  -27.9867  -21.4301   20.7404 C   0  0  0  0  0  0  0  0  0  0  0  0
  -29.6708  -20.0746   20.1565 C   0  0  0  0  0  0  0  0  0  0  0  0
  -24.8177  -10.8332   22.2597 C   0  0  0  0  0  0  0  0  0  0  0  0
  -24.2778  -13.0587   21.1359 C   0  0  0  0  0  0  0  0  0  0  0  0
  -25.2107  -35.0967   20.4749 C   0  0  0  0  0  0  0  0  0  0  0  0
  -27.4759  -28.1461   19.8124 C   0  0  0  0  0  0  0  0  0  0  0  0
  -26.0502  -33.9981   20.7404 C   0  0  0  0  0  0  0  0  0  0  0  0
  -27.0166  -27.2968   20.8292 C   0  0  0  0  0  0  0  0  0  0  0  0
  -27.5794  -20.1378   20.9882 C   0  0  0  0  0  0  0  0  0  0  0  0
  -28.6448  -19.2802   20.6187 C   0  0  0  0  0  0  0  0  0  0  0  0
  -24.1606   -8.4921   23.6273 C   0  0  0  0  0  0  0  0  0  0  0  0
  -29.2748  -26.4454   21.1212 C   0  0  0  0  0  0  0  0  0  0  0  0
  -22.7395   -6.6344   23.8539 C   0  0  0  0  0  0  0  0  0  0  0  0
  -20.5249   -5.1902   22.9635 C   0  0  0  0  0  0  0  0  0  0  0  0
  -21.4783   -7.2300   23.8395 C   0  0  0  0  0  0  0  0  0  0  0  0
  -25.1577  -12.0425   21.5540 C   0  0  0  0  0  0  0  0  0  0  0  0
  -25.0866  -13.9797   20.5161 C   0  0  0  0  0  0  0  0  0  0  0  0
  -22.8565  -13.1612   21.2939 C   0  0  0  0  0  0  0  0  0  0  0  0
  -25.5079  -30.3511   20.9823 C   0  0  0  0  0  0  0  0  0  0  0  0
  -23.2768  -28.0404   20.5296 C   0  0  0  0  0  0  0  0  0  0  0  0
  -22.5713  -24.7163   20.2144 C   0  0  0  0  0  0  0  0  0  0  0  0
  -29.7406  -17.0305   20.3282 C   0  0  0  0  0  0  0  0  0  0  0  0
  -23.7982  -35.1609   20.9998 C   0  0  0  0  0  0  0  0  0  0  0  0
  -26.5174  -29.0430   19.0781 C   0  0  0  0  0  0  0  0  0  0  0  0
  -25.5698  -27.2701   21.2469 C   0  0  0  0  0  0  0  0  0  0  0  0
  -23.2468  -33.8047   21.4319 C   0  0  0  0  0  0  0  0  0  0  0  0
  -29.9434  -13.6873   19.1203 C   0  0  0  0  0  0  0  0  0  0  0  0
  -24.2680  -33.0609   22.2868 C   0  0  0  0  0  0  0  0  0  0  0  0
  -28.6440  -13.0450   19.6114 C   0  0  0  0  0  0  0  0  0  0  0  0
  -30.5086  -14.6747   20.1398 C   0  0  0  0  0  0  0  0  0  0  0  0
  -28.2670  -15.0630   21.0853 C   0  0  0  0  0  0  0  0  0  0  0  0
  -25.5528  -32.7852   21.4964 C   0  0  1  0  0  0  0  0  0  0  0  0
  -25.2596  -29.3588   19.8817 C   0  0  1  0  0  0  0  0  0  0  0  0
  -27.6254  -14.1092   20.0644 C   0  0  2  0  0  0  0  0  0  0  0  0
  -25.0732  -19.4952   19.2822 C   0  0  0  0  0  0  0  0  0  0  0  0
  -26.0514  -20.2739   22.9725 C   0  0  0  0  0  0  0  0  0  0  0  0
  -20.6523  -23.1318   19.8916 C   0  0  0  0  0  0  0  0  0  0  0  0
  -31.8964  -23.7075   23.1106 C   0  0  0  0  0  0  0  0  0  0  0  0
  -22.4860  -28.4061   23.4538 C   0  0  0  0  0  0  0  0  0  0  0  0
  -21.2817  -26.2146   23.3298 C   0  0  0  0  0  0  0  0  0  0  0  0
  -20.5630  -28.1145   21.8817 C   0  0  0  0  0  0  0  0  0  0  0  0
  -23.6752  -23.7174   17.6566 C   0  0  0  0  0  0  0  0  0  0  0  0
  -25.0453  -20.1439   20.6609 C   0  0  0  0  0  0  0  0  0  0  0  0
  -31.1842  -22.9465   20.8301 C   0  0  0  0  0  0  0  0  0  0  0  0
  -30.0817  -22.5768   19.8281 C   0  0  0  0  0  0  0  0  0  0  0  0
  -29.6252  -24.3959   22.2756 C   0  0  0  0  0  0  0  0  0  1  0  0
  -26.2689  -19.7347   21.5368 C   0  0  1  0  0  0  0  0  0  0  0  0
  -22.7244  -26.9096   21.3635 C   0  0  1  0  0  0  0  0  0  0  0  0
  -21.7299  -23.9564   19.2049 C   0  0  2  0  0  0  0  0  0  0  0  0
  -30.6935  -23.2944   22.2528 C   0  0  2  0  0  0  0  0  0  0  0  0
  -21.7915  -27.4129   22.5009 C   0  0  0  0  0  0  0  0  0  0  0  0
  -26.4282  -12.2937   21.2271 N   0  0  0  0  0  0  0  0  0  0  0  0
  -29.2597  -21.3795   20.2353 N   0  0  0  0  0  0  0  0  0  0  0  0
  -26.3525  -13.4784   20.5970 N   0  0  0  0  0  0  0  0  0  0  0  0
  -24.6726  -28.1699   20.5032 N   0  0  0  0  0  0  0  0  0  0  0  0
  -29.4890  -15.6553   20.5190 N   0  0  0  0  0  0  0  0  0  0  0  0
  -24.8314  -15.1612   19.9150 N   0  0  0  0  0  0  0  0  0  0  0  0
  -22.1814  -12.1264   21.9555 N   0  0  0  0  0  0  0  0  0  0  0  0
  -28.6860  -17.8659   20.6950 N   0  0  0  0  0  0  0  0  0  0  0  0
  -25.3619  -31.6694   20.5947 N   0  0  0  0  0  0  0  0  0  0  0  0
  -22.0853  -25.9885   20.4299 N   0  0  0  0  0  0  0  0  0  0  0  0
  -22.5866  -23.0368   18.4041 N   0  3  0  0  0  0  0  0  0  0  0  0
  -22.2022  -14.1336   20.8467 O   0  0  0  0  0  0  0  0  0  0  0  0
  -25.8083  -29.9504   22.1007 O   0  0  0  0  0  0  0  0  0  0  0  0
  -22.4988  -28.7771   19.9184 O   0  0  0  0  0  0  0  0  0  0  0  0
  -23.5586  -24.2286   20.7603 O   0  0  0  0  0  0  0  0  0  0  0  0
  -30.8023  -17.4355   19.8477 O   0  0  0  0  0  0  0  0  0  0  0  0
  -23.8399   -7.3501   24.2948 O   0  0  0  0  0  0  0  0  0  0  0  0
  -30.1471  -25.6209   21.7624 O   0  0  0  0  0  0  0  0  0  1  0  0
  -19.4620   -4.4972   22.5346 F   0  0  0  0  0  0  0  0  0  0  0  0
  -21.3244   -8.4960   24.2511 F   0  0  0  0  0  0  0  0  0  0  0  0
  1  2  1  0  0  0  0
  1  5  2  0  0  0  0
  2  6  2  0  0  0  0
  3  8  2  0  0  0  0
  3 17  1  0  0  0  0
  4  9  1  0  0  0  0
  4 17  2  0  0  0  0
  5 19  1  0  0  0  0
  6 21  1  0  0  0  0
  7 10  2  0  0  0  0
  7 20  1  0  0  0  0
  8 25  1  0  0  0  0
  9 25  2  0  0  0  0
 10 26  1  0  0  0  0
 11 12  2  0  0  0  0
 11 27  1  0  0  0  0
 12 28  1  0  0  0  0
 13 22  1  0  0  0  0
 13 26  2  0  0  0  0
 14 28  2  0  0  0  0
 14 29  1  0  0  0  0
 15 23  2  0  0  0  0
 15 67  1  0  0  0  0
 16 24  2  0  0  0  0
 16 67  1  0  0  0  0
 17 30  1  0  0  0  0
 18 30  1  0  0  0  0
 18 31  2  0  0  0  0
 18 32  1  0  0  0  0
 19 21  2  0  0  0  0
 19 37  1  0  0  0  0
 20 22  2  0  0  0  0
 20 38  1  0  0  0  0
 21 46  1  0  0  0  0
 22 39  1  0  0  0  0
 23 24  1  0  0  0  0
 23 61  1  0  0  0  0
 24 73  1  0  0  0  0
 25 82  1  0  0  0  0
 26 83  1  0  0  0  0
 27 29  2  0  0  0  0
 27 82  1  0  0  0  0
 28 84  1  0  0  0  0
 29 85  1  0  0  0  0
 30 66  2  0  0  0  0
 31 68  1  0  0  0  0
 31 71  1  0  0  0  0
 32 72  1  0  0  0  0
 32 77  2  0  0  0  0
 33 47  1  0  0  0  0
 33 74  1  0  0  0  0
 33 78  2  0  0  0  0
 34 62  1  0  0  0  0
 34 69  1  0  0  0  0
 34 79  2  0  0  0  0
 35 63  1  0  0  0  0
 35 75  1  0  0  0  0
 35 80  2  0  0  0  0
 36 70  1  0  0  0  0
 36 73  1  0  0  0  0
 36 81  2  0  0  0  0
 37 40  1  0  0  0  0
 38 47  1  0  0  0  0
 39 69  1  0  0  0  0
 40 42  1  0  0  0  0
 41 43  1  0  0  0  0
 41 44  1  0  0  0  0
 42 46  1  0  0  0  0
 43 48  1  0  0  0  0
 44 70  1  0  0  0  0
 45 48  1  0  0  0  0
 45 70  1  0  0  0  0
 46 74  1  0  0  0  0
 47 69  1  0  0  0  0
 48 68  1  0  0  0  0
 49 57  1  0  0  0  0
 50 61  1  0  0  0  0
 51 63  1  0  0  0  0
 52 64  1  0  0  0  0
 53 65  1  0  0  0  0
 54 65  1  0  0  0  0
 55 65  1  0  0  0  0
 56 76  1  0  0  0  0
 57 61  1  0  0  0  0
 58 59  1  0  0  0  0
 58 64  1  0  0  0  0
 59 67  1  0  0  0  0
 60 64  1  0  0  0  0
 60 83  1  0  0  0  0
 62 65  1  0  0  0  0
 62 75  1  0  0  0  0
 63 76  1  0  0  0  0
 66 68  1  0  0  0  0
M  CHG  1  76   1
M  ISO  4  36 100  60 101  73 100  83 101
M  END
> <Batch ID>
0088

> <Smiles>
CCC(C)c1cn(CCC(C)[101CH2:1][101O:1]c2ccc3c(c2)CN(C(=O)C(NC(=O)C(C)NC)C(C)(C)C)C(C(=O)NC2CCCc4ccccc42)C3)cc1[100NH:0][100C:0](=O)N1CCCC(n2nc(-c3ccc(Oc4ccc(F)cc4F)cc3)c(C(N)=O)c2N)C1

> <Shape>
0.285

> <Color>
0.118

> <Negative vol penalty>
0.000

$$$$

  -OEChem-04052319043D

 86 94  0     1  0  0  0  0  0999 V2000
  -16.8587  -25.1459   19.9259 C   0  0  0  0  0  0  0  0  0  0  0  0
  -17.7302  -24.0615   19.9373 C   0  0  0  0  0  0  0  0  0  0  0  0
  -27.5531  -23.6088   21.2168 C   0  0  0  0  0  0  0  0  0  0  0  0
  -28.3506  -23.1906   18.9749 C   0  0  0  0  0  0  0  0  0  0  0  0
  -17.1808  -26.3051   20.6304 C   0  0  0  0  0  0  0  0  0  0  0  0
  -18.9249  -24.1362   20.6524 C   0  0  0  0  0  0  0  0  0  0  0  0
  -19.8323  -19.9549   23.3612 C   0  0  0  0  0  0  0  0  0  0  0  0
  -27.7160  -24.9799   21.0190 C   0  0  0  0  0  0  0  0  0  0  0  0
  -28.5135  -24.5618   18.7771 C   0  0  0  0  0  0  0  0  0  0  0  0
  -20.3214  -18.8447   22.6741 C   0  0  0  0  0  0  0  0  0  0  0  0
  -26.0545  -27.4889   19.4772 C   0  0  0  0  0  0  0  0  0  0  0  0
  -25.0230  -28.3308   19.8927 C   0  0  0  0  0  0  0  0  0  0  0  0
  -22.5526  -19.3698   23.4260 C   0  0  0  0  0  0  0  0  0  0  0  0
  -23.6306  -12.6872   20.0144 C   0  0  0  0  0  0  0  0  0  0  0  0
  -25.2288  -13.8515   21.4025 C   0  0  0  0  0  0  0  0  0  0  0  0
  -26.5458  -29.4559   21.3935 C   0  0  0  0  0  0  0  0  0  0  0  0
  -27.8705  -22.7141   20.1947 C   0  0  0  0  0  0  0  0  0  0  0  0
  -26.5530  -20.5306   20.1324 C   0  0  0  0  0  0  0  0  0  0  0  0
  -18.3756  -26.3904   21.3625 C   0  0  0  0  0  0  0  0  0  0  0  0
  -20.7027  -20.7884   24.0782 C   0  0  0  0  0  0  0  0  0  0  0  0
  -19.2640  -25.2982   21.3663 C   0  0  0  0  0  0  0  0  0  0  0  0
  -22.0716  -20.4884   24.1235 C   0  0  0  0  0  0  0  0  0  0  0  0
  -24.0195  -13.8334   20.7076 C   0  0  0  0  0  0  0  0  0  0  0  0
  -24.4510  -11.5590   20.0161 C   0  0  0  0  0  0  0  0  0  0  0  0
  -26.0492  -12.7233   21.4043 C   0  0  0  0  0  0  0  0  0  0  0  0
  -25.6603  -11.5771   20.7110 C   0  0  0  0  0  0  0  0  0  0  0  0
  -28.1961  -25.4564   19.7992 C   0  0  0  0  0  0  0  0  0  0  0  0
  -21.6821  -18.5537   22.7040 C   0  0  0  0  0  0  0  0  0  0  0  0
  -27.3317  -27.6304   20.0199 C   0  0  0  0  0  0  0  0  0  0  0  0
  -25.2686  -29.3143   20.8508 C   0  0  0  0  0  0  0  0  0  0  0  0
  -27.5773  -28.6139   20.9780 C   0  0  0  0  0  0  0  0  0  0  0  0
  -27.7030  -21.2976   20.3987 C   0  0  0  0  0  0  0  0  0  0  0  0
  -26.9017  -19.2522   20.4940 C   0  0  0  0  0  0  0  0  0  0  0  0
  -25.2832  -20.9372   19.6053 C   0  0  0  0  0  0  0  0  0  0  0  0
  -21.5409  -23.8488   23.8898 C   0  0  0  0  0  0  0  0  0  0  0  0
  -23.1482  -23.1737   26.6253 C   0  0  0  0  0  0  0  0  0  0  0  0
  -24.6330  -20.8272   28.6093 C   0  0  0  0  0  0  0  0  0  0  0  0
  -30.8714  -15.1995   20.1275 C   0  0  0  0  0  0  0  0  0  0  0  0
  -18.7028  -27.6816   22.0699 C   0  0  0  0  0  0  0  0  0  0  0  0
  -20.1556  -21.9669   24.8361 C   0  0  0  0  0  0  0  0  0  0  0  0
  -23.0450  -21.3402   24.8953 C   0  0  0  0  0  0  0  0  0  0  0  0
  -19.8127  -27.5427   23.1086 C   0  0  0  0  0  0  0  0  0  0  0  0
  -30.9060  -17.5036   23.0244 C   0  0  0  0  0  0  0  0  0  0  0  0
  -20.9852  -26.7535   22.5348 C   0  0  0  0  0  0  0  0  0  0  0  0
  -30.0363  -18.6620   22.5390 C   0  0  0  0  0  0  0  0  0  0  0  0
  -31.5999  -16.7917   21.8671 C   0  0  0  0  0  0  0  0  0  0  0  0
  -29.8004  -17.4820   20.3181 C   0  0  0  0  0  0  0  0  0  0  0  0
  -20.5578  -25.3318   22.1505 C   0  0  1  0  0  0  0  0  0  0  0  0
  -21.2046  -23.0399   25.1106 C   0  0  1  0  0  0  0  0  0  0  0  0
  -29.0504  -18.1914   21.4555 C   0  0  2  0  0  0  0  0  0  0  0  0
  -24.0068  -10.3456   19.2655 C   0  0  0  0  0  0  0  0  0  0  0  0
  -25.8952  -20.5832   30.7645 C   0  0  0  0  0  0  0  0  0  0  0  0
  -25.6489  -24.2962   25.2852 C   0  0  0  0  0  0  0  0  0  0  0  0
  -27.0168  -23.1788   27.0597 C   0  0  0  0  0  0  0  0  0  0  0  0
  -25.3702  -24.9456   27.6841 C   0  0  0  0  0  0  0  0  0  0  0  0
  -29.8491  -13.6978   18.4604 C   0  0  0  0  0  0  0  0  0  0  0  0
  -22.5569  -19.0592   29.7595 C   0  0  0  0  0  0  0  0  0  0  0  0
  -23.1326  -15.0528   20.7049 C   0  0  0  0  0  0  0  0  0  0  0  0
  -27.3387  -12.7718   22.1579 C   0  0  0  0  0  0  0  0  0  0  0  0
  -22.1184  -15.0793   21.8504 C   0  0  0  0  0  0  0  0  0  0  0  0
  -28.5799  -13.0118   21.2780 C   0  0  0  0  0  0  0  0  0  0  0  0
  -28.5300  -14.2983   20.4566 C   0  0  0  0  0  0  0  0  0  0  0  0
  -21.2849  -16.3549   21.8896 C   0  0  0  0  0  0  0  0  0  1  0  0
  -24.5338  -22.6737   26.9555 C   0  0  1  0  0  0  0  0  0  0  0  0
  -24.5279  -20.5554   30.0991 C   0  0  2  0  0  0  0  0  0  0  0  0
  -25.6246  -23.7585   26.7299 C   0  0  0  0  0  0  0  0  0  0  0  0
  -28.7071  -20.5676   20.8915 N   0  0  0  0  0  0  0  0  0  0  0  0
  -28.1890  -19.3284   20.9379 N   0  0  0  0  0  0  0  0  0  0  0  0
  -22.4624  -22.4849   25.6148 N   0  0  0  0  0  0  0  0  0  0  0  0
  -30.6454  -16.3936   20.8318 N   0  0  0  0  0  0  0  0  0  0  0  0
  -26.4916  -10.4332   20.7131 N   0  0  0  0  0  0  0  0  0  0  0  0
  -26.2295  -18.0817   20.4725 N   0  0  0  0  0  0  0  0  0  0  0  0
  -25.0939  -22.2889   19.2867 N   0  0  0  0  0  0  0  0  0  0  0  0
  -20.4575  -24.4982   23.3293 N   0  0  0  0  0  0  0  0  0  0  0  0
  -24.4697  -22.1658   28.3217 N   0  0  0  0  0  0  0  0  0  0  0  0
  -29.7424  -14.5049   19.6675 N   0  0  0  0  0  0  0  0  0  0  0  0
  -23.9152  -19.2184   30.3397 N   0  3  0  0  0  0  0  0  0  0  0  0
  -24.3387  -20.1289   19.4377 O   0  0  0  0  0  0  0  0  0  0  0  0
  -22.6977  -23.8825   23.4871 O   0  0  0  0  0  0  0  0  0  0  0  0
  -22.6883  -24.1353   27.2462 O   0  0  0  0  0  0  0  0  0  0  0  0
  -24.8430  -19.9413   27.7837 O   0  0  0  0  0  0  0  0  0  0  0  0
  -32.0165  -14.7734   19.9300 O   0  0  0  0  0  0  0  0  0  0  0  0
  -28.3550  -26.7943   19.6057 O   0  0  0  0  0  0  0  0  0  0  0  0
  -22.1622  -17.4711   22.0337 O   0  0  0  0  0  0  0  0  0  1  0  0
  -24.2783  -30.1238   21.2486 F   0  0  0  0  0  0  0  0  0  0  0  0
  -28.8025  -28.7555   21.5021 F   0  0  0  0  0  0  0  0  0  0  0  0
  1  2  1  0  0  0  0
  1  5  2  0  0  0  0
  2  6  2  0  0  0  0
  3  8  2  0  0  0  0
  3 17  1  0  0  0  0
  4  9  1  0  0  0  0
  4 17  2  0  0  0  0
  5 19  1  0  0  0  0
  6 21  1  0  0  0  0
  7 10  2  0  0  0  0
  7 20  1  0  0  0  0
  8 27  1  0  0  0  0
  9 27  2  0  0  0  0
 10 28  1  0  0  0  0
 11 12  2  0  0  0  0
 11 29  1  0  0  0  0
 12 30  1  0  0  0  0
 13 22  1  0  0  0  0
 13 28  2  0  0  0  0
 14 23  1  0  0  0  0
 14 24  2  0  0  0  0
 15 23  2  0  0  0  0
 15 25  1  0  0  0  0
 16 30  2  0  0  0  0
 16 31  1  0  0  0  0
 17 32  1  0  0  0  0
 18 32  1  0  0  0  0
 18 33  2  0  0  0  0
 18 34  1  0  0  0  0
 19 21  2  0  0  0  0
 19 39  1  0  0  0  0
 20 22  2  0  0  0  0
 20 40  1  0  0  0  0
 21 48  1  0  0  0  0
 22 41  1  0  0  0  0
 23 58  1  0  0  0  0
 24 26  1  0  0  0  0
 24 51  1  0  0  0  0
 25 26  2  0  0  0  0
 25 59  1  0  0  0  0
 26 71  1  0  0  0  0
 27 83  1  0  0  0  0
 28 84  1  0  0  0  0
 29 31  2  0  0  0  0
 29 83  1  0  0  0  0
 30 85  1  0  0  0  0
 31 86  1  0  0  0  0
 32 67  2  0  0  0  0
 33 68  1  0  0  0  0
 33 72  1  0  0  0  0
 34 73  1  0  0  0  0
 34 78  2  0  0  0  0
 35 49  1  0  0  0  0
 35 74  1  0  0  0  0
 35 79  2  0  0  0  0
 36 64  1  0  0  0  0
 36 69  1  0  0  0  0
 36 80  2  0  0  0  0
 37 65  1  0  0  0  0
 37 75  1  0  0  0  0
 37 81  2  0  0  0  0
 38 70  1  0  0  0  0
 38 76  1  0  0  0  0
 38 82  2  0  0  0  0
 39 42  1  0  0  0  0
 40 49  1  0  0  0  0
 41 69  1  0  0  0  0
 42 44  1  0  0  0  0
 43 45  1  0  0  0  0
 43 46  1  0  0  0  0
 44 48  1  0  0  0  0
 45 50  1  0  0  0  0
 46 70  1  0  0  0  0
 47 50  1  0  0  0  0
 47 70  1  0  0  0  0
 48 74  1  0  0  0  0
 49 69  1  0  0  0  0
 50 68  1  0  0  0  0
 52 65  1  0  0  0  0
 53 66  1  0  0  0  0
 54 66  1  0  0  0  0
 55 66  1  0  0  0  0
 56 76  1  0  0  0  0
 57 77  1  0  0  0  0
 58 60  1  0  0  0  0
 59 61  1  0  0  0  0
 60 63  1  0  0  0  0
 61 62  1  0  0  0  0
 62 76  1  0  0  0  0
 63 84  1  0  0  0  0
 64 66  1  0  0  0  0
 64 75  1  0  0  0  0
 65 77  1  0  0  0  0
 67 68  1  0  0  0  0
M  CHG  1  77   1
M  ISO  4  38 100  63 101  76 100  84 101
M  END
> <Batch ID>
0088

> <Smiles>
CNC(C)C(=O)NC(C(=O)N1Cc2cc([101O:1][101CH2:1]CCc3cc(C)c(N)c(CCC[100N:0](C)[100C:0](=O)N4CCCC(n5nc(-c6ccc(Oc7ccc(F)cc7F)cc6)c(C(N)=O)c5N)C4)c3)ccc2CC1C(=O)NC1CCCc2ccccc21)C(C)(C)C

> <Shape>
0.218

> <Color>
0.079

> <Negative vol penalty>
0.000

$$$$

  -OEChem-04052319043D

 85 93  0     1  0  0  0  0  0999 V2000
  -22.9382  -18.0728   23.3163 C   0  0  0  0  0  0  0  0  0  0  0  0
  -24.0611  -18.8925   23.2652 C   0  0  0  0  0  0  0  0  0  0  0  0
  -26.1511  -12.9522   20.6832 C   0  0  0  0  0  0  0  0  0  0  0  0
  -24.3796  -14.4352   19.9763 C   0  0  0  0  0  0  0  0  0  0  0  0
  -21.7554  -18.4734   22.6962 C   0  0  0  0  0  0  0  0  0  0  0  0
  -24.0021  -20.1128   22.5930 C   0  0  0  0  0  0  0  0  0  0  0  0
  -26.8958  -25.2935   24.1074 C   0  0  0  0  0  0  0  0  0  0  0  0
  -25.2081  -12.0987   21.2557 C   0  0  0  0  0  0  0  0  0  0  0  0
  -23.4366  -13.5816   20.5488 C   0  0  0  0  0  0  0  0  0  0  0  0
  -28.0727  -25.8803   23.6443 C   0  0  0  0  0  0  0  0  0  0  0  0
  -23.2409   -9.3475   22.5885 C   0  0  0  0  0  0  0  0  0  0  0  0
  -23.3800   -7.9791   22.3573 C   0  0  0  0  0  0  0  0  0  0  0  0
  -26.7866  -27.2540   22.1349 C   0  0  0  0  0  0  0  0  0  0  0  0
  -28.9789  -25.1253   19.3686 C   0  0  0  0  0  0  0  0  0  0  0  0
  -23.1725   -8.3596   19.9804 C   0  0  0  0  0  0  0  0  0  0  0  0
  -25.7368  -14.1206   20.0435 C   0  0  0  0  0  0  0  0  0  0  0  0
  -27.2036  -14.9641   18.1344 C   0  0  0  0  0  0  0  0  0  0  0  0
  -21.6791  -19.7036   22.0244 C   0  0  0  0  0  0  0  0  0  0  0  0
  -25.6543  -25.6754   23.5790 C   0  0  0  0  0  0  0  0  0  0  0  0
  -22.8176  -20.5296   21.9623 C   0  0  0  0  0  0  0  0  0  0  0  0
  -25.5953  -26.6723   22.5947 C   0  0  0  0  0  0  0  0  0  0  0  0
  -30.3016  -25.5507   19.3157 C   0  0  0  0  0  0  0  0  0  0  0  0
  -31.2936  -24.6690   18.9010 C   0  0  0  0  0  0  0  0  0  0  0  0
  -23.8508  -12.4133   21.1885 C   0  0  0  0  0  0  0  0  0  0  0  0
  -28.0184  -26.8587   22.6559 C   0  0  0  0  0  0  0  0  0  0  0  0
  -23.0675  -10.2221   21.5157 C   0  0  0  0  0  0  0  0  0  0  0  0
  -23.3458   -7.4851   21.0532 C   0  0  0  0  0  0  0  0  0  0  0  0
  -23.0334   -9.7281   20.2117 C   0  0  0  0  0  0  0  0  0  0  0  0
  -26.7105  -15.0030   19.4524 C   0  0  0  0  0  0  0  0  0  0  0  0
  -28.7026  -23.8187   18.9994 C   0  0  0  0  0  0  0  0  0  0  0  0
  -30.9137  -23.3828   18.5528 C   0  0  0  0  0  0  0  0  0  0  0  0
  -28.0983  -16.0043   18.0717 C   0  0  0  0  0  0  0  0  0  0  0  0
  -26.8816  -14.0679   17.0626 C   0  0  0  0  0  0  0  0  0  0  0  0
  -23.3410  -24.1873   21.9860 C   0  0  0  0  0  0  0  0  0  0  0  0
  -21.7922  -27.0112   22.3717 C   0  0  0  0  0  0  0  0  0  0  0  0
  -21.9926  -30.3773   22.8973 C   0  0  0  0  0  0  0  0  0  0  0  0
  -28.6291  -21.1166   21.1432 C   0  0  0  0  0  0  0  0  0  0  0  0
  -20.3926  -20.0723   21.3289 C   0  0  0  0  0  0  0  0  0  0  0  0
  -24.3919  -25.0518   24.1082 C   0  0  0  0  0  0  0  0  0  0  0  0
  -24.2861  -27.1322   22.0092 C   0  0  0  0  0  0  0  0  0  0  0  0
  -20.3030  -21.5501   20.9572 C   0  0  0  0  0  0  0  0  0  0  0  0
  -31.0769  -18.5519   20.8156 C   0  0  0  0  0  0  0  0  0  0  0  0
  -21.5998  -22.0155   20.3025 C   0  0  0  0  0  0  0  0  0  0  0  0
  -30.2799  -17.3480   20.3101 C   0  0  0  0  0  0  0  0  0  0  0  0
  -30.2709  -19.3854   21.8094 C   0  0  0  0  0  0  0  0  0  0  0  0
  -28.1500  -18.6143   20.8189 C   0  0  0  0  0  0  0  0  0  0  0  0
  -22.7857  -21.8718   21.2640 C   0  0  1  0  0  0  0  0  0  0  0  0
  -23.2227  -25.1502   23.1333 C   0  0  1  0  0  0  0  0  0  0  0  0
  -28.9010  -17.7745   19.7715 C   0  0  2  0  0  0  0  0  0  0  0  0
  -32.7206  -25.0982   18.8319 C   0  0  0  0  0  0  0  0  0  0  0  0
  -31.9340  -22.3910   18.0981 C   0  0  0  0  0  0  0  0  0  0  0  0
  -27.0107  -22.2938   17.9334 C   0  0  0  0  0  0  0  0  0  0  0  0
  -20.5589  -32.4240   23.1270 C   0  0  0  0  0  0  0  0  0  0  0  0
  -21.3530  -27.0396   19.3524 C   0  0  0  0  0  0  0  0  0  0  0  0
  -20.7941  -29.4738   19.5267 C   0  0  0  0  0  0  0  0  0  0  0  0
  -19.3826  -27.7847   20.7002 C   0  0  0  0  0  0  0  0  0  0  0  0
  -22.9558  -30.8848   25.6493 C   0  0  0  0  0  0  0  0  0  0  0  0
  -30.6327  -26.9667   19.7144 C   0  0  0  0  0  0  0  0  0  0  0  0
  -31.2689  -27.0833   21.1012 C   0  0  0  0  0  0  0  0  0  0  0  0
  -26.8920  -22.7317   20.4131 C   0  0  0  0  0  0  0  0  0  0  0  0
  -30.3469  -26.6325   22.2283 C   0  0  0  0  0  0  0  0  0  1  0  0
  -27.2940  -23.3279   19.0426 C   0  0  1  0  0  0  0  0  0  0  0  0
  -21.6964  -28.2945   21.5824 C   0  0  1  0  0  0  0  0  0  0  0  0
  -21.2592  -31.2916   23.8619 C   0  0  2  0  0  0  0  0  0  0  0  0
  -20.8315  -28.1383   20.2999 C   0  0  0  0  0  0  0  0  0  0  0  0
  -27.2475  -15.9897   20.1750 N   0  0  0  0  0  0  0  0  0  0  0  0
  -29.6392  -22.9334   18.5914 N   0  0  0  0  0  0  0  0  0  0  0  0
  -28.0874  -16.5804   19.3079 N   0  0  0  0  0  0  0  0  0  0  0  0
  -23.0800  -26.4879   22.5550 N   0  0  0  0  0  0  0  0  0  0  0  0
  -28.9752  -19.7585   21.2367 N   0  0  0  0  0  0  0  0  0  0  0  0
  -28.8855  -16.4733   17.0803 N   0  0  0  0  0  0  0  0  0  0  0  0
  -25.9413  -13.0556   17.2978 N   0  0  0  0  0  0  0  0  0  0  0  0
  -22.7841  -22.9469   22.2328 N   0  0  0  0  0  0  0  0  0  0  0  0
  -21.2104  -29.3095   22.5109 N   0  0  0  0  0  0  0  0  0  0  0  0
  -27.3861  -21.3834   20.5823 N   0  0  0  0  0  0  0  0  0  0  0  0
  -22.2139  -31.8856   24.8400 N   0  3  0  0  0  0  0  0  0  0  0  0
  -27.4242  -14.1518   15.9347 O   0  0  0  0  0  0  0  0  0  0  0  0
  -23.8951  -24.5436   20.9527 O   0  0  0  0  0  0  0  0  0  0  0  0
  -20.7630  -26.4960   22.8155 O   0  0  0  0  0  0  0  0  0  0  0  0
  -23.1429  -30.5911   22.5210 O   0  0  0  0  0  0  0  0  0  0  0  0
  -29.3750  -22.0244   21.5259 O   0  0  0  0  0  0  0  0  0  0  0  0
  -22.9304  -11.5805   21.7468 O   0  0  0  0  0  0  0  0  0  0  0  0
  -29.1657  -27.4326   22.2017 O   0  0  0  0  0  0  0  0  0  1  0  0
  -23.4809   -6.1711   20.8312 F   0  0  0  0  0  0  0  0  0  0  0  0
  -22.8684  -10.5635   19.1769 F   0  0  0  0  0  0  0  0  0  0  0  0
  1  2  1  0  0  0  0
  1  5  2  0  0  0  0
  2  6  2  0  0  0  0
  3  8  2  0  0  0  0
  3 16  1  0  0  0  0
  4  9  1  0  0  0  0
  4 16  2  0  0  0  0
  5 18  1  0  0  0  0
  6 20  1  0  0  0  0
  7 10  2  0  0  0  0
  7 19  1  0  0  0  0
  8 24  1  0  0  0  0
  9 24  2  0  0  0  0
 10 25  1  0  0  0  0
 11 12  2  0  0  0  0
 11 26  1  0  0  0  0
 12 27  1  0  0  0  0
 13 21  1  0  0  0  0
 13 25  2  0  0  0  0
 14 22  1  0  0  0  0
 14 30  2  0  0  0  0
 15 27  2  0  0  0  0
 15 28  1  0  0  0  0
 16 29  1  0  0  0  0
 17 29  1  0  0  0  0
 17 32  2  0  0  0  0
 17 33  1  0  0  0  0
 18 20  2  0  0  0  0
 18 38  1  0  0  0  0
 19 21  2  0  0  0  0
 19 39  1  0  0  0  0
 20 47  1  0  0  0  0
 21 40  1  0  0  0  0
 22 23  2  0  0  0  0
 22 58  1  0  0  0  0
 23 31  1  0  0  0  0
 23 50  1  0  0  0  0
 24 82  1  0  0  0  0
 25 83  1  0  0  0  0
 26 28  2  0  0  0  0
 26 82  1  0  0  0  0
 27 84  1  0  0  0  0
 28 85  1  0  0  0  0
 29 66  2  0  0  0  0
 30 62  1  0  0  0  0
 30 67  1  0  0  0  0
 31 51  1  0  0  0  0
 31 67  2  0  0  0  0
 32 68  1  0  0  0  0
 32 71  1  0  0  0  0
 33 72  1  0  0  0  0
 33 77  2  0  0  0  0
 34 48  1  0  0  0  0
 34 73  1  0  0  0  0
 34 78  2  0  0  0  0
 35 63  1  0  0  0  0
 35 69  1  0  0  0  0
 35 79  2  0  0  0  0
 36 64  1  0  0  0  0
 36 74  1  0  0  0  0
 36 80  2  0  0  0  0
 37 70  1  0  0  0  0
 37 75  1  0  0  0  0
 37 81  2  0  0  0  0
 38 41  1  0  0  0  0
 39 48  1  0  0  0  0
 40 69  1  0  0  0  0
 41 43  1  0  0  0  0
 42 44  1  0  0  0  0
 42 45  1  0  0  0  0
 43 47  1  0  0  0  0
 44 49  1  0  0  0  0
 45 70  1  0  0  0  0
 46 49  1  0  0  0  0
 46 70  1  0  0  0  0
 47 73  1  0  0  0  0
 48 69  1  0  0  0  0
 49 68  1  0  0  0  0
 52 62  1  0  0  0  0
 53 64  1  0  0  0  0
 54 65  1  0  0  0  0
 55 65  1  0  0  0  0
 56 65  1  0  0  0  0
 57 76  1  0  0  0  0
 58 59  1  0  0  0  0
 59 61  1  0  0  0  0
 60 62  1  0  0  0  0
 60 75  1  0  0  0  0
 61 83  1  0  0  0  0
 63 65  1  0  0  0  0
 63 74  1  0  0  0  0
 64 76  1  0  0  0  0
 66 68  1  0  0  0  0
M  CHG  1  76   1
M  ISO  4  37 100  61 101  75 100  83 101
M  END
> <Batch ID>
0088

> <Smiles>
CNC(C)C(=O)NC(C(=O)N1Cc2cc([101O:1][101CH2:1]CCc3cc(C(C)C[100NH:0][100C:0](=O)N4CCCC(n5nc(-c6ccc(Oc7ccc(F)cc7F)cc6)c(C(N)=O)c5N)C4)nc(C)c3C)ccc2CC1C(=O)NC1CCCc2ccccc21)C(C)(C)C

> <Shape>
0.224

> <Color>
0.057

> <Negative vol penalty>
0.000

$$$$

  -OEChem-04052319043D

 84 92  0     1  0  0  0  0  0999 V2000
  -28.2140  -10.3761   16.9119 C   0  0  0  0  0  0  0  0  0  0  0  0
  -27.5352  -11.4908   16.4303 C   0  0  0  0  0  0  0  0  0  0  0  0
  -25.1015  -30.5157   20.3988 C   0  0  0  0  0  0  0  0  0  0  0  0
  -24.3399  -28.6215   21.6907 C   0  0  0  0  0  0  0  0  0  0  0  0
  -28.8345  -10.4245   18.1595 C   0  0  0  0  0  0  0  0  0  0  0  0
  -27.4756  -12.6543   17.1965 C   0  0  0  0  0  0  0  0  0  0  0  0
  -28.3717  -16.8253   14.4680 C   0  0  0  0  0  0  0  0  0  0  0  0
  -24.6337  -31.3793   21.3891 C   0  0  0  0  0  0  0  0  0  0  0  0
  -23.8721  -29.4851   22.6812 C   0  0  0  0  0  0  0  0  0  0  0  0
  -27.3296  -17.3032   13.6745 C   0  0  0  0  0  0  0  0  0  0  0  0
  -23.9636  -34.0664   23.7440 C   0  0  0  0  0  0  0  0  0  0  0  0
  -24.7959  -35.1147   24.1364 C   0  0  0  0  0  0  0  0  0  0  0  0
  -26.8184  -18.9584   15.3532 C   0  0  0  0  0  0  0  0  0  0  0  0
  -20.8207  -17.9425   17.5563 C   0  0  0  0  0  0  0  0  0  0  0  0
  -20.9326  -17.8681   15.1441 C   0  0  0  0  0  0  0  0  0  0  0  0
  -26.4808  -33.5222   24.8165 C   0  0  0  0  0  0  0  0  0  0  0  0
  -24.9546  -29.1367   20.5495 C   0  0  0  0  0  0  0  0  0  0  0  0
  -26.7182  -27.6674   19.4367 C   0  0  0  0  0  0  0  0  0  0  0  0
  -28.7908  -11.5923   18.9372 C   0  0  0  0  0  0  0  0  0  0  0  0
  -28.6384  -17.4044   15.7170 C   0  0  0  0  0  0  0  0  0  0  0  0
  -28.0950  -12.7180   18.4563 C   0  0  0  0  0  0  0  0  0  0  0  0
  -27.8660  -18.4878   16.1595 C   0  0  0  0  0  0  0  0  0  0  0  0
  -20.5813  -17.2735   16.3560 C   0  0  0  0  0  0  0  0  0  0  0  0
  -21.4113  -19.2061   17.5448 C   0  0  0  0  0  0  0  0  0  0  0  0
  -21.5233  -19.1318   15.1326 C   0  0  0  0  0  0  0  0  0  0  0  0
  -21.7626  -19.8007   16.3329 C   0  0  0  0  0  0  0  0  0  0  0  0
  -24.0190  -30.8641   22.5303 C   0  0  0  0  0  0  0  0  0  0  0  0
  -26.5510  -18.3680   14.1183 C   0  0  0  0  0  0  0  0  0  0  0  0
  -24.3898  -32.7461   23.8878 C   0  0  0  0  0  0  0  0  0  0  0  0
  -26.0545  -34.8426   24.6726 C   0  0  0  0  0  0  0  0  0  0  0  0
  -25.6484  -32.4740   24.4241 C   0  0  0  0  0  0  0  0  0  0  0  0
  -25.4371  -28.2441   19.5266 C   0  0  0  0  0  0  0  0  0  0  0  0
  -26.6725  -26.9058   18.2946 C   0  0  0  0  0  0  0  0  0  0  0  0
  -27.8484  -27.8077   20.3077 C   0  0  0  0  0  0  0  0  0  0  0  0
  -28.6175  -16.3662   18.7212 C   0  0  0  0  0  0  0  0  0  0  0  0
  -29.8296  -19.3114   19.3366 C   0  0  0  0  0  0  0  0  0  0  0  0
  -30.1743  -22.5640   18.3626 C   0  0  0  0  0  0  0  0  0  0  0  0
  -22.1831  -24.3096   15.3019 C   0  0  0  0  0  0  0  0  0  0  0  0
  -29.4364  -11.5815   20.3002 C   0  0  0  0  0  0  0  0  0  0  0  0
  -29.7830  -16.8947   16.5491 C   0  0  0  0  0  0  0  0  0  0  0  0
  -28.1244  -19.1575   17.4835 C   0  0  0  0  0  0  0  0  0  0  0  0
  -29.6452  -12.9754   20.8864 C   0  0  0  0  0  0  0  0  0  0  0  0
  -24.5170  -26.6782   14.0293 C   0  0  0  0  0  0  0  0  0  0  0  0
  -28.3824  -13.8161   20.7272 C   0  0  0  0  0  0  0  0  0  0  0  0
  -25.1331  -27.2961   15.2858 C   0  0  0  0  0  0  0  0  0  0  0  0
  -23.0337  -26.3699   14.2211 C   0  0  0  0  0  0  0  0  0  0  0  0
  -23.3367  -26.1608   16.6580 C   0  0  0  0  0  0  0  0  0  0  0  0
  -28.0293  -14.0065   19.2471 C   0  0  1  0  0  0  0  0  0  0  0  0
  -29.6383  -17.2261   18.0312 C   0  0  1  0  0  0  0  0  0  0  0  0
  -24.8446  -26.4376   16.5320 C   0  0  2  0  0  0  0  0  0  0  0  0
  -19.9492  -15.9229   16.3683 C   0  0  0  0  0  0  0  0  0  0  0  0
  -21.6580  -19.9008   18.8441 C   0  0  0  0  0  0  0  0  0  0  0  0
  -31.1873  -24.7415   19.0905 C   0  0  0  0  0  0  0  0  0  0  0  0
  -27.5845  -19.6730   21.3711 C   0  0  0  0  0  0  0  0  0  0  0  0
  -28.0609  -22.1309   21.3559 C   0  0  0  0  0  0  0  0  0  0  0  0
  -29.8142  -20.5270   22.1152 C   0  0  0  0  0  0  0  0  0  0  0  0
  -31.9068  -22.6921   15.9666 C   0  0  0  0  0  0  0  0  0  0  0  0
  -21.8936  -19.7524   13.8092 C   0  0  0  0  0  0  0  0  0  0  0  0
  -22.3963  -21.1554   16.3209 C   0  0  0  0  0  0  0  0  0  0  0  0
  -23.1616  -19.1642   13.1864 C   0  0  0  0  0  0  0  0  0  0  0  0
  -21.3970  -22.2982   16.5246 C   0  0  0  0  0  0  0  0  0  0  0  0
  -24.4128  -19.4049   14.0230 C   0  0  0  0  0  0  0  0  0  1  0  0
  -29.2410  -20.6643   19.6566 C   0  0  1  0  0  0  0  0  0  0  0  0
  -31.3910  -23.4684   18.2840 C   0  0  2  0  0  0  0  0  0  0  0  0
  -28.6688  -20.7351   21.1006 C   0  0  0  0  0  0  0  0  0  0  0  0
  -24.6361  -27.8801   18.5216 N   0  0  0  0  0  0  0  0  0  0  0  0
  -25.4159  -27.0665   17.7894 N   0  0  0  0  0  0  0  0  0  0  0  0
  -29.2508  -18.6189   18.2637 N   0  0  0  0  0  0  0  0  0  0  0  0
  -22.8286  -25.5517   15.4187 N   0  0  0  0  0  0  0  0  0  0  0  0
  -27.5851  -26.1210   17.6833 N   0  0  0  0  0  0  0  0  0  0  0  0
  -27.7240  -28.6287   21.4367 N   0  0  0  0  0  0  0  0  0  0  0  0
  -28.8817  -15.0118   18.6494 N   0  0  0  0  0  0  0  0  0  0  0  0
  -30.2890  -21.6410   19.3805 N   0  0  0  0  0  0  0  0  0  0  0  0
  -22.0350  -23.5951   16.4844 N   0  0  0  0  0  0  0  0  0  0  0  0
  -31.6642  -23.8472   16.8688 N   0  3  0  0  0  0  0  0  0  0  0  0
  -28.9416  -27.2352   20.0823 O   0  0  0  0  0  0  0  0  0  0  0  0
  -27.6616  -16.8927   19.2788 O   0  0  0  0  0  0  0  0  0  0  0  0
  -30.7729  -18.8880   20.0092 O   0  0  0  0  0  0  0  0  0  0  0  0
  -29.2162  -22.6685   17.5999 O   0  0  0  0  0  0  0  0  0  0  0  0
  -21.7742  -23.8677   14.2228 O   0  0  0  0  0  0  0  0  0  0  0  0
  -23.5626  -31.7065   23.4970 O   0  0  0  0  0  0  0  0  0  0  0  0
  -25.5329  -18.8359   13.3461 O   0  0  0  0  0  0  0  0  0  1  0  0
  -26.8543  -35.8493   25.0480 F   0  0  0  0  0  0  0  0  0  0  0  0
  -26.0638  -31.2076   24.5636 F   0  0  0  0  0  0  0  0  0  0  0  0
  1  2  1  0  0  0  0
  1  5  2  0  0  0  0
  2  6  2  0  0  0  0
  3  8  2  0  0  0  0
  3 17  1  0  0  0  0
  4  9  1  0  0  0  0
  4 17  2  0  0  0  0
  5 19  1  0  0  0  0
  6 21  1  0  0  0  0
  7 10  2  0  0  0  0
  7 20  1  0  0  0  0
  8 27  1  0  0  0  0
  9 27  2  0  0  0  0
 10 28  1  0  0  0  0
 11 12  2  0  0  0  0
 11 29  1  0  0  0  0
 12 30  1  0  0  0  0
 13 22  1  0  0  0  0
 13 28  2  0  0  0  0
 14 23  1  0  0  0  0
 14 24  2  0  0  0  0
 15 23  2  0  0  0  0
 15 25  1  0  0  0  0
 16 30  2  0  0  0  0
 16 31  1  0  0  0  0
 17 32  1  0  0  0  0
 18 32  1  0  0  0  0
 18 33  2  0  0  0  0
 18 34  1  0  0  0  0
 19 21  2  0  0  0  0
 19 39  1  0  0  0  0
 20 22  2  0  0  0  0
 20 40  1  0  0  0  0
 21 48  1  0  0  0  0
 22 41  1  0  0  0  0
 23 51  1  0  0  0  0
 24 26  1  0  0  0  0
 24 52  1  0  0  0  0
 25 26  2  0  0  0  0
 25 58  1  0  0  0  0
 26 59  1  0  0  0  0
 27 81  1  0  0  0  0
 28 82  1  0  0  0  0
 29 31  2  0  0  0  0
 29 81  1  0  0  0  0
 30 83  1  0  0  0  0
 31 84  1  0  0  0  0
 32 66  2  0  0  0  0
 33 67  1  0  0  0  0
 33 70  1  0  0  0  0
 34 71  1  0  0  0  0
 34 76  2  0  0  0  0
 35 49  1  0  0  0  0
 35 72  1  0  0  0  0
 35 77  2  0  0  0  0
 36 63  1  0  0  0  0
 36 68  1  0  0  0  0
 36 78  2  0  0  0  0
 37 64  1  0  0  0  0
 37 73  1  0  0  0  0
 37 79  2  0  0  0  0
 38 69  1  0  0  0  0
 38 74  1  0  0  0  0
 38 80  2  0  0  0  0
 39 42  1  0  0  0  0
 40 49  1  0  0  0  0
 41 68  1  0  0  0  0
 42 44  1  0  0  0  0
 43 45  1  0  0  0  0
 43 46  1  0  0  0  0
 44 48  1  0  0  0  0
 45 50  1  0  0  0  0
 46 69  1  0  0  0  0
 47 50  1  0  0  0  0
 47 69  1  0  0  0  0
 48 72  1  0  0  0  0
 49 68  1  0  0  0  0
 50 67  1  0  0  0  0
 53 64  1  0  0  0  0
 54 65  1  0  0  0  0
 55 65  1  0  0  0  0
 56 65  1  0  0  0  0
 57 75  1  0  0  0  0
 58 60  1  0  0  0  0
 59 61  1  0  0  0  0
 60 62  1  0  0  0  0
 61 74  1  0  0  0  0
 62 82  1  0  0  0  0
 63 65  1  0  0  0  0
 63 73  1  0  0  0  0
 64 75  1  0  0  0  0
 66 67  1  0  0  0  0
M  CHG  1  75   1
M  ISO  4  38 100  62 101  74 100  82 101
M  END
> <Batch ID>
0088

> <Smiles>
CNC(C)C(=O)NC(C(=O)N1Cc2cc([101O:1][101CH2:1]CCc3cc(C)cc(C)c3CC[100NH:0][100C:0](=O)N3CCCC(n4nc(-c5ccc(Oc6ccc(F)cc6F)cc5)c(C(N)=O)c4N)C3)ccc2CC1C(=O)NC1CCCc2ccccc21)C(C)(C)C

> <Shape>
0.229

> <Color>
0.067

> <Negative vol penalty>
0.000

$$$$

  -OEChem-04052319043D

 89 97  0     1  0  0  0  0  0999 V2000
  -39.4254  -23.6201   20.8633 C   0  0  0  0  0  0  0  0  0  0  0  0
  -38.1350  -23.7944   21.3530 C   0  0  0  0  0  0  0  0  0  0  0  0
  -23.0726   -9.8706   19.9425 C   0  0  0  0  0  0  0  0  0  0  0  0
  -23.8355   -9.8772   22.2348 C   0  0  0  0  0  0  0  0  0  0  0  0
  -39.6827  -23.7903   19.5036 C   0  0  0  0  0  0  0  0  0  0  0  0
  -37.1012  -24.1402   20.4834 C   0  0  0  0  0  0  0  0  0  0  0  0
  -32.8945  -21.4404   21.2957 C   0  0  0  0  0  0  0  0  0  0  0  0
  -22.3296   -8.7170   20.1931 C   0  0  0  0  0  0  0  0  0  0  0  0
  -23.0925   -8.7236   22.4855 C   0  0  0  0  0  0  0  0  0  0  0  0
  -32.0985  -21.8121   22.3783 C   0  0  0  0  0  0  0  0  0  0  0  0
  -22.9037   -5.3987   20.4821 C   0  0  0  0  0  0  0  0  0  0  0  0
  -22.9698   -4.3695   19.5431 C   0  0  0  0  0  0  0  0  0  0  0  0
  -30.6148  -22.9814   20.8780 C   0  0  0  0  0  0  0  0  0  0  0  0
  -28.3174  -20.0763   22.4697 C   0  0  0  0  0  0  0  0  0  0  0  0
  -27.0776  -19.3539   24.3998 C   0  0  0  0  0  0  0  0  0  0  0  0
  -20.5847   -4.5343   19.1947 C   0  0  0  0  0  0  0  0  0  0  0  0
  -23.8256  -10.4507   20.9634 C   0  0  0  0  0  0  0  0  0  0  0  0
  -24.1662  -12.9760   20.8437 C   0  0  0  0  0  0  0  0  0  0  0  0
  -38.6497  -24.1288   18.6153 C   0  0  0  0  0  0  0  0  0  0  0  0
  -32.5621  -21.8462   19.9952 C   0  0  0  0  0  0  0  0  0  0  0  0
  -37.3452  -24.3164   19.1107 C   0  0  0  0  0  0  0  0  0  0  0  0
  -31.4069  -22.6113   19.7804 C   0  0  0  0  0  0  0  0  0  0  0  0
  -27.6702  -20.3739   23.6637 C   0  0  0  0  0  0  0  0  0  0  0  0
  -22.3395   -8.1436   21.4645 C   0  0  0  0  0  0  0  0  0  0  0  0
  -30.9601  -22.5852   22.1699 C   0  0  0  0  0  0  0  0  0  0  0  0
  -21.6782   -5.9958   20.7775 C   0  0  0  0  0  0  0  0  0  0  0  0
  -21.8103   -3.9373   18.8993 C   0  0  0  0  0  0  0  0  0  0  0  0
  -20.5187   -5.5636   20.1338 C   0  0  0  0  0  0  0  0  0  0  0  0
  -24.5938  -11.6420   20.7050 C   0  0  0  0  0  0  0  0  0  0  0  0
  -28.3440  -18.7533   22.0586 C   0  0  0  0  0  0  0  0  0  0  0  0
  -27.1595  -18.0633   23.9022 C   0  0  0  0  0  0  0  0  0  0  0  0
  -25.2575  -13.7261   20.4792 C   0  0  0  0  0  0  0  0  0  0  0  0
  -22.8960  -13.4911   21.2645 C   0  0  0  0  0  0  0  0  0  0  0  0
  -33.9682  -23.6343   17.7751 C   0  0  0  0  0  0  0  0  0  0  0  0
  -31.4683  -22.6518   15.9564 C   0  0  0  0  0  0  0  0  0  0  0  0
  -28.2673  -21.4759   15.8241 C   0  0  0  0  0  0  0  0  0  0  0  0
  -30.7410  -14.7475   20.6605 C   0  0  0  0  0  0  0  0  0  0  0  0
  -38.9853  -24.3484   17.1614 C   0  0  0  0  0  0  0  0  0  0  0  0
  -33.4165  -21.4144   18.8351 C   0  0  0  0  0  0  0  0  0  0  0  0
  -30.9951  -23.0557   18.4014 C   0  0  0  0  0  0  0  0  0  0  0  0
  -37.7628  -24.3478   16.2473 C   0  0  0  0  0  0  0  0  0  0  0  0
  -29.6013  -12.3633   18.2745 C   0  0  0  0  0  0  0  0  0  0  0  0
  -36.6539  -25.2127   16.8382 C   0  0  0  0  0  0  0  0  0  0  0  0
  -28.1645  -12.0688   18.7093 C   0  0  0  0  0  0  0  0  0  0  0  0
  -30.5199  -12.5841   19.4742 C   0  0  0  0  0  0  0  0  0  0  0  0
  -28.6197  -13.3139   20.8636 C   0  0  0  0  0  0  0  0  0  0  0  0
  -36.1925  -24.6672   18.1950 C   0  0  1  0  0  0  0  0  0  0  0  0
  -33.2656  -22.3160   17.6137 C   0  0  1  0  0  0  0  0  0  0  0  0
  -27.6440  -13.1393   19.6872 C   0  0  2  0  0  0  0  0  0  0  0  0
  -28.6243  -16.4167   26.0504 C   0  0  0  0  0  0  0  0  0  0  0  0
  -26.4815  -20.8036   14.1944 C   0  0  0  0  0  0  0  0  0  0  0  0
  -28.5954  -23.6280   25.5725 C   0  0  0  0  0  0  0  0  0  0  0  0
  -30.9064  -25.5916   15.3630 C   0  0  0  0  0  0  0  0  0  0  0  0
  -28.6321  -24.9223   14.5580 C   0  0  0  0  0  0  0  0  0  0  0  0
  -30.6666  -24.0659   13.3960 C   0  0  0  0  0  0  0  0  0  0  0  0
  -28.1955  -18.7072   16.8671 C   0  0  0  0  0  0  0  0  0  0  0  0
  -27.6119  -21.7984   24.1595 C   0  0  0  0  0  0  0  0  0  0  0  0
  -29.0312  -18.3966   20.7830 C   0  0  0  0  0  0  0  0  0  0  0  0
  -27.5476  -15.8601   25.1265 C   0  0  0  0  0  0  0  0  0  0  0  0
  -30.5252  -18.0521   20.9387 C   0  0  0  0  0  0  0  0  0  0  0  0
  -30.8076  -16.8977   21.8980 C   0  0  0  0  0  0  0  0  0  0  0  0
  -25.3950  -16.2615   23.8664 C   0  0  0  0  0  0  0  0  0  0  0  0
  -30.1405  -22.0603   24.3398 C   0  0  0  0  0  0  0  0  0  1  0  0
  -26.5330  -16.9444   24.6653 C   0  0  2  0  0  0  0  0  0  0  0  0
  -30.0760  -23.1681   15.6844 C   0  0  1  0  0  0  0  0  0  0  0  0
  -27.6471  -20.3283   15.0478 C   0  0  2  0  0  0  0  0  0  0  0  0
  -28.7945  -22.1937   25.0663 C   0  0  1  0  0  0  0  0  0  0  0  0
  -30.0788  -24.4304   14.7767 C   0  0  0  0  0  0  0  0  0  0  0  0
  -25.8582  -11.5468   20.2850 N   0  0  0  0  0  0  0  0  0  0  0  0
  -27.7797  -17.7356   22.7466 N   0  0  0  0  0  0  0  0  0  0  0  0
  -26.2343  -12.8306   20.1565 N   0  0  0  0  0  0  0  0  0  0  0  0
  -31.8665  -22.6135   17.3002 N   0  0  0  0  0  0  0  0  0  0  0  0
  -29.9701  -13.6121   20.3613 N   0  0  0  0  0  0  0  0  0  0  0  0
  -25.4672  -15.0577   20.4063 N   0  0  0  0  0  0  0  0  0  0  0  0
  -21.8849  -12.5814   21.6028 N   0  0  0  0  0  0  0  0  0  0  0  0
  -35.3252  -23.5234   18.0114 N   0  0  0  0  0  0  0  0  0  0  0  0
  -29.3224  -22.0432   15.1413 N   0  0  0  0  0  0  0  0  0  0  0  0
  -30.1426  -15.6758   21.5037 N   0  0  0  0  0  0  0  0  0  0  0  0
  -27.1485  -19.2802   15.9826 N   0  3  0  0  0  0  0  0  0  0  0  0
  -22.6593  -14.7216   21.3225 O   0  0  0  0  0  0  0  0  0  0  0  0
  -33.3270  -24.6751   17.6899 O   0  0  0  0  0  0  0  0  0  0  0  0
  -32.1740  -22.2890   15.0119 O   0  0  0  0  0  0  0  0  0  0  0  0
  -27.8546  -21.8358   16.9244 O   0  0  0  0  0  0  0  0  0  0  0  0
  -31.8763  -14.9237   20.2054 O   0  0  0  0  0  0  0  0  0  0  0  0
  -24.3713  -17.2145   23.6011 O   0  0  0  0  0  0  0  0  0  0  0  0
  -21.6144   -7.0181   21.7095 O   0  0  0  0  0  0  0  0  0  0  0  0
  -30.1817  -22.9499   23.2248 O   0  0  0  0  0  0  0  0  0  1  0  0
  -21.8741   -2.9499   17.9964 F   0  0  0  0  0  0  0  0  0  0  0  0
  -19.3386   -6.1341   20.4125 F   0  0  0  0  0  0  0  0  0  0  0  0
  1  2  1  0  0  0  0
  1  5  2  0  0  0  0
  2  6  2  0  0  0  0
  3  8  2  0  0  0  0
  3 17  1  0  0  0  0
  4  9  1  0  0  0  0
  4 17  2  0  0  0  0
  5 19  1  0  0  0  0
  6 21  1  0  0  0  0
  7 10  2  0  0  0  0
  7 20  1  0  0  0  0
  8 24  1  0  0  0  0
  9 24  2  0  0  0  0
 10 25  1  0  0  0  0
 11 12  2  0  0  0  0
 11 26  1  0  0  0  0
 12 27  1  0  0  0  0
 13 22  1  0  0  0  0
 13 25  2  0  0  0  0
 14 23  1  0  0  0  0
 14 30  2  0  0  0  0
 15 23  2  0  0  0  0
 15 31  1  0  0  0  0
 16 27  2  0  0  0  0
 16 28  1  0  0  0  0
 17 29  1  0  0  0  0
 18 29  1  0  0  0  0
 18 32  2  0  0  0  0
 18 33  1  0  0  0  0
 19 21  2  0  0  0  0
 19 38  1  0  0  0  0
 20 22  2  0  0  0  0
 20 39  1  0  0  0  0
 21 47  1  0  0  0  0
 22 40  1  0  0  0  0
 23 57  1  0  0  0  0
 24 86  1  0  0  0  0
 25 87  1  0  0  0  0
 26 28  2  0  0  0  0
 26 86  1  0  0  0  0
 27 88  1  0  0  0  0
 28 89  1  0  0  0  0
 29 69  2  0  0  0  0
 30 58  1  0  0  0  0
 30 70  1  0  0  0  0
 31 64  1  0  0  0  0
 31 70  2  0  0  0  0
 32 71  1  0  0  0  0
 32 74  1  0  0  0  0
 33 75  1  0  0  0  0
 33 80  2  0  0  0  0
 34 48  1  0  0  0  0
 34 76  1  0  0  0  0
 34 81  2  0  0  0  0
 35 65  1  0  0  0  0
 35 72  1  0  0  0  0
 35 82  2  0  0  0  0
 36 66  1  0  0  0  0
 36 77  1  0  0  0  0
 36 83  2  0  0  0  0
 37 73  1  0  0  0  0
 37 78  1  0  0  0  0
 37 84  2  0  0  0  0
 38 41  1  0  0  0  0
 39 48  1  0  0  0  0
 40 72  1  0  0  0  0
 41 43  1  0  0  0  0
 42 44  1  0  0  0  0
 42 45  1  0  0  0  0
 43 47  1  0  0  0  0
 44 49  1  0  0  0  0
 45 73  1  0  0  0  0
 46 49  1  0  0  0  0
 46 73  1  0  0  0  0
 47 76  1  0  0  0  0
 48 72  1  0  0  0  0
 49 71  1  0  0  0  0
 50 59  1  0  0  0  0
 51 66  1  0  0  0  0
 52 67  1  0  0  0  0
 53 68  1  0  0  0  0
 54 68  1  0  0  0  0
 55 68  1  0  0  0  0
 56 79  1  0  0  0  0
 57 67  1  0  0  0  0
 58 60  1  0  0  0  0
 59 64  1  0  0  0  0
 60 61  1  0  0  0  0
 61 78  1  0  0  0  0
 62 64  1  0  0  0  0
 62 85  1  0  0  0  0
 63 67  1  0  0  0  0
 63 87  1  0  0  0  0
 65 68  1  0  0  0  0
 65 77  1  0  0  0  0
 66 79  1  0  0  0  0
 69 71  1  0  0  0  0
M  CHG  1  79   1
M  ISO  4  37 100  63 101  78 100  87 101
M  END
> <Batch ID>
0088

> <Smiles>
CCC(CO)c1cc(CC(C)[101CH2:1][101O:1]c2ccc3c(c2)CN(C(=O)C(NC(=O)C(C)NC)C(C)(C)C)C(C(=O)NC2CCCc4ccccc42)C3)cc(CCC[100NH:0][100C:0](=O)N2CCCC(n3nc(-c4ccc(Oc5ccc(F)cc5F)cc4)c(C(N)=O)c3N)C2)n1

> <Shape>
0.178

> <Color>
0.180

> <Negative vol penalty>
0.000

$$$$

  -OEChem-04052319043D

 88 96  0     1  0  0  0  0  0999 V2000
  -29.2629  -21.6790   14.0890 C   0  0  0  0  0  0  0  0  0  0  0  0
  -29.2448  -21.2510   15.4126 C   0  0  0  0  0  0  0  0  0  0  0  0
  -23.0945   -9.8619   19.9702 C   0  0  0  0  0  0  0  0  0  0  0  0
  -23.8215   -9.9358   22.2730 C   0  0  0  0  0  0  0  0  0  0  0  0
  -29.1730  -23.0391   13.7961 C   0  0  0  0  0  0  0  0  0  0  0  0
  -29.1379  -22.1831   16.4442 C   0  0  0  0  0  0  0  0  0  0  0  0
  -26.2101  -21.4563   21.7739 C   0  0  0  0  0  0  0  0  0  0  0  0
  -22.3525   -8.7124   20.2413 C   0  0  0  0  0  0  0  0  0  0  0  0
  -23.0794   -8.7863   22.5442 C   0  0  0  0  0  0  0  0  0  0  0  0
  -26.6568  -21.1215   23.0514 C   0  0  0  0  0  0  0  0  0  0  0  0
  -19.8468   -7.9891   23.1228 C   0  0  0  0  0  0  0  0  0  0  0  0
  -19.0734   -7.9776   24.2835 C   0  0  0  0  0  0  0  0  0  0  0  0
  -26.7454  -23.4623   23.6274 C   0  0  0  0  0  0  0  0  0  0  0  0
  -20.3131   -6.0674   25.0906 C   0  0  0  0  0  0  0  0  0  0  0  0
  -30.0537  -18.8166   24.9629 C   0  0  0  0  0  0  0  0  0  0  0  0
  -23.8290  -10.4736   20.9860 C   0  0  0  0  0  0  0  0  0  0  0  0
  -24.1608  -12.9962   20.8012 C   0  0  0  0  0  0  0  0  0  0  0  0
  -29.0552  -23.9877   14.8242 C   0  0  0  0  0  0  0  0  0  0  0  0
  -26.0379  -22.7994   21.4094 C   0  0  0  0  0  0  0  0  0  0  0  0
  -29.0477  -23.5574   16.1648 C   0  0  0  0  0  0  0  0  0  0  0  0
  -26.2940  -23.8115   22.3455 C   0  0  0  0  0  0  0  0  0  0  0  0
  -29.6864  -17.5001   24.7356 C   0  0  0  0  0  0  0  0  0  0  0  0
  -28.3405  -17.1706   24.8517 C   0  0  0  0  0  0  0  0  0  0  0  0
  -27.4162  -18.1538   25.1867 C   0  0  0  0  0  0  0  0  0  0  0  0
  -22.3449   -8.1745   21.5283 C   0  0  0  0  0  0  0  0  0  0  0  0
  -26.9273  -22.1246   23.9775 C   0  0  0  0  0  0  0  0  0  0  0  0
  -20.8533   -7.0397   22.9459 C   0  0  0  0  0  0  0  0  0  0  0  0
  -19.3065   -7.0168   25.2674 C   0  0  0  0  0  0  0  0  0  0  0  0
  -21.0865   -6.0789   23.9298 C   0  0  0  0  0  0  0  0  0  0  0  0
  -24.5962  -11.6608   20.7064 C   0  0  0  0  0  0  0  0  0  0  0  0
  -27.8852  -19.4410   25.3941 C   0  0  0  0  0  0  0  0  0  0  0  0
  -25.2546  -13.7409   20.4329 C   0  0  0  0  0  0  0  0  0  0  0  0
  -22.8821  -13.5170   21.1877 C   0  0  0  0  0  0  0  0  0  0  0  0
  -27.3267  -24.7135   19.2233 C   0  0  0  0  0  0  0  0  0  0  0  0
  -25.0784  -26.7963   20.2860 C   0  0  0  0  0  0  0  0  0  0  0  0
  -23.0027  -27.7801   22.8100 C   0  0  0  0  0  0  0  0  0  0  0  0
  -30.7303  -14.7923   20.6706 C   0  0  0  0  0  0  0  0  0  0  0  0
  -29.0085  -25.4506   14.4604 C   0  0  0  0  0  0  0  0  0  0  0  0
  -25.5297  -23.1430   20.0360 C   0  0  0  0  0  0  0  0  0  0  0  0
  -26.1057  -25.2677   22.0105 C   0  0  0  0  0  0  0  0  0  0  0  0
  -28.5205  -26.3456   15.5966 C   0  0  0  0  0  0  0  0  0  0  0  0
  -29.6379  -12.3373   18.3347 C   0  0  0  0  0  0  0  0  0  0  0  0
  -29.2206  -25.9807   16.9018 C   0  0  0  0  0  0  0  0  0  0  0  0
  -28.1958  -12.0484   18.7552 C   0  0  0  0  0  0  0  0  0  0  0  0
  -30.5368  -12.5957   19.5419 C   0  0  0  0  0  0  0  0  0  0  0  0
  -28.6121  -13.3551   20.8807 C   0  0  0  0  0  0  0  0  0  0  0  0
  -28.9080  -24.5361   17.3105 C   0  0  1  0  0  0  0  0  0  0  0  0
  -25.8816  -24.5640   19.6069 C   0  0  1  0  0  0  0  0  0  0  0  0
  -27.6556  -13.1433   19.6947 C   0  0  2  0  0  0  0  0  0  0  0  0
  -25.9652  -17.8322   25.3171 C   0  0  0  0  0  0  0  0  0  0  0  0
  -26.7734  -20.7015   27.2698 C   0  0  0  0  0  0  0  0  0  0  0  0
  -21.3131  -29.5398   23.3982 C   0  0  0  0  0  0  0  0  0  0  0  0
  -28.1087  -12.5751   26.8714 C   0  0  0  0  0  0  0  0  0  0  0  0
  -26.2378  -13.2984   25.3758 C   0  0  0  0  0  0  0  0  0  0  0  0
  -27.3303  -28.8071   20.7285 C   0  0  0  0  0  0  0  0  0  0  0  0
  -25.7675  -30.1363   22.1635 C   0  0  0  0  0  0  0  0  0  0  0  0
  -25.2425  -29.7772   19.7514 C   0  0  0  0  0  0  0  0  0  0  0  0
  -20.8581  -25.7701   23.1560 C   0  0  0  0  0  0  0  0  0  0  0  0
  -30.7204  -16.4885   24.3796 C   0  0  0  0  0  0  0  0  0  0  0  0
  -27.8915  -15.7638   24.6167 C   0  0  0  0  0  0  0  0  0  0  0  0
  -31.5686  -16.8486   23.1430 C   0  0  0  0  0  0  0  0  0  0  0  0
  -28.2140  -14.8515   25.8130 C   0  0  0  0  0  0  0  0  0  0  0  0
  -30.7685  -16.9764   21.8485 C   0  0  0  0  0  0  0  0  0  0  0  0
  -26.9286  -20.5521   25.7616 C   0  0  1  0  0  0  0  0  0  1  0  0
  -25.0209  -27.8467   21.3688 C   0  0  1  0  0  0  0  0  0  0  0  0
  -21.5309  -28.1515   22.8168 C   0  0  2  0  0  0  0  0  0  0  0  0
  -27.7421  -13.3967   25.6329 C   0  0  0  0  0  0  0  0  0  0  0  0
  -25.8458  -29.1146   21.0090 C   0  0  0  0  0  0  0  0  0  0  0  0
  -29.1847  -19.7990   25.2903 N   0  0  0  0  0  0  0  0  0  0  0  0
  -25.8673  -11.5599   20.3089 N   0  0  0  0  0  0  0  0  0  0  0  0
  -26.2401  -12.8413   20.1505 N   0  0  0  0  0  0  0  0  0  0  0  0
  -25.6130  -25.5531   20.6528 N   0  0  0  0  0  0  0  0  0  0  0  0
  -29.9689  -13.6455   20.3913 N   0  0  0  0  0  0  0  0  0  0  0  0
  -25.4598  -15.0709   20.3262 N   0  0  0  0  0  0  0  0  0  0  0  0
  -21.8697  -12.6123   21.5356 N   0  0  0  0  0  0  0  0  0  0  0  0
  -27.5853  -24.4503   17.8916 N   0  0  0  0  0  0  0  0  0  0  0  0
  -23.6058  -28.1040   21.6131 N   0  0  0  0  0  0  0  0  0  0  0  0
  -30.1149  -15.7409   21.4781 N   0  0  0  0  0  0  0  0  0  0  0  0
  -20.7537  -27.1742   23.6302 N   0  3  0  0  0  0  0  0  0  0  0  0
  -22.6394  -14.7475   21.2078 O   0  0  0  0  0  0  0  0  0  0  0  0
  -28.1460  -25.0445   20.0722 O   0  0  0  0  0  0  0  0  0  0  0  0
  -24.6578  -27.0666   19.1584 O   0  0  0  0  0  0  0  0  0  0  0  0
  -23.5625  -27.2584   23.7718 O   0  0  0  0  0  0  0  0  0  0  0  0
  -31.8718  -14.9610   20.2284 O   0  0  0  0  0  0  0  0  0  0  0  0
  -21.6208   -7.0530   21.7933 O   0  0  0  0  0  0  0  0  0  0  0  0
  -27.3641  -21.8006   25.2249 O   0  0  0  0  0  0  0  0  0  1  0  0
  -18.5648   -7.0068   26.3827 F   0  0  0  0  0  0  0  0  0  0  0  0
  -22.0528   -5.1650   23.7660 F   0  0  0  0  0  0  0  0  0  0  0  0
  1  2  1  0  0  0  0
  1  5  2  0  0  0  0
  2  6  2  0  0  0  0
  3  8  2  0  0  0  0
  3 16  1  0  0  0  0
  4  9  1  0  0  0  0
  4 16  2  0  0  0  0
  5 18  1  0  0  0  0
  6 20  1  0  0  0  0
  7 10  2  0  0  0  0
  7 19  1  0  0  0  0
  8 25  1  0  0  0  0
  9 25  2  0  0  0  0
 10 26  1  0  0  0  0
 11 12  2  0  0  0  0
 11 27  1  0  0  0  0
 12 28  1  0  0  0  0
 13 21  1  0  0  0  0
 13 26  2  0  0  0  0
 14 28  2  0  0  0  0
 14 29  1  0  0  0  0
 15 22  1  0  0  0  0
 15 69  2  0  0  0  0
 16 30  1  0  0  0  0
 17 30  1  0  0  0  0
 17 32  2  0  0  0  0
 17 33  1  0  0  0  0
 18 20  2  0  0  0  0
 18 38  1  0  0  0  0
 19 21  2  0  0  0  0
 19 39  1  0  0  0  0
 20 47  1  0  0  0  0
 21 40  1  0  0  0  0
 22 23  2  0  0  0  0
 22 59  1  0  0  0  0
 23 24  1  0  0  0  0
 23 60  1  0  0  0  0
 24 31  2  0  0  0  0
 24 50  1  0  0  0  0
 25 85  1  0  0  0  0
 26 86  1  0  0  0  0
 27 29  2  0  0  0  0
 27 85  1  0  0  0  0
 28 87  1  0  0  0  0
 29 88  1  0  0  0  0
 30 70  2  0  0  0  0
 31 64  1  0  0  0  0
 31 69  1  0  0  0  0
 32 71  1  0  0  0  0
 32 74  1  0  0  0  0
 33 75  1  0  0  0  0
 33 80  2  0  0  0  0
 34 48  1  0  0  0  0
 34 76  1  0  0  0  0
 34 81  2  0  0  0  0
 35 65  1  0  0  0  0
 35 72  1  0  0  0  0
 35 82  2  0  0  0  0
 36 66  1  0  0  0  0
 36 77  1  0  0  0  0
 36 83  2  0  0  0  0
 37 73  1  0  0  0  0
 37 78  1  0  0  0  0
 37 84  2  0  0  0  0
 38 41  1  0  0  0  0
 39 48  1  0  0  0  0
 40 72  1  0  0  0  0
 41 43  1  0  0  0  0
 42 44  1  0  0  0  0
 42 45  1  0  0  0  0
 43 47  1  0  0  0  0
 44 49  1  0  0  0  0
 45 73  1  0  0  0  0
 46 49  1  0  0  0  0
 46 73  1  0  0  0  0
 47 76  1  0  0  0  0
 48 72  1  0  0  0  0
 49 71  1  0  0  0  0
 51 64  1  0  0  0  0
 52 66  1  0  0  0  0
 53 67  1  0  0  0  0
 54 67  1  0  0  0  0
 55 68  1  0  0  0  0
 56 68  1  0  0  0  0
 57 68  1  0  0  0  0
 58 79  1  0  0  0  0
 59 61  1  0  0  0  0
 60 62  1  0  0  0  0
 61 63  1  0  0  0  0
 62 67  1  0  0  0  0
 63 78  1  0  0  0  0
 64 86  1  0  0  0  0
 65 68  1  0  0  0  0
 65 77  1  0  0  0  0
 66 79  1  0  0  0  0
 70 71  1  0  0  0  0
M  CHG  1  79   1
M  ISO  4  37 100  64 101  78 100  86 101
M  END
> <Batch ID>
0088

> <Smiles>
CNC(C)C(=O)NC(C(=O)N1Cc2cc([101O:1][101CH:1](C)c3ncc(CCC[100NH:0][100C:0](=O)N4CCCC(n5nc(-c6ccc(Oc7ccc(F)cc7F)cc6)c(C(N)=O)c5N)C4)c(CCC(C)C)c3C)ccc2CC1C(=O)NC1CCCc2ccccc21)C(C)(C)C

> <Shape>
0.251

> <Color>
0.194

> <Negative vol penalty>
0.000

$$$$

  -OEChem-04052319043D

 85 93  0     1  0  0  0  0  0999 V2000
  -28.3304  -32.1363   13.4571 C   0  0  0  0  0  0  0  0  0  0  0  0
  -27.7269  -30.8830   13.4345 C   0  0  0  0  0  0  0  0  0  0  0  0
  -23.0738   -9.8679   19.9357 C   0  0  0  0  0  0  0  0  0  0  0  0
  -23.8384   -9.8666   22.2276 C   0  0  0  0  0  0  0  0  0  0  0  0
  -29.7093  -32.2417   13.6341 C   0  0  0  0  0  0  0  0  0  0  0  0
  -28.5024  -29.7342   13.5879 C   0  0  0  0  0  0  0  0  0  0  0  0
  -28.1984  -23.1162   16.3131 C   0  0  0  0  0  0  0  0  0  0  0  0
  -22.3332   -8.7119   20.1821 C   0  0  0  0  0  0  0  0  0  0  0  0
  -23.0977   -8.7106   22.4740 C   0  0  0  0  0  0  0  0  0  0  0  0
  -28.4258  -21.7899   15.9486 C   0  0  0  0  0  0  0  0  0  0  0  0
  -19.8727   -7.9026   23.0796 C   0  0  0  0  0  0  0  0  0  0  0  0
  -19.1182   -7.8557   24.2518 C   0  0  0  0  0  0  0  0  0  0  0  0
  -30.7883  -22.0972   16.3271 C   0  0  0  0  0  0  0  0  0  0  0  0
  -31.8104  -17.2806   17.0047 C   0  0  0  0  0  0  0  0  0  0  0  0
  -30.0277  -17.8702   18.5075 C   0  0  0  0  0  0  0  0  0  0  0  0
  -20.3656   -5.9180   24.9772 C   0  0  0  0  0  0  0  0  0  0  0  0
  -23.8265  -10.4452   20.9584 C   0  0  0  0  0  0  0  0  0  0  0  0
  -24.1622  -12.9717   20.8488 C   0  0  0  0  0  0  0  0  0  0  0  0
  -30.5007  -31.0941   13.7994 C   0  0  0  0  0  0  0  0  0  0  0  0
  -29.2673  -23.9476   16.6774 C   0  0  0  0  0  0  0  0  0  0  0  0
  -29.8934  -29.8243   13.7660 C   0  0  0  0  0  0  0  0  0  0  0  0
  -30.5715  -23.4330   16.6982 C   0  0  0  0  0  0  0  0  0  0  0  0
  -30.4739  -17.5986   17.2190 C   0  0  0  0  0  0  0  0  0  0  0  0
  -22.3451   -8.1333   21.4512 C   0  0  0  0  0  0  0  0  0  0  0  0
  -29.7212  -21.2810   15.9528 C   0  0  0  0  0  0  0  0  0  0  0  0
  -20.8736   -6.9571   22.8561 C   0  0  0  0  0  0  0  0  0  0  0  0
  -19.3647   -6.8635   25.2006 C   0  0  0  0  0  0  0  0  0  0  0  0
  -21.1201   -5.9648   23.8049 C   0  0  0  0  0  0  0  0  0  0  0  0
  -24.5923  -11.6390   20.7044 C   0  0  0  0  0  0  0  0  0  0  0  0
  -32.6535  -17.2478   18.1037 C   0  0  0  0  0  0  0  0  0  0  0  0
  -30.9506  -17.8108   19.5393 C   0  0  0  0  0  0  0  0  0  0  0  0
  -25.2519  -13.7253   20.4867 C   0  0  0  0  0  0  0  0  0  0  0  0
  -22.8914  -13.4827   21.2726 C   0  0  0  0  0  0  0  0  0  0  0  0
  -30.5147  -26.6335   15.5226 C   0  0  0  0  0  0  0  0  0  0  0  0
  -32.3460  -26.4726   18.1951 C   0  0  0  0  0  0  0  0  0  0  0  0
  -33.7143  -24.5468   20.6580 C   0  0  0  0  0  0  0  0  0  0  0  0
  -30.7336  -14.7564   20.6683 C   0  0  0  0  0  0  0  0  0  0  0  0
  -31.9936  -31.2560   13.9405 C   0  0  0  0  0  0  0  0  0  0  0  0
  -29.0023  -25.3684   17.0936 C   0  0  0  0  0  0  0  0  0  0  0  0
  -31.7512  -24.2784   17.1009 C   0  0  0  0  0  0  0  0  0  0  0  0
  -32.6942  -30.0077   14.4708 C   0  0  0  0  0  0  0  0  0  0  0  0
  -29.5967  -12.3797   18.2734 C   0  0  0  0  0  0  0  0  0  0  0  0
  -32.2007  -28.7656   13.7356 C   0  0  0  0  0  0  0  0  0  0  0  0
  -28.1608  -12.0807   18.7080 C   0  0  0  0  0  0  0  0  0  0  0  0
  -30.5157  -12.5974   19.4734 C   0  0  0  0  0  0  0  0  0  0  0  0
  -28.6151  -13.3179   20.8671 C   0  0  0  0  0  0  0  0  0  0  0  0
  -30.6974  -28.5561   13.9538 C   0  0  1  0  0  0  0  0  0  0  0  0
  -30.2243  -26.2706   16.9514 C   0  0  1  0  0  0  0  0  0  0  0  0
  -27.6390  -13.1462   19.6906 C   0  0  2  0  0  0  0  0  0  0  0  0
  -34.0947  -16.9118   17.9113 C   0  0  0  0  0  0  0  0  0  0  0  0
  -28.3986  -16.6022   16.2031 C   0  0  0  0  0  0  0  0  0  0  0  0
  -35.1953  -24.6923   22.6786 C   0  0  0  0  0  0  0  0  0  0  0  0
  -28.9859  -18.4441   21.1001 C   0  0  0  0  0  0  0  0  0  0  0  0
  -31.2649  -19.3366   21.5068 C   0  0  0  0  0  0  0  0  0  0  0  0
  -34.7897  -26.7123   16.3837 C   0  0  0  0  0  0  0  0  0  0  0  0
  -36.1967  -25.9088   18.2924 C   0  0  0  0  0  0  0  0  0  0  0  0
  -34.9226  -28.0437   18.4966 C   0  0  0  0  0  0  0  0  0  0  0  0
  -31.5676  -23.5692   22.4455 C   0  0  0  0  0  0  0  0  0  0  0  0
  -30.7969  -16.9016   21.9145 C   0  0  0  0  0  0  0  0  0  0  0  0
  -28.9030  -19.0498   15.8620 C   0  0  0  0  0  0  0  0  0  1  0  0
  -29.5044  -17.6501   16.0486 C   0  0  1  0  0  0  0  0  0  0  0  0
  -33.6741  -25.8458   18.5449 C   0  0  1  0  0  0  0  0  0  0  0  0
  -33.7643  -24.7243   22.1648 C   0  0  2  0  0  0  0  0  0  0  0  0
  -30.5059  -18.0948   20.9352 C   0  0  0  0  0  0  0  0  0  0  0  0
  -34.8740  -26.6120   17.9199 C   0  0  0  0  0  0  0  0  0  0  0  0
  -25.8565  -11.5480   20.2831 N   0  0  0  0  0  0  0  0  0  0  0  0
  -32.2566  -17.5056   19.3701 N   0  0  0  0  0  0  0  0  0  0  0  0
  -26.2301  -12.8330   20.1597 N   0  0  0  0  0  0  0  0  0  0  0  0
  -31.4414  -25.6631   17.4935 N   0  0  0  0  0  0  0  0  0  0  0  0
  -29.9646  -13.6207   20.3650 N   0  0  0  0  0  0  0  0  0  0  0  0
  -25.4590  -15.0576   20.4191 N   0  0  0  0  0  0  0  0  0  0  0  0
  -21.8823  -12.5696   21.6079 N   0  0  0  0  0  0  0  0  0  0  0  0
  -30.4508  -27.9891   15.2623 N   0  0  0  0  0  0  0  0  0  0  0  0
  -33.7137  -25.7589   20.0007 N   0  0  0  0  0  0  0  0  0  0  0  0
  -30.1340  -15.6801   21.5157 N   0  0  0  0  0  0  0  0  0  0  0  0
  -32.9981  -23.6390   22.8400 N   0  3  0  0  0  0  0  0  0  0  0  0
  -22.6524  -14.7125   21.3359 O   0  0  0  0  0  0  0  0  0  0  0  0
  -30.7786  -25.7493   14.7163 O   0  0  0  0  0  0  0  0  0  0  0  0
  -32.1169  -27.6351   18.5382 O   0  0  0  0  0  0  0  0  0  0  0  0
  -33.6830  -23.4432   20.1181 O   0  0  0  0  0  0  0  0  0  0  0  0
  -31.8682  -14.9365   20.2132 O   0  0  0  0  0  0  0  0  0  0  0  0
  -21.6223   -7.0054   21.6921 O   0  0  0  0  0  0  0  0  0  0  0  0
  -29.9460  -19.9869   15.5969 O   0  0  0  0  0  0  0  0  0  1  0  0
  -18.6412   -6.8195   26.3270 F   0  0  0  0  0  0  0  0  0  0  0  0
  -22.0811   -5.0545   23.5963 F   0  0  0  0  0  0  0  0  0  0  0  0
  1  2  1  0  0  0  0
  1  5  2  0  0  0  0
  2  6  2  0  0  0  0
  3  8  2  0  0  0  0
  3 17  1  0  0  0  0
  4  9  1  0  0  0  0
  4 17  2  0  0  0  0
  5 19  1  0  0  0  0
  6 21  1  0  0  0  0
  7 10  2  0  0  0  0
  7 20  1  0  0  0  0
  8 24  1  0  0  0  0
  9 24  2  0  0  0  0
 10 25  1  0  0  0  0
 11 12  2  0  0  0  0
 11 26  1  0  0  0  0
 12 27  1  0  0  0  0
 13 22  1  0  0  0  0
 13 25  2  0  0  0  0
 14 23  1  0  0  0  0
 14 30  2  0  0  0  0
 15 23  2  0  0  0  0
 15 31  1  0  0  0  0
 16 27  2  0  0  0  0
 16 28  1  0  0  0  0
 17 29  1  0  0  0  0
 18 29  1  0  0  0  0
 18 32  2  0  0  0  0
 18 33  1  0  0  0  0
 19 21  2  0  0  0  0
 19 38  1  0  0  0  0
 20 22  2  0  0  0  0
 20 39  1  0  0  0  0
 21 47  1  0  0  0  0
 22 40  1  0  0  0  0
 23 61  1  0  0  0  0
 24 82  1  0  0  0  0
 25 83  1  0  0  0  0
 26 28  2  0  0  0  0
 26 82  1  0  0  0  0
 27 84  1  0  0  0  0
 28 85  1  0  0  0  0
 29 66  2  0  0  0  0
 30 50  1  0  0  0  0
 30 67  1  0  0  0  0
 31 64  1  0  0  0  0
 31 67  2  0  0  0  0
 32 68  1  0  0  0  0
 32 71  1  0  0  0  0
 33 72  1  0  0  0  0
 33 77  2  0  0  0  0
 34 48  1  0  0  0  0
 34 73  1  0  0  0  0
 34 78  2  0  0  0  0
 35 62  1  0  0  0  0
 35 69  1  0  0  0  0
 35 79  2  0  0  0  0
 36 63  1  0  0  0  0
 36 74  1  0  0  0  0
 36 80  2  0  0  0  0
 37 70  1  0  0  0  0
 37 75  1  0  0  0  0
 37 81  2  0  0  0  0
 38 41  1  0  0  0  0
 39 48  1  0  0  0  0
 40 69  1  0  0  0  0
 41 43  1  0  0  0  0
 42 44  1  0  0  0  0
 42 45  1  0  0  0  0
 43 47  1  0  0  0  0
 44 49  1  0  0  0  0
 45 70  1  0  0  0  0
 46 49  1  0  0  0  0
 46 70  1  0  0  0  0
 47 73  1  0  0  0  0
 48 69  1  0  0  0  0
 49 68  1  0  0  0  0
 51 61  1  0  0  0  0
 52 63  1  0  0  0  0
 53 64  1  0  0  0  0
 54 64  1  0  0  0  0
 55 65  1  0  0  0  0
 56 65  1  0  0  0  0
 57 65  1  0  0  0  0
 58 76  1  0  0  0  0
 59 64  1  0  0  0  0
 59 75  1  0  0  0  0
 60 61  1  0  0  0  0
 60 83  1  0  0  0  0
 62 65  1  0  0  0  0
 62 74  1  0  0  0  0
 63 76  1  0  0  0  0
 66 68  1  0  0  0  0
M  CHG  1  76   1
M  ISO  4  37 100  60 101  75 100  83 101
M  END
> <Batch ID>
0088

> <Smiles>
CNC(C)C(=O)NC(C(=O)N1Cc2cc([101O:1][101CH2:1]C(C)c3cc(C)nc(C(C)(C)C[100NH:0][100C:0](=O)N4CCCC(n5nc(-c6ccc(Oc7ccc(F)cc7F)cc6)c(C(N)=O)c5N)C4)c3)ccc2CC1C(=O)NC1CCCc2ccccc21)C(C)(C)C

> <Shape>
0.213

> <Color>
0.188

> <Negative vol penalty>
0.000

$$$$

  -OEChem-04052319043D

 85 93  0     1  0  0  0  0  0999 V2000
  -24.9435  -32.9156   23.7883 C   0  0  0  0  0  0  0  0  0  0  0  0
  -24.9489  -31.5599   24.1003 C   0  0  0  0  0  0  0  0  0  0  0  0
  -22.9856   -9.9302   19.9545 C   0  0  0  0  0  0  0  0  0  0  0  0
  -23.7756   -9.8743   22.2371 C   0  0  0  0  0  0  0  0  0  0  0  0
  -24.7903  -33.3244   22.4641 C   0  0  0  0  0  0  0  0  0  0  0  0
  -24.8001  -30.6121   23.0884 C   0  0  0  0  0  0  0  0  0  0  0  0
  -27.4238  -25.0856   22.8057 C   0  0  0  0  0  0  0  0  0  0  0  0
  -22.2198   -8.7888   20.1916 C   0  0  0  0  0  0  0  0  0  0  0  0
  -23.0096   -8.7328   22.4742 C   0  0  0  0  0  0  0  0  0  0  0  0
  -26.9597  -23.8096   23.1223 C   0  0  0  0  0  0  0  0  0  0  0  0
  -23.2196   -5.4172   21.8469 C   0  0  0  0  0  0  0  0  0  0  0  0
  -23.8216   -4.3644   22.5359 C   0  0  0  0  0  0  0  0  0  0  0  0
  -26.3807  -23.4524   20.8079 C   0  0  0  0  0  0  0  0  0  0  0  0
  -26.4859  -19.0385   20.8693 C   0  0  0  0  0  0  0  0  0  0  0  0
  -28.5426  -18.7420   22.1018 C   0  0  0  0  0  0  0  0  0  0  0  0
  -22.1470   -4.5407   24.2685 C   0  0  0  0  0  0  0  0  0  0  0  0
  -23.7636  -10.4729   20.9773 C   0  0  0  0  0  0  0  0  0  0  0  0
  -24.1597  -12.9919   20.9029 C   0  0  0  0  0  0  0  0  0  0  0  0
  -24.6492  -32.3809   21.4343 C   0  0  0  0  0  0  0  0  0  0  0  0
  -27.3597  -25.5595   21.4874 C   0  0  0  0  0  0  0  0  0  0  0  0
  -24.6435  -31.0087   21.7494 C   0  0  0  0  0  0  0  0  0  0  0  0
  -26.8470  -24.7338   20.4767 C   0  0  0  0  0  0  0  0  0  0  0  0
  -27.1962  -19.1050   22.0679 C   0  0  0  0  0  0  0  0  0  0  0  0
  -27.1219  -18.6088   19.7046 C   0  0  0  0  0  0  0  0  0  0  0  0
  -29.1786  -18.3123   20.9370 C   0  0  0  0  0  0  0  0  0  0  0  0
  -28.4682  -18.2458   19.7384 C   0  0  0  0  0  0  0  0  0  0  0  0
  -22.2317   -8.1901   21.4514 C   0  0  0  0  0  0  0  0  0  0  0  0
  -26.4354  -22.9939   22.1239 C   0  0  0  0  0  0  0  0  0  0  0  0
  -22.0813   -6.0319   22.3688 C   0  0  0  0  0  0  0  0  0  0  0  0
  -23.2853   -3.9261   23.7467 C   0  0  0  0  0  0  0  0  0  0  0  0
  -21.5450   -5.5936   23.5795 C   0  0  0  0  0  0  0  0  0  0  0  0
  -24.5554  -11.6516   20.7329 C   0  0  0  0  0  0  0  0  0  0  0  0
  -25.2633  -13.7245   20.5398 C   0  0  0  0  0  0  0  0  0  0  0  0
  -22.9065  -13.5268   21.3492 C   0  0  0  0  0  0  0  0  0  0  0  0
  -25.8861  -27.9766   20.0418 C   0  0  0  0  0  0  0  0  0  0  0  0
  -27.6089  -26.9836   17.4790 C   0  0  0  0  0  0  0  0  0  0  0  0
  -29.2700  -24.4481   15.9110 C   0  0  0  0  0  0  0  0  0  0  0  0
  -30.7703  -14.6193   20.6739 C   0  0  0  0  0  0  0  0  0  0  0  0
  -24.4391  -32.8719   20.0238 C   0  0  0  0  0  0  0  0  0  0  0  0
  -27.8891  -26.9282   21.1575 C   0  0  0  0  0  0  0  0  0  0  0  0
  -26.7747  -25.1877   19.0424 C   0  0  0  0  0  0  0  0  0  0  0  0
  -24.6628  -31.7956   18.9646 C   0  0  0  0  0  0  0  0  0  0  0  0
  -29.5489  -12.3089   18.2558 C   0  0  0  0  0  0  0  0  0  0  0  0
  -23.9546  -30.5034   19.3586 C   0  0  0  0  0  0  0  0  0  0  0  0
  -28.1111  -12.0380   18.7023 C   0  0  0  0  0  0  0  0  0  0  0  0
  -30.4864  -12.4853   19.4483 C   0  0  0  0  0  0  0  0  0  0  0  0
  -28.6197  -13.2297   20.8749 C   0  0  0  0  0  0  0  0  0  0  0  0
  -24.5097  -29.9498   20.6765 C   0  0  1  0  0  0  0  0  0  0  0  0
  -27.3016  -27.5022   19.8719 C   0  0  1  0  0  0  0  0  0  0  0  0
  -27.6265  -13.1002   19.7073 C   0  0  2  0  0  0  0  0  0  0  0  0
  -29.1500  -17.7856   18.4894 C   0  0  0  0  0  0  0  0  0  0  0  0
  -26.6519  -19.7167   17.5050 C   0  0  0  0  0  0  0  0  0  0  0  0
  -31.5150  -19.1224   21.3939 C   0  0  0  0  0  0  0  0  0  0  0  0
  -30.5423  -23.9286   13.8113 C   0  0  0  0  0  0  0  0  0  0  0  0
  -24.9860  -26.8486   15.9259 C   0  0  0  0  0  0  0  0  0  0  0  0
  -26.1566  -25.4552   14.2064 C   0  0  0  0  0  0  0  0  0  0  0  0
  -26.9122  -27.7926   14.6403 C   0  0  0  0  0  0  0  0  0  0  0  0
  -31.7314  -23.8051   17.4234 C   0  0  0  0  0  0  0  0  0  0  0  0
  -26.5078  -19.5692   23.3284 C   0  0  0  0  0  0  0  0  0  0  0  0
  -26.3389  -18.5476   18.4338 C   0  0  0  0  0  0  0  0  0  0  0  0
  -30.9000  -16.7425   21.9523 C   0  0  0  0  0  0  0  0  0  0  0  0
  -26.6095  -21.0782   23.5224 C   0  0  0  0  0  0  0  0  0  1  0  0
  -30.6212  -17.9293   20.9999 C   0  0  1  0  0  0  0  0  0  0  0  0
  -27.3853  -25.9983   16.3573 C   0  0  1  0  0  0  0  0  0  0  0  0
  -30.6384  -24.3938   15.2560 C   0  0  2  0  0  0  0  0  0  0  0  0
  -26.3594  -26.5156   15.3098 C   0  0  0  0  0  0  0  0  0  0  0  0
  -25.8122  -11.5366   20.2956 N   0  0  0  0  0  0  0  0  0  0  0  0
  -26.2158  -12.8140   20.1877 N   0  0  0  0  0  0  0  0  0  0  0  0
  -27.2990  -26.5364   18.7712 N   0  0  0  0  0  0  0  0  0  0  0  0
  -29.9704  -13.5075   20.3620 N   0  0  0  0  0  0  0  0  0  0  0  0
  -25.5022  -15.0522   20.4904 N   0  0  0  0  0  0  0  0  0  0  0  0
  -21.8793  -12.6334   21.6820 N   0  0  0  0  0  0  0  0  0  0  0  0
  -25.7790  -29.2914   20.4534 N   0  0  0  0  0  0  0  0  0  0  0  0
  -28.7031  -25.7007   15.8067 N   0  0  0  0  0  0  0  0  0  0  0  0
  -30.2030  -15.5438   21.5423 N   0  0  0  0  0  0  0  0  0  0  0  0
  -31.5291  -23.4542   15.9941 N   0  3  0  0  0  0  0  0  0  0  0  0
  -22.6984  -14.7609   21.4342 O   0  0  0  0  0  0  0  0  0  0  0  0
  -24.9596  -27.2073   19.8148 O   0  0  0  0  0  0  0  0  0  0  0  0
  -28.0492  -28.1062   17.2190 O   0  0  0  0  0  0  0  0  0  0  0  0
  -28.7539  -23.4755   16.4571 O   0  0  0  0  0  0  0  0  0  0  0  0
  -31.9038  -14.7789   20.2085 O   0  0  0  0  0  0  0  0  0  0  0  0
  -21.4843   -7.0765   21.6831 O   0  0  0  0  0  0  0  0  0  0  0  0
  -25.9811  -21.7483   22.4304 O   0  0  0  0  0  0  0  0  0  1  0  0
  -23.8626   -2.9141   24.4075 F   0  0  0  0  0  0  0  0  0  0  0  0
  -20.4510   -6.1794   24.0852 F   0  0  0  0  0  0  0  0  0  0  0  0
  1  2  1  0  0  0  0
  1  5  2  0  0  0  0
  2  6  2  0  0  0  0
  3  8  2  0  0  0  0
  3 17  1  0  0  0  0
  4  9  1  0  0  0  0
  4 17  2  0  0  0  0
  5 19  1  0  0  0  0
  6 21  1  0  0  0  0
  7 10  2  0  0  0  0
  7 20  1  0  0  0  0
  8 27  1  0  0  0  0
  9 27  2  0  0  0  0
 10 28  1  0  0  0  0
 11 12  2  0  0  0  0
 11 29  1  0  0  0  0
 12 30  1  0  0  0  0
 13 22  1  0  0  0  0
 13 28  2  0  0  0  0
 14 23  2  0  0  0  0
 14 24  1  0  0  0  0
 15 23  1  0  0  0  0
 15 25  2  0  0  0  0
 16 30  2  0  0  0  0
 16 31  1  0  0  0  0
 17 32  1  0  0  0  0
 18 32  1  0  0  0  0
 18 33  2  0  0  0  0
 18 34  1  0  0  0  0
 19 21  2  0  0  0  0
 19 39  1  0  0  0  0
 20 22  2  0  0  0  0
 20 40  1  0  0  0  0
 21 48  1  0  0  0  0
 22 41  1  0  0  0  0
 23 59  1  0  0  0  0
 24 26  2  0  0  0  0
 24 60  1  0  0  0  0
 25 26  1  0  0  0  0
 25 63  1  0  0  0  0
 26 51  1  0  0  0  0
 27 82  1  0  0  0  0
 28 83  1  0  0  0  0
 29 31  2  0  0  0  0
 29 82  1  0  0  0  0
 30 84  1  0  0  0  0
 31 85  1  0  0  0  0
 32 67  2  0  0  0  0
 33 68  1  0  0  0  0
 33 71  1  0  0  0  0
 34 72  1  0  0  0  0
 34 77  2  0  0  0  0
 35 49  1  0  0  0  0
 35 73  1  0  0  0  0
 35 78  2  0  0  0  0
 36 64  1  0  0  0  0
 36 69  1  0  0  0  0
 36 79  2  0  0  0  0
 37 65  1  0  0  0  0
 37 74  1  0  0  0  0
 37 80  2  0  0  0  0
 38 70  1  0  0  0  0
 38 75  1  0  0  0  0
 38 81  2  0  0  0  0
 39 42  1  0  0  0  0
 40 49  1  0  0  0  0
 41 69  1  0  0  0  0
 42 44  1  0  0  0  0
 43 45  1  0  0  0  0
 43 46  1  0  0  0  0
 44 48  1  0  0  0  0
 45 50  1  0  0  0  0
 46 70  1  0  0  0  0
 47 50  1  0  0  0  0
 47 70  1  0  0  0  0
 48 73  1  0  0  0  0
 49 69  1  0  0  0  0
 50 68  1  0  0  0  0
 52 60  1  0  0  0  0
 53 63  1  0  0  0  0
 54 65  1  0  0  0  0
 55 66  1  0  0  0  0
 56 66  1  0  0  0  0
 57 66  1  0  0  0  0
 58 76  1  0  0  0  0
 59 62  1  0  0  0  0
 61 63  1  0  0  0  0
 61 75  1  0  0  0  0
 62 83  1  0  0  0  0
 64 66  1  0  0  0  0
 64 74  1  0  0  0  0
 65 76  1  0  0  0  0
 67 68  1  0  0  0  0
M  CHG  1  76   1
M  ISO  4  38 100  62 101  75 100  83 101
M  END
> <Batch ID>
0088

> <Smiles>
CCc1cc(C[101CH2:1][101O:1]c2ccc3c(c2)CN(C(=O)C(NC(=O)C(C)NC)C(C)(C)C)C(C(=O)NC2CCCc4ccccc42)C3)cc(C(C)C[100NH:0][100C:0](=O)N2CCCC(n3nc(-c4ccc(Oc5ccc(F)cc5F)cc4)c(C(N)=O)c3N)C2)c1C

> <Shape>
0.313

> <Color>
0.199

> <Negative vol penalty>
0.000

$$$$

  -OEChem-04052319043D

 83 91  0     1  0  0  0  0  0999 V2000
  -16.6311  -29.7801   23.7508 C   0  0  0  0  0  0  0  0  0  0  0  0
  -17.7147  -30.4597   24.2979 C   0  0  0  0  0  0  0  0  0  0  0  0
  -28.0567  -21.3851   22.5887 C   0  0  0  0  0  0  0  0  0  0  0  0
  -29.6328  -22.5858   23.9712 C   0  0  0  0  0  0  0  0  0  0  0  0
  -16.8417  -28.6250   22.9988 C   0  0  0  0  0  0  0  0  0  0  0  0
  -19.0096  -29.9841   24.0942 C   0  0  0  0  0  0  0  0  0  0  0  0
  -25.7412  -32.2933   23.2764 C   0  0  0  0  0  0  0  0  0  0  0  0
  -27.9908  -20.3713   23.5444 C   0  0  0  0  0  0  0  0  0  0  0  0
  -29.5668  -21.5720   24.9270 C   0  0  0  0  0  0  0  0  0  0  0  0
  -27.0192  -32.0932   23.7965 C   0  0  0  0  0  0  0  0  0  0  0  0
  -27.4624  -20.6042   27.3878 C   0  0  0  0  0  0  0  0  0  0  0  0
  -27.3400  -20.9829   28.7246 C   0  0  0  0  0  0  0  0  0  0  0  0
  -27.2683  -30.1322   22.4139 C   0  0  0  0  0  0  0  0  0  0  0  0
  -29.4143  -19.8541   29.2344 C   0  0  0  0  0  0  0  0  0  0  0  0
  -31.4784  -31.0259   19.7240 C   0  0  0  0  0  0  0  0  0  0  0  0
  -28.8778  -22.4923   22.8020 C   0  0  0  0  0  0  0  0  0  0  0  0
  -28.1387  -24.6897   21.7377 C   0  0  0  0  0  0  0  0  0  0  0  0
  -18.1405  -28.1404   22.7778 C   0  0  0  0  0  0  0  0  0  0  0  0
  -25.2120  -31.4066   22.3276 C   0  0  0  0  0  0  0  0  0  0  0  0
  -19.2377  -28.8207   23.3397 C   0  0  0  0  0  0  0  0  0  0  0  0
  -25.9843  -30.3247   21.8814 C   0  0  0  0  0  0  0  0  0  0  0  0
  -28.7457  -20.4647   24.7136 C   0  0  0  0  0  0  0  0  0  0  0  0
  -27.7818  -31.0109   23.3674 C   0  0  0  0  0  0  0  0  0  0  0  0
  -28.5608  -19.8503   26.9742 C   0  0  0  0  0  0  0  0  0  0  0  0
  -28.3159  -20.6079   29.6479 C   0  0  0  0  0  0  0  0  0  0  0  0
  -29.5368  -19.4753   27.8976 C   0  0  0  0  0  0  0  0  0  0  0  0
  -28.9469  -23.5396   21.8149 C   0  0  0  0  0  0  0  0  0  0  0  0
  -32.4859  -30.7020   18.8597 C   0  0  0  0  0  0  0  0  0  0  0  0
  -28.6000  -25.3599   20.6311 C   0  0  0  0  0  0  0  0  0  0  0  0
  -33.2298  -32.2886   20.2125 C   0  0  0  0  0  0  0  0  0  0  0  0
  -27.0668  -25.1143   22.5901 C   0  0  0  0  0  0  0  0  0  0  0  0
  -22.7069  -29.4522   22.2360 C   0  0  0  0  0  0  0  0  0  0  0  0
  -23.6290  -29.0464   19.1526 C   0  0  0  0  0  0  0  0  0  0  0  0
  -26.1318  -29.1757   16.8360 C   0  0  0  0  0  0  0  0  0  0  0  0
  -32.8072  -27.2742   17.5038 C   0  0  0  0  0  0  0  0  0  0  0  0
  -18.3151  -26.8613   21.9978 C   0  0  0  0  0  0  0  0  0  0  0  0
  -23.8422  -31.6516   21.7566 C   0  0  0  0  0  0  0  0  0  0  0  0
  -25.4701  -29.3554   20.8497 C   0  0  0  0  0  0  0  0  0  0  0  0
  -19.7450  -26.6330   21.5145 C   0  0  0  0  0  0  0  0  0  0  0  0
  -31.7953  -23.8992   16.9921 C   0  0  0  0  0  0  0  0  0  0  0  0
  -20.7379  -26.8949   22.6425 C   0  0  0  0  0  0  0  0  0  0  0  0
  -30.9030  -23.5981   18.1975 C   0  0  0  0  0  0  0  0  0  0  0  0
  -32.9652  -24.8058   17.3684 C   0  0  0  0  0  0  0  0  0  0  0  0
  -31.6919  -25.7581   19.2514 C   0  0  0  0  0  0  0  0  0  0  0  0
  -20.6590  -28.3499   23.1202 C   0  0  1  0  0  0  0  0  0  0  0  0
  -23.2034  -30.3939   21.1756 C   0  0  1  0  0  0  0  0  0  0  0  0
  -30.4669  -24.8927   18.9097 C   0  0  2  0  0  0  0  0  0  0  0  0
  -34.1232  -33.2880   20.8495 C   0  0  0  0  0  0  0  0  0  0  0  0
  -26.5904  -28.7504   14.4058 C   0  0  0  0  0  0  0  0  0  0  0  0
  -31.7710  -30.3692   24.7819 C   0  0  0  0  0  0  0  0  0  0  0  0
  -23.6449  -26.0418   19.6839 C   0  0  0  0  0  0  0  0  0  0  0  0
  -24.9901  -25.7496   17.5927 C   0  0  0  0  0  0  0  0  0  0  0  0
  -22.6889  -26.7047   17.4700 C   0  0  0  0  0  0  0  0  0  0  0  0
  -26.8880  -31.9980   16.3655 C   0  0  0  0  0  0  0  0  0  0  0  0
  -32.5480  -29.7284   17.7666 C   0  0  0  0  0  0  0  0  0  0  0  0
  -31.5888  -32.1897   23.0674 C   0  0  0  0  0  0  0  0  0  0  0  0
  -31.1931  -32.6695   21.6640 C   0  0  0  0  0  0  0  0  0  0  0  0
  -29.9831  -30.1796   23.0222 C   0  0  0  0  0  0  0  0  0  1  0  0
  -24.5623  -28.1045   18.4309 C   0  0  1  0  0  0  0  0  0  0  0  0
  -26.1875  -29.7838   15.4462 C   0  0  2  0  0  0  0  0  0  0  0  0
  -31.4025  -30.6782   23.3252 C   0  0  2  0  0  0  0  0  0  0  0  0
  -23.9808  -26.6671   18.3152 C   0  0  0  0  0  0  0  0  0  0  0  0
  -29.8528  -23.4794   20.8353 N   0  0  0  0  0  0  0  0  0  0  0  0
  -31.9666  -32.0096   20.5499 N   0  0  0  0  0  0  0  0  0  0  0  0
  -29.6166  -24.6000   20.1320 N   0  0  0  0  0  0  0  0  0  0  0  0
  -33.5572  -31.4987   19.1847 N   0  3  0  0  0  0  0  0  0  0  0  0
  -24.1226  -29.6339   20.3260 N   0  0  0  0  0  0  0  0  0  0  0  0
  -32.4836  -26.0162   18.0384 N   0  0  0  0  0  0  0  0  0  0  0  0
  -28.2310  -26.5192   20.0460 N   0  0  0  0  0  0  0  0  0  0  0  0
  -26.7223  -24.3070   23.6828 N   0  0  0  0  0  0  0  0  0  0  0  0
  -21.3447  -29.2242   22.1929 N   0  0  0  0  0  0  0  0  0  0  0  0
  -24.8643  -28.7318   17.1489 N   0  0  0  0  0  0  0  0  0  0  0  0
  -32.3057  -28.3693   18.1967 N   0  0  0  0  0  0  0  0  0  0  0  0
  -27.1752  -30.8991   15.4080 N   0  3  0  0  0  0  0  0  0  0  0  0
  -26.4226  -26.1697   22.3793 O   0  0  0  0  0  0  0  0  0  0  0  0
  -23.5012  -28.9672   23.0333 O   0  0  0  0  0  0  0  0  0  0  0  0
  -22.5061  -29.2588   18.6882 O   0  0  0  0  0  0  0  0  0  0  0  0
  -27.1151  -29.0986   17.5693 O   0  0  0  0  0  0  0  0  0  0  0  0
  -33.4879  -27.4112   16.4816 O   0  0  0  0  0  0  0  0  0  0  0  0
  -28.6814  -19.4758   25.6465 O   0  0  0  0  0  0  0  0  0  0  0  0
  -29.0293  -30.8129   23.8739 O   0  0  0  0  0  0  0  0  0  1  0  0
  -28.1989  -20.9730   30.9314 F   0  0  0  0  0  0  0  0  0  0  0  0
  -30.5948  -18.7521   27.5060 F   0  0  0  0  0  0  0  0  0  0  0  0
  1  2  1  0  0  0  0
  1  5  2  0  0  0  0
  2  6  2  0  0  0  0
  3  8  2  0  0  0  0
  3 16  1  0  0  0  0
  4  9  1  0  0  0  0
  4 16  2  0  0  0  0
  5 18  1  0  0  0  0
  6 20  1  0  0  0  0
  7 10  2  0  0  0  0
  7 19  1  0  0  0  0
  8 22  1  0  0  0  0
  9 22  2  0  0  0  0
 10 23  1  0  0  0  0
 11 12  2  0  0  0  0
 11 24  1  0  0  0  0
 12 25  1  0  0  0  0
 13 21  1  0  0  0  0
 13 23  2  0  0  0  0
 14 25  2  0  0  0  0
 14 26  1  0  0  0  0
 15 28  2  0  0  0  0
 15 64  1  0  0  0  0
 16 27  1  0  0  0  0
 17 27  1  0  0  0  0
 17 29  2  0  0  0  0
 17 31  1  0  0  0  0
 18 20  2  0  0  0  0
 18 36  1  0  0  0  0
 19 21  2  0  0  0  0
 19 37  1  0  0  0  0
 20 45  1  0  0  0  0
 21 38  1  0  0  0  0
 22 80  1  0  0  0  0
 23 81  1  0  0  0  0
 24 26  2  0  0  0  0
 24 80  1  0  0  0  0
 25 82  1  0  0  0  0
 26 83  1  0  0  0  0
 27 63  2  0  0  0  0
 28 55  1  0  0  0  0
 28 66  1  0  0  0  0
 29 65  1  0  0  0  0
 29 69  1  0  0  0  0
 30 48  1  0  0  0  0
 30 64  1  0  0  0  0
 30 66  2  0  0  0  0
 31 70  1  0  0  0  0
 31 75  2  0  0  0  0
 32 46  1  0  0  0  0
 32 71  1  0  0  0  0
 32 76  2  0  0  0  0
 33 59  1  0  0  0  0
 33 67  1  0  0  0  0
 33 77  2  0  0  0  0
 34 60  1  0  0  0  0
 34 72  1  0  0  0  0
 34 78  2  0  0  0  0
 35 68  1  0  0  0  0
 35 73  1  0  0  0  0
 35 79  2  0  0  0  0
 36 39  1  0  0  0  0
 37 46  1  0  0  0  0
 38 67  1  0  0  0  0
 39 41  1  0  0  0  0
 40 42  1  0  0  0  0
 40 43  1  0  0  0  0
 41 45  1  0  0  0  0
 42 47  1  0  0  0  0
 43 68  1  0  0  0  0
 44 47  1  0  0  0  0
 44 68  1  0  0  0  0
 45 71  1  0  0  0  0
 46 67  1  0  0  0  0
 47 65  1  0  0  0  0
 49 60  1  0  0  0  0
 50 61  1  0  0  0  0
 51 62  1  0  0  0  0
 52 62  1  0  0  0  0
 53 62  1  0  0  0  0
 54 74  1  0  0  0  0
 55 73  1  0  0  0  0
 56 57  1  0  0  0  0
 56 61  1  0  0  0  0
 57 64  1  0  0  0  0
 58 61  1  0  0  0  0
 58 81  1  0  0  0  0
 59 62  1  0  0  0  0
 59 72  1  0  0  0  0
 60 74  1  0  0  0  0
 63 65  1  0  0  0  0
M  CHG  2  66   1  74   1
M  ISO  4  35 100  58 101  73 100  81 101
M  END
> <Batch ID>
0088

> <Smiles>
CNC(C)C(=O)NC(C(=O)N1Cc2cc([101O:1][101CH2:1]C(C)CCn3cc(C[100NH:0][100C:0](=O)N4CCCC(n5nc(-c6ccc(Oc7ccc(F)cc7F)cc6)c(C(N)=O)c5N)C4)nc3C)ccc2CC1C(=O)NC1CCCc2ccccc21)C(C)(C)C

> <Shape>
0.195

> <Color>
0.107

> <Negative vol penalty>
0.000

$$$$

  -OEChem-04052319043D

 83 90  0     1  0  0  0  0  0999 V2000
  -22.1580  -11.2982   20.3829 C   0  0  0  0  0  0  0  0  0  0  0  0
  -21.7243  -12.6195   20.4217 C   0  0  0  0  0  0  0  0  0  0  0  0
  -30.2028  -27.5908   19.3188 C   0  0  0  0  0  0  0  0  0  0  0  0
  -29.7733  -26.6242   21.4910 C   0  0  0  0  0  0  0  0  0  0  0  0
  -23.4991  -10.9988   20.6190 C   0  0  0  0  0  0  0  0  0  0  0  0
  -22.6312  -13.6420   20.6978 C   0  0  0  0  0  0  0  0  0  0  0  0
  -22.5992  -19.3141   18.3886 C   0  0  0  0  0  0  0  0  0  0  0  0
  -31.5732  -27.4191   19.5134 C   0  0  0  0  0  0  0  0  0  0  0  0
  -31.1438  -26.4525   21.6856 C   0  0  0  0  0  0  0  0  0  0  0  0
  -22.1334  -20.5286   18.8905 C   0  0  0  0  0  0  0  0  0  0  0  0
  -35.2060  -27.5645   19.5900 C   0  0  0  0  0  0  0  0  0  0  0  0
  -36.0477  -28.6257   19.2571 C   0  0  0  0  0  0  0  0  0  0  0  0
  -24.3561  -21.0530   19.6675 C   0  0  0  0  0  0  0  0  0  0  0  0
  -34.9087  -30.0315   20.8583 C   0  0  0  0  0  0  0  0  0  0  0  0
  -29.3027  -27.1934   20.3077 C   0  0  0  0  0  0  0  0  0  0  0  0
  -26.9897  -26.4569   19.5236 C   0  0  0  0  0  0  0  0  0  0  0  0
  -24.4248  -12.0191   20.8886 C   0  0  0  0  0  0  0  0  0  0  0  0
  -23.9470  -18.9546   18.5323 C   0  0  0  0  0  0  0  0  0  0  0  0
  -23.9857  -13.3558   20.9390 C   0  0  0  0  0  0  0  0  0  0  0  0
  -24.8370  -19.8346   19.1643 C   0  0  0  0  0  0  0  0  0  0  0  0
  -32.0438  -26.8499   20.6967 C   0  0  0  0  0  0  0  0  0  0  0  0
  -23.0112  -21.3970   19.5326 C   0  0  0  0  0  0  0  0  0  0  0  0
  -34.2155  -27.7368   20.5569 C   0  0  0  0  0  0  0  0  0  0  0  0
  -35.8992  -29.8592   19.8913 C   0  0  0  0  0  0  0  0  0  0  0  0
  -34.0669  -28.9702   21.1911 C   0  0  0  0  0  0  0  0  0  0  0  0
  -27.8869  -27.3710   20.1076 C   0  0  0  0  0  0  0  0  0  0  0  0
  -25.7736  -27.0938   19.5675 C   0  0  0  0  0  0  0  0  0  0  0  0
  -27.2336  -25.1489   18.9894 C   0  0  0  0  0  0  0  0  0  0  0  0
  -25.4952  -16.5923   19.9906 C   0  0  0  0  0  0  0  0  0  0  0  0
  -28.0765  -17.9036   18.5279 C   0  0  0  0  0  0  0  0  0  0  0  0
  -29.5239  -20.6582   17.1265 C   0  0  0  0  0  0  0  0  0  0  0  0
  -21.9688  -30.1366   22.2896 C   0  0  0  0  0  0  0  0  0  0  0  0
  -25.8550  -11.6422   21.1841 C   0  0  0  0  0  0  0  0  0  0  0  0
  -24.4392  -17.6528   17.9617 C   0  0  0  0  0  0  0  0  0  0  0  0
  -26.2976  -19.5046   19.3264 C   0  0  0  0  0  0  0  0  0  0  0  0
  -26.8247  -12.8181   21.0995 C   0  0  0  0  0  0  0  0  0  0  0  0
  -24.6075  -31.8915   20.6667 C   0  0  0  0  0  0  0  0  0  0  0  0
  -26.2625  -14.0279   21.8392 C   0  0  0  0  0  0  0  0  0  0  0  0
  -25.6240  -30.7978   20.3343 C   0  0  0  0  0  0  0  0  0  0  0  0
  -23.9207  -31.6354   22.0063 C   0  0  0  0  0  0  0  0  0  0  0  0
  -24.3153  -29.2109   21.8066 C   0  0  0  0  0  0  0  0  0  0  0  0
  -24.9440  -14.4951   21.2107 C   0  0  1  0  0  0  0  0  0  0  0  0
  -25.7251  -17.1607   18.6188 C   0  0  1  0  0  0  0  0  0  0  0  0
  -24.9936  -29.3960   20.4384 C   0  0  2  0  0  0  0  0  0  0  0  0
  -17.8903  -27.4855   16.8600 C   0  0  0  0  0  0  0  0  0  0  0  0
  -31.6554  -21.4320   16.0517 C   0  0  0  0  0  0  0  0  0  0  0  0
  -20.2799  -28.5223   18.3302 C   0  0  0  0  0  0  0  0  0  0  0  0
  -17.7804  -28.5884   21.5790 C   0  0  0  0  0  0  0  0  0  0  0  0
  -29.4124  -18.0226   21.2686 C   0  0  0  0  0  0  0  0  0  0  0  0
  -31.0787  -19.6263   20.3095 C   0  0  0  0  0  0  0  0  0  0  0  0
  -30.9181  -17.3074   19.4043 C   0  0  0  0  0  0  0  0  0  0  0  0
  -28.1451  -21.3072   14.5894 C   0  0  0  0  0  0  0  0  0  0  0  0
  -18.0173  -27.3750   18.3753 C   0  0  0  0  0  0  0  0  0  0  0  0
  -19.3497  -24.5647   20.3393 C   0  0  0  0  0  0  0  0  0  0  0  0
  -20.8328  -24.2141   20.4934 C   0  0  0  0  0  0  0  0  0  0  0  0
  -18.9618  -25.9017   20.9870 C   0  0  0  0  0  0  0  0  0  0  0  0
  -20.1106  -28.5098   22.5342 C   0  0  0  0  0  0  0  0  0  0  0  0
  -21.1757  -22.8758   19.8486 C   0  0  0  0  0  0  0  0  0  1  0  0
  -29.0835  -18.9688   18.8890 C   0  0  1  0  0  0  0  0  0  0  0  0
  -30.2706  -20.8484   15.8185 C   0  0  2  0  0  0  0  0  0  0  0  0
  -19.4772  -27.3224   18.8611 C   0  0  2  0  0  0  0  0  0  0  0  0
  -19.2728  -28.4605   21.2365 C   0  0  1  0  0  0  0  0  0  0  0  0
  -19.6424  -27.1737   20.4136 C   0  0  1  0  0  0  0  0  0  0  0  0
  -30.0953  -18.4869   19.9666 C   0  0  0  0  0  0  0  0  0  0  0  0
  -27.2917  -28.5026   20.4939 N   0  0  0  0  0  0  0  0  0  0  0  0
  -26.0073  -28.3037   20.1520 N   0  0  0  0  0  0  0  0  0  0  0  0
  -26.7294  -18.2173   18.7572 N   0  0  0  0  0  0  0  0  0  0  0  0
  -23.3425  -30.2898   22.0394 N   0  0  0  0  0  0  0  0  0  0  0  0
  -24.5378  -26.7313   19.1627 N   0  0  0  0  0  0  0  0  0  0  0  0
  -28.5416  -24.6465   19.0236 N   0  0  0  0  0  0  0  0  0  0  0  0
  -25.1991  -15.2426   19.9980 N   0  0  0  0  0  0  0  0  0  0  0  0
  -29.7004  -19.3890   17.6355 N   0  0  0  0  0  0  0  0  0  0  0  0
  -21.5010  -28.8282   22.2974 N   0  0  0  0  0  0  0  0  0  0  0  0
  -29.5174  -21.7696   14.9213 N   0  3  0  0  0  0  0  0  0  0  0  0
  -26.3218  -24.4532   18.4814 O   0  0  0  0  0  0  0  0  0  0  0  0
  -25.5815  -17.3239   20.9699 O   0  0  0  0  0  0  0  0  0  0  0  0
  -28.4702  -16.8354   18.0530 O   0  0  0  0  0  0  0  0  0  0  0  0
  -28.8542  -21.5479   17.6467 O   0  0  0  0  0  0  0  0  0  0  0  0
  -21.2141  -31.0952   22.4860 O   0  0  0  0  0  0  0  0  0  0  0  0
  -33.3810  -26.6820   20.8868 O   0  0  0  0  0  0  0  0  0  0  0  0
  -22.5556  -22.5917   20.0277 O   0  0  0  0  0  0  0  0  0  1  0  0
  -36.7086  -30.8777   19.5727 F   0  0  0  0  0  0  0  0  0  0  0  0
  -33.1179  -29.1414   22.1217 F   0  0  0  0  0  0  0  0  0  0  0  0
  1  2  1  0  0  0  0
  1  5  2  0  0  0  0
  2  6  2  0  0  0  0
  3  8  2  0  0  0  0
  3 15  1  0  0  0  0
  4  9  1  0  0  0  0
  4 15  2  0  0  0  0
  5 17  1  0  0  0  0
  6 19  1  0  0  0  0
  7 10  2  0  0  0  0
  7 18  1  0  0  0  0
  8 21  1  0  0  0  0
  9 21  2  0  0  0  0
 10 22  1  0  0  0  0
 11 12  2  0  0  0  0
 11 23  1  0  0  0  0
 12 24  1  0  0  0  0
 13 20  1  0  0  0  0
 13 22  2  0  0  0  0
 14 24  2  0  0  0  0
 14 25  1  0  0  0  0
 15 26  1  0  0  0  0
 16 26  1  0  0  0  0
 16 27  2  0  0  0  0
 16 28  1  0  0  0  0
 17 19  2  0  0  0  0
 17 33  1  0  0  0  0
 18 20  2  0  0  0  0
 18 34  1  0  0  0  0
 19 42  1  0  0  0  0
 20 35  1  0  0  0  0
 21 80  1  0  0  0  0
 22 81  1  0  0  0  0
 23 25  2  0  0  0  0
 23 80  1  0  0  0  0
 24 82  1  0  0  0  0
 25 83  1  0  0  0  0
 26 65  2  0  0  0  0
 27 66  1  0  0  0  0
 27 69  1  0  0  0  0
 28 70  1  0  0  0  0
 28 75  2  0  0  0  0
 29 43  1  0  0  0  0
 29 71  1  0  0  0  0
 29 76  2  0  0  0  0
 30 59  1  0  0  0  0
 30 67  1  0  0  0  0
 30 77  2  0  0  0  0
 31 60  1  0  0  0  0
 31 72  1  0  0  0  0
 31 78  2  0  0  0  0
 32 68  1  0  0  0  0
 32 73  1  0  0  0  0
 32 79  2  0  0  0  0
 33 36  1  0  0  0  0
 34 43  1  0  0  0  0
 35 67  1  0  0  0  0
 36 38  1  0  0  0  0
 37 39  1  0  0  0  0
 37 40  1  0  0  0  0
 38 42  1  0  0  0  0
 39 44  1  0  0  0  0
 40 68  1  0  0  0  0
 41 44  1  0  0  0  0
 41 68  1  0  0  0  0
 42 71  1  0  0  0  0
 43 67  1  0  0  0  0
 44 66  1  0  0  0  0
 45 53  1  0  0  0  0
 46 60  1  0  0  0  0
 47 61  1  0  0  0  0
 48 62  1  0  0  0  0
 49 64  1  0  0  0  0
 50 64  1  0  0  0  0
 51 64  1  0  0  0  0
 52 74  1  0  0  0  0
 53 61  1  0  0  0  0
 54 55  1  0  0  0  0
 54 56  1  0  0  0  0
 55 58  1  0  0  0  0
 56 63  1  0  0  0  0
 57 62  1  0  0  0  0
 57 73  1  0  0  0  0
 58 81  1  0  0  0  0
 59 64  1  0  0  0  0
 59 72  1  0  0  0  0
 60 74  1  0  0  0  0
 61 63  1  0  0  0  0
 62 63  1  0  0  0  0
 65 66  1  0  0  0  0
M  CHG  1  74   1
M  ISO  4  32 100  58 101  73 100  81 101
M  END
> <Batch ID>
0088

> <Smiles>
CCC(C)C(CCC[101CH2:1][101O:1]c1ccc2c(c1)CN(C(=O)C(NC(=O)C(C)NC)C(C)(C)C)C(C(=O)NC1CCCc3ccccc31)C2)C(C)C[100NH:0][100C:0](=O)N1CCCC(n2nc(-c3ccc(Oc4ccc(F)cc4F)cc3)c(C(N)=O)c2N)C1

> <Shape>
0.230

> <Color>
0.055

> <Negative vol penalty>
0.000

$$$$

  -OEChem-04052319043D

 85 93  0     1  0  0  0  0  0999 V2000
  -27.3928  -24.0150   17.2743 C   0  0  0  0  0  0  0  0  0  0  0  0
  -26.2199  -24.4000   17.9157 C   0  0  0  0  0  0  0  0  0  0  0  0
  -24.0757  -14.9138   21.8309 C   0  0  0  0  0  0  0  0  0  0  0  0
  -25.5582  -16.2823   20.5020 C   0  0  0  0  0  0  0  0  0  0  0  0
  -28.6282  -24.4031   17.7911 C   0  0  0  0  0  0  0  0  0  0  0  0
  -26.2817  -25.1724   19.0750 C   0  0  0  0  0  0  0  0  0  0  0  0
  -22.9528  -28.9885   19.0466 C   0  0  0  0  0  0  0  0  0  0  0  0
  -24.6504  -13.7644   21.2885 C   0  0  0  0  0  0  0  0  0  0  0  0
  -26.1330  -15.1329   19.9595 C   0  0  0  0  0  0  0  0  0  0  0  0
  -21.6245  -28.6769   19.3337 C   0  0  0  0  0  0  0  0  0  0  0  0
  -28.3951  -12.8025   20.8935 C   0  0  0  0  0  0  0  0  0  0  0  0
  -29.7865  -12.7539   20.8081 C   0  0  0  0  0  0  0  0  0  0  0  0
  -21.9371  -29.4553   21.5954 C   0  0  0  0  0  0  0  0  0  0  0  0
  -19.6058  -25.0902   22.2706 C   0  0  0  0  0  0  0  0  0  0  0  0
  -29.6306  -12.5073   18.4097 C   0  0  0  0  0  0  0  0  0  0  0  0
  -24.5296  -16.1728   21.4376 C   0  0  0  0  0  0  0  0  0  0  0  0
  -23.8955  -17.7321   23.3544 C   0  0  0  0  0  0  0  0  0  0  0  0
  -28.7049  -25.1888   18.9519 C   0  0  0  0  0  0  0  0  0  0  0  0
  -23.7876  -29.5266   20.0365 C   0  0  0  0  0  0  0  0  0  0  0  0
  -27.5193  -25.5703   19.6085 C   0  0  0  0  0  0  0  0  0  0  0  0
  -23.2749  -29.7753   21.3176 C   0  0  0  0  0  0  0  0  0  0  0  0
  -20.1792  -24.5940   23.4361 C   0  0  0  0  0  0  0  0  0  0  0  0
  -18.8494  -26.2560   22.3162 C   0  0  0  0  0  0  0  0  0  0  0  0
  -25.6790  -13.8740   20.3528 C   0  0  0  0  0  0  0  0  0  0  0  0
  -21.1173  -28.9076   20.6091 C   0  0  0  0  0  0  0  0  0  0  0  0
  -27.6214  -12.7034   19.7371 C   0  0  0  0  0  0  0  0  0  0  0  0
  -30.4042  -12.6064   19.5662 C   0  0  0  0  0  0  0  0  0  0  0  0
  -28.2392  -12.5559   18.4952 C   0  0  0  0  0  0  0  0  0  0  0  0
  -23.9359  -17.3604   21.9972 C   0  0  0  0  0  0  0  0  0  0  0  0
  -19.9679  -25.2953   24.6122 C   0  0  0  0  0  0  0  0  0  0  0  0
  -18.6975  -26.8827   23.5425 C   0  0  0  0  0  0  0  0  0  0  0  0
  -23.2273  -18.9321   23.3620 C   0  0  0  0  0  0  0  0  0  0  0  0
  -24.4155  -17.0534   24.5053 C   0  0  0  0  0  0  0  0  0  0  0  0
  -26.4681  -28.5879   21.4638 C   0  0  0  0  0  0  0  0  0  0  0  0
  -26.3255  -31.5372   22.8067 C   0  0  0  0  0  0  0  0  0  0  0  0
  -24.4163  -34.2110   23.7299 C   0  0  0  0  0  0  0  0  0  0  0  0
  -22.7771  -24.0572   20.9438 C   0  0  0  0  0  0  0  0  0  0  0  0
  -30.0646  -25.5441   19.4994 C   0  0  0  0  0  0  0  0  0  0  0  0
  -25.2106  -29.8822   19.7033 C   0  0  0  0  0  0  0  0  0  0  0  0
  -24.1241  -30.3702   22.4100 C   0  0  0  0  0  0  0  0  0  0  0  0
  -30.0324  -26.6772   20.5219 C   0  0  0  0  0  0  0  0  0  0  0  0
  -20.6276  -21.2962   19.7361 C   0  0  0  0  0  0  0  0  0  0  0  0
  -28.9174  -26.4482   21.5374 C   0  0  0  0  0  0  0  0  0  0  0  0
  -21.3425  -20.0578   20.2740 C   0  0  0  0  0  0  0  0  0  0  0  0
  -21.5967  -22.4488   19.4907 C   0  0  0  0  0  0  0  0  0  0  0  0
  -23.1341  -21.5689   21.2160 C   0  0  0  0  0  0  0  0  0  0  0  0
  -27.5445  -26.4290   20.8544 C   0  0  1  0  0  0  0  0  0  0  0  0
  -26.1134  -29.9474   20.9313 C   0  0  1  0  0  0  0  0  0  0  0  0
  -22.1791  -20.4043   21.5179 C   0  0  2  0  0  0  0  0  0  0  0  0
  -20.5580  -24.8094   25.8954 C   0  0  0  0  0  0  0  0  0  0  0  0
  -18.1030  -28.8436   24.9875 C   0  0  0  0  0  0  0  0  0  0  0  0
  -23.8873  -36.5072   24.5932 C   0  0  0  0  0  0  0  0  0  0  0  0
  -26.5575  -30.1731   25.5261 C   0  0  0  0  0  0  0  0  0  0  0  0
  -25.7672  -32.3008   26.5829 C   0  0  0  0  0  0  0  0  0  0  0  0
  -27.9017  -32.2690   25.2923 C   0  0  0  0  0  0  0  0  0  0  0  0
  -23.3138  -25.7839   22.6200 C   0  0  0  0  0  0  0  0  0  0  0  0
  -24.6963  -35.4132   21.0400 C   0  0  0  0  0  0  0  0  0  0  0  0
  -20.9907  -23.3456   23.3939 C   0  0  0  0  0  0  0  0  0  0  0  0
  -18.2241  -26.7997   21.0546 C   0  0  0  0  0  0  0  0  0  0  0  0
  -17.8965  -28.1389   23.6503 C   0  0  0  0  0  0  0  0  0  0  0  0
  -22.5044  -23.5938   23.4163 C   0  0  0  0  0  0  0  0  0  0  0  0
  -19.2355  -27.5211   20.1704 C   0  0  0  0  0  0  0  0  0  1  0  0
  -25.7026  -32.1147   24.0546 C   0  0  1  0  0  0  0  0  0  0  0  0
  -24.6030  -35.7027   23.5192 C   0  0  2  0  0  0  0  0  0  0  0  0
  -26.4665  -31.7014   25.3442 C   0  0  0  0  0  0  0  0  0  0  0  0
  -23.3406  -18.2520   21.2005 N   0  0  0  0  0  0  0  0  0  0  0  0
  -19.2392  -26.4309   24.6958 N   0  0  0  0  0  0  0  0  0  0  0  0
  -22.9198  -19.1958   22.0597 N   0  0  0  0  0  0  0  0  0  0  0  0
  -25.5108  -30.6950   22.0368 N   0  0  0  0  0  0  0  0  0  0  0  0
  -22.4093  -22.7285   20.6751 N   0  0  0  0  0  0  0  0  0  0  0  0
  -22.8786  -19.7768   24.3556 N   0  0  0  0  0  0  0  0  0  0  0  0
  -25.7277  -17.3338   24.9101 N   0  0  0  0  0  0  0  0  0  0  0  0
  -27.1126  -27.7763   20.5498 N   0  0  0  0  0  0  0  0  0  0  0  0
  -25.6244  -33.5560   23.8424 N   0  0  0  0  0  0  0  0  0  0  0  0
  -22.9440  -24.4149   22.2902 N   0  0  0  0  0  0  0  0  0  0  0  0
  -24.0648  -36.1095   22.1904 N   0  3  0  0  0  0  0  0  0  0  0  0
  -23.7423  -16.2107   25.1458 O   0  0  0  0  0  0  0  0  0  0  0  0
  -26.1798  -28.2973   22.6188 O   0  0  0  0  0  0  0  0  0  0  0  0
  -27.4898  -31.8285   22.5215 O   0  0  0  0  0  0  0  0  0  0  0  0
  -23.3094  -33.6805   23.7924 O   0  0  0  0  0  0  0  0  0  0  0  0
  -22.9375  -24.8794   20.0326 O   0  0  0  0  0  0  0  0  0  0  0  0
  -26.2402  -12.7526   19.8235 O   0  0  0  0  0  0  0  0  0  0  0  0
  -19.8214  -28.6037   20.8922 O   0  0  0  0  0  0  0  0  0  1  0  0
  -31.7404  -12.5613   19.4841 F   0  0  0  0  0  0  0  0  0  0  0  0
  -27.5012  -12.4614   17.3806 F   0  0  0  0  0  0  0  0  0  0  0  0
  1  2  1  0  0  0  0
  1  5  2  0  0  0  0
  2  6  2  0  0  0  0
  3  8  2  0  0  0  0
  3 16  1  0  0  0  0
  4  9  1  0  0  0  0
  4 16  2  0  0  0  0
  5 18  1  0  0  0  0
  6 20  1  0  0  0  0
  7 10  2  0  0  0  0
  7 19  1  0  0  0  0
  8 24  1  0  0  0  0
  9 24  2  0  0  0  0
 10 25  1  0  0  0  0
 11 12  2  0  0  0  0
 11 26  1  0  0  0  0
 12 27  1  0  0  0  0
 13 21  1  0  0  0  0
 13 25  2  0  0  0  0
 14 22  2  0  0  0  0
 14 23  1  0  0  0  0
 15 27  2  0  0  0  0
 15 28  1  0  0  0  0
 16 29  1  0  0  0  0
 17 29  1  0  0  0  0
 17 32  2  0  0  0  0
 17 33  1  0  0  0  0
 18 20  2  0  0  0  0
 18 38  1  0  0  0  0
 19 21  2  0  0  0  0
 19 39  1  0  0  0  0
 20 47  1  0  0  0  0
 21 40  1  0  0  0  0
 22 30  1  0  0  0  0
 22 58  1  0  0  0  0
 23 31  2  0  0  0  0
 23 59  1  0  0  0  0
 24 82  1  0  0  0  0
 25 83  1  0  0  0  0
 26 28  2  0  0  0  0
 26 82  1  0  0  0  0
 27 84  1  0  0  0  0
 28 85  1  0  0  0  0
 29 66  2  0  0  0  0
 30 50  1  0  0  0  0
 30 67  2  0  0  0  0
 31 60  1  0  0  0  0
 31 67  1  0  0  0  0
 32 68  1  0  0  0  0
 32 71  1  0  0  0  0
 33 72  1  0  0  0  0
 33 77  2  0  0  0  0
 34 48  1  0  0  0  0
 34 73  1  0  0  0  0
 34 78  2  0  0  0  0
 35 63  1  0  0  0  0
 35 69  1  0  0  0  0
 35 79  2  0  0  0  0
 36 64  1  0  0  0  0
 36 74  1  0  0  0  0
 36 80  2  0  0  0  0
 37 70  1  0  0  0  0
 37 75  1  0  0  0  0
 37 81  2  0  0  0  0
 38 41  1  0  0  0  0
 39 48  1  0  0  0  0
 40 69  1  0  0  0  0
 41 43  1  0  0  0  0
 42 44  1  0  0  0  0
 42 45  1  0  0  0  0
 43 47  1  0  0  0  0
 44 49  1  0  0  0  0
 45 70  1  0  0  0  0
 46 49  1  0  0  0  0
 46 70  1  0  0  0  0
 47 73  1  0  0  0  0
 48 69  1  0  0  0  0
 49 68  1  0  0  0  0
 51 60  1  0  0  0  0
 52 64  1  0  0  0  0
 53 65  1  0  0  0  0
 54 65  1  0  0  0  0
 55 65  1  0  0  0  0
 56 75  1  0  0  0  0
 57 76  1  0  0  0  0
 58 61  1  0  0  0  0
 59 62  1  0  0  0  0
 61 75  1  0  0  0  0
 62 83  1  0  0  0  0
 63 65  1  0  0  0  0
 63 74  1  0  0  0  0
 64 76  1  0  0  0  0
 66 68  1  0  0  0  0
M  CHG  1  76   1
M  ISO  4  37 100  62 101  75 100  83 101
M  END
> <Batch ID>
0088

> <Smiles>
CCc1nc(C)c(CC[100N:0](C)[100C:0](=O)N2CCCC(n3nc(-c4ccc(Oc5ccc(F)cc5F)cc4)c(C(N)=O)c3N)C2)cc1C[101CH2:1][101O:1]c1ccc2c(c1)CN(C(=O)C(NC(=O)C(C)NC)C(C)(C)C)C(C(=O)NC1CCCc3ccccc31)C2

> <Shape>
0.292

> <Color>
0.076

> <Negative vol penalty>
0.000

$$$$

  -OEChem-04052319043D

 89 97  0     1  0  0  0  0  0999 V2000
  -30.0542  -33.8856   24.1918 C   0  0  0  0  0  0  0  0  0  0  0  0
  -30.5421  -32.6209   23.8792 C   0  0  0  0  0  0  0  0  0  0  0  0
  -23.1023   -9.8370   19.9417 C   0  0  0  0  0  0  0  0  0  0  0  0
  -23.8609   -9.8631   22.2354 C   0  0  0  0  0  0  0  0  0  0  0  0
  -28.6795  -34.0965   24.2905 C   0  0  0  0  0  0  0  0  0  0  0  0
  -29.6555  -31.5659   23.6661 C   0  0  0  0  0  0  0  0  0  0  0  0
  -30.3249  -26.9354   19.7144 C   0  0  0  0  0  0  0  0  0  0  0  0
  -22.3771   -8.6727   20.1948 C   0  0  0  0  0  0  0  0  0  0  0  0
  -23.1356   -8.6988   22.4885 C   0  0  0  0  0  0  0  0  0  0  0  0
  -30.7678  -25.6230   19.8735 C   0  0  0  0  0  0  0  0  0  0  0  0
  -19.9205   -7.8507   23.0920 C   0  0  0  0  0  0  0  0  0  0  0  0
  -19.1637   -7.8020   24.2626 C   0  0  0  0  0  0  0  0  0  0  0  0
  -28.4809  -24.8819   20.0738 C   0  0  0  0  0  0  0  0  0  0  0  0
  -27.1419  -19.5832   19.7770 C   0  0  0  0  0  0  0  0  0  0  0  0
  -20.4360   -5.8871   25.0054 C   0  0  0  0  0  0  0  0  0  0  0  0
  -23.8443  -10.4322   20.9620 C   0  0  0  0  0  0  0  0  0  0  0  0
  -24.1453  -12.9622   20.8346 C   0  0  0  0  0  0  0  0  0  0  0  0
  -27.7753  -33.0458   24.0690 C   0  0  0  0  0  0  0  0  0  0  0  0
  -28.9549  -27.2329   19.7447 C   0  0  0  0  0  0  0  0  0  0  0  0
  -28.2675  -31.7626   23.7632 C   0  0  0  0  0  0  0  0  0  0  0  0
  -28.0231  -26.1985   19.9122 C   0  0  0  0  0  0  0  0  0  0  0  0
  -26.2941  -19.0215   20.7252 C   0  0  0  0  0  0  0  0  0  0  0  0
  -28.5040  -19.3068   19.8198 C   0  0  0  0  0  0  0  0  0  0  0  0
  -22.3937   -8.1036   21.4682 C   0  0  0  0  0  0  0  0  0  0  0  0
  -29.8459  -24.5964   20.0562 C   0  0  0  0  0  0  0  0  0  0  0  0
  -20.9350   -6.9175   22.8780 C   0  0  0  0  0  0  0  0  0  0  0  0
  -19.4215   -6.8202   25.2194 C   0  0  0  0  0  0  0  0  0  0  0  0
  -21.1927   -5.9358   23.8347 C   0  0  0  0  0  0  0  0  0  0  0  0
  -24.5941  -11.6346   20.7011 C   0  0  0  0  0  0  0  0  0  0  0  0
  -26.8534  -18.1966   21.6877 C   0  0  0  0  0  0  0  0  0  0  0  0
  -28.9644  -18.4693   20.8230 C   0  0  0  0  0  0  0  0  0  0  0  0
  -25.2253  -13.7282   20.4696 C   0  0  0  0  0  0  0  0  0  0  0  0
  -22.8664  -13.4586   21.2514 C   0  0  0  0  0  0  0  0  0  0  0  0
  -27.0850  -29.0054   21.6062 C   0  0  0  0  0  0  0  0  0  0  0  0
  -24.8281  -28.2391   19.4059 C   0  0  0  0  0  0  0  0  0  0  0  0
  -23.7527  -26.0835   16.9885 C   0  0  0  0  0  0  0  0  0  0  0  0
  -30.6917  -14.8364   20.6574 C   0  0  0  0  0  0  0  0  0  0  0  0
  -26.2998  -33.3111   24.2333 C   0  0  0  0  0  0  0  0  0  0  0  0
  -28.4921  -28.6500   19.5448 C   0  0  0  0  0  0  0  0  0  0  0  0
  -26.5404  -26.4624   19.9320 C   0  0  0  0  0  0  0  0  0  0  0  0
  -25.4144  -32.2268   23.6244 C   0  0  0  0  0  0  0  0  0  0  0  0
  -29.5941  -12.4267   18.2772 C   0  0  0  0  0  0  0  0  0  0  0  0
  -25.9156  -30.8423   24.0229 C   0  0  0  0  0  0  0  0  0  0  0  0
  -28.1614  -12.1111   18.7104 C   0  0  0  0  0  0  0  0  0  0  0  0
  -30.5069  -12.6659   19.4779 C   0  0  0  0  0  0  0  0  0  0  0  0
  -28.5929  -13.3703   20.8614 C   0  0  0  0  0  0  0  0  0  0  0  0
  -27.3366  -30.5986   23.5007 C   0  0  1  0  0  0  0  0  0  0  0  0
  -27.0976  -28.9081   20.1069 C   0  0  1  0  0  0  0  0  0  0  0  0
  -27.6223  -13.1764   19.6839 C   0  0  2  0  0  0  0  0  0  0  0  0
  -25.9920  -17.5661   22.7324 C   0  0  0  0  0  0  0  0  0  0  0  0
  -21.8532  -25.7007   15.3939 C   0  0  0  0  0  0  0  0  0  0  0  0
  -22.4471  -21.1123   19.8820 C   0  0  0  0  0  0  0  0  0  0  0  0
  -22.8126  -22.4875   21.9355 C   0  0  0  0  0  0  0  0  0  0  0  0
  -22.2071  -20.0624   22.1362 C   0  0  0  0  0  0  0  0  0  0  0  0
  -23.0939  -27.2495   21.7131 C   0  0  0  0  0  0  0  0  0  0  0  0
  -21.6770  -26.0425   20.0387 C   0  0  0  0  0  0  0  0  0  0  0  0
  -21.8593  -28.5289   19.9543 C   0  0  0  0  0  0  0  0  0  0  0  0
  -25.5361  -26.2803   14.6349 C   0  0  0  0  0  0  0  0  0  0  0  0
  -24.8340  -19.3137   20.6847 C   0  0  0  0  0  0  0  0  0  0  0  0
  -29.4289  -19.9129   18.7948 C   0  0  0  0  0  0  0  0  0  0  0  0
  -30.4177  -18.1367   20.9163 C   0  0  0  0  0  0  0  0  0  0  0  0
  -30.2563  -21.0845   19.3281 C   0  0  0  0  0  0  0  0  0  0  0  0
  -24.5076  -20.7111   21.2489 C   0  0  0  0  0  0  0  0  0  0  0  0
  -30.7222  -16.9914   21.8879 C   0  0  0  0  0  0  0  0  0  0  0  0
  -29.4090  -22.2786   19.7519 C   0  0  0  0  0  0  0  0  0  1  0  0
  -23.8319  -27.1167   19.2426 C   0  0  1  0  0  0  0  0  0  0  0  0
  -23.2266  -26.3250   15.5851 C   0  0  2  0  0  0  0  0  0  0  0  0
  -23.0046  -21.0921   21.3191 C   0  0  0  0  0  0  0  0  0  0  0  0
  -22.6435  -27.2294   20.2388 C   0  0  0  0  0  0  0  0  0  0  0  0
  -25.8606  -11.5580   20.2837 N   0  0  0  0  0  0  0  0  0  0  0  0
  -28.1714  -17.9050   21.7613 N   0  0  0  0  0  0  0  0  0  0  0  0
  -26.2167  -12.8471   20.1517 N   0  0  0  0  0  0  0  0  0  0  0  0
  -26.1378  -27.8653   19.7386 N   0  0  0  0  0  0  0  0  0  0  0  0
  -29.9393  -13.6880   20.3605 N   0  0  0  0  0  0  0  0  0  0  0  0
  -25.4142  -15.0627   20.3927 N   0  0  0  0  0  0  0  0  0  0  0  0
  -21.8691  -12.5342   21.5910 N   0  0  0  0  0  0  0  0  0  0  0  0
  -27.3088  -30.2806   22.0892 N   0  0  0  0  0  0  0  0  0  0  0  0
  -23.4369  -27.1226   17.8382 N   0  0  0  0  0  0  0  0  0  0  0  0
  -30.0772  -15.7579   21.4964 N   0  0  0  0  0  0  0  0  0  0  0  0
  -24.1539  -25.7390   14.5764 N   0  3  0  0  0  0  0  0  0  0  0  0
  -22.6102  -14.6854   21.3050 O   0  0  0  0  0  0  0  0  0  0  0  0
  -26.8855  -27.9984   22.2754 O   0  0  0  0  0  0  0  0  0  0  0  0
  -24.4595  -29.4041   19.2373 O   0  0  0  0  0  0  0  0  0  0  0  0
  -24.3777  -25.0724   17.3007 O   0  0  0  0  0  0  0  0  0  0  0  0
  -31.8249  -15.0289   20.2037 O   0  0  0  0  0  0  0  0  0  0  0  0
  -21.6860   -6.9677   21.7156 O   0  0  0  0  0  0  0  0  0  0  0  0
  -30.2755  -23.3147   20.2124 O   0  0  0  0  0  0  0  0  0  1  0  0
  -18.6957   -6.7745   26.3442 F   0  0  0  0  0  0  0  0  0  0  0  0
  -22.1668   -5.0373   23.6352 F   0  0  0  0  0  0  0  0  0  0  0  0
  1  2  1  0  0  0  0
  1  5  2  0  0  0  0
  2  6  2  0  0  0  0
  3  8  2  0  0  0  0
  3 16  1  0  0  0  0
  4  9  1  0  0  0  0
  4 16  2  0  0  0  0
  5 18  1  0  0  0  0
  6 20  1  0  0  0  0
  7 10  2  0  0  0  0
  7 19  1  0  0  0  0
  8 24  1  0  0  0  0
  9 24  2  0  0  0  0
 10 25  1  0  0  0  0
 11 12  2  0  0  0  0
 11 26  1  0  0  0  0
 12 27  1  0  0  0  0
 13 21  1  0  0  0  0
 13 25  2  0  0  0  0
 14 22  2  0  0  0  0
 14 23  1  0  0  0  0
 15 27  2  0  0  0  0
 15 28  1  0  0  0  0
 16 29  1  0  0  0  0
 17 29  1  0  0  0  0
 17 32  2  0  0  0  0
 17 33  1  0  0  0  0
 18 20  2  0  0  0  0
 18 38  1  0  0  0  0
 19 21  2  0  0  0  0
 19 39  1  0  0  0  0
 20 47  1  0  0  0  0
 21 40  1  0  0  0  0
 22 30  1  0  0  0  0
 22 59  1  0  0  0  0
 23 31  2  0  0  0  0
 23 60  1  0  0  0  0
 24 86  1  0  0  0  0
 25 87  1  0  0  0  0
 26 28  2  0  0  0  0
 26 86  1  0  0  0  0
 27 88  1  0  0  0  0
 28 89  1  0  0  0  0
 29 70  2  0  0  0  0
 30 50  1  0  0  0  0
 30 71  2  0  0  0  0
 31 61  1  0  0  0  0
 31 71  1  0  0  0  0
 32 72  1  0  0  0  0
 32 75  1  0  0  0  0
 33 76  1  0  0  0  0
 33 81  2  0  0  0  0
 34 48  1  0  0  0  0
 34 77  1  0  0  0  0
 34 82  2  0  0  0  0
 35 66  1  0  0  0  0
 35 73  1  0  0  0  0
 35 83  2  0  0  0  0
 36 67  1  0  0  0  0
 36 78  1  0  0  0  0
 36 84  2  0  0  0  0
 37 74  1  0  0  0  0
 37 79  1  0  0  0  0
 37 85  2  0  0  0  0
 38 41  1  0  0  0  0
 39 48  1  0  0  0  0
 40 73  1  0  0  0  0
 41 43  1  0  0  0  0
 42 44  1  0  0  0  0
 42 45  1  0  0  0  0
 43 47  1  0  0  0  0
 44 49  1  0  0  0  0
 45 74  1  0  0  0  0
 46 49  1  0  0  0  0
 46 74  1  0  0  0  0
 47 77  1  0  0  0  0
 48 73  1  0  0  0  0
 49 72  1  0  0  0  0
 51 67  1  0  0  0  0
 52 68  1  0  0  0  0
 53 68  1  0  0  0  0
 54 68  1  0  0  0  0
 55 69  1  0  0  0  0
 56 69  1  0  0  0  0
 57 69  1  0  0  0  0
 58 80  1  0  0  0  0
 59 63  1  0  0  0  0
 60 62  1  0  0  0  0
 61 64  1  0  0  0  0
 62 65  1  0  0  0  0
 63 68  1  0  0  0  0
 64 79  1  0  0  0  0
 65 87  1  0  0  0  0
 66 69  1  0  0  0  0
 66 78  1  0  0  0  0
 67 80  1  0  0  0  0
 70 72  1  0  0  0  0
M  CHG  1  80   1
M  ISO  4  37 100  65 101  79 100  87 101
M  END
> <Batch ID>
0088

> <Smiles>
CNC(C)C(=O)NC(C(=O)N1Cc2cc([101O:1][101CH2:1]CCc3cc(CCC(C)(C)C)c(C)nc3CC[100NH:0][100C:0](=O)N3CCCC(n4nc(-c5ccc(Oc6ccc(F)cc6F)cc5)c(C(N)=O)c4N)C3)ccc2CC1C(=O)NC1CCCc2ccccc21)C(C)(C)C

> <Shape>
0.359

> <Color>
0.193

> <Negative vol penalty>
0.000

$$$$

  -OEChem-04052319043D

 85 93  0     1  0  0  0  0  0999 V2000
  -30.5287  -23.7164   14.3170 C   0  0  0  0  0  0  0  0  0  0  0  0
  -29.9907  -23.3192   15.5369 C   0  0  0  0  0  0  0  0  0  0  0  0
  -23.7964   -8.9862   20.0499 C   0  0  0  0  0  0  0  0  0  0  0  0
  -23.2900   -9.6064   22.3294 C   0  0  0  0  0  0  0  0  0  0  0  0
  -30.9279  -25.0391   14.1300 C   0  0  0  0  0  0  0  0  0  0  0  0
  -29.8526  -24.2444   16.5710 C   0  0  0  0  0  0  0  0  0  0  0  0
  -25.3535  -23.9271   18.8737 C   0  0  0  0  0  0  0  0  0  0  0  0
  -23.8221   -7.6420   20.4213 C   0  0  0  0  0  0  0  0  0  0  0  0
  -23.3156   -8.2622   22.7008 C   0  0  0  0  0  0  0  0  0  0  0  0
  -25.1781  -22.8895   19.7883 C   0  0  0  0  0  0  0  0  0  0  0  0
  -21.2632   -5.5848   22.5008 C   0  0  0  0  0  0  0  0  0  0  0  0
  -20.2370   -5.1219   23.3244 C   0  0  0  0  0  0  0  0  0  0  0  0
  -25.5832  -24.4277   21.6019 C   0  0  0  0  0  0  0  0  0  0  0  0
  -28.7910  -21.8732   22.1737 C   0  0  0  0  0  0  0  0  0  0  0  0
  -21.8621   -4.5046   25.0022 C   0  0  0  0  0  0  0  0  0  0  0  0
  -23.5304   -9.9685   21.0039 C   0  0  0  0  0  0  0  0  0  0  0  0
  -22.3919  -12.0949   20.1734 C   0  0  0  0  0  0  0  0  0  0  0  0
  -30.7857  -25.9832   15.1592 C   0  0  0  0  0  0  0  0  0  0  0  0
  -25.6564  -25.2227   19.3167 C   0  0  0  0  0  0  0  0  0  0  0  0
  -30.2516  -25.5807   16.3981 C   0  0  0  0  0  0  0  0  0  0  0  0
  -25.7594  -25.4805   20.6911 C   0  0  0  0  0  0  0  0  0  0  0  0
  -29.9506  -21.9157   21.4077 C   0  0  0  0  0  0  0  0  0  0  0  0
  -28.3759  -20.6685   22.7302 C   0  0  0  0  0  0  0  0  0  0  0  0
  -23.5817   -7.2799   21.7467 C   0  0  0  0  0  0  0  0  0  0  0  0
  -25.2958  -23.1391   21.1524 C   0  0  0  0  0  0  0  0  0  0  0  0
  -22.5889   -5.5076   22.9279 C   0  0  0  0  0  0  0  0  0  0  0  0
  -20.5365   -4.5818   24.5751 C   0  0  0  0  0  0  0  0  0  0  0  0
  -22.8883   -4.9675   24.1786 C   0  0  0  0  0  0  0  0  0  0  0  0
  -23.5043  -11.3573   20.6210 C   0  0  0  0  0  0  0  0  0  0  0  0
  -30.6538  -20.7352   21.2293 C   0  0  0  0  0  0  0  0  0  0  0  0
  -29.1494  -19.5438   22.4925 C   0  0  0  0  0  0  0  0  0  0  0  0
  -22.8864  -13.3551   19.9413 C   0  0  0  0  0  0  0  0  0  0  0  0
  -21.0331  -11.6782   19.9843 C   0  0  0  0  0  0  0  0  0  0  0  0
  -28.1017  -27.2145   18.9204 C   0  0  0  0  0  0  0  0  0  0  0  0
  -26.1743  -29.2786   20.5163 C   0  0  0  0  0  0  0  0  0  0  0  0
  -23.5766  -29.7309   22.6828 C   0  0  0  0  0  0  0  0  0  0  0  0
  -27.4898  -16.2573   22.2305 C   0  0  0  0  0  0  0  0  0  0  0  0
  -31.2752  -27.3906   14.9259 C   0  0  0  0  0  0  0  0  0  0  0  0
  -25.8162  -26.3366   18.3186 C   0  0  0  0  0  0  0  0  0  0  0  0
  -26.0631  -26.8580   21.2190 C   0  0  0  0  0  0  0  0  0  0  0  0
  -30.7485  -28.3957   15.9470 C   0  0  0  0  0  0  0  0  0  0  0  0
  -26.9144  -15.6297   18.7131 C   0  0  0  0  0  0  0  0  0  0  0  0
  -30.8871  -27.8420   17.3616 C   0  0  0  0  0  0  0  0  0  0  0  0
  -25.8594  -14.5235   18.7701 C   0  0  0  0  0  0  0  0  0  0  0  0
  -27.9431  -15.4707   19.8288 C   0  0  0  0  0  0  0  0  0  0  0  0
  -26.3067  -14.3084   21.2588 C   0  0  0  0  0  0  0  0  0  0  0  0
  -30.0628  -26.5607   17.5357 C   0  0  1  0  0  0  0  0  0  0  0  0
  -26.6297  -27.5094   18.8574 C   0  0  1  0  0  0  0  0  0  0  0  0
  -25.2246  -14.4262   20.1700 C   0  0  2  0  0  0  0  0  0  0  0  0
  -30.4008  -23.2032   20.8088 C   0  0  0  0  0  0  0  0  0  0  0  0
  -32.9093  -19.6857   20.9168 C   0  0  0  0  0  0  0  0  0  0  0  0
  -29.8129  -17.6424   24.0111 C   0  0  0  0  0  0  0  0  0  0  0  0
  -22.2553  -31.5326   23.8255 C   0  0  0  0  0  0  0  0  0  0  0  0
  -28.4823  -29.7356   22.4591 C   0  0  0  0  0  0  0  0  0  0  0  0
  -26.8448  -30.7545   24.0556 C   0  0  0  0  0  0  0  0  0  0  0  0
  -27.2273  -31.8038   21.8251 C   0  0  0  0  0  0  0  0  0  0  0  0
  -21.0589  -28.8656   21.3899 C   0  0  0  0  0  0  0  0  0  0  0  0
  -27.1192  -20.6155   23.5617 C   0  0  0  0  0  0  0  0  0  0  0  0
  -31.9060  -20.7198   20.4153 C   0  0  0  0  0  0  0  0  0  0  0  0
  -25.9220  -20.0046   22.8303 C   0  0  0  0  0  0  0  0  0  0  0  0
  -25.4785  -20.8139   21.6171 C   0  0  0  0  0  0  0  0  0  1  0  0
  -28.7519  -18.2233   23.0666 C   0  0  2  0  0  0  0  0  0  0  0  0
  -25.9499  -29.6267   21.9680 C   0  0  1  0  0  0  0  0  0  0  0  0
  -22.3490  -30.6211   22.6117 C   0  0  2  0  0  0  0  0  0  0  0  0
  -27.1223  -30.4537   22.5672 C   0  0  0  0  0  0  0  0  0  0  0  0
  -24.6212  -12.0879   20.6709 N   0  0  0  0  0  0  0  0  0  0  0  0
  -30.2817  -19.5461   21.7539 N   0  0  0  0  0  0  0  0  0  0  0  0
  -24.2133  -13.2978   20.2515 N   0  0  0  0  0  0  0  0  0  0  0  0
  -26.2171  -27.9126   20.2032 N   0  0  0  0  0  0  0  0  0  0  0  0
  -27.2751  -15.4031   21.1362 N   0  0  0  0  0  0  0  0  0  0  0  0
  -22.3113  -14.4955   19.5040 N   0  0  0  0  0  0  0  0  0  0  0  0
  -20.6961  -10.3482   20.2705 N   0  0  0  0  0  0  0  0  0  0  0  0
  -28.6611  -26.8801   17.7019 N   0  0  0  0  0  0  0  0  0  0  0  0
  -24.6540  -30.2939   22.0321 N   0  0  0  0  0  0  0  0  0  0  0  0
  -28.4278  -17.2636   22.0347 N   0  0  0  0  0  0  0  0  0  0  0  0
  -21.1115  -29.7929   22.5493 N   0  3  0  0  0  0  0  0  0  0  0  0
  -20.1476  -12.4578   19.5582 O   0  0  0  0  0  0  0  0  0  0  0  0
  -28.6869  -27.2864   19.9946 O   0  0  0  0  0  0  0  0  0  0  0  0
  -26.2998  -30.1853   19.6894 O   0  0  0  0  0  0  0  0  0  0  0  0
  -23.5804  -28.6465   23.2612 O   0  0  0  0  0  0  0  0  0  0  0  0
  -26.8861  -16.1356   23.3019 O   0  0  0  0  0  0  0  0  0  0  0  0
  -23.6065   -5.9683   22.1095 O   0  0  0  0  0  0  0  0  0  0  0  0
  -25.1257  -22.1280   22.0472 O   0  0  0  0  0  0  0  0  0  1  0  0
  -19.5508   -4.1387   25.3665 F   0  0  0  0  0  0  0  0  0  0  0  0
  -24.1598   -4.8917   24.5949 F   0  0  0  0  0  0  0  0  0  0  0  0
  1  2  1  0  0  0  0
  1  5  2  0  0  0  0
  2  6  2  0  0  0  0
  3  8  2  0  0  0  0
  3 16  1  0  0  0  0
  4  9  1  0  0  0  0
  4 16  2  0  0  0  0
  5 18  1  0  0  0  0
  6 20  1  0  0  0  0
  7 10  2  0  0  0  0
  7 19  1  0  0  0  0
  8 24  1  0  0  0  0
  9 24  2  0  0  0  0
 10 25  1  0  0  0  0
 11 12  2  0  0  0  0
 11 26  1  0  0  0  0
 12 27  1  0  0  0  0
 13 21  1  0  0  0  0
 13 25  2  0  0  0  0
 14 22  1  0  0  0  0
 14 23  2  0  0  0  0
 15 27  2  0  0  0  0
 15 28  1  0  0  0  0
 16 29  1  0  0  0  0
 17 29  1  0  0  0  0
 17 32  2  0  0  0  0
 17 33  1  0  0  0  0
 18 20  2  0  0  0  0
 18 38  1  0  0  0  0
 19 21  2  0  0  0  0
 19 39  1  0  0  0  0
 20 47  1  0  0  0  0
 21 40  1  0  0  0  0
 22 30  2  0  0  0  0
 22 50  1  0  0  0  0
 23 31  1  0  0  0  0
 23 58  1  0  0  0  0
 24 82  1  0  0  0  0
 25 83  1  0  0  0  0
 26 28  2  0  0  0  0
 26 82  1  0  0  0  0
 27 84  1  0  0  0  0
 28 85  1  0  0  0  0
 29 66  2  0  0  0  0
 30 59  1  0  0  0  0
 30 67  1  0  0  0  0
 31 62  1  0  0  0  0
 31 67  2  0  0  0  0
 32 68  1  0  0  0  0
 32 71  1  0  0  0  0
 33 72  1  0  0  0  0
 33 77  2  0  0  0  0
 34 48  1  0  0  0  0
 34 73  1  0  0  0  0
 34 78  2  0  0  0  0
 35 63  1  0  0  0  0
 35 69  1  0  0  0  0
 35 79  2  0  0  0  0
 36 64  1  0  0  0  0
 36 74  1  0  0  0  0
 36 80  2  0  0  0  0
 37 70  1  0  0  0  0
 37 75  1  0  0  0  0
 37 81  2  0  0  0  0
 38 41  1  0  0  0  0
 39 48  1  0  0  0  0
 40 69  1  0  0  0  0
 41 43  1  0  0  0  0
 42 44  1  0  0  0  0
 42 45  1  0  0  0  0
 43 47  1  0  0  0  0
 44 49  1  0  0  0  0
 45 70  1  0  0  0  0
 46 49  1  0  0  0  0
 46 70  1  0  0  0  0
 47 73  1  0  0  0  0
 48 69  1  0  0  0  0
 49 68  1  0  0  0  0
 51 59  1  0  0  0  0
 52 62  1  0  0  0  0
 53 64  1  0  0  0  0
 54 65  1  0  0  0  0
 55 65  1  0  0  0  0
 56 65  1  0  0  0  0
 57 76  1  0  0  0  0
 58 60  1  0  0  0  0
 60 61  1  0  0  0  0
 61 83  1  0  0  0  0
 62 75  1  0  0  0  0
 63 65  1  0  0  0  0
 63 74  1  0  0  0  0
 64 76  1  0  0  0  0
 66 68  1  0  0  0  0
M  CHG  1  76   1
M  ISO  4  37 100  61 101  75 100  83 101
M  END
> <Batch ID>
0088

> <Smiles>
CCc1nc(C(C)[100NH:0][100C:0](=O)N2CCCC(n3nc(-c4ccc(Oc5ccc(F)cc5F)cc4)c(C(N)=O)c3N)C2)c(CC[101CH2:1][101O:1]c2ccc3c(c2)CN(C(=O)C(NC(=O)C(C)NC)C(C)(C)C)C(C(=O)NC2CCCc4ccccc42)C3)cc1C

> <Shape>
0.229

> <Color>
0.086

> <Negative vol penalty>
0.000

$$$$

  -OEChem-04052319043D

 85 93  0     1  0  0  0  0  0999 V2000
  -16.8662  -29.3938   24.4623 C   0  0  0  0  0  0  0  0  0  0  0  0
  -17.2736  -28.3333   23.6593 C   0  0  0  0  0  0  0  0  0  0  0  0
  -22.8610  -12.4350   19.3538 C   0  0  0  0  0  0  0  0  0  0  0  0
  -22.6858  -12.9669   21.7040 C   0  0  0  0  0  0  0  0  0  0  0  0
  -17.5208  -30.6220   24.3783 C   0  0  0  0  0  0  0  0  0  0  0  0
  -18.3353  -28.5008   22.7710 C   0  0  0  0  0  0  0  0  0  0  0  0
  -22.5080  -24.3066   21.1887 C   0  0  0  0  0  0  0  0  0  0  0  0
  -27.0720  -21.2841   20.7242 C   0  0  0  0  0  0  0  0  0  0  0  0
  -26.0104  -21.1501   19.8294 C   0  0  0  0  0  0  0  0  0  0  0  0
  -22.0578  -11.3114   19.5482 C   0  0  0  0  0  0  0  0  0  0  0  0
  -21.8824  -11.8433   21.8984 C   0  0  0  0  0  0  0  0  0  0  0  0
  -22.6185  -23.4638   20.0836 C   0  0  0  0  0  0  0  0  0  0  0  0
  -18.7649  -10.6368   19.9159 C   0  0  0  0  0  0  0  0  0  0  0  0
  -17.7425  -10.4039   18.9961 C   0  0  0  0  0  0  0  0  0  0  0  0
  -24.0845  -25.0584   19.0218 C   0  0  0  0  0  0  0  0  0  0  0  0
  -28.6087  -20.5479   19.0113 C   0  0  0  0  0  0  0  0  0  0  0  0
  -18.7309   -8.2713   18.4374 C   0  0  0  0  0  0  0  0  0  0  0  0
  -23.1751  -13.2628   20.4317 C   0  0  0  0  0  0  0  0  0  0  0  0
  -23.5816  -15.7256   19.9056 C   0  0  0  0  0  0  0  0  0  0  0  0
  -18.5973  -30.8017   23.4954 C   0  0  0  0  0  0  0  0  0  0  0  0
  -23.1773  -25.5386   21.2141 C   0  0  0  0  0  0  0  0  0  0  0  0
  -19.0041  -29.7329   22.6741 C   0  0  0  0  0  0  0  0  0  0  0  0
  -23.9829  -25.9138   20.1295 C   0  0  0  0  0  0  0  0  0  0  0  0
  -28.3712  -20.9830   20.3151 C   0  0  0  0  0  0  0  0  0  0  0  0
  -26.2479  -20.7150   18.5256 C   0  0  0  0  0  0  0  0  0  0  0  0
  -27.5471  -20.4139   18.1165 C   0  0  0  0  0  0  0  0  0  0  0  0
  -21.5684  -11.0155   20.8205 C   0  0  0  0  0  0  0  0  0  0  0  0
  -23.4045  -23.8409   18.9987 C   0  0  0  0  0  0  0  0  0  0  0  0
  -19.7704   -9.6870   20.0964 C   0  0  0  0  0  0  0  0  0  0  0  0
  -17.7254   -9.2211   18.2569 C   0  0  0  0  0  0  0  0  0  0  0  0
  -19.7534   -8.5042   19.3572 C   0  0  0  0  0  0  0  0  0  0  0  0
  -24.0053  -14.4233   20.2317 C   0  0  0  0  0  0  0  0  0  0  0  0
  -24.7427  -16.4551   19.8279 C   0  0  0  0  0  0  0  0  0  0  0  0
  -22.2569  -16.2308   19.6920 C   0  0  0  0  0  0  0  0  0  0  0  0
  -22.2715  -28.5803   21.3901 C   0  0  0  0  0  0  0  0  0  0  0  0
  -25.4635  -29.1121   21.6150 C   0  0  0  0  0  0  0  0  0  0  0  0
  -28.6343  -28.0184   20.9855 C   0  0  0  0  0  0  0  0  0  0  0  0
  -29.7545  -17.8555   21.8446 C   0  0  0  0  0  0  0  0  0  0  0  0
  -19.2434  -32.1615   23.4057 C   0  0  0  0  0  0  0  0  0  0  0  0
  -23.0692  -26.4243   22.4250 C   0  0  0  0  0  0  0  0  0  0  0  0
  -24.7381  -27.2169   20.1160 C   0  0  0  0  0  0  0  0  0  0  0  0
  -20.6011  -32.1460   22.7082 C   0  0  0  0  0  0  0  0  0  0  0  0
  -29.5743  -14.9583   19.7829 C   0  0  0  0  0  0  0  0  0  0  0  0
  -20.5313  -31.3286   21.4222 C   0  0  0  0  0  0  0  0  0  0  0  0
  -28.0756  -14.6650   19.6943 C   0  0  0  0  0  0  0  0  0  0  0  0
  -29.9660  -15.4836   21.1623 C   0  0  0  0  0  0  0  0  0  0  0  0
  -27.6918  -16.3567   21.5354 C   0  0  0  0  0  0  0  0  0  0  0  0
  -20.1676  -29.8681   21.7159 C   0  0  1  0  0  0  0  0  0  0  0  0
  -23.3832  -27.8868   22.1254 C   0  0  1  0  0  0  0  0  0  0  0  0
  -27.2393  -15.8776   20.1455 C   0  0  2  0  0  0  0  0  0  0  0  0
  -28.5090  -18.5823   16.7000 C   0  0  0  0  0  0  0  0  0  0  0  0
  -29.6951  -22.5880   21.7277 C   0  0  0  0  0  0  0  0  0  0  0  0
  -31.1430  -27.9924   21.0435 C   0  0  0  0  0  0  0  0  0  0  0  0
  -25.1759  -31.0627   19.2863 C   0  0  0  0  0  0  0  0  0  0  0  0
  -27.6595  -30.9625   18.9867 C   0  0  0  0  0  0  0  0  0  0  0  0
  -26.6961  -31.8377   21.1147 C   0  0  0  0  0  0  0  0  0  0  0  0
  -28.6755  -26.4973   23.5240 C   0  0  0  0  0  0  0  0  0  0  0  0
  -25.0842  -20.5767   17.5767 C   0  0  0  0  0  0  0  0  0  0  0  0
  -27.8254  -19.9460   16.7257 C   0  0  0  0  0  0  0  0  0  0  0  0
  -24.9869  -21.7093   16.5523 C   0  0  0  0  0  0  0  0  0  0  0  0
  -29.3803  -20.2149   22.5174 C   0  0  0  0  0  0  0  0  0  0  0  0
  -24.7353  -23.0739   17.1830 C   0  0  0  0  0  0  0  0  0  1  0  0
  -29.5060  -21.1259   21.2721 C   0  0  1  0  0  0  0  0  0  0  0  0
  -26.5783  -29.3596   20.6276 C   0  0  1  0  0  0  0  0  0  0  0  0
  -29.8666  -27.9395   21.8686 C   0  0  2  0  0  0  0  0  0  0  0  0
  -26.5118  -30.7819   20.0029 C   0  0  0  0  0  0  0  0  0  0  0  0
  -25.3320  -14.3279   20.3527 N   0  0  0  0  0  0  0  0  0  0  0  0
  -25.7521  -15.5795   20.1013 N   0  0  0  0  0  0  0  0  0  0  0  0
  -24.5954  -28.0513   21.3205 N   0  0  0  0  0  0  0  0  0  0  0  0
  -29.1368  -16.6339   21.5297 N   0  0  0  0  0  0  0  0  0  0  0  0
  -24.9887  -17.7537   19.5531 N   0  0  0  0  0  0  0  0  0  0  0  0
  -21.1769  -15.3454   19.8111 N   0  0  0  0  0  0  0  0  0  0  0  0
  -21.3210  -29.1506   22.2152 N   0  0  0  0  0  0  0  0  0  0  0  0
  -27.8216  -29.0757   21.3361 N   0  0  0  0  0  0  0  0  0  0  0  0
  -28.8953  -18.8962   22.1757 N   0  0  0  0  0  0  0  0  0  0  0  0
  -29.8639  -26.6702   22.6494 N   0  3  0  0  0  0  0  0  0  0  0  0
  -22.0385  -17.4280   19.3879 O   0  0  0  0  0  0  0  0  0  0  0  0
  -22.2765  -28.5980   20.1648 O   0  0  0  0  0  0  0  0  0  0  0  0
  -25.3708  -29.8290   22.6146 O   0  0  0  0  0  0  0  0  0  0  0  0
  -28.4165  -27.2239   20.0734 O   0  0  0  0  0  0  0  0  0  0  0  0
  -30.9805  -18.0090   21.8265 O   0  0  0  0  0  0  0  0  0  0  0  0
  -20.7844   -9.9193   21.0105 O   0  0  0  0  0  0  0  0  0  0  0  0
  -23.5136  -23.0205   17.9185 O   0  0  0  0  0  0  0  0  0  1  0  0
  -16.7427   -8.9969   17.3748 F   0  0  0  0  0  0  0  0  0  0  0  0
  -20.7159   -7.5874   19.5271 F   0  0  0  0  0  0  0  0  0  0  0  0
  1  2  1  0  0  0  0
  1  5  2  0  0  0  0
  2  6  2  0  0  0  0
  3 10  2  0  0  0  0
  3 18  1  0  0  0  0
  4 11  1  0  0  0  0
  4 18  2  0  0  0  0
  5 20  1  0  0  0  0
  6 22  1  0  0  0  0
  7 12  2  0  0  0  0
  7 21  1  0  0  0  0
  8  9  2  0  0  0  0
  8 24  1  0  0  0  0
  9 25  1  0  0  0  0
 10 27  1  0  0  0  0
 11 27  2  0  0  0  0
 12 28  1  0  0  0  0
 13 14  2  0  0  0  0
 13 29  1  0  0  0  0
 14 30  1  0  0  0  0
 15 23  1  0  0  0  0
 15 28  2  0  0  0  0
 16 24  2  0  0  0  0
 16 26  1  0  0  0  0
 17 30  2  0  0  0  0
 17 31  1  0  0  0  0
 18 32  1  0  0  0  0
 19 32  1  0  0  0  0
 19 33  2  0  0  0  0
 19 34  1  0  0  0  0
 20 22  2  0  0  0  0
 20 39  1  0  0  0  0
 21 23  2  0  0  0  0
 21 40  1  0  0  0  0
 22 48  1  0  0  0  0
 23 41  1  0  0  0  0
 24 63  1  0  0  0  0
 25 26  2  0  0  0  0
 25 58  1  0  0  0  0
 26 59  1  0  0  0  0
 27 82  1  0  0  0  0
 28 83  1  0  0  0  0
 29 31  2  0  0  0  0
 29 82  1  0  0  0  0
 30 84  1  0  0  0  0
 31 85  1  0  0  0  0
 32 67  2  0  0  0  0
 33 68  1  0  0  0  0
 33 71  1  0  0  0  0
 34 72  1  0  0  0  0
 34 77  2  0  0  0  0
 35 49  1  0  0  0  0
 35 73  1  0  0  0  0
 35 78  2  0  0  0  0
 36 64  1  0  0  0  0
 36 69  1  0  0  0  0
 36 79  2  0  0  0  0
 37 65  1  0  0  0  0
 37 74  1  0  0  0  0
 37 80  2  0  0  0  0
 38 70  1  0  0  0  0
 38 75  1  0  0  0  0
 38 81  2  0  0  0  0
 39 42  1  0  0  0  0
 40 49  1  0  0  0  0
 41 69  1  0  0  0  0
 42 44  1  0  0  0  0
 43 45  1  0  0  0  0
 43 46  1  0  0  0  0
 44 48  1  0  0  0  0
 45 50  1  0  0  0  0
 46 70  1  0  0  0  0
 47 50  1  0  0  0  0
 47 70  1  0  0  0  0
 48 73  1  0  0  0  0
 49 69  1  0  0  0  0
 50 68  1  0  0  0  0
 51 59  1  0  0  0  0
 52 63  1  0  0  0  0
 53 65  1  0  0  0  0
 54 66  1  0  0  0  0
 55 66  1  0  0  0  0
 56 66  1  0  0  0  0
 57 76  1  0  0  0  0
 58 60  1  0  0  0  0
 60 62  1  0  0  0  0
 61 63  1  0  0  0  0
 61 75  1  0  0  0  0
 62 83  1  0  0  0  0
 64 66  1  0  0  0  0
 64 74  1  0  0  0  0
 65 76  1  0  0  0  0
 67 68  1  0  0  0  0
M  CHG  1  76   1
M  ISO  4  38 100  62 101  75 100  83 101
M  END
> <Batch ID>
0088

> <Smiles>
CCc1cc(C(C)C[100NH:0][100C:0](=O)N2CCCC(n3nc(-c4ccc(Oc5ccc(F)cc5F)cc4)c(C(N)=O)c3N)C2)ccc1CC[101CH2:1][101O:1]c1ccc2c(c1)CN(C(=O)C(NC(=O)C(C)NC)C(C)(C)C)C(C(=O)NC1CCCc3ccccc31)C2

> <Shape>
0.227

> <Color>
0.060

> <Negative vol penalty>
0.000

$$$$

  -OEChem-04052319043D

 84 92  0     1  0  0  0  0  0999 V2000
  -26.6003  -34.2064   25.2524 C   0  0  0  0  0  0  0  0  0  0  0  0
  -27.0734  -33.0596   24.6228 C   0  0  0  0  0  0  0  0  0  0  0  0
  -26.2941  -15.5497   21.2082 C   0  0  0  0  0  0  0  0  0  0  0  0
  -27.2801  -15.0810   19.0529 C   0  0  0  0  0  0  0  0  0  0  0  0
  -25.3189  -34.2204   25.8017 C   0  0  0  0  0  0  0  0  0  0  0  0
  -26.2657  -31.9257   24.5430 C   0  0  0  0  0  0  0  0  0  0  0  0
  -26.3355  -29.8105   19.9423 C   0  0  0  0  0  0  0  0  0  0  0  0
  -25.9763  -14.1997   21.3565 C   0  0  0  0  0  0  0  0  0  0  0  0
  -26.9624  -13.7309   19.2012 C   0  0  0  0  0  0  0  0  0  0  0  0
  -27.4460  -29.0335   19.6156 C   0  0  0  0  0  0  0  0  0  0  0  0
  -23.6099  -12.0608   20.2384 C   0  0  0  0  0  0  0  0  0  0  0  0
  -22.3333  -11.7434   20.7019 C   0  0  0  0  0  0  0  0  0  0  0  0
  -26.1864  -27.0363   20.1092 C   0  0  0  0  0  0  0  0  0  0  0  0
  -31.2186  -24.1179   17.5256 C   0  0  0  0  0  0  0  0  0  0  0  0
  -23.3045  -10.6167   22.6056 C   0  0  0  0  0  0  0  0  0  0  0  0
  -26.9459  -15.9904   20.0564 C   0  0  0  0  0  0  0  0  0  0  0  0
  -28.4594  -18.0289   20.3046 C   0  0  0  0  0  0  0  0  0  0  0  0
  -24.4915  -33.0894   25.7201 C   0  0  0  0  0  0  0  0  0  0  0  0
  -25.1435  -29.2057   20.3662 C   0  0  0  0  0  0  0  0  0  0  0  0
  -24.9725  -31.9242   25.0929 C   0  0  0  0  0  0  0  0  0  0  0  0
  -25.0614  -27.8077   20.4383 C   0  0  0  0  0  0  0  0  0  0  0  0
  -31.9903  -23.6085   18.5640 C   0  0  0  0  0  0  0  0  0  0  0  0
  -30.0043  -24.7342   17.8068 C   0  0  0  0  0  0  0  0  0  0  0  0
  -26.3105  -13.2903   20.3530 C   0  0  0  0  0  0  0  0  0  0  0  0
  -27.3725  -27.6464   19.7017 C   0  0  0  0  0  0  0  0  0  0  0  0
  -24.7340  -11.6561   20.9585 C   0  0  0  0  0  0  0  0  0  0  0  0
  -22.1805  -11.0213   21.8855 C   0  0  0  0  0  0  0  0  0  0  0  0
  -24.5813  -10.9341   22.1421 C   0  0  0  0  0  0  0  0  0  0  0  0
  -27.2739  -17.3850   19.9024 C   0  0  0  0  0  0  0  0  0  0  0  0
  -31.5070  -23.7397   19.8559 C   0  0  0  0  0  0  0  0  0  0  0  0
  -29.6099  -24.8148   19.1326 C   0  0  0  0  0  0  0  0  0  0  0  0
  -28.2799  -19.3399   19.9364 C   0  0  0  0  0  0  0  0  0  0  0  0
  -29.6192  -17.4901   20.9528 C   0  0  0  0  0  0  0  0  0  0  0  0
  -23.4104  -29.2869   23.0296 C   0  0  0  0  0  0  0  0  0  0  0  0
  -21.3409  -27.5102   21.2738 C   0  0  0  0  0  0  0  0  0  0  0  0
  -20.8520  -25.3816   18.6514 C   0  0  0  0  0  0  0  0  0  0  0  0
  -26.6512  -23.1723   16.2208 C   0  0  0  0  0  0  0  0  0  0  0  0
  -23.1314  -33.1365   26.3703 C   0  0  0  0  0  0  0  0  0  0  0  0
  -23.9461  -30.0567   20.6894 C   0  0  0  0  0  0  0  0  0  0  0  0
  -23.7985  -27.1087   20.8683 C   0  0  0  0  0  0  0  0  0  0  0  0
  -22.1991  -32.0172   25.9139 C   0  0  0  0  0  0  0  0  0  0  0  0
  -24.1463  -21.7715   18.3280 C   0  0  0  0  0  0  0  0  0  0  0  0
  -22.9263  -30.6765   25.9307 C   0  0  0  0  0  0  0  0  0  0  0  0
  -24.8324  -20.5557   18.9533 C   0  0  0  0  0  0  0  0  0  0  0  0
  -24.5811  -21.9817   16.8792 C   0  0  0  0  0  0  0  0  0  0  0  0
  -26.7258  -20.8431   17.3007 C   0  0  0  0  0  0  0  0  0  0  0  0
  -24.1170  -30.6826   24.9644 C   0  0  1  0  0  0  0  0  0  0  0  0
  -22.9446  -29.3567   21.6028 C   0  0  1  0  0  0  0  0  0  0  0  0
  -26.3615  -20.6233   18.7790 C   0  0  2  0  0  0  0  0  0  0  0  0
  -33.1161  -21.5306   17.7264 C   0  0  0  0  0  0  0  0  0  0  0  0
  -31.4696  -23.1613   22.2953 C   0  0  0  0  0  0  0  0  0  0  0  0
  -19.0575  -24.0687   17.4880 C   0  0  0  0  0  0  0  0  0  0  0  0
  -21.3797  -25.4599   23.5331 C   0  0  0  0  0  0  0  0  0  0  0  0
  -20.3744  -23.8004   21.9507 C   0  0  0  0  0  0  0  0  0  0  0  0
  -19.1222  -25.8758   22.5404 C   0  0  0  0  0  0  0  0  0  0  0  0
  -21.2681  -26.8425   16.1114 C   0  0  0  0  0  0  0  0  0  0  0  0
  -33.2921  -22.9472   18.2693 C   0  0  0  0  0  0  0  0  0  0  0  0
  -29.1727  -25.2818   16.6988 C   0  0  0  0  0  0  0  0  0  0  0  0
  -32.2920  -23.2106   21.0112 C   0  0  0  0  0  0  0  0  0  0  0  0
  -28.3097  -25.4704   19.4948 C   0  0  0  0  0  0  0  0  0  1  0  0
  -28.8104  -24.2433   15.6294 C   0  0  0  0  0  0  0  0  0  0  0  0
  -21.1415  -26.0343   21.0272 C   0  0  1  0  0  0  0  0  0  0  0  0
  -19.8257  -25.3804   17.5328 C   0  0  2  0  0  0  0  0  0  0  0  0
  -20.5290  -25.3055   22.2566 C   0  0  0  0  0  0  0  0  0  0  0  0
  -26.4054  -18.2183   19.3234 N   0  0  0  0  0  0  0  0  0  0  0  0
  -30.3325  -24.3318   20.1681 N   0  0  0  0  0  0  0  0  0  0  0  0
  -27.0457  -19.3993   19.3590 N   0  0  0  0  0  0  0  0  0  0  0  0
  -22.6569  -27.9846   21.1799 N   0  0  0  0  0  0  0  0  0  0  0  0
  -26.0417  -22.0385   16.7831 N   0  0  0  0  0  0  0  0  0  0  0  0
  -29.0590  -20.4361   20.0536 N   0  0  0  0  0  0  0  0  0  0  0  0
  -29.6384  -16.1227   21.2598 N   0  0  0  0  0  0  0  0  0  0  0  0
  -23.6617  -30.5200   23.6003 N   0  0  0  0  0  0  0  0  0  0  0  0
  -20.3432  -25.9278   19.8107 N   0  0  0  0  0  0  0  0  0  0  0  0
  -28.0397  -23.1476   16.1736 N   0  0  0  0  0  0  0  0  0  0  0  0
  -20.4946  -25.5785   16.2159 N   0  3  0  0  0  0  0  0  0  0  0  0
  -30.6024  -18.2034   21.2658 O   0  0  0  0  0  0  0  0  0  0  0  0
  -23.5315  -28.1952   23.5729 O   0  0  0  0  0  0  0  0  0  0  0  0
  -20.3640  -28.2175   21.5328 O   0  0  0  0  0  0  0  0  0  0  0  0
  -21.9899  -24.9387   18.5118 O   0  0  0  0  0  0  0  0  0  0  0  0
  -26.0061  -24.1374   15.7974 O   0  0  0  0  0  0  0  0  0  0  0  0
  -26.0008  -11.9728   20.4974 O   0  0  0  0  0  0  0  0  0  0  0  0
  -28.4552  -26.8856   19.3840 O   0  0  0  0  0  0  0  0  0  1  0  0
  -20.9544  -10.7179   22.3313 F   0  0  0  0  0  0  0  0  0  0  0  0
  -25.6573  -10.5437   22.8389 F   0  0  0  0  0  0  0  0  0  0  0  0
  1  2  1  0  0  0  0
  1  5  2  0  0  0  0
  2  6  2  0  0  0  0
  3  8  2  0  0  0  0
  3 16  1  0  0  0  0
  4  9  1  0  0  0  0
  4 16  2  0  0  0  0
  5 18  1  0  0  0  0
  6 20  1  0  0  0  0
  7 10  2  0  0  0  0
  7 19  1  0  0  0  0
  8 24  1  0  0  0  0
  9 24  2  0  0  0  0
 10 25  1  0  0  0  0
 11 12  2  0  0  0  0
 11 26  1  0  0  0  0
 12 27  1  0  0  0  0
 13 21  1  0  0  0  0
 13 25  2  0  0  0  0
 14 22  1  0  0  0  0
 14 23  2  0  0  0  0
 15 27  2  0  0  0  0
 15 28  1  0  0  0  0
 16 29  1  0  0  0  0
 17 29  1  0  0  0  0
 17 32  2  0  0  0  0
 17 33  1  0  0  0  0
 18 20  2  0  0  0  0
 18 38  1  0  0  0  0
 19 21  2  0  0  0  0
 19 39  1  0  0  0  0
 20 47  1  0  0  0  0
 21 40  1  0  0  0  0
 22 30  2  0  0  0  0
 22 57  1  0  0  0  0
 23 31  1  0  0  0  0
 23 58  1  0  0  0  0
 24 81  1  0  0  0  0
 25 82  1  0  0  0  0
 26 28  2  0  0  0  0
 26 81  1  0  0  0  0
 27 83  1  0  0  0  0
 28 84  1  0  0  0  0
 29 65  2  0  0  0  0
 30 59  1  0  0  0  0
 30 66  1  0  0  0  0
 31 60  1  0  0  0  0
 31 66  2  0  0  0  0
 32 67  1  0  0  0  0
 32 70  1  0  0  0  0
 33 71  1  0  0  0  0
 33 76  2  0  0  0  0
 34 48  1  0  0  0  0
 34 72  1  0  0  0  0
 34 77  2  0  0  0  0
 35 62  1  0  0  0  0
 35 68  1  0  0  0  0
 35 78  2  0  0  0  0
 36 63  1  0  0  0  0
 36 73  1  0  0  0  0
 36 79  2  0  0  0  0
 37 69  1  0  0  0  0
 37 74  1  0  0  0  0
 37 80  2  0  0  0  0
 38 41  1  0  0  0  0
 39 48  1  0  0  0  0
 40 68  1  0  0  0  0
 41 43  1  0  0  0  0
 42 44  1  0  0  0  0
 42 45  1  0  0  0  0
 43 47  1  0  0  0  0
 44 49  1  0  0  0  0
 45 69  1  0  0  0  0
 46 49  1  0  0  0  0
 46 69  1  0  0  0  0
 47 72  1  0  0  0  0
 48 68  1  0  0  0  0
 49 67  1  0  0  0  0
 50 57  1  0  0  0  0
 51 59  1  0  0  0  0
 52 63  1  0  0  0  0
 53 64  1  0  0  0  0
 54 64  1  0  0  0  0
 55 64  1  0  0  0  0
 56 75  1  0  0  0  0
 58 61  1  0  0  0  0
 60 82  1  0  0  0  0
 61 74  1  0  0  0  0
 62 64  1  0  0  0  0
 62 73  1  0  0  0  0
 63 75  1  0  0  0  0
 65 67  1  0  0  0  0
M  CHG  1  75   1
M  ISO  4  37 100  60 101  74 100  82 101
M  END
> <Batch ID>
0088

> <Smiles>
CCc1cc(CC[100NH:0][100C:0](=O)N2CCCC(n3nc(-c4ccc(Oc5ccc(F)cc5F)cc4)c(C(N)=O)c3N)C2)c([101CH2:1][101O:1]c2ccc3c(c2)CN(C(=O)C(NC(=O)C(C)NC)C(C)(C)C)C(C(=O)NC2CCCc4ccccc42)C3)nc1CC

> <Shape>
0.266

> <Color>
0.083

> <Negative vol penalty>
0.000

$$$$

  -OEChem-04052319043D

 85 93  0     1  0  0  0  0  0999 V2000
  -26.8321  -24.4682   11.8473 C   0  0  0  0  0  0  0  0  0  0  0  0
  -27.0308  -23.3021   12.5795 C   0  0  0  0  0  0  0  0  0  0  0  0
  -27.0972  -25.6788   19.1919 C   0  0  0  0  0  0  0  0  0  0  0  0
  -28.0396  -24.9864   21.3060 C   0  0  0  0  0  0  0  0  0  0  0  0
  -25.8044  -25.3430   12.1971 C   0  0  0  0  0  0  0  0  0  0  0  0
  -26.2024  -23.0107   13.6628 C   0  0  0  0  0  0  0  0  0  0  0  0
  -24.3291  -17.4701   15.4790 C   0  0  0  0  0  0  0  0  0  0  0  0
  -26.2114  -26.5219   19.8629 C   0  0  0  0  0  0  0  0  0  0  0  0
  -27.1538  -25.8294   21.9770 C   0  0  0  0  0  0  0  0  0  0  0  0
  -24.7810  -16.6077   16.4769 C   0  0  0  0  0  0  0  0  0  0  0  0
  -23.9451  -29.1271   20.9994 C   0  0  0  0  0  0  0  0  0  0  0  0
  -23.7737  -30.4179   20.4994 C   0  0  0  0  0  0  0  0  0  0  0  0
  -23.0968  -17.4678   17.9745 C   0  0  0  0  0  0  0  0  0  0  0  0
  -26.1260  -30.8585   20.8306 C   0  0  0  0  0  0  0  0  0  0  0  0
  -28.0113  -24.9110   19.9135 C   0  0  0  0  0  0  0  0  0  0  0  0
  -30.2144  -24.3594   18.7517 C   0  0  0  0  0  0  0  0  0  0  0  0
  -24.9570  -25.0574   13.2792 C   0  0  0  0  0  0  0  0  0  0  0  0
  -23.2630  -18.3471   15.7252 C   0  0  0  0  0  0  0  0  0  0  0  0
  -25.1633  -23.8832   14.0282 C   0  0  0  0  0  0  0  0  0  0  0  0
  -22.6316  -18.3386   16.9772 C   0  0  0  0  0  0  0  0  0  0  0  0
  -24.4909  -13.3647   21.6266 C   0  0  0  0  0  0  0  0  0  0  0  0
  -24.4501  -11.9756   21.5805 C   0  0  0  0  0  0  0  0  0  0  0  0
  -25.4547  -14.0509   20.8962 C   0  0  0  0  0  0  0  0  0  0  0  0
  -26.2397  -26.5972   21.2554 C   0  0  0  0  0  0  0  0  0  0  0  0
  -24.1667  -16.6085   17.7258 C   0  0  0  0  0  0  0  0  0  0  0  0
  -25.2069  -28.7020   21.4151 C   0  0  0  0  0  0  0  0  0  0  0  0
  -24.8641  -31.2836   20.4150 C   0  0  0  0  0  0  0  0  0  0  0  0
  -26.2973  -29.5677   21.3306 C   0  0  0  0  0  0  0  0  0  0  0  0
  -28.9263  -24.0396   19.2210 C   0  0  0  0  0  0  0  0  0  0  0  0
  -25.3880  -11.3249   20.7951 C   0  0  0  0  0  0  0  0  0  0  0  0
  -26.3477  -13.3074   20.1416 C   0  0  0  0  0  0  0  0  0  0  0  0
  -30.6662  -23.1994   18.1714 C   0  0  0  0  0  0  0  0  0  0  0  0
  -30.9380  -25.5945   18.8332 C   0  0  0  0  0  0  0  0  0  0  0  0
  -22.9170  -21.5068   15.7486 C   0  0  0  0  0  0  0  0  0  0  0  0
  -19.7881  -20.7704   16.1841 C   0  0  0  0  0  0  0  0  0  0  0  0
  -17.4653  -18.5111   17.2552 C   0  0  0  0  0  0  0  0  0  0  0  0
  -29.3147  -17.5336   19.1349 C   0  0  0  0  0  0  0  0  0  0  0  0
  -23.8894  -26.0567   13.6486 C   0  0  0  0  0  0  0  0  0  0  0  0
  -22.7701  -19.2523   14.6297 C   0  0  0  0  0  0  0  0  0  0  0  0
  -21.4700  -19.2463   17.2858 C   0  0  0  0  0  0  0  0  0  0  0  0
  -22.8200  -25.4897   14.5787 C   0  0  0  0  0  0  0  0  0  0  0  0
  -29.0903  -19.2576   15.9608 C   0  0  0  0  0  0  0  0  0  0  0  0
  -23.4645  -24.7133   15.7226 C   0  0  0  0  0  0  0  0  0  0  0  0
  -29.1467  -20.7205   16.4046 C   0  0  0  0  0  0  0  0  0  0  0  0
  -28.2934  -18.4106   16.9485 C   0  0  0  0  0  0  0  0  0  0  0  0
  -28.8382  -19.9427   18.8004 C   0  0  0  0  0  0  0  0  0  0  0  0
  -24.2700  -23.5200   15.1945 C   0  0  1  0  0  0  0  0  0  0  0  0
  -22.0100  -20.4665   15.1546 C   0  0  1  0  0  0  0  0  0  0  0  0
  -29.6495  -20.8471   17.8549 C   0  0  2  0  0  0  0  0  0  0  0  0
  -23.5038  -14.1179   22.4602 C   0  0  0  0  0  0  0  0  0  0  0  0
  -23.4272  -11.2114   22.3522 C   0  0  0  0  0  0  0  0  0  0  0  0
  -25.3940   -9.8339   20.7056 C   0  0  0  0  0  0  0  0  0  0  0  0
  -14.9884  -18.2078   17.5207 C   0  0  0  0  0  0  0  0  0  0  0  0
  -19.8308  -22.5874   18.6349 C   0  0  0  0  0  0  0  0  0  0  0  0
  -17.6894  -21.5224   19.3755 C   0  0  0  0  0  0  0  0  0  0  0  0
  -17.7742  -22.7848   17.2256 C   0  0  0  0  0  0  0  0  0  0  0  0
  -17.4356  -16.1897   15.4197 C   0  0  0  0  0  0  0  0  0  0  0  0
  -25.5254  -15.5584   20.9251 C   0  0  0  0  0  0  0  0  0  0  0  0
  -27.4070  -13.9879   19.3378 C   0  0  0  0  0  0  0  0  0  0  0  0
  -28.6293  -14.4467   20.1556 C   0  0  0  0  0  0  0  0  0  0  0  0
  -29.7346  -15.0955   19.3250 C   0  0  0  0  0  0  0  0  0  0  0  0
  -24.4563  -16.2058   20.0517 C   0  0  0  0  0  0  0  0  0  1  0  0
  -18.9036  -20.5283   17.3833 C   0  0  1  0  0  0  0  0  0  0  0  0
  -16.1899  -17.9962   16.6128 C   0  0  2  0  0  0  0  0  0  0  0  0
  -18.5726  -21.8399   18.1500 C   0  0  0  0  0  0  0  0  0  0  0  0
  -28.5819  -22.7755   18.9611 N   0  0  0  0  0  0  0  0  0  0  0  0
  -26.3391  -11.9573   20.0719 N   0  0  0  0  0  0  0  0  0  0  0  0
  -29.6602  -22.2908   18.3221 N   0  0  0  0  0  0  0  0  0  0  0  0
  -21.0288  -20.1174   16.1839 N   0  0  0  0  0  0  0  0  0  0  0  0
  -28.8344  -18.5616   18.3066 N   0  0  0  0  0  0  0  0  0  0  0  0
  -31.8218  -22.8781   17.5518 N   0  0  0  0  0  0  0  0  0  0  0  0
  -30.3261  -26.6869   19.4630 N   0  0  0  0  0  0  0  0  0  0  0  0
  -23.3855  -22.4323   14.8356 N   0  0  0  0  0  0  0  0  0  0  0  0
  -17.7320  -19.8133   16.8888 N   0  0  0  0  0  0  0  0  0  0  0  0
  -29.2700  -16.2541   18.5951 N   0  0  0  0  0  0  0  0  0  0  0  0
  -16.3082  -16.5394   16.3216 N   0  3  0  0  0  0  0  0  0  0  0  0
  -32.0864  -25.7302   18.3471 O   0  0  0  0  0  0  0  0  0  0  0  0
  -23.1717  -21.4732   16.9468 O   0  0  0  0  0  0  0  0  0  0  0  0
  -19.3897  -21.5058   15.2775 O   0  0  0  0  0  0  0  0  0  0  0  0
  -18.1540  -17.8277   18.0097 O   0  0  0  0  0  0  0  0  0  0  0  0
  -29.7561  -17.7414   20.2703 O   0  0  0  0  0  0  0  0  0  0  0  0
  -25.3756  -27.4199   21.9105 O   0  0  0  0  0  0  0  0  0  0  0  0
  -24.6061  -15.7682   18.7018 O   0  0  0  0  0  0  0  0  0  1  0  0
  -24.6996  -32.5226   19.9334 F   0  0  0  0  0  0  0  0  0  0  0  0
  -27.5122  -29.1646   21.7273 F   0  0  0  0  0  0  0  0  0  0  0  0
  1  2  1  0  0  0  0
  1  5  2  0  0  0  0
  2  6  2  0  0  0  0
  3  8  2  0  0  0  0
  3 15  1  0  0  0  0
  4  9  1  0  0  0  0
  4 15  2  0  0  0  0
  5 17  1  0  0  0  0
  6 19  1  0  0  0  0
  7 10  2  0  0  0  0
  7 18  1  0  0  0  0
  8 24  1  0  0  0  0
  9 24  2  0  0  0  0
 10 25  1  0  0  0  0
 11 12  2  0  0  0  0
 11 26  1  0  0  0  0
 12 27  1  0  0  0  0
 13 20  1  0  0  0  0
 13 25  2  0  0  0  0
 14 27  2  0  0  0  0
 14 28  1  0  0  0  0
 15 29  1  0  0  0  0
 16 29  1  0  0  0  0
 16 32  2  0  0  0  0
 16 33  1  0  0  0  0
 17 19  2  0  0  0  0
 17 38  1  0  0  0  0
 18 20  2  0  0  0  0
 18 39  1  0  0  0  0
 19 47  1  0  0  0  0
 20 40  1  0  0  0  0
 21 22  1  0  0  0  0
 21 23  2  0  0  0  0
 21 50  1  0  0  0  0
 22 30  2  0  0  0  0
 22 51  1  0  0  0  0
 23 31  1  0  0  0  0
 23 58  1  0  0  0  0
 24 82  1  0  0  0  0
 25 83  1  0  0  0  0
 26 28  2  0  0  0  0
 26 82  1  0  0  0  0
 27 84  1  0  0  0  0
 28 85  1  0  0  0  0
 29 66  2  0  0  0  0
 30 52  1  0  0  0  0
 30 67  1  0  0  0  0
 31 59  1  0  0  0  0
 31 67  2  0  0  0  0
 32 68  1  0  0  0  0
 32 71  1  0  0  0  0
 33 72  1  0  0  0  0
 33 77  2  0  0  0  0
 34 48  1  0  0  0  0
 34 73  1  0  0  0  0
 34 78  2  0  0  0  0
 35 63  1  0  0  0  0
 35 69  1  0  0  0  0
 35 79  2  0  0  0  0
 36 64  1  0  0  0  0
 36 74  1  0  0  0  0
 36 80  2  0  0  0  0
 37 70  1  0  0  0  0
 37 75  1  0  0  0  0
 37 81  2  0  0  0  0
 38 41  1  0  0  0  0
 39 48  1  0  0  0  0
 40 69  1  0  0  0  0
 41 43  1  0  0  0  0
 42 44  1  0  0  0  0
 42 45  1  0  0  0  0
 43 47  1  0  0  0  0
 44 49  1  0  0  0  0
 45 70  1  0  0  0  0
 46 49  1  0  0  0  0
 46 70  1  0  0  0  0
 47 73  1  0  0  0  0
 48 69  1  0  0  0  0
 49 68  1  0  0  0  0
 53 64  1  0  0  0  0
 54 65  1  0  0  0  0
 55 65  1  0  0  0  0
 56 65  1  0  0  0  0
 57 76  1  0  0  0  0
 58 62  1  0  0  0  0
 59 60  1  0  0  0  0
 60 61  1  0  0  0  0
 61 75  1  0  0  0  0
 62 83  1  0  0  0  0
 63 65  1  0  0  0  0
 63 74  1  0  0  0  0
 64 76  1  0  0  0  0
 66 68  1  0  0  0  0
M  CHG  1  76   1
M  ISO  4  37 100  62 101  75 100  83 101
M  END
> <Batch ID>
0088

> <Smiles>
CNC(C)C(=O)NC(C(=O)N1Cc2cc([101O:1][101CH2:1]Cc3c(CCC[100NH:0][100C:0](=O)N4CCCC(n5nc(-c6ccc(Oc7ccc(F)cc7F)cc6)c(C(N)=O)c5N)C4)nc(C)c(C)c3C)ccc2CC1C(=O)NC1CCCc2ccccc21)C(C)(C)C

> <Shape>
0.178

> <Color>
0.077

> <Negative vol penalty>
0.000

$$$$

  -OEChem-04052319043D

 86 94  0     1  0  0  0  0  0999 V2000
  -17.9554  -24.2069   23.5030 C   0  0  0  0  0  0  0  0  0  0  0  0
  -19.3240  -23.9736   23.5923 C   0  0  0  0  0  0  0  0  0  0  0  0
  -25.5711  -13.7135   21.7076 C   0  0  0  0  0  0  0  0  0  0  0  0
  -26.3970  -13.6795   19.4374 C   0  0  0  0  0  0  0  0  0  0  0  0
  -17.4867  -25.4705   23.1458 C   0  0  0  0  0  0  0  0  0  0  0  0
  -20.2247  -25.0035   23.3232 C   0  0  0  0  0  0  0  0  0  0  0  0
  -23.9591  -25.2587   26.7341 C   0  0  0  0  0  0  0  0  0  0  0  0
  -25.3062  -12.3461   21.6317 C   0  0  0  0  0  0  0  0  0  0  0  0
  -26.1322  -12.3121   19.3615 C   0  0  0  0  0  0  0  0  0  0  0  0
  -24.9942  -24.3322   26.6155 C   0  0  0  0  0  0  0  0  0  0  0  0
  -22.9233  -10.3400   20.3196 C   0  0  0  0  0  0  0  0  0  0  0  0
  -21.6972   -9.8900   20.8093 C   0  0  0  0  0  0  0  0  0  0  0  0
  -26.3605  -26.0052   25.5414 C   0  0  0  0  0  0  0  0  0  0  0  0
  -29.3122  -22.7304   23.0375 C   0  0  0  0  0  0  0  0  0  0  0  0
  -22.8491   -8.4854   22.4023 C   0  0  0  0  0  0  0  0  0  0  0  0
  -27.1398  -22.3111   22.6197 C   0  0  0  0  0  0  0  0  0  0  0  0
  -26.1164  -14.3802   20.6104 C   0  0  0  0  0  0  0  0  0  0  0  0
  -27.5837  -16.4056   21.1129 C   0  0  0  0  0  0  0  0  0  0  0  0
  -18.3820  -26.5190   22.8817 C   0  0  0  0  0  0  0  0  0  0  0  0
  -24.1134  -26.5645   26.2466 C   0  0  0  0  0  0  0  0  0  0  0  0
  -19.7676  -26.2819   22.9608 C   0  0  0  0  0  0  0  0  0  0  0  0
  -25.3268  -26.9471   25.6573 C   0  0  0  0  0  0  0  0  0  0  0  0
  -28.1145  -22.2110   23.5878 C   0  0  0  0  0  0  0  0  0  0  0  0
  -25.5868  -11.6454   20.4587 C   0  0  0  0  0  0  0  0  0  0  0  0
  -26.1941  -24.7046   26.0165 C   0  0  0  0  0  0  0  0  0  0  0  0
  -24.1123   -9.8627   20.8712 C   0  0  0  0  0  0  0  0  0  0  0  0
  -21.6601   -8.9627   21.8506 C   0  0  0  0  0  0  0  0  0  0  0  0
  -24.0752   -8.9355   21.9125 C   0  0  0  0  0  0  0  0  0  0  0  0
  -26.3897  -15.7928   20.6879 C   0  0  0  0  0  0  0  0  0  0  0  0
  -29.0329  -23.1322   21.7499 C   0  0  0  0  0  0  0  0  0  0  0  0
  -27.3369  -17.7522   21.0021 C   0  0  0  0  0  0  0  0  0  0  0  0
  -28.8066  -15.8108   21.5672 C   0  0  0  0  0  0  0  0  0  0  0  0
  -22.6642  -28.3148   24.0239 C   0  0  0  0  0  0  0  0  0  0  0  0
  -24.5705  -30.6668   25.1885 C   0  0  0  0  0  0  0  0  0  0  0  0
  -27.4306  -31.5268   26.8398 C   0  0  0  0  0  0  0  0  0  0  0  0
  -25.2637  -21.8758   17.6832 C   0  0  0  0  0  0  0  0  0  0  0  0
  -17.8290  -27.8551   22.4531 C   0  0  0  0  0  0  0  0  0  0  0  0
  -22.9969  -27.5597   26.4062 C   0  0  0  0  0  0  0  0  0  0  0  0
  -25.5501  -28.3424   25.1361 C   0  0  0  0  0  0  0  0  0  0  0  0
  -18.8422  -28.9928   22.5492 C   0  0  0  0  0  0  0  0  0  0  0  0
  -23.0413  -20.2727   20.1717 C   0  0  0  0  0  0  0  0  0  0  0  0
  -20.1771  -28.5714   21.9429 C   0  0  0  0  0  0  0  0  0  0  0  0
  -23.7880  -18.9815   20.5022 C   0  0  0  0  0  0  0  0  0  0  0  0
  -23.3437  -20.7565   18.7567 C   0  0  0  0  0  0  0  0  0  0  0  0
  -25.5424  -19.6261   18.8031 C   0  0  0  0  0  0  0  0  0  0  0  0
  -20.7756  -27.3802   22.7007 C   0  0  1  0  0  0  0  0  0  0  0  0
  -23.0786  -28.7139   25.4120 C   0  0  1  0  0  0  0  0  0  0  0  0
  -25.2957  -19.1367   20.2381 C   0  0  2  0  0  0  0  0  0  0  0  0
  -30.8670  -25.9030   19.7843 C   0  0  0  0  0  0  0  0  0  0  0  0
  -28.7368  -33.5276   27.6066 C   0  0  0  0  0  0  0  0  0  0  0  0
  -29.2278  -21.6667   25.8557 C   0  0  0  0  0  0  0  0  0  0  0  0
  -27.4954  -20.1603   24.9034 C   0  0  0  0  0  0  0  0  0  0  0  0
  -25.5285  -31.1340   22.3294 C   0  0  0  0  0  0  0  0  0  0  0  0
  -27.4592  -32.4268   23.2617 C   0  0  0  0  0  0  0  0  0  0  0  0
  -25.1261  -33.2201   23.6488 C   0  0  0  0  0  0  0  0  0  0  0  0
  -27.0818  -23.4450   17.1249 C   0  0  0  0  0  0  0  0  0  0  0  0
  -27.1985  -30.7342   29.6818 C   0  0  0  0  0  0  0  0  0  0  0  0
  -29.9165  -23.7405   20.7339 C   0  0  0  0  0  0  0  0  0  0  0  0
  -29.9284  -25.2803   20.8057 C   0  0  0  0  0  0  0  0  0  0  0  0
  -27.0054  -23.1428   20.2724 C   0  0  0  0  0  0  0  0  0  0  0  0
  -27.2855  -22.1065   19.1871 C   0  0  0  0  0  0  0  0  0  0  0  0
  -26.8394  -22.4289   25.7692 C   0  0  0  0  0  0  0  0  0  1  0  0
  -25.9582  -31.1717   24.8750 C   0  0  1  0  0  0  0  0  0  0  0  0
  -27.6826  -32.4970   27.9798 C   0  0  2  0  0  0  0  0  0  0  0  0
  -27.9342  -21.6391   25.0065 C   0  0  0  0  0  0  0  0  0  0  0  0
  -26.0134  -31.9612   23.5367 C   0  0  0  0  0  0  0  0  0  0  0  0
  -25.4538  -16.6775   20.3337 N   0  0  0  0  0  0  0  0  0  0  0  0
  -27.7093  -22.8728   21.5069 N   0  0  0  0  0  0  0  0  0  0  0  0
  -26.0597  -17.8599   20.5359 N   0  0  0  0  0  0  0  0  0  0  0  0
  -24.4263  -29.2775   25.3097 N   0  0  0  0  0  0  0  0  0  0  0  0
  -24.7843  -20.8537   18.5189 N   0  0  0  0  0  0  0  0  0  0  0  0
  -28.0899  -18.8427   21.2589 N   0  0  0  0  0  0  0  0  0  0  0  0
  -28.8905  -14.4127   21.6194 N   0  0  0  0  0  0  0  0  0  0  0  0
  -21.3763  -27.8208   23.9415 N   0  0  0  0  0  0  0  0  0  0  0  0
  -26.3861  -31.9391   26.0396 N   0  0  0  0  0  0  0  0  0  0  0  0
  -26.5455  -22.3768   17.9563 N   0  0  0  0  0  0  0  0  0  0  0  0
  -28.1498  -31.7639   29.1903 N   0  3  0  0  0  0  0  0  0  0  0  0
  -29.7899  -16.4989   21.9320 O   0  0  0  0  0  0  0  0  0  0  0  0
  -23.4538  -28.4467   23.0962 O   0  0  0  0  0  0  0  0  0  0  0  0
  -23.6498  -31.4759   25.3279 O   0  0  0  0  0  0  0  0  0  0  0  0
  -28.0963  -30.5071   26.6735 O   0  0  0  0  0  0  0  0  0  0  0  0
  -24.5809  -22.3220   16.7523 O   0  0  0  0  0  0  0  0  0  0  0  0
  -25.3287  -10.3111   20.3844 O   0  0  0  0  0  0  0  0  0  0  0  0
  -27.2057  -23.8020   25.8989 O   0  0  0  0  0  0  0  0  0  1  0  0
  -20.4826   -8.5318   22.3218 F   0  0  0  0  0  0  0  0  0  0  0  0
  -25.2141   -8.4742   22.4472 F   0  0  0  0  0  0  0  0  0  0  0  0
  1  2  1  0  0  0  0
  1  5  2  0  0  0  0
  2  6  2  0  0  0  0
  3  8  2  0  0  0  0
  3 17  1  0  0  0  0
  4  9  1  0  0  0  0
  4 17  2  0  0  0  0
  5 19  1  0  0  0  0
  6 21  1  0  0  0  0
  7 10  2  0  0  0  0
  7 20  1  0  0  0  0
  8 24  1  0  0  0  0
  9 24  2  0  0  0  0
 10 25  1  0  0  0  0
 11 12  2  0  0  0  0
 11 26  1  0  0  0  0
 12 27  1  0  0  0  0
 13 22  1  0  0  0  0
 13 25  2  0  0  0  0
 14 23  1  0  0  0  0
 14 30  2  0  0  0  0
 15 27  2  0  0  0  0
 15 28  1  0  0  0  0
 16 23  2  0  0  0  0
 16 68  1  0  0  0  0
 17 29  1  0  0  0  0
 18 29  1  0  0  0  0
 18 31  2  0  0  0  0
 18 32  1  0  0  0  0
 19 21  2  0  0  0  0
 19 37  1  0  0  0  0
 20 22  2  0  0  0  0
 20 38  1  0  0  0  0
 21 46  1  0  0  0  0
 22 39  1  0  0  0  0
 23 65  1  0  0  0  0
 24 83  1  0  0  0  0
 25 84  1  0  0  0  0
 26 28  2  0  0  0  0
 26 83  1  0  0  0  0
 27 85  1  0  0  0  0
 28 86  1  0  0  0  0
 29 67  2  0  0  0  0
 30 58  1  0  0  0  0
 30 68  1  0  0  0  0
 31 69  1  0  0  0  0
 31 72  1  0  0  0  0
 32 73  1  0  0  0  0
 32 78  2  0  0  0  0
 33 47  1  0  0  0  0
 33 74  1  0  0  0  0
 33 79  2  0  0  0  0
 34 63  1  0  0  0  0
 34 70  1  0  0  0  0
 34 80  2  0  0  0  0
 35 64  1  0  0  0  0
 35 75  1  0  0  0  0
 35 81  2  0  0  0  0
 36 71  1  0  0  0  0
 36 76  1  0  0  0  0
 36 82  2  0  0  0  0
 37 40  1  0  0  0  0
 38 47  1  0  0  0  0
 39 70  1  0  0  0  0
 40 42  1  0  0  0  0
 41 43  1  0  0  0  0
 41 44  1  0  0  0  0
 42 46  1  0  0  0  0
 43 48  1  0  0  0  0
 44 71  1  0  0  0  0
 45 48  1  0  0  0  0
 45 71  1  0  0  0  0
 46 74  1  0  0  0  0
 47 70  1  0  0  0  0
 48 69  1  0  0  0  0
 49 59  1  0  0  0  0
 50 64  1  0  0  0  0
 51 65  1  0  0  0  0
 52 65  1  0  0  0  0
 53 66  1  0  0  0  0
 54 66  1  0  0  0  0
 55 66  1  0  0  0  0
 56 76  1  0  0  0  0
 57 77  1  0  0  0  0
 58 59  1  0  0  0  0
 60 61  1  0  0  0  0
 60 68  1  0  0  0  0
 61 76  1  0  0  0  0
 62 65  1  0  0  0  0
 62 84  1  0  0  0  0
 63 66  1  0  0  0  0
 63 75  1  0  0  0  0
 64 77  1  0  0  0  0
 67 69  1  0  0  0  0
M  CHG  1  77   1
M  ISO  4  36 100  62 101  76 100  84 101
M  END
> <Batch ID>
0088

> <Smiles>
CCCc1cc(C(C)(C)[101CH2:1][101O:1]c2ccc3c(c2)CN(C(=O)C(NC(=O)C(C)NC)C(C)(C)C)C(C(=O)NC2CCCc4ccccc42)C3)cn1CC[100N:0](C)[100C:0](=O)N1CCCC(n2nc(-c3ccc(Oc4ccc(F)cc4F)cc3)c(C(N)=O)c2N)C1

> <Shape>
0.227

> <Color>
0.070

> <Negative vol penalty>
0.000

$$$$

  -OEChem-04052319043D

 86 94  0     1  0  0  0  0  0999 V2000
  -17.4868  -32.2184   22.7509 C   0  0  0  0  0  0  0  0  0  0  0  0
  -18.5998  -32.3093   21.9213 C   0  0  0  0  0  0  0  0  0  0  0  0
  -25.2560  -13.3991   19.5234 C   0  0  0  0  0  0  0  0  0  0  0  0
  -25.1604  -14.5263   21.6582 C   0  0  0  0  0  0  0  0  0  0  0  0
  -17.5365  -31.4273   23.8979 C   0  0  0  0  0  0  0  0  0  0  0  0
  -19.7637  -31.6099   22.2388 C   0  0  0  0  0  0  0  0  0  0  0  0
  -25.2881  -28.2648   19.1392 C   0  0  0  0  0  0  0  0  0  0  0  0
  -25.1220  -12.1689   20.1669 C   0  0  0  0  0  0  0  0  0  0  0  0
  -25.0263  -13.2961   22.3018 C   0  0  0  0  0  0  0  0  0  0  0  0
  -26.6819  -28.2423   19.1585 C   0  0  0  0  0  0  0  0  0  0  0  0
  -22.6348  -10.3304   21.5332 C   0  0  0  0  0  0  0  0  0  0  0  0
  -21.7369   -9.4103   20.9922 C   0  0  0  0  0  0  0  0  0  0  0  0
  -26.6261  -26.8440   21.1233 C   0  0  0  0  0  0  0  0  0  0  0  0
  -28.3458  -23.3273   16.2202 C   0  0  0  0  0  0  0  0  0  0  0  0
  -30.2428  -24.6656   16.8888 C   0  0  0  0  0  0  0  0  0  0  0  0
  -23.5412   -7.8347   20.6773 C   0  0  0  0  0  0  0  0  0  0  0  0
  -25.2753  -14.5779   20.2691 C   0  0  0  0  0  0  0  0  0  0  0  0
  -24.3804  -16.6740   19.1232 C   0  0  0  0  0  0  0  0  0  0  0  0
  -18.6983  -30.7102   24.2245 C   0  0  0  0  0  0  0  0  0  0  0  0
  -24.5516  -27.5848   20.1198 C   0  0  0  0  0  0  0  0  0  0  0  0
  -19.8294  -30.8095   23.3919 C   0  0  0  0  0  0  0  0  0  0  0  0
  -25.2230  -26.8572   21.1127 C   0  0  0  0  0  0  0  0  0  0  0  0
  -29.5250  -23.9982   15.8963 C   0  0  0  0  0  0  0  0  0  0  0  0
  -27.8842  -23.3239   17.5365 C   0  0  0  0  0  0  0  0  0  0  0  0
  -29.7812  -24.6623   18.2051 C   0  0  0  0  0  0  0  0  0  0  0  0
  -28.6019  -23.9914   18.5289 C   0  0  0  0  0  0  0  0  0  0  0  0
  -25.0071  -12.1174   21.5561 C   0  0  0  0  0  0  0  0  0  0  0  0
  -27.3512  -27.5342   20.1524 C   0  0  0  0  0  0  0  0  0  0  0  0
  -23.9859  -10.0028   21.6463 C   0  0  0  0  0  0  0  0  0  0  0  0
  -22.1901   -8.1625   20.5643 C   0  0  0  0  0  0  0  0  0  0  0  0
  -24.4391   -8.7549   21.2184 C   0  0  0  0  0  0  0  0  0  0  0  0
  -25.4144  -15.8490   19.6049 C   0  0  0  0  0  0  0  0  0  0  0  0
  -25.0292  -17.7567   18.5816 C   0  0  0  0  0  0  0  0  0  0  0  0
  -22.9605  -16.4792   19.1620 C   0  0  0  0  0  0  0  0  0  0  0  0
  -22.4838  -28.4493   22.3738 C   0  0  0  0  0  0  0  0  0  0  0  0
  -22.1797  -25.2450   22.7763 C   0  0  0  0  0  0  0  0  0  0  0  0
  -23.5463  -22.1379   22.4222 C   0  0  0  0  0  0  0  0  0  0  0  0
  -29.6731  -21.0940   19.4818 C   0  0  0  0  0  0  0  0  0  0  0  0
  -18.7203  -29.9056   25.5000 C   0  0  0  0  0  0  0  0  0  0  0  0
  -23.0483  -27.5968   20.0694 C   0  0  0  0  0  0  0  0  0  0  0  0
  -24.4786  -26.0939   22.1766 C   0  0  0  0  0  0  0  0  0  0  0  0
  -19.8666  -28.8997   25.5659 C   0  0  0  0  0  0  0  0  0  0  0  0
  -29.6128  -18.6064   16.9352 C   0  0  0  0  0  0  0  0  0  0  0  0
  -21.1768  -29.5547   25.1400 C   0  0  0  0  0  0  0  0  0  0  0  0
  -28.4279  -17.7185   17.3193 C   0  0  0  0  0  0  0  0  0  0  0  0
  -30.3621  -19.1112   18.1664 C   0  0  0  0  0  0  0  0  0  0  0  0
  -28.3351  -18.9029   19.5525 C   0  0  0  0  0  0  0  0  0  0  0  0
  -21.1018  -30.0463   23.6894 C   0  0  1  0  0  0  0  0  0  0  0  0
  -22.4028  -27.2930   21.4179 C   0  0  1  0  0  0  0  0  0  0  0  0
  -27.5148  -18.4151   18.3460 C   0  0  2  0  0  0  0  0  0  0  0  0
  -30.0181  -24.0023   14.4889 C   0  0  0  0  0  0  0  0  0  0  0  0
  -25.3799  -23.3754   17.4263 C   0  0  0  0  0  0  0  0  0  0  0  0
  -23.6740  -19.6320   22.4617 C   0  0  0  0  0  0  0  0  0  0  0  0
  -31.6234  -27.5253   20.0755 C   0  0  0  0  0  0  0  0  0  0  0  0
  -22.7899  -25.6847   25.7334 C   0  0  0  0  0  0  0  0  0  0  0  0
  -23.2427  -23.2305   25.9333 C   0  0  0  0  0  0  0  0  0  0  0  0
  -20.9719  -24.0288   25.2784 C   0  0  0  0  0  0  0  0  0  0  0  0
  -22.4915  -21.9250   19.6653 C   0  0  0  0  0  0  0  0  0  0  0  0
  -26.6191  -22.5970   17.8572 C   0  0  0  0  0  0  0  0  0  0  0  0
  -30.5765  -25.3920   19.2602 C   0  0  0  0  0  0  0  0  0  0  0  0
  -28.1071  -23.9872   19.9402 C   0  0  0  0  0  0  0  0  0  0  0  0
  -28.8490  -22.9978   20.8440 C   0  0  0  0  0  0  0  0  0  0  0  0
  -29.3831  -27.6178   18.9192 C   0  0  0  0  0  0  0  0  0  1  0  0
  -22.8728  -24.2030   23.6207 C   0  0  1  0  0  0  0  0  0  0  0  0
  -22.9785  -20.8453   21.8644 C   0  0  2  0  0  0  0  0  0  0  0  0
  -30.7390  -26.9010   18.9886 C   0  0  1  0  0  0  0  0  0  0  0  0
  -22.4837  -24.3026   25.1227 C   0  0  0  0  0  0  0  0  0  0  0  0
  -26.6278  -16.3634   19.3883 N   0  0  0  0  0  0  0  0  0  0  0  0
  -26.3605  -17.5233   18.7644 N   0  0  0  0  0  0  0  0  0  0  0  0
  -23.0098  -26.1413   22.0883 N   0  0  0  0  0  0  0  0  0  0  0  0
  -29.4396  -19.7628   19.0992 N   0  0  0  0  0  0  0  0  0  0  0  0
  -24.5851  -18.8760   17.9715 N   0  0  0  0  0  0  0  0  0  0  0  0
  -22.4623  -15.3113   19.7554 N   0  0  0  0  0  0  0  0  0  0  0  0
  -21.2539  -28.9376   22.7716 N   0  0  0  0  0  0  0  0  0  0  0  0
  -22.5691  -22.9139   23.0089 N   0  0  0  0  0  0  0  0  0  0  0  0
  -28.7474  -21.6377   20.3639 N   0  0  0  0  0  0  0  0  0  0  0  0
  -23.1465  -20.8020   20.3842 N   0  3  0  0  0  0  0  0  0  0  0  0
  -22.1580  -17.3082   18.6698 O   0  0  0  0  0  0  0  0  0  0  0  0
  -23.5810  -28.8666   22.7257 O   0  0  0  0  0  0  0  0  0  0  0  0
  -20.9474  -25.2585   22.7234 O   0  0  0  0  0  0  0  0  0  0  0  0
  -24.7383  -22.4284   22.3485 O   0  0  0  0  0  0  0  0  0  0  0  0
  -30.6324  -21.7512   19.0636 O   0  0  0  0  0  0  0  0  0  0  0  0
  -24.8760  -10.9171   22.1844 O   0  0  0  0  0  0  0  0  0  0  0  0
  -28.7117  -27.5112   20.1739 O   0  0  0  0  0  0  0  0  0  1  0  0
  -21.3275   -7.2784   20.0462 F   0  0  0  0  0  0  0  0  0  0  0  0
  -25.7358   -8.4340   21.3255 F   0  0  0  0  0  0  0  0  0  0  0  0
  1  2  1  0  0  0  0
  1  5  2  0  0  0  0
  2  6  2  0  0  0  0
  3  8  2  0  0  0  0
  3 17  1  0  0  0  0
  4  9  1  0  0  0  0
  4 17  2  0  0  0  0
  5 19  1  0  0  0  0
  6 21  1  0  0  0  0
  7 10  2  0  0  0  0
  7 20  1  0  0  0  0
  8 27  1  0  0  0  0
  9 27  2  0  0  0  0
 10 28  1  0  0  0  0
 11 12  2  0  0  0  0
 11 29  1  0  0  0  0
 12 30  1  0  0  0  0
 13 22  1  0  0  0  0
 13 28  2  0  0  0  0
 14 23  2  0  0  0  0
 14 24  1  0  0  0  0
 15 23  1  0  0  0  0
 15 25  2  0  0  0  0
 16 30  2  0  0  0  0
 16 31  1  0  0  0  0
 17 32  1  0  0  0  0
 18 32  1  0  0  0  0
 18 33  2  0  0  0  0
 18 34  1  0  0  0  0
 19 21  2  0  0  0  0
 19 39  1  0  0  0  0
 20 22  2  0  0  0  0
 20 40  1  0  0  0  0
 21 48  1  0  0  0  0
 22 41  1  0  0  0  0
 23 51  1  0  0  0  0
 24 26  2  0  0  0  0
 24 59  1  0  0  0  0
 25 26  1  0  0  0  0
 25 60  1  0  0  0  0
 26 61  1  0  0  0  0
 27 83  1  0  0  0  0
 28 84  1  0  0  0  0
 29 31  2  0  0  0  0
 29 83  1  0  0  0  0
 30 85  1  0  0  0  0
 31 86  1  0  0  0  0
 32 68  2  0  0  0  0
 33 69  1  0  0  0  0
 33 72  1  0  0  0  0
 34 73  1  0  0  0  0
 34 78  2  0  0  0  0
 35 49  1  0  0  0  0
 35 74  1  0  0  0  0
 35 79  2  0  0  0  0
 36 64  1  0  0  0  0
 36 70  1  0  0  0  0
 36 80  2  0  0  0  0
 37 65  1  0  0  0  0
 37 75  1  0  0  0  0
 37 81  2  0  0  0  0
 38 71  1  0  0  0  0
 38 76  1  0  0  0  0
 38 82  2  0  0  0  0
 39 42  1  0  0  0  0
 40 49  1  0  0  0  0
 41 70  1  0  0  0  0
 42 44  1  0  0  0  0
 43 45  1  0  0  0  0
 43 46  1  0  0  0  0
 44 48  1  0  0  0  0
 45 50  1  0  0  0  0
 46 71  1  0  0  0  0
 47 50  1  0  0  0  0
 47 71  1  0  0  0  0
 48 74  1  0  0  0  0
 49 70  1  0  0  0  0
 50 69  1  0  0  0  0
 52 59  1  0  0  0  0
 53 65  1  0  0  0  0
 54 66  1  0  0  0  0
 55 67  1  0  0  0  0
 56 67  1  0  0  0  0
 57 67  1  0  0  0  0
 58 77  1  0  0  0  0
 60 66  1  0  0  0  0
 61 62  1  0  0  0  0
 62 76  1  0  0  0  0
 63 66  1  0  0  0  0
 63 84  1  0  0  0  0
 64 67  1  0  0  0  0
 64 75  1  0  0  0  0
 65 77  1  0  0  0  0
 68 69  1  0  0  0  0
M  CHG  1  77   1
M  ISO  4  38 100  63 101  76 100  84 101
M  END
> <Batch ID>
0088

> <Smiles>
CCc1cc(C)cc(CC(C)[101CH2:1][101O:1]c2ccc3c(c2)CN(C(=O)C(NC(=O)C(C)NC)C(C)(C)C)C(C(=O)NC2CCCc4ccccc42)C3)c1CC[100NH:0][100C:0](=O)N1CCCC(n2nc(-c3ccc(Oc4ccc(F)cc4F)cc3)c(C(N)=O)c2N)C1

> <Shape>
0.233

> <Color>
0.079

> <Negative vol penalty>
0.000

$$$$

  -OEChem-04052319043D

 88 96  0     1  0  0  0  0  0999 V2000
  -34.5837  -26.7257   17.8857 C   0  0  0  0  0  0  0  0  0  0  0  0
  -33.6076  -25.7462   17.7329 C   0  0  0  0  0  0  0  0  0  0  0  0
  -23.0184   -9.8701   20.0527 C   0  0  0  0  0  0  0  0  0  0  0  0
  -23.6926  -10.0678   22.3643 C   0  0  0  0  0  0  0  0  0  0  0  0
  -34.4107  -27.7397   18.8268 C   0  0  0  0  0  0  0  0  0  0  0  0
  -32.4584  -25.7796   18.5220 C   0  0  0  0  0  0  0  0  0  0  0  0
  -28.2414  -24.9311   15.8495 C   0  0  0  0  0  0  0  0  0  0  0  0
  -22.2513   -8.7497   20.3723 C   0  0  0  0  0  0  0  0  0  0  0  0
  -22.9255   -8.9475   22.6839 C   0  0  0  0  0  0  0  0  0  0  0  0
  -27.9595  -23.6092   15.5076 C   0  0  0  0  0  0  0  0  0  0  0  0
  -23.1953   -5.5872   22.4253 C   0  0  0  0  0  0  0  0  0  0  0  0
  -23.7708   -4.6220   23.2516 C   0  0  0  0  0  0  0  0  0  0  0  0
  -26.3869  -23.4790   17.3322 C   0  0  0  0  0  0  0  0  0  0  0  0
  -28.4585  -18.1810   19.2069 C   0  0  0  0  0  0  0  0  0  0  0  0
  -28.3643  -18.9389   21.4989 C   0  0  0  0  0  0  0  0  0  0  0  0
  -22.0095   -4.9580   24.8709 C   0  0  0  0  0  0  0  0  0  0  0  0
  -23.7391  -10.5291   21.0487 C   0  0  0  0  0  0  0  0  0  0  0  0
  -24.1167  -13.0312   20.7254 C   0  0  0  0  0  0  0  0  0  0  0  0
  -33.2544  -27.7911   19.6211 C   0  0  0  0  0  0  0  0  0  0  0  0
  -27.6052  -25.5345   16.9439 C   0  0  0  0  0  0  0  0  0  0  0  0
  -32.2704  -26.7946   19.4756 C   0  0  0  0  0  0  0  0  0  0  0  0
  -26.6606  -24.8095   17.6844 C   0  0  0  0  0  0  0  0  0  0  0  0
  -29.0838  -18.3942   20.4353 C   0  0  0  0  0  0  0  0  0  0  0  0
  -27.1136  -18.5126   19.0420 C   0  0  0  0  0  0  0  0  0  0  0  0
  -27.0194  -19.2705   21.3341 C   0  0  0  0  0  0  0  0  0  0  0  0
  -26.3941  -19.0573   20.1056 C   0  0  0  0  0  0  0  0  0  0  0  0
  -22.2049   -8.2885   21.6879 C   0  0  0  0  0  0  0  0  0  0  0  0
  -27.0342  -22.8821   16.2507 C   0  0  0  0  0  0  0  0  0  0  0  0
  -22.0269   -6.2380   22.8219 C   0  0  0  0  0  0  0  0  0  0  0  0
  -23.1779   -4.3074   24.4744 C   0  0  0  0  0  0  0  0  0  0  0  0
  -21.4340   -5.9233   24.0446 C   0  0  0  0  0  0  0  0  0  0  0  0
  -24.5321  -11.6861   20.7192 C   0  0  0  0  0  0  0  0  0  0  0  0
  -25.2309  -13.7363   20.3410 C   0  0  0  0  0  0  0  0  0  0  0  0
  -22.8381  -13.5930   21.0498 C   0  0  0  0  0  0  0  0  0  0  0  0
  -28.5825  -26.7745   19.7027 C   0  0  0  0  0  0  0  0  0  0  0  0
  -25.4652  -27.6292   19.9754 C   0  0  0  0  0  0  0  0  0  0  0  0
  -22.2175  -27.0612   19.0939 C   0  0  0  0  0  0  0  0  0  0  0  0
  -30.7162  -14.7168   20.6498 C   0  0  0  0  0  0  0  0  0  0  0  0
  -33.1337  -28.8796   20.6580 C   0  0  0  0  0  0  0  0  0  0  0  0
  -27.9006  -26.9697   17.2834 C   0  0  0  0  0  0  0  0  0  0  0  0
  -25.9352  -25.4176   18.8559 C   0  0  0  0  0  0  0  0  0  0  0  0
  -31.7150  -29.0564   21.1933 C   0  0  0  0  0  0  0  0  0  0  0  0
  -29.6383  -12.1460   18.4350 C   0  0  0  0  0  0  0  0  0  0  0  0
  -31.1023  -27.7028   21.5386 C   0  0  0  0  0  0  0  0  0  0  0  0
  -28.1822  -11.9041   18.8365 C   0  0  0  0  0  0  0  0  0  0  0  0
  -30.5129  -12.4611   19.6465 C   0  0  0  0  0  0  0  0  0  0  0  0
  -28.5703  -13.3267   20.8918 C   0  0  0  0  0  0  0  0  0  0  0  0
  -30.9987  -26.8108   20.2956 C   0  0  1  0  0  0  0  0  0  0  0  0
  -27.5741  -27.3205   18.7317 C   0  0  1  0  0  0  0  0  0  0  0  0
  -27.6384  -13.0602   19.6973 C   0  0  2  0  0  0  0  0  0  0  0  0
  -24.9521  -19.4123   19.9286 C   0  0  0  0  0  0  0  0  0  0  0  0
  -26.8237  -22.2926   21.9412 C   0  0  0  0  0  0  0  0  0  0  0  0
  -31.3868  -19.2803   20.9201 C   0  0  0  0  0  0  0  0  0  0  0  0
  -26.1836  -18.8547   23.6620 C   0  0  0  0  0  0  0  0  0  0  0  0
  -19.8886  -27.8992   19.5077 C   0  0  0  0  0  0  0  0  0  0  0  0
  -25.4544  -26.2484   22.6964 C   0  0  0  0  0  0  0  0  0  0  0  0
  -22.9520  -26.2789   22.6241 C   0  0  0  0  0  0  0  0  0  0  0  0
  -24.2241  -28.4246   22.6259 C   0  0  0  0  0  0  0  0  0  0  0  0
  -21.8382  -27.7607   16.2433 C   0  0  0  0  0  0  0  0  0  0  0  0
  -26.4612  -18.2710   17.7042 C   0  0  0  0  0  0  0  0  0  0  0  0
  -26.8490  -21.1987   23.0019 C   0  0  0  0  0  0  0  0  0  0  0  0
  -26.8371  -19.3043   16.6401 C   0  0  0  0  0  0  0  0  0  0  0  0
  -30.7631  -16.9654   21.6990 C   0  0  0  0  0  0  0  0  0  0  0  0
  -26.3749  -20.7165   16.9799 C   0  0  0  0  0  0  0  0  0  1  0  0
  -30.5218  -18.0404   20.6115 C   0  0  1  0  0  0  0  0  0  0  0  0
  -26.2711  -19.8524   22.4887 C   0  0  1  0  0  0  0  0  0  0  0  0
  -24.2260  -26.9844   20.5480 C   0  0  1  0  0  0  0  0  0  0  0  0
  -21.1221  -28.0014   18.6241 C   0  0  2  0  0  0  0  0  0  0  0  0
  -24.2291  -26.9717   22.1028 C   0  0  0  0  0  0  0  0  0  0  0  0
  -25.8103  -11.5428   20.3591 N   0  0  0  0  0  0  0  0  0  0  0  0
  -26.2077  -12.8069   20.1355 N   0  0  0  0  0  0  0  0  0  0  0  0
  -26.2630  -26.8219   19.1522 N   0  0  0  0  0  0  0  0  0  0  0  0
  -29.9427  -13.5673   20.4193 N   0  0  0  0  0  0  0  0  0  0  0  0
  -25.4606  -15.0545   20.1620 N   0  0  0  0  0  0  0  0  0  0  0  0
  -21.8031  -12.7258   21.4252 N   0  0  0  0  0  0  0  0  0  0  0  0
  -29.8739  -27.2120   19.4781 N   0  0  0  0  0  0  0  0  0  0  0  0
  -23.0911  -27.6863   19.9584 N   0  0  0  0  0  0  0  0  0  0  0  0
  -30.0979  -15.7204   21.3855 N   0  0  0  0  0  0  0  0  0  0  0  0
  -20.7259  -27.6768   17.2246 N   0  3  0  0  0  0  0  0  0  0  0  0
  -22.6154  -14.8261   20.9922 O   0  0  0  0  0  0  0  0  0  0  0  0
  -28.2158  -26.0139   20.5908 O   0  0  0  0  0  0  0  0  0  0  0  0
  -25.7122  -28.8078   20.2427 O   0  0  0  0  0  0  0  0  0  0  0  0
  -22.2888  -25.8885   18.7332 O   0  0  0  0  0  0  0  0  0  0  0  0
  -31.8704  -14.8420   20.2263 O   0  0  0  0  0  0  0  0  0  0  0  0
  -21.4563   -7.1954   22.0001 O   0  0  0  0  0  0  0  0  0  0  0  0
  -26.7577  -21.5915   15.9195 O   0  0  0  0  0  0  0  0  0  1  0  0
  -23.7298   -3.3794   25.2670 F   0  0  0  0  0  0  0  0  0  0  0  0
  -20.3109   -6.5442   24.4304 F   0  0  0  0  0  0  0  0  0  0  0  0
  1  2  1  0  0  0  0
  1  5  2  0  0  0  0
  2  6  2  0  0  0  0
  3  8  2  0  0  0  0
  3 17  1  0  0  0  0
  4  9  1  0  0  0  0
  4 17  2  0  0  0  0
  5 19  1  0  0  0  0
  6 21  1  0  0  0  0
  7 10  2  0  0  0  0
  7 20  1  0  0  0  0
  8 27  1  0  0  0  0
  9 27  2  0  0  0  0
 10 28  1  0  0  0  0
 11 12  2  0  0  0  0
 11 29  1  0  0  0  0
 12 30  1  0  0  0  0
 13 22  1  0  0  0  0
 13 28  2  0  0  0  0
 14 23  1  0  0  0  0
 14 24  2  0  0  0  0
 15 23  2  0  0  0  0
 15 25  1  0  0  0  0
 16 30  2  0  0  0  0
 16 31  1  0  0  0  0
 17 32  1  0  0  0  0
 18 32  1  0  0  0  0
 18 33  2  0  0  0  0
 18 34  1  0  0  0  0
 19 21  2  0  0  0  0
 19 39  1  0  0  0  0
 20 22  2  0  0  0  0
 20 40  1  0  0  0  0
 21 48  1  0  0  0  0
 22 41  1  0  0  0  0
 23 65  1  0  0  0  0
 24 26  1  0  0  0  0
 24 60  1  0  0  0  0
 25 26  2  0  0  0  0
 25 66  1  0  0  0  0
 26 51  1  0  0  0  0
 27 85  1  0  0  0  0
 28 86  1  0  0  0  0
 29 31  2  0  0  0  0
 29 85  1  0  0  0  0
 30 87  1  0  0  0  0
 31 88  1  0  0  0  0
 32 70  2  0  0  0  0
 33 71  1  0  0  0  0
 33 74  1  0  0  0  0
 34 75  1  0  0  0  0
 34 80  2  0  0  0  0
 35 49  1  0  0  0  0
 35 76  1  0  0  0  0
 35 81  2  0  0  0  0
 36 67  1  0  0  0  0
 36 72  1  0  0  0  0
 36 82  2  0  0  0  0
 37 68  1  0  0  0  0
 37 77  1  0  0  0  0
 37 83  2  0  0  0  0
 38 73  1  0  0  0  0
 38 78  1  0  0  0  0
 38 84  2  0  0  0  0
 39 42  1  0  0  0  0
 40 49  1  0  0  0  0
 41 72  1  0  0  0  0
 42 44  1  0  0  0  0
 43 45  1  0  0  0  0
 43 46  1  0  0  0  0
 44 48  1  0  0  0  0
 45 50  1  0  0  0  0
 46 73  1  0  0  0  0
 47 50  1  0  0  0  0
 47 73  1  0  0  0  0
 48 76  1  0  0  0  0
 49 72  1  0  0  0  0
 50 71  1  0  0  0  0
 52 61  1  0  0  0  0
 53 65  1  0  0  0  0
 54 66  1  0  0  0  0
 55 68  1  0  0  0  0
 56 69  1  0  0  0  0
 57 69  1  0  0  0  0
 58 69  1  0  0  0  0
 59 79  1  0  0  0  0
 60 62  1  0  0  0  0
 61 66  1  0  0  0  0
 62 64  1  0  0  0  0
 63 65  1  0  0  0  0
 63 78  1  0  0  0  0
 64 86  1  0  0  0  0
 67 69  1  0  0  0  0
 67 77  1  0  0  0  0
 68 79  1  0  0  0  0
 70 71  1  0  0  0  0
M  CHG  1  79   1
M  ISO  4  38 100  64 101  78 100  86 101
M  END
> <Batch ID>
0088

> <Smiles>
CCC(C)c1cc(C(C)C[100NH:0][100C:0](=O)N2CCCC(n3nc(-c4ccc(Oc5ccc(F)cc5F)cc4)c(C(N)=O)c3N)C2)cc(CC[101CH2:1][101O:1]c2ccc3c(c2)CN(C(=O)C(NC(=O)C(C)NC)C(C)(C)C)C(C(=O)NC2CCCc4ccccc42)C3)c1C

> <Shape>
0.277

> <Color>
0.199

> <Negative vol penalty>
0.000

$$$$

  -OEChem-04052319043D

 84 92  0     1  0  0  0  0  0999 V2000
  -31.7991  -13.2998   21.8665 C   0  0  0  0  0  0  0  0  0  0  0  0
  -31.2298  -14.5645   21.9744 C   0  0  0  0  0  0  0  0  0  0  0  0
  -25.9182  -29.6435   21.6653 C   0  0  0  0  0  0  0  0  0  0  0  0
  -24.0686  -29.4410   20.1241 C   0  0  0  0  0  0  0  0  0  0  0  0
  -31.1710  -12.3166   21.1031 C   0  0  0  0  0  0  0  0  0  0  0  0
  -30.0325  -14.8473   21.3179 C   0  0  0  0  0  0  0  0  0  0  0  0
  -26.7539  -17.3558   24.2510 C   0  0  0  0  0  0  0  0  0  0  0  0
  -25.5400  -30.9563   21.9467 C   0  0  0  0  0  0  0  0  0  0  0  0
  -23.6904  -30.7538   20.4056 C   0  0  0  0  0  0  0  0  0  0  0  0
  -26.9721  -18.7216   24.4261 C   0  0  0  0  0  0  0  0  0  0  0  0
  -23.2134  -32.5289   23.8300 C   0  0  0  0  0  0  0  0  0  0  0  0
  -23.1947  -32.9256   25.1671 C   0  0  0  0  0  0  0  0  0  0  0  0
  -25.2846  -19.1973   22.7691 C   0  0  0  0  0  0  0  0  0  0  0  0
  -24.8283  -34.6382   24.6819 C   0  0  0  0  0  0  0  0  0  0  0  0
  -30.6364  -23.0932   20.7513 C   0  0  0  0  0  0  0  0  0  0  0  0
  -29.8830  -21.0221   21.1491 C   0  0  0  0  0  0  0  0  0  0  0  0
  -25.1826  -28.8859   20.7539 C   0  0  0  0  0  0  0  0  0  0  0  0
  -30.3052  -22.5356   19.5362 C   0  0  0  0  0  0  0  0  0  0  0  0
  -25.1491  -26.3621   21.1243 C   0  0  0  0  0  0  0  0  0  0  0  0
  -29.9604  -12.5845   20.4448 C   0  0  0  0  0  0  0  0  0  0  0  0
  -25.8055  -16.8995   23.3243 C   0  0  0  0  0  0  0  0  0  0  0  0
  -29.3883  -13.8672   20.5438 C   0  0  0  0  0  0  0  0  0  0  0  0
  -25.0545  -17.8253   22.5861 C   0  0  0  0  0  0  0  0  0  0  0  0
  -29.8286  -21.2252   19.7878 C   0  0  0  0  0  0  0  0  0  0  0  0
  -24.4261  -31.5114   21.3169 C   0  0  0  0  0  0  0  0  0  0  0  0
  -26.2394  -19.6426   23.6830 C   0  0  0  0  0  0  0  0  0  0  0  0
  -24.0397  -33.1868   22.9188 C   0  0  0  0  0  0  0  0  0  0  0  0
  -24.0021  -33.9802   25.5931 C   0  0  0  0  0  0  0  0  0  0  0  0
  -24.8471  -34.2414   23.3448 C   0  0  0  0  0  0  0  0  0  0  0  0
  -25.5731  -27.5300   20.4623 C   0  0  0  0  0  0  0  0  0  0  0  0
  -25.8012  -25.3430   20.4743 C   0  0  0  0  0  0  0  0  0  0  0  0
  -30.4431  -23.2228   18.2456 C   0  0  0  0  0  0  0  0  0  0  0  0
  -24.2464  -26.2120   22.2281 C   0  0  0  0  0  0  0  0  0  0  0  0
  -25.9176  -15.1269   20.6882 C   0  0  0  0  0  0  0  0  0  0  0  0
  -22.6873  -15.3694   20.8559 C   0  0  0  0  0  0  0  0  0  0  0  0
  -19.9659  -17.1023   21.9687 C   0  0  0  0  0  0  0  0  0  0  0  0
  -29.3430  -11.5042   19.5925 C   0  0  0  0  0  0  0  0  0  0  0  0
  -25.5632  -15.4234   23.1666 C   0  0  0  0  0  0  0  0  0  0  0  0
  -24.0102  -17.3873   21.5930 C   0  0  0  0  0  0  0  0  0  0  0  0
  -27.8835  -11.7711   19.2335 C   0  0  0  0  0  0  0  0  0  0  0  0
  -28.4492  -25.3298   16.1655 C   0  0  0  0  0  0  0  0  0  0  0  0
  -27.7046  -13.2103   18.7607 C   0  0  0  0  0  0  0  0  0  0  0  0
  -27.4996  -26.0108   17.1527 C   0  0  0  0  0  0  0  0  0  0  0  0
  -29.8326  -25.1120   16.7733 C   0  0  0  0  0  0  0  0  0  0  0  0
  -28.8785  -25.0664   19.0519 C   0  0  0  0  0  0  0  0  0  0  0  0
  -28.0777  -14.2048   19.8667 C   0  0  1  0  0  0  0  0  0  0  0  0
  -24.9361  -15.0610   21.8239 C   0  0  1  0  0  0  0  0  0  0  0  0
  -27.4579  -25.2585   18.4961 C   0  0  1  0  0  0  0  0  0  0  0  0
  -27.8735  -19.8597   18.9714 C   0  0  0  0  0  0  0  0  0  0  0  0
  -30.2191  -18.9644   18.7436 C   0  0  0  0  0  0  0  0  0  0  0  0
  -17.4571  -17.0759   21.9159 C   0  0  0  0  0  0  0  0  0  0  0  0
  -29.8774  -23.3669   25.3858 C   0  0  0  0  0  0  0  0  0  0  0  0
  -27.0485  -23.7977   24.1538 C   0  0  0  0  0  0  0  0  0  0  0  0
  -22.7395  -16.3870   17.9798 C   0  0  0  0  0  0  0  0  0  0  0  0
  -20.4026  -17.2236   18.3070 C   0  0  0  0  0  0  0  0  0  0  0  0
  -20.8883  -14.7833   18.4855 C   0  0  0  0  0  0  0  0  0  0  0  0
  -19.7907  -16.8678   24.9137 C   0  0  0  0  0  0  0  0  0  0  0  0
  -30.5982  -22.3673   23.2037 C   0  0  0  0  0  0  0  0  0  0  0  0
  -27.7639  -21.3824   24.2352 C   0  0  0  0  0  0  0  0  0  1  0  0
  -29.3585  -20.2483   18.7855 C   0  0  0  0  0  0  0  0  0  0  0  0
  -21.6589  -16.3383   20.3241 C   0  0  1  0  0  0  0  0  0  0  0  0
  -18.7024  -16.6472   22.6764 C   0  0  2  0  0  0  0  0  0  0  0  0
  -29.5301  -23.2497   23.8950 C   0  0  1  0  0  0  0  0  0  0  0  0
  -28.0699  -22.7672   23.6459 C   0  0  2  0  0  0  0  0  0  0  0  0
  -21.4433  -16.1916   18.7913 C   0  0  0  0  0  0  0  0  0  0  0  0
  -26.4285  -27.2774   19.4681 N   0  0  0  0  0  0  0  0  0  0  0  0
  -30.3757  -22.1642   21.7247 N   0  0  0  0  0  0  0  0  0  0  0  0
  -26.5474  -25.9391   19.5006 N   0  0  0  0  0  0  0  0  0  0  0  0
  -29.7314  -24.4090   18.0516 N   0  0  0  0  0  0  0  0  0  0  0  0
  -23.8145  -15.9333   21.4701 N   0  0  0  0  0  0  0  0  0  0  0  0
  -25.8035  -24.0040   20.6463 N   0  0  0  0  0  0  0  0  0  0  0  0
  -23.6644  -27.3630   22.7765 N   0  0  0  0  0  0  0  0  0  0  0  0
  -27.0128  -14.2985   20.8423 N   0  0  0  0  0  0  0  0  0  0  0  0
  -20.4535  -16.1314   21.1196 N   0  0  0  0  0  0  0  0  0  0  0  0
  -18.6388  -17.2279   24.0474 N   0  3  0  0  0  0  0  0  0  0  0  0
  -31.1776  -22.6841   17.4188 O   0  0  0  0  0  0  0  0  0  0  0  0
  -23.9770  -25.0918   22.7242 O   0  0  0  0  0  0  0  0  0  0  0  0
  -25.6969  -15.8729   19.7414 O   0  0  0  0  0  0  0  0  0  0  0  0
  -22.4940  -14.1569   20.7372 O   0  0  0  0  0  0  0  0  0  0  0  0
  -20.4679  -18.2097   22.1481 O   0  0  0  0  0  0  0  0  0  0  0  0
  -24.0566  -32.7923   21.5915 O   0  0  0  0  0  0  0  0  0  0  0  0
  -26.4508  -20.9763   23.8514 O   0  0  0  0  0  0  0  0  0  1  0  0
  -23.9828  -34.3621   26.8768 F   0  0  0  0  0  0  0  0  0  0  0  0
  -25.6420  -34.8781   22.4738 F   0  0  0  0  0  0  0  0  0  0  0  0
  1  2  1  0  0  0  0
  1  5  2  0  0  0  0
  2  6  2  0  0  0  0
  3  8  2  0  0  0  0
  3 17  1  0  0  0  0
  4  9  1  0  0  0  0
  4 17  2  0  0  0  0
  5 20  1  0  0  0  0
  6 22  1  0  0  0  0
  7 10  2  0  0  0  0
  7 21  1  0  0  0  0
  8 25  1  0  0  0  0
  9 25  2  0  0  0  0
 10 26  1  0  0  0  0
 11 12  2  0  0  0  0
 11 27  1  0  0  0  0
 12 28  1  0  0  0  0
 13 23  1  0  0  0  0
 13 26  2  0  0  0  0
 14 28  2  0  0  0  0
 14 29  1  0  0  0  0
 15 18  2  0  0  0  0
 15 67  1  0  0  0  0
 16 24  2  0  0  0  0
 16 67  1  0  0  0  0
 17 30  1  0  0  0  0
 18 24  1  0  0  0  0
 18 32  1  0  0  0  0
 19 30  1  0  0  0  0
 19 31  2  0  0  0  0
 19 33  1  0  0  0  0
 20 22  2  0  0  0  0
 20 37  1  0  0  0  0
 21 23  2  0  0  0  0
 21 38  1  0  0  0  0
 22 46  1  0  0  0  0
 23 39  1  0  0  0  0
 24 60  1  0  0  0  0
 25 81  1  0  0  0  0
 26 82  1  0  0  0  0
 27 29  2  0  0  0  0
 27 81  1  0  0  0  0
 28 83  1  0  0  0  0
 29 84  1  0  0  0  0
 30 66  2  0  0  0  0
 31 68  1  0  0  0  0
 31 71  1  0  0  0  0
 32 69  1  0  0  0  0
 32 76  2  0  0  0  0
 33 72  1  0  0  0  0
 33 77  2  0  0  0  0
 34 47  1  0  0  0  0
 34 73  1  0  0  0  0
 34 78  2  0  0  0  0
 35 61  1  0  0  0  0
 35 70  1  0  0  0  0
 35 79  2  0  0  0  0
 36 62  1  0  0  0  0
 36 74  1  0  0  0  0
 36 80  2  0  0  0  0
 37 40  1  0  0  0  0
 38 47  1  0  0  0  0
 39 70  1  0  0  0  0
 40 42  1  0  0  0  0
 41 43  1  0  0  0  0
 41 44  1  0  0  0  0
 42 46  1  0  0  0  0
 43 48  1  0  0  0  0
 44 69  1  0  0  0  0
 45 48  1  0  0  0  0
 45 69  1  0  0  0  0
 46 73  1  0  0  0  0
 47 70  1  0  0  0  0
 48 68  1  0  0  0  0
 49 60  1  0  0  0  0
 50 60  1  0  0  0  0
 51 62  1  0  0  0  0
 52 63  1  0  0  0  0
 53 64  1  0  0  0  0
 54 65  1  0  0  0  0
 55 65  1  0  0  0  0
 56 65  1  0  0  0  0
 57 75  1  0  0  0  0
 58 63  1  0  0  0  0
 58 67  1  0  0  0  0
 59 64  1  0  0  0  0
 59 82  1  0  0  0  0
 61 65  1  0  0  0  0
 61 74  1  0  0  0  0
 62 75  1  0  0  0  0
 63 64  1  0  0  0  0
 66 68  1  0  0  0  0
M  CHG  1  75   1
M  ISO  4  18 100  32 100  59 101  82 101
M  END
> <Batch ID>
0088

> <Smiles>
CNC(C)C(=O)NC(C(=O)N1Cc2cc([101O:1][101CH2:1]C(C)C(C)Cn3cc(C(C)C)[100c:0]([100C:0](=O)N4CCCC(n5nc(-c6ccc(Oc7ccc(F)cc7F)cc6)c(C(N)=O)c5N)C4)c3)ccc2CC1C(=O)NC1CCCc2ccccc21)C(C)(C)C

> <Shape>
0.213

> <Color>
0.060

> <Negative vol penalty>
0.000

$$$$

  -OEChem-04052319043D

 86 94  0     1  0  0  0  0  0999 V2000
  -20.2470  -26.1585   25.6485 C   0  0  0  0  0  0  0  0  0  0  0  0
  -21.2862  -25.9478   24.7479 C   0  0  0  0  0  0  0  0  0  0  0  0
  -24.7808   -8.3647   21.4006 C   0  0  0  0  0  0  0  0  0  0  0  0
  -23.2150  -10.1360   20.9028 C   0  0  0  0  0  0  0  0  0  0  0  0
  -19.2618  -27.1037   25.3657 C   0  0  0  0  0  0  0  0  0  0  0  0
  -21.3402  -26.6814   23.5633 C   0  0  0  0  0  0  0  0  0  0  0  0
  -25.9883  -28.4294   22.5711 C   0  0  0  0  0  0  0  0  0  0  0  0
  -23.9034   -7.8585   22.3595 C   0  0  0  0  0  0  0  0  0  0  0  0
  -22.3376   -9.6298   21.8617 C   0  0  0  0  0  0  0  0  0  0  0  0
  -26.9097  -27.5251   22.0446 C   0  0  0  0  0  0  0  0  0  0  0  0
  -21.0837   -5.9935   22.4183 C   0  0  0  0  0  0  0  0  0  0  0  0
  -20.8654   -4.6159   22.4344 C   0  0  0  0  0  0  0  0  0  0  0  0
  -26.5071  -28.4096   19.8367 C   0  0  0  0  0  0  0  0  0  0  0  0
  -30.4403  -21.5707   19.1143 C   0  0  0  0  0  0  0  0  0  0  0  0
  -28.0918  -21.1502   18.8108 C   0  0  0  0  0  0  0  0  0  0  0  0
  -21.6994   -4.5102   24.6994 C   0  0  0  0  0  0  0  0  0  0  0  0
  -24.4367   -9.5034   20.6722 C   0  0  0  0  0  0  0  0  0  0  0  0
  -25.3963   -9.6907   18.3160 C   0  0  0  0  0  0  0  0  0  0  0  0
  -19.3091  -27.8562   24.1815 C   0  0  0  0  0  0  0  0  0  0  0  0
  -25.3102  -29.3247   21.7314 C   0  0  0  0  0  0  0  0  0  0  0  0
  -20.3540  -27.6366   23.2637 C   0  0  0  0  0  0  0  0  0  0  0  0
  -25.5795  -29.3260   20.3553 C   0  0  0  0  0  0  0  0  0  0  0  0
  -29.1167  -21.8576   19.4291 C   0  0  0  0  0  0  0  0  0  0  0  0
  -22.6818   -8.4910   22.5901 C   0  0  0  0  0  0  0  0  0  0  0  0
  -27.1671  -27.5132   20.6769 C   0  0  0  0  0  0  0  0  0  0  0  0
  -21.6099   -6.6294   23.5428 C   0  0  0  0  0  0  0  0  0  0  0  0
  -21.1732   -3.8743   23.5749 C   0  0  0  0  0  0  0  0  0  0  0  0
  -21.9177   -5.8878   24.6833 C   0  0  0  0  0  0  0  0  0  0  0  0
  -25.3429  -10.0271   19.6819 C   0  0  0  0  0  0  0  0  0  0  0  0
  -30.6840  -20.5750   18.1821 C   0  0  0  0  0  0  0  0  0  0  0  0
  -28.4406  -20.1734   17.8920 C   0  0  0  0  0  0  0  0  0  0  0  0
  -26.4203  -10.4559   17.8137 C   0  0  0  0  0  0  0  0  0  0  0  0
  -24.5920   -8.7690   17.5681 C   0  0  0  0  0  0  0  0  0  0  0  0
  -22.2630  -29.8208   20.9751 C   0  0  0  0  0  0  0  0  0  0  0  0
  -23.4791  -32.3696   19.3791 C   0  0  0  0  0  0  0  0  0  0  0  0
  -26.1649  -33.8191   17.8520 C   0  0  0  0  0  0  0  0  0  0  0  0
  -28.8717  -15.6348   19.5515 C   0  0  0  0  0  0  0  0  0  0  0  0
  -18.1957  -28.8330   23.8972 C   0  0  0  0  0  0  0  0  0  0  0  0
  -24.3391  -30.3120   22.3185 C   0  0  0  0  0  0  0  0  0  0  0  0
  -24.8932  -30.2804   19.4139 C   0  0  0  0  0  0  0  0  0  0  0  0
  -18.5308  -29.8345   22.7950 C   0  0  0  0  0  0  0  0  0  0  0  0
  -30.5374  -12.5190   19.1113 C   0  0  0  0  0  0  0  0  0  0  0  0
  -19.1471  -29.1218   21.5954 C   0  0  0  0  0  0  0  0  0  0  0  0
  -29.3998  -11.4967   19.0844 C   0  0  0  0  0  0  0  0  0  0  0  0
  -30.2544  -13.6525   20.0947 C   0  0  0  0  0  0  0  0  0  0  0  0
  -27.8237  -13.3119   19.8716 C   0  0  0  0  0  0  0  0  0  0  0  0
  -20.4608  -28.4303   21.9797 C   0  0  1  0  0  0  0  0  0  0  0  0
  -23.3265  -30.8306   21.3021 C   0  0  1  0  0  0  0  0  0  0  0  0
  -28.0381  -12.1790   18.8533 C   0  0  2  0  0  0  0  0  0  0  0  0
  -32.0923  -20.2389   17.8208 C   0  0  0  0  0  0  0  0  0  0  0  0
  -27.3736  -19.6956   15.6900 C   0  0  0  0  0  0  0  0  0  0  0  0
  -26.8424  -35.8898   16.6066 C   0  0  0  0  0  0  0  0  0  0  0  0
  -26.3518  -17.0549   16.7363 C   0  0  0  0  0  0  0  0  0  0  0  0
  -22.0309  -31.3470   16.8958 C   0  0  0  0  0  0  0  0  0  0  0  0
  -23.4748  -32.8577   15.5169 C   0  0  0  0  0  0  0  0  0  0  0  0
  -21.9272  -33.8249   17.2176 C   0  0  0  0  0  0  0  0  0  0  0  0
  -28.1911  -34.5227   19.8912 C   0  0  0  0  0  0  0  0  0  0  0  0
  -28.7942  -22.9311   20.4377 C   0  0  0  0  0  0  0  0  0  0  0  0
  -28.6239  -24.3222   19.8235 C   0  0  0  0  0  0  0  0  0  0  0  0
  -27.3574  -17.5211   18.9964 C   0  0  0  0  0  0  0  0  0  0  0  0
  -28.2142  -25.3839   20.8376 C   0  0  0  0  0  0  0  0  0  1  0  0
  -27.3662  -19.3959   17.2080 C   0  0  1  0  0  0  0  0  0  0  0  0
  -24.0052  -32.6056   17.9839 C   0  0  1  0  0  0  0  0  0  0  0  0
  -26.7576  -35.2121   17.9654 C   0  0  2  0  0  0  0  0  0  0  0  0
  -27.4292  -17.8492   17.4902 C   0  0  2  0  0  0  0  0  0  0  0  0
  -22.8712  -32.6394   16.9208 C   0  0  0  0  0  0  0  0  0  0  0  0
  -26.2601  -10.9352   20.0256 N   0  0  0  0  0  0  0  0  0  0  0  0
  -29.7148  -19.8664   17.5606 N   0  0  0  0  0  0  0  0  0  0  0  0
  -26.8996  -11.1758   18.8683 N   0  0  0  0  0  0  0  0  0  0  0  0
  -23.9474  -31.2223   20.0351 N   0  0  0  0  0  0  0  0  0  0  0  0
  -28.9491  -14.2583   19.8202 N   0  0  0  0  0  0  0  0  0  0  0  0
  -26.9485  -10.5763   16.5772 N   0  0  0  0  0  0  0  0  0  0  0  0
  -23.5832   -8.0649   18.2397 N   0  0  0  0  0  0  0  0  0  0  0  0
  -21.5336  -29.3975   22.0697 N   0  0  0  0  0  0  0  0  0  0  0  0
  -24.8002  -33.8272   18.0486 N   0  0  0  0  0  0  0  0  0  0  0  0
  -27.5977  -16.1270   19.2957 N   0  0  0  0  0  0  0  0  0  0  0  0
  -28.1294  -35.1458   18.5440 N   0  3  0  0  0  0  0  0  0  0  0  0
  -24.7737   -8.5633   16.3441 O   0  0  0  0  0  0  0  0  0  0  0  0
  -22.1142  -29.4541   19.8153 O   0  0  0  0  0  0  0  0  0  0  0  0
  -22.6875  -33.1774   19.8716 O   0  0  0  0  0  0  0  0  0  0  0  0
  -26.8441  -32.8240   17.6092 O   0  0  0  0  0  0  0  0  0  0  0  0
  -29.8650  -16.3697   19.5353 O   0  0  0  0  0  0  0  0  0  0  0  0
  -21.8253   -7.9973   23.5255 O   0  0  0  0  0  0  0  0  0  0  0  0
  -28.0654  -26.6311   20.1603 O   0  0  0  0  0  0  0  0  0  1  0  0
  -20.9621   -2.5516   23.5907 F   0  0  0  0  0  0  0  0  0  0  0  0
  -22.4223   -6.4933   25.7670 F   0  0  0  0  0  0  0  0  0  0  0  0
  1  2  1  0  0  0  0
  1  5  2  0  0  0  0
  2  6  2  0  0  0  0
  3  8  2  0  0  0  0
  3 17  1  0  0  0  0
  4  9  1  0  0  0  0
  4 17  2  0  0  0  0
  5 19  1  0  0  0  0
  6 21  1  0  0  0  0
  7 10  2  0  0  0  0
  7 20  1  0  0  0  0
  8 24  1  0  0  0  0
  9 24  2  0  0  0  0
 10 25  1  0  0  0  0
 11 12  2  0  0  0  0
 11 26  1  0  0  0  0
 12 27  1  0  0  0  0
 13 22  1  0  0  0  0
 13 25  2  0  0  0  0
 14 23  1  0  0  0  0
 14 30  2  0  0  0  0
 15 23  2  0  0  0  0
 15 31  1  0  0  0  0
 16 27  2  0  0  0  0
 16 28  1  0  0  0  0
 17 29  1  0  0  0  0
 18 29  1  0  0  0  0
 18 32  2  0  0  0  0
 18 33  1  0  0  0  0
 19 21  2  0  0  0  0
 19 38  1  0  0  0  0
 20 22  2  0  0  0  0
 20 39  1  0  0  0  0
 21 47  1  0  0  0  0
 22 40  1  0  0  0  0
 23 58  1  0  0  0  0
 24 83  1  0  0  0  0
 25 84  1  0  0  0  0
 26 28  2  0  0  0  0
 26 83  1  0  0  0  0
 27 85  1  0  0  0  0
 28 86  1  0  0  0  0
 29 67  2  0  0  0  0
 30 50  1  0  0  0  0
 30 68  1  0  0  0  0
 31 62  1  0  0  0  0
 31 68  2  0  0  0  0
 32 69  1  0  0  0  0
 32 72  1  0  0  0  0
 33 73  1  0  0  0  0
 33 78  2  0  0  0  0
 34 48  1  0  0  0  0
 34 74  1  0  0  0  0
 34 79  2  0  0  0  0
 35 63  1  0  0  0  0
 35 70  1  0  0  0  0
 35 80  2  0  0  0  0
 36 64  1  0  0  0  0
 36 75  1  0  0  0  0
 36 81  2  0  0  0  0
 37 71  1  0  0  0  0
 37 76  1  0  0  0  0
 37 82  2  0  0  0  0
 38 41  1  0  0  0  0
 39 48  1  0  0  0  0
 40 70  1  0  0  0  0
 41 43  1  0  0  0  0
 42 44  1  0  0  0  0
 42 45  1  0  0  0  0
 43 47  1  0  0  0  0
 44 49  1  0  0  0  0
 45 71  1  0  0  0  0
 46 49  1  0  0  0  0
 46 71  1  0  0  0  0
 47 74  1  0  0  0  0
 48 70  1  0  0  0  0
 49 69  1  0  0  0  0
 51 62  1  0  0  0  0
 52 64  1  0  0  0  0
 53 65  1  0  0  0  0
 54 66  1  0  0  0  0
 55 66  1  0  0  0  0
 56 66  1  0  0  0  0
 57 77  1  0  0  0  0
 58 59  1  0  0  0  0
 59 61  1  0  0  0  0
 60 65  1  0  0  0  0
 60 76  1  0  0  0  0
 61 84  1  0  0  0  0
 62 65  1  0  0  0  0
 63 66  1  0  0  0  0
 63 75  1  0  0  0  0
 64 77  1  0  0  0  0
 67 69  1  0  0  0  0
M  CHG  1  77   1
M  ISO  4  37 100  61 101  76 100  84 101
M  END
> <Batch ID>
0088

> <Smiles>
CNC(C)C(=O)NC(C(=O)N1Cc2cc([101O:1][101CH2:1]CCc3cc(C)nc(C(C)C(C)C[100NH:0][100C:0](=O)N4CCCC(n5nc(-c6ccc(Oc7ccc(F)cc7F)cc6)c(C(N)=O)c5N)C4)c3)ccc2CC1C(=O)NC1CCCc2ccccc21)C(C)(C)C

> <Shape>
0.255

> <Color>
0.128

> <Negative vol penalty>
0.000

$$$$

  -OEChem-04052319043D

 84 92  0     1  0  0  0  0  0999 V2000
  -25.5137  -23.7062   12.7258 C   0  0  0  0  0  0  0  0  0  0  0  0
  -24.8451  -24.3752   13.7460 C   0  0  0  0  0  0  0  0  0  0  0  0
  -26.8263  -15.0970   21.8443 C   0  0  0  0  0  0  0  0  0  0  0  0
  -26.1483  -15.3722   19.5418 C   0  0  0  0  0  0  0  0  0  0  0  0
  -26.6219  -22.9138   13.0227 C   0  0  0  0  0  0  0  0  0  0  0  0
  -25.2835  -24.2513   15.0639 C   0  0  0  0  0  0  0  0  0  0  0  0
  -25.1357  -28.5603   19.4133 C   0  0  0  0  0  0  0  0  0  0  0  0
  -26.4486  -13.7552   21.7952 C   0  0  0  0  0  0  0  0  0  0  0  0
  -25.7706  -14.0303   19.4926 C   0  0  0  0  0  0  0  0  0  0  0  0
  -24.2473  -28.8074   20.4589 C   0  0  0  0  0  0  0  0  0  0  0  0
  -25.3277  -10.3463   22.3842 C   0  0  0  0  0  0  0  0  0  0  0  0
  -24.5940   -9.8379   23.4560 C   0  0  0  0  0  0  0  0  0  0  0  0
  -25.6910  -27.5952   21.9640 C   0  0  0  0  0  0  0  0  0  0  0  0
  -21.0573  -26.0794   22.8238 C   0  0  0  0  0  0  0  0  0  0  0  0
  -22.8506  -11.4553   23.0297 C   0  0  0  0  0  0  0  0  0  0  0  0
  -26.6761  -15.9055   20.7176 C   0  0  0  0  0  0  0  0  0  0  0  0
  -28.3288  -17.8317   20.4603 C   0  0  0  0  0  0  0  0  0  0  0  0
  -27.0800  -22.7879   14.3437 C   0  0  0  0  0  0  0  0  0  0  0  0
  -26.3050  -27.8181   19.6331 C   0  0  0  0  0  0  0  0  0  0  0  0
  -26.3980  -23.4555   15.3789 C   0  0  0  0  0  0  0  0  0  0  0  0
  -26.5939  -27.3421   20.9200 C   0  0  0  0  0  0  0  0  0  0  0  0
  -21.0962  -27.3106   23.4544 C   0  0  0  0  0  0  0  0  0  0  0  0
  -25.9208  -13.2218   20.6193 C   0  0  0  0  0  0  0  0  0  0  0  0
  -24.5235  -28.3224   21.7339 C   0  0  0  0  0  0  0  0  0  0  0  0
  -24.8230  -11.4093   21.6352 C   0  0  0  0  0  0  0  0  0  0  0  0
  -23.3554  -10.3924   23.7787 C   0  0  0  0  0  0  0  0  0  0  0  0
  -23.5844  -11.9638   21.9579 C   0  0  0  0  0  0  0  0  0  0  0  0
  -27.0656  -17.2918   20.7679 C   0  0  0  0  0  0  0  0  0  0  0  0
  -20.0327  -25.8438   21.9293 C   0  0  0  0  0  0  0  0  0  0  0  0
  -20.1081  -28.2247   23.1485 C   0  0  0  0  0  0  0  0  0  0  0  0
  -28.1838  -19.1823   20.6635 C   0  0  0  0  0  0  0  0  0  0  0  0
  -29.5262  -17.1713   20.0292 C   0  0  0  0  0  0  0  0  0  0  0  0
  -27.4580  -25.0693   18.5292 C   0  0  0  0  0  0  0  0  0  0  0  0
  -30.0832  -25.9385   20.2250 C   0  0  0  0  0  0  0  0  0  0  0  0
  -31.4007  -27.7538   22.7971 C   0  0  0  0  0  0  0  0  0  0  0  0
  -23.4532  -22.7076   20.4424 C   0  0  0  0  0  0  0  0  0  0  0  0
  -28.2535  -21.8823   14.6218 C   0  0  0  0  0  0  0  0  0  0  0  0
  -27.2663  -27.5830   18.5004 C   0  0  0  0  0  0  0  0  0  0  0  0
  -27.8457  -26.5574   21.2129 C   0  0  0  0  0  0  0  0  0  0  0  0
  -28.8809  -22.1030   15.9959 C   0  0  0  0  0  0  0  0  0  0  0  0
  -25.6880  -22.3312   23.2640 C   0  0  0  0  0  0  0  0  0  0  0  0
  -27.8004  -22.1824   17.0696 C   0  0  0  0  0  0  0  0  0  0  0  0
  -26.4169  -21.0354   22.9039 C   0  0  0  0  0  0  0  0  0  0  0  0
  -24.2195  -22.2717   22.8539 C   0  0  0  0  0  0  0  0  0  0  0  0
  -24.7216  -20.6674   21.0517 C   0  0  0  0  0  0  0  0  0  0  0  0
  -26.8583  -23.3659   16.8177 C   0  0  1  0  0  0  0  0  0  0  0  0
  -28.1723  -26.3765   18.7263 C   0  0  1  0  0  0  0  0  0  0  0  0
  -26.2163  -20.6733   21.4204 C   0  0  2  0  0  0  0  0  0  0  0  0
  -20.0850  -29.5713   23.7894 C   0  0  0  0  0  0  0  0  0  0  0  0
  -22.1468  -26.6762   25.6511 C   0  0  0  0  0  0  0  0  0  0  0  0
  -33.5715  -28.2312   23.9619 C   0  0  0  0  0  0  0  0  0  0  0  0
  -29.9387  -23.2202   21.6034 C   0  0  0  0  0  0  0  0  0  0  0  0
  -31.4813  -24.1088   23.3638 C   0  0  0  0  0  0  0  0  0  0  0  0
  -32.2489  -23.9599   20.9950 C   0  0  0  0  0  0  0  0  0  0  0  0
  -31.2528  -30.6357   22.1404 C   0  0  0  0  0  0  0  0  0  0  0  0
  -19.9450  -24.5339   21.2239 C   0  0  0  0  0  0  0  0  0  0  0  0
  -20.6994  -24.4799   19.8801 C   0  0  0  0  0  0  0  0  0  0  0  0
  -22.1904  -24.7938   19.9839 C   0  0  0  0  0  0  0  0  0  0  0  0
  -23.5913  -27.5838   23.7934 C   0  0  0  0  0  0  0  0  0  1  0  0
  -22.2038  -27.6224   24.4485 C   0  0  1  0  0  0  0  0  0  0  0  0
  -30.5594  -25.7260   21.6417 C   0  0  1  0  0  0  0  0  0  0  0  0
  -32.6096  -28.6691   22.8684 C   0  0  2  0  0  0  0  0  0  0  0  0
  -31.0324  -24.2668   21.8954 C   0  0  0  0  0  0  0  0  0  0  0  0
  -26.1831  -18.2235   21.1386 N   0  0  0  0  0  0  0  0  0  0  0  0
  -19.0789  -26.7570   21.6491 N   0  0  0  0  0  0  0  0  0  0  0  0
  -19.1174  -27.9672   22.2686 N   0  0  0  0  0  0  0  0  0  0  0  0
  -26.8929  -19.3623   21.0652 N   0  0  0  0  0  0  0  0  0  0  0  0
  -28.7512  -26.3483   20.0710 N   0  0  0  0  0  0  0  0  0  0  0  0
  -24.0986  -21.9412   21.4269 N   0  0  0  0  0  0  0  0  0  0  0  0
  -29.0359  -20.2216   20.5361 N   0  0  0  0  0  0  0  0  0  0  0  0
  -29.5014  -15.7790   19.8709 N   0  0  0  0  0  0  0  0  0  0  0  0
  -27.4829  -24.6053   17.2279 N   0  0  0  0  0  0  0  0  0  0  0  0
  -31.5832  -26.7367   21.8841 N   0  0  0  0  0  0  0  0  0  0  0  0
  -22.8832  -23.8963   20.8814 N   0  0  0  0  0  0  0  0  0  0  0  0
  -32.1835  -30.0691   23.1502 N   0  3  0  0  0  0  0  0  0  0  0  0
  -30.5914  -17.7955   19.8073 O   0  0  0  0  0  0  0  0  0  0  0  0
  -26.9252  -24.5216   19.4872 O   0  0  0  0  0  0  0  0  0  0  0  0
  -30.8663  -25.7547   19.2898 O   0  0  0  0  0  0  0  0  0  0  0  0
  -30.3964  -27.9219   23.4854 O   0  0  0  0  0  0  0  0  0  0  0  0
  -23.3938  -22.3608   19.2577 O   0  0  0  0  0  0  0  0  0  0  0  0
  -25.5523  -11.9124   20.5710 O   0  0  0  0  0  0  0  0  0  0  0  0
  -23.6577  -28.5617   22.7562 O   0  0  0  0  0  0  0  0  0  1  0  0
  -22.6502   -9.9030   24.8070 F   0  0  0  0  0  0  0  0  0  0  0  0
  -23.0938  -12.9844   21.2413 F   0  0  0  0  0  0  0  0  0  0  0  0
  1  2  1  0  0  0  0
  1  5  2  0  0  0  0
  2  6  2  0  0  0  0
  3  8  2  0  0  0  0
  3 16  1  0  0  0  0
  4  9  1  0  0  0  0
  4 16  2  0  0  0  0
  5 18  1  0  0  0  0
  6 20  1  0  0  0  0
  7 10  2  0  0  0  0
  7 19  1  0  0  0  0
  8 23  1  0  0  0  0
  9 23  2  0  0  0  0
 10 24  1  0  0  0  0
 11 12  2  0  0  0  0
 11 25  1  0  0  0  0
 12 26  1  0  0  0  0
 13 21  1  0  0  0  0
 13 24  2  0  0  0  0
 14 22  1  0  0  0  0
 14 29  2  0  0  0  0
 15 26  2  0  0  0  0
 15 27  1  0  0  0  0
 16 28  1  0  0  0  0
 17 28  1  0  0  0  0
 17 31  2  0  0  0  0
 17 32  1  0  0  0  0
 18 20  2  0  0  0  0
 18 37  1  0  0  0  0
 19 21  2  0  0  0  0
 19 38  1  0  0  0  0
 20 46  1  0  0  0  0
 21 39  1  0  0  0  0
 22 30  2  0  0  0  0
 22 60  1  0  0  0  0
 23 81  1  0  0  0  0
 24 82  1  0  0  0  0
 25 27  2  0  0  0  0
 25 81  1  0  0  0  0
 26 83  1  0  0  0  0
 27 84  1  0  0  0  0
 28 64  2  0  0  0  0
 29 56  1  0  0  0  0
 29 65  1  0  0  0  0
 30 49  1  0  0  0  0
 30 66  1  0  0  0  0
 31 67  1  0  0  0  0
 31 70  1  0  0  0  0
 32 71  1  0  0  0  0
 32 76  2  0  0  0  0
 33 47  1  0  0  0  0
 33 72  1  0  0  0  0
 33 77  2  0  0  0  0
 34 61  1  0  0  0  0
 34 68  1  0  0  0  0
 34 78  2  0  0  0  0
 35 62  1  0  0  0  0
 35 73  1  0  0  0  0
 35 79  2  0  0  0  0
 36 69  1  0  0  0  0
 36 74  1  0  0  0  0
 36 80  2  0  0  0  0
 37 40  1  0  0  0  0
 38 47  1  0  0  0  0
 39 68  1  0  0  0  0
 40 42  1  0  0  0  0
 41 43  1  0  0  0  0
 41 44  1  0  0  0  0
 42 46  1  0  0  0  0
 43 48  1  0  0  0  0
 44 69  1  0  0  0  0
 45 48  1  0  0  0  0
 45 69  1  0  0  0  0
 46 72  1  0  0  0  0
 47 68  1  0  0  0  0
 48 67  1  0  0  0  0
 50 60  1  0  0  0  0
 51 62  1  0  0  0  0
 52 63  1  0  0  0  0
 53 63  1  0  0  0  0
 54 63  1  0  0  0  0
 55 75  1  0  0  0  0
 56 57  1  0  0  0  0
 57 58  1  0  0  0  0
 58 74  1  0  0  0  0
 59 60  1  0  0  0  0
 59 82  1  0  0  0  0
 61 63  1  0  0  0  0
 61 73  1  0  0  0  0
 62 75  1  0  0  0  0
 64 67  1  0  0  0  0
 65 66  2  0  0  0  0
M  CHG  1  75   1
M  ISO  4  36 100  59 101  74 100  82 101
M  END
> <Batch ID>
0088

> <Smiles>
CNC(C)C(=O)NC(C(=O)N1Cc2cc([101O:1][101CH2:1]C(C)c3cc(CCC[100NH:0][100C:0](=O)N4CCCC(n5nc(-c6ccc(Oc7ccc(F)cc7F)cc6)c(C(N)=O)c5N)C4)nnc3C)ccc2CC1C(=O)NC1CCCc2ccccc21)C(C)(C)C

> <Shape>
0.197

> <Color>
0.090

> <Negative vol penalty>
0.000

$$$$

  -OEChem-04052319043D

 87 95  0     1  0  0  0  0  0999 V2000
  -22.7749  -31.4962   17.8264 C   0  0  0  0  0  0  0  0  0  0  0  0
  -23.4066  -30.2707   17.6407 C   0  0  0  0  0  0  0  0  0  0  0  0
  -22.9404   -9.9035   20.0243 C   0  0  0  0  0  0  0  0  0  0  0  0
  -23.6489   -9.9994   22.3321 C   0  0  0  0  0  0  0  0  0  0  0  0
  -22.8375  -32.1305   19.0664 C   0  0  0  0  0  0  0  0  0  0  0  0
  -24.1021  -29.6793   18.6946 C   0  0  0  0  0  0  0  0  0  0  0  0
  -24.5813  -23.6919   19.8893 C   0  0  0  0  0  0  0  0  0  0  0  0
  -22.1429   -8.7967   20.3150 C   0  0  0  0  0  0  0  0  0  0  0  0
  -22.8514   -8.8926   22.6229 C   0  0  0  0  0  0  0  0  0  0  0  0
  -25.5793  -22.7577   19.6154 C   0  0  0  0  0  0  0  0  0  0  0  0
  -23.0133   -5.5368   22.2444 C   0  0  0  0  0  0  0  0  0  0  0  0
  -23.5687   -4.5260   23.0289 C   0  0  0  0  0  0  0  0  0  0  0  0
  -26.4854  -23.0862   21.8268 C   0  0  0  0  0  0  0  0  0  0  0  0
  -26.5416  -18.8736   21.6894 C   0  0  0  0  0  0  0  0  0  0  0  0
  -21.8388   -4.8588   24.6824 C   0  0  0  0  0  0  0  0  0  0  0  0
  -28.5299  -17.6751   23.1232 C   0  0  0  0  0  0  0  0  0  0  0  0
  -23.6934  -10.5049   21.0328 C   0  0  0  0  0  0  0  0  0  0  0  0
  -24.1447  -13.0040   20.7913 C   0  0  0  0  0  0  0  0  0  0  0  0
  -23.5260  -31.5420   20.1389 C   0  0  0  0  0  0  0  0  0  0  0  0
  -24.5342  -24.3394   21.1323 C   0  0  0  0  0  0  0  0  0  0  0  0
  -24.1751  -30.3070   19.9498 C   0  0  0  0  0  0  0  0  0  0  0  0
  -25.4842  -24.0263   22.1150 C   0  0  0  0  0  0  0  0  0  0  0  0
  -27.8046  -18.7391   21.1236 C   0  0  0  0  0  0  0  0  0  0  0  0
  -28.8232  -18.1295   21.8475 C   0  0  0  0  0  0  0  0  0  0  0  0
  -22.0984   -8.2912   21.6143 C   0  0  0  0  0  0  0  0  0  0  0  0
  -26.5333  -22.4568   20.5832 C   0  0  0  0  0  0  0  0  0  0  0  0
  -21.8707   -6.2086   22.6789 C   0  0  0  0  0  0  0  0  0  0  0  0
  -22.9815   -4.1870   24.2479 C   0  0  0  0  0  0  0  0  0  0  0  0
  -21.2835   -5.8696   23.8978 C   0  0  0  0  0  0  0  0  0  0  0  0
  -24.5179  -11.6479   20.7329 C   0  0  0  0  0  0  0  0  0  0  0  0
  -26.3504  -18.3857   22.9720 C   0  0  0  0  0  0  0  0  0  0  0  0
  -25.2754  -13.6877   20.4167 C   0  0  0  0  0  0  0  0  0  0  0  0
  -22.8882  -13.5930   21.1521 C   0  0  0  0  0  0  0  0  0  0  0  0
  -24.7623  -27.3590   22.0986 C   0  0  0  0  0  0  0  0  0  0  0  0
  -24.0153  -26.0828   24.9858 C   0  0  0  0  0  0  0  0  0  0  0  0
  -23.9822  -23.3440   27.0217 C   0  0  0  0  0  0  0  0  0  0  0  0
  -30.7919  -14.4884   20.6857 C   0  0  0  0  0  0  0  0  0  0  0  0
  -23.6060  -32.2881   21.4472 C   0  0  0  0  0  0  0  0  0  0  0  0
  -23.4354  -25.3249   21.4217 C   0  0  0  0  0  0  0  0  0  0  0  0
  -25.4656  -24.6786   23.4724 C   0  0  0  0  0  0  0  0  0  0  0  0
  -24.0472  -31.4159   22.6197 C   0  0  0  0  0  0  0  0  0  0  0  0
  -29.6073  -12.0309   18.3978 C   0  0  0  0  0  0  0  0  0  0  0  0
  -25.2567  -30.5714   22.2314 C   0  0  0  0  0  0  0  0  0  0  0  0
  -28.1495  -11.8198   18.8102 C   0  0  0  0  0  0  0  0  0  0  0  0
  -30.5062  -12.2764   19.6077 C   0  0  0  0  0  0  0  0  0  0  0  0
  -28.6069  -13.1569   20.9082 C   0  0  0  0  0  0  0  0  0  0  0  0
  -24.9185  -29.6218   21.0759 C   0  0  1  0  0  0  0  0  0  0  0  0
  -23.7885  -26.3025   22.5384 C   0  0  1  0  0  0  0  0  0  0  0  0
  -27.6526  -12.9612   19.7177 C   0  0  2  0  0  0  0  0  0  0  0  0
  -27.8189  -18.1671   18.6732 C   0  0  0  0  0  0  0  0  0  0  0  0
  -31.0797  -19.1981   21.5467 C   0  0  0  0  0  0  0  0  0  0  0  0
  -23.4767  -21.9574   29.0513 C   0  0  0  0  0  0  0  0  0  0  0  0
  -23.9147  -17.7722   22.7809 C   0  0  0  0  0  0  0  0  0  0  0  0
  -24.5776  -20.0080   23.7283 C   0  0  0  0  0  0  0  0  0  0  0  0
  -24.8968  -17.9325   25.0594 C   0  0  0  0  0  0  0  0  0  0  0  0
  -26.5041  -27.4549   26.0961 C   0  0  0  0  0  0  0  0  0  0  0  0
  -26.3481  -25.9620   28.0999 C   0  0  0  0  0  0  0  0  0  0  0  0
  -24.5011  -27.5593   27.5900 C   0  0  0  0  0  0  0  0  0  0  0  0
  -21.3653  -22.4938   25.9319 C   0  0  0  0  0  0  0  0  0  0  0  0
  -30.9215  -16.6963   21.8116 C   0  0  0  0  0  0  0  0  0  0  0  0
  -27.1869  -20.4960   19.4069 C   0  0  0  0  0  0  0  0  0  1  0  0
  -28.0477  -19.2637   19.7172 C   0  0  1  0  0  0  0  0  0  0  0  0
  -30.1938  -17.9601   21.2900 C   0  0  1  0  0  0  0  0  0  0  0  0
  -24.8049  -25.5115   26.1387 C   0  0  1  0  0  0  0  0  0  0  0  0
  -22.8905  -22.7499   27.8933 C   0  0  2  0  0  0  0  0  0  0  0  0
  -25.0079  -18.5132   23.6110 C   0  0  0  0  0  0  0  0  0  0  0  0
  -25.5413  -26.6109   26.9550 C   0  0  0  0  0  0  0  0  0  0  0  0
  -27.3154  -17.7879   23.7061 N   0  0  0  0  0  0  0  0  0  0  0  0
  -25.7865  -11.4782   20.3510 N   0  0  0  0  0  0  0  0  0  0  0  0
  -26.2202  -12.7366   20.1660 N   0  0  0  0  0  0  0  0  0  0  0  0
  -24.3752  -25.6401   23.7050 N   0  0  0  0  0  0  0  0  0  0  0  0
  -29.9803  -13.3718   20.4259 N   0  0  0  0  0  0  0  0  0  0  0  0
  -25.5437  -15.0038   20.2804 N   0  0  0  0  0  0  0  0  0  0  0  0
  -21.8314  -12.7452   21.5110 N   0  0  0  0  0  0  0  0  0  0  0  0
  -24.1669  -28.4838   21.5603 N   0  0  0  0  0  0  0  0  0  0  0  0
  -23.8663  -24.7143   26.9210 N   0  0  0  0  0  0  0  0  0  0  0  0
  -30.2142  -15.4840   21.4640 N   0  0  0  0  0  0  0  0  0  0  0  0
  -22.0252  -21.8396   27.0911 N   0  3  0  0  0  0  0  0  0  0  0  0
  -22.7032  -14.8336   21.1403 O   0  0  0  0  0  0  0  0  0  0  0  0
  -25.9646  -27.1683   22.2387 O   0  0  0  0  0  0  0  0  0  0  0  0
  -23.1078  -26.8865   25.2137 O   0  0  0  0  0  0  0  0  0  0  0  0
  -24.8531  -22.6613   26.4870 O   0  0  0  0  0  0  0  0  0  0  0  0
  -31.9441  -14.5928   20.2514 O   0  0  0  0  0  0  0  0  0  0  0  0
  -21.3201   -7.2114   21.8985 O   0  0  0  0  0  0  0  0  0  0  0  0
  -27.5088  -21.5458   20.3182 O   0  0  0  0  0  0  0  0  0  1  0  0
  -23.5140   -3.2153   25.0004 F   0  0  0  0  0  0  0  0  0  0  0  0
  -20.1850   -6.5107   24.3199 F   0  0  0  0  0  0  0  0  0  0  0  0
  1  2  1  0  0  0  0
  1  5  2  0  0  0  0
  2  6  2  0  0  0  0
  3  8  2  0  0  0  0
  3 17  1  0  0  0  0
  4  9  1  0  0  0  0
  4 17  2  0  0  0  0
  5 19  1  0  0  0  0
  6 21  1  0  0  0  0
  7 10  2  0  0  0  0
  7 20  1  0  0  0  0
  8 25  1  0  0  0  0
  9 25  2  0  0  0  0
 10 26  1  0  0  0  0
 11 12  2  0  0  0  0
 11 27  1  0  0  0  0
 12 28  1  0  0  0  0
 13 22  1  0  0  0  0
 13 26  2  0  0  0  0
 14 23  1  0  0  0  0
 14 31  2  0  0  0  0
 15 28  2  0  0  0  0
 15 29  1  0  0  0  0
 16 24  1  0  0  0  0
 16 68  2  0  0  0  0
 17 30  1  0  0  0  0
 18 30  1  0  0  0  0
 18 32  2  0  0  0  0
 18 33  1  0  0  0  0
 19 21  2  0  0  0  0
 19 38  1  0  0  0  0
 20 22  2  0  0  0  0
 20 39  1  0  0  0  0
 21 47  1  0  0  0  0
 22 40  1  0  0  0  0
 23 24  2  0  0  0  0
 23 62  1  0  0  0  0
 24 63  1  0  0  0  0
 25 84  1  0  0  0  0
 26 85  1  0  0  0  0
 27 29  2  0  0  0  0
 27 84  1  0  0  0  0
 28 86  1  0  0  0  0
 29 87  1  0  0  0  0
 30 69  2  0  0  0  0
 31 66  1  0  0  0  0
 31 68  1  0  0  0  0
 32 70  1  0  0  0  0
 32 73  1  0  0  0  0
 33 74  1  0  0  0  0
 33 79  2  0  0  0  0
 34 48  1  0  0  0  0
 34 75  1  0  0  0  0
 34 80  2  0  0  0  0
 35 64  1  0  0  0  0
 35 71  1  0  0  0  0
 35 81  2  0  0  0  0
 36 65  1  0  0  0  0
 36 76  1  0  0  0  0
 36 82  2  0  0  0  0
 37 72  1  0  0  0  0
 37 77  1  0  0  0  0
 37 83  2  0  0  0  0
 38 41  1  0  0  0  0
 39 48  1  0  0  0  0
 40 71  1  0  0  0  0
 41 43  1  0  0  0  0
 42 44  1  0  0  0  0
 42 45  1  0  0  0  0
 43 47  1  0  0  0  0
 44 49  1  0  0  0  0
 45 72  1  0  0  0  0
 46 49  1  0  0  0  0
 46 72  1  0  0  0  0
 47 75  1  0  0  0  0
 48 71  1  0  0  0  0
 49 70  1  0  0  0  0
 50 62  1  0  0  0  0
 51 63  1  0  0  0  0
 52 65  1  0  0  0  0
 53 66  1  0  0  0  0
 54 66  1  0  0  0  0
 55 66  1  0  0  0  0
 56 67  1  0  0  0  0
 57 67  1  0  0  0  0
 58 67  1  0  0  0  0
 59 78  1  0  0  0  0
 60 63  1  0  0  0  0
 60 77  1  0  0  0  0
 61 62  1  0  0  0  0
 61 85  1  0  0  0  0
 64 67  1  0  0  0  0
 64 76  1  0  0  0  0
 65 78  1  0  0  0  0
 69 70  1  0  0  0  0
M  CHG  1  78   1
M  ISO  4  37 100  61 101  77 100  85 101
M  END
> <Batch ID>
0088

> <Smiles>
CNC(C)C(=O)NC(C(=O)N1Cc2cc([101O:1][101CH2:1]C(C)c3cc(C(C)(C)C)ncc3C(C)C[100NH:0][100C:0](=O)N3CCCC(n4nc(-c5ccc(Oc6ccc(F)cc6F)cc5)c(C(N)=O)c4N)C3)ccc2CC1C(=O)NC1CCCc2ccccc21)C(C)(C)C

> <Shape>
0.254

> <Color>
0.195

> <Negative vol penalty>
0.000

$$$$

  -OEChem-04052319043D

 87 95  0     1  0  0  0  0  0999 V2000
  -21.6919  -22.4159   19.5104 C   0  0  0  0  0  0  0  0  0  0  0  0
  -22.6800  -22.1006   20.4376 C   0  0  0  0  0  0  0  0  0  0  0  0
  -23.2868   -9.8003   19.9130 C   0  0  0  0  0  0  0  0  0  0  0  0
  -23.7351   -9.9419   22.2828 C   0  0  0  0  0  0  0  0  0  0  0  0
  -20.3644  -22.5323   19.9206 C   0  0  0  0  0  0  0  0  0  0  0  0
  -22.3414  -21.9026   21.7757 C   0  0  0  0  0  0  0  0  0  0  0  0
  -24.5926  -17.8268   23.7667 C   0  0  0  0  0  0  0  0  0  0  0  0
  -22.5595   -8.6283   20.1205 C   0  0  0  0  0  0  0  0  0  0  0  0
  -23.0078   -8.7699   22.4904 C   0  0  0  0  0  0  0  0  0  0  0  0
  -25.9321  -17.9540   24.1320 C   0  0  0  0  0  0  0  0  0  0  0  0
  -19.4764   -7.7702   21.2118 C   0  0  0  0  0  0  0  0  0  0  0  0
  -18.2480   -7.6460   20.5629 C   0  0  0  0  0  0  0  0  0  0  0  0
  -25.2700  -18.2541   26.4322 C   0  0  0  0  0  0  0  0  0  0  0  0
  -19.0496   -5.6722   19.4233 C   0  0  0  0  0  0  0  0  0  0  0  0
  -23.8747  -10.4571   20.9941 C   0  0  0  0  0  0  0  0  0  0  0  0
  -24.1357  -12.9868   20.7944 C   0  0  0  0  0  0  0  0  0  0  0  0
  -20.0079  -22.3261   21.2626 C   0  0  0  0  0  0  0  0  0  0  0  0
  -23.5795  -17.9234   24.7315 C   0  0  0  0  0  0  0  0  0  0  0  0
  -21.0081  -22.0177   22.2044 C   0  0  0  0  0  0  0  0  0  0  0  0
  -23.9186  -18.1253   26.0770 C   0  0  0  0  0  0  0  0  0  0  0  0
  -30.7108  -15.1896   24.8308 C   0  0  0  0  0  0  0  0  0  0  0  0
  -30.8285  -16.5403   25.1077 C   0  0  0  0  0  0  0  0  0  0  0  0
  -22.4200   -8.1131   21.4092 C   0  0  0  0  0  0  0  0  0  0  0  0
  -26.2708  -18.1706   25.4645 C   0  0  0  0  0  0  0  0  0  0  0  0
  -20.4915   -6.8454   20.9665 C   0  0  0  0  0  0  0  0  0  0  0  0
  -18.0346   -6.5970   19.6686 C   0  0  0  0  0  0  0  0  0  0  0  0
  -20.2781   -5.7964   20.0723 C   0  0  0  0  0  0  0  0  0  0  0  0
  -24.6265  -11.6675   20.7802 C   0  0  0  0  0  0  0  0  0  0  0  0
  -31.7236  -14.5867   24.1123 C   0  0  0  0  0  0  0  0  0  0  0  0
  -31.9514  -17.1986   24.6480 C   0  0  0  0  0  0  0  0  0  0  0  0
  -25.2379  -13.7659   20.5402 C   0  0  0  0  0  0  0  0  0  0  0  0
  -22.8027  -13.4653   21.0175 C   0  0  0  0  0  0  0  0  0  0  0  0
  -21.1264  -19.8850   25.2194 C   0  0  0  0  0  0  0  0  0  0  0  0
  -20.4224  -17.7857   27.5900 C   0  0  0  0  0  0  0  0  0  0  0  0
  -21.5230  -15.4027   29.7710 C   0  0  0  0  0  0  0  0  0  0  0  0
  -31.1075  -12.9200   21.3665 C   0  0  0  0  0  0  0  0  0  0  0  0
  -18.5666  -22.5093   21.6673 C   0  0  0  0  0  0  0  0  0  0  0  0
  -22.1408  -17.7573   24.3252 C   0  0  0  0  0  0  0  0  0  0  0  0
  -22.8698  -18.2163   27.1540 C   0  0  0  0  0  0  0  0  0  0  0  0
  -18.2377  -21.9156   23.0346 C   0  0  0  0  0  0  0  0  0  0  0  0
  -29.4623  -13.6588   18.2966 C   0  0  0  0  0  0  0  0  0  0  0  0
  -19.2977  -22.3115   24.0575 C   0  0  0  0  0  0  0  0  0  0  0  0
  -27.9921  -13.3512   18.5863 C   0  0  0  0  0  0  0  0  0  0  0  0
  -30.3943  -12.6792   19.0065 C   0  0  0  0  0  0  0  0  0  0  0  0
  -28.7055  -12.2517   20.7498 C   0  0  0  0  0  0  0  0  0  0  0  0
  -20.6767  -21.7711   23.6603 C   0  0  1  0  0  0  0  0  0  0  0  0
  -21.1642  -18.3859   25.3143 C   0  0  1  0  0  0  0  0  0  0  0  0
  -27.7288  -13.2471   20.1006 C   0  0  2  0  0  0  0  0  0  0  0  0
  -28.3801  -13.3109   27.2688 C   0  0  0  0  0  0  0  0  0  0  0  0
  -20.7221  -13.8951   31.6103 C   0  0  0  0  0  0  0  0  0  0  0  0
  -32.1920  -18.9534   26.4392 C   0  0  0  0  0  0  0  0  0  0  0  0
  -30.9915  -19.5010   24.2957 C   0  0  0  0  0  0  0  0  0  0  0  0
  -33.4664  -19.2668   24.3275 C   0  0  0  0  0  0  0  0  0  0  0  0
  -20.3456  -20.1626   29.5016 C   0  0  0  0  0  0  0  0  0  0  0  0
  -20.4946  -18.5458   31.4073 C   0  0  0  0  0  0  0  0  0  0  0  0
  -18.5366  -18.4742   29.8634 C   0  0  0  0  0  0  0  0  0  0  0  0
  -22.2817  -12.9703   28.2654 C   0  0  0  0  0  0  0  0  0  0  0  0
  -29.5259  -14.4104   25.2941 C   0  0  0  0  0  0  0  0  0  0  0  0
  -29.7626  -17.2697   25.8888 C   0  0  0  0  0  0  0  0  0  0  0  0
  -31.6669  -13.1347   23.7749 C   0  0  0  0  0  0  0  0  0  0  0  0
  -29.6046  -14.0754   26.7911 C   0  0  0  0  0  0  0  0  0  0  0  0
  -28.5372  -17.5886   25.0393 C   0  0  0  0  0  0  0  0  0  1  0  0
  -20.7873  -17.6594   29.0494 C   0  0  1  0  0  0  0  0  0  0  0  0
  -20.9817  -14.0275   30.1177 C   0  0  2  0  0  0  0  0  0  0  0  0
  -32.1493  -18.6540   24.9088 C   0  0  0  0  0  0  0  0  0  0  0  0
  -20.0609  -18.7107   29.9351 C   0  0  0  0  0  0  0  0  0  0  0  0
  -25.9383  -11.6079   20.5361 N   0  0  0  0  0  0  0  0  0  0  0  0
  -32.8114  -15.2557   23.6749 N   0  0  0  0  0  0  0  0  0  0  0  0
  -32.9272  -16.5831   23.9474 N   0  0  0  0  0  0  0  0  0  0  0  0
  -26.2812  -12.8996   20.3945 N   0  0  0  0  0  0  0  0  0  0  0  0
  -21.4769  -18.0539   26.7058 N   0  0  0  0  0  0  0  0  0  0  0  0
  -30.0934  -12.6287   20.4393 N   0  0  0  0  0  0  0  0  0  0  0  0
  -25.4067  -15.1007   20.4292 N   0  0  0  0  0  0  0  0  0  0  0  0
  -21.7893  -12.5291   21.2644 N   0  0  0  0  0  0  0  0  0  0  0  0
  -20.7756  -20.3610   23.9705 N   0  0  0  0  0  0  0  0  0  0  0  0
  -20.5144  -16.2750   29.4201 N   0  0  0  0  0  0  0  0  0  0  0  0
  -30.7364  -12.8554   22.7040 N   0  0  0  0  0  0  0  0  0  0  0  0
  -21.9529  -12.9717   29.7142 N   0  3  0  0  0  0  0  0  0  0  0  0
  -22.5155  -14.6859   20.9823 O   0  0  0  0  0  0  0  0  0  0  0  0
  -21.3942  -20.5598   26.2067 O   0  0  0  0  0  0  0  0  0  0  0  0
  -19.2461  -17.6444   27.2464 O   0  0  0  0  0  0  0  0  0  0  0  0
  -22.7204  -15.6769   29.8114 O   0  0  0  0  0  0  0  0  0  0  0  0
  -32.2570  -13.2210   21.0275 O   0  0  0  0  0  0  0  0  0  0  0  0
  -21.7102   -6.9696   21.6122 O   0  0  0  0  0  0  0  0  0  0  0  0
  -27.5774  -18.2957   25.8237 O   0  0  0  0  0  0  0  0  0  1  0  0
  -16.8544   -6.4770   19.0466 F   0  0  0  0  0  0  0  0  0  0  0  0
  -21.2490   -4.9042   19.8335 F   0  0  0  0  0  0  0  0  0  0  0  0
  1  2  1  0  0  0  0
  1  5  2  0  0  0  0
  2  6  2  0  0  0  0
  3  8  2  0  0  0  0
  3 15  1  0  0  0  0
  4  9  1  0  0  0  0
  4 15  2  0  0  0  0
  5 17  1  0  0  0  0
  6 19  1  0  0  0  0
  7 10  2  0  0  0  0
  7 18  1  0  0  0  0
  8 23  1  0  0  0  0
  9 23  2  0  0  0  0
 10 24  1  0  0  0  0
 11 12  2  0  0  0  0
 11 25  1  0  0  0  0
 12 26  1  0  0  0  0
 13 20  1  0  0  0  0
 13 24  2  0  0  0  0
 14 26  2  0  0  0  0
 14 27  1  0  0  0  0
 15 28  1  0  0  0  0
 16 28  1  0  0  0  0
 16 31  2  0  0  0  0
 16 32  1  0  0  0  0
 17 19  2  0  0  0  0
 17 37  1  0  0  0  0
 18 20  2  0  0  0  0
 18 38  1  0  0  0  0
 19 46  1  0  0  0  0
 20 39  1  0  0  0  0
 21 22  2  0  0  0  0
 21 29  1  0  0  0  0
 21 58  1  0  0  0  0
 22 30  1  0  0  0  0
 22 59  1  0  0  0  0
 23 84  1  0  0  0  0
 24 85  1  0  0  0  0
 25 27  2  0  0  0  0
 25 84  1  0  0  0  0
 26 86  1  0  0  0  0
 27 87  1  0  0  0  0
 28 67  2  0  0  0  0
 29 60  1  0  0  0  0
 29 68  2  0  0  0  0
 30 65  1  0  0  0  0
 30 69  2  0  0  0  0
 31 70  1  0  0  0  0
 31 73  1  0  0  0  0
 32 74  1  0  0  0  0
 32 79  2  0  0  0  0
 33 47  1  0  0  0  0
 33 75  1  0  0  0  0
 33 80  2  0  0  0  0
 34 63  1  0  0  0  0
 34 71  1  0  0  0  0
 34 81  2  0  0  0  0
 35 64  1  0  0  0  0
 35 76  1  0  0  0  0
 35 82  2  0  0  0  0
 36 72  1  0  0  0  0
 36 77  1  0  0  0  0
 36 83  2  0  0  0  0
 37 40  1  0  0  0  0
 38 47  1  0  0  0  0
 39 71  1  0  0  0  0
 40 42  1  0  0  0  0
 41 43  1  0  0  0  0
 41 44  1  0  0  0  0
 42 46  1  0  0  0  0
 43 48  1  0  0  0  0
 44 72  1  0  0  0  0
 45 48  1  0  0  0  0
 45 72  1  0  0  0  0
 46 75  1  0  0  0  0
 47 71  1  0  0  0  0
 48 70  1  0  0  0  0
 49 61  1  0  0  0  0
 50 64  1  0  0  0  0
 51 65  1  0  0  0  0
 52 65  1  0  0  0  0
 53 65  1  0  0  0  0
 54 66  1  0  0  0  0
 55 66  1  0  0  0  0
 56 66  1  0  0  0  0
 57 78  1  0  0  0  0
 58 61  1  0  0  0  0
 59 62  1  0  0  0  0
 60 77  1  0  0  0  0
 62 85  1  0  0  0  0
 63 66  1  0  0  0  0
 63 76  1  0  0  0  0
 64 78  1  0  0  0  0
 67 70  1  0  0  0  0
 68 69  1  0  0  0  0
M  CHG  1  78   1
M  ISO  4  36 100  62 101  77 100  85 101
M  END
> <Batch ID>
0088

> <Smiles>
CCCc1c(C[100NH:0][100C:0](=O)N2CCCC(n3nc(-c4ccc(Oc5ccc(F)cc5F)cc4)c(C(N)=O)c3N)C2)nnc(C(C)(C)C)c1C[101CH2:1][101O:1]c1ccc2c(c1)CN(C(=O)C(NC(=O)C(C)NC)C(C)(C)C)C(C(=O)NC1CCCc3ccccc31)C2

> <Shape>
0.119

> <Color>
0.166

> <Negative vol penalty>
0.000

$$$$

  -OEChem-04052319043D

 85 93  0     1  0  0  0  0  0999 V2000
  -26.5843  -23.4460   17.7276 C   0  0  0  0  0  0  0  0  0  0  0  0
  -25.4632  -23.9728   18.3609 C   0  0  0  0  0  0  0  0  0  0  0  0
  -26.7542  -13.4217   20.8304 C   0  0  0  0  0  0  0  0  0  0  0  0
  -24.4064  -13.7872   20.3932 C   0  0  0  0  0  0  0  0  0  0  0  0
  -27.8595  -23.7571   18.1976 C   0  0  0  0  0  0  0  0  0  0  0  0
  -25.6167  -24.8103   19.4652 C   0  0  0  0  0  0  0  0  0  0  0  0
  -22.6296  -28.8932   19.2371 C   0  0  0  0  0  0  0  0  0  0  0  0
  -26.4492  -12.2146   21.4592 C   0  0  0  0  0  0  0  0  0  0  0  0
  -24.1014  -12.5801   21.0220 C   0  0  0  0  0  0  0  0  0  0  0  0
  -21.2860  -28.7183   19.5657 C   0  0  0  0  0  0  0  0  0  0  0  0
  -22.7362   -9.4207   22.1937 C   0  0  0  0  0  0  0  0  0  0  0  0
  -21.8222   -8.5745   21.5660 C   0  0  0  0  0  0  0  0  0  0  0  0
  -21.7138  -29.6112   21.7654 C   0  0  0  0  0  0  0  0  0  0  0  0
  -20.1541  -25.4581   23.6308 C   0  0  0  0  0  0  0  0  0  0  0  0
  -23.2718   -8.4389   19.6379 C   0  0  0  0  0  0  0  0  0  0  0  0
  -25.7328  -14.2080   20.2974 C   0  0  0  0  0  0  0  0  0  0  0  0
  -26.3322  -15.6556   18.2842 C   0  0  0  0  0  0  0  0  0  0  0  0
  -28.0290  -24.6066   19.3022 C   0  0  0  0  0  0  0  0  0  0  0  0
  -23.5291  -29.4192   20.1755 C   0  0  0  0  0  0  0  0  0  0  0  0
  -26.8954  -25.1320   19.9511 C   0  0  0  0  0  0  0  0  0  0  0  0
  -23.0678  -29.7942   21.4454 C   0  0  0  0  0  0  0  0  0  0  0  0
  -20.9690  -24.3385   23.5050 C   0  0  0  0  0  0  0  0  0  0  0  0
  -20.7590  -23.4467   22.4590 C   0  0  0  0  0  0  0  0  0  0  0  0
  -25.1228  -11.7937   21.5550 C   0  0  0  0  0  0  0  0  0  0  0  0
  -20.8285  -29.0746   20.8309 C   0  0  0  0  0  0  0  0  0  0  0  0
  -23.9180   -9.7762   21.5435 C   0  0  0  0  0  0  0  0  0  0  0  0
  -22.0900   -8.0836   20.2881 C   0  0  0  0  0  0  0  0  0  0  0  0
  -24.1858   -9.2853   20.2656 C   0  0  0  0  0  0  0  0  0  0  0  0
  -26.0472  -15.4553   19.6482 C   0  0  0  0  0  0  0  0  0  0  0  0
  -19.1511  -25.6391   22.6921 C   0  0  0  0  0  0  0  0  0  0  0  0
  -19.7288  -23.7177   21.5729 C   0  0  0  0  0  0  0  0  0  0  0  0
  -26.5617  -17.0054   18.1759 C   0  0  0  0  0  0  0  0  0  0  0  0
  -26.3848  -14.7063   17.2110 C   0  0  0  0  0  0  0  0  0  0  0  0
  -26.1491  -28.3438   21.6187 C   0  0  0  0  0  0  0  0  0  0  0  0
  -26.2909  -31.3750   22.7649 C   0  0  0  0  0  0  0  0  0  0  0  0
  -24.6401  -34.2598   23.5392 C   0  0  0  0  0  0  0  0  0  0  0  0
  -24.7874  -21.7159   21.4185 C   0  0  0  0  0  0  0  0  0  0  0  0
  -29.4259  -24.8763   19.8030 C   0  0  0  0  0  0  0  0  0  0  0  0
  -24.9699  -29.6265   19.7966 C   0  0  0  0  0  0  0  0  0  0  0  0
  -23.9889  -30.3820   22.4821 C   0  0  0  0  0  0  0  0  0  0  0  0
  -29.5139  -26.0715   20.7484 C   0  0  0  0  0  0  0  0  0  0  0  0
  -28.1386  -20.7500   20.7023 C   0  0  0  0  0  0  0  0  0  0  0  0
  -28.4057  -26.0073   21.7947 C   0  0  0  0  0  0  0  0  0  0  0  0
  -28.0084  -19.3016   20.2279 C   0  0  0  0  0  0  0  0  0  0  0  0
  -27.1455  -21.0701   21.8173 C   0  0  0  0  0  0  0  0  0  0  0  0
  -25.6080  -19.3141   21.0259 C   0  0  0  0  0  0  0  0  0  0  0  0
  -27.0217  -26.0641   21.1366 C   0  0  1  0  0  0  0  0  0  0  0  0
  -25.9015  -29.6918   21.0029 C   0  0  1  0  0  0  0  0  0  0  0  0
  -26.5511  -18.9598   19.8634 C   0  0  2  0  0  0  0  0  0  0  0  0
  -22.0562  -24.1163   24.5037 C   0  0  0  0  0  0  0  0  0  0  0  0
  -19.4555  -22.7973   20.4284 C   0  0  0  0  0  0  0  0  0  0  0  0
  -20.8102  -20.9326   22.4413 C   0  0  0  0  0  0  0  0  0  0  0  0
  -25.0168  -36.5492   24.4952 C   0  0  0  0  0  0  0  0  0  0  0  0
  -26.4636  -30.1748   25.5648 C   0  0  0  0  0  0  0  0  0  0  0  0
  -25.8831  -32.4274   26.4906 C   0  0  0  0  0  0  0  0  0  0  0  0
  -27.9782  -32.1254   25.1708 C   0  0  0  0  0  0  0  0  0  0  0  0
  -23.7420  -35.5758   21.0451 C   0  0  0  0  0  0  0  0  0  0  0  0
  -18.2489  -26.8427   22.7962 C   0  0  0  0  0  0  0  0  0  0  0  0
  -17.7242  -27.3376   21.4466 C   0  0  0  0  0  0  0  0  0  0  0  0
  -22.3992  -22.2124   20.9609 C   0  0  0  0  0  0  0  0  0  0  0  0
  -18.8250  -27.8326   20.5156 C   0  0  0  0  0  0  0  0  0  1  0  0
  -21.6189  -22.2386   22.2975 C   0  0  1  0  0  0  0  0  0  0  0  0
  -25.7474  -32.0844   23.9816 C   0  0  1  0  0  0  0  0  0  0  0  0
  -24.9501  -35.7127   23.2270 C   0  0  2  0  0  0  0  0  0  0  0  0
  -26.5008  -31.6901   25.2833 C   0  0  0  0  0  0  0  0  0  0  0  0
  -26.0912  -16.5874   20.3557 N   0  0  0  0  0  0  0  0  0  0  0  0
  -18.9167  -24.7947   21.6627 N   0  0  0  0  0  0  0  0  0  0  0  0
  -26.4066  -17.5119   19.4328 N   0  0  0  0  0  0  0  0  0  0  0  0
  -25.3899  -30.5593   22.0659 N   0  0  0  0  0  0  0  0  0  0  0  0
  -25.7822  -20.7244   21.4073 N   0  0  0  0  0  0  0  0  0  0  0  0
  -26.8791  -17.7967   17.1292 N   0  0  0  0  0  0  0  0  0  0  0  0
  -26.1226  -13.3595   17.4968 N   0  0  0  0  0  0  0  0  0  0  0  0
  -26.7011  -27.4214   20.7503 N   0  0  0  0  0  0  0  0  0  0  0  0
  -25.7893  -33.5102   23.6755 N   0  0  0  0  0  0  0  0  0  0  0  0
  -23.5245  -21.3056   21.0094 N   0  0  0  0  0  0  0  0  0  0  0  0
  -23.8997  -36.2874   22.3396 N   0  3  0  0  0  0  0  0  0  0  0  0
  -26.6722  -15.0399   16.0364 O   0  0  0  0  0  0  0  0  0  0  0  0
  -25.8621  -28.1549   22.7949 O   0  0  0  0  0  0  0  0  0  0  0  0
  -27.4694  -31.5442   22.4424 O   0  0  0  0  0  0  0  0  0  0  0  0
  -23.4932  -33.8334   23.6546 O   0  0  0  0  0  0  0  0  0  0  0  0
  -25.0095  -22.8819   21.7621 O   0  0  0  0  0  0  0  0  0  0  0  0
  -24.8248  -10.6158   22.1683 O   0  0  0  0  0  0  0  0  0  0  0  0
  -19.5177  -28.9043   21.1544 O   0  0  0  0  0  0  0  0  0  1  0  0
  -21.2129   -7.2697   19.6861 F   0  0  0  0  0  0  0  0  0  0  0  0
  -25.3200   -9.6223   19.6365 F   0  0  0  0  0  0  0  0  0  0  0  0
  1  2  1  0  0  0  0
  1  5  2  0  0  0  0
  2  6  2  0  0  0  0
  3  8  2  0  0  0  0
  3 16  1  0  0  0  0
  4  9  1  0  0  0  0
  4 16  2  0  0  0  0
  5 18  1  0  0  0  0
  6 20  1  0  0  0  0
  7 10  2  0  0  0  0
  7 19  1  0  0  0  0
  8 24  1  0  0  0  0
  9 24  2  0  0  0  0
 10 25  1  0  0  0  0
 11 12  2  0  0  0  0
 11 26  1  0  0  0  0
 12 27  1  0  0  0  0
 13 21  1  0  0  0  0
 13 25  2  0  0  0  0
 14 22  2  0  0  0  0
 14 30  1  0  0  0  0
 15 27  2  0  0  0  0
 15 28  1  0  0  0  0
 16 29  1  0  0  0  0
 17 29  1  0  0  0  0
 17 32  2  0  0  0  0
 17 33  1  0  0  0  0
 18 20  2  0  0  0  0
 18 38  1  0  0  0  0
 19 21  2  0  0  0  0
 19 39  1  0  0  0  0
 20 47  1  0  0  0  0
 21 40  1  0  0  0  0
 22 23  1  0  0  0  0
 22 50  1  0  0  0  0
 23 31  2  0  0  0  0
 23 62  1  0  0  0  0
 24 82  1  0  0  0  0
 25 83  1  0  0  0  0
 26 28  2  0  0  0  0
 26 82  1  0  0  0  0
 27 84  1  0  0  0  0
 28 85  1  0  0  0  0
 29 66  2  0  0  0  0
 30 58  1  0  0  0  0
 30 67  2  0  0  0  0
 31 51  1  0  0  0  0
 31 67  1  0  0  0  0
 32 68  1  0  0  0  0
 32 71  1  0  0  0  0
 33 72  1  0  0  0  0
 33 77  2  0  0  0  0
 34 48  1  0  0  0  0
 34 73  1  0  0  0  0
 34 78  2  0  0  0  0
 35 63  1  0  0  0  0
 35 69  1  0  0  0  0
 35 79  2  0  0  0  0
 36 64  1  0  0  0  0
 36 74  1  0  0  0  0
 36 80  2  0  0  0  0
 37 70  1  0  0  0  0
 37 75  1  0  0  0  0
 37 81  2  0  0  0  0
 38 41  1  0  0  0  0
 39 48  1  0  0  0  0
 40 69  1  0  0  0  0
 41 43  1  0  0  0  0
 42 44  1  0  0  0  0
 42 45  1  0  0  0  0
 43 47  1  0  0  0  0
 44 49  1  0  0  0  0
 45 70  1  0  0  0  0
 46 49  1  0  0  0  0
 46 70  1  0  0  0  0
 47 73  1  0  0  0  0
 48 69  1  0  0  0  0
 49 68  1  0  0  0  0
 52 62  1  0  0  0  0
 53 64  1  0  0  0  0
 54 65  1  0  0  0  0
 55 65  1  0  0  0  0
 56 65  1  0  0  0  0
 57 76  1  0  0  0  0
 58 59  1  0  0  0  0
 59 61  1  0  0  0  0
 60 62  1  0  0  0  0
 60 75  1  0  0  0  0
 61 83  1  0  0  0  0
 63 65  1  0  0  0  0
 63 74  1  0  0  0  0
 64 76  1  0  0  0  0
 66 68  1  0  0  0  0
M  CHG  1  76   1
M  ISO  4  37 100  61 101  75 100  83 101
M  END
> <Batch ID>
0088

> <Smiles>
CNC(C)C(=O)NC(C(=O)N1Cc2cc([101O:1][101CH2:1]CCc3cc(C)c(C(C)C[100NH:0][100C:0](=O)N4CCCC(n5nc(-c6ccc(Oc7ccc(F)cc7F)cc6)c(C(N)=O)c5N)C4)c(C)n3)ccc2CC1C(=O)NC1CCCc2ccccc21)C(C)(C)C

> <Shape>
0.280

> <Color>
0.080

> <Negative vol penalty>
0.000

$$$$

  -OEChem-04052319042D

  0  0  0     0  0  0  0  0  0999 V2000
M  END
$$$$

  -OEChem-04052319043D

 82 90  0     1  0  0  0  0  0999 V2000
  -32.4208  -27.4902   14.5782 C   0  0  0  0  0  0  0  0  0  0  0  0
  -31.3074  -26.6838   14.7912 C   0  0  0  0  0  0  0  0  0  0  0  0
  -29.6529  -18.3796   21.8811 C   0  0  0  0  0  0  0  0  0  0  0  0
  -27.8896  -17.8909   20.3034 C   0  0  0  0  0  0  0  0  0  0  0  0
  -32.9938  -28.1815   15.6449 C   0  0  0  0  0  0  0  0  0  0  0  0
  -30.7670  -26.5673   16.0713 C   0  0  0  0  0  0  0  0  0  0  0  0
  -24.8537  -25.9164   17.5257 C   0  0  0  0  0  0  0  0  0  0  0  0
  -30.3861  -17.2961   21.3973 C   0  0  0  0  0  0  0  0  0  0  0  0
  -28.6228  -16.8074   19.8196 C   0  0  0  0  0  0  0  0  0  0  0  0
  -24.0844  -24.7991   17.8476 C   0  0  0  0  0  0  0  0  0  0  0  0
  -29.2790  -13.6258   20.7565 C   0  0  0  0  0  0  0  0  0  0  0  0
  -28.6008  -12.4244   20.5510 C   0  0  0  0  0  0  0  0  0  0  0  0
  -24.4243  -25.2483   20.1932 C   0  0  0  0  0  0  0  0  0  0  0  0
  -19.9416  -18.1274   21.5807 C   0  0  0  0  0  0  0  0  0  0  0  0
  -29.1905  -12.4921   18.2090 C   0  0  0  0  0  0  0  0  0  0  0  0
  -19.1805  -19.7220   20.1850 C   0  0  0  0  0  0  0  0  0  0  0  0
  -28.4046  -18.6770   21.3342 C   0  0  0  0  0  0  0  0  0  0  0  0
  -27.6896  -21.1254   21.3735 C   0  0  0  0  0  0  0  0  0  0  0  0
  -32.4543  -28.0810   16.9369 C   0  0  0  0  0  0  0  0  0  0  0  0
  -25.4241  -26.7031   18.5368 C   0  0  0  0  0  0  0  0  0  0  0  0
  -31.3341  -27.2568   17.1565 C   0  0  0  0  0  0  0  0  0  0  0  0
  -25.1983  -26.3765   19.8816 C   0  0  0  0  0  0  0  0  0  0  0  0
  -19.5424  -18.3945   20.2479 C   0  0  0  0  0  0  0  0  0  0  0  0
  -29.8711  -16.5100   20.3665 C   0  0  0  0  0  0  0  0  0  0  0  0
  -23.8720  -24.4632   19.1814 C   0  0  0  0  0  0  0  0  0  0  0  0
  -29.9128  -14.2604   19.6882 C   0  0  0  0  0  0  0  0  0  0  0  0
  -28.5566  -11.8575   19.2773 C   0  0  0  0  0  0  0  0  0  0  0  0
  -29.8686  -13.6936   18.4145 C   0  0  0  0  0  0  0  0  0  0  0  0
  -27.6465  -19.7957   21.8339 C   0  0  0  0  0  0  0  0  0  0  0  0
  -19.8113  -19.2999   22.2918 C   0  0  0  0  0  0  0  0  0  0  0  0
  -26.7914  -21.7935   22.1693 C   0  0  0  0  0  0  0  0  0  0  0  0
  -28.4717  -21.7048   20.3207 C   0  0  0  0  0  0  0  0  0  0  0  0
  -28.3927  -27.4610   19.3835 C   0  0  0  0  0  0  0  0  0  0  0  0
  -26.8789  -29.4160   21.4832 C   0  0  0  0  0  0  0  0  0  0  0  0
  -24.0629  -30.1117   23.2812 C   0  0  0  0  0  0  0  0  0  0  0  0
  -21.9798  -20.0231   25.2621 C   0  0  0  0  0  0  0  0  0  0  0  0
  -33.1367  -28.8099   18.0673 C   0  0  0  0  0  0  0  0  0  0  0  0
  -26.2292  -27.9205   18.1734 C   0  0  0  0  0  0  0  0  0  0  0  0
  -25.7716  -27.2001   21.0047 C   0  0  0  0  0  0  0  0  0  0  0  0
  -32.2768  -28.9277   19.3231 C   0  0  0  0  0  0  0  0  0  0  0  0
  -24.8579  -21.6812   26.5442 C   0  0  0  0  0  0  0  0  0  0  0  0
  -31.6318  -27.5862   19.6563 C   0  0  0  0  0  0  0  0  0  0  0  0
  -25.9028  -21.5059   25.4409 C   0  0  0  0  0  0  0  0  0  0  0  0
  -23.9670  -20.4482   26.6787 C   0  0  0  0  0  0  0  0  0  0  0  0
  -24.3636  -19.8380   24.3241 C   0  0  0  0  0  0  0  0  0  0  0  0
  -30.7040  -27.1243   18.5261 C   0  0  1  0  0  0  0  0  0  0  0  0
  -27.1887  -28.3537   19.2775 C   0  0  1  0  0  0  0  0  0  0  0  0
  -25.2498  -21.0775   24.1130 C   0  0  2  0  0  0  0  0  0  0  0  0
  -19.5187  -17.4297   19.1319 C   0  0  0  0  0  0  0  0  0  0  0  0
  -23.1389  -31.7553   24.9371 C   0  0  0  0  0  0  0  0  0  0  0  0
  -28.5294  -28.1129   23.6939 C   0  0  0  0  0  0  0  0  0  0  0  0
  -26.9295  -29.0770   25.3609 C   0  0  0  0  0  0  0  0  0  0  0  0
  -28.2748  -30.5917   23.9055 C   0  0  0  0  0  0  0  0  0  0  0  0
  -21.8983  -30.9301   21.4362 C   0  0  0  0  0  0  0  0  0  0  0  0
  -20.0899  -19.5811   23.7154 C   0  0  0  0  0  0  0  0  0  0  0  0
  -20.3132  -22.5786   21.8752 C   0  0  0  0  0  0  0  0  0  0  0  0
  -21.1458  -22.5618   20.5923 C   0  0  0  0  0  0  0  0  0  0  0  0
  -19.0605  -21.6993   21.7890 C   0  0  0  0  0  0  0  0  0  0  0  0
  -22.3985  -23.4171   20.7275 C   0  0  0  0  0  0  0  0  0  1  0  0
  -26.3666  -29.2756   22.8962 C   0  0  1  0  0  0  0  0  0  0  0  0
  -23.2775  -31.3977   23.4655 C   0  0  2  0  0  0  0  0  0  0  0  0
  -27.5158  -29.2475   23.9432 C   0  0  0  0  0  0  0  0  0  0  0  0
  -26.7889  -19.6273   22.8439 N   0  0  0  0  0  0  0  0  0  0  0  0
  -19.3476  -20.2623   21.4334 N   0  0  0  0  0  0  0  0  0  0  0  0
  -26.2848  -20.8599   23.0248 N   0  0  0  0  0  0  0  0  0  0  0  0
  -26.5570  -28.3772   20.5983 N   0  0  0  0  0  0  0  0  0  0  0  0
  -23.3772  -20.0957   25.3849 N   0  0  0  0  0  0  0  0  0  0  0  0
  -26.3933  -23.0827   22.2137 N   0  0  0  0  0  0  0  0  0  0  0  0
  -29.3446  -20.8757   19.6030 N   0  0  0  0  0  0  0  0  0  0  0  0
  -29.4485  -27.8422   18.5776 N   0  0  0  0  0  0  0  0  0  0  0  0
  -25.4065  -30.3565   23.0917 N   0  0  0  0  0  0  0  0  0  0  0  0
  -21.5034  -19.6889   24.0003 N   0  0  0  0  0  0  0  0  0  0  0  0
  -21.9120  -31.2584   22.8850 N   0  3  0  0  0  0  0  0  0  0  0  0
  -28.4107  -22.9249   20.0360 O   0  0  0  0  0  0  0  0  0  0  0  0
  -28.3662  -26.4984   20.1414 O   0  0  0  0  0  0  0  0  0  0  0  0
  -27.5344  -30.4143   21.1740 O   0  0  0  0  0  0  0  0  0  0  0  0
  -23.5375  -29.0009   23.3067 O   0  0  0  0  0  0  0  0  0  0  0  0
  -21.2133  -20.2453   26.2055 O   0  0  0  0  0  0  0  0  0  0  0  0
  -30.5864  -15.4528   19.8940 O   0  0  0  0  0  0  0  0  0  0  0  0
  -23.1220  -23.3728   19.4983 O   0  0  0  0  0  0  0  0  0  1  0  0
  -27.9066  -10.7029   19.0804 F   0  0  0  0  0  0  0  0  0  0  0  0
  -30.4767  -14.2980   17.3846 F   0  0  0  0  0  0  0  0  0  0  0  0
  1  2  1  0  0  0  0
  1  5  2  0  0  0  0
  2  6  2  0  0  0  0
  3  8  2  0  0  0  0
  3 17  1  0  0  0  0
  4  9  1  0  0  0  0
  4 17  2  0  0  0  0
  5 19  1  0  0  0  0
  6 21  1  0  0  0  0
  7 10  2  0  0  0  0
  7 20  1  0  0  0  0
  8 24  1  0  0  0  0
  9 24  2  0  0  0  0
 10 25  1  0  0  0  0
 11 12  2  0  0  0  0
 11 26  1  0  0  0  0
 12 27  1  0  0  0  0
 13 22  1  0  0  0  0
 13 25  2  0  0  0  0
 14 23  1  0  0  0  0
 14 30  2  0  0  0  0
 15 27  2  0  0  0  0
 15 28  1  0  0  0  0
 16 23  2  0  0  0  0
 16 64  1  0  0  0  0
 17 29  1  0  0  0  0
 18 29  1  0  0  0  0
 18 31  2  0  0  0  0
 18 32  1  0  0  0  0
 19 21  2  0  0  0  0
 19 37  1  0  0  0  0
 20 22  2  0  0  0  0
 20 38  1  0  0  0  0
 21 46  1  0  0  0  0
 22 39  1  0  0  0  0
 23 49  1  0  0  0  0
 24 79  1  0  0  0  0
 25 80  1  0  0  0  0
 26 28  2  0  0  0  0
 26 79  1  0  0  0  0
 27 81  1  0  0  0  0
 28 82  1  0  0  0  0
 29 63  2  0  0  0  0
 30 55  1  0  0  0  0
 30 64  1  0  0  0  0
 31 65  1  0  0  0  0
 31 68  1  0  0  0  0
 32 69  1  0  0  0  0
 32 74  2  0  0  0  0
 33 47  1  0  0  0  0
 33 70  1  0  0  0  0
 33 75  2  0  0  0  0
 34 60  1  0  0  0  0
 34 66  1  0  0  0  0
 34 76  2  0  0  0  0
 35 61  1  0  0  0  0
 35 71  1  0  0  0  0
 35 77  2  0  0  0  0
 36 67  1  0  0  0  0
 36 72  1  0  0  0  0
 36 78  2  0  0  0  0
 37 40  1  0  0  0  0
 38 47  1  0  0  0  0
 39 66  1  0  0  0  0
 40 42  1  0  0  0  0
 41 43  1  0  0  0  0
 41 44  1  0  0  0  0
 42 46  1  0  0  0  0
 43 48  1  0  0  0  0
 44 67  1  0  0  0  0
 45 48  1  0  0  0  0
 45 67  1  0  0  0  0
 46 70  1  0  0  0  0
 47 66  1  0  0  0  0
 48 65  1  0  0  0  0
 50 61  1  0  0  0  0
 51 62  1  0  0  0  0
 52 62  1  0  0  0  0
 53 62  1  0  0  0  0
 54 73  1  0  0  0  0
 55 72  1  0  0  0  0
 56 57  1  0  0  0  0
 56 58  1  0  0  0  0
 57 59  1  0  0  0  0
 58 64  1  0  0  0  0
 59 80  1  0  0  0  0
 60 62  1  0  0  0  0
 60 71  1  0  0  0  0
 61 73  1  0  0  0  0
 63 65  1  0  0  0  0
M  CHG  1  73   1
M  ISO  4  36 100  59 101  72 100  80 101
M  END
> <Batch ID>
0088

> <Smiles>
CNC(C)C(=O)NC(C(=O)N1Cc2cc([101O:1][101CH2:1]CCCn3cc(C)cc3C[100NH:0][100C:0](=O)N3CCCC(n4nc(-c5ccc(Oc6ccc(F)cc6F)cc5)c(C(N)=O)c4N)C3)ccc2CC1C(=O)NC1CCCc2ccccc21)C(C)(C)C

> <Shape>
0.189

> <Color>
0.069

> <Negative vol penalty>
0.000

$$$$

  -OEChem-04052319043D

 86 94  0     1  0  0  0  0  0999 V2000
  -28.5365  -18.5736   18.7705 C   0  0  0  0  0  0  0  0  0  0  0  0
  -27.3351  -19.2743   18.7370 C   0  0  0  0  0  0  0  0  0  0  0  0
  -24.5728  -16.9320   23.2279 C   0  0  0  0  0  0  0  0  0  0  0  0
  -24.2969  -18.3101   21.2627 C   0  0  0  0  0  0  0  0  0  0  0  0
  -29.6128  -19.0723   19.5032 C   0  0  0  0  0  0  0  0  0  0  0  0
  -27.2089  -20.4735   19.4371 C   0  0  0  0  0  0  0  0  0  0  0  0
  -23.9417  -25.3800   17.7763 C   0  0  0  0  0  0  0  0  0  0  0  0
  -25.1326  -15.9242   22.4427 C   0  0  0  0  0  0  0  0  0  0  0  0
  -24.8567  -17.3023   20.4774 C   0  0  0  0  0  0  0  0  0  0  0  0
  -22.6746  -25.8312   18.1433 C   0  0  0  0  0  0  0  0  0  0  0  0
  -24.0443  -13.5040   20.3492 C   0  0  0  0  0  0  0  0  0  0  0  0
  -23.6092  -12.1967   20.5668 C   0  0  0  0  0  0  0  0  0  0  0  0
  -23.6749  -27.2813   19.7913 C   0  0  0  0  0  0  0  0  0  0  0  0
  -19.2219  -28.1250   24.0029 C   0  0  0  0  0  0  0  0  0  0  0  0
  -19.2335  -28.6853   21.6528 C   0  0  0  0  0  0  0  0  0  0  0  0
  -25.8669  -11.5372   21.1193 C   0  0  0  0  0  0  0  0  0  0  0  0
  -24.1549  -18.1249   22.6379 C   0  0  0  0  0  0  0  0  0  0  0  0
  -24.2540  -20.2190   24.0914 C   0  0  0  0  0  0  0  0  0  0  0  0
  -29.5028  -20.2832   20.2048 C   0  0  0  0  0  0  0  0  0  0  0  0
  -25.0861  -25.8688   18.4227 C   0  0  0  0  0  0  0  0  0  0  0  0
  -28.2843  -20.9882   20.1810 C   0  0  0  0  0  0  0  0  0  0  0  0
  -24.9555  -26.8365   19.4290 C   0  0  0  0  0  0  0  0  0  0  0  0
  -19.3280  -29.0764   22.9884 C   0  0  0  0  0  0  0  0  0  0  0  0
  -19.0214  -26.7825   23.6818 C   0  0  0  0  0  0  0  0  0  0  0  0
  -19.0329  -27.3427   21.3317 C   0  0  0  0  0  0  0  0  0  0  0  0
  -18.9269  -26.3914   22.3463 C   0  0  0  0  0  0  0  0  0  0  0  0
  -25.2746  -16.1094   21.0674 C   0  0  0  0  0  0  0  0  0  0  0  0
  -22.5409  -26.7799   19.1529 C   0  0  0  0  0  0  0  0  0  0  0  0
  -25.3908  -13.8279   20.5166 C   0  0  0  0  0  0  0  0  0  0  0  0
  -24.5205  -11.2134   20.9519 C   0  0  0  0  0  0  0  0  0  0  0  0
  -26.3020  -12.8445   20.9016 C   0  0  0  0  0  0  0  0  0  0  0  0
  -23.5760  -19.1661   23.4484 C   0  0  0  0  0  0  0  0  0  0  0  0
  -23.2638  -20.9279   24.7265 C   0  0  0  0  0  0  0  0  0  0  0  0
  -25.6538  -20.5286   24.1125 C   0  0  0  0  0  0  0  0  0  0  0  0
  -27.3914  -24.5737   20.1868 C   0  0  0  0  0  0  0  0  0  0  0  0
  -28.6692  -27.5495   20.0020 C   0  0  0  0  0  0  0  0  0  0  0  0
  -28.1704  -30.8926   19.5312 C   0  0  0  0  0  0  0  0  0  0  0  0
  -17.3958  -21.5439   23.7077 C   0  0  0  0  0  0  0  0  0  0  0  0
  -30.6784  -20.7584   21.0214 C   0  0  0  0  0  0  0  0  0  0  0  0
  -26.4475  -25.3916   17.9968 C   0  0  0  0  0  0  0  0  0  0  0  0
  -26.1540  -27.4080   20.1400 C   0  0  0  0  0  0  0  0  0  0  0  0
  -30.5825  -22.2259   21.4306 C   0  0  0  0  0  0  0  0  0  0  0  0
  -18.9388  -20.3765   26.6965 C   0  0  0  0  0  0  0  0  0  0  0  0
  -29.1922  -22.5385   21.9749 C   0  0  0  0  0  0  0  0  0  0  0  0
  -20.3634  -20.0289   26.2610 C   0  0  0  0  0  0  0  0  0  0  0  0
  -17.9194  -20.0447   25.6089 C   0  0  0  0  0  0  0  0  0  0  0  0
  -19.6319  -20.2889   23.8535 C   0  0  0  0  0  0  0  0  0  0  0  0
  -28.1164  -22.3052   20.9073 C   0  0  1  0  0  0  0  0  0  0  0  0
  -27.5103  -25.5778   19.0754 C   0  0  1  0  0  0  0  0  0  0  0  0
  -20.7015  -20.6575   24.8957 C   0  0  2  0  0  0  0  0  0  0  0  0
  -18.9100  -25.7836   24.7871 C   0  0  0  0  0  0  0  0  0  0  0  0
  -18.3839  -31.4100   22.8603 C   0  0  0  0  0  0  0  0  0  0  0  0
  -20.8784  -31.0538   22.7874 C   0  0  0  0  0  0  0  0  0  0  0  0
  -29.4006  -33.0791   19.4749 C   0  0  0  0  0  0  0  0  0  0  0  0
  -28.8364  -27.5311   23.0486 C   0  0  0  0  0  0  0  0  0  0  0  0
  -29.1549  -30.0133   22.9767 C   0  0  0  0  0  0  0  0  0  0  0  0
  -30.8304  -28.5109   21.9004 C   0  0  0  0  0  0  0  0  0  0  0  0
  -27.4056  -31.3831   16.7146 C   0  0  0  0  0  0  0  0  0  0  0  0
  -18.9341  -26.9457   19.8789 C   0  0  0  0  0  0  0  0  0  0  0  0
  -18.7114  -24.9519   22.0024 C   0  0  0  0  0  0  0  0  0  0  0  0
  -17.2544  -24.4761   22.1501 C   0  0  0  0  0  0  0  0  0  0  0  0
  -17.0232  -23.0209   21.7484 C   0  0  0  0  0  0  0  0  0  0  0  0
  -20.2195  -26.3078   19.3634 C   0  0  0  0  0  0  0  0  0  1  0  0
  -19.5431  -30.5117   23.3316 C   0  0  0  0  0  0  0  0  0  0  0  0
  -28.5628  -28.8116   20.8235 C   0  0  1  0  0  0  0  0  0  0  0  0
  -28.8878  -31.9047   18.6562 C   0  0  2  0  0  0  0  0  0  0  0  0
  -29.3232  -28.7047   22.1754 C   0  0  0  0  0  0  0  0  0  0  0  0
  -22.2570  -19.1992   23.6562 N   0  0  0  0  0  0  0  0  0  0  0  0
  -22.0983  -20.2815   24.4369 N   0  0  0  0  0  0  0  0  0  0  0  0
  -27.4632  -26.9050   19.6921 N   0  0  0  0  0  0  0  0  0  0  0  0
  -18.2974  -20.6722   24.3403 N   0  0  0  0  0  0  0  0  0  0  0  0
  -23.2851  -22.0349   25.4988 N   0  0  0  0  0  0  0  0  0  0  0  0
  -26.5329  -19.6963   23.4064 N   0  0  0  0  0  0  0  0  0  0  0  0
  -28.0925  -23.4037   19.9654 N   0  0  0  0  0  0  0  0  0  0  0  0
  -29.0214  -29.8978   19.9642 N   0  0  0  0  0  0  0  0  0  0  0  0
  -17.8353  -22.1006   22.5128 N   0  0  0  0  0  0  0  0  0  0  0  0
  -27.9666  -32.4287   17.6085 N   0  3  0  0  0  0  0  0  0  0  0  0
  -26.1133  -21.5047   24.7525 O   0  0  0  0  0  0  0  0  0  0  0  0
  -26.7150  -24.8413   21.1730 O   0  0  0  0  0  0  0  0  0  0  0  0
  -29.7809  -27.1540   19.6424 O   0  0  0  0  0  0  0  0  0  0  0  0
  -26.9757  -30.9782   19.8063 O   0  0  0  0  0  0  0  0  0  0  0  0
  -16.2838  -21.8108   24.1759 O   0  0  0  0  0  0  0  0  0  0  0  0
  -25.8211  -15.1263   20.3009 O   0  0  0  0  0  0  0  0  0  0  0  0
  -21.3053  -27.2215   19.5134 O   0  0  0  0  0  0  0  0  0  1  0  0
  -24.1022   -9.9584   21.1623 F   0  0  0  0  0  0  0  0  0  0  0  0
  -27.5965  -13.1499   21.0652 F   0  0  0  0  0  0  0  0  0  0  0  0
  1  2  1  0  0  0  0
  1  5  2  0  0  0  0
  2  6  2  0  0  0  0
  3  8  2  0  0  0  0
  3 17  1  0  0  0  0
  4  9  1  0  0  0  0
  4 17  2  0  0  0  0
  5 19  1  0  0  0  0
  6 21  1  0  0  0  0
  7 10  2  0  0  0  0
  7 20  1  0  0  0  0
  8 27  1  0  0  0  0
  9 27  2  0  0  0  0
 10 28  1  0  0  0  0
 11 12  2  0  0  0  0
 11 29  1  0  0  0  0
 12 30  1  0  0  0  0
 13 22  1  0  0  0  0
 13 28  2  0  0  0  0
 14 23  1  0  0  0  0
 14 24  2  0  0  0  0
 15 23  2  0  0  0  0
 15 25  1  0  0  0  0
 16 30  2  0  0  0  0
 16 31  1  0  0  0  0
 17 32  1  0  0  0  0
 18 32  1  0  0  0  0
 18 33  2  0  0  0  0
 18 34  1  0  0  0  0
 19 21  2  0  0  0  0
 19 39  1  0  0  0  0
 20 22  2  0  0  0  0
 20 40  1  0  0  0  0
 21 48  1  0  0  0  0
 22 41  1  0  0  0  0
 23 64  1  0  0  0  0
 24 26  1  0  0  0  0
 24 51  1  0  0  0  0
 25 26  2  0  0  0  0
 25 59  1  0  0  0  0
 26 60  1  0  0  0  0
 27 83  1  0  0  0  0
 28 84  1  0  0  0  0
 29 31  2  0  0  0  0
 29 83  1  0  0  0  0
 30 85  1  0  0  0  0
 31 86  1  0  0  0  0
 32 68  2  0  0  0  0
 33 69  1  0  0  0  0
 33 72  1  0  0  0  0
 34 73  1  0  0  0  0
 34 78  2  0  0  0  0
 35 49  1  0  0  0  0
 35 74  1  0  0  0  0
 35 79  2  0  0  0  0
 36 65  1  0  0  0  0
 36 70  1  0  0  0  0
 36 80  2  0  0  0  0
 37 66  1  0  0  0  0
 37 75  1  0  0  0  0
 37 81  2  0  0  0  0
 38 71  1  0  0  0  0
 38 76  1  0  0  0  0
 38 82  2  0  0  0  0
 39 42  1  0  0  0  0
 40 49  1  0  0  0  0
 41 70  1  0  0  0  0
 42 44  1  0  0  0  0
 43 45  1  0  0  0  0
 43 46  1  0  0  0  0
 44 48  1  0  0  0  0
 45 50  1  0  0  0  0
 46 71  1  0  0  0  0
 47 50  1  0  0  0  0
 47 71  1  0  0  0  0
 48 74  1  0  0  0  0
 49 70  1  0  0  0  0
 50 69  1  0  0  0  0
 52 64  1  0  0  0  0
 53 64  1  0  0  0  0
 54 66  1  0  0  0  0
 55 67  1  0  0  0  0
 56 67  1  0  0  0  0
 57 67  1  0  0  0  0
 58 77  1  0  0  0  0
 59 63  1  0  0  0  0
 60 61  1  0  0  0  0
 61 62  1  0  0  0  0
 62 76  1  0  0  0  0
 63 84  1  0  0  0  0
 65 67  1  0  0  0  0
 65 75  1  0  0  0  0
 66 77  1  0  0  0  0
 68 69  1  0  0  0  0
M  CHG  1  77   1
M  ISO  4  38 100  63 101  76 100  84 101
M  END
> <Batch ID>
0088

> <Smiles>
CNC(C)C(=O)NC(C(=O)N1Cc2cc([101O:1][101CH2:1]Cc3cc(C(C)C)cc(C)c3CCC[100NH:0][100C:0](=O)N3CCCC(n4nc(-c5ccc(Oc6ccc(F)cc6F)cc5)c(C(N)=O)c4N)C3)ccc2CC1C(=O)NC1CCCc2ccccc21)C(C)(C)C

> <Shape>
0.200

> <Color>
0.054

> <Negative vol penalty>
0.000

$$$$

  -OEChem-04052319043D

 90 98  0     1  0  0  0  0  0999 V2000
  -16.6590  -29.4503   23.9315 C   0  0  0  0  0  0  0  0  0  0  0  0
  -17.0286  -28.4068   23.0890 C   0  0  0  0  0  0  0  0  0  0  0  0
  -24.2347   -9.6452   21.4534 C   0  0  0  0  0  0  0  0  0  0  0  0
  -22.0350  -10.6430   21.3993 C   0  0  0  0  0  0  0  0  0  0  0  0
  -17.5344  -30.5138   24.1476 C   0  0  0  0  0  0  0  0  0  0  0  0
  -18.2736  -28.4267   22.4611 C   0  0  0  0  0  0  0  0  0  0  0  0
  -21.8307  -23.6074   21.1855 C   0  0  0  0  0  0  0  0  0  0  0  0
  -23.6588   -8.3748   21.4392 C   0  0  0  0  0  0  0  0  0  0  0  0
  -21.4591   -9.3727   21.3851 C   0  0  0  0  0  0  0  0  0  0  0  0
  -22.0243  -22.8668   20.0203 C   0  0  0  0  0  0  0  0  0  0  0  0
  -22.1689   -6.2912   23.6444 C   0  0  0  0  0  0  0  0  0  0  0  0
  -22.6748   -5.3411   24.5315 C   0  0  0  0  0  0  0  0  0  0  0  0
  -23.9624  -24.2051   19.4989 C   0  0  0  0  0  0  0  0  0  0  0  0
  -26.4734  -18.7844   18.7127 C   0  0  0  0  0  0  0  0  0  0  0  0
  -25.0398  -20.1625   20.0846 C   0  0  0  0  0  0  0  0  0  0  0  0
  -23.2649   -3.9178   22.6705 C   0  0  0  0  0  0  0  0  0  0  0  0
  -23.4228  -10.7793   21.4335 C   0  0  0  0  0  0  0  0  0  0  0  0
  -24.3957  -12.8665   20.3360 C   0  0  0  0  0  0  0  0  0  0  0  0
  -18.7946  -30.5419   23.5296 C   0  0  0  0  0  0  0  0  0  0  0  0
  -22.6965  -24.6613   21.5112 C   0  0  0  0  0  0  0  0  0  0  0  0
  -19.1661  -29.4921   22.6681 C   0  0  0  0  0  0  0  0  0  0  0  0
  -23.7791  -24.9559   20.6701 C   0  0  0  0  0  0  0  0  0  0  0  0
  -25.3275  -19.5666   18.8568 C   0  0  0  0  0  0  0  0  0  0  0  0
  -27.3315  -18.5980   19.7965 C   0  0  0  0  0  0  0  0  0  0  0  0
  -25.8979  -19.9762   21.1685 C   0  0  0  0  0  0  0  0  0  0  0  0
  -27.0438  -19.1939   21.0244 C   0  0  0  0  0  0  0  0  0  0  0  0
  -22.2710   -8.2386   21.4050 C   0  0  0  0  0  0  0  0  0  0  0  0
  -23.0886  -23.1674   19.1753 C   0  0  0  0  0  0  0  0  0  0  0  0
  -22.2108   -6.0546   22.2704 C   0  0  0  0  0  0  0  0  0  0  0  0
  -23.2229   -4.1544   24.0445 C   0  0  0  0  0  0  0  0  0  0  0  0
  -22.7588   -4.8679   21.7834 C   0  0  0  0  0  0  0  0  0  0  0  0
  -24.0171  -12.0918   21.4487 C   0  0  0  0  0  0  0  0  0  0  0  0
  -24.9051  -14.0209   20.8786 C   0  0  0  0  0  0  0  0  0  0  0  0
  -24.2957  -12.5693   18.9369 C   0  0  0  0  0  0  0  0  0  0  0  0
  -22.3615  -27.7962   21.9158 C   0  0  0  0  0  0  0  0  0  0  0  0
  -25.4649  -27.6146   22.8422 C   0  0  0  0  0  0  0  0  0  0  0  0
  -28.4333  -25.9355   22.7139 C   0  0  0  0  0  0  0  0  0  0  0  0
  -24.6201  -18.2081   24.5570 C   0  0  0  0  0  0  0  0  0  0  0  0
  -19.6878  -31.7358   23.7565 C   0  0  0  0  0  0  0  0  0  0  0  0
  -22.4897  -25.4333   22.7854 C   0  0  0  0  0  0  0  0  0  0  0  0
  -24.7491  -26.0643   20.9849 C   0  0  0  0  0  0  0  0  0  0  0  0
  -21.1391  -31.4971   23.3479 C   0  0  0  0  0  0  0  0  0  0  0  0
  -26.1008  -15.1635   25.6588 C   0  0  0  0  0  0  0  0  0  0  0  0
  -21.2053  -30.8362   21.9747 C   0  0  0  0  0  0  0  0  0  0  0  0
  -25.7167  -14.1562   24.5736 C   0  0  0  0  0  0  0  0  0  0  0  0
  -24.9812  -16.1693   25.9170 C   0  0  0  0  0  0  0  0  0  0  0  0
  -24.1094  -15.8673   23.6317 C   0  0  0  0  0  0  0  0  0  0  0  0
  -20.5179  -29.4655   21.9884 C   0  0  1  0  0  0  0  0  0  0  0  0
  -23.1312  -26.8171   22.7564 C   0  0  1  0  0  0  0  0  0  0  0  0
  -25.2285  -14.8665   23.2967 C   0  0  2  0  0  0  0  0  0  0  0  0
  -27.9642  -18.9943   22.1861 C   0  0  0  0  0  0  0  0  0  0  0  0
  -25.5682  -22.1636   22.3645 C   0  0  0  0  0  0  0  0  0  0  0  0
  -30.8154  -25.3720   23.2663 C   0  0  0  0  0  0  0  0  0  0  0  0
  -31.4225  -16.9383   20.4205 C   0  0  0  0  0  0  0  0  0  0  0  0
  -32.3285  -18.8067   19.0314 C   0  0  0  0  0  0  0  0  0  0  0  0
  -31.0295  -16.9525   17.9535 C   0  0  0  0  0  0  0  0  0  0  0  0
  -26.0743  -29.7894   20.7907 C   0  0  0  0  0  0  0  0  0  0  0  0
  -28.4983  -29.1922   20.9808 C   0  0  0  0  0  0  0  0  0  0  0  0
  -27.2670  -30.0505   22.9733 C   0  0  0  0  0  0  0  0  0  0  0  0
  -27.6220  -24.2113   24.9784 C   0  0  0  0  0  0  0  0  0  0  0  0
  -24.3996  -19.7675   17.6854 C   0  0  0  0  0  0  0  0  0  0  0  0
  -28.5525  -17.7566   19.6155 C   0  0  0  0  0  0  0  0  0  0  0  0
  -24.7471  -20.9850   16.8261 C   0  0  0  0  0  0  0  0  0  0  0  0
  -29.8236  -18.6136   19.4655 C   0  0  0  0  0  0  0  0  0  0  0  0
  -24.2200  -20.1535   23.0689 C   0  0  0  0  0  0  0  0  0  0  0  0
  -24.6221  -22.3073   17.5738 C   0  0  0  0  0  0  0  0  0  1  0  0
  -25.5673  -20.6254   22.4727 C   0  0  1  0  0  0  0  0  0  0  0  0
  -26.7977  -27.7102   22.1397 C   0  0  1  0  0  0  0  0  0  0  0  0
  -29.4007  -25.5150   23.8055 C   0  0  2  0  0  0  0  0  0  0  0  0
  -31.1441  -17.8414   19.2026 C   0  0  0  0  0  0  0  0  0  0  0  0
  -27.1401  -29.1659   21.7139 C   0  0  0  0  0  0  0  0  0  0  0  0
  -24.2650  -12.7024   22.6105 N   0  0  0  0  0  0  0  0  0  0  0  0
  -24.8049  -13.8730   22.2307 N   0  0  0  0  0  0  0  0  0  0  0  0
  -24.5009  -26.7944   22.2390 N   0  0  0  0  0  0  0  0  0  0  0  0
  -24.5652  -16.8088   24.6664 N   0  0  0  0  0  0  0  0  0  0  0  0
  -25.4245  -15.1378   20.3262 N   0  0  0  0  0  0  0  0  0  0  0  0
  -23.7474  -11.3379   18.5530 N   0  0  0  0  0  0  0  0  0  0  0  0
  -21.3755  -28.4762   22.6049 N   0  0  0  0  0  0  0  0  0  0  0  0
  -27.7761  -27.1041   23.0362 N   0  0  0  0  0  0  0  0  0  0  0  0
  -24.2140  -18.7324   23.3360 N   0  0  0  0  0  0  0  0  0  0  0  0
  -28.9861  -24.2083   24.3899 N   0  3  0  0  0  0  0  0  0  0  0  0
  -24.6964  -13.3650   18.0538 O   0  0  0  0  0  0  0  0  0  0  0  0
  -22.6424  -27.9262   20.7301 O   0  0  0  0  0  0  0  0  0  0  0  0
  -25.2882  -28.2388   23.8914 O   0  0  0  0  0  0  0  0  0  0  0  0
  -28.2789  -25.2937   21.6772 O   0  0  0  0  0  0  0  0  0  0  0  0
  -25.0075  -18.9359   25.4774 O   0  0  0  0  0  0  0  0  0  0  0  0
  -21.7087   -6.9991   21.3909 O   0  0  0  0  0  0  0  0  0  0  0  0
  -23.2795  -22.4466   18.0370 O   0  0  0  0  0  0  0  0  0  1  0  0
  -23.7101   -3.2428   24.8964 F   0  0  0  0  0  0  0  0  0  0  0  0
  -22.8030   -4.6355   20.4644 F   0  0  0  0  0  0  0  0  0  0  0  0
  1  2  1  0  0  0  0
  1  5  2  0  0  0  0
  2  6  2  0  0  0  0
  3  8  2  0  0  0  0
  3 17  1  0  0  0  0
  4  9  1  0  0  0  0
  4 17  2  0  0  0  0
  5 19  1  0  0  0  0
  6 21  1  0  0  0  0
  7 10  2  0  0  0  0
  7 20  1  0  0  0  0
  8 27  1  0  0  0  0
  9 27  2  0  0  0  0
 10 28  1  0  0  0  0
 11 12  2  0  0  0  0
 11 29  1  0  0  0  0
 12 30  1  0  0  0  0
 13 22  1  0  0  0  0
 13 28  2  0  0  0  0
 14 23  1  0  0  0  0
 14 24  2  0  0  0  0
 15 23  2  0  0  0  0
 15 25  1  0  0  0  0
 16 30  2  0  0  0  0
 16 31  1  0  0  0  0
 17 32  1  0  0  0  0
 18 32  1  0  0  0  0
 18 33  2  0  0  0  0
 18 34  1  0  0  0  0
 19 21  2  0  0  0  0
 19 39  1  0  0  0  0
 20 22  2  0  0  0  0
 20 40  1  0  0  0  0
 21 48  1  0  0  0  0
 22 41  1  0  0  0  0
 23 61  1  0  0  0  0
 24 26  1  0  0  0  0
 24 62  1  0  0  0  0
 25 26  2  0  0  0  0
 25 67  1  0  0  0  0
 26 51  1  0  0  0  0
 27 87  1  0  0  0  0
 28 88  1  0  0  0  0
 29 31  2  0  0  0  0
 29 87  1  0  0  0  0
 30 89  1  0  0  0  0
 31 90  1  0  0  0  0
 32 72  2  0  0  0  0
 33 73  1  0  0  0  0
 33 76  1  0  0  0  0
 34 77  1  0  0  0  0
 34 82  2  0  0  0  0
 35 49  1  0  0  0  0
 35 78  1  0  0  0  0
 35 83  2  0  0  0  0
 36 68  1  0  0  0  0
 36 74  1  0  0  0  0
 36 84  2  0  0  0  0
 37 69  1  0  0  0  0
 37 79  1  0  0  0  0
 37 85  2  0  0  0  0
 38 75  1  0  0  0  0
 38 80  1  0  0  0  0
 38 86  2  0  0  0  0
 39 42  1  0  0  0  0
 40 49  1  0  0  0  0
 41 74  1  0  0  0  0
 42 44  1  0  0  0  0
 43 45  1  0  0  0  0
 43 46  1  0  0  0  0
 44 48  1  0  0  0  0
 45 50  1  0  0  0  0
 46 75  1  0  0  0  0
 47 50  1  0  0  0  0
 47 75  1  0  0  0  0
 48 78  1  0  0  0  0
 49 74  1  0  0  0  0
 50 73  1  0  0  0  0
 52 67  1  0  0  0  0
 53 69  1  0  0  0  0
 54 70  1  0  0  0  0
 55 70  1  0  0  0  0
 56 70  1  0  0  0  0
 57 71  1  0  0  0  0
 58 71  1  0  0  0  0
 59 71  1  0  0  0  0
 60 81  1  0  0  0  0
 61 63  1  0  0  0  0
 62 64  1  0  0  0  0
 63 66  1  0  0  0  0
 64 70  1  0  0  0  0
 65 67  1  0  0  0  0
 65 80  1  0  0  0  0
 66 88  1  0  0  0  0
 68 71  1  0  0  0  0
 68 79  1  0  0  0  0
 69 81  1  0  0  0  0
 72 73  1  0  0  0  0
M  CHG  1  81   1
M  ISO  4  38 100  66 101  80 100  88 101
M  END
> <Batch ID>
0088

> <Smiles>
CNC(C)C(=O)NC(C(=O)N1Cc2cc([101O:1][101CH2:1]CCc3cc(CCC(C)(C)C)c(C)c(C(C)C[100NH:0][100C:0](=O)N4CCCC(n5nc(-c6ccc(Oc7ccc(F)cc7F)cc6)c(C(N)=O)c5N)C4)c3)ccc2CC1C(=O)NC1CCCc2ccccc21)C(C)(C)C

> <Shape>
0.196

> <Color>
0.112

> <Negative vol penalty>
0.000

$$$$

  -OEChem-04052319043D

 84 92  0     1  0  0  0  0  0999 V2000
  -18.5918  -30.7899   18.0122 C   0  0  0  0  0  0  0  0  0  0  0  0
  -19.6953  -30.4133   17.2532 C   0  0  0  0  0  0  0  0  0  0  0  0
  -27.9367  -12.6729   18.6296 C   0  0  0  0  0  0  0  0  0  0  0  0
  -28.6480  -12.7215   20.9379 C   0  0  0  0  0  0  0  0  0  0  0  0
  -18.7755  -31.4205   19.2420 C   0  0  0  0  0  0  0  0  0  0  0  0
  -20.9831  -30.6681   17.7232 C   0  0  0  0  0  0  0  0  0  0  0  0
  -25.7229  -25.3605   18.6029 C   0  0  0  0  0  0  0  0  0  0  0  0
  -29.2688  -12.7146   18.2181 C   0  0  0  0  0  0  0  0  0  0  0  0
  -29.9802  -12.7631   20.5265 C   0  0  0  0  0  0  0  0  0  0  0  0
  -26.7708  -24.4409   18.5525 C   0  0  0  0  0  0  0  0  0  0  0  0
  -32.3034  -10.5880   19.3899 C   0  0  0  0  0  0  0  0  0  0  0  0
  -33.2082   -9.7508   20.0426 C   0  0  0  0  0  0  0  0  0  0  0  0
  -28.2903  -26.1092   19.4212 C   0  0  0  0  0  0  0  0  0  0  0  0
  -27.8503  -19.4564   21.5011 C   0  0  0  0  0  0  0  0  0  0  0  0
  -34.4862  -11.6778   20.7427 C   0  0  0  0  0  0  0  0  0  0  0  0
  -25.2888  -19.7839   20.6195 C   0  0  0  0  0  0  0  0  0  0  0  0
  -27.6263  -12.6764   19.9895 C   0  0  0  0  0  0  0  0  0  0  0  0
  -25.8392  -18.5129   20.5789 C   0  0  0  0  0  0  0  0  0  0  0  0
  -25.4767  -11.4876   20.6778 C   0  0  0  0  0  0  0  0  0  0  0  0
  -20.0663  -31.6744   19.7318 C   0  0  0  0  0  0  0  0  0  0  0  0
  -25.9514  -26.6554   19.0777 C   0  0  0  0  0  0  0  0  0  0  0  0
  -21.1842  -31.3039   18.9602 C   0  0  0  0  0  0  0  0  0  0  0  0
  -27.2417  -27.0306   19.4862 C   0  0  0  0  0  0  0  0  0  0  0  0
  -27.1450  -18.3546   21.0299 C   0  0  0  0  0  0  0  0  0  0  0  0
  -30.2906  -12.7596   19.1666 C   0  0  0  0  0  0  0  0  0  0  0  0
  -28.0514  -24.8144   18.9603 C   0  0  0  0  0  0  0  0  0  0  0  0
  -32.4901  -11.9701   19.4134 C   0  0  0  0  0  0  0  0  0  0  0  0
  -34.2996  -10.2957   20.7191 C   0  0  0  0  0  0  0  0  0  0  0  0
  -33.5815  -12.5150   20.0899 C   0  0  0  0  0  0  0  0  0  0  0  0
  -26.2504  -12.6340   20.4151 C   0  0  0  0  0  0  0  0  0  0  0  0
  -27.2101  -20.6851   21.5004 C   0  0  0  0  0  0  0  0  0  0  0  0
  -24.2485  -11.9793   21.0468 C   0  0  0  0  0  0  0  0  0  0  0  0
  -25.0461  -17.3861   20.0718 C   0  0  0  0  0  0  0  0  0  0  0  0
  -25.8362  -10.1020   20.5957 C   0  0  0  0  0  0  0  0  0  0  0  0
  -24.5647  -30.0527   19.7727 C   0  0  0  0  0  0  0  0  0  0  0  0
  -26.6019  -29.3168   22.1094 C   0  0  0  0  0  0  0  0  0  0  0  0
  -25.0089  -31.8877   24.0769 C   0  0  0  0  0  0  0  0  0  0  0  0
  -20.2145  -32.4011   21.0450 C   0  0  0  0  0  0  0  0  0  0  0  0
  -24.8637  -27.6957   19.0873 C   0  0  0  0  0  0  0  0  0  0  0  0
  -27.4491  -28.4423   19.9582 C   0  0  0  0  0  0  0  0  0  0  0  0
  -21.6149  -32.2977   21.6438 C   0  0  0  0  0  0  0  0  0  0  0  0
  -24.2513  -15.6793   23.2508 C   0  0  0  0  0  0  0  0  0  0  0  0
  -22.6723  -32.5727   20.5793 C   0  0  0  0  0  0  0  0  0  0  0  0
  -23.2033  -14.6636   22.8049 C   0  0  0  0  0  0  0  0  0  0  0  0
  -24.1718  -16.9512   22.4171 C   0  0  0  0  0  0  0  0  0  0  0  0
  -23.3264  -15.6619   20.4676 C   0  0  0  0  0  0  0  0  0  0  0  0
  -22.5972  -31.5408   19.4475 C   0  0  1  0  0  0  0  0  0  0  0  0
  -24.9753  -28.6934   20.2575 C   0  0  1  0  0  0  0  0  0  0  0  0
  -23.2751  -14.3634   21.2974 C   0  0  1  0  0  0  0  0  0  0  0  0
  -28.7983  -16.8729   19.8648 C   0  0  0  0  0  0  0  0  0  0  0  0
  -27.2611  -22.4514   23.2695 C   0  0  0  0  0  0  0  0  0  0  0  0
  -25.4575  -32.6609   26.4217 C   0  0  0  0  0  0  0  0  0  0  0  0
  -24.4091  -27.3372   22.8728 C   0  0  0  0  0  0  0  0  0  0  0  0
  -23.6112  -28.9860   24.5795 C   0  0  0  0  0  0  0  0  0  0  0  0
  -25.9030  -28.0178   24.7595 C   0  0  0  0  0  0  0  0  0  0  0  0
  -30.3241  -22.2683   20.1050 C   0  0  0  0  0  0  0  0  0  0  0  0
  -28.2650  -21.6495   18.8183 C   0  0  0  0  0  0  0  0  0  0  0  0
  -25.3804  -34.6915   23.2051 C   0  0  0  0  0  0  0  0  0  0  0  0
  -27.8096  -17.0175   21.0179 C   0  0  0  0  0  0  0  0  0  0  0  0
  -28.0926  -23.0438   20.9592 C   0  0  0  0  0  0  0  0  0  0  0  0
  -27.9498  -21.9105   22.0071 C   0  0  2  0  0  0  0  0  0  0  0  0
  -25.4129  -29.7146   22.9505 C   0  0  1  0  0  0  0  0  0  0  0  0
  -25.6976  -32.9264   24.9437 C   0  0  2  0  0  0  0  0  0  0  0  0
  -24.8360  -28.5212   23.7631 C   0  0  0  0  0  0  0  0  0  0  0  0
  -28.9192  -22.7236   19.6902 C   0  0  0  0  0  0  0  0  0  1  0  0
  -25.9430  -20.8780   21.0703 N   0  0  0  0  0  0  0  0  0  0  0  0
  -25.5705  -13.7685   20.6012 N   0  0  0  0  0  0  0  0  0  0  0  0
  -24.3568  -13.3375   20.9848 N   0  0  0  0  0  0  0  0  0  0  0  0
  -24.2689  -16.6592   20.9821 N   0  0  0  0  0  0  0  0  0  0  0  0
  -26.3317  -28.8529   20.8161 N   0  0  0  0  0  0  0  0  0  0  0  0
  -23.0973  -11.3781   21.4150 N   0  0  0  0  0  0  0  0  0  0  0  0
  -27.1397   -9.7723   20.2001 N   0  0  0  0  0  0  0  0  0  0  0  0
  -23.2069  -30.2943   19.8588 N   0  0  0  0  0  0  0  0  0  0  0  0
  -25.8506  -30.8396   23.7698 N   0  0  0  0  0  0  0  0  0  0  0  0
  -25.1880  -34.2895   24.6222 N   0  3  0  0  0  0  0  0  0  0  0  0
  -25.1399  -17.1564   18.8668 O   0  0  0  0  0  0  0  0  0  0  0  0
  -25.0207   -9.1833   20.8492 O   0  0  0  0  0  0  0  0  0  0  0  0
  -25.4164  -30.8271   19.3525 O   0  0  0  0  0  0  0  0  0  0  0  0
  -27.7345  -29.4075   22.5905 O   0  0  0  0  0  0  0  0  0  0  0  0
  -23.8401  -31.9936   23.7120 O   0  0  0  0  0  0  0  0  0  0  0  0
  -31.5906  -12.8000   18.7655 O   0  0  0  0  0  0  0  0  0  0  0  0
  -29.0690  -23.9107   18.9125 O   0  0  0  0  0  0  0  0  0  1  0  0
  -35.1674   -9.4917   21.3472 F   0  0  0  0  0  0  0  0  0  0  0  0
  -33.7654  -13.8421   20.1170 F   0  0  0  0  0  0  0  0  0  0  0  0
  1  2  1  0  0  0  0
  1  5  2  0  0  0  0
  2  6  2  0  0  0  0
  3  8  2  0  0  0  0
  3 17  1  0  0  0  0
  4  9  1  0  0  0  0
  4 17  2  0  0  0  0
  5 20  1  0  0  0  0
  6 22  1  0  0  0  0
  7 10  2  0  0  0  0
  7 21  1  0  0  0  0
  8 25  1  0  0  0  0
  9 25  2  0  0  0  0
 10 26  1  0  0  0  0
 11 12  2  0  0  0  0
 11 27  1  0  0  0  0
 12 28  1  0  0  0  0
 13 23  1  0  0  0  0
 13 26  2  0  0  0  0
 14 24  1  0  0  0  0
 14 31  2  0  0  0  0
 15 28  2  0  0  0  0
 15 29  1  0  0  0  0
 16 18  1  0  0  0  0
 16 66  2  0  0  0  0
 17 30  1  0  0  0  0
 18 24  2  0  0  0  0
 18 33  1  0  0  0  0
 19 30  1  0  0  0  0
 19 32  2  0  0  0  0
 19 34  1  0  0  0  0
 20 22  2  0  0  0  0
 20 38  1  0  0  0  0
 21 23  2  0  0  0  0
 21 39  1  0  0  0  0
 22 47  1  0  0  0  0
 23 40  1  0  0  0  0
 24 59  1  0  0  0  0
 25 81  1  0  0  0  0
 26 82  1  0  0  0  0
 27 29  2  0  0  0  0
 27 81  1  0  0  0  0
 28 83  1  0  0  0  0
 29 84  1  0  0  0  0
 30 67  2  0  0  0  0
 31 61  1  0  0  0  0
 31 66  1  0  0  0  0
 32 68  1  0  0  0  0
 32 71  1  0  0  0  0
 33 69  1  0  0  0  0
 33 76  2  0  0  0  0
 34 72  1  0  0  0  0
 34 77  2  0  0  0  0
 35 48  1  0  0  0  0
 35 73  1  0  0  0  0
 35 78  2  0  0  0  0
 36 62  1  0  0  0  0
 36 70  1  0  0  0  0
 36 79  2  0  0  0  0
 37 63  1  0  0  0  0
 37 74  1  0  0  0  0
 37 80  2  0  0  0  0
 38 41  1  0  0  0  0
 39 48  1  0  0  0  0
 40 70  1  0  0  0  0
 41 43  1  0  0  0  0
 42 44  1  0  0  0  0
 42 45  1  0  0  0  0
 43 47  1  0  0  0  0
 44 49  1  0  0  0  0
 45 69  1  0  0  0  0
 46 49  1  0  0  0  0
 46 69  1  0  0  0  0
 47 73  1  0  0  0  0
 48 70  1  0  0  0  0
 49 68  1  0  0  0  0
 50 59  1  0  0  0  0
 51 61  1  0  0  0  0
 52 63  1  0  0  0  0
 53 64  1  0  0  0  0
 54 64  1  0  0  0  0
 55 64  1  0  0  0  0
 56 65  1  0  0  0  0
 57 65  1  0  0  0  0
 58 75  1  0  0  0  0
 60 61  1  0  0  0  0
 60 65  1  0  0  0  0
 62 64  1  0  0  0  0
 62 74  1  0  0  0  0
 63 75  1  0  0  0  0
 65 82  1  0  0  0  0
 67 68  1  0  0  0  0
M  CHG  1  75   1
M  ISO  4  18 100  33 100  65 101  82 101
M  END
> <Batch ID>
0088

> <Smiles>
CCc1cc(C(C)C[101C:1](C)(C)[101O:1]c2ccc3c(c2)CN(C(=O)C(NC(=O)C(C)NC)C(C)(C)C)C(C(=O)NC2CCCc4ccccc42)C3)nc[100c:0]1[100C:0](=O)N1CCCC(n2nc(-c3ccc(Oc4ccc(F)cc4F)cc3)c(C(N)=O)c2N)C1

> <Shape>
0.263

> <Color>
0.094

> <Negative vol penalty>
0.000

$$$$

  -OEChem-04052319043D

 86 94  0     1  0  0  0  0  0999 V2000
  -34.6928  -24.6646   18.7230 C   0  0  0  0  0  0  0  0  0  0  0  0
  -33.5150  -24.0332   19.1098 C   0  0  0  0  0  0  0  0  0  0  0  0
  -23.2136   -9.7434   19.9366 C   0  0  0  0  0  0  0  0  0  0  0  0
  -23.8355   -9.8971   22.2661 C   0  0  0  0  0  0  0  0  0  0  0  0
  -35.1288  -25.8011   19.4028 C   0  0  0  0  0  0  0  0  0  0  0  0
  -32.7730  -24.5374   20.1773 C   0  0  0  0  0  0  0  0  0  0  0  0
  -27.8098  -24.7061   19.1858 C   0  0  0  0  0  0  0  0  0  0  0  0
  -22.5312   -8.5551   20.1971 C   0  0  0  0  0  0  0  0  0  0  0  0
  -23.1530   -8.7089   22.5267 C   0  0  0  0  0  0  0  0  0  0  0  0
  -27.1027  -23.5075   19.2698 C   0  0  0  0  0  0  0  0  0  0  0  0
  -23.6867   -5.3929   22.1393 C   0  0  0  0  0  0  0  0  0  0  0  0
  -24.3229   -4.4416   22.9368 C   0  0  0  0  0  0  0  0  0  0  0  0
  -26.3105  -24.1354   21.4601 C   0  0  0  0  0  0  0  0  0  0  0  0
  -22.5166   -4.5741   24.5358 C   0  0  0  0  0  0  0  0  0  0  0  0
  -27.8266  -19.3382   21.6115 C   0  0  0  0  0  0  0  0  0  0  0  0
  -23.8659  -10.4144   20.9710 C   0  0  0  0  0  0  0  0  0  0  0  0
  -24.0530  -12.9493   20.7547 C   0  0  0  0  0  0  0  0  0  0  0  0
  -34.3868  -26.3251   20.4730 C   0  0  0  0  0  0  0  0  0  0  0  0
  -27.7814  -25.6250   20.2446 C   0  0  0  0  0  0  0  0  0  0  0  0
  -33.2002  -25.6812   20.8729 C   0  0  0  0  0  0  0  0  0  0  0  0
  -27.0161  -25.3461   21.3860 C   0  0  0  0  0  0  0  0  0  0  0  0
  -26.5550  -19.3175   21.0826 C   0  0  0  0  0  0  0  0  0  0  0  0
  -26.6102  -18.5754   19.8771 C   0  0  0  0  0  0  0  0  0  0  0  0
  -22.5008   -8.0379   21.4922 C   0  0  0  0  0  0  0  0  0  0  0  0
  -26.3552  -23.2207   20.4082 C   0  0  0  0  0  0  0  0  0  0  0  0
  -22.4655   -5.9348   22.5401 C   0  0  0  0  0  0  0  0  0  0  0  0
  -23.7378   -4.0322   24.1350 C   0  0  0  0  0  0  0  0  0  0  0  0
  -21.8804   -5.5254   23.7383 C   0  0  0  0  0  0  0  0  0  0  0  0
  -24.5715  -11.6415   20.7024 C   0  0  0  0  0  0  0  0  0  0  0  0
  -27.9140  -18.1650   19.7060 C   0  0  0  0  0  0  0  0  0  0  0  0
  -25.1147  -13.7533   20.4191 C   0  0  0  0  0  0  0  0  0  0  0  0
  -22.7299  -13.3972   21.0779 C   0  0  0  0  0  0  0  0  0  0  0  0
  -29.9604  -26.8611   22.2012 C   0  0  0  0  0  0  0  0  0  0  0  0
  -27.4690  -28.6874   23.1912 C   0  0  0  0  0  0  0  0  0  0  0  0
  -24.0902  -29.0604   23.4934 C   0  0  0  0  0  0  0  0  0  0  0  0
  -30.5021  -15.1396   20.8667 C   0  0  0  0  0  0  0  0  0  0  0  0
  -34.9228  -27.5283   21.2077 C   0  0  0  0  0  0  0  0  0  0  0  0
  -28.5282  -26.9254   20.1274 C   0  0  0  0  0  0  0  0  0  0  0  0
  -26.9363  -26.3083   22.5419 C   0  0  0  0  0  0  0  0  0  0  0  0
  -33.8834  -28.2172   22.0882 C   0  0  0  0  0  0  0  0  0  0  0  0
  -29.6605  -12.5867   18.5319 C   0  0  0  0  0  0  0  0  0  0  0  0
  -33.1173  -27.1887   22.9141 C   0  0  0  0  0  0  0  0  0  0  0  0
  -28.2217  -12.2171   18.8968 C   0  0  0  0  0  0  0  0  0  0  0  0
  -30.4896  -12.9180   19.7708 C   0  0  0  0  0  0  0  0  0  0  0  0
  -28.4671  -13.5796   21.0139 C   0  0  0  0  0  0  0  0  0  0  0  0
  -32.3549  -26.2125   22.0102 C   0  0  1  0  0  0  0  0  0  0  0  0
  -28.8420  -27.5583   21.4795 C   0  0  1  0  0  0  0  0  0  0  0  0
  -27.5768  -13.2916   19.7929 C   0  0  2  0  0  0  0  0  0  0  0  0
  -25.4796  -18.2925   18.9689 C   0  0  0  0  0  0  0  0  0  0  0  0
  -30.6894  -18.2813   15.5101 C   0  0  0  0  0  0  0  0  0  0  0  0
  -24.9962  -19.3686   23.0572 C   0  0  0  0  0  0  0  0  0  0  0  0
  -22.3543  -30.6412   24.3794 C   0  0  0  0  0  0  0  0  0  0  0  0
  -28.0898  -27.7714   26.0347 C   0  0  0  0  0  0  0  0  0  0  0  0
  -25.8212  -28.5820   26.7165 C   0  0  0  0  0  0  0  0  0  0  0  0
  -27.5031  -30.1933   25.8235 C   0  0  0  0  0  0  0  0  0  0  0  0
  -22.9016  -29.4426   20.8101 C   0  0  0  0  0  0  0  0  0  0  0  0
  -28.5284  -17.3660   18.6247 C   0  0  0  0  0  0  0  0  0  0  0  0
  -29.9323  -17.4056   16.4958 C   0  0  0  0  0  0  0  0  0  0  0  0
  -29.3352  -18.2314   17.6352 C   0  0  0  0  0  0  0  0  0  0  0  0
  -30.0604  -18.4289   20.9781 C   0  0  0  0  0  0  0  0  0  0  0  0
  -30.3583  -17.3400   22.0055 C   0  0  0  0  0  0  0  0  0  0  0  0
  -25.4816  -21.4980   21.7957 C   0  0  0  0  0  0  0  0  0  1  0  0
  -25.3257  -19.9748   21.6903 C   0  0  1  0  0  0  0  0  0  0  0  0
  -26.3988  -28.5538   24.2474 C   0  0  1  0  0  0  0  0  0  0  0  0
  -23.1721  -30.2244   23.1669 C   0  0  2  0  0  0  0  0  0  0  0  0
  -26.9561  -28.7559   25.6847 C   0  0  0  0  0  0  0  0  0  0  0  0
  -25.8623  -11.6120   20.3603 N   0  0  0  0  0  0  0  0  0  0  0  0
  -28.6443  -18.6342   20.7665 N   0  0  0  0  0  0  0  0  0  0  0  0
  -26.1637  -12.9111   20.1945 N   0  0  0  0  0  0  0  0  0  0  0  0
  -27.6891  -27.5635   22.3823 N   0  0  0  0  0  0  0  0  0  0  0  0
  -29.8237  -13.9443   20.5765 N   0  0  0  0  0  0  0  0  0  0  0  0
  -25.2440  -15.0915   20.2970 N   0  0  0  0  0  0  0  0  0  0  0  0
  -21.7597  -12.4381   21.3994 N   0  0  0  0  0  0  0  0  0  0  0  0
  -31.1506  -26.8318   21.4997 N   0  0  0  0  0  0  0  0  0  0  0  0
  -25.3424  -29.4901   23.8789 N   0  0  0  0  0  0  0  0  0  0  0  0
  -29.7966  -16.0614   21.6305 N   0  0  0  0  0  0  0  0  0  0  0  0
  -22.2325  -29.8516   22.0718 N   0  3  0  0  0  0  0  0  0  0  0  0
  -22.4129  -14.6108   21.0654 O   0  0  0  0  0  0  0  0  0  0  0  0
  -29.7588  -26.3862   23.3127 O   0  0  0  0  0  0  0  0  0  0  0  0
  -28.0822  -29.7523   23.0829 O   0  0  0  0  0  0  0  0  0  0  0  0
  -23.7313  -27.8874   23.4179 O   0  0  0  0  0  0  0  0  0  0  0  0
  -31.6492  -15.3705   20.4697 O   0  0  0  0  0  0  0  0  0  0  0  0
  -21.8347   -6.8786   21.7469 O   0  0  0  0  0  0  0  0  0  0  0  0
  -25.6645  -22.0513   20.4931 O   0  0  0  0  0  0  0  0  0  1  0  0
  -24.3481   -3.1176   24.9000 F   0  0  0  0  0  0  0  0  0  0  0  0
  -20.7067   -6.0416   24.1280 F   0  0  0  0  0  0  0  0  0  0  0  0
  1  2  1  0  0  0  0
  1  5  2  0  0  0  0
  2  6  2  0  0  0  0
  3  8  2  0  0  0  0
  3 16  1  0  0  0  0
  4  9  1  0  0  0  0
  4 16  2  0  0  0  0
  5 18  1  0  0  0  0
  6 20  1  0  0  0  0
  7 10  2  0  0  0  0
  7 19  1  0  0  0  0
  8 24  1  0  0  0  0
  9 24  2  0  0  0  0
 10 25  1  0  0  0  0
 11 12  2  0  0  0  0
 11 26  1  0  0  0  0
 12 27  1  0  0  0  0
 13 21  1  0  0  0  0
 13 25  2  0  0  0  0
 14 27  2  0  0  0  0
 14 28  1  0  0  0  0
 15 22  2  0  0  0  0
 15 68  1  0  0  0  0
 16 29  1  0  0  0  0
 17 29  1  0  0  0  0
 17 31  2  0  0  0  0
 17 32  1  0  0  0  0
 18 20  2  0  0  0  0
 18 37  1  0  0  0  0
 19 21  2  0  0  0  0
 19 38  1  0  0  0  0
 20 46  1  0  0  0  0
 21 39  1  0  0  0  0
 22 23  1  0  0  0  0
 22 63  1  0  0  0  0
 23 30  2  0  0  0  0
 23 49  1  0  0  0  0
 24 83  1  0  0  0  0
 25 84  1  0  0  0  0
 26 28  2  0  0  0  0
 26 83  1  0  0  0  0
 27 85  1  0  0  0  0
 28 86  1  0  0  0  0
 29 67  2  0  0  0  0
 30 57  1  0  0  0  0
 30 68  1  0  0  0  0
 31 69  1  0  0  0  0
 31 72  1  0  0  0  0
 32 73  1  0  0  0  0
 32 78  2  0  0  0  0
 33 47  1  0  0  0  0
 33 74  1  0  0  0  0
 33 79  2  0  0  0  0
 34 64  1  0  0  0  0
 34 70  1  0  0  0  0
 34 80  2  0  0  0  0
 35 65  1  0  0  0  0
 35 75  1  0  0  0  0
 35 81  2  0  0  0  0
 36 71  1  0  0  0  0
 36 76  1  0  0  0  0
 36 82  2  0  0  0  0
 37 40  1  0  0  0  0
 38 47  1  0  0  0  0
 39 70  1  0  0  0  0
 40 42  1  0  0  0  0
 41 43  1  0  0  0  0
 41 44  1  0  0  0  0
 42 46  1  0  0  0  0
 43 48  1  0  0  0  0
 44 71  1  0  0  0  0
 45 48  1  0  0  0  0
 45 71  1  0  0  0  0
 46 74  1  0  0  0  0
 47 70  1  0  0  0  0
 48 69  1  0  0  0  0
 50 58  1  0  0  0  0
 51 63  1  0  0  0  0
 52 65  1  0  0  0  0
 53 66  1  0  0  0  0
 54 66  1  0  0  0  0
 55 66  1  0  0  0  0
 56 77  1  0  0  0  0
 57 59  1  0  0  0  0
 58 59  1  0  0  0  0
 60 61  1  0  0  0  0
 60 68  1  0  0  0  0
 61 76  1  0  0  0  0
 62 63  1  0  0  0  0
 62 84  1  0  0  0  0
 64 66  1  0  0  0  0
 64 75  1  0  0  0  0
 65 77  1  0  0  0  0
 67 69  1  0  0  0  0
M  CHG  1  77   1
M  ISO  4  36 100  62 101  76 100  84 101
M  END
> <Batch ID>
0088

> <Smiles>
CCCCc1c(C)c(C(C)[101CH2:1][101O:1]c2ccc3c(c2)CN(C(=O)C(NC(=O)C(C)NC)C(C)(C)C)C(C(=O)NC2CCCc4ccccc42)C3)cn1CC[100NH:0][100C:0](=O)N1CCCC(n2nc(-c3ccc(Oc4ccc(F)cc4F)cc3)c(C(N)=O)c2N)C1

> <Shape>
0.277

> <Color>
0.199

> <Negative vol penalty>
0.000

$$$$

  -OEChem-04052319043D

 84 92  0     1  0  0  0  0  0999 V2000
  -18.3193  -25.0805   24.2161 C   0  0  0  0  0  0  0  0  0  0  0  0
  -19.5675  -24.8099   23.6647 C   0  0  0  0  0  0  0  0  0  0  0  0
  -25.4212  -14.2148   22.6549 C   0  0  0  0  0  0  0  0  0  0  0  0
  -26.8911  -14.7110   20.8027 C   0  0  0  0  0  0  0  0  0  0  0  0
  -17.7525  -26.3457   24.0680 C   0  0  0  0  0  0  0  0  0  0  0  0
  -20.2493  -25.8042   22.9639 C   0  0  0  0  0  0  0  0  0  0  0  0
  -26.3065  -26.6899   22.7877 C   0  0  0  0  0  0  0  0  0  0  0  0
  -25.3109  -12.8961   22.2141 C   0  0  0  0  0  0  0  0  0  0  0  0
  -26.7808  -13.3922   20.3620 C   0  0  0  0  0  0  0  0  0  0  0  0
  -27.2804  -26.3298   21.8574 C   0  0  0  0  0  0  0  0  0  0  0  0
  -23.6159  -11.1999   19.8320 C   0  0  0  0  0  0  0  0  0  0  0  0
  -22.3431  -10.6298   19.8079 C   0  0  0  0  0  0  0  0  0  0  0  0
  -27.1148  -28.5143   20.8475 C   0  0  0  0  0  0  0  0  0  0  0  0
  -28.3645  -24.2876   18.9985 C   0  0  0  0  0  0  0  0  0  0  0  0
  -23.0799   -8.9201   21.3478 C   0  0  0  0  0  0  0  0  0  0  0  0
  -26.2112  -15.1223   21.9491 C   0  0  0  0  0  0  0  0  0  0  0  0
  -27.2783  -17.0054   23.2993 C   0  0  0  0  0  0  0  0  0  0  0  0
  -18.4319  -27.3588   23.3733 C   0  0  0  0  0  0  0  0  0  0  0  0
  -25.7206  -27.9633   22.7481 C   0  0  0  0  0  0  0  0  0  0  0  0
  -19.6904  -27.0837   22.8052 C   0  0  0  0  0  0  0  0  0  0  0  0
  -26.1355  -28.8889   21.7801 C   0  0  0  0  0  0  0  0  0  0  0  0
  -29.1617  -24.5320   20.1111 C   0  0  0  0  0  0  0  0  0  0  0  0
  -29.5253  -23.4793   20.9436 C   0  0  0  0  0  0  0  0  0  0  0  0
  -25.9907  -12.4847   21.0677 C   0  0  0  0  0  0  0  0  0  0  0  0
  -27.6827  -27.2410   20.8853 C   0  0  0  0  0  0  0  0  0  0  0  0
  -24.6207  -10.6302   20.6140 C   0  0  0  0  0  0  0  0  0  0  0  0
  -22.0751   -9.4899   20.5658 C   0  0  0  0  0  0  0  0  0  0  0  0
  -24.3526   -9.4903   21.3719 C   0  0  0  0  0  0  0  0  0  0  0  0
  -26.3251  -16.4849   22.4036 C   0  0  0  0  0  0  0  0  0  0  0  0
  -27.9602  -22.9832   18.7641 C   0  0  0  0  0  0  0  0  0  0  0  0
  -29.0689  -22.2111   20.6223 C   0  0  0  0  0  0  0  0  0  0  0  0
  -26.9605  -18.3376   23.4029 C   0  0  0  0  0  0  0  0  0  0  0  0
  -28.3548  -16.3439   23.9770 C   0  0  0  0  0  0  0  0  0  0  0  0
  -22.7709  -29.0624   22.3068 C   0  0  0  0  0  0  0  0  0  0  0  0
  -24.1463  -31.9141   23.0128 C   0  0  0  0  0  0  0  0  0  0  0  0
  -26.9775  -33.8163   23.1253 C   0  0  0  0  0  0  0  0  0  0  0  0
  -24.1233  -22.1480   19.7584 C   0  0  0  0  0  0  0  0  0  0  0  0
  -17.7580  -28.6968   23.1987 C   0  0  0  0  0  0  0  0  0  0  0  0
  -24.6905  -28.3454   23.7754 C   0  0  0  0  0  0  0  0  0  0  0  0
  -25.5521  -30.2756   21.7073 C   0  0  0  0  0  0  0  0  0  0  0  0
  -18.7114  -29.8067   22.7633 C   0  0  0  0  0  0  0  0  0  0  0  0
  -23.2419  -21.3339   23.1106 C   0  0  0  0  0  0  0  0  0  0  0  0
  -19.6020  -29.3278   21.6212 C   0  0  0  0  0  0  0  0  0  0  0  0
  -24.0182  -20.0458   23.3903 C   0  0  0  0  0  0  0  0  0  0  0  0
  -22.7412  -21.3892   21.6690 C   0  0  0  0  0  0  0  0  0  0  0  0
  -24.5584  -19.9008   20.9234 C   0  0  0  0  0  0  0  0  0  0  0  0
  -20.4719  -28.1435   22.0594 C   0  0  1  0  0  0  0  0  0  0  0  0
  -23.7916  -29.4918   23.3224 C   0  0  1  0  0  0  0  0  0  0  0  0
  -25.1316  -19.8247   22.3489 C   0  0  2  0  0  0  0  0  0  0  0  0
  -30.3816  -23.7110   22.1429 C   0  0  0  0  0  0  0  0  0  0  0  0
  -29.1079  -19.7106   20.8017 C   0  0  0  0  0  0  0  0  0  0  0  0
  -30.9312  -26.2764   19.7002 C   0  0  0  0  0  0  0  0  0  0  0  0
  -27.7807  -36.1204   23.7114 C   0  0  0  0  0  0  0  0  0  0  0  0
  -22.9738  -32.9831   20.4066 C   0  0  0  0  0  0  0  0  0  0  0  0
  -24.5542  -34.9180   20.5705 C   0  0  0  0  0  0  0  0  0  0  0  0
  -22.8319  -34.5632   22.3399 C   0  0  0  0  0  0  0  0  0  0  0  0
  -28.7728  -32.7792   25.2373 C   0  0  0  0  0  0  0  0  0  0  0  0
  -27.1049  -22.6836   17.5785 C   0  0  0  0  0  0  0  0  0  0  0  0
  -29.4275  -21.0402   21.4779 C   0  0  0  0  0  0  0  0  0  0  0  0
  -25.6022  -22.7766   17.8671 C   0  0  0  0  0  0  0  0  0  0  0  0
  -29.6157  -25.9458   20.3936 C   0  0  1  0  0  0  0  0  0  1  0  0
  -24.8182  -33.0041   22.2132 C   0  0  1  0  0  0  0  0  0  0  0  0
  -27.5522  -34.7036   24.2147 C   0  0  2  0  0  0  0  0  0  0  0  0
  -23.8043  -33.8404   21.3824 C   0  0  0  0  0  0  0  0  0  0  0  0
  -25.4661  -17.4108   21.9692 N   0  0  0  0  0  0  0  0  0  0  0  0
  -28.2931  -21.9349   19.5501 N   0  0  0  0  0  0  0  0  0  0  0  0
  -25.8783  -18.5266   22.5947 N   0  0  0  0  0  0  0  0  0  0  0  0
  -24.5437  -30.5997   22.7299 N   0  0  0  0  0  0  0  0  0  0  0  0
  -23.8460  -21.1738   20.7316 N   0  0  0  0  0  0  0  0  0  0  0  0
  -27.5041  -19.3541   24.1056 N   0  0  0  0  0  0  0  0  0  0  0  0
  -28.5399  -14.9721   23.7574 N   0  0  0  0  0  0  0  0  0  0  0  0
  -21.5887  -28.6042   22.8563 N   0  0  0  0  0  0  0  0  0  0  0  0
  -25.5996  -33.7862   23.1651 N   0  0  0  0  0  0  0  0  0  0  0  0
  -25.1909  -21.8682   18.9142 N   0  0  0  0  0  0  0  0  0  0  0  0
  -28.8544  -34.1591   24.6931 N   0  3  0  0  0  0  0  0  0  0  0  0
  -29.1194  -16.9479   24.7669 O   0  0  0  0  0  0  0  0  0  0  0  0
  -23.0357  -29.1425   21.1130 O   0  0  0  0  0  0  0  0  0  0  0  0
  -23.3052  -32.2183   23.8623 O   0  0  0  0  0  0  0  0  0  0  0  0
  -27.6805  -33.2134   22.3174 O   0  0  0  0  0  0  0  0  0  0  0  0
  -23.4713  -23.1924   19.6533 O   0  0  0  0  0  0  0  0  0  0  0  0
  -25.8835  -11.1979   20.6375 O   0  0  0  0  0  0  0  0  0  0  0  0
  -28.6326  -26.8919   19.9756 O   0  0  0  0  0  0  0  0  0  1  0  0
  -20.8524   -8.9433   20.5437 F   0  0  0  0  0  0  0  0  0  0  0  0
  -25.3136   -8.9391   22.1260 F   0  0  0  0  0  0  0  0  0  0  0  0
  1  2  1  0  0  0  0
  1  5  2  0  0  0  0
  2  6  2  0  0  0  0
  3  8  2  0  0  0  0
  3 16  1  0  0  0  0
  4  9  1  0  0  0  0
  4 16  2  0  0  0  0
  5 18  1  0  0  0  0
  6 20  1  0  0  0  0
  7 10  2  0  0  0  0
  7 19  1  0  0  0  0
  8 24  1  0  0  0  0
  9 24  2  0  0  0  0
 10 25  1  0  0  0  0
 11 12  2  0  0  0  0
 11 26  1  0  0  0  0
 12 27  1  0  0  0  0
 13 21  1  0  0  0  0
 13 25  2  0  0  0  0
 14 22  2  0  0  0  0
 14 30  1  0  0  0  0
 15 27  2  0  0  0  0
 15 28  1  0  0  0  0
 16 29  1  0  0  0  0
 17 29  1  0  0  0  0
 17 32  2  0  0  0  0
 17 33  1  0  0  0  0
 18 20  2  0  0  0  0
 18 38  1  0  0  0  0
 19 21  2  0  0  0  0
 19 39  1  0  0  0  0
 20 47  1  0  0  0  0
 21 40  1  0  0  0  0
 22 23  1  0  0  0  0
 22 61  1  0  0  0  0
 23 31  2  0  0  0  0
 23 50  1  0  0  0  0
 24 81  1  0  0  0  0
 25 82  1  0  0  0  0
 26 28  2  0  0  0  0
 26 81  1  0  0  0  0
 27 83  1  0  0  0  0
 28 84  1  0  0  0  0
 29 65  2  0  0  0  0
 30 58  1  0  0  0  0
 30 66  2  0  0  0  0
 31 59  1  0  0  0  0
 31 66  1  0  0  0  0
 32 67  1  0  0  0  0
 32 70  1  0  0  0  0
 33 71  1  0  0  0  0
 33 76  2  0  0  0  0
 34 48  1  0  0  0  0
 34 72  1  0  0  0  0
 34 77  2  0  0  0  0
 35 62  1  0  0  0  0
 35 68  1  0  0  0  0
 35 78  2  0  0  0  0
 36 63  1  0  0  0  0
 36 73  1  0  0  0  0
 36 79  2  0  0  0  0
 37 69  1  0  0  0  0
 37 74  1  0  0  0  0
 37 80  2  0  0  0  0
 38 41  1  0  0  0  0
 39 48  1  0  0  0  0
 40 68  1  0  0  0  0
 41 43  1  0  0  0  0
 42 44  1  0  0  0  0
 42 45  1  0  0  0  0
 43 47  1  0  0  0  0
 44 49  1  0  0  0  0
 45 69  1  0  0  0  0
 46 49  1  0  0  0  0
 46 69  1  0  0  0  0
 47 72  1  0  0  0  0
 48 68  1  0  0  0  0
 49 67  1  0  0  0  0
 51 59  1  0  0  0  0
 52 61  1  0  0  0  0
 53 63  1  0  0  0  0
 54 64  1  0  0  0  0
 55 64  1  0  0  0  0
 56 64  1  0  0  0  0
 57 75  1  0  0  0  0
 58 60  1  0  0  0  0
 60 74  1  0  0  0  0
 61 82  1  0  0  0  0
 62 64  1  0  0  0  0
 62 73  1  0  0  0  0
 63 75  1  0  0  0  0
 65 67  1  0  0  0  0
M  CHG  1  75   1
M  ISO  4  37 100  61 101  74 100  82 101
M  END
> <Batch ID>
0088

> <Smiles>
CCc1nc(CC[100NH:0][100C:0](=O)N2CCCC(n3nc(-c4ccc(Oc5ccc(F)cc5F)cc4)c(C(N)=O)c3N)C2)cc([101CH:1](C)[101O:1]c2ccc3c(c2)CN(C(=O)C(NC(=O)C(C)NC)C(C)(C)C)C(C(=O)NC2CCCc4ccccc42)C3)c1C

> <Shape>
0.255

> <Color>
0.090

> <Negative vol penalty>
0.000

$$$$

  -OEChem-04052319043D

 85 93  0     1  0  0  0  0  0999 V2000
  -28.8774  -11.4815   20.4017 C   0  0  0  0  0  0  0  0  0  0  0  0
  -29.0706  -12.8172   20.0644 C   0  0  0  0  0  0  0  0  0  0  0  0
  -25.9902  -26.2726   22.2734 C   0  0  0  0  0  0  0  0  0  0  0  0
  -25.5257  -27.6952   20.3766 C   0  0  0  0  0  0  0  0  0  0  0  0
  -27.5851  -10.9867   20.5726 C   0  0  0  0  0  0  0  0  0  0  0  0
  -27.9715  -13.6588   19.8966 C   0  0  0  0  0  0  0  0  0  0  0  0
  -28.5992  -18.1478   22.1549 C   0  0  0  0  0  0  0  0  0  0  0  0
  -30.1767  -21.1990   13.7597 C   0  0  0  0  0  0  0  0  0  0  0  0
  -25.0590  -26.9810   23.0327 C   0  0  0  0  0  0  0  0  0  0  0  0
  -24.5945  -28.4036   21.1360 C   0  0  0  0  0  0  0  0  0  0  0  0
  -29.4043  -19.0812   21.5035 C   0  0  0  0  0  0  0  0  0  0  0  0
  -21.8329  -30.3580   22.4671 C   0  0  0  0  0  0  0  0  0  0  0  0
  -20.6042  -30.6539   21.8769 C   0  0  0  0  0  0  0  0  0  0  0  0
  -31.2385  -22.0439   13.4565 C   0  0  0  0  0  0  0  0  0  0  0  0
  -27.4317  -20.1919   20.6701 C   0  0  0  0  0  0  0  0  0  0  0  0
  -20.1745  -28.2940   21.5882 C   0  0  0  0  0  0  0  0  0  0  0  0
  -26.2236  -26.6297   20.9453 C   0  0  0  0  0  0  0  0  0  0  0  0
  -26.9467  -24.7614   19.3659 C   0  0  0  0  0  0  0  0  0  0  0  0
  -26.4700  -11.8250   20.4163 C   0  0  0  0  0  0  0  0  0  0  0  0
  -27.2022  -18.2231   22.0597 C   0  0  0  0  0  0  0  0  0  0  0  0
  -26.6631  -13.1745   20.0642 C   0  0  0  0  0  0  0  0  0  0  0  0
  -26.6111  -19.2597   21.3234 C   0  0  0  0  0  0  0  0  0  0  0  0
  -29.8793  -20.9144   15.0878 C   0  0  0  0  0  0  0  0  0  0  0  0
  -24.3612  -28.0465   22.4640 C   0  0  0  0  0  0  0  0  0  0  0  0
  -28.8206  -20.1018   20.7586 C   0  0  0  0  0  0  0  0  0  0  0  0
  -22.2325  -29.0300   22.6178 C   0  0  0  0  0  0  0  0  0  0  0  0
  -19.7750  -29.6219   21.4375 C   0  0  0  0  0  0  0  0  0  0  0  0
  -21.4033  -27.9981   22.1783 C   0  0  0  0  0  0  0  0  0  0  0  0
  -27.1858  -25.8986   20.1606 C   0  0  0  0  0  0  0  0  0  0  0  0
  -31.9663  -22.5745   14.5094 C   0  0  0  0  0  0  0  0  0  0  0  0
  -30.6680  -21.4954   16.0677 C   0  0  0  0  0  0  0  0  0  0  0  0
  -28.1736  -24.4515   18.8320 C   0  0  0  0  0  0  0  0  0  0  0  0
  -25.7247  -24.0490   19.1314 C   0  0  0  0  0  0  0  0  0  0  0  0
  -24.9263  -16.3236   20.9125 C   0  0  0  0  0  0  0  0  0  0  0  0
  -22.9563  -18.5544   22.2027 C   0  0  0  0  0  0  0  0  0  0  0  0
  -22.5154  -21.7729   23.2488 C   0  0  0  0  0  0  0  0  0  0  0  0
  -32.9494  -25.9944   16.3915 C   0  0  0  0  0  0  0  0  0  0  0  0
  -25.0906  -11.2334   20.5648 C   0  0  0  0  0  0  0  0  0  0  0  0
  -26.3472  -17.2242   22.7903 C   0  0  0  0  0  0  0  0  0  0  0  0
  -25.1158  -19.3967   21.2064 C   0  0  0  0  0  0  0  0  0  0  0  0
  -23.9938  -12.2812   20.7362 C   0  0  0  0  0  0  0  0  0  0  0  0
  -32.7857  -26.2075   19.9418 C   0  0  0  0  0  0  0  0  0  0  0  0
  -24.1589  -13.3993   19.7118 C   0  0  0  0  0  0  0  0  0  0  0  0
  -31.2945  -26.0587   20.2487 C   0  0  0  0  0  0  0  0  0  0  0  0
  -33.0211  -26.9967   18.6557 C   0  0  0  0  0  0  0  0  0  0  0  0
  -30.8153  -26.3321   17.7801 C   0  0  0  0  0  0  0  0  0  0  0  0
  -25.4971  -14.1247   19.8977 C   0  0  1  0  0  0  0  0  0  0  0  0
  -24.9455  -17.0942   22.2023 C   0  0  1  0  0  0  0  0  0  0  0  0
  -30.5263  -25.4954   19.0381 C   0  0  2  0  0  0  0  0  0  0  0  0
  -28.9415  -18.5868   14.8510 C   0  0  0  0  0  0  0  0  0  0  0  0
  -27.3873  -20.5701   14.9282 C   0  0  0  0  0  0  0  0  0  0  0  0
  -20.7852  -23.3087   24.2210 C   0  0  0  0  0  0  0  0  0  0  0  0
  -21.6139  -18.7677   19.4710 C   0  0  0  0  0  0  0  0  0  0  0  0
  -20.5827  -20.9214   20.2233 C   0  0  0  0  0  0  0  0  0  0  0  0
  -20.0382  -18.7974   21.4128 C   0  0  0  0  0  0  0  0  0  0  0  0
  -24.1331  -22.2438   25.6819 C   0  0  0  0  0  0  0  0  0  0  0  0
  -33.1130  -23.4848   14.2212 C   0  0  0  0  0  0  0  0  0  0  0  0
  -32.7179  -24.9641   14.1456 C   0  0  0  0  0  0  0  0  0  0  0  0
  -31.3182  -21.3874   18.4742 C   0  0  0  0  0  0  0  0  0  0  0  0
  -30.8888  -20.5732   19.6832 C   0  0  0  0  0  0  0  0  0  1  0  0
  -28.7391  -20.0086   15.4085 C   0  0  0  0  0  0  0  0  0  0  0  0
  -22.3244  -19.8347   21.7121 C   0  0  1  0  0  0  0  0  0  0  0  0
  -21.9225  -22.3454   24.5236 C   0  0  2  0  0  0  0  0  0  0  0  0
  -21.1680  -19.5768   20.7052 C   0  0  0  0  0  0  0  0  0  0  0  0
  -28.4642  -26.2849   20.1366 N   0  0  0  0  0  0  0  0  0  0  0  0
  -31.7075  -22.3211   15.8119 N   0  0  0  0  0  0  0  0  0  0  0  0
  -29.0394  -25.3853   19.3205 N   0  0  0  0  0  0  0  0  0  0  0  0
  -24.3227  -18.3919   21.9337 N   0  0  0  0  0  0  0  0  0  0  0  0
  -32.2659  -26.4099   17.5461 N   0  0  0  0  0  0  0  0  0  0  0  0
  -28.5856  -23.4740   17.9971 N   0  0  0  0  0  0  0  0  0  0  0  0
  -24.5561  -24.5023   19.7584 N   0  0  0  0  0  0  0  0  0  0  0  0
  -30.3765  -21.2137   17.3921 N   0  0  0  0  0  0  0  0  0  0  0  0
  -25.4250  -15.0391   21.0171 N   0  0  0  0  0  0  0  0  0  0  0  0
  -21.9250  -20.5755   22.9038 N   0  0  0  0  0  0  0  0  0  0  0  0
  -32.1592  -25.4434   15.3902 N   0  0  0  0  0  0  0  0  0  0  0  0
  -22.9653  -23.0774   25.2966 N   0  3  0  0  0  0  0  0  0  0  0  0
  -25.6740  -23.0306   18.4008 O   0  0  0  0  0  0  0  0  0  0  0  0
  -24.4899  -16.8545   19.8980 O   0  0  0  0  0  0  0  0  0  0  0  0
  -22.2647  -17.7322   22.8088 O   0  0  0  0  0  0  0  0  0  0  0  0
  -23.4100  -22.3337   22.6198 O   0  0  0  0  0  0  0  0  0  0  0  0
  -34.1739  -26.1014   16.2646 O   0  0  0  0  0  0  0  0  0  0  0  0
  -23.4523  -28.7379   23.2046 O   0  0  0  0  0  0  0  0  0  0  0  0
  -29.6041  -21.0138   20.1212 O   0  0  0  0  0  0  0  0  0  1  0  0
  -18.5944  -29.9062   20.8721 F   0  0  0  0  0  0  0  0  0  0  0  0
  -21.7812  -26.7204   22.3215 F   0  0  0  0  0  0  0  0  0  0  0  0
  1  2  1  0  0  0  0
  1  5  2  0  0  0  0
  2  6  2  0  0  0  0
  3  9  2  0  0  0  0
  3 17  1  0  0  0  0
  4 10  1  0  0  0  0
  4 17  2  0  0  0  0
  5 19  1  0  0  0  0
  6 21  1  0  0  0  0
  7 11  2  0  0  0  0
  7 20  1  0  0  0  0
  8 14  2  0  0  0  0
  8 23  1  0  0  0  0
  9 24  1  0  0  0  0
 10 24  2  0  0  0  0
 11 25  1  0  0  0  0
 12 13  2  0  0  0  0
 12 26  1  0  0  0  0
 13 27  1  0  0  0  0
 14 30  1  0  0  0  0
 15 22  1  0  0  0  0
 15 25  2  0  0  0  0
 16 27  2  0  0  0  0
 16 28  1  0  0  0  0
 17 29  1  0  0  0  0
 18 29  1  0  0  0  0
 18 32  2  0  0  0  0
 18 33  1  0  0  0  0
 19 21  2  0  0  0  0
 19 38  1  0  0  0  0
 20 22  2  0  0  0  0
 20 39  1  0  0  0  0
 21 47  1  0  0  0  0
 22 40  1  0  0  0  0
 23 31  2  0  0  0  0
 23 61  1  0  0  0  0
 24 82  1  0  0  0  0
 25 83  1  0  0  0  0
 26 28  2  0  0  0  0
 26 82  1  0  0  0  0
 27 84  1  0  0  0  0
 28 85  1  0  0  0  0
 29 65  2  0  0  0  0
 30 57  1  0  0  0  0
 30 66  2  0  0  0  0
 31 66  1  0  0  0  0
 31 72  1  0  0  0  0
 32 67  1  0  0  0  0
 32 70  1  0  0  0  0
 33 71  1  0  0  0  0
 33 77  2  0  0  0  0
 34 48  1  0  0  0  0
 34 73  1  0  0  0  0
 34 78  2  0  0  0  0
 35 62  1  0  0  0  0
 35 68  1  0  0  0  0
 35 79  2  0  0  0  0
 36 63  1  0  0  0  0
 36 74  1  0  0  0  0
 36 80  2  0  0  0  0
 37 69  1  0  0  0  0
 37 75  1  0  0  0  0
 37 81  2  0  0  0  0
 38 41  1  0  0  0  0
 39 48  1  0  0  0  0
 40 68  1  0  0  0  0
 41 43  1  0  0  0  0
 42 44  1  0  0  0  0
 42 45  1  0  0  0  0
 43 47  1  0  0  0  0
 44 49  1  0  0  0  0
 45 69  1  0  0  0  0
 46 49  1  0  0  0  0
 46 69  1  0  0  0  0
 47 73  1  0  0  0  0
 48 68  1  0  0  0  0
 49 67  1  0  0  0  0
 50 61  1  0  0  0  0
 51 61  1  0  0  0  0
 52 63  1  0  0  0  0
 53 64  1  0  0  0  0
 54 64  1  0  0  0  0
 55 64  1  0  0  0  0
 56 76  1  0  0  0  0
 57 58  1  0  0  0  0
 58 75  1  0  0  0  0
 59 60  1  0  0  0  0
 59 72  1  0  0  0  0
 60 83  1  0  0  0  0
 62 64  1  0  0  0  0
 62 74  1  0  0  0  0
 63 76  1  0  0  0  0
 65 67  1  0  0  0  0
M  CHG  1  76   1
M  ISO  4  37 100  60 101  75 100  83 101
M  END
> <Batch ID>
0088

> <Smiles>
CNC(C)C(=O)NC(C(=O)N1Cc2cc([101O:1][101CH2:1]CNc3nc(CC[100NH:0][100C:0](=O)N4CCCC(n5nc(-c6ccc(Oc7ccc(F)cc7F)cc6)c(C(N)=O)c5N)C4)ccc3C(C)C)ccc2CC1C(=O)NC1CCCc2ccccc21)C(C)(C)C

> <Shape>
0.174

> <Color>
0.084

> <Negative vol penalty>
0.000

$$$$

  -OEChem-04052319043D

 84 92  0     1  0  0  0  0  0999 V2000
  -30.1181  -11.8099   19.6376 C   0  0  0  0  0  0  0  0  0  0  0  0
  -30.0141  -12.6621   20.7323 C   0  0  0  0  0  0  0  0  0  0  0  0
  -27.0259  -28.7081   19.3394 C   0  0  0  0  0  0  0  0  0  0  0  0
  -25.9819  -27.6746   21.2575 C   0  0  0  0  0  0  0  0  0  0  0  0
  -29.2869  -11.9914   18.5330 C   0  0  0  0  0  0  0  0  0  0  0  0
  -29.0796  -13.6970   20.7226 C   0  0  0  0  0  0  0  0  0  0  0  0
  -25.9396  -15.8669   25.5119 C   0  0  0  0  0  0  0  0  0  0  0  0
  -25.9251  -29.5525   19.1952 C   0  0  0  0  0  0  0  0  0  0  0  0
  -24.8811  -28.5190   21.1133 C   0  0  0  0  0  0  0  0  0  0  0  0
  -26.1328  -16.9747   26.3361 C   0  0  0  0  0  0  0  0  0  0  0  0
  -21.9548  -30.6470   21.4690 C   0  0  0  0  0  0  0  0  0  0  0  0
  -21.4454  -31.2516   22.6181 C   0  0  0  0  0  0  0  0  0  0  0  0
  -24.5910  -18.2432   24.9821 C   0  0  0  0  0  0  0  0  0  0  0  0
  -28.1083  -20.2583   24.5070 C   0  0  0  0  0  0  0  0  0  0  0  0
  -23.5755  -32.3272   22.9963 C   0  0  0  0  0  0  0  0  0  0  0  0
  -29.5810  -21.8341   25.5094 C   0  0  0  0  0  0  0  0  0  0  0  0
  -27.0543  -27.7691   20.3705 C   0  0  0  0  0  0  0  0  0  0  0  0
  -29.3516  -27.1341   21.2798 C   0  0  0  0  0  0  0  0  0  0  0  0
  -28.3351  -13.0231   18.5137 C   0  0  0  0  0  0  0  0  0  0  0  0
  -25.0776  -15.9423   24.4085 C   0  0  0  0  0  0  0  0  0  0  0  0
  -28.2358  -13.8933   19.6161 C   0  0  0  0  0  0  0  0  0  0  0  0
  -24.3867  -17.1341   24.1471 C   0  0  0  0  0  0  0  0  0  0  0  0
  -28.3280  -21.2445   25.4623 C   0  0  0  0  0  0  0  0  0  0  0  0
  -29.1338  -19.8970   23.6403 C   0  0  0  0  0  0  0  0  0  0  0  0
  -24.8527  -29.4580   20.0822 C   0  0  0  0  0  0  0  0  0  0  0  0
  -25.4606  -18.1639   26.0696 C   0  0  0  0  0  0  0  0  0  0  0  0
  -23.2745  -30.8824   21.0835 C   0  0  0  0  0  0  0  0  0  0  0  0
  -22.2557  -32.0917   23.3818 C   0  0  0  0  0  0  0  0  0  0  0  0
  -24.0848  -31.7225   21.8472 C   0  0  0  0  0  0  0  0  0  0  0  0
  -28.1909  -26.8961   20.5196 C   0  0  0  0  0  0  0  0  0  0  0  0
  -30.3506  -20.5471   23.7688 C   0  0  0  0  0  0  0  0  0  0  0  0
  -30.1200  -26.0109   21.0940 C   0  0  0  0  0  0  0  0  0  0  0  0
  -29.7037  -28.2689   22.0824 C   0  0  0  0  0  0  0  0  0  0  0  0
  -25.4279  -15.6409   21.2636 C   0  0  0  0  0  0  0  0  0  0  0  0
  -22.1935  -15.8880   21.2721 C   0  0  0  0  0  0  0  0  0  0  0  0
  -19.3750  -16.9741   22.8604 C   0  0  0  0  0  0  0  0  0  0  0  0
  -28.7905  -20.3536   19.6524 C   0  0  0  0  0  0  0  0  0  0  0  0
  -27.4911  -13.2091   17.2777 C   0  0  0  0  0  0  0  0  0  0  0  0
  -24.8596  -14.7303   23.5448 C   0  0  0  0  0  0  0  0  0  0  0  0
  -23.4347  -17.2607   22.9868 C   0  0  0  0  0  0  0  0  0  0  0  0
  -26.2707  -14.0984   17.5017 C   0  0  0  0  0  0  0  0  0  0  0  0
  -30.9823  -22.5495   17.9056 C   0  0  0  0  0  0  0  0  0  0  0  0
  -26.6617  -15.3587   18.2669 C   0  0  0  0  0  0  0  0  0  0  0  0
  -30.6201  -23.9339   18.4461 C   0  0  0  0  0  0  0  0  0  0  0  0
  -29.7517  -21.6546   17.7762 C   0  0  0  0  0  0  0  0  0  0  0  0
  -28.5845  -22.9115   19.5458 C   0  0  0  0  0  0  0  0  0  0  0  0
  -27.2175  -15.0121   19.6534 C   0  0  1  0  0  0  0  0  0  0  0  0
  -24.3527  -15.0754   22.1479 C   0  0  1  0  0  0  0  0  0  0  0  0
  -29.8008  -23.8315   19.7467 C   0  0  2  0  0  0  0  0  0  0  0  0
  -31.4881  -20.2007   22.8645 C   0  0  0  0  0  0  0  0  0  0  0  0
  -28.5967  -17.4704   23.2572 C   0  0  0  0  0  0  0  0  0  0  0  0
  -16.8803  -17.0648   22.6041 C   0  0  0  0  0  0  0  0  0  0  0  0
  -22.4863  -18.1528   19.2485 C   0  0  0  0  0  0  0  0  0  0  0  0
  -20.1243  -18.8136   19.7511 C   0  0  0  0  0  0  0  0  0  0  0  0
  -20.6092  -16.5688   18.7772 C   0  0  0  0  0  0  0  0  0  0  0  0
  -18.9486  -15.3682   25.3096 C   0  0  0  0  0  0  0  0  0  0  0  0
  -27.2370  -21.6600   26.4164 C   0  0  0  0  0  0  0  0  0  0  0  0
  -27.2162  -20.8540   27.7170 C   0  0  0  0  0  0  0  0  0  0  0  0
  -27.7880  -19.1921   21.6030 C   0  0  0  0  0  0  0  0  0  0  0  0
  -26.9203  -19.3738   27.5054 C   0  0  0  0  0  0  0  0  0  1  0  0
  -28.9056  -18.8399   22.6157 C   0  0  1  0  0  0  0  0  0  0  0  0
  -21.2082  -17.0288   21.1900 C   0  0  1  0  0  0  0  0  0  0  0  0
  -18.0583  -16.2813   23.1620 C   0  0  2  0  0  0  0  0  0  0  0  0
  -21.1263  -17.6395   19.7625 C   0  0  0  0  0  0  0  0  0  0  0  0
  -30.6016  -21.5097   24.6843 N   0  0  0  0  0  0  0  0  0  0  0  0
  -28.2155  -25.7147   19.8970 N   0  0  0  0  0  0  0  0  0  0  0  0
  -29.4011  -25.2003   20.2657 N   0  0  0  0  0  0  0  0  0  0  0  0
  -23.2599  -16.0499   22.1678 N   0  0  0  0  0  0  0  0  0  0  0  0
  -29.0201  -21.5987   19.0441 N   0  0  0  0  0  0  0  0  0  0  0  0
  -31.3339  -25.6476   21.5598 N   0  0  0  0  0  0  0  0  0  0  0  0
  -28.7988  -29.3361   22.1639 N   0  0  0  0  0  0  0  0  0  0  0  0
  -26.1400  -14.6862   20.5629 N   0  0  0  0  0  0  0  0  0  0  0  0
  -19.9403  -16.5100   21.6916 N   0  0  0  0  0  0  0  0  0  0  0  0
  -28.0952  -20.3907   20.8549 N   0  0  0  0  0  0  0  0  0  0  0  0
  -17.8732  -16.1387   24.6338 N   0  3  0  0  0  0  0  0  0  0  0  0
  -30.7957  -28.3416   22.6954 O   0  0  0  0  0  0  0  0  0  0  0  0
  -25.5978  -16.8537   21.2192 O   0  0  0  0  0  0  0  0  0  0  0  0
  -22.0193  -14.8870   20.5726 O   0  0  0  0  0  0  0  0  0  0  0  0
  -19.8523  -17.8429   23.5871 O   0  0  0  0  0  0  0  0  0  0  0  0
  -29.1813  -19.2883   19.1630 O   0  0  0  0  0  0  0  0  0  0  0  0
  -23.7785  -30.2820   19.9419 O   0  0  0  0  0  0  0  0  0  0  0  0
  -25.6479  -19.2469   26.8720 O   0  0  0  0  0  0  0  0  0  1  0  0
  -21.7660  -32.6735   24.4844 F   0  0  0  0  0  0  0  0  0  0  0  0
  -25.3531  -31.9534   21.4813 F   0  0  0  0  0  0  0  0  0  0  0  0
  1  2  1  0  0  0  0
  1  5  2  0  0  0  0
  2  6  2  0  0  0  0
  3  8  2  0  0  0  0
  3 17  1  0  0  0  0
  4  9  1  0  0  0  0
  4 17  2  0  0  0  0
  5 19  1  0  0  0  0
  6 21  1  0  0  0  0
  7 10  2  0  0  0  0
  7 20  1  0  0  0  0
  8 25  1  0  0  0  0
  9 25  2  0  0  0  0
 10 26  1  0  0  0  0
 11 12  2  0  0  0  0
 11 27  1  0  0  0  0
 12 28  1  0  0  0  0
 13 22  1  0  0  0  0
 13 26  2  0  0  0  0
 14 23  2  0  0  0  0
 14 24  1  0  0  0  0
 15 28  2  0  0  0  0
 15 29  1  0  0  0  0
 16 23  1  0  0  0  0
 16 65  2  0  0  0  0
 17 30  1  0  0  0  0
 18 30  1  0  0  0  0
 18 32  2  0  0  0  0
 18 33  1  0  0  0  0
 19 21  2  0  0  0  0
 19 38  1  0  0  0  0
 20 22  2  0  0  0  0
 20 39  1  0  0  0  0
 21 47  1  0  0  0  0
 22 40  1  0  0  0  0
 23 57  1  0  0  0  0
 24 31  2  0  0  0  0
 24 61  1  0  0  0  0
 25 81  1  0  0  0  0
 26 82  1  0  0  0  0
 27 29  2  0  0  0  0
 27 81  1  0  0  0  0
 28 83  1  0  0  0  0
 29 84  1  0  0  0  0
 30 66  2  0  0  0  0
 31 50  1  0  0  0  0
 31 65  1  0  0  0  0
 32 67  1  0  0  0  0
 32 70  1  0  0  0  0
 33 71  1  0  0  0  0
 33 76  2  0  0  0  0
 34 48  1  0  0  0  0
 34 72  1  0  0  0  0
 34 77  2  0  0  0  0
 35 62  1  0  0  0  0
 35 68  1  0  0  0  0
 35 78  2  0  0  0  0
 36 63  1  0  0  0  0
 36 73  1  0  0  0  0
 36 79  2  0  0  0  0
 37 69  1  0  0  0  0
 37 74  1  0  0  0  0
 37 80  2  0  0  0  0
 38 41  1  0  0  0  0
 39 48  1  0  0  0  0
 40 68  1  0  0  0  0
 41 43  1  0  0  0  0
 42 44  1  0  0  0  0
 42 45  1  0  0  0  0
 43 47  1  0  0  0  0
 44 49  1  0  0  0  0
 45 69  1  0  0  0  0
 46 49  1  0  0  0  0
 46 69  1  0  0  0  0
 47 72  1  0  0  0  0
 48 68  1  0  0  0  0
 49 67  1  0  0  0  0
 51 61  1  0  0  0  0
 52 63  1  0  0  0  0
 53 64  1  0  0  0  0
 54 64  1  0  0  0  0
 55 64  1  0  0  0  0
 56 75  1  0  0  0  0
 57 58  1  0  0  0  0
 58 60  1  0  0  0  0
 59 61  1  0  0  0  0
 59 74  1  0  0  0  0
 60 82  1  0  0  0  0
 62 64  1  0  0  0  0
 62 73  1  0  0  0  0
 63 75  1  0  0  0  0
 66 67  1  0  0  0  0
M  CHG  1  75   1
M  ISO  4  37 100  60 101  74 100  82 101
M  END
> <Batch ID>
0088

> <Smiles>
CNC(C)C(=O)NC(C(=O)N1Cc2cc([101O:1][101CH2:1]CCc3cnc(C)c(C(C)C[100NH:0][100C:0](=O)N4CCCC(n5nc(-c6ccc(Oc7ccc(F)cc7F)cc6)c(C(N)=O)c5N)C4)c3)ccc2CC1C(=O)NC1CCCc2ccccc21)C(C)(C)C

> <Shape>
0.204

> <Color>
0.069

> <Negative vol penalty>
0.000

$$$$

  -OEChem-04052319043D

 90 98  0     1  0  0  0  0  0999 V2000
  -20.5113  -31.1483   23.1770 C   0  0  0  0  0  0  0  0  0  0  0  0
  -21.7311  -30.4980   23.0202 C   0  0  0  0  0  0  0  0  0  0  0  0
  -22.8855  -13.5077   20.0155 C   0  0  0  0  0  0  0  0  0  0  0  0
  -24.4756  -12.5942   21.5885 C   0  0  0  0  0  0  0  0  0  0  0  0
  -19.3216  -30.4264   23.0907 C   0  0  0  0  0  0  0  0  0  0  0  0
  -21.7619  -29.1251   22.7782 C   0  0  0  0  0  0  0  0  0  0  0  0
  -25.0124  -27.8729   19.1025 C   0  0  0  0  0  0  0  0  0  0  0  0
  -22.3491  -12.2353   19.8187 C   0  0  0  0  0  0  0  0  0  0  0  0
  -23.9391  -11.3218   21.3917 C   0  0  0  0  0  0  0  0  0  0  0  0
  -26.3661  -27.8375   19.4344 C   0  0  0  0  0  0  0  0  0  0  0  0
  -21.2374   -9.5727   22.4224 C   0  0  0  0  0  0  0  0  0  0  0  0
  -20.9974   -8.7905   23.5521 C   0  0  0  0  0  0  0  0  0  0  0  0
  -26.2468  -25.4368   19.6391 C   0  0  0  0  0  0  0  0  0  0  0  0
  -28.6503  -26.6157   23.5637 C   0  0  0  0  0  0  0  0  0  0  0  0
  -30.2533  -25.0483   22.6933 C   0  0  0  0  0  0  0  0  0  0  0  0
  -22.5120   -7.1077   22.7086 C   0  0  0  0  0  0  0  0  0  0  0  0
  -23.9488  -13.6872   20.9003 C   0  0  0  0  0  0  0  0  0  0  0  0
  -24.1048  -15.9539   22.0603 C   0  0  0  0  0  0  0  0  0  0  0  0
  -19.3375  -29.0457   22.8379 C   0  0  0  0  0  0  0  0  0  0  0  0
  -24.2620  -26.6896   19.0469 C   0  0  0  0  0  0  0  0  0  0  0  0
  -20.5713  -28.3838   22.6898 C   0  0  0  0  0  0  0  0  0  0  0  0
  -24.8844  -25.4597   19.3038 C   0  0  0  0  0  0  0  0  0  0  0  0
  -29.6419  -26.2961   22.6430 C   0  0  0  0  0  0  0  0  0  0  0  0
  -22.8759  -11.1423   20.5068 C   0  0  0  0  0  0  0  0  0  0  0  0
  -26.9828  -26.6196   19.7056 C   0  0  0  0  0  0  0  0  0  0  0  0
  -22.1147   -9.1224   21.4358 C   0  0  0  0  0  0  0  0  0  0  0  0
  -21.6347   -7.5580   23.6952 C   0  0  0  0  0  0  0  0  0  0  0  0
  -22.7520   -7.8900   21.5790 C   0  0  0  0  0  0  0  0  0  0  0  0
  -24.5037  -15.0013   21.1036 C   0  0  0  0  0  0  0  0  0  0  0  0
  -28.3089  -25.6602   24.5072 C   0  0  0  0  0  0  0  0  0  0  0  0
  -29.8403  -24.1629   23.6758 C   0  0  0  0  0  0  0  0  0  0  0  0
  -24.9357  -17.0261   21.8444 C   0  0  0  0  0  0  0  0  0  0  0  0
  -23.0754  -15.8764   23.0552 C   0  0  0  0  0  0  0  0  0  0  0  0
  -21.7371  -25.5592   20.6125 C   0  0  0  0  0  0  0  0  0  0  0  0
  -21.9529  -23.1601   18.4398 C   0  0  0  0  0  0  0  0  0  0  0  0
  -23.8943  -21.3897   16.2619 C   0  0  0  0  0  0  0  0  0  0  0  0
  -30.0108  -19.1304   20.8646 C   0  0  0  0  0  0  0  0  0  0  0  0
  -18.0274  -28.2995   22.8003 C   0  0  0  0  0  0  0  0  0  0  0  0
  -22.8091  -26.7422   18.6612 C   0  0  0  0  0  0  0  0  0  0  0  0
  -24.1279  -24.1590   19.2378 C   0  0  0  0  0  0  0  0  0  0  0  0
  -18.1337  -26.9137   22.1688 C   0  0  0  0  0  0  0  0  0  0  0  0
  -28.1423  -17.9955   18.0544 C   0  0  0  0  0  0  0  0  0  0  0  0
  -19.3395  -26.1641   22.7262 C   0  0  0  0  0  0  0  0  0  0  0  0
  -27.0005  -17.1892   18.6757 C   0  0  0  0  0  0  0  0  0  0  0  0
  -29.4431  -17.8266   18.8362 C   0  0  0  0  0  0  0  0  0  0  0  0
  -28.1990  -17.3103   20.9000 C   0  0  0  0  0  0  0  0  0  0  0  0
  -20.6450  -26.9001   22.4014 C   0  0  1  0  0  0  0  0  0  0  0  0
  -22.0201  -25.5263   19.1372 C   0  0  1  0  0  0  0  0  0  0  0  0
  -26.8527  -17.4930   20.1788 C   0  0  2  0  0  0  0  0  0  0  0  0
  -23.7996  -19.4629   14.6570 C   0  0  0  0  0  0  0  0  0  0  0  0
  -23.2131  -24.1021   25.4153 C   0  0  0  0  0  0  0  0  0  0  0  0
  -24.1221  -22.1827   24.0924 C   0  0  0  0  0  0  0  0  0  0  0  0
  -31.1750  -26.8083   20.6265 C   0  0  0  0  0  0  0  0  0  0  0  0
  -30.6087  -28.5862   22.2685 C   0  0  0  0  0  0  0  0  0  0  0  0
  -21.9900  -21.2083   20.7848 C   0  0  0  0  0  0  0  0  0  0  0  0
  -22.8381  -19.4498   19.2174 C   0  0  0  0  0  0  0  0  0  0  0  0
  -20.5964  -20.4774   18.8411 C   0  0  0  0  0  0  0  0  0  0  0  0
  -24.6179  -23.1142   13.9681 C   0  0  0  0  0  0  0  0  0  0  0  0
  -27.2476  -25.9678   25.5101 C   0  0  0  0  0  0  0  0  0  0  0  0
  -30.4761  -22.8156   23.7602 C   0  0  0  0  0  0  0  0  0  0  0  0
  -25.8237  -25.5865   25.0635 C   0  0  0  0  0  0  0  0  0  0  0  0
  -29.7743  -21.7264   22.9258 C   0  0  0  0  0  0  0  0  0  0  0  0
  -25.6584  -24.0781   24.8382 C   0  0  0  0  0  0  0  0  0  0  0  0
  -30.4566  -20.3609   22.9732 C   0  0  0  0  0  0  0  0  0  0  0  0
  -28.8394  -27.7205   20.7042 C   0  0  0  0  0  0  0  0  0  1  0  0
  -22.6768  -21.8369   18.3766 C   0  0  1  0  0  0  0  0  0  0  0  0
  -23.6652  -20.9687   14.8215 C   0  0  2  0  0  0  0  0  0  0  0  0
  -24.2463  -23.6821   24.3669 C   0  0  0  0  0  0  0  0  0  0  0  0
  -30.0608  -27.3198   21.5712 C   0  0  0  0  0  0  0  0  0  0  0  0
  -22.0394  -20.7676   19.3082 C   0  0  0  0  0  0  0  0  0  0  0  0
  -25.5096  -15.4306   20.3368 N   0  0  0  0  0  0  0  0  0  0  0  0
  -28.8803  -24.4377   24.5873 N   0  0  0  0  0  0  0  0  0  0  0  0
  -25.7497  -16.6647   20.8115 N   0  0  0  0  0  0  0  0  0  0  0  0
  -22.7082  -24.2632   18.8625 N   0  0  0  0  0  0  0  0  0  0  0  0
  -29.2350  -18.1313   20.2538 N   0  0  0  0  0  0  0  0  0  0  0  0
  -25.0419  -18.2333   22.4391 N   0  0  0  0  0  0  0  0  0  0  0  0
  -22.3153  -14.7019   23.1402 N   0  0  0  0  0  0  0  0  0  0  0  0
  -21.0258  -26.6700   21.0243 N   0  0  0  0  0  0  0  0  0  0  0  0
  -22.7121  -21.4578   16.9683 N   0  0  0  0  0  0  0  0  0  0  0  0
  -29.7453  -19.3605   22.2089 N   0  0  0  0  0  0  0  0  0  0  0  0
  -24.6553  -21.6297   13.9250 N   0  3  0  0  0  0  0  0  0  0  0  0
  -22.8256  -16.8271   23.8346 O   0  0  0  0  0  0  0  0  0  0  0  0
  -22.1334  -24.6437   21.3243 O   0  0  0  0  0  0  0  0  0  0  0  0
  -20.7630  -23.2144   18.1189 O   0  0  0  0  0  0  0  0  0  0  0  0
  -25.0107  -21.6303   16.7161 O   0  0  0  0  0  0  0  0  0  0  0  0
  -30.8723  -19.7736   20.2555 O   0  0  0  0  0  0  0  0  0  0  0  0
  -22.3526   -9.9005   20.3153 O   0  0  0  0  0  0  0  0  0  0  0  0
  -28.3038  -26.5822   20.0305 O   0  0  0  0  0  0  0  0  0  1  0  0
  -21.4053   -6.8077   24.7808 F   0  0  0  0  0  0  0  0  0  0  0  0
  -23.5967   -7.4526   20.6351 F   0  0  0  0  0  0  0  0  0  0  0  0
  1  2  1  0  0  0  0
  1  5  2  0  0  0  0
  2  6  2  0  0  0  0
  3  8  2  0  0  0  0
  3 17  1  0  0  0  0
  4  9  1  0  0  0  0
  4 17  2  0  0  0  0
  5 19  1  0  0  0  0
  6 21  1  0  0  0  0
  7 10  2  0  0  0  0
  7 20  1  0  0  0  0
  8 24  1  0  0  0  0
  9 24  2  0  0  0  0
 10 25  1  0  0  0  0
 11 12  2  0  0  0  0
 11 26  1  0  0  0  0
 12 27  1  0  0  0  0
 13 22  1  0  0  0  0
 13 25  2  0  0  0  0
 14 23  2  0  0  0  0
 14 30  1  0  0  0  0
 15 23  1  0  0  0  0
 15 31  2  0  0  0  0
 16 27  2  0  0  0  0
 16 28  1  0  0  0  0
 17 29  1  0  0  0  0
 18 29  1  0  0  0  0
 18 32  2  0  0  0  0
 18 33  1  0  0  0  0
 19 21  2  0  0  0  0
 19 38  1  0  0  0  0
 20 22  2  0  0  0  0
 20 39  1  0  0  0  0
 21 47  1  0  0  0  0
 22 40  1  0  0  0  0
 23 69  1  0  0  0  0
 24 87  1  0  0  0  0
 25 88  1  0  0  0  0
 26 28  2  0  0  0  0
 26 87  1  0  0  0  0
 27 89  1  0  0  0  0
 28 90  1  0  0  0  0
 29 71  2  0  0  0  0
 30 59  1  0  0  0  0
 30 72  2  0  0  0  0
 31 60  1  0  0  0  0
 31 72  1  0  0  0  0
 32 73  1  0  0  0  0
 32 76  1  0  0  0  0
 33 77  1  0  0  0  0
 33 82  2  0  0  0  0
 34 48  1  0  0  0  0
 34 78  1  0  0  0  0
 34 83  2  0  0  0  0
 35 66  1  0  0  0  0
 35 74  1  0  0  0  0
 35 84  2  0  0  0  0
 36 67  1  0  0  0  0
 36 79  1  0  0  0  0
 36 85  2  0  0  0  0
 37 75  1  0  0  0  0
 37 80  1  0  0  0  0
 37 86  2  0  0  0  0
 38 41  1  0  0  0  0
 39 48  1  0  0  0  0
 40 74  1  0  0  0  0
 41 43  1  0  0  0  0
 42 44  1  0  0  0  0
 42 45  1  0  0  0  0
 43 47  1  0  0  0  0
 44 49  1  0  0  0  0
 45 75  1  0  0  0  0
 46 49  1  0  0  0  0
 46 75  1  0  0  0  0
 47 78  1  0  0  0  0
 48 74  1  0  0  0  0
 49 73  1  0  0  0  0
 50 67  1  0  0  0  0
 51 68  1  0  0  0  0
 52 68  1  0  0  0  0
 53 69  1  0  0  0  0
 54 69  1  0  0  0  0
 55 70  1  0  0  0  0
 56 70  1  0  0  0  0
 57 70  1  0  0  0  0
 58 81  1  0  0  0  0
 59 61  1  0  0  0  0
 60 62  1  0  0  0  0
 61 63  1  0  0  0  0
 62 64  1  0  0  0  0
 63 68  1  0  0  0  0
 64 80  1  0  0  0  0
 65 69  1  0  0  0  0
 65 88  1  0  0  0  0
 66 70  1  0  0  0  0
 66 79  1  0  0  0  0
 67 81  1  0  0  0  0
 71 73  1  0  0  0  0
M  CHG  1  81   1
M  ISO  4  37 100  65 101  80 100  88 101
M  END
> <Batch ID>
0088

> <Smiles>
CNC(C)C(=O)NC(C(=O)N1Cc2cc([101O:1][101CH2:1]C(C)(C)c3cc(CCC[100NH:0][100C:0](=O)N4CCCC(n5nc(-c6ccc(Oc7ccc(F)cc7F)cc6)c(C(N)=O)c5N)C4)nc(CCCC(C)C)c3)ccc2CC1C(=O)NC1CCCc2ccccc21)C(C)(C)C

> <Shape>
0.214

> <Color>
0.056

> <Negative vol penalty>
0.000

$$$$

  -OEChem-04052319043D

 85 93  0     1  0  0  0  0  0999 V2000
  -18.9437  -33.6637   22.2729 C   0  0  0  0  0  0  0  0  0  0  0  0
  -20.2822  -33.5123   21.9253 C   0  0  0  0  0  0  0  0  0  0  0  0
  -26.8443  -17.9829   18.9520 C   0  0  0  0  0  0  0  0  0  0  0  0
  -29.1017  -17.6350   19.7394 C   0  0  0  0  0  0  0  0  0  0  0  0
  -18.3136  -32.6955   23.0537 C   0  0  0  0  0  0  0  0  0  0  0  0
  -20.9918  -32.3932   22.3592 C   0  0  0  0  0  0  0  0  0  0  0  0
  -25.4113  -29.4321   19.3250 C   0  0  0  0  0  0  0  0  0  0  0  0
  -26.5059  -16.6898   19.3505 C   0  0  0  0  0  0  0  0  0  0  0  0
  -28.7634  -16.3419   20.1380 C   0  0  0  0  0  0  0  0  0  0  0  0
  -26.8022  -29.4883   19.4029 C   0  0  0  0  0  0  0  0  0  0  0  0
  -28.3263  -13.3209   18.6843 C   0  0  0  0  0  0  0  0  0  0  0  0
  -29.2123  -12.2918   18.3656 C   0  0  0  0  0  0  0  0  0  0  0  0
  -26.7903  -27.5817   20.8807 C   0  0  0  0  0  0  0  0  0  0  0  0
  -32.8622  -25.8112   19.8377 C   0  0  0  0  0  0  0  0  0  0  0  0
  -32.6983  -26.0686   17.4521 C   0  0  0  0  0  0  0  0  0  0  0  0
  -29.4775  -11.7927   20.7146 C   0  0  0  0  0  0  0  0  0  0  0  0
  -28.1422  -18.4556   19.1463 C   0  0  0  0  0  0  0  0  0  0  0  0
  -28.4062  -20.9678   19.5022 C   0  0  0  0  0  0  0  0  0  0  0  0
  -19.0133  -31.5591   23.4893 C   0  0  0  0  0  0  0  0  0  0  0  0
  -24.6975  -28.4554   20.0342 C   0  0  0  0  0  0  0  0  0  0  0  0
  -20.3709  -31.4095   23.1476 C   0  0  0  0  0  0  0  0  0  0  0  0
  -25.3906  -27.5137   20.8081 C   0  0  0  0  0  0  0  0  0  0  0  0
  -32.1603  -26.2514   18.7211 C   0  0  0  0  0  0  0  0  0  0  0  0
  -27.4654  -15.8693   19.9436 C   0  0  0  0  0  0  0  0  0  0  0  0
  -27.4917  -28.5648   20.1831 C   0  0  0  0  0  0  0  0  0  0  0  0
  -28.0160  -13.5859   20.0181 C   0  0  0  0  0  0  0  0  0  0  0  0
  -29.7879  -11.5277   19.3807 C   0  0  0  0  0  0  0  0  0  0  0  0
  -28.5916  -12.8218   21.0333 C   0  0  0  0  0  0  0  0  0  0  0  0
  -28.4925  -19.7911   18.7343 C   0  0  0  0  0  0  0  0  0  0  0  0
  -34.0883  -25.1991   19.6333 C   0  0  0  0  0  0  0  0  0  0  0  0
  -33.9318  -25.4451   17.3544 C   0  0  0  0  0  0  0  0  0  0  0  0
  -28.8526  -21.9591   18.6628 C   0  0  0  0  0  0  0  0  0  0  0  0
  -27.9622  -21.1486   20.8534 C   0  0  0  0  0  0  0  0  0  0  0  0
  -22.5114  -28.5077   22.3411 C   0  0  0  0  0  0  0  0  0  0  0  0
  -22.4236  -25.3113   21.7953 C   0  0  0  0  0  0  0  0  0  0  0  0
  -24.0160  -22.5260   20.6321 C   0  0  0  0  0  0  0  0  0  0  0  0
  -32.7666  -22.8582   14.4931 C   0  0  0  0  0  0  0  0  0  0  0  0
  -18.3027  -30.5629   24.3710 C   0  0  0  0  0  0  0  0  0  0  0  0
  -23.1992  -28.3917   19.9184 C   0  0  0  0  0  0  0  0  0  0  0  0
  -24.6726  -26.4328   21.5727 C   0  0  0  0  0  0  0  0  0  0  0  0
  -19.0224  -29.2209   24.4766 C   0  0  0  0  0  0  0  0  0  0  0  0
  -29.3080  -22.4325   13.7627 C   0  0  0  0  0  0  0  0  0  0  0  0
  -20.5110  -29.4322   24.7340 C   0  0  0  0  0  0  0  0  0  0  0  0
  -28.7371  -21.8173   15.0417 C   0  0  0  0  0  0  0  0  0  0  0  0
  -30.7159  -21.9189   13.4692 C   0  0  0  0  0  0  0  0  0  0  0  0
  -31.1037  -21.4557   15.8585 C   0  0  0  0  0  0  0  0  0  0  0  0
  -21.1676  -30.1971   23.5783 C   0  0  1  0  0  0  0  0  0  0  0  0
  -22.5393  -27.6737   21.0916 C   0  0  1  0  0  0  0  0  0  0  0  0
  -29.7073  -21.9857   16.2264 C   0  0  2  0  0  0  0  0  0  0  0  0
  -34.5296  -23.2700   21.1729 C   0  0  0  0  0  0  0  0  0  0  0  0
  -35.8673  -26.0040   15.8493 C   0  0  0  0  0  0  0  0  0  0  0  0
  -23.7054  -20.0515   20.3526 C   0  0  0  0  0  0  0  0  0  0  0  0
  -22.9180  -24.9146   24.7799 C   0  0  0  0  0  0  0  0  0  0  0  0
  -23.5374  -22.5386   24.2906 C   0  0  0  0  0  0  0  0  0  0  0  0
  -21.2351  -23.3550   23.7849 C   0  0  0  0  0  0  0  0  0  0  0  0
  -24.2863  -22.7071   17.6905 C   0  0  0  0  0  0  0  0  0  0  0  0
  -30.8205  -26.9233   18.8857 C   0  0  0  0  0  0  0  0  0  0  0  0
  -34.8689  -24.7126   20.8083 C   0  0  0  0  0  0  0  0  0  0  0  0
  -30.9088  -28.4428   19.0430 C   0  0  0  0  0  0  0  0  0  0  0  0
  -34.7686  -23.7429   15.6631 C   0  0  0  0  0  0  0  0  0  0  0  0
  -29.5463  -29.1217   19.1228 C   0  0  0  0  0  0  0  0  0  1  0  0
  -34.5399  -25.2342   16.0081 C   0  0  1  0  0  0  0  0  0  0  0  0
  -23.1647  -24.1133   22.3380 C   0  0  1  0  0  0  0  0  0  0  0  0
  -23.5568  -21.4179   19.7016 C   0  0  2  0  0  0  0  0  0  0  0  0
  -22.7275  -23.7518   23.7856 C   0  0  0  0  0  0  0  0  0  0  0  0
  -28.9571  -20.0126   17.5018 N   0  0  0  0  0  0  0  0  0  0  0  0
  -34.6432  -25.0040   18.4160 N   0  0  0  0  0  0  0  0  0  0  0  0
  -29.1666  -21.3400   17.4888 N   0  0  0  0  0  0  0  0  0  0  0  0
  -23.2071  -26.4159   21.4325 N   0  0  0  0  0  0  0  0  0  0  0  0
  -31.5863  -22.1095   14.6319 N   0  0  0  0  0  0  0  0  0  0  0  0
  -29.0032  -23.2912   18.8218 N   0  0  0  0  0  0  0  0  0  0  0  0
  -27.5370  -20.0237   21.5732 N   0  0  0  0  0  0  0  0  0  0  0  0
  -21.3958  -29.3153   22.4537 N   0  0  0  0  0  0  0  0  0  0  0  0
  -22.9702  -23.0398   21.3694 N   0  0  0  0  0  0  0  0  0  0  0  0
  -33.5307  -22.9958   15.6455 N   0  0  0  0  0  0  0  0  0  0  0  0
  -24.3595  -21.4300   18.4460 N   0  3  0  0  0  0  0  0  0  0  0  0
  -27.9277  -22.2768   21.4008 O   0  0  0  0  0  0  0  0  0  0  0  0
  -23.4330  -28.4235   23.1443 O   0  0  0  0  0  0  0  0  0  0  0  0
  -21.1954  -25.2659   21.6903 O   0  0  0  0  0  0  0  0  0  0  0  0
  -25.1860  -22.8960   20.7009 O   0  0  0  0  0  0  0  0  0  0  0  0
  -33.1111  -23.3710   13.4229 O   0  0  0  0  0  0  0  0  0  0  0  0
  -27.1356  -14.6074   20.3329 O   0  0  0  0  0  0  0  0  0  0  0  0
  -28.8493  -28.6177   20.2614 O   0  0  0  0  0  0  0  0  0  1  0  0
  -30.6375  -10.5385   19.0744 F   0  0  0  0  0  0  0  0  0  0  0  0
  -28.2963  -13.0709   22.3165 F   0  0  0  0  0  0  0  0  0  0  0  0
  1  2  1  0  0  0  0
  1  5  2  0  0  0  0
  2  6  2  0  0  0  0
  3  8  2  0  0  0  0
  3 17  1  0  0  0  0
  4  9  1  0  0  0  0
  4 17  2  0  0  0  0
  5 19  1  0  0  0  0
  6 21  1  0  0  0  0
  7 10  2  0  0  0  0
  7 20  1  0  0  0  0
  8 24  1  0  0  0  0
  9 24  2  0  0  0  0
 10 25  1  0  0  0  0
 11 12  2  0  0  0  0
 11 26  1  0  0  0  0
 12 27  1  0  0  0  0
 13 22  1  0  0  0  0
 13 25  2  0  0  0  0
 14 23  2  0  0  0  0
 14 30  1  0  0  0  0
 15 23  1  0  0  0  0
 15 31  2  0  0  0  0
 16 27  2  0  0  0  0
 16 28  1  0  0  0  0
 17 29  1  0  0  0  0
 18 29  1  0  0  0  0
 18 32  2  0  0  0  0
 18 33  1  0  0  0  0
 19 21  2  0  0  0  0
 19 38  1  0  0  0  0
 20 22  2  0  0  0  0
 20 39  1  0  0  0  0
 21 47  1  0  0  0  0
 22 40  1  0  0  0  0
 23 57  1  0  0  0  0
 24 82  1  0  0  0  0
 25 83  1  0  0  0  0
 26 28  2  0  0  0  0
 26 82  1  0  0  0  0
 27 84  1  0  0  0  0
 28 85  1  0  0  0  0
 29 66  2  0  0  0  0
 30 58  1  0  0  0  0
 30 67  2  0  0  0  0
 31 62  1  0  0  0  0
 31 67  1  0  0  0  0
 32 68  1  0  0  0  0
 32 71  1  0  0  0  0
 33 72  1  0  0  0  0
 33 77  2  0  0  0  0
 34 48  1  0  0  0  0
 34 73  1  0  0  0  0
 34 78  2  0  0  0  0
 35 63  1  0  0  0  0
 35 69  1  0  0  0  0
 35 79  2  0  0  0  0
 36 64  1  0  0  0  0
 36 74  1  0  0  0  0
 36 80  2  0  0  0  0
 37 70  1  0  0  0  0
 37 75  1  0  0  0  0
 37 81  2  0  0  0  0
 38 41  1  0  0  0  0
 39 48  1  0  0  0  0
 40 69  1  0  0  0  0
 41 43  1  0  0  0  0
 42 44  1  0  0  0  0
 42 45  1  0  0  0  0
 43 47  1  0  0  0  0
 44 49  1  0  0  0  0
 45 70  1  0  0  0  0
 46 49  1  0  0  0  0
 46 70  1  0  0  0  0
 47 73  1  0  0  0  0
 48 69  1  0  0  0  0
 49 68  1  0  0  0  0
 50 58  1  0  0  0  0
 51 62  1  0  0  0  0
 52 64  1  0  0  0  0
 53 65  1  0  0  0  0
 54 65  1  0  0  0  0
 55 65  1  0  0  0  0
 56 76  1  0  0  0  0
 57 59  1  0  0  0  0
 59 61  1  0  0  0  0
 60 62  1  0  0  0  0
 60 75  1  0  0  0  0
 61 83  1  0  0  0  0
 63 65  1  0  0  0  0
 63 74  1  0  0  0  0
 64 76  1  0  0  0  0
 66 68  1  0  0  0  0
M  CHG  1  76   1
M  ISO  4  37 100  61 101  75 100  83 101
M  END
> <Batch ID>
0088

> <Smiles>
CCc1cc(CC[101CH2:1][101O:1]c2ccc3c(c2)CN(C(=O)C(NC(=O)C(C)NC)C(C)(C)C)C(C(=O)NC2CCCc4ccccc42)C3)cc(C(C)C[100NH:0][100C:0](=O)N2CCCC(n3nc(-c4ccc(Oc5ccc(F)cc5F)cc4)c(C(N)=O)c3N)C2)n1

> <Shape>
0.192

> <Color>
0.089

> <Negative vol penalty>
0.000

$$$$

  -OEChem-04052319043D

 88 96  0     1  0  0  0  0  0999 V2000
  -29.8151  -32.4715   26.2684 C   0  0  0  0  0  0  0  0  0  0  0  0
  -30.1204  -32.2066   24.9372 C   0  0  0  0  0  0  0  0  0  0  0  0
  -26.3342  -13.3636   22.1013 C   0  0  0  0  0  0  0  0  0  0  0  0
  -24.8162  -15.0079   21.1908 C   0  0  0  0  0  0  0  0  0  0  0  0
  -29.0471  -31.5664   26.9997 C   0  0  0  0  0  0  0  0  0  0  0  0
  -29.6586  -31.0357   24.3368 C   0  0  0  0  0  0  0  0  0  0  0  0
  -27.4477  -28.5019   18.0117 C   0  0  0  0  0  0  0  0  0  0  0  0
  -25.2845  -12.4507   22.2027 C   0  0  0  0  0  0  0  0  0  0  0  0
  -23.7665  -14.0950   21.2921 C   0  0  0  0  0  0  0  0  0  0  0  0
  -27.6949  -27.4549   17.1248 C   0  0  0  0  0  0  0  0  0  0  0  0
  -23.0765   -9.5673   22.3647 C   0  0  0  0  0  0  0  0  0  0  0  0
  -23.3097   -8.2606   21.9361 C   0  0  0  0  0  0  0  0  0  0  0  0
  -26.3097  -26.0024   18.4630 C   0  0  0  0  0  0  0  0  0  0  0  0
  -28.4486  -21.7220   16.8374 C   0  0  0  0  0  0  0  0  0  0  0  0
  -30.1038  -23.2522   17.6760 C   0  0  0  0  0  0  0  0  0  0  0  0
  -23.8048   -9.0771   19.7167 C   0  0  0  0  0  0  0  0  0  0  0  0
  -26.1000  -14.6422   21.5954 C   0  0  0  0  0  0  0  0  0  0  0  0
  -28.0451  -15.7733   20.3932 C   0  0  0  0  0  0  0  0  0  0  0  0
  -28.5676  -30.3885   26.4053 C   0  0  0  0  0  0  0  0  0  0  0  0
  -26.6370  -28.3038   19.1386 C   0  0  0  0  0  0  0  0  0  0  0  0
  -28.8846  -30.1134   25.0613 C   0  0  0  0  0  0  0  0  0  0  0  0
  -26.0516  -27.0492   19.3612 C   0  0  0  0  0  0  0  0  0  0  0  0
  -29.2033  -22.8796   16.6842 C   0  0  0  0  0  0  0  0  0  0  0  0
  -24.0006  -12.8163   21.7981 C   0  0  0  0  0  0  0  0  0  0  0  0
  -27.1282  -26.2042   17.3520 C   0  0  0  0  0  0  0  0  0  0  0  0
  -23.2073  -10.6289   21.4694 C   0  0  0  0  0  0  0  0  0  0  0  0
  -23.6739   -8.0155   20.6121 C   0  0  0  0  0  0  0  0  0  0  0  0
  -23.5715  -10.3838   20.1454 C   0  0  0  0  0  0  0  0  0  0  0  0
  -27.1839  -15.5859   21.4909 C   0  0  0  0  0  0  0  0  0  0  0  0
  -28.6301  -20.9775   17.9918 C   0  0  0  0  0  0  0  0  0  0  0  0
  -30.2111  -22.4394   18.7929 C   0  0  0  0  0  0  0  0  0  0  0  0
  -28.8937  -16.7777   20.7901 C   0  0  0  0  0  0  0  0  0  0  0  0
  -28.0752  -15.0997   19.1278 C   0  0  0  0  0  0  0  0  0  0  0  0
  -27.0830  -28.4772   22.2810 C   0  0  0  0  0  0  0  0  0  0  0  0
  -23.8798  -27.9735   22.3707 C   0  0  0  0  0  0  0  0  0  0  0  0
  -21.0957  -26.7454   20.8255 C   0  0  0  0  0  0  0  0  0  0  0  0
  -29.7789  -21.7318   23.2023 C   0  0  0  0  0  0  0  0  0  0  0  0
  -27.7809  -29.4175   27.2496 C   0  0  0  0  0  0  0  0  0  0  0  0
  -26.3584  -29.4506   20.0712 C   0  0  0  0  0  0  0  0  0  0  0  0
  -25.1576  -26.7901   20.5452 C   0  0  0  0  0  0  0  0  0  0  0  0
  -27.0153  -28.3806   26.4317 C   0  0  0  0  0  0  0  0  0  0  0  0
  -29.6032  -18.8850   25.3334 C   0  0  0  0  0  0  0  0  0  0  0  0
  -27.9116  -27.7862   25.3499 C   0  0  0  0  0  0  0  0  0  0  0  0
  -29.0236  -17.7909   24.4352 C   0  0  0  0  0  0  0  0  0  0  0  0
  -28.9925  -20.2504   25.0254 C   0  0  0  0  0  0  0  0  0  0  0  0
  -28.4909  -19.5645   22.7120 C   0  0  0  0  0  0  0  0  0  0  0  0
  -28.3812  -28.8661   24.3677 C   0  0  1  0  0  0  0  0  0  0  0  0
  -25.9339  -28.9978   21.4648 C   0  0  1  0  0  0  0  0  0  0  0  0
  -29.1167  -18.1791   22.9473 C   0  0  2  0  0  0  0  0  0  0  0  0
  -28.1352  -18.6674   17.1132 C   0  0  0  0  0  0  0  0  0  0  0  0
  -26.3232  -19.9964   18.2557 C   0  0  0  0  0  0  0  0  0  0  0  0
  -32.3240  -21.7936   20.0328 C   0  0  0  0  0  0  0  0  0  0  0  0
  -18.6274  -26.4434   21.1622 C   0  0  0  0  0  0  0  0  0  0  0  0
  -29.5424  -24.2834   21.2185 C   0  0  0  0  0  0  0  0  0  0  0  0
  -28.0034  -23.1916   14.4166 C   0  0  0  0  0  0  0  0  0  0  0  0
  -30.3970  -23.8086   14.6763 C   0  0  0  0  0  0  0  0  0  0  0  0
  -24.4255  -25.6425   24.2624 C   0  0  0  0  0  0  0  0  0  0  0  0
  -22.1047  -24.8208   23.8074 C   0  0  0  0  0  0  0  0  0  0  0  0
  -22.4500  -27.0465   24.8796 C   0  0  0  0  0  0  0  0  0  0  0  0
  -20.4520  -28.4306   18.4794 C   0  0  0  0  0  0  0  0  0  0  0  0
  -28.6217  -25.1867   15.8059 C   0  0  0  0  0  0  0  0  0  1  0  0
  -27.8384  -19.7282   18.1896 C   0  0  0  0  0  0  0  0  0  0  0  0
  -31.1663  -22.8099   19.8778 C   0  0  2  0  0  0  0  0  0  0  0  0
  -22.9903  -26.7550   22.4270 C   0  0  1  0  0  0  0  0  0  0  0  0
  -19.7185  -27.3448   20.6058 C   0  0  2  0  0  0  0  0  0  0  0  0
  -30.5133  -23.1040   21.2692 C   0  0  2  0  0  0  0  0  0  0  0  0
  -29.0432  -23.7453   15.4203 C   0  0  0  0  0  0  0  0  0  0  0  0
  -23.0110  -26.0702   23.8228 C   0  0  0  0  0  0  0  0  0  0  0  0
  -27.4602  -16.4054   22.5088 N   0  0  0  0  0  0  0  0  0  0  0  0
  -29.4950  -21.3076   18.9770 N   0  0  0  0  0  0  0  0  0  0  0  0
  -28.5046  -17.1174   22.0524 N   0  0  0  0  0  0  0  0  0  0  0  0
  -24.9205  -27.9415   21.4316 N   0  0  0  0  0  0  0  0  0  0  0  0
  -29.1150  -20.5591   23.5986 N   0  0  0  0  0  0  0  0  0  0  0  0
  -29.9273  -17.3945   20.1790 N   0  0  0  0  0  0  0  0  0  0  0  0
  -27.1314  -14.0926   18.8844 N   0  0  0  0  0  0  0  0  0  0  0  0
  -27.3240  -29.1962   23.4362 N   0  0  0  0  0  0  0  0  0  0  0  0
  -21.6675  -27.1950   21.9969 N   0  0  0  0  0  0  0  0  0  0  0  0
  -29.8560  -21.9453   21.8314 N   0  0  0  0  0  0  0  0  0  0  0  0
  -19.4665  -27.5444   19.1506 N   0  3  0  0  0  0  0  0  0  0  0  0
  -28.9246  -15.3713   18.2456 O   0  0  0  0  0  0  0  0  0  0  0  0
  -27.7040  -27.4948   21.8924 O   0  0  0  0  0  0  0  0  0  0  0  0
  -23.6550  -28.9218   23.1269 O   0  0  0  0  0  0  0  0  0  0  0  0
  -21.6111  -25.9542   20.0387 O   0  0  0  0  0  0  0  0  0  0  0  0
  -30.2713  -22.5267   24.0100 O   0  0  0  0  0  0  0  0  0  0  0  0
  -22.9761  -11.9257   21.8967 O   0  0  0  0  0  0  0  0  0  0  0  0
  -27.3684  -25.1804   16.4883 O   0  0  0  0  0  0  0  0  0  1  0  0
  -23.8994   -6.7608   20.2010 F   0  0  0  0  0  0  0  0  0  0  0  0
  -23.6999  -11.3996   19.2809 F   0  0  0  0  0  0  0  0  0  0  0  0
  1  2  1  0  0  0  0
  1  5  2  0  0  0  0
  2  6  2  0  0  0  0
  3  8  2  0  0  0  0
  3 17  1  0  0  0  0
  4  9  1  0  0  0  0
  4 17  2  0  0  0  0
  5 19  1  0  0  0  0
  6 21  1  0  0  0  0
  7 10  2  0  0  0  0
  7 20  1  0  0  0  0
  8 24  1  0  0  0  0
  9 24  2  0  0  0  0
 10 25  1  0  0  0  0
 11 12  2  0  0  0  0
 11 26  1  0  0  0  0
 12 27  1  0  0  0  0
 13 22  1  0  0  0  0
 13 25  2  0  0  0  0
 14 23  1  0  0  0  0
 14 30  2  0  0  0  0
 15 23  2  0  0  0  0
 15 31  1  0  0  0  0
 16 27  2  0  0  0  0
 16 28  1  0  0  0  0
 17 29  1  0  0  0  0
 18 29  1  0  0  0  0
 18 32  2  0  0  0  0
 18 33  1  0  0  0  0
 19 21  2  0  0  0  0
 19 38  1  0  0  0  0
 20 22  2  0  0  0  0
 20 39  1  0  0  0  0
 21 47  1  0  0  0  0
 22 40  1  0  0  0  0
 23 67  1  0  0  0  0
 24 85  1  0  0  0  0
 25 86  1  0  0  0  0
 26 28  2  0  0  0  0
 26 85  1  0  0  0  0
 27 87  1  0  0  0  0
 28 88  1  0  0  0  0
 29 69  2  0  0  0  0
 30 62  1  0  0  0  0
 30 70  1  0  0  0  0
 31 63  1  0  0  0  0
 31 70  2  0  0  0  0
 32 71  1  0  0  0  0
 32 74  1  0  0  0  0
 33 75  1  0  0  0  0
 33 80  2  0  0  0  0
 34 48  1  0  0  0  0
 34 76  1  0  0  0  0
 34 81  2  0  0  0  0
 35 64  1  0  0  0  0
 35 72  1  0  0  0  0
 35 82  2  0  0  0  0
 36 65  1  0  0  0  0
 36 77  1  0  0  0  0
 36 83  2  0  0  0  0
 37 73  1  0  0  0  0
 37 78  1  0  0  0  0
 37 84  2  0  0  0  0
 38 41  1  0  0  0  0
 39 48  1  0  0  0  0
 40 72  1  0  0  0  0
 41 43  1  0  0  0  0
 42 44  1  0  0  0  0
 42 45  1  0  0  0  0
 43 47  1  0  0  0  0
 44 49  1  0  0  0  0
 45 73  1  0  0  0  0
 46 49  1  0  0  0  0
 46 73  1  0  0  0  0
 47 76  1  0  0  0  0
 48 72  1  0  0  0  0
 49 71  1  0  0  0  0
 50 62  1  0  0  0  0
 51 62  1  0  0  0  0
 52 63  1  0  0  0  0
 53 65  1  0  0  0  0
 54 66  1  0  0  0  0
 55 67  1  0  0  0  0
 56 67  1  0  0  0  0
 57 68  1  0  0  0  0
 58 68  1  0  0  0  0
 59 68  1  0  0  0  0
 60 79  1  0  0  0  0
 61 67  1  0  0  0  0
 61 86  1  0  0  0  0
 63 66  1  0  0  0  0
 64 68  1  0  0  0  0
 64 77  1  0  0  0  0
 65 79  1  0  0  0  0
 66 78  1  0  0  0  0
 69 71  1  0  0  0  0
M  CHG  1  79   1
M  ISO  4  37 100  61 101  78 100  86 101
M  END
> <Batch ID>
0088

> <Smiles>
CNC(C)C(=O)NC(C(=O)N1Cc2cc([101O:1][101CH2:1]C(C)(C)c3cc(C(C)C)nc(C(C)C(C)[100NH:0][100C:0](=O)N4CCCC(n5nc(-c6ccc(Oc7ccc(F)cc7F)cc6)c(C(N)=O)c5N)C4)c3)ccc2CC1C(=O)NC1CCCc2ccccc21)C(C)(C)C

> <Shape>
0.203

> <Color>
0.070

> <Negative vol penalty>
0.000

$$$$

  -OEChem-04052319043D

 89 97  0     1  0  0  0  0  0999 V2000
  -18.7030  -33.1052   20.3769 C   0  0  0  0  0  0  0  0  0  0  0  0
  -20.0350  -32.8437   20.0721 C   0  0  0  0  0  0  0  0  0  0  0  0
  -28.6246  -17.7983   20.6530 C   0  0  0  0  0  0  0  0  0  0  0  0
  -30.9688  -18.0711   21.1700 C   0  0  0  0  0  0  0  0  0  0  0  0
  -18.1342  -32.5663   21.5302 C   0  0  0  0  0  0  0  0  0  0  0  0
  -20.7993  -32.0440   20.9211 C   0  0  0  0  0  0  0  0  0  0  0  0
  -25.2318  -28.1411   19.3008 C   0  0  0  0  0  0  0  0  0  0  0  0
  -28.7278  -16.4306   20.9068 C   0  0  0  0  0  0  0  0  0  0  0  0
  -31.0720  -16.7034   21.4238 C   0  0  0  0  0  0  0  0  0  0  0  0
  -26.6213  -28.2540   19.2846 C   0  0  0  0  0  0  0  0  0  0  0  0
  -29.8616  -13.6790   19.3044 C   0  0  0  0  0  0  0  0  0  0  0  0
  -29.2639  -12.8052   18.3962 C   0  0  0  0  0  0  0  0  0  0  0  0
  -26.7268  -27.1915   21.4478 C   0  0  0  0  0  0  0  0  0  0  0  0
  -27.8601  -11.9335   20.1588 C   0  0  0  0  0  0  0  0  0  0  0  0
  -33.2514  -26.3234   18.7146 C   0  0  0  0  0  0  0  0  0  0  0  0
  -29.7452  -18.6185   20.7846 C   0  0  0  0  0  0  0  0  0  0  0  0
  -29.3182  -21.0456   21.4439 C   0  0  0  0  0  0  0  0  0  0  0  0
  -18.8892  -31.7517   22.3887 C   0  0  0  0  0  0  0  0  0  0  0  0
  -24.5775  -27.5614   20.3973 C   0  0  0  0  0  0  0  0  0  0  0  0
  -20.2404  -31.4948   22.0876 C   0  0  0  0  0  0  0  0  0  0  0  0
  -25.3291  -27.0701   21.4743 C   0  0  0  0  0  0  0  0  0  0  0  0
  -34.2762  -25.5399   18.2318 C   0  0  0  0  0  0  0  0  0  0  0  0
  -34.7522  -24.7541   19.3102 C   0  0  0  0  0  0  0  0  0  0  0  0
  -29.9514  -15.8832   21.2922 C   0  0  0  0  0  0  0  0  0  0  0  0
  -27.3689  -27.7818   20.3595 C   0  0  0  0  0  0  0  0  0  0  0  0
  -29.4586  -13.6800   20.6399 C   0  0  0  0  0  0  0  0  0  0  0  0
  -28.2632  -11.9325   18.8234 C   0  0  0  0  0  0  0  0  0  0  0  0
  -28.4578  -12.8073   21.0670 C   0  0  0  0  0  0  0  0  0  0  0  0
  -29.6394  -20.0313   20.5220 C   0  0  0  0  0  0  0  0  0  0  0  0
  -34.0036  -25.0812   20.4193 C   0  0  0  0  0  0  0  0  0  0  0  0
  -29.3474  -22.2030   20.7050 C   0  0  0  0  0  0  0  0  0  0  0  0
  -29.0203  -20.9501   22.8431 C   0  0  0  0  0  0  0  0  0  0  0  0
  -22.4629  -28.5781   22.5417 C   0  0  0  0  0  0  0  0  0  0  0  0
  -22.4789  -25.4662   23.4573 C   0  0  0  0  0  0  0  0  0  0  0  0
  -24.1386  -22.4862   23.5644 C   0  0  0  0  0  0  0  0  0  0  0  0
  -32.1852  -23.7529   15.6656 C   0  0  0  0  0  0  0  0  0  0  0  0
  -18.2441  -31.2304   23.6484 C   0  0  0  0  0  0  0  0  0  0  0  0
  -23.0798  -27.4228   20.3875 C   0  0  0  0  0  0  0  0  0  0  0  0
  -24.6761  -26.4211   22.6663 C   0  0  0  0  0  0  0  0  0  0  0  0
  -19.0169  -30.0864   24.2999 C   0  0  0  0  0  0  0  0  0  0  0  0
  -28.6743  -23.8212   16.2531 C   0  0  0  0  0  0  0  0  0  0  0  0
  -20.5036  -30.4197   24.3725 C   0  0  0  0  0  0  0  0  0  0  0  0
  -28.4945  -22.9492   17.4970 C   0  0  0  0  0  0  0  0  0  0  0  0
  -29.7747  -23.2834   15.3411 C   0  0  0  0  0  0  0  0  0  0  0  0
  -30.8951  -22.1924   17.2458 C   0  0  0  0  0  0  0  0  0  0  0  0
  -21.0950  -30.6117   22.9707 C   0  0  1  0  0  0  0  0  0  0  0  0
  -22.4838  -27.2804   21.7845 C   0  0  1  0  0  0  0  0  0  0  0  0
  -29.8344  -22.7261   18.2238 C   0  0  2  0  0  0  0  0  0  0  0  0
  -34.0746  -24.5672   21.8035 C   0  0  0  0  0  0  0  0  0  0  0  0
  -35.3820  -22.3291   19.5866 C   0  0  0  0  0  0  0  0  0  0  0  0
  -37.0391  -24.1364   20.1719 C   0  0  0  0  0  0  0  0  0  0  0  0
  -23.9131  -20.1351   24.4123 C   0  0  0  0  0  0  0  0  0  0  0  0
  -30.3939  -30.2230   20.9103 C   0  0  0  0  0  0  0  0  0  0  0  0
  -36.2950  -25.9106   16.6558 C   0  0  0  0  0  0  0  0  0  0  0  0
  -34.0074  -26.5742   15.9612 C   0  0  0  0  0  0  0  0  0  0  0  0
  -23.0794  -26.4324   26.2886 C   0  0  0  0  0  0  0  0  0  0  0  0
  -23.7726  -24.0964   26.8639 C   0  0  0  0  0  0  0  0  0  0  0  0
  -21.4267  -24.5602   26.1537 C   0  0  0  0  0  0  0  0  0  0  0  0
  -24.3113  -21.3609   20.8325 C   0  0  0  0  0  0  0  0  0  0  0  0
  -31.7247  -28.1274   20.5579 C   0  0  0  0  0  0  0  0  0  0  0  0
  -32.0709  -26.6829   20.9449 C   0  0  0  0  0  0  0  0  0  0  0  0
  -34.5930  -24.1364   16.1290 C   0  0  0  0  0  0  0  0  0  0  0  0
  -29.3777  -28.0299   21.6081 C   0  0  0  0  0  0  0  0  0  1  0  0
  -35.8490  -23.7655   19.2578 C   0  0  0  0  0  0  0  0  0  0  0  0
  -23.2810  -24.6442   24.4371 C   0  0  1  0  0  0  0  0  0  0  0  0
  -23.6932  -21.0727   23.2353 C   0  0  2  0  0  0  0  0  0  0  0  0
  -30.6841  -28.8220   21.4638 C   0  0  2  0  0  0  0  0  0  0  0  0
  -34.7781  -25.5300   16.8432 C   0  0  0  0  0  0  0  0  0  0  0  0
  -22.9024  -24.9472   25.9144 C   0  0  0  0  0  0  0  0  0  0  0  0
  -29.8564  -20.5030   19.2914 N   0  0  0  0  0  0  0  0  0  0  0  0
  -33.0942  -26.0359   20.0454 N   0  0  0  0  0  0  0  0  0  0  0  0
  -29.6712  -21.8263   19.4348 N   0  0  0  0  0  0  0  0  0  0  0  0
  -23.2087  -26.3145   22.6126 N   0  0  0  0  0  0  0  0  0  0  0  0
  -31.0190  -23.0957   16.0910 N   0  0  0  0  0  0  0  0  0  0  0  0
  -29.1272  -23.4961   21.0243 N   0  0  0  0  0  0  0  0  0  0  0  0
  -29.0342  -19.6841   23.4443 N   0  0  0  0  0  0  0  0  0  0  0  0
  -21.3217  -29.3301   22.3379 N   0  0  0  0  0  0  0  0  0  0  0  0
  -23.0974  -23.2505   24.0470 N   0  0  0  0  0  0  0  0  0  0  0  0
  -33.3189  -23.5256   16.4363 N   0  0  0  0  0  0  0  0  0  0  0  0
  -24.4558  -20.5479   22.0675 N   0  3  0  0  0  0  0  0  0  0  0  0
  -28.7336  -21.9556   23.5361 O   0  0  0  0  0  0  0  0  0  0  0  0
  -23.4113  -28.8744   23.2589 O   0  0  0  0  0  0  0  0  0  0  0  0
  -21.2506  -25.3543   23.4372 O   0  0  0  0  0  0  0  0  0  0  0  0
  -25.2954  -22.8725   23.4122 O   0  0  0  0  0  0  0  0  0  0  0  0
  -32.2128  -24.4919   14.6756 O   0  0  0  0  0  0  0  0  0  0  0  0
  -30.0524  -14.5487   21.5401 O   0  0  0  0  0  0  0  0  0  0  0  0
  -28.7252  -27.8914   20.3466 O   0  0  0  0  0  0  0  0  0  1  0  0
  -27.6882  -11.0945   17.9508 F   0  0  0  0  0  0  0  0  0  0  0  0
  -28.0657  -12.8045   22.3484 F   0  0  0  0  0  0  0  0  0  0  0  0
  1  2  1  0  0  0  0
  1  5  2  0  0  0  0
  2  6  2  0  0  0  0
  3  8  2  0  0  0  0
  3 16  1  0  0  0  0
  4  9  1  0  0  0  0
  4 16  2  0  0  0  0
  5 18  1  0  0  0  0
  6 20  1  0  0  0  0
  7 10  2  0  0  0  0
  7 19  1  0  0  0  0
  8 24  1  0  0  0  0
  9 24  2  0  0  0  0
 10 25  1  0  0  0  0
 11 12  2  0  0  0  0
 11 26  1  0  0  0  0
 12 27  1  0  0  0  0
 13 21  1  0  0  0  0
 13 25  2  0  0  0  0
 14 27  2  0  0  0  0
 14 28  1  0  0  0  0
 15 22  2  0  0  0  0
 15 71  1  0  0  0  0
 16 29  1  0  0  0  0
 17 29  1  0  0  0  0
 17 31  2  0  0  0  0
 17 32  1  0  0  0  0
 18 20  2  0  0  0  0
 18 37  1  0  0  0  0
 19 21  2  0  0  0  0
 19 38  1  0  0  0  0
 20 46  1  0  0  0  0
 21 39  1  0  0  0  0
 22 23  1  0  0  0  0
 22 68  1  0  0  0  0
 23 30  2  0  0  0  0
 23 64  1  0  0  0  0
 24 86  1  0  0  0  0
 25 87  1  0  0  0  0
 26 28  2  0  0  0  0
 26 86  1  0  0  0  0
 27 88  1  0  0  0  0
 28 89  1  0  0  0  0
 29 70  2  0  0  0  0
 30 49  1  0  0  0  0
 30 71  1  0  0  0  0
 31 72  1  0  0  0  0
 31 75  1  0  0  0  0
 32 76  1  0  0  0  0
 32 81  2  0  0  0  0
 33 47  1  0  0  0  0
 33 77  1  0  0  0  0
 33 82  2  0  0  0  0
 34 65  1  0  0  0  0
 34 73  1  0  0  0  0
 34 83  2  0  0  0  0
 35 66  1  0  0  0  0
 35 78  1  0  0  0  0
 35 84  2  0  0  0  0
 36 74  1  0  0  0  0
 36 79  1  0  0  0  0
 36 85  2  0  0  0  0
 37 40  1  0  0  0  0
 38 47  1  0  0  0  0
 39 73  1  0  0  0  0
 40 42  1  0  0  0  0
 41 43  1  0  0  0  0
 41 44  1  0  0  0  0
 42 46  1  0  0  0  0
 43 48  1  0  0  0  0
 44 74  1  0  0  0  0
 45 48  1  0  0  0  0
 45 74  1  0  0  0  0
 46 77  1  0  0  0  0
 47 73  1  0  0  0  0
 48 72  1  0  0  0  0
 50 64  1  0  0  0  0
 51 64  1  0  0  0  0
 52 66  1  0  0  0  0
 53 67  1  0  0  0  0
 54 68  1  0  0  0  0
 55 68  1  0  0  0  0
 56 69  1  0  0  0  0
 57 69  1  0  0  0  0
 58 69  1  0  0  0  0
 59 80  1  0  0  0  0
 60 61  1  0  0  0  0
 60 67  1  0  0  0  0
 61 71  1  0  0  0  0
 62 68  1  0  0  0  0
 62 79  1  0  0  0  0
 63 67  1  0  0  0  0
 63 87  1  0  0  0  0
 65 69  1  0  0  0  0
 65 78  1  0  0  0  0
 66 80  1  0  0  0  0
 70 72  1  0  0  0  0
M  CHG  1  80   1
M  ISO  4  36 100  63 101  79 100  87 101
M  END
> <Batch ID>
0088

> <Smiles>
CNC(C)C(=O)NC(C(=O)N1Cc2cc([101O:1][101CH2:1]C(C)CCn3cc(C(C)(C)C[100NH:0][100C:0](=O)N4CCCC(n5nc(-c6ccc(Oc7ccc(F)cc7F)cc6)c(C(N)=O)c5N)C4)c(C(C)C)c3C)ccc2CC1C(=O)NC1CCCc2ccccc21)C(C)(C)C

> <Shape>
0.206

> <Color>
0.082

> <Negative vol penalty>
0.000

$$$$

  -OEChem-04052319043D

 91 99  0     1  0  0  0  0  0999 V2000
  -34.9818  -12.5942   18.4607 C   0  0  0  0  0  0  0  0  0  0  0  0
  -34.2427  -13.7218   18.8040 C   0  0  0  0  0  0  0  0  0  0  0  0
  -23.8082  -28.5459   24.5670 C   0  0  0  0  0  0  0  0  0  0  0  0
  -24.7336  -29.0035   22.3827 C   0  0  0  0  0  0  0  0  0  0  0  0
  -34.3417  -11.4816   17.9165 C   0  0  0  0  0  0  0  0  0  0  0  0
  -32.8631  -13.7377   18.6022 C   0  0  0  0  0  0  0  0  0  0  0  0
  -30.3416  -15.6278   22.5664 C   0  0  0  0  0  0  0  0  0  0  0  0
  -24.5015  -29.6376   25.0895 C   0  0  0  0  0  0  0  0  0  0  0  0
  -25.4269  -30.0953   22.9051 C   0  0  0  0  0  0  0  0  0  0  0  0
  -30.3293  -17.0144   22.7108 C   0  0  0  0  0  0  0  0  0  0  0  0
  -24.7480  -33.2883   23.7793 C   0  0  0  0  0  0  0  0  0  0  0  0
  -24.7229  -34.4783   23.0521 C   0  0  0  0  0  0  0  0  0  0  0  0
  -28.1216  -17.0897   21.7414 C   0  0  0  0  0  0  0  0  0  0  0  0
  -28.7617  -25.1547   18.9976 C   0  0  0  0  0  0  0  0  0  0  0  0
  -29.8536  -23.6753   20.5647 C   0  0  0  0  0  0  0  0  0  0  0  0
  -27.1302  -34.4110   22.8590 C   0  0  0  0  0  0  0  0  0  0  0  0
  -23.9243  -28.2288   23.2136 C   0  0  0  0  0  0  0  0  0  0  0  0
  -21.9127  -27.1001   22.1240 C   0  0  0  0  0  0  0  0  0  0  0  0
  -32.9521  -11.4803   17.7169 C   0  0  0  0  0  0  0  0  0  0  0  0
  -29.2466  -14.9617   21.9974 C   0  0  0  0  0  0  0  0  0  0  0  0
  -32.2039  -12.6246   18.0535 C   0  0  0  0  0  0  0  0  0  0  0  0
  -28.1215  -15.6943   21.5932 C   0  0  0  0  0  0  0  0  0  0  0  0
  -29.5859  -24.9653   20.1069 C   0  0  0  0  0  0  0  0  0  0  0  0
  -28.2051  -24.0539   18.3462 C   0  0  0  0  0  0  0  0  0  0  0  0
  -29.2971  -22.5745   19.9133 C   0  0  0  0  0  0  0  0  0  0  0  0
  -28.4729  -22.7638   18.8041 C   0  0  0  0  0  0  0  0  0  0  0  0
  -25.3109  -30.4123   24.2586 C   0  0  0  0  0  0  0  0  0  0  0  0
  -29.2204  -17.7459   22.2956 C   0  0  0  0  0  0  0  0  0  0  0  0
  -25.9642  -32.6597   24.0465 C   0  0  0  0  0  0  0  0  0  0  0  0
  -25.9140  -35.0396   22.5919 C   0  0  0  0  0  0  0  0  0  0  0  0
  -27.1553  -33.2210   23.5863 C   0  0  0  0  0  0  0  0  0  0  0  0
  -23.2088  -27.1008   22.6735 C   0  0  0  0  0  0  0  0  0  0  0  0
  -21.6957  -25.7943   21.7576 C   0  0  0  0  0  0  0  0  0  0  0  0
  -20.9876  -28.1831   21.9594 C   0  0  0  0  0  0  0  0  0  0  0  0
  -28.8103  -13.1660   19.4111 C   0  0  0  0  0  0  0  0  0  0  0  0
  -25.8482  -12.7604   20.6697 C   0  0  0  0  0  0  0  0  0  0  0  0
  -23.3772  -13.9458   22.7034 C   0  0  0  0  0  0  0  0  0  0  0  0
  -25.3784  -21.2946   20.3288 C   0  0  0  0  0  0  0  0  0  0  0  0
  -32.3111  -10.2719   17.0817 C   0  0  0  0  0  0  0  0  0  0  0  0
  -29.2646  -13.4628   21.8732 C   0  0  0  0  0  0  0  0  0  0  0  0
  -26.9122  -15.0248   20.9950 C   0  0  0  0  0  0  0  0  0  0  0  0
  -30.7942  -10.2291   17.2477 C   0  0  0  0  0  0  0  0  0  0  0  0
  -22.9380  -21.3229   22.9212 C   0  0  0  0  0  0  0  0  0  0  0  0
  -30.1828  -11.5876   16.9197 C   0  0  0  0  0  0  0  0  0  0  0  0
  -22.6137  -22.8069   23.1021 C   0  0  0  0  0  0  0  0  0  0  0  0
  -24.4153  -21.1028   22.6030 C   0  0  0  0  0  0  0  0  0  0  0  0
  -24.6000  -23.3628   21.6377 C   0  0  0  0  0  0  0  0  0  0  0  0
  -30.7021  -12.6709   17.8728 C   0  0  1  0  0  0  0  0  0  0  0  0
  -28.3054  -12.9400   20.8082 C   0  0  1  0  0  0  0  0  0  0  0  0
  -23.1105  -23.6394   21.9049 C   0  0  2  0  0  0  0  0  0  0  0  0
  -27.3268  -24.2838   17.1599 C   0  0  0  0  0  0  0  0  0  0  0  0
  -21.0576  -13.4148   23.5002 C   0  0  0  0  0  0  0  0  0  0  0  0
  -28.2490  -20.1874   18.7107 C   0  0  0  0  0  0  0  0  0  0  0  0
  -28.3710  -21.5246   16.6243 C   0  0  0  0  0  0  0  0  0  0  0  0
  -24.7195  -13.6772   17.9873 C   0  0  0  0  0  0  0  0  0  0  0  0
  -22.5145  -14.0375   19.1172 C   0  0  0  0  0  0  0  0  0  0  0  0
  -23.5081  -11.7512   19.0254 C   0  0  0  0  0  0  0  0  0  0  0  0
  -24.2602  -13.7732   25.5229 C   0  0  0  0  0  0  0  0  0  0  0  0
  -27.8161  -25.4404   25.2403 C   0  0  0  0  0  0  0  0  0  0  0  0
  -28.7210  -27.6812   24.6397 C   0  0  0  0  0  0  0  0  0  0  0  0
  -30.1803  -26.1422   20.8037 C   0  0  0  0  0  0  0  0  0  0  0  0
  -29.6023  -21.1905   20.4282 C   0  0  0  0  0  0  0  0  0  0  0  0
  -29.3147  -26.7121   21.9443 C   0  0  0  0  0  0  0  0  0  0  0  0
  -30.2366  -21.1773   21.8207 C   0  0  0  0  0  0  0  0  0  0  0  0
  -26.3089  -21.6465   18.0552 C   0  0  0  0  0  0  0  0  0  0  0  0
  -29.0509  -25.7520   23.1002 C   0  0  0  0  0  0  0  0  0  0  0  0
  -30.4624  -19.7727   22.3680 C   0  0  0  0  0  0  0  0  0  1  0  0
  -24.5294  -13.4860   20.5550 C   0  0  1  0  0  0  0  0  0  0  0  0
  -22.5457  -13.2688   23.7780 C   0  0  2  0  0  0  0  0  0  0  0  0
  -27.8764  -21.5837   18.1052 C   0  0  0  0  0  0  0  0  0  0  0  0
  -23.8413  -13.2511   19.1807 C   0  0  0  0  0  0  0  0  0  0  0  0
  -23.7753  -25.8913   22.6595 N   0  0  0  0  0  0  0  0  0  0  0  0
  -22.8307  -25.1184   22.0970 N   0  0  0  0  0  0  0  0  0  0  0  0
  -26.9804  -13.5580   20.8886 N   0  0  0  0  0  0  0  0  0  0  0  0
  -24.8224  -21.9196   21.4572 N   0  0  0  0  0  0  0  0  0  0  0  0
  -20.6466  -25.1698   21.1815 N   0  0  0  0  0  0  0  0  0  0  0  0
  -21.3709  -29.4605   22.3903 N   0  0  0  0  0  0  0  0  0  0  0  0
  -30.0347  -12.5795   19.1536 N   0  0  0  0  0  0  0  0  0  0  0  0
  -23.7315  -13.0665   21.7021 N   0  0  0  0  0  0  0  0  0  0  0  0
  -25.7310  -22.1411   19.2849 N   0  0  0  0  0  0  0  0  0  0  0  0
  -22.8358  -13.8676   25.1115 N   0  3  0  0  0  0  0  0  0  0  0  0
  -28.1683  -26.3791   24.1113 N   0  3  0  0  0  0  0  0  0  0  0  0
  -19.8483  -28.0196   21.4606 O   0  0  0  0  0  0  0  0  0  0  0  0
  -28.1380  -13.8225   18.6246 O   0  0  0  0  0  0  0  0  0  0  0  0
  -25.8720  -11.5306   20.5759 O   0  0  0  0  0  0  0  0  0  0  0  0
  -23.6789  -15.1364   22.7459 O   0  0  0  0  0  0  0  0  0  0  0  0
  -25.5430  -20.0721   20.2549 O   0  0  0  0  0  0  0  0  0  0  0  0
  -25.9874  -31.4779   24.7680 O   0  0  0  0  0  0  0  0  0  0  0  0
  -29.2060  -19.0995   22.4348 O   0  0  0  0  0  0  0  0  0  1  0  0
  -25.8896  -36.1815   21.8922 F   0  0  0  0  0  0  0  0  0  0  0  0
  -28.3267  -32.6211   23.8388 F   0  0  0  0  0  0  0  0  0  0  0  0
  1  2  1  0  0  0  0
  1  5  2  0  0  0  0
  2  6  2  0  0  0  0
  3  8  2  0  0  0  0
  3 17  1  0  0  0  0
  4  9  1  0  0  0  0
  4 17  2  0  0  0  0
  5 19  1  0  0  0  0
  6 21  1  0  0  0  0
  7 10  2  0  0  0  0
  7 20  1  0  0  0  0
  8 27  1  0  0  0  0
  9 27  2  0  0  0  0
 10 28  1  0  0  0  0
 11 12  2  0  0  0  0
 11 29  1  0  0  0  0
 12 30  1  0  0  0  0
 13 22  1  0  0  0  0
 13 28  2  0  0  0  0
 14 23  1  0  0  0  0
 14 24  2  0  0  0  0
 15 23  2  0  0  0  0
 15 25  1  0  0  0  0
 16 30  2  0  0  0  0
 16 31  1  0  0  0  0
 17 32  1  0  0  0  0
 18 32  1  0  0  0  0
 18 33  2  0  0  0  0
 18 34  1  0  0  0  0
 19 21  2  0  0  0  0
 19 39  1  0  0  0  0
 20 22  2  0  0  0  0
 20 40  1  0  0  0  0
 21 48  1  0  0  0  0
 22 41  1  0  0  0  0
 23 61  1  0  0  0  0
 24 26  1  0  0  0  0
 24 51  1  0  0  0  0
 25 26  2  0  0  0  0
 25 62  1  0  0  0  0
 26 70  1  0  0  0  0
 27 88  1  0  0  0  0
 28 89  1  0  0  0  0
 29 31  2  0  0  0  0
 29 88  1  0  0  0  0
 30 90  1  0  0  0  0
 31 91  1  0  0  0  0
 32 72  2  0  0  0  0
 33 73  1  0  0  0  0
 33 76  1  0  0  0  0
 34 77  1  0  0  0  0
 34 83  2  0  0  0  0
 35 49  1  0  0  0  0
 35 78  1  0  0  0  0
 35 84  2  0  0  0  0
 36 68  1  0  0  0  0
 36 74  1  0  0  0  0
 36 85  2  0  0  0  0
 37 69  1  0  0  0  0
 37 79  1  0  0  0  0
 37 86  2  0  0  0  0
 38 75  1  0  0  0  0
 38 80  1  0  0  0  0
 38 87  2  0  0  0  0
 39 42  1  0  0  0  0
 40 49  1  0  0  0  0
 41 74  1  0  0  0  0
 42 44  1  0  0  0  0
 43 45  1  0  0  0  0
 43 46  1  0  0  0  0
 44 48  1  0  0  0  0
 45 50  1  0  0  0  0
 46 75  1  0  0  0  0
 47 50  1  0  0  0  0
 47 75  1  0  0  0  0
 48 78  1  0  0  0  0
 49 74  1  0  0  0  0
 50 73  1  0  0  0  0
 52 69  1  0  0  0  0
 53 70  1  0  0  0  0
 54 70  1  0  0  0  0
 55 71  1  0  0  0  0
 56 71  1  0  0  0  0
 57 71  1  0  0  0  0
 58 81  1  0  0  0  0
 59 82  1  0  0  0  0
 60 82  1  0  0  0  0
 61 63  1  0  0  0  0
 62 64  1  0  0  0  0
 63 66  1  0  0  0  0
 64 67  1  0  0  0  0
 65 70  1  0  0  0  0
 65 80  1  0  0  0  0
 66 82  1  0  0  0  0
 67 89  1  0  0  0  0
 68 71  1  0  0  0  0
 68 79  1  0  0  0  0
 69 81  1  0  0  0  0
 72 73  1  0  0  0  0
M  CHG  2  81   1  82   1
M  ISO  4  38 100  67 101  80 100  89 101
M  END
> <Batch ID>
0088

> <Smiles>
CNC(C)C(=O)NC(C(=O)N1Cc2cc([101O:1][101CH2:1]CCc3cc(CCCN(C)C)cc(C)c3C(C)(C)C[100NH:0][100C:0](=O)N3CCCC(n4nc(-c5ccc(Oc6ccc(F)cc6F)cc5)c(C(N)=O)c4N)C3)ccc2CC1C(=O)NC1CCCc2ccccc21)C(C)(C)C

> <Shape>
0.249

> <Color>
0.037

> <Negative vol penalty>
0.000

$$$$

  -OEChem-04052319043D

 90 98  0     1  0  0  0  0  0999 V2000
  -20.3040  -19.6674   28.7369 C   0  0  0  0  0  0  0  0  0  0  0  0
  -21.3938  -18.9801   28.2122 C   0  0  0  0  0  0  0  0  0  0  0  0
  -23.0006   -9.8942   19.9816 C   0  0  0  0  0  0  0  0  0  0  0  0
  -23.7310   -9.9439   22.2840 C   0  0  0  0  0  0  0  0  0  0  0  0
  -20.5002  -20.8708   29.4132 C   0  0  0  0  0  0  0  0  0  0  0  0
  -22.6804  -19.4963   28.3625 C   0  0  0  0  0  0  0  0  0  0  0  0
  -27.8558  -16.3157   29.1396 C   0  0  0  0  0  0  0  0  0  0  0  0
  -22.2358   -8.7588   20.2487 C   0  0  0  0  0  0  0  0  0  0  0  0
  -22.9662   -8.8084   22.5511 C   0  0  0  0  0  0  0  0  0  0  0  0
  -28.8599  -15.9270   28.2539 C   0  0  0  0  0  0  0  0  0  0  0  0
  -23.2127   -5.4702   22.0757 C   0  0  0  0  0  0  0  0  0  0  0  0
  -23.8030   -4.4529   22.8256 C   0  0  0  0  0  0  0  0  0  0  0  0
  -30.1623  -17.8539   28.8941 C   0  0  0  0  0  0  0  0  0  0  0  0
  -29.5950  -18.7494   24.9159 C   0  0  0  0  0  0  0  0  0  0  0  0
  -22.0827   -4.6926   24.5050 C   0  0  0  0  0  0  0  0  0  0  0  0
  -23.7483  -10.4868   20.9993 C   0  0  0  0  0  0  0  0  0  0  0  0
  -24.1307  -13.0029   20.8246 C   0  0  0  0  0  0  0  0  0  0  0  0
  -21.7908  -21.3971   29.5803 C   0  0  0  0  0  0  0  0  0  0  0  0
  -27.9929  -17.4842   29.9026 C   0  0  0  0  0  0  0  0  0  0  0  0
  -22.8939  -20.7085   29.0405 C   0  0  0  0  0  0  0  0  0  0  0  0
  -29.1597  -18.2539   29.7907 C   0  0  0  0  0  0  0  0  0  0  0  0
  -28.4011  -19.2909   24.4395 C   0  0  0  0  0  0  0  0  0  0  0  0
  -30.3809  -17.9529   24.0830 C   0  0  0  0  0  0  0  0  0  0  0  0
  -28.7790  -18.2395   22.2973 C   0  0  0  0  0  0  0  0  0  0  0  0
  -27.9931  -19.0360   23.1302 C   0  0  0  0  0  0  0  0  0  0  0  0
  -29.9729  -17.6980   22.7738 C   0  0  0  0  0  0  0  0  0  0  0  0
  -22.2186   -8.2159   21.5334 C   0  0  0  0  0  0  0  0  0  0  0  0
  -30.0121  -16.6977   28.1289 C   0  0  0  0  0  0  0  0  0  0  0  0
  -22.0575   -6.0988   22.5405 C   0  0  0  0  0  0  0  0  0  0  0  0
  -23.2380   -4.0641   24.0402 C   0  0  0  0  0  0  0  0  0  0  0  0
  -21.4925   -5.7100   23.7551 C   0  0  0  0  0  0  0  0  0  0  0  0
  -24.5390  -11.6594   20.7239 C   0  0  0  0  0  0  0  0  0  0  0  0
  -25.2389  -13.7269   20.4583 C   0  0  0  0  0  0  0  0  0  0  0  0
  -22.8631  -13.5477   21.2145 C   0  0  0  0  0  0  0  0  0  0  0  0
  -26.3955  -20.2240   30.1161 C   0  0  0  0  0  0  0  0  0  0  0  0
  -28.4361  -20.7715   32.5775 C   0  0  0  0  0  0  0  0  0  0  0  0
  -31.4400  -20.1048   34.0535 C   0  0  0  0  0  0  0  0  0  0  0  0
  -30.7349  -14.6667   20.6951 C   0  0  0  0  0  0  0  0  0  0  0  0
  -21.9484  -22.7251   30.2777 C   0  0  0  0  0  0  0  0  0  0  0  0
  -26.9125  -17.8755   30.8731 C   0  0  0  0  0  0  0  0  0  0  0  0
  -29.3645  -19.5061   30.6020 C   0  0  0  0  0  0  0  0  0  0  0  0
  -23.3806  -23.0147   30.7196 C   0  0  0  0  0  0  0  0  0  0  0  0
  -29.5913  -12.2440   18.3501 C   0  0  0  0  0  0  0  0  0  0  0  0
  -24.3600  -22.7067   29.5915 C   0  0  0  0  0  0  0  0  0  0  0  0
  -28.1440  -11.9825   18.7708 C   0  0  0  0  0  0  0  0  0  0  0  0
  -30.4962  -12.4792   19.5575 C   0  0  0  0  0  0  0  0  0  0  0  0
  -28.5884  -13.2717   20.9013 C   0  0  0  0  0  0  0  0  0  0  0  0
  -24.3073  -21.2238   29.2047 C   0  0  1  0  0  0  0  0  0  0  0  0
  -26.9321  -19.3604   31.2224 C   0  0  1  0  0  0  0  0  0  0  0  0
  -27.6268  -13.0841   19.7153 C   0  0  2  0  0  0  0  0  0  0  0  0
  -28.3412  -17.9662   20.8928 C   0  0  0  0  0  0  0  0  0  0  0  0
  -25.4919  -18.8622   23.1373 C   0  0  0  0  0  0  0  0  0  0  0  0
  -31.2962  -17.5896   20.6293 C   0  0  0  0  0  0  0  0  0  0  0  0
  -32.8429  -20.7334   36.0370 C   0  0  0  0  0  0  0  0  0  0  0  0
  -28.0016  -23.8547   26.5043 C   0  0  0  0  0  0  0  0  0  0  0  0
  -25.8940  -22.6367   25.9260 C   0  0  0  0  0  0  0  0  0  0  0  0
  -29.1598  -23.4098   31.2264 C   0  0  0  0  0  0  0  0  0  0  0  0
  -31.1855  -23.5250   32.6931 C   0  0  0  0  0  0  0  0  0  0  0  0
  -28.9082  -23.5447   33.7109 C   0  0  0  0  0  0  0  0  0  0  0  0
  -31.4321  -17.3307   35.0847 C   0  0  0  0  0  0  0  0  0  0  0  0
  -27.5776  -20.1401   25.3518 C   0  0  0  0  0  0  0  0  0  0  0  0
  -31.6672  -17.3804   24.6228 C   0  0  0  0  0  0  0  0  0  0  0  0
  -26.7120  -19.6177   22.6221 C   0  0  0  0  0  0  0  0  0  0  0  0
  -31.5789  -15.8944   24.9773 C   0  0  0  0  0  0  0  0  0  0  0  0
  -28.1659  -21.5539   25.5081 C   0  0  0  0  0  0  0  0  0  0  0  0
  -30.5919  -15.5993   26.1007 C   0  0  0  0  0  0  0  0  0  1  0  0
  -30.8182  -16.8447   21.8820 C   0  0  2  0  0  0  0  0  0  0  0  0
  -29.8019  -21.3999   32.7143 C   0  0  1  0  0  0  0  0  0  0  0  0
  -31.8047  -19.7673   35.4880 C   0  0  2  0  0  0  0  0  0  0  0  0
  -27.3344  -22.4799   26.4152 C   0  0  0  0  0  0  0  0  0  0  0  0
  -29.7594  -22.9474   32.5693 C   0  0  0  0  0  0  0  0  0  0  0  0
  -25.8075  -11.5345   20.3247 N   0  0  0  0  0  0  0  0  0  0  0  0
  -26.2058  -12.8088   20.1713 N   0  0  0  0  0  0  0  0  0  0  0  0
  -28.2767  -19.8503   31.5326 N   0  0  0  0  0  0  0  0  0  0  0  0
  -29.9503  -13.5366   20.4118 N   0  0  0  0  0  0  0  0  0  0  0  0
  -25.4709  -15.0530   20.3569 N   0  0  0  0  0  0  0  0  0  0  0  0
  -21.8330  -12.6623   21.5596 N   0  0  0  0  0  0  0  0  0  0  0  0
  -25.0292  -20.4235   30.1705 N   0  0  0  0  0  0  0  0  0  0  0  0
  -30.3401  -20.9336   33.9876 N   0  0  0  0  0  0  0  0  0  0  0  0
  -30.1395  -15.6242   21.5072 N   0  0  0  0  0  0  0  0  0  0  0  0
  -32.3579  -18.3860   35.5706 N   0  3  0  0  0  0  0  0  0  0  0  0
  -22.6452  -14.7828   21.2398 O   0  0  0  0  0  0  0  0  0  0  0  0
  -27.1643  -20.6770   29.2763 O   0  0  0  0  0  0  0  0  0  0  0  0
  -27.5456  -21.0810   33.3730 O   0  0  0  0  0  0  0  0  0  0  0  0
  -32.0704  -19.6790   33.0882 O   0  0  0  0  0  0  0  0  0  0  0  0
  -31.8792  -14.8141   20.2526 O   0  0  0  0  0  0  0  0  0  0  0  0
  -21.4722   -7.1080   21.7945 O   0  0  0  0  0  0  0  0  0  0  0  0
  -30.9933  -16.3209   27.2646 O   0  0  0  0  0  0  0  0  0  1  0  0
  -23.8040   -3.0861   24.7594 F   0  0  0  0  0  0  0  0  0  0  0  0
  -20.3820   -6.3093   24.2062 F   0  0  0  0  0  0  0  0  0  0  0  0
  1  2  1  0  0  0  0
  1  5  2  0  0  0  0
  2  6  2  0  0  0  0
  3  8  2  0  0  0  0
  3 16  1  0  0  0  0
  4  9  1  0  0  0  0
  4 16  2  0  0  0  0
  5 18  1  0  0  0  0
  6 20  1  0  0  0  0
  7 10  2  0  0  0  0
  7 19  1  0  0  0  0
  8 27  1  0  0  0  0
  9 27  2  0  0  0  0
 10 28  1  0  0  0  0
 11 12  2  0  0  0  0
 11 29  1  0  0  0  0
 12 30  1  0  0  0  0
 13 21  1  0  0  0  0
 13 28  2  0  0  0  0
 14 22  2  0  0  0  0
 14 23  1  0  0  0  0
 15 30  2  0  0  0  0
 15 31  1  0  0  0  0
 16 32  1  0  0  0  0
 17 32  1  0  0  0  0
 17 33  2  0  0  0  0
 17 34  1  0  0  0  0
 18 20  2  0  0  0  0
 18 39  1  0  0  0  0
 19 21  2  0  0  0  0
 19 40  1  0  0  0  0
 20 48  1  0  0  0  0
 21 41  1  0  0  0  0
 22 25  1  0  0  0  0
 22 61  1  0  0  0  0
 23 26  2  0  0  0  0
 23 62  1  0  0  0  0
 24 25  2  0  0  0  0
 24 26  1  0  0  0  0
 24 51  1  0  0  0  0
 25 63  1  0  0  0  0
 26 67  1  0  0  0  0
 27 87  1  0  0  0  0
 28 88  1  0  0  0  0
 29 31  2  0  0  0  0
 29 87  1  0  0  0  0
 30 89  1  0  0  0  0
 31 90  1  0  0  0  0
 32 72  2  0  0  0  0
 33 73  1  0  0  0  0
 33 76  1  0  0  0  0
 34 77  1  0  0  0  0
 34 82  2  0  0  0  0
 35 49  1  0  0  0  0
 35 78  1  0  0  0  0
 35 83  2  0  0  0  0
 36 68  1  0  0  0  0
 36 74  1  0  0  0  0
 36 84  2  0  0  0  0
 37 69  1  0  0  0  0
 37 79  1  0  0  0  0
 37 85  2  0  0  0  0
 38 75  1  0  0  0  0
 38 80  1  0  0  0  0
 38 86  2  0  0  0  0
 39 42  1  0  0  0  0
 40 49  1  0  0  0  0
 41 74  1  0  0  0  0
 42 44  1  0  0  0  0
 43 45  1  0  0  0  0
 43 46  1  0  0  0  0
 44 48  1  0  0  0  0
 45 50  1  0  0  0  0
 46 75  1  0  0  0  0
 47 50  1  0  0  0  0
 47 75  1  0  0  0  0
 48 78  1  0  0  0  0
 49 74  1  0  0  0  0
 50 73  1  0  0  0  0
 52 63  1  0  0  0  0
 53 67  1  0  0  0  0
 54 69  1  0  0  0  0
 55 70  1  0  0  0  0
 56 70  1  0  0  0  0
 57 71  1  0  0  0  0
 58 71  1  0  0  0  0
 59 71  1  0  0  0  0
 60 81  1  0  0  0  0
 61 65  1  0  0  0  0
 62 64  1  0  0  0  0
 64 66  1  0  0  0  0
 65 70  1  0  0  0  0
 66 88  1  0  0  0  0
 67 80  1  0  0  0  0
 68 71  1  0  0  0  0
 68 79  1  0  0  0  0
 69 81  1  0  0  0  0
 72 73  1  0  0  0  0
M  CHG  1  81   1
M  ISO  4  38 100  66 101  80 100  88 101
M  END
> <Batch ID>
0088

> <Smiles>
CCc1c(CCC(C)C)cc(CC[101CH2:1][101O:1]c2ccc3c(c2)CN(C(=O)C(NC(=O)C(C)NC)C(C)(C)C)C(C(=O)NC2CCCc4ccccc42)C3)c(C(C)[100NH:0][100C:0](=O)N2CCCC(n3nc(-c4ccc(Oc5ccc(F)cc5F)cc4)c(C(N)=O)c3N)C2)c1C

> <Shape>
0.179

> <Color>
0.197

> <Negative vol penalty>
0.000

$$$$

  -OEChem-04052319043D

 86 94  0     1  0  0  0  0  0999 V2000
  -26.8366  -34.8471   25.2218 C   0  0  0  0  0  0  0  0  0  0  0  0
  -27.2280  -33.5938   24.7620 C   0  0  0  0  0  0  0  0  0  0  0  0
  -27.0522  -12.0994   21.5171 C   0  0  0  0  0  0  0  0  0  0  0  0
  -26.1342  -13.7165   19.9746 C   0  0  0  0  0  0  0  0  0  0  0  0
  -25.4918  -35.1023   25.4870 C   0  0  0  0  0  0  0  0  0  0  0  0
  -26.2749  -32.5946   24.5682 C   0  0  0  0  0  0  0  0  0  0  0  0
  -26.9111  -30.1252   20.1930 C   0  0  0  0  0  0  0  0  0  0  0  0
  -26.1784  -11.1313   21.0223 C   0  0  0  0  0  0  0  0  0  0  0  0
  -25.2603  -12.7484   19.4798 C   0  0  0  0  0  0  0  0  0  0  0  0
  -27.9189  -29.1630   20.1456 C   0  0  0  0  0  0  0  0  0  0  0  0
  -23.9409   -8.3304   20.4122 C   0  0  0  0  0  0  0  0  0  0  0  0
  -23.2722   -7.5258   21.3347 C   0  0  0  0  0  0  0  0  0  0  0  0
  -26.2704  -27.4297   20.4578 C   0  0  0  0  0  0  0  0  0  0  0  0
  -29.4229  -22.2300   20.1987 C   0  0  0  0  0  0  0  0  0  0  0  0
  -22.2531   -9.4885   22.3077 C   0  0  0  0  0  0  0  0  0  0  0  0
  -27.0301  -13.3920   20.9933 C   0  0  0  0  0  0  0  0  0  0  0  0
  -29.2283  -14.6856   21.0398 C   0  0  0  0  0  0  0  0  0  0  0  0
  -24.5205  -34.1088   25.2871 C   0  0  0  0  0  0  0  0  0  0  0  0
  -25.5744  -29.7470   20.3843 C   0  0  0  0  0  0  0  0  0  0  0  0
  -24.9160  -32.8363   24.8323 C   0  0  0  0  0  0  0  0  0  0  0  0
  -25.2472  -28.3888   20.5046 C   0  0  0  0  0  0  0  0  0  0  0  0
  -28.7859  -21.2325   19.4690 C   0  0  0  0  0  0  0  0  0  0  0  0
  -28.8612  -22.6794   21.3887 C   0  0  0  0  0  0  0  0  0  0  0  0
  -25.2824  -11.4558   20.0036 C   0  0  0  0  0  0  0  0  0  0  0  0
  -27.5990  -27.8152   20.2809 C   0  0  0  0  0  0  0  0  0  0  0  0
  -23.7658   -9.7140   20.4374 C   0  0  0  0  0  0  0  0  0  0  0  0
  -22.4283   -8.1048   22.2825 C   0  0  0  0  0  0  0  0  0  0  0  0
  -22.9219  -10.2930   21.3852 C   0  0  0  0  0  0  0  0  0  0  0  0
  -27.9321  -14.3926   21.5044 C   0  0  0  0  0  0  0  0  0  0  0  0
  -27.5989  -20.7211   19.9683 C   0  0  0  0  0  0  0  0  0  0  0  0
  -27.6707  -22.1034   21.8020 C   0  0  0  0  0  0  0  0  0  0  0  0
  -29.6612  -15.7061   21.8507 C   0  0  0  0  0  0  0  0  0  0  0  0
  -29.9743  -14.0887   19.9707 C   0  0  0  0  0  0  0  0  0  0  0  0
  -23.3811  -30.3103   22.6150 C   0  0  0  0  0  0  0  0  0  0  0  0
  -21.4385  -28.7347   20.5496 C   0  0  0  0  0  0  0  0  0  0  0  0
  -21.1366  -26.4994   17.9886 C   0  0  0  0  0  0  0  0  0  0  0  0
  -26.7863  -19.8796   25.0394 C   0  0  0  0  0  0  0  0  0  0  0  0
  -23.0851  -34.4169   25.6326 C   0  0  0  0  0  0  0  0  0  0  0  0
  -24.4958  -30.7951   20.4064 C   0  0  0  0  0  0  0  0  0  0  0  0
  -23.8252  -27.9292   20.6916 C   0  0  0  0  0  0  0  0  0  0  0  0
  -22.0896  -33.4204   25.0442 C   0  0  0  0  0  0  0  0  0  0  0  0
  -29.1094  -17.4744   26.2620 C   0  0  0  0  0  0  0  0  0  0  0  0
  -22.5644  -31.9899   25.2785 C   0  0  0  0  0  0  0  0  0  0  0  0
  -29.1881  -16.4382   25.1394 C   0  0  0  0  0  0  0  0  0  0  0  0
  -27.6965  -18.0327   26.4167 C   0  0  0  0  0  0  0  0  0  0  0  0
  -27.1852  -17.5405   24.0566 C   0  0  0  0  0  0  0  0  0  0  0  0
  -23.9085  -31.7343   24.5860 C   0  0  1  0  0  0  0  0  0  0  0  0
  -23.2290  -30.3340   21.1204 C   0  0  1  0  0  0  0  0  0  0  0  0
  -28.6028  -16.9897   23.8254 C   0  0  2  0  0  0  0  0  0  0  0  0
  -29.3826  -20.7467   18.1934 C   0  0  0  0  0  0  0  0  0  0  0  0
  -26.1234  -18.7034   20.1633 C   0  0  0  0  0  0  0  0  0  0  0  0
  -19.4181  -25.3868   16.5373 C   0  0  0  0  0  0  0  0  0  0  0  0
  -30.4938  -26.0871   22.2894 C   0  0  0  0  0  0  0  0  0  0  0  0
  -20.6807  -26.8941   22.8622 C   0  0  0  0  0  0  0  0  0  0  0  0
  -19.7503  -25.2849   21.1849 C   0  0  0  0  0  0  0  0  0  0  0  0
  -18.7698  -27.5689   21.3967 C   0  0  0  0  0  0  0  0  0  0  0  0
  -22.2913  -27.6669   15.5263 C   0  0  0  0  0  0  0  0  0  0  0  0
  -29.5474  -23.7622   22.1856 C   0  0  0  0  0  0  0  0  0  0  0  0
  -26.8697  -19.6489   19.2270 C   0  0  0  0  0  0  0  0  0  0  0  0
  -27.0231  -22.5463   23.0730 C   0  0  0  0  0  0  0  0  0  0  0  0
  -25.8828  -21.6303   23.5302 C   0  0  0  0  0  0  0  0  0  0  0  0
  -28.3711  -25.6799   20.9883 C   0  0  0  0  0  0  0  0  0  1  0  0
  -21.0489  -27.2917   20.3378 C   0  0  1  0  0  0  0  0  0  0  0  0
  -20.3698  -26.5643   16.6800 C   0  0  2  0  0  0  0  0  0  0  0  0
  -29.7210  -25.0883   21.4185 C   0  0  1  0  0  0  0  0  0  0  0  0
  -20.0895  -26.7684   21.4438 C   0  0  0  0  0  0  0  0  0  0  0  0
  -27.5656  -15.1645   22.5310 N   0  0  0  0  0  0  0  0  0  0  0  0
  -27.0229  -21.1323   21.1201 N   0  0  0  0  0  0  0  0  0  0  0  0
  -28.6380  -15.9525   22.7182 N   0  0  0  0  0  0  0  0  0  0  0  0
  -22.8070  -28.9924   20.7128 N   0  0  0  0  0  0  0  0  0  0  0  0
  -27.2006  -18.5409   25.1354 N   0  0  0  0  0  0  0  0  0  0  0  0
  -30.8136  -16.4076   21.8993 N   0  0  0  0  0  0  0  0  0  0  0  0
  -29.3797  -13.0518   19.2387 N   0  0  0  0  0  0  0  0  0  0  0  0
  -23.7152  -31.5327   23.1660 N   0  0  0  0  0  0  0  0  0  0  0  0
  -20.5043  -27.2100   18.9868 N   0  0  0  0  0  0  0  0  0  0  0  0
  -26.3362  -20.2817   23.7878 N   0  0  0  0  0  0  0  0  0  0  0  0
  -21.3126  -26.5493   15.5259 N   0  3  0  0  0  0  0  0  0  0  0  0
  -31.1400  -14.4525   19.6840 O   0  0  0  0  0  0  0  0  0  0  0  0
  -23.2068  -29.2610   23.2235 O   0  0  0  0  0  0  0  0  0  0  0  0
  -20.5616  -29.6022   20.5624 O   0  0  0  0  0  0  0  0  0  0  0  0
  -22.1891  -25.8772   18.1137 O   0  0  0  0  0  0  0  0  0  0  0  0
  -26.8204  -20.6602   25.9967 O   0  0  0  0  0  0  0  0  0  0  0  0
  -24.4298  -10.5114   19.5204 O   0  0  0  0  0  0  0  0  0  0  0  0
  -28.5809  -26.8740   20.2357 O   0  0  0  0  0  0  0  0  0  1  0  0
  -21.7850   -7.3320   23.1674 F   0  0  0  0  0  0  0  0  0  0  0  0
  -22.7488  -11.6216   21.4136 F   0  0  0  0  0  0  0  0  0  0  0  0
  1  2  1  0  0  0  0
  1  5  2  0  0  0  0
  2  6  2  0  0  0  0
  3  8  2  0  0  0  0
  3 16  1  0  0  0  0
  4  9  1  0  0  0  0
  4 16  2  0  0  0  0
  5 18  1  0  0  0  0
  6 20  1  0  0  0  0
  7 10  2  0  0  0  0
  7 19  1  0  0  0  0
  8 24  1  0  0  0  0
  9 24  2  0  0  0  0
 10 25  1  0  0  0  0
 11 12  2  0  0  0  0
 11 26  1  0  0  0  0
 12 27  1  0  0  0  0
 13 21  1  0  0  0  0
 13 25  2  0  0  0  0
 14 22  1  0  0  0  0
 14 23  2  0  0  0  0
 15 27  2  0  0  0  0
 15 28  1  0  0  0  0
 16 29  1  0  0  0  0
 17 29  1  0  0  0  0
 17 32  2  0  0  0  0
 17 33  1  0  0  0  0
 18 20  2  0  0  0  0
 18 38  1  0  0  0  0
 19 21  2  0  0  0  0
 19 39  1  0  0  0  0
 20 47  1  0  0  0  0
 21 40  1  0  0  0  0
 22 30  2  0  0  0  0
 22 50  1  0  0  0  0
 23 31  1  0  0  0  0
 23 58  1  0  0  0  0
 24 83  1  0  0  0  0
 25 84  1  0  0  0  0
 26 28  2  0  0  0  0
 26 83  1  0  0  0  0
 27 85  1  0  0  0  0
 28 86  1  0  0  0  0
 29 67  2  0  0  0  0
 30 59  1  0  0  0  0
 30 68  1  0  0  0  0
 31 60  1  0  0  0  0
 31 68  2  0  0  0  0
 32 69  1  0  0  0  0
 32 72  1  0  0  0  0
 33 73  1  0  0  0  0
 33 78  2  0  0  0  0
 34 48  1  0  0  0  0
 34 74  1  0  0  0  0
 34 79  2  0  0  0  0
 35 63  1  0  0  0  0
 35 70  1  0  0  0  0
 35 80  2  0  0  0  0
 36 64  1  0  0  0  0
 36 75  1  0  0  0  0
 36 81  2  0  0  0  0
 37 71  1  0  0  0  0
 37 76  1  0  0  0  0
 37 82  2  0  0  0  0
 38 41  1  0  0  0  0
 39 48  1  0  0  0  0
 40 70  1  0  0  0  0
 41 43  1  0  0  0  0
 42 44  1  0  0  0  0
 42 45  1  0  0  0  0
 43 47  1  0  0  0  0
 44 49  1  0  0  0  0
 45 71  1  0  0  0  0
 46 49  1  0  0  0  0
 46 71  1  0  0  0  0
 47 74  1  0  0  0  0
 48 70  1  0  0  0  0
 49 69  1  0  0  0  0
 51 59  1  0  0  0  0
 52 64  1  0  0  0  0
 53 65  1  0  0  0  0
 54 66  1  0  0  0  0
 55 66  1  0  0  0  0
 56 66  1  0  0  0  0
 57 77  1  0  0  0  0
 58 65  1  0  0  0  0
 60 61  1  0  0  0  0
 61 76  1  0  0  0  0
 62 65  1  0  0  0  0
 62 84  1  0  0  0  0
 63 66  1  0  0  0  0
 63 75  1  0  0  0  0
 64 77  1  0  0  0  0
 67 69  1  0  0  0  0
M  CHG  1  77   1
M  ISO  4  37 100  62 101  76 100  84 101
M  END
> <Batch ID>
0088

> <Smiles>
CCc1nc(CC[100NH:0][100C:0](=O)N2CCCC(n3nc(-c4ccc(Oc5ccc(F)cc5F)cc4)c(C(N)=O)c3N)C2)c(CC(C)[101CH2:1][101O:1]c2ccc3c(c2)CN(C(=O)C(NC(=O)C(C)NC)C(C)(C)C)C(C(=O)NC2CCCc4ccccc42)C3)cc1C

> <Shape>
0.294

> <Color>
0.085

> <Negative vol penalty>
0.000

$$$$

  -OEChem-04052319043D

 87 95  0     1  0  0  0  0  0999 V2000
  -32.2669  -14.5964   21.2607 C   0  0  0  0  0  0  0  0  0  0  0  0
  -31.3663  -15.4451   21.8964 C   0  0  0  0  0  0  0  0  0  0  0  0
  -22.1793  -27.8272   21.0290 C   0  0  0  0  0  0  0  0  0  0  0  0
  -23.4103  -27.2851   23.0359 C   0  0  0  0  0  0  0  0  0  0  0  0
  -31.8517  -13.8303   20.1723 C   0  0  0  0  0  0  0  0  0  0  0  0
  -30.0502  -15.5290   21.4433 C   0  0  0  0  0  0  0  0  0  0  0  0
  -26.6838  -15.4344   25.2252 C   0  0  0  0  0  0  0  0  0  0  0  0
  -20.9822  -27.7400   21.7396 C   0  0  0  0  0  0  0  0  0  0  0  0
  -22.2132  -27.1980   23.7466 C   0  0  0  0  0  0  0  0  0  0  0  0
  -26.5030  -16.6138   25.9464 C   0  0  0  0  0  0  0  0  0  0  0  0
  -17.6252  -28.0147   23.1069 C   0  0  0  0  0  0  0  0  0  0  0  0
  -16.6776  -29.0184   22.9067 C   0  0  0  0  0  0  0  0  0  0  0  0
  -24.5068  -17.0786   24.6744 C   0  0  0  0  0  0  0  0  0  0  0  0
  -18.2623  -30.6691   23.6819 C   0  0  0  0  0  0  0  0  0  0  0  0
  -29.1018  -21.2507   24.0887 C   0  0  0  0  0  0  0  0  0  0  0  0
  -23.3933  -27.5997   21.6771 C   0  0  0  0  0  0  0  0  0  0  0  0
  -25.4302  -28.8330   20.7619 C   0  0  0  0  0  0  0  0  0  0  0  0
  -30.5273  -13.8977   19.7116 C   0  0  0  0  0  0  0  0  0  0  0  0
  -25.7818  -15.0732   24.2141 C   0  0  0  0  0  0  0  0  0  0  0  0
  -29.6173  -14.7641   20.3468 C   0  0  0  0  0  0  0  0  0  0  0  0
  -24.6768  -15.8929   23.9436 C   0  0  0  0  0  0  0  0  0  0  0  0
  -20.9992  -27.4254   23.0984 C   0  0  0  0  0  0  0  0  0  0  0  0
  -25.4160  -17.4376   25.6691 C   0  0  0  0  0  0  0  0  0  0  0  0
  -18.8913  -28.3381   23.5947 C   0  0  0  0  0  0  0  0  0  0  0  0
  -16.9961  -30.3456   23.1942 C   0  0  0  0  0  0  0  0  0  0  0  0
  -19.2099  -29.6653   23.8822 C   0  0  0  0  0  0  0  0  0  0  0  0
  -24.6302  -27.6890   20.9434 C   0  0  0  0  0  0  0  0  0  0  0  0
  -28.8191  -21.1380   22.7452 C   0  0  0  0  0  0  0  0  0  0  0  0
  -26.8638  -21.2780   24.5576 C   0  0  0  0  0  0  0  0  0  0  0  0
  -26.5809  -21.1661   23.2141 C   0  0  0  0  0  0  0  0  0  0  0  0
  -26.4851  -28.3967   19.9981 C   0  0  0  0  0  0  0  0  0  0  0  0
  -25.2372  -30.1705   21.2411 C   0  0  0  0  0  0  0  0  0  0  0  0
  -25.9991  -14.6007   21.0783 C   0  0  0  0  0  0  0  0  0  0  0  0
  -22.9185  -13.6381   21.4034 C   0  0  0  0  0  0  0  0  0  0  0  0
  -20.0169  -13.7662   23.1953 C   0  0  0  0  0  0  0  0  0  0  0  0
  -29.0116  -23.0237   19.2245 C   0  0  0  0  0  0  0  0  0  0  0  0
  -30.1373  -13.0859   18.5019 C   0  0  0  0  0  0  0  0  0  0  0  0
  -25.9760  -13.7843   23.4634 C   0  0  0  0  0  0  0  0  0  0  0  0
  -23.6686  -15.5399   22.8819 C   0  0  0  0  0  0  0  0  0  0  0  0
  -28.6277  -12.9524   18.3187 C   0  0  0  0  0  0  0  0  0  0  0  0
  -27.6189  -25.1174   16.7040 C   0  0  0  0  0  0  0  0  0  0  0  0
  -27.9474  -14.3070   18.4898 C   0  0  0  0  0  0  0  0  0  0  0  0
  -26.7672  -26.1171   17.4883 C   0  0  0  0  0  0  0  0  0  0  0  0
  -27.5767  -23.7258   17.3313 C   0  0  0  0  0  0  0  0  0  0  0  0
  -27.0759  -24.6807   19.5474 C   0  0  0  0  0  0  0  0  0  0  0  0
  -28.1748  -14.8642   19.9003 C   0  0  1  0  0  0  0  0  0  0  0  0
  -25.2803  -13.7729   22.1057 C   0  0  1  0  0  0  0  0  0  0  0  0
  -27.1317  -26.1114   18.9851 C   0  0  2  0  0  0  0  0  0  0  0  0
  -17.6600  -12.9045   23.1922 C   0  0  0  0  0  0  0  0  0  0  0  0
  -23.6988  -21.4609   19.1082 C   0  0  0  0  0  0  0  0  0  0  0  0
  -22.9782  -19.9202   20.9432 C   0  0  0  0  0  0  0  0  0  0  0  0
  -22.1955  -15.6306   19.2087 C   0  0  0  0  0  0  0  0  0  0  0  0
  -19.7998  -15.4225   19.9055 C   0  0  0  0  0  0  0  0  0  0  0  0
  -21.0242  -13.4271   19.0443 C   0  0  0  0  0  0  0  0  0  0  0  0
  -20.3983  -12.3769   25.7805 C   0  0  0  0  0  0  0  0  0  0  0  0
  -29.9194  -21.0599   21.7457 C   0  0  0  0  0  0  0  0  0  0  0  0
  -25.7661  -21.3579   25.5882 C   0  0  0  0  0  0  0  0  0  0  0  0
  -25.1765  -21.1188   22.7169 C   0  0  0  0  0  0  0  0  0  0  0  0
  -26.1410  -20.7392   26.9366 C   0  0  0  0  0  0  0  0  0  0  0  0
  -25.0959  -21.3210   21.1919 C   0  0  0  0  0  0  0  0  0  0  0  0
  -30.3690  -22.4277   21.2149 C   0  0  0  0  0  0  0  0  0  0  0  0
  -26.4098  -19.2408   26.8595 C   0  0  0  0  0  0  0  0  0  1  0  0
  -21.5733  -14.3207   21.3448 C   0  0  1  0  0  0  0  0  0  0  0  0
  -19.0821  -12.6719   23.6783 C   0  0  2  0  0  0  0  0  0  0  0  0
  -23.6663  -21.2480   20.6238 C   0  0  0  0  0  0  0  0  0  0  0  0
  -21.1681  -14.7081   19.8946 C   0  0  0  0  0  0  0  0  0  0  0  0
  -28.1293  -21.3227   25.0190 N   0  0  0  0  0  0  0  0  0  0  0  0
  -25.1336  -26.6073   20.3431 N   0  0  0  0  0  0  0  0  0  0  0  0
  -27.5535  -21.0937   22.2838 N   0  0  0  0  0  0  0  0  0  0  0  0
  -26.2613  -27.0697   19.7769 N   0  0  0  0  0  0  0  0  0  0  0  0
  -23.9055  -14.2726   22.1710 N   0  0  0  0  0  0  0  0  0  0  0  0
  -27.9339  -23.7898   18.7505 N   0  0  0  0  0  0  0  0  0  0  0  0
  -27.5729  -29.0226   19.5008 N   0  0  0  0  0  0  0  0  0  0  0  0
  -24.0998  -30.4464   22.0122 N   0  0  0  0  0  0  0  0  0  0  0  0
  -27.3036  -14.2061   20.8502 N   0  0  0  0  0  0  0  0  0  0  0  0
  -20.6321  -13.4257   22.0092 N   0  0  0  0  0  0  0  0  0  0  0  0
  -29.2871  -23.1476   20.5808 N   0  0  0  0  0  0  0  0  0  0  0  0
  -19.0676  -12.6232   25.1677 N   0  3  0  0  0  0  0  0  0  0  0  0
  -26.0407  -31.0974   20.9789 O   0  0  0  0  0  0  0  0  0  0  0  0
  -25.4131  -15.5278   20.5317 O   0  0  0  0  0  0  0  0  0  0  0  0
  -23.0853  -12.5772   20.7966 O   0  0  0  0  0  0  0  0  0  0  0  0
  -20.1818  -14.8194   23.8070 O   0  0  0  0  0  0  0  0  0  0  0  0
  -29.6823  -22.2883   18.4922 O   0  0  0  0  0  0  0  0  0  0  0  0
  -19.8313  -27.3405   23.7922 O   0  0  0  0  0  0  0  0  0  0  0  0
  -25.2376  -18.5896   26.3711 O   0  0  0  0  0  0  0  0  0  1  0  0
  -16.0865  -31.3096   23.0004 F   0  0  0  0  0  0  0  0  0  0  0  0
  -20.4250  -29.9823   24.3499 F   0  0  0  0  0  0  0  0  0  0  0  0
  1  2  1  0  0  0  0
  1  5  2  0  0  0  0
  2  6  2  0  0  0  0
  3  8  2  0  0  0  0
  3 16  1  0  0  0  0
  4  9  1  0  0  0  0
  4 16  2  0  0  0  0
  5 18  1  0  0  0  0
  6 20  1  0  0  0  0
  7 10  2  0  0  0  0
  7 19  1  0  0  0  0
  8 22  1  0  0  0  0
  9 22  2  0  0  0  0
 10 23  1  0  0  0  0
 11 12  2  0  0  0  0
 11 24  1  0  0  0  0
 12 25  1  0  0  0  0
 13 21  1  0  0  0  0
 13 23  2  0  0  0  0
 14 25  2  0  0  0  0
 14 26  1  0  0  0  0
 15 28  1  0  0  0  0
 15 67  2  0  0  0  0
 16 27  1  0  0  0  0
 17 27  1  0  0  0  0
 17 31  2  0  0  0  0
 17 32  1  0  0  0  0
 18 20  2  0  0  0  0
 18 37  1  0  0  0  0
 19 21  2  0  0  0  0
 19 38  1  0  0  0  0
 20 46  1  0  0  0  0
 21 39  1  0  0  0  0
 22 84  1  0  0  0  0
 23 85  1  0  0  0  0
 24 26  2  0  0  0  0
 24 84  1  0  0  0  0
 25 86  1  0  0  0  0
 26 87  1  0  0  0  0
 27 68  2  0  0  0  0
 28 56  1  0  0  0  0
 28 69  2  0  0  0  0
 29 30  2  0  0  0  0
 29 57  1  0  0  0  0
 29 67  1  0  0  0  0
 30 58  1  0  0  0  0
 30 69  1  0  0  0  0
 31 70  1  0  0  0  0
 31 73  1  0  0  0  0
 32 74  1  0  0  0  0
 32 79  2  0  0  0  0
 33 47  1  0  0  0  0
 33 75  1  0  0  0  0
 33 80  2  0  0  0  0
 34 63  1  0  0  0  0
 34 71  1  0  0  0  0
 34 81  2  0  0  0  0
 35 64  1  0  0  0  0
 35 76  1  0  0  0  0
 35 82  2  0  0  0  0
 36 72  1  0  0  0  0
 36 77  1  0  0  0  0
 36 83  2  0  0  0  0
 37 40  1  0  0  0  0
 38 47  1  0  0  0  0
 39 71  1  0  0  0  0
 40 42  1  0  0  0  0
 41 43  1  0  0  0  0
 41 44  1  0  0  0  0
 42 46  1  0  0  0  0
 43 48  1  0  0  0  0
 44 72  1  0  0  0  0
 45 48  1  0  0  0  0
 45 72  1  0  0  0  0
 46 75  1  0  0  0  0
 47 71  1  0  0  0  0
 48 70  1  0  0  0  0
 49 64  1  0  0  0  0
 50 65  1  0  0  0  0
 51 65  1  0  0  0  0
 52 66  1  0  0  0  0
 53 66  1  0  0  0  0
 54 66  1  0  0  0  0
 55 78  1  0  0  0  0
 56 61  1  0  0  0  0
 57 59  1  0  0  0  0
 58 60  1  0  0  0  0
 59 62  1  0  0  0  0
 60 65  1  0  0  0  0
 61 77  1  0  0  0  0
 62 85  1  0  0  0  0
 63 66  1  0  0  0  0
 63 76  1  0  0  0  0
 64 78  1  0  0  0  0
 68 70  1  0  0  0  0
M  CHG  1  78   1
M  ISO  4  36 100  62 101  77 100  85 101
M  END
> <Batch ID>
0088

> <Smiles>
CNC(C)C(=O)NC(C(=O)N1Cc2cc([101O:1][101CH2:1]CCc3ncc(CC[100NH:0][100C:0](=O)N4CCCC(n5nc(-c6ccc(Oc7ccc(F)cc7F)cc6)c(C(N)=O)c5N)C4)nc3CCC(C)C)ccc2CC1C(=O)NC1CCCc2ccccc21)C(C)(C)C

> <Shape>
0.231

> <Color>
0.057

> <Negative vol penalty>
0.000

$$$$

  -OEChem-04052319043D

 83 91  0     1  0  0  0  0  0999 V2000
  -31.2228  -22.8419   22.5310 C   0  0  0  0  0  0  0  0  0  0  0  0
  -29.9217  -23.2370   22.8251 C   0  0  0  0  0  0  0  0  0  0  0  0
  -26.1797  -28.1922   21.5159 C   0  0  0  0  0  0  0  0  0  0  0  0
  -25.1347  -29.2644   19.6197 C   0  0  0  0  0  0  0  0  0  0  0  0
  -31.4588  -21.9409   21.4935 C   0  0  0  0  0  0  0  0  0  0  0  0
  -28.8559  -22.7320   22.0811 C   0  0  0  0  0  0  0  0  0  0  0  0
  -21.9712  -20.8675   22.7457 C   0  0  0  0  0  0  0  0  0  0  0  0
  -27.3869  -28.1371   20.8194 C   0  0  0  0  0  0  0  0  0  0  0  0
  -26.3420  -29.2093   18.9232 C   0  0  0  0  0  0  0  0  0  0  0  0
  -20.7302  -21.1014   22.1551 C   0  0  0  0  0  0  0  0  0  0  0  0
  -28.7832  -26.2305   18.4028 C   0  0  0  0  0  0  0  0  0  0  0  0
  -29.5001  -25.0347   18.4438 C   0  0  0  0  0  0  0  0  0  0  0  0
  -21.2508  -19.4897   20.4373 C   0  0  0  0  0  0  0  0  0  0  0  0
  -15.9109  -23.5781   17.9413 C   0  0  0  0  0  0  0  0  0  0  0  0
  -31.3698  -26.1901   19.4472 C   0  0  0  0  0  0  0  0  0  0  0  0
  -18.2829  -23.7203   18.0413 C   0  0  0  0  0  0  0  0  0  0  0  0
  -25.0535  -28.7558   20.9160 C   0  0  0  0  0  0  0  0  0  0  0  0
  -23.3531  -29.8504   22.4709 C   0  0  0  0  0  0  0  0  0  0  0  0
  -30.3945  -21.4172   20.7427 C   0  0  0  0  0  0  0  0  0  0  0  0
  -22.8673  -19.9494   22.1795 C   0  0  0  0  0  0  0  0  0  0  0  0
  -29.0780  -21.8242   21.0317 C   0  0  0  0  0  0  0  0  0  0  0  0
  -22.5016  -19.2441   21.0242 C   0  0  0  0  0  0  0  0  0  0  0  0
  -17.0645  -24.3467   17.8338 C   0  0  0  0  0  0  0  0  0  0  0  0
  -16.0093  -22.2257   18.2486 C   0  0  0  0  0  0  0  0  0  0  0  0
  -27.4681  -28.6457   19.5231 C   0  0  0  0  0  0  0  0  0  0  0  0
  -20.3710  -20.4146   20.9990 C   0  0  0  0  0  0  0  0  0  0  0  0
  -29.3595  -27.4061   18.8840 C   0  0  0  0  0  0  0  0  0  0  0  0
  -30.7934  -25.0145   18.9660 C   0  0  0  0  0  0  0  0  0  0  0  0
  -30.6528  -27.3859   19.4062 C   0  0  0  0  0  0  0  0  0  0  0  0
  -23.8060  -28.8124   21.6347 C   0  0  0  0  0  0  0  0  0  0  0  0
  -17.2749  -21.6941   18.4373 C   0  0  0  0  0  0  0  0  0  0  0  0
  -22.1221  -29.4264   22.9085 C   0  0  0  0  0  0  0  0  0  0  0  0
  -23.9882  -31.0872   22.8209 C   0  0  0  0  0  0  0  0  0  0  0  0
  -25.7917  -20.1371   20.9481 C   0  0  0  0  0  0  0  0  0  0  0  0
  -25.5222  -16.9071   20.8181 C   0  0  0  0  0  0  0  0  0  0  0  0
  -23.4843  -14.1729   20.6859 C   0  0  0  0  0  0  0  0  0  0  0  0
  -18.0709  -25.6432   20.6445 C   0  0  0  0  0  0  0  0  0  0  0  0
  -30.7030  -20.4824   19.6001 C   0  0  0  0  0  0  0  0  0  0  0  0
  -24.1914  -19.6889   22.8439 C   0  0  0  0  0  0  0  0  0  0  0  0
  -23.4193  -18.2332   20.3883 C   0  0  0  0  0  0  0  0  0  0  0  0
  -29.4865  -19.7057   19.1030 C   0  0  0  0  0  0  0  0  0  0  0  0
  -19.6458  -25.4380   23.8311 C   0  0  0  0  0  0  0  0  0  0  0  0
  -28.2923  -20.6386   18.9287 C   0  0  0  0  0  0  0  0  0  0  0  0
  -20.8497  -26.3732   23.7050 C   0  0  0  0  0  0  0  0  0  0  0  0
  -19.3710  -24.6928   22.5268 C   0  0  0  0  0  0  0  0  0  0  0  0
  -20.4276  -26.4909   21.2136 C   0  0  0  0  0  0  0  0  0  0  0  0
  -27.8934  -21.2795   20.2635 C   0  0  1  0  0  0  0  0  0  0  0  0
  -25.2337  -19.1100   21.8922 C   0  0  1  0  0  0  0  0  0  0  0  0
  -20.7098  -27.3062   22.4871 C   0  0  2  0  0  0  0  0  0  0  0  0
  -14.0451  -21.6272   19.6874 C   0  0  0  0  0  0  0  0  0  0  0  0
  -23.5549  -11.6681   20.5492 C   0  0  0  0  0  0  0  0  0  0  0  0
  -26.2420  -17.0914   17.8587 C   0  0  0  0  0  0  0  0  0  0  0  0
  -25.3809  -14.7576   17.5755 C   0  0  0  0  0  0  0  0  0  0  0  0
  -27.3228  -15.1948   19.0791 C   0  0  0  0  0  0  0  0  0  0  0  0
  -22.0721  -13.8762   23.2698 C   0  0  0  0  0  0  0  0  0  0  0  0
  -16.9934  -25.7956   17.5055 C   0  0  0  0  0  0  0  0  0  0  0  0
  -14.7771  -21.3968   18.3671 C   0  0  0  0  0  0  0  0  0  0  0  0
  -17.4433  -20.2320   18.7722 C   0  0  0  0  0  0  0  0  0  0  0  0
  -16.8883  -26.7044   18.7381 C   0  0  0  0  0  0  0  0  0  0  0  0
  -18.8576  -19.9028   19.2373 C   0  0  0  0  0  0  0  0  0  1  0  0
  -25.0097  -15.9172   19.8000 C   0  0  1  0  0  0  0  0  0  0  0  0
  -23.4883  -12.8746   21.4726 C   0  0  2  0  0  0  0  0  0  0  0  0
  -25.9721  -15.7606   18.5890 C   0  0  0  0  0  0  0  0  0  0  0  0
  -18.4183  -22.4091   18.3413 N   0  0  0  0  0  0  0  0  0  0  0  0
  -22.9338  -27.8048   21.5449 N   0  0  0  0  0  0  0  0  0  0  0  0
  -21.9205  -28.2076   22.3305 N   0  0  0  0  0  0  0  0  0  0  0  0
  -24.7055  -18.0182   21.0717 N   0  0  0  0  0  0  0  0  0  0  0  0
  -19.2474  -25.6349   21.4118 N   0  0  0  0  0  0  0  0  0  0  0  0
  -21.2033  -29.9809   23.7275 N   0  0  0  0  0  0  0  0  0  0  0  0
  -25.2520  -31.3651   22.2824 N   0  0  0  0  0  0  0  0  0  0  0  0
  -27.1530  -20.3375   21.0752 N   0  0  0  0  0  0  0  0  0  0  0  0
  -24.7575  -14.6777   20.5270 N   0  0  0  0  0  0  0  0  0  0  0  0
  -18.0333  -26.5712   19.6110 N   0  0  0  0  0  0  0  0  0  0  0  0
  -22.2531  -12.7661   22.2993 N   0  3  0  0  0  0  0  0  0  0  0  0
  -23.4582  -31.9140   23.6013 O   0  0  0  0  0  0  0  0  0  0  0  0
  -25.0429  -20.7047   20.1615 O   0  0  0  0  0  0  0  0  0  0  0  0
  -26.6039  -16.6985   21.3732 O   0  0  0  0  0  0  0  0  0  0  0  0
  -22.4550  -14.6858   20.2523 O   0  0  0  0  0  0  0  0  0  0  0  0
  -17.1219  -24.8837   20.8676 O   0  0  0  0  0  0  0  0  0  0  0  0
  -28.6461  -28.5923   18.8433 O   0  0  0  0  0  0  0  0  0  0  0  0
  -19.1605  -20.6414   20.4201 O   0  0  0  0  0  0  0  0  0  1  0  0
  -31.4812  -23.8659   19.0067 F   0  0  0  0  0  0  0  0  0  0  0  0
  -31.2113  -28.5119   19.8709 F   0  0  0  0  0  0  0  0  0  0  0  0
  1  2  1  0  0  0  0
  1  5  2  0  0  0  0
  2  6  2  0  0  0  0
  3  8  2  0  0  0  0
  3 17  1  0  0  0  0
  4  9  1  0  0  0  0
  4 17  2  0  0  0  0
  5 19  1  0  0  0  0
  6 21  1  0  0  0  0
  7 10  2  0  0  0  0
  7 20  1  0  0  0  0
  8 25  1  0  0  0  0
  9 25  2  0  0  0  0
 10 26  1  0  0  0  0
 11 12  2  0  0  0  0
 11 27  1  0  0  0  0
 12 28  1  0  0  0  0
 13 22  1  0  0  0  0
 13 26  2  0  0  0  0
 14 23  2  0  0  0  0
 14 24  1  0  0  0  0
 15 28  2  0  0  0  0
 15 29  1  0  0  0  0
 16 23  1  0  0  0  0
 16 64  2  0  0  0  0
 17 30  1  0  0  0  0
 18 30  1  0  0  0  0
 18 32  2  0  0  0  0
 18 33  1  0  0  0  0
 19 21  2  0  0  0  0
 19 38  1  0  0  0  0
 20 22  2  0  0  0  0
 20 39  1  0  0  0  0
 21 47  1  0  0  0  0
 22 40  1  0  0  0  0
 23 56  1  0  0  0  0
 24 31  2  0  0  0  0
 24 57  1  0  0  0  0
 25 80  1  0  0  0  0
 26 81  1  0  0  0  0
 27 29  2  0  0  0  0
 27 80  1  0  0  0  0
 28 82  1  0  0  0  0
 29 83  1  0  0  0  0
 30 65  2  0  0  0  0
 31 58  1  0  0  0  0
 31 64  1  0  0  0  0
 32 66  1  0  0  0  0
 32 69  1  0  0  0  0
 33 70  1  0  0  0  0
 33 75  2  0  0  0  0
 34 48  1  0  0  0  0
 34 71  1  0  0  0  0
 34 76  2  0  0  0  0
 35 61  1  0  0  0  0
 35 67  1  0  0  0  0
 35 77  2  0  0  0  0
 36 62  1  0  0  0  0
 36 72  1  0  0  0  0
 36 78  2  0  0  0  0
 37 68  1  0  0  0  0
 37 73  1  0  0  0  0
 37 79  2  0  0  0  0
 38 41  1  0  0  0  0
 39 48  1  0  0  0  0
 40 67  1  0  0  0  0
 41 43  1  0  0  0  0
 42 44  1  0  0  0  0
 42 45  1  0  0  0  0
 43 47  1  0  0  0  0
 44 49  1  0  0  0  0
 45 68  1  0  0  0  0
 46 49  1  0  0  0  0
 46 68  1  0  0  0  0
 47 71  1  0  0  0  0
 48 67  1  0  0  0  0
 49 66  1  0  0  0  0
 50 57  1  0  0  0  0
 51 62  1  0  0  0  0
 52 63  1  0  0  0  0
 53 63  1  0  0  0  0
 54 63  1  0  0  0  0
 55 74  1  0  0  0  0
 56 59  1  0  0  0  0
 58 60  1  0  0  0  0
 59 73  1  0  0  0  0
 60 81  1  0  0  0  0
 61 63  1  0  0  0  0
 61 72  1  0  0  0  0
 62 74  1  0  0  0  0
 65 66  1  0  0  0  0
M  CHG  1  74   1
M  ISO  4  37 100  60 101  73 100  81 101
M  END
> <Batch ID>
0088

> <Smiles>
CCc1cc(CC[100NH:0][100C:0](=O)N2CCCC(n3nc(-c4ccc(Oc5ccc(F)cc5F)cc4)c(C(N)=O)c3N)C2)cnc1C[101CH2:1][101O:1]c1ccc2c(c1)CN(C(=O)C(NC(=O)C(C)NC)C(C)(C)C)C(C(=O)NC1CCCc3ccccc31)C2

> <Shape>
0.212

> <Color>
0.079

> <Negative vol penalty>
0.000

$$$$

  -OEChem-04052319043D

 84 92  0     1  0  0  0  0  0999 V2000
  -16.8330  -28.8396   24.1014 C   0  0  0  0  0  0  0  0  0  0  0  0
  -17.4301  -28.0319   23.1389 C   0  0  0  0  0  0  0  0  0  0  0  0
  -24.6150  -12.0686   20.8834 C   0  0  0  0  0  0  0  0  0  0  0  0
  -23.2200  -13.7245   21.9553 C   0  0  0  0  0  0  0  0  0  0  0  0
  -17.3644  -30.0980   24.3808 C   0  0  0  0  0  0  0  0  0  0  0  0
  -18.5583  -28.4825   22.4544 C   0  0  0  0  0  0  0  0  0  0  0  0
  -22.1583  -24.9388   22.0974 C   0  0  0  0  0  0  0  0  0  0  0  0
  -24.2282  -11.1261   21.8360 C   0  0  0  0  0  0  0  0  0  0  0  0
  -22.8332  -12.7819   22.9079 C   0  0  0  0  0  0  0  0  0  0  0  0
  -21.9805  -23.9453   21.1356 C   0  0  0  0  0  0  0  0  0  0  0  0
  -21.5569   -9.1416   22.4349 C   0  0  0  0  0  0  0  0  0  0  0  0
  -21.2087   -7.8687   21.9832 C   0  0  0  0  0  0  0  0  0  0  0  0
  -23.4971  -25.1077   19.6632 C   0  0  0  0  0  0  0  0  0  0  0  0
  -22.9775   -6.9101   23.3211 C   0  0  0  0  0  0  0  0  0  0  0  0
  -25.6244  -22.0080   17.2227 C   0  0  0  0  0  0  0  0  0  0  0  0
  -24.1110  -13.3679   20.9430 C   0  0  0  0  0  0  0  0  0  0  0  0
  -23.8850  -14.6128   18.7278 C   0  0  0  0  0  0  0  0  0  0  0  0
  -18.5054  -30.5604   23.7063 C   0  0  0  0  0  0  0  0  0  0  0  0
  -22.9997  -26.0318   21.8446 C   0  0  0  0  0  0  0  0  0  0  0  0
  -19.1046  -29.7488   22.7241 C   0  0  0  0  0  0  0  0  0  0  0  0
  -23.6858  -26.1125   20.6244 C   0  0  0  0  0  0  0  0  0  0  0  0
  -25.1708  -21.5320   18.4286 C   0  0  0  0  0  0  0  0  0  0  0  0
  -23.3373  -11.4827   22.8482 C   0  0  0  0  0  0  0  0  0  0  0  0
  -22.6477  -24.0311   19.9172 C   0  0  0  0  0  0  0  0  0  0  0  0
  -22.6154   -9.2988   23.3297 C   0  0  0  0  0  0  0  0  0  0  0  0
  -21.9190   -6.7529   22.4263 C   0  0  0  0  0  0  0  0  0  0  0  0
  -23.3257   -8.1831   23.7727 C   0  0  0  0  0  0  0  0  0  0  0  0
  -24.5107  -14.3422   19.9596 C   0  0  0  0  0  0  0  0  0  0  0  0
  -25.7982  -22.3492   19.3879 C   0  0  0  0  0  0  0  0  0  0  0  0
  -24.6429  -15.6134   18.1703 C   0  0  0  0  0  0  0  0  0  0  0  0
  -22.7227  -14.0132   18.1403 C   0  0  0  0  0  0  0  0  0  0  0  0
  -22.5911  -29.1775   21.6421 C   0  0  0  0  0  0  0  0  0  0  0  0
  -25.8251  -29.1890   21.3903 C   0  0  0  0  0  0  0  0  0  0  0  0
  -28.6727  -27.4997   20.5632 C   0  0  0  0  0  0  0  0  0  0  0  0
  -28.2169  -19.8080   20.5117 C   0  0  0  0  0  0  0  0  0  0  0  0
  -19.0155  -31.9471   24.0089 C   0  0  0  0  0  0  0  0  0  0  0  0
  -23.2015  -27.0814   22.9029 C   0  0  0  0  0  0  0  0  0  0  0  0
  -24.6161  -27.2550   20.3119 C   0  0  0  0  0  0  0  0  0  0  0  0
  -20.4347  -32.1974   23.5054 C   0  0  0  0  0  0  0  0  0  0  0  0
  -29.1053  -17.3378   18.1065 C   0  0  0  0  0  0  0  0  0  0  0  0
  -20.5867  -31.7036   22.0702 C   0  0  0  0  0  0  0  0  0  0  0  0
  -27.9721  -16.3143   18.1975 C   0  0  0  0  0  0  0  0  0  0  0  0
  -29.4470  -17.9247   19.4742 C   0  0  0  0  0  0  0  0  0  0  0  0
  -27.1683  -17.4733   20.2974 C   0  0  0  0  0  0  0  0  0  0  0  0
  -20.3443  -30.1923   21.9781 C   0  0  1  0  0  0  0  0  0  0  0  0
  -23.6824  -28.4145   22.3382 C   0  0  1  0  0  0  0  0  0  0  0  0
  -26.7502  -16.8948   18.9347 C   0  0  2  0  0  0  0  0  0  0  0  0
  -31.1623  -27.7840   20.4257 C   0  0  0  0  0  0  0  0  0  0  0  0
  -25.4952  -30.8201   18.8328 C   0  0  0  0  0  0  0  0  0  0  0  0
  -27.8661  -30.2620   18.2538 C   0  0  0  0  0  0  0  0  0  0  0  0
  -27.3631  -31.5721   20.3161 C   0  0  0  0  0  0  0  0  0  0  0  0
  -22.4128  -21.1356   17.0034 C   0  0  0  0  0  0  0  0  0  0  0  0
  -21.9319  -19.3578   18.6816 C   0  0  0  0  0  0  0  0  0  0  0  0
  -27.1862  -23.8580   16.5763 C   0  0  0  0  0  0  0  0  0  0  0  0
  -29.1442  -25.3461   22.5376 C   0  0  0  0  0  0  0  0  0  0  0  0
  -24.2132  -20.3865   18.6597 C   0  0  0  0  0  0  0  0  0  0  0  0
  -25.6698  -22.2821   20.8542 C   0  0  0  0  0  0  0  0  0  0  0  0
  -26.8543  -21.5967   21.5619 C   0  0  0  0  0  0  0  0  0  0  0  0
  -22.1918  -21.7453   19.4448 C   0  0  0  0  0  0  0  0  0  1  0  0
  -26.8088  -29.1063   20.2482 C   0  0  1  0  0  0  0  0  0  0  0  0
  -29.9947  -27.3366   21.2914 C   0  0  2  0  0  0  0  0  0  0  0  0
  -26.8643  -30.4195   19.4176 C   0  0  0  0  0  0  0  0  0  0  0  0
  -22.6985  -20.6793   18.4472 C   0  0  0  0  0  0  0  0  0  0  0  0
  -25.5834  -15.1089   20.1724 N   0  0  0  0  0  0  0  0  0  0  0  0
  -26.5901  -23.2741   18.8389 N   0  0  0  0  0  0  0  0  0  0  0  0
  -26.4634  -23.0410   17.5214 N   0  0  0  0  0  0  0  0  0  0  0  0
  -25.6378  -15.8710   19.0668 N   0  0  0  0  0  0  0  0  0  0  0  0
  -24.7755  -28.2595   21.3763 N   0  0  0  0  0  0  0  0  0  0  0  0
  -28.2456  -18.4595   20.1196 N   0  0  0  0  0  0  0  0  0  0  0  0
  -24.5487  -16.2891   17.0054 N   0  0  0  0  0  0  0  0  0  0  0  0
  -22.0639  -12.9988   18.8482 N   0  0  0  0  0  0  0  0  0  0  0  0
  -21.5046  -29.4648   22.4460 N   0  0  0  0  0  0  0  0  0  0  0  0
  -28.0858  -28.7171   20.8367 N   0  0  0  0  0  0  0  0  0  0  0  0
  -27.0380  -20.2355   21.1103 N   0  0  0  0  0  0  0  0  0  0  0  0
  -30.2071  -25.9100   21.6661 N   0  3  0  0  0  0  0  0  0  0  0  0
  -22.2910  -14.3553   17.0133 O   0  0  0  0  0  0  0  0  0  0  0  0
  -22.7256  -29.4842   20.4633 O   0  0  0  0  0  0  0  0  0  0  0  0
  -25.9862  -30.0422   22.2666 O   0  0  0  0  0  0  0  0  0  0  0  0
  -28.2091  -26.6353   19.8226 O   0  0  0  0  0  0  0  0  0  0  0  0
  -29.1692  -20.5756   20.3362 O   0  0  0  0  0  0  0  0  0  0  0  0
  -22.9594  -10.5631   23.7778 O   0  0  0  0  0  0  0  0  0  0  0  0
  -22.4755  -23.0630   18.9764 O   0  0  0  0  0  0  0  0  0  1  0  0
  -21.5835   -5.5305   21.9936 F   0  0  0  0  0  0  0  0  0  0  0  0
  -24.3428   -8.3277   24.6332 F   0  0  0  0  0  0  0  0  0  0  0  0
  1  2  1  0  0  0  0
  1  5  2  0  0  0  0
  2  6  2  0  0  0  0
  3  8  2  0  0  0  0
  3 16  1  0  0  0  0
  4  9  1  0  0  0  0
  4 16  2  0  0  0  0
  5 18  1  0  0  0  0
  6 20  1  0  0  0  0
  7 10  2  0  0  0  0
  7 19  1  0  0  0  0
  8 23  1  0  0  0  0
  9 23  2  0  0  0  0
 10 24  1  0  0  0  0
 11 12  2  0  0  0  0
 11 25  1  0  0  0  0
 12 26  1  0  0  0  0
 13 21  1  0  0  0  0
 13 24  2  0  0  0  0
 14 26  2  0  0  0  0
 14 27  1  0  0  0  0
 15 22  2  0  0  0  0
 15 66  1  0  0  0  0
 16 28  1  0  0  0  0
 17 28  1  0  0  0  0
 17 30  2  0  0  0  0
 17 31  1  0  0  0  0
 18 20  2  0  0  0  0
 18 36  1  0  0  0  0
 19 21  2  0  0  0  0
 19 37  1  0  0  0  0
 20 45  1  0  0  0  0
 21 38  1  0  0  0  0
 22 29  1  0  0  0  0
 22 56  1  0  0  0  0
 23 81  1  0  0  0  0
 24 82  1  0  0  0  0
 25 27  2  0  0  0  0
 25 81  1  0  0  0  0
 26 83  1  0  0  0  0
 27 84  1  0  0  0  0
 28 64  2  0  0  0  0
 29 57  1  0  0  0  0
 29 65  2  0  0  0  0
 30 67  1  0  0  0  0
 30 70  1  0  0  0  0
 31 71  1  0  0  0  0
 31 76  2  0  0  0  0
 32 46  1  0  0  0  0
 32 72  1  0  0  0  0
 32 77  2  0  0  0  0
 33 60  1  0  0  0  0
 33 68  1  0  0  0  0
 33 78  2  0  0  0  0
 34 61  1  0  0  0  0
 34 73  1  0  0  0  0
 34 79  2  0  0  0  0
 35 69  1  0  0  0  0
 35 74  1  0  0  0  0
 35 80  2  0  0  0  0
 36 39  1  0  0  0  0
 37 46  1  0  0  0  0
 38 68  1  0  0  0  0
 39 41  1  0  0  0  0
 40 42  1  0  0  0  0
 40 43  1  0  0  0  0
 41 45  1  0  0  0  0
 42 47  1  0  0  0  0
 43 69  1  0  0  0  0
 44 47  1  0  0  0  0
 44 69  1  0  0  0  0
 45 72  1  0  0  0  0
 46 68  1  0  0  0  0
 47 67  1  0  0  0  0
 48 61  1  0  0  0  0
 49 62  1  0  0  0  0
 50 62  1  0  0  0  0
 51 62  1  0  0  0  0
 52 63  1  0  0  0  0
 53 63  1  0  0  0  0
 54 66  1  0  0  0  0
 55 75  1  0  0  0  0
 56 63  1  0  0  0  0
 57 58  1  0  0  0  0
 58 74  1  0  0  0  0
 59 63  1  0  0  0  0
 59 82  1  0  0  0  0
 60 62  1  0  0  0  0
 60 73  1  0  0  0  0
 61 75  1  0  0  0  0
 64 67  1  0  0  0  0
 65 66  1  0  0  0  0
M  CHG  1  75   1
M  ISO  4  35 100  59 101  74 100  82 101
M  END
> <Batch ID>
0088

> <Smiles>
CNC(C)C(=O)NC(C(=O)N1Cc2cc([101O:1][101CH2:1]C(C)(C)Cc3cn(C)nc3CC[100NH:0][100C:0](=O)N3CCCC(n4nc(-c5ccc(Oc6ccc(F)cc6F)cc5)c(C(N)=O)c4N)C3)ccc2CC1C(=O)NC1CCCc2ccccc21)C(C)(C)C

> <Shape>
0.227

> <Color>
0.090

> <Negative vol penalty>
0.000

$$$$

  -OEChem-04052319043D

 84 91  0     1  0  0  0  0  0999 V2000
  -21.7406  -31.8997   18.2516 C   0  0  0  0  0  0  0  0  0  0  0  0
  -21.9890  -30.5332   18.1729 C   0  0  0  0  0  0  0  0  0  0  0  0
  -22.8789  -10.1482   19.9928 C   0  0  0  0  0  0  0  0  0  0  0  0
  -23.7801   -9.9237   22.2231 C   0  0  0  0  0  0  0  0  0  0  0  0
  -21.6970  -32.5288   19.4951 C   0  0  0  0  0  0  0  0  0  0  0  0
  -22.1949  -29.7949   19.3379 C   0  0  0  0  0  0  0  0  0  0  0  0
  -20.5050  -23.9999   20.3710 C   0  0  0  0  0  0  0  0  0  0  0  0
  -22.0800   -9.0242   20.2023 C   0  0  0  0  0  0  0  0  0  0  0  0
  -22.9811   -8.7997   22.4328 C   0  0  0  0  0  0  0  0  0  0  0  0
  -21.2015  -22.7939   20.3060 C   0  0  0  0  0  0  0  0  0  0  0  0
  -23.0236   -5.5228   21.6014 C   0  0  0  0  0  0  0  0  0  0  0  0
  -23.6162   -4.4080   22.1945 C   0  0  0  0  0  0  0  0  0  0  0  0
  -21.6078  -22.9074   22.6811 C   0  0  0  0  0  0  0  0  0  0  0  0
  -22.0397   -4.5416   24.0205 C   0  0  0  0  0  0  0  0  0  0  0  0
  -23.7290  -10.5979   21.0031 C   0  0  0  0  0  0  0  0  0  0  0  0
  -24.2233  -13.1000   21.0562 C   0  0  0  0  0  0  0  0  0  0  0  0
  -21.8929  -31.7961   20.6764 C   0  0  0  0  0  0  0  0  0  0  0  0
  -20.3637  -24.6753   21.5917 C   0  0  0  0  0  0  0  0  0  0  0  0
  -22.1552  -30.4150   20.5983 C   0  0  0  0  0  0  0  0  0  0  0  0
  -20.9068  -24.1205   22.7594 C   0  0  0  0  0  0  0  0  0  0  0  0
  -22.1311   -8.3499   21.4224 C   0  0  0  0  0  0  0  0  0  0  0  0
  -21.7555  -22.2490   21.4606 C   0  0  0  0  0  0  0  0  0  0  0  0
  -21.9392   -6.1470   22.2178 C   0  0  0  0  0  0  0  0  0  0  0  0
  -23.1242   -3.9174   23.4040 C   0  0  0  0  0  0  0  0  0  0  0  0
  -21.4472   -5.6564   23.4273 C   0  0  0  0  0  0  0  0  0  0  0  0
  -24.5549  -11.7586   20.7870 C   0  0  0  0  0  0  0  0  0  0  0  0
  -25.3362  -13.8112   20.6791 C   0  0  0  0  0  0  0  0  0  0  0  0
  -23.0171  -13.6537   21.5988 C   0  0  0  0  0  0  0  0  0  0  0  0
  -21.2730  -27.5104   22.7050 C   0  0  0  0  0  0  0  0  0  0  0  0
  -19.5010  -26.6336   25.2767 C   0  0  0  0  0  0  0  0  0  0  0  0
  -18.1393  -24.1152   27.1342 C   0  0  0  0  0  0  0  0  0  0  0  0
  -30.8748  -14.4878   20.5746 C   0  0  0  0  0  0  0  0  0  0  0  0
  -21.8834  -32.5284   21.9948 C   0  0  0  0  0  0  0  0  0  0  0  0
  -19.5865  -25.9618   21.6497 C   0  0  0  0  0  0  0  0  0  0  0  0
  -20.7658  -24.7960   24.0982 C   0  0  0  0  0  0  0  0  0  0  0  0
  -21.7403  -31.6062   23.2028 C   0  0  0  0  0  0  0  0  0  0  0  0
  -29.4397  -12.3766   18.0927 C   0  0  0  0  0  0  0  0  0  0  0  0
  -22.6866  -30.4160   23.0809 C   0  0  0  0  0  0  0  0  0  0  0  0
  -28.0164  -12.1335   18.5978 C   0  0  0  0  0  0  0  0  0  0  0  0
  -30.4426  -12.4446   19.2424 C   0  0  0  0  0  0  0  0  0  0  0  0
  -28.6822  -13.1707   20.8068 C   0  0  0  0  0  0  0  0  0  0  0  0
  -22.3590  -29.5755   21.8409 C   0  0  1  0  0  0  0  0  0  0  0  0
  -19.9456  -26.8229   22.8568 C   0  0  1  0  0  0  0  0  0  0  0  0
  -27.6269  -13.1501   19.6877 C   0  0  2  0  0  0  0  0  0  0  0  0
  -16.7756  -23.7075   29.2009 C   0  0  0  0  0  0  0  0  0  0  0  0
  -29.2517  -18.9918   18.7512 C   0  0  0  0  0  0  0  0  0  0  0  0
  -31.7006  -18.9671   21.6341 C   0  0  0  0  0  0  0  0  0  0  0  0
  -21.9497  -27.2103   27.0033 C   0  0  0  0  0  0  0  0  0  0  0  0
  -20.8665  -25.9128   28.8503 C   0  0  0  0  0  0  0  0  0  0  0  0
  -19.7802  -27.9824   27.9787 C   0  0  0  0  0  0  0  0  0  0  0  0
  -27.6252  -20.7927   22.5058 C   0  0  0  0  0  0  0  0  0  0  0  0
  -26.3171  -18.6520   22.4862 C   0  0  0  0  0  0  0  0  0  0  0  0
  -15.9738  -22.8176   25.5896 C   0  0  0  0  0  0  0  0  0  0  0  0
  -24.3498  -19.9220   20.4590 C   0  0  0  0  0  0  0  0  0  0  0  0
  -25.3517  -20.6482   21.3726 C   0  0  0  0  0  0  0  0  0  0  0  0
  -29.3704  -18.0750   21.1192 C   0  0  0  0  0  0  0  0  0  0  0  0
  -27.3557  -19.4817   20.3066 C   0  0  0  0  0  0  0  0  0  0  0  0
  -31.1554  -16.5229   21.9671 C   0  0  0  0  0  0  0  0  0  0  0  0
  -23.1133  -20.7732   20.1821 C   0  0  0  0  0  0  0  0  0  1  0  0
  -19.7761  -25.8891   26.5609 C   0  0  1  0  0  0  0  0  0  0  0  0
  -16.7425  -23.9194   27.6953 C   0  0  2  0  0  0  0  0  0  0  0  0
  -28.8891  -19.2367   20.2259 C   0  0  2  0  0  0  0  0  0  0  0  0
  -30.8880  -17.7756   21.1145 C   0  0  2  0  0  0  0  0  0  0  0  0
  -20.5976  -26.7367   27.5729 C   0  0  0  0  0  0  0  0  0  0  0  0
  -26.7001  -19.9025   21.6609 C   0  0  0  0  0  0  0  0  0  0  0  0
  -25.7823  -11.6231   20.2780 N   0  0  0  0  0  0  0  0  0  0  0  0
  -26.2317  -12.8885   20.2243 N   0  0  0  0  0  0  0  0  0  0  0  0
  -20.0025  -26.0549   24.1022 N   0  0  0  0  0  0  0  0  0  0  0  0
  -30.0155  -13.4281   20.2405 N   0  0  0  0  0  0  0  0  0  0  0  0
  -25.6262  -15.1295   20.6954 N   0  0  0  0  0  0  0  0  0  0  0  0
  -21.9723  -12.7810   21.9323 N   0  0  0  0  0  0  0  0  0  0  0  0
  -21.2004  -28.7436   22.0858 N   0  0  0  0  0  0  0  0  0  0  0  0
  -18.4790  -25.4497   27.0638 N   0  0  0  0  0  0  0  0  0  0  0  0
  -30.3902  -15.3785   21.5247 N   0  0  0  0  0  0  0  0  0  0  0  0
  -16.0938  -22.7334   27.0680 N   0  3  0  0  0  0  0  0  0  0  0  0
  -22.8641  -14.8873   21.7671 O   0  0  0  0  0  0  0  0  0  0  0  0
  -22.2878  -26.9632   23.1203 O   0  0  0  0  0  0  0  0  0  0  0  0
  -18.8586  -27.6860   25.3135 O   0  0  0  0  0  0  0  0  0  0  0  0
  -18.8587  -23.1779   26.7959 O   0  0  0  0  0  0  0  0  0  0  0  0
  -31.9890  -14.6327   20.0602 O   0  0  0  0  0  0  0  0  0  0  0  0
  -21.3515   -7.2532   21.6273 O   0  0  0  0  0  0  0  0  0  0  0  0
  -22.4416  -21.0634   21.3993 O   0  0  0  0  0  0  0  0  0  1  0  0
  -23.6923   -2.8460   23.9727 F   0  0  0  0  0  0  0  0  0  0  0  0
  -20.4049   -6.2512   24.0237 F   0  0  0  0  0  0  0  0  0  0  0  0
  1  2  1  0  0  0  0
  1  5  2  0  0  0  0
  2  6  2  0  0  0  0
  3  8  2  0  0  0  0
  3 15  1  0  0  0  0
  4  9  1  0  0  0  0
  4 15  2  0  0  0  0
  5 17  1  0  0  0  0
  6 19  1  0  0  0  0
  7 10  2  0  0  0  0
  7 18  1  0  0  0  0
  8 21  1  0  0  0  0
  9 21  2  0  0  0  0
 10 22  1  0  0  0  0
 11 12  2  0  0  0  0
 11 23  1  0  0  0  0
 12 24  1  0  0  0  0
 13 20  1  0  0  0  0
 13 22  2  0  0  0  0
 14 24  2  0  0  0  0
 14 25  1  0  0  0  0
 15 26  1  0  0  0  0
 16 26  1  0  0  0  0
 16 27  2  0  0  0  0
 16 28  1  0  0  0  0
 17 19  2  0  0  0  0
 17 33  1  0  0  0  0
 18 20  2  0  0  0  0
 18 34  1  0  0  0  0
 19 42  1  0  0  0  0
 20 35  1  0  0  0  0
 21 81  1  0  0  0  0
 22 82  1  0  0  0  0
 23 25  2  0  0  0  0
 23 81  1  0  0  0  0
 24 83  1  0  0  0  0
 25 84  1  0  0  0  0
 26 66  2  0  0  0  0
 27 67  1  0  0  0  0
 27 70  1  0  0  0  0
 28 71  1  0  0  0  0
 28 76  2  0  0  0  0
 29 43  1  0  0  0  0
 29 72  1  0  0  0  0
 29 77  2  0  0  0  0
 30 60  1  0  0  0  0
 30 68  1  0  0  0  0
 30 78  2  0  0  0  0
 31 61  1  0  0  0  0
 31 73  1  0  0  0  0
 31 79  2  0  0  0  0
 32 69  1  0  0  0  0
 32 74  1  0  0  0  0
 32 80  2  0  0  0  0
 33 36  1  0  0  0  0
 34 43  1  0  0  0  0
 35 68  1  0  0  0  0
 36 38  1  0  0  0  0
 37 39  1  0  0  0  0
 37 40  1  0  0  0  0
 38 42  1  0  0  0  0
 39 44  1  0  0  0  0
 40 69  1  0  0  0  0
 41 44  1  0  0  0  0
 41 69  1  0  0  0  0
 42 72  1  0  0  0  0
 43 68  1  0  0  0  0
 44 67  1  0  0  0  0
 45 61  1  0  0  0  0
 46 62  1  0  0  0  0
 47 63  1  0  0  0  0
 48 64  1  0  0  0  0
 49 64  1  0  0  0  0
 50 64  1  0  0  0  0
 51 65  1  0  0  0  0
 52 65  1  0  0  0  0
 53 75  1  0  0  0  0
 54 55  1  0  0  0  0
 54 59  1  0  0  0  0
 55 65  1  0  0  0  0
 56 62  1  0  0  0  0
 56 63  1  0  0  0  0
 57 62  1  0  0  0  0
 57 65  1  0  0  0  0
 58 63  1  0  0  0  0
 58 74  1  0  0  0  0
 59 82  1  0  0  0  0
 60 64  1  0  0  0  0
 60 73  1  0  0  0  0
 61 75  1  0  0  0  0
 66 67  1  0  0  0  0
M  CHG  1  75   1
M  ISO  4  32 100  59 101  74 100  82 101
M  END
> <Batch ID>
0088

> <Smiles>
CNC(C)C(=O)NC(C(=O)N1Cc2cc([101O:1][101CH2:1]CCC(C)(C)CC(C)CC(C)C[100NH:0][100C:0](=O)N3CCCC(n4nc(-c5ccc(Oc6ccc(F)cc6F)cc5)c(C(N)=O)c4N)C3)ccc2CC1C(=O)NC1CCCc2ccccc21)C(C)(C)C

> <Shape>
0.277

> <Color>
0.199

> <Negative vol penalty>
0.000

$$$$

  -OEChem-04052319043D

 84 92  0     1  0  0  0  0  0999 V2000
  -16.2309  -27.4742   21.4058 C   0  0  0  0  0  0  0  0  0  0  0  0
  -17.4203  -27.4475   20.6847 C   0  0  0  0  0  0  0  0  0  0  0  0
  -26.7328  -12.9813   20.5303 C   0  0  0  0  0  0  0  0  0  0  0  0
  -25.2291  -14.4715   19.3663 C   0  0  0  0  0  0  0  0  0  0  0  0
  -16.1624  -28.1746   22.6094 C   0  0  0  0  0  0  0  0  0  0  0  0
  -18.5416  -28.1222   21.1663 C   0  0  0  0  0  0  0  0  0  0  0  0
  -22.7706  -25.3584   20.8170 C   0  0  0  0  0  0  0  0  0  0  0  0
  -25.8797  -11.9109   20.2622 C   0  0  0  0  0  0  0  0  0  0  0  0
  -24.3759  -13.4011   19.0981 C   0  0  0  0  0  0  0  0  0  0  0  0
  -23.3717  -25.2700   19.5621 C   0  0  0  0  0  0  0  0  0  0  0  0
  -23.9188   -8.8492   20.1939 C   0  0  0  0  0  0  0  0  0  0  0  0
  -23.6391   -7.9642   21.2352 C   0  0  0  0  0  0  0  0  0  0  0  0
  -24.9687  -26.9560   20.2150 C   0  0  0  0  0  0  0  0  0  0  0  0
  -26.9253  -23.2805   19.3974 C   0  0  0  0  0  0  0  0  0  0  0  0
  -22.7035   -9.7793   22.5265 C   0  0  0  0  0  0  0  0  0  0  0  0
  -28.8716  -22.9102   18.0817 C   0  0  0  0  0  0  0  0  0  0  0  0
  -26.4075  -14.2616   20.0824 C   0  0  0  0  0  0  0  0  0  0  0  0
  -28.3561  -15.8243   19.5639 C   0  0  0  0  0  0  0  0  0  0  0  0
  -17.2861  -28.8502   23.1108 C   0  0  0  0  0  0  0  0  0  0  0  0
  -23.2582  -26.2556   21.7781 C   0  0  0  0  0  0  0  0  0  0  0  0
  -18.4877  -28.8334   22.3770 C   0  0  0  0  0  0  0  0  0  0  0  0
  -24.3736  -27.0520   21.4822 C   0  0  0  0  0  0  0  0  0  0  0  0
  -27.5682  -23.3721   18.1680 C   0  0  0  0  0  0  0  0  0  0  0  0
  -27.5959  -22.7374   20.4877 C   0  0  0  0  0  0  0  0  0  0  0  0
  -24.7012  -12.1207   19.5460 C   0  0  0  0  0  0  0  0  0  0  0  0
  -24.4691  -26.0709   19.2600 C   0  0  0  0  0  0  0  0  0  0  0  0
  -23.5910  -10.1992   20.3189 C   0  0  0  0  0  0  0  0  0  0  0  0
  -23.0314   -8.4292   22.4014 C   0  0  0  0  0  0  0  0  0  0  0  0
  -22.9833  -10.6642   21.4852 C   0  0  0  0  0  0  0  0  0  0  0  0
  -27.2882  -15.3679   20.3595 C   0  0  0  0  0  0  0  0  0  0  0  0
  -28.8981  -22.3037   20.2975 C   0  0  0  0  0  0  0  0  0  0  0  0
  -28.8719  -16.8900   20.2601 C   0  0  0  0  0  0  0  0  0  0  0  0
  -28.8386  -15.3293   18.3078 C   0  0  0  0  0  0  0  0  0  0  0  0
  -22.0634  -28.7738   23.3061 C   0  0  0  0  0  0  0  0  0  0  0  0
  -24.8659  -28.6262   24.9330 C   0  0  0  0  0  0  0  0  0  0  0  0
  -28.1291  -27.6291   24.9981 C   0  0  0  0  0  0  0  0  0  0  0  0
  -26.1216  -20.3635   24.4921 C   0  0  0  0  0  0  0  0  0  0  0  0
  -17.1503  -29.6330   24.3927 C   0  0  0  0  0  0  0  0  0  0  0  0
  -22.6152  -26.3197   23.1364 C   0  0  0  0  0  0  0  0  0  0  0  0
  -24.9480  -28.0167   22.4861 C   0  0  0  0  0  0  0  0  0  0  0  0
  -18.4895  -30.0101   25.0209 C   0  0  0  0  0  0  0  0  0  0  0  0
  -29.3659  -18.5932   24.6975 C   0  0  0  0  0  0  0  0  0  0  0  0
  -19.4349  -30.5736   23.9646 C   0  0  0  0  0  0  0  0  0  0  0  0
  -29.2513  -17.5572   23.5805 C   0  0  0  0  0  0  0  0  0  0  0  0
  -28.0008  -18.9646   25.2687 C   0  0  0  0  0  0  0  0  0  0  0  0
  -26.9087  -18.3861   23.1271 C   0  0  0  0  0  0  0  0  0  0  0  0
  -19.7325  -29.5323   22.8789 C   0  0  1  0  0  0  0  0  0  0  0  0
  -22.8761  -27.6375   23.8593 C   0  0  1  0  0  0  0  0  0  0  0  0
  -28.2627  -18.0245   22.4982 C   0  0  2  0  0  0  0  0  0  0  0  0
  -29.6671  -21.7109   21.4327 C   0  0  0  0  0  0  0  0  0  0  0  0
  -30.1770  -27.6835   26.4474 C   0  0  0  0  0  0  0  0  0  0  0  0
  -25.2929  -31.5609   24.2154 C   0  0  0  0  0  0  0  0  0  0  0  0
  -27.7025  -31.2906   24.8387 C   0  0  0  0  0  0  0  0  0  0  0  0
  -25.9263  -30.9570   26.5581 C   0  0  0  0  0  0  0  0  0  0  0  0
  -24.7457  -22.2338   23.6623 C   0  0  0  0  0  0  0  0  0  0  0  0
  -28.2496  -24.6754   25.1387 C   0  0  0  0  0  0  0  0  0  0  0  0
  -26.8688  -23.9550   16.9660 C   0  0  0  0  0  0  0  0  0  0  0  0
  -26.9136  -22.6380   21.8082 C   0  0  0  0  0  0  0  0  0  0  0  0
  -27.0570  -25.4662   16.8167 C   0  0  0  0  0  0  0  0  0  0  0  0
  -26.3983  -21.2295   22.1307 C   0  0  0  0  0  0  0  0  0  0  0  0
  -26.4550  -26.2661   17.9661 C   0  0  0  0  0  0  0  0  0  1  0  0
  -26.2417  -29.2196   24.7486 C   0  0  1  0  0  0  0  0  0  0  0  0
  -28.9374  -26.8956   26.0531 C   0  0  2  0  0  0  0  0  0  0  0  0
  -26.2791  -30.7403   25.0704 C   0  0  0  0  0  0  0  0  0  0  0  0
  -29.5556  -22.3764   19.1185 N   0  0  0  0  0  0  0  0  0  0  0  0
  -27.1337  -16.0848   21.4759 N   0  0  0  0  0  0  0  0  0  0  0  0
  -28.1114  -17.0025   21.3867 N   0  0  0  0  0  0  0  0  0  0  0  0
  -24.2805  -28.0474   23.7980 N   0  0  0  0  0  0  0  0  0  0  0  0
  -27.0679  -19.3635   24.2143 N   0  0  0  0  0  0  0  0  0  0  0  0
  -29.8973  -17.7324   20.0125 N   0  0  0  0  0  0  0  0  0  0  0  0
  -28.1931  -14.2267   17.7317 N   0  0  0  0  0  0  0  0  0  0  0  0
  -20.6982  -28.5660   23.3566 N   0  0  0  0  0  0  0  0  0  0  0  0
  -27.1460  -28.4143   25.5622 N   0  0  0  0  0  0  0  0  0  0  0  0
  -25.7163  -21.1755   23.4219 N   0  0  0  0  0  0  0  0  0  0  0  0
  -29.3697  -25.5643   25.5417 N   0  3  0  0  0  0  0  0  0  0  0  0
  -29.8236  -15.8392   17.7219 O   0  0  0  0  0  0  0  0  0  0  0  0
  -22.6328  -29.7663   22.8673 O   0  0  0  0  0  0  0  0  0  0  0  0
  -24.3333  -28.6680   26.0449 O   0  0  0  0  0  0  0  0  0  0  0  0
  -28.3502  -27.5195   23.7941 O   0  0  0  0  0  0  0  0  0  0  0  0
  -25.6722  -20.5278   25.6335 O   0  0  0  0  0  0  0  0  0  0  0  0
  -23.8686  -11.0764   19.2840 O   0  0  0  0  0  0  0  0  0  0  0  0
  -25.0572  -25.9871   18.0356 O   0  0  0  0  0  0  0  0  0  1  0  0
  -22.7615   -7.5790   23.4006 F   0  0  0  0  0  0  0  0  0  0  0  0
  -22.6649  -11.9599   21.6106 F   0  0  0  0  0  0  0  0  0  0  0  0
  1  2  1  0  0  0  0
  1  5  2  0  0  0  0
  2  6  2  0  0  0  0
  3  8  2  0  0  0  0
  3 17  1  0  0  0  0
  4  9  1  0  0  0  0
  4 17  2  0  0  0  0
  5 19  1  0  0  0  0
  6 21  1  0  0  0  0
  7 10  2  0  0  0  0
  7 20  1  0  0  0  0
  8 25  1  0  0  0  0
  9 25  2  0  0  0  0
 10 26  1  0  0  0  0
 11 12  2  0  0  0  0
 11 27  1  0  0  0  0
 12 28  1  0  0  0  0
 13 22  1  0  0  0  0
 13 26  2  0  0  0  0
 14 23  2  0  0  0  0
 14 24  1  0  0  0  0
 15 28  2  0  0  0  0
 15 29  1  0  0  0  0
 16 23  1  0  0  0  0
 16 65  2  0  0  0  0
 17 30  1  0  0  0  0
 18 30  1  0  0  0  0
 18 32  2  0  0  0  0
 18 33  1  0  0  0  0
 19 21  2  0  0  0  0
 19 38  1  0  0  0  0
 20 22  2  0  0  0  0
 20 39  1  0  0  0  0
 21 47  1  0  0  0  0
 22 40  1  0  0  0  0
 23 57  1  0  0  0  0
 24 31  2  0  0  0  0
 24 58  1  0  0  0  0
 25 81  1  0  0  0  0
 26 82  1  0  0  0  0
 27 29  2  0  0  0  0
 27 81  1  0  0  0  0
 28 83  1  0  0  0  0
 29 84  1  0  0  0  0
 30 66  2  0  0  0  0
 31 50  1  0  0  0  0
 31 65  1  0  0  0  0
 32 67  1  0  0  0  0
 32 70  1  0  0  0  0
 33 71  1  0  0  0  0
 33 76  2  0  0  0  0
 34 48  1  0  0  0  0
 34 72  1  0  0  0  0
 34 77  2  0  0  0  0
 35 62  1  0  0  0  0
 35 68  1  0  0  0  0
 35 78  2  0  0  0  0
 36 63  1  0  0  0  0
 36 73  1  0  0  0  0
 36 79  2  0  0  0  0
 37 69  1  0  0  0  0
 37 74  1  0  0  0  0
 37 80  2  0  0  0  0
 38 41  1  0  0  0  0
 39 48  1  0  0  0  0
 40 68  1  0  0  0  0
 41 43  1  0  0  0  0
 42 44  1  0  0  0  0
 42 45  1  0  0  0  0
 43 47  1  0  0  0  0
 44 49  1  0  0  0  0
 45 69  1  0  0  0  0
 46 49  1  0  0  0  0
 46 69  1  0  0  0  0
 47 72  1  0  0  0  0
 48 68  1  0  0  0  0
 49 67  1  0  0  0  0
 51 63  1  0  0  0  0
 52 64  1  0  0  0  0
 53 64  1  0  0  0  0
 54 64  1  0  0  0  0
 55 74  1  0  0  0  0
 56 75  1  0  0  0  0
 57 59  1  0  0  0  0
 58 60  1  0  0  0  0
 59 61  1  0  0  0  0
 60 74  1  0  0  0  0
 61 82  1  0  0  0  0
 62 64  1  0  0  0  0
 62 73  1  0  0  0  0
 63 75  1  0  0  0  0
 66 67  1  0  0  0  0
M  CHG  1  75   1
M  ISO  4  37 100  61 101  74 100  82 101
M  END
> <Batch ID>
0088

> <Smiles>
CNC(C)C(=O)NC(C(=O)N1Cc2cc([101O:1][101CH2:1]CCc3cnc(C)c(CC[100N:0](C)[100C:0](=O)N4CCCC(n5nc(-c6ccc(Oc7ccc(F)cc7F)cc6)c(C(N)=O)c5N)C4)c3)ccc2CC1C(=O)NC1CCCc2ccccc21)C(C)(C)C

> <Shape>
0.235

> <Color>
0.088

> <Negative vol penalty>
0.000

$$$$

  -OEChem-04052319043D

 84 91  0     1  0  0  0  0  0999 V2000
  -20.1407  -27.5431   26.1733 C   0  0  0  0  0  0  0  0  0  0  0  0
  -21.1374  -26.7371   25.6327 C   0  0  0  0  0  0  0  0  0  0  0  0
  -23.0380   -9.7632   20.0692 C   0  0  0  0  0  0  0  0  0  0  0  0
  -23.6648  -10.0559   22.3840 C   0  0  0  0  0  0  0  0  0  0  0  0
  -19.5095  -28.4979   25.3771 C   0  0  0  0  0  0  0  0  0  0  0  0
  -21.5029  -26.8847   24.2952 C   0  0  0  0  0  0  0  0  0  0  0  0
  -27.1034  -26.2047   21.9124 C   0  0  0  0  0  0  0  0  0  0  0  0
  -22.2713   -8.6512   20.4173 C   0  0  0  0  0  0  0  0  0  0  0  0
  -22.8981   -8.9439   22.7322 C   0  0  0  0  0  0  0  0  0  0  0  0
  -27.7172  -25.1445   21.2469 C   0  0  0  0  0  0  0  0  0  0  0  0
  -23.1927   -5.5779   22.6114 C   0  0  0  0  0  0  0  0  0  0  0  0
  -23.7573   -4.6497   23.4861 C   0  0  0  0  0  0  0  0  0  0  0  0
  -27.1361  -26.1446   19.1300 C   0  0  0  0  0  0  0  0  0  0  0  0
  -21.9621   -5.0372   25.0559 C   0  0  0  0  0  0  0  0  0  0  0  0
  -23.7348  -10.4655   21.0525 C   0  0  0  0  0  0  0  0  0  0  0  0
  -24.1041  -12.9555   20.6386 C   0  0  0  0  0  0  0  0  0  0  0  0
  -19.8742  -28.6639   24.0317 C   0  0  0  0  0  0  0  0  0  0  0  0
  -26.4907  -27.2391   21.1905 C   0  0  0  0  0  0  0  0  0  0  0  0
  -20.8751  -27.8417   23.4798 C   0  0  0  0  0  0  0  0  0  0  0  0
  -26.5174  -27.2182   19.7887 C   0  0  0  0  0  0  0  0  0  0  0  0
  -22.2014   -8.2415   21.7489 C   0  0  0  0  0  0  0  0  0  0  0  0
  -27.7311  -25.1128   19.8555 C   0  0  0  0  0  0  0  0  0  0  0  0
  -22.0129   -6.2359   22.9589 C   0  0  0  0  0  0  0  0  0  0  0  0
  -23.1420   -4.3793   24.7084 C   0  0  0  0  0  0  0  0  0  0  0  0
  -21.3976   -5.9655   24.1812 C   0  0  0  0  0  0  0  0  0  0  0  0
  -24.5273  -11.6140   20.6934 C   0  0  0  0  0  0  0  0  0  0  0  0
  -25.2216  -13.6525   20.2487 C   0  0  0  0  0  0  0  0  0  0  0  0
  -22.8160  -13.5211   20.9154 C   0  0  0  0  0  0  0  0  0  0  0  0
  -23.5265  -28.3634   20.9598 C   0  0  0  0  0  0  0  0  0  0  0  0
  -30.7084  -14.6270   20.7323 C   0  0  0  0  0  0  0  0  0  0  0  0
  -24.9503  -30.6482   19.1501 C   0  0  0  0  0  0  0  0  0  0  0  0
  -27.5775  -31.5560   17.1700 C   0  0  0  0  0  0  0  0  0  0  0  0
  -19.1307  -29.6770   23.1977 C   0  0  0  0  0  0  0  0  0  0  0  0
  -25.8562  -28.3893   21.9232 C   0  0  0  0  0  0  0  0  0  0  0  0
  -25.8916  -28.3145   18.9672 C   0  0  0  0  0  0  0  0  0  0  0  0
  -19.8370  -30.0258   21.8902 C   0  0  0  0  0  0  0  0  0  0  0  0
  -29.6696  -12.0383   18.4830 C   0  0  0  0  0  0  0  0  0  0  0  0
  -20.3052  -28.7585   21.1819 C   0  0  0  0  0  0  0  0  0  0  0  0
  -28.2138  -11.7865   18.8733 C   0  0  0  0  0  0  0  0  0  0  0  0
  -30.5213  -12.3883   19.6992 C   0  0  0  0  0  0  0  0  0  0  0  0
  -28.5468  -13.2943   20.8834 C   0  0  0  0  0  0  0  0  0  0  0  0
  -21.3166  -27.9887   22.0398 C   0  0  1  0  0  0  0  0  0  0  0  0
  -24.8140  -29.1273   21.0886 C   0  0  1  0  0  0  0  0  0  0  0  0
  -27.6454  -12.9677   19.6797 C   0  0  2  0  0  0  0  0  0  0  0  0
  -34.1372  -17.2709   24.0043 C   0  0  0  0  0  0  0  0  0  0  0  0
  -28.4435  -33.4742   15.8033 C   0  0  0  0  0  0  0  0  0  0  0  0
  -26.6981  -19.9882   19.7427 C   0  0  0  0  0  0  0  0  0  0  0  0
  -29.6176  -21.7755   17.9528 C   0  0  0  0  0  0  0  0  0  0  0  0
  -29.3951  -18.2653   23.2559 C   0  0  0  0  0  0  0  0  0  0  0  0
  -22.9239  -30.0012   16.9625 C   0  0  0  0  0  0  0  0  0  0  0  0
  -24.3915  -31.2185   15.3399 C   0  0  0  0  0  0  0  0  0  0  0  0
  -23.3859  -32.4400   17.2685 C   0  0  0  0  0  0  0  0  0  0  0  0
  -30.0205  -31.7835   18.8250 C   0  0  0  0  0  0  0  0  0  0  0  0
  -30.0355  -15.7320   21.5070 C   0  0  0  0  0  0  0  0  0  0  0  0
  -33.0853  -17.6989   22.9914 C   0  0  0  0  0  0  0  0  0  0  0  0
  -32.0363  -16.6036   22.7805 C   0  0  0  0  0  0  0  0  0  0  0  0
  -29.0701  -20.0291   20.6511 C   0  0  0  0  0  0  0  0  0  0  0  0
  -28.3318  -22.8117   19.8599 C   0  0  0  0  0  0  0  0  0  1  0  0
  -25.2694  -30.8051   17.6829 C   0  0  1  0  0  0  0  0  0  0  0  0
  -28.4533  -32.7959   17.1644 C   0  0  2  0  0  0  0  0  0  0  0  0
  -28.1754  -20.2646   19.4244 C   0  0  2  0  0  0  0  0  0  0  0  0
  -28.3489  -21.6865   18.8146 C   0  0  2  0  0  0  0  0  0  0  0  0
  -30.9837  -16.9369   21.6898 C   0  0  2  0  0  0  0  0  0  0  0  0
  -30.2285  -18.2596   21.9799 C   0  0  1  0  0  0  0  0  0  0  0  0
  -24.0029  -31.0944   16.8286 C   0  0  0  0  0  0  0  0  0  0  0  0
  -25.8133  -11.4652   20.3645 N   0  0  0  0  0  0  0  0  0  0  0  0
  -26.2077  -12.7222   20.0992 N   0  0  0  0  0  0  0  0  0  0  0  0
  -25.2780  -29.4143   19.7297 N   0  0  0  0  0  0  0  0  0  0  0  0
  -29.9361  -13.5000   20.4509 N   0  0  0  0  0  0  0  0  0  0  0  0
  -25.4470  -14.9641   20.0226 N   0  0  0  0  0  0  0  0  0  0  0  0
  -21.7788  -12.6623   21.3040 N   0  0  0  0  0  0  0  0  0  0  0  0
  -22.6190  -28.6159   21.9708 N   0  0  0  0  0  0  0  0  0  0  0  0
  -26.2968  -31.8372   17.5967 N   0  0  0  0  0  0  0  0  0  0  0  0
  -29.8602  -32.4378   17.5009 N   0  3  0  0  0  0  0  0  0  0  0  0
  -29.3218  -18.5781   20.8444 N   0  3  0  0  0  0  0  0  0  0  0  0
  -22.5871  -14.7495   20.8050 O   0  0  0  0  0  0  0  0  0  0  0  0
  -23.3677  -27.6025   20.0125 O   0  0  0  0  0  0  0  0  0  0  0  0
  -31.8846  -14.7646   20.3859 O   0  0  0  0  0  0  0  0  0  0  0  0
  -24.4361  -31.5883   19.7610 O   0  0  0  0  0  0  0  0  0  0  0  0
  -27.9874  -30.4494   16.8264 O   0  0  0  0  0  0  0  0  0  0  0  0
  -21.4532   -7.1566   22.0890 O   0  0  0  0  0  0  0  0  0  0  0  0
  -28.3290  -24.0788   19.2035 O   0  0  0  0  0  0  0  0  0  1  0  0
  -23.6835   -3.4868   25.5476 F   0  0  0  0  0  0  0  0  0  0  0  0
  -20.2633   -6.5935   24.5200 F   0  0  0  0  0  0  0  0  0  0  0  0
  1  2  1  0  0  0  0
  1  5  2  0  0  0  0
  2  6  2  0  0  0  0
  3  8  2  0  0  0  0
  3 15  1  0  0  0  0
  4  9  1  0  0  0  0
  4 15  2  0  0  0  0
  5 17  1  0  0  0  0
  6 19  1  0  0  0  0
  7 10  2  0  0  0  0
  7 18  1  0  0  0  0
  8 21  1  0  0  0  0
  9 21  2  0  0  0  0
 10 22  1  0  0  0  0
 11 12  2  0  0  0  0
 11 23  1  0  0  0  0
 12 24  1  0  0  0  0
 13 20  1  0  0  0  0
 13 22  2  0  0  0  0
 14 24  2  0  0  0  0
 14 25  1  0  0  0  0
 15 26  1  0  0  0  0
 16 26  1  0  0  0  0
 16 27  2  0  0  0  0
 16 28  1  0  0  0  0
 17 19  2  0  0  0  0
 17 33  1  0  0  0  0
 18 20  2  0  0  0  0
 18 34  1  0  0  0  0
 19 42  1  0  0  0  0
 20 35  1  0  0  0  0
 21 81  1  0  0  0  0
 22 82  1  0  0  0  0
 23 25  2  0  0  0  0
 23 81  1  0  0  0  0
 24 83  1  0  0  0  0
 25 84  1  0  0  0  0
 26 66  2  0  0  0  0
 27 67  1  0  0  0  0
 27 70  1  0  0  0  0
 28 71  1  0  0  0  0
 28 76  2  0  0  0  0
 29 43  1  0  0  0  0
 29 72  1  0  0  0  0
 29 77  2  0  0  0  0
 30 54  1  0  0  0  0
 30 69  1  0  0  0  0
 30 78  2  0  0  0  0
 31 59  1  0  0  0  0
 31 68  1  0  0  0  0
 31 79  2  0  0  0  0
 32 60  1  0  0  0  0
 32 73  1  0  0  0  0
 32 80  2  0  0  0  0
 33 36  1  0  0  0  0
 34 43  1  0  0  0  0
 35 68  1  0  0  0  0
 36 38  1  0  0  0  0
 37 39  1  0  0  0  0
 37 40  1  0  0  0  0
 38 42  1  0  0  0  0
 39 44  1  0  0  0  0
 40 69  1  0  0  0  0
 41 44  1  0  0  0  0
 41 69  1  0  0  0  0
 42 72  1  0  0  0  0
 43 68  1  0  0  0  0
 44 67  1  0  0  0  0
 45 55  1  0  0  0  0
 46 60  1  0  0  0  0
 47 61  1  0  0  0  0
 48 62  1  0  0  0  0
 49 64  1  0  0  0  0
 50 65  1  0  0  0  0
 51 65  1  0  0  0  0
 52 65  1  0  0  0  0
 53 74  1  0  0  0  0
 54 63  1  0  0  0  0
 55 56  1  0  0  0  0
 56 63  1  0  0  0  0
 57 61  1  0  0  0  0
 57 75  1  0  0  0  0
 58 62  1  0  0  0  0
 58 82  1  0  0  0  0
 59 65  1  0  0  0  0
 59 73  1  0  0  0  0
 60 74  1  0  0  0  0
 61 62  1  0  0  0  0
 63 64  1  0  0  0  0
 64 75  1  0  0  0  0
 66 67  1  0  0  0  0
M  CHG  2  74   1  75   1
M  ISO  4  30 100  54 100  58 101  82 101
M  END
> <Batch ID>
0088

> <Smiles>
CCCC([100CH2:0][100C:0](=O)N1CCCC(n2nc(-c3ccc(Oc4ccc(F)cc4F)cc3)c(C(N)=O)c2N)C1)C(C)NCC(C)C(C)[101CH2:1][101O:1]c1ccc2c(c1)CN(C(=O)C(NC(=O)C(C)NC)C(C)(C)C)C(C(=O)NC1CCCc3ccccc31)C2

> <Shape>
0.322

> <Color>
0.207

> <Negative vol penalty>
0.000

$$$$

  -OEChem-04052319043D

 84 92  0     1  0  0  0  0  0999 V2000
  -25.7993  -18.8283   20.4052 C   0  0  0  0  0  0  0  0  0  0  0  0
  -26.8318  -18.5136   21.2829 C   0  0  0  0  0  0  0  0  0  0  0  0
  -23.1790   -9.8393   19.9163 C   0  0  0  0  0  0  0  0  0  0  0  0
  -23.8454   -9.9014   22.2377 C   0  0  0  0  0  0  0  0  0  0  0  0
  -26.0838  -19.4524   19.1913 C   0  0  0  0  0  0  0  0  0  0  0  0
  -28.1495  -18.8219   20.9468 C   0  0  0  0  0  0  0  0  0  0  0  0
  -32.6154  -20.5491   24.7650 C   0  0  0  0  0  0  0  0  0  0  0  0
  -22.4610   -8.6673   20.1537 C   0  0  0  0  0  0  0  0  0  0  0  0
  -23.1274   -8.7293   22.4752 C   0  0  0  0  0  0  0  0  0  0  0  0
  -33.6597  -19.8473   25.3654 C   0  0  0  0  0  0  0  0  0  0  0  0
  -19.9034   -7.8404   22.9607 C   0  0  0  0  0  0  0  0  0  0  0  0
  -19.1015   -7.7932   24.1010 C   0  0  0  0  0  0  0  0  0  0  0  0
  -35.1431  -20.5564   23.6002 C   0  0  0  0  0  0  0  0  0  0  0  0
  -20.3706   -5.9054   24.9152 C   0  0  0  0  0  0  0  0  0  0  0  0
  -23.8712  -10.4564   20.9583 C   0  0  0  0  0  0  0  0  0  0  0  0
  -24.1408  -12.9890   20.8141 C   0  0  0  0  0  0  0  0  0  0  0  0
  -27.4047  -19.7772   18.8444 C   0  0  0  0  0  0  0  0  0  0  0  0
  -32.8247  -21.2521   23.5698 C   0  0  0  0  0  0  0  0  0  0  0  0
  -28.4520  -19.4497   19.7265 C   0  0  0  0  0  0  0  0  0  0  0  0
  -34.1004  -21.2684   22.9879 C   0  0  0  0  0  0  0  0  0  0  0  0
  -22.4352   -8.1123   21.4332 C   0  0  0  0  0  0  0  0  0  0  0  0
  -34.9231  -19.8485   24.7815 C   0  0  0  0  0  0  0  0  0  0  0  0
  -20.9388   -6.9200   22.7976 C   0  0  0  0  0  0  0  0  0  0  0  0
  -19.3351   -6.8257   25.0783 C   0  0  0  0  0  0  0  0  0  0  0  0
  -21.1724   -5.9526   23.7749 C   0  0  0  0  0  0  0  0  0  0  0  0
  -24.6136  -11.6668   20.7135 C   0  0  0  0  0  0  0  0  0  0  0  0
  -25.2234  -13.7669   20.4834 C   0  0  0  0  0  0  0  0  0  0  0  0
  -22.8394  -13.4710   21.1744 C   0  0  0  0  0  0  0  0  0  0  0  0
  -31.6551  -21.0605   20.6204 C   0  0  0  0  0  0  0  0  0  0  0  0
  -33.3971  -23.7599   20.1726 C   0  0  0  0  0  0  0  0  0  0  0  0
  -36.0300  -25.7030   21.1417 C   0  0  0  0  0  0  0  0  0  0  0  0
  -30.5343  -14.9876   20.9850 C   0  0  0  0  0  0  0  0  0  0  0  0
  -27.6678  -20.4089   17.5003 C   0  0  0  0  0  0  0  0  0  0  0  0
  -31.6943  -22.0261   22.9489 C   0  0  0  0  0  0  0  0  0  0  0  0
  -34.3822  -22.0241   21.7160 C   0  0  0  0  0  0  0  0  0  0  0  0
  -29.0528  -21.0402   17.3847 C   0  0  0  0  0  0  0  0  0  0  0  0
  -29.6971  -12.5081   18.4852 C   0  0  0  0  0  0  0  0  0  0  0  0
  -30.1189  -20.0906   17.9219 C   0  0  0  0  0  0  0  0  0  0  0  0
  -28.2503  -12.1782   18.8566 C   0  0  0  0  0  0  0  0  0  0  0  0
  -33.5600  -15.7836   23.0980 C   0  0  0  0  0  0  0  0  0  0  0  0
  -34.8828  -17.1896   21.4799 C   0  0  0  0  0  0  0  0  0  0  0  0
  -30.5465  -12.7476   19.7299 C   0  0  0  0  0  0  0  0  0  0  0  0
  -28.5728  -13.4728   21.0153 C   0  0  0  0  0  0  0  0  0  0  0  0
  -34.8328  -15.5038   23.8854 C   0  0  0  0  0  0  0  0  0  0  0  0
  -36.1489  -16.9023   22.2754 C   0  0  0  0  0  0  0  0  0  0  0  0
  -29.8918  -19.7905   19.4085 C   0  0  1  0  0  0  0  0  0  0  0  0
  -31.8945  -22.2842   21.4587 C   0  0  1  0  0  0  0  0  0  0  0  0
  -33.8556  -16.0599   21.6193 C   0  0  0  0  0  0  0  0  0  0  0  0
  -27.6572  -13.2420   19.7993 C   0  0  2  0  0  0  0  0  0  0  0  0
  -37.2264  -27.8312   20.5612 C   0  0  0  0  0  0  0  0  0  0  0  0
  -37.4789  -15.0453   24.4028 C   0  0  0  0  0  0  0  0  0  0  0  0
  -34.6982  -22.3745   17.7856 C   0  0  0  0  0  0  0  0  0  0  0  0
  -36.4960  -24.1161   17.8435 C   0  0  0  0  0  0  0  0  0  0  0  0
  -34.1307  -24.7815   17.4128 C   0  0  0  0  0  0  0  0  0  0  0  0
  -38.0138  -17.5774   26.6355 C   0  0  0  0  0  0  0  0  0  0  0  0
  -36.3271  -15.7630   26.9597 C   0  0  0  0  0  0  0  0  0  0  0  0
  -35.4522  -26.8870   23.7918 C   0  0  0  0  0  0  0  0  0  0  0  0
  -32.5721  -16.3981   20.8641 C   0  0  0  0  0  0  0  0  0  0  0  0
  -35.6003  -17.9989   26.1143 C   0  0  0  0  0  0  0  0  0  1  0  0
  -34.8114  -24.0598   19.7383 C   0  0  1  0  0  0  0  0  0  0  0  0
  -36.1371  -27.1934   21.4094 C   0  0  2  0  0  0  0  0  0  0  0  0
  -37.0147  -16.4914   24.5768 C   0  0  2  0  0  0  0  0  0  0  0  0
  -35.0286  -23.8171   18.2180 C   0  0  0  0  0  0  0  0  0  0  0  0
  -36.7325  -16.9399   26.0491 C   0  0  0  0  0  0  0  0  0  0  0  0
  -25.8965  -11.6044   20.3474 N   0  0  0  0  0  0  0  0  0  0  0  0
  -26.2391  -12.8972   20.2149 N   0  0  0  0  0  0  0  0  0  0  0  0
  -33.2429  -22.7604   21.1437 N   0  0  0  0  0  0  0  0  0  0  0  0
  -29.9369  -13.7840   20.5750 N   0  0  0  0  0  0  0  0  0  0  0  0
  -25.3960  -15.1031   20.3988 N   0  0  0  0  0  0  0  0  0  0  0  0
  -21.8428  -12.5357   21.4847 N   0  0  0  0  0  0  0  0  0  0  0  0
  -30.3416  -20.8993   20.2224 N   0  0  0  0  0  0  0  0  0  0  0  0
  -35.0907  -25.4247   20.1713 N   0  0  0  0  0  0  0  0  0  0  0  0
  -31.8296  -15.2029   20.5306 N   0  0  0  0  0  0  0  0  0  0  0  0
  -35.7894  -16.6598   23.7212 N   0  3  0  0  0  0  0  0  0  0  0  0
  -36.4539  -27.4404   22.8446 N   0  3  0  0  0  0  0  0  0  0  0  0
  -22.5638  -14.6944   21.2038 O   0  0  0  0  0  0  0  0  0  0  0  0
  -32.5928  -20.3182   20.3531 O   0  0  0  0  0  0  0  0  0  0  0  0
  -32.4640  -24.3943   19.6740 O   0  0  0  0  0  0  0  0  0  0  0  0
  -36.7139  -24.8694   21.7314 O   0  0  0  0  0  0  0  0  0  0  0  0
  -29.9540  -15.8124   21.6992 O   0  0  0  0  0  0  0  0  0  0  0  0
  -21.7345   -6.9687   21.6653 O   0  0  0  0  0  0  0  0  0  0  0  0
  -35.9441  -19.1638   25.3652 O   0  0  0  0  0  0  0  0  0  1  0  0
  -18.5660   -6.7814   26.1741 F   0  0  0  0  0  0  0  0  0  0  0  0
  -22.1664   -5.0665   23.6243 F   0  0  0  0  0  0  0  0  0  0  0  0
  1  2  1  0  0  0  0
  1  5  2  0  0  0  0
  2  6  2  0  0  0  0
  3  8  2  0  0  0  0
  3 15  1  0  0  0  0
  4  9  1  0  0  0  0
  4 15  2  0  0  0  0
  5 17  1  0  0  0  0
  6 19  1  0  0  0  0
  7 10  2  0  0  0  0
  7 18  1  0  0  0  0
  8 21  1  0  0  0  0
  9 21  2  0  0  0  0
 10 22  1  0  0  0  0
 11 12  2  0  0  0  0
 11 23  1  0  0  0  0
 12 24  1  0  0  0  0
 13 20  1  0  0  0  0
 13 22  2  0  0  0  0
 14 24  2  0  0  0  0
 14 25  1  0  0  0  0
 15 26  1  0  0  0  0
 16 26  1  0  0  0  0
 16 27  2  0  0  0  0
 16 28  1  0  0  0  0
 17 19  2  0  0  0  0
 17 33  1  0  0  0  0
 18 20  2  0  0  0  0
 18 34  1  0  0  0  0
 19 46  1  0  0  0  0
 20 35  1  0  0  0  0
 21 81  1  0  0  0  0
 22 82  1  0  0  0  0
 23 25  2  0  0  0  0
 23 81  1  0  0  0  0
 24 83  1  0  0  0  0
 25 84  1  0  0  0  0
 26 65  2  0  0  0  0
 27 66  1  0  0  0  0
 27 69  1  0  0  0  0
 28 70  1  0  0  0  0
 28 76  2  0  0  0  0
 29 47  1  0  0  0  0
 29 71  1  0  0  0  0
 29 77  2  0  0  0  0
 30 60  1  0  0  0  0
 30 67  1  0  0  0  0
 30 78  2  0  0  0  0
 31 61  1  0  0  0  0
 31 72  1  0  0  0  0
 31 79  2  0  0  0  0
 32 68  1  0  0  0  0
 32 73  1  0  0  0  0
 32 80  2  0  0  0  0
 33 36  1  0  0  0  0
 34 47  1  0  0  0  0
 35 67  1  0  0  0  0
 36 38  1  0  0  0  0
 37 39  1  0  0  0  0
 37 42  1  0  0  0  0
 38 46  1  0  0  0  0
 39 49  1  0  0  0  0
 40 44  1  0  0  0  0
 40 48  1  0  0  0  0
 41 45  1  0  0  0  0
 41 48  1  0  0  0  0
 42 68  1  0  0  0  0
 43 49  1  0  0  0  0
 43 68  1  0  0  0  0
 44 74  1  0  0  0  0
 45 74  1  0  0  0  0
 46 71  1  0  0  0  0
 47 67  1  0  0  0  0
 48 58  1  0  0  0  0
 49 66  1  0  0  0  0
 50 61  1  0  0  0  0
 51 62  1  0  0  0  0
 52 63  1  0  0  0  0
 53 63  1  0  0  0  0
 54 63  1  0  0  0  0
 55 64  1  0  0  0  0
 56 64  1  0  0  0  0
 57 75  1  0  0  0  0
 58 73  1  0  0  0  0
 59 64  1  0  0  0  0
 59 82  1  0  0  0  0
 60 63  1  0  0  0  0
 60 72  1  0  0  0  0
 61 75  1  0  0  0  0
 62 64  1  0  0  0  0
 62 74  1  0  0  0  0
 65 66  1  0  0  0  0
M  CHG  2  74   1  75   1
M  ISO  4  32 100  59 101  73 100  82 101
M  END
> <Batch ID>
0088

> <Smiles>
CNC(C)C(=O)NC(C(=O)N1Cc2cc([101O:1][101CH2:1]C(C)(C)C(C)N3CCC(C[100NH:0][100C:0](=O)N4CCCC(n5nc(-c6ccc(Oc7ccc(F)cc7F)cc6)c(C(N)=O)c5N)C4)CC3)ccc2CC1C(=O)NC1CCCc2ccccc21)C(C)(C)C

> <Shape>
0.189

> <Color>
0.168

> <Negative vol penalty>
0.000

$$$$

  -OEChem-04052319043D

 80 88  0     1  0  0  0  0  0999 V2000
  -23.2616  -34.2121   14.0704 C   0  0  0  0  0  0  0  0  0  0  0  0
  -24.5148  -33.6799   14.3561 C   0  0  0  0  0  0  0  0  0  0  0  0
  -22.4878  -10.3791   20.6542 C   0  0  0  0  0  0  0  0  0  0  0  0
  -24.0026  -10.0036   22.4985 C   0  0  0  0  0  0  0  0  0  0  0  0
  -22.3784  -34.5084   15.1077 C   0  0  0  0  0  0  0  0  0  0  0  0
  -24.8859  -33.4447   15.6794 C   0  0  0  0  0  0  0  0  0  0  0  0
  -27.3036  -26.8503   19.0994 C   0  0  0  0  0  0  0  0  0  0  0  0
  -21.6967   -9.3151   21.0873 C   0  0  0  0  0  0  0  0  0  0  0  0
  -23.2115   -8.9396   22.9317 C   0  0  0  0  0  0  0  0  0  0  0  0
  -27.5912  -25.7108   19.8511 C   0  0  0  0  0  0  0  0  0  0  0  0
  -22.7153   -5.7018   22.0943 C   0  0  0  0  0  0  0  0  0  0  0  0
  -23.3616   -4.5229   22.4659 C   0  0  0  0  0  0  0  0  0  0  0  0
  -26.6713  -26.7663   21.8228 C   0  0  0  0  0  0  0  0  0  0  0  0
  -22.4341   -4.7150   24.6885 C   0  0  0  0  0  0  0  0  0  0  0  0
  -23.6408  -10.7234   21.3598 C   0  0  0  0  0  0  0  0  0  0  0  0
  -24.0708  -13.1678   20.7705 C   0  0  0  0  0  0  0  0  0  0  0  0
  -22.7352  -34.2677   16.4439 C   0  0  0  0  0  0  0  0  0  0  0  0
  -26.6841  -27.9477   19.7039 C   0  0  0  0  0  0  0  0  0  0  0  0
  -24.0072  -33.7393   16.7357 C   0  0  0  0  0  0  0  0  0  0  0  0
  -26.3695  -27.9057   21.0721 C   0  0  0  0  0  0  0  0  0  0  0  0
  -22.0585   -8.5953   22.2260 C   0  0  0  0  0  0  0  0  0  0  0  0
  -27.2760  -25.6691   21.2095 C   0  0  0  0  0  0  0  0  0  0  0  0
  -21.9284   -6.3873   23.0198 C   0  0  0  0  0  0  0  0  0  0  0  0
  -23.2210   -4.0295   23.7629 C   0  0  0  0  0  0  0  0  0  0  0  0
  -21.7878   -5.8939   24.3168 C   0  0  0  0  0  0  0  0  0  0  0  0
  -24.4587  -11.8220   20.9126 C   0  0  0  0  0  0  0  0  0  0  0  0
  -25.2009  -13.8051   20.3198 C   0  0  0  0  0  0  0  0  0  0  0  0
  -22.8023  -13.7865   21.0233 C   0  0  0  0  0  0  0  0  0  0  0  0
  -30.7182  -14.6583   20.6678 C   0  0  0  0  0  0  0  0  0  0  0  0
  -25.2937  -31.4086   19.2981 C   0  0  0  0  0  0  0  0  0  0  0  0
  -23.3729  -29.8874   21.1439 C   0  0  0  0  0  0  0  0  0  0  0  0
  -21.2985  -27.7414   22.7959 C   0  0  0  0  0  0  0  0  0  0  0  0
  -21.7651  -34.6482   17.5342 C   0  0  0  0  0  0  0  0  0  0  0  0
  -26.4116  -29.2192   18.9470 C   0  0  0  0  0  0  0  0  0  0  0  0
  -25.7350  -29.1228   21.6879 C   0  0  0  0  0  0  0  0  0  0  0  0
  -22.0914  -34.0197   18.8865 C   0  0  0  0  0  0  0  0  0  0  0  0
  -29.5787  -11.9510   18.6154 C   0  0  0  0  0  0  0  0  0  0  0  0
  -23.5766  -34.1698   19.2005 C   0  0  0  0  0  0  0  0  0  0  0  0
  -31.1601  -16.5679   22.1678 C   0  0  0  0  0  0  0  0  0  0  0  0
  -29.4162  -16.7419   20.3480 C   0  0  0  0  0  0  0  0  0  0  0  0
  -30.5941  -17.8219   22.8307 C   0  0  0  0  0  0  0  0  0  0  0  0
  -28.8487  -17.9952   21.0111 C   0  0  0  0  0  0  0  0  0  0  0  0
  -28.1224  -11.7670   19.0400 C   0  0  0  0  0  0  0  0  0  0  0  0
  -30.4566  -12.3599   19.7941 C   0  0  0  0  0  0  0  0  0  0  0  0
  -28.5240  -13.3995   20.9370 C   0  0  0  0  0  0  0  0  0  0  0  0
  -24.4368  -33.4469   18.1570 C   0  0  1  0  0  0  0  0  0  0  0  0
  -30.0904  -15.8241   21.3678 C   0  0  0  0  0  0  0  0  0  0  0  0
  -25.1169  -29.9216   19.3935 C   0  0  1  0  0  0  0  0  0  0  0  0
  -29.9211  -18.7486   21.8093 C   0  0  0  0  0  0  0  0  0  0  0  0
  -27.5973  -13.0160   19.7697 C   0  0  2  0  0  0  0  0  0  0  0  0
  -19.0931  -27.6616   23.9904 C   0  0  0  0  0  0  0  0  0  0  0  0
  -24.6336  -31.2650   23.5557 C   0  0  0  0  0  0  0  0  0  0  0  0
  -22.7912  -30.3249   24.9664 C   0  0  0  0  0  0  0  0  0  0  0  0
  -22.2572  -31.9058   23.1120 C   0  0  0  0  0  0  0  0  0  0  0  0
  -20.2021  -25.7676   20.8826 C   0  0  0  0  0  0  0  0  0  0  0  0
  -29.3188  -19.9690   22.5032 C   0  0  0  0  0  0  0  0  0  0  0  0
  -29.0538  -21.1029   21.5124 C   0  0  0  0  0  0  0  0  0  0  0  0
  -28.4130  -22.3083   22.2064 C   0  0  0  0  0  0  0  0  0  0  0  0
  -28.1693  -23.4649   21.2449 C   0  0  0  0  0  0  0  0  0  1  0  0
  -22.9827  -29.5476   22.5601 C   0  0  1  0  0  0  0  0  0  0  0  0
  -19.8099  -27.4758   22.6621 C   0  0  2  0  0  0  0  0  0  0  0  0
  -23.1828  -30.7436   23.5332 C   0  0  0  0  0  0  0  0  0  0  0  0
  -25.7354  -11.6154   20.5790 N   0  0  0  0  0  0  0  0  0  0  0  0
  -26.1596  -12.8399   20.2228 N   0  0  0  0  0  0  0  0  0  0  0  0
  -29.9121  -13.5364   20.4743 N   0  0  0  0  0  0  0  0  0  0  0  0
  -24.7078  -29.6651   20.7849 N   0  0  0  0  0  0  0  0  0  0  0  0
  -25.4582  -15.0914   20.0009 N   0  0  0  0  0  0  0  0  0  0  0  0
  -22.5509  -14.2956   22.3047 N   0  0  0  0  0  0  0  0  0  0  0  0
  -24.4374  -32.0207   18.4028 N   0  0  0  0  0  0  0  0  0  0  0  0
  -21.6125  -29.0506   22.4980 N   0  0  0  0  0  0  0  0  0  0  0  0
  -19.5727  -26.0820   22.1910 N   0  3  0  0  0  0  0  0  0  0  0  0
  -21.9119  -13.8704   20.1438 O   0  0  0  0  0  0  0  0  0  0  0  0
  -31.8926  -14.7391   20.2983 O   0  0  0  0  0  0  0  0  0  0  0  0
  -26.1432  -31.9615   19.9868 O   0  0  0  0  0  0  0  0  0  0  0  0
  -22.5205  -30.3431   20.3763 O   0  0  0  0  0  0  0  0  0  0  0  0
  -22.1019  -26.8752   23.1346 O   0  0  0  0  0  0  0  0  0  0  0  0
  -21.2867   -7.5571   22.6491 O   0  0  0  0  0  0  0  0  0  0  0  0
  -27.5554  -24.5518   21.9364 O   0  0  0  0  0  0  0  0  0  1  0  0
  -23.8405   -2.8966   24.1192 F   0  0  0  0  0  0  0  0  0  0  0  0
  -21.0321   -6.5474   25.2100 F   0  0  0  0  0  0  0  0  0  0  0  0
  1  2  1  0  0  0  0
  1  5  2  0  0  0  0
  2  6  2  0  0  0  0
  3  8  2  0  0  0  0
  3 15  1  0  0  0  0
  4  9  1  0  0  0  0
  4 15  2  0  0  0  0
  5 17  1  0  0  0  0
  6 19  1  0  0  0  0
  7 10  2  0  0  0  0
  7 18  1  0  0  0  0
  8 21  1  0  0  0  0
  9 21  2  0  0  0  0
 10 22  1  0  0  0  0
 11 12  2  0  0  0  0
 11 23  1  0  0  0  0
 12 24  1  0  0  0  0
 13 20  1  0  0  0  0
 13 22  2  0  0  0  0
 14 24  2  0  0  0  0
 14 25  1  0  0  0  0
 15 26  1  0  0  0  0
 16 26  1  0  0  0  0
 16 27  2  0  0  0  0
 16 28  1  0  0  0  0
 17 19  2  0  0  0  0
 17 33  1  0  0  0  0
 18 20  2  0  0  0  0
 18 34  1  0  0  0  0
 19 46  1  0  0  0  0
 20 35  1  0  0  0  0
 21 77  1  0  0  0  0
 22 78  1  0  0  0  0
 23 25  2  0  0  0  0
 23 77  1  0  0  0  0
 24 79  1  0  0  0  0
 25 80  1  0  0  0  0
 26 63  2  0  0  0  0
 27 64  1  0  0  0  0
 27 67  1  0  0  0  0
 28 68  1  0  0  0  0
 28 72  2  0  0  0  0
 29 47  1  0  0  0  0
 29 65  1  0  0  0  0
 29 73  2  0  0  0  0
 30 48  1  0  0  0  0
 30 69  1  0  0  0  0
 30 74  2  0  0  0  0
 31 60  1  0  0  0  0
 31 66  1  0  0  0  0
 31 75  2  0  0  0  0
 32 61  1  0  0  0  0
 32 70  1  0  0  0  0
 32 76  2  0  0  0  0
 33 36  1  0  0  0  0
 34 48  1  0  0  0  0
 35 66  1  0  0  0  0
 36 38  1  0  0  0  0
 37 43  1  0  0  0  0
 37 44  1  0  0  0  0
 38 46  1  0  0  0  0
 39 41  1  0  0  0  0
 39 47  1  0  0  0  0
 40 42  1  0  0  0  0
 40 47  1  0  0  0  0
 41 49  1  0  0  0  0
 42 49  1  0  0  0  0
 43 50  1  0  0  0  0
 44 65  1  0  0  0  0
 45 50  1  0  0  0  0
 45 65  1  0  0  0  0
 46 69  1  0  0  0  0
 48 66  1  0  0  0  0
 49 56  1  0  0  0  0
 50 64  1  0  0  0  0
 51 61  1  0  0  0  0
 52 62  1  0  0  0  0
 53 62  1  0  0  0  0
 54 62  1  0  0  0  0
 55 71  1  0  0  0  0
 56 57  1  0  0  0  0
 57 58  1  0  0  0  0
 58 59  1  0  0  0  0
 59 78  1  0  0  0  0
 60 62  1  0  0  0  0
 60 70  1  0  0  0  0
 61 71  1  0  0  0  0
 63 64  1  0  0  0  0
M  CHG  1  71   1
M  ISO  4  29 100  47 100  59 101  78 101
M  END
> <Batch ID>
0088

> <Smiles>
CNC(C)C(=O)NC(C(=O)N1Cc2cc([101O:1][101CH2:1]CCCC3CC[100CH:0]([100C:0](=O)N4CCCC(n5nc(-c6ccc(Oc7ccc(F)cc7F)cc6)c(C(N)=O)c5N)C4)CC3)ccc2CC1C(=O)NC1CCCc2ccccc21)C(C)(C)C

> <Shape>
0.337

> <Color>
0.191

> <Negative vol penalty>
0.000

$$$$

  -OEChem-04052319042D

  0  0  0     0  0  0  0  0  0999 V2000
M  END
$$$$

  -OEChem-04052319043D

 91100  0     1  0  0  0  0  0999 V2000
  -15.0730  -25.1625   26.0031 C   0  0  0  0  0  0  0  0  0  0  0  0
  -16.0497  -24.4104   25.3584 C   0  0  0  0  0  0  0  0  0  0  0  0
  -23.1150   -9.8630   21.3942 C   0  0  0  0  0  0  0  0  0  0  0  0
  -23.8285  -10.6992   23.5457 C   0  0  0  0  0  0  0  0  0  0  0  0
  -14.7140  -26.4131   25.5020 C   0  0  0  0  0  0  0  0  0  0  0  0
  -16.6674  -24.9080   24.2115 C   0  0  0  0  0  0  0  0  0  0  0  0
  -22.4888  -24.0670   22.5055 C   0  0  0  0  0  0  0  0  0  0  0  0
  -22.3778   -8.8624   22.0275 C   0  0  0  0  0  0  0  0  0  0  0  0
  -23.0913   -9.6986   24.1790 C   0  0  0  0  0  0  0  0  0  0  0  0
  -23.0846  -23.1827   21.6074 C   0  0  0  0  0  0  0  0  0  0  0  0
  -22.9774   -5.8753   23.4912 C   0  0  0  0  0  0  0  0  0  0  0  0
  -23.0734   -4.5801   22.9825 C   0  0  0  0  0  0  0  0  0  0  0  0
  -23.0202  -24.8842   19.8986 C   0  0  0  0  0  0  0  0  0  0  0  0
  -26.5986  -20.7908   19.8727 C   0  0  0  0  0  0  0  0  0  0  0  0
  -20.6949   -4.5703   22.5585 C   0  0  0  0  0  0  0  0  0  0  0  0
  -23.8404  -10.7813   22.1533 C   0  0  0  0  0  0  0  0  0  0  0  0
  -24.1592  -13.1033   21.1460 C   0  0  0  0  0  0  0  0  0  0  0  0
  -15.3344  -26.9305   24.3540 C   0  0  0  0  0  0  0  0  0  0  0  0
  -22.1437  -25.3653   22.1032 C   0  0  0  0  0  0  0  0  0  0  0  0
  -16.3154  -26.1661   23.6939 C   0  0  0  0  0  0  0  0  0  0  0  0
  -22.4224  -25.7839   20.7943 C   0  0  0  0  0  0  0  0  0  0  0  0
  -26.7559  -22.0124   19.2275 C   0  0  0  0  0  0  0  0  0  0  0  0
  -27.7124  -22.9138   19.6811 C   0  0  0  0  0  0  0  0  0  0  0  0
  -22.3659   -8.7802   23.4199 C   0  0  0  0  0  0  0  0  0  0  0  0
  -23.3477  -23.5902   20.3029 C   0  0  0  0  0  0  0  0  0  0  0  0
  -21.7401   -6.5180   23.5336 C   0  0  0  0  0  0  0  0  0  0  0  0
  -21.9322   -3.9276   22.5161 C   0  0  0  0  0  0  0  0  0  0  0  0
  -20.5989   -5.8655   23.0673 C   0  0  0  0  0  0  0  0  0  0  0  0
  -24.6025  -11.8147   21.4996 C   0  0  0  0  0  0  0  0  0  0  0  0
  -27.4162  -20.5207   20.9582 C   0  0  0  0  0  0  0  0  0  0  0  0
  -28.4800  -22.5487   20.7754 C   0  0  0  0  0  0  0  0  0  0  0  0
  -25.2509  -13.6921   20.5561 C   0  0  0  0  0  0  0  0  0  0  0  0
  -22.8754  -13.7134   21.3341 C   0  0  0  0  0  0  0  0  0  0  0  0
  -19.4240  -26.9950   21.8765 C   0  0  0  0  0  0  0  0  0  0  0  0
  -21.4120  -29.4550   21.1562 C   0  0  0  0  0  0  0  0  0  0  0  0
  -24.4439  -30.4777   19.9696 C   0  0  0  0  0  0  0  0  0  0  0  0
  -30.6010  -14.8163   20.2685 C   0  0  0  0  0  0  0  0  0  0  0  0
  -14.8795  -28.2667   23.8227 C   0  0  0  0  0  0  0  0  0  0  0  0
  -21.5259  -26.3158   23.0917 C   0  0  0  0  0  0  0  0  0  0  0  0
  -22.0899  -27.1737   20.3185 C   0  0  0  0  0  0  0  0  0  0  0  0
  -15.8481  -28.8842   22.8173 C   0  0  0  0  0  0  0  0  0  0  0  0
  -29.6511  -11.7265   19.0418 C   0  0  0  0  0  0  0  0  0  0  0  0
  -16.2853  -27.8452   21.7897 C   0  0  0  0  0  0  0  0  0  0  0  0
  -28.2133  -11.5666   19.5354 C   0  0  0  0  0  0  0  0  0  0  0  0
  -28.9119  -18.1098   20.1084 C   0  0  0  0  0  0  0  0  0  0  0  0
  -28.4295  -17.0514   22.3435 C   0  0  0  0  0  0  0  0  0  0  0  0
  -30.5330  -12.3451   20.1205 C   0  0  0  0  0  0  0  0  0  0  0  0
  -30.1477  -17.2242   19.9766 C   0  0  0  0  0  0  0  0  0  0  0  0
  -29.6766  -16.1903   22.1723 C   0  0  0  0  0  0  0  0  0  0  0  0
  -28.5990  -13.5166   21.1219 C   0  0  0  0  0  0  0  0  0  0  0  0
  -17.0259  -26.6825   22.4615 C   0  0  1  0  0  0  0  0  0  0  0  0
  -20.7472  -27.4467   22.4268 C   0  0  1  0  0  0  0  0  0  0  0  0
  -28.5577  -18.3750   21.5774 C   0  0  0  0  0  0  0  0  0  0  0  0
  -27.6595  -12.9011   20.0655 C   0  0  2  0  0  0  0  0  0  0  0  0
  -27.9052  -24.2307   19.0073 C   0  0  0  0  0  0  0  0  0  0  0  0
  -25.5397  -20.0934   23.3488 C   0  0  0  0  0  0  0  0  0  0  0  0
  -30.9405  -22.8773   21.2133 C   0  0  0  0  0  0  0  0  0  0  0  0
  -29.2363  -23.9144   22.7545 C   0  0  0  0  0  0  0  0  0  0  0  0
  -25.7636  -32.5512   19.4632 C   0  0  0  0  0  0  0  0  0  0  0  0
  -19.7560  -29.8892   18.6305 C   0  0  0  0  0  0  0  0  0  0  0  0
  -21.6272  -31.2864   17.7278 C   0  0  0  0  0  0  0  0  0  0  0  0
  -20.4379  -31.9893   19.8048 C   0  0  0  0  0  0  0  0  0  0  0  0
  -26.5543  -29.7488   21.9123 C   0  0  0  0  0  0  0  0  0  0  0  0
  -25.8867  -22.3318   18.0564 C   0  0  0  0  0  0  0  0  0  0  0  0
  -26.8647  -19.3627   23.1682 C   0  0  0  0  0  0  0  0  0  0  0  0
  -24.7486  -23.2954   18.4038 C   0  0  0  0  0  0  0  0  0  1  0  0
  -27.2736  -19.1935   21.6882 C   0  0  1  0  0  0  0  0  0  0  0  0
  -29.5246  -23.4745   21.3077 C   0  0  0  0  0  0  0  0  0  0  0  0
  -22.0090  -30.0102   19.8857 C   0  0  1  0  0  0  0  0  0  0  0  0
  -25.4456  -31.4866   20.5016 C   0  0  2  0  0  0  0  0  0  0  0  0
  -20.9621  -30.7669   19.0203 C   0  0  0  0  0  0  0  0  0  0  0  0
  -25.8764  -11.5971   21.1623 N   0  0  0  0  0  0  0  0  0  0  0  0
  -28.3562  -21.3712   21.4279 N   0  0  0  0  0  0  0  0  0  0  0  0
  -26.2429  -12.7568   20.5905 N   0  0  0  0  0  0  0  0  0  0  0  0
  -21.4813  -28.0643   21.3205 N   0  0  0  0  0  0  0  0  0  0  0  0
  -29.9710  -13.6074   20.6006 N   0  0  0  0  0  0  0  0  0  0  0  0
  -30.0103  -15.9942   20.7552 N   0  0  0  0  0  0  0  0  0  0  0  0
  -25.4494  -14.9134   20.0164 N   0  0  0  0  0  0  0  0  0  0  0  0
  -21.8661  -12.9675   21.9579 N   0  0  0  0  0  0  0  0  0  0  0  0
  -18.3836  -27.0667   22.7831 N   0  0  0  0  0  0  0  0  0  0  0  0
  -23.1491  -30.8246   20.2923 N   0  0  0  0  0  0  0  0  0  0  0  0
  -26.7158  -30.8052   20.8803 N   0  3  0  0  0  0  0  0  0  0  0  0
  -22.6258  -14.8796   20.9453 O   0  0  0  0  0  0  0  0  0  0  0  0
  -19.3520  -26.6113   20.7149 O   0  0  0  0  0  0  0  0  0  0  0  0
  -20.9092  -30.2274   21.9761 O   0  0  0  0  0  0  0  0  0  0  0  0
  -24.7766  -29.4833   19.3283 O   0  0  0  0  0  0  0  0  0  0  0  0
  -31.6260  -14.8449   19.5759 O   0  0  0  0  0  0  0  0  0  0  0  0
  -21.6465   -7.8042   24.0383 O   0  0  0  0  0  0  0  0  0  0  0  0
  -23.9327  -22.7228   19.4178 O   0  0  0  0  0  0  0  0  0  1  0  0
  -22.0249   -2.6844   22.0262 F   0  0  0  0  0  0  0  0  0  0  0  0
  -19.4077   -6.4783   23.1044 F   0  0  0  0  0  0  0  0  0  0  0  0
  1  2  1  0  0  0  0
  1  5  2  0  0  0  0
  2  6  2  0  0  0  0
  3  8  2  0  0  0  0
  3 16  1  0  0  0  0
  4  9  1  0  0  0  0
  4 16  2  0  0  0  0
  5 18  1  0  0  0  0
  6 20  1  0  0  0  0
  7 10  2  0  0  0  0
  7 19  1  0  0  0  0
  8 24  1  0  0  0  0
  9 24  2  0  0  0  0
 10 25  1  0  0  0  0
 11 12  2  0  0  0  0
 11 26  1  0  0  0  0
 12 27  1  0  0  0  0
 13 21  1  0  0  0  0
 13 25  2  0  0  0  0
 14 22  2  0  0  0  0
 14 30  1  0  0  0  0
 15 27  2  0  0  0  0
 15 28  1  0  0  0  0
 16 29  1  0  0  0  0
 17 29  1  0  0  0  0
 17 32  2  0  0  0  0
 17 33  1  0  0  0  0
 18 20  2  0  0  0  0
 18 38  1  0  0  0  0
 19 21  2  0  0  0  0
 19 39  1  0  0  0  0
 20 51  1  0  0  0  0
 21 40  1  0  0  0  0
 22 23  1  0  0  0  0
 22 64  1  0  0  0  0
 23 31  2  0  0  0  0
 23 55  1  0  0  0  0
 24 88  1  0  0  0  0
 25 89  1  0  0  0  0
 26 28  2  0  0  0  0
 26 88  1  0  0  0  0
 27 90  1  0  0  0  0
 28 91  1  0  0  0  0
 29 72  2  0  0  0  0
 30 67  1  0  0  0  0
 30 73  2  0  0  0  0
 31 68  1  0  0  0  0
 31 73  1  0  0  0  0
 32 74  1  0  0  0  0
 32 78  1  0  0  0  0
 33 79  1  0  0  0  0
 33 83  2  0  0  0  0
 34 52  1  0  0  0  0
 34 80  1  0  0  0  0
 34 84  2  0  0  0  0
 35 69  1  0  0  0  0
 35 75  1  0  0  0  0
 35 85  2  0  0  0  0
 36 70  1  0  0  0  0
 36 81  1  0  0  0  0
 36 86  2  0  0  0  0
 37 76  1  0  0  0  0
 37 77  1  0  0  0  0
 37 87  2  0  0  0  0
 38 41  1  0  0  0  0
 39 52  1  0  0  0  0
 40 75  1  0  0  0  0
 41 43  1  0  0  0  0
 42 44  1  0  0  0  0
 42 47  1  0  0  0  0
 43 51  1  0  0  0  0
 44 54  1  0  0  0  0
 45 48  1  0  0  0  0
 45 53  1  0  0  0  0
 46 49  1  0  0  0  0
 46 53  1  0  0  0  0
 47 76  1  0  0  0  0
 48 77  1  0  0  0  0
 49 77  1  0  0  0  0
 50 54  1  0  0  0  0
 50 76  1  0  0  0  0
 51 80  1  0  0  0  0
 52 75  1  0  0  0  0
 53 67  1  0  0  0  0
 54 74  1  0  0  0  0
 56 65  1  0  0  0  0
 57 68  1  0  0  0  0
 58 68  1  0  0  0  0
 59 70  1  0  0  0  0
 60 71  1  0  0  0  0
 61 71  1  0  0  0  0
 62 71  1  0  0  0  0
 63 82  1  0  0  0  0
 64 66  1  0  0  0  0
 65 67  1  0  0  0  0
 66 89  1  0  0  0  0
 69 71  1  0  0  0  0
 69 81  1  0  0  0  0
 70 82  1  0  0  0  0
 72 74  1  0  0  0  0
M  CHG  1  82   1
M  ISO  4  37 100  66 101  77 100  89 101
M  END
> <Batch ID>
0088

> <Smiles>
CCC(c1cc(C[101CH2:1][101O:1]c2ccc3c(c2)CN(C(=O)C(NC(=O)C(C)NC)C(C)(C)C)C(C(=O)NC2CCCc4ccccc42)C3)c(C)c(C(C)C)n1)C1CC[100N:0]([100C:0](=O)N2CCCC(n3nc(-c4ccc(Oc5ccc(F)cc5F)cc4)c(C(N)=O)c3N)C2)CC1

> <Shape>
0.312

> <Color>
0.144

> <Negative vol penalty>
0.000

$$$$

  -OEChem-04052319043D

 90 98  0     1  0  0  0  0  0999 V2000
  -16.5006  -27.4178   22.9917 C   0  0  0  0  0  0  0  0  0  0  0  0
  -17.6376  -26.6204   22.9096 C   0  0  0  0  0  0  0  0  0  0  0  0
  -24.5797  -14.5563   21.8856 C   0  0  0  0  0  0  0  0  0  0  0  0
  -26.0701  -14.8197   20.0024 C   0  0  0  0  0  0  0  0  0  0  0  0
  -16.5483  -28.7439   22.5639 C   0  0  0  0  0  0  0  0  0  0  0  0
  -18.8227  -27.1484   22.3985 C   0  0  0  0  0  0  0  0  0  0  0  0
  -24.5246  -25.7923   24.1747 C   0  0  0  0  0  0  0  0  0  0  0  0
  -24.7388  -13.1722   21.8180 C   0  0  0  0  0  0  0  0  0  0  0  0
  -26.2293  -13.4356   19.9349 C   0  0  0  0  0  0  0  0  0  0  0  0
  -25.4905  -24.9331   23.6524 C   0  0  0  0  0  0  0  0  0  0  0  0
  -23.5532  -10.6174   19.9494 C   0  0  0  0  0  0  0  0  0  0  0  0
  -22.4077   -9.8283   20.0524 C   0  0  0  0  0  0  0  0  0  0  0  0
  -26.4922  -26.7850   22.4749 C   0  0  0  0  0  0  0  0  0  0  0  0
  -23.3217   -8.7576   22.0159 C   0  0  0  0  0  0  0  0  0  0  0  0
  -27.3533  -21.8173   17.1069 C   0  0  0  0  0  0  0  0  0  0  0  0
  -25.2453  -15.3800   20.9778 C   0  0  0  0  0  0  0  0  0  0  0  0
  -25.8574  -17.7201   21.7884 C   0  0  0  0  0  0  0  0  0  0  0  0
  -17.7371  -29.2912   22.0563 C   0  0  0  0  0  0  0  0  0  0  0  0
  -24.5289  -27.1545   23.8419 C   0  0  0  0  0  0  0  0  0  0  0  0
  -18.8860  -28.4827   21.9622 C   0  0  0  0  0  0  0  0  0  0  0  0
  -25.5269  -27.6598   22.9964 C   0  0  0  0  0  0  0  0  0  0  0  0
  -28.4617  -21.6572   17.9020 C   0  0  0  0  0  0  0  0  0  0  0  0
  -25.5636  -12.6118   20.8427 C   0  0  0  0  0  0  0  0  0  0  0  0
  -26.4728  -25.4289   22.8001 C   0  0  0  0  0  0  0  0  0  0  0  0
  -24.5831  -10.4766   20.8797 C   0  0  0  0  0  0  0  0  0  0  0  0
  -22.2919   -8.8984   21.0856 C   0  0  0  0  0  0  0  0  0  0  0  0
  -24.4673   -9.5467   21.9129 C   0  0  0  0  0  0  0  0  0  0  0  0
  -25.0808  -16.8098   21.0467 C   0  0  0  0  0  0  0  0  0  0  0  0
  -28.3710  -20.3324   18.3696 C   0  0  0  0  0  0  0  0  0  0  0  0
  -25.3007  -18.9463   21.5182 C   0  0  0  0  0  0  0  0  0  0  0  0
  -26.9816  -17.4788   22.6450 C   0  0  0  0  0  0  0  0  0  0  0  0
  -22.5059  -29.1078   22.3601 C   0  0  0  0  0  0  0  0  0  0  0  0
  -24.6484  -31.3733   23.2543 C   0  0  0  0  0  0  0  0  0  0  0  0
  -27.8513  -32.1392   24.1496 C   0  0  0  0  0  0  0  0  0  0  0  0
  -21.8788  -20.5983   16.7119 C   0  0  0  0  0  0  0  0  0  0  0  0
  -17.7274  -30.7162   21.5622 C   0  0  0  0  0  0  0  0  0  0  0  0
  -23.4960  -28.0731   24.4349 C   0  0  0  0  0  0  0  0  0  0  0  0
  -25.5875  -29.1179   22.6243 C   0  0  0  0  0  0  0  0  0  0  0  0
  -19.1229  -31.3078   21.3816 C   0  0  0  0  0  0  0  0  0  0  0  0
  -21.1607  -21.0100   20.3198 C   0  0  0  0  0  0  0  0  0  0  0  0
  -20.0271  -30.3268   20.6420 C   0  0  0  0  0  0  0  0  0  0  0  0
  -22.1070  -19.9991   20.9652 C   0  0  0  0  0  0  0  0  0  0  0  0
  -20.7566  -20.5889   18.9101 C   0  0  0  0  0  0  0  0  0  0  0  0
  -22.8556  -19.3072   18.6541 C   0  0  0  0  0  0  0  0  0  0  0  0
  -20.1968  -29.0263   21.4367 C   0  0  1  0  0  0  0  0  0  0  0  0
  -23.2897  -29.3459   23.6196 C   0  0  1  0  0  0  0  0  0  0  0  0
  -23.3189  -19.7251   20.0578 C   0  0  2  0  0  0  0  0  0  0  0  0
  -30.2815  -23.0737   16.9178 C   0  0  0  0  0  0  0  0  0  0  0  0
  -29.3084  -34.0812   24.7844 C   0  0  0  0  0  0  0  0  0  0  0  0
  -32.1200  -19.2287   20.5180 C   0  0  0  0  0  0  0  0  0  0  0  0
  -32.8058  -17.9013   18.5158 C   0  0  0  0  0  0  0  0  0  0  0  0
  -30.9457  -17.0884   19.9878 C   0  0  0  0  0  0  0  0  0  0  0  0
  -24.7658  -32.2379   20.3305 C   0  0  0  0  0  0  0  0  0  0  0  0
  -26.8728  -33.4839   20.8560 C   0  0  0  0  0  0  0  0  0  0  0  0
  -24.7365  -34.1217   21.9750 C   0  0  0  0  0  0  0  0  0  0  0  0
  -23.0902  -21.2746   14.6736 C   0  0  0  0  0  0  0  0  0  0  0  0
  -28.4279  -30.9852   26.8132 C   0  0  0  0  0  0  0  0  0  0  0  0
  -29.3025  -19.6252   19.2658 C   0  0  0  0  0  0  0  0  0  0  0  0
  -30.5860  -19.1552   18.5390 C   0  0  0  0  0  0  0  0  0  0  0  0
  -28.3980  -23.6517   20.2897 C   0  0  0  0  0  0  0  0  0  0  0  0
  -28.9908  -23.9490   18.9047 C   0  0  0  0  0  0  0  0  0  0  0  0
  -25.4615  -20.3062   16.4612 C   0  0  0  0  0  0  0  0  0  0  0  0
  -24.3199  -21.2569   16.8121 C   0  0  0  0  0  0  0  0  0  0  0  0
  -27.9479  -24.9203   21.0053 C   0  0  0  0  0  0  0  0  0  1  0  0
  -29.5370  -22.6874   18.2017 C   0  0  1  0  0  0  0  0  0  0  0  0
  -25.8902  -31.9724   22.6394 C   0  0  1  0  0  0  0  0  0  0  0  0
  -28.4065  -32.9677   25.2940 C   0  0  2  0  0  0  0  0  0  0  0  0
  -31.6051  -18.3339   19.3733 C   0  0  0  0  0  0  0  0  0  0  0  0
  -25.5643  -32.9261   21.4555 C   0  0  0  0  0  0  0  0  0  0  0  0
  -24.1050  -17.4068   20.3572 N   0  0  0  0  0  0  0  0  0  0  0  0
  -27.2903  -19.6962   17.9100 N   0  0  0  0  0  0  0  0  0  0  0  0
  -26.6917  -20.6253   17.1453 N   0  0  0  0  0  0  0  0  0  0  0  0
  -24.2646  -18.7053   20.6646 N   0  0  0  0  0  0  0  0  0  0  0  0
  -24.5518  -29.9748   23.2247 N   0  0  0  0  0  0  0  0  0  0  0  0
  -21.9262  -20.2929   18.0821 N   0  0  0  0  0  0  0  0  0  0  0  0
  -25.6012  -20.1963   21.9299 N   0  0  0  0  0  0  0  0  0  0  0  0
  -27.4238  -16.1593   22.8113 N   0  0  0  0  0  0  0  0  0  0  0  0
  -21.1376  -29.2153   22.5202 N   0  0  0  0  0  0  0  0  0  0  0  0
  -26.6223  -32.6043   23.7317 N   0  0  0  0  0  0  0  0  0  0  0  0
  -23.0898  -20.9387   16.0903 N   0  0  0  0  0  0  0  0  0  0  0  0
  -29.1979  -32.1084   26.2193 N   0  3  0  0  0  0  0  0  0  0  0  0
  -27.5661  -18.4041   23.2580 O   0  0  0  0  0  0  0  0  0  0  0  0
  -23.0987  -28.8474   21.3196 O   0  0  0  0  0  0  0  0  0  0  0  0
  -23.7988  -32.1183   23.7492 O   0  0  0  0  0  0  0  0  0  0  0  0
  -28.4497  -31.1780   23.6716 O   0  0  0  0  0  0  0  0  0  0  0  0
  -20.8134  -20.5777   16.0825 O   0  0  0  0  0  0  0  0  0  0  0  0
  -25.7194  -11.2613   20.7766 O   0  0  0  0  0  0  0  0  0  0  0  0
  -27.4163  -24.5924   22.2883 O   0  0  0  0  0  0  0  0  0  1  0  0
  -21.1911   -8.1418   21.1852 F   0  0  0  0  0  0  0  0  0  0  0  0
  -25.4528   -9.4078   22.8103 F   0  0  0  0  0  0  0  0  0  0  0  0
  1  2  1  0  0  0  0
  1  5  2  0  0  0  0
  2  6  2  0  0  0  0
  3  8  2  0  0  0  0
  3 16  1  0  0  0  0
  4  9  1  0  0  0  0
  4 16  2  0  0  0  0
  5 18  1  0  0  0  0
  6 20  1  0  0  0  0
  7 10  2  0  0  0  0
  7 19  1  0  0  0  0
  8 23  1  0  0  0  0
  9 23  2  0  0  0  0
 10 24  1  0  0  0  0
 11 12  2  0  0  0  0
 11 25  1  0  0  0  0
 12 26  1  0  0  0  0
 13 21  1  0  0  0  0
 13 24  2  0  0  0  0
 14 26  2  0  0  0  0
 14 27  1  0  0  0  0
 15 22  2  0  0  0  0
 15 72  1  0  0  0  0
 16 28  1  0  0  0  0
 17 28  1  0  0  0  0
 17 30  2  0  0  0  0
 17 31  1  0  0  0  0
 18 20  2  0  0  0  0
 18 36  1  0  0  0  0
 19 21  2  0  0  0  0
 19 37  1  0  0  0  0
 20 45  1  0  0  0  0
 21 38  1  0  0  0  0
 22 29  1  0  0  0  0
 22 65  1  0  0  0  0
 23 87  1  0  0  0  0
 24 88  1  0  0  0  0
 25 27  2  0  0  0  0
 25 87  1  0  0  0  0
 26 89  1  0  0  0  0
 27 90  1  0  0  0  0
 28 70  2  0  0  0  0
 29 58  1  0  0  0  0
 29 71  2  0  0  0  0
 30 73  1  0  0  0  0
 30 76  1  0  0  0  0
 31 77  1  0  0  0  0
 31 82  2  0  0  0  0
 32 46  1  0  0  0  0
 32 78  1  0  0  0  0
 32 83  2  0  0  0  0
 33 66  1  0  0  0  0
 33 74  1  0  0  0  0
 33 84  2  0  0  0  0
 34 67  1  0  0  0  0
 34 79  1  0  0  0  0
 34 85  2  0  0  0  0
 35 75  1  0  0  0  0
 35 80  1  0  0  0  0
 35 86  2  0  0  0  0
 36 39  1  0  0  0  0
 37 46  1  0  0  0  0
 38 74  1  0  0  0  0
 39 41  1  0  0  0  0
 40 42  1  0  0  0  0
 40 43  1  0  0  0  0
 41 45  1  0  0  0  0
 42 47  1  0  0  0  0
 43 75  1  0  0  0  0
 44 47  1  0  0  0  0
 44 75  1  0  0  0  0
 45 78  1  0  0  0  0
 46 74  1  0  0  0  0
 47 73  1  0  0  0  0
 48 65  1  0  0  0  0
 49 67  1  0  0  0  0
 50 68  1  0  0  0  0
 51 68  1  0  0  0  0
 52 68  1  0  0  0  0
 53 69  1  0  0  0  0
 54 69  1  0  0  0  0
 55 69  1  0  0  0  0
 56 80  1  0  0  0  0
 57 81  1  0  0  0  0
 58 59  1  0  0  0  0
 59 68  1  0  0  0  0
 60 61  1  0  0  0  0
 60 64  1  0  0  0  0
 61 65  1  0  0  0  0
 62 63  1  0  0  0  0
 62 72  1  0  0  0  0
 63 80  1  0  0  0  0
 64 88  1  0  0  0  0
 66 69  1  0  0  0  0
 66 79  1  0  0  0  0
 67 81  1  0  0  0  0
 70 73  1  0  0  0  0
 71 72  1  0  0  0  0
M  CHG  1  81   1
M  ISO  4  35 100  64 101  80 100  88 101
M  END
> <Batch ID>
0088

> <Smiles>
CNC(C)C(=O)NC(C(=O)N1Cc2cc([101O:1][101CH2:1]CCC(C)c3cn(CC[100N:0](C)[100C:0](=O)N4CCCC(n5nc(-c6ccc(Oc7ccc(F)cc7F)cc6)c(C(N)=O)c5N)C4)nc3CCC(C)(C)C)ccc2CC1C(=O)NC1CCCc2ccccc21)C(C)(C)C

> <Shape>
0.230

> <Color>
0.070

> <Negative vol penalty>
0.000

$$$$

  -OEChem-04052319043D

 85 93  0     1  0  0  0  0  0999 V2000
  -32.2957  -13.5359   19.7512 C   0  0  0  0  0  0  0  0  0  0  0  0
  -31.6389  -14.7543   19.6107 C   0  0  0  0  0  0  0  0  0  0  0  0
  -28.3872  -26.6187   18.6986 C   0  0  0  0  0  0  0  0  0  0  0  0
  -27.1007  -25.1393   20.1106 C   0  0  0  0  0  0  0  0  0  0  0  0
  -31.5592  -12.3591   19.8804 C   0  0  0  0  0  0  0  0  0  0  0  0
  -30.2452  -14.7964   19.5983 C   0  0  0  0  0  0  0  0  0  0  0  0
  -26.6753  -19.2231   21.8711 C   0  0  0  0  0  0  0  0  0  0  0  0
  -29.2816  -25.5831   18.4283 C   0  0  0  0  0  0  0  0  0  0  0  0
  -27.9951  -24.1036   19.8402 C   0  0  0  0  0  0  0  0  0  0  0  0
  -26.0259  -20.3032   21.2748 C   0  0  0  0  0  0  0  0  0  0  0  0
  -28.5896  -21.9196   17.3308 C   0  0  0  0  0  0  0  0  0  0  0  0
  -28.0558  -20.6674   17.0266 C   0  0  0  0  0  0  0  0  0  0  0  0
  -24.0027  -18.9978   21.1277 C   0  0  0  0  0  0  0  0  0  0  0  0
  -29.2017  -19.7169   18.9295 C   0  0  0  0  0  0  0  0  0  0  0  0
  -19.0415  -26.8668   23.2176 C   0  0  0  0  0  0  0  0  0  0  0  0
  -27.2968  -26.3969   19.5398 C   0  0  0  0  0  0  0  0  0  0  0  0
  -25.5893  -28.1779   18.8916 C   0  0  0  0  0  0  0  0  0  0  0  0
  -30.1557  -12.3879   19.8793 C   0  0  0  0  0  0  0  0  0  0  0  0
  -25.9952  -18.0166   22.0905 C   0  0  0  0  0  0  0  0  0  0  0  0
  -29.4893  -13.6187   19.7263 C   0  0  0  0  0  0  0  0  0  0  0  0
  -24.6450  -17.9047   21.7292 C   0  0  0  0  0  0  0  0  0  0  0  0
  -29.0855  -24.3255   18.9991 C   0  0  0  0  0  0  0  0  0  0  0  0
  -24.6903  -20.1897   20.9004 C   0  0  0  0  0  0  0  0  0  0  0  0
  -29.4294  -22.0705   18.4342 C   0  0  0  0  0  0  0  0  0  0  0  0
  -28.3618  -19.5660   17.8260 C   0  0  0  0  0  0  0  0  0  0  0  0
  -29.7354  -20.9692   19.2336 C   0  0  0  0  0  0  0  0  0  0  0  0
  -26.3729  -27.4665   19.8199 C   0  0  0  0  0  0  0  0  0  0  0  0
  -19.7460  -27.8864   23.7929 C   0  0  0  0  0  0  0  0  0  0  0  0
  -24.8890  -29.0807   19.6539 C   0  0  0  0  0  0  0  0  0  0  0  0
  -19.8123  -28.1636   21.5976 C   0  0  0  0  0  0  0  0  0  0  0  0
  -25.5021  -28.0353   17.4676 C   0  0  0  0  0  0  0  0  0  0  0  0
  -26.3507  -15.0249   21.0772 C   0  0  0  0  0  0  0  0  0  0  0  0
  -23.9620  -14.4374   23.1917 C   0  0  0  0  0  0  0  0  0  0  0  0
  -21.2970  -15.6318   24.9575 C   0  0  0  0  0  0  0  0  0  0  0  0
  -23.2106  -29.1294   25.4012 C   0  0  0  0  0  0  0  0  0  0  0  0
  -29.4028  -11.0846   19.9744 C   0  0  0  0  0  0  0  0  0  0  0  0
  -26.7023  -16.8697   22.7591 C   0  0  0  0  0  0  0  0  0  0  0  0
  -23.8642  -16.6379   21.9615 C   0  0  0  0  0  0  0  0  0  0  0  0
  -27.9279  -11.2576   20.3278 C   0  0  0  0  0  0  0  0  0  0  0  0
  -25.1901  -31.5707   23.7282 C   0  0  0  0  0  0  0  0  0  0  0  0
  -27.3004  -12.3569   19.4766 C   0  0  0  0  0  0  0  0  0  0  0  0
  -25.6469  -30.8598   22.4531 C   0  0  0  0  0  0  0  0  0  0  0  0
  -25.1333  -30.6147   24.9178 C   0  0  0  0  0  0  0  0  0  0  0  0
  -24.7862  -28.6873   23.4217 C   0  0  0  0  0  0  0  0  0  0  0  0
  -27.9786  -13.7081   19.7330 C   0  0  1  0  0  0  0  0  0  0  0  0
  -26.0583  -15.5182   22.4660 C   0  0  1  0  0  0  0  0  0  0  0  0
  -24.8054  -29.5982   22.1822 C   0  0  2  0  0  0  0  0  0  0  0  0
  -20.1168  -28.7325   20.2610 C   0  0  0  0  0  0  0  0  0  0  0  0
  -19.5188  -14.9054   26.5723 C   0  0  0  0  0  0  0  0  0  0  0  0
  -22.4423  -13.0960   20.9111 C   0  0  0  0  0  0  0  0  0  0  0  0
  -20.3637  -13.2507   22.2980 C   0  0  0  0  0  0  0  0  0  0  0  0
  -22.3009  -11.9014   23.1036 C   0  0  0  0  0  0  0  0  0  0  0  0
  -22.2586  -17.5039   27.0383 C   0  0  0  0  0  0  0  0  0  0  0  0
  -20.0264  -28.1978   25.1968 C   0  0  0  0  0  0  0  0  0  0  0  0
  -20.3799  -24.5045   20.6319 C   0  0  0  0  0  0  0  0  0  0  0  0
  -20.7684  -23.0280   20.7339 C   0  0  0  0  0  0  0  0  0  0  0  0
  -18.8880  -24.7065   20.9153 C   0  0  0  0  0  0  0  0  0  0  0  0
  -22.2618  -22.8286   20.4847 C   0  0  0  0  0  0  0  0  0  0  0  0
  -18.4540  -26.1739   20.8261 C   0  0  0  0  0  0  0  0  0  0  0  0
  -21.3198  -27.5598   25.7483 C   0  0  0  0  0  0  0  0  0  0  0  0
  -22.6498  -21.3579   20.5428 C   0  0  0  0  0  0  0  0  0  1  0  0
  -22.4539  -14.4249   23.1246 C   0  0  1  0  0  0  0  0  0  0  0  0
  -20.9134  -15.4923   26.4197 C   0  0  2  0  0  0  0  0  0  0  0  0
  -21.9052  -13.1916   22.3531 C   0  0  0  0  0  0  0  0  0  0  0  0
  -26.1883  -27.8818   21.0759 N   0  0  0  0  0  0  0  0  0  0  0  0
  -19.0986  -27.0636   21.8589 N   0  0  0  0  0  0  0  0  0  0  0  0
  -25.2808  -28.8639   20.9422 N   0  0  0  0  0  0  0  0  0  0  0  0
  -20.2117  -28.6733   22.7672 N   0  3  0  0  0  0  0  0  0  0  0  0
  -24.6016  -15.5425   22.6127 N   0  0  0  0  0  0  0  0  0  0  0  0
  -24.3188  -29.4404   24.5961 N   0  0  0  0  0  0  0  0  0  0  0  0
  -23.9826  -30.0310   19.3411 N   0  0  0  0  0  0  0  0  0  0  0  0
  -24.5530  -27.1480   16.9419 N   0  0  0  0  0  0  0  0  0  0  0  0
  -27.5106  -14.2804   20.9771 N   0  0  0  0  0  0  0  0  0  0  0  0
  -21.9832  -14.5260   24.5018 N   0  0  0  0  0  0  0  0  0  0  0  0
  -22.4891  -28.0038   25.0228 N   0  0  0  0  0  0  0  0  0  0  0  0
  -20.9396  -16.8225   27.0912 N   0  3  0  0  0  0  0  0  0  0  0  0
  -26.2549  -28.6634   16.6852 O   0  0  0  0  0  0  0  0  0  0  0  0
  -25.5802  -15.2981   20.1643 O   0  0  0  0  0  0  0  0  0  0  0  0
  -24.5505  -13.5045   23.7440 O   0  0  0  0  0  0  0  0  0  0  0  0
  -21.0129  -16.6210   24.2858 O   0  0  0  0  0  0  0  0  0  0  0  0
  -22.8850  -29.8079   26.3813 O   0  0  0  0  0  0  0  0  0  0  0  0
  -29.9579  -23.3146   18.7353 O   0  0  0  0  0  0  0  0  0  0  0  0
  -24.0542  -21.2422   20.3176 O   0  0  0  0  0  0  0  0  0  1  0  0
  -27.8480  -18.3638   17.5347 F   0  0  0  0  0  0  0  0  0  0  0  0
  -30.5407  -21.1082   20.2957 F   0  0  0  0  0  0  0  0  0  0  0  0
  1  2  1  0  0  0  0
  1  5  2  0  0  0  0
  2  6  2  0  0  0  0
  3  8  2  0  0  0  0
  3 16  1  0  0  0  0
  4  9  1  0  0  0  0
  4 16  2  0  0  0  0
  5 18  1  0  0  0  0
  6 20  1  0  0  0  0
  7 10  2  0  0  0  0
  7 19  1  0  0  0  0
  8 22  1  0  0  0  0
  9 22  2  0  0  0  0
 10 23  1  0  0  0  0
 11 12  2  0  0  0  0
 11 24  1  0  0  0  0
 12 25  1  0  0  0  0
 13 21  1  0  0  0  0
 13 23  2  0  0  0  0
 14 25  2  0  0  0  0
 14 26  1  0  0  0  0
 15 28  2  0  0  0  0
 15 66  1  0  0  0  0
 16 27  1  0  0  0  0
 17 27  1  0  0  0  0
 17 29  2  0  0  0  0
 17 31  1  0  0  0  0
 18 20  2  0  0  0  0
 18 36  1  0  0  0  0
 19 21  2  0  0  0  0
 19 37  1  0  0  0  0
 20 45  1  0  0  0  0
 21 38  1  0  0  0  0
 22 82  1  0  0  0  0
 23 83  1  0  0  0  0
 24 26  2  0  0  0  0
 24 82  1  0  0  0  0
 25 84  1  0  0  0  0
 26 85  1  0  0  0  0
 27 65  2  0  0  0  0
 28 54  1  0  0  0  0
 28 68  1  0  0  0  0
 29 67  1  0  0  0  0
 29 71  1  0  0  0  0
 30 48  1  0  0  0  0
 30 66  1  0  0  0  0
 30 68  2  0  0  0  0
 31 72  1  0  0  0  0
 31 77  2  0  0  0  0
 32 46  1  0  0  0  0
 32 73  1  0  0  0  0
 32 78  2  0  0  0  0
 33 62  1  0  0  0  0
 33 69  1  0  0  0  0
 33 79  2  0  0  0  0
 34 63  1  0  0  0  0
 34 74  1  0  0  0  0
 34 80  2  0  0  0  0
 35 70  1  0  0  0  0
 35 75  1  0  0  0  0
 35 81  2  0  0  0  0
 36 39  1  0  0  0  0
 37 46  1  0  0  0  0
 38 69  1  0  0  0  0
 39 41  1  0  0  0  0
 40 42  1  0  0  0  0
 40 43  1  0  0  0  0
 41 45  1  0  0  0  0
 42 47  1  0  0  0  0
 43 70  1  0  0  0  0
 44 47  1  0  0  0  0
 44 70  1  0  0  0  0
 45 73  1  0  0  0  0
 46 69  1  0  0  0  0
 47 67  1  0  0  0  0
 49 63  1  0  0  0  0
 50 64  1  0  0  0  0
 51 64  1  0  0  0  0
 52 64  1  0  0  0  0
 53 76  1  0  0  0  0
 54 60  1  0  0  0  0
 55 56  1  0  0  0  0
 55 57  1  0  0  0  0
 56 58  1  0  0  0  0
 57 59  1  0  0  0  0
 58 61  1  0  0  0  0
 59 66  1  0  0  0  0
 60 75  1  0  0  0  0
 61 83  1  0  0  0  0
 62 64  1  0  0  0  0
 62 74  1  0  0  0  0
 63 76  1  0  0  0  0
 65 67  1  0  0  0  0
M  CHG  2  68   1  76   1
M  ISO  4  35 100  61 101  75 100  83 101
M  END
> <Batch ID>
0088

> <Smiles>
CNC(C)C(=O)NC(C(=O)N1Cc2cc([101O:1][101CH2:1]CCCCCn3cc(CC[100NH:0][100C:0](=O)N4CCCC(n5nc(-c6ccc(Oc7ccc(F)cc7F)cc6)c(C(N)=O)c5N)C4)nc3C)ccc2CC1C(=O)NC1CCCc2ccccc21)C(C)(C)C

> <Shape>
0.235

> <Color>
0.074

> <Negative vol penalty>
0.000

$$$$

  -OEChem-04052319043D

 88 96  0     1  0  0  0  0  0999 V2000
  -29.0042  -20.5892   27.5350 C   0  0  0  0  0  0  0  0  0  0  0  0
  -28.9677  -21.1411   26.2585 C   0  0  0  0  0  0  0  0  0  0  0  0
  -27.1304  -12.2336   21.8965 C   0  0  0  0  0  0  0  0  0  0  0  0
  -26.2884  -14.2281   20.8242 C   0  0  0  0  0  0  0  0  0  0  0  0
  -27.8148  -20.2977   28.2015 C   0  0  0  0  0  0  0  0  0  0  0  0
  -27.7416  -21.4007   25.6472 C   0  0  0  0  0  0  0  0  0  0  0  0
  -27.6048  -25.9472   23.4211 C   0  0  0  0  0  0  0  0  0  0  0  0
  -25.8277  -11.7518   22.0234 C   0  0  0  0  0  0  0  0  0  0  0  0
  -24.9855  -13.7463   20.9510 C   0  0  0  0  0  0  0  0  0  0  0  0
  -28.2387  -26.0705   22.1855 C   0  0  0  0  0  0  0  0  0  0  0  0
  -22.7523   -9.8339   22.3046 C   0  0  0  0  0  0  0  0  0  0  0  0
  -22.5196   -8.4989   21.9742 C   0  0  0  0  0  0  0  0  0  0  0  0
  -26.1048  -25.8744   21.0779 C   0  0  0  0  0  0  0  0  0  0  0  0
  -30.2250  -22.4859   19.2402 C   0  0  0  0  0  0  0  0  0  0  0  0
  -23.2875   -8.9222   19.7229 C   0  0  0  0  0  0  0  0  0  0  0  0
  -27.3608  -13.4719   21.2970 C   0  0  0  0  0  0  0  0  0  0  0  0
  -29.5885  -13.7638   20.0887 C   0  0  0  0  0  0  0  0  0  0  0  0
  -26.5735  -20.5629   27.6019 C   0  0  0  0  0  0  0  0  0  0  0  0
  -26.2150  -25.7754   23.4940 C   0  0  0  0  0  0  0  0  0  0  0  0
  -26.5344  -21.1112   26.3057 C   0  0  0  0  0  0  0  0  0  0  0  0
  -25.4553  -25.7517   22.3157 C   0  0  0  0  0  0  0  0  0  0  0  0
  -28.9584  -22.7565   18.7345 C   0  0  0  0  0  0  0  0  0  0  0  0
  -27.9082  -21.8856   19.0028 C   0  0  0  0  0  0  0  0  0  0  0  0
  -24.7552  -12.5080   21.5506 C   0  0  0  0  0  0  0  0  0  0  0  0
  -27.4891  -26.0312   21.0135 C   0  0  0  0  0  0  0  0  0  0  0  0
  -23.2526  -10.7131   21.3441 C   0  0  0  0  0  0  0  0  0  0  0  0
  -22.7872   -8.0430   20.6833 C   0  0  0  0  0  0  0  0  0  0  0  0
  -23.5202  -10.2573   20.0533 C   0  0  0  0  0  0  0  0  0  0  0  0
  -28.7063  -13.9704   21.1662 C   0  0  0  0  0  0  0  0  0  0  0  0
  -30.3879  -21.3405   20.0026 C   0  0  0  0  0  0  0  0  0  0  0  0
  -28.1749  -20.7669   19.7756 C   0  0  0  0  0  0  0  0  0  0  0  0
  -30.7303  -14.4387   20.4455 C   0  0  0  0  0  0  0  0  0  0  0  0
  -29.3932  -13.0277   18.8739 C   0  0  0  0  0  0  0  0  0  0  0  0
  -24.2913  -23.4959   24.5927 C   0  0  0  0  0  0  0  0  0  0  0  0
  -21.9747  -25.6577   23.8983 C   0  0  0  0  0  0  0  0  0  0  0  0
  -20.9973  -28.3720   22.0751 C   0  0  0  0  0  0  0  0  0  0  0  0
  -31.7549  -19.0742   24.0942 C   0  0  0  0  0  0  0  0  0  0  0  0
  -25.3146  -20.1869   28.3425 C   0  0  0  0  0  0  0  0  0  0  0  0
  -25.5432  -25.6707   24.8357 C   0  0  0  0  0  0  0  0  0  0  0  0
  -23.9581  -25.5895   22.3405 C   0  0  0  0  0  0  0  0  0  0  0  0
  -24.0565  -20.8397   27.7756 C   0  0  0  0  0  0  0  0  0  0  0  0
  -33.2094  -15.8305   24.2935 C   0  0  0  0  0  0  0  0  0  0  0  0
  -24.0276  -20.7126   26.2558 C   0  0  0  0  0  0  0  0  0  0  0  0
  -32.2999  -14.9673   23.4174 C   0  0  0  0  0  0  0  0  0  0  0  0
  -32.4178  -16.8901   25.0569 C   0  0  0  0  0  0  0  0  0  0  0  0
  -30.6486  -16.8821   23.3411 C   0  0  0  0  0  0  0  0  0  0  0  0
  -25.2240  -21.4303   25.6194 C   0  0  1  0  0  0  0  0  0  0  0  0
  -24.1825  -24.9839   24.7706 C   0  0  1  0  0  0  0  0  0  0  0  0
  -31.4085  -15.8352   22.5088 C   0  0  2  0  0  0  0  0  0  0  0  0
  -26.5382  -22.1514   18.4757 C   0  0  0  0  0  0  0  0  0  0  0  0
  -28.9095  -23.6786   16.4027 C   0  0  0  0  0  0  0  0  0  0  0  0
  -26.8151  -19.7015   21.6113 C   0  0  0  0  0  0  0  0  0  0  0  0
  -27.3640  -18.3931   19.5276 C   0  0  0  0  0  0  0  0  0  0  0  0
  -19.0341  -29.8892   21.6989 C   0  0  0  0  0  0  0  0  0  0  0  0
  -20.6097  -23.4798   22.2540 C   0  0  0  0  0  0  0  0  0  0  0  0
  -19.2302  -25.2633   21.1657 C   0  0  0  0  0  0  0  0  0  0  0  0
  -19.0559  -24.8805   23.6245 C   0  0  0  0  0  0  0  0  0  0  0  0
  -22.5171  -30.7504   22.9651 C   0  0  0  0  0  0  0  0  0  0  0  0
  -31.7332  -21.0190   20.5628 C   0  0  0  0  0  0  0  0  0  0  0  0
  -31.9992  -21.6104   21.9608 C   0  0  0  0  0  0  0  0  0  0  0  0
  -29.6833  -25.1637   18.2904 C   0  0  0  0  0  0  0  0  0  0  0  0
  -30.9933  -21.1813   23.0268 C   0  0  0  0  0  0  0  0  0  0  0  0
  -29.4452  -25.6688   19.7104 C   0  0  0  0  0  0  0  0  0  1  0  0
  -28.7502  -24.0036   17.8928 C   0  0  2  0  0  0  0  0  0  0  0  0
  -27.0869  -19.7955   20.0989 C   0  0  0  0  0  0  0  0  0  0  0  0
  -21.1340  -25.9710   22.6842 C   0  0  1  0  0  0  0  0  0  0  0  0
  -20.3187  -29.6675   22.4821 C   0  0  2  0  0  0  0  0  0  0  0  0
  -20.0359  -24.8998   22.4312 C   0  0  0  0  0  0  0  0  0  0  0  0
  -29.2418  -14.7179   22.1349 N   0  0  0  0  0  0  0  0  0  0  0  0
  -29.3919  -20.4709   20.2843 N   0  0  0  0  0  0  0  0  0  0  0  0
  -30.4728  -14.9869   21.6675 N   0  0  0  0  0  0  0  0  0  0  0  0
  -23.3482  -25.4849   23.6764 N   0  0  0  0  0  0  0  0  0  0  0  0
  -31.5946  -17.6794   24.1375 N   0  0  0  0  0  0  0  0  0  0  0  0
  -31.9194  -14.6107   19.8300 N   0  0  0  0  0  0  0  0  0  0  0  0
  -28.1599  -12.3949   18.6670 N   0  0  0  0  0  0  0  0  0  0  0  0
  -25.0005  -22.8599   25.5936 N   0  0  0  0  0  0  0  0  0  0  0  0
  -20.6174  -27.3209   22.8826 N   0  0  0  0  0  0  0  0  0  0  0  0
  -30.9402  -19.7456   23.1909 N   0  0  0  0  0  0  0  0  0  0  0  0
  -21.2242  -30.8256   22.2373 N   0  3  0  0  0  0  0  0  0  0  0  0
  -30.2918  -12.9202   18.0052 O   0  0  0  0  0  0  0  0  0  0  0  0
  -23.7690  -22.9639   23.6200 O   0  0  0  0  0  0  0  0  0  0  0  0
  -21.4336  -25.5765   25.0039 O   0  0  0  0  0  0  0  0  0  0  0  0
  -21.7827  -28.2989   21.1325 O   0  0  0  0  0  0  0  0  0  0  0  0
  -32.5679  -19.6760   24.8041 O   0  0  0  0  0  0  0  0  0  0  0  0
  -23.4838  -12.0380   21.6740 O   0  0  0  0  0  0  0  0  0  0  0  0
  -28.1054  -26.1507   19.8062 O   0  0  0  0  0  0  0  0  0  1  0  0
  -22.5652   -6.7606   20.3666 F   0  0  0  0  0  0  0  0  0  0  0  0
  -24.0020  -11.0970   19.1267 F   0  0  0  0  0  0  0  0  0  0  0  0
  1  2  1  0  0  0  0
  1  5  2  0  0  0  0
  2  6  2  0  0  0  0
  3  8  2  0  0  0  0
  3 16  1  0  0  0  0
  4  9  1  0  0  0  0
  4 16  2  0  0  0  0
  5 18  1  0  0  0  0
  6 20  1  0  0  0  0
  7 10  2  0  0  0  0
  7 19  1  0  0  0  0
  8 24  1  0  0  0  0
  9 24  2  0  0  0  0
 10 25  1  0  0  0  0
 11 12  2  0  0  0  0
 11 26  1  0  0  0  0
 12 27  1  0  0  0  0
 13 21  1  0  0  0  0
 13 25  2  0  0  0  0
 14 22  1  0  0  0  0
 14 30  2  0  0  0  0
 15 27  2  0  0  0  0
 15 28  1  0  0  0  0
 16 29  1  0  0  0  0
 17 29  1  0  0  0  0
 17 32  2  0  0  0  0
 17 33  1  0  0  0  0
 18 20  2  0  0  0  0
 18 38  1  0  0  0  0
 19 21  2  0  0  0  0
 19 39  1  0  0  0  0
 20 47  1  0  0  0  0
 21 40  1  0  0  0  0
 22 23  2  0  0  0  0
 22 64  1  0  0  0  0
 23 31  1  0  0  0  0
 23 50  1  0  0  0  0
 24 85  1  0  0  0  0
 25 86  1  0  0  0  0
 26 28  2  0  0  0  0
 26 85  1  0  0  0  0
 27 87  1  0  0  0  0
 28 88  1  0  0  0  0
 29 69  2  0  0  0  0
 30 59  1  0  0  0  0
 30 70  1  0  0  0  0
 31 65  1  0  0  0  0
 31 70  2  0  0  0  0
 32 71  1  0  0  0  0
 32 74  1  0  0  0  0
 33 75  1  0  0  0  0
 33 80  2  0  0  0  0
 34 48  1  0  0  0  0
 34 76  1  0  0  0  0
 34 81  2  0  0  0  0
 35 66  1  0  0  0  0
 35 72  1  0  0  0  0
 35 82  2  0  0  0  0
 36 67  1  0  0  0  0
 36 77  1  0  0  0  0
 36 83  2  0  0  0  0
 37 73  1  0  0  0  0
 37 78  1  0  0  0  0
 37 84  2  0  0  0  0
 38 41  1  0  0  0  0
 39 48  1  0  0  0  0
 40 72  1  0  0  0  0
 41 43  1  0  0  0  0
 42 44  1  0  0  0  0
 42 45  1  0  0  0  0
 43 47  1  0  0  0  0
 44 49  1  0  0  0  0
 45 73  1  0  0  0  0
 46 49  1  0  0  0  0
 46 73  1  0  0  0  0
 47 76  1  0  0  0  0
 48 72  1  0  0  0  0
 49 71  1  0  0  0  0
 51 64  1  0  0  0  0
 52 65  1  0  0  0  0
 53 65  1  0  0  0  0
 54 67  1  0  0  0  0
 55 68  1  0  0  0  0
 56 68  1  0  0  0  0
 57 68  1  0  0  0  0
 58 79  1  0  0  0  0
 59 60  1  0  0  0  0
 60 62  1  0  0  0  0
 61 63  1  0  0  0  0
 61 64  1  0  0  0  0
 62 78  1  0  0  0  0
 63 86  1  0  0  0  0
 66 68  1  0  0  0  0
 66 77  1  0  0  0  0
 67 79  1  0  0  0  0
 69 71  1  0  0  0  0
M  CHG  1  79   1
M  ISO  4  37 100  63 101  78 100  86 101
M  END
> <Batch ID>
0088

> <Smiles>
CNC(C)C(=O)NC(C(=O)N1Cc2cc([101O:1][101CH2:1]CC(C)c3cc(CCC[100NH:0][100C:0](=O)N4CCCC(n5nc(-c6ccc(Oc7ccc(F)cc7F)cc6)c(C(N)=O)c5N)C4)nc(C(C)C)c3C)ccc2CC1C(=O)NC1CCCc2ccccc21)C(C)(C)C

> <Shape>
0.229

> <Color>
0.070

> <Negative vol penalty>
0.000

$$$$

  -OEChem-04052319043D

 86 94  0     1  0  0  0  0  0999 V2000
  -18.0220  -33.3604   22.7926 C   0  0  0  0  0  0  0  0  0  0  0  0
  -19.2511  -33.4041   22.1423 C   0  0  0  0  0  0  0  0  0  0  0  0
  -26.9683  -13.7342   22.0670 C   0  0  0  0  0  0  0  0  0  0  0  0
  -26.4077  -13.7293   19.7169 C   0  0  0  0  0  0  0  0  0  0  0  0
  -17.7662  -32.3612   23.7307 C   0  0  0  0  0  0  0  0  0  0  0  0
  -20.2255  -32.4492   22.4306 C   0  0  0  0  0  0  0  0  0  0  0  0
  -25.5659  -28.8125   19.3370 C   0  0  0  0  0  0  0  0  0  0  0  0
  -26.1634  -12.6118   22.2614 C   0  0  0  0  0  0  0  0  0  0  0  0
  -25.6028  -12.6068   19.9113 C   0  0  0  0  0  0  0  0  0  0  0  0
  -26.9184  -28.5248   19.5158 C   0  0  0  0  0  0  0  0  0  0  0  0
  -23.1161   -9.9567   19.8545 C   0  0  0  0  0  0  0  0  0  0  0  0
  -21.8563   -9.9508   19.2558 C   0  0  0  0  0  0  0  0  0  0  0  0
  -26.3359  -26.7981   21.0965 C   0  0  0  0  0  0  0  0  0  0  0  0
  -21.2520  -11.9268   20.5077 C   0  0  0  0  0  0  0  0  0  0  0  0
  -27.0905  -14.2930   20.7947 C   0  0  0  0  0  0  0  0  0  0  0  0
  -29.2905  -15.4713   20.2666 C   0  0  0  0  0  0  0  0  0  0  0  0
  -18.7344  -31.3878   24.0236 C   0  0  0  0  0  0  0  0  0  0  0  0
  -24.5872  -28.1013   20.0460 C   0  0  0  0  0  0  0  0  0  0  0  0
  -19.9829  -31.4369   23.3745 C   0  0  0  0  0  0  0  0  0  0  0  0
  -24.9716  -27.0770   20.9230 C   0  0  0  0  0  0  0  0  0  0  0  0
  -29.1351  -22.6353   17.1994 C   0  0  0  0  0  0  0  0  0  0  0  0
  -29.9716  -23.4713   17.9305 C   0  0  0  0  0  0  0  0  0  0  0  0
  -27.9682  -23.1445   16.6406 C   0  0  0  0  0  0  0  0  0  0  0  0
  -25.4806  -12.0481   21.1835 C   0  0  0  0  0  0  0  0  0  0  0  0
  -27.3036  -27.5195   20.3978 C   0  0  0  0  0  0  0  0  0  0  0  0
  -23.4439  -10.9477   20.7799 C   0  0  0  0  0  0  0  0  0  0  0  0
  -20.9243  -10.9359   19.5823 C   0  0  0  0  0  0  0  0  0  0  0  0
  -22.5118  -11.9327   21.1064 C   0  0  0  0  0  0  0  0  0  0  0  0
  -27.9213  -15.4529   20.5934 C   0  0  0  0  0  0  0  0  0  0  0  0
  -29.5991  -24.7983   18.0726 C   0  0  0  0  0  0  0  0  0  0  0  0
  -27.6852  -24.4860   16.8407 C   0  0  0  0  0  0  0  0  0  0  0  0
  -29.6067  -16.8056   20.1875 C   0  0  0  0  0  0  0  0  0  0  0  0
  -30.1956  -14.3800   20.0535 C   0  0  0  0  0  0  0  0  0  0  0  0
  -22.3562  -28.8713   22.1752 C   0  0  0  0  0  0  0  0  0  0  0  0
  -21.4896  -25.7668   21.8103 C   0  0  0  0  0  0  0  0  0  0  0  0
  -22.3854  -22.5926   20.9333 C   0  0  0  0  0  0  0  0  0  0  0  0
  -26.3583  -21.7051   19.0499 C   0  0  0  0  0  0  0  0  0  0  0  0
  -18.4294  -30.3552   25.0796 C   0  0  0  0  0  0  0  0  0  0  0  0
  -23.1313  -28.4057   19.8218 C   0  0  0  0  0  0  0  0  0  0  0  0
  -23.9590  -26.2704   21.6927 C   0  0  0  0  0  0  0  0  0  0  0  0
  -19.3775  -29.1591   25.0538 C   0  0  0  0  0  0  0  0  0  0  0  0
  -28.3281  -21.0673   21.9464 C   0  0  0  0  0  0  0  0  0  0  0  0
  -20.8250  -29.6276   24.9439 C   0  0  0  0  0  0  0  0  0  0  0  0
  -28.5707  -19.5577   21.8986 C   0  0  0  0  0  0  0  0  0  0  0  0
  -26.9326  -21.4308   21.4439 C   0  0  0  0  0  0  0  0  0  0  0  0
  -26.8413  -19.3936   20.0600 C   0  0  0  0  0  0  0  0  0  0  0  0
  -21.0562  -30.4041   23.6419 C   0  0  1  0  0  0  0  0  0  0  0  0
  -22.2434  -27.9655   20.9816 C   0  0  1  0  0  0  0  0  0  0  0  0
  -28.2555  -18.9830   20.5045 C   0  0  2  0  0  0  0  0  0  0  0  0
  -31.2310  -22.9544   18.5411 C   0  0  0  0  0  0  0  0  0  0  0  0
  -26.4452  -25.0901   16.2672 C   0  0  0  0  0  0  0  0  0  0  0  0
  -30.5776  -20.9947   15.9687 C   0  0  0  0  0  0  0  0  0  0  0  0
  -22.1070  -20.1510   20.4250 C   0  0  0  0  0  0  0  0  0  0  0  0
  -21.6925  -25.4841   24.8416 C   0  0  0  0  0  0  0  0  0  0  0  0
  -21.7142  -22.9990   24.5386 C   0  0  0  0  0  0  0  0  0  0  0  0
  -19.7289  -24.3246   23.8149 C   0  0  0  0  0  0  0  0  0  0  0  0
  -21.7536  -23.1370   18.0937 C   0  0  0  0  0  0  0  0  0  0  0  0
  -29.4876  -21.1934   17.0165 C   0  0  0  0  0  0  0  0  0  0  0  0
  -27.0499  -22.2731   15.8508 C   0  0  0  0  0  0  0  0  0  0  0  0
  -30.4654  -25.7536   18.8540 C   0  0  0  0  0  0  0  0  0  0  0  0
  -30.3528  -25.5870   20.3710 C   0  0  0  0  0  0  0  0  0  0  0  0
  -25.8109  -21.8201   16.6320 C   0  0  0  0  0  0  0  0  0  0  0  0
  -28.9600  -25.8916   20.9101 C   0  0  0  0  0  0  0  0  0  1  0  0
  -21.8686  -24.4657   22.4756 C   0  0  1  0  0  0  0  0  0  0  0  0
  -21.7142  -21.5679   20.0367 C   0  0  2  0  0  0  0  0  0  0  0  0
  -21.2705  -24.3347   23.9048 C   0  0  0  0  0  0  0  0  0  0  0  0
  -27.4034  -16.6781   20.7139 N   0  0  0  0  0  0  0  0  0  0  0  0
  -28.4735  -25.3291   17.5447 N   0  0  0  0  0  0  0  0  0  0  0  0
  -28.4527  -17.4790   20.4614 N   0  0  0  0  0  0  0  0  0  0  0  0
  -22.5482  -26.6100   21.4440 N   0  0  0  0  0  0  0  0  0  0  0  0
  -26.6976  -20.8568   20.1168 N   0  0  0  0  0  0  0  0  0  0  0  0
  -30.7564  -17.4568   19.9111 N   0  0  0  0  0  0  0  0  0  0  0  0
  -29.7057  -13.0724   20.1739 N   0  0  0  0  0  0  0  0  0  0  0  0
  -21.1722  -29.4928   22.5237 N   0  0  0  0  0  0  0  0  0  0  0  0
  -21.4639  -23.4054   21.5589 N   0  0  0  0  0  0  0  0  0  0  0  0
  -26.1590  -21.0806   17.8248 N   0  0  0  0  0  0  0  0  0  0  0  0
  -22.1022  -21.7903   18.6151 N   0  3  0  0  0  0  0  0  0  0  0  0
  -31.4069  -14.5591   19.7810 O   0  0  0  0  0  0  0  0  0  0  0  0
  -23.4370  -28.9959   22.7391 O   0  0  0  0  0  0  0  0  0  0  0  0
  -20.2985  -26.0221   21.6161 O   0  0  0  0  0  0  0  0  0  0  0  0
  -23.6050  -22.6625   21.0683 O   0  0  0  0  0  0  0  0  0  0  0  0
  -26.2469  -22.9290   19.1784 O   0  0  0  0  0  0  0  0  0  0  0  0
  -24.6953  -10.9526   21.3728 O   0  0  0  0  0  0  0  0  0  0  0  0
  -28.6231  -27.2371   20.5747 O   0  0  0  0  0  0  0  0  0  1  0  0
  -19.7151  -10.9309   19.0062 F   0  0  0  0  0  0  0  0  0  0  0  0
  -22.8214  -12.8880   21.9938 F   0  0  0  0  0  0  0  0  0  0  0  0
  1  2  1  0  0  0  0
  1  5  2  0  0  0  0
  2  6  2  0  0  0  0
  3  8  2  0  0  0  0
  3 15  1  0  0  0  0
  4  9  1  0  0  0  0
  4 15  2  0  0  0  0
  5 17  1  0  0  0  0
  6 19  1  0  0  0  0
  7 10  2  0  0  0  0
  7 18  1  0  0  0  0
  8 24  1  0  0  0  0
  9 24  2  0  0  0  0
 10 25  1  0  0  0  0
 11 12  2  0  0  0  0
 11 26  1  0  0  0  0
 12 27  1  0  0  0  0
 13 20  1  0  0  0  0
 13 25  2  0  0  0  0
 14 27  2  0  0  0  0
 14 28  1  0  0  0  0
 15 29  1  0  0  0  0
 16 29  1  0  0  0  0
 16 32  2  0  0  0  0
 16 33  1  0  0  0  0
 17 19  2  0  0  0  0
 17 38  1  0  0  0  0
 18 20  2  0  0  0  0
 18 39  1  0  0  0  0
 19 47  1  0  0  0  0
 20 40  1  0  0  0  0
 21 22  1  0  0  0  0
 21 23  2  0  0  0  0
 21 58  1  0  0  0  0
 22 30  2  0  0  0  0
 22 50  1  0  0  0  0
 23 31  1  0  0  0  0
 23 59  1  0  0  0  0
 24 83  1  0  0  0  0
 25 84  1  0  0  0  0
 26 28  2  0  0  0  0
 26 83  1  0  0  0  0
 27 85  1  0  0  0  0
 28 86  1  0  0  0  0
 29 67  2  0  0  0  0
 30 60  1  0  0  0  0
 30 68  1  0  0  0  0
 31 51  1  0  0  0  0
 31 68  2  0  0  0  0
 32 69  1  0  0  0  0
 32 72  1  0  0  0  0
 33 73  1  0  0  0  0
 33 78  2  0  0  0  0
 34 48  1  0  0  0  0
 34 74  1  0  0  0  0
 34 79  2  0  0  0  0
 35 64  1  0  0  0  0
 35 70  1  0  0  0  0
 35 80  2  0  0  0  0
 36 65  1  0  0  0  0
 36 75  1  0  0  0  0
 36 81  2  0  0  0  0
 37 71  1  0  0  0  0
 37 76  1  0  0  0  0
 37 82  2  0  0  0  0
 38 41  1  0  0  0  0
 39 48  1  0  0  0  0
 40 70  1  0  0  0  0
 41 43  1  0  0  0  0
 42 44  1  0  0  0  0
 42 45  1  0  0  0  0
 43 47  1  0  0  0  0
 44 49  1  0  0  0  0
 45 71  1  0  0  0  0
 46 49  1  0  0  0  0
 46 71  1  0  0  0  0
 47 74  1  0  0  0  0
 48 70  1  0  0  0  0
 49 69  1  0  0  0  0
 52 58  1  0  0  0  0
 53 65  1  0  0  0  0
 54 66  1  0  0  0  0
 55 66  1  0  0  0  0
 56 66  1  0  0  0  0
 57 77  1  0  0  0  0
 59 62  1  0  0  0  0
 60 61  1  0  0  0  0
 61 63  1  0  0  0  0
 62 76  1  0  0  0  0
 63 84  1  0  0  0  0
 64 66  1  0  0  0  0
 64 75  1  0  0  0  0
 65 77  1  0  0  0  0
 67 69  1  0  0  0  0
M  CHG  1  77   1
M  ISO  4  37 100  63 101  76 100  84 101
M  END
> <Batch ID>
0088

> <Smiles>
CCc1c(C)c(CC[101CH2:1][101O:1]c2ccc3c(c2)CN(C(=O)C(NC(=O)C(C)NC)C(C)(C)C)C(C(=O)NC2CCCc4ccccc42)C3)nc(C)c1CC[100NH:0][100C:0](=O)N1CCCC(n2nc(-c3ccc(Oc4ccc(F)cc4F)cc3)c(C(N)=O)c2N)C1

> <Shape>
0.247

> <Color>
0.095

> <Negative vol penalty>
0.000

$$$$

  -OEChem-04052319043D

 87 95  0     1  0  0  0  0  0999 V2000
  -24.7433  -32.7837   24.0643 C   0  0  0  0  0  0  0  0  0  0  0  0
  -24.7601  -31.4229   24.3527 C   0  0  0  0  0  0  0  0  0  0  0  0
  -23.0287   -9.9294   19.9101 C   0  0  0  0  0  0  0  0  0  0  0  0
  -23.8584   -9.8053   22.1758 C   0  0  0  0  0  0  0  0  0  0  0  0
  -24.6186  -33.2138   22.7439 C   0  0  0  0  0  0  0  0  0  0  0  0
  -24.6511  -30.4912   23.3209 C   0  0  0  0  0  0  0  0  0  0  0  0
  -27.3601  -25.0075   23.0108 C   0  0  0  0  0  0  0  0  0  0  0  0
  -22.2717   -8.7776   20.1242 C   0  0  0  0  0  0  0  0  0  0  0  0
  -23.1013   -8.6536   22.3900 C   0  0  0  0  0  0  0  0  0  0  0  0
  -26.9063  -23.7198   23.2930 C   0  0  0  0  0  0  0  0  0  0  0  0
  -19.8788   -7.8804   23.0523 C   0  0  0  0  0  0  0  0  0  0  0  0
  -19.1574   -7.7929   24.2429 C   0  0  0  0  0  0  0  0  0  0  0  0
  -26.3925  -23.3958   20.9584 C   0  0  0  0  0  0  0  0  0  0  0  0
  -26.5645  -18.9840   20.9478 C   0  0  0  0  0  0  0  0  0  0  0  0
  -28.5832  -18.6940   22.2227 C   0  0  0  0  0  0  0  0  0  0  0  0
  -20.3847   -5.7994   24.8402 C   0  0  0  0  0  0  0  0  0  0  0  0
  -23.8221  -10.4432   20.9359 C   0  0  0  0  0  0  0  0  0  0  0  0
  -24.2067  -12.9651   20.9341 C   0  0  0  0  0  0  0  0  0  0  0  0
  -24.5177  -32.2869   21.6945 C   0  0  0  0  0  0  0  0  0  0  0  0
  -27.3234  -25.5038   21.6997 C   0  0  0  0  0  0  0  0  0  0  0  0
  -24.5236  -30.9093   21.9854 C   0  0  0  0  0  0  0  0  0  0  0  0
  -26.8489  -24.6892   20.6618 C   0  0  0  0  0  0  0  0  0  0  0  0
  -27.2374  -19.0384   22.1634 C   0  0  0  0  0  0  0  0  0  0  0  0
  -22.3079   -8.1397   21.3642 C   0  0  0  0  0  0  0  0  0  0  0  0
  -26.4197  -22.9148   22.2672 C   0  0  0  0  0  0  0  0  0  0  0  0
  -20.8532   -6.9273   22.7556 C   0  0  0  0  0  0  0  0  0  0  0  0
  -19.4104   -6.7525   25.1368 C   0  0  0  0  0  0  0  0  0  0  0  0
  -21.1061   -5.8868   23.6495 C   0  0  0  0  0  0  0  0  0  0  0  0
  -24.6049  -11.6327   20.7152 C   0  0  0  0  0  0  0  0  0  0  0  0
  -27.2770  -18.5820   19.8296 C   0  0  0  0  0  0  0  0  0  0  0  0
  -29.2053  -18.3048   21.0474 C   0  0  0  0  0  0  0  0  0  0  0  0
  -25.3009  -13.7137   20.5753 C   0  0  0  0  0  0  0  0  0  0  0  0
  -22.9594  -13.4800   21.4185 C   0  0  0  0  0  0  0  0  0  0  0  0
  -25.8532  -27.9256   20.2584 C   0  0  0  0  0  0  0  0  0  0  0  0
  -27.6557  -27.0022   17.7245 C   0  0  0  0  0  0  0  0  0  0  0  0
  -29.3930  -24.5182   16.1567 C   0  0  0  0  0  0  0  0  0  0  0  0
  -30.8058  -14.6290   20.6428 C   0  0  0  0  0  0  0  0  0  0  0  0
  -24.3371  -32.7998   20.2878 C   0  0  0  0  0  0  0  0  0  0  0  0
  -27.8415  -26.8854   21.4076 C   0  0  0  0  0  0  0  0  0  0  0  0
  -26.8072  -25.1675   19.2342 C   0  0  0  0  0  0  0  0  0  0  0  0
  -24.6036  -31.7458   19.2162 C   0  0  0  0  0  0  0  0  0  0  0  0
  -29.5519  -12.3902   18.1745 C   0  0  0  0  0  0  0  0  0  0  0  0
  -23.9040  -30.4370   19.5690 C   0  0  0  0  0  0  0  0  0  0  0  0
  -28.1232  -12.0989   18.6369 C   0  0  0  0  0  0  0  0  0  0  0  0
  -30.5092  -12.5334   19.3556 C   0  0  0  0  0  0  0  0  0  0  0  0
  -28.6646  -13.2240   20.8368 C   0  0  0  0  0  0  0  0  0  0  0  0
  -24.4327  -29.8679   20.8912 C   0  0  1  0  0  0  0  0  0  0  0  0
  -27.2793  -27.4739   20.1173 C   0  0  1  0  0  0  0  0  0  0  0  0
  -27.6518  -13.1268   19.6831 C   0  0  2  0  0  0  0  0  0  0  0  0
  -31.5459  -19.1103   21.4909 C   0  0  0  0  0  0  0  0  0  0  0  0
  -30.7265  -24.0538   14.0822 C   0  0  0  0  0  0  0  0  0  0  0  0
  -26.1590  -21.1804   15.6763 C   0  0  0  0  0  0  0  0  0  0  0  0
  -26.5895  -18.7262   15.4483 C   0  0  0  0  0  0  0  0  0  0  0  0
  -25.0761  -26.8584   16.1014 C   0  0  0  0  0  0  0  0  0  0  0  0
  -26.3106  -25.5122   14.3891 C   0  0  0  0  0  0  0  0  0  0  0  0
  -27.0211  -27.8518   14.8831 C   0  0  0  0  0  0  0  0  0  0  0  0
  -31.8234  -23.8826   17.7214 C   0  0  0  0  0  0  0  0  0  0  0  0
  -26.5100  -19.4706   23.4134 C   0  0  0  0  0  0  0  0  0  0  0  0
  -26.5878  -18.5133   18.5079 C   0  0  0  0  0  0  0  0  0  0  0  0
  -26.6805  -19.8445   17.7395 C   0  0  0  0  0  0  0  0  0  0  0  0
  -30.9491  -16.7116   21.9850 C   0  0  0  0  0  0  0  0  0  0  0  0
  -26.5850  -20.9772   23.6362 C   0  0  0  0  0  0  0  0  0  1  0  0
  -30.6485  -17.9266   21.0746 C   0  0  1  0  0  0  0  0  0  0  0  0
  -27.4754  -26.0339   16.5805 C   0  0  1  0  0  0  0  0  0  0  0  0
  -30.7785  -24.4946   15.5368 C   0  0  2  0  0  0  0  0  0  0  0  0
  -26.0111  -19.8152   16.3529 C   0  0  0  0  0  0  0  0  0  0  0  0
  -26.4696  -26.5555   15.5156 C   0  0  0  0  0  0  0  0  0  0  0  0
  -25.8544  -11.5372   20.2529 N   0  0  0  0  0  0  0  0  0  0  0  0
  -28.5847  -18.2398   19.8481 N   0  0  0  0  0  0  0  0  0  0  0  0
  -26.2508  -12.8191   20.1784 N   0  0  0  0  0  0  0  0  0  0  0  0
  -27.3190  -26.5279   19.0003 N   0  0  0  0  0  0  0  0  0  0  0  0
  -30.0051  -13.5240   20.3098 N   0  0  0  0  0  0  0  0  0  0  0  0
  -25.5336  -15.0435   20.5637 N   0  0  0  0  0  0  0  0  0  0  0  0
  -21.9416  -12.5719   21.7407 N   0  0  0  0  0  0  0  0  0  0  0  0
  -25.7166  -29.2312   20.6899 N   0  0  0  0  0  0  0  0  0  0  0  0
  -28.8111  -25.7645   16.0594 N   0  0  0  0  0  0  0  0  0  0  0  0
  -30.2499  -15.5232   21.5495 N   0  0  0  0  0  0  0  0  0  0  0  0
  -31.6632  -23.5544   16.2814 N   0  3  0  0  0  0  0  0  0  0  0  0
  -22.7478  -14.7098   21.5459 O   0  0  0  0  0  0  0  0  0  0  0  0
  -24.9440  -27.1476   19.9940 O   0  0  0  0  0  0  0  0  0  0  0  0
  -28.0865  -28.1352   17.4957 O   0  0  0  0  0  0  0  0  0  0  0  0
  -28.8769  -23.5290   16.6721 O   0  0  0  0  0  0  0  0  0  0  0  0
  -31.9304  -14.8084   20.1632 O   0  0  0  0  0  0  0  0  0  0  0  0
  -21.5691   -7.0159   21.5735 O   0  0  0  0  0  0  0  0  0  0  0  0
  -25.9756  -21.6577   22.5400 O   0  0  0  0  0  0  0  0  0  1  0  0
  -18.7186   -6.6695   26.2808 F   0  0  0  0  0  0  0  0  0  0  0  0
  -22.0418   -4.9689   23.3705 F   0  0  0  0  0  0  0  0  0  0  0  0
  1  2  1  0  0  0  0
  1  5  2  0  0  0  0
  2  6  2  0  0  0  0
  3  8  2  0  0  0  0
  3 17  1  0  0  0  0
  4  9  1  0  0  0  0
  4 17  2  0  0  0  0
  5 19  1  0  0  0  0
  6 21  1  0  0  0  0
  7 10  2  0  0  0  0
  7 20  1  0  0  0  0
  8 24  1  0  0  0  0
  9 24  2  0  0  0  0
 10 25  1  0  0  0  0
 11 12  2  0  0  0  0
 11 26  1  0  0  0  0
 12 27  1  0  0  0  0
 13 22  1  0  0  0  0
 13 25  2  0  0  0  0
 14 23  1  0  0  0  0
 14 30  2  0  0  0  0
 15 23  2  0  0  0  0
 15 31  1  0  0  0  0
 16 27  2  0  0  0  0
 16 28  1  0  0  0  0
 17 29  1  0  0  0  0
 18 29  1  0  0  0  0
 18 32  2  0  0  0  0
 18 33  1  0  0  0  0
 19 21  2  0  0  0  0
 19 38  1  0  0  0  0
 20 22  2  0  0  0  0
 20 39  1  0  0  0  0
 21 47  1  0  0  0  0
 22 40  1  0  0  0  0
 23 58  1  0  0  0  0
 24 84  1  0  0  0  0
 25 85  1  0  0  0  0
 26 28  2  0  0  0  0
 26 84  1  0  0  0  0
 27 86  1  0  0  0  0
 28 87  1  0  0  0  0
 29 68  2  0  0  0  0
 30 59  1  0  0  0  0
 30 69  1  0  0  0  0
 31 63  1  0  0  0  0
 31 69  2  0  0  0  0
 32 70  1  0  0  0  0
 32 73  1  0  0  0  0
 33 74  1  0  0  0  0
 33 79  2  0  0  0  0
 34 48  1  0  0  0  0
 34 75  1  0  0  0  0
 34 80  2  0  0  0  0
 35 64  1  0  0  0  0
 35 71  1  0  0  0  0
 35 81  2  0  0  0  0
 36 65  1  0  0  0  0
 36 76  1  0  0  0  0
 36 82  2  0  0  0  0
 37 72  1  0  0  0  0
 37 77  1  0  0  0  0
 37 83  2  0  0  0  0
 38 41  1  0  0  0  0
 39 48  1  0  0  0  0
 40 71  1  0  0  0  0
 41 43  1  0  0  0  0
 42 44  1  0  0  0  0
 42 45  1  0  0  0  0
 43 47  1  0  0  0  0
 44 49  1  0  0  0  0
 45 72  1  0  0  0  0
 46 49  1  0  0  0  0
 46 72  1  0  0  0  0
 47 75  1  0  0  0  0
 48 71  1  0  0  0  0
 49 70  1  0  0  0  0
 50 63  1  0  0  0  0
 51 65  1  0  0  0  0
 52 66  1  0  0  0  0
 53 66  1  0  0  0  0
 54 67  1  0  0  0  0
 55 67  1  0  0  0  0
 56 67  1  0  0  0  0
 57 78  1  0  0  0  0
 58 62  1  0  0  0  0
 59 60  1  0  0  0  0
 60 66  1  0  0  0  0
 61 63  1  0  0  0  0
 61 77  1  0  0  0  0
 62 85  1  0  0  0  0
 64 67  1  0  0  0  0
 64 76  1  0  0  0  0
 65 78  1  0  0  0  0
 68 70  1  0  0  0  0
M  CHG  1  78   1
M  ISO  4  37 100  62 101  77 100  85 101
M  END
> <Batch ID>
0088

> <Smiles>
CNC(C)C(=O)NC(C(=O)N1Cc2cc([101O:1][101CH2:1]Cc3cc(CCC(C)C)nc(C(C)C[100NH:0][100C:0](=O)N4CCCC(n5nc(-c6ccc(Oc7ccc(F)cc7F)cc6)c(C(N)=O)c5N)C4)c3)ccc2CC1C(=O)NC1CCCc2ccccc21)C(C)(C)C

> <Shape>
0.300

> <Color>
0.190

> <Negative vol penalty>
0.000

$$$$

  -OEChem-04052319043D

 84 92  0     1  0  0  0  0  0999 V2000
  -29.5647  -30.5385   26.6804 C   0  0  0  0  0  0  0  0  0  0  0  0
  -29.1014  -29.5451   25.8238 C   0  0  0  0  0  0  0  0  0  0  0  0
  -23.7379   -9.7045   19.7775 C   0  0  0  0  0  0  0  0  0  0  0  0
  -24.5326   -9.8200   22.0561 C   0  0  0  0  0  0  0  0  0  0  0  0
  -28.6955  -31.5325   27.1281 C   0  0  0  0  0  0  0  0  0  0  0  0
  -27.7681  -29.5445   25.4151 C   0  0  0  0  0  0  0  0  0  0  0  0
  -27.2575  -28.6704   20.4532 C   0  0  0  0  0  0  0  0  0  0  0  0
  -26.9842  -23.0955   17.4814 C   0  0  0  0  0  0  0  0  0  0  0  0
  -26.9108  -21.7804   17.0226 C   0  0  0  0  0  0  0  0  0  0  0  0
  -23.4265   -8.3565   19.9544 C   0  0  0  0  0  0  0  0  0  0  0  0
  -24.2211   -8.4719   22.2331 C   0  0  0  0  0  0  0  0  0  0  0  0
  -27.3824  -27.3501   20.0231 C   0  0  0  0  0  0  0  0  0  0  0  0
  -21.4616   -6.6106   22.8172 C   0  0  0  0  0  0  0  0  0  0  0  0
  -20.8020   -6.2481   23.9916 C   0  0  0  0  0  0  0  0  0  0  0  0
  -24.9795  -27.1602   19.9278 C   0  0  0  0  0  0  0  0  0  0  0  0
  -28.1551  -22.3414   19.4556 C   0  0  0  0  0  0  0  0  0  0  0  0
  -22.6393   -4.7912   24.5739 C   0  0  0  0  0  0  0  0  0  0  0  0
  -24.2910  -10.4363   20.8284 C   0  0  0  0  0  0  0  0  0  0  0  0
  -23.7741  -12.9338   20.8830 C   0  0  0  0  0  0  0  0  0  0  0  0
  -27.3533  -31.5496   26.7170 C   0  0  0  0  0  0  0  0  0  0  0  0
  -25.9904  -29.2430   20.6346 C   0  0  0  0  0  0  0  0  0  0  0  0
  -26.8798  -30.5389   25.8588 C   0  0  0  0  0  0  0  0  0  0  0  0
  -24.8413  -28.4887   20.3579 C   0  0  0  0  0  0  0  0  0  0  0  0
  -27.6065  -23.3761   18.6979 C   0  0  0  0  0  0  0  0  0  0  0  0
  -27.4594  -20.7457   17.7803 C   0  0  0  0  0  0  0  0  0  0  0  0
  -28.0816  -21.0262   18.9968 C   0  0  0  0  0  0  0  0  0  0  0  0
  -23.6680   -7.7401   21.1822 C   0  0  0  0  0  0  0  0  0  0  0  0
  -26.2433  -26.5939   19.7631 C   0  0  0  0  0  0  0  0  0  0  0  0
  -22.7101   -6.0633   22.5211 C   0  0  0  0  0  0  0  0  0  0  0  0
  -21.3908   -5.3385   24.8699 C   0  0  0  0  0  0  0  0  0  0  0  0
  -23.2989   -5.1537   23.3995 C   0  0  0  0  0  0  0  0  0  0  0  0
  -24.6134  -11.8287   20.6461 C   0  0  0  0  0  0  0  0  0  0  0  0
  -24.5435  -14.0248   20.5603 C   0  0  0  0  0  0  0  0  0  0  0  0
  -22.4200  -12.9708   21.3529 C   0  0  0  0  0  0  0  0  0  0  0  0
  -24.4086  -30.4506   23.1132 C   0  0  0  0  0  0  0  0  0  0  0  0
  -22.2349  -31.2460   20.8406 C   0  0  0  0  0  0  0  0  0  0  0  0
  -20.9187  -30.6374   17.7512 C   0  0  0  0  0  0  0  0  0  0  0  0
  -29.3847  -16.7944   20.7529 C   0  0  0  0  0  0  0  0  0  0  0  0
  -26.4398  -32.6173   27.2650 C   0  0  0  0  0  0  0  0  0  0  0  0
  -25.8729  -30.6769   21.0735 C   0  0  0  0  0  0  0  0  0  0  0  0
  -23.4581  -29.0631   20.5175 C   0  0  0  0  0  0  0  0  0  0  0  0
  -25.1341  -32.7598   26.4871 C   0  0  0  0  0  0  0  0  0  0  0  0
  -29.0168  -14.3218   18.2177 C   0  0  0  0  0  0  0  0  0  0  0  0
  -24.5162  -31.3898   26.2258 C   0  0  0  0  0  0  0  0  0  0  0  0
  -27.7735  -13.5406   18.6463 C   0  0  0  0  0  0  0  0  0  0  0  0
  -29.8508  -14.7592   19.4198 C   0  0  0  0  0  0  0  0  0  0  0  0
  -27.8641  -14.7284   20.8779 C   0  0  0  0  0  0  0  0  0  0  0  0
  -25.4466  -30.5184   25.3735 C   0  0  1  0  0  0  0  0  0  0  0  0
  -24.5277  -30.9962   21.7183 C   0  0  1  0  0  0  0  0  0  0  0  0
  -26.9619  -14.3141   19.7029 C   0  0  2  0  0  0  0  0  0  0  0  0
  -27.3675  -19.3454   17.2691 C   0  0  0  0  0  0  0  0  0  0  0  0
  -19.1254  -31.4273   16.1835 C   0  0  0  0  0  0  0  0  0  0  0  0
  -26.5815  -19.6403   21.2591 C   0  0  0  0  0  0  0  0  0  0  0  0
  -20.1330  -29.8171   22.5288 C   0  0  0  0  0  0  0  0  0  0  0  0
  -18.6322  -29.8052   20.5249 C   0  0  0  0  0  0  0  0  0  0  0  0
  -19.3689  -31.9725   21.5164 C   0  0  0  0  0  0  0  0  0  0  0  0
  -22.8962  -31.3808   15.6786 C   0  0  0  0  0  0  0  0  0  0  0  0
  -27.6849  -24.7908   19.1915 C   0  0  0  0  0  0  0  0  0  1  0  0
  -28.7790  -18.7627   22.1379 C   0  0  0  0  0  0  0  0  0  0  0  0
  -28.6757  -19.9347   19.8253 C   0  0  2  0  0  0  0  0  0  0  0  0
  -21.0320  -30.5697   20.2285 C   0  0  1  0  0  0  0  0  0  0  0  0
  -20.5817  -31.5666   16.5990 C   0  0  2  0  0  0  0  0  0  0  0  0
  -28.1027  -19.8440   21.2733 C   0  0  1  0  0  0  0  0  0  0  0  0
  -19.8174  -30.5294   21.1984 C   0  0  0  0  0  0  0  0  0  0  0  0
  -25.8234  -12.1851   20.2066 N   0  0  0  0  0  0  0  0  0  0  0  0
  -25.7498  -13.5263   20.1647 N   0  0  0  0  0  0  0  0  0  0  0  0
  -23.3954  -30.4675   20.9549 N   0  0  0  0  0  0  0  0  0  0  0  0
  -29.0225  -15.4887   20.3830 N   0  0  0  0  0  0  0  0  0  0  0  0
  -24.2991  -15.3523   20.5790 N   0  0  0  0  0  0  0  0  0  0  0  0
  -21.7782  -11.7577   21.6374 N   0  0  0  0  0  0  0  0  0  0  0  0
  -25.3768  -30.9144   23.9832 N   0  0  0  0  0  0  0  0  0  0  0  0
  -20.7700  -31.2621   18.9714 N   0  0  0  0  0  0  0  0  0  0  0  0
  -28.5420  -17.4167   21.6658 N   0  0  0  0  0  0  0  0  0  0  0  0
  -21.4385  -31.2601   15.4188 N   0  3  0  0  0  0  0  0  0  0  0  0
  -21.7923  -14.0468   21.5000 O   0  0  0  0  0  0  0  0  0  0  0  0
  -23.5043  -29.6681   23.3808 O   0  0  0  0  0  0  0  0  0  0  0  0
  -22.1502  -32.4238   21.1973 O   0  0  0  0  0  0  0  0  0  0  0  0
  -21.2744  -29.4727   17.5855 O   0  0  0  0  0  0  0  0  0  0  0  0
  -30.3821  -17.3655   20.2990 O   0  0  0  0  0  0  0  0  0  0  0  0
  -30.0938  -20.1464   19.8793 O   0  0  0  0  0  0  0  0  0  0  0  0
  -23.3640   -6.4248   21.3552 O   0  0  0  0  0  0  0  0  0  0  0  0
  -26.3624  -25.3047   19.3438 O   0  0  0  0  0  0  0  0  0  1  0  0
  -20.7580   -4.9917   25.9983 F   0  0  0  0  0  0  0  0  0  0  0  0
  -24.4986   -4.6255   23.1210 F   0  0  0  0  0  0  0  0  0  0  0  0
  1  2  1  0  0  0  0
  1  5  2  0  0  0  0
  2  6  2  0  0  0  0
  3 10  2  0  0  0  0
  3 18  1  0  0  0  0
  4 11  1  0  0  0  0
  4 18  2  0  0  0  0
  5 20  1  0  0  0  0
  6 22  1  0  0  0  0
  7 12  2  0  0  0  0
  7 21  1  0  0  0  0
  8  9  2  0  0  0  0
  8 24  1  0  0  0  0
  9 25  1  0  0  0  0
 10 27  1  0  0  0  0
 11 27  2  0  0  0  0
 12 28  1  0  0  0  0
 13 14  2  0  0  0  0
 13 29  1  0  0  0  0
 14 30  1  0  0  0  0
 15 23  1  0  0  0  0
 15 28  2  0  0  0  0
 16 24  2  0  0  0  0
 16 26  1  0  0  0  0
 17 30  2  0  0  0  0
 17 31  1  0  0  0  0
 18 32  1  0  0  0  0
 19 32  1  0  0  0  0
 19 33  2  0  0  0  0
 19 34  1  0  0  0  0
 20 22  2  0  0  0  0
 20 39  1  0  0  0  0
 21 23  2  0  0  0  0
 21 40  1  0  0  0  0
 22 48  1  0  0  0  0
 23 41  1  0  0  0  0
 24 58  1  0  0  0  0
 25 26  2  0  0  0  0
 25 51  1  0  0  0  0
 26 60  1  0  0  0  0
 27 81  1  0  0  0  0
 28 82  1  0  0  0  0
 29 31  2  0  0  0  0
 29 81  1  0  0  0  0
 30 83  1  0  0  0  0
 31 84  1  0  0  0  0
 32 65  2  0  0  0  0
 33 66  1  0  0  0  0
 33 69  1  0  0  0  0
 34 70  1  0  0  0  0
 34 75  2  0  0  0  0
 35 49  1  0  0  0  0
 35 71  1  0  0  0  0
 35 76  2  0  0  0  0
 36 61  1  0  0  0  0
 36 67  1  0  0  0  0
 36 77  2  0  0  0  0
 37 62  1  0  0  0  0
 37 72  1  0  0  0  0
 37 78  2  0  0  0  0
 38 68  1  0  0  0  0
 38 73  1  0  0  0  0
 38 79  2  0  0  0  0
 39 42  1  0  0  0  0
 40 49  1  0  0  0  0
 41 67  1  0  0  0  0
 42 44  1  0  0  0  0
 43 45  1  0  0  0  0
 43 46  1  0  0  0  0
 44 48  1  0  0  0  0
 45 50  1  0  0  0  0
 46 68  1  0  0  0  0
 47 50  1  0  0  0  0
 47 68  1  0  0  0  0
 48 71  1  0  0  0  0
 49 67  1  0  0  0  0
 50 66  1  0  0  0  0
 52 62  1  0  0  0  0
 53 63  1  0  0  0  0
 54 64  1  0  0  0  0
 55 64  1  0  0  0  0
 56 64  1  0  0  0  0
 57 74  1  0  0  0  0
 58 82  1  0  0  0  0
 59 63  1  0  0  0  0
 59 73  1  0  0  0  0
 60 63  1  0  0  0  0
 60 80  1  0  0  0  0
 61 64  1  0  0  0  0
 61 72  1  0  0  0  0
 62 74  1  0  0  0  0
 65 66  1  0  0  0  0
M  CHG  1  74   1
M  ISO  4  38 100  58 101  73 100  82 101
M  END
> <Batch ID>
0088

> <Smiles>
CNC(C)C(=O)NC(C(=O)N1Cc2cc([101O:1][101CH2:1]c3ccc(C)c(C(O)C(C)C[100NH:0][100C:0](=O)N4CCCC(n5nc(-c6ccc(Oc7ccc(F)cc7F)cc6)c(C(N)=O)c5N)C4)c3)ccc2CC1C(=O)NC1CCCc2ccccc21)C(C)(C)C

> <Shape>
0.325

> <Color>
0.149

> <Negative vol penalty>
0.000

$$$$

  -OEChem-04052319043D

 86 94  0     1  0  0  0  0  0999 V2000
  -19.2063  -25.4080   23.7273 C   0  0  0  0  0  0  0  0  0  0  0  0
  -20.4891  -25.5781   23.2190 C   0  0  0  0  0  0  0  0  0  0  0  0
  -26.9713  -17.0546   22.5366 C   0  0  0  0  0  0  0  0  0  0  0  0
  -26.3879  -16.7694   20.2095 C   0  0  0  0  0  0  0  0  0  0  0  0
  -18.2750  -26.4385   23.6177 C   0  0  0  0  0  0  0  0  0  0  0  0
  -20.8447  -26.7829   22.6117 C   0  0  0  0  0  0  0  0  0  0  0  0
  -25.5700  -27.3478   21.3643 C   0  0  0  0  0  0  0  0  0  0  0  0
  -27.3472  -15.7132   22.6068 C   0  0  0  0  0  0  0  0  0  0  0  0
  -26.7639  -15.4280   20.2796 C   0  0  0  0  0  0  0  0  0  0  0  0
  -26.1559  -26.6624   20.3009 C   0  0  0  0  0  0  0  0  0  0  0  0
  -29.6324  -13.6417   20.2422 C   0  0  0  0  0  0  0  0  0  0  0  0
  -30.4111  -13.1333   19.2026 C   0  0  0  0  0  0  0  0  0  0  0  0
  -26.0475  -28.6640   18.9589 C   0  0  0  0  0  0  0  0  0  0  0  0
  -25.4957  -25.9103   14.6510 C   0  0  0  0  0  0  0  0  0  0  0  0
  -24.2979  -24.5309   16.2153 C   0  0  0  0  0  0  0  0  0  0  0  0
  -28.6907  -11.5108   18.7074 C   0  0  0  0  0  0  0  0  0  0  0  0
  -26.4916  -17.5827   21.3380 C   0  0  0  0  0  0  0  0  0  0  0  0
  -26.9190  -20.0637   20.9259 C   0  0  0  0  0  0  0  0  0  0  0  0
  -18.6164  -27.6517   22.9975 C   0  0  0  0  0  0  0  0  0  0  0  0
  -25.2078  -28.6957   21.2291 C   0  0  0  0  0  0  0  0  0  0  0  0
  -19.9262  -27.8437   22.5128 C   0  0  0  0  0  0  0  0  0  0  0  0
  -25.4594  -29.3649   20.0229 C   0  0  0  0  0  0  0  0  0  0  0  0
  -25.4943  -25.0770   15.7640 C   0  0  0  0  0  0  0  0  0  0  0  0
  -27.2436  -14.8999   21.4783 C   0  0  0  0  0  0  0  0  0  0  0  0
  -26.3921  -27.3197   19.0971 C   0  0  0  0  0  0  0  0  0  0  0  0
  -28.3828  -13.0846   20.5144 C   0  0  0  0  0  0  0  0  0  0  0  0
  -29.9403  -12.0679   18.4352 C   0  0  0  0  0  0  0  0  0  0  0  0
  -27.9120  -12.0193   19.7470 C   0  0  0  0  0  0  0  0  0  0  0  0
  -26.1025  -18.9682   21.2650 C   0  0  0  0  0  0  0  0  0  0  0  0
  -24.2836  -26.1643   14.0295 C   0  0  0  0  0  0  0  0  0  0  0  0
  -23.1394  -24.8468   15.5239 C   0  0  0  0  0  0  0  0  0  0  0  0
  -26.0833  -21.1511   21.0012 C   0  0  0  0  0  0  0  0  0  0  0  0
  -28.3085  -20.0955   20.5741 C   0  0  0  0  0  0  0  0  0  0  0  0
  -22.4723  -30.3084   21.3701 C   0  0  0  0  0  0  0  0  0  0  0  0
  -24.4281  -32.8833   21.1117 C   0  0  0  0  0  0  0  0  0  0  0  0
  -27.4300  -34.1513   20.0980 C   0  0  0  0  0  0  0  0  0  0  0  0
  -21.1821  -23.6044   19.9499 C   0  0  0  0  0  0  0  0  0  0  0  0
  -17.5717  -28.7364   22.9129 C   0  0  0  0  0  0  0  0  0  0  0  0
  -24.6011  -29.4282   22.3944 C   0  0  0  0  0  0  0  0  0  0  0  0
  -25.1078  -30.8171   19.8334 C   0  0  0  0  0  0  0  0  0  0  0  0
  -17.9001  -29.7979   21.8681 C   0  0  0  0  0  0  0  0  0  0  0  0
  -21.4038  -21.5835   22.8728 C   0  0  0  0  0  0  0  0  0  0  0  0
  -19.3318  -30.2797   22.0487 C   0  0  0  0  0  0  0  0  0  0  0  0
  -22.7095  -20.8092   22.6840 C   0  0  0  0  0  0  0  0  0  0  0  0
  -20.6696  -21.7831   21.5488 C   0  0  0  0  0  0  0  0  0  0  0  0
  -22.7828  -21.6250   20.2907 C   0  0  0  0  0  0  0  0  0  0  0  0
  -20.3263  -29.1342   21.8209 C   0  0  1  0  0  0  0  0  0  0  0  0
  -23.8019  -30.6585   21.9762 C   0  0  1  0  0  0  0  0  0  0  0  0
  -23.5867  -21.4474   21.5901 C   0  0  2  0  0  0  0  0  0  0  0  0
  -24.2472  -27.0528   12.8312 C   0  0  0  0  0  0  0  0  0  0  0  0
  -27.1740  -22.5356   15.1711 C   0  0  0  0  0  0  0  0  0  0  0  0
  -28.7245  -36.2981   19.9849 C   0  0  0  0  0  0  0  0  0  0  0  0
  -28.0536  -25.4449   15.8644 C   0  0  0  0  0  0  0  0  0  0  0  0
  -22.7230  -33.7841   18.7472 C   0  0  0  0  0  0  0  0  0  0  0  0
  -24.5667  -35.3511   18.1042 C   0  0  0  0  0  0  0  0  0  0  0  0
  -23.4103  -35.6219   20.2978 C   0  0  0  0  0  0  0  0  0  0  0  0
  -29.5810  -33.0803   21.8258 C   0  0  0  0  0  0  0  0  0  0  0  0
  -21.8372  -24.2799   15.9816 C   0  0  0  0  0  0  0  0  0  0  0  0
  -27.0669  -23.2171   16.5325 C   0  0  0  0  0  0  0  0  0  0  0  0
  -21.0892  -25.1507   17.0098 C   0  0  0  0  0  0  0  0  0  0  0  0
  -21.8410  -25.3587   18.3228 C   0  0  0  0  0  0  0  0  0  0  0  0
  -26.7115  -25.2511   17.9679 C   0  0  0  0  0  0  0  0  0  1  0  0
  -24.9976  -33.6824   19.9645 C   0  0  1  0  0  0  0  0  0  0  0  0
  -28.4337  -35.0478   20.8004 C   0  0  2  0  0  0  0  0  0  0  0  0
  -26.8148  -24.7589   16.4945 C   0  0  2  0  0  0  0  0  0  0  0  0
  -23.9294  -34.5820   19.2811 C   0  0  0  0  0  0  0  0  0  0  0  0
  -24.8447  -19.3268   21.5358 N   0  0  0  0  0  0  0  0  0  0  0  0
  -23.1013  -25.6523   14.4388 N   0  0  0  0  0  0  0  0  0  0  0  0
  -24.8646  -20.6599   21.3670 N   0  0  0  0  0  0  0  0  0  0  0  0
  -24.5109  -31.4882   21.0000 N   0  0  0  0  0  0  0  0  0  0  0  0
  -21.5563  -22.3934   20.5552 N   0  0  0  0  0  0  0  0  0  0  0  0
  -26.2793  -22.4699   20.7897 N   0  0  0  0  0  0  0  0  0  0  0  0
  -29.0183  -18.8873   20.5450 N   0  0  0  0  0  0  0  0  0  0  0  0
  -21.6497  -29.5749   22.2036 N   0  0  0  0  0  0  0  0  0  0  0  0
  -26.1387  -34.4143   20.5036 N   0  0  0  0  0  0  0  0  0  0  0  0
  -22.0825  -24.1176   19.0243 N   0  0  0  0  0  0  0  0  0  0  0  0
  -29.7156  -34.3196   21.0176 N   0  3  0  0  0  0  0  0  0  0  0  0
  -28.9072  -21.1657   20.3098 O   0  0  0  0  0  0  0  0  0  0  0  0
  -22.2114  -30.6777   20.2312 O   0  0  0  0  0  0  0  0  0  0  0  0
  -23.9346  -33.4753   22.0749 O   0  0  0  0  0  0  0  0  0  0  0  0
  -27.7583  -33.3050   19.2694 O   0  0  0  0  0  0  0  0  0  0  0  0
  -20.1265  -24.1879   20.2186 O   0  0  0  0  0  0  0  0  0  0  0  0
  -27.6106  -13.5910   21.5463 O   0  0  0  0  0  0  0  0  0  0  0  0
  -26.9633  -26.6529   18.0574 O   0  0  0  0  0  0  0  0  0  1  0  0
  -30.6875  -11.5808   17.4360 F   0  0  0  0  0  0  0  0  0  0  0  0
  -26.7119  -11.4807   20.0030 F   0  0  0  0  0  0  0  0  0  0  0  0
  1  2  1  0  0  0  0
  1  5  2  0  0  0  0
  2  6  2  0  0  0  0
  3  8  2  0  0  0  0
  3 17  1  0  0  0  0
  4  9  1  0  0  0  0
  4 17  2  0  0  0  0
  5 19  1  0  0  0  0
  6 21  1  0  0  0  0
  7 10  2  0  0  0  0
  7 20  1  0  0  0  0
  8 24  1  0  0  0  0
  9 24  2  0  0  0  0
 10 25  1  0  0  0  0
 11 12  2  0  0  0  0
 11 26  1  0  0  0  0
 12 27  1  0  0  0  0
 13 22  1  0  0  0  0
 13 25  2  0  0  0  0
 14 23  1  0  0  0  0
 14 30  2  0  0  0  0
 15 23  2  0  0  0  0
 15 31  1  0  0  0  0
 16 27  2  0  0  0  0
 16 28  1  0  0  0  0
 17 29  1  0  0  0  0
 18 29  1  0  0  0  0
 18 32  2  0  0  0  0
 18 33  1  0  0  0  0
 19 21  2  0  0  0  0
 19 38  1  0  0  0  0
 20 22  2  0  0  0  0
 20 39  1  0  0  0  0
 21 47  1  0  0  0  0
 22 40  1  0  0  0  0
 23 65  1  0  0  0  0
 24 83  1  0  0  0  0
 25 84  1  0  0  0  0
 26 28  2  0  0  0  0
 26 83  1  0  0  0  0
 27 85  1  0  0  0  0
 28 86  1  0  0  0  0
 29 67  2  0  0  0  0
 30 50  1  0  0  0  0
 30 68  1  0  0  0  0
 31 58  1  0  0  0  0
 31 68  2  0  0  0  0
 32 69  1  0  0  0  0
 32 72  1  0  0  0  0
 33 73  1  0  0  0  0
 33 78  2  0  0  0  0
 34 48  1  0  0  0  0
 34 74  1  0  0  0  0
 34 79  2  0  0  0  0
 35 63  1  0  0  0  0
 35 70  1  0  0  0  0
 35 80  2  0  0  0  0
 36 64  1  0  0  0  0
 36 75  1  0  0  0  0
 36 81  2  0  0  0  0
 37 71  1  0  0  0  0
 37 76  1  0  0  0  0
 37 82  2  0  0  0  0
 38 41  1  0  0  0  0
 39 48  1  0  0  0  0
 40 70  1  0  0  0  0
 41 43  1  0  0  0  0
 42 44  1  0  0  0  0
 42 45  1  0  0  0  0
 43 47  1  0  0  0  0
 44 49  1  0  0  0  0
 45 71  1  0  0  0  0
 46 49  1  0  0  0  0
 46 71  1  0  0  0  0
 47 74  1  0  0  0  0
 48 70  1  0  0  0  0
 49 69  1  0  0  0  0
 51 59  1  0  0  0  0
 52 64  1  0  0  0  0
 53 65  1  0  0  0  0
 54 66  1  0  0  0  0
 55 66  1  0  0  0  0
 56 66  1  0  0  0  0
 57 77  1  0  0  0  0
 58 60  1  0  0  0  0
 59 65  1  0  0  0  0
 60 61  1  0  0  0  0
 61 76  1  0  0  0  0
 62 65  1  0  0  0  0
 62 84  1  0  0  0  0
 63 66  1  0  0  0  0
 63 75  1  0  0  0  0
 64 77  1  0  0  0  0
 67 69  1  0  0  0  0
M  CHG  1  77   1
M  ISO  4  37 100  62 101  76 100  84 101
M  END
> <Batch ID>
0088

> <Smiles>
CCC(C)(c1cc(C)nc(CCC[100NH:0][100C:0](=O)N2CCCC(n3nc(-c4ccc(Oc5ccc(F)cc5F)cc4)c(C(N)=O)c3N)C2)c1)[101CH2:1][101O:1]c1ccc2c(c1)CN(C(=O)C(NC(=O)C(C)NC)C(C)(C)C)C(C(=O)NC1CCCc3ccccc31)C2

> <Shape>
0.190

> <Color>
0.088

> <Negative vol penalty>
0.000

$$$$

  -OEChem-04052319043D

 88 96  0     1  0  0  0  0  0999 V2000
  -18.8188  -31.3065   23.4592 C   0  0  0  0  0  0  0  0  0  0  0  0
  -20.1906  -31.1436   23.2952 C   0  0  0  0  0  0  0  0  0  0  0  0
  -25.3266  -15.3627   20.2273 C   0  0  0  0  0  0  0  0  0  0  0  0
  -27.5245  -14.9926   21.1596 C   0  0  0  0  0  0  0  0  0  0  0  0
  -17.9672  -30.2104   23.3282 C   0  0  0  0  0  0  0  0  0  0  0  0
  -20.7118  -29.8841   23.0012 C   0  0  0  0  0  0  0  0  0  0  0  0
  -25.5476  -28.6367   19.4565 C   0  0  0  0  0  0  0  0  0  0  0  0
  -25.1230  -13.9844   20.1599 C   0  0  0  0  0  0  0  0  0  0  0  0
  -27.3209  -13.6143   21.0923 C   0  0  0  0  0  0  0  0  0  0  0  0
  -26.8812  -28.3587   19.7531 C   0  0  0  0  0  0  0  0  0  0  0  0
  -23.8830  -10.5682   20.0783 C   0  0  0  0  0  0  0  0  0  0  0  0
  -22.6540  -10.0721   20.5130 C   0  0  0  0  0  0  0  0  0  0  0  0
  -26.4101  -25.9961   19.6289 C   0  0  0  0  0  0  0  0  0  0  0  0
  -29.8431  -24.1165   23.5691 C   0  0  0  0  0  0  0  0  0  0  0  0
  -23.0633  -10.9853   22.7121 C   0  0  0  0  0  0  0  0  0  0  0  0
  -26.5273  -15.8668   20.7271 C   0  0  0  0  0  0  0  0  0  0  0  0
  -26.4267  -18.1447   21.8710 C   0  0  0  0  0  0  0  0  0  0  0  0
  -18.4772  -28.9387   23.0230 C   0  0  0  0  0  0  0  0  0  0  0  0
  -24.6313  -27.5946   19.2542 C   0  0  0  0  0  0  0  0  0  0  0  0
  -19.8663  -28.7696   22.8674 C   0  0  0  0  0  0  0  0  0  0  0  0
  -25.0660  -26.2636   19.3273 C   0  0  0  0  0  0  0  0  0  0  0  0
  -30.5166  -24.4367   22.3956 C   0  0  0  0  0  0  0  0  0  0  0  0
  -30.1712  -22.9537   24.2573 C   0  0  0  0  0  0  0  0  0  0  0  0
  -26.1202  -13.1102   20.5925 C   0  0  0  0  0  0  0  0  0  0  0  0
  -27.3120  -27.0383   19.8422 C   0  0  0  0  0  0  0  0  0  0  0  0
  -24.7023  -11.2727   20.9605 C   0  0  0  0  0  0  0  0  0  0  0  0
  -22.2441  -10.2807   21.8299 C   0  0  0  0  0  0  0  0  0  0  0  0
  -24.2924  -11.4813   22.2773 C   0  0  0  0  0  0  0  0  0  0  0  0
  -26.7384  -17.2904   20.7964 C   0  0  0  0  0  0  0  0  0  0  0  0
  -31.5024  -23.5680   21.9559 C   0  0  0  0  0  0  0  0  0  0  0  0
  -31.1723  -22.1513   23.7341 C   0  0  0  0  0  0  0  0  0  0  0  0
  -26.8183  -19.3901   21.4443 C   0  0  0  0  0  0  0  0  0  0  0  0
  -25.8360  -17.8398   23.1413 C   0  0  0  0  0  0  0  0  0  0  0  0
  -21.9672  -26.6381   20.7004 C   0  0  0  0  0  0  0  0  0  0  0  0
  -21.8283  -24.5579   18.2152 C   0  0  0  0  0  0  0  0  0  0  0  0
  -23.4888  -22.8428   15.7763 C   0  0  0  0  0  0  0  0  0  0  0  0
  -30.9619  -21.9418   18.3084 C   0  0  0  0  0  0  0  0  0  0  0  0
  -17.5220  -27.7746   22.9379 C   0  0  0  0  0  0  0  0  0  0  0  0
  -23.2020  -27.9113   18.9087 C   0  0  0  0  0  0  0  0  0  0  0  0
  -24.1264  -25.1088   19.0987 C   0  0  0  0  0  0  0  0  0  0  0  0
  -18.1181  -26.5462   22.2554 C   0  0  0  0  0  0  0  0  0  0  0  0
  -27.6739  -21.4523   17.0332 C   0  0  0  0  0  0  0  0  0  0  0  0
  -19.5128  -26.2564   22.8010 C   0  0  0  0  0  0  0  0  0  0  0  0
  -27.0685  -20.4086   17.9735 C   0  0  0  0  0  0  0  0  0  0  0  0
  -29.1582  -21.1940   16.7840 C   0  0  0  0  0  0  0  0  0  0  0  0
  -29.3732  -20.0264   18.9437 C   0  0  0  0  0  0  0  0  0  0  0  0
  -20.4673  -27.4240   22.5234 C   0  0  1  0  0  0  0  0  0  0  0  0
  -22.2427  -26.7692   19.2291 C   0  0  1  0  0  0  0  0  0  0  0  0
  -27.8909  -20.2774   19.2696 C   0  0  2  0  0  0  0  0  0  0  0  0
  -27.9447  -22.4838   25.3100 C   0  0  0  0  0  0  0  0  0  0  0  0
  -33.4826  -24.7598   20.9648 C   0  0  0  0  0  0  0  0  0  0  0  0
  -23.1122  -21.1917   13.9245 C   0  0  0  0  0  0  0  0  0  0  0  0
  -30.3614  -19.9086   24.5457 C   0  0  0  0  0  0  0  0  0  0  0  0
  -32.0761  -21.1828   25.8770 C   0  0  0  0  0  0  0  0  0  0  0  0
  -32.7089  -20.0742   23.7435 C   0  0  0  0  0  0  0  0  0  0  0  0
  -21.5773  -22.3154   20.2690 C   0  0  0  0  0  0  0  0  0  0  0  0
  -22.1580  -20.6867   18.4584 C   0  0  0  0  0  0  0  0  0  0  0  0
  -20.0919  -22.0720   18.2718 C   0  0  0  0  0  0  0  0  0  0  0  0
  -24.4588  -24.7447   13.7267 C   0  0  0  0  0  0  0  0  0  0  0  0
  -29.4532  -22.6047   25.5150 C   0  0  0  0  0  0  0  0  0  0  0  0
  -30.1652  -25.6976   21.6439 C   0  0  0  0  0  0  0  0  0  0  0  0
  -32.7107  -22.5866   19.9471 C   0  0  0  0  0  0  0  0  0  0  0  0
  -28.8800  -25.5520   20.8363 C   0  0  0  0  0  0  0  0  0  1  0  0
  -32.2585  -23.8596   20.7012 C   0  0  1  0  0  0  0  0  0  0  0  0
  -22.3497  -23.1650   17.9565 C   0  0  1  0  0  0  0  0  0  0  0  0
  -23.2007  -22.6636   14.2967 C   0  0  2  0  0  0  0  0  0  0  0  0
  -31.5670  -20.8911   24.4322 C   0  0  0  0  0  0  0  0  0  0  0  0
  -21.5618  -22.0813   18.7452 C   0  0  0  0  0  0  0  0  0  0  0  0
  -27.2858  -17.9383   19.7646 N   0  0  0  0  0  0  0  0  0  0  0  0
  -31.8488  -22.4295   22.5972 N   0  0  0  0  0  0  0  0  0  0  0  0
  -27.3209  -19.2130   20.1888 N   0  0  0  0  0  0  0  0  0  0  0  0
  -22.7375  -25.4698   18.7699 N   0  0  0  0  0  0  0  0  0  0  0  0
  -29.8814  -21.0815   18.0530 N   0  0  0  0  0  0  0  0  0  0  0  0
  -26.7782  -20.6085   22.0243 N   0  0  0  0  0  0  0  0  0  0  0  0
  -25.4941  -16.5088   23.4169 N   0  0  0  0  0  0  0  0  0  0  0  0
  -20.9048  -27.4023   21.1441 N   0  0  0  0  0  0  0  0  0  0  0  0
  -22.3293  -22.9838   16.5090 N   0  0  0  0  0  0  0  0  0  0  0  0
  -31.5881  -21.7726   19.5373 N   0  0  0  0  0  0  0  0  0  0  0  0
  -24.2775  -23.2911   13.4796 N   0  3  0  0  0  0  0  0  0  0  0  0
  -25.6027  -18.7240   24.0000 O   0  0  0  0  0  0  0  0  0  0  0  0
  -22.6657  -25.8972   21.3822 O   0  0  0  0  0  0  0  0  0  0  0  0
  -20.6595  -24.8290   17.9288 O   0  0  0  0  0  0  0  0  0  0  0  0
  -24.6284  -22.8528   16.2366 O   0  0  0  0  0  0  0  0  0  0  0  0
  -31.3373  -22.8008   17.5034 O   0  0  0  0  0  0  0  0  0  0  0  0
  -25.9218  -11.7652   20.5271 O   0  0  0  0  0  0  0  0  0  0  0  0
  -28.6130  -26.7642   20.1322 O   0  0  0  0  0  0  0  0  0  1  0  0
  -21.0632   -9.8056   22.2468 F   0  0  0  0  0  0  0  0  0  0  0  0
  -25.0746  -12.1584   23.1291 F   0  0  0  0  0  0  0  0  0  0  0  0
  1  2  1  0  0  0  0
  1  5  2  0  0  0  0
  2  6  2  0  0  0  0
  3  8  2  0  0  0  0
  3 16  1  0  0  0  0
  4  9  1  0  0  0  0
  4 16  2  0  0  0  0
  5 18  1  0  0  0  0
  6 20  1  0  0  0  0
  7 10  2  0  0  0  0
  7 19  1  0  0  0  0
  8 24  1  0  0  0  0
  9 24  2  0  0  0  0
 10 25  1  0  0  0  0
 11 12  2  0  0  0  0
 11 26  1  0  0  0  0
 12 27  1  0  0  0  0
 13 21  1  0  0  0  0
 13 25  2  0  0  0  0
 14 22  2  0  0  0  0
 14 23  1  0  0  0  0
 15 27  2  0  0  0  0
 15 28  1  0  0  0  0
 16 29  1  0  0  0  0
 17 29  1  0  0  0  0
 17 32  2  0  0  0  0
 17 33  1  0  0  0  0
 18 20  2  0  0  0  0
 18 38  1  0  0  0  0
 19 21  2  0  0  0  0
 19 39  1  0  0  0  0
 20 47  1  0  0  0  0
 21 40  1  0  0  0  0
 22 30  1  0  0  0  0
 22 61  1  0  0  0  0
 23 31  2  0  0  0  0
 23 60  1  0  0  0  0
 24 85  1  0  0  0  0
 25 86  1  0  0  0  0
 26 28  2  0  0  0  0
 26 85  1  0  0  0  0
 27 87  1  0  0  0  0
 28 88  1  0  0  0  0
 29 69  2  0  0  0  0
 30 64  1  0  0  0  0
 30 70  2  0  0  0  0
 31 67  1  0  0  0  0
 31 70  1  0  0  0  0
 32 71  1  0  0  0  0
 32 74  1  0  0  0  0
 33 75  1  0  0  0  0
 33 80  2  0  0  0  0
 34 48  1  0  0  0  0
 34 76  1  0  0  0  0
 34 81  2  0  0  0  0
 35 65  1  0  0  0  0
 35 72  1  0  0  0  0
 35 82  2  0  0  0  0
 36 66  1  0  0  0  0
 36 77  1  0  0  0  0
 36 83  2  0  0  0  0
 37 73  1  0  0  0  0
 37 78  1  0  0  0  0
 37 84  2  0  0  0  0
 38 41  1  0  0  0  0
 39 48  1  0  0  0  0
 40 72  1  0  0  0  0
 41 43  1  0  0  0  0
 42 44  1  0  0  0  0
 42 45  1  0  0  0  0
 43 47  1  0  0  0  0
 44 49  1  0  0  0  0
 45 73  1  0  0  0  0
 46 49  1  0  0  0  0
 46 73  1  0  0  0  0
 47 76  1  0  0  0  0
 48 72  1  0  0  0  0
 49 71  1  0  0  0  0
 50 60  1  0  0  0  0
 51 64  1  0  0  0  0
 52 66  1  0  0  0  0
 53 67  1  0  0  0  0
 54 67  1  0  0  0  0
 55 67  1  0  0  0  0
 56 68  1  0  0  0  0
 57 68  1  0  0  0  0
 58 68  1  0  0  0  0
 59 79  1  0  0  0  0
 61 63  1  0  0  0  0
 62 64  1  0  0  0  0
 62 78  1  0  0  0  0
 63 86  1  0  0  0  0
 65 68  1  0  0  0  0
 65 77  1  0  0  0  0
 66 79  1  0  0  0  0
 69 71  1  0  0  0  0
M  CHG  1  79   1
M  ISO  4  37 100  63 101  78 100  86 101
M  END
> <Batch ID>
0088

> <Smiles>
CCc1cc(C[101CH2:1][101O:1]c2ccc3c(c2)CN(C(=O)C(NC(=O)C(C)NC)C(C)(C)C)C(C(=O)NC2CCCc4ccccc42)C3)c(C(C)C[100NH:0][100C:0](=O)N2CCCC(n3nc(-c4ccc(Oc5ccc(F)cc5F)cc4)c(C(N)=O)c3N)C2)nc1C(C)(C)C

> <Shape>
0.193

> <Color>
0.059

> <Negative vol penalty>
0.000

$$$$

  -OEChem-04052319043D

 85 93  0     1  0  0  0  0  0999 V2000
  -22.4293   -9.1731   19.0356 C   0  0  0  0  0  0  0  0  0  0  0  0
  -22.1116  -10.4701   18.6456 C   0  0  0  0  0  0  0  0  0  0  0  0
  -26.3690  -28.3941   18.8815 C   0  0  0  0  0  0  0  0  0  0  0  0
  -26.5237  -28.4365   21.2922 C   0  0  0  0  0  0  0  0  0  0  0  0
  -23.4177   -8.9572   19.9949 C   0  0  0  0  0  0  0  0  0  0  0  0
  -22.7815  -11.5522   19.2156 C   0  0  0  0  0  0  0  0  0  0  0  0
  -25.1168  -18.1361   17.6298 C   0  0  0  0  0  0  0  0  0  0  0  0
  -25.1670  -29.0987   18.9462 C   0  0  0  0  0  0  0  0  0  0  0  0
  -25.3216  -29.1411   21.3569 C   0  0  0  0  0  0  0  0  0  0  0  0
  -25.0522  -19.4453   18.1048 C   0  0  0  0  0  0  0  0  0  0  0  0
  -22.0181  -28.4577   21.1327 C   0  0  0  0  0  0  0  0  0  0  0  0
  -21.0753  -28.0457   22.0745 C   0  0  0  0  0  0  0  0  0  0  0  0
  -26.7969  -18.9480   19.6948 C   0  0  0  0  0  0  0  0  0  0  0  0
  -21.1664  -30.2228   23.1181 C   0  0  0  0  0  0  0  0  0  0  0  0
  -26.9700  -22.5436   24.9605 C   0  0  0  0  0  0  0  0  0  0  0  0
  -27.0474  -28.0629   20.0545 C   0  0  0  0  0  0  0  0  0  0  0  0
  -29.5863  -27.8729   19.8958 C   0  0  0  0  0  0  0  0  0  0  0  0
  -24.1068  -10.0366   20.5699 C   0  0  0  0  0  0  0  0  0  0  0  0
  -26.0158  -17.2185   18.1920 C   0  0  0  0  0  0  0  0  0  0  0  0
  -23.7792  -11.3506   20.1844 C   0  0  0  0  0  0  0  0  0  0  0  0
  -26.8727  -17.6285   19.2234 C   0  0  0  0  0  0  0  0  0  0  0  0
  -25.7188  -21.9800   24.9022 C   0  0  0  0  0  0  0  0  0  0  0  0
  -24.6433  -29.4722   20.1839 C   0  0  0  0  0  0  0  0  0  0  0  0
  -25.8903  -19.8507   19.1394 C   0  0  0  0  0  0  0  0  0  0  0  0
  -22.5351  -29.7522   21.1836 C   0  0  0  0  0  0  0  0  0  0  0  0
  -20.6494  -28.9282   23.0672 C   0  0  0  0  0  0  0  0  0  0  0  0
  -22.1092  -30.6348   22.1763 C   0  0  0  0  0  0  0  0  0  0  0  0
  -28.2888  -27.3346   19.9883 C   0  0  0  0  0  0  0  0  0  0  0  0
  -25.9248  -20.6298   25.2434 C   0  0  0  0  0  0  0  0  0  0  0  0
  -30.4118  -26.7756   19.8630 C   0  0  0  0  0  0  0  0  0  0  0  0
  -30.0078  -29.2424   19.8443 C   0  0  0  0  0  0  0  0  0  0  0  0
  -25.7280  -14.4586   19.7425 C   0  0  0  0  0  0  0  0  0  0  0  0
  -28.9635  -14.4389   19.5122 C   0  0  0  0  0  0  0  0  0  0  0  0
  -31.8528  -16.2177   19.1451 C   0  0  0  0  0  0  0  0  0  0  0  0
  -29.8116  -21.1609   21.8544 C   0  0  0  0  0  0  0  0  0  0  0  0
  -25.1346   -9.7560   21.6374 C   0  0  0  0  0  0  0  0  0  0  0  0
  -26.0918  -15.8174   17.6503 C   0  0  0  0  0  0  0  0  0  0  0  0
  -27.8697  -16.6876   19.8473 C   0  0  0  0  0  0  0  0  0  0  0  0
  -26.0585  -10.9380   21.9192 C   0  0  0  0  0  0  0  0  0  0  0  0
  -30.4878  -22.1863   18.5126 C   0  0  0  0  0  0  0  0  0  0  0  0
  -25.2515  -12.2249   22.0589 C   0  0  0  0  0  0  0  0  0  0  0  0
  -30.1180  -23.6706   18.5035 C   0  0  0  0  0  0  0  0  0  0  0  0
  -29.5466  -21.3756   19.4008 C   0  0  0  0  0  0  0  0  0  0  0  0
  -29.0443  -23.3603   20.7728 C   0  0  0  0  0  0  0  0  0  0  0  0
  -24.5009  -12.5490   20.7616 C   0  0  1  0  0  0  0  0  0  0  0  0
  -26.6859  -14.8239   18.6441 C   0  0  1  0  0  0  0  0  0  0  0  0
  -29.9993  -24.2277   19.9349 C   0  0  2  0  0  0  0  0  0  0  0  0
  -24.9177  -19.5585   25.3383 C   0  0  0  0  0  0  0  0  0  0  0  0
  -24.0820  -23.7549   25.5798 C   0  0  0  0  0  0  0  0  0  0  0  0
  -34.3430  -15.9289   19.0319 C   0  0  0  0  0  0  0  0  0  0  0  0
  -29.0513  -14.0323   22.5349 C   0  0  0  0  0  0  0  0  0  0  0  0
  -31.4646  -14.6968   22.4842 C   0  0  0  0  0  0  0  0  0  0  0  0
  -30.7057  -12.6661   21.2501 C   0  0  0  0  0  0  0  0  0  0  0  0
  -31.9747  -17.3368   16.4080 C   0  0  0  0  0  0  0  0  0  0  0  0
  -24.5543  -22.2030   22.0282 C   0  0  0  0  0  0  0  0  0  0  0  0
  -24.4518  -22.8285   20.6330 C   0  0  0  0  0  0  0  0  0  0  0  0
  -24.4095  -23.2672   23.1236 C   0  0  0  0  0  0  0  0  0  0  0  0
  -29.2433  -21.6428   25.5080 C   0  0  0  0  0  0  0  0  0  0  0  0
  -30.0438  -21.1052   24.3246 C   0  0  0  0  0  0  0  0  0  0  0  0
  -24.5666  -21.7884   19.5252 C   0  0  0  0  0  0  0  0  0  1  0  0
  -24.4132  -22.6704   24.5472 C   0  0  1  0  0  0  0  0  0  0  0  0
  -30.0990  -14.9545   20.3629 C   0  0  1  0  0  0  0  0  0  0  0  0
  -33.0509  -16.0164   18.2348 C   0  0  2  0  0  0  0  0  0  0  0  0
  -30.3101  -14.1049   21.6478 C   0  0  0  0  0  0  0  0  0  0  0  0
  -28.2852  -25.9992   20.0125 N   0  0  0  0  0  0  0  0  0  0  0  0
  -27.2060  -20.3524   25.4993 N   0  0  0  0  0  0  0  0  0  0  0  0
  -27.8164  -21.5360   25.3187 N   0  0  0  0  0  0  0  0  0  0  0  0
  -29.5905  -25.6891   19.9347 N   0  0  0  0  0  0  0  0  0  0  0  0
  -27.9016  -15.3264   19.2873 N   0  0  0  0  0  0  0  0  0  0  0  0
  -29.4801  -21.9553   20.7445 N   0  0  0  0  0  0  0  0  0  0  0  0
  -31.7527  -26.6438   19.7800 N   0  0  0  0  0  0  0  0  0  0  0  0
  -29.0292  -30.2447   19.8887 N   0  0  0  0  0  0  0  0  0  0  0  0
  -25.4042  -13.1159   19.7832 N   0  0  0  0  0  0  0  0  0  0  0  0
  -31.2665  -15.0184   19.4903 N   0  0  0  0  0  0  0  0  0  0  0  0
  -29.7282  -21.7897   23.0907 N   0  0  0  0  0  0  0  0  0  0  0  0
  -33.1674  -17.1494   17.2737 N   0  3  0  0  0  0  0  0  0  0  0  0
  -31.2153  -29.5673   19.7448 O   0  0  0  0  0  0  0  0  0  0  0  0
  -25.3144  -15.3302   20.4982 O   0  0  0  0  0  0  0  0  0  0  0  0
  -29.0201  -13.2935   19.0578 O   0  0  0  0  0  0  0  0  0  0  0  0
  -31.4771  -17.3276   19.5160 O   0  0  0  0  0  0  0  0  0  0  0  0
  -30.1615  -19.9803   21.7508 O   0  0  0  0  0  0  0  0  0  0  0  0
  -23.4705  -30.1600   20.2474 O   0  0  0  0  0  0  0  0  0  0  0  0
  -25.8289  -21.1277   19.6054 O   0  0  0  0  0  0  0  0  0  1  0  0
  -19.7429  -28.5329   23.9706 F   0  0  0  0  0  0  0  0  0  0  0  0
  -22.6014  -31.8800   22.2296 F   0  0  0  0  0  0  0  0  0  0  0  0
  1  2  1  0  0  0  0
  1  5  2  0  0  0  0
  2  6  2  0  0  0  0
  3  8  2  0  0  0  0
  3 16  1  0  0  0  0
  4  9  1  0  0  0  0
  4 16  2  0  0  0  0
  5 18  1  0  0  0  0
  6 20  1  0  0  0  0
  7 10  2  0  0  0  0
  7 19  1  0  0  0  0
  8 23  1  0  0  0  0
  9 23  2  0  0  0  0
 10 24  1  0  0  0  0
 11 12  2  0  0  0  0
 11 25  1  0  0  0  0
 12 26  1  0  0  0  0
 13 21  1  0  0  0  0
 13 24  2  0  0  0  0
 14 26  2  0  0  0  0
 14 27  1  0  0  0  0
 15 22  2  0  0  0  0
 15 67  1  0  0  0  0
 16 28  1  0  0  0  0
 17 28  1  0  0  0  0
 17 30  2  0  0  0  0
 17 31  1  0  0  0  0
 18 20  2  0  0  0  0
 18 36  1  0  0  0  0
 19 21  2  0  0  0  0
 19 37  1  0  0  0  0
 20 45  1  0  0  0  0
 21 38  1  0  0  0  0
 22 29  1  0  0  0  0
 22 61  1  0  0  0  0
 23 82  1  0  0  0  0
 24 83  1  0  0  0  0
 25 27  2  0  0  0  0
 25 82  1  0  0  0  0
 26 84  1  0  0  0  0
 27 85  1  0  0  0  0
 28 65  2  0  0  0  0
 29 48  1  0  0  0  0
 29 66  2  0  0  0  0
 30 68  1  0  0  0  0
 30 71  1  0  0  0  0
 31 72  1  0  0  0  0
 31 77  2  0  0  0  0
 32 46  1  0  0  0  0
 32 73  1  0  0  0  0
 32 78  2  0  0  0  0
 33 62  1  0  0  0  0
 33 69  1  0  0  0  0
 33 79  2  0  0  0  0
 34 63  1  0  0  0  0
 34 74  1  0  0  0  0
 34 80  2  0  0  0  0
 35 70  1  0  0  0  0
 35 75  1  0  0  0  0
 35 81  2  0  0  0  0
 36 39  1  0  0  0  0
 37 46  1  0  0  0  0
 38 69  1  0  0  0  0
 39 41  1  0  0  0  0
 40 42  1  0  0  0  0
 40 43  1  0  0  0  0
 41 45  1  0  0  0  0
 42 47  1  0  0  0  0
 43 70  1  0  0  0  0
 44 47  1  0  0  0  0
 44 70  1  0  0  0  0
 45 73  1  0  0  0  0
 46 69  1  0  0  0  0
 47 68  1  0  0  0  0
 49 61  1  0  0  0  0
 50 63  1  0  0  0  0
 51 64  1  0  0  0  0
 52 64  1  0  0  0  0
 53 64  1  0  0  0  0
 54 76  1  0  0  0  0
 55 56  1  0  0  0  0
 55 57  1  0  0  0  0
 56 60  1  0  0  0  0
 57 61  1  0  0  0  0
 58 59  1  0  0  0  0
 58 67  1  0  0  0  0
 59 75  1  0  0  0  0
 60 83  1  0  0  0  0
 62 64  1  0  0  0  0
 62 74  1  0  0  0  0
 63 76  1  0  0  0  0
 65 68  1  0  0  0  0
 66 67  1  0  0  0  0
M  CHG  1  76   1
M  ISO  4  35 100  60 101  75 100  83 101
M  END
> <Batch ID>
0088

> <Smiles>
CNC(C)C(=O)NC(C(=O)N1Cc2cc([101O:1][101CH2:1]CCCC(C)c3cn(CC[100NH:0][100C:0](=O)N4CCCC(n5nc(-c6ccc(Oc7ccc(F)cc7F)cc6)c(C(N)=O)c5N)C4)nc3C)ccc2CC1C(=O)NC1CCCc2ccccc21)C(C)(C)C

> <Shape>
0.250

> <Color>
0.049

> <Negative vol penalty>
0.000

$$$$

  -OEChem-04052319043D

 84 92  0     1  0  0  0  0  0999 V2000
  -26.5472  -16.6441   15.4786 C   0  0  0  0  0  0  0  0  0  0  0  0
  -27.2305  -16.3346   16.6502 C   0  0  0  0  0  0  0  0  0  0  0  0
  -23.3676   -9.6930   20.9914 C   0  0  0  0  0  0  0  0  0  0  0  0
  -24.1766  -10.4198   23.1488 C   0  0  0  0  0  0  0  0  0  0  0  0
  -26.5288  -17.9570   15.0097 C   0  0  0  0  0  0  0  0  0  0  0  0
  -27.8969  -17.3378   17.3530 C   0  0  0  0  0  0  0  0  0  0  0  0
  -28.5352  -17.7749   23.4282 C   0  0  0  0  0  0  0  0  0  0  0  0
  -22.7529   -8.5943   21.5920 C   0  0  0  0  0  0  0  0  0  0  0  0
  -23.5619   -9.3211   23.7494 C   0  0  0  0  0  0  0  0  0  0  0  0
  -29.5779  -17.4344   24.2887 C   0  0  0  0  0  0  0  0  0  0  0  0
  -24.1813   -6.0191   24.1288 C   0  0  0  0  0  0  0  0  0  0  0  0
  -24.9162   -5.3008   25.0719 C   0  0  0  0  0  0  0  0  0  0  0  0
  -30.3672  -19.7130   24.2244 C   0  0  0  0  0  0  0  0  0  0  0  0
  -23.2467   -5.7927   26.7476 C   0  0  0  0  0  0  0  0  0  0  0  0
  -32.8630  -17.8792   21.6235 C   0  0  0  0  0  0  0  0  0  0  0  0
  -24.0794  -10.6058   21.7698 C   0  0  0  0  0  0  0  0  0  0  0  0
  -24.1556  -13.0137   20.9310 C   0  0  0  0  0  0  0  0  0  0  0  0
  -27.1872  -18.9785   15.7123 C   0  0  0  0  0  0  0  0  0  0  0  0
  -28.4067  -19.0869   22.9499 C   0  0  0  0  0  0  0  0  0  0  0  0
  -27.8885  -18.6654   16.8923 C   0  0  0  0  0  0  0  0  0  0  0  0
  -29.3204  -20.0682   23.3600 C   0  0  0  0  0  0  0  0  0  0  0  0
  -22.8501   -8.4084   22.9710 C   0  0  0  0  0  0  0  0  0  0  0  0
  -30.4958  -18.4028   24.6846 C   0  0  0  0  0  0  0  0  0  0  0  0
  -22.9791   -6.6244   24.4951 C   0  0  0  0  0  0  0  0  0  0  0  0
  -24.4490   -5.1875   26.3813 C   0  0  0  0  0  0  0  0  0  0  0  0
  -22.5118   -6.5111   25.8044 C   0  0  0  0  0  0  0  0  0  0  0  0
  -24.7151  -11.7406   21.1499 C   0  0  0  0  0  0  0  0  0  0  0  0
  -33.0952  -17.0363   20.5735 C   0  0  0  0  0  0  0  0  0  0  0  0
  -25.1556  -13.7272   20.3166 C   0  0  0  0  0  0  0  0  0  0  0  0
  -34.8082  -16.8800   21.9670 C   0  0  0  0  0  0  0  0  0  0  0  0
  -22.8488  -13.5073   21.2543 C   0  0  0  0  0  0  0  0  0  0  0  0
  -28.4804  -20.4441   20.0765 C   0  0  0  0  0  0  0  0  0  0  0  0
  -27.6457  -23.1011   21.7396 C   0  0  0  0  0  0  0  0  0  0  0  0
  -27.6162  -24.7633   24.7201 C   0  0  0  0  0  0  0  0  0  0  0  0
  -30.3857  -15.3127   20.0367 C   0  0  0  0  0  0  0  0  0  0  0  0
  -27.1789  -20.3743   15.1410 C   0  0  0  0  0  0  0  0  0  0  0  0
  -27.2608  -19.4442   22.0434 C   0  0  0  0  0  0  0  0  0  0  0  0
  -29.2149  -21.4956   22.8910 C   0  0  0  0  0  0  0  0  0  0  0  0
  -27.5960  -21.4458   16.1451 C   0  0  0  0  0  0  0  0  0  0  0  0
  -29.5698  -12.2059   18.3695 C   0  0  0  0  0  0  0  0  0  0  0  0
  -28.8520  -21.0143   16.8955 C   0  0  0  0  0  0  0  0  0  0  0  0
  -28.1776  -11.9149   18.9328 C   0  0  0  0  0  0  0  0  0  0  0  0
  -30.4785  -12.8193   19.4307 C   0  0  0  0  0  0  0  0  0  0  0  0
  -28.5449  -13.7637   20.6319 C   0  0  0  0  0  0  0  0  0  0  0  0
  -28.6026  -19.7304   17.6960 C   0  0  1  0  0  0  0  0  0  0  0  0
  -27.5258  -20.6940   21.2096 C   0  0  1  0  0  0  0  0  0  0  0  0
  -27.5716  -13.1630   19.6014 C   0  0  2  0  0  0  0  0  0  0  0  0
  -37.3500  -14.6317   23.8081 C   0  0  0  0  0  0  0  0  0  0  0  0
  -26.8987  -26.9319   25.7592 C   0  0  0  0  0  0  0  0  0  0  0  0
  -32.3668  -15.8889   26.0378 C   0  0  0  0  0  0  0  0  0  0  0  0
  -30.0288  -24.5044   20.4506 C   0  0  0  0  0  0  0  0  0  0  0  0
  -29.8332  -26.2888   22.1959 C   0  0  0  0  0  0  0  0  0  0  0  0
  -27.9557  -25.8951   20.6013 C   0  0  0  0  0  0  0  0  0  0  0  0
  -25.7763  -23.3926   26.5895 C   0  0  0  0  0  0  0  0  0  0  0  0
  -32.3044  -16.7408   19.3761 C   0  0  0  0  0  0  0  0  0  0  0  0
  -36.1005  -16.4610   22.5647 C   0  0  0  0  0  0  0  0  0  0  0  0
  -36.0162  -15.0749   23.2280 C   0  0  0  0  0  0  0  0  0  0  0  0
  -33.8392  -17.6614   25.0158 C   0  0  0  0  0  0  0  0  0  0  0  0
  -34.1073  -18.5134   23.7668 C   0  0  0  0  0  0  0  0  0  0  0  0
  -28.4006  -24.2097   22.4326 C   0  0  1  0  0  0  0  0  0  0  0  0
  -26.5071  -25.4943   25.4548 C   0  0  2  0  0  0  0  0  0  0  0  0
  -32.4257  -17.0694   25.0768 C   0  0  2  0  0  0  0  0  0  1  0  0
  -29.0580  -25.1972   21.4276 C   0  0  0  0  0  0  0  0  0  0  0  0
  -25.9728  -11.6475   20.7101 N   0  0  0  0  0  0  0  0  0  0  0  0
  -33.9385  -17.7618   22.4705 N   0  0  0  0  0  0  0  0  0  0  0  0
  -26.2119  -12.8712   20.2087 N   0  0  0  0  0  0  0  0  0  0  0  0
  -34.3057  -16.4314   20.8122 N   0  3  0  0  0  0  0  0  0  0  0  0
  -28.0808  -21.7941   22.0008 N   0  0  0  0  0  0  0  0  0  0  0  0
  -29.8515  -14.0136   20.0143 N   0  0  0  0  0  0  0  0  0  0  0  0
  -25.2255  -14.9969   19.8634 N   0  0  0  0  0  0  0  0  0  0  0  0
  -21.9445  -12.6415   21.8842 N   0  0  0  0  0  0  0  0  0  0  0  0
  -27.8707  -20.0254   18.9092 N   0  0  0  0  0  0  0  0  0  0  0  0
  -27.4558  -24.8339   23.3524 N   0  0  0  0  0  0  0  0  0  0  0  0
  -31.6300  -15.4631   19.4368 N   0  0  0  0  0  0  0  0  0  0  0  0
  -26.1987  -24.8087   26.7416 N   0  3  0  0  0  0  0  0  0  0  0  0
  -22.4881  -14.6764   20.9774 O   0  0  0  0  0  0  0  0  0  0  0  0
  -29.6810  -20.6197   20.2480 O   0  0  0  0  0  0  0  0  0  0  0  0
  -26.7002  -23.3840   20.9997 O   0  0  0  0  0  0  0  0  0  0  0  0
  -28.5352  -24.1903   25.3012 O   0  0  0  0  0  0  0  0  0  0  0  0
  -29.7949  -16.2696   20.5489 O   0  0  0  0  0  0  0  0  0  0  0  0
  -22.2503   -7.3365   23.5574 O   0  0  0  0  0  0  0  0  0  0  0  0
  -31.5149  -18.0729   25.5240 O   0  0  0  0  0  0  0  0  0  1  0  0
  -25.1540   -4.4964   27.2864 F   0  0  0  0  0  0  0  0  0  0  0  0
  -21.3570   -7.0894   26.1620 F   0  0  0  0  0  0  0  0  0  0  0  0
  1  2  1  0  0  0  0
  1  5  2  0  0  0  0
  2  6  2  0  0  0  0
  3  8  2  0  0  0  0
  3 16  1  0  0  0  0
  4  9  1  0  0  0  0
  4 16  2  0  0  0  0
  5 18  1  0  0  0  0
  6 20  1  0  0  0  0
  7 10  2  0  0  0  0
  7 19  1  0  0  0  0
  8 22  1  0  0  0  0
  9 22  2  0  0  0  0
 10 23  1  0  0  0  0
 11 12  2  0  0  0  0
 11 24  1  0  0  0  0
 12 25  1  0  0  0  0
 13 21  1  0  0  0  0
 13 23  2  0  0  0  0
 14 25  2  0  0  0  0
 14 26  1  0  0  0  0
 15 28  2  0  0  0  0
 15 65  1  0  0  0  0
 16 27  1  0  0  0  0
 17 27  1  0  0  0  0
 17 29  2  0  0  0  0
 17 31  1  0  0  0  0
 18 20  2  0  0  0  0
 18 36  1  0  0  0  0
 19 21  2  0  0  0  0
 19 37  1  0  0  0  0
 20 45  1  0  0  0  0
 21 38  1  0  0  0  0
 22 81  1  0  0  0  0
 23 82  1  0  0  0  0
 24 26  2  0  0  0  0
 24 81  1  0  0  0  0
 25 83  1  0  0  0  0
 26 84  1  0  0  0  0
 27 64  2  0  0  0  0
 28 55  1  0  0  0  0
 28 67  1  0  0  0  0
 29 66  1  0  0  0  0
 29 70  1  0  0  0  0
 30 56  1  0  0  0  0
 30 65  1  0  0  0  0
 30 67  2  0  0  0  0
 31 71  1  0  0  0  0
 31 76  2  0  0  0  0
 32 46  1  0  0  0  0
 32 72  1  0  0  0  0
 32 77  2  0  0  0  0
 33 60  1  0  0  0  0
 33 68  1  0  0  0  0
 33 78  2  0  0  0  0
 34 61  1  0  0  0  0
 34 73  1  0  0  0  0
 34 79  2  0  0  0  0
 35 69  1  0  0  0  0
 35 74  1  0  0  0  0
 35 80  2  0  0  0  0
 36 39  1  0  0  0  0
 37 46  1  0  0  0  0
 38 68  1  0  0  0  0
 39 41  1  0  0  0  0
 40 42  1  0  0  0  0
 40 43  1  0  0  0  0
 41 45  1  0  0  0  0
 42 47  1  0  0  0  0
 43 69  1  0  0  0  0
 44 47  1  0  0  0  0
 44 69  1  0  0  0  0
 45 72  1  0  0  0  0
 46 68  1  0  0  0  0
 47 66  1  0  0  0  0
 48 57  1  0  0  0  0
 49 61  1  0  0  0  0
 50 62  1  0  0  0  0
 51 63  1  0  0  0  0
 52 63  1  0  0  0  0
 53 63  1  0  0  0  0
 54 75  1  0  0  0  0
 55 74  1  0  0  0  0
 56 57  1  0  0  0  0
 58 59  1  0  0  0  0
 58 62  1  0  0  0  0
 59 65  1  0  0  0  0
 60 63  1  0  0  0  0
 60 73  1  0  0  0  0
 61 75  1  0  0  0  0
 62 82  1  0  0  0  0
 64 66  1  0  0  0  0
M  CHG  2  67   1  75   1
M  ISO  4  35 100  62 101  74 100  82 101
M  END
> <Batch ID>
0088

> <Smiles>
CCCc1nc(C[100NH:0][100C:0](=O)N2CCCC(n3nc(-c4ccc(Oc5ccc(F)cc5F)cc4)c(C(N)=O)c3N)C2)cn1CC[101CH:1](C)[101O:1]c1ccc2c(c1)CN(C(=O)C(NC(=O)C(C)NC)C(C)(C)C)C(C(=O)NC1CCCc3ccccc31)C2

> <Shape>
0.178

> <Color>
0.145

> <Negative vol penalty>
0.000

$$$$

  -OEChem-04052319043D

 91 99  0     1  0  0  0  0  0999 V2000
  -23.8781  -29.5683   16.1065 C   0  0  0  0  0  0  0  0  0  0  0  0
  -24.4689  -28.3088   16.1044 C   0  0  0  0  0  0  0  0  0  0  0  0
  -23.1752   -9.7332   20.0512 C   0  0  0  0  0  0  0  0  0  0  0  0
  -23.8552   -9.9519   22.3592 C   0  0  0  0  0  0  0  0  0  0  0  0
  -24.3401  -30.5522   16.9797 C   0  0  0  0  0  0  0  0  0  0  0  0
  -25.5229  -28.0328   16.9747 C   0  0  0  0  0  0  0  0  0  0  0  0
  -25.0263  -23.5439   19.2654 C   0  0  0  0  0  0  0  0  0  0  0  0
  -22.4700   -8.5725   20.3689 C   0  0  0  0  0  0  0  0  0  0  0  0
  -23.1500   -8.7912   22.6769 C   0  0  0  0  0  0  0  0  0  0  0  0
  -25.3526  -22.4103   18.5223 C   0  0  0  0  0  0  0  0  0  0  0  0
  -19.9377   -7.9059   23.2407 C   0  0  0  0  0  0  0  0  0  0  0  0
  -19.1433   -7.9253   24.3870 C   0  0  0  0  0  0  0  0  0  0  0  0
  -27.4992  -22.3167   19.6189 C   0  0  0  0  0  0  0  0  0  0  0  0
  -30.2765  -17.0683   17.0364 C   0  0  0  0  0  0  0  0  0  0  0  0
  -20.4354   -6.1061   25.3133 C   0  0  0  0  0  0  0  0  0  0  0  0
  -23.8679  -10.4229   21.0463 C   0  0  0  0  0  0  0  0  0  0  0  0
  -24.1121  -12.9433   20.7365 C   0  0  0  0  0  0  0  0  0  0  0  0
  -25.3939  -30.2852   17.8679 C   0  0  0  0  0  0  0  0  0  0  0  0
  -25.9398  -24.0797   20.1845 C   0  0  0  0  0  0  0  0  0  0  0  0
  -26.0003  -29.0146   17.8596 C   0  0  0  0  0  0  0  0  0  0  0  0
  -27.1811  -23.4557   20.3743 C   0  0  0  0  0  0  0  0  0  0  0  0
  -31.6261  -17.2002   16.7094 C   0  0  0  0  0  0  0  0  0  0  0  0
  -29.8304  -17.4175   18.3110 C   0  0  0  0  0  0  0  0  0  0  0  0
  -32.0834  -18.0303   18.9318 C   0  0  0  0  0  0  0  0  0  0  0  0
  -32.5295  -17.6812   17.6571 C   0  0  0  0  0  0  0  0  0  0  0  0
  -30.7338  -17.8985   19.2587 C   0  0  0  0  0  0  0  0  0  0  0  0
  -22.4574   -8.1014   21.6817 C   0  0  0  0  0  0  0  0  0  0  0  0
  -26.5904  -21.7982   18.6969 C   0  0  0  0  0  0  0  0  0  0  0  0
  -20.9809   -6.9865   23.1306 C   0  0  0  0  0  0  0  0  0  0  0  0
  -19.3921   -7.0255   25.4233 C   0  0  0  0  0  0  0  0  0  0  0  0
  -21.2298   -6.0867   24.1669 C   0  0  0  0  0  0  0  0  0  0  0  0
  -24.5970  -11.6218   20.7186 C   0  0  0  0  0  0  0  0  0  0  0  0
  -25.1851  -13.7080   20.3488 C   0  0  0  0  0  0  0  0  0  0  0  0
  -22.8083  -13.4356   21.0735 C   0  0  0  0  0  0  0  0  0  0  0  0
  -27.4675  -26.8523   20.4720 C   0  0  0  0  0  0  0  0  0  0  0  0
  -28.4331  -25.5823   23.2964 C   0  0  0  0  0  0  0  0  0  0  0  0
  -29.0200  -22.7890   25.1671 C   0  0  0  0  0  0  0  0  0  0  0  0
  -30.6139  -14.9717   20.6253 C   0  0  0  0  0  0  0  0  0  0  0  0
  -25.8902  -31.3953   18.7601 C   0  0  0  0  0  0  0  0  0  0  0  0
  -25.5621  -25.2874   20.9977 C   0  0  0  0  0  0  0  0  0  0  0  0
  -28.1891  -23.9797   21.3631 C   0  0  0  0  0  0  0  0  0  0  0  0
  -26.7638  -30.9061   19.9124 C   0  0  0  0  0  0  0  0  0  0  0  0
  -29.6553  -12.3615   18.4016 C   0  0  0  0  0  0  0  0  0  0  0  0
  -27.8020  -29.9084   19.4089 C   0  0  0  0  0  0  0  0  0  0  0  0
  -28.2168  -12.0414   18.8118 C   0  0  0  0  0  0  0  0  0  0  0  0
  -30.5211  -12.7144   19.6090 C   0  0  0  0  0  0  0  0  0  0  0  0
  -28.5452  -13.4699   20.8735 C   0  0  0  0  0  0  0  0  0  0  0  0
  -27.1295  -28.6692   18.8061 C   0  0  1  0  0  0  0  0  0  0  0  0
  -26.7707  -26.0488   21.5334 C   0  0  1  0  0  0  0  0  0  0  0  0
  -27.6198  -13.1624   19.6838 C   0  0  2  0  0  0  0  0  0  0  0  0
  -33.0527  -18.5464   19.9483 C   0  0  0  0  0  0  0  0  0  0  0  0
  -34.7029  -16.4806   17.3084 C   0  0  0  0  0  0  0  0  0  0  0  0
  -29.8418  -22.0676   27.4259 C   0  0  0  0  0  0  0  0  0  0  0  0
  -31.3007  -26.1770   22.4403 C   0  0  0  0  0  0  0  0  0  0  0  0
  -32.0860  -24.6178   24.2349 C   0  0  0  0  0  0  0  0  0  0  0  0
  -30.8051  -26.6707   24.8414 C   0  0  0  0  0  0  0  0  0  0  0  0
  -26.4443  -21.4837   25.8159 C   0  0  0  0  0  0  0  0  0  0  0  0
  -30.7302  -21.1525   13.0647 C   0  0  0  0  0  0  0  0  0  0  0  0
  -31.0281  -19.0724   11.7286 C   0  0  0  0  0  0  0  0  0  0  0  0
  -32.0782  -16.8190   15.3377 C   0  0  0  0  0  0  0  0  0  0  0  0
  -28.3663  -17.2658   18.6383 C   0  0  0  0  0  0  0  0  0  0  0  0
  -33.9764  -17.8212   17.3038 C   0  0  0  0  0  0  0  0  0  0  0  0
  -30.2527  -18.2736   20.6246 C   0  0  0  0  0  0  0  0  0  0  0  0
  -31.3278  -17.5356   14.1995 C   0  0  0  0  0  0  0  0  0  0  0  0
  -27.4842  -18.3630   18.0387 C   0  0  0  0  0  0  0  0  0  0  0  0
  -30.5511  -17.2132   21.6887 C   0  0  0  0  0  0  0  0  0  0  0  0
  -31.4773  -19.0538   14.1778 C   0  0  0  0  0  0  0  0  0  0  0  0
  -27.7986  -19.7531   18.5792 C   0  0  0  0  0  0  0  0  0  1  0  0
  -29.6007  -24.7370   23.7450 C   0  0  1  0  0  0  0  0  0  0  0  0
  -28.6249  -22.4264   26.5873 C   0  0  2  0  0  0  0  0  0  0  0  0
  -30.9301  -25.5416   23.7953 C   0  0  0  0  0  0  0  0  0  0  0  0
  -25.8782  -11.5476   20.3487 N   0  0  0  0  0  0  0  0  0  0  0  0
  -26.2075  -12.8321   20.1304 N   0  0  0  0  0  0  0  0  0  0  0  0
  -27.7757  -25.1666   22.1298 N   0  0  0  0  0  0  0  0  0  0  0  0
  -29.8998  -13.7847   20.3929 N   0  0  0  0  0  0  0  0  0  0  0  0
  -25.3444  -15.0374   20.1766 N   0  0  0  0  0  0  0  0  0  0  0  0
  -21.8227  -12.5132   21.4505 N   0  0  0  0  0  0  0  0  0  0  0  0
  -26.6604  -27.7884   19.8542 N   0  0  0  0  0  0  0  0  0  0  0  0
  -29.2108  -24.1467   25.0209 N   0  0  0  0  0  0  0  0  0  0  0  0
  -29.9495  -15.9370   21.3718 N   0  0  0  0  0  0  0  0  0  0  0  0
  -27.6957  -21.2613   26.5850 N   0  3  0  0  0  0  0  0  0  0  0  0
  -30.6749  -19.6437   13.0810 N   0  3  0  0  0  0  0  0  0  0  0  0
  -22.5211  -14.6557   21.0254 O   0  0  0  0  0  0  0  0  0  0  0  0
  -28.6504  -26.6396   20.2323 O   0  0  0  0  0  0  0  0  0  0  0  0
  -28.1116  -26.5708   23.9606 O   0  0  0  0  0  0  0  0  0  0  0  0
  -29.1503  -21.9511   24.2775 O   0  0  0  0  0  0  0  0  0  0  0  0
  -31.7568  -15.1594   20.1946 O   0  0  0  0  0  0  0  0  0  0  0  0
  -21.7692   -6.9689   21.9922 O   0  0  0  0  0  0  0  0  0  0  0  0
  -26.9117  -20.6920   17.9723 O   0  0  0  0  0  0  0  0  0  1  0  0
  -18.6301   -7.0454   26.5248 F   0  0  0  0  0  0  0  0  0  0  0  0
  -22.2313   -5.2019   24.0674 F   0  0  0  0  0  0  0  0  0  0  0  0
  1  2  1  0  0  0  0
  1  5  2  0  0  0  0
  2  6  2  0  0  0  0
  3  8  2  0  0  0  0
  3 16  1  0  0  0  0
  4  9  1  0  0  0  0
  4 16  2  0  0  0  0
  5 18  1  0  0  0  0
  6 20  1  0  0  0  0
  7 10  2  0  0  0  0
  7 19  1  0  0  0  0
  8 27  1  0  0  0  0
  9 27  2  0  0  0  0
 10 28  1  0  0  0  0
 11 12  2  0  0  0  0
 11 29  1  0  0  0  0
 12 30  1  0  0  0  0
 13 21  1  0  0  0  0
 13 28  2  0  0  0  0
 14 22  2  0  0  0  0
 14 23  1  0  0  0  0
 15 30  2  0  0  0  0
 15 31  1  0  0  0  0
 16 32  1  0  0  0  0
 17 32  1  0  0  0  0
 17 33  2  0  0  0  0
 17 34  1  0  0  0  0
 18 20  2  0  0  0  0
 18 39  1  0  0  0  0
 19 21  2  0  0  0  0
 19 40  1  0  0  0  0
 20 48  1  0  0  0  0
 21 41  1  0  0  0  0
 22 25  1  0  0  0  0
 22 60  1  0  0  0  0
 23 26  2  0  0  0  0
 23 61  1  0  0  0  0
 24 25  2  0  0  0  0
 24 26  1  0  0  0  0
 24 51  1  0  0  0  0
 25 62  1  0  0  0  0
 26 63  1  0  0  0  0
 27 88  1  0  0  0  0
 28 89  1  0  0  0  0
 29 31  2  0  0  0  0
 29 88  1  0  0  0  0
 30 90  1  0  0  0  0
 31 91  1  0  0  0  0
 32 72  2  0  0  0  0
 33 73  1  0  0  0  0
 33 76  1  0  0  0  0
 34 77  1  0  0  0  0
 34 83  2  0  0  0  0
 35 49  1  0  0  0  0
 35 78  1  0  0  0  0
 35 84  2  0  0  0  0
 36 69  1  0  0  0  0
 36 74  1  0  0  0  0
 36 85  2  0  0  0  0
 37 70  1  0  0  0  0
 37 79  1  0  0  0  0
 37 86  2  0  0  0  0
 38 75  1  0  0  0  0
 38 80  1  0  0  0  0
 38 87  2  0  0  0  0
 39 42  1  0  0  0  0
 40 49  1  0  0  0  0
 41 74  1  0  0  0  0
 42 44  1  0  0  0  0
 43 45  1  0  0  0  0
 43 46  1  0  0  0  0
 44 48  1  0  0  0  0
 45 50  1  0  0  0  0
 46 75  1  0  0  0  0
 47 50  1  0  0  0  0
 47 75  1  0  0  0  0
 48 78  1  0  0  0  0
 49 74  1  0  0  0  0
 50 73  1  0  0  0  0
 52 62  1  0  0  0  0
 53 70  1  0  0  0  0
 54 71  1  0  0  0  0
 55 71  1  0  0  0  0
 56 71  1  0  0  0  0
 57 81  1  0  0  0  0
 58 82  1  0  0  0  0
 59 82  1  0  0  0  0
 60 64  1  0  0  0  0
 61 65  1  0  0  0  0
 63 66  1  0  0  0  0
 64 67  1  0  0  0  0
 65 68  1  0  0  0  0
 66 80  1  0  0  0  0
 67 82  1  0  0  0  0
 68 89  1  0  0  0  0
 69 71  1  0  0  0  0
 69 79  1  0  0  0  0
 70 81  1  0  0  0  0
 72 73  1  0  0  0  0
M  CHG  2  81   1  82   1
M  ISO  4  38 100  68 101  80 100  89 101
M  END
> <Batch ID>
0088

> <Smiles>
CCc1c(CCCN(C)C)cc(CC[101CH2:1][101O:1]c2ccc3c(c2)CN(C(=O)C(NC(=O)C(C)NC)C(C)(C)C)C(C(=O)NC2CCCc4ccccc42)C3)c(CC[100NH:0][100C:0](=O)N2CCCC(n3nc(-c4ccc(Oc5ccc(F)cc5F)cc4)c(C(N)=O)c3N)C2)c1C

> <Shape>
0.224

> <Color>
0.201

> <Negative vol penalty>
0.000

$$$$

  -OEChem-04052319043D

 90 98  0     1  0  0  0  0  0999 V2000
  -21.5779  -12.4693   19.2950 C   0  0  0  0  0  0  0  0  0  0  0  0
  -21.5315  -13.8471   19.4822 C   0  0  0  0  0  0  0  0  0  0  0  0
  -29.8319  -25.8605   20.3999 C   0  0  0  0  0  0  0  0  0  0  0  0
  -28.1192  -26.1631   18.7230 C   0  0  0  0  0  0  0  0  0  0  0  0
  -22.6811  -11.7431   19.7415 C   0  0  0  0  0  0  0  0  0  0  0  0
  -22.5879  -14.4993   20.1171 C   0  0  0  0  0  0  0  0  0  0  0  0
  -24.7027  -20.1189   18.9115 C   0  0  0  0  0  0  0  0  0  0  0  0
  -29.9458  -24.5174   20.0412 C   0  0  0  0  0  0  0  0  0  0  0  0
  -28.2332  -24.8200   18.3642 C   0  0  0  0  0  0  0  0  0  0  0  0
  -24.4819  -21.3544   19.5185 C   0  0  0  0  0  0  0  0  0  0  0  0
  -30.3230  -22.9033   16.5260 C   0  0  0  0  0  0  0  0  0  0  0  0
  -30.3695  -22.5992   15.1655 C   0  0  0  0  0  0  0  0  0  0  0  0
  -26.4972  -21.0713   20.8138 C   0  0  0  0  0  0  0  0  0  0  0  0
  -20.7931  -28.1795   18.9930 C   0  0  0  0  0  0  0  0  0  0  0  0
  -21.4290  -28.4063   21.6998 C   0  0  0  0  0  0  0  0  0  0  0  0
  -28.3754  -21.2549   15.3978 C   0  0  0  0  0  0  0  0  0  0  0  0
  -28.9185  -26.6833   19.7409 C   0  0  0  0  0  0  0  0  0  0  0  0
  -29.5162  -29.1578   19.5758 C   0  0  0  0  0  0  0  0  0  0  0  0
  -23.7559  -12.3880   20.3736 C   0  0  0  0  0  0  0  0  0  0  0  0
  -25.8185  -19.3440   19.2596 C   0  0  0  0  0  0  0  0  0  0  0  0
  -23.7059  -13.7808   20.5737 C   0  0  0  0  0  0  0  0  0  0  0  0
  -26.7312  -19.8274   20.2079 C   0  0  0  0  0  0  0  0  0  0  0  0
  -20.6882  -29.4144   19.6329 C   0  0  0  0  0  0  0  0  0  0  0  0
  -21.2159  -27.0579   19.7065 C   0  0  0  0  0  0  0  0  0  0  0  0
  -21.0062  -29.5278   20.9863 C   0  0  0  0  0  0  0  0  0  0  0  0
  -21.5339  -27.1713   21.0599 C   0  0  0  0  0  0  0  0  0  0  0  0
  -29.1465  -23.9971   19.0233 C   0  0  0  0  0  0  0  0  0  0  0  0
  -25.3777  -21.8295   20.4719 C   0  0  0  0  0  0  0  0  0  0  0  0
  -29.3028  -22.3832   17.3224 C   0  0  0  0  0  0  0  0  0  0  0  0
  -29.3957  -21.7750   14.6014 C   0  0  0  0  0  0  0  0  0  0  0  0
  -28.3290  -21.5590   16.7584 C   0  0  0  0  0  0  0  0  0  0  0  0
  -28.7999  -28.0707   20.1114 C   0  0  0  0  0  0  0  0  0  0  0  0
  -29.0408  -30.2514   20.2574 C   0  0  0  0  0  0  0  0  0  0  0  0
  -30.5212  -29.1774   18.5534 C   0  0  0  0  0  0  0  0  0  0  0  0
  -26.2390  -16.4708   20.5524 C   0  0  0  0  0  0  0  0  0  0  0  0
  -29.3616  -17.0671   19.9074 C   0  0  0  0  0  0  0  0  0  0  0  0
  -31.4250  -19.2259   18.9113 C   0  0  0  0  0  0  0  0  0  0  0  0
  -23.8756  -31.3744   23.0699 C   0  0  0  0  0  0  0  0  0  0  0  0
  -24.9056  -11.5543   20.8814 C   0  0  0  0  0  0  0  0  0  0  0  0
  -26.0567  -18.0255   18.5761 C   0  0  0  0  0  0  0  0  0  0  0  0
  -27.9553  -19.0434   20.6019 C   0  0  0  0  0  0  0  0  0  0  0  0
  -26.1524  -12.3717   21.2097 C   0  0  0  0  0  0  0  0  0  0  0  0
  -27.1473  -31.5068   24.4680 C   0  0  0  0  0  0  0  0  0  0  0  0
  -25.7817  -13.6065   22.0251 C   0  0  0  0  0  0  0  0  0  0  0  0
  -28.0065  -30.7393   23.4617 C   0  0  0  0  0  0  0  0  0  0  0  0
  -25.7566  -30.8916   24.6078 C   0  0  0  0  0  0  0  0  0  0  0  0
  -25.8838  -29.9532   22.3324 C   0  0  0  0  0  0  0  0  0  0  0  0
  -24.8435  -14.5275   21.2359 C   0  0  1  0  0  0  0  0  0  0  0  0
  -26.9506  -17.0878   19.3817 C   0  0  1  0  0  0  0  0  0  0  0  0
  -27.2766  -30.5694   22.1157 C   0  0  2  0  0  0  0  0  0  0  0  0
  -21.3167  -25.7470   18.9967 C   0  0  0  0  0  0  0  0  0  0  0  0
  -18.8582  -30.3877   18.2222 C   0  0  0  0  0  0  0  0  0  0  0  0
  -33.3586  -20.6425   18.1685 C   0  0  0  0  0  0  0  0  0  0  0  0
  -29.9535  -16.4596   22.8384 C   0  0  0  0  0  0  0  0  0  0  0  0
  -32.1826  -17.5609   22.5443 C   0  0  0  0  0  0  0  0  0  0  0  0
  -31.6163  -15.5226   21.2223 C   0  0  0  0  0  0  0  0  0  0  0  0
  -20.8810  -24.0893   23.7247 C   0  0  0  0  0  0  0  0  0  0  0  0
  -22.6194  -24.8668   25.3319 C   0  0  0  0  0  0  0  0  0  0  0  0
  -31.3249  -18.1274   16.1650 C   0  0  0  0  0  0  0  0  0  0  0  0
  -20.2329  -30.6011   18.8486 C   0  0  0  0  0  0  0  0  0  0  0  0
  -20.9005  -30.8395   21.6924 C   0  0  0  0  0  0  0  0  0  0  0  0
  -24.7570  -24.1991   23.1269 C   0  0  0  0  0  0  0  0  0  0  0  0
  -23.3000  -23.7290   23.1644 C   0  0  0  0  0  0  0  0  0  0  0  0
  -22.0753  -31.7827   21.4111 C   0  0  0  0  0  0  0  0  0  0  0  0
  -22.2984  -26.1136   23.1865 C   0  0  0  0  0  0  0  0  0  0  0  0
  -25.6444  -23.1951   22.4006 C   0  0  0  0  0  0  0  0  0  1  0  0
  -30.5015  -17.7190   20.6522 C   0  0  1  0  0  0  0  0  0  0  0  0
  -32.5841  -19.3540   17.9394 C   0  0  2  0  0  0  0  0  0  0  0  0
  -31.0395  -16.8297   21.8085 C   0  0  0  0  0  0  0  0  0  0  0  0
  -22.2924  -24.7075   23.8328 C   0  0  0  0  0  0  0  0  0  0  0  0
  -27.9354  -28.4400   21.0602 N   0  0  0  0  0  0  0  0  0  0  0  0
  -28.1055  -29.7715   21.1262 N   0  0  0  0  0  0  0  0  0  0  0  0
  -28.1410  -17.7571   19.9101 N   0  0  0  0  0  0  0  0  0  0  0  0
  -25.1180  -30.7594   23.2960 N   0  0  0  0  0  0  0  0  0  0  0  0
  -29.3360  -31.5671   20.1923 N   0  0  0  0  0  0  0  0  0  0  0  0
  -30.8916  -27.9643   17.9573 N   0  0  0  0  0  0  0  0  0  0  0  0
  -21.9544  -26.0679   21.7838 N   0  0  0  0  0  0  0  0  0  0  0  0
  -25.5886  -15.2882   20.2558 N   0  0  0  0  0  0  0  0  0  0  0  0
  -31.5020  -18.0626   19.6475 N   0  0  0  0  0  0  0  0  0  0  0  0
  -23.3432  -31.2049   21.7976 N   0  0  0  0  0  0  0  0  0  0  0  0
  -32.0855  -19.3486   16.5350 N   0  3  0  0  0  0  0  0  0  0  0  0
  -31.0862  -30.2372   18.1912 O   0  0  0  0  0  0  0  0  0  0  0  0
  -26.2783  -17.0257   21.6443 O   0  0  0  0  0  0  0  0  0  0  0  0
  -29.5492  -15.9891   19.3381 O   0  0  0  0  0  0  0  0  0  0  0  0
  -30.5418  -20.0748   19.0102 O   0  0  0  0  0  0  0  0  0  0  0  0
  -23.2870  -32.0306   23.9359 O   0  0  0  0  0  0  0  0  0  0  0  0
  -29.2576  -22.6866   18.6728 O   0  0  0  0  0  0  0  0  0  0  0  0
  -25.1642  -23.0348   21.0664 O   0  0  0  0  0  0  0  0  0  1  0  0
  -29.4396  -21.4843   13.2946 F   0  0  0  0  0  0  0  0  0  0  0  0
  -27.3458  -21.0574   17.5182 F   0  0  0  0  0  0  0  0  0  0  0  0
  1  2  1  0  0  0  0
  1  5  2  0  0  0  0
  2  6  2  0  0  0  0
  3  8  2  0  0  0  0
  3 17  1  0  0  0  0
  4  9  1  0  0  0  0
  4 17  2  0  0  0  0
  5 19  1  0  0  0  0
  6 21  1  0  0  0  0
  7 10  2  0  0  0  0
  7 20  1  0  0  0  0
  8 27  1  0  0  0  0
  9 27  2  0  0  0  0
 10 28  1  0  0  0  0
 11 12  2  0  0  0  0
 11 29  1  0  0  0  0
 12 30  1  0  0  0  0
 13 22  1  0  0  0  0
 13 28  2  0  0  0  0
 14 23  1  0  0  0  0
 14 24  2  0  0  0  0
 15 25  1  0  0  0  0
 15 26  2  0  0  0  0
 16 30  2  0  0  0  0
 16 31  1  0  0  0  0
 17 32  1  0  0  0  0
 18 32  1  0  0  0  0
 18 33  2  0  0  0  0
 18 34  1  0  0  0  0
 19 21  2  0  0  0  0
 19 39  1  0  0  0  0
 20 22  2  0  0  0  0
 20 40  1  0  0  0  0
 21 48  1  0  0  0  0
 22 41  1  0  0  0  0
 23 25  2  0  0  0  0
 23 60  1  0  0  0  0
 24 26  1  0  0  0  0
 24 51  1  0  0  0  0
 25 61  1  0  0  0  0
 26 77  1  0  0  0  0
 27 87  1  0  0  0  0
 28 88  1  0  0  0  0
 29 31  2  0  0  0  0
 29 87  1  0  0  0  0
 30 89  1  0  0  0  0
 31 90  1  0  0  0  0
 32 71  2  0  0  0  0
 33 72  1  0  0  0  0
 33 75  1  0  0  0  0
 34 76  1  0  0  0  0
 34 82  2  0  0  0  0
 35 49  1  0  0  0  0
 35 78  1  0  0  0  0
 35 83  2  0  0  0  0
 36 67  1  0  0  0  0
 36 73  1  0  0  0  0
 36 84  2  0  0  0  0
 37 68  1  0  0  0  0
 37 79  1  0  0  0  0
 37 85  2  0  0  0  0
 38 74  1  0  0  0  0
 38 80  1  0  0  0  0
 38 86  2  0  0  0  0
 39 42  1  0  0  0  0
 40 49  1  0  0  0  0
 41 73  1  0  0  0  0
 42 44  1  0  0  0  0
 43 45  1  0  0  0  0
 43 46  1  0  0  0  0
 44 48  1  0  0  0  0
 45 50  1  0  0  0  0
 46 74  1  0  0  0  0
 47 50  1  0  0  0  0
 47 74  1  0  0  0  0
 48 78  1  0  0  0  0
 49 73  1  0  0  0  0
 50 72  1  0  0  0  0
 52 60  1  0  0  0  0
 53 68  1  0  0  0  0
 54 69  1  0  0  0  0
 55 69  1  0  0  0  0
 56 69  1  0  0  0  0
 57 70  1  0  0  0  0
 58 70  1  0  0  0  0
 59 81  1  0  0  0  0
 61 64  1  0  0  0  0
 62 63  1  0  0  0  0
 62 66  1  0  0  0  0
 63 70  1  0  0  0  0
 64 80  1  0  0  0  0
 65 70  1  0  0  0  0
 65 77  1  0  0  0  0
 66 88  1  0  0  0  0
 67 69  1  0  0  0  0
 67 79  1  0  0  0  0
 68 81  1  0  0  0  0
 71 72  1  0  0  0  0
M  CHG  1  81   1
M  ISO  4  38 100  66 101  80 100  88 101
M  END
> <Batch ID>
0088

> <Smiles>
CCc1cc(C)c(NCC(C)(C)CC[101CH2:1][101O:1]c2ccc3c(c2)CN(C(=O)C(NC(=O)C(C)NC)C(C)(C)C)C(C(=O)NC2CCCc4ccccc42)C3)cc1CC[100NH:0][100C:0](=O)N1CCCC(n2nc(-c3ccc(Oc4ccc(F)cc4F)cc3)c(C(N)=O)c2N)C1

> <Shape>
0.226

> <Color>
0.064

> <Negative vol penalty>
0.000

$$$$

  -OEChem-04052319043D

 88 96  0     1  0  0  0  0  0999 V2000
  -35.3902  -18.9719   14.3806 C   0  0  0  0  0  0  0  0  0  0  0  0
  -34.9794  -18.8270   15.7018 C   0  0  0  0  0  0  0  0  0  0  0  0
  -23.2807   -9.8060   19.9053 C   0  0  0  0  0  0  0  0  0  0  0  0
  -23.7292   -9.9345   22.2758 C   0  0  0  0  0  0  0  0  0  0  0  0
  -35.1451  -20.1652   13.7024 C   0  0  0  0  0  0  0  0  0  0  0  0
  -34.3242  -19.8759   16.3460 C   0  0  0  0  0  0  0  0  0  0  0  0
  -30.2834  -18.3211   18.9727 C   0  0  0  0  0  0  0  0  0  0  0  0
  -22.5500   -8.6352   20.1070 C   0  0  0  0  0  0  0  0  0  0  0  0
  -22.9985   -8.7636   22.4775 C   0  0  0  0  0  0  0  0  0  0  0  0
  -30.5199  -17.7196   20.2080 C   0  0  0  0  0  0  0  0  0  0  0  0
  -20.8680   -5.4148   19.9525 C   0  0  0  0  0  0  0  0  0  0  0  0
  -21.0901   -4.3512   19.0779 C   0  0  0  0  0  0  0  0  0  0  0  0
  -29.9794  -19.7938   21.3146 C   0  0  0  0  0  0  0  0  0  0  0  0
  -27.5321  -13.5192   26.6036 C   0  0  0  0  0  0  0  0  0  0  0  0
  -23.4122   -4.2898   19.7423 C   0  0  0  0  0  0  0  0  0  0  0  0
  -23.8704  -10.4557   20.9897 C   0  0  0  0  0  0  0  0  0  0  0  0
  -24.1388  -12.9856   20.8027 C   0  0  0  0  0  0  0  0  0  0  0  0
  -34.4780  -21.2257   14.3356 C   0  0  0  0  0  0  0  0  0  0  0  0
  -29.9031  -19.6688   18.8984 C   0  0  0  0  0  0  0  0  0  0  0  0
  -34.0712  -21.0850   15.6761 C   0  0  0  0  0  0  0  0  0  0  0  0
  -29.7362  -20.4094   20.0773 C   0  0  0  0  0  0  0  0  0  0  0  0
  -27.6138  -14.5953   25.7270 C   0  0  0  0  0  0  0  0  0  0  0  0
  -28.8131  -14.8665   25.0777 C   0  0  0  0  0  0  0  0  0  0  0  0
  -22.4088   -8.1140   21.3931 C   0  0  0  0  0  0  0  0  0  0  0  0
  -30.3707  -18.4568   21.3791 C   0  0  0  0  0  0  0  0  0  0  0  0
  -21.9180   -5.9160   20.7219 C   0  0  0  0  0  0  0  0  0  0  0  0
  -22.3621   -3.7886   18.9728 C   0  0  0  0  0  0  0  0  0  0  0  0
  -23.1900   -5.3535   20.6168 C   0  0  0  0  0  0  0  0  0  0  0  0
  -24.6258  -11.6649   20.7819 C   0  0  0  0  0  0  0  0  0  0  0  0
  -28.6691  -12.7508   26.7950 C   0  0  0  0  0  0  0  0  0  0  0  0
  -29.8928  -14.0380   25.3376 C   0  0  0  0  0  0  0  0  0  0  0  0
  -25.2433  -13.7628   20.5524 C   0  0  0  0  0  0  0  0  0  0  0  0
  -22.8072  -13.4669   21.0281 C   0  0  0  0  0  0  0  0  0  0  0  0
  -31.1678  -22.2892   17.6185 C   0  0  0  0  0  0  0  0  0  0  0  0
  -28.3528  -23.6206   18.5271 C   0  0  0  0  0  0  0  0  0  0  0  0
  -25.6403  -23.5323   20.5963 C   0  0  0  0  0  0  0  0  0  0  0  0
  -31.1104  -12.8955   21.3748 C   0  0  0  0  0  0  0  0  0  0  0  0
  -34.2776  -22.5136   13.5768 C   0  0  0  0  0  0  0  0  0  0  0  0
  -29.6258  -20.2955   17.5594 C   0  0  0  0  0  0  0  0  0  0  0  0
  -29.3100  -21.8537   20.0528 C   0  0  0  0  0  0  0  0  0  0  0  0
  -33.2447  -23.4406   14.2124 C   0  0  0  0  0  0  0  0  0  0  0  0
  -29.4676  -13.6544   18.3086 C   0  0  0  0  0  0  0  0  0  0  0  0
  -33.4824  -23.5543   15.7149 C   0  0  0  0  0  0  0  0  0  0  0  0
  -27.9965  -13.3497   18.5966 C   0  0  0  0  0  0  0  0  0  0  0  0
  -30.3966  -12.6686   19.0136 C   0  0  0  0  0  0  0  0  0  0  0  0
  -28.7065  -12.2374   20.7547 C   0  0  0  0  0  0  0  0  0  0  0  0
  -33.3356  -22.1909   16.4013 C   0  0  1  0  0  0  0  0  0  0  0  0
  -29.7421  -21.8165   17.5760 C   0  0  1  0  0  0  0  0  0  0  0  0
  -27.7328  -13.2389   20.1104 C   0  0  2  0  0  0  0  0  0  0  0  0
  -28.2100  -10.2965   27.0225 C   0  0  0  0  0  0  0  0  0  0  0  0
  -24.1427  -15.6113   24.3763 C   0  0  0  0  0  0  0  0  0  0  0  0
  -32.3142  -14.6204   25.6863 C   0  0  0  0  0  0  0  0  0  0  0  0
  -23.5259  -24.7755   21.1267 C   0  0  0  0  0  0  0  0  0  0  0  0
  -29.9759  -25.7553   19.9826 C   0  0  0  0  0  0  0  0  0  0  0  0
  -27.9018  -26.3756   21.2403 C   0  0  0  0  0  0  0  0  0  0  0  0
  -27.9739  -26.6207   18.7589 C   0  0  0  0  0  0  0  0  0  0  0  0
  -23.9575  -21.1969   19.9085 C   0  0  0  0  0  0  0  0  0  0  0  0
  -26.4050  -15.4426   25.5032 C   0  0  0  0  0  0  0  0  0  0  0  0
  -28.9308  -16.0251   24.1199 C   0  0  0  0  0  0  0  0  0  0  0  0
  -28.6180  -11.5870   27.7276 C   0  0  0  0  0  0  0  0  0  0  0  0
  -25.3878  -14.7617   24.5758 C   0  0  0  0  0  0  0  0  0  0  0  0
  -29.6683  -17.2329   24.7019 C   0  0  0  0  0  0  0  0  0  0  0  0
  -31.6703  -13.0965   23.7843 C   0  0  0  0  0  0  0  0  0  0  0  0
  -29.8574  -18.3655   23.6995 C   0  0  0  0  0  0  0  0  0  1  0  0
  -31.2070  -14.2781   24.6690 C   0  0  1  0  0  0  0  0  0  0  0  0
  -27.8481  -24.3081   19.7728 C   0  0  1  0  0  0  0  0  0  0  0  0
  -24.1537  -23.6537   20.3141 C   0  0  2  0  0  0  0  0  0  0  0  0
  -28.4348  -25.7383   19.9393 C   0  0  0  0  0  0  0  0  0  0  0  0
  -25.9375  -11.6028   20.5376 N   0  0  0  0  0  0  0  0  0  0  0  0
  -29.8516  -12.9833   26.1824 N   0  0  0  0  0  0  0  0  0  0  0  0
  -26.2841  -12.8942   20.4024 N   0  0  0  0  0  0  0  0  0  0  0  0
  -29.0568  -22.4233   18.7190 N   0  0  0  0  0  0  0  0  0  0  0  0
  -30.0955  -12.6118   20.4461 N   0  0  0  0  0  0  0  0  0  0  0  0
  -25.4161  -15.0976   20.4481 N   0  0  0  0  0  0  0  0  0  0  0  0
  -21.7911  -12.5325   21.2702 N   0  0  0  0  0  0  0  0  0  0  0  0
  -31.9374  -21.8517   16.5575 N   0  0  0  0  0  0  0  0  0  0  0  0
  -26.3916  -24.2644   19.7014 N   0  0  0  0  0  0  0  0  0  0  0  0
  -30.7390  -12.8253   22.7119 N   0  0  0  0  0  0  0  0  0  0  0  0
  -23.4565  -22.3809   20.6529 N   0  3  0  0  0  0  0  0  0  0  0  0
  -22.5237  -14.6885   20.9989 O   0  0  0  0  0  0  0  0  0  0  0  0
  -31.5414  -22.9994   18.5446 O   0  0  0  0  0  0  0  0  0  0  0  0
  -28.1244  -24.1234   17.4241 O   0  0  0  0  0  0  0  0  0  0  0  0
  -26.0900  -22.8585   21.5207 O   0  0  0  0  0  0  0  0  0  0  0  0
  -32.2608  -13.1948   21.0373 O   0  0  0  0  0  0  0  0  0  0  0  0
  -21.6957   -6.9716   21.5903 O   0  0  0  0  0  0  0  0  0  0  0  0
  -30.6015  -17.8723   22.5861 O   0  0  0  0  0  0  0  0  0  1  0  0
  -22.5749   -2.7662   18.1341 F   0  0  0  0  0  0  0  0  0  0  0  0
  -24.2024   -5.8300   21.3543 F   0  0  0  0  0  0  0  0  0  0  0  0
  1  2  1  0  0  0  0
  1  5  2  0  0  0  0
  2  6  2  0  0  0  0
  3  8  2  0  0  0  0
  3 16  1  0  0  0  0
  4  9  1  0  0  0  0
  4 16  2  0  0  0  0
  5 18  1  0  0  0  0
  6 20  1  0  0  0  0
  7 10  2  0  0  0  0
  7 19  1  0  0  0  0
  8 24  1  0  0  0  0
  9 24  2  0  0  0  0
 10 25  1  0  0  0  0
 11 12  2  0  0  0  0
 11 26  1  0  0  0  0
 12 27  1  0  0  0  0
 13 21  1  0  0  0  0
 13 25  2  0  0  0  0
 14 22  1  0  0  0  0
 14 30  2  0  0  0  0
 15 27  2  0  0  0  0
 15 28  1  0  0  0  0
 16 29  1  0  0  0  0
 17 29  1  0  0  0  0
 17 32  2  0  0  0  0
 17 33  1  0  0  0  0
 18 20  2  0  0  0  0
 18 38  1  0  0  0  0
 19 21  2  0  0  0  0
 19 39  1  0  0  0  0
 20 47  1  0  0  0  0
 21 40  1  0  0  0  0
 22 23  2  0  0  0  0
 22 58  1  0  0  0  0
 23 31  1  0  0  0  0
 23 59  1  0  0  0  0
 24 85  1  0  0  0  0
 25 86  1  0  0  0  0
 26 28  2  0  0  0  0
 26 85  1  0  0  0  0
 27 87  1  0  0  0  0
 28 88  1  0  0  0  0
 29 69  2  0  0  0  0
 30 60  1  0  0  0  0
 30 70  1  0  0  0  0
 31 65  1  0  0  0  0
 31 70  2  0  0  0  0
 32 71  1  0  0  0  0
 32 74  1  0  0  0  0
 33 75  1  0  0  0  0
 33 80  2  0  0  0  0
 34 48  1  0  0  0  0
 34 76  1  0  0  0  0
 34 81  2  0  0  0  0
 35 66  1  0  0  0  0
 35 72  1  0  0  0  0
 35 82  2  0  0  0  0
 36 67  1  0  0  0  0
 36 77  1  0  0  0  0
 36 83  2  0  0  0  0
 37 73  1  0  0  0  0
 37 78  1  0  0  0  0
 37 84  2  0  0  0  0
 38 41  1  0  0  0  0
 39 48  1  0  0  0  0
 40 72  1  0  0  0  0
 41 43  1  0  0  0  0
 42 44  1  0  0  0  0
 42 45  1  0  0  0  0
 43 47  1  0  0  0  0
 44 49  1  0  0  0  0
 45 73  1  0  0  0  0
 46 49  1  0  0  0  0
 46 73  1  0  0  0  0
 47 76  1  0  0  0  0
 48 72  1  0  0  0  0
 49 71  1  0  0  0  0
 50 60  1  0  0  0  0
 51 61  1  0  0  0  0
 52 65  1  0  0  0  0
 53 67  1  0  0  0  0
 54 68  1  0  0  0  0
 55 68  1  0  0  0  0
 56 68  1  0  0  0  0
 57 79  1  0  0  0  0
 58 61  1  0  0  0  0
 59 62  1  0  0  0  0
 62 64  1  0  0  0  0
 63 65  1  0  0  0  0
 63 78  1  0  0  0  0
 64 86  1  0  0  0  0
 66 68  1  0  0  0  0
 66 77  1  0  0  0  0
 67 79  1  0  0  0  0
 69 71  1  0  0  0  0
M  CHG  1  79   1
M  ISO  4  37 100  64 101  78 100  86 101
M  END
> <Batch ID>
0088

> <Smiles>
CCCc1cc(CC)nc(C(C)C[100NH:0][100C:0](=O)N2CCCC(n3nc(-c4ccc(Oc5ccc(F)cc5F)cc4)c(C(N)=O)c3N)C2)c1CC[101CH2:1][101O:1]c1ccc2c(c1)CN(C(=O)C(NC(=O)C(C)NC)C(C)(C)C)C(C(=O)NC1CCCc3ccccc31)C2

> <Shape>
0.204

> <Color>
0.167

> <Negative vol penalty>
0.000

$$$$

  -OEChem-04052319043D

 86 94  0     1  0  0  0  0  0999 V2000
  -22.7783  -34.4498   18.5091 C   0  0  0  0  0  0  0  0  0  0  0  0
  -23.2546  -33.5996   17.5162 C   0  0  0  0  0  0  0  0  0  0  0  0
  -26.3482  -12.7094   21.6086 C   0  0  0  0  0  0  0  0  0  0  0  0
  -25.7895  -13.6644   19.4608 C   0  0  0  0  0  0  0  0  0  0  0  0
  -22.6228  -33.9795   19.8124 C   0  0  0  0  0  0  0  0  0  0  0  0
  -23.5768  -32.2788   17.8264 C   0  0  0  0  0  0  0  0  0  0  0  0
  -23.5642  -25.7103   14.9680 C   0  0  0  0  0  0  0  0  0  0  0  0
  -25.1317  -12.0272   21.6217 C   0  0  0  0  0  0  0  0  0  0  0  0
  -24.5729  -12.9822   19.4739 C   0  0  0  0  0  0  0  0  0  0  0  0
  -24.4134  -24.6241   14.7611 C   0  0  0  0  0  0  0  0  0  0  0  0
  -22.3305   -9.7510   22.0540 C   0  0  0  0  0  0  0  0  0  0  0  0
  -22.3430   -8.4101   22.4381 C   0  0  0  0  0  0  0  0  0  0  0  0
  -24.0294  -23.8996   17.0298 C   0  0  0  0  0  0  0  0  0  0  0  0
  -28.7505  -23.5006   16.6820 C   0  0  0  0  0  0  0  0  0  0  0  0
  -28.3132  -21.2415   17.3818 C   0  0  0  0  0  0  0  0  0  0  0  0
  -23.8342   -7.8996   20.6070 C   0  0  0  0  0  0  0  0  0  0  0  0
  -26.6772  -13.5281   20.5281 C   0  0  0  0  0  0  0  0  0  0  0  0
  -29.1588  -13.7773   19.9924 C   0  0  0  0  0  0  0  0  0  0  0  0
  -22.9341  -32.6496   20.1366 C   0  0  0  0  0  0  0  0  0  0  0  0
  -22.9488  -25.9057   16.2127 C   0  0  0  0  0  0  0  0  0  0  0  0
  -23.4266  -31.7907   19.1356 C   0  0  0  0  0  0  0  0  0  0  0  0
  -23.1708  -24.9876   17.2491 C   0  0  0  0  0  0  0  0  0  0  0  0
  -28.2812  -22.2231   16.3975 C   0  0  0  0  0  0  0  0  0  0  0  0
  -24.2440  -12.1636   20.5544 C   0  0  0  0  0  0  0  0  0  0  0  0
  -24.6483  -23.7201   15.7930 C   0  0  0  0  0  0  0  0  0  0  0  0
  -23.0698  -10.1662   20.9464 C   0  0  0  0  0  0  0  0  0  0  0  0
  -23.0949   -7.4844   21.7146 C   0  0  0  0  0  0  0  0  0  0  0  0
  -23.8217   -9.2405   20.2229 C   0  0  0  0  0  0  0  0  0  0  0  0
  -27.9335  -14.2335   20.5142 C   0  0  0  0  0  0  0  0  0  0  0  0
  -29.2379  -23.7437   17.9560 C   0  0  0  0  0  0  0  0  0  0  0  0
  -28.8204  -21.5857   18.6244 C   0  0  0  0  0  0  0  0  0  0  0  0
  -30.0354  -14.8094   20.2223 C   0  0  0  0  0  0  0  0  0  0  0  0
  -29.4762  -12.5320   19.3566 C   0  0  0  0  0  0  0  0  0  0  0  0
  -23.0383  -28.1853   18.4261 C   0  0  0  0  0  0  0  0  0  0  0  0
  -20.6935  -26.4088   19.7930 C   0  0  0  0  0  0  0  0  0  0  0  0
  -19.1975  -23.3613   20.1414 C   0  0  0  0  0  0  0  0  0  0  0  0
  -29.3122  -20.6984   20.9303 C   0  0  0  0  0  0  0  0  0  0  0  0
  -22.7944  -32.2000   21.5694 C   0  0  0  0  0  0  0  0  0  0  0  0
  -22.0145  -27.0676   16.4116 C   0  0  0  0  0  0  0  0  0  0  0  0
  -22.5184  -25.1412   18.5979 C   0  0  0  0  0  0  0  0  0  0  0  0
  -22.8035  -30.6826   21.7353 C   0  0  0  0  0  0  0  0  0  0  0  0
  -30.8299  -18.4472   23.2338 C   0  0  0  0  0  0  0  0  0  0  0  0
  -23.9380  -30.0638   20.9249 C   0  0  0  0  0  0  0  0  0  0  0  0
  -30.3758  -17.0693   22.7467 C   0  0  0  0  0  0  0  0  0  0  0  0
  -29.7339  -19.4980   23.0648 C   0  0  0  0  0  0  0  0  0  0  0  0
  -28.7135  -18.2146   21.2262 C   0  0  0  0  0  0  0  0  0  0  0  0
  -23.7634  -30.3445   19.4275 C   0  0  1  0  0  0  0  0  0  0  0  0
  -21.8456  -27.4544   17.8776 C   0  0  1  0  0  0  0  0  0  0  0  0
  -29.8062  -17.1368   21.3161 C   0  0  2  0  0  0  0  0  0  0  0  0
  -17.3265  -22.2128   21.3569 C   0  0  0  0  0  0  0  0  0  0  0  0
  -27.9542  -28.2411   19.7936 C   0  0  0  0  0  0  0  0  0  0  0  0
  -30.2493  -27.3782   20.2919 C   0  0  0  0  0  0  0  0  0  0  0  0
  -27.2477  -20.4330   14.8462 C   0  0  0  0  0  0  0  0  0  0  0  0
  -28.8443  -22.1138   13.9499 C   0  0  0  0  0  0  0  0  0  0  0  0
  -22.3619  -26.4000   22.3477 C   0  0  0  0  0  0  0  0  0  0  0  0
  -20.9527  -24.5048   23.1786 C   0  0  0  0  0  0  0  0  0  0  0  0
  -19.9076  -26.7199   22.7057 C   0  0  0  0  0  0  0  0  0  0  0  0
  -17.8421  -22.6390   17.6115 C   0  0  0  0  0  0  0  0  0  0  0  0
  -29.7505  -25.1033   18.2967 C   0  0  0  0  0  0  0  0  0  0  0  0
  -28.6418  -26.0139   18.8554 C   0  0  0  0  0  0  0  0  0  0  0  0
  -26.5398  -22.8322   14.6572 C   0  0  0  0  0  0  0  0  0  1  0  0
  -20.6551  -25.2652   20.7778 C   0  0  1  0  0  0  0  0  0  0  0  0
  -17.7391  -22.9432   20.0885 C   0  0  2  0  0  0  0  0  0  0  0  0
  -29.1277  -27.4202   19.2531 C   0  0  0  0  0  0  0  0  0  0  0  0
  -27.7283  -21.8963   14.9975 C   0  0  0  0  0  0  0  0  0  0  0  0
  -20.9833  -25.7204   22.2278 C   0  0  0  0  0  0  0  0  0  0  0  0
  -28.0200  -15.4598   21.0364 N   0  0  0  0  0  0  0  0  0  0  0  0
  -29.2851  -22.8159   18.9381 N   0  0  0  0  0  0  0  0  0  0  0  0
  -29.3102  -15.7829   20.8440 N   0  0  0  0  0  0  0  0  0  0  0  0
  -21.6181  -26.2968   18.7450 N   0  0  0  0  0  0  0  0  0  0  0  0
  -29.2455  -19.5076   21.6842 N   0  0  0  0  0  0  0  0  0  0  0  0
  -31.3481  -14.9700   19.9514 N   0  0  0  0  0  0  0  0  0  0  0  0
  -28.4570  -11.5827   19.2004 N   0  0  0  0  0  0  0  0  0  0  0  0
  -28.8491  -20.5783   19.6205 N   0  0  0  0  0  0  0  0  0  0  0  0
  -22.7611  -29.4669   18.8623 N   0  0  0  0  0  0  0  0  0  0  0  0
  -19.3441  -24.6426   20.6293 N   0  0  0  0  0  0  0  0  0  0  0  0
  -17.5010  -22.0398   18.9274 N   0  3  0  0  0  0  0  0  0  0  0  0
  -30.6333  -12.2624   18.9540 O   0  0  0  0  0  0  0  0  0  0  0  0
  -24.1290  -27.6273   18.4531 O   0  0  0  0  0  0  0  0  0  0  0  0
  -19.9264  -27.3629   19.9440 O   0  0  0  0  0  0  0  0  0  0  0  0
  -20.1151  -22.6236   19.7889 O   0  0  0  0  0  0  0  0  0  0  0  0
  -29.7733  -21.7406   21.4028 O   0  0  0  0  0  0  0  0  0  0  0  0
  -23.0569  -11.4979   20.5668 O   0  0  0  0  0  0  0  0  0  0  0  0
  -25.4773  -22.6594   15.5939 O   0  0  0  0  0  0  0  0  0  1  0  0
  -23.1080   -6.1971   22.0844 F   0  0  0  0  0  0  0  0  0  0  0  0
  -24.5349   -9.6336   19.1587 F   0  0  0  0  0  0  0  0  0  0  0  0
  1  2  1  0  0  0  0
  1  5  2  0  0  0  0
  2  6  2  0  0  0  0
  3  8  2  0  0  0  0
  3 17  1  0  0  0  0
  4  9  1  0  0  0  0
  4 17  2  0  0  0  0
  5 19  1  0  0  0  0
  6 21  1  0  0  0  0
  7 10  2  0  0  0  0
  7 20  1  0  0  0  0
  8 24  1  0  0  0  0
  9 24  2  0  0  0  0
 10 25  1  0  0  0  0
 11 12  2  0  0  0  0
 11 26  1  0  0  0  0
 12 27  1  0  0  0  0
 13 22  1  0  0  0  0
 13 25  2  0  0  0  0
 14 23  1  0  0  0  0
 14 30  2  0  0  0  0
 15 23  2  0  0  0  0
 15 31  1  0  0  0  0
 16 27  2  0  0  0  0
 16 28  1  0  0  0  0
 17 29  1  0  0  0  0
 18 29  1  0  0  0  0
 18 32  2  0  0  0  0
 18 33  1  0  0  0  0
 19 21  2  0  0  0  0
 19 38  1  0  0  0  0
 20 22  2  0  0  0  0
 20 39  1  0  0  0  0
 21 47  1  0  0  0  0
 22 40  1  0  0  0  0
 23 65  1  0  0  0  0
 24 83  1  0  0  0  0
 25 84  1  0  0  0  0
 26 28  2  0  0  0  0
 26 83  1  0  0  0  0
 27 85  1  0  0  0  0
 28 86  1  0  0  0  0
 29 67  2  0  0  0  0
 30 59  1  0  0  0  0
 30 68  1  0  0  0  0
 31 68  2  0  0  0  0
 31 74  1  0  0  0  0
 32 69  1  0  0  0  0
 32 72  1  0  0  0  0
 33 73  1  0  0  0  0
 33 78  2  0  0  0  0
 34 48  1  0  0  0  0
 34 75  1  0  0  0  0
 34 79  2  0  0  0  0
 35 62  1  0  0  0  0
 35 70  1  0  0  0  0
 35 80  2  0  0  0  0
 36 63  1  0  0  0  0
 36 76  1  0  0  0  0
 36 81  2  0  0  0  0
 37 71  1  0  0  0  0
 37 74  1  0  0  0  0
 37 82  2  0  0  0  0
 38 41  1  0  0  0  0
 39 48  1  0  0  0  0
 40 70  1  0  0  0  0
 41 43  1  0  0  0  0
 42 44  1  0  0  0  0
 42 45  1  0  0  0  0
 43 47  1  0  0  0  0
 44 49  1  0  0  0  0
 45 71  1  0  0  0  0
 46 49  1  0  0  0  0
 46 71  1  0  0  0  0
 47 75  1  0  0  0  0
 48 70  1  0  0  0  0
 49 69  1  0  0  0  0
 50 63  1  0  0  0  0
 51 64  1  0  0  0  0
 52 64  1  0  0  0  0
 53 65  1  0  0  0  0
 54 65  1  0  0  0  0
 55 66  1  0  0  0  0
 56 66  1  0  0  0  0
 57 66  1  0  0  0  0
 58 77  1  0  0  0  0
 59 60  1  0  0  0  0
 60 64  1  0  0  0  0
 61 65  1  0  0  0  0
 61 84  1  0  0  0  0
 62 66  1  0  0  0  0
 62 76  1  0  0  0  0
 63 77  1  0  0  0  0
 67 69  1  0  0  0  0
M  CHG  1  77   1
M  ISO  4  37 100  61 101  74 100  84 101
M  END
> <Batch ID>
0088

> <Smiles>
CNC(C)C(=O)NC(C(=O)N1Cc2cc([101O:1][101CH2:1]C(C)(C)c3cc(CCC(C)C)nc([100NH:0][100C:0](=O)N4CCCC(n5nc(-c6ccc(Oc7ccc(F)cc7F)cc6)c(C(N)=O)c5N)C4)c3)ccc2CC1C(=O)NC1CCCc2ccccc21)C(C)(C)C

> <Shape>
0.246

> <Color>
0.064

> <Negative vol penalty>
0.000

$$$$

  -OEChem-04052319043D

 84 92  0     1  0  0  0  0  0999 V2000
  -28.2193  -10.3818   16.9094 C   0  0  0  0  0  0  0  0  0  0  0  0
  -27.5406  -11.4966   16.4276 C   0  0  0  0  0  0  0  0  0  0  0  0
  -25.1018  -30.5162   20.4007 C   0  0  0  0  0  0  0  0  0  0  0  0
  -24.3397  -28.6215   21.6916 C   0  0  0  0  0  0  0  0  0  0  0  0
  -28.8379  -10.4294   18.1579 C   0  0  0  0  0  0  0  0  0  0  0  0
  -27.4793  -12.6594   17.1948 C   0  0  0  0  0  0  0  0  0  0  0  0
  -28.3774  -16.8332   14.4713 C   0  0  0  0  0  0  0  0  0  0  0  0
  -20.5853  -17.2744   16.3466 C   0  0  0  0  0  0  0  0  0  0  0  0
  -20.9369  -17.8717   15.1361 C   0  0  0  0  0  0  0  0  0  0  0  0
  -24.6334  -31.3795   21.3912 C   0  0  0  0  0  0  0  0  0  0  0  0
  -23.8713  -29.4848   22.6821 C   0  0  0  0  0  0  0  0  0  0  0  0
  -27.3364  -17.3112   13.6766 C   0  0  0  0  0  0  0  0  0  0  0  0
  -23.9618  -34.0657   23.7466 C   0  0  0  0  0  0  0  0  0  0  0  0
  -24.7938  -35.1139   24.1399 C   0  0  0  0  0  0  0  0  0  0  0  0
  -26.8217  -18.9648   15.3560 C   0  0  0  0  0  0  0  0  0  0  0  0
  -26.4785  -33.5213   24.8203 C   0  0  0  0  0  0  0  0  0  0  0  0
  -24.9549  -29.1372   20.5509 C   0  0  0  0  0  0  0  0  0  0  0  0
  -26.7193  -27.6685   19.4385 C   0  0  0  0  0  0  0  0  0  0  0  0
  -28.7923  -11.5965   18.9366 C   0  0  0  0  0  0  0  0  0  0  0  0
  -28.6420  -17.4113   15.7212 C   0  0  0  0  0  0  0  0  0  0  0  0
  -28.0968  -12.7222   18.4556 C   0  0  0  0  0  0  0  0  0  0  0  0
  -27.8684  -18.4939   16.1634 C   0  0  0  0  0  0  0  0  0  0  0  0
  -20.8236  -17.9411   17.5484 C   0  0  0  0  0  0  0  0  0  0  0  0
  -21.5269  -19.1356   15.1274 C   0  0  0  0  0  0  0  0  0  0  0  0
  -21.4136  -19.2050   17.5398 C   0  0  0  0  0  0  0  0  0  0  0  0
  -21.7652  -19.8023   16.3293 C   0  0  0  0  0  0  0  0  0  0  0  0
  -24.0182  -30.8638   22.5319 C   0  0  0  0  0  0  0  0  0  0  0  0
  -26.5565  -18.3753   14.1202 C   0  0  0  0  0  0  0  0  0  0  0  0
  -24.3880  -32.7453   23.8903 C   0  0  0  0  0  0  0  0  0  0  0  0
  -26.0521  -34.8417   24.6767 C   0  0  0  0  0  0  0  0  0  0  0  0
  -25.6464  -32.4731   24.4271 C   0  0  0  0  0  0  0  0  0  0  0  0
  -25.4381  -28.2450   19.5279 C   0  0  0  0  0  0  0  0  0  0  0  0
  -26.6743  -26.9073   18.2962 C   0  0  0  0  0  0  0  0  0  0  0  0
  -27.8491  -27.8086   20.3101 C   0  0  0  0  0  0  0  0  0  0  0  0
  -28.6169  -16.3705   18.7245 C   0  0  0  0  0  0  0  0  0  0  0  0
  -29.8266  -19.3158   19.3444 C   0  0  0  0  0  0  0  0  0  0  0  0
  -30.1711  -22.5694   18.3737 C   0  0  0  0  0  0  0  0  0  0  0  0
  -22.1868  -24.3118   15.3001 C   0  0  0  0  0  0  0  0  0  0  0  0
  -29.4359  -11.5848   20.3006 C   0  0  0  0  0  0  0  0  0  0  0  0
  -29.7856  -16.9015   16.5546 C   0  0  0  0  0  0  0  0  0  0  0  0
  -28.1243  -19.1626   17.4885 C   0  0  0  0  0  0  0  0  0  0  0  0
  -29.6431  -12.9783   20.8883 C   0  0  0  0  0  0  0  0  0  0  0  0
  -24.5211  -26.6810   14.0296 C   0  0  0  0  0  0  0  0  0  0  0  0
  -28.3801  -13.8186   20.7279 C   0  0  0  0  0  0  0  0  0  0  0  0
  -25.1365  -27.2985   15.2866 C   0  0  0  0  0  0  0  0  0  0  0  0
  -23.0378  -26.3725   14.2205 C   0  0  0  0  0  0  0  0  0  0  0  0
  -23.3394  -26.1626   16.6574 C   0  0  0  0  0  0  0  0  0  0  0  0
  -28.0292  -14.0100   19.2475 C   0  0  1  0  0  0  0  0  0  0  0  0
  -29.6384  -17.2315   18.0368 C   0  0  1  0  0  0  0  0  0  0  0  0
  -24.8474  -26.4396   16.5324 C   0  0  2  0  0  0  0  0  0  0  0  0
  -20.4371  -17.2793   18.8306 C   0  0  0  0  0  0  0  0  0  0  0  0
  -21.6669  -19.9182   18.8301 C   0  0  0  0  0  0  0  0  0  0  0  0
  -31.1819  -24.7468   19.1050 C   0  0  0  0  0  0  0  0  0  0  0  0
  -27.5783  -19.6744   21.3757 C   0  0  0  0  0  0  0  0  0  0  0  0
  -28.0534  -22.1325   21.3634 C   0  0  0  0  0  0  0  0  0  0  0  0
  -29.8063  -20.5290   22.1240 C   0  0  0  0  0  0  0  0  0  0  0  0
  -31.9073  -22.7005   15.9805 C   0  0  0  0  0  0  0  0  0  0  0  0
  -21.8989  -19.7576   13.8052 C   0  0  0  0  0  0  0  0  0  0  0  0
  -22.3995  -21.1572   16.3181 C   0  0  0  0  0  0  0  0  0  0  0  0
  -23.1681  -19.1706   13.1838 C   0  0  0  0  0  0  0  0  0  0  0  0
  -21.4002  -22.2998   16.5217 C   0  0  0  0  0  0  0  0  0  0  0  0
  -24.4180  -19.4111   14.0225 C   0  0  0  0  0  0  0  0  0  1  0  0
  -29.2368  -20.6681   19.6646 C   0  0  1  0  0  0  0  0  0  0  0  0
  -31.3875  -23.4745   18.2977 C   0  0  2  0  0  0  0  0  0  0  0  0
  -28.6624  -20.7374   21.1078 C   0  0  0  0  0  0  0  0  0  0  0  0
  -24.6377  -27.8813   18.5224 N   0  0  0  0  0  0  0  0  0  0  0  0
  -25.4180  -27.0681   17.7903 N   0  0  0  0  0  0  0  0  0  0  0  0
  -29.2498  -18.6239   18.2699 N   0  0  0  0  0  0  0  0  0  0  0  0
  -22.8321  -25.5538   15.4177 N   0  0  0  0  0  0  0  0  0  0  0  0
  -27.5873  -26.1228   17.6850 N   0  0  0  0  0  0  0  0  0  0  0  0
  -27.7240  -28.6292   21.4394 N   0  0  0  0  0  0  0  0  0  0  0  0
  -28.8820  -15.0163   18.6519 N   0  0  0  0  0  0  0  0  0  0  0  0
  -30.2847  -21.6456   19.3910 N   0  0  0  0  0  0  0  0  0  0  0  0
  -22.0381  -23.5968   16.4822 N   0  0  0  0  0  0  0  0  0  0  0  0
  -31.6627  -23.8547   16.8833 N   0  3  0  0  0  0  0  0  0  0  0  0
  -28.9424  -27.2363   20.0851 O   0  0  0  0  0  0  0  0  0  0  0  0
  -27.6600  -16.8960   19.2811 O   0  0  0  0  0  0  0  0  0  0  0  0
  -30.7692  -18.8922   20.0180 O   0  0  0  0  0  0  0  0  0  0  0  0
  -29.2142  -22.6741   17.6096 O   0  0  0  0  0  0  0  0  0  0  0  0
  -21.7785  -23.8701   14.2206 O   0  0  0  0  0  0  0  0  0  0  0  0
  -23.5612  -31.7058   23.4986 O   0  0  0  0  0  0  0  0  0  0  0  0
  -25.5393  -18.8433   13.3468 O   0  0  0  0  0  0  0  0  0  1  0  0
  -26.8517  -35.8484   25.0528 F   0  0  0  0  0  0  0  0  0  0  0  0
  -26.0619  -31.2067   24.5664 F   0  0  0  0  0  0  0  0  0  0  0  0
  1  2  1  0  0  0  0
  1  5  2  0  0  0  0
  2  6  2  0  0  0  0
  3 10  2  0  0  0  0
  3 17  1  0  0  0  0
  4 11  1  0  0  0  0
  4 17  2  0  0  0  0
  5 19  1  0  0  0  0
  6 21  1  0  0  0  0
  7 12  2  0  0  0  0
  7 20  1  0  0  0  0
  8  9  2  0  0  0  0
  8 23  1  0  0  0  0
  9 24  1  0  0  0  0
 10 27  1  0  0  0  0
 11 27  2  0  0  0  0
 12 28  1  0  0  0  0
 13 14  2  0  0  0  0
 13 29  1  0  0  0  0
 14 30  1  0  0  0  0
 15 22  1  0  0  0  0
 15 28  2  0  0  0  0
 16 30  2  0  0  0  0
 16 31  1  0  0  0  0
 17 32  1  0  0  0  0
 18 32  1  0  0  0  0
 18 33  2  0  0  0  0
 18 34  1  0  0  0  0
 19 21  2  0  0  0  0
 19 39  1  0  0  0  0
 20 22  2  0  0  0  0
 20 40  1  0  0  0  0
 21 48  1  0  0  0  0
 22 41  1  0  0  0  0
 23 25  2  0  0  0  0
 23 51  1  0  0  0  0
 24 26  2  0  0  0  0
 24 58  1  0  0  0  0
 25 26  1  0  0  0  0
 25 52  1  0  0  0  0
 26 59  1  0  0  0  0
 27 81  1  0  0  0  0
 28 82  1  0  0  0  0
 29 31  2  0  0  0  0
 29 81  1  0  0  0  0
 30 83  1  0  0  0  0
 31 84  1  0  0  0  0
 32 66  2  0  0  0  0
 33 67  1  0  0  0  0
 33 70  1  0  0  0  0
 34 71  1  0  0  0  0
 34 76  2  0  0  0  0
 35 49  1  0  0  0  0
 35 72  1  0  0  0  0
 35 77  2  0  0  0  0
 36 63  1  0  0  0  0
 36 68  1  0  0  0  0
 36 78  2  0  0  0  0
 37 64  1  0  0  0  0
 37 73  1  0  0  0  0
 37 79  2  0  0  0  0
 38 69  1  0  0  0  0
 38 74  1  0  0  0  0
 38 80  2  0  0  0  0
 39 42  1  0  0  0  0
 40 49  1  0  0  0  0
 41 68  1  0  0  0  0
 42 44  1  0  0  0  0
 43 45  1  0  0  0  0
 43 46  1  0  0  0  0
 44 48  1  0  0  0  0
 45 50  1  0  0  0  0
 46 69  1  0  0  0  0
 47 50  1  0  0  0  0
 47 69  1  0  0  0  0
 48 72  1  0  0  0  0
 49 68  1  0  0  0  0
 50 67  1  0  0  0  0
 53 64  1  0  0  0  0
 54 65  1  0  0  0  0
 55 65  1  0  0  0  0
 56 65  1  0  0  0  0
 57 75  1  0  0  0  0
 58 60  1  0  0  0  0
 59 61  1  0  0  0  0
 60 62  1  0  0  0  0
 61 74  1  0  0  0  0
 62 82  1  0  0  0  0
 63 65  1  0  0  0  0
 63 73  1  0  0  0  0
 64 75  1  0  0  0  0
 66 67  1  0  0  0  0
M  CHG  1  75   1
M  ISO  4  38 100  62 101  74 100  82 101
M  END
> <Batch ID>
0088

> <Smiles>
CNC(C)C(=O)NC(C(=O)N1Cc2cc([101O:1][101CH2:1]CCc3ccc(C)c(C)c3CC[100NH:0][100C:0](=O)N3CCCC(n4nc(-c5ccc(Oc6ccc(F)cc6F)cc5)c(C(N)=O)c4N)C3)ccc2CC1C(=O)NC1CCCc2ccccc21)C(C)(C)C

> <Shape>
0.229

> <Color>
0.067

> <Negative vol penalty>
0.000

$$$$

  -OEChem-04052319043D

 85 93  0     1  0  0  0  0  0999 V2000
  -28.9804  -11.3065   18.7748 C   0  0  0  0  0  0  0  0  0  0  0  0
  -29.0139  -12.6935   18.6732 C   0  0  0  0  0  0  0  0  0  0  0  0
  -20.5653  -25.7783   22.6982 C   0  0  0  0  0  0  0  0  0  0  0  0
  -20.9623  -26.2871   20.3700 C   0  0  0  0  0  0  0  0  0  0  0  0
  -27.8602  -10.6750   19.3135 C   0  0  0  0  0  0  0  0  0  0  0  0
  -27.9266  -13.4499   19.1092 C   0  0  0  0  0  0  0  0  0  0  0  0
  -29.3314  -17.4771   21.8392 C   0  0  0  0  0  0  0  0  0  0  0  0
  -19.4256  -26.5822   22.6796 C   0  0  0  0  0  0  0  0  0  0  0  0
  -19.8225  -27.0910   20.3514 C   0  0  0  0  0  0  0  0  0  0  0  0
  -29.8118  -18.5838   21.1405 C   0  0  0  0  0  0  0  0  0  0  0  0
  -18.7026  -29.8812   22.8140 C   0  0  0  0  0  0  0  0  0  0  0  0
  -18.5134  -30.7608   23.8798 C   0  0  0  0  0  0  0  0  0  0  0  0
  -27.6588  -19.6494   21.3599 C   0  0  0  0  0  0  0  0  0  0  0  0
  -28.9192  -23.0736   17.8625 C   0  0  0  0  0  0  0  0  0  0  0  0
  -30.1528  -23.7303   19.8332 C   0  0  0  0  0  0  0  0  0  0  0  0
  -16.4238  -29.6698   24.4093 C   0  0  0  0  0  0  0  0  0  0  0  0
  -21.3337  -25.6308   21.5434 C   0  0  0  0  0  0  0  0  0  0  0  0
  -22.5866  -23.4251   21.2741 C   0  0  0  0  0  0  0  0  0  0  0  0
  -26.7625  -11.4245   19.7652 C   0  0  0  0  0  0  0  0  0  0  0  0
  -28.0055  -17.4436   22.2948 C   0  0  0  0  0  0  0  0  0  0  0  0
  -26.7900  -12.8278   19.6532 C   0  0  0  0  0  0  0  0  0  0  0  0
  -27.1647  -18.5422   22.0663 C   0  0  0  0  0  0  0  0  0  0  0  0
  -29.2162  -22.9022   19.2145 C   0  0  0  0  0  0  0  0  0  0  0  0
  -29.5589  -24.0729   17.1291 C   0  0  0  0  0  0  0  0  0  0  0  0
  -30.7924  -24.7297   19.0999 C   0  0  0  0  0  0  0  0  0  0  0  0
  -30.4954  -24.9010   17.7478 C   0  0  0  0  0  0  0  0  0  0  0  0
  -19.0542  -27.2386   21.5062 C   0  0  0  0  0  0  0  0  0  0  0  0
  -28.9747  -19.6690   20.8982 C   0  0  0  0  0  0  0  0  0  0  0  0
  -17.7523  -28.8959   22.5457 C   0  0  0  0  0  0  0  0  0  0  0  0
  -17.3740  -30.6551   24.6775 C   0  0  0  0  0  0  0  0  0  0  0  0
  -16.6129  -28.7902   23.3434 C   0  0  0  0  0  0  0  0  0  0  0  0
  -22.5115  -24.8010   21.5622 C   0  0  0  0  0  0  0  0  0  0  0  0
  -23.9150  -23.1133   21.4316 C   0  0  0  0  0  0  0  0  0  0  0  0
  -21.5485  -22.5105   20.8977 C   0  0  0  0  0  0  0  0  0  0  0  0
  -25.4834  -15.5954   21.7234 C   0  0  0  0  0  0  0  0  0  0  0  0
  -24.1423  -17.3614   24.0909 C   0  0  0  0  0  0  0  0  0  0  0  0
  -24.1062  -20.2759   25.8661 C   0  0  0  0  0  0  0  0  0  0  0  0
  -28.8055  -26.3880   20.9681 C   0  0  0  0  0  0  0  0  0  0  0  0
  -25.5544  -10.6947   20.2966 C   0  0  0  0  0  0  0  0  0  0  0  0
  -27.5104  -16.2537   23.0702 C   0  0  0  0  0  0  0  0  0  0  0  0
  -25.7392  -18.5643   22.5520 C   0  0  0  0  0  0  0  0  0  0  0  0
  -24.5982  -11.5898   21.0807 C   0  0  0  0  0  0  0  0  0  0  0  0
  -27.8137  -24.4547   23.8623 C   0  0  0  0  0  0  0  0  0  0  0  0
  -24.3423  -12.8894   20.3242 C   0  0  0  0  0  0  0  0  0  0  0  0
  -26.3361  -24.1954   23.5630 C   0  0  0  0  0  0  0  0  0  0  0  0
  -28.2319  -25.8516   23.4127 C   0  0  0  0  0  0  0  0  0  0  0  0
  -26.4840  -25.8853   21.6756 C   0  0  0  0  0  0  0  0  0  0  0  0
  -25.6404  -13.6842   20.1380 C   0  0  1  0  0  0  0  0  0  0  0  0
  -25.9919  -16.1107   23.0401 C   0  0  1  0  0  0  0  0  0  0  0  0
  -26.0049  -24.4810   22.0862 C   0  0  2  0  0  0  0  0  0  0  0  0
  -29.2221  -24.2363   15.6829 C   0  0  0  0  0  0  0  0  0  0  0  0
  -32.9603  -26.4922   15.2383 C   0  0  0  0  0  0  0  0  0  0  0  0
  -22.8707  -21.4425   27.7126 C   0  0  0  0  0  0  0  0  0  0  0  0
  -32.2365  -27.7220   21.1009 C   0  0  0  0  0  0  0  0  0  0  0  0
  -21.8455  -17.9591   22.1732 C   0  0  0  0  0  0  0  0  0  0  0  0
  -21.1628  -19.8338   23.6856 C   0  0  0  0  0  0  0  0  0  0  0  0
  -21.1434  -17.4853   24.5263 C   0  0  0  0  0  0  0  0  0  0  0  0
  -26.5341  -20.4278   27.5517 C   0  0  0  0  0  0  0  0  0  0  0  0
  -31.7914  -25.6033   19.7859 C   0  0  0  0  0  0  0  0  0  0  0  0
  -31.1807  -25.9727   16.9613 C   0  0  0  0  0  0  0  0  0  0  0  0
  -28.5287  -21.8268   20.0032 C   0  0  0  0  0  0  0  0  0  1  0  0
  -32.2871  -25.4055   16.0616 C   0  0  0  0  0  0  0  0  0  0  0  0
  -23.3562  -18.6488   24.1501 C   0  0  1  0  0  0  0  0  0  0  0  0
  -24.0466  -20.5454   27.3588 C   0  0  2  0  0  0  0  0  0  0  0  0
  -31.1742  -26.8726   20.4101 C   0  0  1  0  0  0  0  0  0  0  0  0
  -21.9032  -18.4808   23.6228 C   0  0  0  0  0  0  0  0  0  0  0  0
  -23.6977  -25.3270   21.8789 N   0  0  0  0  0  0  0  0  0  0  0  0
  -24.5307  -24.2761   21.7908 N   0  0  0  0  0  0  0  0  0  0  0  0
  -25.2998  -17.3747   23.2999 N   0  0  0  0  0  0  0  0  0  0  0  0
  -27.9060  -26.0525   21.9937 N   0  0  0  0  0  0  0  0  0  0  0  0
  -24.6047  -21.9607   21.2965 N   0  0  0  0  0  0  0  0  0  0  0  0
  -20.2393  -22.9970   20.7815 N   0  0  0  0  0  0  0  0  0  0  0  0
  -25.9973  -14.3638   21.3649 N   0  0  0  0  0  0  0  0  0  0  0  0
  -23.4410  -19.1159   25.5296 N   0  0  0  0  0  0  0  0  0  0  0  0
  -30.1322  -26.5348   21.3541 N   0  0  0  0  0  0  0  0  0  0  0  0
  -25.2994  -21.2108   27.8155 N   0  3  0  0  0  0  0  0  0  0  0  0
  -21.7725  -21.2944   20.6870 O   0  0  0  0  0  0  0  0  0  0  0  0
  -24.6829  -16.2649   21.0811 O   0  0  0  0  0  0  0  0  0  0  0  0
  -23.7477  -16.3821   24.7289 O   0  0  0  0  0  0  0  0  0  0  0  0
  -24.6819  -21.0218   25.0770 O   0  0  0  0  0  0  0  0  0  0  0  0
  -28.4531  -26.5405   19.7935 O   0  0  0  0  0  0  0  0  0  0  0  0
  -17.9420  -28.0229   21.4876 O   0  0  0  0  0  0  0  0  0  0  0  0
  -29.4409  -20.7502   20.2159 O   0  0  0  0  0  0  0  0  0  1  0  0
  -17.1932  -31.4989   25.7019 F   0  0  0  0  0  0  0  0  0  0  0  0
  -15.6971  -27.8449   23.0913 F   0  0  0  0  0  0  0  0  0  0  0  0
  1  2  1  0  0  0  0
  1  5  2  0  0  0  0
  2  6  2  0  0  0  0
  3  8  2  0  0  0  0
  3 17  1  0  0  0  0
  4  9  1  0  0  0  0
  4 17  2  0  0  0  0
  5 19  1  0  0  0  0
  6 21  1  0  0  0  0
  7 10  2  0  0  0  0
  7 20  1  0  0  0  0
  8 27  1  0  0  0  0
  9 27  2  0  0  0  0
 10 28  1  0  0  0  0
 11 12  2  0  0  0  0
 11 29  1  0  0  0  0
 12 30  1  0  0  0  0
 13 22  1  0  0  0  0
 13 28  2  0  0  0  0
 14 23  1  0  0  0  0
 14 24  2  0  0  0  0
 15 23  2  0  0  0  0
 15 25  1  0  0  0  0
 16 30  2  0  0  0  0
 16 31  1  0  0  0  0
 17 32  1  0  0  0  0
 18 32  1  0  0  0  0
 18 33  2  0  0  0  0
 18 34  1  0  0  0  0
 19 21  2  0  0  0  0
 19 39  1  0  0  0  0
 20 22  2  0  0  0  0
 20 40  1  0  0  0  0
 21 48  1  0  0  0  0
 22 41  1  0  0  0  0
 23 61  1  0  0  0  0
 24 26  1  0  0  0  0
 24 51  1  0  0  0  0
 25 26  2  0  0  0  0
 25 59  1  0  0  0  0
 26 60  1  0  0  0  0
 27 82  1  0  0  0  0
 28 83  1  0  0  0  0
 29 31  2  0  0  0  0
 29 82  1  0  0  0  0
 30 84  1  0  0  0  0
 31 85  1  0  0  0  0
 32 67  2  0  0  0  0
 33 68  1  0  0  0  0
 33 71  1  0  0  0  0
 34 72  1  0  0  0  0
 34 77  2  0  0  0  0
 35 49  1  0  0  0  0
 35 73  1  0  0  0  0
 35 78  2  0  0  0  0
 36 63  1  0  0  0  0
 36 69  1  0  0  0  0
 36 79  2  0  0  0  0
 37 64  1  0  0  0  0
 37 74  1  0  0  0  0
 37 80  2  0  0  0  0
 38 70  1  0  0  0  0
 38 75  1  0  0  0  0
 38 81  2  0  0  0  0
 39 42  1  0  0  0  0
 40 49  1  0  0  0  0
 41 69  1  0  0  0  0
 42 44  1  0  0  0  0
 43 45  1  0  0  0  0
 43 46  1  0  0  0  0
 44 48  1  0  0  0  0
 45 50  1  0  0  0  0
 46 70  1  0  0  0  0
 47 50  1  0  0  0  0
 47 70  1  0  0  0  0
 48 73  1  0  0  0  0
 49 69  1  0  0  0  0
 50 68  1  0  0  0  0
 52 62  1  0  0  0  0
 53 64  1  0  0  0  0
 54 65  1  0  0  0  0
 55 66  1  0  0  0  0
 56 66  1  0  0  0  0
 57 66  1  0  0  0  0
 58 76  1  0  0  0  0
 59 65  1  0  0  0  0
 60 62  1  0  0  0  0
 61 83  1  0  0  0  0
 63 66  1  0  0  0  0
 63 74  1  0  0  0  0
 64 76  1  0  0  0  0
 65 75  1  0  0  0  0
 67 68  1  0  0  0  0
M  CHG  1  76   1
M  ISO  4  38 100  61 101  75 100  83 101
M  END
> <Batch ID>
0088

> <Smiles>
CCCc1c(C)cc([101CH2:1][101O:1]c2ccc3c(c2)CN(C(=O)C(NC(=O)C(C)NC)C(C)(C)C)C(C(=O)NC2CCCc4ccccc42)C3)cc1CC(C)[100NH:0][100C:0](=O)N1CCCC(n2nc(-c3ccc(Oc4ccc(F)cc4F)cc3)c(C(N)=O)c2N)C1

> <Shape>
0.226

> <Color>
0.069

> <Negative vol penalty>
0.000

$$$$

  -OEChem-04052319043D

 86 94  0     1  0  0  0  0  0999 V2000
  -39.0006  -27.3199   18.1708 C   0  0  0  0  0  0  0  0  0  0  0  0
  -37.9592  -26.4078   18.0329 C   0  0  0  0  0  0  0  0  0  0  0  0
  -22.9865   -9.9049   20.0277 C   0  0  0  0  0  0  0  0  0  0  0  0
  -23.6844  -10.0459   22.3364 C   0  0  0  0  0  0  0  0  0  0  0  0
  -38.9717  -28.2587   19.2012 C   0  0  0  0  0  0  0  0  0  0  0  0
  -36.8887  -26.4333   18.9262 C   0  0  0  0  0  0  0  0  0  0  0  0
  -31.0241  -25.1841   17.6807 C   0  0  0  0  0  0  0  0  0  0  0  0
  -22.2054   -8.7901   20.3319 C   0  0  0  0  0  0  0  0  0  0  0  0
  -22.9033   -8.9311   22.6406 C   0  0  0  0  0  0  0  0  0  0  0  0
  -30.2508  -24.0378   17.8592 C   0  0  0  0  0  0  0  0  0  0  0  0
  -23.1195   -5.5731   22.3125 C   0  0  0  0  0  0  0  0  0  0  0  0
  -23.6876   -4.5829   23.1139 C   0  0  0  0  0  0  0  0  0  0  0  0
  -29.4295  -24.9243   19.9469 C   0  0  0  0  0  0  0  0  0  0  0  0
  -31.3695  -21.5531   21.3759 C   0  0  0  0  0  0  0  0  0  0  0  0
  -21.9463   -4.9127   24.7559 C   0  0  0  0  0  0  0  0  0  0  0  0
  -23.7261  -10.5328   21.0299 C   0  0  0  0  0  0  0  0  0  0  0  0
  -24.1389  -13.0350   20.7532 C   0  0  0  0  0  0  0  0  0  0  0  0
  -37.8956  -28.3020   20.1017 C   0  0  0  0  0  0  0  0  0  0  0  0
  -31.0142  -26.2060   18.6409 C   0  0  0  0  0  0  0  0  0  0  0  0
  -36.8460  -27.3727   19.9704 C   0  0  0  0  0  0  0  0  0  0  0  0
  -30.2015  -26.0837   19.7770 C   0  0  0  0  0  0  0  0  0  0  0  0
  -30.6459  -20.4073   21.0961 C   0  0  0  0  0  0  0  0  0  0  0  0
  -22.1638   -8.3032   21.6384 C   0  0  0  0  0  0  0  0  0  0  0  0
  -29.4556  -23.9065   18.9938 C   0  0  0  0  0  0  0  0  0  0  0  0
  -21.9648   -6.2332   22.7328 C   0  0  0  0  0  0  0  0  0  0  0  0
  -23.1011   -4.2526   24.3356 C   0  0  0  0  0  0  0  0  0  0  0  0
  -21.3782   -5.9029   23.9545 C   0  0  0  0  0  0  0  0  0  0  0  0
  -24.5336  -11.6842   20.7162 C   0  0  0  0  0  0  0  0  0  0  0  0
  -32.7356  -21.4322   21.5327 C   0  0  0  0  0  0  0  0  0  0  0  0
  -31.3363  -19.2165   20.9911 C   0  0  0  0  0  0  0  0  0  0  0  0
  -25.2602  -13.7309   20.3726 C   0  0  0  0  0  0  0  0  0  0  0  0
  -22.8720  -13.6093   21.1006 C   0  0  0  0  0  0  0  0  0  0  0  0
  -33.1981  -27.5217   20.5390 C   0  0  0  0  0  0  0  0  0  0  0  0
  -30.7812  -29.5636   21.2543 C   0  0  0  0  0  0  0  0  0  0  0  0
  -27.4201  -30.1369   21.3998 C   0  0  0  0  0  0  0  0  0  0  0  0
  -30.7623  -14.6223   20.6498 C   0  0  0  0  0  0  0  0  0  0  0  0
  -37.9315  -29.3042   21.2281 C   0  0  0  0  0  0  0  0  0  0  0  0
  -31.8334  -27.4480   18.4205 C   0  0  0  0  0  0  0  0  0  0  0  0
  -30.1398  -27.1612   20.8276 C   0  0  0  0  0  0  0  0  0  0  0  0
  -36.5790  -29.5074   21.9060 C   0  0  0  0  0  0  0  0  0  0  0  0
  -29.6254  -12.1131   18.3943 C   0  0  0  0  0  0  0  0  0  0  0  0
  -35.9213  -28.1626   22.1990 C   0  0  0  0  0  0  0  0  0  0  0  0
  -28.1695  -11.8851   18.8044 C   0  0  0  0  0  0  0  0  0  0  0  0
  -30.5156  -12.3905   19.6037 C   0  0  0  0  0  0  0  0  0  0  0  0
  -28.5977  -13.2600   20.8840 C   0  0  0  0  0  0  0  0  0  0  0  0
  -35.6554  -27.3848   20.9045 C   0  0  1  0  0  0  0  0  0  0  0  0
  -32.1409  -28.1981   19.7128 C   0  0  1  0  0  0  0  0  0  0  0  0
  -27.6512  -13.0317   19.6931 C   0  0  2  0  0  0  0  0  0  0  0  0
  -34.0325  -23.2471   19.3930 C   0  0  0  0  0  0  0  0  0  0  0  0
  -34.2419  -22.5216   23.2164 C   0  0  0  0  0  0  0  0  0  0  0  0
  -25.7469  -31.8858   22.0625 C   0  0  0  0  0  0  0  0  0  0  0  0
  -31.2671  -28.9107   24.1949 C   0  0  0  0  0  0  0  0  0  0  0  0
  -29.0266  -29.9007   24.7129 C   0  0  0  0  0  0  0  0  0  0  0  0
  -30.8189  -31.3253   23.7227 C   0  0  0  0  0  0  0  0  0  0  0  0
  -26.3338  -30.3047   18.6519 C   0  0  0  0  0  0  0  0  0  0  0  0
  -29.1509  -20.4837   20.9149 C   0  0  0  0  0  0  0  0  0  0  0  0
  -30.6232  -17.9411   20.6924 C   0  0  0  0  0  0  0  0  0  0  0  0
  -34.6371  -22.9547   20.7610 C   0  0  0  0  0  0  0  0  0  0  0  0
  -28.7028  -20.4059   19.4538 C   0  0  0  0  0  0  0  0  0  0  0  0
  -30.8529  -16.8484   21.7434 C   0  0  0  0  0  0  0  0  0  0  0  0
  -29.1957  -21.5742   18.6080 C   0  0  0  0  0  0  0  0  0  1  0  0
  -33.5609  -22.6357   21.8355 C   0  0  1  0  0  0  0  0  0  0  0  0
  -29.6745  -29.5926   22.2806 C   0  0  1  0  0  0  0  0  0  0  0  0
  -26.5764  -31.3069   20.9269 C   0  0  2  0  0  0  0  0  0  0  0  0
  -30.1992  -29.9110   23.7091 C   0  0  0  0  0  0  0  0  0  0  0  0
  -25.8062  -11.5289   20.3415 N   0  0  0  0  0  0  0  0  0  0  0  0
  -33.3851  -20.2538   21.4245 N   0  0  0  0  0  0  0  0  0  0  0  0
  -32.6739  -19.1278   21.1491 N   0  0  0  0  0  0  0  0  0  0  0  0
  -26.2208  -12.7912   20.1394 N   0  0  0  0  0  0  0  0  0  0  0  0
  -30.9638  -28.3537   20.5698 N   0  0  0  0  0  0  0  0  0  0  0  0
  -29.9694  -13.4894   20.4037 N   0  0  0  0  0  0  0  0  0  0  0  0
  -25.5083  -15.0488   20.2178 N   0  0  0  0  0  0  0  0  0  0  0  0
  -21.8272  -12.7504   21.4682 N   0  0  0  0  0  0  0  0  0  0  0  0
  -34.4877  -27.9101   20.2300 N   0  0  0  0  0  0  0  0  0  0  0  0
  -28.6818  -30.5392   21.7839 N   0  0  0  0  0  0  0  0  0  0  0  0
  -30.1660  -15.6200   21.4112 N   0  0  0  0  0  0  0  0  0  0  0  0
  -25.6508  -30.8733   19.8424 N   0  3  0  0  0  0  0  0  0  0  0  0
  -22.6675  -14.8466   21.0698 O   0  0  0  0  0  0  0  0  0  0  0  0
  -32.8681  -26.7089   21.3946 O   0  0  0  0  0  0  0  0  0  0  0  0
  -31.4541  -30.5794   21.0617 O   0  0  0  0  0  0  0  0  0  0  0  0
  -27.0005  -28.9821   21.4293 O   0  0  0  0  0  0  0  0  0  0  0  0
  -31.9144  -14.7386   20.2183 O   0  0  0  0  0  0  0  0  0  0  0  0
  -21.4015   -7.2155   21.9356 O   0  0  0  0  0  0  0  0  0  0  0  0
  -28.7004  -22.7884   19.1709 O   0  0  0  0  0  0  0  0  0  1  0  0
  -23.6459   -3.3006   25.1044 F   0  0  0  0  0  0  0  0  0  0  0  0
  -20.2681   -6.5328   24.3630 F   0  0  0  0  0  0  0  0  0  0  0  0
  1  2  1  0  0  0  0
  1  5  2  0  0  0  0
  2  6  2  0  0  0  0
  3  8  2  0  0  0  0
  3 16  1  0  0  0  0
  4  9  1  0  0  0  0
  4 16  2  0  0  0  0
  5 18  1  0  0  0  0
  6 20  1  0  0  0  0
  7 10  2  0  0  0  0
  7 19  1  0  0  0  0
  8 23  1  0  0  0  0
  9 23  2  0  0  0  0
 10 24  1  0  0  0  0
 11 12  2  0  0  0  0
 11 25  1  0  0  0  0
 12 26  1  0  0  0  0
 13 21  1  0  0  0  0
 13 24  2  0  0  0  0
 14 22  2  0  0  0  0
 14 29  1  0  0  0  0
 15 26  2  0  0  0  0
 15 27  1  0  0  0  0
 16 28  1  0  0  0  0
 17 28  1  0  0  0  0
 17 31  2  0  0  0  0
 17 32  1  0  0  0  0
 18 20  2  0  0  0  0
 18 37  1  0  0  0  0
 19 21  2  0  0  0  0
 19 38  1  0  0  0  0
 20 46  1  0  0  0  0
 21 39  1  0  0  0  0
 22 30  1  0  0  0  0
 22 56  1  0  0  0  0
 23 83  1  0  0  0  0
 24 84  1  0  0  0  0
 25 27  2  0  0  0  0
 25 83  1  0  0  0  0
 26 85  1  0  0  0  0
 27 86  1  0  0  0  0
 28 66  2  0  0  0  0
 29 62  1  0  0  0  0
 29 67  2  0  0  0  0
 30 57  1  0  0  0  0
 30 68  2  0  0  0  0
 31 69  1  0  0  0  0
 31 72  1  0  0  0  0
 32 73  1  0  0  0  0
 32 78  2  0  0  0  0
 33 47  1  0  0  0  0
 33 74  1  0  0  0  0
 33 79  2  0  0  0  0
 34 63  1  0  0  0  0
 34 70  1  0  0  0  0
 34 80  2  0  0  0  0
 35 64  1  0  0  0  0
 35 75  1  0  0  0  0
 35 81  2  0  0  0  0
 36 71  1  0  0  0  0
 36 76  1  0  0  0  0
 36 82  2  0  0  0  0
 37 40  1  0  0  0  0
 38 47  1  0  0  0  0
 39 70  1  0  0  0  0
 40 42  1  0  0  0  0
 41 43  1  0  0  0  0
 41 44  1  0  0  0  0
 42 46  1  0  0  0  0
 43 48  1  0  0  0  0
 44 71  1  0  0  0  0
 45 48  1  0  0  0  0
 45 71  1  0  0  0  0
 46 74  1  0  0  0  0
 47 70  1  0  0  0  0
 48 69  1  0  0  0  0
 49 58  1  0  0  0  0
 50 62  1  0  0  0  0
 51 64  1  0  0  0  0
 52 65  1  0  0  0  0
 53 65  1  0  0  0  0
 54 65  1  0  0  0  0
 55 77  1  0  0  0  0
 56 59  1  0  0  0  0
 57 60  1  0  0  0  0
 58 62  1  0  0  0  0
 59 61  1  0  0  0  0
 60 76  1  0  0  0  0
 61 84  1  0  0  0  0
 63 65  1  0  0  0  0
 63 75  1  0  0  0  0
 64 77  1  0  0  0  0
 66 69  1  0  0  0  0
 67 68  1  0  0  0  0
M  CHG  1  77   1
M  ISO  4  36 100  61 101  76 100  84 101
M  END
> <Batch ID>
0088

> <Smiles>
CCC(C)c1cc(CC[101CH2:1][101O:1]c2ccc3c(c2)CN(C(=O)C(NC(=O)C(C)NC)C(C)(C)C)C(C(=O)NC2CCCc4ccccc42)C3)c(CC[100NH:0][100C:0](=O)N2CCCC(n3nc(-c4ccc(Oc5ccc(F)cc5F)cc4)c(C(N)=O)c3N)C2)nn1

> <Shape>
0.296

> <Color>
0.205

> <Negative vol penalty>
0.000

$$$$

  -OEChem-04052319043D

 85 93  0     1  0  0  0  0  0999 V2000
  -25.1158  -33.1350   23.8467 C   0  0  0  0  0  0  0  0  0  0  0  0
  -25.1425  -32.0070   24.6606 C   0  0  0  0  0  0  0  0  0  0  0  0
  -20.3210  -21.8809   22.1447 C   0  0  0  0  0  0  0  0  0  0  0  0
  -21.9639  -21.8729   20.3733 C   0  0  0  0  0  0  0  0  0  0  0  0
  -24.9193  -32.9977   22.4733 C   0  0  0  0  0  0  0  0  0  0  0  0
  -24.9715  -30.7411   24.1016 C   0  0  0  0  0  0  0  0  0  0  0  0
  -27.0503  -23.9380   24.9462 C   0  0  0  0  0  0  0  0  0  0  0  0
  -20.6108  -23.2197   22.4075 C   0  0  0  0  0  0  0  0  0  0  0  0
  -22.2537  -23.2118   20.6361 C   0  0  0  0  0  0  0  0  0  0  0  0
  -26.5163  -22.6562   25.0712 C   0  0  0  0  0  0  0  0  0  0  0  0
  -20.6618  -26.7416   23.3068 C   0  0  0  0  0  0  0  0  0  0  0  0
  -19.5888  -27.6116   23.5002 C   0  0  0  0  0  0  0  0  0  0  0  0
  -26.2633  -22.5344   22.6753 C   0  0  0  0  0  0  0  0  0  0  0  0
  -28.3423  -16.5628   19.2925 C   0  0  0  0  0  0  0  0  0  0  0  0
  -27.3596  -16.8666   21.4786 C   0  0  0  0  0  0  0  0  0  0  0  0
  -18.7813  -27.1095   21.2792 C   0  0  0  0  0  0  0  0  0  0  0  0
  -20.9975  -21.2075   21.1276 C   0  0  0  0  0  0  0  0  0  0  0  0
  -19.7336  -19.3225   19.9626 C   0  0  0  0  0  0  0  0  0  0  0  0
  -24.7554  -31.7287   21.8958 C   0  0  0  0  0  0  0  0  0  0  0  0
  -27.1849  -24.5329   23.6835 C   0  0  0  0  0  0  0  0  0  0  0  0
  -24.7712  -30.5867   22.7192 C   0  0  0  0  0  0  0  0  0  0  0  0
  -26.8017  -23.8228   22.5367 C   0  0  0  0  0  0  0  0  0  0  0  0
  -27.7059  -16.0331   20.4150 C   0  0  0  0  0  0  0  0  0  0  0  0
  -28.6326  -17.9259   19.2336 C   0  0  0  0  0  0  0  0  0  0  0  0
  -28.2862  -18.7593   20.2971 C   0  0  0  0  0  0  0  0  0  0  0  0
  -27.6498  -18.2297   21.4196 C   0  0  0  0  0  0  0  0  0  0  0  0
  -21.5771  -23.8852   21.6532 C   0  0  0  0  0  0  0  0  0  0  0  0
  -26.1200  -21.9553   23.9360 C   0  0  0  0  0  0  0  0  0  0  0  0
  -20.7947  -26.0557   22.0995 C   0  0  0  0  0  0  0  0  0  0  0  0
  -18.6486  -27.7955   22.4864 C   0  0  0  0  0  0  0  0  0  0  0  0
  -19.8544  -26.2396   21.0857 C   0  0  0  0  0  0  0  0  0  0  0  0
  -20.6990  -19.8243   20.8560 C   0  0  0  0  0  0  0  0  0  0  0  0
  -19.8434  -17.9576   20.0695 C   0  0  0  0  0  0  0  0  0  0  0  0
  -18.8194  -20.0273   19.1122 C   0  0  0  0  0  0  0  0  0  0  0  0
  -25.9882  -27.1249   22.2860 C   0  0  0  0  0  0  0  0  0  0  0  0
  -28.0334  -26.3089   19.9041 C   0  0  0  0  0  0  0  0  0  0  0  0
  -29.8404  -23.8688   18.3461 C   0  0  0  0  0  0  0  0  0  0  0  0
  -24.3242  -14.3442   21.7179 C   0  0  0  0  0  0  0  0  0  0  0  0
  -24.4986  -31.6337   20.4127 C   0  0  0  0  0  0  0  0  0  0  0  0
  -27.7876  -25.9058   23.5634 C   0  0  0  0  0  0  0  0  0  0  0  0
  -26.9441  -24.4088   21.1566 C   0  0  0  0  0  0  0  0  0  0  0  0
  -24.6997  -30.2297   19.8483 C   0  0  0  0  0  0  0  0  0  0  0  0
  -21.0798  -14.5320   23.1723 C   0  0  0  0  0  0  0  0  0  0  0  0
  -24.0149  -29.1947   20.7353 C   0  0  0  0  0  0  0  0  0  0  0  0
  -20.5272  -15.8644   22.6630 C   0  0  0  0  0  0  0  0  0  0  0  0
  -22.5784  -14.6135   23.4546 C   0  0  0  0  0  0  0  0  0  0  0  0
  -22.8419  -16.4392   21.8202 C   0  0  0  0  0  0  0  0  0  0  0  0
  -24.6143  -29.1947   22.1468 C   0  0  1  0  0  0  0  0  0  0  0  0
  -27.4020  -26.6165   22.2697 C   0  0  1  0  0  0  0  0  0  0  0  0
  -21.3452  -16.3908   21.4684 C   0  0  2  0  0  0  0  0  0  0  0  0
  -29.3148  -18.4675   18.0202 C   0  0  0  0  0  0  0  0  0  0  0  0
  -28.6002  -20.2209   20.2301 C   0  0  0  0  0  0  0  0  0  0  0  0
  -31.3852  -23.4980   16.4035 C   0  0  0  0  0  0  0  0  0  0  0  0
  -25.7309  -19.2348   25.9237 C   0  0  0  0  0  0  0  0  0  0  0  0
  -25.6548  -26.4131   17.9958 C   0  0  0  0  0  0  0  0  0  0  0  0
  -27.0246  -25.1416   16.3299 C   0  0  0  0  0  0  0  0  0  0  0  0
  -27.7654  -27.4000   17.0870 C   0  0  0  0  0  0  0  0  0  0  0  0
  -32.0467  -22.9999   20.1171 C   0  0  0  0  0  0  0  0  0  0  0  0
  -27.3977  -14.5754   20.4786 C   0  0  0  0  0  0  0  0  0  0  0  0
  -26.0200  -14.2135   19.9106 C   0  0  0  0  0  0  0  0  0  0  0  0
  -26.6357  -18.5577   23.6756 C   0  0  0  0  0  0  0  0  0  0  0  0
  -27.9482  -25.4395   18.6728 C   0  0  1  0  0  0  0  0  0  0  0  0
  -31.2863  -23.8248   17.8855 C   0  0  2  0  0  0  0  0  0  0  0  0
  -26.4260  -19.7095   24.6559 C   0  0  1  0  0  0  0  0  0  1  0  0
  -27.0937  -26.0880   17.5474 C   0  0  0  0  0  0  0  0  0  0  0  0
  -21.3724  -18.8569   21.4842 N   0  0  0  0  0  0  0  0  0  0  0  0
  -20.8293  -17.7335   20.9849 N   0  0  0  0  0  0  0  0  0  0  0  0
  -27.5330  -25.7566   21.0917 N   0  0  0  0  0  0  0  0  0  0  0  0
  -23.2964  -15.1181   22.2817 N   0  0  0  0  0  0  0  0  0  0  0  0
  -19.1919  -16.9393   19.4688 N   0  0  0  0  0  0  0  0  0  0  0  0
  -18.8394  -21.4286   19.1255 N   0  0  0  0  0  0  0  0  0  0  0  0
  -27.2971  -19.0412   22.4849 N   0  0  0  0  0  0  0  0  0  0  0  0
  -25.8820  -28.4966   22.1576 N   0  0  0  0  0  0  0  0  0  0  0  0
  -29.3235  -25.1456   18.2847 N   0  0  0  0  0  0  0  0  0  0  0  0
  -24.9489  -14.8931   20.6047 N   0  0  0  0  0  0  0  0  0  0  0  0
  -32.0411  -22.7894   18.6465 N   0  3  0  0  0  0  0  0  0  0  0  0
  -17.9975  -19.4320   18.3749 O   0  0  0  0  0  0  0  0  0  0  0  0
  -25.0620  -26.3312   22.4047 O   0  0  0  0  0  0  0  0  0  0  0  0
  -28.5322  -27.4337   19.8168 O   0  0  0  0  0  0  0  0  0  0  0  0
  -29.2295  -22.8697   18.7192 O   0  0  0  0  0  0  0  0  0  0  0  0
  -24.6565  -13.2431   22.1696 O   0  0  0  0  0  0  0  0  0  0  0  0
  -21.8601  -25.1917   21.9093 O   0  0  0  0  0  0  0  0  0  0  0  0
  -25.5979  -20.7043   24.0553 O   0  0  0  0  0  0  0  0  0  1  0  0
  -17.6174  -28.6298   22.6729 F   0  0  0  0  0  0  0  0  0  0  0  0
  -19.9761  -25.5824   19.9242 F   0  0  0  0  0  0  0  0  0  0  0  0
  1  2  1  0  0  0  0
  1  5  2  0  0  0  0
  2  6  2  0  0  0  0
  3  8  2  0  0  0  0
  3 17  1  0  0  0  0
  4  9  1  0  0  0  0
  4 17  2  0  0  0  0
  5 19  1  0  0  0  0
  6 21  1  0  0  0  0
  7 10  2  0  0  0  0
  7 20  1  0  0  0  0
  8 27  1  0  0  0  0
  9 27  2  0  0  0  0
 10 28  1  0  0  0  0
 11 12  2  0  0  0  0
 11 29  1  0  0  0  0
 12 30  1  0  0  0  0
 13 22  1  0  0  0  0
 13 28  2  0  0  0  0
 14 23  1  0  0  0  0
 14 24  2  0  0  0  0
 15 23  2  0  0  0  0
 15 26  1  0  0  0  0
 16 30  2  0  0  0  0
 16 31  1  0  0  0  0
 17 32  1  0  0  0  0
 18 32  1  0  0  0  0
 18 33  2  0  0  0  0
 18 34  1  0  0  0  0
 19 21  2  0  0  0  0
 19 39  1  0  0  0  0
 20 22  2  0  0  0  0
 20 40  1  0  0  0  0
 21 48  1  0  0  0  0
 22 41  1  0  0  0  0
 23 59  1  0  0  0  0
 24 25  1  0  0  0  0
 24 51  1  0  0  0  0
 25 26  2  0  0  0  0
 25 52  1  0  0  0  0
 26 72  1  0  0  0  0
 27 82  1  0  0  0  0
 28 83  1  0  0  0  0
 29 31  2  0  0  0  0
 29 82  1  0  0  0  0
 30 84  1  0  0  0  0
 31 85  1  0  0  0  0
 32 66  2  0  0  0  0
 33 67  1  0  0  0  0
 33 70  1  0  0  0  0
 34 71  1  0  0  0  0
 34 77  2  0  0  0  0
 35 49  1  0  0  0  0
 35 73  1  0  0  0  0
 35 78  2  0  0  0  0
 36 62  1  0  0  0  0
 36 68  1  0  0  0  0
 36 79  2  0  0  0  0
 37 63  1  0  0  0  0
 37 74  1  0  0  0  0
 37 80  2  0  0  0  0
 38 69  1  0  0  0  0
 38 75  1  0  0  0  0
 38 81  2  0  0  0  0
 39 42  1  0  0  0  0
 40 49  1  0  0  0  0
 41 68  1  0  0  0  0
 42 44  1  0  0  0  0
 43 45  1  0  0  0  0
 43 46  1  0  0  0  0
 44 48  1  0  0  0  0
 45 50  1  0  0  0  0
 46 69  1  0  0  0  0
 47 50  1  0  0  0  0
 47 69  1  0  0  0  0
 48 73  1  0  0  0  0
 49 68  1  0  0  0  0
 50 67  1  0  0  0  0
 53 63  1  0  0  0  0
 54 64  1  0  0  0  0
 55 65  1  0  0  0  0
 56 65  1  0  0  0  0
 57 65  1  0  0  0  0
 58 76  1  0  0  0  0
 59 60  1  0  0  0  0
 60 75  1  0  0  0  0
 61 64  1  0  0  0  0
 61 72  1  0  0  0  0
 62 65  1  0  0  0  0
 62 74  1  0  0  0  0
 63 76  1  0  0  0  0
 64 83  1  0  0  0  0
 66 67  1  0  0  0  0
M  CHG  1  76   1
M  ISO  4  38 100  64 101  75 100  83 101
M  END
> <Batch ID>
0088

> <Smiles>
CNC(C)C(=O)NC(C(=O)N1Cc2cc([101O:1][101CH:1](C)CNc3cc(CC[100NH:0][100C:0](=O)N4CCCC(n5nc(-c6ccc(Oc7ccc(F)cc7F)cc6)c(C(N)=O)c5N)C4)cc(C)c3C)ccc2CC1C(=O)NC1CCCc2ccccc21)C(C)(C)C

> <Shape>
0.197

> <Color>
0.068

> <Negative vol penalty>
0.000

$$$$

  -OEChem-04052319043D

 90 98  0     1  0  0  0  0  0999 V2000
  -17.0350  -29.7972   24.6347 C   0  0  0  0  0  0  0  0  0  0  0  0
  -17.4380  -28.5523   24.1622 C   0  0  0  0  0  0  0  0  0  0  0  0
  -22.7904  -13.0744   22.9139 C   0  0  0  0  0  0  0  0  0  0  0  0
  -22.7115  -14.7771   21.2017 C   0  0  0  0  0  0  0  0  0  0  0  0
  -17.6079  -30.9575   24.1156 C   0  0  0  0  0  0  0  0  0  0  0  0
  -18.4134  -28.4671   23.1694 C   0  0  0  0  0  0  0  0  0  0  0  0
  -22.6837  -24.1186   22.5677 C   0  0  0  0  0  0  0  0  0  0  0  0
  -21.7466  -13.7059   23.5900 C   0  0  0  0  0  0  0  0  0  0  0  0
  -21.6676  -15.4086   21.8778 C   0  0  0  0  0  0  0  0  0  0  0  0
  -22.7542  -22.9773   21.7701 C   0  0  0  0  0  0  0  0  0  0  0  0
  -19.2236  -17.6681   23.3377 C   0  0  0  0  0  0  0  0  0  0  0  0
  -19.2874  -19.0543   23.4791 C   0  0  0  0  0  0  0  0  0  0  0  0
  -24.0347  -24.2057   20.1360 C   0  0  0  0  0  0  0  0  0  0  0  0
  -27.6917  -19.9382   18.6876 C   0  0  0  0  0  0  0  0  0  0  0  0
  -29.2893  -18.6494   20.5769 C   0  0  0  0  0  0  0  0  0  0  0  0
  -21.3656  -18.8349   24.6915 C   0  0  0  0  0  0  0  0  0  0  0  0
  -23.2730  -13.6101   21.7197 C   0  0  0  0  0  0  0  0  0  0  0  0
  -24.2450  -11.9609   20.0336 C   0  0  0  0  0  0  0  0  0  0  0  0
  -18.5978  -30.8860   23.1228 C   0  0  0  0  0  0  0  0  0  0  0  0
  -23.2798  -25.3171   22.1496 C   0  0  0  0  0  0  0  0  0  0  0  0
  -18.9992  -29.6275   22.6356 C   0  0  0  0  0  0  0  0  0  0  0  0
  -23.9725  -25.3602   20.9313 C   0  0  0  0  0  0  0  0  0  0  0  0
  -27.3250  -19.9468   20.0333 C   0  0  0  0  0  0  0  0  0  0  0  0
  -29.6560  -18.6408   19.2311 C   0  0  0  0  0  0  0  0  0  0  0  0
  -28.1238  -19.3024   20.9780 C   0  0  0  0  0  0  0  0  0  0  0  0
  -28.8572  -19.2852   18.2864 C   0  0  0  0  0  0  0  0  0  0  0  0
  -21.1851  -14.8730   23.0720 C   0  0  0  0  0  0  0  0  0  0  0  0
  -23.4274  -23.0215   20.5528 C   0  0  0  0  0  0  0  0  0  0  0  0
  -20.2307  -16.8653   23.8732 C   0  0  0  0  0  0  0  0  0  0  0  0
  -20.3584  -19.6377   24.1559 C   0  0  0  0  0  0  0  0  0  0  0  0
  -21.3018  -17.4487   24.5501 C   0  0  0  0  0  0  0  0  0  0  0  0
  -24.3516  -12.9585   21.0211 C   0  0  0  0  0  0  0  0  0  0  0  0
  -25.5443  -11.6772   19.6905 C   0  0  0  0  0  0  0  0  0  0  0  0
  -23.0760  -11.3457   19.4763 C   0  0  0  0  0  0  0  0  0  0  0  0
  -22.2148  -28.2329   21.4661 C   0  0  0  0  0  0  0  0  0  0  0  0
  -25.3780  -28.9060   21.2143 C   0  0  0  0  0  0  0  0  0  0  0  0
  -28.5467  -27.7682   20.6556 C   0  0  0  0  0  0  0  0  0  0  0  0
  -30.6224  -14.8357   19.9870 C   0  0  0  0  0  0  0  0  0  0  0  0
  -19.1541  -32.1694   22.5587 C   0  0  0  0  0  0  0  0  0  0  0  0
  -23.2175  -26.5322   23.0339 C   0  0  0  0  0  0  0  0  0  0  0  0
  -24.6467  -26.6166   20.4464 C   0  0  0  0  0  0  0  0  0  0  0  0
  -20.4501  -31.9789   21.7749 C   0  0  0  0  0  0  0  0  0  0  0  0
  -29.9772  -11.6736   21.4907 C   0  0  0  0  0  0  0  0  0  0  0  0
  -20.3253  -30.7997   20.8154 C   0  0  0  0  0  0  0  0  0  0  0  0
  -28.4526  -11.5543   21.4518 C   0  0  0  0  0  0  0  0  0  0  0  0
  -30.4244  -13.1100   21.7531 C   0  0  0  0  0  0  0  0  0  0  0  0
  -28.3337  -13.9936   20.7928 C   0  0  0  0  0  0  0  0  0  0  0  0
  -20.0722  -29.4931   21.5770 C   0  0  1  0  0  0  0  0  0  0  0  0
  -23.4205  -27.8375   22.2708 C   0  0  1  0  0  0  0  0  0  0  0  0
  -27.8352  -12.5734   20.4753 C   0  0  2  0  0  0  0  0  0  0  0  0
  -29.0213  -21.4431   23.0161 C   0  0  0  0  0  0  0  0  0  0  0  0
  -29.4892  -20.7085   16.3044 C   0  0  0  0  0  0  0  0  0  0  0  0
  -28.1802  -18.5814   15.9626 C   0  0  0  0  0  0  0  0  0  0  0  0
  -27.4711  -17.8684   22.9294 C   0  0  0  0  0  0  0  0  0  0  0  0
  -30.9209  -28.5604   20.4751 C   0  0  0  0  0  0  0  0  0  0  0  0
  -22.2593  -19.8643   19.9877 C   0  0  0  0  0  0  0  0  0  0  0  0
  -24.7912  -30.0240   18.4366 C   0  0  0  0  0  0  0  0  0  0  0  0
  -27.2444  -29.9116   17.9494 C   0  0  0  0  0  0  0  0  0  0  0  0
  -26.4053  -31.3764   19.7859 C   0  0  0  0  0  0  0  0  0  0  0  0
  -29.4026  -26.0891   22.9374 C   0  0  0  0  0  0  0  0  0  0  0  0
  -26.0612  -20.6598   20.4432 C   0  0  0  0  0  0  0  0  0  0  0  0
  -30.9078  -17.9346   18.8251 C   0  0  0  0  0  0  0  0  0  0  0  0
  -28.8016  -19.9723   23.3488 C   0  0  0  0  0  0  0  0  0  0  0  0
  -24.7773  -19.8889   20.1033 C   0  0  0  0  0  0  0  0  0  0  0  0
  -30.6585  -16.5576   18.2001 C   0  0  0  0  0  0  0  0  0  0  0  0
  -29.2292  -19.2886   16.8400 C   0  0  0  0  0  0  0  0  0  0  0  0
  -27.7517  -19.2988   22.4244 C   0  0  1  0  0  0  0  0  0  0  0  0
  -26.3937  -28.8675   20.0981 C   0  0  1  0  0  0  0  0  0  0  0  0
  -29.8482  -28.0062   21.3997 C   0  0  2  0  0  0  0  0  0  0  0  0
  -23.4865  -20.6468   20.4376 C   0  0  1  0  0  0  0  0  0  1  0  0
  -26.1944  -30.0216   19.0754 C   0  0  0  0  0  0  0  0  0  0  0  0
  -25.6186  -13.2864   21.2882 N   0  0  0  0  0  0  0  0  0  0  0  0
  -26.3200  -12.4902   20.4634 N   0  0  0  0  0  0  0  0  0  0  0  0
  -24.5525  -27.7801   21.3437 N   0  0  0  0  0  0  0  0  0  0  0  0
  -29.8047  -14.0257   20.7921 N   0  0  0  0  0  0  0  0  0  0  0  0
  -26.0876  -10.8140   18.8060 N   0  0  0  0  0  0  0  0  0  0  0  0
  -21.8191  -11.7549   19.9422 N   0  0  0  0  0  0  0  0  0  0  0  0
  -21.3019  -29.0025   22.1616 N   0  0  0  0  0  0  0  0  0  0  0  0
  -27.7043  -28.8567   20.7389 N   0  0  0  0  0  0  0  0  0  0  0  0
  -29.9547  -15.6700   19.0988 N   0  0  0  0  0  0  0  0  0  0  0  0
  -30.3483  -26.7321   21.9892 N   0  3  0  0  0  0  0  0  0  0  0  0
  -23.1446  -10.4477   18.6031 O   0  0  0  0  0  0  0  0  0  0  0  0
  -22.1205  -27.8681   20.3000 O   0  0  0  0  0  0  0  0  0  0  0  0
  -25.3241  -29.8954   21.9489 O   0  0  0  0  0  0  0  0  0  0  0  0
  -28.3032  -26.7228   20.0569 O   0  0  0  0  0  0  0  0  0  0  0  0
  -31.8563  -14.8129   20.0509 O   0  0  0  0  0  0  0  0  0  0  0  0
  -20.1663  -15.4893   23.7314 O   0  0  0  0  0  0  0  0  0  0  0  0
  -23.4972  -21.9090   19.7720 O   0  0  0  0  0  0  0  0  0  1  0  0
  -20.4204  -20.9690   24.2903 F   0  0  0  0  0  0  0  0  0  0  0  0
  -22.2730  -16.6827   25.0657 F   0  0  0  0  0  0  0  0  0  0  0  0
  1  2  1  0  0  0  0
  1  5  2  0  0  0  0
  2  6  2  0  0  0  0
  3  8  2  0  0  0  0
  3 17  1  0  0  0  0
  4  9  1  0  0  0  0
  4 17  2  0  0  0  0
  5 19  1  0  0  0  0
  6 21  1  0  0  0  0
  7 10  2  0  0  0  0
  7 20  1  0  0  0  0
  8 27  1  0  0  0  0
  9 27  2  0  0  0  0
 10 28  1  0  0  0  0
 11 12  2  0  0  0  0
 11 29  1  0  0  0  0
 12 30  1  0  0  0  0
 13 22  1  0  0  0  0
 13 28  2  0  0  0  0
 14 23  1  0  0  0  0
 14 26  2  0  0  0  0
 15 24  2  0  0  0  0
 15 25  1  0  0  0  0
 16 30  2  0  0  0  0
 16 31  1  0  0  0  0
 17 32  1  0  0  0  0
 18 32  1  0  0  0  0
 18 33  2  0  0  0  0
 18 34  1  0  0  0  0
 19 21  2  0  0  0  0
 19 39  1  0  0  0  0
 20 22  2  0  0  0  0
 20 40  1  0  0  0  0
 21 48  1  0  0  0  0
 22 41  1  0  0  0  0
 23 25  2  0  0  0  0
 23 61  1  0  0  0  0
 24 26  1  0  0  0  0
 24 62  1  0  0  0  0
 25 67  1  0  0  0  0
 26 66  1  0  0  0  0
 27 87  1  0  0  0  0
 28 88  1  0  0  0  0
 29 31  2  0  0  0  0
 29 87  1  0  0  0  0
 30 89  1  0  0  0  0
 31 90  1  0  0  0  0
 32 72  2  0  0  0  0
 33 73  1  0  0  0  0
 33 76  1  0  0  0  0
 34 77  1  0  0  0  0
 34 82  2  0  0  0  0
 35 49  1  0  0  0  0
 35 78  1  0  0  0  0
 35 83  2  0  0  0  0
 36 68  1  0  0  0  0
 36 74  1  0  0  0  0
 36 84  2  0  0  0  0
 37 69  1  0  0  0  0
 37 79  1  0  0  0  0
 37 85  2  0  0  0  0
 38 75  1  0  0  0  0
 38 80  1  0  0  0  0
 38 86  2  0  0  0  0
 39 42  1  0  0  0  0
 40 49  1  0  0  0  0
 41 74  1  0  0  0  0
 42 44  1  0  0  0  0
 43 45  1  0  0  0  0
 43 46  1  0  0  0  0
 44 48  1  0  0  0  0
 45 50  1  0  0  0  0
 46 75  1  0  0  0  0
 47 50  1  0  0  0  0
 47 75  1  0  0  0  0
 48 78  1  0  0  0  0
 49 74  1  0  0  0  0
 50 73  1  0  0  0  0
 51 63  1  0  0  0  0
 52 66  1  0  0  0  0
 53 66  1  0  0  0  0
 54 67  1  0  0  0  0
 55 69  1  0  0  0  0
 56 70  1  0  0  0  0
 57 71  1  0  0  0  0
 58 71  1  0  0  0  0
 59 71  1  0  0  0  0
 60 81  1  0  0  0  0
 61 64  1  0  0  0  0
 62 65  1  0  0  0  0
 63 67  1  0  0  0  0
 64 70  1  0  0  0  0
 65 80  1  0  0  0  0
 68 71  1  0  0  0  0
 68 79  1  0  0  0  0
 69 81  1  0  0  0  0
 70 88  1  0  0  0  0
 72 73  1  0  0  0  0
M  CHG  1  81   1
M  ISO  4  38 100  70 101  80 100  88 101
M  END
> <Batch ID>
0088

> <Smiles>
CCC(C)c1cc(CC[100NH:0][100C:0](=O)N2CCCC(n3nc(-c4ccc(Oc5ccc(F)cc5F)cc4)c(C(N)=O)c3N)C2)c(C(C)C)cc1CC[101CH:1](C)[101O:1]c1ccc2c(c1)CN(C(=O)C(NC(=O)C(C)NC)C(C)(C)C)C(C(=O)NC1CCCc3ccccc31)C2

> <Shape>
0.227

> <Color>
0.091

> <Negative vol penalty>
0.000

$$$$

  -OEChem-04052319043D

 87 95  0     1  0  0  0  0  0999 V2000
  -16.9993  -28.9172   24.3724 C   0  0  0  0  0  0  0  0  0  0  0  0
  -17.4195  -28.0140   23.4012 C   0  0  0  0  0  0  0  0  0  0  0  0
  -22.3746  -10.1436   20.7821 C   0  0  0  0  0  0  0  0  0  0  0  0
  -24.6890   -9.4511   20.8138 C   0  0  0  0  0  0  0  0  0  0  0  0
  -17.6436  -30.1465   24.5049 C   0  0  0  0  0  0  0  0  0  0  0  0
  -18.4837  -28.3402   22.5612 C   0  0  0  0  0  0  0  0  0  0  0  0
  -22.6996  -24.5139   20.3049 C   0  0  0  0  0  0  0  0  0  0  0  0
  -26.4770  -22.9627   14.7424 C   0  0  0  0  0  0  0  0  0  0  0  0
  -27.8320  -23.2865   14.8113 C   0  0  0  0  0  0  0  0  0  0  0  0
  -21.9780   -8.8296   21.0302 C   0  0  0  0  0  0  0  0  0  0  0  0
  -24.2924   -8.1370   21.0620 C   0  0  0  0  0  0  0  0  0  0  0  0
  -22.8223  -23.8749   19.0718 C   0  0  0  0  0  0  0  0  0  0  0  0
  -21.7855   -6.7450   23.6854 C   0  0  0  0  0  0  0  0  0  0  0  0
  -20.7998   -6.5366   24.6501 C   0  0  0  0  0  0  0  0  0  0  0  0
  -24.2791  -25.6399   18.3090 C   0  0  0  0  0  0  0  0  0  0  0  0
  -26.6662  -21.7304   16.8119 C   0  0  0  0  0  0  0  0  0  0  0  0
  -19.3838   -5.5122   22.9819 C   0  0  0  0  0  0  0  0  0  0  0  0
  -23.7302  -10.4544   20.6739 C   0  0  0  0  0  0  0  0  0  0  0  0
  -24.4259  -12.8081   21.3695 C   0  0  0  0  0  0  0  0  0  0  0  0
  -18.7224  -30.4840   23.6725 C   0  0  0  0  0  0  0  0  0  0  0  0
  -23.3581  -25.7283   20.5459 C   0  0  0  0  0  0  0  0  0  0  0  0
  -19.1421  -29.5758   22.6818 C   0  0  0  0  0  0  0  0  0  0  0  0
  -24.1651  -26.2909   19.5468 C   0  0  0  0  0  0  0  0  0  0  0  0
  -25.8941  -22.1847   15.7427 C   0  0  0  0  0  0  0  0  0  0  0  0
  -28.6041  -22.8322   15.8805 C   0  0  0  0  0  0  0  0  0  0  0  0
  -28.0212  -22.0542   16.8808 C   0  0  0  0  0  0  0  0  0  0  0  0
  -22.9368   -7.8263   21.1702 C   0  0  0  0  0  0  0  0  0  0  0  0
  -23.6098  -24.4393   18.0727 C   0  0  0  0  0  0  0  0  0  0  0  0
  -21.5703   -6.3371   22.3690 C   0  0  0  0  0  0  0  0  0  0  0  0
  -19.5990   -5.9201   24.2984 C   0  0  0  0  0  0  0  0  0  0  0  0
  -20.3695   -5.7207   22.0172 C   0  0  0  0  0  0  0  0  0  0  0  0
  -24.1405  -11.8115   20.4170 C   0  0  0  0  0  0  0  0  0  0  0  0
  -24.7665  -13.9093   20.6227 C   0  0  0  0  0  0  0  0  0  0  0  0
  -24.3866  -12.7440   22.8013 C   0  0  0  0  0  0  0  0  0  0  0  0
  -22.4251  -28.6871   21.2377 C   0  0  0  0  0  0  0  0  0  0  0  0
  -25.6113  -29.1971   21.5695 C   0  0  0  0  0  0  0  0  0  0  0  0
  -28.7943  -28.2529   20.7797 C   0  0  0  0  0  0  0  0  0  0  0  0
  -27.5121  -16.2381   16.3584 C   0  0  0  0  0  0  0  0  0  0  0  0
  -19.3570  -31.8439   23.8220 C   0  0  0  0  0  0  0  0  0  0  0  0
  -23.2369  -26.3913   21.8906 C   0  0  0  0  0  0  0  0  0  0  0  0
  -24.9090  -27.5827   19.7623 C   0  0  0  0  0  0  0  0  0  0  0  0
  -20.7179  -31.9593   23.1402 C   0  0  0  0  0  0  0  0  0  0  0  0
  -24.3398  -14.7810   15.6583 C   0  0  0  0  0  0  0  0  0  0  0  0
  -20.6609  -31.3751   21.7323 C   0  0  0  0  0  0  0  0  0  0  0  0
  -24.0320  -13.9563   16.9094 C   0  0  0  0  0  0  0  0  0  0  0  0
  -25.8275  -14.7516   15.3149 C   0  0  0  0  0  0  0  0  0  0  0  0
  -26.4176  -14.3191   17.6683 C   0  0  0  0  0  0  0  0  0  0  0  0
  -20.3087  -29.8831   21.7681 C   0  0  1  0  0  0  0  0  0  0  0  0
  -23.5395  -27.8860   21.8492 C   0  0  1  0  0  0  0  0  0  0  0  0
  -24.9380  -14.3640   18.0867 C   0  0  2  0  0  0  0  0  0  0  0  0
  -30.0531  -23.1907   15.9321 C   0  0  0  0  0  0  0  0  0  0  0  0
  -24.2180  -20.3174   15.5543 C   0  0  0  0  0  0  0  0  0  0  0  0
  -31.1910  -28.8849   21.1713 C   0  0  0  0  0  0  0  0  0  0  0  0
  -30.7314  -20.0533   18.7218 C   0  0  0  0  0  0  0  0  0  0  0  0
  -27.9264  -18.8439   19.3879 C   0  0  0  0  0  0  0  0  0  0  0  0
  -25.3171  -31.5173   19.6098 C   0  0  0  0  0  0  0  0  0  0  0  0
  -27.8028  -31.4896   19.3119 C   0  0  0  0  0  0  0  0  0  0  0  0
  -26.8224  -31.9776   21.5532 C   0  0  0  0  0  0  0  0  0  0  0  0
  -29.3920  -25.6522   22.0595 C   0  0  0  0  0  0  0  0  0  0  0  0
  -28.8282  -21.5563   18.0348 C   0  0  0  0  0  0  0  0  0  0  0  0
  -29.1722  -17.6504   17.5454 C   0  0  0  0  0  0  0  0  0  0  0  0
  -23.6299  -22.3947   16.8582 C   0  0  0  0  0  0  0  0  0  1  0  0
  -24.4170  -21.8315   15.6671 C   0  0  1  0  0  0  0  0  0  0  0  0
  -26.7283  -29.6196   20.6460 C   0  0  1  0  0  0  0  0  0  0  0  0
  -30.0232  -28.0327   21.6432 C   0  0  2  0  0  0  0  0  0  0  0  0
  -29.4974  -20.1699   17.8158 C   0  0  2  0  0  0  0  0  0  0  0  0
  -28.5091  -18.9729   17.9742 C   0  0  2  0  0  0  0  0  0  0  0  0
  -26.6522  -31.1277   20.2752 C   0  0  0  0  0  0  0  0  0  0  0  0
  -24.2869  -12.2416   19.1610 N   0  0  0  0  0  0  0  0  0  0  0  0
  -24.6680  -13.5206   19.3191 N   0  0  0  0  0  0  0  0  0  0  0  0
  -24.7537  -28.1961   21.0917 N   0  0  0  0  0  0  0  0  0  0  0  0
  -26.6312  -15.1501   16.4731 N   0  0  0  0  0  0  0  0  0  0  0  0
  -25.1377  -15.1625   20.9605 N   0  0  0  0  0  0  0  0  0  0  0  0
  -24.0158  -11.5353   23.4061 N   0  0  0  0  0  0  0  0  0  0  0  0
  -21.4660  -29.0993   22.1431 N   0  0  0  0  0  0  0  0  0  0  0  0
  -27.9708  -29.2276   21.3023 N   0  0  0  0  0  0  0  0  0  0  0  0
  -28.2312  -16.5533   17.5049 N   0  0  0  0  0  0  0  0  0  0  0  0
  -30.4376  -26.6019   21.5993 N   0  3  0  0  0  0  0  0  0  0  0  0
  -24.6560  -13.7342   23.5227 O   0  0  0  0  0  0  0  0  0  0  0  0
  -22.4353  -28.9156   20.0338 O   0  0  0  0  0  0  0  0  0  0  0  0
  -25.5079  -29.7304   22.6770 O   0  0  0  0  0  0  0  0  0  0  0  0
  -28.5874  -27.6257   19.7432 O   0  0  0  0  0  0  0  0  0  0  0  0
  -27.6438  -16.8844   15.3135 O   0  0  0  0  0  0  0  0  0  0  0  0
  -22.5502   -6.5440   21.4126 O   0  0  0  0  0  0  0  0  0  0  0  0
  -23.7308  -23.8181   16.8680 O   0  0  0  0  0  0  0  0  0  1  0  0
  -18.6531   -5.7187   25.2252 F   0  0  0  0  0  0  0  0  0  0  0  0
  -20.1575   -5.3256   20.7544 F   0  0  0  0  0  0  0  0  0  0  0  0
  1  2  1  0  0  0  0
  1  5  2  0  0  0  0
  2  6  2  0  0  0  0
  3 10  2  0  0  0  0
  3 18  1  0  0  0  0
  4 11  1  0  0  0  0
  4 18  2  0  0  0  0
  5 20  1  0  0  0  0
  6 22  1  0  0  0  0
  7 12  2  0  0  0  0
  7 21  1  0  0  0  0
  8  9  2  0  0  0  0
  8 24  1  0  0  0  0
  9 25  1  0  0  0  0
 10 27  1  0  0  0  0
 11 27  2  0  0  0  0
 12 28  1  0  0  0  0
 13 14  2  0  0  0  0
 13 29  1  0  0  0  0
 14 30  1  0  0  0  0
 15 23  1  0  0  0  0
 15 28  2  0  0  0  0
 16 24  2  0  0  0  0
 16 26  1  0  0  0  0
 17 30  2  0  0  0  0
 17 31  1  0  0  0  0
 18 32  1  0  0  0  0
 19 32  1  0  0  0  0
 19 33  2  0  0  0  0
 19 34  1  0  0  0  0
 20 22  2  0  0  0  0
 20 39  1  0  0  0  0
 21 23  2  0  0  0  0
 21 40  1  0  0  0  0
 22 48  1  0  0  0  0
 23 41  1  0  0  0  0
 24 63  1  0  0  0  0
 25 26  2  0  0  0  0
 25 51  1  0  0  0  0
 26 60  1  0  0  0  0
 27 84  1  0  0  0  0
 28 85  1  0  0  0  0
 29 31  2  0  0  0  0
 29 84  1  0  0  0  0
 30 86  1  0  0  0  0
 31 87  1  0  0  0  0
 32 69  2  0  0  0  0
 33 70  1  0  0  0  0
 33 73  1  0  0  0  0
 34 74  1  0  0  0  0
 34 79  2  0  0  0  0
 35 49  1  0  0  0  0
 35 75  1  0  0  0  0
 35 80  2  0  0  0  0
 36 64  1  0  0  0  0
 36 71  1  0  0  0  0
 36 81  2  0  0  0  0
 37 65  1  0  0  0  0
 37 76  1  0  0  0  0
 37 82  2  0  0  0  0
 38 72  1  0  0  0  0
 38 77  1  0  0  0  0
 38 83  2  0  0  0  0
 39 42  1  0  0  0  0
 40 49  1  0  0  0  0
 41 71  1  0  0  0  0
 42 44  1  0  0  0  0
 43 45  1  0  0  0  0
 43 46  1  0  0  0  0
 44 48  1  0  0  0  0
 45 50  1  0  0  0  0
 46 72  1  0  0  0  0
 47 50  1  0  0  0  0
 47 72  1  0  0  0  0
 48 75  1  0  0  0  0
 49 71  1  0  0  0  0
 50 70  1  0  0  0  0
 52 63  1  0  0  0  0
 53 65  1  0  0  0  0
 54 66  1  0  0  0  0
 55 67  1  0  0  0  0
 56 68  1  0  0  0  0
 57 68  1  0  0  0  0
 58 68  1  0  0  0  0
 59 78  1  0  0  0  0
 60 66  1  0  0  0  0
 61 67  1  0  0  0  0
 61 77  1  0  0  0  0
 62 63  1  0  0  0  0
 62 85  1  0  0  0  0
 64 68  1  0  0  0  0
 64 76  1  0  0  0  0
 65 78  1  0  0  0  0
 66 67  1  0  0  0  0
 69 70  1  0  0  0  0
M  CHG  1  78   1
M  ISO  4  38 100  62 101  77 100  85 101
M  END
> <Batch ID>
0088

> <Smiles>
CNC(C)C(=O)NC(C(=O)N1Cc2cc([101O:1][101CH2:1]C(C)c3ccc(C)c(CC(C)C(C)C[100NH:0][100C:0](=O)N4CCCC(n5nc(-c6ccc(Oc7ccc(F)cc7F)cc6)c(C(N)=O)c5N)C4)c3)ccc2CC1C(=O)NC1CCCc2ccccc21)C(C)(C)C

> <Shape>
0.226

> <Color>
0.105

> <Negative vol penalty>
0.000

$$$$

  -OEChem-04052319043D

 86 94  0     1  0  0  0  0  0999 V2000
  -35.9678  -31.2756   19.6762 C   0  0  0  0  0  0  0  0  0  0  0  0
  -36.0226  -29.9107   19.9394 C   0  0  0  0  0  0  0  0  0  0  0  0
  -22.9796   -9.8494   19.9986 C   0  0  0  0  0  0  0  0  0  0  0  0
  -23.6995   -9.9278   22.3035 C   0  0  0  0  0  0  0  0  0  0  0  0
  -34.7381  -31.8913   19.4464 C   0  0  0  0  0  0  0  0  0  0  0  0
  -34.8475  -29.1607   19.9741 C   0  0  0  0  0  0  0  0  0  0  0  0
  -34.1340  -23.3502   18.1755 C   0  0  0  0  0  0  0  0  0  0  0  0
  -22.2124   -8.7181   20.2766 C   0  0  0  0  0  0  0  0  0  0  0  0
  -22.9324   -8.7965   22.5816 C   0  0  0  0  0  0  0  0  0  0  0  0
  -34.1075  -22.1470   18.8793 C   0  0  0  0  0  0  0  0  0  0  0  0
  -23.1778   -5.4522   22.1500 C   0  0  0  0  0  0  0  0  0  0  0  0
  -23.7636   -4.4441   22.9155 C   0  0  0  0  0  0  0  0  0  0  0  0
  -31.6973  -22.2365   18.9296 C   0  0  0  0  0  0  0  0  0  0  0  0
  -22.0359   -4.7068   24.5838 C   0  0  0  0  0  0  0  0  0  0  0  0
  -23.7232  -10.4542   21.0120 C   0  0  0  0  0  0  0  0  0  0  0  0
  -24.1088  -12.9675   20.8069 C   0  0  0  0  0  0  0  0  0  0  0  0
  -33.5483  -31.1467   19.4688 C   0  0  0  0  0  0  0  0  0  0  0  0
  -32.9408  -24.0123   17.8524 C   0  0  0  0  0  0  0  0  0  0  0  0
  -33.6007  -29.7672   19.7458 C   0  0  0  0  0  0  0  0  0  0  0  0
  -31.7113  -23.4467   18.2194 C   0  0  0  0  0  0  0  0  0  0  0  0
  -30.2410  -17.2147   18.3561 C   0  0  0  0  0  0  0  0  0  0  0  0
  -31.1454  -17.0337   17.2807 C   0  0  0  0  0  0  0  0  0  0  0  0
  -22.1888   -8.1917   21.5681 C   0  0  0  0  0  0  0  0  0  0  0  0
  -32.8891  -21.5914   19.2590 C   0  0  0  0  0  0  0  0  0  0  0  0
  -22.0210   -6.0878   22.6014 C   0  0  0  0  0  0  0  0  0  0  0  0
  -23.1927   -4.0713   24.1324 C   0  0  0  0  0  0  0  0  0  0  0  0
  -21.4501   -5.7151   23.8183 C   0  0  0  0  0  0  0  0  0  0  0  0
  -24.5162  -11.6225   20.7252 C   0  0  0  0  0  0  0  0  0  0  0  0
  -30.9772  -17.6135   19.4499 C   0  0  0  0  0  0  0  0  0  0  0  0
  -32.4067  -17.3272   17.7502 C   0  0  0  0  0  0  0  0  0  0  0  0
  -25.2194  -13.6858   20.4364 C   0  0  0  0  0  0  0  0  0  0  0  0
  -22.8400  -13.5184   21.1840 C   0  0  0  0  0  0  0  0  0  0  0  0
  -31.6769  -26.8380   18.5747 C   0  0  0  0  0  0  0  0  0  0  0  0
  -29.4044  -25.9289   16.4460 C   0  0  0  0  0  0  0  0  0  0  0  0
  -27.7940  -23.3871   14.8357 C   0  0  0  0  0  0  0  0  0  0  0  0
  -30.7152  -14.6234   20.6863 C   0  0  0  0  0  0  0  0  0  0  0  0
  -32.2385  -31.8650   19.2613 C   0  0  0  0  0  0  0  0  0  0  0  0
  -32.9854  -25.2959   17.0695 C   0  0  0  0  0  0  0  0  0  0  0  0
  -30.4014  -24.1075   17.8791 C   0  0  0  0  0  0  0  0  0  0  0  0
  -31.0742  -30.9296   18.9453 C   0  0  0  0  0  0  0  0  0  0  0  0
  -29.5799  -12.1720   18.3672 C   0  0  0  0  0  0  0  0  0  0  0  0
  -31.0669  -29.7435   19.9044 C   0  0  0  0  0  0  0  0  0  0  0  0
  -28.1304  -11.9172   18.7846 C   0  0  0  0  0  0  0  0  0  0  0  0
  -30.4795  -12.4218   19.5756 C   0  0  0  0  0  0  0  0  0  0  0  0
  -28.5664  -13.2331   20.9005 C   0  0  0  0  0  0  0  0  0  0  0  0
  -32.3501  -28.9153   19.7674 C   0  0  1  0  0  0  0  0  0  0  0  0
  -31.7299  -26.1452   17.2425 C   0  0  1  0  0  0  0  0  0  0  0  0
  -27.6100  -13.0313   19.7126 C   0  0  2  0  0  0  0  0  0  0  0  0
  -28.7778  -17.0148   18.3146 C   0  0  0  0  0  0  0  0  0  0  0  0
  -33.7121  -17.3012   17.0561 C   0  0  0  0  0  0  0  0  0  0  0  0
  -25.9558  -22.9536   13.1833 C   0  0  0  0  0  0  0  0  0  0  0  0
  -29.8082  -17.6014   15.2227 C   0  0  0  0  0  0  0  0  0  0  0  0
  -30.1226  -15.1958   15.8941 C   0  0  0  0  0  0  0  0  0  0  0  0
  -32.0067  -16.4837   14.9077 C   0  0  0  0  0  0  0  0  0  0  0  0
  -27.3290  -26.4943   18.6100 C   0  0  0  0  0  0  0  0  0  0  0  0
  -25.6756  -25.1742   17.2713 C   0  0  0  0  0  0  0  0  0  0  0  0
  -26.6773  -27.2498   16.3168 C   0  0  0  0  0  0  0  0  0  0  0  0
  -29.6547  -22.0997   12.9280 C   0  0  0  0  0  0  0  0  0  0  0  0
  -30.5409  -17.9389   20.8246 C   0  0  0  0  0  0  0  0  0  0  0  0
  -33.4396  -18.0731   19.9678 C   0  0  0  0  0  0  0  0  0  0  0  0
  -30.7952  -16.8163   21.8456 C   0  0  0  0  0  0  0  0  0  0  0  0
  -33.9214  -19.4951   19.7015 C   0  0  0  0  0  0  0  0  0  1  0  0
  -28.1012  -25.1717   16.5314 C   0  0  1  0  0  0  0  0  0  0  0  0
  -27.4476  -23.1813   13.3722 C   0  0  2  0  0  0  0  0  0  0  0  0
  -30.8024  -16.6058   15.9088 C   0  0  0  0  0  0  0  0  0  0  0  0
  -26.9703  -26.0108   17.1906 C   0  0  0  0  0  0  0  0  0  0  0  0
  -25.7864  -11.4913   20.3334 N   0  0  0  0  0  0  0  0  0  0  0  0
  -32.2923  -17.6781   19.0700 N   0  0  0  0  0  0  0  0  0  0  0  0
  -26.1867  -12.7632   20.1656 N   0  0  0  0  0  0  0  0  0  0  0  0
  -30.4976  -25.3641   17.1180 N   0  0  0  0  0  0  0  0  0  0  0  0
  -29.9308  -13.4905   20.4138 N   0  0  0  0  0  0  0  0  0  0  0  0
  -25.4531  -15.0102   20.3191 N   0  0  0  0  0  0  0  0  0  0  0  0
  -21.8074  -12.6384   21.5357 N   0  0  0  0  0  0  0  0  0  0  0  0
  -32.2876  -28.0775   18.5890 N   0  0  0  0  0  0  0  0  0  0  0  0
  -27.8000  -24.7232   15.1762 N   0  0  0  0  0  0  0  0  0  0  0  0
  -30.1170  -15.5918   21.4833 N   0  0  0  0  0  0  0  0  0  0  0  0
  -28.1758  -22.0002   12.8286 N   0  3  0  0  0  0  0  0  0  0  0  0
  -22.6232  -14.7539   21.1926 O   0  0  0  0  0  0  0  0  0  0  0  0
  -31.1216  -26.2893   19.5194 O   0  0  0  0  0  0  0  0  0  0  0  0
  -29.4524  -26.9790   15.8005 O   0  0  0  0  0  0  0  0  0  0  0  0
  -28.0316  -22.4555   15.6014 O   0  0  0  0  0  0  0  0  0  0  0  0
  -31.8616  -14.7641   20.2471 O   0  0  0  0  0  0  0  0  0  0  0  0
  -21.4402   -7.0879   21.8399 O   0  0  0  0  0  0  0  0  0  0  0  0
  -32.8604  -20.4174   19.9465 O   0  0  0  0  0  0  0  0  0  1  0  0
  -23.7545   -3.1021   24.8666 F   0  0  0  0  0  0  0  0  0  0  0  0
  -20.3382   -6.3212   24.2566 F   0  0  0  0  0  0  0  0  0  0  0  0
  1  2  1  0  0  0  0
  1  5  2  0  0  0  0
  2  6  2  0  0  0  0
  3  8  2  0  0  0  0
  3 15  1  0  0  0  0
  4  9  1  0  0  0  0
  4 15  2  0  0  0  0
  5 17  1  0  0  0  0
  6 19  1  0  0  0  0
  7 10  2  0  0  0  0
  7 18  1  0  0  0  0
  8 23  1  0  0  0  0
  9 23  2  0  0  0  0
 10 24  1  0  0  0  0
 11 12  2  0  0  0  0
 11 25  1  0  0  0  0
 12 26  1  0  0  0  0
 13 20  1  0  0  0  0
 13 24  2  0  0  0  0
 14 26  2  0  0  0  0
 14 27  1  0  0  0  0
 15 28  1  0  0  0  0
 16 28  1  0  0  0  0
 16 31  2  0  0  0  0
 16 32  1  0  0  0  0
 17 19  2  0  0  0  0
 17 37  1  0  0  0  0
 18 20  2  0  0  0  0
 18 38  1  0  0  0  0
 19 46  1  0  0  0  0
 20 39  1  0  0  0  0
 21 22  1  0  0  0  0
 21 29  2  0  0  0  0
 21 49  1  0  0  0  0
 22 30  2  0  0  0  0
 22 65  1  0  0  0  0
 23 83  1  0  0  0  0
 24 84  1  0  0  0  0
 25 27  2  0  0  0  0
 25 83  1  0  0  0  0
 26 85  1  0  0  0  0
 27 86  1  0  0  0  0
 28 67  2  0  0  0  0
 29 59  1  0  0  0  0
 29 68  1  0  0  0  0
 30 50  1  0  0  0  0
 30 68  1  0  0  0  0
 31 69  1  0  0  0  0
 31 72  1  0  0  0  0
 32 73  1  0  0  0  0
 32 78  2  0  0  0  0
 33 47  1  0  0  0  0
 33 74  1  0  0  0  0
 33 79  2  0  0  0  0
 34 63  1  0  0  0  0
 34 70  1  0  0  0  0
 34 80  2  0  0  0  0
 35 64  1  0  0  0  0
 35 75  1  0  0  0  0
 35 81  2  0  0  0  0
 36 71  1  0  0  0  0
 36 76  1  0  0  0  0
 36 82  2  0  0  0  0
 37 40  1  0  0  0  0
 38 47  1  0  0  0  0
 39 70  1  0  0  0  0
 40 42  1  0  0  0  0
 41 43  1  0  0  0  0
 41 44  1  0  0  0  0
 42 46  1  0  0  0  0
 43 48  1  0  0  0  0
 44 71  1  0  0  0  0
 45 48  1  0  0  0  0
 45 71  1  0  0  0  0
 46 74  1  0  0  0  0
 47 70  1  0  0  0  0
 48 69  1  0  0  0  0
 51 64  1  0  0  0  0
 52 65  1  0  0  0  0
 53 65  1  0  0  0  0
 54 65  1  0  0  0  0
 55 66  1  0  0  0  0
 56 66  1  0  0  0  0
 57 66  1  0  0  0  0
 58 77  1  0  0  0  0
 59 61  1  0  0  0  0
 60 62  1  0  0  0  0
 60 68  1  0  0  0  0
 61 76  1  0  0  0  0
 62 84  1  0  0  0  0
 63 66  1  0  0  0  0
 63 75  1  0  0  0  0
 64 77  1  0  0  0  0
 67 69  1  0  0  0  0
M  CHG  1  77   1
M  ISO  4  36 100  62 101  76 100  84 101
M  END
> <Batch ID>
0088

> <Smiles>
CNC(C)C(=O)NC(C(=O)N1Cc2cc([101O:1][101CH2:1]Cn3c(C)c(C(C)(C)C)c(C)c3CC[100NH:0][100C:0](=O)N3CCCC(n4nc(-c5ccc(Oc6ccc(F)cc6F)cc5)c(C(N)=O)c4N)C3)ccc2CC1C(=O)NC1CCCc2ccccc21)C(C)(C)C

> <Shape>
0.225

> <Color>
0.210

> <Negative vol penalty>
0.000

$$$$

  -OEChem-04052319043D

 88 97  0     1  0  0  0  0  0999 V2000
  -19.8731  -24.1393   10.2084 C   0  0  0  0  0  0  0  0  0  0  0  0
  -20.8234  -23.2326   10.6667 C   0  0  0  0  0  0  0  0  0  0  0  0
  -23.3303  -10.2405   22.2223 C   0  0  0  0  0  0  0  0  0  0  0  0
  -23.5795   -9.6175   19.9013 C   0  0  0  0  0  0  0  0  0  0  0  0
  -20.0201  -25.4988   10.4806 C   0  0  0  0  0  0  0  0  0  0  0  0
  -21.9220  -23.6850   11.3967 C   0  0  0  0  0  0  0  0  0  0  0  0
  -24.7376  -20.7780   15.9932 C   0  0  0  0  0  0  0  0  0  0  0  0
  -22.5783   -9.0881   22.4508 C   0  0  0  0  0  0  0  0  0  0  0  0
  -22.8275   -8.4652   20.1298 C   0  0  0  0  0  0  0  0  0  0  0  0
  -25.8954  -20.0029   16.0435 C   0  0  0  0  0  0  0  0  0  0  0  0
  -19.4083   -8.0385   21.9273 C   0  0  0  0  0  0  0  0  0  0  0  0
  -18.2384   -8.1668   22.6759 C   0  0  0  0  0  0  0  0  0  0  0  0
  -27.1120  -18.6922   19.7742 C   0  0  0  0  0  0  0  0  0  0  0  0
  -27.1546  -21.9396   16.7384 C   0  0  0  0  0  0  0  0  0  0  0  0
  -19.1162   -6.6216   24.3126 C   0  0  0  0  0  0  0  0  0  0  0  0
  -23.8308  -10.5052   20.9475 C   0  0  0  0  0  0  0  0  0  0  0  0
  -24.1950  -13.0295   20.8918 C   0  0  0  0  0  0  0  0  0  0  0  0
  -21.1160  -25.9670   11.2226 C   0  0  0  0  0  0  0  0  0  0  0  0
  -24.7818  -22.1445   16.3051 C   0  0  0  0  0  0  0  0  0  0  0  0
  -22.0845  -25.0521   11.6780 C   0  0  0  0  0  0  0  0  0  0  0  0
  -26.4922  -19.1000   20.9621 C   0  0  0  0  0  0  0  0  0  0  0  0
  -25.9955  -22.7293   16.6937 C   0  0  0  0  0  0  0  0  0  0  0  0
  -28.4560  -18.3416   19.7637 C   0  0  0  0  0  0  0  0  0  0  0  0
  -22.3269   -8.2005   21.4046 C   0  0  0  0  0  0  0  0  0  0  0  0
  -27.1046  -20.5843   16.4134 C   0  0  0  0  0  0  0  0  0  0  0  0
  -20.4322   -7.2016   22.3713 C   0  0  0  0  0  0  0  0  0  0  0  0
  -18.0923   -7.4584   23.8685 C   0  0  0  0  0  0  0  0  0  0  0  0
  -20.2861   -6.4932   23.5639 C   0  0  0  0  0  0  0  0  0  0  0  0
  -24.6072  -11.6957   20.7106 C   0  0  0  0  0  0  0  0  0  0  0  0
  -27.2783  -19.1434   22.1169 C   0  0  0  0  0  0  0  0  0  0  0  0
  -29.1469  -18.4124   20.9566 C   0  0  0  0  0  0  0  0  0  0  0  0
  -25.2885  -13.7787   20.5322 C   0  0  0  0  0  0  0  0  0  0  0  0
  -22.9361  -13.5451   21.3447 C   0  0  0  0  0  0  0  0  0  0  0  0
  -24.1798  -24.8292   14.7133 C   0  0  0  0  0  0  0  0  0  0  0  0
  -24.6736  -26.1988   17.6120 C   0  0  0  0  0  0  0  0  0  0  0  0
  -26.9832  -25.7981   20.3547 C   0  0  0  0  0  0  0  0  0  0  0  0
  -30.7840  -14.7419   20.6623 C   0  0  0  0  0  0  0  0  0  0  0  0
  -21.2570  -27.4510   11.4513 C   0  0  0  0  0  0  0  0  0  0  0  0
  -23.5190  -22.9609   16.2718 C   0  0  0  0  0  0  0  0  0  0  0  0
  -25.0351  -19.4746   20.9591 C   0  0  0  0  0  0  0  0  0  0  0  0
  -26.0924  -24.1875   17.0578 C   0  0  0  0  0  0  0  0  0  0  0  0
  -26.7109  -19.5768   23.4423 C   0  0  0  0  0  0  0  0  0  0  0  0
  -22.2533  -27.8057   12.5522 C   0  0  0  0  0  0  0  0  0  0  0  0
  -24.1791  -18.5562   21.8313 C   0  0  0  0  0  0  0  0  0  0  0  0
  -25.6225  -18.6401   23.9633 C   0  0  0  0  0  0  0  0  0  0  0  0
  -24.2535  -18.8713   23.3247 C   0  0  0  0  0  0  0  0  0  0  0  0
  -29.5868  -12.4350   18.2289 C   0  0  0  0  0  0  0  0  0  0  0  0
  -23.5422  -27.0076   12.3831 C   0  0  0  0  0  0  0  0  0  0  0  0
  -28.1535  -12.1426   18.6761 C   0  0  0  0  0  0  0  0  0  0  0  0
  -30.5245  -12.6140   19.4208 C   0  0  0  0  0  0  0  0  0  0  0  0
  -28.6515  -13.3237   20.8568 C   0  0  0  0  0  0  0  0  0  0  0  0
  -23.2770  -25.5013   12.4943 C   0  0  1  0  0  0  0  0  0  0  0  0
  -23.7780  -24.4558   16.1122 C   0  0  1  0  0  0  0  0  0  0  0  0
  -27.6576  -13.1908   19.6903 C   0  0  2  0  0  0  0  0  0  0  0  0
  -31.4738  -19.2483   21.4156 C   0  0  0  0  0  0  0  0  0  0  0  0
  -26.7156  -26.2980   22.7993 C   0  0  0  0  0  0  0  0  0  0  0  0
  -25.9379  -28.8843   16.9050 C   0  0  0  0  0  0  0  0  0  0  0  0
  -27.1859  -28.7887   19.0733 C   0  0  0  0  0  0  0  0  0  0  0  0
  -24.6923  -28.8563   19.0735 C   0  0  0  0  0  0  0  0  0  0  0  0
  -27.7185  -23.0351   21.1188 C   0  0  0  0  0  0  0  0  0  0  0  0
  -29.1122  -17.9012   18.4796 C   0  0  0  0  0  0  0  0  0  0  0  0
  -30.0010  -18.9721   17.8433 C   0  0  0  0  0  0  0  0  0  0  0  0
  -30.8896  -16.8566   21.9569 C   0  0  0  0  0  0  0  0  0  0  0  0
  -29.2325  -20.2148   17.4093 C   0  0  0  0  0  0  0  0  0  1  0  0
  -30.5938  -18.0471   21.0140 C   0  0  1  0  0  0  0  0  0  0  0  0
  -25.8749  -26.7432   18.3465 C   0  0  1  0  0  0  0  0  0  0  0  0
  -26.6755  -25.2222   21.7251 C   0  0  2  0  0  0  0  0  0  0  0  0
  -25.9252  -28.2971   18.3305 C   0  0  0  0  0  0  0  0  0  0  0  0
  -25.8645  -11.5999   20.2700 N   0  0  0  0  0  0  0  0  0  0  0  0
  -28.5938  -18.8028   22.1247 N   0  0  0  0  0  0  0  0  0  0  0  0
  -26.2516  -12.8830   20.1712 N   0  0  0  0  0  0  0  0  0  0  0  0
  -24.8313  -24.9453   17.0040 N   0  0  0  0  0  0  0  0  0  0  0  0
  -29.9976  -13.6226   20.3434 N   0  0  0  0  0  0  0  0  0  0  0  0
  -25.5105  -15.1097   20.4927 N   0  0  0  0  0  0  0  0  0  0  0  0
  -21.9209  -12.6362   21.6727 N   0  0  0  0  0  0  0  0  0  0  0  0
  -23.1156  -25.1176   13.8804 N   0  0  0  0  0  0  0  0  0  0  0  0
  -25.8346  -26.1604   19.6833 N   0  0  0  0  0  0  0  0  0  0  0  0
  -30.2069  -15.6524   21.5390 N   0  0  0  0  0  0  0  0  0  0  0  0
  -27.6678  -24.1679   22.0786 N   0  3  0  0  0  0  0  0  0  0  0  0
  -22.7126  -14.7758   21.4397 O   0  0  0  0  0  0  0  0  0  0  0  0
  -25.3674  -24.8551   14.4124 O   0  0  0  0  0  0  0  0  0  0  0  0
  -23.6314  -26.8581   17.5850 O   0  0  0  0  0  0  0  0  0  0  0  0
  -28.1282  -25.9184   19.9245 O   0  0  0  0  0  0  0  0  0  0  0  0
  -31.9145  -14.9194   20.1959 O   0  0  0  0  0  0  0  0  0  0  0  0
  -21.5934   -7.0758   21.6273 O   0  0  0  0  0  0  0  0  0  0  0  0
  -28.2363  -19.8301   16.4627 O   0  0  0  0  0  0  0  0  0  1  0  0
  -16.9694   -7.5830   24.5881 F   0  0  0  0  0  0  0  0  0  0  0  0
  -21.2667   -5.6886   23.9962 F   0  0  0  0  0  0  0  0  0  0  0  0
  1  2  1  0  0  0  0
  1  5  2  0  0  0  0
  2  6  2  0  0  0  0
  3  8  2  0  0  0  0
  3 16  1  0  0  0  0
  4  9  1  0  0  0  0
  4 16  2  0  0  0  0
  5 18  1  0  0  0  0
  6 20  1  0  0  0  0
  7 10  2  0  0  0  0
  7 19  1  0  0  0  0
  8 24  1  0  0  0  0
  9 24  2  0  0  0  0
 10 25  1  0  0  0  0
 11 12  2  0  0  0  0
 11 26  1  0  0  0  0
 12 27  1  0  0  0  0
 13 21  2  0  0  0  0
 13 23  1  0  0  0  0
 14 22  1  0  0  0  0
 14 25  2  0  0  0  0
 15 27  2  0  0  0  0
 15 28  1  0  0  0  0
 16 29  1  0  0  0  0
 17 29  1  0  0  0  0
 17 32  2  0  0  0  0
 17 33  1  0  0  0  0
 18 20  2  0  0  0  0
 18 38  1  0  0  0  0
 19 22  2  0  0  0  0
 19 39  1  0  0  0  0
 20 52  1  0  0  0  0
 21 30  1  0  0  0  0
 21 40  1  0  0  0  0
 22 41  1  0  0  0  0
 23 31  2  0  0  0  0
 23 61  1  0  0  0  0
 24 85  1  0  0  0  0
 25 86  1  0  0  0  0
 26 28  2  0  0  0  0
 26 85  1  0  0  0  0
 27 87  1  0  0  0  0
 28 88  1  0  0  0  0
 29 69  2  0  0  0  0
 30 42  1  0  0  0  0
 30 70  2  0  0  0  0
 31 65  1  0  0  0  0
 31 70  1  0  0  0  0
 32 71  1  0  0  0  0
 32 74  1  0  0  0  0
 33 75  1  0  0  0  0
 33 80  2  0  0  0  0
 34 53  1  0  0  0  0
 34 76  1  0  0  0  0
 34 81  2  0  0  0  0
 35 66  1  0  0  0  0
 35 72  1  0  0  0  0
 35 82  2  0  0  0  0
 36 67  1  0  0  0  0
 36 77  1  0  0  0  0
 36 83  2  0  0  0  0
 37 73  1  0  0  0  0
 37 78  1  0  0  0  0
 37 84  2  0  0  0  0
 38 43  1  0  0  0  0
 39 53  1  0  0  0  0
 40 44  1  0  0  0  0
 41 72  1  0  0  0  0
 42 45  1  0  0  0  0
 43 48  1  0  0  0  0
 44 46  1  0  0  0  0
 45 46  1  0  0  0  0
 47 49  1  0  0  0  0
 47 50  1  0  0  0  0
 48 52  1  0  0  0  0
 49 54  1  0  0  0  0
 50 73  1  0  0  0  0
 51 54  1  0  0  0  0
 51 73  1  0  0  0  0
 52 76  1  0  0  0  0
 53 72  1  0  0  0  0
 54 71  1  0  0  0  0
 55 65  1  0  0  0  0
 56 67  1  0  0  0  0
 57 68  1  0  0  0  0
 58 68  1  0  0  0  0
 59 68  1  0  0  0  0
 60 79  1  0  0  0  0
 61 62  1  0  0  0  0
 62 64  1  0  0  0  0
 63 65  1  0  0  0  0
 63 78  1  0  0  0  0
 64 86  1  0  0  0  0
 66 68  1  0  0  0  0
 66 77  1  0  0  0  0
 67 79  1  0  0  0  0
 69 71  1  0  0  0  0
M  CHG  1  79   1
M  ISO  4  37 100  64 101  78 100  86 101
M  END
> <Batch ID>
0088

> <Smiles>
CNC(C)C(=O)NC(C(=O)N1Cc2cc([101O:1][101CH2:1]CCc3cc4c(nc3C(C)C[100NH:0][100C:0](=O)N3CCCC(n5nc(-c6ccc(Oc7ccc(F)cc7F)cc6)c(C(N)=O)c5N)C3)CCCCC4)ccc2CC1C(=O)NC1CCCc2ccccc21)C(C)(C)C

> <Shape>
0.216

> <Color>
0.198

> <Negative vol penalty>
0.000

$$$$

  -OEChem-04052319043D

 85 93  0     1  0  0  0  0  0999 V2000
  -18.1588  -25.0975   20.6608 C   0  0  0  0  0  0  0  0  0  0  0  0
  -19.4523  -25.2389   20.1684 C   0  0  0  0  0  0  0  0  0  0  0  0
  -22.9823  -13.8412   19.3967 C   0  0  0  0  0  0  0  0  0  0  0  0
  -23.5171  -13.2750   21.6837 C   0  0  0  0  0  0  0  0  0  0  0  0
  -17.7204  -25.9070   21.7080 C   0  0  0  0  0  0  0  0  0  0  0  0
  -20.3078  -26.1906   20.7223 C   0  0  0  0  0  0  0  0  0  0  0  0
  -24.9615  -24.3726   21.5486 C   0  0  0  0  0  0  0  0  0  0  0  0
  -31.4351  -22.6439   22.6839 C   0  0  0  0  0  0  0  0  0  0  0  0
  -32.3219  -22.9967   21.6667 C   0  0  0  0  0  0  0  0  0  0  0  0
  -22.3820  -12.5935   19.2281 C   0  0  0  0  0  0  0  0  0  0  0  0
  -22.9168  -12.0272   21.5152 C   0  0  0  0  0  0  0  0  0  0  0  0
  -25.8078  -24.2641   20.4460 C   0  0  0  0  0  0  0  0  0  0  0  0
  -23.7072   -9.0503   20.1209 C   0  0  0  0  0  0  0  0  0  0  0  0
  -24.3867   -7.9333   20.6068 C   0  0  0  0  0  0  0  0  0  0  0  0
  -26.8973  -26.3185   21.0876 C   0  0  0  0  0  0  0  0  0  0  0  0
  -29.5912  -22.8001   21.1306 C   0  0  0  0  0  0  0  0  0  0  0  0
  -22.5259   -7.4356   22.0652 C   0  0  0  0  0  0  0  0  0  0  0  0
  -23.5499  -14.1820   20.6245 C   0  0  0  0  0  0  0  0  0  0  0  0
  -23.5550  -16.6583   21.2373 C   0  0  0  0  0  0  0  0  0  0  0  0
  -18.5742  -26.8624   22.2814 C   0  0  0  0  0  0  0  0  0  0  0  0
  -25.0698  -25.4624   22.4244 C   0  0  0  0  0  0  0  0  0  0  0  0
  -19.8800  -27.0145   21.7772 C   0  0  0  0  0  0  0  0  0  0  0  0
  -26.0529  -26.4372   22.2020 C   0  0  0  0  0  0  0  0  0  0  0  0
  -30.0697  -22.5456   22.4159 C   0  0  0  0  0  0  0  0  0  0  0  0
  -31.8434  -23.2512   20.3814 C   0  0  0  0  0  0  0  0  0  0  0  0
  -30.4780  -23.1529   20.1134 C   0  0  0  0  0  0  0  0  0  0  0  0
  -22.3492  -11.6865   20.2873 C   0  0  0  0  0  0  0  0  0  0  0  0
  -26.7739  -25.2386   20.2137 C   0  0  0  0  0  0  0  0  0  0  0  0
  -22.4370   -9.3601   20.6072 C   0  0  0  0  0  0  0  0  0  0  0  0
  -23.7961   -7.1259   21.5789 C   0  0  0  0  0  0  0  0  0  0  0  0
  -21.8464   -8.5527   21.5793 C   0  0  0  0  0  0  0  0  0  0  0  0
  -24.1706  -15.4705   20.7991 C   0  0  0  0  0  0  0  0  0  0  0  0
  -24.5642  -17.5899   21.2329 C   0  0  0  0  0  0  0  0  0  0  0  0
  -22.1927  -16.8980   21.6147 C   0  0  0  0  0  0  0  0  0  0  0  0
  -23.1435  -27.8327   23.3047 C   0  0  0  0  0  0  0  0  0  0  0  0
  -25.5397  -28.4844   25.3917 C   0  0  0  0  0  0  0  0  0  0  0  0
  -28.8512  -28.2228   26.1743 C   0  0  0  0  0  0  0  0  0  0  0  0
  -29.8168  -19.0803   22.3877 C   0  0  0  0  0  0  0  0  0  0  0  0
  -18.0401  -27.7469   23.3801 C   0  0  0  0  0  0  0  0  0  0  0  0
  -24.1670  -25.5510   23.6242 C   0  0  0  0  0  0  0  0  0  0  0  0
  -26.2235  -27.6161   23.1237 C   0  0  0  0  0  0  0  0  0  0  0  0
  -19.1314  -28.4743   24.1612 C   0  0  0  0  0  0  0  0  0  0  0  0
  -29.2414  -17.3679   19.3196 C   0  0  0  0  0  0  0  0  0  0  0  0
  -20.1470  -29.0952   23.2073 C   0  0  0  0  0  0  0  0  0  0  0  0
  -27.8232  -16.8147   19.4699 C   0  0  0  0  0  0  0  0  0  0  0  0
  -30.0040  -17.3326   20.6422 C   0  0  0  0  0  0  0  0  0  0  0  0
  -27.8997  -17.4363   21.9207 C   0  0  0  0  0  0  0  0  0  0  0  0
  -20.8458  -28.0185   22.3683 C   0  0  1  0  0  0  0  0  0  0  0  0
  -24.0264  -26.9714   24.1627 C   0  0  1  0  0  0  0  0  0  0  0  0
  -27.0723  -17.5031   20.6256 C   0  0  2  0  0  0  0  0  0  0  0  0
  -32.8118  -23.6283   19.3088 C   0  0  0  0  0  0  0  0  0  0  0  0
  -30.9426  -28.4252   27.5464 C   0  0  0  0  0  0  0  0  0  0  0  0
  -27.6120  -22.0897   23.0853 C   0  0  0  0  0  0  0  0  0  0  0  0
  -29.1612  -23.2286   24.6532 C   0  0  0  0  0  0  0  0  0  0  0  0
  -25.5455  -31.3341   24.3015 C   0  0  0  0  0  0  0  0  0  0  0  0
  -27.7883  -31.6621   25.3647 C   0  0  0  0  0  0  0  0  0  0  0  0
  -25.7976  -31.1664   26.7839 C   0  0  0  0  0  0  0  0  0  0  0  0
  -28.3987  -25.5972   27.4628 C   0  0  0  0  0  0  0  0  0  0  0  0
  -29.9376  -23.4236   18.7320 C   0  0  0  0  0  0  0  0  0  0  0  0
  -29.8659  -24.9109   18.3792 C   0  0  0  0  0  0  0  0  0  0  0  0
  -29.4742  -20.7849   24.1586 C   0  0  0  0  0  0  0  0  0  0  0  0
  -28.9067  -25.6962   19.2662 C   0  0  0  0  0  0  0  0  0  1  0  0
  -26.7887  -29.3314   25.3548 C   0  0  1  0  0  0  0  0  0  0  0  0
  -29.5540  -27.8117   27.4555 C   0  0  2  0  0  0  0  0  0  0  0  0
  -29.1218  -22.1689   23.5037 C   0  0  0  0  0  0  0  0  0  0  0  0
  -26.4758  -30.8524   25.4326 C   0  0  0  0  0  0  0  0  0  0  0  0
  -25.4701  -15.6303   20.5353 N   0  0  0  0  0  0  0  0  0  0  0  0
  -25.6794  -16.9294   20.8085 N   0  0  0  0  0  0  0  0  0  0  0  0
  -25.3127  -27.6615   24.2795 N   0  0  0  0  0  0  0  0  0  0  0  0
  -29.2386  -18.0032   21.6958 N   0  0  0  0  0  0  0  0  0  0  0  0
  -24.5975  -18.9015   21.5506 N   0  0  0  0  0  0  0  0  0  0  0  0
  -21.2868  -15.8299   21.5614 N   0  0  0  0  0  0  0  0  0  0  0  0
  -21.8593  -27.3456   23.1521 N   0  0  0  0  0  0  0  0  0  0  0  0
  -27.6458  -28.8420   26.4291 N   0  0  0  0  0  0  0  0  0  0  0  0
  -29.0211  -19.6634   23.3662 N   0  0  0  0  0  0  0  0  0  0  0  0
  -29.6903  -26.3290   27.5186 N   0  3  0  0  0  0  0  0  0  0  0  0
  -21.7870  -18.0298   21.9726 O   0  0  0  0  0  0  0  0  0  0  0  0
  -23.5934  -28.8636   22.8184 O   0  0  0  0  0  0  0  0  0  0  0  0
  -24.7967  -28.5451   26.3745 O   0  0  0  0  0  0  0  0  0  0  0  0
  -29.3259  -28.0187   25.0592 O   0  0  0  0  0  0  0  0  0  0  0  0
  -30.9557  -19.4952   22.1472 O   0  0  0  0  0  0  0  0  0  0  0  0
  -21.7634  -10.4689   20.1232 O   0  0  0  0  0  0  0  0  0  0  0  0
  -27.6008  -25.1355   19.1378 O   0  0  0  0  0  0  0  0  0  1  0  0
  -24.4481   -6.0524   22.0443 F   0  0  0  0  0  0  0  0  0  0  0  0
  -20.6259   -8.8446   22.0495 F   0  0  0  0  0  0  0  0  0  0  0  0
  1  2  1  0  0  0  0
  1  5  2  0  0  0  0
  2  6  2  0  0  0  0
  3 10  2  0  0  0  0
  3 18  1  0  0  0  0
  4 11  1  0  0  0  0
  4 18  2  0  0  0  0
  5 20  1  0  0  0  0
  6 22  1  0  0  0  0
  7 12  2  0  0  0  0
  7 21  1  0  0  0  0
  8  9  2  0  0  0  0
  8 24  1  0  0  0  0
  9 25  1  0  0  0  0
 10 27  1  0  0  0  0
 11 27  2  0  0  0  0
 12 28  1  0  0  0  0
 13 14  2  0  0  0  0
 13 29  1  0  0  0  0
 14 30  1  0  0  0  0
 15 23  1  0  0  0  0
 15 28  2  0  0  0  0
 16 24  2  0  0  0  0
 16 26  1  0  0  0  0
 17 30  2  0  0  0  0
 17 31  1  0  0  0  0
 18 32  1  0  0  0  0
 19 32  1  0  0  0  0
 19 33  2  0  0  0  0
 19 34  1  0  0  0  0
 20 22  2  0  0  0  0
 20 39  1  0  0  0  0
 21 23  2  0  0  0  0
 21 40  1  0  0  0  0
 22 48  1  0  0  0  0
 23 41  1  0  0  0  0
 24 65  1  0  0  0  0
 25 26  2  0  0  0  0
 25 51  1  0  0  0  0
 26 59  1  0  0  0  0
 27 82  1  0  0  0  0
 28 83  1  0  0  0  0
 29 31  2  0  0  0  0
 29 82  1  0  0  0  0
 30 84  1  0  0  0  0
 31 85  1  0  0  0  0
 32 67  2  0  0  0  0
 33 68  1  0  0  0  0
 33 71  1  0  0  0  0
 34 72  1  0  0  0  0
 34 77  2  0  0  0  0
 35 49  1  0  0  0  0
 35 73  1  0  0  0  0
 35 78  2  0  0  0  0
 36 63  1  0  0  0  0
 36 69  1  0  0  0  0
 36 79  2  0  0  0  0
 37 64  1  0  0  0  0
 37 74  1  0  0  0  0
 37 80  2  0  0  0  0
 38 70  1  0  0  0  0
 38 75  1  0  0  0  0
 38 81  2  0  0  0  0
 39 42  1  0  0  0  0
 40 49  1  0  0  0  0
 41 69  1  0  0  0  0
 42 44  1  0  0  0  0
 43 45  1  0  0  0  0
 43 46  1  0  0  0  0
 44 48  1  0  0  0  0
 45 50  1  0  0  0  0
 46 70  1  0  0  0  0
 47 50  1  0  0  0  0
 47 70  1  0  0  0  0
 48 73  1  0  0  0  0
 49 69  1  0  0  0  0
 50 68  1  0  0  0  0
 52 64  1  0  0  0  0
 53 65  1  0  0  0  0
 54 65  1  0  0  0  0
 55 66  1  0  0  0  0
 56 66  1  0  0  0  0
 57 66  1  0  0  0  0
 58 76  1  0  0  0  0
 59 60  1  0  0  0  0
 60 62  1  0  0  0  0
 61 65  1  0  0  0  0
 61 75  1  0  0  0  0
 62 83  1  0  0  0  0
 63 66  1  0  0  0  0
 63 74  1  0  0  0  0
 64 76  1  0  0  0  0
 67 68  1  0  0  0  0
M  CHG  1  76   1
M  ISO  4  38 100  62 101  75 100  83 101
M  END
> <Batch ID>
0088

> <Smiles>
CNC(C)C(=O)NC(C(=O)N1Cc2cc([101O:1][101CH2:1]CCc3cc(C(C)(C)C[100NH:0][100C:0](=O)N4CCCC(n5nc(-c6ccc(Oc7ccc(F)cc7F)cc6)c(C(N)=O)c5N)C4)ccc3C)ccc2CC1C(=O)NC1CCCc2ccccc21)C(C)(C)C

> <Shape>
0.231

> <Color>
0.074

> <Negative vol penalty>
0.000

$$$$

  -OEChem-04052319043D

 85 93  0     1  0  0  0  0  0999 V2000
  -32.2548   -9.1605   21.4367 C   0  0  0  0  0  0  0  0  0  0  0  0
  -30.8846   -9.3846   21.3482 C   0  0  0  0  0  0  0  0  0  0  0  0
  -24.8921  -31.1277   20.7464 C   0  0  0  0  0  0  0  0  0  0  0  0
  -24.4598  -29.7957   22.7151 C   0  0  0  0  0  0  0  0  0  0  0  0
  -33.0975  -10.1730   21.8934 C   0  0  0  0  0  0  0  0  0  0  0  0
  -30.3563  -10.6211   21.7173 C   0  0  0  0  0  0  0  0  0  0  0  0
  -25.5745  -13.4864   19.1814 C   0  0  0  0  0  0  0  0  0  0  0  0
  -24.2337  -32.2085   21.3330 C   0  0  0  0  0  0  0  0  0  0  0  0
  -23.8014  -30.8765   23.3018 C   0  0  0  0  0  0  0  0  0  0  0  0
  -24.2329  -13.5780   19.5494 C   0  0  0  0  0  0  0  0  0  0  0  0
  -22.9815  -35.4307   22.4573 C   0  0  0  0  0  0  0  0  0  0  0  0
  -23.5847  -36.6850   22.3654 C   0  0  0  0  0  0  0  0  0  0  0  0
  -24.6823  -15.6815   20.6414 C   0  0  0  0  0  0  0  0  0  0  0  0
  -21.4147  -17.3565   20.4072 C   0  0  0  0  0  0  0  0  0  0  0  0
  -25.5168  -35.8424   23.5463 C   0  0  0  0  0  0  0  0  0  0  0  0
  -25.0051  -29.9213   21.4374 C   0  0  0  0  0  0  0  0  0  0  0  0
  -27.0544  -28.4923   20.9217 C   0  0  0  0  0  0  0  0  0  0  0  0
  -32.5803  -11.4258   22.2591 C   0  0  0  0  0  0  0  0  0  0  0  0
  -26.4838  -14.4880   19.5506 C   0  0  0  0  0  0  0  0  0  0  0  0
  -31.1927  -11.6509   22.1805 C   0  0  0  0  0  0  0  0  0  0  0  0
  -26.0344  -15.6016   20.2746 C   0  0  0  0  0  0  0  0  0  0  0  0
  -21.9746  -16.9334   21.5999 C   0  0  0  0  0  0  0  0  0  0  0  0
  -23.6884  -32.0829   22.6107 C   0  0  0  0  0  0  0  0  0  0  0  0
  -23.7871  -14.6742   20.2820 C   0  0  0  0  0  0  0  0  0  0  0  0
  -23.6459  -34.3822   23.0937 C   0  0  0  0  0  0  0  0  0  0  0  0
  -24.8523  -36.8909   22.9099 C   0  0  0  0  0  0  0  0  0  0  0  0
  -24.9135  -34.5881   23.6382 C   0  0  0  0  0  0  0  0  0  0  0  0
  -25.6846  -28.8044   20.8318 C   0  0  0  0  0  0  0  0  0  0  0  0
  -21.2422  -18.7132   20.2199 C   0  0  0  0  0  0  0  0  0  0  0  0
  -22.3252  -17.8950   22.5261 C   0  0  0  0  0  0  0  0  0  0  0  0
  -27.1950  -27.3461   20.1781 C   0  0  0  0  0  0  0  0  0  0  0  0
  -28.1058  -29.1773   21.6154 C   0  0  0  0  0  0  0  0  0  0  0  0
  -29.1109  -14.5849   21.3374 C   0  0  0  0  0  0  0  0  0  0  0  0
  -29.2746  -17.6333   20.2408 C   0  0  0  0  0  0  0  0  0  0  0  0
  -27.6422  -20.3440   18.9625 C   0  0  0  0  0  0  0  0  0  0  0  0
  -23.3822  -23.0498   18.8147 C   0  0  0  0  0  0  0  0  0  0  0  0
  -33.5251  -12.4738   22.7918 C   0  0  0  0  0  0  0  0  0  0  0  0
  -27.9223  -14.3876   19.1228 C   0  0  0  0  0  0  0  0  0  0  0  0
  -26.9662  -16.7138   20.6782 C   0  0  0  0  0  0  0  0  0  0  0  0
  -32.9294  -13.8792   22.8080 C   0  0  0  0  0  0  0  0  0  0  0  0
  -25.2692  -25.0393   16.4529 C   0  0  0  0  0  0  0  0  0  0  0  0
  -31.5220  -13.8556   23.3958 C   0  0  0  0  0  0  0  0  0  0  0  0
  -25.7201  -26.2077   17.3313 C   0  0  0  0  0  0  0  0  0  0  0  0
  -23.8572  -24.5884   16.8147 C   0  0  0  0  0  0  0  0  0  0  0  0
  -24.1243  -25.3935   19.1286 C   0  0  0  0  0  0  0  0  0  0  0  0
  -30.5846  -12.9871   22.5481 C   0  0  1  0  0  0  0  0  0  0  0  0
  -28.8639  -15.2125   19.9947 C   0  0  1  0  0  0  0  0  0  0  0  0
  -25.5531  -25.8811   18.8272 C   0  0  2  0  0  0  0  0  0  0  0  0
  -23.5344  -18.2853   26.1718 C   0  0  0  0  0  0  0  0  0  0  0  0
  -20.9708  -14.8079   22.5042 C   0  0  0  0  0  0  0  0  0  0  0  0
  -28.0363  -22.7028   18.2019 C   0  0  0  0  0  0  0  0  0  0  0  0
  -29.4648  -18.5367   23.1490 C   0  0  0  0  0  0  0  0  0  0  0  0
  -28.9013  -20.8558   22.3927 C   0  0  0  0  0  0  0  0  0  0  0  0
  -30.9844  -19.7517   21.5777 C   0  0  0  0  0  0  0  0  0  0  0  0
  -26.7296  -19.7334   16.2142 C   0  0  0  0  0  0  0  0  0  0  0  0
  -20.6432  -19.2209   18.9532 C   0  0  0  0  0  0  0  0  0  0  0  0
  -22.9327  -17.5139   23.8338 C   0  0  0  0  0  0  0  0  0  0  0  0
  -22.9460  -18.6851   24.8280 C   0  0  0  0  0  0  0  0  0  0  0  0
  -21.1326  -20.6208   18.5310 C   0  0  0  0  0  0  0  0  0  0  0  0
  -22.6446  -20.7277   18.3444 C   0  0  0  0  0  0  0  0  0  0  0  0
  -22.1860  -15.4587   21.8558 C   0  0  1  0  0  0  0  0  0  1  0  0
  -28.7440  -18.9673   20.7075 C   0  0  1  0  0  0  0  0  0  0  0  0
  -27.9558  -21.2437   17.7807 C   0  0  2  0  0  0  0  0  0  0  0  0
  -29.5062  -19.5061   21.9509 C   0  0  0  0  0  0  0  0  0  0  0  0
  -25.0036  -27.9273   20.0895 N   0  0  0  0  0  0  0  0  0  0  0  0
  -21.5946  -19.6320   21.1439 N   0  0  0  0  0  0  0  0  0  0  0  0
  -22.1452  -19.2162   22.3159 N   0  0  0  0  0  0  0  0  0  0  0  0
  -25.9494  -27.0529   19.7061 N   0  0  0  0  0  0  0  0  0  0  0  0
  -28.3646  -16.5667   20.2417 N   0  0  0  0  0  0  0  0  0  0  0  0
  -23.7705  -24.2752   18.2481 N   0  0  0  0  0  0  0  0  0  0  0  0
  -28.2613  -26.5706   19.8884 N   0  0  0  0  0  0  0  0  0  0  0  0
  -27.7875  -30.3396   22.3310 N   0  0  0  0  0  0  0  0  0  0  0  0
  -30.1725  -13.7006   21.3584 N   0  0  0  0  0  0  0  0  0  0  0  0
  -28.7894  -19.8527   19.5489 N   0  0  0  0  0  0  0  0  0  0  0  0
  -23.0566  -22.0447   17.9121 N   0  0  0  0  0  0  0  0  0  0  0  0
  -26.9007  -21.1136   16.7363 N   0  3  0  0  0  0  0  0  0  0  0  0
  -29.2952  -28.7798   21.5876 O   0  0  0  0  0  0  0  0  0  0  0  0
  -28.3924  -14.8821   22.2846 O   0  0  0  0  0  0  0  0  0  0  0  0
  -30.4512  -17.5427   19.8816 O   0  0  0  0  0  0  0  0  0  0  0  0
  -26.4945  -20.1043   19.3310 O   0  0  0  0  0  0  0  0  0  0  0  0
  -23.3342  -22.8632   20.0353 O   0  0  0  0  0  0  0  0  0  0  0  0
  -23.0461  -33.1373   23.1835 O   0  0  0  0  0  0  0  0  0  0  0  0
  -22.4783  -14.7658   20.6431 O   0  0  0  0  0  0  0  0  0  1  0  0
  -25.4321  -38.0951   22.8202 F   0  0  0  0  0  0  0  0  0  0  0  0
  -25.5572  -33.5844   24.2497 F   0  0  0  0  0  0  0  0  0  0  0  0
  1  2  1  0  0  0  0
  1  5  2  0  0  0  0
  2  6  2  0  0  0  0
  3  8  2  0  0  0  0
  3 16  1  0  0  0  0
  4  9  1  0  0  0  0
  4 16  2  0  0  0  0
  5 18  1  0  0  0  0
  6 20  1  0  0  0  0
  7 10  2  0  0  0  0
  7 19  1  0  0  0  0
  8 23  1  0  0  0  0
  9 23  2  0  0  0  0
 10 24  1  0  0  0  0
 11 12  2  0  0  0  0
 11 25  1  0  0  0  0
 12 26  1  0  0  0  0
 13 21  1  0  0  0  0
 13 24  2  0  0  0  0
 14 22  1  0  0  0  0
 14 29  2  0  0  0  0
 15 26  2  0  0  0  0
 15 27  1  0  0  0  0
 16 28  1  0  0  0  0
 17 28  1  0  0  0  0
 17 31  2  0  0  0  0
 17 32  1  0  0  0  0
 18 20  2  0  0  0  0
 18 37  1  0  0  0  0
 19 21  2  0  0  0  0
 19 38  1  0  0  0  0
 20 46  1  0  0  0  0
 21 39  1  0  0  0  0
 22 30  2  0  0  0  0
 22 61  1  0  0  0  0
 23 82  1  0  0  0  0
 24 83  1  0  0  0  0
 25 27  2  0  0  0  0
 25 82  1  0  0  0  0
 26 84  1  0  0  0  0
 27 85  1  0  0  0  0
 28 65  2  0  0  0  0
 29 56  1  0  0  0  0
 29 66  1  0  0  0  0
 30 57  1  0  0  0  0
 30 67  1  0  0  0  0
 31 68  1  0  0  0  0
 31 71  1  0  0  0  0
 32 72  1  0  0  0  0
 32 77  2  0  0  0  0
 33 47  1  0  0  0  0
 33 73  1  0  0  0  0
 33 78  2  0  0  0  0
 34 62  1  0  0  0  0
 34 69  1  0  0  0  0
 34 79  2  0  0  0  0
 35 63  1  0  0  0  0
 35 74  1  0  0  0  0
 35 80  2  0  0  0  0
 36 70  1  0  0  0  0
 36 75  1  0  0  0  0
 36 81  2  0  0  0  0
 37 40  1  0  0  0  0
 38 47  1  0  0  0  0
 39 69  1  0  0  0  0
 40 42  1  0  0  0  0
 41 43  1  0  0  0  0
 41 44  1  0  0  0  0
 42 46  1  0  0  0  0
 43 48  1  0  0  0  0
 44 70  1  0  0  0  0
 45 48  1  0  0  0  0
 45 70  1  0  0  0  0
 46 73  1  0  0  0  0
 47 69  1  0  0  0  0
 48 68  1  0  0  0  0
 49 58  1  0  0  0  0
 50 61  1  0  0  0  0
 51 63  1  0  0  0  0
 52 64  1  0  0  0  0
 53 64  1  0  0  0  0
 54 64  1  0  0  0  0
 55 76  1  0  0  0  0
 56 59  1  0  0  0  0
 57 58  1  0  0  0  0
 59 60  1  0  0  0  0
 60 75  1  0  0  0  0
 61 83  1  0  0  0  0
 62 64  1  0  0  0  0
 62 74  1  0  0  0  0
 63 76  1  0  0  0  0
 65 68  1  0  0  0  0
 66 67  2  0  0  0  0
M  CHG  1  76   1
M  ISO  4  36 100  61 101  75 100  83 101
M  END
> <Batch ID>
0088

> <Smiles>
CCCc1nnc(CCC[100NH:0][100C:0](=O)N2CCCC(n3nc(-c4ccc(Oc5ccc(F)cc5F)cc4)c(C(N)=O)c3N)C2)cc1[101CH:1](C)[101O:1]c1ccc2c(c1)CN(C(=O)C(NC(=O)C(C)NC)C(C)(C)C)C(C(=O)NC1CCCc3ccccc31)C2

> <Shape>
0.209

> <Color>
0.076

> <Negative vol penalty>
0.000

$$$$

  -OEChem-04052319043D

 87 95  0     1  0  0  0  0  0999 V2000
  -21.4860  -30.6718   19.9047 C   0  0  0  0  0  0  0  0  0  0  0  0
  -21.7215  -29.4046   19.3810 C   0  0  0  0  0  0  0  0  0  0  0  0
  -23.7902   -9.7158   21.6970 C   0  0  0  0  0  0  0  0  0  0  0  0
  -24.3495  -10.9011   23.7266 C   0  0  0  0  0  0  0  0  0  0  0  0
  -22.4812  -31.3184   20.6365 C   0  0  0  0  0  0  0  0  0  0  0  0
  -22.9528  -28.7837   19.5879 C   0  0  0  0  0  0  0  0  0  0  0  0
  -25.8488  -22.2974   20.5136 C   0  0  0  0  0  0  0  0  0  0  0  0
  -28.4963  -17.5695   24.6150 C   0  0  0  0  0  0  0  0  0  0  0  0
  -29.7670  -17.1241   24.2509 C   0  0  0  0  0  0  0  0  0  0  0  0
  -23.2645   -8.6685   22.4536 C   0  0  0  0  0  0  0  0  0  0  0  0
  -23.8238   -9.8538   24.4832 C   0  0  0  0  0  0  0  0  0  0  0  0
  -26.8613  -21.4869   20.0020 C   0  0  0  0  0  0  0  0  0  0  0  0
  -22.3023   -7.6536   26.9453 C   0  0  0  0  0  0  0  0  0  0  0  0
  -21.4778   -7.9804   28.0218 C   0  0  0  0  0  0  0  0  0  0  0  0
  -28.4778  -22.6662   21.3493 C   0  0  0  0  0  0  0  0  0  0  0  0
  -28.1304  -18.3664   22.3638 C   0  0  0  0  0  0  0  0  0  0  0  0
  -19.9461   -9.0835   26.5137 C   0  0  0  0  0  0  0  0  0  0  0  0
  -24.3328  -10.8321   22.3335 C   0  0  0  0  0  0  0  0  0  0  0  0
  -24.1911  -13.0488   21.0790 C   0  0  0  0  0  0  0  0  0  0  0  0
  -23.7219  -30.7010   20.8607 C   0  0  0  0  0  0  0  0  0  0  0  0
  -26.1453  -23.3072   21.4402 C   0  0  0  0  0  0  0  0  0  0  0  0
  -23.9660  -29.4232   20.3222 C   0  0  0  0  0  0  0  0  0  0  0  0
  -27.4669  -23.4865   21.8731 C   0  0  0  0  0  0  0  0  0  0  0  0
  -27.6780  -18.1906   23.6715 C   0  0  0  0  0  0  0  0  0  0  0  0
  -30.2194  -17.2999   22.9432 C   0  0  0  0  0  0  0  0  0  0  0  0
  -29.4011  -17.9211   21.9996 C   0  0  0  0  0  0  0  0  0  0  0  0
  -23.2812   -8.7375   23.8466 C   0  0  0  0  0  0  0  0  0  0  0  0
  -28.1764  -21.6732   20.4176 C   0  0  0  0  0  0  0  0  0  0  0  0
  -21.9488   -8.0418   25.6530 C   0  0  0  0  0  0  0  0  0  0  0  0
  -20.2997   -8.6954   27.8060 C   0  0  0  0  0  0  0  0  0  0  0  0
  -20.7707   -8.7567   25.4372 C   0  0  0  0  0  0  0  0  0  0  0  0
  -24.8765  -11.9140   21.5526 C   0  0  0  0  0  0  0  0  0  0  0  0
  -25.1441  -13.7663   20.3983 C   0  0  0  0  0  0  0  0  0  0  0  0
  -22.8159  -13.4210   21.2401 C   0  0  0  0  0  0  0  0  0  0  0  0
  -25.8728  -26.4740   21.4708 C   0  0  0  0  0  0  0  0  0  0  0  0
  -26.8207  -26.1361   24.5545 C   0  0  0  0  0  0  0  0  0  0  0  0
  -28.4468  -24.2609   26.8968 C   0  0  0  0  0  0  0  0  0  0  0  0
  -31.1122  -14.0282   20.8028 C   0  0  0  0  0  0  0  0  0  0  0  0
  -24.7835  -31.4589   21.6177 C   0  0  0  0  0  0  0  0  0  0  0  0
  -25.0378  -24.1555   22.0028 C   0  0  0  0  0  0  0  0  0  0  0  0
  -27.8347  -24.5432   22.8812 C   0  0  0  0  0  0  0  0  0  0  0  0
  -25.9277  -30.5764   22.1101 C   0  0  0  0  0  0  0  0  0  0  0  0
  -29.1963  -13.1992   17.9186 C   0  0  0  0  0  0  0  0  0  0  0  0
  -26.4032  -29.6483   20.9969 C   0  0  0  0  0  0  0  0  0  0  0  0
  -27.8101  -12.8782   18.4802 C   0  0  0  0  0  0  0  0  0  0  0  0
  -30.3073  -12.7277   18.8542 C   0  0  0  0  0  0  0  0  0  0  0  0
  -28.8090  -12.8917   20.8041 C   0  0  0  0  0  0  0  0  0  0  0  0
  -25.2799  -28.7066   20.5463 C   0  0  1  0  0  0  0  0  0  0  0  0
  -25.5288  -25.4907   22.5536 C   0  0  1  0  0  0  0  0  0  0  0  0
  -27.6550  -13.3981   19.9220 C   0  0  2  0  0  0  0  0  0  0  0  0
  -29.2720  -23.5707   29.1640 C   0  0  0  0  0  0  0  0  0  0  0  0
  -26.3981  -19.7269   25.2036 C   0  0  0  0  0  0  0  0  0  0  0  0
  -25.4318  -17.4900   24.5719 C   0  0  0  0  0  0  0  0  0  0  0  0
  -25.4931  -19.3465   22.9193 C   0  0  0  0  0  0  0  0  0  0  0  0
  -29.0288  -28.1581   23.9663 C   0  0  0  0  0  0  0  0  0  0  0  0
  -30.1741  -27.4131   26.0642 C   0  0  0  0  0  0  0  0  0  0  0  0
  -27.9091  -28.4516   26.1832 C   0  0  0  0  0  0  0  0  0  0  0  0
  -25.9860  -22.7121   27.4490 C   0  0  0  0  0  0  0  0  0  0  0  0
  -29.8687  -18.1224   20.5803 C   0  0  0  0  0  0  0  0  0  0  0  0
  -30.8693  -19.2688   20.4182 C   0  0  0  0  0  0  0  0  0  0  0  0
  -31.7723  -15.3082   22.8240 C   0  0  0  0  0  0  0  0  0  0  0  0
  -30.2863  -20.6330   20.7679 C   0  0  0  0  0  0  0  0  0  1  0  0
  -31.5840  -16.8159   22.5770 C   0  0  2  0  0  0  0  0  0  0  0  0
  -28.1514  -26.1077   25.2670 C   0  0  1  0  0  0  0  0  0  0  0  0
  -28.0496  -23.8340   28.2984 C   0  0  2  0  0  0  0  0  0  0  0  0
  -26.3197  -18.6671   24.0612 C   0  0  0  0  0  0  0  0  0  0  0  0
  -28.8095  -27.5139   25.3497 C   0  0  0  0  0  0  0  0  0  0  0  0
  -26.1654  -11.9067   21.2023 N   0  0  0  0  0  0  0  0  0  0  0  0
  -26.2974  -13.0456   20.5012 N   0  0  0  0  0  0  0  0  0  0  0  0
  -26.7175  -25.3514   23.3972 N   0  0  0  0  0  0  0  0  0  0  0  0
  -30.1022  -13.2568   20.2047 N   0  0  0  0  0  0  0  0  0  0  0  0
  -25.0996  -14.9371   19.7276 N   0  0  0  0  0  0  0  0  0  0  0  0
  -21.9741  -12.5695   21.9686 N   0  0  0  0  0  0  0  0  0  0  0  0
  -25.1131  -27.6279   21.4966 N   0  0  0  0  0  0  0  0  0  0  0  0
  -27.9070  -25.4851   26.5635 N   0  0  0  0  0  0  0  0  0  0  0  0
  -30.8344  -14.4961   22.0814 N   0  0  0  0  0  0  0  0  0  0  0  0
  -32.6795  -17.5445   23.3077 N   0  3  0  0  0  0  0  0  0  0  0  0
  -27.2319  -22.5891   28.2486 N   0  3  0  0  0  0  0  0  0  0  0  0
  -22.3436  -14.4693   20.7386 O   0  0  0  0  0  0  0  0  0  0  0  0
  -26.7627  -26.2063   20.6720 O   0  0  0  0  0  0  0  0  0  0  0  0
  -25.9044  -26.8235   25.0121 O   0  0  0  0  0  0  0  0  0  0  0  0
  -29.1670  -23.5783   26.1716 O   0  0  0  0  0  0  0  0  0  0  0  0
  -32.1802  -14.2857   20.2371 O   0  0  0  0  0  0  0  0  0  0  0  0
  -22.7681   -7.7158   24.5852 O   0  0  0  0  0  0  0  0  0  0  0  0
  -29.1667  -20.8839   19.9193 O   0  0  0  0  0  0  0  0  0  1  0  0
  -19.5072   -9.0078   28.8397 F   0  0  0  0  0  0  0  0  0  0  0  0
  -20.4253   -9.1314   24.1978 F   0  0  0  0  0  0  0  0  0  0  0  0
  1  2  1  0  0  0  0
  1  5  2  0  0  0  0
  2  6  2  0  0  0  0
  3 10  2  0  0  0  0
  3 18  1  0  0  0  0
  4 11  1  0  0  0  0
  4 18  2  0  0  0  0
  5 20  1  0  0  0  0
  6 22  1  0  0  0  0
  7 12  2  0  0  0  0
  7 21  1  0  0  0  0
  8  9  2  0  0  0  0
  8 24  1  0  0  0  0
  9 25  1  0  0  0  0
 10 27  1  0  0  0  0
 11 27  2  0  0  0  0
 12 28  1  0  0  0  0
 13 14  2  0  0  0  0
 13 29  1  0  0  0  0
 14 30  1  0  0  0  0
 15 23  1  0  0  0  0
 15 28  2  0  0  0  0
 16 24  2  0  0  0  0
 16 26  1  0  0  0  0
 17 30  2  0  0  0  0
 17 31  1  0  0  0  0
 18 32  1  0  0  0  0
 19 32  1  0  0  0  0
 19 33  2  0  0  0  0
 19 34  1  0  0  0  0
 20 22  2  0  0  0  0
 20 39  1  0  0  0  0
 21 23  2  0  0  0  0
 21 40  1  0  0  0  0
 22 48  1  0  0  0  0
 23 41  1  0  0  0  0
 24 66  1  0  0  0  0
 25 26  2  0  0  0  0
 25 63  1  0  0  0  0
 26 59  1  0  0  0  0
 27 84  1  0  0  0  0
 28 85  1  0  0  0  0
 29 31  2  0  0  0  0
 29 84  1  0  0  0  0
 30 86  1  0  0  0  0
 31 87  1  0  0  0  0
 32 68  2  0  0  0  0
 33 69  1  0  0  0  0
 33 72  1  0  0  0  0
 34 73  1  0  0  0  0
 34 79  2  0  0  0  0
 35 49  1  0  0  0  0
 35 74  1  0  0  0  0
 35 80  2  0  0  0  0
 36 64  1  0  0  0  0
 36 70  1  0  0  0  0
 36 81  2  0  0  0  0
 37 65  1  0  0  0  0
 37 75  1  0  0  0  0
 37 82  2  0  0  0  0
 38 71  1  0  0  0  0
 38 76  1  0  0  0  0
 38 83  2  0  0  0  0
 39 42  1  0  0  0  0
 40 49  1  0  0  0  0
 41 70  1  0  0  0  0
 42 44  1  0  0  0  0
 43 45  1  0  0  0  0
 43 46  1  0  0  0  0
 44 48  1  0  0  0  0
 45 50  1  0  0  0  0
 46 71  1  0  0  0  0
 47 50  1  0  0  0  0
 47 71  1  0  0  0  0
 48 74  1  0  0  0  0
 49 70  1  0  0  0  0
 50 69  1  0  0  0  0
 51 65  1  0  0  0  0
 52 66  1  0  0  0  0
 53 66  1  0  0  0  0
 54 66  1  0  0  0  0
 55 67  1  0  0  0  0
 56 67  1  0  0  0  0
 57 67  1  0  0  0  0
 58 78  1  0  0  0  0
 59 60  1  0  0  0  0
 60 62  1  0  0  0  0
 61 63  1  0  0  0  0
 61 76  1  0  0  0  0
 62 85  1  0  0  0  0
 63 77  1  0  0  0  0
 64 67  1  0  0  0  0
 64 75  1  0  0  0  0
 65 78  1  0  0  0  0
 68 69  1  0  0  0  0
M  CHG  2  77   1  78   1
M  ISO  4  38 100  62 101  76 100  85 101
M  END
> <Batch ID>
0088

> <Smiles>
CNC(C)C(=O)NC(C(=O)N1Cc2cc([101O:1][101CH2:1]CCc3cc(C(C)(C)C)ccc3C(N)C[100NH:0][100C:0](=O)N3CCCC(n4nc(-c5ccc(Oc6ccc(F)cc6F)cc5)c(C(N)=O)c4N)C3)ccc2CC1C(=O)NC1CCCc2ccccc21)C(C)(C)C

> <Shape>
0.226

> <Color>
0.160

> <Negative vol penalty>
0.000

$$$$

  -OEChem-04052319043D

 86 94  0     1  0  0  0  0  0999 V2000
  -22.6835  -23.4155   20.7260 C   0  0  0  0  0  0  0  0  0  0  0  0
  -23.8046  -22.8591   20.1186 C   0  0  0  0  0  0  0  0  0  0  0  0
  -25.9245  -27.4651   18.9175 C   0  0  0  0  0  0  0  0  0  0  0  0
  -26.3307  -27.6284   21.2935 C   0  0  0  0  0  0  0  0  0  0  0  0
  -22.1344  -22.8139   21.8576 C   0  0  0  0  0  0  0  0  0  0  0  0
  -24.3780  -21.7013   20.6431 C   0  0  0  0  0  0  0  0  0  0  0  0
  -27.8374  -15.7682   18.6068 C   0  0  0  0  0  0  0  0  0  0  0  0
  -24.7983  -28.2765   19.0542 C   0  0  0  0  0  0  0  0  0  0  0  0
  -25.2044  -28.4398   21.4302 C   0  0  0  0  0  0  0  0  0  0  0  0
  -28.9993  -15.0498   18.8851 C   0  0  0  0  0  0  0  0  0  0  0  0
  -21.8501  -28.0420   21.5762 C   0  0  0  0  0  0  0  0  0  0  0  0
  -20.9788  -27.7690   22.6307 C   0  0  0  0  0  0  0  0  0  0  0  0
  -27.9178  -14.0530   20.7971 C   0  0  0  0  0  0  0  0  0  0  0  0
  -30.9452  -16.0663   22.7391 C   0  0  0  0  0  0  0  0  0  0  0  0
  -21.3577  -29.9844   23.5172 C   0  0  0  0  0  0  0  0  0  0  0  0
  -26.6907  -27.1410   20.0372 C   0  0  0  0  0  0  0  0  0  0  0  0
  -29.1751  -26.7169   19.6426 C   0  0  0  0  0  0  0  0  0  0  0  0
  -22.6956  -21.6428   22.3906 C   0  0  0  0  0  0  0  0  0  0  0  0
  -26.7086  -15.6425   19.4293 C   0  0  0  0  0  0  0  0  0  0  0  0
  -23.8367  -21.0843   21.7837 C   0  0  0  0  0  0  0  0  0  0  0  0
  -26.7419  -14.7690   20.5256 C   0  0  0  0  0  0  0  0  0  0  0  0
  -32.1763  -15.4430   22.5683 C   0  0  0  0  0  0  0  0  0  0  0  0
  -33.3452  -16.1919   22.6467 C   0  0  0  0  0  0  0  0  0  0  0  0
  -24.4382  -28.7639   20.3106 C   0  0  0  0  0  0  0  0  0  0  0  0
  -29.0407  -14.1942   19.9821 C   0  0  0  0  0  0  0  0  0  0  0  0
  -22.4753  -29.2861   21.4923 C   0  0  0  0  0  0  0  0  0  0  0  0
  -20.7326  -28.7402   23.6012 C   0  0  0  0  0  0  0  0  0  0  0  0
  -22.2290  -30.2573   22.4627 C   0  0  0  0  0  0  0  0  0  0  0  0
  -27.8540  -26.3024   19.8967 C   0  0  0  0  0  0  0  0  0  0  0  0
  -30.9371  -17.4300   22.9841 C   0  0  0  0  0  0  0  0  0  0  0  0
  -33.2297  -17.5500   22.8957 C   0  0  0  0  0  0  0  0  0  0  0  0
  -29.8988  -25.5503   19.5999 C   0  0  0  0  0  0  0  0  0  0  0  0
  -29.7011  -28.0383   19.4614 C   0  0  0  0  0  0  0  0  0  0  0  0
  -25.0376  -17.6287   21.2640 C   0  0  0  0  0  0  0  0  0  0  0  0
  -23.0785  -15.0633   21.5844 C   0  0  0  0  0  0  0  0  0  0  0  0
  -22.7026  -11.6731   21.4729 C   0  0  0  0  0  0  0  0  0  0  0  0
  -29.0022  -20.2722   22.0885 C   0  0  0  0  0  0  0  0  0  0  0  0
  -22.0954  -21.0551   23.6432 C   0  0  0  0  0  0  0  0  0  0  0  0
  -25.4541  -16.4041   19.1000 C   0  0  0  0  0  0  0  0  0  0  0  0
  -25.5504  -14.5830   21.4279 C   0  0  0  0  0  0  0  0  0  0  0  0
  -22.5384  -19.6199   23.9156 C   0  0  0  0  0  0  0  0  0  0  0  0
  -29.4506  -20.9016   18.5529 C   0  0  0  0  0  0  0  0  0  0  0  0
  -24.0483  -19.4858   23.7448 C   0  0  0  0  0  0  0  0  0  0  0  0
  -29.2143  -22.4113   18.4804 C   0  0  0  0  0  0  0  0  0  0  0  0
  -28.5189  -20.2443   19.5669 C   0  0  0  0  0  0  0  0  0  0  0  0
  -28.3588  -22.3311   20.8682 C   0  0  0  0  0  0  0  0  0  0  0  0
  -24.4724  -19.8152   22.3085 C   0  0  1  0  0  0  0  0  0  0  0  0
  -24.5343  -16.5891   20.3030 C   0  0  1  0  0  0  0  0  0  0  0  0
  -29.2859  -23.0573   19.8767 C   0  0  2  0  0  0  0  0  0  0  0  0
  -34.5468  -19.1251   24.3347 C   0  0  0  0  0  0  0  0  0  0  0  0
  -35.5585  -15.6622   23.7305 C   0  0  0  0  0  0  0  0  0  0  0  0
  -35.4424  -16.1025   21.2510 C   0  0  0  0  0  0  0  0  0  0  0  0
  -20.9938   -9.8682   21.8187 C   0  0  0  0  0  0  0  0  0  0  0  0
  -23.3365  -15.4013   24.6058 C   0  0  0  0  0  0  0  0  0  0  0  0
  -22.4324  -13.0818   24.8724 C   0  0  0  0  0  0  0  0  0  0  0  0
  -21.0301  -14.8508   23.8108 C   0  0  0  0  0  0  0  0  0  0  0  0
  -22.9392  -10.7516   18.6705 C   0  0  0  0  0  0  0  0  0  0  0  0
  -32.2159  -13.9602   22.2975 C   0  0  0  0  0  0  0  0  0  0  0  0
  -34.4498  -18.4065   22.9925 C   0  0  0  0  0  0  0  0  0  0  0  0
  -29.6341  -18.1321   23.1738 C   0  0  0  0  0  0  0  0  0  0  0  0
  -32.4992  -13.6084   20.8355 C   0  0  0  0  0  0  0  0  0  0  0  0
  -31.4142  -14.0876   19.8781 C   0  0  0  0  0  0  0  0  0  1  0  0
  -34.6801  -15.5499   22.4701 C   0  0  0  0  0  0  0  0  0  0  0  0
  -22.9937  -13.8952   22.5369 C   0  0  1  0  0  0  0  0  0  0  0  0
  -21.6539  -10.7972   20.8117 C   0  0  2  0  0  0  0  0  0  0  0  0
  -22.4714  -14.3120   23.9408 C   0  0  0  0  0  0  0  0  0  0  0  0
  -27.7420  -24.9760   20.0075 N   0  0  0  0  0  0  0  0  0  0  0  0
  -32.0516  -18.1906   23.0671 N   0  0  0  0  0  0  0  0  0  0  0  0
  -29.0020  -24.5470   19.8221 N   0  0  0  0  0  0  0  0  0  0  0  0
  -24.3491  -15.3544   21.0681 N   0  0  0  0  0  0  0  0  0  0  0  0
  -28.6493  -20.8935   20.8790 N   0  0  0  0  0  0  0  0  0  0  0  0
  -31.2084  -25.2951   19.3944 N   0  0  0  0  0  0  0  0  0  0  0  0
  -28.8189  -29.1248   19.5367 N   0  0  0  0  0  0  0  0  0  0  0  0
  -24.1840  -18.7029   21.4287 N   0  0  0  0  0  0  0  0  0  0  0  0
  -22.1785  -12.8845   21.8719 N   0  0  0  0  0  0  0  0  0  0  0  0
  -29.2544  -18.9078   22.0140 N   0  0  0  0  0  0  0  0  0  0  0  0
  -22.2734   -9.9658   19.7412 N   0  3  0  0  0  0  0  0  0  0  0  0
  -30.9146  -28.2482   19.2229 O   0  0  0  0  0  0  0  0  0  0  0  0
  -26.1196  -17.4676   21.8163 O   0  0  0  0  0  0  0  0  0  0  0  0
  -22.0538  -15.6898   21.3030 O   0  0  0  0  0  0  0  0  0  0  0  0
  -23.8691  -11.3169   21.6240 O   0  0  0  0  0  0  0  0  0  0  0  0
  -29.0913  -20.8889   23.1556 O   0  0  0  0  0  0  0  0  0  0  0  0
  -23.3394  -29.5559   20.4443 O   0  0  0  0  0  0  0  0  0  0  0  0
  -30.1738  -13.4922   20.2564 O   0  0  0  0  0  0  0  0  0  1  0  0
  -19.8947  -28.4785   24.6130 F   0  0  0  0  0  0  0  0  0  0  0  0
  -22.8258  -31.4548   22.3867 F   0  0  0  0  0  0  0  0  0  0  0  0
  1  2  1  0  0  0  0
  1  5  2  0  0  0  0
  2  6  2  0  0  0  0
  3  8  2  0  0  0  0
  3 16  1  0  0  0  0
  4  9  1  0  0  0  0
  4 16  2  0  0  0  0
  5 18  1  0  0  0  0
  6 20  1  0  0  0  0
  7 10  2  0  0  0  0
  7 19  1  0  0  0  0
  8 24  1  0  0  0  0
  9 24  2  0  0  0  0
 10 25  1  0  0  0  0
 11 12  2  0  0  0  0
 11 26  1  0  0  0  0
 12 27  1  0  0  0  0
 13 21  1  0  0  0  0
 13 25  2  0  0  0  0
 14 22  2  0  0  0  0
 14 30  1  0  0  0  0
 15 27  2  0  0  0  0
 15 28  1  0  0  0  0
 16 29  1  0  0  0  0
 17 29  1  0  0  0  0
 17 32  2  0  0  0  0
 17 33  1  0  0  0  0
 18 20  2  0  0  0  0
 18 38  1  0  0  0  0
 19 21  2  0  0  0  0
 19 39  1  0  0  0  0
 20 47  1  0  0  0  0
 21 40  1  0  0  0  0
 22 23  1  0  0  0  0
 22 58  1  0  0  0  0
 23 31  2  0  0  0  0
 23 63  1  0  0  0  0
 24 83  1  0  0  0  0
 25 84  1  0  0  0  0
 26 28  2  0  0  0  0
 26 83  1  0  0  0  0
 27 85  1  0  0  0  0
 28 86  1  0  0  0  0
 29 67  2  0  0  0  0
 30 60  1  0  0  0  0
 30 68  2  0  0  0  0
 31 59  1  0  0  0  0
 31 68  1  0  0  0  0
 32 69  1  0  0  0  0
 32 72  1  0  0  0  0
 33 73  1  0  0  0  0
 33 78  2  0  0  0  0
 34 48  1  0  0  0  0
 34 74  1  0  0  0  0
 34 79  2  0  0  0  0
 35 64  1  0  0  0  0
 35 70  1  0  0  0  0
 35 80  2  0  0  0  0
 36 65  1  0  0  0  0
 36 75  1  0  0  0  0
 36 81  2  0  0  0  0
 37 71  1  0  0  0  0
 37 76  1  0  0  0  0
 37 82  2  0  0  0  0
 38 41  1  0  0  0  0
 39 48  1  0  0  0  0
 40 70  1  0  0  0  0
 41 43  1  0  0  0  0
 42 44  1  0  0  0  0
 42 45  1  0  0  0  0
 43 47  1  0  0  0  0
 44 49  1  0  0  0  0
 45 71  1  0  0  0  0
 46 49  1  0  0  0  0
 46 71  1  0  0  0  0
 47 74  1  0  0  0  0
 48 70  1  0  0  0  0
 49 69  1  0  0  0  0
 50 59  1  0  0  0  0
 51 63  1  0  0  0  0
 52 63  1  0  0  0  0
 53 65  1  0  0  0  0
 54 66  1  0  0  0  0
 55 66  1  0  0  0  0
 56 66  1  0  0  0  0
 57 77  1  0  0  0  0
 58 61  1  0  0  0  0
 60 76  1  0  0  0  0
 61 62  1  0  0  0  0
 62 84  1  0  0  0  0
 64 66  1  0  0  0  0
 64 75  1  0  0  0  0
 65 77  1  0  0  0  0
 67 69  1  0  0  0  0
M  CHG  1  77   1
M  ISO  4  37 100  62 101  76 100  84 101
M  END
> <Batch ID>
0088

> <Smiles>
CCc1nc(C[100NH:0][100C:0](=O)N2CCCC(n3nc(-c4ccc(Oc5ccc(F)cc5F)cc4)c(C(N)=O)c3N)C2)cc(CC[101CH2:1][101O:1]c2ccc3c(c2)CN(C(=O)C(NC(=O)C(C)NC)C(C)(C)C)C(C(=O)NC2CCCc4ccccc42)C3)c1C(C)C

> <Shape>
0.249

> <Color>
0.051

> <Negative vol penalty>
0.000

$$$$

  -OEChem-04052319043D

 88 96  0     1  0  0  0  0  0999 V2000
  -26.7784  -34.2627   25.6019 C   0  0  0  0  0  0  0  0  0  0  0  0
  -27.1991  -33.0830   24.9963 C   0  0  0  0  0  0  0  0  0  0  0  0
  -24.3436  -12.5586   19.6831 C   0  0  0  0  0  0  0  0  0  0  0  0
  -24.7271  -14.1617   21.4495 C   0  0  0  0  0  0  0  0  0  0  0  0
  -25.4512  -34.4030   26.0052 C   0  0  0  0  0  0  0  0  0  0  0  0
  -26.2930  -32.0425   24.7945 C   0  0  0  0  0  0  0  0  0  0  0  0
  -26.6672  -30.0096   20.1715 C   0  0  0  0  0  0  0  0  0  0  0  0
  -28.5800  -22.3834   17.1896 C   0  0  0  0  0  0  0  0  0  0  0  0
  -27.6366  -21.9970   16.2376 C   0  0  0  0  0  0  0  0  0  0  0  0
  -25.5075  -11.8808   20.0456 C   0  0  0  0  0  0  0  0  0  0  0  0
  -25.8910  -13.4838   21.8121 C   0  0  0  0  0  0  0  0  0  0  0  0
  -27.7215  -29.1251   19.9483 C   0  0  0  0  0  0  0  0  0  0  0  0
  -28.8392  -12.2417   19.6056 C   0  0  0  0  0  0  0  0  0  0  0  0
  -29.7023  -11.8452   18.5841 C   0  0  0  0  0  0  0  0  0  0  0  0
  -26.2144  -27.2644   20.2410 C   0  0  0  0  0  0  0  0  0  0  0  0
  -26.8148  -22.7089   18.8068 C   0  0  0  0  0  0  0  0  0  0  0  0
  -29.4350   -9.5392   19.2532 C   0  0  0  0  0  0  0  0  0  0  0  0
  -23.9534  -13.6991   20.3850 C   0  0  0  0  0  0  0  0  0  0  0  0
  -21.4498  -14.1755   20.4974 C   0  0  0  0  0  0  0  0  0  0  0  0
  -24.5260  -33.3674   25.7995 C   0  0  0  0  0  0  0  0  0  0  0  0
  -25.3786  -29.5273   20.4423 C   0  0  0  0  0  0  0  0  0  0  0  0
  -24.9524  -32.1687   25.1966 C   0  0  0  0  0  0  0  0  0  0  0  0
  -25.1449  -28.1449   20.4647 C   0  0  0  0  0  0  0  0  0  0  0  0
  -28.1691  -22.7393   18.4742 C   0  0  0  0  0  0  0  0  0  0  0  0
  -26.2823  -21.9666   16.5701 C   0  0  0  0  0  0  0  0  0  0  0  0
  -25.8714  -22.3226   17.8547 C   0  0  0  0  0  0  0  0  0  0  0  0
  -26.2812  -12.3433   21.1101 C   0  0  0  0  0  0  0  0  0  0  0  0
  -27.4958  -27.7522   19.9859 C   0  0  0  0  0  0  0  0  0  0  0  0
  -28.2741  -11.2869   20.4510 C   0  0  0  0  0  0  0  0  0  0  0  0
  -30.0002  -10.4940   18.4079 C   0  0  0  0  0  0  0  0  0  0  0  0
  -28.5720   -9.9356   20.2748 C   0  0  0  0  0  0  0  0  0  0  0  0
  -22.7515  -14.4001   20.0107 C   0  0  0  0  0  0  0  0  0  0  0  0
  -20.6722  -15.0933   19.8344 C   0  0  0  0  0  0  0  0  0  0  0  0
  -20.9851  -13.2225   21.4626 C   0  0  0  0  0  0  0  0  0  0  0  0
  -23.3714  -29.7466   22.8973 C   0  0  0  0  0  0  0  0  0  0  0  0
  -21.9907  -20.3711   17.2813 C   0  0  0  0  0  0  0  0  0  0  0  0
  -21.3429  -28.2287   20.8716 C   0  0  0  0  0  0  0  0  0  0  0  0
  -20.9384  -26.2083   18.1511 C   0  0  0  0  0  0  0  0  0  0  0  0
  -23.1130  -33.5473   26.2952 C   0  0  0  0  0  0  0  0  0  0  0  0
  -24.2466  -30.4947   20.6544 C   0  0  0  0  0  0  0  0  0  0  0  0
  -23.7759  -27.5762   20.7311 C   0  0  0  0  0  0  0  0  0  0  0  0
  -22.1281  -32.5408   25.7059 C   0  0  0  0  0  0  0  0  0  0  0  0
  -20.4244  -17.5408   15.7397 C   0  0  0  0  0  0  0  0  0  0  0  0
  -22.7064  -31.1305   25.7651 C   0  0  0  0  0  0  0  0  0  0  0  0
  -20.7495  -16.3889   16.6898 C   0  0  0  0  0  0  0  0  0  0  0  0
  -21.5701  -18.5454   15.6675 C   0  0  0  0  0  0  0  0  0  0  0  0
  -22.3131  -17.9373   17.9478 C   0  0  0  0  0  0  0  0  0  0  0  0
  -23.9935  -31.0268   24.9380 C   0  0  1  0  0  0  0  0  0  0  0  0
  -23.0807  -29.8894   21.4300 C   0  0  1  0  0  0  0  0  0  0  0  0
  -21.1693  -16.9155   18.0736 C   0  0  2  0  0  0  0  0  0  0  0  0
  -25.5092  -20.1021   15.0604 C   0  0  0  0  0  0  0  0  0  0  0  0
  -25.2738  -22.5011   14.3226 C   0  0  0  0  0  0  0  0  0  0  0  0
  -21.6069  -22.0137   19.0817 C   0  0  0  0  0  0  0  0  0  0  0  0
  -19.1620  -25.1125   16.7578 C   0  0  0  0  0  0  0  0  0  0  0  0
  -30.5826  -24.9738   20.5408 C   0  0  0  0  0  0  0  0  0  0  0  0
  -24.4291  -20.7879   20.2559 C   0  0  0  0  0  0  0  0  0  0  0  0
  -20.9123  -26.1480   23.0614 C   0  0  0  0  0  0  0  0  0  0  0  0
  -19.9278  -24.6312   21.3299 C   0  0  0  0  0  0  0  0  0  0  0  0
  -18.8376  -26.8172   21.8357 C   0  0  0  0  0  0  0  0  0  0  0  0
  -21.7895  -27.6596   15.7162 C   0  0  0  0  0  0  0  0  0  0  0  0
  -29.1902  -23.1578   19.5041 C   0  0  0  0  0  0  0  0  0  0  0  0
  -24.4268  -22.2979   18.2335 C   0  0  0  0  0  0  0  0  0  0  0  0
  -28.2207  -25.4931   19.8223 C   0  0  0  0  0  0  0  0  0  1  0  0
  -25.2905  -21.5507   15.5338 C   0  0  0  0  0  0  0  0  0  0  0  0
  -22.3918  -20.7666   18.6801 C   0  0  2  0  0  0  0  0  0  0  0  0
  -21.0214  -26.7866   20.5621 C   0  0  1  0  0  0  0  0  0  0  0  0
  -20.0515  -26.3346   16.9255 C   0  0  2  0  0  0  0  0  0  0  0  0
  -29.4813  -24.6718   19.5165 C   0  0  1  0  0  0  0  0  0  0  0  0
  -23.9262  -20.9442   18.8134 C   0  0  2  0  0  0  0  0  0  0  0  0
  -20.2011  -26.1061   21.6942 C   0  0  0  0  0  0  0  0  0  0  0  0
  -22.8020  -15.3834   19.1081 N   0  0  0  0  0  0  0  0  0  0  0  0
  -21.5223  -15.7847   19.0223 N   0  0  0  0  0  0  0  0  0  0  0  0
  -22.7029  -28.5627   20.9385 N   0  0  0  0  0  0  0  0  0  0  0  0
  -21.9542  -19.0045   17.0035 N   0  0  0  0  0  0  0  0  0  0  0  0
  -19.3511  -15.3682   19.8727 N   0  0  0  0  0  0  0  0  0  0  0  0
  -21.9174  -12.3545   22.0469 N   0  0  0  0  0  0  0  0  0  0  0  0
  -23.6821  -30.9364   23.5276 N   0  0  0  0  0  0  0  0  0  0  0  0
  -20.3601  -26.7857   19.2617 N   0  0  0  0  0  0  0  0  0  0  0  0
  -20.8828  -26.4830   15.6976 N   0  3  0  0  0  0  0  0  0  0  0  0
  -19.7761  -13.1321   21.7847 O   0  0  0  0  0  0  0  0  0  0  0  0
  -23.3165  -28.6392   23.4191 O   0  0  0  0  0  0  0  0  0  0  0  0
  -21.7155  -21.2517   16.4622 O   0  0  0  0  0  0  0  0  0  0  0  0
  -20.4211  -29.0310   21.0404 O   0  0  0  0  0  0  0  0  0  0  0  0
  -22.0330  -25.6499   18.1265 O   0  0  0  0  0  0  0  0  0  0  0  0
  -27.4168  -11.6820   21.4643 O   0  0  0  0  0  0  0  0  0  0  0  0
  -28.5232  -26.8867   19.7691 O   0  0  0  0  0  0  0  0  0  1  0  0
  -30.8278  -10.1133   17.4259 F   0  0  0  0  0  0  0  0  0  0  0  0
  -28.0312   -9.0137   21.0831 F   0  0  0  0  0  0  0  0  0  0  0  0
  1  2  1  0  0  0  0
  1  5  2  0  0  0  0
  2  6  2  0  0  0  0
  3 10  2  0  0  0  0
  3 18  1  0  0  0  0
  4 11  1  0  0  0  0
  4 18  2  0  0  0  0
  5 20  1  0  0  0  0
  6 22  1  0  0  0  0
  7 12  2  0  0  0  0
  7 21  1  0  0  0  0
  8  9  2  0  0  0  0
  8 24  1  0  0  0  0
  9 25  1  0  0  0  0
 10 27  1  0  0  0  0
 11 27  2  0  0  0  0
 12 28  1  0  0  0  0
 13 14  2  0  0  0  0
 13 29  1  0  0  0  0
 14 30  1  0  0  0  0
 15 23  1  0  0  0  0
 15 28  2  0  0  0  0
 16 24  2  0  0  0  0
 16 26  1  0  0  0  0
 17 30  2  0  0  0  0
 17 31  1  0  0  0  0
 18 32  1  0  0  0  0
 19 32  1  0  0  0  0
 19 33  2  0  0  0  0
 19 34  1  0  0  0  0
 20 22  2  0  0  0  0
 20 39  1  0  0  0  0
 21 23  2  0  0  0  0
 21 40  1  0  0  0  0
 22 48  1  0  0  0  0
 23 41  1  0  0  0  0
 24 61  1  0  0  0  0
 25 26  2  0  0  0  0
 25 64  1  0  0  0  0
 26 62  1  0  0  0  0
 27 85  1  0  0  0  0
 28 86  1  0  0  0  0
 29 31  2  0  0  0  0
 29 85  1  0  0  0  0
 30 87  1  0  0  0  0
 31 88  1  0  0  0  0
 32 71  2  0  0  0  0
 33 72  1  0  0  0  0
 33 75  1  0  0  0  0
 34 76  1  0  0  0  0
 34 80  2  0  0  0  0
 35 49  1  0  0  0  0
 35 77  1  0  0  0  0
 35 81  2  0  0  0  0
 36 65  1  0  0  0  0
 36 74  1  0  0  0  0
 36 82  2  0  0  0  0
 37 66  1  0  0  0  0
 37 73  1  0  0  0  0
 37 83  2  0  0  0  0
 38 67  1  0  0  0  0
 38 78  1  0  0  0  0
 38 84  2  0  0  0  0
 39 42  1  0  0  0  0
 40 49  1  0  0  0  0
 41 73  1  0  0  0  0
 42 44  1  0  0  0  0
 43 45  1  0  0  0  0
 43 46  1  0  0  0  0
 44 48  1  0  0  0  0
 45 50  1  0  0  0  0
 46 74  1  0  0  0  0
 47 50  1  0  0  0  0
 47 74  1  0  0  0  0
 48 77  1  0  0  0  0
 49 73  1  0  0  0  0
 50 72  1  0  0  0  0
 51 64  1  0  0  0  0
 52 64  1  0  0  0  0
 53 65  1  0  0  0  0
 54 67  1  0  0  0  0
 55 68  1  0  0  0  0
 56 69  1  0  0  0  0
 57 70  1  0  0  0  0
 58 70  1  0  0  0  0
 59 70  1  0  0  0  0
 60 79  1  0  0  0  0
 61 68  1  0  0  0  0
 62 69  1  0  0  0  0
 63 68  1  0  0  0  0
 63 86  1  0  0  0  0
 65 69  1  0  0  0  0
 66 70  1  0  0  0  0
 66 78  1  0  0  0  0
 67 79  1  0  0  0  0
 71 72  1  0  0  0  0
M  CHG  1  79   1
M  ISO  4  36 100  63 101  65 100  86 101
M  END
> <Batch ID>
0088

> <Smiles>
CNC(C)C(=O)NC(C(=O)N1Cc2cc([101O:1][101CH2:1]C(C)Cc3ccc(C(C)C)c(CC(C)[100CH:0](C)[100C:0](=O)N4CCCC(n5nc(-c6ccc(Oc7ccc(F)cc7F)cc6)c(C(N)=O)c5N)C4)c3)ccc2CC1C(=O)NC1CCCc2ccccc21)C(C)(C)C

> <Shape>
0.221

> <Color>
0.086

> <Negative vol penalty>
0.000

$$$$

  -OEChem-04052319043D

 88 96  0     1  0  0  0  0  0999 V2000
  -39.4756  -27.4106   22.2995 C   0  0  0  0  0  0  0  0  0  0  0  0
  -39.3974  -26.0264   22.4145 C   0  0  0  0  0  0  0  0  0  0  0  0
  -23.0741   -9.8689   19.9420 C   0  0  0  0  0  0  0  0  0  0  0  0
  -23.8385   -9.8750   22.2338 C   0  0  0  0  0  0  0  0  0  0  0  0
  -38.6917  -28.2224   23.1184 C   0  0  0  0  0  0  0  0  0  0  0  0
  -38.5360  -25.4531   23.3493 C   0  0  0  0  0  0  0  0  0  0  0  0
  -34.3984  -19.6880   24.3288 C   0  0  0  0  0  0  0  0  0  0  0  0
  -22.3314   -8.7152   20.1927 C   0  0  0  0  0  0  0  0  0  0  0  0
  -23.0958   -8.7212   22.4846 C   0  0  0  0  0  0  0  0  0  0  0  0
  -34.1711  -18.6699   25.2538 C   0  0  0  0  0  0  0  0  0  0  0  0
  -19.8693   -7.9212   23.0930 C   0  0  0  0  0  0  0  0  0  0  0  0
  -19.1147   -7.8801   24.2653 C   0  0  0  0  0  0  0  0  0  0  0  0
  -32.8064  -20.1699   26.5603 C   0  0  0  0  0  0  0  0  0  0  0  0
  -30.5871  -16.6716   24.9910 C   0  0  0  0  0  0  0  0  0  0  0  0
  -28.2430  -16.8208   24.4257 C   0  0  0  0  0  0  0  0  0  0  0  0
  -20.3586   -5.9429   24.9982 C   0  0  0  0  0  0  0  0  0  0  0  0
  -23.8277  -10.4488   20.9625 C   0  0  0  0  0  0  0  0  0  0  0  0
  -24.1679  -12.9742   20.8433 C   0  0  0  0  0  0  0  0  0  0  0  0
  -37.8132  -27.6586   24.0570 C   0  0  0  0  0  0  0  0  0  0  0  0
  -33.8393  -20.9599   24.5185 C   0  0  0  0  0  0  0  0  0  0  0  0
  -37.7407  -26.2581   24.1824 C   0  0  0  0  0  0  0  0  0  0  0  0
  -33.0260  -21.2016   25.6349 C   0  0  0  0  0  0  0  0  0  0  0  0
  -29.5794  -17.0680   24.1119 C   0  0  0  0  0  0  0  0  0  0  0  0
  -30.2584  -16.0277   26.1840 C   0  0  0  0  0  0  0  0  0  0  0  0
  -27.9142  -16.1769   25.6186 C   0  0  0  0  0  0  0  0  0  0  0  0
  -28.9220  -15.7804   26.4978 C   0  0  0  0  0  0  0  0  0  0  0  0
  -22.3422   -8.1413   21.4640 C   0  0  0  0  0  0  0  0  0  0  0  0
  -33.3774  -18.9116   26.3713 C   0  0  0  0  0  0  0  0  0  0  0  0
  -20.8686   -6.9731   22.8732 C   0  0  0  0  0  0  0  0  0  0  0  0
  -19.3593   -6.8910   25.2180 C   0  0  0  0  0  0  0  0  0  0  0  0
  -21.1132   -5.9840   23.8258 C   0  0  0  0  0  0  0  0  0  0  0  0
  -24.5956  -11.6403   20.7040 C   0  0  0  0  0  0  0  0  0  0  0  0
  -25.2589  -13.7245   20.4784 C   0  0  0  0  0  0  0  0  0  0  0  0
  -22.8979  -13.4890   21.2651 C   0  0  0  0  0  0  0  0  0  0  0  0
  -35.0103  -23.8853   24.9361 C   0  0  0  0  0  0  0  0  0  0  0  0
  -31.8877  -24.7415   24.7393 C   0  0  0  0  0  0  0  0  0  0  0  0
  -28.6116  -23.8476   25.0780 C   0  0  0  0  0  0  0  0  0  0  0  0
  -30.7424  -14.7467   20.6566 C   0  0  0  0  0  0  0  0  0  0  0  0
  -37.0207  -28.5774   24.9528 C   0  0  0  0  0  0  0  0  0  0  0  0
  -34.0721  -22.0397   23.4976 C   0  0  0  0  0  0  0  0  0  0  0  0
  -32.3860  -22.5439   25.8740 C   0  0  0  0  0  0  0  0  0  0  0  0
  -35.8574  -27.8856   25.6588 C   0  0  0  0  0  0  0  0  0  0  0  0
  -29.6015  -12.3629   18.2706 C   0  0  0  0  0  0  0  0  0  0  0  0
  -36.3103  -26.5581   26.2584 C   0  0  0  0  0  0  0  0  0  0  0  0
  -28.1651  -12.0681   18.7062 C   0  0  0  0  0  0  0  0  0  0  0  0
  -30.5208  -12.5836   19.4698 C   0  0  0  0  0  0  0  0  0  0  0  0
  -28.6214  -13.3127   20.8606 C   0  0  0  0  0  0  0  0  0  0  0  0
  -36.8000  -25.5983   25.1673 C   0  0  1  0  0  0  0  0  0  0  0  0
  -33.8735  -23.4446   24.0579 C   0  0  1  0  0  0  0  0  0  0  0  0
  -27.6450  -13.1383   19.6848 C   0  0  2  0  0  0  0  0  0  0  0  0
  -28.5698  -15.0904   27.7771 C   0  0  0  0  0  0  0  0  0  0  0  0
  -30.6252  -19.1112   23.0844 C   0  0  0  0  0  0  0  0  0  0  0  0
  -26.2871  -24.7731   24.8848 C   0  0  0  0  0  0  0  0  0  0  0  0
  -24.4617  -14.3696   25.7648 C   0  0  0  0  0  0  0  0  0  0  0  0
  -26.1249  -14.4675   23.8972 C   0  0  0  0  0  0  0  0  0  0  0  0
  -32.2481  -26.1948   27.3978 C   0  0  0  0  0  0  0  0  0  0  0  0
  -29.7551  -26.2706   27.6147 C   0  0  0  0  0  0  0  0  0  0  0  0
  -30.8754  -27.4301   25.7114 C   0  0  0  0  0  0  0  0  0  0  0  0
  -27.8959  -21.9194   22.9498 C   0  0  0  0  0  0  0  0  0  0  0  0
  -31.3666  -15.6104   27.1174 C   0  0  0  0  0  0  0  0  0  0  0  0
  -26.4755  -15.9239   25.9313 C   0  0  0  0  0  0  0  0  0  0  0  0
  -31.5197  -16.5210   28.3376 C   0  0  0  0  0  0  0  0  0  0  0  0
  -30.8094  -16.8966   21.8946 C   0  0  0  0  0  0  0  0  0  0  0  0
  -31.9133  -17.9493   27.9795 C   0  0  0  0  0  0  0  0  0  1  0  0
  -29.9309  -17.7558   22.8362 C   0  0  1  0  0  0  0  0  0  0  0  0
  -30.7595  -24.9046   25.7289 C   0  0  1  0  0  0  0  0  0  0  0  0
  -27.4138  -24.0467   24.1669 C   0  0  2  0  0  0  0  0  0  0  0  0
  -25.9383  -14.5682   25.4132 C   0  0  0  0  0  0  0  0  0  0  0  0
  -30.9230  -26.1752   26.6100 C   0  0  0  0  0  0  0  0  0  0  0  0
  -25.8597  -11.5454   20.2832 N   0  0  0  0  0  0  0  0  0  0  0  0
  -26.2356  -12.8293   20.1549 N   0  0  0  0  0  0  0  0  0  0  0  0
  -32.6486  -23.5691   24.8506 N   0  0  0  0  0  0  0  0  0  0  0  0
  -29.9714  -13.6113   20.3575 N   0  0  0  0  0  0  0  0  0  0  0  0
  -25.4683  -15.0562   20.4057 N   0  0  0  0  0  0  0  0  0  0  0  0
  -21.8872  -12.5791   21.6038 N   0  0  0  0  0  0  0  0  0  0  0  0
  -35.6764  -25.0047   24.4748 N   0  0  0  0  0  0  0  0  0  0  0  0
  -29.5259  -24.8718   24.9507 N   0  0  0  0  0  0  0  0  0  0  0  0
  -30.1443  -15.6747   21.5003 N   0  0  0  0  0  0  0  0  0  0  0  0
  -26.8984  -22.7308   23.6939 N   0  3  0  0  0  0  0  0  0  0  0  0
  -22.6610  -14.7195   21.3236 O   0  0  0  0  0  0  0  0  0  0  0  0
  -35.2635  -23.2572   25.9574 O   0  0  0  0  0  0  0  0  0  0  0  0
  -32.0822  -25.6185   23.8939 O   0  0  0  0  0  0  0  0  0  0  0  0
  -28.7231  -22.8821   25.8302 O   0  0  0  0  0  0  0  0  0  0  0  0
  -31.8773  -14.9231   20.2008 O   0  0  0  0  0  0  0  0  0  0  0  0
  -21.6174   -7.0157   21.7091 O   0  0  0  0  0  0  0  0  0  0  0  0
  -33.1545  -17.9199   27.2761 O   0  0  0  0  0  0  0  0  0  1  0  0
  -18.6356   -6.8526   26.3444 F   0  0  0  0  0  0  0  0  0  0  0  0
  -22.0727   -5.0712   23.6207 F   0  0  0  0  0  0  0  0  0  0  0  0
  1  2  1  0  0  0  0
  1  5  2  0  0  0  0
  2  6  2  0  0  0  0
  3  8  2  0  0  0  0
  3 17  1  0  0  0  0
  4  9  1  0  0  0  0
  4 17  2  0  0  0  0
  5 19  1  0  0  0  0
  6 21  1  0  0  0  0
  7 10  2  0  0  0  0
  7 20  1  0  0  0  0
  8 27  1  0  0  0  0
  9 27  2  0  0  0  0
 10 28  1  0  0  0  0
 11 12  2  0  0  0  0
 11 29  1  0  0  0  0
 12 30  1  0  0  0  0
 13 22  1  0  0  0  0
 13 28  2  0  0  0  0
 14 23  2  0  0  0  0
 14 24  1  0  0  0  0
 15 23  1  0  0  0  0
 15 25  2  0  0  0  0
 16 30  2  0  0  0  0
 16 31  1  0  0  0  0
 17 32  1  0  0  0  0
 18 32  1  0  0  0  0
 18 33  2  0  0  0  0
 18 34  1  0  0  0  0
 19 21  2  0  0  0  0
 19 39  1  0  0  0  0
 20 22  2  0  0  0  0
 20 40  1  0  0  0  0
 21 48  1  0  0  0  0
 22 41  1  0  0  0  0
 23 65  1  0  0  0  0
 24 26  2  0  0  0  0
 24 60  1  0  0  0  0
 25 26  1  0  0  0  0
 25 61  1  0  0  0  0
 26 51  1  0  0  0  0
 27 85  1  0  0  0  0
 28 86  1  0  0  0  0
 29 31  2  0  0  0  0
 29 85  1  0  0  0  0
 30 87  1  0  0  0  0
 31 88  1  0  0  0  0
 32 70  2  0  0  0  0
 33 71  1  0  0  0  0
 33 74  1  0  0  0  0
 34 75  1  0  0  0  0
 34 80  2  0  0  0  0
 35 49  1  0  0  0  0
 35 76  1  0  0  0  0
 35 81  2  0  0  0  0
 36 66  1  0  0  0  0
 36 72  1  0  0  0  0
 36 82  2  0  0  0  0
 37 67  1  0  0  0  0
 37 77  1  0  0  0  0
 37 83  2  0  0  0  0
 38 73  1  0  0  0  0
 38 78  1  0  0  0  0
 38 84  2  0  0  0  0
 39 42  1  0  0  0  0
 40 49  1  0  0  0  0
 41 72  1  0  0  0  0
 42 44  1  0  0  0  0
 43 45  1  0  0  0  0
 43 46  1  0  0  0  0
 44 48  1  0  0  0  0
 45 50  1  0  0  0  0
 46 73  1  0  0  0  0
 47 50  1  0  0  0  0
 47 73  1  0  0  0  0
 48 76  1  0  0  0  0
 49 72  1  0  0  0  0
 50 71  1  0  0  0  0
 52 65  1  0  0  0  0
 53 67  1  0  0  0  0
 54 68  1  0  0  0  0
 55 68  1  0  0  0  0
 56 69  1  0  0  0  0
 57 69  1  0  0  0  0
 58 69  1  0  0  0  0
 59 79  1  0  0  0  0
 60 62  1  0  0  0  0
 61 68  1  0  0  0  0
 62 64  1  0  0  0  0
 63 65  1  0  0  0  0
 63 78  1  0  0  0  0
 64 86  1  0  0  0  0
 66 69  1  0  0  0  0
 66 77  1  0  0  0  0
 67 79  1  0  0  0  0
 70 71  1  0  0  0  0
M  CHG  1  79   1
M  ISO  4  38 100  64 101  78 100  86 101
M  END
> <Batch ID>
0088

> <Smiles>
CNC(C)C(=O)NC(C(=O)N1Cc2cc([101O:1][101CH2:1]CCc3cc(C(C)C[100NH:0][100C:0](=O)N4CCCC(n5nc(-c6ccc(Oc7ccc(F)cc7F)cc6)c(C(N)=O)c5N)C4)cc(CC(C)C)c3C)ccc2CC1C(=O)NC1CCCc2ccccc21)C(C)(C)C

> <Shape>
0.164

> <Color>
0.191

> <Negative vol penalty>
0.000

$$$$

  -OEChem-04052319043D

 89 97  0     1  0  0  0  0  0999 V2000
  -18.6660  -32.5872   19.9185 C   0  0  0  0  0  0  0  0  0  0  0  0
  -19.9432  -32.1906   19.5351 C   0  0  0  0  0  0  0  0  0  0  0  0
  -26.7978  -18.0279   20.7156 C   0  0  0  0  0  0  0  0  0  0  0  0
  -29.1041  -17.7989   20.0334 C   0  0  0  0  0  0  0  0  0  0  0  0
  -18.2266  -32.3542   21.2211 C   0  0  0  0  0  0  0  0  0  0  0  0
  -20.7821  -31.5618   20.4544 C   0  0  0  0  0  0  0  0  0  0  0  0
  -24.8734  -27.1557   19.2909 C   0  0  0  0  0  0  0  0  0  0  0  0
  -32.8156  -25.2835   18.0865 C   0  0  0  0  0  0  0  0  0  0  0  0
  -32.8340  -25.1132   19.4707 C   0  0  0  0  0  0  0  0  0  0  0  0
  -26.7747  -16.6841   21.0887 C   0  0  0  0  0  0  0  0  0  0  0  0
  -29.0811  -16.4550   20.4067 C   0  0  0  0  0  0  0  0  0  0  0  0
  -26.2533  -27.1852   19.0939 C   0  0  0  0  0  0  0  0  0  0  0  0
  -27.9465  -13.5353   19.1344 C   0  0  0  0  0  0  0  0  0  0  0  0
  -28.5083  -12.6090   18.2559 C   0  0  0  0  0  0  0  0  0  0  0  0
  -26.5908  -26.6332   21.4178 C   0  0  0  0  0  0  0  0  0  0  0  0
  -31.3431  -27.1821   18.3396 C   0  0  0  0  0  0  0  0  0  0  0  0
  -30.0841  -11.9456   19.9629 C   0  0  0  0  0  0  0  0  0  0  0  0
  -27.9625  -18.5853   20.1879 C   0  0  0  0  0  0  0  0  0  0  0  0
  -28.3346  -21.0738   20.6075 C   0  0  0  0  0  0  0  0  0  0  0  0
  -19.0571  -31.7135   22.1541 C   0  0  0  0  0  0  0  0  0  0  0  0
  -24.3411  -26.8749   20.5575 C   0  0  0  0  0  0  0  0  0  0  0  0
  -20.3539  -31.3212   21.7710 C   0  0  0  0  0  0  0  0  0  0  0  0
  -25.2038  -26.5982   21.6277 C   0  0  0  0  0  0  0  0  0  0  0  0
  -32.0702  -26.3180   17.5209 C   0  0  0  0  0  0  0  0  0  0  0  0
  -32.1070  -25.9772   20.2895 C   0  0  0  0  0  0  0  0  0  0  0  0
  -31.3615  -27.0117   19.7240 C   0  0  0  0  0  0  0  0  0  0  0  0
  -27.9163  -15.8977   20.9343 C   0  0  0  0  0  0  0  0  0  0  0  0
  -27.1123  -26.9268   20.1580 C   0  0  0  0  0  0  0  0  0  0  0  0
  -28.4535  -13.6668   20.4272 C   0  0  0  0  0  0  0  0  0  0  0  0
  -29.5770  -11.8141   18.6701 C   0  0  0  0  0  0  0  0  0  0  0  0
  -29.5223  -12.8720   20.8414 C   0  0  0  0  0  0  0  0  0  0  0  0
  -27.9868  -19.9732   19.8017 C   0  0  0  0  0  0  0  0  0  0  0  0
  -28.1988  -22.1617   19.7801 C   0  0  0  0  0  0  0  0  0  0  0  0
  -28.7439  -21.1097   21.9811 C   0  0  0  0  0  0  0  0  0  0  0  0
  -22.5322  -28.4637   22.6329 C   0  0  0  0  0  0  0  0  0  0  0  0
  -22.5717  -25.6421   24.2327 C   0  0  0  0  0  0  0  0  0  0  0  0
  -24.1476  -22.6758   24.8366 C   0  0  0  0  0  0  0  0  0  0  0  0
  -28.9850  -24.6538   14.8489 C   0  0  0  0  0  0  0  0  0  0  0  0
  -18.5555  -31.5258   23.5639 C   0  0  0  0  0  0  0  0  0  0  0  0
  -22.8500  -26.8205   20.7474 C   0  0  0  0  0  0  0  0  0  0  0  0
  -24.6826  -26.2715   23.0025 C   0  0  0  0  0  0  0  0  0  0  0  0
  -19.3691  -30.5172   24.3707 C   0  0  0  0  0  0  0  0  0  0  0  0
  -26.1218  -22.5645   15.1855 C   0  0  0  0  0  0  0  0  0  0  0  0
  -20.8625  -30.7756   24.1979 C   0  0  0  0  0  0  0  0  0  0  0  0
  -26.3835  -21.7909   16.4790 C   0  0  0  0  0  0  0  0  0  0  0  0
  -27.4086  -22.7972   14.3969 C   0  0  0  0  0  0  0  0  0  0  0  0
  -28.7581  -22.6622   16.4546 C   0  0  0  0  0  0  0  0  0  0  0  0
  -21.2843  -30.6140   22.7325 C   0  0  1  0  0  0  0  0  0  0  0  0
  -22.4243  -27.0297   22.1974 C   0  0  1  0  0  0  0  0  0  0  0  0
  -27.4983  -22.4518   17.3118 C   0  0  2  0  0  0  0  0  0  0  0  0
  -23.9607  -20.5924   26.2228 C   0  0  0  0  0  0  0  0  0  0  0  0
  -32.7502  -26.6221   24.7386 C   0  0  0  0  0  0  0  0  0  0  0  0
  -33.1776  -24.1961   24.2850 C   0  0  0  0  0  0  0  0  0  0  0  0
  -34.2044  -27.2296   22.0527 C   0  0  0  0  0  0  0  0  0  0  0  0
  -32.9043  -25.4686   15.2232 C   0  0  0  0  0  0  0  0  0  0  0  0
  -32.6365  -27.8971   15.6545 C   0  0  0  0  0  0  0  0  0  0  0  0
  -23.5387  -27.1866   26.6801 C   0  0  0  0  0  0  0  0  0  0  0  0
  -24.2307  -25.0057   27.6965 C   0  0  0  0  0  0  0  0  0  0  0  0
  -21.8299  -25.4263   27.1655 C   0  0  0  0  0  0  0  0  0  0  0  0
  -23.9553  -20.9563   22.4355 C   0  0  0  0  0  0  0  0  0  0  0  0
  -32.1410  -25.7744   21.7688 C   0  0  0  0  0  0  0  0  0  0  0  0
  -30.5667  -27.9589   20.5897 C   0  0  0  0  0  0  0  0  0  0  0  0
  -30.5973  -26.4437   15.4456 C   0  0  0  0  0  0  0  0  0  0  0  0
  -29.2641  -27.3386   21.0833 C   0  0  0  0  0  0  0  0  0  1  0  0
  -23.4634  -25.0190   25.2794 C   0  0  1  0  0  0  0  0  0  0  0  0
  -23.6259  -21.2514   24.8938 C   0  0  2  0  0  0  0  0  0  0  0  0
  -33.5905  -25.6293   23.9312 C   0  0  0  0  0  0  0  0  0  0  0  0
  -33.5595  -25.8770   22.3944 C   0  0  2  0  0  0  0  0  0  0  0  0
  -32.0503  -26.4996   16.0408 C   0  0  0  0  0  0  0  0  0  0  0  0
  -23.2758  -25.6674   26.6800 C   0  0  0  0  0  0  0  0  0  0  0  0
  -27.6548  -20.3292   18.5579 N   0  0  0  0  0  0  0  0  0  0  0  0
  -27.7933  -21.6659   18.5760 N   0  0  0  0  0  0  0  0  0  0  0  0
  -23.2171  -26.2367   23.1392 N   0  0  0  0  0  0  0  0  0  0  0  0
  -28.4243  -23.4279   15.2434 N   0  0  0  0  0  0  0  0  0  0  0  0
  -28.3878  -23.4845   19.9724 N   0  0  0  0  0  0  0  0  0  0  0  0
  -28.8310  -19.9003   22.6841 N   0  0  0  0  0  0  0  0  0  0  0  0
  -21.3962  -29.2122   22.3904 N   0  0  0  0  0  0  0  0  0  0  0  0
  -23.1947  -23.5855   25.2437 N   0  0  0  0  0  0  0  0  0  0  0  0
  -29.9356  -25.1858   15.7115 N   0  0  0  0  0  0  0  0  0  0  0  0
  -24.2259  -20.4357   23.8004 N   0  3  0  0  0  0  0  0  0  0  0  0
  -29.0084  -22.1839   22.5724 O   0  0  0  0  0  0  0  0  0  0  0  0
  -23.5687  -28.8612   23.1519 O   0  0  0  0  0  0  0  0  0  0  0  0
  -21.3474  -25.5965   24.3764 O   0  0  0  0  0  0  0  0  0  0  0  0
  -25.2877  -22.9535   24.4712 O   0  0  0  0  0  0  0  0  0  0  0  0
  -28.6585  -25.2342   13.8080 O   0  0  0  0  0  0  0  0  0  0  0  0
  -27.8942  -14.5864   21.2986 O   0  0  0  0  0  0  0  0  0  0  0  0
  -28.4595  -26.9557   19.9686 O   0  0  0  0  0  0  0  0  0  1  0  0
  -30.1154  -10.9235   17.8268 F   0  0  0  0  0  0  0  0  0  0  0  0
  -30.0130  -12.9930   22.0826 F   0  0  0  0  0  0  0  0  0  0  0  0
  1  2  1  0  0  0  0
  1  5  2  0  0  0  0
  2  6  2  0  0  0  0
  3 10  2  0  0  0  0
  3 18  1  0  0  0  0
  4 11  1  0  0  0  0
  4 18  2  0  0  0  0
  5 20  1  0  0  0  0
  6 22  1  0  0  0  0
  7 12  2  0  0  0  0
  7 21  1  0  0  0  0
  8  9  2  0  0  0  0
  8 24  1  0  0  0  0
  9 25  1  0  0  0  0
 10 27  1  0  0  0  0
 11 27  2  0  0  0  0
 12 28  1  0  0  0  0
 13 14  2  0  0  0  0
 13 29  1  0  0  0  0
 14 30  1  0  0  0  0
 15 23  1  0  0  0  0
 15 28  2  0  0  0  0
 16 24  2  0  0  0  0
 16 26  1  0  0  0  0
 17 30  2  0  0  0  0
 17 31  1  0  0  0  0
 18 32  1  0  0  0  0
 19 32  1  0  0  0  0
 19 33  2  0  0  0  0
 19 34  1  0  0  0  0
 20 22  2  0  0  0  0
 20 39  1  0  0  0  0
 21 23  2  0  0  0  0
 21 40  1  0  0  0  0
 22 48  1  0  0  0  0
 23 41  1  0  0  0  0
 24 69  1  0  0  0  0
 25 26  2  0  0  0  0
 25 61  1  0  0  0  0
 26 62  1  0  0  0  0
 27 86  1  0  0  0  0
 28 87  1  0  0  0  0
 29 31  2  0  0  0  0
 29 86  1  0  0  0  0
 30 88  1  0  0  0  0
 31 89  1  0  0  0  0
 32 71  2  0  0  0  0
 33 72  1  0  0  0  0
 33 75  1  0  0  0  0
 34 76  1  0  0  0  0
 34 81  2  0  0  0  0
 35 49  1  0  0  0  0
 35 77  1  0  0  0  0
 35 82  2  0  0  0  0
 36 65  1  0  0  0  0
 36 73  1  0  0  0  0
 36 83  2  0  0  0  0
 37 66  1  0  0  0  0
 37 78  1  0  0  0  0
 37 84  2  0  0  0  0
 38 74  1  0  0  0  0
 38 79  1  0  0  0  0
 38 85  2  0  0  0  0
 39 42  1  0  0  0  0
 40 49  1  0  0  0  0
 41 73  1  0  0  0  0
 42 44  1  0  0  0  0
 43 45  1  0  0  0  0
 43 46  1  0  0  0  0
 44 48  1  0  0  0  0
 45 50  1  0  0  0  0
 46 74  1  0  0  0  0
 47 50  1  0  0  0  0
 47 74  1  0  0  0  0
 48 77  1  0  0  0  0
 49 73  1  0  0  0  0
 50 72  1  0  0  0  0
 51 66  1  0  0  0  0
 52 67  1  0  0  0  0
 53 67  1  0  0  0  0
 54 68  1  0  0  0  0
 55 69  1  0  0  0  0
 56 69  1  0  0  0  0
 57 70  1  0  0  0  0
 58 70  1  0  0  0  0
 59 70  1  0  0  0  0
 60 80  1  0  0  0  0
 61 68  1  0  0  0  0
 62 64  1  0  0  0  0
 63 69  1  0  0  0  0
 63 79  1  0  0  0  0
 64 87  1  0  0  0  0
 65 70  1  0  0  0  0
 65 78  1  0  0  0  0
 66 80  1  0  0  0  0
 67 68  1  0  0  0  0
 71 72  1  0  0  0  0
M  CHG  1  80   1
M  ISO  4  38 100  64 101  79 100  87 101
M  END
> <Batch ID>
0088

> <Smiles>
CNC(C)C(=O)NC(C(=O)N1Cc2cc([101O:1][101CH2:1]Cc3cc(C(C)(C)C[100NH:0][100C:0](=O)N4CCCC(n5nc(-c6ccc(Oc7ccc(F)cc7F)cc6)c(C(N)=O)c5N)C4)ccc3CC(C)C(C)C)ccc2CC1C(=O)NC1CCCc2ccccc21)C(C)(C)C

> <Shape>
0.192

> <Color>
0.079

> <Negative vol penalty>
0.000

$$$$

  -OEChem-04052319043D

 90 98  0     1  0  0  0  0  0999 V2000
  -17.1170  -31.3304   23.1606 C   0  0  0  0  0  0  0  0  0  0  0  0
  -18.3596  -31.8038   23.5699 C   0  0  0  0  0  0  0  0  0  0  0  0
  -24.3183  -14.2261   20.1691 C   0  0  0  0  0  0  0  0  0  0  0  0
  -26.2994  -14.3917   21.5420 C   0  0  0  0  0  0  0  0  0  0  0  0
  -16.9703  -29.9962   22.7836 C   0  0  0  0  0  0  0  0  0  0  0  0
  -19.4559  -30.9427   23.6034 C   0  0  0  0  0  0  0  0  0  0  0  0
  -26.5563  -30.9054   22.6547 C   0  0  0  0  0  0  0  0  0  0  0  0
  -24.4797  -12.8422   20.1032 C   0  0  0  0  0  0  0  0  0  0  0  0
  -26.4608  -13.0078   21.4762 C   0  0  0  0  0  0  0  0  0  0  0  0
  -27.7272  -30.5121   23.3012 C   0  0  0  0  0  0  0  0  0  0  0  0
  -23.8784  -10.1672   22.0820 C   0  0  0  0  0  0  0  0  0  0  0  0
  -22.7481   -9.3729   22.2746 C   0  0  0  0  0  0  0  0  0  0  0  0
  -27.3728  -28.2467   22.5518 C   0  0  0  0  0  0  0  0  0  0  0  0
  -32.6238  -28.8179   21.7633 C   0  0  0  0  0  0  0  0  0  0  0  0
  -31.5716  -26.9030   22.7943 C   0  0  0  0  0  0  0  0  0  0  0  0
  -23.0333   -8.4319   20.0678 C   0  0  0  0  0  0  0  0  0  0  0  0
  -25.2282  -15.0009   20.8885 C   0  0  0  0  0  0  0  0  0  0  0  0
  -24.3353  -17.1573   21.9183 C   0  0  0  0  0  0  0  0  0  0  0  0
  -18.0675  -29.1208   22.8032 C   0  0  0  0  0  0  0  0  0  0  0  0
  -25.7777  -29.9686   21.9599 C   0  0  0  0  0  0  0  0  0  0  0  0
  -19.3234  -29.5952   23.2275 C   0  0  0  0  0  0  0  0  0  0  0  0
  -26.1938  -28.6311   21.8952 C   0  0  0  0  0  0  0  0  0  0  0  0
  -31.9625  -28.2409   22.8474 C   0  0  0  0  0  0  0  0  0  0  0  0
  -32.8941  -28.0569   20.6259 C   0  0  0  0  0  0  0  0  0  0  0  0
  -32.5032  -26.7190   20.5728 C   0  0  0  0  0  0  0  0  0  0  0  0
  -31.8420  -26.1420   21.6570 C   0  0  0  0  0  0  0  0  0  0  0  0
  -25.5509  -12.2330   20.7567 C   0  0  0  0  0  0  0  0  0  0  0  0
  -28.1341  -29.1820   23.2522 C   0  0  0  0  0  0  0  0  0  0  0  0
  -24.5861  -10.0939   20.8822 C   0  0  0  0  0  0  0  0  0  0  0  0
  -22.3256   -8.5052   21.2675 C   0  0  0  0  0  0  0  0  0  0  0  0
  -24.1636   -9.2263   19.8751 C   0  0  0  0  0  0  0  0  0  0  0  0
  -25.0624  -16.4306   20.9565 C   0  0  0  0  0  0  0  0  0  0  0  0
  -24.4865  -18.4699   21.5434 C   0  0  0  0  0  0  0  0  0  0  0  0
  -23.5901  -16.6877   23.0496 C   0  0  0  0  0  0  0  0  0  0  0  0
  -22.8098  -28.8666   22.2442 C   0  0  0  0  0  0  0  0  0  0  0  0
  -23.5293  -27.3349   19.4767 C   0  0  0  0  0  0  0  0  0  0  0  0
  -25.9276  -26.0677   17.4057 C   0  0  0  0  0  0  0  0  0  0  0  0
  -27.6832  -22.6895   19.7766 C   0  0  0  0  0  0  0  0  0  0  0  0
  -17.8497  -27.6753   22.4319 C   0  0  0  0  0  0  0  0  0  0  0  0
  -24.5314  -30.4141   21.2454 C   0  0  0  0  0  0  0  0  0  0  0  0
  -25.4042  -27.5904   21.1455 C   0  0  0  0  0  0  0  0  0  0  0  0
  -19.1434  -26.9203   22.1378 C   0  0  0  0  0  0  0  0  0  0  0  0
  -26.3722  -20.4871   17.3053 C   0  0  0  0  0  0  0  0  0  0  0  0
  -20.1854  -27.2072   23.2142 C   0  0  0  0  0  0  0  0  0  0  0  0
  -25.8606  -19.2934   18.1135 C   0  0  0  0  0  0  0  0  0  0  0  0
  -27.6513  -21.0678   17.9043 C   0  0  0  0  0  0  0  0  0  0  0  0
  -27.0493  -20.2275   20.1416 C   0  0  0  0  0  0  0  0  0  0  0  0
  -20.5419  -28.6981   23.2536 C   0  0  1  0  0  0  0  0  0  0  0  0
  -23.5448  -29.2767   20.9994 C   0  0  1  0  0  0  0  0  0  0  0  0
  -25.7303  -19.6427   19.6082 C   0  0  2  0  0  0  0  0  0  0  0  0
  -32.7945  -25.9065   19.3503 C   0  0  0  0  0  0  0  0  0  0  0  0
  -33.4025  -30.2807   17.5112 C   0  0  0  0  0  0  0  0  0  0  0  0
  -28.6023  -23.4036   24.5707 C   0  0  0  0  0  0  0  0  0  0  0  0
  -26.2076  -24.8401   15.2350 C   0  0  0  0  0  0  0  0  0  0  0  0
  -22.6740  -24.7407   20.8363 C   0  0  0  0  0  0  0  0  0  0  0  0
  -23.8455  -23.4823   19.0163 C   0  0  0  0  0  0  0  0  0  0  0  0
  -21.9223  -24.9713   18.4623 C   0  0  0  0  0  0  0  0  0  0  0  0
  -32.3296  -23.7479   22.0936 C   0  0  0  0  0  0  0  0  0  0  0  0
  -27.4688  -28.2943   16.2116 C   0  0  0  0  0  0  0  0  0  0  0  0
  -31.6683  -29.0652   24.0772 C   0  0  0  0  0  0  0  0  0  0  0  0
  -33.6034  -28.6990   19.4787 C   0  0  0  0  0  0  0  0  0  0  0  0
  -32.6710  -29.6018   18.6583 C   0  0  0  0  0  0  0  0  0  0  0  0
  -29.5155  -23.4240   23.3531 C   0  0  0  0  0  0  0  0  0  0  0  0
  -27.6554  -24.1963   21.7484 C   0  0  0  0  0  0  0  0  0  0  0  0
  -30.1259  -24.4282   21.1297 C   0  0  0  0  0  0  0  0  0  0  0  0
  -30.3164  -29.7658   23.9958 C   0  0  0  0  0  0  0  0  0  1  0  0
  -24.1363  -25.9993   19.1206 C   0  0  1  0  0  0  0  0  0  0  0  0
  -26.1389  -26.2019   15.9084 C   0  0  2  0  0  0  0  0  0  0  0  0
  -29.0861  -24.4345   22.2674 C   0  0  2  0  0  0  0  0  0  0  0  0
  -23.1586  -24.8174   19.3747 C   0  0  0  0  0  0  0  0  0  0  0  0
  -25.6329  -17.2164   20.0394 N   0  0  0  0  0  0  0  0  0  0  0  0
  -25.2643  -18.4504   20.4232 N   0  0  0  0  0  0  0  0  0  0  0  0
  -24.1896  -28.0740   20.4685 N   0  0  0  0  0  0  0  0  0  0  0  0
  -27.4602  -21.3790   19.3230 N   0  0  0  0  0  0  0  0  0  0  0  0
  -24.0285  -19.6274   22.0658 N   0  0  0  0  0  0  0  0  0  0  0  0
  -23.5382  -15.3078   23.2895 N   0  0  0  0  0  0  0  0  0  0  0  0
  -21.4400  -29.0319   22.1689 N   0  0  0  0  0  0  0  0  0  0  0  0
  -24.5903  -26.1127   17.7388 N   0  0  0  0  0  0  0  0  0  0  0  0
  -27.4732  -22.9002   21.1339 N   0  0  0  0  0  0  0  0  0  0  0  0
  -31.4392  -24.7888   21.6229 N   0  0  3  0  0  0  0  0  0  0  0  0
  -27.4088  -26.9296   15.6277 N   0  3  0  0  0  0  0  0  0  0  0  0
  -22.9743  -17.4675   23.8153 O   0  0  0  0  0  0  0  0  0  0  0  0
  -23.4388  -28.4310   23.2014 O   0  0  0  0  0  0  0  0  0  0  0  0
  -22.5110  -27.7118   18.8913 O   0  0  0  0  0  0  0  0  0  0  0  0
  -26.8557  -25.9324   18.1999 O   0  0  0  0  0  0  0  0  0  0  0  0
  -28.0376  -23.6053   19.0265 O   0  0  0  0  0  0  0  0  0  0  0  0
  -25.7085  -10.8826   20.6928 O   0  0  0  0  0  0  0  0  0  0  0  0
  -29.2763  -28.7953   23.8829 O   0  0  0  0  0  0  0  0  0  1  0  0
  -21.2411   -7.7414   21.4532 F   0  0  0  0  0  0  0  0  0  0  0  0
  -24.8401   -9.1506   18.7208 F   0  0  0  0  0  0  0  0  0  0  0  0
  1  2  1  0  0  0  0
  1  5  2  0  0  0  0
  2  6  2  0  0  0  0
  3  8  2  0  0  0  0
  3 17  1  0  0  0  0
  4  9  1  0  0  0  0
  4 17  2  0  0  0  0
  5 19  1  0  0  0  0
  6 21  1  0  0  0  0
  7 10  2  0  0  0  0
  7 20  1  0  0  0  0
  8 27  1  0  0  0  0
  9 27  2  0  0  0  0
 10 28  1  0  0  0  0
 11 12  2  0  0  0  0
 11 29  1  0  0  0  0
 12 30  1  0  0  0  0
 13 22  1  0  0  0  0
 13 28  2  0  0  0  0
 14 23  2  0  0  0  0
 14 24  1  0  0  0  0
 15 23  1  0  0  0  0
 15 26  2  0  0  0  0
 16 30  2  0  0  0  0
 16 31  1  0  0  0  0
 17 32  1  0  0  0  0
 18 32  1  0  0  0  0
 18 33  2  0  0  0  0
 18 34  1  0  0  0  0
 19 21  2  0  0  0  0
 19 39  1  0  0  0  0
 20 22  2  0  0  0  0
 20 40  1  0  0  0  0
 21 48  1  0  0  0  0
 22 41  1  0  0  0  0
 23 60  1  0  0  0  0
 24 25  2  0  0  0  0
 24 61  1  0  0  0  0
 25 26  1  0  0  0  0
 25 51  1  0  0  0  0
 26 80  1  0  0  0  0
 27 87  1  0  0  0  0
 28 88  1  0  0  0  0
 29 31  2  0  0  0  0
 29 87  1  0  0  0  0
 30 89  1  0  0  0  0
 31 90  1  0  0  0  0
 32 71  2  0  0  0  0
 33 72  1  0  0  0  0
 33 75  1  0  0  0  0
 34 76  1  0  0  0  0
 34 82  2  0  0  0  0
 35 49  1  0  0  0  0
 35 77  1  0  0  0  0
 35 83  2  0  0  0  0
 36 67  1  0  0  0  0
 36 73  1  0  0  0  0
 36 84  2  0  0  0  0
 37 68  1  0  0  0  0
 37 78  1  0  0  0  0
 37 85  2  0  0  0  0
 38 74  1  0  0  0  0
 38 79  1  0  0  0  0
 38 86  2  0  0  0  0
 39 42  1  0  0  0  0
 40 49  1  0  0  0  0
 41 73  1  0  0  0  0
 42 44  1  0  0  0  0
 43 45  1  0  0  0  0
 43 46  1  0  0  0  0
 44 48  1  0  0  0  0
 45 50  1  0  0  0  0
 46 74  1  0  0  0  0
 47 50  1  0  0  0  0
 47 74  1  0  0  0  0
 48 77  1  0  0  0  0
 49 73  1  0  0  0  0
 50 72  1  0  0  0  0
 52 62  1  0  0  0  0
 53 63  1  0  0  0  0
 54 68  1  0  0  0  0
 55 70  1  0  0  0  0
 56 70  1  0  0  0  0
 57 70  1  0  0  0  0
 58 80  1  0  0  0  0
 59 81  1  0  0  0  0
 60 66  1  0  0  0  0
 61 62  1  0  0  0  0
 63 69  1  0  0  0  0
 64 69  1  0  0  0  0
 64 79  1  0  0  0  0
 65 69  1  0  0  0  0
 65 80  1  0  0  0  0
 66 88  1  0  0  0  0
 67 70  1  0  0  0  0
 67 78  1  0  0  0  0
 68 81  1  0  0  0  0
 71 72  1  0  0  0  0
M  CHG  1  81   1
M  ISO  4  38 100  66 101  79 100  88 101
M  END
> <Batch ID>
0088

> <Smiles>
CCCc1cc(C[101CH2:1][101O:1]c2ccc3c(c2)CN(C(=O)C(NC(=O)C(C)NC)C(C)(C)C)C(C(=O)NC2CCCc4ccccc42)C3)cc(N(C)CC(CC)C[100NH:0][100C:0](=O)N2CCCC(n3nc(-c4ccc(Oc5ccc(F)cc5F)cc4)c(C(N)=O)c3N)C2)c1C

> <Shape>
0.213

> <Color>
0.098

> <Negative vol penalty>
0.000

$$$$

  -OEChem-04052319043D

 91 99  0     1  0  0  0  0  0999 V2000
  -27.7299  -12.9515   26.9448 C   0  0  0  0  0  0  0  0  0  0  0  0
  -27.9821  -14.1552   26.2945 C   0  0  0  0  0  0  0  0  0  0  0  0
  -23.0745   -9.8683   19.9420 C   0  0  0  0  0  0  0  0  0  0  0  0
  -23.8381   -9.8754   22.2342 C   0  0  0  0  0  0  0  0  0  0  0  0
  -26.4169  -12.5145   27.1154 C   0  0  0  0  0  0  0  0  0  0  0  0
  -26.9215  -14.9221   25.8134 C   0  0  0  0  0  0  0  0  0  0  0  0
  -27.4385  -19.8437   26.8881 C   0  0  0  0  0  0  0  0  0  0  0  0
  -22.3320   -8.7145   20.1929 C   0  0  0  0  0  0  0  0  0  0  0  0
  -23.0955   -8.7216   22.4851 C   0  0  0  0  0  0  0  0  0  0  0  0
  -28.3197  -20.5791   26.0967 C   0  0  0  0  0  0  0  0  0  0  0  0
  -19.8690   -7.9210   23.0927 C   0  0  0  0  0  0  0  0  0  0  0  0
  -19.1140   -7.8802   24.2647 C   0  0  0  0  0  0  0  0  0  0  0  0
  -26.4560  -21.4318   24.8243 C   0  0  0  0  0  0  0  0  0  0  0  0
  -33.5002  -20.3118   24.3760 C   0  0  0  0  0  0  0  0  0  0  0  0
  -20.3581   -5.9436   24.9988 C   0  0  0  0  0  0  0  0  0  0  0  0
  -23.8276  -10.4487   20.9627 C   0  0  0  0  0  0  0  0  0  0  0  0
  -24.1672  -12.9742   20.8426 C   0  0  0  0  0  0  0  0  0  0  0  0
  -25.3393  -13.2811   26.6447 C   0  0  0  0  0  0  0  0  0  0  0  0
  -26.0579  -19.8884   26.6462 C   0  0  0  0  0  0  0  0  0  0  0  0
  -25.5930  -14.4942   25.9767 C   0  0  0  0  0  0  0  0  0  0  0  0
  -25.5592  -20.6980   25.6157 C   0  0  0  0  0  0  0  0  0  0  0  0
  -33.8758  -19.1251   24.9957 C   0  0  0  0  0  0  0  0  0  0  0  0
  -33.2736  -17.9298   24.6190 C   0  0  0  0  0  0  0  0  0  0  0  0
  -22.3425   -8.1411   21.4645 C   0  0  0  0  0  0  0  0  0  0  0  0
  -27.8288  -21.3711   25.0628 C   0  0  0  0  0  0  0  0  0  0  0  0
  -20.8686   -6.9730   22.8735 C   0  0  0  0  0  0  0  0  0  0  0  0
  -19.3585   -6.8915   25.2178 C   0  0  0  0  0  0  0  0  0  0  0  0
  -21.1131   -5.9844   23.8266 C   0  0  0  0  0  0  0  0  0  0  0  0
  -24.5953  -11.6403   20.7039 C   0  0  0  0  0  0  0  0  0  0  0  0
  -32.5255  -20.2500   23.3932 C   0  0  0  0  0  0  0  0  0  0  0  0
  -32.3089  -17.9746   23.6255 C   0  0  0  0  0  0  0  0  0  0  0  0
  -25.2582  -13.7246   20.4778 C   0  0  0  0  0  0  0  0  0  0  0  0
  -22.8970  -13.4889   21.2637 C   0  0  0  0  0  0  0  0  0  0  0  0
  -23.8552  -17.7512   25.8189 C   0  0  0  0  0  0  0  0  0  0  0  0
  -21.8249  -20.2348   26.3006 C   0  0  0  0  0  0  0  0  0  0  0  0
  -21.3608  -23.6131   26.4365 C   0  0  0  0  0  0  0  0  0  0  0  0
  -30.7414  -14.7481   20.6575 C   0  0  0  0  0  0  0  0  0  0  0  0
  -23.9395  -12.7446   26.8107 C   0  0  0  0  0  0  0  0  0  0  0  0
  -25.1184  -19.1101   27.5259 C   0  0  0  0  0  0  0  0  0  0  0  0
  -24.0841  -20.7964   25.3279 C   0  0  0  0  0  0  0  0  0  0  0  0
  -22.8547  -13.7983   26.6030 C   0  0  0  0  0  0  0  0  0  0  0  0
  -29.6019  -12.3632   18.2721 C   0  0  0  0  0  0  0  0  0  0  0  0
  -23.1368  -14.6141   25.3453 C   0  0  0  0  0  0  0  0  0  0  0  0
  -28.1654  -12.0682   18.7072 C   0  0  0  0  0  0  0  0  0  0  0  0
  -30.5208  -12.5845   19.4715 C   0  0  0  0  0  0  0  0  0  0  0  0
  -28.6206  -13.3137   20.8614 C   0  0  0  0  0  0  0  0  0  0  0  0
  -24.4680  -15.3662   25.4627 C   0  0  1  0  0  0  0  0  0  0  0  0
  -23.7736  -18.8290   26.8627 C   0  0  1  0  0  0  0  0  0  0  0  0
  -27.6447  -13.1386   19.6852 C   0  0  2  0  0  0  0  0  0  0  0  0
  -35.9543  -20.2593   25.8202 C   0  0  0  0  0  0  0  0  0  0  0  0
  -19.5831  -25.3437   26.8139 C   0  0  0  0  0  0  0  0  0  0  0  0
  -35.6848  -16.4422   26.9817 C   0  0  0  0  0  0  0  0  0  0  0  0
  -33.3486  -16.2139   27.8194 C   0  0  0  0  0  0  0  0  0  0  0  0
  -29.0925  -20.9544   22.2130 C   0  0  0  0  0  0  0  0  0  0  0  0
  -32.5070  -15.5713   25.3336 C   0  0  0  0  0  0  0  0  0  0  0  0
  -34.7716  -15.9379   24.4082 C   0  0  0  0  0  0  0  0  0  0  0  0
  -20.7421  -19.7314   23.4928 C   0  0  0  0  0  0  0  0  0  0  0  0
  -19.6938  -22.0039   23.5651 C   0  0  0  0  0  0  0  0  0  0  0  0
  -18.9970  -20.2581   25.2050 C   0  0  0  0  0  0  0  0  0  0  0  0
  -22.7598  -24.7009   28.8068 C   0  0  0  0  0  0  0  0  0  0  0  0
  -34.9218  -19.1617   26.0603 C   0  0  0  0  0  0  0  0  0  0  0  0
  -32.0940  -21.5167   22.6984 C   0  0  0  0  0  0  0  0  0  0  0  0
  -31.6278  -16.7229   23.1772 C   0  0  0  0  0  0  0  0  0  0  0  0
  -30.9218  -22.2317   23.3862 C   0  0  0  0  0  0  0  0  0  0  0  0
  -30.8075  -16.8984   21.8948 C   0  0  0  0  0  0  0  0  0  0  0  0
  -21.2684  -21.3432   25.4399 C   0  0  1  0  0  0  0  0  0  0  0  0
  -20.6668  -24.4942   27.4595 C   0  0  2  0  0  0  0  0  0  0  0  0
  -34.2285  -16.8709   26.7425 C   0  0  0  0  0  0  0  0  0  0  0  0
  -29.6737  -21.3580   23.5621 C   0  0  1  0  0  0  0  0  0  1  0  0
  -33.6581  -16.6411   25.2646 C   0  0  0  0  0  0  0  0  0  0  0  0
  -20.2033  -20.8310   24.4296 C   0  0  0  0  0  0  0  0  0  0  0  0
  -25.8596  -11.5456   20.2836 N   0  0  0  0  0  0  0  0  0  0  0  0
  -31.9180  -19.1079   23.0006 N   0  0  0  0  0  0  0  0  0  0  0  0
  -26.2352  -12.8295   20.1550 N   0  0  0  0  0  0  0  0  0  0  0  0
  -23.2063  -20.0117   26.2117 N   0  0  0  0  0  0  0  0  0  0  0  0
  -29.9708  -13.6124   20.3586 N   0  0  0  0  0  0  0  0  0  0  0  0
  -25.4674  -15.0563   20.4047 N   0  0  0  0  0  0  0  0  0  0  0  0
  -21.8863  -12.5788   21.6024 N   0  0  0  0  0  0  0  0  0  0  0  0
  -24.3142  -16.5387   26.2970 N   0  0  0  0  0  0  0  0  0  0  0  0
  -20.7783  -22.3658   26.3577 N   0  0  0  0  0  0  0  0  0  0  0  0
  -30.1428  -15.6762   21.5008 N   0  0  0  0  0  0  0  0  0  0  0  0
  -21.6505  -25.4037   28.1122 N   0  3  0  0  0  0  0  0  0  0  0  0
  -22.6598  -14.7193   21.3217 O   0  0  0  0  0  0  0  0  0  0  0  0
  -23.5248  -18.0008   24.6656 O   0  0  0  0  0  0  0  0  0  0  0  0
  -21.0632  -19.5954   27.0305 O   0  0  0  0  0  0  0  0  0  0  0  0
  -22.3210  -23.9946   25.7710 O   0  0  0  0  0  0  0  0  0  0  0  0
  -31.8764  -14.9246   20.2021 O   0  0  0  0  0  0  0  0  0  0  0  0
  -21.6178   -7.0154   21.7097 O   0  0  0  0  0  0  0  0  0  0  0  0
  -28.6868  -22.0893   24.2883 O   0  0  0  0  0  0  0  0  0  1  0  0
  -18.6344   -6.8533   26.3441 F   0  0  0  0  0  0  0  0  0  0  0  0
  -22.0729   -5.0717   23.6222 F   0  0  0  0  0  0  0  0  0  0  0  0
  1  2  1  0  0  0  0
  1  5  2  0  0  0  0
  2  6  2  0  0  0  0
  3  8  2  0  0  0  0
  3 16  1  0  0  0  0
  4  9  1  0  0  0  0
  4 16  2  0  0  0  0
  5 18  1  0  0  0  0
  6 20  1  0  0  0  0
  7 10  2  0  0  0  0
  7 19  1  0  0  0  0
  8 24  1  0  0  0  0
  9 24  2  0  0  0  0
 10 25  1  0  0  0  0
 11 12  2  0  0  0  0
 11 26  1  0  0  0  0
 12 27  1  0  0  0  0
 13 21  1  0  0  0  0
 13 25  2  0  0  0  0
 14 22  1  0  0  0  0
 14 30  2  0  0  0  0
 15 27  2  0  0  0  0
 15 28  1  0  0  0  0
 16 29  1  0  0  0  0
 17 29  1  0  0  0  0
 17 32  2  0  0  0  0
 17 33  1  0  0  0  0
 18 20  2  0  0  0  0
 18 38  1  0  0  0  0
 19 21  2  0  0  0  0
 19 39  1  0  0  0  0
 20 47  1  0  0  0  0
 21 40  1  0  0  0  0
 22 23  2  0  0  0  0
 22 61  1  0  0  0  0
 23 31  1  0  0  0  0
 23 70  1  0  0  0  0
 24 88  1  0  0  0  0
 25 89  1  0  0  0  0
 26 28  2  0  0  0  0
 26 88  1  0  0  0  0
 27 90  1  0  0  0  0
 28 91  1  0  0  0  0
 29 72  2  0  0  0  0
 30 62  1  0  0  0  0
 30 73  1  0  0  0  0
 31 63  1  0  0  0  0
 31 73  2  0  0  0  0
 32 74  1  0  0  0  0
 32 77  1  0  0  0  0
 33 78  1  0  0  0  0
 33 83  2  0  0  0  0
 34 48  1  0  0  0  0
 34 79  1  0  0  0  0
 34 84  2  0  0  0  0
 35 66  1  0  0  0  0
 35 75  1  0  0  0  0
 35 85  2  0  0  0  0
 36 67  1  0  0  0  0
 36 80  1  0  0  0  0
 36 86  2  0  0  0  0
 37 76  1  0  0  0  0
 37 81  1  0  0  0  0
 37 87  2  0  0  0  0
 38 41  1  0  0  0  0
 39 48  1  0  0  0  0
 40 75  1  0  0  0  0
 41 43  1  0  0  0  0
 42 44  1  0  0  0  0
 42 45  1  0  0  0  0
 43 47  1  0  0  0  0
 44 49  1  0  0  0  0
 45 76  1  0  0  0  0
 46 49  1  0  0  0  0
 46 76  1  0  0  0  0
 47 79  1  0  0  0  0
 48 75  1  0  0  0  0
 49 74  1  0  0  0  0
 50 61  1  0  0  0  0
 51 67  1  0  0  0  0
 52 68  1  0  0  0  0
 53 68  1  0  0  0  0
 54 69  1  0  0  0  0
 55 70  1  0  0  0  0
 56 70  1  0  0  0  0
 57 71  1  0  0  0  0
 58 71  1  0  0  0  0
 59 71  1  0  0  0  0
 60 82  1  0  0  0  0
 62 64  1  0  0  0  0
 63 65  1  0  0  0  0
 64 69  1  0  0  0  0
 65 81  1  0  0  0  0
 66 71  1  0  0  0  0
 66 80  1  0  0  0  0
 67 82  1  0  0  0  0
 68 70  1  0  0  0  0
 69 89  1  0  0  0  0
 72 74  1  0  0  0  0
M  CHG  1  82   1
M  ISO  4  37 100  69 101  81 100  89 101
M  END
> <Batch ID>
0088

> <Smiles>
CCc1cc(CC[101CH:1](C)[101O:1]c2ccc3c(c2)CN(C(=O)C(NC(=O)C(C)NC)C(C)(C)C)C(C(=O)NC2CCCc4ccccc42)C3)nc(CC[100NH:0][100C:0](=O)N2CCCC(n3nc(-c4ccc(Oc5ccc(F)cc5F)cc4)c(C(N)=O)c3N)C2)c1C(C)(C)C(C)C

> <Shape>
0.162

> <Color>
0.184

> <Negative vol penalty>
0.000

$$$$

  -OEChem-04052319043D

 82 90  0     1  0  0  0  0  0999 V2000
  -27.6700  -15.2222   16.6418 C   0  0  0  0  0  0  0  0  0  0  0  0
  -26.4897  -15.9513   16.5385 C   0  0  0  0  0  0  0  0  0  0  0  0
  -25.8281  -27.1813   14.8257 C   0  0  0  0  0  0  0  0  0  0  0  0
  -25.6658  -29.5817   14.6044 C   0  0  0  0  0  0  0  0  0  0  0  0
  -28.5913  -15.5275   17.6428 C   0  0  0  0  0  0  0  0  0  0  0  0
  -26.2294  -16.9855   17.4369 C   0  0  0  0  0  0  0  0  0  0  0  0
  -23.0125  -23.3749   17.8149 C   0  0  0  0  0  0  0  0  0  0  0  0
  -26.6595  -27.1343   13.7068 C   0  0  0  0  0  0  0  0  0  0  0  0
  -26.4972  -29.5347   13.4854 C   0  0  0  0  0  0  0  0  0  0  0  0
  -22.0719  -24.0637   18.5796 C   0  0  0  0  0  0  0  0  0  0  0  0
  -29.1162  -26.4219   11.1237 C   0  0  0  0  0  0  0  0  0  0  0  0
  -30.2593  -25.6261   11.1980 C   0  0  0  0  0  0  0  0  0  0  0  0
  -23.7723  -24.5535   20.2191 C   0  0  0  0  0  0  0  0  0  0  0  0
  -19.9415  -28.4472   23.2398 C   0  0  0  0  0  0  0  0  0  0  0  0
  -31.0526  -26.9399   13.0640 C   0  0  0  0  0  0  0  0  0  0  0  0
  -25.3312  -28.4050   15.2746 C   0  0  0  0  0  0  0  0  0  0  0  0
  -23.2249  -27.8204   16.5897 C   0  0  0  0  0  0  0  0  0  0  0  0
  -28.3466  -16.5723   18.5480 C   0  0  0  0  0  0  0  0  0  0  0  0
  -24.3398  -23.2608   18.2527 C   0  0  0  0  0  0  0  0  0  0  0  0
  -27.1476  -17.3042   18.4518 C   0  0  0  0  0  0  0  0  0  0  0  0
  -24.7284  -23.8649   19.4569 C   0  0  0  0  0  0  0  0  0  0  0  0
  -18.8966  -28.6906   22.3146 C   0  0  0  0  0  0  0  0  0  0  0  0
  -26.9941  -28.3110   13.0366 C   0  0  0  0  0  0  0  0  0  0  0  0
  -22.4511  -24.6506   19.7832 C   0  0  0  0  0  0  0  0  0  0  0  0
  -28.9413  -27.4769   12.0194 C   0  0  0  0  0  0  0  0  0  0  0  0
  -31.2275  -25.8850   12.1682 C   0  0  0  0  0  0  0  0  0  0  0  0
  -29.9095  -27.7358   12.9896 C   0  0  0  0  0  0  0  0  0  0  0  0
  -24.4718  -28.4541   16.4301 C   0  0  0  0  0  0  0  0  0  0  0  0
  -20.2691  -27.1125   23.1485 C   0  0  0  0  0  0  0  0  0  0  0  0
  -18.6173  -27.4971   21.6862 C   0  0  0  0  0  0  0  0  0  0  0  0
  -22.8182  -28.1761   17.8524 C   0  0  0  0  0  0  0  0  0  0  0  0
  -22.4993  -26.9848   15.6781 C   0  0  0  0  0  0  0  0  0  0  0  0
  -26.2425  -20.8384   19.0373 C   0  0  0  0  0  0  0  0  0  0  0  0
  -28.4840  -23.1744   19.2405 C   0  0  0  0  0  0  0  0  0  0  0  0
  -29.1883  -26.4817   19.7013 C   0  0  0  0  0  0  0  0  0  0  0  0
  -23.8903  -28.9434   23.2753 C   0  0  0  0  0  0  0  0  0  0  0  0
  -29.3504  -16.8344   19.6426 C   0  0  0  0  0  0  0  0  0  0  0  0
  -25.3485  -22.5373   17.4032 C   0  0  0  0  0  0  0  0  0  0  0  0
  -26.1455  -23.7886   19.9613 C   0  0  0  0  0  0  0  0  0  0  0  0
  -29.1709  -18.1896   20.3219 C   0  0  0  0  0  0  0  0  0  0  0  0
  -24.6721  -31.6194   21.0607 C   0  0  0  0  0  0  0  0  0  0  0  0
  -27.7025  -18.4268   20.6604 C   0  0  0  0  0  0  0  0  0  0  0  0
  -24.5929  -30.9808   19.6729 C   0  0  0  0  0  0  0  0  0  0  0  0
  -25.2417  -30.6518   22.0956 C   0  0  0  0  0  0  0  0  0  0  0  0
  -24.4728  -28.7117   20.7846 C   0  0  0  0  0  0  0  0  0  0  0  0
  -26.8408  -18.4495   19.3921 C   0  0  1  0  0  0  0  0  0  0  0  0
  -26.5544  -22.0443   18.1970 C   0  0  1  0  0  0  0  0  0  0  0  0
  -23.8523  -29.6307   19.7184 C   0  0  2  0  0  0  0  0  0  0  0  0
  -18.2345  -29.9882   22.0738 C   0  0  0  0  0  0  0  0  0  0  0  0
  -17.6221  -27.1818   20.6392 C   0  0  0  0  0  0  0  0  0  0  0  0
  -31.1144  -28.0831   19.8531 C   0  0  0  0  0  0  0  0  0  0  0  0
  -29.0893  -22.1753   22.0593 C   0  0  0  0  0  0  0  0  0  0  0  0
  -30.2860  -24.3315   22.4915 C   0  0  0  0  0  0  0  0  0  0  0  0
  -31.1067  -22.7863   20.7134 C   0  0  0  0  0  0  0  0  0  0  0  0
  -28.2433  -28.0217   17.3572 C   0  0  0  0  0  0  0  0  0  0  0  0
  -21.2870  -26.3353   23.8851 C   0  0  0  0  0  0  0  0  0  0  0  0
  -19.4857  -25.0931   21.7889 C   0  0  0  0  0  0  0  0  0  0  0  0
  -22.5160  -27.1566   24.3135 C   0  0  0  0  0  0  0  0  0  0  0  0
  -20.1794  -24.8848   20.4470 C   0  0  0  0  0  0  0  0  0  1  0  0
  -28.9754  -24.0923   20.3336 C   0  0  1  0  0  0  0  0  0  0  0  0
  -30.0876  -27.4361   18.9366 C   0  0  2  0  0  0  0  0  0  0  0  0
  -29.8371  -23.3463   21.3912 C   0  0  0  0  0  0  0  0  0  0  0  0
  -24.8333  -29.1591   17.5053 N   0  0  0  0  0  0  0  0  0  0  0  0
  -19.4576  -26.5448   22.2012 N   0  0  0  0  0  0  0  0  0  0  0  0
  -23.8074  -28.9706   18.3527 N   0  0  0  0  0  0  0  0  0  0  0  0
  -27.0935  -23.0649   19.0981 N   0  0  0  0  0  0  0  0  0  0  0  0
  -24.4940  -29.3921   22.0890 N   0  0  0  0  0  0  0  0  0  0  0  0
  -21.7143  -27.8837   18.5725 N   0  0  0  0  0  0  0  0  0  0  0  0
  -21.5972  -27.5887   14.7917 N   0  0  0  0  0  0  0  0  0  0  0  0
  -26.9807  -19.7175   18.7087 N   0  0  0  0  0  0  0  0  0  0  0  0
  -29.6672  -25.1892   19.6652 N   0  0  0  0  0  0  0  0  0  0  0  0
  -23.1956  -27.7438   23.1803 N   0  0  0  0  0  0  0  0  0  0  0  0
  -29.2781  -28.5147   18.3023 N   0  3  0  0  0  0  0  0  0  0  0  0
  -22.6344  -25.7378   15.6617 O   0  0  0  0  0  0  0  0  0  0  0  0
  -25.3959  -20.9194   19.9196 O   0  0  0  0  0  0  0  0  0  0  0  0
  -29.3037  -22.5820   18.5343 O   0  0  0  0  0  0  0  0  0  0  0  0
  -28.1653  -26.8470   20.2764 O   0  0  0  0  0  0  0  0  0  0  0  0
  -23.9603  -29.5685   24.3389 O   0  0  0  0  0  0  0  0  0  0  0  0
  -27.8056  -28.2656   11.9448 O   0  0  0  0  0  0  0  0  0  0  0  0
  -21.5348  -25.3229   20.5319 O   0  0  0  0  0  0  0  0  0  1  0  0
  -32.3244  -25.1197   12.2405 F   0  0  0  0  0  0  0  0  0  0  0  0
  -29.7465  -28.7471   13.8536 F   0  0  0  0  0  0  0  0  0  0  0  0
  1  2  1  0  0  0  0
  1  5  2  0  0  0  0
  2  6  2  0  0  0  0
  3  8  2  0  0  0  0
  3 16  1  0  0  0  0
  4  9  1  0  0  0  0
  4 16  2  0  0  0  0
  5 18  1  0  0  0  0
  6 20  1  0  0  0  0
  7 10  2  0  0  0  0
  7 19  1  0  0  0  0
  8 23  1  0  0  0  0
  9 23  2  0  0  0  0
 10 24  1  0  0  0  0
 11 12  2  0  0  0  0
 11 25  1  0  0  0  0
 12 26  1  0  0  0  0
 13 21  1  0  0  0  0
 13 24  2  0  0  0  0
 14 22  1  0  0  0  0
 14 29  2  0  0  0  0
 15 26  2  0  0  0  0
 15 27  1  0  0  0  0
 16 28  1  0  0  0  0
 17 28  1  0  0  0  0
 17 31  2  0  0  0  0
 17 32  1  0  0  0  0
 18 20  2  0  0  0  0
 18 37  1  0  0  0  0
 19 21  2  0  0  0  0
 19 38  1  0  0  0  0
 20 46  1  0  0  0  0
 21 39  1  0  0  0  0
 22 30  2  0  0  0  0
 22 49  1  0  0  0  0
 23 79  1  0  0  0  0
 24 80  1  0  0  0  0
 25 27  2  0  0  0  0
 25 79  1  0  0  0  0
 26 81  1  0  0  0  0
 27 82  1  0  0  0  0
 28 63  2  0  0  0  0
 29 56  1  0  0  0  0
 29 64  1  0  0  0  0
 30 50  1  0  0  0  0
 30 64  1  0  0  0  0
 31 65  1  0  0  0  0
 31 68  1  0  0  0  0
 32 69  1  0  0  0  0
 32 74  2  0  0  0  0
 33 47  1  0  0  0  0
 33 70  1  0  0  0  0
 33 75  2  0  0  0  0
 34 60  1  0  0  0  0
 34 66  1  0  0  0  0
 34 76  2  0  0  0  0
 35 61  1  0  0  0  0
 35 71  1  0  0  0  0
 35 77  2  0  0  0  0
 36 67  1  0  0  0  0
 36 72  1  0  0  0  0
 36 78  2  0  0  0  0
 37 40  1  0  0  0  0
 38 47  1  0  0  0  0
 39 66  1  0  0  0  0
 40 42  1  0  0  0  0
 41 43  1  0  0  0  0
 41 44  1  0  0  0  0
 42 46  1  0  0  0  0
 43 48  1  0  0  0  0
 44 67  1  0  0  0  0
 45 48  1  0  0  0  0
 45 67  1  0  0  0  0
 46 70  1  0  0  0  0
 47 66  1  0  0  0  0
 48 65  1  0  0  0  0
 51 61  1  0  0  0  0
 52 62  1  0  0  0  0
 53 62  1  0  0  0  0
 54 62  1  0  0  0  0
 55 73  1  0  0  0  0
 56 58  1  0  0  0  0
 57 59  1  0  0  0  0
 57 64  1  0  0  0  0
 58 72  1  0  0  0  0
 59 80  1  0  0  0  0
 60 62  1  0  0  0  0
 60 71  1  0  0  0  0
 61 73  1  0  0  0  0
 63 65  1  0  0  0  0
M  CHG  1  73   1
M  ISO  4  36 100  59 101  72 100  80 101
M  END
> <Batch ID>
0088

> <Smiles>
CNC(C)C(=O)NC(C(=O)N1Cc2cc([101O:1][101CH2:1]Cn3c(CC[100NH:0][100C:0](=O)N4CCCC(n5nc(-c6ccc(Oc7ccc(F)cc7F)cc6)c(C(N)=O)c5N)C4)cc(C)c3C)ccc2CC1C(=O)NC1CCCc2ccccc21)C(C)(C)C

> <Shape>
0.160

> <Color>
0.073

> <Negative vol penalty>
0.000

$$$$
