
  -OEChem-04052319063D

 83 91  0     1  0  0  0  0  0999 V2000
  -26.9456  -29.6583   20.4502 C   0  0  0  0  0  0  0  0  0  0  0  0
  -27.0204  -28.4452   21.1272 C   0  0  0  0  0  0  0  0  0  0  0  0
  -23.2939   -9.7860   19.8663 C   0  0  0  0  0  0  0  0  0  0  0  0
  -23.7952   -9.8395   22.2291 C   0  0  0  0  0  0  0  0  0  0  0  0
  -26.1588  -29.7685   19.3045 C   0  0  0  0  0  0  0  0  0  0  0  0
  -26.3075  -27.3419   20.6594 C   0  0  0  0  0  0  0  0  0  0  0  0
  -28.0315  -21.4706   20.9064 C   0  0  0  0  0  0  0  0  0  0  0  0
  -22.5920   -8.5935   20.0422 C   0  0  0  0  0  0  0  0  0  0  0  0
  -23.0933   -8.6470   22.4050 C   0  0  0  0  0  0  0  0  0  0  0  0
  -27.7132  -20.4356   21.7847 C   0  0  0  0  0  0  0  0  0  0  0  0
  -20.3627   -5.7242   19.9297 C   0  0  0  0  0  0  0  0  0  0  0  0
  -19.1234   -5.6024   19.3014 C   0  0  0  0  0  0  0  0  0  0  0  0
  -26.0003  -19.6798   20.2635 C   0  0  0  0  0  0  0  0  0  0  0  0
  -29.4261  -15.5655   23.8190 C   0  0  0  0  0  0  0  0  0  0  0  0
  -18.3096   -7.5130   20.5361 C   0  0  0  0  0  0  0  0  0  0  0  0
  -23.8955  -10.4090   20.9597 C   0  0  0  0  0  0  0  0  0  0  0  0
  -24.1080  -12.9491   20.8579 C   0  0  0  0  0  0  0  0  0  0  0  0
  -25.4435  -28.6634   18.8169 C   0  0  0  0  0  0  0  0  0  0  0  0
  -27.3282  -21.6246   19.7031 C   0  0  0  0  0  0  0  0  0  0  0  0
  -25.5093  -27.4378   19.5068 C   0  0  0  0  0  0  0  0  0  0  0  0
  -26.3134  -20.7159   19.3705 C   0  0  0  0  0  0  0  0  0  0  0  0
  -28.2209  -15.9650   24.3693 C   0  0  0  0  0  0  0  0  0  0  0  0
  -22.4917   -8.0240   21.3115 C   0  0  0  0  0  0  0  0  0  0  0  0
  -26.6955  -19.5418   21.4646 C   0  0  0  0  0  0  0  0  0  0  0  0
  -20.5755   -6.7404   20.8613 C   0  0  0  0  0  0  0  0  0  0  0  0
  -18.0968   -6.4968   19.6045 C   0  0  0  0  0  0  0  0  0  0  0  0
  -19.5490   -7.6348   21.1644 C   0  0  0  0  0  0  0  0  0  0  0  0
  -24.6211  -11.6406   20.7785 C   0  0  0  0  0  0  0  0  0  0  0  0
  -30.3742  -15.0244   24.6638 C   0  0  0  0  0  0  0  0  0  0  0  0
  -28.0435  -15.7966   25.7279 C   0  0  0  0  0  0  0  0  0  0  0  0
  -25.1903  -13.7578   20.6108 C   0  0  0  0  0  0  0  0  0  0  0  0
  -22.7726  -13.3938   21.1307 C   0  0  0  0  0  0  0  0  0  0  0  0
  -25.4858  -23.8952   18.4567 C   0  0  0  0  0  0  0  0  0  0  0  0
  -25.5675  -21.9812   15.8391 C   0  0  0  0  0  0  0  0  0  0  0  0
  -26.0067  -18.8515   14.5510 C   0  0  0  0  0  0  0  0  0  0  0  0
  -31.0915  -12.9862   21.2680 C   0  0  0  0  0  0  0  0  0  0  0  0
  -24.5690  -28.8435   17.6014 C   0  0  0  0  0  0  0  0  0  0  0  0
  -27.7017  -22.7302   18.7541 C   0  0  0  0  0  0  0  0  0  0  0  0
  -25.5418  -20.8256   18.0817 C   0  0  0  0  0  0  0  0  0  0  0  0
  -24.1412  -27.5269   16.9583 C   0  0  0  0  0  0  0  0  0  0  0  0
  -29.3622  -13.8187   18.2692 C   0  0  0  0  0  0  0  0  0  0  0  0
  -23.6532  -26.5474   18.0210 C   0  0  0  0  0  0  0  0  0  0  0  0
  -27.9047  -13.4729   18.5794 C   0  0  0  0  0  0  0  0  0  0  0  0
  -30.3273  -12.8283   18.9170 C   0  0  0  0  0  0  0  0  0  0  0  0
  -28.6876  -12.2998   20.6793 C   0  0  0  0  0  0  0  0  0  0  0  0
  -24.7703  -26.2116   19.0164 C   0  0  1  0  0  0  0  0  0  0  0  0
  -26.5750  -23.0999   17.7943 C   0  0  1  0  0  0  0  0  0  0  0  0
  -27.6789  -13.3027   20.0938 C   0  0  2  0  0  0  0  0  0  0  0  0
  -26.8925  -16.2325   27.9123 C   0  0  0  0  0  0  0  0  0  0  0  0
  -25.9746  -17.5922   12.3806 C   0  0  0  0  0  0  0  0  0  0  0  0
  -22.5172  -22.0559   15.8436 C   0  0  0  0  0  0  0  0  0  0  0  0
  -22.5359  -20.0793   14.3071 C   0  0  0  0  0  0  0  0  0  0  0  0
  -23.5617  -22.2332   13.5782 C   0  0  0  0  0  0  0  0  0  0  0  0
  -28.8459  -18.0647   14.8318 C   0  0  0  0  0  0  0  0  0  0  0  0
  -27.1494  -16.5624   23.4899 C   0  0  0  0  0  0  0  0  0  0  0  0
  -31.6890  -14.5790   24.1215 C   0  0  0  0  0  0  0  0  0  0  0  0
  -26.7714  -16.2046   26.3909 C   0  0  0  0  0  0  0  0  0  0  0  0
  -31.7035  -13.1132   23.6698 C   0  0  0  0  0  0  0  0  0  0  0  0
  -27.4375  -18.0162   23.1313 C   0  0  0  0  0  0  0  0  0  1  0  0
  -24.7316  -20.8326   15.3279 C   0  0  1  0  0  0  0  0  0  0  0  0
  -26.8334  -18.3509   13.3803 C   0  0  2  0  0  0  0  0  0  0  0  0
  -23.3497  -21.2991   14.7895 C   0  0  0  0  0  0  0  0  0  0  0  0
  -25.9277  -11.6149   20.5024 N   0  0  0  0  0  0  0  0  0  0  0  0
  -30.1736  -14.8715   25.9899 N   0  0  0  0  0  0  0  0  0  0  0  0
  -28.9889  -15.2638   26.5306 N   0  0  0  0  0  0  0  0  0  0  0  0
  -26.2447  -12.9173   20.4060 N   0  0  0  0  0  0  0  0  0  0  0  0
  -25.9399  -21.9271   17.1897 N   0  0  0  0  0  0  0  0  0  0  0  0
  -30.0611  -12.7143   20.3530 N   0  0  0  0  0  0  0  0  0  0  0  0
  -25.3334  -15.0989   20.5508 N   0  0  0  0  0  0  0  0  0  0  0  0
  -21.7816  -12.4300   21.3621 N   0  0  0  0  0  0  0  0  0  0  0  0
  -25.6949  -25.2610   18.4367 N   0  0  0  0  0  0  0  0  0  0  0  0
  -25.5528  -20.1368   14.3431 N   0  0  0  0  0  0  0  0  0  0  0  0
  -30.7530  -12.8607   22.6098 N   0  0  0  0  0  0  0  0  0  0  0  0
  -27.9119  -17.4408   13.8595 N   0  3  0  0  0  0  0  0  0  0  0  0
  -22.4636  -14.6094   21.1520 O   0  0  0  0  0  0  0  0  0  0  0  0
  -24.5260  -23.3130   18.9481 O   0  0  0  0  0  0  0  0  0  0  0  0
  -25.8845  -22.8891   15.0665 O   0  0  0  0  0  0  0  0  0  0  0  0
  -25.7827  -18.1691   15.5483 O   0  0  0  0  0  0  0  0  0  0  0  0
  -32.2274  -13.3215   20.9155 O   0  0  0  0  0  0  0  0  0  0  0  0
  -21.8067   -6.8605   21.4836 O   0  0  0  0  0  0  0  0  0  0  0  0
  -26.3823  -18.5311   22.3204 O   0  0  0  0  0  0  0  0  0  1  0  0
  -16.9072   -6.3806   19.0000 F   0  0  0  0  0  0  0  0  0  0  0  0
  -19.7478   -8.6137   22.0577 F   0  0  0  0  0  0  0  0  0  0  0  0
  1  2  1  0  0  0  0
  1  5  2  0  0  0  0
  2  6  2  0  0  0  0
  3  8  2  0  0  0  0
  3 16  1  0  0  0  0
  4  9  1  0  0  0  0
  4 16  2  0  0  0  0
  5 18  1  0  0  0  0
  6 20  1  0  0  0  0
  7 10  2  0  0  0  0
  7 19  1  0  0  0  0
  8 23  1  0  0  0  0
  9 23  2  0  0  0  0
 10 24  1  0  0  0  0
 11 12  2  0  0  0  0
 11 25  1  0  0  0  0
 12 26  1  0  0  0  0
 13 21  1  0  0  0  0
 13 24  2  0  0  0  0
 14 22  1  0  0  0  0
 14 29  2  0  0  0  0
 15 26  2  0  0  0  0
 15 27  1  0  0  0  0
 16 28  1  0  0  0  0
 17 28  1  0  0  0  0
 17 31  2  0  0  0  0
 17 32  1  0  0  0  0
 18 20  2  0  0  0  0
 18 37  1  0  0  0  0
 19 21  2  0  0  0  0
 19 38  1  0  0  0  0
 20 46  1  0  0  0  0
 21 39  1  0  0  0  0
 22 30  2  0  0  0  0
 22 55  1  0  0  0  0
 23 80  1  0  0  0  0
 24 81  1  0  0  0  0
 25 27  2  0  0  0  0
 25 80  1  0  0  0  0
 26 82  1  0  0  0  0
 27 83  1  0  0  0  0
 28 63  2  0  0  0  0
 29 56  1  0  0  0  0
 29 64  1  0  0  0  0
 30 57  1  0  0  0  0
 30 65  1  0  0  0  0
 31 66  1  0  0  0  0
 31 69  1  0  0  0  0
 32 70  1  0  0  0  0
 32 75  2  0  0  0  0
 33 47  1  0  0  0  0
 33 71  1  0  0  0  0
 33 76  2  0  0  0  0
 34 60  1  0  0  0  0
 34 67  1  0  0  0  0
 34 77  2  0  0  0  0
 35 61  1  0  0  0  0
 35 72  1  0  0  0  0
 35 78  2  0  0  0  0
 36 68  1  0  0  0  0
 36 73  1  0  0  0  0
 36 79  2  0  0  0  0
 37 40  1  0  0  0  0
 38 47  1  0  0  0  0
 39 67  1  0  0  0  0
 40 42  1  0  0  0  0
 41 43  1  0  0  0  0
 41 44  1  0  0  0  0
 42 46  1  0  0  0  0
 43 48  1  0  0  0  0
 44 68  1  0  0  0  0
 45 48  1  0  0  0  0
 45 68  1  0  0  0  0
 46 71  1  0  0  0  0
 47 67  1  0  0  0  0
 48 66  1  0  0  0  0
 49 57  1  0  0  0  0
 50 61  1  0  0  0  0
 51 62  1  0  0  0  0
 52 62  1  0  0  0  0
 53 62  1  0  0  0  0
 54 74  1  0  0  0  0
 55 59  1  0  0  0  0
 56 58  1  0  0  0  0
 58 73  1  0  0  0  0
 59 81  1  0  0  0  0
 60 62  1  0  0  0  0
 60 72  1  0  0  0  0
 61 74  1  0  0  0  0
 63 66  1  0  0  0  0
 64 65  2  0  0  0  0
M  CHG  1  74   1
M  ISO  4  36 100  59 101  73 100  81 101
M  END
> <Batch ID>
0089

> <Smiles>
CCc1nnc(CC[100NH:0][100C:0](=O)N2CCCC(n3nc(-c4ccc(Oc5ccc(F)cc5F)cc4)c(C(N)=O)c3N)C2)cc1C[101CH2:1][101O:1]c1ccc2c(c1)CN(C(=O)C(NC(=O)C(C)NC)C(C)(C)C)C(C(=O)NC1CCCc3ccccc31)C2

> <Shape>
0.177

> <Color>
0.187

> <Negative vol penalty>
0.000

$$$$

  -OEChem-04052319063D

 87 95  0     1  0  0  0  0  0999 V2000
  -33.4912  -22.9676   13.5000 C   0  0  0  0  0  0  0  0  0  0  0  0
  -32.1067  -22.9195   13.6275 C   0  0  0  0  0  0  0  0  0  0  0  0
  -24.4456   -9.4975   21.5041 C   0  0  0  0  0  0  0  0  0  0  0  0
  -24.7943  -10.6572   23.5947 C   0  0  0  0  0  0  0  0  0  0  0  0
  -34.2964  -22.9346   14.6377 C   0  0  0  0  0  0  0  0  0  0  0  0
  -31.5266  -22.8374   14.8929 C   0  0  0  0  0  0  0  0  0  0  0  0
  -25.7086  -24.9252   18.5134 C   0  0  0  0  0  0  0  0  0  0  0  0
  -24.1621   -8.3238   22.2024 C   0  0  0  0  0  0  0  0  0  0  0  0
  -24.5107   -9.4835   24.2930 C   0  0  0  0  0  0  0  0  0  0  0  0
  -24.6929  -24.4033   19.3132 C   0  0  0  0  0  0  0  0  0  0  0  0
  -22.9936   -5.1129   23.4431 C   0  0  0  0  0  0  0  0  0  0  0  0
  -21.8911   -4.3639   23.0321 C   0  0  0  0  0  0  0  0  0  0  0  0
  -26.1808  -24.4330   21.2117 C   0  0  0  0  0  0  0  0  0  0  0  0
  -25.5036  -20.3524   20.9639 C   0  0  0  0  0  0  0  0  0  0  0  0
  -20.4453   -6.2477   23.4776 C   0  0  0  0  0  0  0  0  0  0  0  0
  -24.7618  -10.6642   22.2002 C   0  0  0  0  0  0  0  0  0  0  0  0
  -24.1418  -12.8709   21.0806 C   0  0  0  0  0  0  0  0  0  0  0  0
  -33.7257  -22.8618   15.9182 C   0  0  0  0  0  0  0  0  0  0  0  0
  -26.9735  -25.1952   19.0552 C   0  0  0  0  0  0  0  0  0  0  0  0
  -32.3250  -22.8021   16.0488 C   0  0  0  0  0  0  0  0  0  0  0  0
  -27.2101  -24.9607   20.4173 C   0  0  0  0  0  0  0  0  0  0  0  0
  -24.2409  -20.0291   21.4288 C   0  0  0  0  0  0  0  0  0  0  0  0
  -24.1946   -8.3168   23.5969 C   0  0  0  0  0  0  0  0  0  0  0  0
  -24.9297  -24.1544   20.6619 C   0  0  0  0  0  0  0  0  0  0  0  0
  -22.8221   -6.4292   23.8715 C   0  0  0  0  0  0  0  0  0  0  0  0
  -20.6169   -4.9313   23.0493 C   0  0  0  0  0  0  0  0  0  0  0  0
  -21.5480   -6.9966   23.8887 C   0  0  0  0  0  0  0  0  0  0  0  0
  -25.0553  -11.8768   21.4795 C   0  0  0  0  0  0  0  0  0  0  0  0
  -26.0890  -19.5069   20.0432 C   0  0  0  0  0  0  0  0  0  0  0  0
  -23.6472  -18.8819   20.9419 C   0  0  0  0  0  0  0  0  0  0  0  0
  -24.9126  -13.8061   20.4343 C   0  0  0  0  0  0  0  0  0  0  0  0
  -22.7234  -12.9427   21.2769 C   0  0  0  0  0  0  0  0  0  0  0  0
  -29.9178  -24.1229   18.5214 C   0  0  0  0  0  0  0  0  0  0  0  0
  -30.7280  -26.4457   20.6358 C   0  0  0  0  0  0  0  0  0  0  0  0
  -29.7892  -28.4651   23.2218 C   0  0  0  0  0  0  0  0  0  0  0  0
  -29.5145  -16.9483   20.1270 C   0  0  0  0  0  0  0  0  0  0  0  0
  -34.6383  -22.7810   17.1162 C   0  0  0  0  0  0  0  0  0  0  0  0
  -28.0505  -25.7831   18.1852 C   0  0  0  0  0  0  0  0  0  0  0  0
  -28.5444  -25.2523   21.0521 C   0  0  0  0  0  0  0  0  0  0  0  0
  -33.9340  -23.0715   18.4391 C   0  0  0  0  0  0  0  0  0  0  0  0
  -29.7294  -13.6122   18.9020 C   0  0  0  0  0  0  0  0  0  0  0  0
  -32.6167  -22.3068   18.5217 C   0  0  0  0  0  0  0  0  0  0  0  0
  -28.4609  -12.9442   19.4355 C   0  0  0  0  0  0  0  0  0  0  0  0
  -30.3049  -14.6113   19.9032 C   0  0  0  0  0  0  0  0  0  0  0  0
  -28.0834  -14.9646   20.9101 C   0  0  0  0  0  0  0  0  0  0  0  0
  -31.6576  -22.7378   17.4054 C   0  0  1  0  0  0  0  0  0  0  0  0
  -29.4557  -25.5379   18.7261 C   0  0  1  0  0  0  0  0  0  0  0  0
  -27.4348  -13.9896   19.9125 C   0  0  2  0  0  0  0  0  0  0  0  0
  -22.2883  -18.4697   21.3978 C   0  0  0  0  0  0  0  0  0  0  0  0
  -30.6801  -30.2318   24.7653 C   0  0  0  0  0  0  0  0  0  0  0  0
  -27.0648  -19.3688   15.6111 C   0  0  0  0  0  0  0  0  0  0  0  0
  -26.8683  -21.4707   16.9520 C   0  0  0  0  0  0  0  0  0  0  0  0
  -32.2019  -24.3038   22.2327 C   0  0  0  0  0  0  0  0  0  0  0  0
  -32.2432  -25.8806   24.1769 C   0  0  0  0  0  0  0  0  0  0  0  0
  -33.4074  -26.4878   22.0560 C   0  0  0  0  0  0  0  0  0  0  0  0
  -27.8385  -30.4655   22.2461 C   0  0  0  0  0  0  0  0  0  0  0  0
  -23.5559  -20.9191   22.4350 C   0  0  0  0  0  0  0  0  0  0  0  0
  -22.4578  -21.7983   21.8328 C   0  0  0  0  0  0  0  0  0  0  0  0
  -27.6695  -19.3072   18.0503 C   0  0  0  0  0  0  0  0  0  0  0  0
  -28.5801  -19.2306   20.4049 C   0  0  0  0  0  0  0  0  0  0  0  0
  -22.9799  -22.8008   20.8102 C   0  0  0  0  0  0  0  0  0  1  0  0
  -27.4480  -19.8094   19.5114 C   0  0  2  0  0  0  0  0  0  0  0  0
  -30.8807  -26.5199   22.1359 C   0  0  1  0  0  0  0  0  0  0  0  0
  -29.9657  -29.9552   23.4516 C   0  0  2  0  0  0  0  0  0  0  0  0
  -26.7435  -19.9470   16.9927 C   0  0  0  0  0  0  0  0  0  0  0  0
  -32.1586  -25.7906   22.6383 C   0  0  0  0  0  0  0  0  0  0  0  0
  -26.3104  -12.1544   21.1167 N   0  0  0  0  0  0  0  0  0  0  0  0
  -25.4847  -18.3905   19.5841 N   0  0  0  0  0  0  0  0  0  0  0  0
  -24.2436  -18.0731   20.0407 N   0  0  0  0  0  0  0  0  0  0  0  0
  -26.1911  -13.3335   20.4831 N   0  0  0  0  0  0  0  0  0  0  0  0
  -29.5673  -25.8205   20.1586 N   0  0  0  0  0  0  0  0  0  0  0  0
  -29.2818  -15.5758   20.3141 N   0  0  0  0  0  0  0  0  0  0  0  0
  -24.6148  -14.9783   19.8345 N   0  0  0  0  0  0  0  0  0  0  0  0
  -22.0899  -11.8968   21.9618 N   0  0  0  0  0  0  0  0  0  0  0  0
  -31.0439  -24.0079   17.7288 N   0  0  0  0  0  0  0  0  0  0  0  0
  -30.8256  -27.9360   22.4822 N   0  0  0  0  0  0  0  0  0  0  0  0
  -28.4911  -17.7935   20.5379 N   0  0  0  0  0  0  0  0  0  0  0  0
  -28.6398  -30.6347   23.4855 N   0  3  0  0  0  0  0  0  0  0  0  0
  -22.0356  -13.8978   20.8429 O   0  0  0  0  0  0  0  0  0  0  0  0
  -29.2994  -23.2036   19.0449 O   0  0  0  0  0  0  0  0  0  0  0  0
  -31.6027  -26.9310   19.9141 O   0  0  0  0  0  0  0  0  0  0  0  0
  -28.8298  -27.8328   23.6582 O   0  0  0  0  0  0  0  0  0  0  0  0
  -30.5550  -17.3877   19.6256 O   0  0  0  0  0  0  0  0  0  0  0  0
  -23.9178   -7.1717   24.2786 O   0  0  0  0  0  0  0  0  0  0  0  0
  -23.9402  -23.6444   21.4446 O   0  0  0  0  0  0  0  0  0  1  0  0
  -19.5584   -4.2125   22.6530 F   0  0  0  0  0  0  0  0  0  0  0  0
  -21.3771   -8.2611   24.2981 F   0  0  0  0  0  0  0  0  0  0  0  0
  1  2  1  0  0  0  0
  1  5  2  0  0  0  0
  2  6  2  0  0  0  0
  3  8  2  0  0  0  0
  3 16  1  0  0  0  0
  4  9  1  0  0  0  0
  4 16  2  0  0  0  0
  5 18  1  0  0  0  0
  6 20  1  0  0  0  0
  7 10  2  0  0  0  0
  7 19  1  0  0  0  0
  8 23  1  0  0  0  0
  9 23  2  0  0  0  0
 10 24  1  0  0  0  0
 11 12  2  0  0  0  0
 11 25  1  0  0  0  0
 12 26  1  0  0  0  0
 13 21  1  0  0  0  0
 13 24  2  0  0  0  0
 14 22  1  0  0  0  0
 14 29  2  0  0  0  0
 15 26  2  0  0  0  0
 15 27  1  0  0  0  0
 16 28  1  0  0  0  0
 17 28  1  0  0  0  0
 17 31  2  0  0  0  0
 17 32  1  0  0  0  0
 18 20  2  0  0  0  0
 18 37  1  0  0  0  0
 19 21  2  0  0  0  0
 19 38  1  0  0  0  0
 20 46  1  0  0  0  0
 21 39  1  0  0  0  0
 22 30  2  0  0  0  0
 22 57  1  0  0  0  0
 23 84  1  0  0  0  0
 24 85  1  0  0  0  0
 25 27  2  0  0  0  0
 25 84  1  0  0  0  0
 26 86  1  0  0  0  0
 27 87  1  0  0  0  0
 28 67  2  0  0  0  0
 29 62  1  0  0  0  0
 29 68  1  0  0  0  0
 30 49  1  0  0  0  0
 30 69  1  0  0  0  0
 31 70  1  0  0  0  0
 31 73  1  0  0  0  0
 32 74  1  0  0  0  0
 32 79  2  0  0  0  0
 33 47  1  0  0  0  0
 33 75  1  0  0  0  0
 33 80  2  0  0  0  0
 34 63  1  0  0  0  0
 34 71  1  0  0  0  0
 34 81  2  0  0  0  0
 35 64  1  0  0  0  0
 35 76  1  0  0  0  0
 35 82  2  0  0  0  0
 36 72  1  0  0  0  0
 36 77  1  0  0  0  0
 36 83  2  0  0  0  0
 37 40  1  0  0  0  0
 38 47  1  0  0  0  0
 39 71  1  0  0  0  0
 40 42  1  0  0  0  0
 41 43  1  0  0  0  0
 41 44  1  0  0  0  0
 42 46  1  0  0  0  0
 43 48  1  0  0  0  0
 44 72  1  0  0  0  0
 45 48  1  0  0  0  0
 45 72  1  0  0  0  0
 46 75  1  0  0  0  0
 47 71  1  0  0  0  0
 48 70  1  0  0  0  0
 50 64  1  0  0  0  0
 51 65  1  0  0  0  0
 52 65  1  0  0  0  0
 53 66  1  0  0  0  0
 54 66  1  0  0  0  0
 55 66  1  0  0  0  0
 56 78  1  0  0  0  0
 57 58  1  0  0  0  0
 58 61  1  0  0  0  0
 59 62  1  0  0  0  0
 59 65  1  0  0  0  0
 60 62  1  0  0  0  0
 60 77  1  0  0  0  0
 61 85  1  0  0  0  0
 63 66  1  0  0  0  0
 63 76  1  0  0  0  0
 64 78  1  0  0  0  0
 67 70  1  0  0  0  0
 68 69  2  0  0  0  0
M  CHG  1  78   1
M  ISO  4  36 100  61 101  77 100  85 101
M  END
> <Batch ID>
0089

> <Smiles>
CNC(C)C(=O)NC(C(=O)N1Cc2cc([101O:1][101CH2:1]CCc3cc(C(C[100NH:0][100C:0](=O)N4CCCC(n5nc(-c6ccc(Oc7ccc(F)cc7F)cc6)c(C(N)=O)c5N)C4)CC(C)C)nnc3C)ccc2CC1C(=O)NC1CCCc2ccccc21)C(C)(C)C

> <Shape>
0.214

> <Color>
0.110

> <Negative vol penalty>
0.000

$$$$

  -OEChem-04052319063D

 89 97  0     1  0  0  0  0  0999 V2000
  -31.5142  -24.5366   17.6886 C   0  0  0  0  0  0  0  0  0  0  0  0
  -30.7242  -23.9589   18.6773 C   0  0  0  0  0  0  0  0  0  0  0  0
  -27.4114  -17.3204   19.0269 C   0  0  0  0  0  0  0  0  0  0  0  0
  -27.8835  -17.2747   21.3958 C   0  0  0  0  0  0  0  0  0  0  0  0
  -31.5308  -25.9220   17.5321 C   0  0  0  0  0  0  0  0  0  0  0  0
  -29.9511  -24.7664   19.5108 C   0  0  0  0  0  0  0  0  0  0  0  0
  -25.2522  -22.9826   20.1306 C   0  0  0  0  0  0  0  0  0  0  0  0
  -28.0965  -18.5301   18.9136 C   0  0  0  0  0  0  0  0  0  0  0  0
  -28.5686  -18.4844   21.2826 C   0  0  0  0  0  0  0  0  0  0  0  0
  -25.0864  -21.9202   21.0180 C   0  0  0  0  0  0  0  0  0  0  0  0
  -31.6072  -19.5363   20.2429 C   0  0  0  0  0  0  0  0  0  0  0  0
  -32.8378  -19.6454   20.8903 C   0  0  0  0  0  0  0  0  0  0  0  0
  -24.3277  -23.4613   22.7117 C   0  0  0  0  0  0  0  0  0  0  0  0
  -23.3634  -18.2574   27.0156 C   0  0  0  0  0  0  0  0  0  0  0  0
  -21.7517  -17.1410   25.6226 C   0  0  0  0  0  0  0  0  0  0  0  0
  -31.9848  -21.4869   22.2013 C   0  0  0  0  0  0  0  0  0  0  0  0
  -27.3048  -16.6927   20.2680 C   0  0  0  0  0  0  0  0  0  0  0  0
  -27.1312  -14.1476   20.2544 C   0  0  0  0  0  0  0  0  0  0  0  0
  -30.7501  -26.7462   18.3578 C   0  0  0  0  0  0  0  0  0  0  0  0
  -24.9669  -24.2958   20.5312 C   0  0  0  0  0  0  0  0  0  0  0  0
  -29.9583  -26.1641   19.3660 C   0  0  0  0  0  0  0  0  0  0  0  0
  -24.4883  -24.5383   21.8267 C   0  0  0  0  0  0  0  0  0  0  0  0
  -22.6575  -18.1772   25.8204 C   0  0  0  0  0  0  0  0  0  0  0  0
  -28.6751  -19.1121   20.0415 C   0  0  0  0  0  0  0  0  0  0  0  0
  -24.6268  -22.1597   22.3097 C   0  0  0  0  0  0  0  0  0  0  0  0
  -30.5654  -20.4025   20.5745 C   0  0  0  0  0  0  0  0  0  0  0  0
  -33.0266  -20.6207   21.8696 C   0  0  0  0  0  0  0  0  0  0  0  0
  -30.7542  -21.3778   21.5537 C   0  0  0  0  0  0  0  0  0  0  0  0
  -26.5967  -15.4434   20.3857 C   0  0  0  0  0  0  0  0  0  0  0  0
  -23.1292  -17.2842   27.9737 C   0  0  0  0  0  0  0  0  0  0  0  0
  -21.5897  -16.2178   26.6430 C   0  0  0  0  0  0  0  0  0  0  0  0
  -26.0592  -13.3123   20.4528 C   0  0  0  0  0  0  0  0  0  0  0  0
  -28.4765  -13.7360   19.9779 C   0  0  0  0  0  0  0  0  0  0  0  0
  -26.6613  -26.9688   20.8274 C   0  0  0  0  0  0  0  0  0  0  0  0
  -23.7609  -28.2754   21.4618 C   0  0  0  0  0  0  0  0  0  0  0  0
  -20.5552  -27.8269   22.5433 C   0  0  0  0  0  0  0  0  0  0  0  0
  -20.8780  -13.9536   23.3845 C   0  0  0  0  0  0  0  0  0  0  0  0
  -30.8372  -28.2415   18.1816 C   0  0  0  0  0  0  0  0  0  0  0  0
  -25.1256  -25.4278   19.5535 C   0  0  0  0  0  0  0  0  0  0  0  0
  -24.1485  -25.9273   22.2995 C   0  0  0  0  0  0  0  0  0  0  0  0
  -29.7013  -29.0020   18.8611 C   0  0  0  0  0  0  0  0  0  0  0  0
  -21.3050  -13.1365   19.9455 C   0  0  0  0  0  0  0  0  0  0  0  0
  -29.4867  -28.4853   20.2801 C   0  0  0  0  0  0  0  0  0  0  0  0
  -22.7578  -13.5181   19.6565 C   0  0  0  0  0  0  0  0  0  0  0  0
  -20.6495  -14.1097   20.9228 C   0  0  0  0  0  0  0  0  0  0  0  0
  -22.8377  -14.6902   21.8967 C   0  0  0  0  0  0  0  0  0  0  0  0
  -29.0868  -27.0049   20.2736 C   0  0  1  0  0  0  0  0  0  0  0  0
  -25.2943  -26.7839   20.2317 C   0  0  1  0  0  0  0  0  0  0  0  0
  -23.5581  -13.7059   20.9594 C   0  0  2  0  0  0  0  0  0  0  0  0
  -27.9059  -15.7402   31.9028 C   0  0  0  0  0  0  0  0  0  0  0  0
  -18.4318  -29.0880   22.9885 C   0  0  0  0  0  0  0  0  0  0  0  0
  -24.9653  -29.3907   24.0339 C   0  0  0  0  0  0  0  0  0  0  0  0
  -22.6388  -29.7981   24.8644 C   0  0  0  0  0  0  0  0  0  0  0  0
  -23.4542  -30.9703   22.8190 C   0  0  0  0  0  0  0  0  0  0  0  0
  -19.0577  -26.2417   20.5425 C   0  0  0  0  0  0  0  0  0  0  0  0
  -22.8726  -19.2105   24.7435 C   0  0  0  0  0  0  0  0  0  0  0  0
  -23.8677  -17.3394   29.2691 C   0  0  0  0  0  0  0  0  0  0  0  0
  -20.6273  -15.0915   26.4640 C   0  0  0  0  0  0  0  0  0  0  0  0
  -27.2129  -15.7763   30.5500 C   0  0  0  0  0  0  0  0  0  0  0  0
  -23.9803  -18.8461   23.7527 C   0  0  0  0  0  0  0  0  0  0  0  0
  -25.1963  -16.5723   29.2537 C   0  0  0  0  0  0  0  0  0  0  0  0
  -25.9087  -16.5725   30.6099 C   0  0  0  0  0  0  0  0  0  0  0  0
  -22.4027  -13.2416   26.6698 C   0  0  0  0  0  0  0  0  0  0  0  0
  -24.1325  -19.8542   22.6196 C   0  0  0  0  0  0  0  0  0  1  0  0
  -22.9380  -28.4978   22.7078 C   0  0  1  0  0  0  0  0  0  0  0  0
  -19.2257  -28.2840   21.9707 C   0  0  2  0  0  0  0  0  0  0  0  0
  -21.2655  -13.8323   25.8328 C   0  0  2  0  0  0  0  0  0  0  0  0
  -23.5072  -29.6382   23.5983 C   0  0  0  0  0  0  0  0  0  0  0  0
  -25.2869  -15.4368   20.6471 N   0  0  0  0  0  0  0  0  0  0  0  0
  -22.2575  -16.2628   27.8176 N   0  0  0  0  0  0  0  0  0  0  0  0
  -24.9893  -14.1267   20.6816 N   0  0  0  0  0  0  0  0  0  0  0  0
  -24.3263  -27.0016   21.3086 N   0  0  0  0  0  0  0  0  0  0  0  0
  -21.4573  -14.2416   22.1377 N   0  0  0  0  0  0  0  0  0  0  0  0
  -25.9367  -11.9679   20.4520 N   0  0  0  0  0  0  0  0  0  0  0  0
  -29.4547  -14.7241   19.8013 N   0  0  0  0  0  0  0  0  0  0  0  0
  -27.6925  -26.8597   19.9140 N   0  0  0  0  0  0  0  0  0  0  0  0
  -21.5677  -28.7184   22.2580 N   0  0  0  0  0  0  0  0  0  0  0  0
  -21.7148  -14.0979   24.4843 N   0  0  0  0  0  0  0  0  0  0  0  0
  -22.9568  -12.0180   26.0400 N   0  3  0  0  0  0  0  0  0  0  0  0
  -18.4075  -27.1084   21.5589 N   0  3  0  0  0  0  0  0  0  0  0  0
  -28.7983  -12.5280   19.8738 O   0  0  0  0  0  0  0  0  0  0  0  0
  -26.7722  -27.1954   22.0266 O   0  0  0  0  0  0  0  0  0  0  0  0
  -23.8911  -29.1957   20.6508 O   0  0  0  0  0  0  0  0  0  0  0  0
  -20.6821  -26.7853   23.1833 O   0  0  0  0  0  0  0  0  0  0  0  0
  -19.7036  -13.5894   23.5078 O   0  0  0  0  0  0  0  0  0  0  0  0
  -29.3439  -20.2924   19.9313 O   0  0  0  0  0  0  0  0  0  0  0  0
  -24.4647  -21.1246   23.1781 O   0  0  0  0  0  0  0  0  0  1  0  0
  -34.2080  -20.7243   22.4923 F   0  0  0  0  0  0  0  0  0  0  0  0
  -29.7566  -22.2120   21.8775 F   0  0  0  0  0  0  0  0  0  0  0  0
  1  2  1  0  0  0  0
  1  5  2  0  0  0  0
  2  6  2  0  0  0  0
  3  8  2  0  0  0  0
  3 17  1  0  0  0  0
  4  9  1  0  0  0  0
  4 17  2  0  0  0  0
  5 19  1  0  0  0  0
  6 21  1  0  0  0  0
  7 10  2  0  0  0  0
  7 20  1  0  0  0  0
  8 24  1  0  0  0  0
  9 24  2  0  0  0  0
 10 25  1  0  0  0  0
 11 12  2  0  0  0  0
 11 26  1  0  0  0  0
 12 27  1  0  0  0  0
 13 22  1  0  0  0  0
 13 25  2  0  0  0  0
 14 23  2  0  0  0  0
 14 30  1  0  0  0  0
 15 23  1  0  0  0  0
 15 31  2  0  0  0  0
 16 27  2  0  0  0  0
 16 28  1  0  0  0  0
 17 29  1  0  0  0  0
 18 29  1  0  0  0  0
 18 32  2  0  0  0  0
 18 33  1  0  0  0  0
 19 21  2  0  0  0  0
 19 38  1  0  0  0  0
 20 22  2  0  0  0  0
 20 39  1  0  0  0  0
 21 47  1  0  0  0  0
 22 40  1  0  0  0  0
 23 56  1  0  0  0  0
 24 86  1  0  0  0  0
 25 87  1  0  0  0  0
 26 28  2  0  0  0  0
 26 86  1  0  0  0  0
 27 88  1  0  0  0  0
 28 89  1  0  0  0  0
 29 69  2  0  0  0  0
 30 57  1  0  0  0  0
 30 70  2  0  0  0  0
 31 58  1  0  0  0  0
 31 70  1  0  0  0  0
 32 71  1  0  0  0  0
 32 74  1  0  0  0  0
 33 75  1  0  0  0  0
 33 81  2  0  0  0  0
 34 48  1  0  0  0  0
 34 76  1  0  0  0  0
 34 82  2  0  0  0  0
 35 65  1  0  0  0  0
 35 72  1  0  0  0  0
 35 83  2  0  0  0  0
 36 66  1  0  0  0  0
 36 77  1  0  0  0  0
 36 84  2  0  0  0  0
 37 73  1  0  0  0  0
 37 78  1  0  0  0  0
 37 85  2  0  0  0  0
 38 41  1  0  0  0  0
 39 48  1  0  0  0  0
 40 72  1  0  0  0  0
 41 43  1  0  0  0  0
 42 44  1  0  0  0  0
 42 45  1  0  0  0  0
 43 47  1  0  0  0  0
 44 49  1  0  0  0  0
 45 73  1  0  0  0  0
 46 49  1  0  0  0  0
 46 73  1  0  0  0  0
 47 76  1  0  0  0  0
 48 72  1  0  0  0  0
 49 71  1  0  0  0  0
 50 59  1  0  0  0  0
 51 66  1  0  0  0  0
 52 68  1  0  0  0  0
 53 68  1  0  0  0  0
 54 68  1  0  0  0  0
 55 80  1  0  0  0  0
 56 60  1  0  0  0  0
 57 61  1  0  0  0  0
 58 67  1  0  0  0  0
 59 62  1  0  0  0  0
 60 64  1  0  0  0  0
 61 62  1  0  0  0  0
 63 67  1  0  0  0  0
 63 79  1  0  0  0  0
 64 87  1  0  0  0  0
 65 68  1  0  0  0  0
 65 77  1  0  0  0  0
 66 80  1  0  0  0  0
 67 78  1  0  0  0  0
 69 71  1  0  0  0  0
M  CHG  2  79   1  80   1
M  ISO  4  37 100  64 101  78 100  87 101
M  END
> <Batch ID>
0089

> <Smiles>
CCCCCc1cc(CC[101CH2:1][101O:1]c2ccc3c(c2)CN(C(=O)C(NC(=O)C(C)NC)C(C)(C)C)C(C(=O)NC2CCCc4ccccc42)C3)cc(CC(CN)[100NH:0][100C:0](=O)N2CCCC(n3nc(-c4ccc(Oc5ccc(F)cc5F)cc4)c(C(N)=O)c3N)C2)n1

> <Shape>
0.228

> <Color>
0.062

> <Negative vol penalty>
0.000

$$$$

  -OEChem-04052319063D

 86 94  0     1  0  0  0  0  0999 V2000
  -21.7908  -11.5686   21.2141 C   0  0  0  0  0  0  0  0  0  0  0  0
  -21.8809  -12.7804   21.8915 C   0  0  0  0  0  0  0  0  0  0  0  0
  -24.9621  -28.2725   19.2143 C   0  0  0  0  0  0  0  0  0  0  0  0
  -25.9210  -27.8731   21.3956 C   0  0  0  0  0  0  0  0  0  0  0  0
  -22.9074  -11.0540   20.5567 C   0  0  0  0  0  0  0  0  0  0  0  0
  -23.0883  -13.4777   21.9129 C   0  0  0  0  0  0  0  0  0  0  0  0
  -22.4871  -18.4298   21.0408 C   0  0  0  0  0  0  0  0  0  0  0  0
  -26.1068  -28.9761   18.8399 C   0  0  0  0  0  0  0  0  0  0  0  0
  -27.0657  -28.5767   21.0212 C   0  0  0  0  0  0  0  0  0  0  0  0
  -22.0253  -19.2112   22.0990 C   0  0  0  0  0  0  0  0  0  0  0  0
  -30.0907  -30.5750   20.7636 C   0  0  0  0  0  0  0  0  0  0  0  0
  -30.6115  -31.4963   21.6722 C   0  0  0  0  0  0  0  0  0  0  0  0
  -24.2827  -19.9395   22.5384 C   0  0  0  0  0  0  0  0  0  0  0  0
  -21.6690  -25.4273   28.1400 C   0  0  0  0  0  0  0  0  0  0  0  0
  -28.5343  -32.7288   21.6129 C   0  0  0  0  0  0  0  0  0  0  0  0
  -20.0921  -24.4387   26.8727 C   0  0  0  0  0  0  0  0  0  0  0  0
  -24.8692  -27.7210   20.4922 C   0  0  0  0  0  0  0  0  0  0  0  0
  -23.4500  -25.6147   20.7313 C   0  0  0  0  0  0  0  0  0  0  0  0
  -24.1264  -11.7502   20.5619 C   0  0  0  0  0  0  0  0  0  0  0  0
  -23.8538  -18.3888   20.7298 C   0  0  0  0  0  0  0  0  0  0  0  0
  -24.2227  -12.9713   21.2561 C   0  0  0  0  0  0  0  0  0  0  0  0
  -24.7589  -19.1587   21.4741 C   0  0  0  0  0  0  0  0  0  0  0  0
  -20.3309  -25.5252   27.6849 C   0  0  0  0  0  0  0  0  0  0  0  0
  -27.1586  -29.1282   19.7433 C   0  0  0  0  0  0  0  0  0  0  0  0
  -22.9235  -19.9640   22.8498 C   0  0  0  0  0  0  0  0  0  0  0  0
  -28.7917  -30.7306   20.2796 C   0  0  0  0  0  0  0  0  0  0  0  0
  -29.8333  -32.5732   22.0969 C   0  0  0  0  0  0  0  0  0  0  0  0
  -28.0135  -31.8075   20.7043 C   0  0  0  0  0  0  0  0  0  0  0  0
  -23.6867  -26.9945   20.8797 C   0  0  0  0  0  0  0  0  0  0  0  0
  -22.2072  -24.2839   27.5919 C   0  0  0  0  0  0  0  0  0  0  0  0
  -22.1926  -25.4244   21.2502 C   0  0  0  0  0  0  0  0  0  0  0  0
  -24.2914  -24.5962   20.1744 C   0  0  0  0  0  0  0  0  0  0  0  0
  -26.0750  -16.1156   20.6768 C   0  0  0  0  0  0  0  0  0  0  0  0
  -27.9038  -18.4750   19.4075 C   0  0  0  0  0  0  0  0  0  0  0  0
  -28.4775  -21.8198   19.0475 C   0  0  0  0  0  0  0  0  0  0  0  0
  -18.9450  -28.4370   25.2787 C   0  0  0  0  0  0  0  0  0  0  0  0
  -25.3189  -11.1310   19.8769 C   0  0  0  0  0  0  0  0  0  0  0  0
  -24.3326  -17.5616   19.5683 C   0  0  0  0  0  0  0  0  0  0  0  0
  -26.2336  -19.1652   21.1681 C   0  0  0  0  0  0  0  0  0  0  0  0
  -26.4598  -12.1153   19.6321 C   0  0  0  0  0  0  0  0  0  0  0  0
  -18.0342  -27.6946   21.9177 C   0  0  0  0  0  0  0  0  0  0  0  0
  -26.7344  -12.9371   20.8876 C   0  0  0  0  0  0  0  0  0  0  0  0
  -19.3583  -27.3065   21.2572 C   0  0  0  0  0  0  0  0  0  0  0  0
  -18.2203  -28.8136   22.9400 C   0  0  0  0  0  0  0  0  0  0  0  0
  -20.5683  -28.1613   23.3075 C   0  0  0  0  0  0  0  0  0  0  0  0
  -25.5081  -13.7695   21.2812 C   0  0  1  0  0  0  0  0  0  0  0  0
  -25.8101  -17.1944   19.6651 C   0  0  1  0  0  0  0  0  0  0  0  0
  -20.4405  -26.9979   22.3092 C   0  0  2  0  0  0  0  0  0  0  0  0
  -19.0389  -26.6409   29.5316 C   0  0  0  0  0  0  0  0  0  0  0  0
  -29.5512  -23.9189   18.1881 C   0  0  0  0  0  0  0  0  0  0  0  0
  -24.4647  -24.5841   28.6685 C   0  0  0  0  0  0  0  0  0  0  0  0
  -24.2942  -23.5974   26.3591 C   0  0  0  0  0  0  0  0  0  0  0  0
  -23.6292  -22.2642   28.3496 C   0  0  0  0  0  0  0  0  0  0  0  0
  -29.9562  -17.8853   21.5870 C   0  0  0  0  0  0  0  0  0  0  0  0
  -31.0270  -20.0904   21.0780 C   0  0  0  0  0  0  0  0  0  0  0  0
  -30.9315  -18.3181   19.3251 C   0  0  0  0  0  0  0  0  0  0  0  0
  -26.6487  -21.9421   16.7238 C   0  0  0  0  0  0  0  0  0  0  0  0
  -21.0838  -22.5655   24.5470 C   0  0  0  0  0  0  0  0  0  0  0  0
  -21.3951  -22.4136   26.0375 C   0  0  0  0  0  0  0  0  0  0  0  0
  -19.8157  -28.0108   27.5633 C   0  0  0  0  0  0  0  0  0  0  0  0
  -21.1522  -21.2508   23.7786 C   0  0  0  0  0  0  0  0  0  1  0  0
  -19.3694  -26.5932   28.0189 C   0  0  1  0  0  0  0  0  0  0  0  0
  -28.8140  -19.5409   19.9681 C   0  0  1  0  0  0  0  0  0  0  0  0
  -28.7727  -22.6650   17.8215 C   0  0  2  0  0  0  0  0  0  0  0  0
  -23.5606  -23.7092   27.7373 C   0  0  0  0  0  0  0  0  0  0  0  0
  -30.1547  -18.9573   20.4968 C   0  0  0  0  0  0  0  0  0  0  0  0
  -22.6619  -27.6353   21.4481 N   0  0  0  0  0  0  0  0  0  0  0  0
  -21.2397  -23.6912   26.8232 N   0  0  0  0  0  0  0  0  0  0  0  0
  -21.7690  -26.6539   21.6614 N   0  0  0  0  0  0  0  0  0  0  0  0
  -26.6536  -18.3354   20.0268 N   0  0  0  0  0  0  0  0  0  0  0  0
  -19.2589  -28.4576   23.9097 N   0  0  0  0  0  0  0  0  0  0  0  0
  -21.4189  -24.3270   21.3901 N   0  0  0  0  0  0  0  0  0  0  0  0
  -25.5527  -24.9644   19.6866 N   0  0  0  0  0  0  0  0  0  0  0  0
  -25.3963  -14.9368   20.4332 N   0  0  0  0  0  0  0  0  0  0  0  0
  -28.9706  -20.5389   18.9156 N   0  0  0  0  0  0  0  0  0  0  0  0
  -19.9853  -28.0830   26.1291 N   0  0  0  0  0  0  0  0  0  0  0  0
  -27.5032  -23.0770   17.1585 N   0  3  0  0  0  0  0  0  0  0  0  0
  -23.9288  -23.3978   20.0963 O   0  0  0  0  0  0  0  0  0  0  0  0
  -26.8397  -16.3358   21.6087 O   0  0  0  0  0  0  0  0  0  0  0  0
  -28.2850  -17.7962   18.4507 O   0  0  0  0  0  0  0  0  0  0  0  0
  -27.8735  -22.2537   20.0259 O   0  0  0  0  0  0  0  0  0  0  0  0
  -17.8195  -28.7083   25.7105 O   0  0  0  0  0  0  0  0  0  0  0  0
  -28.2758  -29.8146   19.3783 O   0  0  0  0  0  0  0  0  0  0  0  0
  -22.4755  -20.7271   23.8837 O   0  0  0  0  0  0  0  0  0  1  0  0
  -30.3330  -33.4571   22.9705 F   0  0  0  0  0  0  0  0  0  0  0  0
  -26.7645  -31.9616   20.2438 F   0  0  0  0  0  0  0  0  0  0  0  0
  1  2  1  0  0  0  0
  1  5  2  0  0  0  0
  2  6  2  0  0  0  0
  3  8  2  0  0  0  0
  3 17  1  0  0  0  0
  4  9  1  0  0  0  0
  4 17  2  0  0  0  0
  5 19  1  0  0  0  0
  6 21  1  0  0  0  0
  7 10  2  0  0  0  0
  7 20  1  0  0  0  0
  8 24  1  0  0  0  0
  9 24  2  0  0  0  0
 10 25  1  0  0  0  0
 11 12  2  0  0  0  0
 11 26  1  0  0  0  0
 12 27  1  0  0  0  0
 13 22  1  0  0  0  0
 13 25  2  0  0  0  0
 14 23  1  0  0  0  0
 14 30  2  0  0  0  0
 15 27  2  0  0  0  0
 15 28  1  0  0  0  0
 16 23  2  0  0  0  0
 16 68  1  0  0  0  0
 17 29  1  0  0  0  0
 18 29  1  0  0  0  0
 18 31  2  0  0  0  0
 18 32  1  0  0  0  0
 19 21  2  0  0  0  0
 19 37  1  0  0  0  0
 20 22  2  0  0  0  0
 20 38  1  0  0  0  0
 21 46  1  0  0  0  0
 22 39  1  0  0  0  0
 23 62  1  0  0  0  0
 24 83  1  0  0  0  0
 25 84  1  0  0  0  0
 26 28  2  0  0  0  0
 26 83  1  0  0  0  0
 27 85  1  0  0  0  0
 28 86  1  0  0  0  0
 29 67  2  0  0  0  0
 30 65  1  0  0  0  0
 30 68  1  0  0  0  0
 31 69  1  0  0  0  0
 31 72  1  0  0  0  0
 32 73  1  0  0  0  0
 32 78  2  0  0  0  0
 33 47  1  0  0  0  0
 33 74  1  0  0  0  0
 33 79  2  0  0  0  0
 34 63  1  0  0  0  0
 34 70  1  0  0  0  0
 34 80  2  0  0  0  0
 35 64  1  0  0  0  0
 35 75  1  0  0  0  0
 35 81  2  0  0  0  0
 36 71  1  0  0  0  0
 36 76  1  0  0  0  0
 36 82  2  0  0  0  0
 37 40  1  0  0  0  0
 38 47  1  0  0  0  0
 39 70  1  0  0  0  0
 40 42  1  0  0  0  0
 41 43  1  0  0  0  0
 41 44  1  0  0  0  0
 42 46  1  0  0  0  0
 43 48  1  0  0  0  0
 44 71  1  0  0  0  0
 45 48  1  0  0  0  0
 45 71  1  0  0  0  0
 46 74  1  0  0  0  0
 47 70  1  0  0  0  0
 48 69  1  0  0  0  0
 49 62  1  0  0  0  0
 50 64  1  0  0  0  0
 51 65  1  0  0  0  0
 52 65  1  0  0  0  0
 53 65  1  0  0  0  0
 54 66  1  0  0  0  0
 55 66  1  0  0  0  0
 56 66  1  0  0  0  0
 57 77  1  0  0  0  0
 58 59  1  0  0  0  0
 58 61  1  0  0  0  0
 59 68  1  0  0  0  0
 60 62  1  0  0  0  0
 60 76  1  0  0  0  0
 61 84  1  0  0  0  0
 63 66  1  0  0  0  0
 63 75  1  0  0  0  0
 64 77  1  0  0  0  0
 67 69  1  0  0  0  0
M  CHG  1  77   1
M  ISO  4  36 100  61 101  76 100  84 101
M  END
> <Batch ID>
0089

> <Smiles>
CNC(C)C(=O)NC(C(=O)N1Cc2cc([101O:1][101CH2:1]CCn3cc(C(C)C[100NH:0][100C:0](=O)N4CCCC(n5nc(-c6ccc(Oc7ccc(F)cc7F)cc6)c(C(N)=O)c5N)C4)cc3C(C)(C)C)ccc2CC1C(=O)NC1CCCc2ccccc21)C(C)(C)C

> <Shape>
0.195

> <Color>
0.074

> <Negative vol penalty>
0.000

$$$$

  -OEChem-04052319063D

 86 94  0     1  0  0  0  0  0999 V2000
  -23.9284  -31.2493   20.6354 C   0  0  0  0  0  0  0  0  0  0  0  0
  -23.1270  -30.2605   21.1970 C   0  0  0  0  0  0  0  0  0  0  0  0
  -30.7145  -19.6788   18.5150 C   0  0  0  0  0  0  0  0  0  0  0  0
  -29.4429  -20.0637   20.5330 C   0  0  0  0  0  0  0  0  0  0  0  0
  -25.2336  -30.9499   20.2469 C   0  0  0  0  0  0  0  0  0  0  0  0
  -23.6299  -28.9714   21.3693 C   0  0  0  0  0  0  0  0  0  0  0  0
  -23.1617  -23.3381   25.7698 C   0  0  0  0  0  0  0  0  0  0  0  0
  -30.4450  -20.9818   18.0966 C   0  0  0  0  0  0  0  0  0  0  0  0
  -29.1734  -21.3668   20.1145 C   0  0  0  0  0  0  0  0  0  0  0  0
  -22.9216  -21.9651   25.7399 C   0  0  0  0  0  0  0  0  0  0  0  0
  -30.3936  -24.3229   16.6651 C   0  0  0  0  0  0  0  0  0  0  0  0
  -31.4506  -25.0678   16.1422 C   0  0  0  0  0  0  0  0  0  0  0  0
  -25.2172  -21.5835   25.1046 C   0  0  0  0  0  0  0  0  0  0  0  0
  -24.1455  -16.8402   23.7982 C   0  0  0  0  0  0  0  0  0  0  0  0
  -32.6432  -24.8419   18.2312 C   0  0  0  0  0  0  0  0  0  0  0  0
  -30.2134  -19.2197   19.7332 C   0  0  0  0  0  0  0  0  0  0  0  0
  -31.5842  -17.4373   20.9381 C   0  0  0  0  0  0  0  0  0  0  0  0
  -25.7559  -29.6590   20.4235 C   0  0  0  0  0  0  0  0  0  0  0  0
  -24.4307  -23.8458   25.4561 C   0  0  0  0  0  0  0  0  0  0  0  0
  -24.9428  -28.6541   20.9816 C   0  0  0  0  0  0  0  0  0  0  0  0
  -25.4715  -22.9632   25.1337 C   0  0  0  0  0  0  0  0  0  0  0  0
  -24.3545  -17.4779   25.0160 C   0  0  0  0  0  0  0  0  0  0  0  0
  -24.1331  -16.7879   26.2027 C   0  0  0  0  0  0  0  0  0  0  0  0
  -29.6744  -21.8258   18.8963 C   0  0  0  0  0  0  0  0  0  0  0  0
  -23.9486  -21.0878   25.4045 C   0  0  0  0  0  0  0  0  0  0  0  0
  -30.4613  -23.8375   17.9711 C   0  0  0  0  0  0  0  0  0  0  0  0
  -32.5754  -25.3273   16.9252 C   0  0  0  0  0  0  0  0  0  0  0  0
  -31.5861  -24.0969   18.7541 C   0  0  0  0  0  0  0  0  0  0  0  0
  -30.4910  -17.8736   20.1658 C   0  0  0  0  0  0  0  0  0  0  0  0
  -23.7184  -15.5224   23.8210 C   0  0  0  0  0  0  0  0  0  0  0  0
  -23.7063  -15.4724   26.1179 C   0  0  0  0  0  0  0  0  0  0  0  0
  -31.3898  -16.0845   21.0747 C   0  0  0  0  0  0  0  0  0  0  0  0
  -32.6775  -18.1877   21.4833 C   0  0  0  0  0  0  0  0  0  0  0  0
  -25.5820  -25.7749   23.2074 C   0  0  0  0  0  0  0  0  0  0  0  0
  -28.3182  -25.5095   24.9293 C   0  0  0  0  0  0  0  0  0  0  0  0
  -30.1859  -23.7015   27.1406 C   0  0  0  0  0  0  0  0  0  0  0  0
  -26.5065  -12.6258   20.8724 C   0  0  0  0  0  0  0  0  0  0  0  0
  -27.1568  -29.3710   19.9446 C   0  0  0  0  0  0  0  0  0  0  0  0
  -24.6805  -25.3277   25.5190 C   0  0  0  0  0  0  0  0  0  0  0  0
  -26.8571  -23.4562   24.8086 C   0  0  0  0  0  0  0  0  0  0  0  0
  -27.7382  -28.0759   20.5060 C   0  0  0  0  0  0  0  0  0  0  0  0
  -29.4174  -12.3406   18.8421 C   0  0  0  0  0  0  0  0  0  0  0  0
  -26.7235  -26.9425   20.3939 C   0  0  0  0  0  0  0  0  0  0  0  0
  -30.1213  -13.6870   19.0208 C   0  0  0  0  0  0  0  0  0  0  0  0
  -27.8983  -12.4956   18.8273 C   0  0  0  0  0  0  0  0  0  0  0  0
  -28.0415  -14.5599   20.1659 C   0  0  0  0  0  0  0  0  0  0  0  0
  -25.4606  -27.2502   21.2075 C   0  0  1  0  0  0  0  0  0  0  0  0
  -25.8767  -25.7681   24.6807 C   0  0  1  0  0  0  0  0  0  0  0  0
  -29.5738  -14.4481   20.2432 C   0  0  2  0  0  0  0  0  0  0  0  0
  -24.3513  -17.4454   27.5238 C   0  0  0  0  0  0  0  0  0  0  0  0
  -22.0953  -12.8225   28.4174 C   0  0  0  0  0  0  0  0  0  0  0  0
  -22.0578  -15.0544   22.0002 C   0  0  0  0  0  0  0  0  0  0  0  0
  -32.3952  -23.7209   28.3306 C   0  0  0  0  0  0  0  0  0  0  0  0
  -29.7125  -24.6679   22.3492 C   0  0  0  0  0  0  0  0  0  0  0  0
  -31.6082  -23.8035   23.7376 C   0  0  0  0  0  0  0  0  0  0  0  0
  -31.0336  -26.2305   23.7870 C   0  0  0  0  0  0  0  0  0  0  0  0
  -28.8852  -23.7568   29.7984 C   0  0  0  0  0  0  0  0  0  0  0  0
  -24.8145  -18.9060   25.0221 C   0  0  0  0  0  0  0  0  0  1  0  0
  -23.4531  -14.6792   27.3582 C   0  0  0  0  0  0  0  0  0  0  0  0
  -22.3288  -13.6517   27.1645 C   0  0  0  0  0  0  0  0  0  0  0  0
  -23.7433  -13.2728   22.6042 C   0  0  0  0  0  0  0  0  0  0  0  0
  -25.1838  -12.8992   22.9544 C   0  0  0  0  0  0  0  0  0  0  0  0
  -23.4852  -14.8058   22.5330 C   0  0  2  0  0  0  0  0  0  0  0  0
  -29.5001  -24.5704   24.9204 C   0  0  1  0  0  0  0  0  0  0  0  0
  -30.9262  -24.1078   28.4021 C   0  0  2  0  0  0  0  0  0  0  0  0
  -30.4371  -24.8086   23.7027 C   0  0  0  0  0  0  0  0  0  0  0  0
  -29.6637  -16.8787   19.8348 N   0  0  0  0  0  0  0  0  0  0  0  0
  -23.4926  -14.8195   24.9535 N   0  0  0  0  0  0  0  0  0  0  0  0
  -30.2372  -15.8036   20.4018 N   0  0  0  0  0  0  0  0  0  0  0  0
  -27.0498  -24.9141   24.8776 N   0  0  0  0  0  0  0  0  0  0  0  0
  -27.4435  -13.2242   20.0140 N   0  0  0  0  0  0  0  0  0  0  0  0
  -32.0942  -15.1196   21.7035 N   0  0  0  0  0  0  0  0  0  0  0  0
  -32.7233  -19.5686   21.2479 N   0  0  0  0  0  0  0  0  0  0  0  0
  -25.6980  -27.0185   22.6162 N   0  0  0  0  0  0  0  0  0  0  0  0
  -30.1532  -24.7239   26.2159 N   0  0  0  0  0  0  0  0  0  0  0  0
  -26.1338  -13.3818   21.9770 N   0  0  0  0  0  0  0  0  0  0  0  0
  -30.3230  -23.4450   29.5928 N   0  3  0  0  0  0  0  0  0  0  0  0
  -33.5955  -17.6470   22.1454 O   0  0  0  0  0  0  0  0  0  0  0  0
  -25.2736  -24.7291   22.6480 O   0  0  0  0  0  0  0  0  0  0  0  0
  -28.5129  -26.7262   24.9876 O   0  0  0  0  0  0  0  0  0  0  0  0
  -29.6897  -22.5873   26.9890 O   0  0  0  0  0  0  0  0  0  0  0  0
  -26.0407  -11.4988   20.6722 O   0  0  0  0  0  0  0  0  0  0  0  0
  -29.4114  -23.0974   18.4884 O   0  0  0  0  0  0  0  0  0  0  0  0
  -23.7168  -19.7472   25.3739 O   0  0  0  0  0  0  0  0  0  1  0  0
  -33.5910  -26.0414   16.4225 F   0  0  0  0  0  0  0  0  0  0  0  0
  -31.6574  -23.6322   20.0090 F   0  0  0  0  0  0  0  0  0  0  0  0
  1  2  1  0  0  0  0
  1  5  2  0  0  0  0
  2  6  2  0  0  0  0
  3  8  2  0  0  0  0
  3 16  1  0  0  0  0
  4  9  1  0  0  0  0
  4 16  2  0  0  0  0
  5 18  1  0  0  0  0
  6 20  1  0  0  0  0
  7 10  2  0  0  0  0
  7 19  1  0  0  0  0
  8 24  1  0  0  0  0
  9 24  2  0  0  0  0
 10 25  1  0  0  0  0
 11 12  2  0  0  0  0
 11 26  1  0  0  0  0
 12 27  1  0  0  0  0
 13 21  1  0  0  0  0
 13 25  2  0  0  0  0
 14 22  2  0  0  0  0
 14 30  1  0  0  0  0
 15 27  2  0  0  0  0
 15 28  1  0  0  0  0
 16 29  1  0  0  0  0
 17 29  1  0  0  0  0
 17 32  2  0  0  0  0
 17 33  1  0  0  0  0
 18 20  2  0  0  0  0
 18 38  1  0  0  0  0
 19 21  2  0  0  0  0
 19 39  1  0  0  0  0
 20 47  1  0  0  0  0
 21 40  1  0  0  0  0
 22 23  1  0  0  0  0
 22 58  1  0  0  0  0
 23 31  2  0  0  0  0
 23 50  1  0  0  0  0
 24 83  1  0  0  0  0
 25 84  1  0  0  0  0
 26 28  2  0  0  0  0
 26 83  1  0  0  0  0
 27 85  1  0  0  0  0
 28 86  1  0  0  0  0
 29 67  2  0  0  0  0
 30 63  1  0  0  0  0
 30 68  2  0  0  0  0
 31 59  1  0  0  0  0
 31 68  1  0  0  0  0
 32 69  1  0  0  0  0
 32 72  1  0  0  0  0
 33 73  1  0  0  0  0
 33 78  2  0  0  0  0
 34 48  1  0  0  0  0
 34 74  1  0  0  0  0
 34 79  2  0  0  0  0
 35 64  1  0  0  0  0
 35 70  1  0  0  0  0
 35 80  2  0  0  0  0
 36 65  1  0  0  0  0
 36 75  1  0  0  0  0
 36 81  2  0  0  0  0
 37 71  1  0  0  0  0
 37 76  1  0  0  0  0
 37 82  2  0  0  0  0
 38 41  1  0  0  0  0
 39 48  1  0  0  0  0
 40 70  1  0  0  0  0
 41 43  1  0  0  0  0
 42 44  1  0  0  0  0
 42 45  1  0  0  0  0
 43 47  1  0  0  0  0
 44 49  1  0  0  0  0
 45 71  1  0  0  0  0
 46 49  1  0  0  0  0
 46 71  1  0  0  0  0
 47 74  1  0  0  0  0
 48 70  1  0  0  0  0
 49 69  1  0  0  0  0
 51 60  1  0  0  0  0
 52 63  1  0  0  0  0
 53 65  1  0  0  0  0
 54 66  1  0  0  0  0
 55 66  1  0  0  0  0
 56 66  1  0  0  0  0
 57 77  1  0  0  0  0
 58 84  1  0  0  0  0
 59 60  1  0  0  0  0
 61 62  1  0  0  0  0
 61 63  1  0  0  0  0
 62 76  1  0  0  0  0
 64 66  1  0  0  0  0
 64 75  1  0  0  0  0
 65 77  1  0  0  0  0
 67 69  1  0  0  0  0
M  CHG  1  77   1
M  ISO  4  37 100  58 101  76 100  84 101
M  END
> <Batch ID>
0089

> <Smiles>
CCCc1nc(C(C)CC[100NH:0][100C:0](=O)N2CCCC(n3nc(-c4ccc(Oc5ccc(F)cc5F)cc4)c(C(N)=O)c3N)C2)cc([101CH2:1][101O:1]c2ccc3c(c2)CN(C(=O)C(NC(=O)C(C)NC)C(C)(C)C)C(C(=O)NC2CCCc4ccccc42)C3)c1C

> <Shape>
0.171

> <Color>
0.080

> <Negative vol penalty>
0.000

$$$$

  -OEChem-04052319063D

 84 92  0     1  0  0  0  0  0999 V2000
  -21.7573  -21.4394   16.8975 C   0  0  0  0  0  0  0  0  0  0  0  0
  -22.9922  -20.8635   16.6172 C   0  0  0  0  0  0  0  0  0  0  0  0
  -26.2900  -28.1712   18.8627 C   0  0  0  0  0  0  0  0  0  0  0  0
  -26.5544  -28.0777   21.2624 C   0  0  0  0  0  0  0  0  0  0  0  0
  -21.1728  -21.2575   18.1503 C   0  0  0  0  0  0  0  0  0  0  0  0
  -23.6441  -20.1062   17.5899 C   0  0  0  0  0  0  0  0  0  0  0  0
  -27.9748  -14.4421   18.2815 C   0  0  0  0  0  0  0  0  0  0  0  0
  -32.0917  -17.6210   19.5383 C   0  0  0  0  0  0  0  0  0  0  0  0
  -25.2591  -29.0987   19.0124 C   0  0  0  0  0  0  0  0  0  0  0  0
  -25.5234  -29.0053   21.4121 C   0  0  0  0  0  0  0  0  0  0  0  0
  -29.1803  -14.0744   18.8776 C   0  0  0  0  0  0  0  0  0  0  0  0
  -22.3154  -31.2210   18.7799 C   0  0  0  0  0  0  0  0  0  0  0  0
  -21.1599  -31.0368   18.0206 C   0  0  0  0  0  0  0  0  0  0  0  0
  -31.4136  -18.1780   20.6168 C   0  0  0  0  0  0  0  0  0  0  0  0
  -28.0386  -13.7619   20.9795 C   0  0  0  0  0  0  0  0  0  0  0  0
  -20.8195  -28.8831   19.0613 C   0  0  0  0  0  0  0  0  0  0  0  0
  -26.9377  -27.6606   19.9878 C   0  0  0  0  0  0  0  0  0  0  0  0
  -29.3766  -26.9731   19.6932 C   0  0  0  0  0  0  0  0  0  0  0  0
  -21.8134  -20.4896   19.1355 C   0  0  0  0  0  0  0  0  0  0  0  0
  -26.7921  -14.4830   19.0338 C   0  0  0  0  0  0  0  0  0  0  0  0
  -23.0683  -19.9150   18.8574 C   0  0  0  0  0  0  0  0  0  0  0  0
  -26.8189  -14.1280   20.3900 C   0  0  0  0  0  0  0  0  0  0  0  0
  -32.1611  -16.2385   19.4068 C   0  0  0  0  0  0  0  0  0  0  0  0
  -24.8758  -29.5158   20.2870 C   0  0  0  0  0  0  0  0  0  0  0  0
  -29.2128  -13.7370   20.2275 C   0  0  0  0  0  0  0  0  0  0  0  0
  -22.7230  -30.2363   19.6798 C   0  0  0  0  0  0  0  0  0  0  0  0
  -20.4120  -29.8678   18.1613 C   0  0  0  0  0  0  0  0  0  0  0  0
  -21.9751  -29.0674   19.8206 C   0  0  0  0  0  0  0  0  0  0  0  0
  -28.0023  -26.7020   19.8339 C   0  0  0  0  0  0  0  0  0  0  0  0
  -30.8265  -17.3160   21.5290 C   0  0  0  0  0  0  0  0  0  0  0  0
  -31.5408  -15.4633   20.3733 C   0  0  0  0  0  0  0  0  0  0  0  0
  -29.9610  -25.7352   19.5815 C   0  0  0  0  0  0  0  0  0  0  0  0
  -30.0634  -28.2314   19.6661 C   0  0  0  0  0  0  0  0  0  0  0  0
  -24.7195  -16.7567   19.8328 C   0  0  0  0  0  0  0  0  0  0  0  0
  -23.0587  -14.2631   21.0761 C   0  0  0  0  0  0  0  0  0  0  0  0
  -23.1036  -11.0887   22.3283 C   0  0  0  0  0  0  0  0  0  0  0  0
  -28.2947  -20.4101   21.5109 C   0  0  0  0  0  0  0  0  0  0  0  0
  -21.1645  -20.3604   20.4909 C   0  0  0  0  0  0  0  0  0  0  0  0
  -25.4951  -14.8559   18.3695 C   0  0  0  0  0  0  0  0  0  0  0  0
  -25.5733  -14.1363   21.2367 C   0  0  0  0  0  0  0  0  0  0  0  0
  -21.7462  -19.2327   21.3396 C   0  0  0  0  0  0  0  0  0  0  0  0
  -29.0460  -21.2837   18.0801 C   0  0  0  0  0  0  0  0  0  0  0  0
  -23.2707  -19.2701   21.3046 C   0  0  0  0  0  0  0  0  0  0  0  0
  -28.9921  -22.8115   18.1365 C   0  0  0  0  0  0  0  0  0  0  0  0
  -27.9793  -20.6595   18.9749 C   0  0  0  0  0  0  0  0  0  0  0  0
  -27.9770  -22.6298   20.4552 C   0  0  0  0  0  0  0  0  0  0  0  0
  -23.7950  -19.0663   19.8780 C   0  0  1  0  0  0  0  0  0  0  0  0
  -24.4434  -15.3599   19.3529 C   0  0  1  0  0  0  0  0  0  0  0  0
  -29.0458  -23.3208   19.5890 C   0  0  2  0  0  0  0  0  0  0  0  0
  -34.3870  -15.9911   18.2501 C   0  0  0  0  0  0  0  0  0  0  0  0
  -32.2593  -16.0125   16.8982 C   0  0  0  0  0  0  0  0  0  0  0  0
  -32.7746  -13.3651   21.0200 C   0  0  0  0  0  0  0  0  0  0  0  0
  -21.5965   -9.3322   23.2983 C   0  0  0  0  0  0  0  0  0  0  0  0
  -22.9688  -15.7989   23.7111 C   0  0  0  0  0  0  0  0  0  0  0  0
  -22.3260  -13.6652   24.8523 C   0  0  0  0  0  0  0  0  0  0  0  0
  -20.8365  -14.6408   23.1053 C   0  0  0  0  0  0  0  0  0  0  0  0
  -23.7296   -9.1842   20.1512 C   0  0  0  0  0  0  0  0  0  0  0  0
  -30.0892  -17.8796   22.6977 C   0  0  0  0  0  0  0  0  0  0  0  0
  -28.6006  -18.1233   22.4241 C   0  0  0  0  0  0  0  0  0  0  0  0
  -32.8873  -15.6360   18.2543 C   0  0  0  0  0  0  0  0  0  0  0  0
  -31.5804  -13.9551   20.2806 C   0  0  1  0  0  0  0  0  0  1  0  0
  -23.0186  -13.5666   22.4148 C   0  0  1  0  0  0  0  0  0  0  0  0
  -22.2390   -9.8767   22.0319 C   0  0  2  0  0  0  0  0  0  0  0  0
  -22.3115  -14.4195   23.5056 C   0  0  0  0  0  0  0  0  0  0  0  0
  -27.7299  -25.3946   19.8135 N   0  0  0  0  0  0  0  0  0  0  0  0
  -30.8728  -15.9682   21.4347 N   0  0  0  0  0  0  0  0  0  0  0  0
  -28.9411  -24.8331   19.6586 N   0  0  0  0  0  0  0  0  0  0  0  0
  -24.3309  -14.5140   20.5429 N   0  0  0  0  0  0  0  0  0  0  0  0
  -28.0972  -21.1721   20.3473 N   0  0  0  0  0  0  0  0  0  0  0  0
  -31.2428  -25.3413   19.4257 N   0  0  0  0  0  0  0  0  0  0  0  0
  -29.3103  -29.4065   19.7940 N   0  0  0  0  0  0  0  0  0  0  0  0
  -23.7316  -17.6677   19.5112 N   0  0  0  0  0  0  0  0  0  0  0  0
  -22.4010  -12.2658   22.1798 N   0  0  0  0  0  0  0  0  0  0  0  0
  -28.3911  -19.0368   21.3229 N   0  0  0  0  0  0  0  0  0  0  0  0
  -23.0581   -8.7938   21.4175 N   0  3  0  0  0  0  0  0  0  0  0  0
  -31.3061  -28.3119   19.5159 O   0  0  0  0  0  0  0  0  0  0  0  0
  -25.7518  -16.9904   20.4505 O   0  0  0  0  0  0  0  0  0  0  0  0
  -22.0001  -14.5668   20.5204 O   0  0  0  0  0  0  0  0  0  0  0  0
  -24.2831  -11.0000   22.6620 O   0  0  0  0  0  0  0  0  0  0  0  0
  -28.3842  -20.9169   22.6344 O   0  0  0  0  0  0  0  0  0  0  0  0
  -23.8700  -30.4211   20.4334 O   0  0  0  0  0  0  0  0  0  0  0  0
  -30.3882  -13.3784   20.8121 O   0  0  0  0  0  0  0  0  0  1  0  0
  -19.3015  -29.6917   17.4333 F   0  0  0  0  0  0  0  0  0  0  0  0
  -22.3610  -28.1183   20.6844 F   0  0  0  0  0  0  0  0  0  0  0  0
  1  2  1  0  0  0  0
  1  5  2  0  0  0  0
  2  6  2  0  0  0  0
  3  9  2  0  0  0  0
  3 17  1  0  0  0  0
  4 10  1  0  0  0  0
  4 17  2  0  0  0  0
  5 19  1  0  0  0  0
  6 21  1  0  0  0  0
  7 11  2  0  0  0  0
  7 20  1  0  0  0  0
  8 14  2  0  0  0  0
  8 23  1  0  0  0  0
  9 24  1  0  0  0  0
 10 24  2  0  0  0  0
 11 25  1  0  0  0  0
 12 13  2  0  0  0  0
 12 26  1  0  0  0  0
 13 27  1  0  0  0  0
 14 30  1  0  0  0  0
 15 22  1  0  0  0  0
 15 25  2  0  0  0  0
 16 27  2  0  0  0  0
 16 28  1  0  0  0  0
 17 29  1  0  0  0  0
 18 29  1  0  0  0  0
 18 32  2  0  0  0  0
 18 33  1  0  0  0  0
 19 21  2  0  0  0  0
 19 38  1  0  0  0  0
 20 22  2  0  0  0  0
 20 39  1  0  0  0  0
 21 47  1  0  0  0  0
 22 40  1  0  0  0  0
 23 31  2  0  0  0  0
 23 60  1  0  0  0  0
 24 81  1  0  0  0  0
 25 82  1  0  0  0  0
 26 28  2  0  0  0  0
 26 81  1  0  0  0  0
 27 83  1  0  0  0  0
 28 84  1  0  0  0  0
 29 65  2  0  0  0  0
 30 58  1  0  0  0  0
 30 66  2  0  0  0  0
 31 61  1  0  0  0  0
 31 66  1  0  0  0  0
 32 67  1  0  0  0  0
 32 70  1  0  0  0  0
 33 71  1  0  0  0  0
 33 76  2  0  0  0  0
 34 48  1  0  0  0  0
 34 72  1  0  0  0  0
 34 77  2  0  0  0  0
 35 62  1  0  0  0  0
 35 68  1  0  0  0  0
 35 78  2  0  0  0  0
 36 63  1  0  0  0  0
 36 73  1  0  0  0  0
 36 79  2  0  0  0  0
 37 69  1  0  0  0  0
 37 74  1  0  0  0  0
 37 80  2  0  0  0  0
 38 41  1  0  0  0  0
 39 48  1  0  0  0  0
 40 68  1  0  0  0  0
 41 43  1  0  0  0  0
 42 44  1  0  0  0  0
 42 45  1  0  0  0  0
 43 47  1  0  0  0  0
 44 49  1  0  0  0  0
 45 69  1  0  0  0  0
 46 49  1  0  0  0  0
 46 69  1  0  0  0  0
 47 72  1  0  0  0  0
 48 68  1  0  0  0  0
 49 67  1  0  0  0  0
 50 60  1  0  0  0  0
 51 60  1  0  0  0  0
 52 61  1  0  0  0  0
 53 63  1  0  0  0  0
 54 64  1  0  0  0  0
 55 64  1  0  0  0  0
 56 64  1  0  0  0  0
 57 75  1  0  0  0  0
 58 59  1  0  0  0  0
 59 74  1  0  0  0  0
 61 82  1  0  0  0  0
 62 64  1  0  0  0  0
 62 73  1  0  0  0  0
 63 75  1  0  0  0  0
 65 67  1  0  0  0  0
M  CHG  1  75   1
M  ISO  4  37 100  61 101  74 100  82 101
M  END
> <Batch ID>
0089

> <Smiles>
CNC(C)C(=O)NC(C(=O)N1Cc2cc([101O:1][101CH:1](C)c3nc(CC[100NH:0][100C:0](=O)N4CCCC(n5nc(-c6ccc(Oc7ccc(F)cc7F)cc6)c(C(N)=O)c5N)C4)ccc3C(C)C)ccc2CC1C(=O)NC1CCCc2ccccc21)C(C)(C)C

> <Shape>
0.247

> <Color>
0.065

> <Negative vol penalty>
0.000

$$$$

  -OEChem-04052319063D

 88 96  0     1  0  0  0  0  0999 V2000
  -36.0166  -23.4545   19.1455 C   0  0  0  0  0  0  0  0  0  0  0  0
  -34.7456  -22.9655   18.8613 C   0  0  0  0  0  0  0  0  0  0  0  0
  -23.0559   -9.8883   19.9743 C   0  0  0  0  0  0  0  0  0  0  0  0
  -23.9252   -9.8824   22.2284 C   0  0  0  0  0  0  0  0  0  0  0  0
  -36.1939  -24.3727   20.1796 C   0  0  0  0  0  0  0  0  0  0  0  0
  -33.6512  -23.3937   19.6118 C   0  0  0  0  0  0  0  0  0  0  0  0
  -29.6447  -24.5300   16.7305 C   0  0  0  0  0  0  0  0  0  0  0  0
  -22.3351   -8.7262   20.2492 C   0  0  0  0  0  0  0  0  0  0  0  0
  -23.2044   -8.7203   22.5034 C   0  0  0  0  0  0  0  0  0  0  0  0
  -28.8865  -23.4651   16.2458 C   0  0  0  0  0  0  0  0  0  0  0  0
  -20.0161   -7.8876   23.2531 C   0  0  0  0  0  0  0  0  0  0  0  0
  -19.3169   -7.8306   24.4587 C   0  0  0  0  0  0  0  0  0  0  0  0
  -27.2662  -23.8303   17.9953 C   0  0  0  0  0  0  0  0  0  0  0  0
  -31.9352  -18.5666   22.9170 C   0  0  0  0  0  0  0  0  0  0  0  0
  -32.8276  -18.5834   20.6720 C   0  0  0  0  0  0  0  0  0  0  0  0
  -20.6093   -5.8983   25.1169 C   0  0  0  0  0  0  0  0  0  0  0  0
  -23.8510  -10.4664   20.9639 C   0  0  0  0  0  0  0  0  0  0  0  0
  -24.1645  -12.9955   20.8505 C   0  0  0  0  0  0  0  0  0  0  0  0
  -35.0997  -24.8198   20.9369 C   0  0  0  0  0  0  0  0  0  0  0  0
  -29.2241  -25.2473   17.8597 C   0  0  0  0  0  0  0  0  0  0  0  0
  -33.8141  -24.3178   20.6579 C   0  0  0  0  0  0  0  0  0  0  0  0
  -28.0196  -24.9054   18.4908 C   0  0  0  0  0  0  0  0  0  0  0  0
  -32.8396  -19.0669   21.9804 C   0  0  0  0  0  0  0  0  0  0  0  0
  -31.0188  -17.5828   22.5455 C   0  0  0  0  0  0  0  0  0  0  0  0
  -31.9112  -17.5996   20.3004 C   0  0  0  0  0  0  0  0  0  0  0  0
  -31.0068  -17.0993   21.2371 C   0  0  0  0  0  0  0  0  0  0  0  0
  -22.4093   -8.1423   21.5137 C   0  0  0  0  0  0  0  0  0  0  0  0
  -27.6985  -23.1133   16.8799 C   0  0  0  0  0  0  0  0  0  0  0  0
  -21.0120   -6.9500   22.9794 C   0  0  0  0  0  0  0  0  0  0  0  0
  -19.6134   -6.8360   25.3906 C   0  0  0  0  0  0  0  0  0  0  0  0
  -21.3085   -5.9554   23.9113 C   0  0  0  0  0  0  0  0  0  0  0  0
  -24.5963  -11.6665   20.6803 C   0  0  0  0  0  0  0  0  0  0  0  0
  -25.2312  -13.7582   20.4420 C   0  0  0  0  0  0  0  0  0  0  0  0
  -22.9112  -13.4960   21.3347 C   0  0  0  0  0  0  0  0  0  0  0  0
  -30.4149  -25.7625   20.7615 C   0  0  0  0  0  0  0  0  0  0  0  0
  -30.7346  -14.7589   20.4709 C   0  0  0  0  0  0  0  0  0  0  0  0
  -27.8816  -27.7722   21.0189 C   0  0  0  0  0  0  0  0  0  0  0  0
  -24.7466  -28.6300   19.9785 C   0  0  0  0  0  0  0  0  0  0  0  0
  -35.3475  -25.7773   22.0755 C   0  0  0  0  0  0  0  0  0  0  0  0
  -30.0398  -26.4103   18.3541 C   0  0  0  0  0  0  0  0  0  0  0  0
  -27.5138  -25.6566   19.6943 C   0  0  0  0  0  0  0  0  0  0  0  0
  -34.0813  -26.4650   22.5796 C   0  0  0  0  0  0  0  0  0  0  0  0
  -29.4713  -12.4734   18.0173 C   0  0  0  0  0  0  0  0  0  0  0  0
  -32.9591  -25.4484   22.7641 C   0  0  0  0  0  0  0  0  0  0  0  0
  -28.0665  -12.1457   18.5216 C   0  0  0  0  0  0  0  0  0  0  0  0
  -30.4467  -12.6741   19.1729 C   0  0  0  0  0  0  0  0  0  0  0  0
  -28.6066  -13.3791   20.6691 C   0  0  0  0  0  0  0  0  0  0  0  0
  -32.5985  -24.7771   21.4334 C   0  0  1  0  0  0  0  0  0  0  0  0
  -29.7774  -26.7442   19.8194 C   0  0  1  0  0  0  0  0  0  0  0  0
  -27.5830  -13.1989   19.5342 C   0  0  2  0  0  0  0  0  0  0  0  0
  -33.8197  -20.1182   22.3778 C   0  0  0  0  0  0  0  0  0  0  0  0
  -30.0602  -17.0646   23.5673 C   0  0  0  0  0  0  0  0  0  0  0  0
  -31.9188  -17.0986   18.8930 C   0  0  0  0  0  0  0  0  0  0  0  0
  -22.9183  -30.2964   20.4000 C   0  0  0  0  0  0  0  0  0  0  0  0
  -24.7435  -17.7640   17.0739 C   0  0  0  0  0  0  0  0  0  0  0  0
  -27.1311  -26.2967   23.5820 C   0  0  0  0  0  0  0  0  0  0  0  0
  -24.8581  -27.3355   23.4318 C   0  0  0  0  0  0  0  0  0  0  0  0
  -26.8735  -28.7817   23.6952 C   0  0  0  0  0  0  0  0  0  0  0  0
  -24.8790  -29.6513   17.2039 C   0  0  0  0  0  0  0  0  0  0  0  0
  -29.0928  -16.4419   19.6674 C   0  0  0  0  0  0  0  0  0  0  0  0
  -26.0346  -19.9086   16.8712 C   0  0  0  0  0  0  0  0  0  0  0  0
  -27.9479  -17.3805   20.0397 C   0  0  0  0  0  0  0  0  0  0  0  0
  -25.9853  -18.6162   19.1124 C   0  0  0  0  0  0  0  0  0  0  0  0
  -26.1843  -21.3437   17.3612 C   0  0  0  0  0  0  0  0  0  1  0  0
  -30.0116  -16.0316   20.8339 C   0  0  2  0  0  0  0  0  0  0  0  0
  -26.4512  -27.6354   21.4816 C   0  0  1  0  0  0  0  0  0  0  0  0
  -24.1504  -29.9656   19.5722 C   0  0  2  0  0  0  0  0  0  0  0  0
  -25.2379  -19.0033   17.8289 C   0  0  2  0  0  0  0  0  0  0  0  0
  -26.3387  -27.4967   23.0262 C   0  0  0  0  0  0  0  0  0  0  0  0
  -25.8403  -11.5859   20.2008 N   0  0  0  0  0  0  0  0  0  0  0  0
  -26.1993  -12.8740   20.0662 N   0  0  0  0  0  0  0  0  0  0  0  0
  -28.3500  -26.7820   20.1436 N   0  0  0  0  0  0  0  0  0  0  0  0
  -29.9409  -13.6654   20.1241 N   0  0  0  0  0  0  0  0  0  0  0  0
  -25.4262  -15.0921   20.3711 N   0  0  0  0  0  0  0  0  0  0  0  0
  -21.9247  -12.5746   21.7120 N   0  0  0  0  0  0  0  0  0  0  0  0
  -31.7862  -25.6610   20.6251 N   0  0  0  0  0  0  0  0  0  0  0  0
  -25.7328  -28.7793   20.9305 N   0  0  0  0  0  0  0  0  0  0  0  0
  -23.7582  -29.9420   18.1346 N   0  3  0  0  0  0  0  0  0  0  0  0
  -27.1584  -17.7544   18.8339 N   0  3  0  0  0  0  0  0  0  0  0  0
  -22.6671  -14.7238   21.4145 O   0  0  0  0  0  0  0  0  0  0  0  0
  -29.7146  -25.1441   21.5545 O   0  0  0  0  0  0  0  0  0  0  0  0
  -31.9681  -14.7401   20.4928 O   0  0  0  0  0  0  0  0  0  0  0  0
  -28.5563  -28.7264   21.4136 O   0  0  0  0  0  0  0  0  0  0  0  0
  -24.3722  -27.5608   19.5018 O   0  0  0  0  0  0  0  0  0  0  0  0
  -21.7059   -7.0084   21.7825 O   0  0  0  0  0  0  0  0  0  0  0  0
  -26.9569  -22.0739   16.4092 O   0  0  0  0  0  0  0  0  0  1  0  0
  -18.9429   -6.7822   26.5489 F   0  0  0  0  0  0  0  0  0  0  0  0
  -22.2650   -5.0526   23.6545 F   0  0  0  0  0  0  0  0  0  0  0  0
  1  2  1  0  0  0  0
  1  5  2  0  0  0  0
  2  6  2  0  0  0  0
  3  8  2  0  0  0  0
  3 17  1  0  0  0  0
  4  9  1  0  0  0  0
  4 17  2  0  0  0  0
  5 19  1  0  0  0  0
  6 21  1  0  0  0  0
  7 10  2  0  0  0  0
  7 20  1  0  0  0  0
  8 27  1  0  0  0  0
  9 27  2  0  0  0  0
 10 28  1  0  0  0  0
 11 12  2  0  0  0  0
 11 29  1  0  0  0  0
 12 30  1  0  0  0  0
 13 22  1  0  0  0  0
 13 28  2  0  0  0  0
 14 23  1  0  0  0  0
 14 24  2  0  0  0  0
 15 23  2  0  0  0  0
 15 25  1  0  0  0  0
 16 30  2  0  0  0  0
 16 31  1  0  0  0  0
 17 32  1  0  0  0  0
 18 32  1  0  0  0  0
 18 33  2  0  0  0  0
 18 34  1  0  0  0  0
 19 21  2  0  0  0  0
 19 39  1  0  0  0  0
 20 22  2  0  0  0  0
 20 40  1  0  0  0  0
 21 48  1  0  0  0  0
 22 41  1  0  0  0  0
 23 51  1  0  0  0  0
 24 26  1  0  0  0  0
 24 52  1  0  0  0  0
 25 26  2  0  0  0  0
 25 53  1  0  0  0  0
 26 65  1  0  0  0  0
 27 85  1  0  0  0  0
 28 86  1  0  0  0  0
 29 31  2  0  0  0  0
 29 85  1  0  0  0  0
 30 87  1  0  0  0  0
 31 88  1  0  0  0  0
 32 70  2  0  0  0  0
 33 71  1  0  0  0  0
 33 74  1  0  0  0  0
 34 75  1  0  0  0  0
 34 80  2  0  0  0  0
 35 49  1  0  0  0  0
 35 76  1  0  0  0  0
 35 81  2  0  0  0  0
 36 65  1  0  0  0  0
 36 73  1  0  0  0  0
 36 82  2  0  0  0  0
 37 66  1  0  0  0  0
 37 72  1  0  0  0  0
 37 83  2  0  0  0  0
 38 67  1  0  0  0  0
 38 77  1  0  0  0  0
 38 84  2  0  0  0  0
 39 42  1  0  0  0  0
 40 49  1  0  0  0  0
 41 72  1  0  0  0  0
 42 44  1  0  0  0  0
 43 45  1  0  0  0  0
 43 46  1  0  0  0  0
 44 48  1  0  0  0  0
 45 50  1  0  0  0  0
 46 73  1  0  0  0  0
 47 50  1  0  0  0  0
 47 73  1  0  0  0  0
 48 76  1  0  0  0  0
 49 72  1  0  0  0  0
 50 71  1  0  0  0  0
 54 67  1  0  0  0  0
 55 68  1  0  0  0  0
 56 69  1  0  0  0  0
 57 69  1  0  0  0  0
 58 69  1  0  0  0  0
 59 78  1  0  0  0  0
 60 62  1  0  0  0  0
 60 65  1  0  0  0  0
 61 64  1  0  0  0  0
 61 68  1  0  0  0  0
 62 79  1  0  0  0  0
 63 68  1  0  0  0  0
 63 79  1  0  0  0  0
 64 86  1  0  0  0  0
 66 69  1  0  0  0  0
 66 77  1  0  0  0  0
 67 78  1  0  0  0  0
 70 71  1  0  0  0  0
M  CHG  2  78   1  79   1
M  ISO  4  36 100  64 101  65 100  86 101
M  END
> <Batch ID>
0089

> <Smiles>
CNC(C)C(=O)NC(C(=O)N1Cc2cc([101O:1][101CH2:1]CC(C)CNCC[100CH:0](c3c(C)cc(C)cc3C)[100C:0](=O)N3CCCC(n4nc(-c5ccc(Oc6ccc(F)cc6F)cc5)c(C(N)=O)c4N)C3)ccc2CC1C(=O)NC1CCCc2ccccc21)C(C)(C)C

> <Shape>
0.288

> <Color>
0.185

> <Negative vol penalty>
0.000

$$$$

  -OEChem-04052319063D

 88 96  0     1  0  0  0  0  0999 V2000
  -19.9983  -27.7553   22.7624 C   0  0  0  0  0  0  0  0  0  0  0  0
  -20.3096  -26.9201   21.6942 C   0  0  0  0  0  0  0  0  0  0  0  0
  -27.5103  -25.4320   17.8512 C   0  0  0  0  0  0  0  0  0  0  0  0
  -27.1314  -25.1217   20.2170 C   0  0  0  0  0  0  0  0  0  0  0  0
  -20.5305  -27.4978   24.0251 C   0  0  0  0  0  0  0  0  0  0  0  0
  -21.1541  -25.8276   21.8878 C   0  0  0  0  0  0  0  0  0  0  0  0
  -22.2625  -19.1456   19.5557 C   0  0  0  0  0  0  0  0  0  0  0  0
  -26.4845  -26.3763   17.8107 C   0  0  0  0  0  0  0  0  0  0  0  0
  -26.1056  -26.0660   20.1766 C   0  0  0  0  0  0  0  0  0  0  0  0
  -23.2784  -18.3363   19.0490 C   0  0  0  0  0  0  0  0  0  0  0  0
  -23.6271  -28.6590   20.7698 C   0  0  0  0  0  0  0  0  0  0  0  0
  -23.5875  -29.6183   21.7816 C   0  0  0  0  0  0  0  0  0  0  0  0
  -24.0757  -17.9434   21.2916 C   0  0  0  0  0  0  0  0  0  0  0  0
  -24.1710  -13.9749   19.8496 C   0  0  0  0  0  0  0  0  0  0  0  0
  -25.7812  -30.3945   21.1315 C   0  0  0  0  0  0  0  0  0  0  0  0
  -24.9324  -12.3311   21.3906 C   0  0  0  0  0  0  0  0  0  0  0  0
  -27.8337  -24.8046   19.0543 C   0  0  0  0  0  0  0  0  0  0  0  0
  -30.2578  -24.0658   19.3466 C   0  0  0  0  0  0  0  0  0  0  0  0
  -21.3743  -26.3960   24.2365 C   0  0  0  0  0  0  0  0  0  0  0  0
  -22.1520  -19.3691   20.9357 C   0  0  0  0  0  0  0  0  0  0  0  0
  -21.6992  -25.5559   23.1543 C   0  0  0  0  0  0  0  0  0  0  0  0
  -23.0560  -18.7539   21.8135 C   0  0  0  0  0  0  0  0  0  0  0  0
  -23.8965  -13.1133   20.9058 C   0  0  0  0  0  0  0  0  0  0  0  0
  -25.4547  -14.0273   19.3180 C   0  0  0  0  0  0  0  0  0  0  0  0
  -25.7822  -26.6933   18.9734 C   0  0  0  0  0  0  0  0  0  0  0  0
  -24.1869  -17.7374   19.9168 C   0  0  0  0  0  0  0  0  0  0  0  0
  -24.7438  -28.5674   19.9389 C   0  0  0  0  0  0  0  0  0  0  0  0
  -24.6645  -30.4861   21.9624 C   0  0  0  0  0  0  0  0  0  0  0  0
  -25.8208  -29.4351   20.1198 C   0  0  0  0  0  0  0  0  0  0  0  0
  -28.8929  -23.8287   19.0967 C   0  0  0  0  0  0  0  0  0  0  0  0
  -26.4208  -13.2044   19.8740 C   0  0  0  0  0  0  0  0  0  0  0  0
  -30.8403  -22.8238   19.2778 C   0  0  0  0  0  0  0  0  0  0  0  0
  -30.9384  -25.2985   19.6168 C   0  0  0  0  0  0  0  0  0  0  0  0
  -22.3143  -21.9285   22.8137 C   0  0  0  0  0  0  0  0  0  0  0  0
  -21.4384  -19.8146   25.1130 C   0  0  0  0  0  0  0  0  0  0  0  0
  -21.3256  -16.5745   26.1786 C   0  0  0  0  0  0  0  0  0  0  0  0
  -28.6778  -17.4086   20.2022 C   0  0  0  0  0  0  0  0  0  0  0  0
  -21.9632  -26.1854   25.6089 C   0  0  0  0  0  0  0  0  0  0  0  0
  -21.0344  -20.2232   21.4684 C   0  0  0  0  0  0  0  0  0  0  0  0
  -22.9683  -18.9456   23.3048 C   0  0  0  0  0  0  0  0  0  0  0  0
  -22.5502  -24.7910   25.8123 C   0  0  0  0  0  0  0  0  0  0  0  0
  -30.3151  -18.5521   17.1841 C   0  0  0  0  0  0  0  0  0  0  0  0
  -23.4179  -24.3979   24.6209 C   0  0  0  0  0  0  0  0  0  0  0  0
  -30.2614  -20.0701   17.3654 C   0  0  0  0  0  0  0  0  0  0  0  0
  -29.0447  -17.8877   17.7065 C   0  0  0  0  0  0  0  0  0  0  0  0
  -28.6691  -19.7209   19.3102 C   0  0  0  0  0  0  0  0  0  0  0  0
  -22.5918  -24.3466   23.3300 C   0  0  1  0  0  0  0  0  0  0  0  0
  -21.3274  -20.7961   22.8516 C   0  0  1  0  0  0  0  0  0  0  0  0
  -29.9345  -20.4492   18.8219 C   0  0  2  0  0  0  0  0  0  0  0  0
  -21.6767  -11.1872   19.9426 C   0  0  0  0  0  0  0  0  0  0  0  0
  -22.1153  -14.3745   22.1416 C   0  0  0  0  0  0  0  0  0  0  0  0
  -25.5897  -14.2561   16.8158 C   0  0  0  0  0  0  0  0  0  0  0  0
  -28.2009  -11.8549   18.7330 C   0  0  0  0  0  0  0  0  0  0  0  0
  -20.7326  -14.6238   27.6416 C   0  0  0  0  0  0  0  0  0  0  0  0
  -23.8626  -20.7448   26.7156 C   0  0  0  0  0  0  0  0  0  0  0  0
  -23.6205  -18.6982   28.1374 C   0  0  0  0  0  0  0  0  0  0  0  0
  -21.7899  -20.3914   28.0697 C   0  0  0  0  0  0  0  0  0  0  0  0
  -18.7692  -16.1343   24.7538 C   0  0  0  0  0  0  0  0  0  0  0  0
  -21.4301  -12.5844   20.4989 C   0  0  0  0  0  0  0  0  0  0  0  0
  -28.8887  -13.6279   20.3952 C   0  0  0  0  0  0  0  0  0  0  0  0
  -28.7119  -15.0423   20.9481 C   0  0  0  0  0  0  0  0  0  0  0  0
  -24.9085  -16.2410   18.2150 C   0  0  0  0  0  0  0  0  0  1  0  0
  -22.5342  -13.0342   21.4973 C   0  0  1  0  0  0  0  0  0  0  0  0
  -25.7613  -14.9660   18.1616 C   0  0  1  0  0  0  0  0  0  0  0  0
  -27.8174  -13.2189   19.3441 C   0  0  2  0  0  0  0  0  0  0  0  0
  -22.1757  -18.9023   26.0633 C   0  0  1  0  0  0  0  0  0  0  0  0
  -20.1973  -15.7460   26.7659 C   0  0  2  0  0  0  0  0  0  0  0  0
  -22.8653  -19.6819   27.2183 C   0  0  0  0  0  0  0  0  0  0  0  0
  -26.1919  -12.3545   20.9002 N   0  0  0  0  0  0  0  0  0  0  0  0
  -28.6241  -22.5376   18.8848 N   0  0  0  0  0  0  0  0  0  0  0  0
  -29.8283  -21.9523   19.0013 N   0  0  0  0  0  0  0  0  0  0  0  0
  -21.8619  -19.7946   23.7766 N   0  0  0  0  0  0  0  0  0  0  0  0
  -28.8008  -18.2749   19.1032 N   0  0  0  0  0  0  0  0  0  0  0  0
  -32.1143  -22.4031   19.4274 N   0  0  0  0  0  0  0  0  0  0  0  0
  -30.1885  -26.4821   19.6512 N   0  0  0  0  0  0  0  0  0  0  0  0
  -21.8113  -23.1290   23.2775 N   0  0  0  0  0  0  0  0  0  0  0  0
  -21.2059  -17.9077   26.5092 N   0  0  0  0  0  0  0  0  0  0  0  0
  -28.8084  -16.0544   19.9198 N   0  0  0  0  0  0  0  0  0  0  0  0
  -19.3772  -15.1425   25.6777 N   0  3  0  0  0  0  0  0  0  0  0  0
  -32.1774  -25.3510   19.8055 O   0  0  0  0  0  0  0  0  0  0  0  0
  -23.4487  -21.7275   22.3960 O   0  0  0  0  0  0  0  0  0  0  0  0
  -20.5160  -20.5139   25.5393 O   0  0  0  0  0  0  0  0  0  0  0  0
  -22.2254  -16.0871   25.4979 O   0  0  0  0  0  0  0  0  0  0  0  0
  -28.4720  -17.8126   21.3518 O   0  0  0  0  0  0  0  0  0  0  0  0
  -24.7813  -27.6149   18.9343 O   0  0  0  0  0  0  0  0  0  0  0  0
  -25.1798  -16.9475   19.4248 O   0  0  0  0  0  0  0  0  0  1  0  0
  -24.6257  -31.4083   22.9331 F   0  0  0  0  0  0  0  0  0  0  0  0
  -26.8958  -29.3527   19.3239 F   0  0  0  0  0  0  0  0  0  0  0  0
  1  2  1  0  0  0  0
  1  5  2  0  0  0  0
  2  6  2  0  0  0  0
  3  8  2  0  0  0  0
  3 17  1  0  0  0  0
  4  9  1  0  0  0  0
  4 17  2  0  0  0  0
  5 19  1  0  0  0  0
  6 21  1  0  0  0  0
  7 10  2  0  0  0  0
  7 20  1  0  0  0  0
  8 25  1  0  0  0  0
  9 25  2  0  0  0  0
 10 26  1  0  0  0  0
 11 12  2  0  0  0  0
 11 27  1  0  0  0  0
 12 28  1  0  0  0  0
 13 22  1  0  0  0  0
 13 26  2  0  0  0  0
 14 23  2  0  0  0  0
 14 24  1  0  0  0  0
 15 28  2  0  0  0  0
 15 29  1  0  0  0  0
 16 23  1  0  0  0  0
 16 69  2  0  0  0  0
 17 30  1  0  0  0  0
 18 30  1  0  0  0  0
 18 32  2  0  0  0  0
 18 33  1  0  0  0  0
 19 21  2  0  0  0  0
 19 38  1  0  0  0  0
 20 22  2  0  0  0  0
 20 39  1  0  0  0  0
 21 47  1  0  0  0  0
 22 40  1  0  0  0  0
 23 63  1  0  0  0  0
 24 31  2  0  0  0  0
 24 64  1  0  0  0  0
 25 85  1  0  0  0  0
 26 86  1  0  0  0  0
 27 29  2  0  0  0  0
 27 85  1  0  0  0  0
 28 87  1  0  0  0  0
 29 88  1  0  0  0  0
 30 70  2  0  0  0  0
 31 65  1  0  0  0  0
 31 69  1  0  0  0  0
 32 71  1  0  0  0  0
 32 74  1  0  0  0  0
 33 75  1  0  0  0  0
 33 80  2  0  0  0  0
 34 48  1  0  0  0  0
 34 76  1  0  0  0  0
 34 81  2  0  0  0  0
 35 66  1  0  0  0  0
 35 72  1  0  0  0  0
 35 82  2  0  0  0  0
 36 67  1  0  0  0  0
 36 77  1  0  0  0  0
 36 83  2  0  0  0  0
 37 73  1  0  0  0  0
 37 78  1  0  0  0  0
 37 84  2  0  0  0  0
 38 41  1  0  0  0  0
 39 48  1  0  0  0  0
 40 72  1  0  0  0  0
 41 43  1  0  0  0  0
 42 44  1  0  0  0  0
 42 45  1  0  0  0  0
 43 47  1  0  0  0  0
 44 49  1  0  0  0  0
 45 73  1  0  0  0  0
 46 49  1  0  0  0  0
 46 73  1  0  0  0  0
 47 76  1  0  0  0  0
 48 72  1  0  0  0  0
 49 71  1  0  0  0  0
 50 59  1  0  0  0  0
 51 63  1  0  0  0  0
 52 64  1  0  0  0  0
 53 65  1  0  0  0  0
 54 67  1  0  0  0  0
 55 68  1  0  0  0  0
 56 68  1  0  0  0  0
 57 68  1  0  0  0  0
 58 79  1  0  0  0  0
 59 63  1  0  0  0  0
 60 61  1  0  0  0  0
 60 65  1  0  0  0  0
 61 78  1  0  0  0  0
 62 64  1  0  0  0  0
 62 86  1  0  0  0  0
 66 68  1  0  0  0  0
 66 77  1  0  0  0  0
 67 79  1  0  0  0  0
 70 71  1  0  0  0  0
M  CHG  1  79   1
M  ISO  4  37 100  62 101  78 100  86 101
M  END
> <Batch ID>
0089

> <Smiles>
CCC(C)c1cnc(C(C)CC[100NH:0][100C:0](=O)N2CCCC(n3nc(-c4ccc(Oc5ccc(F)cc5F)cc4)c(C(N)=O)c3N)C2)c(C(C)[101CH2:1][101O:1]c2ccc3c(c2)CN(C(=O)C(NC(=O)C(C)NC)C(C)(C)C)C(C(=O)NC2CCCc4ccccc42)C3)c1

> <Shape>
0.232

> <Color>
0.050

> <Negative vol penalty>
0.000

$$$$

  -OEChem-04052319063D

 84 92  0     1  0  0  0  0  0999 V2000
  -21.4363  -12.5807   19.9613 C   0  0  0  0  0  0  0  0  0  0  0  0
  -21.4884  -13.9008   20.3971 C   0  0  0  0  0  0  0  0  0  0  0  0
  -28.5143  -25.5536   24.7795 C   0  0  0  0  0  0  0  0  0  0  0  0
  -26.7895  -24.2819   23.6638 C   0  0  0  0  0  0  0  0  0  0  0  0
  -22.5905  -11.7986   19.9708 C   0  0  0  0  0  0  0  0  0  0  0  0
  -22.6946  -14.4394   20.8437 C   0  0  0  0  0  0  0  0  0  0  0  0
  -23.5572  -19.0733   18.9923 C   0  0  0  0  0  0  0  0  0  0  0  0
  -18.3359  -25.2284   22.0514 C   0  0  0  0  0  0  0  0  0  0  0  0
  -17.7240  -26.2164   22.8228 C   0  0  0  0  0  0  0  0  0  0  0  0
  -28.8560  -24.4300   25.5320 C   0  0  0  0  0  0  0  0  0  0  0  0
  -27.1313  -23.1582   24.4163 C   0  0  0  0  0  0  0  0  0  0  0  0
  -22.8727  -20.1334   19.5851 C   0  0  0  0  0  0  0  0  0  0  0  0
  -27.3098  -20.0539   26.2980 C   0  0  0  0  0  0  0  0  0  0  0  0
  -26.2723  -19.3083   26.8577 C   0  0  0  0  0  0  0  0  0  0  0  0
  -24.8423  -20.6810   20.8657 C   0  0  0  0  0  0  0  0  0  0  0  0
  -19.9307  -26.8509   21.2383 C   0  0  0  0  0  0  0  0  0  0  0  0
  -25.5508  -21.2481   28.1042 C   0  0  0  0  0  0  0  0  0  0  0  0
  -27.4809  -25.4796   23.8454 C   0  0  0  0  0  0  0  0  0  0  0  0
  -27.6544  -27.0200   21.8194 C   0  0  0  0  0  0  0  0  0  0  0  0
  -23.8135  -12.3307   20.4087 C   0  0  0  0  0  0  0  0  0  0  0  0
  -24.8882  -18.8020   19.3404 C   0  0  0  0  0  0  0  0  0  0  0  0
  -23.8660  -13.6633   20.8604 C   0  0  0  0  0  0  0  0  0  0  0  0
  -25.5422  -19.6185   20.2740 C   0  0  0  0  0  0  0  0  0  0  0  0
  -19.4393  -25.5456   21.2592 C   0  0  0  0  0  0  0  0  0  0  0  0
  -18.2154  -27.5217   22.8019 C   0  0  0  0  0  0  0  0  0  0  0  0
  -19.3188  -27.8389   22.0097 C   0  0  0  0  0  0  0  0  0  0  0  0
  -28.1646  -23.2323   25.3504 C   0  0  0  0  0  0  0  0  0  0  0  0
  -23.5143  -20.9357   20.5241 C   0  0  0  0  0  0  0  0  0  0  0  0
  -27.4679  -21.3965   26.6415 C   0  0  0  0  0  0  0  0  0  0  0  0
  -25.3928  -19.9054   27.7608 C   0  0  0  0  0  0  0  0  0  0  0  0
  -26.5884  -21.9937   27.5445 C   0  0  0  0  0  0  0  0  0  0  0  0
  -27.1271  -26.6401   23.0682 C   0  0  0  0  0  0  0  0  0  0  0  0
  -26.9957  -28.1845   21.5085 C   0  0  0  0  0  0  0  0  0  0  0  0
  -28.6505  -26.3778   21.0126 C   0  0  0  0  0  0  0  0  0  0  0  0
  -26.4032  -16.3424   20.6667 C   0  0  0  0  0  0  0  0  0  0  0  0
  -29.0417  -18.1022   19.9858 C   0  0  0  0  0  0  0  0  0  0  0  0
  -30.3973  -21.1744   19.3768 C   0  0  0  0  0  0  0  0  0  0  0  0
  -21.6912  -30.4298   23.1430 C   0  0  0  0  0  0  0  0  0  0  0  0
  -25.0245  -11.4324   20.4453 C   0  0  0  0  0  0  0  0  0  0  0  0
  -25.6210  -17.6711   18.6720 C   0  0  0  0  0  0  0  0  0  0  0  0
  -26.9767  -19.3817   20.6671 C   0  0  0  0  0  0  0  0  0  0  0  0
  -26.3420  -12.1914   20.5812 C   0  0  0  0  0  0  0  0  0  0  0  0
  -24.8817  -31.9535   23.5618 C   0  0  0  0  0  0  0  0  0  0  0  0
  -26.2365  -13.2530   21.6715 C   0  0  0  0  0  0  0  0  0  0  0  0
  -25.8665  -30.7988   23.3701 C   0  0  0  0  0  0  0  0  0  0  0  0
  -23.6134  -31.5000   24.2814 C   0  0  0  0  0  0  0  0  0  0  0  0
  -23.9165  -29.1910   23.4749 C   0  0  0  0  0  0  0  0  0  0  0  0
  -25.1609  -14.2908   21.3288 C   0  0  1  0  0  0  0  0  0  0  0  0
  -26.8130  -17.1703   19.4817 C   0  0  1  0  0  0  0  0  0  0  0  0
  -25.1872  -29.5873   22.7038 C   0  0  2  0  0  0  0  0  0  0  0  0
  -18.3281  -28.8847   24.9034 C   0  0  0  0  0  0  0  0  0  0  0  0
  -19.8186  -29.8460   20.5662 C   0  0  0  0  0  0  0  0  0  0  0  0
  -32.5870  -22.3004   18.8919 C   0  0  0  0  0  0  0  0  0  0  0  0
  -29.8335  -17.8201   22.9189 C   0  0  0  0  0  0  0  0  0  0  0  0
  -31.4533  -19.7007   22.5903 C   0  0  0  0  0  0  0  0  0  0  0  0
  -31.7251  -17.5830   21.3003 C   0  0  0  0  0  0  0  0  0  0  0  0
  -29.4392  -22.1679   16.7588 C   0  0  0  0  0  0  0  0  0  0  0  0
  -20.1002  -24.4775   20.4250 C   0  0  0  0  0  0  0  0  0  0  0  0
  -17.5430  -28.5628   23.6354 C   0  0  0  0  0  0  0  0  0  0  0  0
  -21.2248  -23.7366   21.1515 C   0  0  0  0  0  0  0  0  0  0  0  0
  -21.8290  -22.6026   20.3315 C   0  0  0  0  0  0  0  0  0  1  0  0
  -19.8621  -29.2296   21.9711 C   0  0  2  0  0  0  0  0  0  0  0  0
  -29.8382  -19.1595   20.7116 C   0  0  1  0  0  0  0  0  0  0  0  0
  -31.3433  -21.6613   18.2939 C   0  0  2  0  0  0  0  0  0  0  0  0
  -30.6849  -18.5694   21.8745 C   0  0  0  0  0  0  0  0  0  0  0  0
  -26.2046  -27.4940   23.5197 N   0  0  0  0  0  0  0  0  0  0  0  0
  -26.1472  -28.4221   22.5495 N   0  0  0  0  0  0  0  0  0  0  0  0
  -27.6485  -18.2599   19.9905 N   0  0  0  0  0  0  0  0  0  0  0  0
  -23.0175  -30.3493   23.5984 N   0  0  0  0  0  0  0  0  0  0  0  0
  -27.0654  -29.0181   20.4490 N   0  0  0  0  0  0  0  0  0  0  0  0
  -29.2252  -25.1885   21.4815 N   0  0  0  0  0  0  0  0  0  0  0  0
  -25.6569  -15.2257   20.3418 N   0  0  0  0  0  0  0  0  0  0  0  0
  -30.6214  -19.8513   19.6936 N   0  0  0  0  0  0  0  0  0  0  0  0
  -21.2059  -29.2972   22.5007 N   0  0  0  0  0  0  0  0  0  0  0  0
  -30.6663  -22.6691   17.4296 N   0  3  0  0  0  0  0  0  0  0  0  0
  -29.0319  -26.8533   19.9163 O   0  0  0  0  0  0  0  0  0  0  0  0
  -26.7404  -16.6901   21.7923 O   0  0  0  0  0  0  0  0  0  0  0  0
  -29.6342  -17.1747   19.4289 O   0  0  0  0  0  0  0  0  0  0  0  0
  -29.5474  -21.8967   19.8929 O   0  0  0  0  0  0  0  0  0  0  0  0
  -20.9930  -31.4383   23.2928 O   0  0  0  0  0  0  0  0  0  0  0  0
  -28.4980  -22.1356   26.0843 O   0  0  0  0  0  0  0  0  0  0  0  0
  -22.8483  -21.9706   21.1048 O   0  0  0  0  0  0  0  0  0  1  0  0
  -24.3956  -19.1897   28.2970 F   0  0  0  0  0  0  0  0  0  0  0  0
  -26.7344  -23.2835   27.8774 F   0  0  0  0  0  0  0  0  0  0  0  0
  1  2  1  0  0  0  0
  1  5  2  0  0  0  0
  2  6  2  0  0  0  0
  3 10  2  0  0  0  0
  3 18  1  0  0  0  0
  4 11  1  0  0  0  0
  4 18  2  0  0  0  0
  5 20  1  0  0  0  0
  6 22  1  0  0  0  0
  7 12  2  0  0  0  0
  7 21  1  0  0  0  0
  8  9  2  0  0  0  0
  8 24  1  0  0  0  0
  9 25  1  0  0  0  0
 10 27  1  0  0  0  0
 11 27  2  0  0  0  0
 12 28  1  0  0  0  0
 13 14  2  0  0  0  0
 13 29  1  0  0  0  0
 14 30  1  0  0  0  0
 15 23  1  0  0  0  0
 15 28  2  0  0  0  0
 16 24  2  0  0  0  0
 16 26  1  0  0  0  0
 17 30  2  0  0  0  0
 17 31  1  0  0  0  0
 18 32  1  0  0  0  0
 19 32  1  0  0  0  0
 19 33  2  0  0  0  0
 19 34  1  0  0  0  0
 20 22  2  0  0  0  0
 20 39  1  0  0  0  0
 21 23  2  0  0  0  0
 21 40  1  0  0  0  0
 22 48  1  0  0  0  0
 23 41  1  0  0  0  0
 24 58  1  0  0  0  0
 25 26  2  0  0  0  0
 25 59  1  0  0  0  0
 26 62  1  0  0  0  0
 27 81  1  0  0  0  0
 28 82  1  0  0  0  0
 29 31  2  0  0  0  0
 29 81  1  0  0  0  0
 30 83  1  0  0  0  0
 31 84  1  0  0  0  0
 32 66  2  0  0  0  0
 33 67  1  0  0  0  0
 33 70  1  0  0  0  0
 34 71  1  0  0  0  0
 34 76  2  0  0  0  0
 35 49  1  0  0  0  0
 35 72  1  0  0  0  0
 35 77  2  0  0  0  0
 36 63  1  0  0  0  0
 36 68  1  0  0  0  0
 36 78  2  0  0  0  0
 37 64  1  0  0  0  0
 37 73  1  0  0  0  0
 37 79  2  0  0  0  0
 38 69  1  0  0  0  0
 38 74  1  0  0  0  0
 38 80  2  0  0  0  0
 39 42  1  0  0  0  0
 40 49  1  0  0  0  0
 41 68  1  0  0  0  0
 42 44  1  0  0  0  0
 43 45  1  0  0  0  0
 43 46  1  0  0  0  0
 44 48  1  0  0  0  0
 45 50  1  0  0  0  0
 46 69  1  0  0  0  0
 47 50  1  0  0  0  0
 47 69  1  0  0  0  0
 48 72  1  0  0  0  0
 49 68  1  0  0  0  0
 50 67  1  0  0  0  0
 51 59  1  0  0  0  0
 52 62  1  0  0  0  0
 53 64  1  0  0  0  0
 54 65  1  0  0  0  0
 55 65  1  0  0  0  0
 56 65  1  0  0  0  0
 57 75  1  0  0  0  0
 58 60  1  0  0  0  0
 60 61  1  0  0  0  0
 61 82  1  0  0  0  0
 62 74  1  0  0  0  0
 63 65  1  0  0  0  0
 63 73  1  0  0  0  0
 64 75  1  0  0  0  0
 66 67  1  0  0  0  0
M  CHG  1  75   1
M  ISO  4  38 100  61 101  74 100  82 101
M  END
> <Batch ID>
0089

> <Smiles>
CCc1ccc(CC[101CH2:1][101O:1]c2ccc3c(c2)CN(C(=O)C(NC(=O)C(C)NC)C(C)(C)C)C(C(=O)NC2CCCc4ccccc42)C3)cc1C(C)[100NH:0][100C:0](=O)N1CCCC(n2nc(-c3ccc(Oc4ccc(F)cc4F)cc3)c(C(N)=O)c2N)C1

> <Shape>
0.215

> <Color>
0.081

> <Negative vol penalty>
0.000

$$$$

  -OEChem-04052319063D

 87 95  0     1  0  0  0  0  0999 V2000
  -31.9064  -33.4807   21.1259 C   0  0  0  0  0  0  0  0  0  0  0  0
  -31.3980  -32.2026   20.9180 C   0  0  0  0  0  0  0  0  0  0  0  0
  -21.5729  -10.1045   21.3708 C   0  0  0  0  0  0  0  0  0  0  0  0
  -23.8961  -10.6158   21.7929 C   0  0  0  0  0  0  0  0  0  0  0  0
  -31.3563  -34.2963   22.1139 C   0  0  0  0  0  0  0  0  0  0  0  0
  -30.3399  -31.7388   21.6988 C   0  0  0  0  0  0  0  0  0  0  0  0
  -26.7748  -29.4129   18.9556 C   0  0  0  0  0  0  0  0  0  0  0  0
  -21.8516   -8.7427   21.4862 C   0  0  0  0  0  0  0  0  0  0  0  0
  -24.1748   -9.2539   21.9084 C   0  0  0  0  0  0  0  0  0  0  0  0
  -27.0371  -28.1059   18.5475 C   0  0  0  0  0  0  0  0  0  0  0  0
  -22.3584   -6.5057   23.9705 C   0  0  0  0  0  0  0  0  0  0  0  0
  -21.4851   -5.7274   24.7302 C   0  0  0  0  0  0  0  0  0  0  0  0
  -25.6681  -27.2744   20.3514 C   0  0  0  0  0  0  0  0  0  0  0  0
  -21.0086   -4.3685   22.7902 C   0  0  0  0  0  0  0  0  0  0  0  0
  -22.5952  -11.0411   21.5241 C   0  0  0  0  0  0  0  0  0  0  0  0
  -21.4160  -13.2033   22.1890 C   0  0  0  0  0  0  0  0  0  0  0  0
  -30.2846  -33.8459   22.9008 C   0  0  0  0  0  0  0  0  0  0  0  0
  -25.9647  -29.6607   20.0731 C   0  0  0  0  0  0  0  0  0  0  0  0
  -29.7759  -32.5486   22.6992 C   0  0  0  0  0  0  0  0  0  0  0  0
  -25.3950  -28.5856   20.7701 C   0  0  0  0  0  0  0  0  0  0  0  0
  -23.1525   -8.3174   21.7550 C   0  0  0  0  0  0  0  0  0  0  0  0
  -26.4861  -27.0363   19.2472 C   0  0  0  0  0  0  0  0  0  0  0  0
  -22.5568   -6.2154   22.6207 C   0  0  0  0  0  0  0  0  0  0  0  0
  -20.8102   -4.6588   24.1401 C   0  0  0  0  0  0  0  0  0  0  0  0
  -21.8819   -5.1469   22.0305 C   0  0  0  0  0  0  0  0  0  0  0  0
  -22.3080  -12.4480   21.4044 C   0  0  0  0  0  0  0  0  0  0  0  0
  -21.5045  -14.4760   21.6803 C   0  0  0  0  0  0  0  0  0  0  0  0
  -20.5822  -12.7913   23.2802 C   0  0  0  0  0  0  0  0  0  0  0  0
  -26.4025  -31.0537   22.8965 C   0  0  0  0  0  0  0  0  0  0  0  0
  -23.2059  -30.5850   23.1864 C   0  0  0  0  0  0  0  0  0  0  0  0
  -20.8497  -27.9602   22.4271 C   0  0  0  0  0  0  0  0  0  0  0  0
  -25.7999  -17.3816   18.6873 C   0  0  0  0  0  0  0  0  0  0  0  0
  -29.7541  -34.7459   23.9885 C   0  0  0  0  0  0  0  0  0  0  0  0
  -25.6696  -31.0771   20.4844 C   0  0  0  0  0  0  0  0  0  0  0  0
  -24.5021  -28.7985   21.9642 C   0  0  0  0  0  0  0  0  0  0  0  0
  -28.3887  -34.3185   24.5207 C   0  0  0  0  0  0  0  0  0  0  0  0
  -22.4474  -16.8298   17.6230 C   0  0  0  0  0  0  0  0  0  0  0  0
  -28.3684  -32.8181   24.7950 C   0  0  0  0  0  0  0  0  0  0  0  0
  -27.3653  -23.0755   17.9987 C   0  0  0  0  0  0  0  0  0  0  0  0
  -29.7907  -23.7738   17.9172 C   0  0  0  0  0  0  0  0  0  0  0  0
  -27.7901  -21.6287   18.2438 C   0  0  0  0  0  0  0  0  0  0  0  0
  -30.2155  -22.3270   18.1622 C   0  0  0  0  0  0  0  0  0  0  0  0
  -21.9510  -15.7123   18.5423 C   0  0  0  0  0  0  0  0  0  0  0  0
  -23.9179  -16.6459   17.2544 C   0  0  0  0  0  0  0  0  0  0  0  0
  -24.3330  -15.3713   19.3225 C   0  0  0  0  0  0  0  0  0  0  0  0
  -28.6125  -32.0189   23.5092 C   0  0  1  0  0  0  0  0  0  0  0  0
  -25.2484  -31.1996   21.9455 C   0  0  1  0  0  0  0  0  0  0  0  0
  -28.4113  -24.0693   18.5194 C   0  0  0  0  0  0  0  0  0  0  0  0
  -29.1695  -21.3332   17.6414 C   0  0  0  0  0  0  0  0  0  0  0  0
  -22.8704  -15.5437   19.7668 C   0  0  2  0  0  0  0  0  0  0  0  0
  -18.3971  -28.0695   21.9076 C   0  0  0  0  0  0  0  0  0  0  0  0
  -30.6349  -19.4446   16.9179 C   0  0  0  0  0  0  0  0  0  0  0  0
  -30.8152  -17.0444   22.1268 C   0  0  0  0  0  0  0  0  0  0  0  0
  -31.8691  -19.2668   21.7887 C   0  0  0  0  0  0  0  0  0  0  0  0
  -22.8460  -30.0799   26.1739 C   0  0  0  0  0  0  0  0  0  0  0  0
  -20.8926  -28.6151   25.6201 C   0  0  0  0  0  0  0  0  0  0  0  0
  -20.8397  -31.0380   25.0288 C   0  0  0  0  0  0  0  0  0  0  0  0
  -21.2080  -26.5106   19.8718 C   0  0  0  0  0  0  0  0  0  0  0  0
  -27.9876  -25.5057   18.2183 C   0  0  0  0  0  0  0  0  0  1  0  0
  -28.9830  -17.5040   19.7010 C   0  0  0  0  0  0  0  0  0  0  0  0
  -30.1195  -19.8047   19.3913 C   0  0  0  0  0  0  0  0  0  0  0  0
  -27.6393  -18.0059   20.2320 C   0  0  0  0  0  0  0  0  0  0  0  0
  -22.3320  -29.4743   23.7173 C   0  0  1  0  0  0  0  0  0  0  0  0
  -19.8004  -27.9703   21.3301 C   0  0  2  0  0  0  0  0  0  0  0  0
  -29.5932  -19.8968   17.9425 C   0  0  1  0  0  0  0  0  0  0  0  0
  -30.6006  -18.4403   21.5248 C   0  0  0  0  0  0  0  0  0  0  0  0
  -30.2303  -18.3809   20.0044 C   0  0  1  0  0  0  0  0  0  0  0  0
  -21.7532  -29.7965   25.1239 C   0  0  0  0  0  0  0  0  0  0  0  0
  -22.9181  -13.1798   20.4683 N   0  0  0  0  0  0  0  0  0  0  0  0
  -22.4085  -14.4083   20.6614 N   0  0  0  0  0  0  0  0  0  0  0  0
  -24.2486  -30.2016   22.3311 N   0  0  0  0  0  0  0  0  0  0  0  0
  -24.7357  -16.4934   18.4602 N   0  0  0  0  0  0  0  0  0  0  0  0
  -20.8962  -15.6353   22.0097 N   0  0  0  0  0  0  0  0  0  0  0  0
  -21.1036  -12.8523   24.5796 N   0  0  0  0  0  0  0  0  0  0  0  0
  -27.4110  -31.9785   22.7035 N   0  0  0  0  0  0  0  0  0  0  0  0
  -21.3192  -29.2284   22.6964 N   0  0  0  0  0  0  0  0  0  0  0  0
  -26.5202  -17.1708   19.8568 N   0  0  0  0  0  0  0  0  0  0  0  0
  -19.8875  -26.7235   20.5184 N   0  3  0  0  0  0  0  0  0  0  0  0
  -19.4151  -12.3657   23.1064 O   0  0  0  0  0  0  0  0  0  0  0  0
  -26.3792  -30.1685   23.7436 O   0  0  0  0  0  0  0  0  0  0  0  0
  -22.9675  -31.7504   23.5127 O   0  0  0  0  0  0  0  0  0  0  0  0
  -21.2136  -26.9308   22.9913 O   0  0  0  0  0  0  0  0  0  0  0  0
  -26.0836  -18.2980   17.9085 O   0  0  0  0  0  0  0  0  0  0  0  0
  -23.4248   -6.9886   21.8680 O   0  0  0  0  0  0  0  0  0  0  0  0
  -26.7434  -25.7477   18.8477 O   0  0  0  0  0  0  0  0  0  1  0  0
  -19.9727   -3.9105   24.8701 F   0  0  0  0  0  0  0  0  0  0  0  0
  -22.0693   -4.8624   20.7345 F   0  0  0  0  0  0  0  0  0  0  0  0
  1  2  1  0  0  0  0
  1  5  2  0  0  0  0
  2  6  2  0  0  0  0
  3  8  2  0  0  0  0
  3 15  1  0  0  0  0
  4  9  1  0  0  0  0
  4 15  2  0  0  0  0
  5 17  1  0  0  0  0
  6 19  1  0  0  0  0
  7 10  2  0  0  0  0
  7 18  1  0  0  0  0
  8 21  1  0  0  0  0
  9 21  2  0  0  0  0
 10 22  1  0  0  0  0
 11 12  2  0  0  0  0
 11 23  1  0  0  0  0
 12 24  1  0  0  0  0
 13 20  1  0  0  0  0
 13 22  2  0  0  0  0
 14 24  2  0  0  0  0
 14 25  1  0  0  0  0
 15 26  1  0  0  0  0
 16 26  1  0  0  0  0
 16 27  2  0  0  0  0
 16 28  1  0  0  0  0
 17 19  2  0  0  0  0
 17 33  1  0  0  0  0
 18 20  2  0  0  0  0
 18 34  1  0  0  0  0
 19 46  1  0  0  0  0
 20 35  1  0  0  0  0
 21 84  1  0  0  0  0
 22 85  1  0  0  0  0
 23 25  2  0  0  0  0
 23 84  1  0  0  0  0
 24 86  1  0  0  0  0
 25 87  1  0  0  0  0
 26 69  2  0  0  0  0
 27 70  1  0  0  0  0
 27 73  1  0  0  0  0
 28 74  1  0  0  0  0
 28 79  2  0  0  0  0
 29 47  1  0  0  0  0
 29 75  1  0  0  0  0
 29 80  2  0  0  0  0
 30 63  1  0  0  0  0
 30 71  1  0  0  0  0
 30 81  2  0  0  0  0
 31 64  1  0  0  0  0
 31 76  1  0  0  0  0
 31 82  2  0  0  0  0
 32 72  1  0  0  0  0
 32 77  1  0  0  0  0
 32 83  2  0  0  0  0
 33 36  1  0  0  0  0
 34 47  1  0  0  0  0
 35 71  1  0  0  0  0
 36 38  1  0  0  0  0
 37 43  1  0  0  0  0
 37 44  1  0  0  0  0
 38 46  1  0  0  0  0
 39 41  1  0  0  0  0
 39 48  1  0  0  0  0
 40 42  1  0  0  0  0
 40 48  1  0  0  0  0
 41 49  1  0  0  0  0
 42 49  1  0  0  0  0
 43 50  1  0  0  0  0
 44 72  1  0  0  0  0
 45 50  1  0  0  0  0
 45 72  1  0  0  0  0
 46 75  1  0  0  0  0
 47 71  1  0  0  0  0
 48 59  1  0  0  0  0
 49 65  1  0  0  0  0
 50 70  1  0  0  0  0
 51 64  1  0  0  0  0
 52 65  1  0  0  0  0
 53 66  1  0  0  0  0
 54 66  1  0  0  0  0
 55 68  1  0  0  0  0
 56 68  1  0  0  0  0
 57 68  1  0  0  0  0
 58 78  1  0  0  0  0
 59 85  1  0  0  0  0
 60 62  1  0  0  0  0
 60 67  1  0  0  0  0
 61 65  1  0  0  0  0
 61 67  1  0  0  0  0
 62 77  1  0  0  0  0
 63 68  1  0  0  0  0
 63 76  1  0  0  0  0
 64 78  1  0  0  0  0
 66 67  1  0  0  0  0
 69 70  1  0  0  0  0
M  CHG  1  78   1
M  ISO  4  32 100  59 101  77 100  85 101
M  END
> <Batch ID>
0089

> <Smiles>
CNC(C)C(=O)NC(C(=O)N1Cc2cc([101O:1][101CH2:1]C3CCC(C(C)CC(CC[100NH:0][100C:0](=O)N4CCCC(n5nc(-c6ccc(Oc7ccc(F)cc7F)cc6)c(C(N)=O)c5N)C4)C(C)C)CC3)ccc2CC1C(=O)NC1CCCc2ccccc21)C(C)(C)C

> <Shape>
0.284

> <Color>
0.082

> <Negative vol penalty>
0.000

$$$$

  -OEChem-04052319063D

 87 95  0     1  0  0  0  0  0999 V2000
  -32.6380  -29.0004   17.7347 C   0  0  0  0  0  0  0  0  0  0  0  0
  -31.8097  -27.9531   18.1253 C   0  0  0  0  0  0  0  0  0  0  0  0
  -30.4431  -18.1664   21.4406 C   0  0  0  0  0  0  0  0  0  0  0  0
  -28.3926  -17.6625   20.2664 C   0  0  0  0  0  0  0  0  0  0  0  0
  -32.5213  -30.2464   18.3493 C   0  0  0  0  0  0  0  0  0  0  0  0
  -30.8649  -28.1509   19.1316 C   0  0  0  0  0  0  0  0  0  0  0  0
  -26.3482  -26.1766   17.9712 C   0  0  0  0  0  0  0  0  0  0  0  0
  -31.0340  -17.0250   20.8987 C   0  0  0  0  0  0  0  0  0  0  0  0
  -28.9835  -16.5211   19.7245 C   0  0  0  0  0  0  0  0  0  0  0  0
  -26.2005  -24.7976   18.1136 C   0  0  0  0  0  0  0  0  0  0  0  0
  -29.8350  -13.2805   18.3161 C   0  0  0  0  0  0  0  0  0  0  0  0
  -29.0912  -12.1005   18.3217 C   0  0  0  0  0  0  0  0  0  0  0  0
  -25.0938  -25.1408   20.2295 C   0  0  0  0  0  0  0  0  0  0  0  0
  -22.2096  -21.8729   18.1772 C   0  0  0  0  0  0  0  0  0  0  0  0
  -22.7161  -20.7751   20.2563 C   0  0  0  0  0  0  0  0  0  0  0  0
  -28.9624  -12.1931   20.7325 C   0  0  0  0  0  0  0  0  0  0  0  0
  -29.1224  -18.4851   21.1245 C   0  0  0  0  0  0  0  0  0  0  0  0
  -28.5061  -20.9606   21.1366 C   0  0  0  0  0  0  0  0  0  0  0  0
  -31.5680  -30.4623   19.3570 C   0  0  0  0  0  0  0  0  0  0  0  0
  -25.8787  -27.0490   18.9637 C   0  0  0  0  0  0  0  0  0  0  0  0
  -30.7363  -29.4006   19.7612 C   0  0  0  0  0  0  0  0  0  0  0  0
  -25.2345  -26.5306   20.0961 C   0  0  0  0  0  0  0  0  0  0  0  0
  -23.1073  -21.1858   18.9868 C   0  0  0  0  0  0  0  0  0  0  0  0
  -30.3042  -16.2023   20.0406 C   0  0  0  0  0  0  0  0  0  0  0  0
  -25.5758  -24.2794   19.2442 C   0  0  0  0  0  0  0  0  0  0  0  0
  -30.1426  -13.9168   19.5187 C   0  0  0  0  0  0  0  0  0  0  0  0
  -28.6549  -11.5569   19.5299 C   0  0  0  0  0  0  0  0  0  0  0  0
  -29.7063  -13.3731   20.7269 C   0  0  0  0  0  0  0  0  0  0  0  0
  -28.5113  -19.6638   21.6844 C   0  0  0  0  0  0  0  0  0  0  0  0
  -20.9428  -22.1225   18.6797 C   0  0  0  0  0  0  0  0  0  0  0  0
  -21.4266  -21.0740   20.6658 C   0  0  0  0  0  0  0  0  0  0  0  0
  -27.8009  -21.7135   22.0433 C   0  0  0  0  0  0  0  0  0  0  0  0
  -29.0868  -21.4415   19.9170 C   0  0  0  0  0  0  0  0  0  0  0  0
  -27.2286  -29.1771   20.9010 C   0  0  0  0  0  0  0  0  0  0  0  0
  -24.1505  -29.8371   21.6836 C   0  0  0  0  0  0  0  0  0  0  0  0
  -20.9118  -28.7742   21.8506 C   0  0  0  0  0  0  0  0  0  0  0  0
  -23.6278  -20.3426   26.1124 C   0  0  0  0  0  0  0  0  0  0  0  0
  -31.5112  -31.8132   20.0251 C   0  0  0  0  0  0  0  0  0  0  0  0
  -26.0219  -28.5353   18.7824 C   0  0  0  0  0  0  0  0  0  0  0  0
  -24.6949  -27.4254   21.1807 C   0  0  0  0  0  0  0  0  0  0  0  0
  -30.2305  -32.0449   20.8228 C   0  0  0  0  0  0  0  0  0  0  0  0
  -26.7509  -21.9463   26.7053 C   0  0  0  0  0  0  0  0  0  0  0  0
  -29.9158  -30.8312   21.6915 C   0  0  0  0  0  0  0  0  0  0  0  0
  -27.5557  -21.6602   25.4363 C   0  0  0  0  0  0  0  0  0  0  0  0
  -25.8646  -20.7637   27.0901 C   0  0  0  0  0  0  0  0  0  0  0  0
  -25.7772  -19.9978   24.7493 C   0  0  0  0  0  0  0  0  0  0  0  0
  -29.6824  -29.5830   20.8319 C   0  0  1  0  0  0  0  0  0  0  0  0
  -25.9652  -29.3059   20.0979 C   0  0  1  0  0  0  0  0  0  0  0  0
  -26.6442  -21.1825   24.2899 C   0  0  2  0  0  0  0  0  0  0  0  0
  -19.9526  -22.8559   17.8382 C   0  0  0  0  0  0  0  0  0  0  0  0
  -24.4717  -19.9760   17.2530 C   0  0  0  0  0  0  0  0  0  0  0  0
  -19.4772  -20.2567   21.9850 C   0  0  0  0  0  0  0  0  0  0  0  0
  -18.6275  -29.5230   22.5706 C   0  0  0  0  0  0  0  0  0  0  0  0
  -20.6213  -23.0793   22.8578 C   0  0  0  0  0  0  0  0  0  0  0  0
  -24.9309  -29.4038   24.6014 C   0  0  0  0  0  0  0  0  0  0  0  0
  -22.4956  -29.2212   25.1529 C   0  0  0  0  0  0  0  0  0  0  0  0
  -23.4026  -31.3438   24.2072 C   0  0  0  0  0  0  0  0  0  0  0  0
  -19.8291  -28.4933   19.1106 C   0  0  0  0  0  0  0  0  0  0  0  0
  -20.8491  -21.2237   24.5590 C   0  0  0  0  0  0  0  0  0  0  0  0
  -21.4607  -19.8927   24.9897 C   0  0  0  0  0  0  0  0  0  0  0  0
  -25.3035  -22.1646   18.1908 C   0  0  0  0  0  0  0  0  0  1  0  0
  -24.5107  -20.8839   18.4854 C   0  0  1  0  0  0  0  0  0  0  0  0
  -20.9738  -20.6499   22.0230 C   0  0  2  0  0  0  0  0  0  0  0  0
  -23.1740  -29.3184   22.7114 C   0  0  1  0  0  0  0  0  0  0  0  0
  -19.6131  -29.4292   21.4162 C   0  0  2  0  0  0  0  0  0  0  0  0
  -21.2591  -21.7126   23.1473 C   0  0  1  0  0  0  0  0  0  0  0  0
  -23.5126  -29.8046   24.1489 C   0  0  0  0  0  0  0  0  0  0  0  0
  -27.8612  -19.5934   22.8490 N   0  0  0  0  0  0  0  0  0  0  0  0
  -20.5266  -21.7393   19.9076 N   0  0  0  0  0  0  0  0  0  0  0  0
  -27.4409  -20.8555   23.0404 N   0  0  0  0  0  0  0  0  0  0  0  0
  -24.8647  -28.8711   20.9606 N   0  0  0  0  0  0  0  0  0  0  0  0
  -25.0241  -20.3611   25.9599 N   0  0  0  0  0  0  0  0  0  0  0  0
  -27.4599  -23.0193   22.0770 N   0  0  0  0  0  0  0  0  0  0  0  0
  -29.7772  -20.5338   19.1023 N   0  0  0  0  0  0  0  0  0  0  0  0
  -28.3613  -29.6154   20.2419 N   0  0  0  0  0  0  0  0  0  0  0  0
  -21.8470  -29.7071   22.2462 N   0  0  0  0  0  0  0  0  0  0  0  0
  -22.9053  -19.9551   24.9905 N   0  0  0  0  0  0  0  0  0  0  0  0
  -18.9788  -28.6447   20.3193 N   0  3  0  0  0  0  0  0  0  0  0  0
  -29.0101  -22.6440   19.5684 O   0  0  0  0  0  0  0  0  0  0  0  0
  -27.1792  -28.7157   22.0351 O   0  0  0  0  0  0  0  0  0  0  0  0
  -24.2699  -31.0543   21.5230 O   0  0  0  0  0  0  0  0  0  0  0  0
  -21.0787  -27.5566   21.8434 O   0  0  0  0  0  0  0  0  0  0  0  0
  -23.0665  -20.6538   27.1683 O   0  0  0  0  0  0  0  0  0  0  0  0
  -30.8805  -15.0886   19.5115 O   0  0  0  0  0  0  0  0  0  0  0  0
  -25.4310  -22.9337   19.3861 O   0  0  0  0  0  0  0  0  0  1  0  0
  -27.9393  -10.4246   19.5350 F   0  0  0  0  0  0  0  0  0  0  0  0
  -29.9976  -13.9805   21.8853 F   0  0  0  0  0  0  0  0  0  0  0  0
  1  2  1  0  0  0  0
  1  5  2  0  0  0  0
  2  6  2  0  0  0  0
  3  8  2  0  0  0  0
  3 17  1  0  0  0  0
  4  9  1  0  0  0  0
  4 17  2  0  0  0  0
  5 19  1  0  0  0  0
  6 21  1  0  0  0  0
  7 10  2  0  0  0  0
  7 20  1  0  0  0  0
  8 24  1  0  0  0  0
  9 24  2  0  0  0  0
 10 25  1  0  0  0  0
 11 12  2  0  0  0  0
 11 26  1  0  0  0  0
 12 27  1  0  0  0  0
 13 22  1  0  0  0  0
 13 25  2  0  0  0  0
 14 23  1  0  0  0  0
 14 30  2  0  0  0  0
 15 23  2  0  0  0  0
 15 31  1  0  0  0  0
 16 27  2  0  0  0  0
 16 28  1  0  0  0  0
 17 29  1  0  0  0  0
 18 29  1  0  0  0  0
 18 32  2  0  0  0  0
 18 33  1  0  0  0  0
 19 21  2  0  0  0  0
 19 38  1  0  0  0  0
 20 22  2  0  0  0  0
 20 39  1  0  0  0  0
 21 47  1  0  0  0  0
 22 40  1  0  0  0  0
 23 62  1  0  0  0  0
 24 84  1  0  0  0  0
 25 85  1  0  0  0  0
 26 28  2  0  0  0  0
 26 84  1  0  0  0  0
 27 86  1  0  0  0  0
 28 87  1  0  0  0  0
 29 68  2  0  0  0  0
 30 50  1  0  0  0  0
 30 69  1  0  0  0  0
 31 63  1  0  0  0  0
 31 69  2  0  0  0  0
 32 70  1  0  0  0  0
 32 73  1  0  0  0  0
 33 74  1  0  0  0  0
 33 79  2  0  0  0  0
 34 48  1  0  0  0  0
 34 75  1  0  0  0  0
 34 80  2  0  0  0  0
 35 64  1  0  0  0  0
 35 71  1  0  0  0  0
 35 81  2  0  0  0  0
 36 65  1  0  0  0  0
 36 76  1  0  0  0  0
 36 82  2  0  0  0  0
 37 72  1  0  0  0  0
 37 77  1  0  0  0  0
 37 83  2  0  0  0  0
 38 41  1  0  0  0  0
 39 48  1  0  0  0  0
 40 71  1  0  0  0  0
 41 43  1  0  0  0  0
 42 44  1  0  0  0  0
 42 45  1  0  0  0  0
 43 47  1  0  0  0  0
 44 49  1  0  0  0  0
 45 72  1  0  0  0  0
 46 49  1  0  0  0  0
 46 72  1  0  0  0  0
 47 75  1  0  0  0  0
 48 71  1  0  0  0  0
 49 70  1  0  0  0  0
 51 62  1  0  0  0  0
 52 63  1  0  0  0  0
 53 65  1  0  0  0  0
 54 66  1  0  0  0  0
 55 67  1  0  0  0  0
 56 67  1  0  0  0  0
 57 67  1  0  0  0  0
 58 78  1  0  0  0  0
 59 60  1  0  0  0  0
 59 66  1  0  0  0  0
 60 77  1  0  0  0  0
 61 62  1  0  0  0  0
 61 85  1  0  0  0  0
 63 66  1  0  0  0  0
 64 67  1  0  0  0  0
 64 76  1  0  0  0  0
 65 78  1  0  0  0  0
 68 70  1  0  0  0  0
M  CHG  1  78   1
M  ISO  4  37 100  61 101  77 100  85 101
M  END
> <Batch ID>
0089

> <Smiles>
CNC(C)C(=O)NC(C(=O)N1Cc2cc([101O:1][101CH2:1]C(C)c3cc(C)nc(C(C)C(C)CC[100NH:0][100C:0](=O)N4CCCC(n5nc(-c6ccc(Oc7ccc(F)cc7F)cc6)c(C(N)=O)c5N)C4)c3)ccc2CC1C(=O)NC1CCCc2ccccc21)C(C)(C)C

> <Shape>
0.199

> <Color>
0.055

> <Negative vol penalty>
0.000

$$$$

  -OEChem-04052319063D

 83 90  0     1  0  0  0  0  0999 V2000
  -24.1328  -14.2533   25.7760 C   0  0  0  0  0  0  0  0  0  0  0  0
  -25.2299  -13.4749   25.4211 C   0  0  0  0  0  0  0  0  0  0  0  0
  -23.2884   -9.7998   19.9126 C   0  0  0  0  0  0  0  0  0  0  0  0
  -23.7383   -9.9403   22.2822 C   0  0  0  0  0  0  0  0  0  0  0  0
  -23.5213  -14.0702   27.0155 C   0  0  0  0  0  0  0  0  0  0  0  0
  -25.7169  -12.5136   26.3062 C   0  0  0  0  0  0  0  0  0  0  0  0
  -26.7354   -8.1096   24.0232 C   0  0  0  0  0  0  0  0  0  0  0  0
  -22.5619   -8.6274   20.1201 C   0  0  0  0  0  0  0  0  0  0  0  0
  -23.0117   -8.7678   22.4897 C   0  0  0  0  0  0  0  0  0  0  0  0
  -27.9215   -8.0294   23.2948 C   0  0  0  0  0  0  0  0  0  0  0  0
  -19.7645   -7.8571   22.7057 C   0  0  0  0  0  0  0  0  0  0  0  0
  -18.8617   -7.8355   23.7688 C   0  0  0  0  0  0  0  0  0  0  0  0
  -28.9727   -6.8906   25.1434 C   0  0  0  0  0  0  0  0  0  0  0  0
  -20.0669   -5.9881   24.7547 C   0  0  0  0  0  0  0  0  0  0  0  0
  -23.8767  -10.4563   20.9937 C   0  0  0  0  0  0  0  0  0  0  0  0
  -24.1364  -12.9863   20.7953 C   0  0  0  0  0  0  0  0  0  0  0  0
  -23.9950  -13.0995   27.9123 C   0  0  0  0  0  0  0  0  0  0  0  0
  -26.6622   -7.5897   25.3235 C   0  0  0  0  0  0  0  0  0  0  0  0
  -25.1120  -12.3183   27.5594 C   0  0  0  0  0  0  0  0  0  0  0  0
  -27.7838   -6.9632   25.8852 C   0  0  0  0  0  0  0  0  0  0  0  0
  -22.4235   -8.1114   21.4086 C   0  0  0  0  0  0  0  0  0  0  0  0
  -29.0412   -7.4224   23.8559 C   0  0  0  0  0  0  0  0  0  0  0  0
  -20.8185   -6.9442   22.6671 C   0  0  0  0  0  0  0  0  0  0  0  0
  -19.0129   -6.9010   24.7933 C   0  0  0  0  0  0  0  0  0  0  0  0
  -20.9697   -6.0097   23.6916 C   0  0  0  0  0  0  0  0  0  0  0  0
  -24.6279  -11.6672   20.7800 C   0  0  0  0  0  0  0  0  0  0  0  0
  -25.2381  -13.7661   20.5408 C   0  0  0  0  0  0  0  0  0  0  0  0
  -22.8033  -13.4640   21.0196 C   0  0  0  0  0  0  0  0  0  0  0  0
  -26.1032   -8.8172   28.2018 C   0  0  0  0  0  0  0  0  0  0  0  0
  -26.1614   -5.7042   29.1118 C   0  0  0  0  0  0  0  0  0  0  0  0
  -27.2186   -2.5210   28.4823 C   0  0  0  0  0  0  0  0  0  0  0  0
  -31.1087  -12.9224   21.3626 C   0  0  0  0  0  0  0  0  0  0  0  0
  -23.3306  -12.9705   29.2601 C   0  0  0  0  0  0  0  0  0  0  0  0
  -25.3676   -7.6605   26.0859 C   0  0  0  0  0  0  0  0  0  0  0  0
  -27.7511   -6.3713   27.2698 C   0  0  0  0  0  0  0  0  0  0  0  0
  -23.6757  -11.6737   29.9876 C   0  0  0  0  0  0  0  0  0  0  0  0
  -29.4610  -13.6621   18.2943 C   0  0  0  0  0  0  0  0  0  0  0  0
  -25.1775  -11.4128   29.9304 C   0  0  0  0  0  0  0  0  0  0  0  0
  -27.9912  -13.3537   18.5848 C   0  0  0  0  0  0  0  0  0  0  0  0
  -30.3939  -12.6826   19.0030 C   0  0  0  0  0  0  0  0  0  0  0  0
  -28.7066  -12.2533   20.7472 C   0  0  0  0  0  0  0  0  0  0  0  0
  -25.6541  -11.2483   28.4822 C   0  0  1  0  0  0  0  0  0  0  0  0
  -25.5570   -7.5553   27.5961 C   0  0  1  0  0  0  0  0  0  0  0  0
  -27.7290  -13.2487   20.0992 C   0  0  2  0  0  0  0  0  0  0  0  0
  -27.1409   -0.1967   29.4254 C   0  0  0  0  0  0  0  0  0  0  0  0
  -32.1034   -6.3305   21.1257 C   0  0  0  0  0  0  0  0  0  0  0  0
  -34.2888   -7.5163   21.1827 C   0  0  0  0  0  0  0  0  0  0  0  0
  -34.4052   -7.6667   24.9041 C   0  0  0  0  0  0  0  0  0  0  0  0
  -30.5977  -11.4973   25.4089 C   0  0  0  0  0  0  0  0  0  0  0  0
  -28.2505   -6.4822   31.1952 C   0  0  0  0  0  0  0  0  0  0  0  0
  -28.8149   -4.0547   31.4342 C   0  0  0  0  0  0  0  0  0  0  0  0
  -26.5244   -4.8628   32.0030 C   0  0  0  0  0  0  0  0  0  0  0  0
  -25.8148   -1.4749   26.0961 C   0  0  0  0  0  0  0  0  0  0  0  0
  -31.6696  -13.1360   23.7707 C   0  0  0  0  0  0  0  0  0  0  0  0
  -33.1585   -9.8191   24.8125 C   0  0  0  0  0  0  0  0  0  0  0  0
  -31.4181   -7.3473   23.8854 C   0  0  0  0  0  0  0  0  0  1  0  0
  -27.2312   -4.7465   29.5783 C   0  0  1  0  0  0  0  0  0  0  0  0
  -26.4800   -1.1948   28.4873 C   0  0  2  0  0  0  0  0  0  0  0  0
  -33.1803   -6.9116   22.0550 C   0  0  0  0  0  0  0  0  0  0  0  0
  -33.6699   -8.6359   23.9692 C   0  0  2  0  0  0  0  0  0  0  0  0
  -32.5823   -7.9490   23.0679 C   0  0  2  0  0  0  0  0  0  0  0  0
  -31.8759  -11.9605   24.7234 C   0  0  2  0  0  0  0  0  0  0  0  0
  -27.7068   -5.0493   31.0273 C   0  0  0  0  0  0  0  0  0  0  0  0
  -25.9395  -11.6084   20.5350 N   0  0  0  0  0  0  0  0  0  0  0  0
  -26.2817  -12.9003   20.3939 N   0  0  0  0  0  0  0  0  0  0  0  0
  -26.4641   -6.4710   27.9777 N   0  0  0  0  0  0  0  0  0  0  0  0
  -30.0941  -12.6312   20.4359 N   0  0  0  0  0  0  0  0  0  0  0  0
  -25.4062  -15.1010   20.4304 N   0  0  0  0  0  0  0  0  0  0  0  0
  -21.7906  -12.5272   21.2667 N   0  0  0  0  0  0  0  0  0  0  0  0
  -25.3158   -9.9319   27.9852 N   0  0  0  0  0  0  0  0  0  0  0  0
  -26.6861   -3.4056   29.3962 N   0  0  0  0  0  0  0  0  0  0  0  0
  -30.7385  -12.8569   22.7003 N   0  0  0  0  0  0  0  0  0  0  0  0
  -26.4583   -0.6088   27.1172 N   0  3  0  0  0  0  0  0  0  0  0  0
  -32.4508  -10.8119   23.9702 N   0  3  0  0  0  0  0  0  0  0  0  0
  -22.5156  -14.6845   20.9852 O   0  0  0  0  0  0  0  0  0  0  0  0
  -27.1600   -8.7818   28.8211 O   0  0  0  0  0  0  0  0  0  0  0  0
  -25.0938   -5.7643   29.7267 O   0  0  0  0  0  0  0  0  0  0  0  0
  -28.1749   -2.7481   27.7444 O   0  0  0  0  0  0  0  0  0  0  0  0
  -32.2578  -13.2241   21.0230 O   0  0  0  0  0  0  0  0  0  0  0  0
  -21.7144   -6.9674   21.6114 O   0  0  0  0  0  0  0  0  0  0  0  0
  -30.2096   -7.3427   23.1417 O   0  0  0  0  0  0  0  0  0  1  0  0
  -18.1468   -6.8814   25.8149 F   0  0  0  0  0  0  0  0  0  0  0  0
  -21.9809   -5.1310   23.6605 F   0  0  0  0  0  0  0  0  0  0  0  0
  1  2  1  0  0  0  0
  1  5  2  0  0  0  0
  2  6  2  0  0  0  0
  3  8  2  0  0  0  0
  3 15  1  0  0  0  0
  4  9  1  0  0  0  0
  4 15  2  0  0  0  0
  5 17  1  0  0  0  0
  6 19  1  0  0  0  0
  7 10  2  0  0  0  0
  7 18  1  0  0  0  0
  8 21  1  0  0  0  0
  9 21  2  0  0  0  0
 10 22  1  0  0  0  0
 11 12  2  0  0  0  0
 11 23  1  0  0  0  0
 12 24  1  0  0  0  0
 13 20  1  0  0  0  0
 13 22  2  0  0  0  0
 14 24  2  0  0  0  0
 14 25  1  0  0  0  0
 15 26  1  0  0  0  0
 16 26  1  0  0  0  0
 16 27  2  0  0  0  0
 16 28  1  0  0  0  0
 17 19  2  0  0  0  0
 17 33  1  0  0  0  0
 18 20  2  0  0  0  0
 18 34  1  0  0  0  0
 19 42  1  0  0  0  0
 20 35  1  0  0  0  0
 21 80  1  0  0  0  0
 22 81  1  0  0  0  0
 23 25  2  0  0  0  0
 23 80  1  0  0  0  0
 24 82  1  0  0  0  0
 25 83  1  0  0  0  0
 26 64  2  0  0  0  0
 27 65  1  0  0  0  0
 27 68  1  0  0  0  0
 28 69  1  0  0  0  0
 28 75  2  0  0  0  0
 29 43  1  0  0  0  0
 29 70  1  0  0  0  0
 29 76  2  0  0  0  0
 30 57  1  0  0  0  0
 30 66  1  0  0  0  0
 30 77  2  0  0  0  0
 31 58  1  0  0  0  0
 31 71  1  0  0  0  0
 31 78  2  0  0  0  0
 32 67  1  0  0  0  0
 32 72  1  0  0  0  0
 32 79  2  0  0  0  0
 33 36  1  0  0  0  0
 34 43  1  0  0  0  0
 35 66  1  0  0  0  0
 36 38  1  0  0  0  0
 37 39  1  0  0  0  0
 37 40  1  0  0  0  0
 38 42  1  0  0  0  0
 39 44  1  0  0  0  0
 40 67  1  0  0  0  0
 41 44  1  0  0  0  0
 41 67  1  0  0  0  0
 42 70  1  0  0  0  0
 43 66  1  0  0  0  0
 44 65  1  0  0  0  0
 45 58  1  0  0  0  0
 46 59  1  0  0  0  0
 47 59  1  0  0  0  0
 48 60  1  0  0  0  0
 49 62  1  0  0  0  0
 50 63  1  0  0  0  0
 51 63  1  0  0  0  0
 52 63  1  0  0  0  0
 53 73  1  0  0  0  0
 54 62  1  0  0  0  0
 54 72  1  0  0  0  0
 55 60  1  0  0  0  0
 55 74  1  0  0  0  0
 56 61  1  0  0  0  0
 56 81  1  0  0  0  0
 57 63  1  0  0  0  0
 57 71  1  0  0  0  0
 58 73  1  0  0  0  0
 59 61  1  0  0  0  0
 60 61  1  0  0  0  0
 62 74  1  0  0  0  0
 64 65  1  0  0  0  0
M  CHG  2  73   1  74   1
M  ISO  4  32 100  56 101  72 100  81 101
M  END
> <Batch ID>
0089

> <Smiles>
CNC(C)C(=O)NC(C(=O)N1Cc2cc([101O:1][101CH2:1]C(C(C)C)C(C)CNC(C)C[100NH:0][100C:0](=O)N3CCCC(n4nc(-c5ccc(Oc6ccc(F)cc6F)cc5)c(C(N)=O)c4N)C3)ccc2CC1C(=O)NC1CCCc2ccccc21)C(C)(C)C

> <Shape>
0.134

> <Color>
0.170

> <Negative vol penalty>
0.000

$$$$

  -OEChem-04052319063D

 83 91  0     1  0  0  0  0  0999 V2000
  -19.5387   -8.5696   20.3825 C   0  0  0  0  0  0  0  0  0  0  0  0
  -19.5378   -9.9468   20.5790 C   0  0  0  0  0  0  0  0  0  0  0  0
  -26.0812  -27.8902   18.9186 C   0  0  0  0  0  0  0  0  0  0  0  0
  -26.5247  -28.0679   21.2869 C   0  0  0  0  0  0  0  0  0  0  0  0
  -20.7238   -7.8479   20.5193 C   0  0  0  0  0  0  0  0  0  0  0  0
  -20.7218  -10.6030   20.9137 C   0  0  0  0  0  0  0  0  0  0  0  0
  -22.4189  -16.2343   19.2067 C   0  0  0  0  0  0  0  0  0  0  0  0
  -25.0238  -28.7903   19.0490 C   0  0  0  0  0  0  0  0  0  0  0  0
  -25.4672  -28.9681   21.4173 C   0  0  0  0  0  0  0  0  0  0  0  0
  -22.3614  -17.4679   19.8539 C   0  0  0  0  0  0  0  0  0  0  0  0
  -22.6582  -31.0361   22.4386 C   0  0  0  0  0  0  0  0  0  0  0  0
  -21.7816  -30.8560   23.5085 C   0  0  0  0  0  0  0  0  0  0  0  0
  -24.3459  -17.5319   26.6809 C   0  0  0  0  0  0  0  0  0  0  0  0
  -25.6731  -17.5172   26.1855 C   0  0  0  0  0  0  0  0  0  0  0  0
  -24.6487  -17.1924   20.5692 C   0  0  0  0  0  0  0  0  0  0  0  0
  -21.2165  -28.6596   22.6758 C   0  0  0  0  0  0  0  0  0  0  0  0
  -26.8317  -27.5289   20.0376 C   0  0  0  0  0  0  0  0  0  0  0  0
  -29.2706  -26.9025   19.6288 C   0  0  0  0  0  0  0  0  0  0  0  0
  -21.9248   -8.4969   20.8463 C   0  0  0  0  0  0  0  0  0  0  0  0
  -23.5902  -15.4643   19.2452 C   0  0  0  0  0  0  0  0  0  0  0  0
  -21.9237   -9.8891   21.0563 C   0  0  0  0  0  0  0  0  0  0  0  0
  -24.7193  -15.9506   19.9196 C   0  0  0  0  0  0  0  0  0  0  0  0
  -24.7168  -29.3294   20.2984 C   0  0  0  0  0  0  0  0  0  0  0  0
  -23.4755  -17.9458   20.5377 C   0  0  0  0  0  0  0  0  0  0  0  0
  -22.8139  -30.0280   21.4872 C   0  0  0  0  0  0  0  0  0  0  0  0
  -21.0608  -29.6677   23.6271 C   0  0  0  0  0  0  0  0  0  0  0  0
  -22.0931  -28.8397   21.6058 C   0  0  0  0  0  0  0  0  0  0  0  0
  -27.9238  -26.5986   19.9036 C   0  0  0  0  0  0  0  0  0  0  0  0
  -23.7186  -18.6343   26.1438 C   0  0  0  0  0  0  0  0  0  0  0  0
  -25.8165  -18.6113   25.3609 C   0  0  0  0  0  0  0  0  0  0  0  0
  -29.8998  -25.6819   19.6035 C   0  0  0  0  0  0  0  0  0  0  0  0
  -29.8969  -28.1745   19.4156 C   0  0  0  0  0  0  0  0  0  0  0  0
  -24.3497  -12.5911   20.3730 C   0  0  0  0  0  0  0  0  0  0  0  0
  -27.1880  -13.2032   18.9267 C   0  0  0  0  0  0  0  0  0  0  0  0
  -29.3981  -15.5204   17.7467 C   0  0  0  0  0  0  0  0  0  0  0  0
  -28.6476  -20.3961   22.1220 C   0  0  0  0  0  0  0  0  0  0  0  0
  -23.1713   -7.6679   21.0298 C   0  0  0  0  0  0  0  0  0  0  0  0
  -23.6447  -14.1479   18.5195 C   0  0  0  0  0  0  0  0  0  0  0  0
  -26.0073  -15.1717   19.9738 C   0  0  0  0  0  0  0  0  0  0  0  0
  -24.4571   -8.4907   21.0188 C   0  0  0  0  0  0  0  0  0  0  0  0
  -29.0794  -21.0654   18.6518 C   0  0  0  0  0  0  0  0  0  0  0  0
  -24.3102   -9.7225   21.9065 C   0  0  0  0  0  0  0  0  0  0  0  0
  -28.9537  -22.5868   18.5543 C   0  0  0  0  0  0  0  0  0  0  0  0
  -28.1322  -20.4869   19.7008 C   0  0  0  0  0  0  0  0  0  0  0  0
  -28.1201  -22.6157   20.9425 C   0  0  0  0  0  0  0  0  0  0  0  0
  -23.1928  -10.6403   21.3961 C   0  0  1  0  0  0  0  0  0  0  0  0
  -24.7238  -13.2133   19.0575 C   0  0  1  0  0  0  0  0  0  0  0  0
  -29.0959  -23.2509   19.9371 C   0  0  2  0  0  0  0  0  0  0  0  0
  -22.3355  -19.1199   26.3285 C   0  0  0  0  0  0  0  0  0  0  0  0
  -31.6478  -15.7188   16.6527 C   0  0  0  0  0  0  0  0  0  0  0  0
  -28.5366  -12.5940   21.5951 C   0  0  0  0  0  0  0  0  0  0  0  0
  -30.6039  -13.7063   20.7248 C   0  0  0  0  0  0  0  0  0  0  0  0
  -29.7166  -11.6674   19.5942 C   0  0  0  0  0  0  0  0  0  0  0  0
  -28.2506  -16.8453   15.3620 C   0  0  0  0  0  0  0  0  0  0  0  0
  -26.9916  -19.0687   24.5911 C   0  0  0  0  0  0  0  0  0  0  0  0
  -27.9279  -20.0415   25.3469 C   0  0  0  0  0  0  0  0  0  0  0  0
  -23.5643  -20.3060   23.2679 C   0  0  0  0  0  0  0  0  0  0  0  0
  -24.3447  -20.5430   24.5627 C   0  0  0  0  0  0  0  0  0  0  0  0
  -29.1585  -20.4684   24.5496 C   0  0  0  0  0  0  0  0  0  0  0  0
  -24.2372  -19.3097   22.3308 C   0  0  0  0  0  0  0  0  0  1  0  0
  -28.4815  -13.8593   19.3452 C   0  0  1  0  0  0  0  0  0  0  0  0
  -30.1468  -15.6193   16.4298 C   0  0  2  0  0  0  0  0  0  0  0  0
  -29.3099  -12.9708   20.3156 C   0  0  0  0  0  0  0  0  0  0  0  0
  -27.7091  -25.2876   20.0427 N   0  0  0  0  0  0  0  0  0  0  0  0
  -24.6221  -19.2831   25.3433 N   0  0  0  0  0  0  0  0  0  0  0  0
  -28.9294  -24.7570   19.8545 N   0  0  0  0  0  0  0  0  0  0  0  0
  -26.0087  -13.8874   19.2540 N   0  0  0  0  0  0  0  0  0  0  0  0
  -28.3188  -21.1586   20.9891 N   0  0  0  0  0  0  0  0  0  0  0  0
  -31.1830  -25.3203   19.3911 N   0  0  0  0  0  0  0  0  0  0  0  0
  -29.1037  -29.3284   19.4768 N   0  0  0  0  0  0  0  0  0  0  0  0
  -23.6489  -11.4059   20.2558 N   0  0  0  0  0  0  0  0  0  0  0  0
  -29.1792  -14.2092   18.1126 N   0  0  0  0  0  0  0  0  0  0  0  0
  -28.8129  -21.1117   23.3016 N   0  0  0  0  0  0  0  0  0  0  0  0
  -29.7035  -16.8230   15.6711 N   0  3  0  0  0  0  0  0  0  0  0  0
  -31.1205  -28.2834   19.1617 O   0  0  0  0  0  0  0  0  0  0  0  0
  -24.6742  -13.1446   21.4171 O   0  0  0  0  0  0  0  0  0  0  0  0
  -27.2228  -12.1269   18.3251 O   0  0  0  0  0  0  0  0  0  0  0  0
  -29.0462  -16.5077   18.3887 O   0  0  0  0  0  0  0  0  0  0  0  0
  -28.7891  -19.1691   22.0839 O   0  0  0  0  0  0  0  0  0  0  0  0
  -23.6851  -30.2080   20.4259 O   0  0  0  0  0  0  0  0  0  0  0  0
  -23.4219  -19.1492   21.1707 O   0  0  0  0  0  0  0  0  0  1  0  0
  -20.2202  -29.4943   24.6555 F   0  0  0  0  0  0  0  0  0  0  0  0
  -22.2393  -27.8671   20.6955 F   0  0  0  0  0  0  0  0  0  0  0  0
  1  2  1  0  0  0  0
  1  5  2  0  0  0  0
  2  6  2  0  0  0  0
  3  8  2  0  0  0  0
  3 17  1  0  0  0  0
  4  9  1  0  0  0  0
  4 17  2  0  0  0  0
  5 19  1  0  0  0  0
  6 21  1  0  0  0  0
  7 10  2  0  0  0  0
  7 20  1  0  0  0  0
  8 23  1  0  0  0  0
  9 23  2  0  0  0  0
 10 24  1  0  0  0  0
 11 12  2  0  0  0  0
 11 25  1  0  0  0  0
 12 26  1  0  0  0  0
 13 14  1  0  0  0  0
 13 29  2  0  0  0  0
 14 30  2  0  0  0  0
 15 22  1  0  0  0  0
 15 24  2  0  0  0  0
 16 26  2  0  0  0  0
 16 27  1  0  0  0  0
 17 28  1  0  0  0  0
 18 28  1  0  0  0  0
 18 31  2  0  0  0  0
 18 32  1  0  0  0  0
 19 21  2  0  0  0  0
 19 37  1  0  0  0  0
 20 22  2  0  0  0  0
 20 38  1  0  0  0  0
 21 46  1  0  0  0  0
 22 39  1  0  0  0  0
 23 80  1  0  0  0  0
 24 81  1  0  0  0  0
 25 27  2  0  0  0  0
 25 80  1  0  0  0  0
 26 82  1  0  0  0  0
 27 83  1  0  0  0  0
 28 64  2  0  0  0  0
 29 49  1  0  0  0  0
 29 65  1  0  0  0  0
 30 55  1  0  0  0  0
 30 65  1  0  0  0  0
 31 66  1  0  0  0  0
 31 69  1  0  0  0  0
 32 70  1  0  0  0  0
 32 75  2  0  0  0  0
 33 47  1  0  0  0  0
 33 71  1  0  0  0  0
 33 76  2  0  0  0  0
 34 61  1  0  0  0  0
 34 67  1  0  0  0  0
 34 77  2  0  0  0  0
 35 62  1  0  0  0  0
 35 72  1  0  0  0  0
 35 78  2  0  0  0  0
 36 68  1  0  0  0  0
 36 73  1  0  0  0  0
 36 79  2  0  0  0  0
 37 40  1  0  0  0  0
 38 47  1  0  0  0  0
 39 67  1  0  0  0  0
 40 42  1  0  0  0  0
 41 43  1  0  0  0  0
 41 44  1  0  0  0  0
 42 46  1  0  0  0  0
 43 48  1  0  0  0  0
 44 68  1  0  0  0  0
 45 48  1  0  0  0  0
 45 68  1  0  0  0  0
 46 71  1  0  0  0  0
 47 67  1  0  0  0  0
 48 66  1  0  0  0  0
 50 62  1  0  0  0  0
 51 63  1  0  0  0  0
 52 63  1  0  0  0  0
 53 63  1  0  0  0  0
 54 74  1  0  0  0  0
 55 56  1  0  0  0  0
 56 59  1  0  0  0  0
 57 58  1  0  0  0  0
 57 60  1  0  0  0  0
 58 65  1  0  0  0  0
 59 73  1  0  0  0  0
 60 81  1  0  0  0  0
 61 63  1  0  0  0  0
 61 72  1  0  0  0  0
 62 74  1  0  0  0  0
 64 66  1  0  0  0  0
M  CHG  1  74   1
M  ISO  4  36 100  60 101  73 100  81 101
M  END
> <Batch ID>
0089

> <Smiles>
CNC(C)C(=O)NC(C(=O)N1Cc2cc([101O:1][101CH2:1]CCn3c(C)ccc3CCC[100NH:0][100C:0](=O)N3CCCC(n4nc(-c5ccc(Oc6ccc(F)cc6F)cc5)c(C(N)=O)c4N)C3)ccc2CC1C(=O)NC1CCCc2ccccc21)C(C)(C)C

> <Shape>
0.269

> <Color>
0.056

> <Negative vol penalty>
0.000

$$$$

  -OEChem-04052319063D

 91 99  0     1  0  0  0  0  0999 V2000
  -30.7047  -22.4512   15.3425 C   0  0  0  0  0  0  0  0  0  0  0  0
  -30.4236  -22.4485   16.7050 C   0  0  0  0  0  0  0  0  0  0  0  0
  -23.4295   -9.6016   19.9139 C   0  0  0  0  0  0  0  0  0  0  0  0
  -23.6908   -9.9248   22.2938 C   0  0  0  0  0  0  0  0  0  0  0  0
  -30.7540  -23.6571   14.6444 C   0  0  0  0  0  0  0  0  0  0  0  0
  -30.1928  -23.6520   17.3705 C   0  0  0  0  0  0  0  0  0  0  0  0
  -26.2003  -23.4192   20.4772 C   0  0  0  0  0  0  0  0  0  0  0  0
  -22.7495   -8.4070   20.1507 C   0  0  0  0  0  0  0  0  0  0  0  0
  -23.0108   -8.7302   22.5307 C   0  0  0  0  0  0  0  0  0  0  0  0
  -26.3848  -22.7841   21.7046 C   0  0  0  0  0  0  0  0  0  0  0  0
  -19.8067   -7.6566   22.5759 C   0  0  0  0  0  0  0  0  0  0  0  0
  -18.8282   -7.6558   23.5699 C   0  0  0  0  0  0  0  0  0  0  0  0
  -26.6241  -24.9333   22.7737 C   0  0  0  0  0  0  0  0  0  0  0  0
  -30.4722  -21.8623   25.0179 C   0  0  0  0  0  0  0  0  0  0  0  0
  -28.5855  -20.4038   24.7057 C   0  0  0  0  0  0  0  0  0  0  0  0
  -20.0471   -5.9484   24.7683 C   0  0  0  0  0  0  0  0  0  0  0  0
  -23.9002  -10.3605   20.9854 C   0  0  0  0  0  0  0  0  0  0  0  0
  -24.0459  -12.8821   20.6278 C   0  0  0  0  0  0  0  0  0  0  0  0
  -30.5141  -24.8752   15.2998 C   0  0  0  0  0  0  0  0  0  0  0  0
  -26.2373  -24.8181   20.3869 C   0  0  0  0  0  0  0  0  0  0  0  0
  -30.2402  -24.8754   16.6808 C   0  0  0  0  0  0  0  0  0  0  0  0
  -26.4373  -25.5837   21.5444 C   0  0  0  0  0  0  0  0  0  0  0  0
  -29.1220  -21.5864   25.2026 C   0  0  0  0  0  0  0  0  0  0  0  0
  -22.5401   -7.9713   21.4592 C   0  0  0  0  0  0  0  0  0  0  0  0
  -26.5996  -23.5411   22.8526 C   0  0  0  0  0  0  0  0  0  0  0  0
  -20.9054   -6.8032   22.6780 C   0  0  0  0  0  0  0  0  0  0  0  0
  -18.9484   -6.8017   24.6661 C   0  0  0  0  0  0  0  0  0  0  0  0
  -21.0256   -5.9492   23.7742 C   0  0  0  0  0  0  0  0  0  0  0  0
  -24.6032  -11.5943   20.7413 C   0  0  0  0  0  0  0  0  0  0  0  0
  -31.2371  -20.9304   24.3350 C   0  0  0  0  0  0  0  0  0  0  0  0
  -29.4348  -19.5373   24.0365 C   0  0  0  0  0  0  0  0  0  0  0  0
  -25.1229  -13.7033   20.3989 C   0  0  0  0  0  0  0  0  0  0  0  0
  -22.6772  -13.2988   20.7210 C   0  0  0  0  0  0  0  0  0  0  0  0
  -28.0765  -26.9201   18.8695 C   0  0  0  0  0  0  0  0  0  0  0  0
  -25.9162  -29.0509   20.0163 C   0  0  0  0  0  0  0  0  0  0  0  0
  -23.5588  -29.8073   22.3652 C   0  0  0  0  0  0  0  0  0  0  0  0
  -30.3377  -15.2462   21.7053 C   0  0  0  0  0  0  0  0  0  0  0  0
  -30.6249  -26.1570   14.5128 C   0  0  0  0  0  0  0  0  0  0  0  0
  -26.0099  -25.4887   19.0599 C   0  0  0  0  0  0  0  0  0  0  0  0
  -26.4656  -27.0891   21.5044 C   0  0  0  0  0  0  0  0  0  0  0  0
  -29.9989  -27.3591   15.2153 C   0  0  0  0  0  0  0  0  0  0  0  0
  -29.9243  -12.6190   19.2708 C   0  0  0  0  0  0  0  0  0  0  0  0
  -30.4303  -27.4071   16.6776 C   0  0  0  0  0  0  0  0  0  0  0  0
  -28.4670  -12.1985   19.4577 C   0  0  0  0  0  0  0  0  0  0  0  0
  -30.5588  -13.0392   20.5927 C   0  0  0  0  0  0  0  0  0  0  0  0
  -28.3442  -13.7022   21.4944 C   0  0  0  0  0  0  0  0  0  0  0  0
  -29.9597  -26.1583   17.4329 C   0  0  1  0  0  0  0  0  0  0  0  0
  -26.5796  -26.9026   18.9995 C   0  0  1  0  0  0  0  0  0  0  0  0
  -27.6631  -13.2970   20.1758 C   0  0  2  0  0  0  0  0  0  0  0  0
  -28.1724  -19.3571   21.2176 C   0  0  0  0  0  0  0  0  0  0  0  0
  -29.1112  -16.9819   25.7693 C   0  0  0  0  0  0  0  0  0  0  0  0
  -21.9919  -31.6382   23.0652 C   0  0  0  0  0  0  0  0  0  0  0  0
  -36.3753  -23.0497   21.1729 C   0  0  0  0  0  0  0  0  0  0  0  0
  -34.2067  -24.2937   21.2744 C   0  0  0  0  0  0  0  0  0  0  0  0
  -28.2621  -30.6033   21.1984 C   0  0  0  0  0  0  0  0  0  0  0  0
  -26.6293  -31.8343   22.6429 C   0  0  0  0  0  0  0  0  0  0  0  0
  -26.4869  -32.0262   20.1599 C   0  0  0  0  0  0  0  0  0  0  0  0
  -21.1840  -28.0881   21.9606 C   0  0  0  0  0  0  0  0  0  0  0  0
  -28.2425  -22.5663   25.9405 C   0  0  0  0  0  0  0  0  0  0  0  0
  -32.6902  -21.1923   24.1195 C   0  0  0  0  0  0  0  0  0  0  0  0
  -27.7413  -18.5340   22.4284 C   0  0  0  0  0  0  0  0  0  0  0  0
  -28.1937  -17.3867   24.6185 C   0  0  0  0  0  0  0  0  0  0  0  0
  -33.0119  -21.9472   22.8159 C   0  0  0  0  0  0  0  0  0  0  0  0
  -34.5186  -22.1347   22.5973 C   0  0  0  0  0  0  0  0  0  0  0  0
  -27.6049  -23.5899   25.0073 C   0  0  0  0  0  0  0  0  0  1  0  0
  -29.9650  -17.3287   22.7928 C   0  0  0  0  0  0  0  0  0  0  0  0
  -25.7880  -29.8692   21.2784 C   0  0  1  0  0  0  0  0  0  0  0  0
  -22.1556  -30.3723   22.2385 C   0  0  2  0  0  0  0  0  0  0  0  0
  -34.8571  -22.9101   21.3099 C   0  0  0  0  0  0  0  0  0  0  0  0
  -28.8923  -18.2598   23.4884 C   0  0  0  0  0  0  0  0  0  0  0  0
  -26.7930  -31.0548   21.3207 C   0  0  0  0  0  0  0  0  0  0  0  0
  -25.9310  -11.5924   20.5963 N   0  0  0  0  0  0  0  0  0  0  0  0
  -30.7514  -19.7709   23.8377 N   0  0  0  0  0  0  0  0  0  0  0  0
  -26.2170  -12.8891   20.3893 N   0  0  0  0  0  0  0  0  0  0  0  0
  -26.2445  -27.6980   20.1824 N   0  0  0  0  0  0  0  0  0  0  0  0
  -29.7513  -14.0546   21.2677 N   0  0  0  0  0  0  0  0  0  0  0  0
  -25.2311  -15.0351   20.2068 N   0  0  0  0  0  0  0  0  0  0  0  0
  -21.6973  -12.3257   20.9600 N   0  0  0  0  0  0  0  0  0  0  0  0
  -28.5518  -26.2611   17.7518 N   0  0  0  0  0  0  0  0  0  0  0  0
  -24.3878  -30.2695   21.3650 N   0  0  0  0  0  0  0  0  0  0  0  0
  -21.1513  -29.3742   22.7034 N   0  3  0  0  0  0  0  0  0  0  0  0
  -22.3316  -14.4964   20.5798 O   0  0  0  0  0  0  0  0  0  0  0  0
  -28.7501  -27.4907   19.7194 O   0  0  0  0  0  0  0  0  0  0  0  0
  -25.7249  -29.5906   18.9237 O   0  0  0  0  0  0  0  0  0  0  0  0
  -23.8877  -29.0362   23.2640 O   0  0  0  0  0  0  0  0  0  0  0  0
  -31.5270  -15.5255   21.5647 O   0  0  0  0  0  0  0  0  0  0  0  0
  -21.8764   -6.8058   21.6907 O   0  0  0  0  0  0  0  0  0  0  0  0
  -26.7806  -22.9237   24.0518 O   0  0  0  0  0  0  0  0  0  1  0  0
  -29.4418  -16.0839   22.3151 O   0  0  0  0  0  0  0  0  0  0  0  0
  -18.0095   -6.8021   25.6214 F   0  0  0  0  0  0  0  0  0  0  0  0
  -22.0794   -5.1279   23.8785 F   0  0  0  0  0  0  0  0  0  0  0  0
  1  2  1  0  0  0  0
  1  5  2  0  0  0  0
  2  6  2  0  0  0  0
  3  8  2  0  0  0  0
  3 17  1  0  0  0  0
  4  9  1  0  0  0  0
  4 17  2  0  0  0  0
  5 19  1  0  0  0  0
  6 21  1  0  0  0  0
  7 10  2  0  0  0  0
  7 20  1  0  0  0  0
  8 24  1  0  0  0  0
  9 24  2  0  0  0  0
 10 25  1  0  0  0  0
 11 12  2  0  0  0  0
 11 26  1  0  0  0  0
 12 27  1  0  0  0  0
 13 22  1  0  0  0  0
 13 25  2  0  0  0  0
 14 23  1  0  0  0  0
 14 30  2  0  0  0  0
 15 23  2  0  0  0  0
 15 31  1  0  0  0  0
 16 27  2  0  0  0  0
 16 28  1  0  0  0  0
 17 29  1  0  0  0  0
 18 29  1  0  0  0  0
 18 32  2  0  0  0  0
 18 33  1  0  0  0  0
 19 21  2  0  0  0  0
 19 38  1  0  0  0  0
 20 22  2  0  0  0  0
 20 39  1  0  0  0  0
 21 47  1  0  0  0  0
 22 40  1  0  0  0  0
 23 59  1  0  0  0  0
 24 87  1  0  0  0  0
 25 88  1  0  0  0  0
 26 28  2  0  0  0  0
 26 87  1  0  0  0  0
 27 90  1  0  0  0  0
 28 91  1  0  0  0  0
 29 72  2  0  0  0  0
 30 60  1  0  0  0  0
 30 73  1  0  0  0  0
 31 70  1  0  0  0  0
 31 73  2  0  0  0  0
 32 74  1  0  0  0  0
 32 77  1  0  0  0  0
 33 78  1  0  0  0  0
 33 82  2  0  0  0  0
 34 48  1  0  0  0  0
 34 79  1  0  0  0  0
 34 83  2  0  0  0  0
 35 67  1  0  0  0  0
 35 75  1  0  0  0  0
 35 84  2  0  0  0  0
 36 68  1  0  0  0  0
 36 80  1  0  0  0  0
 36 85  2  0  0  0  0
 37 76  1  0  0  0  0
 37 86  2  0  0  0  0
 37 89  1  0  0  0  0
 38 41  1  0  0  0  0
 39 48  1  0  0  0  0
 40 75  1  0  0  0  0
 41 43  1  0  0  0  0
 42 44  1  0  0  0  0
 42 45  1  0  0  0  0
 43 47  1  0  0  0  0
 44 49  1  0  0  0  0
 45 76  1  0  0  0  0
 46 49  1  0  0  0  0
 46 76  1  0  0  0  0
 47 79  1  0  0  0  0
 48 75  1  0  0  0  0
 49 74  1  0  0  0  0
 50 61  1  0  0  0  0
 51 62  1  0  0  0  0
 52 68  1  0  0  0  0
 53 69  1  0  0  0  0
 54 69  1  0  0  0  0
 55 71  1  0  0  0  0
 56 71  1  0  0  0  0
 57 71  1  0  0  0  0
 58 81  1  0  0  0  0
 59 65  1  0  0  0  0
 60 63  1  0  0  0  0
 61 70  1  0  0  0  0
 62 70  1  0  0  0  0
 63 64  1  0  0  0  0
 64 69  1  0  0  0  0
 65 88  1  0  0  0  0
 66 70  1  0  0  0  0
 66 89  1  0  0  0  0
 67 71  1  0  0  0  0
 67 80  1  0  0  0  0
 68 81  1  0  0  0  0
 72 74  1  0  0  0  0
M  CHG  1  81   1
M  ISO  4  37 100  65 101  88 101  89 100
M  END
> <Batch ID>
0089

> <Smiles>
CCC(CC)(C[100O:0][100C:0](=O)N1CCCC(n2nc(-c3ccc(Oc4ccc(F)cc4F)cc3)c(C(N)=O)c2N)C1)c1cc(C[101CH2:1][101O:1]c2ccc3c(c2)CN(C(=O)C(NC(=O)C(C)NC)C(C)(C)C)C(C(=O)NC2CCCc4ccccc42)C3)cc(CCCC(C)C)n1

> <Shape>
0.278

> <Color>
0.195

> <Negative vol penalty>
0.000

$$$$

  -OEChem-04052319063D

 88 96  0     1  0  0  0  0  0999 V2000
  -17.4788  -26.0858   22.6422 C   0  0  0  0  0  0  0  0  0  0  0  0
  -18.7783  -25.5928   22.7027 C   0  0  0  0  0  0  0  0  0  0  0  0
  -22.1147  -15.4657   21.9378 C   0  0  0  0  0  0  0  0  0  0  0  0
  -24.2258  -14.7317   21.0206 C   0  0  0  0  0  0  0  0  0  0  0  0
  -17.2452  -27.3754   22.1666 C   0  0  0  0  0  0  0  0  0  0  0  0
  -19.8449  -26.3887   22.2865 C   0  0  0  0  0  0  0  0  0  0  0  0
  -25.4904  -26.5128   24.6568 C   0  0  0  0  0  0  0  0  0  0  0  0
  -21.5431  -14.2377   21.6049 C   0  0  0  0  0  0  0  0  0  0  0  0
  -23.6543  -13.5037   20.6877 C   0  0  0  0  0  0  0  0  0  0  0  0
  -26.6854  -25.9105   24.2656 C   0  0  0  0  0  0  0  0  0  0  0  0
  -22.8317  -10.6313   22.2666 C   0  0  0  0  0  0  0  0  0  0  0  0
  -23.5588   -9.4783   22.5625 C   0  0  0  0  0  0  0  0  0  0  0  0
  -27.3208  -27.9329   23.1144 C   0  0  0  0  0  0  0  0  0  0  0  0
  -29.8881  -23.2720   18.0290 C   0  0  0  0  0  0  0  0  0  0  0  0
  -23.5761   -8.8881   20.2198 C   0  0  0  0  0  0  0  0  0  0  0  0
  -23.4560  -15.7128   21.6456 C   0  0  0  0  0  0  0  0  0  0  0  0
  -24.6892  -17.3216   23.1943 C   0  0  0  0  0  0  0  0  0  0  0  0
  -18.3103  -28.1911   21.7534 C   0  0  0  0  0  0  0  0  0  0  0  0
  -25.1963  -27.8282   24.2699 C   0  0  0  0  0  0  0  0  0  0  0  0
  -19.6251  -27.6900   21.8036 C   0  0  0  0  0  0  0  0  0  0  0  0
  -26.1226  -28.5505   23.5041 C   0  0  0  0  0  0  0  0  0  0  0  0
  -30.9441  -23.3765   18.9676 C   0  0  0  0  0  0  0  0  0  0  0  0
  -22.3129  -13.2566   20.9799 C   0  0  0  0  0  0  0  0  0  0  0  0
  -27.5995  -26.6196   23.4919 C   0  0  0  0  0  0  0  0  0  0  0  0
  -22.4767  -10.9126   20.9473 C   0  0  0  0  0  0  0  0  0  0  0  0
  -23.9310   -8.6067   21.5391 C   0  0  0  0  0  0  0  0  0  0  0  0
  -22.8490  -10.0410   19.9239 C   0  0  0  0  0  0  0  0  0  0  0  0
  -24.0469  -16.9813   21.9887 C   0  0  0  0  0  0  0  0  0  0  0  0
  -29.4865  -21.9546   18.0067 C   0  0  0  0  0  0  0  0  0  0  0  0
  -31.1558  -22.1197   19.4902 C   0  0  0  0  0  0  0  0  0  0  0  0
  -25.0705  -18.6299   23.0228 C   0  0  0  0  0  0  0  0  0  0  0  0
  -24.9206  -16.5262   24.3645 C   0  0  0  0  0  0  0  0  0  0  0  0
  -22.9218  -29.1966   22.5212 C   0  0  0  0  0  0  0  0  0  0  0  0
  -24.3422  -31.9355   23.5228 C   0  0  0  0  0  0  0  0  0  0  0  0
  -27.1510  -33.4836   24.6892 C   0  0  0  0  0  0  0  0  0  0  0  0
  -26.2277  -21.9367   18.1672 C   0  0  0  0  0  0  0  0  0  0  0  0
  -18.0040  -29.5611   21.2021 C   0  0  0  0  0  0  0  0  0  0  0  0
  -23.9148  -28.4727   24.7225 C   0  0  0  0  0  0  0  0  0  0  0  0
  -25.8634  -29.9721   23.0796 C   0  0  0  0  0  0  0  0  0  0  0  0
  -19.2239  -30.4762   21.1321 C   0  0  0  0  0  0  0  0  0  0  0  0
  -23.8198  -22.6208   20.6991 C   0  0  0  0  0  0  0  0  0  0  0  0
  -20.4115  -29.7369   20.5240 C   0  0  0  0  0  0  0  0  0  0  0  0
  -23.6629  -21.2837   21.4255 C   0  0  0  0  0  0  0  0  0  0  0  0
  -24.0296  -22.4268   19.1989 C   0  0  0  0  0  0  0  0  0  0  0  0
  -24.9789  -20.1824   19.5670 C   0  0  0  0  0  0  0  0  0  0  0  0
  -20.8107  -28.5320   21.3845 C   0  0  1  0  0  0  0  0  0  0  0  0
  -23.4894  -29.6416   23.8393 C   0  0  1  0  0  0  0  0  0  0  0  0
  -24.8207  -20.3244   21.0905 C   0  0  2  0  0  0  0  0  0  0  0  0
  -32.1309  -21.6607   20.5024 C   0  0  0  0  0  0  0  0  0  0  0  0
  -32.4546  -25.1825   18.1051 C   0  0  0  0  0  0  0  0  0  0  0  0
  -28.0163  -35.7355   25.3803 C   0  0  0  0  0  0  0  0  0  0  0  0
  -28.5171  -17.3153   19.7398 C   0  0  0  0  0  0  0  0  0  0  0  0
  -28.6223  -17.8900   22.1728 C   0  0  0  0  0  0  0  0  0  0  0  0
  -24.5463  -32.7543   20.5905 C   0  0  0  0  0  0  0  0  0  0  0  0
  -26.2195  -34.4907   21.2641 C   0  0  0  0  0  0  0  0  0  0  0  0
  -23.8883  -34.5992   22.1454 C   0  0  0  0  0  0  0  0  0  0  0  0
  -27.7136  -32.5516   27.4413 C   0  0  0  0  0  0  0  0  0  0  0  0
  -28.4276  -21.3013   17.2101 C   0  0  0  0  0  0  0  0  0  0  0  0
  -30.1490  -25.3323   21.2537 C   0  0  0  0  0  0  0  0  0  0  0  0
  -30.7911  -25.7441   19.9210 C   0  0  0  0  0  0  0  0  0  0  0  0
  -29.4353  -19.5716   20.4930 C   0  0  0  0  0  0  0  0  0  0  0  0
  -30.1594  -19.8457   19.1733 C   0  0  0  0  0  0  0  0  0  0  0  0
  -29.3314  -26.4619   21.8697 C   0  0  0  0  0  0  0  0  0  1  0  0
  -31.6984  -24.6452   19.3264 C   0  0  1  0  0  0  0  0  0  0  0  0
  -25.4568  -32.8127   23.0058 C   0  0  1  0  0  0  0  0  0  0  0  0
  -27.3659  -34.4422   25.8465 C   0  0  2  0  0  0  0  0  0  0  0  0
  -29.3008  -18.0721   20.8130 C   0  0  0  0  0  0  0  0  0  0  0  0
  -25.0320  -33.6368   21.7577 C   0  0  0  0  0  0  0  0  0  0  0  0
  -24.0196  -17.9920   21.1159 N   0  0  0  0  0  0  0  0  0  0  0  0
  -30.2643  -21.2634   18.8986 N   0  0  0  0  0  0  0  0  0  0  0  0
  -24.6495  -18.9802   21.7737 N   0  0  0  0  0  0  0  0  0  0  0  0
  -24.5935  -30.5562   23.5418 N   0  0  0  0  0  0  0  0  0  0  0  0
  -25.1427  -21.5078   18.9494 N   0  0  0  0  0  0  0  0  0  0  0  0
  -25.7214  -19.5034   23.8201 N   0  0  0  0  0  0  0  0  0  0  0  0
  -24.4630  -15.2015   24.3732 N   0  0  0  0  0  0  0  0  0  0  0  0
  -21.5597  -28.9652   22.5445 N   0  0  0  0  0  0  0  0  0  0  0  0
  -25.8957  -33.6237   24.1363 N   0  0  0  0  0  0  0  0  0  0  0  0
  -27.2432  -21.0059   17.9851 N   0  0  0  0  0  0  0  0  0  0  0  0
  -28.2432  -33.8203   26.8783 N   0  3  0  0  0  0  0  0  0  0  0  0
  -25.5010  -16.9818   25.3789 O   0  0  0  0  0  0  0  0  0  0  0  0
  -23.6644  -29.0737   21.5542 O   0  0  0  0  0  0  0  0  0  0  0  0
  -23.2901  -32.4555   23.9026 O   0  0  0  0  0  0  0  0  0  0  0  0
  -28.0121  -32.6923   24.3110 O   0  0  0  0  0  0  0  0  0  0  0  0
  -26.2895  -23.0674   17.6725 O   0  0  0  0  0  0  0  0  0  0  0  0
  -21.7555  -12.0581   20.6551 O   0  0  0  0  0  0  0  0  0  0  0  0
  -28.7664  -26.0338   23.1081 O   0  0  0  0  0  0  0  0  0  1  0  0
  -24.6306   -7.5003   21.8232 F   0  0  0  0  0  0  0  0  0  0  0  0
  -22.5119  -10.3066   18.6544 F   0  0  0  0  0  0  0  0  0  0  0  0
  1  2  1  0  0  0  0
  1  5  2  0  0  0  0
  2  6  2  0  0  0  0
  3  8  2  0  0  0  0
  3 16  1  0  0  0  0
  4  9  1  0  0  0  0
  4 16  2  0  0  0  0
  5 18  1  0  0  0  0
  6 20  1  0  0  0  0
  7 10  2  0  0  0  0
  7 19  1  0  0  0  0
  8 23  1  0  0  0  0
  9 23  2  0  0  0  0
 10 24  1  0  0  0  0
 11 12  2  0  0  0  0
 11 25  1  0  0  0  0
 12 26  1  0  0  0  0
 13 21  1  0  0  0  0
 13 24  2  0  0  0  0
 14 22  1  0  0  0  0
 14 29  2  0  0  0  0
 15 26  2  0  0  0  0
 15 27  1  0  0  0  0
 16 28  1  0  0  0  0
 17 28  1  0  0  0  0
 17 31  2  0  0  0  0
 17 32  1  0  0  0  0
 18 20  2  0  0  0  0
 18 37  1  0  0  0  0
 19 21  2  0  0  0  0
 19 38  1  0  0  0  0
 20 46  1  0  0  0  0
 21 39  1  0  0  0  0
 22 30  2  0  0  0  0
 22 64  1  0  0  0  0
 23 85  1  0  0  0  0
 24 86  1  0  0  0  0
 25 27  2  0  0  0  0
 25 85  1  0  0  0  0
 26 87  1  0  0  0  0
 27 88  1  0  0  0  0
 28 69  2  0  0  0  0
 29 58  1  0  0  0  0
 29 70  1  0  0  0  0
 30 49  1  0  0  0  0
 30 70  1  0  0  0  0
 31 71  1  0  0  0  0
 31 74  1  0  0  0  0
 32 75  1  0  0  0  0
 32 80  2  0  0  0  0
 33 47  1  0  0  0  0
 33 76  1  0  0  0  0
 33 81  2  0  0  0  0
 34 65  1  0  0  0  0
 34 72  1  0  0  0  0
 34 82  2  0  0  0  0
 35 66  1  0  0  0  0
 35 77  1  0  0  0  0
 35 83  2  0  0  0  0
 36 73  1  0  0  0  0
 36 78  1  0  0  0  0
 36 84  2  0  0  0  0
 37 40  1  0  0  0  0
 38 47  1  0  0  0  0
 39 72  1  0  0  0  0
 40 42  1  0  0  0  0
 41 43  1  0  0  0  0
 41 44  1  0  0  0  0
 42 46  1  0  0  0  0
 43 48  1  0  0  0  0
 44 73  1  0  0  0  0
 45 48  1  0  0  0  0
 45 73  1  0  0  0  0
 46 76  1  0  0  0  0
 47 72  1  0  0  0  0
 48 71  1  0  0  0  0
 50 64  1  0  0  0  0
 51 66  1  0  0  0  0
 52 67  1  0  0  0  0
 53 67  1  0  0  0  0
 54 68  1  0  0  0  0
 55 68  1  0  0  0  0
 56 68  1  0  0  0  0
 57 79  1  0  0  0  0
 58 78  1  0  0  0  0
 59 60  1  0  0  0  0
 59 63  1  0  0  0  0
 60 64  1  0  0  0  0
 61 62  1  0  0  0  0
 61 67  1  0  0  0  0
 62 70  1  0  0  0  0
 63 86  1  0  0  0  0
 65 68  1  0  0  0  0
 65 77  1  0  0  0  0
 66 79  1  0  0  0  0
 69 71  1  0  0  0  0
M  CHG  1  79   1
M  ISO  4  36 100  63 101  78 100  86 101
M  END
> <Batch ID>
0089

> <Smiles>
CNC(C)C(=O)NC(C(=O)N1Cc2cc([101O:1][101CH2:1]CCC(C)c3cc(C[100NH:0][100C:0](=O)N4CCCC(n5nc(-c6ccc(Oc7ccc(F)cc7F)cc6)c(C(N)=O)c5N)C4)n(CCC(C)C)c3C)ccc2CC1C(=O)NC1CCCc2ccccc21)C(C)(C)C

> <Shape>
0.239

> <Color>
0.068

> <Negative vol penalty>
0.000

$$$$

  -OEChem-04052319063D

 89 97  0     1  0  0  0  0  0999 V2000
  -17.2898  -29.2433   24.6977 C   0  0  0  0  0  0  0  0  0  0  0  0
  -18.1483  -28.1762   24.4530 C   0  0  0  0  0  0  0  0  0  0  0  0
  -23.9369   -9.5821   21.9282 C   0  0  0  0  0  0  0  0  0  0  0  0
  -21.9247  -10.2917   20.7947 C   0  0  0  0  0  0  0  0  0  0  0  0
  -17.3020  -30.3537   23.8547 C   0  0  0  0  0  0  0  0  0  0  0  0
  -19.0186  -28.2185   23.3644 C   0  0  0  0  0  0  0  0  0  0  0  0
  -23.6968  -26.6895   24.5567 C   0  0  0  0  0  0  0  0  0  0  0  0
  -23.5112   -8.2559   21.8538 C   0  0  0  0  0  0  0  0  0  0  0  0
  -21.4990   -8.9654   20.7203 C   0  0  0  0  0  0  0  0  0  0  0  0
  -23.9097  -25.3159   24.6642 C   0  0  0  0  0  0  0  0  0  0  0  0
  -21.3444   -6.2406   23.4870 C   0  0  0  0  0  0  0  0  0  0  0  0
  -21.4701   -5.4551   24.6328 C   0  0  0  0  0  0  0  0  0  0  0  0
  -24.8667  -25.2970   22.4500 C   0  0  0  0  0  0  0  0  0  0  0  0
  -28.1707  -22.5421   24.6845 C   0  0  0  0  0  0  0  0  0  0  0  0
  -22.9110   -3.9330   23.4311 C   0  0  0  0  0  0  0  0  0  0  0  0
  -23.1436  -10.6000   21.3987 C   0  0  0  0  0  0  0  0  0  0  0  0
  -24.3600  -12.6682   20.5322 C   0  0  0  0  0  0  0  0  0  0  0  0
  -18.1797  -30.4139   22.7609 C   0  0  0  0  0  0  0  0  0  0  0  0
  -24.0579  -27.3765   23.3887 C   0  0  0  0  0  0  0  0  0  0  0  0
  -19.0416  -29.3303   22.5052 C   0  0  0  0  0  0  0  0  0  0  0  0
  -24.6597  -26.6798   22.3311 C   0  0  0  0  0  0  0  0  0  0  0  0
  -29.2069  -22.4290   23.7249 C   0  0  0  0  0  0  0  0  0  0  0  0
  -22.2923   -7.9476   21.2498 C   0  0  0  0  0  0  0  0  0  0  0  0
  -24.4921  -24.6189   23.6097 C   0  0  0  0  0  0  0  0  0  0  0  0
  -22.0019   -5.8722   22.3133 C   0  0  0  0  0  0  0  0  0  0  0  0
  -22.2534   -4.3013   24.6049 C   0  0  0  0  0  0  0  0  0  0  0  0
  -22.7852   -4.7184   22.2853 C   0  0  0  0  0  0  0  0  0  0  0  0
  -23.5826  -11.9702   21.4758 C   0  0  0  0  0  0  0  0  0  0  0  0
  -27.1346  -21.7356   24.2681 C   0  0  0  0  0  0  0  0  0  0  0  0
  -28.7723  -21.5569   22.7512 C   0  0  0  0  0  0  0  0  0  0  0  0
  -24.5013  -13.9256   21.0665 C   0  0  0  0  0  0  0  0  0  0  0  0
  -24.9054  -12.2201   19.2843 C   0  0  0  0  0  0  0  0  0  0  0  0
  -22.4811  -29.0404   21.1867 C   0  0  0  0  0  0  0  0  0  0  0  0
  -25.4664  -29.6671   20.0831 C   0  0  0  0  0  0  0  0  0  0  0  0
  -28.7416  -28.7272   19.8932 C   0  0  0  0  0  0  0  0  0  0  0  0
  -22.3517  -18.3988   23.6190 C   0  0  0  0  0  0  0  0  0  0  0  0
  -18.1234  -31.6147   21.8501 C   0  0  0  0  0  0  0  0  0  0  0  0
  -23.8461  -28.8629   23.2989 C   0  0  0  0  0  0  0  0  0  0  0  0
  -25.0840  -27.3741   21.0637 C   0  0  0  0  0  0  0  0  0  0  0  0
  -19.3394  -31.7438   20.9363 C   0  0  0  0  0  0  0  0  0  0  0  0
  -23.3943  -15.6871   25.6772 C   0  0  0  0  0  0  0  0  0  0  0  0
  -19.6660  -30.4014   20.2896 C   0  0  0  0  0  0  0  0  0  0  0  0
  -23.5941  -14.5350   24.6909 C   0  0  0  0  0  0  0  0  0  0  0  0
  -22.2116  -16.5689   25.2828 C   0  0  0  0  0  0  0  0  0  0  0  0
  -22.4558  -15.9310   22.9149 C   0  0  0  0  0  0  0  0  0  0  0  0
  -20.0176  -29.3498   21.3488 C   0  0  1  0  0  0  0  0  0  0  0  0
  -23.7819  -29.3715   21.8620 C   0  0  1  0  0  0  0  0  0  0  0  0
  -23.6716  -15.0463   23.2397 C   0  0  2  0  0  0  0  0  0  0  0  0
  -29.4498  -21.0832   21.5255 C   0  0  0  0  0  0  0  0  0  0  0  0
  -30.4163  -24.5940   23.3557 C   0  0  0  0  0  0  0  0  0  0  0  0
  -25.9443  -20.8212   26.2877 C   0  0  0  0  0  0  0  0  0  0  0  0
  -30.9348  -29.4199   18.8894 C   0  0  0  0  0  0  0  0  0  0  0  0
  -23.3984  -21.7896   20.1190 C   0  0  0  0  0  0  0  0  0  0  0  0
  -24.5360  -28.6560   17.3587 C   0  0  0  0  0  0  0  0  0  0  0  0
  -26.9399  -28.4733   16.6834 C   0  0  0  0  0  0  0  0  0  0  0  0
  -25.9786  -30.6973   17.2769 C   0  0  0  0  0  0  0  0  0  0  0  0
  -30.0011  -29.0166   22.5557 C   0  0  0  0  0  0  0  0  0  0  0  0
  -25.4187  -19.3881   19.5586 C   0  0  0  0  0  0  0  0  0  0  0  0
  -30.5102  -23.1214   23.7683 C   0  0  0  0  0  0  0  0  0  0  0  0
  -26.7007  -20.2180   22.3265 C   0  0  0  0  0  0  0  0  0  0  0  0
  -22.5195  -20.1186   21.8376 C   0  0  0  0  0  0  0  0  0  0  0  0
  -25.5862  -20.8915   21.5366 C   0  0  0  0  0  0  0  0  0  0  0  0
  -24.9408  -22.7556   25.0178 C   0  0  0  0  0  0  0  0  0  1  0  0
  -25.7822  -21.4763   24.9131 C   0  0  1  0  0  0  0  0  0  0  0  0
  -26.4057  -29.0038   19.1050 C   0  0  1  0  0  0  0  0  0  0  0  0
  -30.0271  -29.5061   20.1065 C   0  0  2  0  0  0  0  0  0  0  0  0
  -23.3552  -20.3387   20.5785 C   0  0  2  0  0  0  0  0  0  0  0  0
  -25.9554  -29.1939   17.6290 C   0  0  0  0  0  0  0  0  0  0  0  0
  -23.2533  -12.7218   22.5297 N   0  0  0  0  0  0  0  0  0  0  0  0
  -27.5113  -21.1420   23.0917 N   0  0  0  0  0  0  0  0  0  0  0  0
  -23.8266  -13.9050   22.2516 N   0  0  0  0  0  0  0  0  0  0  0  0
  -24.8502  -28.8271   21.0215 N   0  0  0  0  0  0  0  0  0  0  0  0
  -22.3469  -17.0218   23.8963 N   0  0  0  0  0  0  0  0  0  0  0  0
  -25.1358  -15.0357   20.6336 N   0  0  0  0  0  0  0  0  0  0  0  0
  -24.6645  -10.8981   18.8861 N   0  0  0  0  0  0  0  0  0  0  0  0
  -21.3683  -29.5483   21.8293 N   0  0  0  0  0  0  0  0  0  0  0  0
  -27.7355  -29.5284   19.3963 N   0  0  0  0  0  0  0  0  0  0  0  0
  -22.4906  -18.7422   22.2797 N   0  0  0  0  0  0  0  0  0  0  0  0
  -30.7676  -28.9710   21.2839 N   0  3  0  0  0  0  0  0  0  0  0  0
  -24.7688  -19.8743   20.8309 N   0  3  1  0  0  0  0  0  0  0  0  0
  -25.6001  -12.9649   18.5520 O   0  0  0  0  0  0  0  0  0  0  0  0
  -22.4869  -28.3746   20.1579 O   0  0  0  0  0  0  0  0  0  0  0  0
  -25.2915  -30.8866   20.0215 O   0  0  0  0  0  0  0  0  0  0  0  0
  -28.6413  -27.5272   20.1390 O   0  0  0  0  0  0  0  0  0  0  0  0
  -22.2459  -19.2586   24.5002 O   0  0  0  0  0  0  0  0  0  0  0  0
  -21.8767   -6.6535   21.1768 O   0  0  0  0  0  0  0  0  0  0  0  0
  -24.7004  -23.2780   23.7118 O   0  0  0  0  0  0  0  0  0  1  0  0
  -22.3753   -3.5479   25.7057 F   0  0  0  0  0  0  0  0  0  0  0  0
  -23.4203   -4.3601   21.1610 F   0  0  0  0  0  0  0  0  0  0  0  0
  1  2  1  0  0  0  0
  1  5  2  0  0  0  0
  2  6  2  0  0  0  0
  3  8  2  0  0  0  0
  3 16  1  0  0  0  0
  4  9  1  0  0  0  0
  4 16  2  0  0  0  0
  5 18  1  0  0  0  0
  6 20  1  0  0  0  0
  7 10  2  0  0  0  0
  7 19  1  0  0  0  0
  8 23  1  0  0  0  0
  9 23  2  0  0  0  0
 10 24  1  0  0  0  0
 11 12  2  0  0  0  0
 11 25  1  0  0  0  0
 12 26  1  0  0  0  0
 13 21  1  0  0  0  0
 13 24  2  0  0  0  0
 14 22  1  0  0  0  0
 14 29  2  0  0  0  0
 15 26  2  0  0  0  0
 15 27  1  0  0  0  0
 16 28  1  0  0  0  0
 17 28  1  0  0  0  0
 17 31  2  0  0  0  0
 17 32  1  0  0  0  0
 18 20  2  0  0  0  0
 18 37  1  0  0  0  0
 19 21  2  0  0  0  0
 19 38  1  0  0  0  0
 20 46  1  0  0  0  0
 21 39  1  0  0  0  0
 22 30  2  0  0  0  0
 22 59  1  0  0  0  0
 23 86  1  0  0  0  0
 24 87  1  0  0  0  0
 25 27  2  0  0  0  0
 25 86  1  0  0  0  0
 26 88  1  0  0  0  0
 27 89  1  0  0  0  0
 28 69  2  0  0  0  0
 29 64  1  0  0  0  0
 29 70  1  0  0  0  0
 30 49  1  0  0  0  0
 30 70  1  0  0  0  0
 31 71  1  0  0  0  0
 31 74  1  0  0  0  0
 32 75  1  0  0  0  0
 32 81  2  0  0  0  0
 33 47  1  0  0  0  0
 33 76  1  0  0  0  0
 33 82  2  0  0  0  0
 34 65  1  0  0  0  0
 34 72  1  0  0  0  0
 34 83  2  0  0  0  0
 35 66  1  0  0  0  0
 35 77  1  0  0  0  0
 35 84  2  0  0  0  0
 36 73  1  0  0  0  0
 36 78  1  0  0  0  0
 36 85  2  0  0  0  0
 37 40  1  0  0  0  0
 38 47  1  0  0  0  0
 39 72  1  0  0  0  0
 40 42  1  0  0  0  0
 41 43  1  0  0  0  0
 41 44  1  0  0  0  0
 42 46  1  0  0  0  0
 43 48  1  0  0  0  0
 44 73  1  0  0  0  0
 45 48  1  0  0  0  0
 45 73  1  0  0  0  0
 46 76  1  0  0  0  0
 47 72  1  0  0  0  0
 48 71  1  0  0  0  0
 50 59  1  0  0  0  0
 51 64  1  0  0  0  0
 52 66  1  0  0  0  0
 53 67  1  0  0  0  0
 54 68  1  0  0  0  0
 55 68  1  0  0  0  0
 56 68  1  0  0  0  0
 57 79  1  0  0  0  0
 58 80  1  0  0  0  0
 60 62  1  0  0  0  0
 60 70  1  0  0  0  0
 61 67  1  0  0  0  0
 61 78  1  0  0  0  0
 62 80  1  0  0  0  0
 63 64  1  0  0  0  0
 63 87  1  0  0  0  0
 65 68  1  0  0  0  0
 65 77  1  0  0  0  0
 66 79  1  0  0  0  0
 67 80  1  0  0  0  0
 69 71  1  0  0  0  0
M  CHG  2  79   1  80   1
M  ISO  4  36 100  63 101  78 100  87 101
M  END
> <Batch ID>
0089

> <Smiles>
CCc1cc(C(C)[101CH2:1][101O:1]c2ccc3c(c2)CN(C(=O)C(NC(=O)C(C)NC)C(C)(C)C)C(C(=O)NC2CCCc4ccccc42)C3)n(CCN(C)C(C)C[100NH:0][100C:0](=O)N2CCCC(n3nc(-c4ccc(Oc5ccc(F)cc5F)cc4)c(C(N)=O)c3N)C2)c1C

> <Shape>
0.195

> <Color>
0.121

> <Negative vol penalty>
0.000

$$$$

  -OEChem-04052319063D

 84 92  0     1  0  0  0  0  0999 V2000
  -22.3796  -11.9253   18.5616 C   0  0  0  0  0  0  0  0  0  0  0  0
  -22.1359  -13.2950   18.5593 C   0  0  0  0  0  0  0  0  0  0  0  0
  -30.9422  -25.4392   18.8457 C   0  0  0  0  0  0  0  0  0  0  0  0
  -31.4420  -26.9360   20.6752 C   0  0  0  0  0  0  0  0  0  0  0  0
  -23.4032  -11.4019   19.3504 C   0  0  0  0  0  0  0  0  0  0  0  0
  -22.9149  -14.1419   19.3469 C   0  0  0  0  0  0  0  0  0  0  0  0
  -24.6400  -19.8631   18.0060 C   0  0  0  0  0  0  0  0  0  0  0  0
  -32.2478  -25.5785   18.3751 C   0  0  0  0  0  0  0  0  0  0  0  0
  -32.7476  -27.0752   20.2046 C   0  0  0  0  0  0  0  0  0  0  0  0
  -24.1362  -21.1073   18.3826 C   0  0  0  0  0  0  0  0  0  0  0  0
  -36.3162  -27.5415   19.6890 C   0  0  0  0  0  0  0  0  0  0  0  0
  -37.3529  -27.4686   20.6193 C   0  0  0  0  0  0  0  0  0  0  0  0
  -25.7680  -21.2247   20.1554 C   0  0  0  0  0  0  0  0  0  0  0  0
  -36.6634  -25.2302   21.2123 C   0  0  0  0  0  0  0  0  0  0  0  0
  -20.3094  -26.8079   21.3997 C   0  0  0  0  0  0  0  0  0  0  0  0
  -30.5392  -26.1180   19.9957 C   0  0  0  0  0  0  0  0  0  0  0  0
  -28.7136  -25.0168   21.3965 C   0  0  0  0  0  0  0  0  0  0  0  0
  -24.2014  -12.2439   20.1406 C   0  0  0  0  0  0  0  0  0  0  0  0
  -25.7063  -19.2844   18.7092 C   0  0  0  0  0  0  0  0  0  0  0  0
  -23.9492  -13.6291   20.1480 C   0  0  0  0  0  0  0  0  0  0  0  0
  -26.2852  -19.9742   19.7841 C   0  0  0  0  0  0  0  0  0  0  0  0
  -33.1506  -26.3965   19.0545 C   0  0  0  0  0  0  0  0  0  0  0  0
  -24.6984  -21.7870   19.4592 C   0  0  0  0  0  0  0  0  0  0  0  0
  -35.4531  -26.4588   19.5203 C   0  0  0  0  0  0  0  0  0  0  0  0
  -37.5266  -26.3130   21.3809 C   0  0  0  0  0  0  0  0  0  0  0  0
  -35.6267  -25.3032   20.2819 C   0  0  0  0  0  0  0  0  0  0  0  0
  -29.1905  -25.9750   20.4820 C   0  0  0  0  0  0  0  0  0  0  0  0
  -20.2793  -25.4393   21.5747 C   0  0  0  0  0  0  0  0  0  0  0  0
  -19.7969  -27.5543   22.4411 C   0  0  0  0  0  0  0  0  0  0  0  0
  -27.3769  -25.3033   21.5283 C   0  0  0  0  0  0  0  0  0  0  0  0
  -19.3186  -25.6716   23.6217 C   0  0  0  0  0  0  0  0  0  0  0  0
  -29.4163  -23.9620   22.0669 C   0  0  0  0  0  0  0  0  0  0  0  0
  -26.0917  -16.6280   20.4118 C   0  0  0  0  0  0  0  0  0  0  0  0
  -29.1902  -17.5855   20.4796 C   0  0  0  0  0  0  0  0  0  0  0  0
  -31.4374  -20.1443   20.2571 C   0  0  0  0  0  0  0  0  0  0  0  0
  -23.3393  -28.9187   22.2860 C   0  0  0  0  0  0  0  0  0  0  0  0
  -25.2656  -11.6266   21.0131 C   0  0  0  0  0  0  0  0  0  0  0  0
  -26.2556  -17.9536   18.2737 C   0  0  0  0  0  0  0  0  0  0  0  0
  -27.4446  -19.4055   20.5591 C   0  0  0  0  0  0  0  0  0  0  0  0
  -26.2883  -12.6344   21.5316 C   0  0  0  0  0  0  0  0  0  0  0  0
  -24.3925  -28.3985   18.8629 C   0  0  0  0  0  0  0  0  0  0  0  0
  -25.5870  -13.8765   22.0722 C   0  0  0  0  0  0  0  0  0  0  0  0
  -25.7044  -27.6369   19.0606 C   0  0  0  0  0  0  0  0  0  0  0  0
  -24.2084  -29.4699   19.9336 C   0  0  0  0  0  0  0  0  0  0  0  0
  -25.5882  -28.1997   21.5324 C   0  0  0  0  0  0  0  0  0  0  0  0
  -24.7888  -14.5830   20.9698 C   0  0  1  0  0  0  0  0  0  0  0  0
  -27.0089  -17.2261   19.3830 C   0  0  1  0  0  0  0  0  0  0  0  0
  -25.8223  -27.0871   20.4945 C   0  0  2  0  0  0  0  0  0  0  0  0
  -18.7715  -25.0414   24.8575 C   0  0  0  0  0  0  0  0  0  0  0  0
  -33.8970  -20.6232   20.3916 C   0  0  0  0  0  0  0  0  0  0  0  0
  -20.8321  -31.1772   23.2272 C   0  0  0  0  0  0  0  0  0  0  0  0
  -29.0696  -17.3384   23.5184 C   0  0  0  0  0  0  0  0  0  0  0  0
  -31.1646  -18.7036   23.6429 C   0  0  0  0  0  0  0  0  0  0  0  0
  -31.1851  -16.4936   22.4862 C   0  0  0  0  0  0  0  0  0  0  0  0
  -31.5130  -21.1440   17.4725 C   0  0  0  0  0  0  0  0  0  0  0  0
  -20.8178  -24.5397   20.4911 C   0  0  0  0  0  0  0  0  0  0  0  0
  -19.7885  -29.0432   22.3436 C   0  0  0  0  0  0  0  0  0  0  0  0
  -22.3071  -24.2205   20.6392 C   0  0  0  0  0  0  0  0  0  0  0  0
  -22.8223  -23.2429   19.5894 C   0  0  0  0  0  0  0  0  0  1  0  0
  -30.0211  -18.4538   21.3932 C   0  0  1  0  0  0  0  0  0  0  0  0
  -32.7315  -20.2833   19.4758 C   0  0  2  0  0  0  0  0  0  0  0  0
  -21.0675  -29.7062   22.8991 C   0  0  1  0  0  0  0  0  0  0  0  0
  -30.3370  -17.7575   22.7470 C   0  0  0  0  0  0  0  0  0  0  0  0
  -28.2343  -26.8079   20.0625 N   0  0  0  0  0  0  0  0  0  0  0  0
  -19.7893  -24.8352   22.6770 N   0  0  0  0  0  0  0  0  0  0  0  0
  -19.2915  -27.0171   23.5708 N   0  0  0  0  0  0  0  0  0  0  0  0
  -27.1433  -26.3739   20.7162 N   0  0  0  0  0  0  0  0  0  0  0  0
  -27.9422  -18.0986   20.0987 N   0  0  0  0  0  0  0  0  0  0  0  0
  -24.3135  -28.8778   21.2747 N   0  0  0  0  0  0  0  0  0  0  0  0
  -26.3902  -24.7414   22.2584 N   0  0  0  0  0  0  0  0  0  0  0  0
  -30.7868  -23.8082   21.8174 N   0  0  0  0  0  0  0  0  0  0  0  0
  -25.6733  -15.3450   20.1146 N   0  0  0  0  0  0  0  0  0  0  0  0
  -31.2028  -18.8373   20.6284 N   0  0  0  0  0  0  0  0  0  0  0  0
  -22.1638  -29.5859   21.9638 N   0  0  0  0  0  0  0  0  0  0  0  0
  -32.6066  -21.3612   18.4542 N   0  3  0  0  0  0  0  0  0  0  0  0
  -28.8422  -23.1688   22.8510 O   0  0  0  0  0  0  0  0  0  0  0  0
  -25.7872  -17.2816   21.4028 O   0  0  0  0  0  0  0  0  0  0  0  0
  -29.6352  -16.4955   20.1116 O   0  0  0  0  0  0  0  0  0  0  0  0
  -30.7094  -21.1002   20.5155 O   0  0  0  0  0  0  0  0  0  0  0  0
  -23.5028  -28.3945   23.3930 O   0  0  0  0  0  0  0  0  0  0  0  0
  -34.4248  -26.5324   18.5957 O   0  0  0  0  0  0  0  0  0  0  0  0
  -24.2081  -23.0013   19.8294 O   0  0  0  0  0  0  0  0  0  1  0  0
  -38.5231  -26.2425   22.2732 F   0  0  0  0  0  0  0  0  0  0  0  0
  -34.8014  -24.2594   20.1235 F   0  0  0  0  0  0  0  0  0  0  0  0
  1  2  1  0  0  0  0
  1  5  2  0  0  0  0
  2  6  2  0  0  0  0
  3  8  2  0  0  0  0
  3 16  1  0  0  0  0
  4  9  1  0  0  0  0
  4 16  2  0  0  0  0
  5 18  1  0  0  0  0
  6 20  1  0  0  0  0
  7 10  2  0  0  0  0
  7 19  1  0  0  0  0
  8 22  1  0  0  0  0
  9 22  2  0  0  0  0
 10 23  1  0  0  0  0
 11 12  2  0  0  0  0
 11 24  1  0  0  0  0
 12 25  1  0  0  0  0
 13 21  1  0  0  0  0
 13 23  2  0  0  0  0
 14 25  2  0  0  0  0
 14 26  1  0  0  0  0
 15 28  1  0  0  0  0
 15 29  2  0  0  0  0
 16 27  1  0  0  0  0
 17 27  1  0  0  0  0
 17 30  2  0  0  0  0
 17 32  1  0  0  0  0
 18 20  2  0  0  0  0
 18 37  1  0  0  0  0
 19 21  2  0  0  0  0
 19 38  1  0  0  0  0
 20 46  1  0  0  0  0
 21 39  1  0  0  0  0
 22 81  1  0  0  0  0
 23 82  1  0  0  0  0
 24 26  2  0  0  0  0
 24 81  1  0  0  0  0
 25 83  1  0  0  0  0
 26 84  1  0  0  0  0
 27 64  2  0  0  0  0
 28 56  1  0  0  0  0
 28 65  2  0  0  0  0
 29 57  1  0  0  0  0
 29 66  1  0  0  0  0
 30 67  1  0  0  0  0
 30 70  1  0  0  0  0
 31 49  1  0  0  0  0
 31 65  1  0  0  0  0
 31 66  2  0  0  0  0
 32 71  1  0  0  0  0
 32 76  2  0  0  0  0
 33 47  1  0  0  0  0
 33 72  1  0  0  0  0
 33 77  2  0  0  0  0
 34 60  1  0  0  0  0
 34 68  1  0  0  0  0
 34 78  2  0  0  0  0
 35 61  1  0  0  0  0
 35 73  1  0  0  0  0
 35 79  2  0  0  0  0
 36 69  1  0  0  0  0
 36 74  1  0  0  0  0
 36 80  2  0  0  0  0
 37 40  1  0  0  0  0
 38 47  1  0  0  0  0
 39 68  1  0  0  0  0
 40 42  1  0  0  0  0
 41 43  1  0  0  0  0
 41 44  1  0  0  0  0
 42 46  1  0  0  0  0
 43 48  1  0  0  0  0
 44 69  1  0  0  0  0
 45 48  1  0  0  0  0
 45 69  1  0  0  0  0
 46 72  1  0  0  0  0
 47 68  1  0  0  0  0
 48 67  1  0  0  0  0
 50 61  1  0  0  0  0
 51 62  1  0  0  0  0
 52 63  1  0  0  0  0
 53 63  1  0  0  0  0
 54 63  1  0  0  0  0
 55 75  1  0  0  0  0
 56 58  1  0  0  0  0
 57 62  1  0  0  0  0
 58 59  1  0  0  0  0
 59 82  1  0  0  0  0
 60 63  1  0  0  0  0
 60 73  1  0  0  0  0
 61 75  1  0  0  0  0
 62 74  1  0  0  0  0
 64 67  1  0  0  0  0
M  CHG  1  75   1
M  ISO  4  36 100  59 101  74 100  82 101
M  END
> <Batch ID>
0089

> <Smiles>
CNC(C)C(=O)NC(C(=O)N1Cc2cc([101O:1][101CH2:1]CCc3cc(CC(C)[100NH:0][100C:0](=O)N4CCCC(n5nc(-c6ccc(Oc7ccc(F)cc7F)cc6)c(C(N)=O)c5N)C4)nc(C)n3)ccc2CC1C(=O)NC1CCCc2ccccc21)C(C)(C)C

> <Shape>
0.209

> <Color>
0.086

> <Negative vol penalty>
0.000

$$$$

  -OEChem-04052319063D

 86 94  0     1  0  0  0  0  0999 V2000
  -22.5847  -26.4811   17.2713 C   0  0  0  0  0  0  0  0  0  0  0  0
  -23.7254  -25.7025   17.4381 C   0  0  0  0  0  0  0  0  0  0  0  0
  -23.5931   -9.7796   21.4246 C   0  0  0  0  0  0  0  0  0  0  0  0
  -24.2617  -10.7684   23.5252 C   0  0  0  0  0  0  0  0  0  0  0  0
  -22.3873  -27.6066   18.0702 C   0  0  0  0  0  0  0  0  0  0  0  0
  -24.6701  -26.0496   18.4032 C   0  0  0  0  0  0  0  0  0  0  0  0
  -26.2499  -22.0631   21.0972 C   0  0  0  0  0  0  0  0  0  0  0  0
  -28.4799  -17.9819   22.7191 C   0  0  0  0  0  0  0  0  0  0  0  0
  -23.0121   -8.7136   22.1113 C   0  0  0  0  0  0  0  0  0  0  0  0
  -23.6806   -9.7024   24.2119 C   0  0  0  0  0  0  0  0  0  0  0  0
  -27.1834  -21.2189   20.4974 C   0  0  0  0  0  0  0  0  0  0  0  0
  -20.5790   -8.7351   25.1419 C   0  0  0  0  0  0  0  0  0  0  0  0
  -19.7940   -9.0343   26.2553 C   0  0  0  0  0  0  0  0  0  0  0  0
  -28.1418  -17.7851   24.0534 C   0  0  0  0  0  0  0  0  0  0  0  0
  -28.9469  -22.2927   21.7449 C   0  0  0  0  0  0  0  0  0  0  0  0
  -21.2707   -7.7246   27.6484 C   0  0  0  0  0  0  0  0  0  0  0  0
  -24.2180  -10.8070   22.1315 C   0  0  0  0  0  0  0  0  0  0  0  0
  -24.2019  -13.1174   21.0501 C   0  0  0  0  0  0  0  0  0  0  0  0
  -23.3254  -27.9622   19.0522 C   0  0  0  0  0  0  0  0  0  0  0  0
  -26.6599  -23.0374   22.0187 C   0  0  0  0  0  0  0  0  0  0  0  0
  -24.4858  -27.1816   19.2151 C   0  0  0  0  0  0  0  0  0  0  0  0
  -28.0163  -23.1463   22.3568 C   0  0  0  0  0  0  0  0  0  0  0  0
  -29.6900  -17.4970   22.2355 C   0  0  0  0  0  0  0  0  0  0  0  0
  -23.0558   -8.6750   23.5050 C   0  0  0  0  0  0  0  0  0  0  0  0
  -28.5325  -21.3356   20.8191 C   0  0  0  0  0  0  0  0  0  0  0  0
  -21.7099   -7.9305   25.2817 C   0  0  0  0  0  0  0  0  0  0  0  0
  -20.1398   -8.5291   27.5086 C   0  0  0  0  0  0  0  0  0  0  0  0
  -22.0558   -7.4253   26.5349 C   0  0  0  0  0  0  0  0  0  0  0  0
  -24.8189  -11.9082   21.4227 C   0  0  0  0  0  0  0  0  0  0  0  0
  -29.0413  -17.1025   24.8564 C   0  0  0  0  0  0  0  0  0  0  0  0
  -30.5202  -16.8274   23.1199 C   0  0  0  0  0  0  0  0  0  0  0  0
  -25.1888  -13.8220   20.4053 C   0  0  0  0  0  0  0  0  0  0  0  0
  -22.8569  -13.5638   21.2676 C   0  0  0  0  0  0  0  0  0  0  0  0
  -26.5401  -26.2118   22.1293 C   0  0  0  0  0  0  0  0  0  0  0  0
  -27.6915  -25.7620   25.1283 C   0  0  0  0  0  0  0  0  0  0  0  0
  -29.3923  -23.7624   27.3091 C   0  0  0  0  0  0  0  0  0  0  0  0
  -31.1671  -13.6685   20.7026 C   0  0  0  0  0  0  0  0  0  0  0  0
  -23.0918  -29.2144   19.8596 C   0  0  0  0  0  0  0  0  0  0  0  0
  -25.6373  -23.9225   22.6769 C   0  0  0  0  0  0  0  0  0  0  0  0
  -28.5056  -24.1623   23.3552 C   0  0  0  0  0  0  0  0  0  0  0  0
  -23.9579  -29.3009   21.1137 C   0  0  0  0  0  0  0  0  0  0  0  0
  -29.1546  -13.1866   17.8053 C   0  0  0  0  0  0  0  0  0  0  0  0
  -25.4060  -28.9497   20.7877 C   0  0  0  0  0  0  0  0  0  0  0  0
  -27.7596  -12.9134   18.3702 C   0  0  0  0  0  0  0  0  0  0  0  0
  -30.2472  -12.5747   18.6793 C   0  0  0  0  0  0  0  0  0  0  0  0
  -28.7945  -12.6854   20.6671 C   0  0  0  0  0  0  0  0  0  0  0  0
  -25.5214  -27.5115   20.2682 C   0  0  1  0  0  0  0  0  0  0  0  0
  -26.2292  -25.2212   23.2155 C   0  0  1  0  0  0  0  0  0  0  0  0
  -27.6622  -13.3308   19.8500 C   0  0  2  0  0  0  0  0  0  0  0  0
  -28.8430  -17.7924   28.6498 C   0  0  0  0  0  0  0  0  0  0  0  0
  -33.0188  -16.9508   23.3763 C   0  0  0  0  0  0  0  0  0  0  0  0
  -30.3458  -22.9847   29.4962 C   0  0  0  0  0  0  0  0  0  0  0  0
  -29.9441  -27.6938   24.4184 C   0  0  0  0  0  0  0  0  0  0  0  0
  -31.2017  -26.8504   26.4123 C   0  0  0  0  0  0  0  0  0  0  0  0
  -29.0027  -27.9883   26.7165 C   0  0  0  0  0  0  0  0  0  0  0  0
  -26.9076  -22.3157   28.0105 C   0  0  0  0  0  0  0  0  0  0  0  0
  -30.0627  -17.7085   20.7898 C   0  0  0  0  0  0  0  0  0  0  0  0
  -28.7098  -16.8718   26.2931 C   0  0  0  0  0  0  0  0  0  0  0  0
  -29.2113  -18.0125   27.1911 C   0  0  0  0  0  0  0  0  0  0  0  0
  -31.1019  -18.8113   20.5767 C   0  0  0  0  0  0  0  0  0  0  0  0
  -31.9422  -14.7456   22.7998 C   0  0  0  0  0  0  0  0  0  0  0  0
  -30.6107  -20.1926   20.9940 C   0  0  0  0  0  0  0  0  0  1  0  0
  -31.8308  -16.2820   22.6555 C   0  0  1  0  0  0  0  0  0  0  0  0
  -29.0673  -25.6569   25.7407 C   0  0  1  0  0  0  0  0  0  0  0  0
  -29.0779  -23.3229   28.7277 C   0  0  2  0  0  0  0  0  0  0  0  0
  -29.7953  -27.0294   25.8017 C   0  0  0  0  0  0  0  0  0  0  0  0
  -26.0987  -11.8448   21.0458 N   0  0  0  0  0  0  0  0  0  0  0  0
  -30.2259  -16.6168   24.4225 N   0  0  0  0  0  0  0  0  0  0  0  0
  -26.2939  -13.0230   20.4295 N   0  0  0  0  0  0  0  0  0  0  0  0
  -27.4680  -25.0089   23.9670 N   0  0  0  0  0  0  0  0  0  0  0  0
  -30.0990  -13.0114   20.0697 N   0  0  0  0  0  0  0  0  0  0  0  0
  -25.2105  -15.0410   19.8254 N   0  0  0  0  0  0  0  0  0  0  0  0
  -21.9729  -12.7150   21.9477 N   0  0  0  0  0  0  0  0  0  0  0  0
  -25.4461  -26.5704   21.3650 N   0  0  0  0  0  0  0  0  0  0  0  0
  -28.8882  -25.0172   27.0396 N   0  0  0  0  0  0  0  0  0  0  0  0
  -30.9411  -14.0544   22.0182 N   0  0  0  0  0  0  0  0  0  0  0  0
  -28.2009  -22.1180   28.7142 N   0  3  0  0  0  0  0  0  0  0  0  0
  -22.4464  -14.6755   20.8563 O   0  0  0  0  0  0  0  0  0  0  0  0
  -27.6872  -26.6216   21.9955 O   0  0  0  0  0  0  0  0  0  0  0  0
  -26.8440  -26.4801   25.6648 O   0  0  0  0  0  0  0  0  0  0  0  0
  -30.0253  -23.0642   26.5202 O   0  0  0  0  0  0  0  0  0  0  0  0
  -32.2404  -13.8992   20.1355 O   0  0  0  0  0  0  0  0  0  0  0  0
  -22.4887   -7.6350   24.1754 O   0  0  0  0  0  0  0  0  0  0  0  0
  -29.4458  -20.5133   20.2346 O   0  0  0  0  0  0  0  0  0  1  0  0
  -19.3868   -8.8178   28.5780 F   0  0  0  0  0  0  0  0  0  0  0  0
  -23.1417   -6.6528   26.6757 F   0  0  0  0  0  0  0  0  0  0  0  0
  1  2  1  0  0  0  0
  1  5  2  0  0  0  0
  2  6  2  0  0  0  0
  3  9  2  0  0  0  0
  3 17  1  0  0  0  0
  4 10  1  0  0  0  0
  4 17  2  0  0  0  0
  5 19  1  0  0  0  0
  6 21  1  0  0  0  0
  7 11  2  0  0  0  0
  7 20  1  0  0  0  0
  8 14  2  0  0  0  0
  8 23  1  0  0  0  0
  9 24  1  0  0  0  0
 10 24  2  0  0  0  0
 11 25  1  0  0  0  0
 12 13  2  0  0  0  0
 12 26  1  0  0  0  0
 13 27  1  0  0  0  0
 14 30  1  0  0  0  0
 15 22  1  0  0  0  0
 15 25  2  0  0  0  0
 16 27  2  0  0  0  0
 16 28  1  0  0  0  0
 17 29  1  0  0  0  0
 18 29  1  0  0  0  0
 18 32  2  0  0  0  0
 18 33  1  0  0  0  0
 19 21  2  0  0  0  0
 19 38  1  0  0  0  0
 20 22  2  0  0  0  0
 20 39  1  0  0  0  0
 21 47  1  0  0  0  0
 22 40  1  0  0  0  0
 23 31  2  0  0  0  0
 23 57  1  0  0  0  0
 24 83  1  0  0  0  0
 25 84  1  0  0  0  0
 26 28  2  0  0  0  0
 26 83  1  0  0  0  0
 27 85  1  0  0  0  0
 28 86  1  0  0  0  0
 29 67  2  0  0  0  0
 30 58  1  0  0  0  0
 30 68  2  0  0  0  0
 31 63  1  0  0  0  0
 31 68  1  0  0  0  0
 32 69  1  0  0  0  0
 32 72  1  0  0  0  0
 33 73  1  0  0  0  0
 33 78  2  0  0  0  0
 34 48  1  0  0  0  0
 34 74  1  0  0  0  0
 34 79  2  0  0  0  0
 35 64  1  0  0  0  0
 35 70  1  0  0  0  0
 35 80  2  0  0  0  0
 36 65  1  0  0  0  0
 36 75  1  0  0  0  0
 36 81  2  0  0  0  0
 37 71  1  0  0  0  0
 37 76  1  0  0  0  0
 37 82  2  0  0  0  0
 38 41  1  0  0  0  0
 39 48  1  0  0  0  0
 40 70  1  0  0  0  0
 41 43  1  0  0  0  0
 42 44  1  0  0  0  0
 42 45  1  0  0  0  0
 43 47  1  0  0  0  0
 44 49  1  0  0  0  0
 45 71  1  0  0  0  0
 46 49  1  0  0  0  0
 46 71  1  0  0  0  0
 47 74  1  0  0  0  0
 48 70  1  0  0  0  0
 49 69  1  0  0  0  0
 50 59  1  0  0  0  0
 51 63  1  0  0  0  0
 52 65  1  0  0  0  0
 53 66  1  0  0  0  0
 54 66  1  0  0  0  0
 55 66  1  0  0  0  0
 56 77  1  0  0  0  0
 57 60  1  0  0  0  0
 58 59  1  0  0  0  0
 60 62  1  0  0  0  0
 61 63  1  0  0  0  0
 61 76  1  0  0  0  0
 62 84  1  0  0  0  0
 64 66  1  0  0  0  0
 64 75  1  0  0  0  0
 65 77  1  0  0  0  0
 67 69  1  0  0  0  0
M  CHG  1  77   1
M  ISO  4  37 100  62 101  76 100  84 101
M  END
> <Batch ID>
0089

> <Smiles>
CCCc1ccc(CC[101CH2:1][101O:1]c2ccc3c(c2)CN(C(=O)C(NC(=O)C(C)NC)C(C)(C)C)C(C(=O)NC2CCCc4ccccc42)C3)c(C(C)C[100NH:0][100C:0](=O)N2CCCC(n3nc(-c4ccc(Oc5ccc(F)cc5F)cc4)c(C(N)=O)c3N)C2)n1

> <Shape>
0.208

> <Color>
0.146

> <Negative vol penalty>
0.000

$$$$

  -OEChem-04052319063D

 91 99  0     1  0  0  0  0  0999 V2000
  -18.0098  -28.8853   26.0127 C   0  0  0  0  0  0  0  0  0  0  0  0
  -18.9863  -27.9690   26.3898 C   0  0  0  0  0  0  0  0  0  0  0  0
  -24.6097   -9.6372   21.5255 C   0  0  0  0  0  0  0  0  0  0  0  0
  -24.8166  -10.8099   23.6276 C   0  0  0  0  0  0  0  0  0  0  0  0
  -17.8008  -29.1634   24.6626 C   0  0  0  0  0  0  0  0  0  0  0  0
  -19.7537  -27.3294   25.4169 C   0  0  0  0  0  0  0  0  0  0  0  0
  -25.6363  -25.6852   25.8611 C   0  0  0  0  0  0  0  0  0  0  0  0
  -24.3416   -8.4532   22.2123 C   0  0  0  0  0  0  0  0  0  0  0  0
  -24.5484   -9.6259   24.3145 C   0  0  0  0  0  0  0  0  0  0  0  0
  -26.2505  -24.4698   26.1598 C   0  0  0  0  0  0  0  0  0  0  0  0
  -21.7092   -7.0257   23.7827 C   0  0  0  0  0  0  0  0  0  0  0  0
  -20.6547   -6.2355   23.3253 C   0  0  0  0  0  0  0  0  0  0  0  0
  -26.4910  -24.0187   23.8023 C   0  0  0  0  0  0  0  0  0  0  0  0
  -22.1885   -4.4074   22.9476 C   0  0  0  0  0  0  0  0  0  0  0  0
  -31.0917  -20.4683   23.3242 C   0  0  0  0  0  0  0  0  0  0  0  0
  -24.8472  -10.8156   22.2331 C   0  0  0  0  0  0  0  0  0  0  0  0
  -24.1916  -12.9958   21.0823 C   0  0  0  0  0  0  0  0  0  0  0  0
  -18.5726  -28.5342   23.6731 C   0  0  0  0  0  0  0  0  0  0  0  0
  -25.4347  -26.0722   24.5284 C   0  0  0  0  0  0  0  0  0  0  0  0
  -19.5539  -27.5985   24.0522 C   0  0  0  0  0  0  0  0  0  0  0  0
  -25.8763  -25.2407   23.4893 C   0  0  0  0  0  0  0  0  0  0  0  0
  -31.8130  -20.9040   22.2346 C   0  0  0  0  0  0  0  0  0  0  0  0
  -31.0172  -20.6812   21.0839 C   0  0  0  0  0  0  0  0  0  0  0  0
  -24.3109   -8.4475   23.6068 C   0  0  0  0  0  0  0  0  0  0  0  0
  -26.6754  -23.6350   25.1304 C   0  0  0  0  0  0  0  0  0  0  0  0
  -23.0034   -6.5069   23.8224 C   0  0  0  0  0  0  0  0  0  0  0  0
  -20.8944   -4.9264   22.9078 C   0  0  0  0  0  0  0  0  0  0  0  0
  -23.2430   -5.1977   23.4049 C   0  0  0  0  0  0  0  0  0  0  0  0
  -25.1248  -12.0389   21.5241 C   0  0  0  0  0  0  0  0  0  0  0  0
  -29.8337  -20.1163   21.5053 C   0  0  0  0  0  0  0  0  0  0  0  0
  -24.9532  -13.9609   20.4699 C   0  0  0  0  0  0  0  0  0  0  0  0
  -22.7640  -13.0111   21.2138 C   0  0  0  0  0  0  0  0  0  0  0  0
  -22.8855  -26.6945   22.7345 C   0  0  0  0  0  0  0  0  0  0  0  0
  -29.4605  -17.2736   20.4825 C   0  0  0  0  0  0  0  0  0  0  0  0
  -25.1195  -27.5700   20.5516 C   0  0  0  0  0  0  0  0  0  0  0  0
  -28.3259  -27.2923   19.4164 C   0  0  0  0  0  0  0  0  0  0  0  0
  -18.2780  -28.8319   22.2242 C   0  0  0  0  0  0  0  0  0  0  0  0
  -24.7946  -27.3986   24.2229 C   0  0  0  0  0  0  0  0  0  0  0  0
  -25.7017  -25.6193   22.0420 C   0  0  0  0  0  0  0  0  0  0  0  0
  -19.3883  -28.3910   21.2738 C   0  0  0  0  0  0  0  0  0  0  0  0
  -29.8261  -13.9706   19.1420 C   0  0  0  0  0  0  0  0  0  0  0  0
  -19.8465  -26.9750   21.6085 C   0  0  0  0  0  0  0  0  0  0  0  0
  -28.5740  -13.2440   19.6313 C   0  0  0  0  0  0  0  0  0  0  0  0
  -30.3258  -14.9780   20.1728 C   0  0  0  0  0  0  0  0  0  0  0  0
  -28.0430  -15.2497   21.0874 C   0  0  0  0  0  0  0  0  0  0  0  0
  -20.4234  -26.9028   23.0275 C   0  0  1  0  0  0  0  0  0  0  0  0
  -24.1767  -27.4570   22.8293 C   0  0  1  0  0  0  0  0  0  0  0  0
  -27.4873  -14.2447   20.0629 C   0  0  2  0  0  0  0  0  0  0  0  0
  -29.8456  -28.0989   17.5896 C   0  0  0  0  0  0  0  0  0  0  0  0
  -30.3229  -23.9368   17.3195 C   0  0  0  0  0  0  0  0  0  0  0  0
  -32.5748  -22.8719   17.5543 C   0  0  0  0  0  0  0  0  0  0  0  0
  -33.7236  -21.5763   23.7324 C   0  0  0  0  0  0  0  0  0  0  0  0
  -33.1833  -22.9470   21.6915 C   0  0  0  0  0  0  0  0  0  0  0  0
  -34.2720  -20.7236   21.4622 C   0  0  0  0  0  0  0  0  0  0  0  0
  -27.3714  -20.4674   21.1830 C   0  0  0  0  0  0  0  0  0  0  0  0
  -28.7233  -19.9320   19.1745 C   0  0  0  0  0  0  0  0  0  0  0  0
  -23.7670  -25.6654   18.5887 C   0  0  0  0  0  0  0  0  0  0  0  0
  -25.8220  -25.7859   17.1637 C   0  0  0  0  0  0  0  0  0  0  0  0
  -24.4854  -27.8467   17.5987 C   0  0  0  0  0  0  0  0  0  0  0  0
  -30.1656  -28.5686   21.3517 C   0  0  0  0  0  0  0  0  0  0  0  0
  -31.3862  -20.9958   19.6882 C   0  0  0  0  0  0  0  0  0  0  0  0
  -28.3142  -18.1552   20.9097 C   0  0  0  0  0  0  0  0  0  0  0  0
  -30.6902  -22.2730   19.1662 C   0  0  0  0  0  0  0  0  0  0  0  0
  -28.3427  -20.3758   24.8516 C   0  0  0  0  0  0  0  0  0  0  0  0
  -28.8079  -19.4208   23.7500 C   0  0  0  0  0  0  0  0  0  0  0  0
  -27.6851  -21.6420   24.3153 C   0  0  0  0  0  0  0  0  0  1  0  0
  -25.8834  -26.8602   19.4600 C   0  0  1  0  0  0  0  0  0  0  0  0
  -29.3429  -28.3412   19.0043 C   0  0  2  0  0  0  0  0  0  0  0  0
  -31.0695  -22.6636   17.7256 C   0  0  0  0  0  0  0  0  0  0  0  0
  -33.1666  -21.4928   22.2716 C   0  0  0  0  0  0  0  0  0  0  0  0
  -28.6529  -19.6843   20.7280 C   0  0  0  0  0  0  0  0  0  0  0  0
  -24.9911  -26.5312   18.2299 C   0  0  0  0  0  0  0  0  0  0  0  0
  -26.3831  -12.3661   21.2182 N   0  0  0  0  0  0  0  0  0  0  0  0
  -29.8901  -19.9918   22.8689 N   0  0  0  0  0  0  0  0  0  0  0  0
  -26.2459  -13.5396   20.5776 N   0  0  0  0  0  0  0  0  0  0  0  0
  -25.0647  -26.9234   21.7945 N   0  0  0  0  0  0  0  0  0  0  0  0
  -29.2584  -15.8963   20.5736 N   0  0  0  0  0  0  0  0  0  0  0  0
  -24.6366  -15.1203   19.8551 N   0  0  0  0  0  0  0  0  0  0  0  0
  -22.1421  -11.9409   21.8712 N   0  0  0  0  0  0  0  0  0  0  0  0
  -21.7670  -27.4401   23.0547 N   0  0  0  0  0  0  0  0  0  0  0  0
  -27.0354  -27.7016   19.1546 N   0  0  0  0  0  0  0  0  0  0  0  0
  -30.5119  -28.3205   19.9285 N   0  3  0  0  0  0  0  0  0  0  0  0
  -22.0592  -13.9380   20.7473 O   0  0  0  0  0  0  0  0  0  0  0  0
  -22.9026  -25.5173   22.3945 O   0  0  0  0  0  0  0  0  0  0  0  0
  -30.5027  -17.7952   20.0773 O   0  0  0  0  0  0  0  0  0  0  0  0
  -24.5969  -28.6615   20.3125 O   0  0  0  0  0  0  0  0  0  0  0  0
  -28.6445  -26.2159   19.9168 O   0  0  0  0  0  0  0  0  0  0  0  0
  -24.0491   -7.2924   24.2775 O   0  0  0  0  0  0  0  0  0  0  0  0
  -27.2746  -22.4478   25.4192 O   0  0  0  0  0  0  0  0  0  1  0  0
  -19.8814   -4.1671   22.4701 F   0  0  0  0  0  0  0  0  0  0  0  0
  -24.4840   -4.6933   23.4419 F   0  0  0  0  0  0  0  0  0  0  0  0
  1  2  1  0  0  0  0
  1  5  2  0  0  0  0
  2  6  2  0  0  0  0
  3  8  2  0  0  0  0
  3 16  1  0  0  0  0
  4  9  1  0  0  0  0
  4 16  2  0  0  0  0
  5 18  1  0  0  0  0
  6 20  1  0  0  0  0
  7 10  2  0  0  0  0
  7 19  1  0  0  0  0
  8 24  1  0  0  0  0
  9 24  2  0  0  0  0
 10 25  1  0  0  0  0
 11 12  2  0  0  0  0
 11 26  1  0  0  0  0
 12 27  1  0  0  0  0
 13 21  1  0  0  0  0
 13 25  2  0  0  0  0
 14 27  2  0  0  0  0
 14 28  1  0  0  0  0
 15 22  2  0  0  0  0
 15 74  1  0  0  0  0
 16 29  1  0  0  0  0
 17 29  1  0  0  0  0
 17 31  2  0  0  0  0
 17 32  1  0  0  0  0
 18 20  2  0  0  0  0
 18 37  1  0  0  0  0
 19 21  2  0  0  0  0
 19 38  1  0  0  0  0
 20 46  1  0  0  0  0
 21 39  1  0  0  0  0
 22 23  1  0  0  0  0
 22 70  1  0  0  0  0
 23 30  2  0  0  0  0
 23 61  1  0  0  0  0
 24 88  1  0  0  0  0
 25 89  1  0  0  0  0
 26 28  2  0  0  0  0
 26 88  1  0  0  0  0
 27 90  1  0  0  0  0
 28 91  1  0  0  0  0
 29 73  2  0  0  0  0
 30 71  1  0  0  0  0
 30 74  1  0  0  0  0
 31 75  1  0  0  0  0
 31 78  1  0  0  0  0
 32 79  1  0  0  0  0
 32 83  2  0  0  0  0
 33 47  1  0  0  0  0
 33 80  1  0  0  0  0
 33 84  2  0  0  0  0
 34 62  1  0  0  0  0
 34 77  1  0  0  0  0
 34 85  2  0  0  0  0
 35 67  1  0  0  0  0
 35 76  1  0  0  0  0
 35 86  2  0  0  0  0
 36 68  1  0  0  0  0
 36 81  1  0  0  0  0
 36 87  2  0  0  0  0
 37 40  1  0  0  0  0
 38 47  1  0  0  0  0
 39 76  1  0  0  0  0
 40 42  1  0  0  0  0
 41 43  1  0  0  0  0
 41 44  1  0  0  0  0
 42 46  1  0  0  0  0
 43 48  1  0  0  0  0
 44 77  1  0  0  0  0
 45 48  1  0  0  0  0
 45 77  1  0  0  0  0
 46 80  1  0  0  0  0
 47 76  1  0  0  0  0
 48 75  1  0  0  0  0
 49 68  1  0  0  0  0
 50 69  1  0  0  0  0
 51 69  1  0  0  0  0
 52 70  1  0  0  0  0
 53 70  1  0  0  0  0
 54 70  1  0  0  0  0
 55 71  1  0  0  0  0
 56 71  1  0  0  0  0
 57 72  1  0  0  0  0
 58 72  1  0  0  0  0
 59 72  1  0  0  0  0
 60 82  1  0  0  0  0
 61 63  1  0  0  0  0
 62 71  1  0  0  0  0
 63 69  1  0  0  0  0
 64 65  1  0  0  0  0
 64 66  1  0  0  0  0
 65 74  1  0  0  0  0
 66 89  1  0  0  0  0
 67 72  1  0  0  0  0
 67 81  1  0  0  0  0
 68 82  1  0  0  0  0
 73 75  1  0  0  0  0
M  CHG  1  82   1
M  ISO  4  34 100  62 100  66 101  89 101
M  END
> <Batch ID>
0089

> <Smiles>
CNC(C)C(=O)NC(C(=O)N1Cc2cc([101O:1][101CH2:1]CCn3cc(C(C)(C)C)c(CCC(C)C)c3C(C)(C)[100CH2:0][100C:0](=O)N3CCCC(n4nc(-c5ccc(Oc6ccc(F)cc6F)cc5)c(C(N)=O)c4N)C3)ccc2CC1C(=O)NC1CCCc2ccccc21)C(C)(C)C

> <Shape>
0.261

> <Color>
0.127

> <Negative vol penalty>
0.000

$$$$

  -OEChem-04052319063D

 86 94  0     1  0  0  0  0  0999 V2000
  -26.5923  -35.1119   22.8040 C   0  0  0  0  0  0  0  0  0  0  0  0
  -26.9055  -34.4086   21.6453 C   0  0  0  0  0  0  0  0  0  0  0  0
  -23.9045   -9.9066   22.0893 C   0  0  0  0  0  0  0  0  0  0  0  0
  -22.2762  -10.4784   20.3985 C   0  0  0  0  0  0  0  0  0  0  0  0
  -26.5149  -34.4429   24.0247 C   0  0  0  0  0  0  0  0  0  0  0  0
  -27.1425  -33.0358   21.7068 C   0  0  0  0  0  0  0  0  0  0  0  0
  -26.3261  -27.0513   17.8553 C   0  0  0  0  0  0  0  0  0  0  0  0
  -23.4158   -8.6005   22.1183 C   0  0  0  0  0  0  0  0  0  0  0  0
  -21.7875   -9.1723   20.4275 C   0  0  0  0  0  0  0  0  0  0  0  0
  -27.0597  -25.9595   17.3929 C   0  0  0  0  0  0  0  0  0  0  0  0
  -20.7845   -6.9552   23.4577 C   0  0  0  0  0  0  0  0  0  0  0  0
  -20.5774   -6.3691   24.7064 C   0  0  0  0  0  0  0  0  0  0  0  0
  -26.8202  -24.8951   19.5444 C   0  0  0  0  0  0  0  0  0  0  0  0
  -27.0135  -21.3297   18.6389 C   0  0  0  0  0  0  0  0  0  0  0  0
  -28.2072  -21.6271   20.7056 C   0  0  0  0  0  0  0  0  0  0  0  0
  -22.1515   -4.6233   24.1481 C   0  0  0  0  0  0  0  0  0  0  0  0
  -23.3347  -10.8456   21.2295 C   0  0  0  0  0  0  0  0  0  0  0  0
  -24.8662  -12.7008   20.3807 C   0  0  0  0  0  0  0  0  0  0  0  0
  -26.7416  -33.0595   24.0998 C   0  0  0  0  0  0  0  0  0  0  0  0
  -25.8426  -27.0780   19.1713 C   0  0  0  0  0  0  0  0  0  0  0  0
  -27.0693  -32.3479   22.9300 C   0  0  0  0  0  0  0  0  0  0  0  0
  -26.0786  -25.9872   20.0202 C   0  0  0  0  0  0  0  0  0  0  0  0
  -27.9850  -21.9909   19.3821 C   0  0  0  0  0  0  0  0  0  0  0  0
  -22.3573   -8.2333   21.2874 C   0  0  0  0  0  0  0  0  0  0  0  0
  -27.3093  -24.8825   18.2384 C   0  0  0  0  0  0  0  0  0  0  0  0
  -21.6751   -6.3753   22.5542 C   0  0  0  0  0  0  0  0  0  0  0  0
  -21.2608   -5.2032   25.0516 C   0  0  0  0  0  0  0  0  0  0  0  0
  -22.3586   -5.2094   22.8994 C   0  0  0  0  0  0  0  0  0  0  0  0
  -23.8387  -12.1951   21.1995 C   0  0  0  0  0  0  0  0  0  0  0  0
  -26.2970  -20.3198   19.2606 C   0  0  0  0  0  0  0  0  0  0  0  0
  -27.4371  -20.6040   21.2348 C   0  0  0  0  0  0  0  0  0  0  0  0
  -24.9650  -14.0249   20.7322 C   0  0  0  0  0  0  0  0  0  0  0  0
  -25.6602  -12.0333   19.3909 C   0  0  0  0  0  0  0  0  0  0  0  0
  -26.3193  -28.9458   21.6987 C   0  0  0  0  0  0  0  0  0  0  0  0
  -23.9655  -27.1298   22.9964 C   0  0  0  0  0  0  0  0  0  0  0  0
  -22.2569  -24.1755   23.0052 C   0  0  0  0  0  0  0  0  0  0  0  0
  -22.5919  -18.9267   21.9510 C   0  0  0  0  0  0  0  0  0  0  0  0
  -26.6931  -32.3881   25.4494 C   0  0  0  0  0  0  0  0  0  0  0  0
  -25.0301  -28.2512   19.6465 C   0  0  0  0  0  0  0  0  0  0  0  0
  -25.5642  -25.9580   21.4355 C   0  0  0  0  0  0  0  0  0  0  0  0
  -26.5900  -30.8672   25.3697 C   0  0  0  0  0  0  0  0  0  0  0  0
  -22.9185  -16.5669   24.5969 C   0  0  0  0  0  0  0  0  0  0  0  0
  -27.5921  -30.3164   24.3602 C   0  0  0  0  0  0  0  0  0  0  0  0
  -23.2654  -15.2603   23.8810 C   0  0  0  0  0  0  0  0  0  0  0  0
  -21.9296  -17.4065   23.7913 C   0  0  0  0  0  0  0  0  0  0  0  0
  -22.6854  -16.3739   21.6851 C   0  0  0  0  0  0  0  0  0  0  0  0
  -27.3088  -30.8538   22.9522 C   0  0  1  0  0  0  0  0  0  0  0  0
  -25.0255  -28.3991   21.1648 C   0  0  1  0  0  0  0  0  0  0  0  0
  -23.7227  -15.5188   22.4328 C   0  0  2  0  0  0  0  0  0  0  0  0
  -30.0557  -22.5764   18.0735 C   0  0  0  0  0  0  0  0  0  0  0  0
  -28.1169  -18.7270   22.7738 C   0  0  0  0  0  0  0  0  0  0  0  0
  -26.3957  -20.4099   23.5222 C   0  0  0  0  0  0  0  0  0  0  0  0
  -20.4123  -22.9704   24.2062 C   0  0  0  0  0  0  0  0  0  0  0  0
  -22.8508  -19.4357   17.6949 C   0  0  0  0  0  0  0  0  0  0  0  0
  -25.8483  -26.5825   25.3342 C   0  0  0  0  0  0  0  0  0  0  0  0
  -24.3653  -24.6755   25.9916 C   0  0  0  0  0  0  0  0  0  0  0  0
  -23.4710  -27.0042   25.9861 C   0  0  0  0  0  0  0  0  0  0  0  0
  -20.6258  -23.9783   20.5436 C   0  0  0  0  0  0  0  0  0  0  0  0
  -25.2476  -19.5873   18.4932 C   0  0  0  0  0  0  0  0  0  0  0  0
  -23.3012  -20.3180   20.0222 C   0  0  0  0  0  0  0  0  0  0  0  0
  -28.7971  -23.1000   18.7535 C   0  0  1  0  0  0  0  0  0  1  0  0
  -27.6475  -20.1888   22.6526 C   0  0  0  0  0  0  0  0  0  0  0  0
  -23.9194  -25.8435   23.7852 C   0  0  1  0  0  0  0  0  0  0  0  0
  -20.7698  -23.8721   23.0349 C   0  0  2  0  0  0  0  0  0  0  0  0
  -23.8309  -20.2118   18.5822 C   0  0  2  0  0  0  0  0  0  0  0  0
  -24.4125  -26.0275   25.2482 C   0  0  0  0  0  0  0  0  0  0  0  0
  -23.3218  -13.1223   22.0101 N   0  0  0  0  0  0  0  0  0  0  0  0
  -26.4844  -19.9385   20.5440 N   0  0  0  0  0  0  0  0  0  0  0  0
  -24.0274  -14.2239   21.7025 N   0  0  0  0  0  0  0  0  0  0  0  0
  -24.7804  -27.1314   21.8554 N   0  0  0  0  0  0  0  0  0  0  0  0
  -22.4234  -17.6164   22.4282 N   0  0  0  0  0  0  0  0  0  0  0  0
  -25.7615  -15.0266   20.3028 N   0  0  0  0  0  0  0  0  0  0  0  0
  -25.4279  -10.6714   19.1551 N   0  0  0  0  0  0  0  0  0  0  0  0
  -26.1902  -30.1526   22.3592 N   0  0  0  0  0  0  0  0  0  0  0  0
  -22.5530  -25.3448   23.6735 N   0  0  0  0  0  0  0  0  0  0  0  0
  -23.0700  -19.0366   20.6510 N   0  0  0  0  0  0  0  0  0  0  0  0
  -20.3545  -23.1930   21.7751 N   0  3  0  0  0  0  0  0  0  0  0  0
  -26.5605  -12.6231   18.7467 O   0  0  0  0  0  0  0  0  0  0  0  0
  -27.3576  -28.3183   21.5255 O   0  0  0  0  0  0  0  0  0  0  0  0
  -23.2973  -28.0953   23.3745 O   0  0  0  0  0  0  0  0  0  0  0  0
  -23.0746  -23.4463   22.4484 O   0  0  0  0  0  0  0  0  0  0  0  0
  -22.3403  -19.9248   22.6348 O   0  0  0  0  0  0  0  0  0  0  0  0
  -21.8803   -6.9588   21.3152 O   0  0  0  0  0  0  0  0  0  0  0  0
  -28.0256  -23.8159   17.7898 O   0  0  0  0  0  0  0  0  0  1  0  0
  -21.0630   -4.6414   26.2513 F   0  0  0  0  0  0  0  0  0  0  0  0
  -23.2163   -4.6484   22.0361 F   0  0  0  0  0  0  0  0  0  0  0  0
  1  2  1  0  0  0  0
  1  5  2  0  0  0  0
  2  6  2  0  0  0  0
  3  8  2  0  0  0  0
  3 17  1  0  0  0  0
  4  9  1  0  0  0  0
  4 17  2  0  0  0  0
  5 19  1  0  0  0  0
  6 21  1  0  0  0  0
  7 10  2  0  0  0  0
  7 20  1  0  0  0  0
  8 24  1  0  0  0  0
  9 24  2  0  0  0  0
 10 25  1  0  0  0  0
 11 12  2  0  0  0  0
 11 26  1  0  0  0  0
 12 27  1  0  0  0  0
 13 22  1  0  0  0  0
 13 25  2  0  0  0  0
 14 23  1  0  0  0  0
 14 30  2  0  0  0  0
 15 23  2  0  0  0  0
 15 31  1  0  0  0  0
 16 27  2  0  0  0  0
 16 28  1  0  0  0  0
 17 29  1  0  0  0  0
 18 29  1  0  0  0  0
 18 32  2  0  0  0  0
 18 33  1  0  0  0  0
 19 21  2  0  0  0  0
 19 38  1  0  0  0  0
 20 22  2  0  0  0  0
 20 39  1  0  0  0  0
 21 47  1  0  0  0  0
 22 40  1  0  0  0  0
 23 61  1  0  0  0  0
 24 83  1  0  0  0  0
 25 84  1  0  0  0  0
 26 28  2  0  0  0  0
 26 83  1  0  0  0  0
 27 85  1  0  0  0  0
 28 86  1  0  0  0  0
 29 67  2  0  0  0  0
 30 59  1  0  0  0  0
 30 68  1  0  0  0  0
 31 62  1  0  0  0  0
 31 68  2  0  0  0  0
 32 69  1  0  0  0  0
 32 72  1  0  0  0  0
 33 73  1  0  0  0  0
 33 78  2  0  0  0  0
 34 48  1  0  0  0  0
 34 74  1  0  0  0  0
 34 79  2  0  0  0  0
 35 63  1  0  0  0  0
 35 70  1  0  0  0  0
 35 80  2  0  0  0  0
 36 64  1  0  0  0  0
 36 75  1  0  0  0  0
 36 81  2  0  0  0  0
 37 71  1  0  0  0  0
 37 76  1  0  0  0  0
 37 82  2  0  0  0  0
 38 41  1  0  0  0  0
 39 48  1  0  0  0  0
 40 70  1  0  0  0  0
 41 43  1  0  0  0  0
 42 44  1  0  0  0  0
 42 45  1  0  0  0  0
 43 47  1  0  0  0  0
 44 49  1  0  0  0  0
 45 71  1  0  0  0  0
 46 49  1  0  0  0  0
 46 71  1  0  0  0  0
 47 74  1  0  0  0  0
 48 70  1  0  0  0  0
 49 69  1  0  0  0  0
 50 61  1  0  0  0  0
 51 62  1  0  0  0  0
 52 62  1  0  0  0  0
 53 64  1  0  0  0  0
 54 65  1  0  0  0  0
 55 66  1  0  0  0  0
 56 66  1  0  0  0  0
 57 66  1  0  0  0  0
 58 77  1  0  0  0  0
 59 65  1  0  0  0  0
 60 65  1  0  0  0  0
 60 76  1  0  0  0  0
 61 84  1  0  0  0  0
 63 66  1  0  0  0  0
 63 75  1  0  0  0  0
 64 77  1  0  0  0  0
 67 69  1  0  0  0  0
M  CHG  1  77   1
M  ISO  4  37 100  61 101  76 100  84 101
M  END
> <Batch ID>
0089

> <Smiles>
CNC(C)C(=O)NC(C(=O)N1Cc2cc([101O:1][101CH:1](C)c3cc(CC(C)C[100NH:0][100C:0](=O)N4CCCC(n5nc(-c6ccc(Oc7ccc(F)cc7F)cc6)c(C(N)=O)c5N)C4)nc(C(C)C)c3)ccc2CC1C(=O)NC1CCCc2ccccc21)C(C)(C)C

> <Shape>
0.241

> <Color>
0.098

> <Negative vol penalty>
0.000

$$$$

  -OEChem-04052319063D

 87 95  0     1  0  0  0  0  0999 V2000
  -23.4400  -18.3216   18.3560 C   0  0  0  0  0  0  0  0  0  0  0  0
  -24.0593  -19.5422   18.6047 C   0  0  0  0  0  0  0  0  0  0  0  0
  -25.9645  -13.4910   21.7175 C   0  0  0  0  0  0  0  0  0  0  0  0
  -25.1652  -14.5393   19.6928 C   0  0  0  0  0  0  0  0  0  0  0  0
  -22.0716  -18.2763   18.0929 C   0  0  0  0  0  0  0  0  0  0  0  0
  -23.3106  -20.7185   18.5894 C   0  0  0  0  0  0  0  0  0  0  0  0
  -24.3938  -23.7618   22.4894 C   0  0  0  0  0  0  0  0  0  0  0  0
  -27.9359  -25.8110   19.1557 C   0  0  0  0  0  0  0  0  0  0  0  0
  -24.8717  -12.6244   21.7002 C   0  0  0  0  0  0  0  0  0  0  0  0
  -24.0723  -13.6727   19.6756 C   0  0  0  0  0  0  0  0  0  0  0  0
  -25.5644  -24.5142   22.4039 C   0  0  0  0  0  0  0  0  0  0  0  0
  -23.9512   -9.8083   20.0708 C   0  0  0  0  0  0  0  0  0  0  0  0
  -24.1920   -8.4564   20.3162 C   0  0  0  0  0  0  0  0  0  0  0  0
  -28.5109  -24.6959   18.5562 C   0  0  0  0  0  0  0  0  0  0  0  0
  -24.2713  -26.4392   21.7394 C   0  0  0  0  0  0  0  0  0  0  0  0
  -22.7258   -8.5435   22.2345 C   0  0  0  0  0  0  0  0  0  0  0  0
  -26.1112  -14.4485   20.7138 C   0  0  0  0  0  0  0  0  0  0  0  0
  -28.4960  -15.1410   20.1298 C   0  0  0  0  0  0  0  0  0  0  0  0
  -21.3040  -19.4515   18.0839 C   0  0  0  0  0  0  0  0  0  0  0  0
  -23.1522  -24.3404   22.1895 C   0  0  0  0  0  0  0  0  0  0  0  0
  -21.9309  -20.6890   18.3246 C   0  0  0  0  0  0  0  0  0  0  0  0
  -23.0862  -25.6926   21.8244 C   0  0  0  0  0  0  0  0  0  0  0  0
  -28.7315  -26.6918   19.8799 C   0  0  0  0  0  0  0  0  0  0  0  0
  -23.9256  -12.7152   20.6793 C   0  0  0  0  0  0  0  0  0  0  0  0
  -25.5036  -25.8524   22.0261 C   0  0  0  0  0  0  0  0  0  0  0  0
  -23.0978  -10.5278   20.9074 C   0  0  0  0  0  0  0  0  0  0  0  0
  -23.5792   -7.8240   21.3980 C   0  0  0  0  0  0  0  0  0  0  0  0
  -22.4851   -9.8953   21.9892 C   0  0  0  0  0  0  0  0  0  0  0  0
  -27.2396  -15.3444   20.7314 C   0  0  0  0  0  0  0  0  0  0  0  0
  -29.8751  -24.5083   18.7095 C   0  0  0  0  0  0  0  0  0  0  0  0
  -30.0858  -26.4147   19.9741 C   0  0  0  0  0  0  0  0  0  0  0  0
  -29.2098  -16.2744   20.4338 C   0  0  0  0  0  0  0  0  0  0  0  0
  -28.9750  -14.0272   19.3645 C   0  0  0  0  0  0  0  0  0  0  0  0
  -20.8950  -23.8066   20.0161 C   0  0  0  0  0  0  0  0  0  0  0  0
  -19.2803  -26.0536   21.7089 C   0  0  0  0  0  0  0  0  0  0  0  0
  -19.4005  -28.7231   23.8317 C   0  0  0  0  0  0  0  0  0  0  0  0
  -29.5659  -21.8249   20.8921 C   0  0  0  0  0  0  0  0  0  0  0  0
  -19.8367  -19.3577   17.7478 C   0  0  0  0  0  0  0  0  0  0  0  0
  -21.8960  -23.5224   22.3124 C   0  0  0  0  0  0  0  0  0  0  0  0
  -21.7760  -26.3665   21.5117 C   0  0  0  0  0  0  0  0  0  0  0  0
  -19.0453  -20.6089   18.1199 C   0  0  0  0  0  0  0  0  0  0  0  0
  -28.1912  -20.0426   23.6508 C   0  0  0  0  0  0  0  0  0  0  0  0
  -19.7807  -21.8628   17.6576 C   0  0  0  0  0  0  0  0  0  0  0  0
  -27.9191  -18.6474   23.0859 C   0  0  0  0  0  0  0  0  0  0  0  0
  -27.9258  -21.1326   22.6147 C   0  0  0  0  0  0  0  0  0  0  0  0
  -28.3622  -19.5595   20.7685 C   0  0  0  0  0  0  0  0  0  0  0  0
  -21.1480  -21.9840   18.3412 C   0  0  1  0  0  0  0  0  0  0  0  0
  -20.7392  -24.0759   21.4861 C   0  0  1  0  0  0  0  0  0  0  0  0
  -28.6694  -18.4235   21.7592 C   0  0  2  0  0  0  0  0  0  0  0  0
  -28.1750  -29.1314   19.6148 C   0  0  0  0  0  0  0  0  0  0  0  0
  -31.5618  -23.7351   17.0120 C   0  0  0  0  0  0  0  0  0  0  0  0
  -17.9198  -30.3727   25.0080 C   0  0  0  0  0  0  0  0  0  0  0  0
  -31.1029  -26.9259   22.2183 C   0  0  0  0  0  0  0  0  0  0  0  0
  -32.3948  -27.4056   20.1131 C   0  0  0  0  0  0  0  0  0  0  0  0
  -18.8847  -27.5642   19.0875 C   0  0  0  0  0  0  0  0  0  0  0  0
  -18.2711  -29.5882   20.4273 C   0  0  0  0  0  0  0  0  0  0  0  0
  -16.8793  -27.5238   20.5812 C   0  0  0  0  0  0  0  0  0  0  0  0
  -20.3122  -27.8164   26.4973 C   0  0  0  0  0  0  0  0  0  0  0  0
  -31.1928  -22.3704   19.0991 C   0  0  0  0  0  0  0  0  0  0  0  0
  -26.6639  -27.6491   20.9862 C   0  0  0  0  0  0  0  0  0  1  0  0
  -28.1083  -27.9123   20.5389 C   0  0  1  0  0  0  0  0  0  0  0  0
  -30.5256  -23.3229   18.0779 C   0  0  1  0  0  0  0  0  0  0  0  0
  -19.1684  -27.5581   21.6538 C   0  0  1  0  0  0  0  0  0  0  0  0
  -18.6335  -29.0333   25.1045 C   0  0  2  0  0  0  0  0  0  0  0  0
  -30.9893  -27.3275   20.7365 C   0  0  0  0  0  0  0  0  0  0  0  0
  -18.3259  -28.0457   20.4414 C   0  0  0  0  0  0  0  0  0  0  0  0
  -27.1569  -16.5149   21.3695 N   0  0  0  0  0  0  0  0  0  0  0  0
  -30.6803  -25.3419   19.4054 N   0  0  0  0  0  0  0  0  0  0  0  0
  -28.3703  -17.0571   21.1706 N   0  0  0  0  0  0  0  0  0  0  0  0
  -20.5763  -25.5230   21.6401 N   0  0  0  0  0  0  0  0  0  0  0  0
  -28.6679  -20.8618   21.3810 N   0  0  0  0  0  0  0  0  0  0  0  0
  -30.4673  -16.6678   20.1402 N   0  0  0  0  0  0  0  0  0  0  0  0
  -28.1109  -12.9454   19.1464 N   0  0  0  0  0  0  0  0  0  0  0  0
  -20.9942  -22.4657   19.6972 N   0  0  0  0  0  0  0  0  0  0  0  0
  -18.6472  -27.9765   22.9506 N   0  0  0  0  0  0  0  0  0  0  0  0
  -30.2328  -21.4860   19.7212 N   0  0  0  0  0  0  0  0  0  0  0  0
  -19.5608  -29.0777   26.2702 N   0  3  0  0  0  0  0  0  0  0  0  0
  -30.1403  -13.9850   18.9021 O   0  0  0  0  0  0  0  0  0  0  0  0
  -20.9217  -24.7456   19.2292 O   0  0  0  0  0  0  0  0  0  0  0  0
  -18.2561  -25.3746   21.8165 O   0  0  0  0  0  0  0  0  0  0  0  0
  -20.5513  -29.1081   23.6369 O   0  0  0  0  0  0  0  0  0  0  0  0
  -29.7630  -22.9045   21.4602 O   0  0  0  0  0  0  0  0  0  0  0  0
  -22.8592  -11.8696   20.6620 O   0  0  0  0  0  0  0  0  0  0  0  0
  -26.6447  -26.5889   21.9412 O   0  0  0  0  0  0  0  0  0  1  0  0
  -23.8093   -6.5255   21.6325 F   0  0  0  0  0  0  0  0  0  0  0  0
  -21.6633  -10.5810   22.7956 F   0  0  0  0  0  0  0  0  0  0  0  0
  -30.5368  -28.6345   20.7565 F   0  0  0  0  0  0  0  0  0  0  0  0
  1  2  1  0  0  0  0
  1  5  2  0  0  0  0
  2  6  2  0  0  0  0
  3  9  2  0  0  0  0
  3 17  1  0  0  0  0
  4 10  1  0  0  0  0
  4 17  2  0  0  0  0
  5 19  1  0  0  0  0
  6 21  1  0  0  0  0
  7 11  2  0  0  0  0
  7 20  1  0  0  0  0
  8 14  2  0  0  0  0
  8 23  1  0  0  0  0
  9 24  1  0  0  0  0
 10 24  2  0  0  0  0
 11 25  1  0  0  0  0
 12 13  2  0  0  0  0
 12 26  1  0  0  0  0
 13 27  1  0  0  0  0
 14 30  1  0  0  0  0
 15 22  1  0  0  0  0
 15 25  2  0  0  0  0
 16 27  2  0  0  0  0
 16 28  1  0  0  0  0
 17 29  1  0  0  0  0
 18 29  1  0  0  0  0
 18 32  2  0  0  0  0
 18 33  1  0  0  0  0
 19 21  2  0  0  0  0
 19 38  1  0  0  0  0
 20 22  2  0  0  0  0
 20 39  1  0  0  0  0
 21 47  1  0  0  0  0
 22 40  1  0  0  0  0
 23 31  2  0  0  0  0
 23 61  1  0  0  0  0
 24 83  1  0  0  0  0
 25 84  1  0  0  0  0
 26 28  2  0  0  0  0
 26 83  1  0  0  0  0
 27 85  1  0  0  0  0
 28 86  1  0  0  0  0
 29 67  2  0  0  0  0
 30 62  1  0  0  0  0
 30 68  2  0  0  0  0
 31 65  1  0  0  0  0
 31 68  1  0  0  0  0
 32 69  1  0  0  0  0
 32 72  1  0  0  0  0
 33 73  1  0  0  0  0
 33 78  2  0  0  0  0
 34 48  1  0  0  0  0
 34 74  1  0  0  0  0
 34 79  2  0  0  0  0
 35 63  1  0  0  0  0
 35 70  1  0  0  0  0
 35 80  2  0  0  0  0
 36 64  1  0  0  0  0
 36 75  1  0  0  0  0
 36 81  2  0  0  0  0
 37 71  1  0  0  0  0
 37 76  1  0  0  0  0
 37 82  2  0  0  0  0
 38 41  1  0  0  0  0
 39 48  1  0  0  0  0
 40 70  1  0  0  0  0
 41 43  1  0  0  0  0
 42 44  1  0  0  0  0
 42 45  1  0  0  0  0
 43 47  1  0  0  0  0
 44 49  1  0  0  0  0
 45 71  1  0  0  0  0
 46 49  1  0  0  0  0
 46 71  1  0  0  0  0
 47 74  1  0  0  0  0
 48 70  1  0  0  0  0
 49 69  1  0  0  0  0
 50 61  1  0  0  0  0
 51 62  1  0  0  0  0
 52 64  1  0  0  0  0
 53 65  1  0  0  0  0
 54 65  1  0  0  0  0
 55 66  1  0  0  0  0
 56 66  1  0  0  0  0
 57 66  1  0  0  0  0
 58 77  1  0  0  0  0
 59 62  1  0  0  0  0
 59 76  1  0  0  0  0
 60 61  1  0  0  0  0
 60 84  1  0  0  0  0
 63 66  1  0  0  0  0
 63 75  1  0  0  0  0
 64 77  1  0  0  0  0
 65 87  1  0  0  0  0
 67 69  1  0  0  0  0
M  CHG  1  77   1
M  ISO  4  37 100  60 101  76 100  84 101
M  END
> <Batch ID>
0089

> <Smiles>
CNC(C)C(=O)NC(C(=O)N1Cc2cc([101O:1][101CH2:1]C(C)c3ccc(C(C)C[100NH:0][100C:0](=O)N4CCCC(n5nc(-c6ccc(Oc7ccc(F)cc7F)cc6)c(C(N)=O)c5N)C4)nc3C(C)(C)F)ccc2CC1C(=O)NC1CCCc2ccccc21)C(C)(C)C

> <Shape>
0.251

> <Color>
0.049

> <Negative vol penalty>
0.000

$$$$

  -OEChem-04052319063D

 85 93  0     1  0  0  0  0  0999 V2000
  -21.8675  -11.5383   19.5355 C   0  0  0  0  0  0  0  0  0  0  0  0
  -21.5644  -12.8855   19.7046 C   0  0  0  0  0  0  0  0  0  0  0  0
  -29.2510  -24.1391   24.8919 C   0  0  0  0  0  0  0  0  0  0  0  0
  -27.2089  -23.2939   23.9160 C   0  0  0  0  0  0  0  0  0  0  0  0
  -23.1211  -11.0549   19.9081 C   0  0  0  0  0  0  0  0  0  0  0  0
  -22.5143  -13.7499   20.2475 C   0  0  0  0  0  0  0  0  0  0  0  0
  -23.3902  -19.6356   18.7990 C   0  0  0  0  0  0  0  0  0  0  0  0
  -29.3507  -22.9910   25.6777 C   0  0  0  0  0  0  0  0  0  0  0  0
  -27.3086  -22.1457   24.7017 C   0  0  0  0  0  0  0  0  0  0  0  0
  -22.9745  -20.8218   19.4020 C   0  0  0  0  0  0  0  0  0  0  0  0
  -26.6776  -21.2540   27.9013 C   0  0  0  0  0  0  0  0  0  0  0  0
  -25.5236  -20.8066   28.5445 C   0  0  0  0  0  0  0  0  0  0  0  0
  -25.0933  -20.9763   20.5450 C   0  0  0  0  0  0  0  0  0  0  0  0
  -21.0178  -27.3786   21.7035 C   0  0  0  0  0  0  0  0  0  0  0  0
  -25.6756  -18.7079   27.3573 C   0  0  0  0  0  0  0  0  0  0  0  0
  -19.6534  -28.5090   23.2900 C   0  0  0  0  0  0  0  0  0  0  0  0
  -28.1801  -24.2906   24.0111 C   0  0  0  0  0  0  0  0  0  0  0  0
  -28.6093  -25.6750   21.9118 C   0  0  0  0  0  0  0  0  0  0  0  0
  -24.0902  -11.9158   20.4469 C   0  0  0  0  0  0  0  0  0  0  0  0
  -24.6586  -19.1041   19.0733 C   0  0  0  0  0  0  0  0  0  0  0  0
  -23.7815  -13.2774   20.6289 C   0  0  0  0  0  0  0  0  0  0  0  0
  -25.5237  -19.7844   19.9421 C   0  0  0  0  0  0  0  0  0  0  0  0
  -20.7488  -28.5257   22.4417 C   0  0  0  0  0  0  0  0  0  0  0  0
  -20.1949  -26.2655   21.8343 C   0  0  0  0  0  0  0  0  0  0  0  0
  -28.3796  -21.9943   25.5826 C   0  0  0  0  0  0  0  0  0  0  0  0
  -23.8250  -21.4909   20.2774 C   0  0  0  0  0  0  0  0  0  0  0  0
  -27.3306  -20.4284   26.9861 C   0  0  0  0  0  0  0  0  0  0  0  0
  -25.0226  -19.5336   28.2725 C   0  0  0  0  0  0  0  0  0  0  0  0
  -26.8296  -19.1553   26.7141 C   0  0  0  0  0  0  0  0  0  0  0  0
  -28.0762  -25.4767   23.1996 C   0  0  0  0  0  0  0  0  0  0  0  0
  -19.1244  -26.3499   22.7100 C   0  0  0  0  0  0  0  0  0  0  0  0
  -28.2374  -26.9548   21.5796 C   0  0  0  0  0  0  0  0  0  0  0  0
  -29.3724  -24.7822   21.0894 C   0  0  0  0  0  0  0  0  0  0  0  0
  -25.7275  -16.4081   20.3743 C   0  0  0  0  0  0  0  0  0  0  0  0
  -28.6176  -17.5827   19.4854 C   0  0  0  0  0  0  0  0  0  0  0  0
  -30.5243  -20.3045   18.7088 C   0  0  0  0  0  0  0  0  0  0  0  0
  -23.7389  -30.4846   23.3556 C   0  0  0  0  0  0  0  0  0  0  0  0
  -25.4148  -11.3380   20.8788 C   0  0  0  0  0  0  0  0  0  0  0  0
  -25.1023  -17.8375   18.3940 C   0  0  0  0  0  0  0  0  0  0  0  0
  -26.9031  -19.2664   20.2542 C   0  0  0  0  0  0  0  0  0  0  0  0
  -26.4964  -12.3924   21.0990 C   0  0  0  0  0  0  0  0  0  0  0  0
  -27.2226  -31.1918   23.5567 C   0  0  0  0  0  0  0  0  0  0  0  0
  -25.9492  -13.5550   21.9212 C   0  0  0  0  0  0  0  0  0  0  0  0
  -27.8845  -29.8252   23.3717 C   0  0  0  0  0  0  0  0  0  0  0  0
  -25.9245  -31.0868   24.3541 C   0  0  0  0  0  0  0  0  0  0  0  0
  -25.6109  -28.7492   23.6393 C   0  0  0  0  0  0  0  0  0  0  0  0
  -24.7941  -14.2512   21.1914 C   0  0  1  0  0  0  0  0  0  0  0  0
  -26.2184  -17.1168   19.1437 C   0  0  1  0  0  0  0  0  0  0  0  0
  -26.8946  -28.7964   22.7931 C   0  0  2  0  0  0  0  0  0  0  0  0
  -16.3140  -23.8325   21.8919 C   0  0  0  0  0  0  0  0  0  0  0  0
  -21.6469  -30.3090   20.9006 C   0  0  0  0  0  0  0  0  0  0  0  0
  -32.8602  -20.9531   18.0606 C   0  0  0  0  0  0  0  0  0  0  0  0
  -29.5251  -17.1902   22.3720 C   0  0  0  0  0  0  0  0  0  0  0  0
  -31.4670  -18.6960   21.8928 C   0  0  0  0  0  0  0  0  0  0  0  0
  -31.2201  -16.5478   20.6490 C   0  0  0  0  0  0  0  0  0  0  0  0
  -29.6188  -21.4321   16.1267 C   0  0  0  0  0  0  0  0  0  0  0  0
  -20.4799  -25.0188   21.0355 C   0  0  0  0  0  0  0  0  0  0  0  0
  -18.2073  -25.1848   22.8917 C   0  0  0  0  0  0  0  0  0  0  0  0
  -17.2242  -25.0384   21.7215 C   0  0  0  0  0  0  0  0  0  0  0  0
  -21.8675  -24.4268   21.2917 C   0  0  0  0  0  0  0  0  0  0  0  0
  -22.1140  -23.1208   20.5454 C   0  0  0  0  0  0  0  0  0  1  0  0
  -21.6101  -29.7326   22.3252 C   0  0  2  0  0  0  0  0  0  0  0  0
  -29.6571  -18.4664   20.1315 C   0  0  1  0  0  0  0  0  0  0  0  0
  -31.4767  -20.5717   17.5573 C   0  0  2  0  0  0  0  0  0  0  0  0
  -30.4406  -17.7341   21.2571 C   0  0  0  0  0  0  0  0  0  0  0  0
  -18.8313  -27.4469   23.4437 N   0  0  0  0  0  0  0  0  0  0  0  0
  -27.4161  -26.5450   23.6545 N   0  0  0  0  0  0  0  0  0  0  0  0
  -27.5320  -27.4270   22.6471 N   0  0  0  0  0  0  0  0  0  0  0  0
  -27.2885  -18.0210   19.5700 N   0  0  0  0  0  0  0  0  0  0  0  0
  -25.0292  -30.0959   23.7521 N   0  0  0  0  0  0  0  0  0  0  0  0
  -28.4484  -27.7110   20.4814 N   0  0  0  0  0  0  0  0  0  0  0  0
  -29.6657  -23.5041   21.5843 N   0  0  0  0  0  0  0  0  0  0  0  0
  -25.3031  -15.1130   20.1460 N   0  0  0  0  0  0  0  0  0  0  0  0
  -30.4961  -18.9685   19.0487 N   0  0  0  0  0  0  0  0  0  0  0  0
  -22.9574  -29.4856   22.7882 N   0  0  0  0  0  0  0  0  0  0  0  0
  -30.9630  -21.6829   16.7075 N   0  3  0  0  0  0  0  0  0  0  0  0
  -29.7960  -25.1139   19.9563 O   0  0  0  0  0  0  0  0  0  0  0  0
  -25.7347  -16.9924   21.4515 O   0  0  0  0  0  0  0  0  0  0  0  0
  -28.9726  -16.5454   18.9200 O   0  0  0  0  0  0  0  0  0  0  0  0
  -29.8735  -21.1927   19.2549 O   0  0  0  0  0  0  0  0  0  0  0  0
  -23.3167  -31.6379   23.4919 O   0  0  0  0  0  0  0  0  0  0  0  0
  -28.4767  -20.8737   26.3490 O   0  0  0  0  0  0  0  0  0  0  0  0
  -23.4214  -22.6486   20.8679 O   0  0  0  0  0  0  0  0  0  1  0  0
  -23.9152  -19.1035   28.8913 F   0  0  0  0  0  0  0  0  0  0  0  0
  -27.4533  -18.3572   25.8367 F   0  0  0  0  0  0  0  0  0  0  0  0
  1  2  1  0  0  0  0
  1  5  2  0  0  0  0
  2  6  2  0  0  0  0
  3  8  2  0  0  0  0
  3 17  1  0  0  0  0
  4  9  1  0  0  0  0
  4 17  2  0  0  0  0
  5 19  1  0  0  0  0
  6 21  1  0  0  0  0
  7 10  2  0  0  0  0
  7 20  1  0  0  0  0
  8 25  1  0  0  0  0
  9 25  2  0  0  0  0
 10 26  1  0  0  0  0
 11 12  2  0  0  0  0
 11 27  1  0  0  0  0
 12 28  1  0  0  0  0
 13 22  1  0  0  0  0
 13 26  2  0  0  0  0
 14 23  2  0  0  0  0
 14 24  1  0  0  0  0
 15 28  2  0  0  0  0
 15 29  1  0  0  0  0
 16 23  1  0  0  0  0
 16 66  2  0  0  0  0
 17 30  1  0  0  0  0
 18 30  1  0  0  0  0
 18 32  2  0  0  0  0
 18 33  1  0  0  0  0
 19 21  2  0  0  0  0
 19 38  1  0  0  0  0
 20 22  2  0  0  0  0
 20 39  1  0  0  0  0
 21 47  1  0  0  0  0
 22 40  1  0  0  0  0
 23 62  1  0  0  0  0
 24 31  2  0  0  0  0
 24 57  1  0  0  0  0
 25 82  1  0  0  0  0
 26 83  1  0  0  0  0
 27 29  2  0  0  0  0
 27 82  1  0  0  0  0
 28 84  1  0  0  0  0
 29 85  1  0  0  0  0
 30 67  2  0  0  0  0
 31 58  1  0  0  0  0
 31 66  1  0  0  0  0
 32 68  1  0  0  0  0
 32 71  1  0  0  0  0
 33 72  1  0  0  0  0
 33 77  2  0  0  0  0
 34 48  1  0  0  0  0
 34 73  1  0  0  0  0
 34 78  2  0  0  0  0
 35 63  1  0  0  0  0
 35 69  1  0  0  0  0
 35 79  2  0  0  0  0
 36 64  1  0  0  0  0
 36 74  1  0  0  0  0
 36 80  2  0  0  0  0
 37 70  1  0  0  0  0
 37 75  1  0  0  0  0
 37 81  2  0  0  0  0
 38 41  1  0  0  0  0
 39 48  1  0  0  0  0
 40 69  1  0  0  0  0
 41 43  1  0  0  0  0
 42 44  1  0  0  0  0
 42 45  1  0  0  0  0
 43 47  1  0  0  0  0
 44 49  1  0  0  0  0
 45 70  1  0  0  0  0
 46 49  1  0  0  0  0
 46 70  1  0  0  0  0
 47 73  1  0  0  0  0
 48 69  1  0  0  0  0
 49 68  1  0  0  0  0
 50 59  1  0  0  0  0
 51 62  1  0  0  0  0
 52 64  1  0  0  0  0
 53 65  1  0  0  0  0
 54 65  1  0  0  0  0
 55 65  1  0  0  0  0
 56 76  1  0  0  0  0
 57 60  1  0  0  0  0
 58 59  1  0  0  0  0
 60 61  1  0  0  0  0
 61 83  1  0  0  0  0
 62 75  1  0  0  0  0
 63 65  1  0  0  0  0
 63 74  1  0  0  0  0
 64 76  1  0  0  0  0
 67 68  1  0  0  0  0
M  CHG  1  76   1
M  ISO  4  37 100  61 101  75 100  83 101
M  END
> <Batch ID>
0089

> <Smiles>
CCCc1ncc(C(C)[100NH:0][100C:0](=O)N2CCCC(n3nc(-c4ccc(Oc5ccc(F)cc5F)cc4)c(C(N)=O)c3N)C2)cc1CC[101CH2:1][101O:1]c1ccc2c(c1)CN(C(=O)C(NC(=O)C(C)NC)C(C)(C)C)C(C(=O)NC1CCCc3ccccc31)C2

> <Shape>
0.212

> <Color>
0.079

> <Negative vol penalty>
0.000

$$$$

  -OEChem-04052319063D

 85 93  0     1  0  0  0  0  0999 V2000
  -26.4612  -26.9389   26.5995 C   0  0  0  0  0  0  0  0  0  0  0  0
  -26.5987  -25.9001   25.6843 C   0  0  0  0  0  0  0  0  0  0  0  0
  -22.2332  -21.4886   22.0038 C   0  0  0  0  0  0  0  0  0  0  0  0
  -24.0653  -21.1483   23.5416 C   0  0  0  0  0  0  0  0  0  0  0  0
  -26.5155  -28.2621   26.1637 C   0  0  0  0  0  0  0  0  0  0  0  0
  -26.7894  -26.1841   24.3325 C   0  0  0  0  0  0  0  0  0  0  0  0
  -30.4293  -23.3479   22.2463 C   0  0  0  0  0  0  0  0  0  0  0  0
  -21.7076  -22.4679   22.8466 C   0  0  0  0  0  0  0  0  0  0  0  0
  -23.5397  -22.1277   24.3844 C   0  0  0  0  0  0  0  0  0  0  0  0
  -30.1019  -22.0334   21.9166 C   0  0  0  0  0  0  0  0  0  0  0  0
  -22.3016  -25.7187   23.5621 C   0  0  0  0  0  0  0  0  0  0  0  0
  -21.8617  -26.9073   22.9795 C   0  0  0  0  0  0  0  0  0  0  0  0
  -29.8071  -22.6907   19.6144 C   0  0  0  0  0  0  0  0  0  0  0  0
  -30.5572  -15.8308   20.7872 C   0  0  0  0  0  0  0  0  0  0  0  0
  -19.6385  -26.5035   23.8347 C   0  0  0  0  0  0  0  0  0  0  0  0
  -23.4120  -20.8287   22.3513 C   0  0  0  0  0  0  0  0  0  0  0  0
  -24.8724  -20.0024   20.4299 C   0  0  0  0  0  0  0  0  0  0  0  0
  -26.7167  -28.5625   24.8072 C   0  0  0  0  0  0  0  0  0  0  0  0
  -30.4374  -24.3474   21.2629 C   0  0  0  0  0  0  0  0  0  0  0  0
  -26.8451  -27.5126   23.8779 C   0  0  0  0  0  0  0  0  0  0  0  0
  -30.1375  -24.0166   19.9337 C   0  0  0  0  0  0  0  0  0  0  0  0
  -31.4167  -16.6048   20.0275 C   0  0  0  0  0  0  0  0  0  0  0  0
  -22.3609  -22.7875   24.0369 C   0  0  0  0  0  0  0  0  0  0  0  0
  -29.7879  -21.7052   20.6010 C   0  0  0  0  0  0  0  0  0  0  0  0
  -21.4100  -24.9225   24.2809 C   0  0  0  0  0  0  0  0  0  0  0  0
  -20.5301  -27.2997   23.1159 C   0  0  0  0  0  0  0  0  0  0  0  0
  -20.0784  -25.3149   24.4173 C   0  0  0  0  0  0  0  0  0  0  0  0
  -23.9551  -19.8166   21.4814 C   0  0  0  0  0  0  0  0  0  0  0  0
  -30.7963  -14.4728   20.8511 C   0  0  0  0  0  0  0  0  0  0  0  0
  -32.4587  -15.9695   19.3823 C   0  0  0  0  0  0  0  0  0  0  0  0
  -25.0686  -18.7427   19.9188 C   0  0  0  0  0  0  0  0  0  0  0  0
  -25.4919  -21.2060   19.9574 C   0  0  0  0  0  0  0  0  0  0  0  0
  -28.8203  -27.0429   20.7907 C   0  0  0  0  0  0  0  0  0  0  0  0
  -30.9028  -27.4033   18.3298 C   0  0  0  0  0  0  0  0  0  0  0  0
  -33.0211  -25.9407   16.0892 C   0  0  0  0  0  0  0  0  0  0  0  0
  -25.9610  -13.2815   20.6426 C   0  0  0  0  0  0  0  0  0  0  0  0
  -26.7210  -30.0079   24.3767 C   0  0  0  0  0  0  0  0  0  0  0  0
  -30.8188  -25.7554   21.6299 C   0  0  0  0  0  0  0  0  0  0  0  0
  -30.1517  -25.0487   18.8370 C   0  0  0  0  0  0  0  0  0  0  0  0
  -27.3008  -30.2262   22.9815 C   0  0  0  0  0  0  0  0  0  0  0  0
  -22.5896  -14.4182   20.7782 C   0  0  0  0  0  0  0  0  0  0  0  0
  -26.7208  -29.2146   21.9981 C   0  0  0  0  0  0  0  0  0  0  0  0
  -22.7203  -15.9379   20.8928 C   0  0  0  0  0  0  0  0  0  0  0  0
  -23.6933  -13.6971   21.5489 C   0  0  0  0  0  0  0  0  0  0  0  0
  -25.1953  -15.6376   21.3202 C   0  0  0  0  0  0  0  0  0  0  0  0
  -27.0782  -27.7805   22.4069 C   0  0  1  0  0  0  0  0  0  0  0  0
  -30.2945  -26.7932   20.6423 C   0  0  1  0  0  0  0  0  0  0  0  0
  -24.1371  -16.4091   20.5133 C   0  0  2  0  0  0  0  0  0  0  0  0
  -33.4244  -16.7385   18.5453 C   0  0  0  0  0  0  0  0  0  0  0  0
  -30.6575  -12.9363   22.8289 C   0  0  0  0  0  0  0  0  0  0  0  0
  -34.5525  -26.4895   14.1784 C   0  0  0  0  0  0  0  0  0  0  0  0
  -28.4867  -27.7799   16.5048 C   0  0  0  0  0  0  0  0  0  0  0  0
  -29.9908  -27.3718   14.5454 C   0  0  0  0  0  0  0  0  0  0  0  0
  -30.3959  -29.3270   16.0406 C   0  0  0  0  0  0  0  0  0  0  0  0
  -35.3807  -24.8741   17.5222 C   0  0  0  0  0  0  0  0  0  0  0  0
  -31.2009  -18.0935   19.9244 C   0  0  0  0  0  0  0  0  0  0  0  0
  -30.0560  -18.4865   18.9883 C   0  0  0  0  0  0  0  0  0  0  0  0
  -29.1841  -12.4875   20.8271 C   0  0  0  0  0  0  0  0  0  0  0  0
  -28.2575  -13.0267   19.7371 C   0  0  0  0  0  0  0  0  0  0  0  0
  -29.7899  -19.9870   18.9566 C   0  0  0  0  0  0  0  0  0  1  0  0
  -29.8999  -13.5948   21.6552 C   0  0  2  0  0  0  0  0  0  0  0  0
  -30.9195  -26.9988   16.8755 C   0  0  1  0  0  0  0  0  0  0  0  0
  -34.4438  -26.2772   15.6804 C   0  0  2  0  0  0  0  0  0  0  0  0
  -29.9460  -27.8501   16.0123 C   0  0  0  0  0  0  0  0  0  0  0  0
  -23.5934  -18.5395   21.6305 N   0  0  0  0  0  0  0  0  0  0  0  0
  -31.8240  -13.8778   20.2093 N   0  0  0  0  0  0  0  0  0  0  0  0
  -32.6690  -14.6386   19.4629 N   0  0  0  0  0  0  0  0  0  0  0  0
  -24.2870  -17.9114   20.6659 N   0  0  0  0  0  0  0  0  0  0  0  0
  -30.5247  -26.4126   19.2471 N   0  0  0  0  0  0  0  0  0  0  0  0
  -25.0116  -14.1888   21.1411 N   0  0  0  0  0  0  0  0  0  0  0  0
  -25.8317  -18.2762   18.9076 N   0  0  0  0  0  0  0  0  0  0  0  0
  -25.1791  -22.4137   20.5962 N   0  0  0  0  0  0  0  0  0  0  0  0
  -28.4474  -27.4790   22.0478 N   0  0  0  0  0  0  0  0  0  0  0  0
  -32.3128  -27.0679   16.4486 N   0  0  0  0  0  0  0  0  0  0  0  0
  -27.1824  -13.8314   20.2730 N   0  0  0  0  0  0  0  0  0  0  0  0
  -35.3685  -25.1744   16.0673 N   0  3  0  0  0  0  0  0  0  0  0  0
  -26.2864  -21.2128   18.9867 O   0  0  0  0  0  0  0  0  0  0  0  0
  -28.0765  -26.8554   19.8351 O   0  0  0  0  0  0  0  0  0  0  0  0
  -31.2205  -28.5539   18.6412 O   0  0  0  0  0  0  0  0  0  0  0  0
  -32.5809  -24.7933   16.0862 O   0  0  0  0  0  0  0  0  0  0  0  0
  -25.7349  -12.0719   20.5299 O   0  0  0  0  0  0  0  0  0  0  0  0
  -21.8485  -23.7432   24.8594 O   0  0  0  0  0  0  0  0  0  0  0  0
  -29.4674  -20.4230   20.2766 O   0  0  0  0  0  0  0  0  0  1  0  0
  -20.1082  -28.4419   22.5577 F   0  0  0  0  0  0  0  0  0  0  0  0
  -19.2174  -24.5548   25.1077 F   0  0  0  0  0  0  0  0  0  0  0  0
  1  2  1  0  0  0  0
  1  5  2  0  0  0  0
  2  6  2  0  0  0  0
  3  8  2  0  0  0  0
  3 16  1  0  0  0  0
  4  9  1  0  0  0  0
  4 16  2  0  0  0  0
  5 18  1  0  0  0  0
  6 20  1  0  0  0  0
  7 10  2  0  0  0  0
  7 19  1  0  0  0  0
  8 23  1  0  0  0  0
  9 23  2  0  0  0  0
 10 24  1  0  0  0  0
 11 12  2  0  0  0  0
 11 25  1  0  0  0  0
 12 26  1  0  0  0  0
 13 21  1  0  0  0  0
 13 24  2  0  0  0  0
 14 22  1  0  0  0  0
 14 29  2  0  0  0  0
 15 26  2  0  0  0  0
 15 27  1  0  0  0  0
 16 28  1  0  0  0  0
 17 28  1  0  0  0  0
 17 31  2  0  0  0  0
 17 32  1  0  0  0  0
 18 20  2  0  0  0  0
 18 37  1  0  0  0  0
 19 21  2  0  0  0  0
 19 38  1  0  0  0  0
 20 46  1  0  0  0  0
 21 39  1  0  0  0  0
 22 30  2  0  0  0  0
 22 56  1  0  0  0  0
 23 82  1  0  0  0  0
 24 83  1  0  0  0  0
 25 27  2  0  0  0  0
 25 82  1  0  0  0  0
 26 84  1  0  0  0  0
 27 85  1  0  0  0  0
 28 65  2  0  0  0  0
 29 61  1  0  0  0  0
 29 66  1  0  0  0  0
 30 49  1  0  0  0  0
 30 67  1  0  0  0  0
 31 68  1  0  0  0  0
 31 71  1  0  0  0  0
 32 72  1  0  0  0  0
 32 77  2  0  0  0  0
 33 47  1  0  0  0  0
 33 73  1  0  0  0  0
 33 78  2  0  0  0  0
 34 62  1  0  0  0  0
 34 69  1  0  0  0  0
 34 79  2  0  0  0  0
 35 63  1  0  0  0  0
 35 74  1  0  0  0  0
 35 80  2  0  0  0  0
 36 70  1  0  0  0  0
 36 75  1  0  0  0  0
 36 81  2  0  0  0  0
 37 40  1  0  0  0  0
 38 47  1  0  0  0  0
 39 69  1  0  0  0  0
 40 42  1  0  0  0  0
 41 43  1  0  0  0  0
 41 44  1  0  0  0  0
 42 46  1  0  0  0  0
 43 48  1  0  0  0  0
 44 70  1  0  0  0  0
 45 48  1  0  0  0  0
 45 70  1  0  0  0  0
 46 73  1  0  0  0  0
 47 69  1  0  0  0  0
 48 68  1  0  0  0  0
 50 61  1  0  0  0  0
 51 63  1  0  0  0  0
 52 64  1  0  0  0  0
 53 64  1  0  0  0  0
 54 64  1  0  0  0  0
 55 76  1  0  0  0  0
 56 57  1  0  0  0  0
 57 60  1  0  0  0  0
 58 59  1  0  0  0  0
 58 61  1  0  0  0  0
 59 75  1  0  0  0  0
 60 83  1  0  0  0  0
 62 64  1  0  0  0  0
 62 74  1  0  0  0  0
 63 76  1  0  0  0  0
 65 68  1  0  0  0  0
 66 67  2  0  0  0  0
M  CHG  1  76   1
M  ISO  4  36 100  60 101  75 100  83 101
M  END
> <Batch ID>
0089

> <Smiles>
CNC(C)C(=O)NC(C(=O)N1Cc2cc([101O:1][101CH2:1]CCc3cc(C(C)CC[100NH:0][100C:0](=O)N4CCCC(n5nc(-c6ccc(Oc7ccc(F)cc7F)cc6)c(C(N)=O)c5N)C4)nnc3C)ccc2CC1C(=O)NC1CCCc2ccccc21)C(C)(C)C

> <Shape>
0.204

> <Color>
0.063

> <Negative vol penalty>
0.000

$$$$

  -OEChem-04052319063D

 80 87  0     1  0  0  0  0  0999 V2000
  -31.7697  -26.0248   20.3308 C   0  0  0  0  0  0  0  0  0  0  0  0
  -31.0042  -25.2927   21.2313 C   0  0  0  0  0  0  0  0  0  0  0  0
  -25.3521  -29.3008   20.4053 C   0  0  0  0  0  0  0  0  0  0  0  0
  -25.3699  -26.9481   19.8562 C   0  0  0  0  0  0  0  0  0  0  0  0
  -31.6830  -25.7543   18.9668 C   0  0  0  0  0  0  0  0  0  0  0  0
  -30.1607  -24.2817   20.7692 C   0  0  0  0  0  0  0  0  0  0  0  0
  -26.1949  -20.7550   23.7628 C   0  0  0  0  0  0  0  0  0  0  0  0
  -26.7347  -29.2689   20.5871 C   0  0  0  0  0  0  0  0  0  0  0  0
  -26.7525  -26.9161   20.0379 C   0  0  0  0  0  0  0  0  0  0  0  0
  -24.8413  -20.7816   24.0955 C   0  0  0  0  0  0  0  0  0  0  0  0
  -29.5032  -29.2828   18.6460 C   0  0  0  0  0  0  0  0  0  0  0  0
  -30.2549  -30.3148   18.0843 C   0  0  0  0  0  0  0  0  0  0  0  0
  -24.3499  -19.3983   22.1812 C   0  0  0  0  0  0  0  0  0  0  0  0
  -31.0608  -30.9225   20.2794 C   0  0  0  0  0  0  0  0  0  0  0  0
  -24.6697  -28.1404   20.0399 C   0  0  0  0  0  0  0  0  0  0  0  0
  -22.5466  -28.4457   18.6591 C   0  0  0  0  0  0  0  0  0  0  0  0
  -30.8284  -24.7478   18.4876 C   0  0  0  0  0  0  0  0  0  0  0  0
  -26.6357  -20.0577   22.6288 C   0  0  0  0  0  0  0  0  0  0  0  0
  -30.0772  -23.9775   19.3984 C   0  0  0  0  0  0  0  0  0  0  0  0
  -25.7100  -19.3623   21.8378 C   0  0  0  0  0  0  0  0  0  0  0  0
  -27.4349  -28.0766   20.4033 C   0  0  0  0  0  0  0  0  0  0  0  0
  -23.9182  -20.1056   23.3030 C   0  0  0  0  0  0  0  0  0  0  0  0
  -29.5303  -29.0706   20.0244 C   0  0  0  0  0  0  0  0  0  0  0  0
  -31.0337  -31.1347   18.9010 C   0  0  0  0  0  0  0  0  0  0  0  0
  -30.3091  -29.8904   20.8411 C   0  0  0  0  0  0  0  0  0  0  0  0
  -23.2414  -28.1726   19.8525 C   0  0  0  0  0  0  0  0  0  0  0  0
  -21.2205  -28.3540   19.0051 C   0  0  0  0  0  0  0  0  0  0  0  0
  -23.0543  -28.7545   17.3543 C   0  0  0  0  0  0  0  0  0  0  0  0
  -28.0987  -20.8677   19.9256 C   0  0  0  0  0  0  0  0  0  0  0  0
  -28.1760  -17.6581   19.4623 C   0  0  0  0  0  0  0  0  0  0  0  0
  -26.8317  -14.5981   20.1521 C   0  0  0  0  0  0  0  0  0  0  0  0
  -18.3348  -25.4175   23.3526 C   0  0  0  0  0  0  0  0  0  0  0  0
  -30.7793  -24.4916   17.0019 C   0  0  0  0  0  0  0  0  0  0  0  0
  -28.1025  -20.0166   22.2987 C   0  0  0  0  0  0  0  0  0  0  0  0
  -26.1344  -18.5821   20.6214 C   0  0  0  0  0  0  0  0  0  0  0  0
  -29.5393  -23.7138   16.5734 C   0  0  0  0  0  0  0  0  0  0  0  0
  -18.2755  -28.9231   22.7326 C   0  0  0  0  0  0  0  0  0  0  0  0
  -29.3645  -22.4870   17.4559 C   0  0  0  0  0  0  0  0  0  0  0  0
  -19.4788  -29.1529   21.8165 C   0  0  0  0  0  0  0  0  0  0  0  0
  -18.5599  -27.8474   23.7786 C   0  0  0  0  0  0  0  0  0  0  0  0
  -20.2402  -26.7930   22.3163 C   0  0  0  0  0  0  0  0  0  0  0  0
  -29.1299  -22.8937   18.9163 C   0  0  1  0  0  0  0  0  0  0  0  0
  -28.3762  -19.7014   20.8314 C   0  0  1  0  0  0  0  0  0  0  0  0
  -19.9821  -27.8295   21.2093 C   0  0  2  0  0  0  0  0  0  0  0  0
  -27.0848  -12.1644   19.5950 C   0  0  0  0  0  0  0  0  0  0  0  0
  -26.8568  -18.1433   16.7541 C   0  0  0  0  0  0  0  0  0  0  0  0
  -26.2803  -15.7082   16.6769 C   0  0  0  0  0  0  0  0  0  0  0  0
  -28.6700  -16.4209   16.7376 C   0  0  0  0  0  0  0  0  0  0  0  0
  -17.2230  -21.9699   20.1266 C   0  0  0  0  0  0  0  0  0  0  0  0
  -19.3508  -20.7414   19.7079 C   0  0  0  0  0  0  0  0  0  0  0  0
  -19.3457  -23.2324   19.8765 C   0  0  0  0  0  0  0  0  0  0  0  0
  -27.3944  -13.8922   22.9706 C   0  0  0  0  0  0  0  0  0  0  0  0
  -20.6450  -21.5276   23.9486 C   0  0  0  0  0  0  0  0  0  0  0  0
  -20.4335  -21.7166   22.4385 C   0  0  0  0  0  0  0  0  0  0  0  0
  -18.2341  -22.9954   22.8211 C   0  0  0  0  0  0  0  0  0  0  0  0
  -22.1108  -21.2894   24.2971 C   0  0  0  0  0  0  0  0  0  1  0  0
  -27.2555  -16.6481   18.8208 C   0  0  1  0  0  0  0  0  0  0  0  0
  -27.4749  -13.2818   20.5499 C   0  0  2  0  0  0  0  0  0  0  0  0
  -18.9427  -21.8727   22.0257 C   0  0  1  0  0  0  0  0  0  0  0  0
  -27.2571  -16.7463   17.2691 C   0  0  0  0  0  0  0  0  0  0  0  0
  -18.7347  -21.9375   20.4570 C   0  0  0  0  0  0  0  0  0  0  0  0
  -22.4244  -27.9261   20.8800 N   0  0  0  0  0  0  0  0  0  0  0  0
  -21.2025  -28.0440   20.3332 N   0  0  0  0  0  0  0  0  0  0  0  0
  -27.5788  -18.5773   20.3365 N   0  0  0  0  0  0  0  0  0  0  0  0
  -19.0319  -26.6178   23.1374 N   0  0  0  0  0  0  0  0  0  0  0  0
  -20.0799  -28.5092   18.3000 N   0  0  0  0  0  0  0  0  0  0  0  0
  -24.4431  -28.8081   17.1732 N   0  0  0  0  0  0  0  0  0  0  0  0
  -29.1781  -21.7121   19.7490 N   0  0  0  0  0  0  0  0  0  0  0  0
  -27.6569  -15.3441   19.3374 N   0  0  0  0  0  0  0  0  0  0  0  0
  -18.8453  -24.3005   22.7027 N   0  0  0  0  0  0  0  0  0  0  0  0
  -27.0522  -12.8936   21.9253 N   0  3  0  0  0  0  0  0  0  0  0  0
  -22.2988  -28.9926   16.3817 O   0  0  0  0  0  0  0  0  0  0  0  0
  -26.9879  -20.9915   19.4231 O   0  0  0  0  0  0  0  0  0  0  0  0
  -29.3816  -17.6279   19.2029 O   0  0  0  0  0  0  0  0  0  0  0  0
  -25.7080  -14.9295   20.5236 O   0  0  0  0  0  0  0  0  0  0  0  0
  -17.3286  -25.3477   24.0665 O   0  0  0  0  0  0  0  0  0  0  0  0
  -28.7841  -28.0451   20.5804 O   0  0  0  0  0  0  0  0  0  0  0  0
  -22.5862  -20.1306   23.6274 O   0  0  0  0  0  0  0  0  0  1  0  0
  -31.7567  -32.1247   18.3613 F   0  0  0  0  0  0  0  0  0  0  0  0
  -30.3400  -29.6907   22.1658 F   0  0  0  0  0  0  0  0  0  0  0  0
  1  2  1  0  0  0  0
  1  5  2  0  0  0  0
  2  6  2  0  0  0  0
  3  8  2  0  0  0  0
  3 15  1  0  0  0  0
  4  9  1  0  0  0  0
  4 15  2  0  0  0  0
  5 17  1  0  0  0  0
  6 19  1  0  0  0  0
  7 10  2  0  0  0  0
  7 18  1  0  0  0  0
  8 21  1  0  0  0  0
  9 21  2  0  0  0  0
 10 22  1  0  0  0  0
 11 12  2  0  0  0  0
 11 23  1  0  0  0  0
 12 24  1  0  0  0  0
 13 20  1  0  0  0  0
 13 22  2  0  0  0  0
 14 24  2  0  0  0  0
 14 25  1  0  0  0  0
 15 26  1  0  0  0  0
 16 26  1  0  0  0  0
 16 27  2  0  0  0  0
 16 28  1  0  0  0  0
 17 19  2  0  0  0  0
 17 33  1  0  0  0  0
 18 20  2  0  0  0  0
 18 34  1  0  0  0  0
 19 42  1  0  0  0  0
 20 35  1  0  0  0  0
 21 77  1  0  0  0  0
 22 78  1  0  0  0  0
 23 25  2  0  0  0  0
 23 77  1  0  0  0  0
 24 79  1  0  0  0  0
 25 80  1  0  0  0  0
 26 62  2  0  0  0  0
 27 63  1  0  0  0  0
 27 66  1  0  0  0  0
 28 67  1  0  0  0  0
 28 72  2  0  0  0  0
 29 43  1  0  0  0  0
 29 68  1  0  0  0  0
 29 73  2  0  0  0  0
 30 57  1  0  0  0  0
 30 64  1  0  0  0  0
 30 74  2  0  0  0  0
 31 58  1  0  0  0  0
 31 69  1  0  0  0  0
 31 75  2  0  0  0  0
 32 65  1  0  0  0  0
 32 70  1  0  0  0  0
 32 76  2  0  0  0  0
 33 36  1  0  0  0  0
 34 43  1  0  0  0  0
 35 64  1  0  0  0  0
 36 38  1  0  0  0  0
 37 39  1  0  0  0  0
 37 40  1  0  0  0  0
 38 42  1  0  0  0  0
 39 44  1  0  0  0  0
 40 65  1  0  0  0  0
 41 44  1  0  0  0  0
 41 65  1  0  0  0  0
 42 68  1  0  0  0  0
 43 64  1  0  0  0  0
 44 63  1  0  0  0  0
 45 58  1  0  0  0  0
 46 60  1  0  0  0  0
 47 60  1  0  0  0  0
 48 60  1  0  0  0  0
 49 61  1  0  0  0  0
 50 61  1  0  0  0  0
 51 61  1  0  0  0  0
 52 71  1  0  0  0  0
 53 54  1  0  0  0  0
 53 56  1  0  0  0  0
 54 59  1  0  0  0  0
 55 59  1  0  0  0  0
 55 70  1  0  0  0  0
 56 78  1  0  0  0  0
 57 60  1  0  0  0  0
 57 69  1  0  0  0  0
 58 71  1  0  0  0  0
 59 61  1  0  0  0  0
 62 63  1  0  0  0  0
M  CHG  1  71   1
M  ISO  4  32 100  56 101  70 100  78 101
M  END
> <Batch ID>
0089

> <Smiles>
CNC(C)C(=O)NC(C(=O)N1Cc2cc([101O:1][101CH2:1]CCC(C[100NH:0][100C:0](=O)N3CCCC(n4nc(-c5ccc(Oc6ccc(F)cc6F)cc5)c(C(N)=O)c4N)C3)C(C)(C)C)ccc2CC1C(=O)NC1CCCc2ccccc21)C(C)(C)C

> <Shape>
0.202

> <Color>
0.060

> <Negative vol penalty>
0.000

$$$$

  -OEChem-04052319063D

 92100  0     1  0  0  0  0  0999 V2000
  -36.1232  -35.9981   16.0270 C   0  0  0  0  0  0  0  0  0  0  0  0
  -35.4400  -34.8207   15.7400 C   0  0  0  0  0  0  0  0  0  0  0  0
  -23.0146   -9.9046   19.9656 C   0  0  0  0  0  0  0  0  0  0  0  0
  -23.8023   -9.8928   22.2495 C   0  0  0  0  0  0  0  0  0  0  0  0
  -36.3691  -36.3547   17.3522 C   0  0  0  0  0  0  0  0  0  0  0  0
  -35.0033  -33.9986   16.7782 C   0  0  0  0  0  0  0  0  0  0  0  0
  -29.6806  -29.5211   18.4921 C   0  0  0  0  0  0  0  0  0  0  0  0
  -22.2701   -8.7521   20.2164 C   0  0  0  0  0  0  0  0  0  0  0  0
  -23.0577   -8.7403   22.5004 C   0  0  0  0  0  0  0  0  0  0  0  0
  -29.4725  -28.2250   18.9618 C   0  0  0  0  0  0  0  0  0  0  0  0
  -23.3310   -5.4215   21.9159 C   0  0  0  0  0  0  0  0  0  0  0  0
  -23.9519   -4.3891   22.6190 C   0  0  0  0  0  0  0  0  0  0  0  0
  -29.8845  -28.9820   21.2149 C   0  0  0  0  0  0  0  0  0  0  0  0
  -32.8476  -22.5995   24.3956 C   0  0  0  0  0  0  0  0  0  0  0  0
  -22.2719   -4.5559   24.3473 C   0  0  0  0  0  0  0  0  0  0  0  0
  -23.7807  -10.4750   20.9822 C   0  0  0  0  0  0  0  0  0  0  0  0
  -24.1293  -12.9998   20.8759 C   0  0  0  0  0  0  0  0  0  0  0  0
  -35.9267  -35.5415   18.4074 C   0  0  0  0  0  0  0  0  0  0  0  0
  -30.0034  -30.5569   19.3804 C   0  0  0  0  0  0  0  0  0  0  0  0
  -35.2447  -34.3440   18.1188 C   0  0  0  0  0  0  0  0  0  0  0  0
  -30.0936  -30.2909   20.7542 C   0  0  0  0  0  0  0  0  0  0  0  0
  -32.2790  -21.3652   24.1016 C   0  0  0  0  0  0  0  0  0  0  0  0
  -32.5477  -23.7030   23.6045 C   0  0  0  0  0  0  0  0  0  0  0  0
  -22.2916   -8.1699   21.4837 C   0  0  0  0  0  0  0  0  0  0  0  0
  -29.5773  -27.9547   20.3231 C   0  0  0  0  0  0  0  0  0  0  0  0
  -22.1806   -6.0211   22.4285 C   0  0  0  0  0  0  0  0  0  0  0  0
  -23.4223   -3.9563   23.8347 C   0  0  0  0  0  0  0  0  0  0  0  0
  -21.6511   -5.5883   23.6442 C   0  0  0  0  0  0  0  0  0  0  0  0
  -24.5505  -11.6652   20.7236 C   0  0  0  0  0  0  0  0  0  0  0  0
  -31.4236  -21.2876   23.0144 C   0  0  0  0  0  0  0  0  0  0  0  0
  -31.6804  -23.5207   22.5394 C   0  0  0  0  0  0  0  0  0  0  0  0
  -25.2194  -13.7484   20.5047 C   0  0  0  0  0  0  0  0  0  0  0  0
  -22.8657  -13.5167   21.3139 C   0  0  0  0  0  0  0  0  0  0  0  0
  -32.4930  -32.4977   19.7535 C   0  0  0  0  0  0  0  0  0  0  0  0
  -30.5865  -33.8783   21.9855 C   0  0  0  0  0  0  0  0  0  0  0  0
  -27.9703  -33.5661   24.1545 C   0  0  0  0  0  0  0  0  0  0  0  0
  -30.7083  -14.7488   20.6337 C   0  0  0  0  0  0  0  0  0  0  0  0
  -36.2574  -35.9447   19.8226 C   0  0  0  0  0  0  0  0  0  0  0  0
  -30.1985  -31.9549   18.8609 C   0  0  0  0  0  0  0  0  0  0  0  0
  -30.4178  -31.3718   21.7517 C   0  0  0  0  0  0  0  0  0  0  0  0
  -35.4331  -35.2071   20.8746 C   0  0  0  0  0  0  0  0  0  0  0  0
  -29.5341  -12.3850   18.2440 C   0  0  0  0  0  0  0  0  0  0  0  0
  -35.3974  -33.7122   20.5730 C   0  0  0  0  0  0  0  0  0  0  0  0
  -28.1010  -12.0927   18.6923 C   0  0  0  0  0  0  0  0  0  0  0  0
  -30.4664  -12.5943   19.4352 C   0  0  0  0  0  0  0  0  0  0  0  0
  -28.5840  -13.3215   20.8500 C   0  0  0  0  0  0  0  0  0  0  0  0
  -34.7333  -33.4384   19.2182 C   0  0  1  0  0  0  0  0  0  0  0  0
  -31.0281  -32.8295   19.7959 C   0  0  1  0  0  0  0  0  0  0  0  0
  -27.5951  -13.1584   19.6831 C   0  0  2  0  0  0  0  0  0  0  0  0
  -32.5962  -20.1792   24.9453 C   0  0  0  0  0  0  0  0  0  0  0  0
  -32.3635  -27.7748   26.5557 C   0  0  0  0  0  0  0  0  0  0  0  0
  -29.2487  -20.0163   22.8823 C   0  0  0  0  0  0  0  0  0  0  0  0
  -26.6705  -34.8543   25.8716 C   0  0  0  0  0  0  0  0  0  0  0  0
  -32.8776  -33.5378   23.9718 C   0  0  0  0  0  0  0  0  0  0  0  0
  -31.2401  -33.9390   25.8227 C   0  0  0  0  0  0  0  0  0  0  0  0
  -31.6726  -35.7232   24.1338 C   0  0  0  0  0  0  0  0  0  0  0  0
  -32.7070  -19.2027   21.1373 C   0  0  0  0  0  0  0  0  0  0  0  0
  -30.7712  -20.3574   20.0754 C   0  0  0  0  0  0  0  0  0  0  0  0
  -25.4529  -33.2936   22.6223 C   0  0  0  0  0  0  0  0  0  0  0  0
  -33.1538  -25.0282   23.9140 C   0  0  0  0  0  0  0  0  0  0  0  0
  -31.3184  -24.6821   21.6486 C   0  0  0  0  0  0  0  0  0  0  0  0
  -33.0710  -27.0894   25.3976 C   0  0  0  0  0  0  0  0  0  0  0  0
  -32.4714  -25.7129   25.1102 C   0  0  0  0  0  0  0  0  0  0  0  0
  -30.1189  -24.4098   20.7384 C   0  0  0  0  0  0  0  0  0  0  0  0
  -30.4840  -18.0282   20.9139 C   0  0  0  0  0  0  0  0  0  0  0  0
  -30.7961  -16.8902   21.8849 C   0  0  0  0  0  0  0  0  0  0  0  0
  -29.7075  -25.6173   19.9042 C   0  0  0  0  0  0  0  0  0  1  0  0
  -30.7843  -19.9878   22.6501 C   0  0  1  0  0  0  0  0  0  0  0  0
  -30.3501  -33.6756   23.4627 C   0  0  1  0  0  0  0  0  0  0  0  0
  -26.7617  -34.4488   24.4087 C   0  0  2  0  0  0  0  0  0  0  0  0
  -31.5309  -34.1979   24.3290 C   0  0  0  0  0  0  0  0  0  0  0  0
  -31.1740  -19.3976   21.2196 C   0  0  0  0  0  0  0  0  0  0  0  0
  -25.8099  -11.5684   20.2893 N   0  0  0  0  0  0  0  0  0  0  0  0
  -31.1086  -22.3373   22.2229 N   0  0  0  0  0  0  0  0  0  0  0  0
  -26.1894  -12.8517   20.1655 N   0  0  0  0  0  0  0  0  0  0  0  0
  -30.6060  -32.7213   21.1939 N   0  0  0  0  0  0  0  0  0  0  0  0
  -29.9300  -13.6182   20.3351 N   0  0  0  0  0  0  0  0  0  0  0  0
  -25.4332  -15.0797   20.4386 N   0  0  0  0  0  0  0  0  0  0  0  0
  -21.8550  -12.6083   21.6570 N   0  0  0  0  0  0  0  0  0  0  0  0
  -33.2942  -33.5412   19.3307 N   0  0  0  0  0  0  0  0  0  0  0  0
  -29.0672  -34.3029   23.7606 N   0  0  0  0  0  0  0  0  0  0  0  0
  -30.1224  -15.6735   21.4895 N   0  0  0  0  0  0  0  0  0  0  0  0
  -25.5089  -33.7303   24.0412 N   0  3  0  0  0  0  0  0  0  0  0  0
  -22.6341  -14.7476   21.3829 O   0  0  0  0  0  0  0  0  0  0  0  0
  -32.8686  -31.3784   20.0816 O   0  0  0  0  0  0  0  0  0  0  0  0
  -30.7408  -35.0217   21.5491 O   0  0  0  0  0  0  0  0  0  0  0  0
  -27.9449  -32.3454   24.2952 O   0  0  0  0  0  0  0  0  0  0  0  0
  -31.8392  -14.9239   20.1675 O   0  0  0  0  0  0  0  0  0  0  0  0
  -21.5650   -7.0454   21.7289 O   0  0  0  0  0  0  0  0  0  0  0  0
  -29.3754  -26.6904   20.7842 O   0  0  0  0  0  0  0  0  0  1  0  0
  -24.0177   -2.9639   24.5091 F   0  0  0  0  0  0  0  0  0  0  0  0
  -20.5454   -6.1597   24.1411 F   0  0  0  0  0  0  0  0  0  0  0  0
  1  2  1  0  0  0  0
  1  5  2  0  0  0  0
  2  6  2  0  0  0  0
  3  8  2  0  0  0  0
  3 16  1  0  0  0  0
  4  9  1  0  0  0  0
  4 16  2  0  0  0  0
  5 18  1  0  0  0  0
  6 20  1  0  0  0  0
  7 10  2  0  0  0  0
  7 19  1  0  0  0  0
  8 24  1  0  0  0  0
  9 24  2  0  0  0  0
 10 25  1  0  0  0  0
 11 12  2  0  0  0  0
 11 26  1  0  0  0  0
 12 27  1  0  0  0  0
 13 21  1  0  0  0  0
 13 25  2  0  0  0  0
 14 22  2  0  0  0  0
 14 23  1  0  0  0  0
 15 27  2  0  0  0  0
 15 28  1  0  0  0  0
 16 29  1  0  0  0  0
 17 29  1  0  0  0  0
 17 32  2  0  0  0  0
 17 33  1  0  0  0  0
 18 20  2  0  0  0  0
 18 38  1  0  0  0  0
 19 21  2  0  0  0  0
 19 39  1  0  0  0  0
 20 47  1  0  0  0  0
 21 40  1  0  0  0  0
 22 30  1  0  0  0  0
 22 50  1  0  0  0  0
 23 31  2  0  0  0  0
 23 60  1  0  0  0  0
 24 89  1  0  0  0  0
 25 90  1  0  0  0  0
 26 28  2  0  0  0  0
 26 89  1  0  0  0  0
 27 91  1  0  0  0  0
 28 92  1  0  0  0  0
 29 73  2  0  0  0  0
 30 68  1  0  0  0  0
 30 74  2  0  0  0  0
 31 61  1  0  0  0  0
 31 74  1  0  0  0  0
 32 75  1  0  0  0  0
 32 78  1  0  0  0  0
 33 79  1  0  0  0  0
 33 84  2  0  0  0  0
 34 48  1  0  0  0  0
 34 80  1  0  0  0  0
 34 85  2  0  0  0  0
 35 69  1  0  0  0  0
 35 76  1  0  0  0  0
 35 86  2  0  0  0  0
 36 70  1  0  0  0  0
 36 81  1  0  0  0  0
 36 87  2  0  0  0  0
 37 77  1  0  0  0  0
 37 82  1  0  0  0  0
 37 88  2  0  0  0  0
 38 41  1  0  0  0  0
 39 48  1  0  0  0  0
 40 76  1  0  0  0  0
 41 43  1  0  0  0  0
 42 44  1  0  0  0  0
 42 45  1  0  0  0  0
 43 47  1  0  0  0  0
 44 49  1  0  0  0  0
 45 77  1  0  0  0  0
 46 49  1  0  0  0  0
 46 77  1  0  0  0  0
 47 80  1  0  0  0  0
 48 76  1  0  0  0  0
 49 75  1  0  0  0  0
 51 62  1  0  0  0  0
 52 68  1  0  0  0  0
 53 70  1  0  0  0  0
 54 71  1  0  0  0  0
 55 71  1  0  0  0  0
 56 71  1  0  0  0  0
 57 72  1  0  0  0  0
 58 72  1  0  0  0  0
 59 83  1  0  0  0  0
 60 63  1  0  0  0  0
 61 64  1  0  0  0  0
 62 63  1  0  0  0  0
 64 67  1  0  0  0  0
 65 66  1  0  0  0  0
 65 72  1  0  0  0  0
 66 82  1  0  0  0  0
 67 90  1  0  0  0  0
 68 72  1  0  0  0  0
 69 71  1  0  0  0  0
 69 81  1  0  0  0  0
 70 83  1  0  0  0  0
 73 75  1  0  0  0  0
M  CHG  1  83   1
M  ISO  4  37 100  67 101  82 100  90 101
M  END
> <Batch ID>
0089

> <Smiles>
CCCCc1cc(C)c(C(C)C(C)(C)CC[100NH:0][100C:0](=O)N2CCCC(n3nc(-c4ccc(Oc5ccc(F)cc5F)cc4)c(C(N)=O)c3N)C2)nc1CC[101CH2:1][101O:1]c1ccc2c(c1)CN(C(=O)C(NC(=O)C(C)NC)C(C)(C)C)C(C(=O)NC1CCCc3ccccc31)C2

> <Shape>
0.232

> <Color>
0.216

> <Negative vol penalty>
0.000

$$$$

  -OEChem-04052319063D

 87 95  0     1  0  0  0  0  0999 V2000
  -31.9998  -24.7135   19.1848 C   0  0  0  0  0  0  0  0  0  0  0  0
  -30.6230  -24.5140   19.1958 C   0  0  0  0  0  0  0  0  0  0  0  0
  -25.4833  -13.9722   18.7693 C   0  0  0  0  0  0  0  0  0  0  0  0
  -24.3030  -14.1477   20.8701 C   0  0  0  0  0  0  0  0  0  0  0  0
  -32.5961  -25.5051   20.1655 C   0  0  0  0  0  0  0  0  0  0  0  0
  -29.8418  -25.1051   20.1882 C   0  0  0  0  0  0  0  0  0  0  0  0
  -24.1375  -27.2524   19.5918 C   0  0  0  0  0  0  0  0  0  0  0  0
  -25.7323  -12.6233   19.0219 C   0  0  0  0  0  0  0  0  0  0  0  0
  -24.5520  -12.7987   21.1227 C   0  0  0  0  0  0  0  0  0  0  0  0
  -22.8926  -26.7068   19.9023 C   0  0  0  0  0  0  0  0  0  0  0  0
  -24.5656   -9.3122   22.1535 C   0  0  0  0  0  0  0  0  0  0  0  0
  -23.5098   -8.5352   22.6301 C   0  0  0  0  0  0  0  0  0  0  0  0
  -22.9157  -27.8714   22.0147 C   0  0  0  0  0  0  0  0  0  0  0  0
  -22.5486  -22.5063   22.7777 C   0  0  0  0  0  0  0  0  0  0  0  0
  -22.2426   -9.0329   20.6343 C   0  0  0  0  0  0  0  0  0  0  0  0
  -24.7687  -14.7345   19.6935 C   0  0  0  0  0  0  0  0  0  0  0  0
  -23.4016  -16.6774   18.7642 C   0  0  0  0  0  0  0  0  0  0  0  0
  -31.8207  -26.1141   21.1647 C   0  0  0  0  0  0  0  0  0  0  0  0
  -24.7869  -28.1044   20.4967 C   0  0  0  0  0  0  0  0  0  0  0  0
  -30.4285  -25.9046   21.1839 C   0  0  0  0  0  0  0  0  0  0  0  0
  -24.1676  -28.4286   21.7123 C   0  0  0  0  0  0  0  0  0  0  0  0
  -21.3543  -21.8627   22.4732 C   0  0  0  0  0  0  0  0  0  0  0  0
  -20.8096  -20.9564   23.3761 C   0  0  0  0  0  0  0  0  0  0  0  0
  -25.2667  -12.0365   20.1985 C   0  0  0  0  0  0  0  0  0  0  0  0
  -22.2829  -27.0140   21.1151 C   0  0  0  0  0  0  0  0  0  0  0  0
  -24.4599   -9.9497   20.9173 C   0  0  0  0  0  0  0  0  0  0  0  0
  -22.3483   -8.3956   21.8705 C   0  0  0  0  0  0  0  0  0  0  0  0
  -23.2984   -9.8100   20.1577 C   0  0  0  0  0  0  0  0  0  0  0  0
  -24.5116  -16.1282   19.4335 C   0  0  0  0  0  0  0  0  0  0  0  0
  -23.1540  -22.2111   23.9886 C   0  0  0  0  0  0  0  0  0  0  0  0
  -21.4929  -20.7304   24.5600 C   0  0  0  0  0  0  0  0  0  0  0  0
  -23.6275  -18.0321   18.7789 C   0  0  0  0  0  0  0  0  0  0  0  0
  -22.2675  -16.0217   18.1813 C   0  0  0  0  0  0  0  0  0  0  0  0
  -27.5282  -28.0016   22.1024 C   0  0  0  0  0  0  0  0  0  0  0  0
  -26.6939  -31.0191   22.9515 C   0  0  0  0  0  0  0  0  0  0  0  0
  -24.2156  -33.3221   23.4003 C   0  0  0  0  0  0  0  0  0  0  0  0
  -26.8027  -21.5971   22.3928 C   0  0  0  0  0  0  0  0  0  0  0  0
  -32.5159  -26.9227   22.2313 C   0  0  0  0  0  0  0  0  0  0  0  0
  -26.1173  -28.7060   20.1354 C   0  0  0  0  0  0  0  0  0  0  0  0
  -24.8137  -29.3542   22.7094 C   0  0  0  0  0  0  0  0  0  0  0  0
  -31.5718  -27.8188   23.0287 C   0  0  0  0  0  0  0  0  0  0  0  0
  -27.1806  -21.2349   18.8711 C   0  0  0  0  0  0  0  0  0  0  0  0
  -30.3286  -27.0423   23.4513 C   0  0  0  0  0  0  0  0  0  0  0  0
  -26.4393  -19.9346   18.5555 C   0  0  0  0  0  0  0  0  0  0  0  0
  -27.9011  -21.1617   20.2155 C   0  0  0  0  0  0  0  0  0  0  0  0
  -26.3075  -19.4716   21.0388 C   0  0  0  0  0  0  0  0  0  0  0  0
  -29.5444  -26.5491   22.2294 C   0  0  1  0  0  0  0  0  0  0  0  0
  -26.9211  -29.1534   21.3524 C   0  0  1  0  0  0  0  0  0  0  0  0
  -25.5194  -19.5171   19.7185 C   0  0  2  0  0  0  0  0  0  0  0  0
  -20.9566  -19.7690   25.5699 C   0  0  0  0  0  0  0  0  0  0  0  0
  -19.7487  -18.8076   22.6387 C   0  0  0  0  0  0  0  0  0  0  0  0
  -24.2893  -23.7657   25.6067 C   0  0  0  0  0  0  0  0  0  0  0  0
  -23.8376  -35.6906   24.1381 C   0  0  0  0  0  0  0  0  0  0  0  0
  -27.0693  -30.1709   25.8584 C   0  0  0  0  0  0  0  0  0  0  0  0
  -25.7920  -32.2115   26.5459 C   0  0  0  0  0  0  0  0  0  0  0  0
  -27.9484  -32.4481   25.3143 C   0  0  0  0  0  0  0  0  0  0  0  0
  -23.0983  -34.0861   20.7684 C   0  0  0  0  0  0  0  0  0  0  0  0
  -20.6741  -22.1621   21.1611 C   0  0  0  0  0  0  0  0  0  0  0  0
  -19.5285  -20.2529   23.0774 C   0  0  0  0  0  0  0  0  0  0  0  0
  -19.4561  -23.0834   21.2912 C   0  0  0  0  0  0  0  0  0  0  0  0
  -19.8117  -24.4758   21.8144 C   0  0  0  0  0  0  0  0  0  0  0  0
  -25.6128  -21.8988   24.5497 C   0  0  0  0  0  0  0  0  0  0  0  0
  -20.7634  -25.2006   20.8723 C   0  0  0  0  0  0  0  0  0  1  0  0
  -24.4361  -22.8840   24.3494 C   0  0  1  0  0  0  0  0  0  0  0  0
  -25.8989  -31.6311   24.0796 C   0  0  1  0  0  0  0  0  0  0  0  0
  -24.0921  -34.7684   22.9560 C   0  0  2  0  0  0  0  0  0  0  0  0
  -26.6656  -31.5964   25.4318 C   0  0  0  0  0  0  0  0  0  0  0  0
  -25.3785  -17.0580   19.8434 N   0  0  0  0  0  0  0  0  0  0  0  0
  -22.6551  -21.3366   24.8908 N   0  0  0  0  0  0  0  0  0  0  0  0
  -24.8131  -18.2052   19.4305 N   0  0  0  0  0  0  0  0  0  0  0  0
  -26.1172  -29.9120   22.3129 N   0  0  0  0  0  0  0  0  0  0  0  0
  -26.9727  -20.7624   21.2760 N   0  0  0  0  0  0  0  0  0  0  0  0
  -22.9257  -19.0803   18.2980 N   0  0  0  0  0  0  0  0  0  0  0  0
  -22.1929  -14.6241   18.2553 N   0  0  0  0  0  0  0  0  0  0  0  0
  -28.7800  -27.6321   21.6486 N   0  0  0  0  0  0  0  0  0  0  0  0
  -25.5278  -32.9709   23.6374 N   0  0  0  0  0  0  0  0  0  0  0  0
  -25.8996  -21.1472   23.3482 N   0  0  0  0  0  0  0  0  0  0  0  0
  -22.9664  -34.9195   21.9911 N   0  3  0  0  0  0  0  0  0  0  0  0
  -21.3558  -16.6551   17.5974 O   0  0  0  0  0  0  0  0  0  0  0  0
  -26.9076  -27.4873   23.0254 O   0  0  0  0  0  0  0  0  0  0  0  0
  -27.7829  -31.5097   22.6435 O   0  0  0  0  0  0  0  0  0  0  0  0
  -23.2448  -32.5793   23.5280 O   0  0  0  0  0  0  0  0  0  0  0  0
  -27.4067  -22.6669   22.5259 O   0  0  0  0  0  0  0  0  0  0  0  0
  -25.5093  -10.7201   20.4452 O   0  0  0  0  0  0  0  0  0  0  0  0
  -21.0681  -26.4823   21.4209 O   0  0  0  0  0  0  0  0  0  1  0  0
  -21.3351   -7.6481   22.3276 F   0  0  0  0  0  0  0  0  0  0  0  0
  -23.1915  -10.4190   18.9688 F   0  0  0  0  0  0  0  0  0  0  0  0
  1  2  1  0  0  0  0
  1  5  2  0  0  0  0
  2  6  2  0  0  0  0
  3  8  2  0  0  0  0
  3 16  1  0  0  0  0
  4  9  1  0  0  0  0
  4 16  2  0  0  0  0
  5 18  1  0  0  0  0
  6 20  1  0  0  0  0
  7 10  2  0  0  0  0
  7 19  1  0  0  0  0
  8 24  1  0  0  0  0
  9 24  2  0  0  0  0
 10 25  1  0  0  0  0
 11 12  2  0  0  0  0
 11 26  1  0  0  0  0
 12 27  1  0  0  0  0
 13 21  1  0  0  0  0
 13 25  2  0  0  0  0
 14 22  2  0  0  0  0
 14 30  1  0  0  0  0
 15 27  2  0  0  0  0
 15 28  1  0  0  0  0
 16 29  1  0  0  0  0
 17 29  1  0  0  0  0
 17 32  2  0  0  0  0
 17 33  1  0  0  0  0
 18 20  2  0  0  0  0
 18 38  1  0  0  0  0
 19 21  2  0  0  0  0
 19 39  1  0  0  0  0
 20 47  1  0  0  0  0
 21 40  1  0  0  0  0
 22 23  1  0  0  0  0
 22 58  1  0  0  0  0
 23 31  2  0  0  0  0
 23 59  1  0  0  0  0
 24 84  1  0  0  0  0
 25 85  1  0  0  0  0
 26 28  2  0  0  0  0
 26 84  1  0  0  0  0
 27 86  1  0  0  0  0
 28 87  1  0  0  0  0
 29 68  2  0  0  0  0
 30 64  1  0  0  0  0
 30 69  2  0  0  0  0
 31 50  1  0  0  0  0
 31 69  1  0  0  0  0
 32 70  1  0  0  0  0
 32 73  1  0  0  0  0
 33 74  1  0  0  0  0
 33 79  2  0  0  0  0
 34 48  1  0  0  0  0
 34 75  1  0  0  0  0
 34 80  2  0  0  0  0
 35 65  1  0  0  0  0
 35 71  1  0  0  0  0
 35 81  2  0  0  0  0
 36 66  1  0  0  0  0
 36 76  1  0  0  0  0
 36 82  2  0  0  0  0
 37 72  1  0  0  0  0
 37 77  1  0  0  0  0
 37 83  2  0  0  0  0
 38 41  1  0  0  0  0
 39 48  1  0  0  0  0
 40 71  1  0  0  0  0
 41 43  1  0  0  0  0
 42 44  1  0  0  0  0
 42 45  1  0  0  0  0
 43 47  1  0  0  0  0
 44 49  1  0  0  0  0
 45 72  1  0  0  0  0
 46 49  1  0  0  0  0
 46 72  1  0  0  0  0
 47 75  1  0  0  0  0
 48 71  1  0  0  0  0
 49 70  1  0  0  0  0
 51 59  1  0  0  0  0
 52 64  1  0  0  0  0
 53 66  1  0  0  0  0
 54 67  1  0  0  0  0
 55 67  1  0  0  0  0
 56 67  1  0  0  0  0
 57 78  1  0  0  0  0
 58 60  1  0  0  0  0
 60 61  1  0  0  0  0
 61 63  1  0  0  0  0
 62 64  1  0  0  0  0
 62 77  1  0  0  0  0
 63 85  1  0  0  0  0
 65 67  1  0  0  0  0
 65 76  1  0  0  0  0
 66 78  1  0  0  0  0
 68 70  1  0  0  0  0
M  CHG  1  78   1
M  ISO  4  37 100  63 101  77 100  85 101
M  END
> <Batch ID>
0089

> <Smiles>
CCc1c(CCC[101CH2:1][101O:1]c2ccc3c(c2)CN(C(=O)C(NC(=O)C(C)NC)C(C)(C)C)C(C(=O)NC2CCCc4ccccc42)C3)cc(C(C)C[100NH:0][100C:0](=O)N2CCCC(n3nc(-c4ccc(Oc5ccc(F)cc5F)cc4)c(C(N)=O)c3N)C2)nc1C

> <Shape>
0.222

> <Color>
0.067

> <Negative vol penalty>
0.000

$$$$

  -OEChem-04052319062D

  0  0  0     0  0  0  0  0  0999 V2000
M  END
$$$$

  -OEChem-04052319063D

 82 89  0     1  0  0  0  0  0999 V2000
  -21.0844  -20.2727   15.5237 C   0  0  0  0  0  0  0  0  0  0  0  0
  -22.0707  -19.2980   15.6353 C   0  0  0  0  0  0  0  0  0  0  0  0
  -26.1149  -27.9953   18.9070 C   0  0  0  0  0  0  0  0  0  0  0  0
  -26.4646  -27.9974   21.2976 C   0  0  0  0  0  0  0  0  0  0  0  0
  -20.8685  -21.1676   16.5709 C   0  0  0  0  0  0  0  0  0  0  0  0
  -22.8426  -19.2183   16.7938 C   0  0  0  0  0  0  0  0  0  0  0  0
  -25.0466  -14.1368   19.4066 C   0  0  0  0  0  0  0  0  0  0  0  0
  -25.1024  -28.9434   19.0543 C   0  0  0  0  0  0  0  0  0  0  0  0
  -25.4522  -28.9455   21.4449 C   0  0  0  0  0  0  0  0  0  0  0  0
  -26.2979  -13.5238   19.3576 C   0  0  0  0  0  0  0  0  0  0  0  0
  -22.0719  -28.9946   21.4875 C   0  0  0  0  0  0  0  0  0  0  0  0
  -21.1396  -28.7943   22.5055 C   0  0  0  0  0  0  0  0  0  0  0  0
  -26.9127  -14.6285   21.4121 C   0  0  0  0  0  0  0  0  0  0  0  0
  -21.7811  -30.8975   23.5066 C   0  0  0  0  0  0  0  0  0  0  0  0
  -26.7959  -27.5223   20.0287 C   0  0  0  0  0  0  0  0  0  0  0  0
  -29.2132  -26.7871   19.6765 C   0  0  0  0  0  0  0  0  0  0  0  0
  -21.6316  -21.0926   17.7468 C   0  0  0  0  0  0  0  0  0  0  0  0
  -24.7224  -15.0102   20.4547 C   0  0  0  0  0  0  0  0  0  0  0  0
  -22.6377  -20.1138   17.8572 C   0  0  0  0  0  0  0  0  0  0  0  0
  -25.6557  -15.2493   21.4734 C   0  0  0  0  0  0  0  0  0  0  0  0
  -24.7711  -29.4186   20.3232 C   0  0  0  0  0  0  0  0  0  0  0  0
  -27.2322  -13.7719   20.3589 C   0  0  0  0  0  0  0  0  0  0  0  0
  -22.8589  -30.1462   21.4791 C   0  0  0  0  0  0  0  0  0  0  0  0
  -20.9942  -29.7458   23.5150 C   0  0  0  0  0  0  0  0  0  0  0  0
  -22.7134  -31.0977   22.4886 C   0  0  0  0  0  0  0  0  0  0  0  0
  -27.8414  -26.5424   19.8772 C   0  0  0  0  0  0  0  0  0  0  0  0
  -29.7767  -25.5371   19.5960 C   0  0  0  0  0  0  0  0  0  0  0  0
  -29.9152  -28.0328   19.5723 C   0  0  0  0  0  0  0  0  0  0  0  0
  -23.9537  -18.0881   20.6532 C   0  0  0  0  0  0  0  0  0  0  0  0
  -30.2959  -20.4428   21.6100 C   0  0  0  0  0  0  0  0  0  0  0  0
  -23.4435  -17.3585   23.7724 C   0  0  0  0  0  0  0  0  0  0  0  0
  -24.1139  -15.3054   26.4148 C   0  0  0  0  0  0  0  0  0  0  0  0
  -21.3937  -22.1117   18.8328 C   0  0  0  0  0  0  0  0  0  0  0  0
  -23.3586  -15.6425   20.5072 C   0  0  0  0  0  0  0  0  0  0  0  0
  -25.3495  -16.1629   22.6310 C   0  0  0  0  0  0  0  0  0  0  0  0
  -22.0019  -21.7220   20.1776 C   0  0  0  0  0  0  0  0  0  0  0  0
  -27.6490  -20.9763   19.1735 C   0  0  0  0  0  0  0  0  0  0  0  0
  -23.4342  -21.2308   19.9934 C   0  0  0  0  0  0  0  0  0  0  0  0
  -27.5592  -22.5016   19.1489 C   0  0  0  0  0  0  0  0  0  0  0  0
  -27.9761  -20.4558   20.5707 C   0  0  0  0  0  0  0  0  0  0  0  0
  -29.1285  -22.5719   21.1352 C   0  0  0  0  0  0  0  0  0  0  0  0
  -23.4788  -19.9796   19.1081 C   0  0  1  0  0  0  0  0  0  0  0  0
  -23.3221  -16.9150   21.3480 C   0  0  1  0  0  0  0  0  0  0  0  0
  -28.8302  -23.1389   19.7372 C   0  0  2  0  0  0  0  0  0  0  0  0
  -32.6120  -11.7810   19.9894 C   0  0  0  0  0  0  0  0  0  0  0  0
  -23.5779  -14.9839   28.8452 C   0  0  0  0  0  0  0  0  0  0  0  0
  -30.5737  -15.3043   18.0623 C   0  0  0  0  0  0  0  0  0  0  0  0
  -25.3159  -19.6591   24.4872 C   0  0  0  0  0  0  0  0  0  0  0  0
  -25.4914  -18.7069   26.7961 C   0  0  0  0  0  0  0  0  0  0  0  0
  -23.2828  -19.4812   25.9327 C   0  0  0  0  0  0  0  0  0  0  0  0
  -22.9166  -12.6447   25.9182 C   0  0  0  0  0  0  0  0  0  0  0  0
  -32.4490  -16.2098   23.0533 C   0  0  0  0  0  0  0  0  0  0  0  0
  -30.2523  -18.9356   21.5913 C   0  0  0  0  0  0  0  0  0  0  0  0
  -31.0960  -11.9139   20.0258 C   0  0  0  0  0  0  0  0  0  0  0  0
  -30.9477  -14.9984   20.5551 C   0  0  0  0  0  0  0  0  0  0  0  0
  -31.5281  -18.3461   22.1651 C   0  0  0  0  0  0  0  0  0  0  0  0
  -31.6605  -16.3408   20.6947 C   0  0  0  0  0  0  0  0  0  0  0  0
  -28.9865  -12.8746   19.0272 C   0  0  0  0  0  0  0  0  0  1  0  0
  -24.2920  -17.3499   25.0210 C   0  0  1  0  0  0  0  0  0  0  0  0
  -23.2006  -14.6226   27.4169 C   0  0  2  0  0  0  0  0  0  0  0  0
  -31.1217  -14.3724   19.1545 C   0  0  1  0  0  0  0  0  0  0  0  0
  -30.5267  -12.9332   19.0096 C   0  0  1  0  0  0  0  0  0  0  0  0
  -24.6023  -18.7835   25.5365 C   0  0  0  0  0  0  0  0  0  0  0  0
  -27.5511  -25.2394   19.9213 N   0  0  0  0  0  0  0  0  0  0  0  0
  -28.7482  -24.6541   19.7471 N   0  0  0  0  0  0  0  0  0  0  0  0
  -24.0049  -16.7624   22.6343 N   0  0  0  0  0  0  0  0  0  0  0  0
  -29.1772  -21.1072   21.1068 N   0  0  0  0  0  0  0  0  0  0  0  0
  -31.0466  -25.1181   19.4113 N   0  0  0  0  0  0  0  0  0  0  0  0
  -29.1830  -29.2233   19.6777 N   0  0  0  0  0  0  0  0  0  0  0  0
  -23.0803  -18.8113   19.8636 N   0  0  0  0  0  0  0  0  0  0  0  0
  -23.5921  -16.5069   25.9844 N   0  0  0  0  0  0  0  0  0  0  0  0
  -23.2842  -13.1420   27.2689 N   0  3  0  0  0  0  0  0  0  0  0  0
  -31.4826  -16.8402   22.0812 N   0  3  1  0  0  0  0  0  0  0  0  0
  -31.1527  -28.0887   19.3747 O   0  0  0  0  0  0  0  0  0  0  0  0
  -25.1449  -18.3206   20.8222 O   0  0  0  0  0  0  0  0  0  0  0  0
  -31.2961  -21.0106   22.0564 O   0  0  0  0  0  0  0  0  0  0  0  0
  -22.3210  -17.8688   23.8076 O   0  0  0  0  0  0  0  0  0  0  0  0
  -25.1848  -14.8230   26.0530 O   0  0  0  0  0  0  0  0  0  0  0  0
  -23.7834  -30.3439   20.4673 O   0  0  0  0  0  0  0  0  0  0  0  0
  -28.4644  -13.1707   20.3128 O   0  0  0  0  0  0  0  0  0  1  0  0
  -20.0978  -29.5541   24.4917 F   0  0  0  0  0  0  0  0  0  0  0  0
  -23.4658  -32.2066   22.4852 F   0  0  0  0  0  0  0  0  0  0  0  0
  1  2  1  0  0  0  0
  1  5  2  0  0  0  0
  2  6  2  0  0  0  0
  3  8  2  0  0  0  0
  3 15  1  0  0  0  0
  4  9  1  0  0  0  0
  4 15  2  0  0  0  0
  5 17  1  0  0  0  0
  6 19  1  0  0  0  0
  7 10  2  0  0  0  0
  7 18  1  0  0  0  0
  8 21  1  0  0  0  0
  9 21  2  0  0  0  0
 10 22  1  0  0  0  0
 11 12  2  0  0  0  0
 11 23  1  0  0  0  0
 12 24  1  0  0  0  0
 13 20  1  0  0  0  0
 13 22  2  0  0  0  0
 14 24  2  0  0  0  0
 14 25  1  0  0  0  0
 15 26  1  0  0  0  0
 16 26  1  0  0  0  0
 16 27  2  0  0  0  0
 16 28  1  0  0  0  0
 17 19  2  0  0  0  0
 17 33  1  0  0  0  0
 18 20  2  0  0  0  0
 18 34  1  0  0  0  0
 19 42  1  0  0  0  0
 20 35  1  0  0  0  0
 21 79  1  0  0  0  0
 22 80  1  0  0  0  0
 23 25  2  0  0  0  0
 23 79  1  0  0  0  0
 24 81  1  0  0  0  0
 25 82  1  0  0  0  0
 26 64  2  0  0  0  0
 27 65  1  0  0  0  0
 27 68  1  0  0  0  0
 28 69  1  0  0  0  0
 28 74  2  0  0  0  0
 29 43  1  0  0  0  0
 29 70  1  0  0  0  0
 29 75  2  0  0  0  0
 30 53  1  0  0  0  0
 30 67  1  0  0  0  0
 30 76  2  0  0  0  0
 31 59  1  0  0  0  0
 31 66  1  0  0  0  0
 31 77  2  0  0  0  0
 32 60  1  0  0  0  0
 32 71  1  0  0  0  0
 32 78  2  0  0  0  0
 33 36  1  0  0  0  0
 34 43  1  0  0  0  0
 35 66  1  0  0  0  0
 36 38  1  0  0  0  0
 37 39  1  0  0  0  0
 37 40  1  0  0  0  0
 38 42  1  0  0  0  0
 39 44  1  0  0  0  0
 40 67  1  0  0  0  0
 41 44  1  0  0  0  0
 41 67  1  0  0  0  0
 42 70  1  0  0  0  0
 43 66  1  0  0  0  0
 44 65  1  0  0  0  0
 45 54  1  0  0  0  0
 46 60  1  0  0  0  0
 47 61  1  0  0  0  0
 48 63  1  0  0  0  0
 49 63  1  0  0  0  0
 50 63  1  0  0  0  0
 51 72  1  0  0  0  0
 52 73  1  0  0  0  0
 53 56  1  0  0  0  0
 54 62  1  0  0  0  0
 55 57  1  0  0  0  0
 55 61  1  0  0  0  0
 56 73  1  0  0  0  0
 57 73  1  0  0  0  0
 58 62  1  0  0  0  0
 58 80  1  0  0  0  0
 59 63  1  0  0  0  0
 59 71  1  0  0  0  0
 60 72  1  0  0  0  0
 61 62  1  0  0  0  0
 64 65  1  0  0  0  0
M  CHG  2  72   1  73   1
M  ISO  4  30 100  53 100  58 101  80 101
M  END
> <Batch ID>
0089

> <Smiles>
CCC(C(C)CCN(C)C[100CH2:0][100C:0](=O)N1CCCC(n2nc(-c3ccc(Oc4ccc(F)cc4F)cc3)c(C(N)=O)c2N)C1)[101CH2:1][101O:1]c1ccc2c(c1)CN(C(=O)C(NC(=O)C(C)NC)C(C)(C)C)C(C(=O)NC1CCCc3ccccc31)C2

> <Shape>
0.226

> <Color>
0.034

> <Negative vol penalty>
0.000

$$$$

  -OEChem-04052319063D

 85 93  0     1  0  0  0  0  0999 V2000
  -17.2346  -27.3513   20.2776 C   0  0  0  0  0  0  0  0  0  0  0  0
  -18.5097  -27.5040   19.7425 C   0  0  0  0  0  0  0  0  0  0  0  0
  -25.0474  -13.2785   22.0950 C   0  0  0  0  0  0  0  0  0  0  0  0
  -26.3942  -13.4448   20.0961 C   0  0  0  0  0  0  0  0  0  0  0  0
  -16.9953  -27.6806   21.6110 C   0  0  0  0  0  0  0  0  0  0  0  0
  -19.5460  -27.9873   20.5405 C   0  0  0  0  0  0  0  0  0  0  0  0
  -23.8271  -25.3414   19.9777 C   0  0  0  0  0  0  0  0  0  0  0  0
  -24.2542  -12.3098   21.4800 C   0  0  0  0  0  0  0  0  0  0  0  0
  -25.6010  -12.4761   19.4811 C   0  0  0  0  0  0  0  0  0  0  0  0
  -24.5912  -25.6008   18.8408 C   0  0  0  0  0  0  0  0  0  0  0  0
  -24.4438   -9.0049   20.7913 C   0  0  0  0  0  0  0  0  0  0  0  0
  -24.1184   -7.8682   21.5312 C   0  0  0  0  0  0  0  0  0  0  0  0
  -26.0601  -26.9933   20.1531 C   0  0  0  0  0  0  0  0  0  0  0  0
  -29.5414  -24.3198   17.1162 C   0  0  0  0  0  0  0  0  0  0  0  0
  -21.7709   -8.3924   21.3042 C   0  0  0  0  0  0  0  0  0  0  0  0
  -30.6188  -26.5409   18.2787 C   0  0  0  0  0  0  0  0  0  0  0  0
  -26.1174  -13.8460   21.4030 C   0  0  0  0  0  0  0  0  0  0  0  0
  -28.0990  -14.6343   22.8027 C   0  0  0  0  0  0  0  0  0  0  0  0
  -18.0315  -28.1591   22.4284 C   0  0  0  0  0  0  0  0  0  0  0  0
  -24.1681  -25.9157   21.2107 C   0  0  0  0  0  0  0  0  0  0  0  0
  -19.3201  -28.3247   21.8858 C   0  0  0  0  0  0  0  0  0  0  0  0
  -25.3003  -26.7375   21.3047 C   0  0  0  0  0  0  0  0  0  0  0  0
  -30.6571  -24.1878   17.9353 C   0  0  0  0  0  0  0  0  0  0  0  0
  -31.2122  -25.3146   18.5315 C   0  0  0  0  0  0  0  0  0  0  0  0
  -24.5310  -11.9086   20.1731 C   0  0  0  0  0  0  0  0  0  0  0  0
  -25.7062  -26.4292   18.9277 C   0  0  0  0  0  0  0  0  0  0  0  0
  -23.4327   -9.8355   20.3078 C   0  0  0  0  0  0  0  0  0  0  0  0
  -22.7820   -7.5619   21.7876 C   0  0  0  0  0  0  0  0  0  0  0  0
  -22.0963   -9.5292   20.5643 C   0  0  0  0  0  0  0  0  0  0  0  0
  -26.9367  -14.8471   22.0375 C   0  0  0  0  0  0  0  0  0  0  0  0
  -29.0227  -25.5906   16.9269 C   0  0  0  0  0  0  0  0  0  0  0  0
  -28.4995  -15.8938   23.1763 C   0  0  0  0  0  0  0  0  0  0  0  0
  -28.7579  -13.4077   23.1451 C   0  0  0  0  0  0  0  0  0  0  0  0
  -22.7409  -27.9203   23.2228 C   0  0  0  0  0  0  0  0  0  0  0  0
  -25.3038  -27.2502   25.0949 C   0  0  0  0  0  0  0  0  0  0  0  0
  -28.5447  -26.2012   25.3027 C   0  0  0  0  0  0  0  0  0  0  0  0
  -27.6266  -21.3214   20.8035 C   0  0  0  0  0  0  0  0  0  0  0  0
  -17.7139  -28.5467   23.8509 C   0  0  0  0  0  0  0  0  0  0  0  0
  -23.3491  -25.6045   22.4334 C   0  0  0  0  0  0  0  0  0  0  0  0
  -25.7206  -27.3623   22.6091 C   0  0  0  0  0  0  0  0  0  0  0  0
  -18.9514  -28.6980   24.7318 C   0  0  0  0  0  0  0  0  0  0  0  0
  -26.7640  -20.2577   24.0900 C   0  0  0  0  0  0  0  0  0  0  0  0
  -20.0199  -29.5174   24.0150 C   0  0  0  0  0  0  0  0  0  0  0  0
  -26.8153  -18.7312   24.0057 C   0  0  0  0  0  0  0  0  0  0  0  0
  -26.2296  -20.8766   22.8002 C   0  0  0  0  0  0  0  0  0  0  0  0
  -26.9853  -18.9310   21.4898 C   0  0  0  0  0  0  0  0  0  0  0  0
  -20.4759  -28.8225   22.7263 C   0  0  1  0  0  0  0  0  0  0  0  0
  -23.4905  -26.6550   23.5306 C   0  0  1  0  0  0  0  0  0  0  0  0
  -27.5703  -18.2643   22.7466 C   0  0  2  0  0  0  0  0  0  0  0  0
  -32.4068  -25.2301   19.4168 C   0  0  0  0  0  0  0  0  0  0  0  0
  -30.3803  -25.7927   26.9643 C   0  0  0  0  0  0  0  0  0  0  0  0
  -25.7760  -30.2571   25.3087 C   0  0  0  0  0  0  0  0  0  0  0  0
  -28.0853  -29.7648   26.1413 C   0  0  0  0  0  0  0  0  0  0  0  0
  -26.1015  -28.9956   27.4435 C   0  0  0  0  0  0  0  0  0  0  0  0
  -31.2475  -20.5337   19.2862 C   0  0  0  0  0  0  0  0  0  0  0  0
  -30.5585  -22.5487   20.5741 C   0  0  0  0  0  0  0  0  0  0  0  0
  -28.6922  -23.3280   24.6081 C   0  0  0  0  0  0  0  0  0  0  0  0
  -31.2400  -22.8319   18.1599 C   0  0  0  0  0  0  0  0  0  0  0  0
  -27.8122  -25.7720   16.0437 C   0  0  0  0  0  0  0  0  0  0  0  0
  -29.0437  -21.6055   18.7860 C   0  0  0  0  0  0  0  0  0  0  0  0
  -26.5053  -25.6653   16.8221 C   0  0  0  0  0  0  0  0  0  1  0  0
  -26.6823  -27.8398   25.2712 C   0  0  1  0  0  0  0  0  0  0  0  0
  -29.2169  -25.1788   26.2013 C   0  0  2  0  0  0  0  0  0  0  0  0
  -26.6525  -29.2042   26.0160 C   0  0  0  0  0  0  0  0  0  0  0  0
  -30.5141  -21.8864   19.1777 C   0  0  0  0  0  0  0  0  0  0  0  0
  -29.5345  -26.7085   17.4890 N   0  0  0  0  0  0  0  0  0  0  0  0
  -26.6193  -16.1400   21.9306 N   0  0  0  0  0  0  0  0  0  0  0  0
  -27.5881  -16.7511   22.6336 N   0  0  0  0  0  0  0  0  0  0  0  0
  -24.8840  -27.0329   23.7750 N   0  0  0  0  0  0  0  0  0  0  0  0
  -26.9895  -20.3941   21.6445 N   0  0  0  0  0  0  0  0  0  0  0  0
  -29.5389  -16.3406   23.9129 N   0  0  0  0  0  0  0  0  0  0  0  0
  -28.2128  -12.2037   22.6786 N   0  0  0  0  0  0  0  0  0  0  0  0
  -21.3846  -27.7382   23.0311 N   0  0  0  0  0  0  0  0  0  0  0  0
  -27.4830  -26.8152   25.9327 N   0  0  0  0  0  0  0  0  0  0  0  0
  -28.3306  -20.7798   19.7350 N   0  0  0  0  0  0  0  0  0  0  0  0
  -29.7344  -24.0391   25.3925 N   0  3  0  0  0  0  0  0  0  0  0  0
  -29.7898  -13.3791   23.8577 O   0  0  0  0  0  0  0  0  0  0  0  0
  -23.3478  -28.9833   23.1651 O   0  0  0  0  0  0  0  0  0  0  0  0
  -24.6274  -26.9853   26.0919 O   0  0  0  0  0  0  0  0  0  0  0  0
  -28.9258  -26.4345   24.1578 O   0  0  0  0  0  0  0  0  0  0  0  0
  -27.5765  -22.5413   20.9941 O   0  0  0  0  0  0  0  0  0  0  0  0
  -23.7574  -10.9633   19.5728 O   0  0  0  0  0  0  0  0  0  0  0  0
  -26.4533  -26.6846   17.8194 O   0  0  0  0  0  0  0  0  0  1  0  0
  -22.4696   -6.4694   22.4968 F   0  0  0  0  0  0  0  0  0  0  0  0
  -21.1206  -10.3227   20.1015 F   0  0  0  0  0  0  0  0  0  0  0  0
  1  2  1  0  0  0  0
  1  5  2  0  0  0  0
  2  6  2  0  0  0  0
  3  8  2  0  0  0  0
  3 17  1  0  0  0  0
  4  9  1  0  0  0  0
  4 17  2  0  0  0  0
  5 19  1  0  0  0  0
  6 21  1  0  0  0  0
  7 10  2  0  0  0  0
  7 20  1  0  0  0  0
  8 25  1  0  0  0  0
  9 25  2  0  0  0  0
 10 26  1  0  0  0  0
 11 12  2  0  0  0  0
 11 27  1  0  0  0  0
 12 28  1  0  0  0  0
 13 22  1  0  0  0  0
 13 26  2  0  0  0  0
 14 23  2  0  0  0  0
 14 31  1  0  0  0  0
 15 28  2  0  0  0  0
 15 29  1  0  0  0  0
 16 24  2  0  0  0  0
 16 66  1  0  0  0  0
 17 30  1  0  0  0  0
 18 30  1  0  0  0  0
 18 32  2  0  0  0  0
 18 33  1  0  0  0  0
 19 21  2  0  0  0  0
 19 38  1  0  0  0  0
 20 22  2  0  0  0  0
 20 39  1  0  0  0  0
 21 47  1  0  0  0  0
 22 40  1  0  0  0  0
 23 24  1  0  0  0  0
 23 58  1  0  0  0  0
 24 50  1  0  0  0  0
 25 82  1  0  0  0  0
 26 83  1  0  0  0  0
 27 29  2  0  0  0  0
 27 82  1  0  0  0  0
 28 84  1  0  0  0  0
 29 85  1  0  0  0  0
 30 67  2  0  0  0  0
 31 59  1  0  0  0  0
 31 66  2  0  0  0  0
 32 68  1  0  0  0  0
 32 71  1  0  0  0  0
 33 72  1  0  0  0  0
 33 77  2  0  0  0  0
 34 48  1  0  0  0  0
 34 73  1  0  0  0  0
 34 78  2  0  0  0  0
 35 62  1  0  0  0  0
 35 69  1  0  0  0  0
 35 79  2  0  0  0  0
 36 63  1  0  0  0  0
 36 74  1  0  0  0  0
 36 80  2  0  0  0  0
 37 70  1  0  0  0  0
 37 75  1  0  0  0  0
 37 81  2  0  0  0  0
 38 41  1  0  0  0  0
 39 48  1  0  0  0  0
 40 69  1  0  0  0  0
 41 43  1  0  0  0  0
 42 44  1  0  0  0  0
 42 45  1  0  0  0  0
 43 47  1  0  0  0  0
 44 49  1  0  0  0  0
 45 70  1  0  0  0  0
 46 49  1  0  0  0  0
 46 70  1  0  0  0  0
 47 73  1  0  0  0  0
 48 69  1  0  0  0  0
 49 68  1  0  0  0  0
 51 63  1  0  0  0  0
 52 64  1  0  0  0  0
 53 64  1  0  0  0  0
 54 64  1  0  0  0  0
 55 65  1  0  0  0  0
 56 65  1  0  0  0  0
 57 76  1  0  0  0  0
 58 65  1  0  0  0  0
 59 61  1  0  0  0  0
 60 65  1  0  0  0  0
 60 75  1  0  0  0  0
 61 83  1  0  0  0  0
 62 64  1  0  0  0  0
 62 74  1  0  0  0  0
 63 76  1  0  0  0  0
 67 68  1  0  0  0  0
M  CHG  1  76   1
M  ISO  4  37 100  61 101  75 100  83 101
M  END
> <Batch ID>
0089

> <Smiles>
CNC(C)C(=O)NC(C(=O)N1Cc2cc([101O:1][101CH2:1]Cc3cc(CC(C)(C)C[100NH:0][100C:0](=O)N4CCCC(n5nc(-c6ccc(Oc7ccc(F)cc7F)cc6)c(C(N)=O)c5N)C4)c(C)cn3)ccc2CC1C(=O)NC1CCCc2ccccc21)C(C)(C)C

> <Shape>
0.225

> <Color>
0.057

> <Negative vol penalty>
0.000

$$$$

  -OEChem-04052319063D

 91 99  0     1  0  0  0  0  0999 V2000
  -32.6687  -31.8295   23.1165 C   0  0  0  0  0  0  0  0  0  0  0  0
  -31.9621  -30.7207   22.6618 C   0  0  0  0  0  0  0  0  0  0  0  0
  -24.7820   -9.7566   21.7945 C   0  0  0  0  0  0  0  0  0  0  0  0
  -24.7887  -10.9624   23.8881 C   0  0  0  0  0  0  0  0  0  0  0  0
  -32.1094  -32.6619   24.0851 C   0  0  0  0  0  0  0  0  0  0  0  0
  -30.6962  -30.4430   23.1764 C   0  0  0  0  0  0  0  0  0  0  0  0
  -27.3589  -29.2184   19.5698 C   0  0  0  0  0  0  0  0  0  0  0  0
  -24.4796   -8.5771   22.4748 C   0  0  0  0  0  0  0  0  0  0  0  0
  -24.4863   -9.7829   24.5684 C   0  0  0  0  0  0  0  0  0  0  0  0
  -27.4249  -27.9249   19.0538 C   0  0  0  0  0  0  0  0  0  0  0  0
  -21.7520   -7.1185   23.8406 C   0  0  0  0  0  0  0  0  0  0  0  0
  -20.7551   -6.3007   23.3087 C   0  0  0  0  0  0  0  0  0  0  0  0
  -25.5798  -27.2742   20.4649 C   0  0  0  0  0  0  0  0  0  0  0  0
  -28.5050  -24.7872   22.0143 C   0  0  0  0  0  0  0  0  0  0  0  0
  -22.3498   -4.4991   23.0895 C   0  0  0  0  0  0  0  0  0  0  0  0
  -24.9366  -10.9493   22.5011 C   0  0  0  0  0  0  0  0  0  0  0  0
  -24.3388  -13.0996   21.2656 C   0  0  0  0  0  0  0  0  0  0  0  0
  -30.8320  -32.3997   24.6048 C   0  0  0  0  0  0  0  0  0  0  0  0
  -26.4082  -29.5473   20.5468 C   0  0  0  0  0  0  0  0  0  0  0  0
  -30.1199  -31.2718   24.1539 C   0  0  0  0  0  0  0  0  0  0  0  0
  -25.5020  -28.5732   20.9898 C   0  0  0  0  0  0  0  0  0  0  0  0
  -29.4898  -25.2189   22.8958 C   0  0  0  0  0  0  0  0  0  0  0  0
  -28.7673  -23.7285   21.1519 C   0  0  0  0  0  0  0  0  0  0  0  0
  -24.3317   -8.5902   23.8617 C   0  0  0  0  0  0  0  0  0  0  0  0
  -26.5372  -26.9518   19.5034 C   0  0  0  0  0  0  0  0  0  0  0  0
  -23.0479   -6.6266   23.9969 C   0  0  0  0  0  0  0  0  0  0  0  0
  -21.0540   -4.9910   22.9332 C   0  0  0  0  0  0  0  0  0  0  0  0
  -23.3468   -5.3169   23.6214 C   0  0  0  0  0  0  0  0  0  0  0  0
  -25.2495  -12.1680   21.7990 C   0  0  0  0  0  0  0  0  0  0  0  0
  -30.7106  -24.5637   22.8758 C   0  0  0  0  0  0  0  0  0  0  0  0
  -30.0204  -23.1402   21.2099 C   0  0  0  0  0  0  0  0  0  0  0  0
  -25.1308  -14.0714   20.7044 C   0  0  0  0  0  0  0  0  0  0  0  0
  -22.9051  -13.0877   21.2765 C   0  0  0  0  0  0  0  0  0  0  0  0
  -26.5432  -30.5634   23.5557 C   0  0  0  0  0  0  0  0  0  0  0  0
  -23.3269  -30.8035   23.2087 C   0  0  0  0  0  0  0  0  0  0  0  0
  -20.5046  -29.7871   21.5813 C   0  0  0  0  0  0  0  0  0  0  0  0
  -29.3089  -17.4621   20.7884 C   0  0  0  0  0  0  0  0  0  0  0  0
  -30.2886  -33.3013   25.6849 C   0  0  0  0  0  0  0  0  0  0  0  0
  -26.3325  -30.9540   21.0739 C   0  0  0  0  0  0  0  0  0  0  0  0
  -24.4495  -28.8805   22.0224 C   0  0  0  0  0  0  0  0  0  0  0  0
  -28.7859  -33.1489   25.9066 C   0  0  0  0  0  0  0  0  0  0  0  0
  -30.0951  -14.1673   19.7893 C   0  0  0  0  0  0  0  0  0  0  0  0
  -28.4042  -31.6740   25.9816 C   0  0  0  0  0  0  0  0  0  0  0  0
  -28.8248  -13.4184   20.1896 C   0  0  0  0  0  0  0  0  0  0  0  0
  -30.4940  -15.2181   20.8272 C   0  0  0  0  0  0  0  0  0  0  0  0
  -28.1399  -15.4207   21.5620 C   0  0  0  0  0  0  0  0  0  0  0  0
  -28.7338  -30.9514   24.6698 C   0  0  1  0  0  0  0  0  0  0  0  0
  -25.6594  -31.0448   22.4399 C   0  0  1  0  0  0  0  0  0  0  0  0
  -27.6841  -14.4007   20.5073 C   0  0  2  0  0  0  0  0  0  0  0  0
  -31.8065  -24.9844   23.7993 C   0  0  0  0  0  0  0  0  0  0  0  0
  -18.0193  -30.1331   21.5443 C   0  0  0  0  0  0  0  0  0  0  0  0
  -27.9158  -27.9638   28.4517 C   0  0  0  0  0  0  0  0  0  0  0  0
  -29.4077  -25.9628   28.2757 C   0  0  0  0  0  0  0  0  0  0  0  0
  -23.0539  -29.0933   25.7207 C   0  0  0  0  0  0  0  0  0  0  0  0
  -20.6632  -28.6856   25.0991 C   0  0  0  0  0  0  0  0  0  0  0  0
  -21.4470  -31.0044   25.5801 C   0  0  0  0  0  0  0  0  0  0  0  0
  -31.6985  -17.8339   21.5343 C   0  0  0  0  0  0  0  0  0  0  0  0
  -20.5676  -30.7808   18.7943 C   0  0  0  0  0  0  0  0  0  0  0  0
  -29.2151  -26.3525   23.8224 C   0  0  0  0  0  0  0  0  0  0  0  0
  -27.7037  -23.2557   20.1934 C   0  0  0  0  0  0  0  0  0  0  0  0
  -30.3569  -21.9983   20.3076 C   0  0  0  0  0  0  0  0  0  0  0  0
  -28.8917  -25.9284   25.2685 C   0  0  0  0  0  0  0  0  0  0  0  0
  -27.9309  -23.7081   18.7493 C   0  0  0  0  0  0  0  0  0  0  0  0
  -30.2789  -20.6137   20.9784 C   0  0  0  0  0  0  0  0  0  0  0  0
  -28.5484  -27.1206   26.1709 C   0  0  0  0  0  0  0  0  0  0  0  0
  -30.5722  -19.4434   20.0421 C   0  0  0  0  0  0  0  0  0  0  0  0
  -27.8794  -25.2216   18.5756 C   0  0  0  0  0  0  0  0  0  1  0  0
  -22.1556  -29.8774   23.4308 C   0  0  1  0  0  0  0  0  0  0  0  0
  -19.3574  -30.5706   20.9691 C   0  0  2  0  0  0  0  0  0  0  0  0
  -28.2466  -26.7175   27.6268 C   0  0  0  0  0  0  0  0  0  0  0  0
  -21.8509  -29.6586   24.9396 C   0  0  0  0  0  0  0  0  0  0  0  0
  -26.5226  -12.5165   21.5948 N   0  0  0  0  0  0  0  0  0  0  0  0
  -31.0023  -23.5318   22.0526 N   0  0  0  0  0  0  0  0  0  0  0  0
  -26.4176  -13.6779   20.9268 N   0  0  0  0  0  0  0  0  0  0  0  0
  -24.4198  -30.2686   22.5119 N   0  0  0  0  0  0  0  0  0  0  0  0
  -29.3636  -16.1043   21.1361 N   0  0  0  0  0  0  0  0  0  0  0  0
  -24.8450  -15.2154   20.0472 N   0  0  0  0  0  0  0  0  0  0  0  0
  -22.2506  -12.0143   21.8959 N   0  0  0  0  0  0  0  0  0  0  0  0
  -27.7372  -31.2504   23.6639 N   0  0  0  0  0  0  0  0  0  0  0  0
  -21.0427  -30.4375   22.6716 N   0  0  0  0  0  0  0  0  0  0  0  0
  -30.5253  -18.1583   20.7253 N   0  0  0  0  0  0  0  0  0  0  0  0
  -19.3226  -30.3697   19.4928 N   0  3  0  0  0  0  0  0  0  0  0  0
  -22.2246  -13.9936   20.7381 O   0  0  0  0  0  0  0  0  0  0  0  0
  -26.1688  -29.6382   24.2667 O   0  0  0  0  0  0  0  0  0  0  0  0
  -23.2713  -31.9610   23.6313 O   0  0  0  0  0  0  0  0  0  0  0  0
  -20.8828  -28.7046   21.1390 O   0  0  0  0  0  0  0  0  0  0  0  0
  -28.2317  -18.0251   20.5545 O   0  0  0  0  0  0  0  0  0  0  0  0
  -24.0364   -7.4394   24.5258 O   0  0  0  0  0  0  0  0  0  0  0  0
  -26.6000  -25.6884   19.0019 O   0  0  0  0  0  0  0  0  0  1  0  0
  -20.0961   -4.2053   22.4238 F   0  0  0  0  0  0  0  0  0  0  0  0
  -24.5897   -4.8383   23.7702 F   0  0  0  0  0  0  0  0  0  0  0  0
  1  2  1  0  0  0  0
  1  5  2  0  0  0  0
  2  6  2  0  0  0  0
  3  8  2  0  0  0  0
  3 16  1  0  0  0  0
  4  9  1  0  0  0  0
  4 16  2  0  0  0  0
  5 18  1  0  0  0  0
  6 20  1  0  0  0  0
  7 10  2  0  0  0  0
  7 19  1  0  0  0  0
  8 24  1  0  0  0  0
  9 24  2  0  0  0  0
 10 25  1  0  0  0  0
 11 12  2  0  0  0  0
 11 26  1  0  0  0  0
 12 27  1  0  0  0  0
 13 21  1  0  0  0  0
 13 25  2  0  0  0  0
 14 22  2  0  0  0  0
 14 23  1  0  0  0  0
 15 27  2  0  0  0  0
 15 28  1  0  0  0  0
 16 29  1  0  0  0  0
 17 29  1  0  0  0  0
 17 32  2  0  0  0  0
 17 33  1  0  0  0  0
 18 20  2  0  0  0  0
 18 38  1  0  0  0  0
 19 21  2  0  0  0  0
 19 39  1  0  0  0  0
 20 47  1  0  0  0  0
 21 40  1  0  0  0  0
 22 30  1  0  0  0  0
 22 59  1  0  0  0  0
 23 31  2  0  0  0  0
 23 60  1  0  0  0  0
 24 88  1  0  0  0  0
 25 89  1  0  0  0  0
 26 28  2  0  0  0  0
 26 88  1  0  0  0  0
 27 90  1  0  0  0  0
 28 91  1  0  0  0  0
 29 72  2  0  0  0  0
 30 50  1  0  0  0  0
 30 73  2  0  0  0  0
 31 61  1  0  0  0  0
 31 73  1  0  0  0  0
 32 74  1  0  0  0  0
 32 77  1  0  0  0  0
 33 78  1  0  0  0  0
 33 83  2  0  0  0  0
 34 48  1  0  0  0  0
 34 79  1  0  0  0  0
 34 84  2  0  0  0  0
 35 68  1  0  0  0  0
 35 75  1  0  0  0  0
 35 85  2  0  0  0  0
 36 69  1  0  0  0  0
 36 80  1  0  0  0  0
 36 86  2  0  0  0  0
 37 76  1  0  0  0  0
 37 81  1  0  0  0  0
 37 87  2  0  0  0  0
 38 41  1  0  0  0  0
 39 48  1  0  0  0  0
 40 75  1  0  0  0  0
 41 43  1  0  0  0  0
 42 44  1  0  0  0  0
 42 45  1  0  0  0  0
 43 47  1  0  0  0  0
 44 49  1  0  0  0  0
 45 76  1  0  0  0  0
 46 49  1  0  0  0  0
 46 76  1  0  0  0  0
 47 79  1  0  0  0  0
 48 75  1  0  0  0  0
 49 74  1  0  0  0  0
 51 69  1  0  0  0  0
 52 70  1  0  0  0  0
 53 70  1  0  0  0  0
 54 71  1  0  0  0  0
 55 71  1  0  0  0  0
 56 71  1  0  0  0  0
 57 81  1  0  0  0  0
 58 82  1  0  0  0  0
 59 62  1  0  0  0  0
 60 63  1  0  0  0  0
 61 64  1  0  0  0  0
 62 65  1  0  0  0  0
 63 67  1  0  0  0  0
 64 66  1  0  0  0  0
 65 70  1  0  0  0  0
 66 81  1  0  0  0  0
 67 89  1  0  0  0  0
 68 71  1  0  0  0  0
 68 80  1  0  0  0  0
 69 82  1  0  0  0  0
 72 74  1  0  0  0  0
M  CHG  1  82   1
M  ISO  4  37 100  67 101  81 100  89 101
M  END
> <Batch ID>
0089

> <Smiles>
CNC(C)C(=O)NC(C(=O)N1Cc2cc([101O:1][101CH2:1]CCc3cc(CCCC(C)C)c(C)nc3CCC[100N:0](C)[100C:0](=O)N3CCCC(n4nc(-c5ccc(Oc6ccc(F)cc6F)cc5)c(C(N)=O)c4N)C3)ccc2CC1C(=O)NC1CCCc2ccccc21)C(C)(C)C

> <Shape>
0.278

> <Color>
0.121

> <Negative vol penalty>
0.000

$$$$

  -OEChem-04052319063D

 86 94  0     1  0  0  0  0  0999 V2000
  -30.8102  -26.5566   14.1051 C   0  0  0  0  0  0  0  0  0  0  0  0
  -30.9487  -25.3923   14.8538 C   0  0  0  0  0  0  0  0  0  0  0  0
  -23.3007   -9.7755   19.9317 C   0  0  0  0  0  0  0  0  0  0  0  0
  -23.7413   -9.9530   22.3005 C   0  0  0  0  0  0  0  0  0  0  0  0
  -31.3915  -27.7433   14.5499 C   0  0  0  0  0  0  0  0  0  0  0  0
  -31.6695  -25.4137   16.0473 C   0  0  0  0  0  0  0  0  0  0  0  0
  -29.3145  -22.9368   19.7841 C   0  0  0  0  0  0  0  0  0  0  0  0
  -22.5851   -8.5989   20.1529 C   0  0  0  0  0  0  0  0  0  0  0  0
  -23.0257   -8.7764   22.5218 C   0  0  0  0  0  0  0  0  0  0  0  0
  -29.3900  -21.5447   19.7718 C   0  0  0  0  0  0  0  0  0  0  0  0
  -23.2686   -5.3386   20.7256 C   0  0  0  0  0  0  0  0  0  0  0  0
  -23.5107   -4.2633   19.8708 C   0  0  0  0  0  0  0  0  0  0  0  0
  -31.1392  -21.6310   21.4307 C   0  0  0  0  0  0  0  0  0  0  0  0
  -21.1907   -4.2772   19.1964 C   0  0  0  0  0  0  0  0  0  0  0  0
  -23.8789  -10.4526   21.0055 C   0  0  0  0  0  0  0  0  0  0  0  0
  -24.1143  -12.9820   20.7730 C   0  0  0  0  0  0  0  0  0  0  0  0
  -32.1117  -27.7814   15.7543 C   0  0  0  0  0  0  0  0  0  0  0  0
  -30.1597  -23.6882   20.6131 C   0  0  0  0  0  0  0  0  0  0  0  0
  -32.2622  -26.6017   16.5079 C   0  0  0  0  0  0  0  0  0  0  0  0
  -31.0706  -23.0324   21.4535 C   0  0  0  0  0  0  0  0  0  0  0  0
  -22.4475   -8.0993   21.4480 C   0  0  0  0  0  0  0  0  0  0  0  0
  -30.3044  -20.8917   20.5931 C   0  0  0  0  0  0  0  0  0  0  0  0
  -21.9876   -5.8832   20.8158 C   0  0  0  0  0  0  0  0  0  0  0  0
  -22.4718   -3.7326   19.1062 C   0  0  0  0  0  0  0  0  0  0  0  0
  -20.9487   -5.3525   20.0512 C   0  0  0  0  0  0  0  0  0  0  0  0
  -24.6188  -11.6678   20.7775 C   0  0  0  0  0  0  0  0  0  0  0  0
  -25.2090  -13.7691   20.5113 C   0  0  0  0  0  0  0  0  0  0  0  0
  -22.7758  -13.4496   20.9865 C   0  0  0  0  0  0  0  0  0  0  0  0
  -32.4211  -25.8682   20.1259 C   0  0  0  0  0  0  0  0  0  0  0  0
  -32.3647  -26.0839   23.3620 C   0  0  0  0  0  0  0  0  0  0  0  0
  -31.6444  -24.6049   26.3521 C   0  0  0  0  0  0  0  0  0  0  0  0
  -31.1330  -12.4557   21.3593 C   0  0  0  0  0  0  0  0  0  0  0  0
  -32.7622  -29.0769   16.1704 C   0  0  0  0  0  0  0  0  0  0  0  0
  -30.0473  -25.1880   20.6344 C   0  0  0  0  0  0  0  0  0  0  0  0
  -31.9863  -23.7922   22.3770 C   0  0  0  0  0  0  0  0  0  0  0  0
  -33.1929  -29.0994   17.6348 C   0  0  0  0  0  0  0  0  0  0  0  0
  -29.4476  -13.6953   18.3058 C   0  0  0  0  0  0  0  0  0  0  0  0
  -33.9265  -27.8115   17.9952 C   0  0  0  0  0  0  0  0  0  0  0  0
  -28.0638  -18.6655   24.5189 C   0  0  0  0  0  0  0  0  0  0  0  0
  -27.9820  -13.3569   18.5736 C   0  0  0  0  0  0  0  0  0  0  0  0
  -28.0872  -18.5057   23.0041 C   0  0  0  0  0  0  0  0  0  0  0  0
  -30.3916  -12.7341   19.0217 C   0  0  0  0  0  0  0  0  0  0  0  0
  -28.6835  -12.2925   20.7543 C   0  0  0  0  0  0  0  0  0  0  0  0
  -29.2865  -16.4818   24.7487 C   0  0  0  0  0  0  0  0  0  0  0  0
  -33.0157  -26.5903   17.8203 C   0  0  1  0  0  0  0  0  0  0  0  0
  -31.3122  -25.8749   21.1399 C   0  0  1  0  0  0  0  0  0  0  0  0
  -28.0843  -17.3022   25.2115 C   0  0  1  0  0  0  0  0  0  0  0  0
  -27.7063  -13.2704   20.0848 C   0  0  2  0  0  0  0  0  0  0  0  0
  -29.2835  -17.6747   22.5252 C   0  0  2  0  0  0  0  0  0  0  0  0
  -31.7410  -25.0140   28.8261 C   0  0  0  0  0  0  0  0  0  0  0  0
  -25.5751  -17.6694   26.9408 C   0  0  0  0  0  0  0  0  0  0  0  0
  -27.0697  -18.4627   28.7847 C   0  0  0  0  0  0  0  0  0  0  0  0
  -35.3775  -25.6027   23.3216 C   0  0  0  0  0  0  0  0  0  0  0  0
  -35.2564  -25.0789   25.7668 C   0  0  0  0  0  0  0  0  0  0  0  0
  -34.6214  -27.3474   24.9461 C   0  0  0  0  0  0  0  0  0  0  0  0
  -32.0384  -12.8447   23.6195 C   0  0  0  0  0  0  0  0  0  0  0  0
  -28.7107  -24.3305   26.6292 C   0  0  0  0  0  0  0  0  0  0  0  0
  -28.1074  -17.4706   26.7297 C   0  0  0  0  0  0  0  0  0  0  0  0
  -29.2086  -17.4867   21.0207 C   0  0  0  0  0  0  0  0  0  0  0  0
  -29.9220  -13.9515   23.0020 C   0  0  0  0  0  0  0  0  0  0  0  0
  -30.3618  -15.3899   22.8030 C   0  0  0  0  0  0  0  0  0  0  0  0
  -29.1824  -18.8176   20.2847 C   0  0  0  0  0  0  0  0  0  1  0  0
  -33.0862  -25.3905   24.4924 C   0  0  1  0  0  0  0  0  0  0  0  0
  -30.8900  -25.1087   27.5693 C   0  0  2  0  0  0  0  0  0  0  0  0
  -26.9303  -18.2973   27.2696 C   0  0  0  0  0  0  0  0  0  0  0  0
  -34.5696  -25.8404   24.6130 C   0  0  0  0  0  0  0  0  0  0  0  0
  -25.9318  -11.6186   20.5374 N   0  0  0  0  0  0  0  0  0  0  0  0
  -26.2616  -12.9119   20.3796 N   0  0  0  0  0  0  0  0  0  0  0  0
  -31.8429  -25.2573   22.3569 N   0  0  0  0  0  0  0  0  0  0  0  0
  -30.0798  -12.6380   20.4482 N   0  0  0  0  0  0  0  0  0  0  0  0
  -25.3643  -15.1040   20.3831 N   0  0  0  0  0  0  0  0  0  0  0  0
  -21.7715  -12.5063   21.2432 N   0  0  0  0  0  0  0  0  0  0  0  0
  -32.0953  -26.4828   18.9319 N   0  0  0  0  0  0  0  0  0  0  0  0
  -32.2902  -25.6286   25.6916 N   0  0  0  0  0  0  0  0  0  0  0  0
  -30.9692  -12.9977   22.6431 N   0  0  0  0  0  0  0  0  0  0  0  0
  -29.2603  -16.3260   23.2393 N   0  3  1  0  0  0  0  0  0  0  0  0
  -29.6511  -24.3075   27.7791 N   0  3  0  0  0  0  0  0  0  0  0  0
  -22.4762  -14.6665   20.9344 O   0  0  0  0  0  0  0  0  0  0  0  0
  -33.4933  -25.3456   20.4065 O   0  0  0  0  0  0  0  0  0  0  0  0
  -32.2616  -27.3130   23.3742 O   0  0  0  0  0  0  0  0  0  0  0  0
  -31.6624  -23.4210   26.0225 O   0  0  0  0  0  0  0  0  0  0  0  0
  -32.1652  -11.8516   21.0403 O   0  0  0  0  0  0  0  0  0  0  0  0
  -21.7490   -6.9513   21.6643 O   0  0  0  0  0  0  0  0  0  0  0  0
  -30.3807  -19.5331   20.5826 O   0  0  0  0  0  0  0  0  0  1  0  0
  -22.7047   -2.7009   18.2842 F   0  0  0  0  0  0  0  0  0  0  0  0
  -19.7162   -5.8722   20.1327 F   0  0  0  0  0  0  0  0  0  0  0  0
  1  2  1  0  0  0  0
  1  5  2  0  0  0  0
  2  6  2  0  0  0  0
  3  8  2  0  0  0  0
  3 15  1  0  0  0  0
  4  9  1  0  0  0  0
  4 15  2  0  0  0  0
  5 17  1  0  0  0  0
  6 19  1  0  0  0  0
  7 10  2  0  0  0  0
  7 18  1  0  0  0  0
  8 21  1  0  0  0  0
  9 21  2  0  0  0  0
 10 22  1  0  0  0  0
 11 12  2  0  0  0  0
 11 23  1  0  0  0  0
 12 24  1  0  0  0  0
 13 20  1  0  0  0  0
 13 22  2  0  0  0  0
 14 24  2  0  0  0  0
 14 25  1  0  0  0  0
 15 26  1  0  0  0  0
 16 26  1  0  0  0  0
 16 27  2  0  0  0  0
 16 28  1  0  0  0  0
 17 19  2  0  0  0  0
 17 33  1  0  0  0  0
 18 20  2  0  0  0  0
 18 34  1  0  0  0  0
 19 45  1  0  0  0  0
 20 35  1  0  0  0  0
 21 83  1  0  0  0  0
 22 84  1  0  0  0  0
 23 25  2  0  0  0  0
 23 83  1  0  0  0  0
 24 85  1  0  0  0  0
 25 86  1  0  0  0  0
 26 67  2  0  0  0  0
 27 68  1  0  0  0  0
 27 71  1  0  0  0  0
 28 72  1  0  0  0  0
 28 78  2  0  0  0  0
 29 46  1  0  0  0  0
 29 73  1  0  0  0  0
 29 79  2  0  0  0  0
 30 63  1  0  0  0  0
 30 69  1  0  0  0  0
 30 80  2  0  0  0  0
 31 64  1  0  0  0  0
 31 74  1  0  0  0  0
 31 81  2  0  0  0  0
 32 70  1  0  0  0  0
 32 75  1  0  0  0  0
 32 82  2  0  0  0  0
 33 36  1  0  0  0  0
 34 46  1  0  0  0  0
 35 69  1  0  0  0  0
 36 38  1  0  0  0  0
 37 40  1  0  0  0  0
 37 42  1  0  0  0  0
 38 45  1  0  0  0  0
 39 41  1  0  0  0  0
 39 47  1  0  0  0  0
 40 48  1  0  0  0  0
 41 49  1  0  0  0  0
 42 70  1  0  0  0  0
 43 48  1  0  0  0  0
 43 70  1  0  0  0  0
 44 47  1  0  0  0  0
 44 76  1  0  0  0  0
 45 73  1  0  0  0  0
 46 69  1  0  0  0  0
 47 58  1  0  0  0  0
 48 68  1  0  0  0  0
 49 59  1  0  0  0  0
 49 76  1  0  0  0  0
 50 64  1  0  0  0  0
 51 65  1  0  0  0  0
 52 65  1  0  0  0  0
 53 66  1  0  0  0  0
 54 66  1  0  0  0  0
 55 66  1  0  0  0  0
 56 75  1  0  0  0  0
 57 77  1  0  0  0  0
 58 65  1  0  0  0  0
 59 62  1  0  0  0  0
 60 61  1  0  0  0  0
 60 75  1  0  0  0  0
 61 76  1  0  0  0  0
 62 84  1  0  0  0  0
 63 66  1  0  0  0  0
 63 74  1  0  0  0  0
 64 77  1  0  0  0  0
 67 68  1  0  0  0  0
M  CHG  2  76   1  77   1
M  ISO  4  32 100  62 101  75 100  84 101
M  END
> <Batch ID>
0089

> <Smiles>
CNC(C)C(=O)NC(C(=O)N1Cc2cc([101O:1][101CH2:1]CC3CCC(CC(C)C)CN3CC[100N:0](C)[100C:0](=O)N3CCCC(n4nc(-c5ccc(Oc6ccc(F)cc6F)cc5)c(C(N)=O)c4N)C3)ccc2CC1C(=O)NC1CCCc2ccccc21)C(C)(C)C

> <Shape>
0.189

> <Color>
0.176

> <Negative vol penalty>
0.000

$$$$

  -OEChem-04052319063D

 89 97  0     1  0  0  0  0  0999 V2000
  -15.6703  -22.8188   22.6083 C   0  0  0  0  0  0  0  0  0  0  0  0
  -16.7931  -22.5950   21.8180 C   0  0  0  0  0  0  0  0  0  0  0  0
  -23.0156   -9.9501   19.9207 C   0  0  0  0  0  0  0  0  0  0  0  0
  -23.8810   -9.8190   22.1726 C   0  0  0  0  0  0  0  0  0  0  0  0
  -15.6127  -23.9409   23.4339 C   0  0  0  0  0  0  0  0  0  0  0  0
  -17.8587  -23.4939   21.8520 C   0  0  0  0  0  0  0  0  0  0  0  0
  -22.3513  -21.1719   22.1160 C   0  0  0  0  0  0  0  0  0  0  0  0
  -22.2674   -8.7937   20.1408 C   0  0  0  0  0  0  0  0  0  0  0  0
  -23.1327   -8.6626   22.3928 C   0  0  0  0  0  0  0  0  0  0  0  0
  -22.8572  -20.6280   20.9361 C   0  0  0  0  0  0  0  0  0  0  0  0
  -19.9247   -7.8706   23.1013 C   0  0  0  0  0  0  0  0  0  0  0  0
  -19.2223   -7.7739   24.3024 C   0  0  0  0  0  0  0  0  0  0  0  0
  -24.2840  -22.5544   20.6669 C   0  0  0  0  0  0  0  0  0  0  0  0
  -20.4683   -5.7835   24.8707 C   0  0  0  0  0  0  0  0  0  0  0  0
  -28.4594  -18.3084   19.8205 C   0  0  0  0  0  0  0  0  0  0  0  0
  -23.8224  -10.4628   20.9366 C   0  0  0  0  0  0  0  0  0  0  0  0
  -24.1950  -12.9864   20.9413 C   0  0  0  0  0  0  0  0  0  0  0  0
  -16.6821  -24.8488   23.4853 C   0  0  0  0  0  0  0  0  0  0  0  0
  -22.8008  -22.4183   22.5752 C   0  0  0  0  0  0  0  0  0  0  0  0
  -17.8148  -24.6299   22.6781 C   0  0  0  0  0  0  0  0  0  0  0  0
  -23.7840  -23.1108   21.8542 C   0  0  0  0  0  0  0  0  0  0  0  0
  -22.3260   -8.1499   21.3769 C   0  0  0  0  0  0  0  0  0  0  0  0
  -23.8216  -21.3206   20.2099 C   0  0  0  0  0  0  0  0  0  0  0  0
  -20.8989   -6.9237   22.7847 C   0  0  0  0  0  0  0  0  0  0  0  0
  -19.4941   -6.7304   25.1872 C   0  0  0  0  0  0  0  0  0  0  0  0
  -21.1706   -5.8802   23.6695 C   0  0  0  0  0  0  0  0  0  0  0  0
  -24.5960  -11.6570   20.7096 C   0  0  0  0  0  0  0  0  0  0  0  0
  -27.1295  -18.6658   19.9098 C   0  0  0  0  0  0  0  0  0  0  0  0
  -29.1694  -18.3496   21.0031 C   0  0  0  0  0  0  0  0  0  0  0  0
  -25.2799  -13.7421   20.5692 C   0  0  0  0  0  0  0  0  0  0  0  0
  -27.3270  -19.0360   22.1439 C   0  0  0  0  0  0  0  0  0  0  0  0
  -22.9529  -13.4930   21.4476 C   0  0  0  0  0  0  0  0  0  0  0  0
  -21.4336  -25.2373   23.1118 C   0  0  0  0  0  0  0  0  0  0  0  0
  -24.3533  -25.9876   24.3095 C   0  0  0  0  0  0  0  0  0  0  0  0
  -27.7084  -25.3653   24.3671 C   0  0  0  0  0  0  0  0  0  0  0  0
  -30.7807  -14.6836   20.5557 C   0  0  0  0  0  0  0  0  0  0  0  0
  -16.5542  -26.0725   24.3576 C   0  0  0  0  0  0  0  0  0  0  0  0
  -22.2645  -22.9790   23.8638 C   0  0  0  0  0  0  0  0  0  0  0  0
  -24.3146  -24.4429   22.3150 C   0  0  0  0  0  0  0  0  0  0  0  0
  -17.8832  -26.7775   24.6165 C   0  0  0  0  0  0  0  0  0  0  0  0
  -29.4992  -12.4508   18.0961 C   0  0  0  0  0  0  0  0  0  0  0  0
  -18.6662  -26.9348   23.3169 C   0  0  0  0  0  0  0  0  0  0  0  0
  -28.0793  -12.1503   18.5792 C   0  0  0  0  0  0  0  0  0  0  0  0
  -30.4741  -12.5928   19.2629 C   0  0  0  0  0  0  0  0  0  0  0  0
  -28.6495  -13.2673   20.7760 C   0  0  0  0  0  0  0  0  0  0  0  0
  -19.0013  -25.5688   22.7060 C   0  0  1  0  0  0  0  0  0  0  0  0
  -22.4197  -24.4931   23.9671 C   0  0  1  0  0  0  0  0  0  0  0  0
  -27.6194  -13.1708   19.6377 C   0  0  2  0  0  0  0  0  0  0  0  0
  -31.5127  -19.1642   21.4143 C   0  0  0  0  0  0  0  0  0  0  0  0
  -29.8429  -26.1673   25.4150 C   0  0  0  0  0  0  0  0  0  0  0  0
  -24.5841  -18.0796   27.8403 C   0  0  0  0  0  0  0  0  0  0  0  0
  -26.5177  -16.7344   26.9964 C   0  0  0  0  0  0  0  0  0  0  0  0
  -24.3619  -28.3993   22.4404 C   0  0  0  0  0  0  0  0  0  0  0  0
  -26.8284  -28.5980   22.8215 C   0  0  0  0  0  0  0  0  0  0  0  0
  -25.2479  -28.8542   24.7344 C   0  0  0  0  0  0  0  0  0  0  0  0
  -28.1981  -22.7447   25.6522 C   0  0  0  0  0  0  0  0  0  0  0  0
  -26.2713  -18.6512   18.6701 C   0  0  0  0  0  0  0  0  0  0  0  0
  -26.6977  -19.4365   23.4352 C   0  0  0  0  0  0  0  0  0  0  0  0
  -26.2619  -19.9803   17.9118 C   0  0  0  0  0  0  0  0  0  0  0  0
  -26.3369  -18.2570   24.3583 C   0  0  0  0  0  0  0  0  0  0  0  0
  -25.6298  -18.7066   25.6433 C   0  0  0  0  0  0  0  0  0  0  0  0
  -30.9350  -16.7602   21.9058 C   0  0  0  0  0  0  0  0  0  0  0  0
  -25.6600  -21.1285   18.7136 C   0  0  0  0  0  0  0  0  0  1  0  0
  -30.6145  -17.9782   21.0061 C   0  0  1  0  0  0  0  0  0  0  0  0
  -25.6277  -26.5614   23.7389 C   0  0  1  0  0  0  0  0  0  0  0  0
  -28.6810  -25.1917   25.5196 C   0  0  2  0  0  0  0  0  0  0  0  0
  -25.2839  -17.5414   26.5898 C   0  0  0  0  0  0  0  0  0  0  0  0
  -25.5053  -28.0790   23.4239 C   0  0  0  0  0  0  0  0  0  0  0  0
  -25.8385  -11.5698   20.2275 N   0  0  0  0  0  0  0  0  0  0  0  0
  -26.5285  -19.0362   21.0595 N   0  0  0  0  0  0  0  0  0  0  0  0
  -28.6329  -18.7102   22.1874 N   0  0  0  0  0  0  0  0  0  0  0  0
  -26.2277  -12.8540   20.1532 N   0  0  0  0  0  0  0  0  0  0  0  0
  -23.7545  -24.9523   23.5777 N   0  0  0  0  0  0  0  0  0  0  0  0
  -29.9802  -13.5763   20.2297 N   0  0  0  0  0  0  0  0  0  0  0  0
  -25.5060  -15.0730   20.5606 N   0  0  0  0  0  0  0  0  0  0  0  0
  -21.9446  -12.5784   21.7810 N   0  0  0  0  0  0  0  0  0  0  0  0
  -20.1122  -24.9607   23.4064 N   0  0  0  0  0  0  0  0  0  0  0  0
  -26.6850  -26.2317   24.6886 N   0  0  0  0  0  0  0  0  0  0  0  0
  -30.2347  -15.5706   21.4753 N   0  0  0  0  0  0  0  0  0  0  0  0
  -29.2301  -23.8063   25.5298 N   0  3  0  0  0  0  0  0  0  0  0  0
  -22.7374  -14.7211   21.5843 O   0  0  0  0  0  0  0  0  0  0  0  0
  -21.8414  -26.0067   22.2496 O   0  0  0  0  0  0  0  0  0  0  0  0
  -23.9095  -26.4363   25.3694 O   0  0  0  0  0  0  0  0  0  0  0  0
  -27.8450  -24.7928   23.2882 O   0  0  0  0  0  0  0  0  0  0  0  0
  -31.8968  -14.8707   20.0595 O   0  0  0  0  0  0  0  0  0  0  0  0
  -21.5959   -7.0216   21.5921 O   0  0  0  0  0  0  0  0  0  0  0  0
  -24.3166  -20.7923   19.0576 O   0  0  0  0  0  0  0  0  0  1  0  0
  -18.8206   -6.6385   26.3414 F   0  0  0  0  0  0  0  0  0  0  0  0
  -22.1062   -4.9682   23.3714 F   0  0  0  0  0  0  0  0  0  0  0  0
  1  2  1  0  0  0  0
  1  5  2  0  0  0  0
  2  6  2  0  0  0  0
  3  8  2  0  0  0  0
  3 16  1  0  0  0  0
  4  9  1  0  0  0  0
  4 16  2  0  0  0  0
  5 18  1  0  0  0  0
  6 20  1  0  0  0  0
  7 10  2  0  0  0  0
  7 19  1  0  0  0  0
  8 22  1  0  0  0  0
  9 22  2  0  0  0  0
 10 23  1  0  0  0  0
 11 12  2  0  0  0  0
 11 24  1  0  0  0  0
 12 25  1  0  0  0  0
 13 21  1  0  0  0  0
 13 23  2  0  0  0  0
 14 25  2  0  0  0  0
 14 26  1  0  0  0  0
 15 28  1  0  0  0  0
 15 29  2  0  0  0  0
 16 27  1  0  0  0  0
 17 27  1  0  0  0  0
 17 30  2  0  0  0  0
 17 32  1  0  0  0  0
 18 20  2  0  0  0  0
 18 37  1  0  0  0  0
 19 21  2  0  0  0  0
 19 38  1  0  0  0  0
 20 46  1  0  0  0  0
 21 39  1  0  0  0  0
 22 86  1  0  0  0  0
 23 87  1  0  0  0  0
 24 26  2  0  0  0  0
 24 86  1  0  0  0  0
 25 88  1  0  0  0  0
 26 89  1  0  0  0  0
 27 69  2  0  0  0  0
 28 57  1  0  0  0  0
 28 70  2  0  0  0  0
 29 64  1  0  0  0  0
 29 71  1  0  0  0  0
 30 72  1  0  0  0  0
 30 75  1  0  0  0  0
 31 58  1  0  0  0  0
 31 70  1  0  0  0  0
 31 71  2  0  0  0  0
 32 76  1  0  0  0  0
 32 81  2  0  0  0  0
 33 47  1  0  0  0  0
 33 77  1  0  0  0  0
 33 82  2  0  0  0  0
 34 65  1  0  0  0  0
 34 73  1  0  0  0  0
 34 83  2  0  0  0  0
 35 66  1  0  0  0  0
 35 78  1  0  0  0  0
 35 84  2  0  0  0  0
 36 74  1  0  0  0  0
 36 79  1  0  0  0  0
 36 85  2  0  0  0  0
 37 40  1  0  0  0  0
 38 47  1  0  0  0  0
 39 73  1  0  0  0  0
 40 42  1  0  0  0  0
 41 43  1  0  0  0  0
 41 44  1  0  0  0  0
 42 46  1  0  0  0  0
 43 48  1  0  0  0  0
 44 74  1  0  0  0  0
 45 48  1  0  0  0  0
 45 74  1  0  0  0  0
 46 77  1  0  0  0  0
 47 73  1  0  0  0  0
 48 72  1  0  0  0  0
 49 64  1  0  0  0  0
 50 66  1  0  0  0  0
 51 67  1  0  0  0  0
 52 67  1  0  0  0  0
 53 68  1  0  0  0  0
 54 68  1  0  0  0  0
 55 68  1  0  0  0  0
 56 80  1  0  0  0  0
 57 59  1  0  0  0  0
 58 60  1  0  0  0  0
 59 63  1  0  0  0  0
 60 61  1  0  0  0  0
 61 67  1  0  0  0  0
 62 64  1  0  0  0  0
 62 79  1  0  0  0  0
 63 87  1  0  0  0  0
 65 68  1  0  0  0  0
 65 78  1  0  0  0  0
 66 80  1  0  0  0  0
 69 72  1  0  0  0  0
M  CHG  1  80   1
M  ISO  4  36 100  63 101  79 100  87 101
M  END
> <Batch ID>
0089

> <Smiles>
CNC(C)C(=O)NC(C(=O)N1Cc2cc([101O:1][101CH2:1]CCc3cc(C(C)C[100NH:0][100C:0](=O)N4CCCC(n5nc(-c6ccc(Oc7ccc(F)cc7F)cc6)c(C(N)=O)c5N)C4)nc(CCCC(C)C)n3)ccc2CC1C(=O)NC1CCCc2ccccc21)C(C)(C)C

> <Shape>
0.221

> <Color>
0.177

> <Negative vol penalty>
0.000

$$$$

  -OEChem-04052319063D

 93102  0     1  0  0  0  0  0999 V2000
  -17.5862  -25.7210   20.9950 C   0  0  0  0  0  0  0  0  0  0  0  0
  -18.8642  -25.3195   21.3704 C   0  0  0  0  0  0  0  0  0  0  0  0
  -23.9779  -11.3617   23.8525 C   0  0  0  0  0  0  0  0  0  0  0  0
  -24.1381  -13.7373   24.2623 C   0  0  0  0  0  0  0  0  0  0  0  0
  -17.3653  -27.0295   20.5674 C   0  0  0  0  0  0  0  0  0  0  0  0
  -19.9224  -26.2261   21.3173 C   0  0  0  0  0  0  0  0  0  0  0  0
  -22.8429  -26.0476   25.4505 C   0  0  0  0  0  0  0  0  0  0  0  0
  -28.4990  -17.3503   18.3579 C   0  0  0  0  0  0  0  0  0  0  0  0
  -27.1601  -17.7182   18.2250 C   0  0  0  0  0  0  0  0  0  0  0  0
  -23.4591  -11.1756   25.1338 C   0  0  0  0  0  0  0  0  0  0  0  0
  -23.6191  -13.5512   25.5436 C   0  0  0  0  0  0  0  0  0  0  0  0
  -23.7561  -24.9979   25.5400 C   0  0  0  0  0  0  0  0  0  0  0  0
  -20.4862  -11.5618   26.6977 C   0  0  0  0  0  0  0  0  0  0  0  0
  -19.3773  -10.7266   26.8330 C   0  0  0  0  0  0  0  0  0  0  0  0
  -30.0443  -23.4194   19.7597 C   0  0  0  0  0  0  0  0  0  0  0  0
  -29.9036  -23.1698   21.1472 C   0  0  0  0  0  0  0  0  0  0  0  0
  -25.5174  -26.4762   24.8108 C   0  0  0  0  0  0  0  0  0  0  0  0
  -28.9758  -19.4685   19.4176 C   0  0  0  0  0  0  0  0  0  0  0  0
  -20.6426   -9.2847   28.3018 C   0  0  0  0  0  0  0  0  0  0  0  0
  -24.3175  -12.6426   23.4168 C   0  0  0  0  0  0  0  0  0  0  0  0
  -24.1319  -13.0881   20.9118 C   0  0  0  0  0  0  0  0  0  0  0  0
  -18.4195  -27.9553   20.5182 C   0  0  0  0  0  0  0  0  0  0  0  0
  -23.2587  -27.3188   25.0293 C   0  0  0  0  0  0  0  0  0  0  0  0
  -19.7157  -27.5479   20.8873 C   0  0  0  0  0  0  0  0  0  0  0  0
  -24.6080  -27.5409   24.7193 C   0  0  0  0  0  0  0  0  0  0  0  0
  -29.4068  -18.2255   18.9543 C   0  0  0  0  0  0  0  0  0  0  0  0
  -26.7290  -18.9612   18.6884 C   0  0  0  0  0  0  0  0  0  0  0  0
  -27.6369  -19.8364   19.2847 C   0  0  0  0  0  0  0  0  0  0  0  0
  -23.2796  -12.2703   25.9793 C   0  0  0  0  0  0  0  0  0  0  0  0
  -25.0931  -25.2114   25.2173 C   0  0  0  0  0  0  0  0  0  0  0  0
  -21.6733  -11.2585   27.3643 C   0  0  0  0  0  0  0  0  0  0  0  0
  -19.4555   -9.5881   27.6350 C   0  0  0  0  0  0  0  0  0  0  0  0
  -21.7515  -10.1200   28.1664 C   0  0  0  0  0  0  0  0  0  0  0  0
  -24.8541  -12.8354   22.0935 C   0  0  0  0  0  0  0  0  0  0  0  0
  -29.0567  -22.7106   19.1121 C   0  0  0  0  0  0  0  0  0  0  0  0
  -28.8343  -22.3160   21.3051 C   0  0  0  0  0  0  0  0  0  0  0  0
  -25.0939  -13.1923   19.9371 C   0  0  0  0  0  0  0  0  0  0  0  0
  -22.7178  -13.2173   20.7131 C   0  0  0  0  0  0  0  0  0  0  0  0
  -22.5472  -29.2138   22.5785 C   0  0  0  0  0  0  0  0  0  0  0  0
  -24.4371  -31.3211   24.1627 C   0  0  0  0  0  0  0  0  0  0  0  0
  -26.9619  -31.8338   26.4009 C   0  0  0  0  0  0  0  0  0  0  0  0
  -30.8975  -14.6588   20.0764 C   0  0  0  0  0  0  0  0  0  0  0  0
  -18.1412  -29.3456   20.0042 C   0  0  0  0  0  0  0  0  0  0  0  0
  -22.2663  -28.4472   24.9637 C   0  0  0  0  0  0  0  0  0  0  0  0
  -25.1090  -28.8921   24.2814 C   0  0  0  0  0  0  0  0  0  0  0  0
  -19.2436  -30.3488   20.3335 C   0  0  0  0  0  0  0  0  0  0  0  0
  -29.4813  -11.6412   18.8253 C   0  0  0  0  0  0  0  0  0  0  0  0
  -20.6144  -29.7579   20.0192 C   0  0  0  0  0  0  0  0  0  0  0  0
  -28.0696  -11.6279   19.4144 C   0  0  0  0  0  0  0  0  0  0  0  0
  -30.4955  -12.2297   19.8035 C   0  0  0  0  0  0  0  0  0  0  0  0
  -28.7375  -13.5512   20.9155 C   0  0  0  0  0  0  0  0  0  0  0  0
  -20.8844  -28.5091   20.8670 C   0  0  1  0  0  0  0  0  0  0  0  0
  -22.7014  -29.5721   24.0295 C   0  0  1  0  0  0  0  0  0  0  0  0
  -27.6701  -13.0181   19.9445 C   0  0  2  0  0  0  0  0  0  0  0  0
  -28.7503  -22.6159   17.6698 C   0  0  0  0  0  0  0  0  0  0  0  0
  -24.3541  -18.3898   19.3101 C   0  0  0  0  0  0  0  0  0  0  0  0
  -24.8582  -19.4045   17.0582 C   0  0  0  0  0  0  0  0  0  0  0  0
  -28.3119  -33.6635   27.4625 C   0  0  0  0  0  0  0  0  0  0  0  0
  -26.0350  -31.6360   21.5825 C   0  0  0  0  0  0  0  0  0  0  0  0
  -27.8668  -32.6870   22.9271 C   0  0  0  0  0  0  0  0  0  0  0  0
  -25.6218  -33.7692   22.8206 C   0  0  0  0  0  0  0  0  0  0  0  0
  -26.0307  -31.1052   29.1140 C   0  0  0  0  0  0  0  0  0  0  0  0
  -30.8384  -17.8322   19.0958 C   0  0  0  0  0  0  0  0  0  0  0  0
  -27.1950  -21.1826   19.7917 C   0  0  0  0  0  0  0  0  0  0  0  0
  -28.2452  -21.7281   22.5626 C   0  0  0  0  0  0  0  0  0  0  0  0
  -27.1410  -22.5868   23.1891 C   0  0  0  0  0  0  0  0  0  0  0  0
  -26.6099  -22.0133   24.5036 C   0  0  0  0  0  0  0  0  0  0  0  0
  -31.1487  -17.1052   20.4098 C   0  0  0  0  0  0  0  0  0  0  0  0
  -25.4888  -22.8707   25.0751 C   0  0  0  0  0  0  0  0  0  1  0  0
  -25.2909  -19.3335   18.5340 C   0  0  0  0  0  0  0  0  0  0  0  0
  -25.9115  -31.6455   24.1613 C   0  0  1  0  0  0  0  0  0  0  0  0
  -27.0827  -32.7765   27.5846 C   0  0  2  0  0  0  0  0  0  0  0  0
  -26.3493  -32.4084   22.8792 C   0  0  0  0  0  0  0  0  0  0  0  0
  -26.1731  -12.7821   21.8902 N   0  0  0  0  0  0  0  0  0  0  0  0
  -28.3275  -22.0434   20.0613 N   0  0  0  0  0  0  0  0  0  0  0  0
  -26.2873  -13.0027   20.5695 N   0  0  0  0  0  0  0  0  0  0  0  0
  -24.0990  -29.9619   24.2269 N   0  0  0  0  0  0  0  0  0  0  0  0
  -30.0582  -13.5487   20.2671 N   0  0  0  0  0  0  0  0  0  0  0  0
  -25.0269  -13.4266   18.6093 N   0  0  0  0  0  0  0  0  0  0  0  0
  -21.8721  -13.0821   21.8224 N   0  0  0  0  0  0  0  0  0  0  0  0
  -21.2556  -28.8837   22.2147 N   0  0  0  0  0  0  0  0  0  0  0  0
  -26.1722  -32.3652   25.4033 N   0  0  0  0  0  0  0  0  0  0  0  0
  -30.4041  -15.8725   20.5394 N   0  0  0  0  0  0  0  0  0  0  0  0
  -27.1854  -32.0031   28.8543 N   0  3  0  0  0  0  0  0  0  0  0  0
  -22.2180  -13.4294   19.5823 O   0  0  0  0  0  0  0  0  0  0  0  0
  -23.5271  -29.2367   21.8430 O   0  0  0  0  0  0  0  0  0  0  0  0
  -23.6157  -32.2401   24.1160 O   0  0  0  0  0  0  0  0  0  0  0  0
  -27.5159  -30.7374   26.3633 O   0  0  0  0  0  0  0  0  0  0  0  0
  -32.0021  -14.5754   19.5289 O   0  0  0  0  0  0  0  0  0  0  0  0
  -22.7731  -12.0891   27.2296 O   0  0  0  0  0  0  0  0  0  0  0  0
  -25.9865  -24.1885   25.3032 O   0  0  0  0  0  0  0  0  0  1  0  0
  -18.3900   -8.7869   27.7661 F   0  0  0  0  0  0  0  0  0  0  0  0
  -22.8889   -9.8240   28.8103 F   0  0  0  0  0  0  0  0  0  0  0  0
  1  2  1  0  0  0  0
  1  5  2  0  0  0  0
  2  6  2  0  0  0  0
  3 10  2  0  0  0  0
  3 20  1  0  0  0  0
  4 11  1  0  0  0  0
  4 20  2  0  0  0  0
  5 22  1  0  0  0  0
  6 24  1  0  0  0  0
  7 12  2  0  0  0  0
  7 23  1  0  0  0  0
  8  9  2  0  0  0  0
  8 26  1  0  0  0  0
  9 27  1  0  0  0  0
 10 29  1  0  0  0  0
 11 29  2  0  0  0  0
 12 30  1  0  0  0  0
 13 14  2  0  0  0  0
 13 31  1  0  0  0  0
 14 32  1  0  0  0  0
 15 16  1  0  0  0  0
 15 35  2  0  0  0  0
 16 36  2  0  0  0  0
 17 25  1  0  0  0  0
 17 30  2  0  0  0  0
 18 26  2  0  0  0  0
 18 28  1  0  0  0  0
 19 32  2  0  0  0  0
 19 33  1  0  0  0  0
 20 34  1  0  0  0  0
 21 34  1  0  0  0  0
 21 37  2  0  0  0  0
 21 38  1  0  0  0  0
 22 24  2  0  0  0  0
 22 43  1  0  0  0  0
 23 25  2  0  0  0  0
 23 44  1  0  0  0  0
 24 52  1  0  0  0  0
 25 45  1  0  0  0  0
 26 63  1  0  0  0  0
 27 28  2  0  0  0  0
 27 70  1  0  0  0  0
 28 64  1  0  0  0  0
 29 90  1  0  0  0  0
 30 91  1  0  0  0  0
 31 33  2  0  0  0  0
 31 90  1  0  0  0  0
 32 92  1  0  0  0  0
 33 93  1  0  0  0  0
 34 74  2  0  0  0  0
 35 55  1  0  0  0  0
 35 75  1  0  0  0  0
 36 65  1  0  0  0  0
 36 75  1  0  0  0  0
 37 76  1  0  0  0  0
 37 79  1  0  0  0  0
 38 80  1  0  0  0  0
 38 85  2  0  0  0  0
 39 53  1  0  0  0  0
 39 81  1  0  0  0  0
 39 86  2  0  0  0  0
 40 71  1  0  0  0  0
 40 77  1  0  0  0  0
 40 87  2  0  0  0  0
 41 72  1  0  0  0  0
 41 82  1  0  0  0  0
 41 88  2  0  0  0  0
 42 78  1  0  0  0  0
 42 83  1  0  0  0  0
 42 89  2  0  0  0  0
 43 46  1  0  0  0  0
 44 53  1  0  0  0  0
 45 77  1  0  0  0  0
 46 48  1  0  0  0  0
 47 49  1  0  0  0  0
 47 50  1  0  0  0  0
 48 52  1  0  0  0  0
 49 54  1  0  0  0  0
 50 78  1  0  0  0  0
 51 54  1  0  0  0  0
 51 78  1  0  0  0  0
 52 81  1  0  0  0  0
 53 77  1  0  0  0  0
 54 76  1  0  0  0  0
 56 70  1  0  0  0  0
 57 70  1  0  0  0  0
 58 72  1  0  0  0  0
 59 73  1  0  0  0  0
 60 73  1  0  0  0  0
 61 73  1  0  0  0  0
 62 84  1  0  0  0  0
 63 68  1  0  0  0  0
 64 75  1  0  0  0  0
 65 66  1  0  0  0  0
 66 67  1  0  0  0  0
 67 69  1  0  0  0  0
 68 83  1  0  0  0  0
 69 91  1  0  0  0  0
 71 73  1  0  0  0  0
 71 82  1  0  0  0  0
 72 84  1  0  0  0  0
 74 76  1  0  0  0  0
M  CHG  1  84   1
M  ISO  4  42 100  69 101  83 100  91 101
M  END
> <Batch ID>
0089

> <Smiles>
CNC(C)C(=O)NC(C(=O)N1Cc2cc([101O:1][101CH2:1]CCCc3ccc(C)n3Cc3cc(CC[100NH:0][100C:0](=O)N4CCCC(n5nc(-c6ccc(Oc7ccc(F)cc7F)cc6)c(C(N)=O)c5N)C4)ccc3C(C)C)ccc2CC1C(=O)NC1CCCc2ccccc21)C(C)(C)C

> <Shape>
0.269

> <Color>
0.101

> <Negative vol penalty>
0.000

$$$$

  -OEChem-04052319063D

 84 92  0     1  0  0  0  0  0999 V2000
  -20.7812  -23.7799   17.8736 C   0  0  0  0  0  0  0  0  0  0  0  0
  -21.8039  -23.2892   18.6790 C   0  0  0  0  0  0  0  0  0  0  0  0
  -26.5132  -28.6436   19.1764 C   0  0  0  0  0  0  0  0  0  0  0  0
  -25.8724  -27.0592   20.8841 C   0  0  0  0  0  0  0  0  0  0  0  0
  -19.5118  -23.2064   17.9340 C   0  0  0  0  0  0  0  0  0  0  0  0
  -21.5574  -22.2255   19.5462 C   0  0  0  0  0  0  0  0  0  0  0  0
  -25.2165  -18.7269   19.4182 C   0  0  0  0  0  0  0  0  0  0  0  0
  -25.4213  -29.4448   19.5101 C   0  0  0  0  0  0  0  0  0  0  0  0
  -24.7805  -27.8605   21.2178 C   0  0  0  0  0  0  0  0  0  0  0  0
  -26.3926  -19.0100   20.1113 C   0  0  0  0  0  0  0  0  0  0  0  0
  -21.6871  -28.4870   20.0057 C   0  0  0  0  0  0  0  0  0  0  0  0
  -20.4562  -27.8589   20.1950 C   0  0  0  0  0  0  0  0  0  0  0  0
  -25.6422  -17.6250   21.9383 C   0  0  0  0  0  0  0  0  0  0  0  0
  -30.8634  -18.6196   20.9026 C   0  0  0  0  0  0  0  0  0  0  0  0
  -20.3865  -28.6801   22.4661 C   0  0  0  0  0  0  0  0  0  0  0  0
  -31.0153  -16.1205   19.8178 C   0  0  0  0  0  0  0  0  0  0  0  0
  -26.7387  -27.4507   19.8633 C   0  0  0  0  0  0  0  0  0  0  0  0
  -29.1633  -26.6830   20.0621 C   0  0  0  0  0  0  0  0  0  0  0  0
  -19.2522  -22.1288   18.7953 C   0  0  0  0  0  0  0  0  0  0  0  0
  -24.2379  -17.8981   19.9856 C   0  0  0  0  0  0  0  0  0  0  0  0
  -20.2830  -21.6379   19.6192 C   0  0  0  0  0  0  0  0  0  0  0  0
  -24.4557  -17.3309   21.2493 C   0  0  0  0  0  0  0  0  0  0  0  0
  -30.3686  -17.5345   21.6175 C   0  0  0  0  0  0  0  0  0  0  0  0
  -30.4422  -16.2578   21.0718 C   0  0  0  0  0  0  0  0  0  0  0  0
  -24.5550  -29.0534   20.5308 C   0  0  0  0  0  0  0  0  0  0  0  0
  -26.6044  -18.4614   21.3728 C   0  0  0  0  0  0  0  0  0  0  0  0
  -22.2679  -29.2116   21.0466 C   0  0  0  0  0  0  0  0  0  0  0  0
  -19.8058  -27.9555   21.4251 C   0  0  0  0  0  0  0  0  0  0  0  0
  -21.6175  -29.3081   22.2768 C   0  0  0  0  0  0  0  0  0  0  0  0
  -27.8661  -26.6222   19.5187 C   0  0  0  0  0  0  0  0  0  0  0  0
  -31.4178  -18.3766   19.6563 C   0  0  0  0  0  0  0  0  0  0  0  0
  -29.8567  -25.6949   19.4068 C   0  0  0  0  0  0  0  0  0  0  0  0
  -29.6941  -27.5545   21.0693 C   0  0  0  0  0  0  0  0  0  0  0  0
  -21.2042  -18.2795   20.8543 C   0  0  0  0  0  0  0  0  0  0  0  0
  -21.3635  -15.0846   21.3925 C   0  0  0  0  0  0  0  0  0  0  0  0
  -23.2943  -12.3535   22.0708 C   0  0  0  0  0  0  0  0  0  0  0  0
  -30.1993  -20.4954   17.4086 C   0  0  0  0  0  0  0  0  0  0  0  0
  -17.8518  -21.5724   18.8603 C   0  0  0  0  0  0  0  0  0  0  0  0
  -22.9865  -17.5810   19.2137 C   0  0  0  0  0  0  0  0  0  0  0  0
  -23.4454  -16.4187   21.8939 C   0  0  0  0  0  0  0  0  0  0  0  0
  -17.7705  -20.2045   19.5330 C   0  0  0  0  0  0  0  0  0  0  0  0
  -28.6141  -22.9338   15.3548 C   0  0  0  0  0  0  0  0  0  0  0  0
  -18.5770  -20.1976   20.8277 C   0  0  0  0  0  0  0  0  0  0  0  0
  -28.3798  -24.1126   16.3011 C   0  0  0  0  0  0  0  0  0  0  0  0
  -28.4316  -21.5945   16.0656 C   0  0  0  0  0  0  0  0  0  0  0  0
  -28.9993  -22.6090   18.2387 C   0  0  0  0  0  0  0  0  0  0  0  0
  -20.0613  -20.4692   20.5546 C   0  0  1  0  0  0  0  0  0  0  0  0
  -21.8308  -17.1375   20.1054 C   0  0  1  0  0  0  0  0  0  0  0  0
  -29.2268  -23.9810   17.5812 C   0  0  2  0  0  0  0  0  0  0  0  0
  -32.1233  -14.5168   22.9955 C   0  0  0  0  0  0  0  0  0  0  0  0
  -28.7593  -14.3985   21.0316 C   0  0  0  0  0  0  0  0  0  0  0  0
  -23.1361   -9.8849   22.4926 C   0  0  0  0  0  0  0  0  0  0  0  0
  -20.3333  -15.6347   24.2114 C   0  0  0  0  0  0  0  0  0  0  0  0
  -21.0900  -13.3383   24.8610 C   0  0  0  0  0  0  0  0  0  0  0  0
  -19.3359  -13.6229   23.1103 C   0  0  0  0  0  0  0  0  0  0  0  0
  -24.9686  -11.7258   19.7125 C   0  0  0  0  0  0  0  0  0  0  0  0
  -29.7585  -17.7653   22.9787 C   0  0  0  0  0  0  0  0  0  0  0  0
  -31.9584  -19.5175   18.8607 C   0  0  0  0  0  0  0  0  0  0  0  0
  -31.0095  -13.9884   22.0998 C   0  0  0  0  0  0  0  0  0  0  0  0
  -28.2344  -17.7333   22.9440 C   0  0  0  0  0  0  0  0  0  1  0  0
  -29.9274  -15.0613   21.7939 C   0  0  1  0  0  0  0  0  0  0  0  0
  -21.7336  -14.2160   22.5705 C   0  0  1  0  0  0  0  0  0  0  0  0
  -23.3375  -10.9704   21.4467 C   0  0  2  0  0  0  0  0  0  0  0  0
  -20.6416  -14.2217   23.6772 C   0  0  0  0  0  0  0  0  0  0  0  0
  -31.5068  -17.1507   19.0934 N   0  0  0  0  0  0  0  0  0  0  0  0
  -27.7403  -25.6709   18.5896 N   0  0  0  0  0  0  0  0  0  0  0  0
  -28.9674  -25.1248   18.5441 N   0  0  0  0  0  0  0  0  0  0  0  0
  -22.2350  -16.1438   21.1021 N   0  0  0  0  0  0  0  0  0  0  0  0
  -29.2632  -21.5335   17.2700 N   0  0  0  0  0  0  0  0  0  0  0  0
  -31.1343  -25.2669   19.4901 N   0  0  0  0  0  0  0  0  0  0  0  0
  -28.8446  -28.5130   21.6387 N   0  0  0  0  0  0  0  0  0  0  0  0
  -20.7066  -19.2799   20.0412 N   0  0  0  0  0  0  0  0  0  0  0  0
  -22.0266  -12.8943   22.0269 N   0  0  0  0  0  0  0  0  0  0  0  0
  -30.9509  -20.5152   18.5771 N   0  0  0  0  0  0  0  0  0  0  0  0
  -24.6512  -10.7434   20.7807 N   0  3  0  0  0  0  0  0  0  0  0  0
  -30.8906  -27.4963   21.4412 O   0  0  0  0  0  0  0  0  0  0  0  0
  -21.1731  -18.2542   22.0791 O   0  0  0  0  0  0  0  0  0  0  0  0
  -20.3426  -14.8283   20.7493 O   0  0  0  0  0  0  0  0  0  0  0  0
  -24.2852  -12.8982   22.5526 O   0  0  0  0  0  0  0  0  0  0  0  0
  -30.3574  -19.6190   16.5519 O   0  0  0  0  0  0  0  0  0  0  0  0
  -23.4896  -29.8352   20.8568 O   0  0  0  0  0  0  0  0  0  0  0  0
  -27.7512  -18.7366   22.0517 O   0  0  0  0  0  0  0  0  0  1  0  0
  -18.6230  -27.3537   21.6063 F   0  0  0  0  0  0  0  0  0  0  0  0
  -22.1698  -30.0038   23.2801 F   0  0  0  0  0  0  0  0  0  0  0  0
  1  2  1  0  0  0  0
  1  5  2  0  0  0  0
  2  6  2  0  0  0  0
  3  8  2  0  0  0  0
  3 17  1  0  0  0  0
  4  9  1  0  0  0  0
  4 17  2  0  0  0  0
  5 19  1  0  0  0  0
  6 21  1  0  0  0  0
  7 10  2  0  0  0  0
  7 20  1  0  0  0  0
  8 25  1  0  0  0  0
  9 25  2  0  0  0  0
 10 26  1  0  0  0  0
 11 12  2  0  0  0  0
 11 27  1  0  0  0  0
 12 28  1  0  0  0  0
 13 22  1  0  0  0  0
 13 26  2  0  0  0  0
 14 23  1  0  0  0  0
 14 31  2  0  0  0  0
 15 28  2  0  0  0  0
 15 29  1  0  0  0  0
 16 24  1  0  0  0  0
 16 65  2  0  0  0  0
 17 30  1  0  0  0  0
 18 30  1  0  0  0  0
 18 32  2  0  0  0  0
 18 33  1  0  0  0  0
 19 21  2  0  0  0  0
 19 38  1  0  0  0  0
 20 22  2  0  0  0  0
 20 39  1  0  0  0  0
 21 47  1  0  0  0  0
 22 40  1  0  0  0  0
 23 24  2  0  0  0  0
 23 57  1  0  0  0  0
 24 61  1  0  0  0  0
 25 81  1  0  0  0  0
 26 82  1  0  0  0  0
 27 29  2  0  0  0  0
 27 81  1  0  0  0  0
 28 83  1  0  0  0  0
 29 84  1  0  0  0  0
 30 66  2  0  0  0  0
 31 58  1  0  0  0  0
 31 65  1  0  0  0  0
 32 67  1  0  0  0  0
 32 70  1  0  0  0  0
 33 71  1  0  0  0  0
 33 76  2  0  0  0  0
 34 48  1  0  0  0  0
 34 72  1  0  0  0  0
 34 77  2  0  0  0  0
 35 62  1  0  0  0  0
 35 68  1  0  0  0  0
 35 78  2  0  0  0  0
 36 63  1  0  0  0  0
 36 73  1  0  0  0  0
 36 79  2  0  0  0  0
 37 69  1  0  0  0  0
 37 74  1  0  0  0  0
 37 80  2  0  0  0  0
 38 41  1  0  0  0  0
 39 48  1  0  0  0  0
 40 68  1  0  0  0  0
 41 43  1  0  0  0  0
 42 44  1  0  0  0  0
 42 45  1  0  0  0  0
 43 47  1  0  0  0  0
 44 49  1  0  0  0  0
 45 69  1  0  0  0  0
 46 49  1  0  0  0  0
 46 69  1  0  0  0  0
 47 72  1  0  0  0  0
 48 68  1  0  0  0  0
 49 67  1  0  0  0  0
 50 59  1  0  0  0  0
 51 61  1  0  0  0  0
 52 63  1  0  0  0  0
 53 64  1  0  0  0  0
 54 64  1  0  0  0  0
 55 64  1  0  0  0  0
 56 75  1  0  0  0  0
 57 60  1  0  0  0  0
 58 74  1  0  0  0  0
 59 61  1  0  0  0  0
 60 82  1  0  0  0  0
 62 64  1  0  0  0  0
 62 73  1  0  0  0  0
 63 75  1  0  0  0  0
 66 67  1  0  0  0  0
M  CHG  1  75   1
M  ISO  4  37 100  60 101  74 100  82 101
M  END
> <Batch ID>
0089

> <Smiles>
CCC(C)c1cnc(C[100NH:0][100C:0](=O)N2CCCC(n3nc(-c4ccc(Oc5ccc(F)cc5F)cc4)c(C(N)=O)c3N)C2)cc1C[101CH2:1][101O:1]c1ccc2c(c1)CN(C(=O)C(NC(=O)C(C)NC)C(C)(C)C)C(C(=O)NC1CCCc3ccccc31)C2

> <Shape>
0.207

> <Color>
0.053

> <Negative vol penalty>
0.000

$$$$

  -OEChem-04052319063D

 88 96  0     1  0  0  0  0  0999 V2000
  -27.7881  -17.8433   17.8371 C   0  0  0  0  0  0  0  0  0  0  0  0
  -27.5424  -18.2729   19.1373 C   0  0  0  0  0  0  0  0  0  0  0  0
  -23.6239   -9.7472   21.4444 C   0  0  0  0  0  0  0  0  0  0  0  0
  -24.0549  -10.9331   23.5047 C   0  0  0  0  0  0  0  0  0  0  0  0
  -28.2405  -18.7492   16.8787 C   0  0  0  0  0  0  0  0  0  0  0  0
  -27.7501  -19.6084   19.4801 C   0  0  0  0  0  0  0  0  0  0  0  0
  -23.9662  -21.5130   22.2549 C   0  0  0  0  0  0  0  0  0  0  0  0
  -23.0193   -8.7167   22.1640 C   0  0  0  0  0  0  0  0  0  0  0  0
  -23.4501   -9.9026   24.2244 C   0  0  0  0  0  0  0  0  0  0  0  0
  -23.9375  -21.1777   23.6079 C   0  0  0  0  0  0  0  0  0  0  0  0
  -20.3112   -8.8799   24.9469 C   0  0  0  0  0  0  0  0  0  0  0  0
  -19.4142   -9.2347   25.9543 C   0  0  0  0  0  0  0  0  0  0  0  0
  -24.9182  -23.3134   24.1518 C   0  0  0  0  0  0  0  0  0  0  0  0
  -29.7871  -17.9143   22.9781 C   0  0  0  0  0  0  0  0  0  0  0  0
  -20.7987   -8.1095   27.5835 C   0  0  0  0  0  0  0  0  0  0  0  0
  -24.1418  -10.8554   22.1147 C   0  0  0  0  0  0  0  0  0  0  0  0
  -24.1450  -13.0665   20.8424 C   0  0  0  0  0  0  0  0  0  0  0  0
  -28.4447  -20.0986   17.2075 C   0  0  0  0  0  0  0  0  0  0  0  0
  -24.4821  -22.7487   21.8387 C   0  0  0  0  0  0  0  0  0  0  0  0
  -28.2070  -20.5329   18.5255 C   0  0  0  0  0  0  0  0  0  0  0  0
  -24.9500  -23.6631   22.7932 C   0  0  0  0  0  0  0  0  0  0  0  0
  -30.2564  -19.1504   23.4085 C   0  0  0  0  0  0  0  0  0  0  0  0
  -31.5136  -19.5885   23.0074 C   0  0  0  0  0  0  0  0  0  0  0  0
  -22.9323   -8.7943   23.5540 C   0  0  0  0  0  0  0  0  0  0  0  0
  -24.4162  -22.0768   24.5563 C   0  0  0  0  0  0  0  0  0  0  0  0
  -21.4520   -8.1398   25.2577 C   0  0  0  0  0  0  0  0  0  0  0  0
  -19.6579   -8.8495   27.2726 C   0  0  0  0  0  0  0  0  0  0  0  0
  -21.6957   -7.7546   26.5760 C   0  0  0  0  0  0  0  0  0  0  0  0
  -24.7671  -11.9201   21.3720 C   0  0  0  0  0  0  0  0  0  0  0  0
  -32.2564  -18.7596   22.1821 C   0  0  0  0  0  0  0  0  0  0  0  0
  -30.6071  -17.1605   22.1540 C   0  0  0  0  0  0  0  0  0  0  0  0
  -25.1625  -13.7585   20.2323 C   0  0  0  0  0  0  0  0  0  0  0  0
  -22.7702  -13.4699   20.8972 C   0  0  0  0  0  0  0  0  0  0  0  0
  -26.9120  -23.6618   20.0041 C   0  0  0  0  0  0  0  0  0  0  0  0
  -25.6354  -26.6098   20.4533 C   0  0  0  0  0  0  0  0  0  0  0  0
  -23.7166  -28.6735   22.3784 C   0  0  0  0  0  0  0  0  0  0  0  0
  -30.7677  -14.9841   20.8955 C   0  0  0  0  0  0  0  0  0  0  0  0
  -28.9798  -21.0307   16.1494 C   0  0  0  0  0  0  0  0  0  0  0  0
  -24.4814  -23.1061   20.3776 C   0  0  0  0  0  0  0  0  0  0  0  0
  -25.4952  -25.0108   22.3998 C   0  0  0  0  0  0  0  0  0  0  0  0
  -28.8166  -22.5075   16.4996 C   0  0  0  0  0  0  0  0  0  0  0  0
  -29.6531  -12.5695   18.5281 C   0  0  0  0  0  0  0  0  0  0  0  0
  -29.2585  -22.7674   17.9362 C   0  0  0  0  0  0  0  0  0  0  0  0
  -28.2185  -12.2669   18.9669 C   0  0  0  0  0  0  0  0  0  0  0  0
  -30.5751  -12.8011   19.7239 C   0  0  0  0  0  0  0  0  0  0  0  0
  -28.6730  -13.5086   21.1207 C   0  0  0  0  0  0  0  0  0  0  0  0
  -28.3967  -21.9789   18.9297 C   0  0  1  0  0  0  0  0  0  0  0  0
  -25.5029  -24.1831   20.0255 C   0  0  1  0  0  0  0  0  0  0  0  0
  -27.6931  -13.3321   19.9492 C   0  0  2  0  0  0  0  0  0  0  0  0
  -32.0432  -20.9102   23.4522 C   0  0  0  0  0  0  0  0  0  0  0  0
  -33.6939  -19.3228   20.1896 C   0  0  0  0  0  0  0  0  0  0  0  0
  -34.7199  -18.2264   22.2146 C   0  0  0  0  0  0  0  0  0  0  0  0
  -22.8872  -31.0383   22.5088 C   0  0  0  0  0  0  0  0  0  0  0  0
  -28.3890  -27.5206   21.4011 C   0  0  0  0  0  0  0  0  0  0  0  0
  -27.3013  -29.5471   22.3902 C   0  0  0  0  0  0  0  0  0  0  0  0
  -27.1991  -29.1550   19.9288 C   0  0  0  0  0  0  0  0  0  0  0  0
  -20.8891  -27.8133   22.2212 C   0  0  0  0  0  0  0  0  0  0  0  0
  -29.3872  -19.9937   24.3067 C   0  0  0  0  0  0  0  0  0  0  0  0
  -29.7702  -19.9185   25.7906 C   0  0  0  0  0  0  0  0  0  0  0  0
  -25.1714  -20.2479   27.5749 C   0  0  0  0  0  0  0  0  0  0  0  0
  -28.8782  -20.7147   26.7382 C   0  0  0  0  0  0  0  0  0  0  0  0
  -26.5549  -20.8770   27.6409 C   0  0  0  0  0  0  0  0  0  0  0  0
  -24.5076  -20.3687   26.2086 C   0  0  0  0  0  0  0  0  0  1  0  0
  -33.6146  -19.1770   21.7201 C   0  0  0  0  0  0  0  0  0  0  0  0
  -25.8150  -27.7086   21.4728 C   0  0  1  0  0  0  0  0  0  0  0  0
  -22.5927  -29.6288   22.0197 C   0  0  2  0  0  0  0  0  0  0  0  0
  -27.1677  -28.4567   21.3058 C   0  0  0  0  0  0  0  0  0  0  0  0
  -26.0783  -11.8821   21.1202 N   0  0  0  0  0  0  0  0  0  0  0  0
  -31.8341  -17.5526   21.7435 N   0  0  0  0  0  0  0  0  0  0  0  0
  -26.2883  -13.0133   20.4256 N   0  0  0  0  0  0  0  0  0  0  0  0
  -25.4792  -25.3113   20.9586 N   0  0  0  0  0  0  0  0  0  0  0  0
  -30.0153  -13.8256   20.6082 N   0  0  0  0  0  0  0  0  0  0  0  0
  -25.1951  -14.9255   19.5546 N   0  0  0  0  0  0  0  0  0  0  0  0
  -21.8570  -12.6419   21.5640 N   0  0  0  0  0  0  0  0  0  0  0  0
  -30.1198  -15.9024   21.7211 N   0  0  0  0  0  0  0  0  0  0  0  0
  -27.1152  -22.6262   19.1121 N   0  0  0  0  0  0  0  0  0  0  0  0
  -24.6400  -28.5660   21.3601 N   0  0  0  0  0  0  0  0  0  0  0  0
  -21.3124  -29.1763   22.6338 N   0  3  0  0  0  0  0  0  0  0  0  0
  -27.4806  -20.2018   26.7014 N   0  3  0  0  0  0  0  0  0  0  0  0
  -22.3607  -14.5251   20.3564 O   0  0  0  0  0  0  0  0  0  0  0  0
  -27.7529  -24.1630   20.7413 O   0  0  0  0  0  0  0  0  0  0  0  0
  -25.6267  -26.8941   19.2530 O   0  0  0  0  0  0  0  0  0  0  0  0
  -23.7719  -28.0846   23.4557 O   0  0  0  0  0  0  0  0  0  0  0  0
  -31.8923  -15.1619   20.4204 O   0  0  0  0  0  0  0  0  0  0  0  0
  -22.3421   -7.7890   24.2565 O   0  0  0  0  0  0  0  0  0  0  0  0
  -24.3899  -21.7518   25.8775 O   0  0  0  0  0  0  0  0  0  1  0  0
  -18.7971   -9.1916   28.2402 F   0  0  0  0  0  0  0  0  0  0  0  0
  -22.7906   -7.0446   26.8809 F   0  0  0  0  0  0  0  0  0  0  0  0
  1  2  1  0  0  0  0
  1  5  2  0  0  0  0
  2  6  2  0  0  0  0
  3  8  2  0  0  0  0
  3 16  1  0  0  0  0
  4  9  1  0  0  0  0
  4 16  2  0  0  0  0
  5 18  1  0  0  0  0
  6 20  1  0  0  0  0
  7 10  2  0  0  0  0
  7 19  1  0  0  0  0
  8 24  1  0  0  0  0
  9 24  2  0  0  0  0
 10 25  1  0  0  0  0
 11 12  2  0  0  0  0
 11 26  1  0  0  0  0
 12 27  1  0  0  0  0
 13 21  1  0  0  0  0
 13 25  2  0  0  0  0
 14 22  1  0  0  0  0
 14 31  2  0  0  0  0
 15 27  2  0  0  0  0
 15 28  1  0  0  0  0
 16 29  1  0  0  0  0
 17 29  1  0  0  0  0
 17 32  2  0  0  0  0
 17 33  1  0  0  0  0
 18 20  2  0  0  0  0
 18 38  1  0  0  0  0
 19 21  2  0  0  0  0
 19 39  1  0  0  0  0
 20 47  1  0  0  0  0
 21 40  1  0  0  0  0
 22 23  2  0  0  0  0
 22 58  1  0  0  0  0
 23 30  1  0  0  0  0
 23 50  1  0  0  0  0
 24 85  1  0  0  0  0
 25 86  1  0  0  0  0
 26 28  2  0  0  0  0
 26 85  1  0  0  0  0
 27 87  1  0  0  0  0
 28 88  1  0  0  0  0
 29 68  2  0  0  0  0
 30 64  1  0  0  0  0
 30 69  2  0  0  0  0
 31 69  1  0  0  0  0
 31 75  1  0  0  0  0
 32 70  1  0  0  0  0
 32 73  1  0  0  0  0
 33 74  1  0  0  0  0
 33 80  2  0  0  0  0
 34 48  1  0  0  0  0
 34 76  1  0  0  0  0
 34 81  2  0  0  0  0
 35 65  1  0  0  0  0
 35 71  1  0  0  0  0
 35 82  2  0  0  0  0
 36 66  1  0  0  0  0
 36 77  1  0  0  0  0
 36 83  2  0  0  0  0
 37 72  1  0  0  0  0
 37 75  1  0  0  0  0
 37 84  2  0  0  0  0
 38 41  1  0  0  0  0
 39 48  1  0  0  0  0
 40 71  1  0  0  0  0
 41 43  1  0  0  0  0
 42 44  1  0  0  0  0
 42 45  1  0  0  0  0
 43 47  1  0  0  0  0
 44 49  1  0  0  0  0
 45 72  1  0  0  0  0
 46 49  1  0  0  0  0
 46 72  1  0  0  0  0
 47 76  1  0  0  0  0
 48 71  1  0  0  0  0
 49 70  1  0  0  0  0
 51 64  1  0  0  0  0
 52 64  1  0  0  0  0
 53 66  1  0  0  0  0
 54 67  1  0  0  0  0
 55 67  1  0  0  0  0
 56 67  1  0  0  0  0
 57 78  1  0  0  0  0
 58 59  1  0  0  0  0
 59 61  1  0  0  0  0
 60 62  1  0  0  0  0
 60 63  1  0  0  0  0
 61 79  1  0  0  0  0
 62 79  1  0  0  0  0
 63 86  1  0  0  0  0
 65 67  1  0  0  0  0
 65 77  1  0  0  0  0
 66 78  1  0  0  0  0
 68 70  1  0  0  0  0
M  CHG  2  78   1  79   1
M  ISO  4  37 100  63 101  75 100  86 101
M  END
> <Batch ID>
0089

> <Smiles>
CNC(C)C(=O)NC(C(=O)N1Cc2cc([101O:1][101CH2:1]CCNCCCc3cc([100NH:0][100C:0](=O)N4CCCC(n5nc(-c6ccc(Oc7ccc(F)cc7F)cc6)c(C(N)=O)c5N)C4)nc(C(C)C)c3C)ccc2CC1C(=O)NC1CCCc2ccccc21)C(C)(C)C

> <Shape>
0.233

> <Color>
0.142

> <Negative vol penalty>
0.000

$$$$

  -OEChem-04052319063D

 82 90  0     1  0  0  0  0  0999 V2000
  -20.9764  -20.1081   22.4936 C   0  0  0  0  0  0  0  0  0  0  0  0
  -22.2851  -20.2651   22.0485 C   0  0  0  0  0  0  0  0  0  0  0  0
  -27.7813  -12.2420   22.7522 C   0  0  0  0  0  0  0  0  0  0  0  0
  -27.4074  -11.6480   20.4404 C   0  0  0  0  0  0  0  0  0  0  0  0
  -20.0751  -21.1670   22.3920 C   0  0  0  0  0  0  0  0  0  0  0  0
  -22.6929  -21.4807   21.5005 C   0  0  0  0  0  0  0  0  0  0  0  0
  -28.2192  -24.0730   21.9958 C   0  0  0  0  0  0  0  0  0  0  0  0
  -26.8695  -11.2646   23.1508 C   0  0  0  0  0  0  0  0  0  0  0  0
  -26.4957  -10.6705   20.8390 C   0  0  0  0  0  0  0  0  0  0  0  0
  -29.3197  -24.1063   21.1406 C   0  0  0  0  0  0  0  0  0  0  0  0
  -23.2759  -10.5356   21.8616 C   0  0  0  0  0  0  0  0  0  0  0  0
  -22.0694  -10.4528   21.1666 C   0  0  0  0  0  0  0  0  0  0  0  0
  -28.5922  -26.2462   20.2974 C   0  0  0  0  0  0  0  0  0  0  0  0
  -22.5912   -8.1808   20.5318 C   0  0  0  0  0  0  0  0  0  0  0  0
  -30.0340  -23.4212   16.1386 C   0  0  0  0  0  0  0  0  0  0  0  0
  -28.0502  -12.4338   21.3970 C   0  0  0  0  0  0  0  0  0  0  0  0
  -30.3784  -13.2885   20.7999 C   0  0  0  0  0  0  0  0  0  0  0  0
  -20.4747  -22.3993   21.8513 C   0  0  0  0  0  0  0  0  0  0  0  0
  -27.2895  -25.1228   22.0005 C   0  0  0  0  0  0  0  0  0  0  0  0
  -21.7957  -22.5566   21.3903 C   0  0  0  0  0  0  0  0  0  0  0  0
  -27.4822  -26.2250   21.1555 C   0  0  0  0  0  0  0  0  0  0  0  0
  -30.1056  -22.0459   16.1143 C   0  0  0  0  0  0  0  0  0  0  0  0
  -31.2334  -21.6673   16.8836 C   0  0  0  0  0  0  0  0  0  0  0  0
  -26.2267  -10.4788   22.1942 C   0  0  0  0  0  0  0  0  0  0  0  0
  -29.5049  -25.1916   20.2891 C   0  0  0  0  0  0  0  0  0  0  0  0
  -24.1401   -9.4411   21.8917 C   0  0  0  0  0  0  0  0  0  0  0  0
  -21.7270   -9.2753   20.5017 C   0  0  0  0  0  0  0  0  0  0  0  0
  -23.7977   -8.2637   21.2269 C   0  0  0  0  0  0  0  0  0  0  0  0
  -28.9915  -13.4437   20.9845 C   0  0  0  0  0  0  0  0  0  0  0  0
  -31.8167  -22.8228   17.3547 C   0  0  0  0  0  0  0  0  0  0  0  0
  -30.8140  -14.5311   20.4093 C   0  0  0  0  0  0  0  0  0  0  0  0
  -31.1996  -12.1250   20.9665 C   0  0  0  0  0  0  0  0  0  0  0  0
  -24.1864  -25.3738   21.3591 C   0  0  0  0  0  0  0  0  0  0  0  0
  -24.6094  -28.4085   22.4237 C   0  0  0  0  0  0  0  0  0  0  0  0
  -26.7414  -31.0173   22.9677 C   0  0  0  0  0  0  0  0  0  0  0  0
  -28.0622  -18.9860   17.6823 C   0  0  0  0  0  0  0  0  0  0  0  0
  -19.4518  -23.4997   21.7185 C   0  0  0  0  0  0  0  0  0  0  0  0
  -26.1221  -25.0843   22.9482 C   0  0  0  0  0  0  0  0  0  0  0  0
  -26.5239  -27.3869   21.1367 C   0  0  0  0  0  0  0  0  0  0  0  0
  -20.0656  -24.8750   21.4698 C   0  0  0  0  0  0  0  0  0  0  0  0
  -29.7708  -19.1797   20.8668 C   0  0  0  0  0  0  0  0  0  0  0  0
  -21.1367  -24.7937   20.3868 C   0  0  0  0  0  0  0  0  0  0  0  0
  -29.8938  -17.7004   21.2364 C   0  0  0  0  0  0  0  0  0  0  0  0
  -28.4414  -19.4681   20.1756 C   0  0  0  0  0  0  0  0  0  0  0  0
  -28.3034  -17.1554   19.3355 C   0  0  0  0  0  0  0  0  0  0  0  0
  -22.2826  -23.8678   20.8126 C   0  0  1  0  0  0  0  0  0  0  0  0
  -24.9608  -25.9672   22.5018 C   0  0  1  0  0  0  0  0  0  0  0  0
  -29.6357  -16.7949   20.0175 C   0  0  2  0  0  0  0  0  0  0  0  0
  -31.7003  -20.2883   17.1355 C   0  0  0  0  0  0  0  0  0  0  0  0
  -33.0128  -23.0104   18.2029 C   0  0  0  0  0  0  0  0  0  0  0  0
  -26.7884  -33.3796   23.8129 C   0  0  0  0  0  0  0  0  0  0  0  0
  -23.3637  -29.3665   19.8083 C   0  0  0  0  0  0  0  0  0  0  0  0
  -24.2902  -31.6437   20.2821 C   0  0  0  0  0  0  0  0  0  0  0  0
  -22.6264  -30.6274   21.8383 C   0  0  0  0  0  0  0  0  0  0  0  0
  -28.6066  -30.3196   25.1570 C   0  0  0  0  0  0  0  0  0  0  0  0
  -29.1726  -21.1426   15.4115 C   0  0  0  0  0  0  0  0  0  0  0  0
  -31.3584  -25.3404   17.1704 C   0  0  0  0  0  0  0  0  0  0  0  0
  -27.8379  -20.9216   16.1459 C   0  0  0  0  0  0  0  0  0  0  0  0
  -30.4169  -25.9238   18.2184 C   0  0  0  0  0  0  0  0  0  1  0  0
  -24.9868  -29.7230   21.7843 C   0  0  1  0  0  0  0  0  0  0  0  0
  -26.9509  -31.9118   24.1761 C   0  0  2  0  0  0  0  0  0  0  0  0
  -23.8340  -30.3175   20.9270 C   0  0  0  0  0  0  0  0  0  0  0  0
  -28.5737  -14.6870   20.7321 N   0  0  0  0  0  0  0  0  0  0  0  0
  -31.0790  -23.8827   16.8958 N   0  0  0  0  0  0  0  0  0  0  0  0
  -29.7048  -15.3243   20.3850 N   0  0  0  0  0  0  0  0  0  0  0  0
  -25.3946  -27.2998   22.0772 N   0  0  0  0  0  0  0  0  0  0  0  0
  -28.2658  -18.5858   19.0134 N   0  0  0  0  0  0  0  0  0  0  0  0
  -32.0339  -15.0117   20.0878 N   0  0  0  0  0  0  0  0  0  0  0  0
  -30.5904  -10.9299   21.3729 N   0  0  0  0  0  0  0  0  0  0  0  0
  -23.1549  -24.5417   21.7504 N   0  0  0  0  0  0  0  0  0  0  0  0
  -25.4340  -30.5908   22.8684 N   0  0  0  0  0  0  0  0  0  0  0  0
  -28.0328  -20.3578   17.4632 N   0  0  0  0  0  0  0  0  0  0  0  0
  -28.3180  -31.7147   24.7358 N   0  3  0  0  0  0  0  0  0  0  0  0
  -32.4393  -12.1486   20.7770 O   0  0  0  0  0  0  0  0  0  0  0  0
  -24.5005  -25.6514   20.2076 O   0  0  0  0  0  0  0  0  0  0  0  0
  -23.6577  -28.3685   23.2075 O   0  0  0  0  0  0  0  0  0  0  0  0
  -27.6463  -30.7289   22.1875 O   0  0  0  0  0  0  0  0  0  0  0  0
  -27.9224  -18.1801   16.7560 O   0  0  0  0  0  0  0  0  0  0  0  0
  -25.3372   -9.5247   22.5829 O   0  0  0  0  0  0  0  0  0  0  0  0
  -30.5778  -25.2263   19.4528 O   0  0  0  0  0  0  0  0  0  1  0  0
  -20.5677   -9.1954   19.8356 F   0  0  0  0  0  0  0  0  0  0  0  0
  -24.6234   -7.2085   21.2532 F   0  0  0  0  0  0  0  0  0  0  0  0
  1  2  1  0  0  0  0
  1  5  2  0  0  0  0
  2  6  2  0  0  0  0
  3  8  2  0  0  0  0
  3 16  1  0  0  0  0
  4  9  1  0  0  0  0
  4 16  2  0  0  0  0
  5 18  1  0  0  0  0
  6 20  1  0  0  0  0
  7 10  2  0  0  0  0
  7 19  1  0  0  0  0
  8 24  1  0  0  0  0
  9 24  2  0  0  0  0
 10 25  1  0  0  0  0
 11 12  2  0  0  0  0
 11 26  1  0  0  0  0
 12 27  1  0  0  0  0
 13 21  1  0  0  0  0
 13 25  2  0  0  0  0
 14 27  2  0  0  0  0
 14 28  1  0  0  0  0
 15 22  2  0  0  0  0
 15 64  1  0  0  0  0
 16 29  1  0  0  0  0
 17 29  1  0  0  0  0
 17 31  2  0  0  0  0
 17 32  1  0  0  0  0
 18 20  2  0  0  0  0
 18 37  1  0  0  0  0
 19 21  2  0  0  0  0
 19 38  1  0  0  0  0
 20 46  1  0  0  0  0
 21 39  1  0  0  0  0
 22 23  1  0  0  0  0
 22 56  1  0  0  0  0
 23 30  2  0  0  0  0
 23 49  1  0  0  0  0
 24 79  1  0  0  0  0
 25 80  1  0  0  0  0
 26 28  2  0  0  0  0
 26 79  1  0  0  0  0
 27 81  1  0  0  0  0
 28 82  1  0  0  0  0
 29 63  2  0  0  0  0
 30 50  1  0  0  0  0
 30 64  1  0  0  0  0
 31 65  1  0  0  0  0
 31 68  1  0  0  0  0
 32 69  1  0  0  0  0
 32 74  2  0  0  0  0
 33 47  1  0  0  0  0
 33 70  1  0  0  0  0
 33 75  2  0  0  0  0
 34 60  1  0  0  0  0
 34 66  1  0  0  0  0
 34 76  2  0  0  0  0
 35 61  1  0  0  0  0
 35 71  1  0  0  0  0
 35 77  2  0  0  0  0
 36 67  1  0  0  0  0
 36 72  1  0  0  0  0
 36 78  2  0  0  0  0
 37 40  1  0  0  0  0
 38 47  1  0  0  0  0
 39 66  1  0  0  0  0
 40 42  1  0  0  0  0
 41 43  1  0  0  0  0
 41 44  1  0  0  0  0
 42 46  1  0  0  0  0
 43 48  1  0  0  0  0
 44 67  1  0  0  0  0
 45 48  1  0  0  0  0
 45 67  1  0  0  0  0
 46 70  1  0  0  0  0
 47 66  1  0  0  0  0
 48 65  1  0  0  0  0
 51 61  1  0  0  0  0
 52 62  1  0  0  0  0
 53 62  1  0  0  0  0
 54 62  1  0  0  0  0
 55 73  1  0  0  0  0
 56 58  1  0  0  0  0
 57 59  1  0  0  0  0
 57 64  1  0  0  0  0
 58 72  1  0  0  0  0
 59 80  1  0  0  0  0
 60 62  1  0  0  0  0
 60 71  1  0  0  0  0
 61 73  1  0  0  0  0
 63 65  1  0  0  0  0
M  CHG  1  73   1
M  ISO  4  36 100  59 101  72 100  80 101
M  END
> <Batch ID>
0089

> <Smiles>
CNC(C)C(=O)NC(C(=O)N1Cc2cc([101O:1][101CH2:1]Cn3cc(CC[100NH:0][100C:0](=O)N4CCCC(n5nc(-c6ccc(Oc7ccc(F)cc7F)cc6)c(C(N)=O)c5N)C4)c(C)c3C)ccc2CC1C(=O)NC1CCCc2ccccc21)C(C)(C)C

> <Shape>
0.248

> <Color>
0.070

> <Negative vol penalty>
0.000

$$$$

  -OEChem-04052319063D

 87 95  0     1  0  0  0  0  0999 V2000
  -28.7014  -18.2874   17.2134 C   0  0  0  0  0  0  0  0  0  0  0  0
  -29.2287  -18.6733   18.4415 C   0  0  0  0  0  0  0  0  0  0  0  0
  -23.0023   -9.8917   19.9811 C   0  0  0  0  0  0  0  0  0  0  0  0
  -23.7319   -9.9424   22.2837 C   0  0  0  0  0  0  0  0  0  0  0  0
  -29.3179  -18.6967   16.0317 C   0  0  0  0  0  0  0  0  0  0  0  0
  -30.3736  -19.4680   18.4888 C   0  0  0  0  0  0  0  0  0  0  0  0
  -29.9757  -23.2514   21.8313 C   0  0  0  0  0  0  0  0  0  0  0  0
  -22.2386   -8.7555   20.2481 C   0  0  0  0  0  0  0  0  0  0  0  0
  -22.9682   -8.8062   22.5507 C   0  0  0  0  0  0  0  0  0  0  0  0
  -30.1501  -22.9328   23.1773 C   0  0  0  0  0  0  0  0  0  0  0  0
  -23.2182   -5.4681   22.0759 C   0  0  0  0  0  0  0  0  0  0  0  0
  -23.8093   -4.4515   22.8260 C   0  0  0  0  0  0  0  0  0  0  0  0
  -32.4150  -23.7566   23.0727 C   0  0  0  0  0  0  0  0  0  0  0  0
  -33.5628  -20.2908   24.4449 C   0  0  0  0  0  0  0  0  0  0  0  0
  -31.7444  -18.7113   24.6325 C   0  0  0  0  0  0  0  0  0  0  0  0
  -22.0882   -4.6898   24.5049 C   0  0  0  0  0  0  0  0  0  0  0  0
  -23.7491  -10.4852   20.9989 C   0  0  0  0  0  0  0  0  0  0  0  0
  -24.1290  -13.0016   20.8240 C   0  0  0  0  0  0  0  0  0  0  0  0
  -30.4654  -19.5048   16.0644 C   0  0  0  0  0  0  0  0  0  0  0  0
  -31.0250  -23.8159   21.0917 C   0  0  0  0  0  0  0  0  0  0  0  0
  -31.0068  -19.8874   17.3065 C   0  0  0  0  0  0  0  0  0  0  0  0
  -32.2506  -24.0838   21.7181 C   0  0  0  0  0  0  0  0  0  0  0  0
  -32.3736  -19.8840   25.0499 C   0  0  0  0  0  0  0  0  0  0  0  0
  -34.1227  -19.5248   23.4224 C   0  0  0  0  0  0  0  0  0  0  0  0
  -32.3043  -17.9452   23.6100 C   0  0  0  0  0  0  0  0  0  0  0  0
  -33.4934  -18.3521   23.0050 C   0  0  0  0  0  0  0  0  0  0  0  0
  -22.2215   -8.2127   21.5329 C   0  0  0  0  0  0  0  0  0  0  0  0
  -31.3708  -23.1827   23.7975 C   0  0  0  0  0  0  0  0  0  0  0  0
  -22.0622   -6.0956   22.5402 C   0  0  0  0  0  0  0  0  0  0  0  0
  -23.2443   -4.0623   24.0405 C   0  0  0  0  0  0  0  0  0  0  0  0
  -21.4972   -5.7064   23.7547 C   0  0  0  0  0  0  0  0  0  0  0  0
  -24.5386  -11.6585   20.7236 C   0  0  0  0  0  0  0  0  0  0  0  0
  -25.2366  -13.7267   20.4579 C   0  0  0  0  0  0  0  0  0  0  0  0
  -22.8607  -13.5452   21.2134 C   0  0  0  0  0  0  0  0  0  0  0  0
  -32.7022  -22.9294   18.5413 C   0  0  0  0  0  0  0  0  0  0  0  0
  -33.9693  -25.9020   18.8252 C   0  0  0  0  0  0  0  0  0  0  0  0
  -34.6672  -28.5746   20.8293 C   0  0  0  0  0  0  0  0  0  0  0  0
  -30.7316  -14.6721   20.6963 C   0  0  0  0  0  0  0  0  0  0  0  0
  -31.1241  -19.8831   14.7615 C   0  0  0  0  0  0  0  0  0  0  0  0
  -30.8123  -24.1785   19.6475 C   0  0  0  0  0  0  0  0  0  0  0  0
  -33.4020  -24.7072   20.9737 C   0  0  0  0  0  0  0  0  0  0  0  0
  -32.1174  -21.0348   14.8930 C   0  0  0  0  0  0  0  0  0  0  0  0
  -29.5911  -12.2479   18.3513 C   0  0  0  0  0  0  0  0  0  0  0  0
  -33.0344  -20.8146   16.0920 C   0  0  0  0  0  0  0  0  0  0  0  0
  -28.1439  -11.9850   18.7715 C   0  0  0  0  0  0  0  0  0  0  0  0
  -30.4954  -12.4842   19.5589 C   0  0  0  0  0  0  0  0  0  0  0  0
  -28.5863  -13.2749   20.9021 C   0  0  0  0  0  0  0  0  0  0  0  0
  -32.2329  -20.7696   17.3985 C   0  0  1  0  0  0  0  0  0  0  0  0
  -32.1139  -24.2753   18.8578 C   0  0  1  0  0  0  0  0  0  0  0  0
  -27.6254  -13.0862   19.7158 C   0  0  2  0  0  0  0  0  0  0  0  0
  -36.5249  -20.1305   23.8086 C   0  0  0  0  0  0  0  0  0  0  0  0
  -35.4845  -16.9862   22.2813 C   0  0  0  0  0  0  0  0  0  0  0  0
  -34.1692  -18.2980   20.5771 C   0  0  0  0  0  0  0  0  0  0  0  0
  -35.7430  -30.8414   20.7862 C   0  0  0  0  0  0  0  0  0  0  0  0
  -29.8801  -22.2808   26.7288 C   0  0  0  0  0  0  0  0  0  0  0  0
  -36.7247  -24.5915   18.8251 C   0  0  0  0  0  0  0  0  0  0  0  0
  -37.6655  -26.7312   19.7223 C   0  0  0  0  0  0  0  0  0  0  0  0
  -36.5700  -26.6952   17.4815 C   0  0  0  0  0  0  0  0  0  0  0  0
  -32.1413  -29.9159   21.5906 C   0  0  0  0  0  0  0  0  0  0  0  0
  -31.7670  -20.7139   26.1567 C   0  0  0  0  0  0  0  0  0  0  0  0
  -35.3974  -19.9819   22.7917 C   0  0  0  0  0  0  0  0  0  0  0  0
  -31.6108  -16.6934   23.1814 C   0  0  0  0  0  0  0  0  0  0  0  0
  -30.8123  -16.8503   21.8829 C   0  0  0  0  0  0  0  0  0  0  0  0
  -34.0942  -17.5308   21.9089 C   0  0  0  0  0  0  0  0  0  0  0  0
  -35.1456  -26.4970   19.5609 C   0  0  1  0  0  0  0  0  0  0  0  0
  -34.4447  -30.0638   20.6361 C   0  0  2  0  0  0  0  0  0  0  0  0
  -30.7944  -21.7706   25.6222 C   0  0  2  0  0  0  0  0  0  1  0  0
  -36.5056  -26.1152   18.9113 C   0  0  0  0  0  0  0  0  0  0  0  0
  -25.8074  -11.5349   20.3248 N   0  0  0  0  0  0  0  0  0  0  0  0
  -26.2045  -12.8096   20.1713 N   0  0  0  0  0  0  0  0  0  0  0  0
  -33.1469  -25.0379   19.5619 N   0  0  0  0  0  0  0  0  0  0  0  0
  -29.9482  -13.5412   20.4129 N   0  0  0  0  0  0  0  0  0  0  0  0
  -25.4672  -15.0529   20.3564 N   0  0  0  0  0  0  0  0  0  0  0  0
  -21.8314  -12.6588   21.5583 N   0  0  0  0  0  0  0  0  0  0  0  0
  -31.8650  -22.1068   17.8121 N   0  0  0  0  0  0  0  0  0  0  0  0
  -34.8991  -27.9332   19.6310 N   0  0  0  0  0  0  0  0  0  0  0  0
  -30.1349  -15.6291   21.5081 N   0  0  0  0  0  0  0  0  0  0  0  0
  -33.4709  -30.5767   21.6409 N   0  3  0  0  0  0  0  0  0  0  0  0
  -22.6416  -14.7801   21.2385 O   0  0  0  0  0  0  0  0  0  0  0  0
  -33.8327  -22.6579   18.9288 O   0  0  0  0  0  0  0  0  0  0  0  0
  -33.7828  -26.1988   17.6425 O   0  0  0  0  0  0  0  0  0  0  0  0
  -34.6418  -28.0350   21.9333 O   0  0  0  0  0  0  0  0  0  0  0  0
  -31.8758  -14.8206   20.2541 O   0  0  0  0  0  0  0  0  0  0  0  0
  -21.4761   -7.1042   21.7939 O   0  0  0  0  0  0  0  0  0  0  0  0
  -31.5439  -22.8721   25.1110 O   0  0  0  0  0  0  0  0  0  1  0  0
  -23.8111   -3.0850   24.7601 F   0  0  0  0  0  0  0  0  0  0  0  0
  -20.3860   -6.3047   24.2053 F   0  0  0  0  0  0  0  0  0  0  0  0
  1  2  1  0  0  0  0
  1  5  2  0  0  0  0
  2  6  2  0  0  0  0
  3  8  2  0  0  0  0
  3 17  1  0  0  0  0
  4  9  1  0  0  0  0
  4 17  2  0  0  0  0
  5 19  1  0  0  0  0
  6 21  1  0  0  0  0
  7 10  2  0  0  0  0
  7 20  1  0  0  0  0
  8 27  1  0  0  0  0
  9 27  2  0  0  0  0
 10 28  1  0  0  0  0
 11 12  2  0  0  0  0
 11 29  1  0  0  0  0
 12 30  1  0  0  0  0
 13 22  1  0  0  0  0
 13 28  2  0  0  0  0
 14 23  2  0  0  0  0
 14 24  1  0  0  0  0
 15 23  1  0  0  0  0
 15 25  2  0  0  0  0
 16 30  2  0  0  0  0
 16 31  1  0  0  0  0
 17 32  1  0  0  0  0
 18 32  1  0  0  0  0
 18 33  2  0  0  0  0
 18 34  1  0  0  0  0
 19 21  2  0  0  0  0
 19 39  1  0  0  0  0
 20 22  2  0  0  0  0
 20 40  1  0  0  0  0
 21 48  1  0  0  0  0
 22 41  1  0  0  0  0
 23 60  1  0  0  0  0
 24 26  2  0  0  0  0
 24 61  1  0  0  0  0
 25 26  1  0  0  0  0
 25 62  1  0  0  0  0
 26 64  1  0  0  0  0
 27 84  1  0  0  0  0
 28 85  1  0  0  0  0
 29 31  2  0  0  0  0
 29 84  1  0  0  0  0
 30 86  1  0  0  0  0
 31 87  1  0  0  0  0
 32 69  2  0  0  0  0
 33 70  1  0  0  0  0
 33 73  1  0  0  0  0
 34 74  1  0  0  0  0
 34 79  2  0  0  0  0
 35 49  1  0  0  0  0
 35 75  1  0  0  0  0
 35 80  2  0  0  0  0
 36 65  1  0  0  0  0
 36 71  1  0  0  0  0
 36 81  2  0  0  0  0
 37 66  1  0  0  0  0
 37 76  1  0  0  0  0
 37 82  2  0  0  0  0
 38 72  1  0  0  0  0
 38 77  1  0  0  0  0
 38 83  2  0  0  0  0
 39 42  1  0  0  0  0
 40 49  1  0  0  0  0
 41 71  1  0  0  0  0
 42 44  1  0  0  0  0
 43 45  1  0  0  0  0
 43 46  1  0  0  0  0
 44 48  1  0  0  0  0
 45 50  1  0  0  0  0
 46 72  1  0  0  0  0
 47 50  1  0  0  0  0
 47 72  1  0  0  0  0
 48 75  1  0  0  0  0
 49 71  1  0  0  0  0
 50 70  1  0  0  0  0
 51 61  1  0  0  0  0
 52 64  1  0  0  0  0
 53 64  1  0  0  0  0
 54 66  1  0  0  0  0
 55 67  1  0  0  0  0
 56 68  1  0  0  0  0
 57 68  1  0  0  0  0
 58 68  1  0  0  0  0
 59 78  1  0  0  0  0
 60 67  1  0  0  0  0
 62 63  1  0  0  0  0
 63 77  1  0  0  0  0
 65 68  1  0  0  0  0
 65 76  1  0  0  0  0
 66 78  1  0  0  0  0
 67 85  1  0  0  0  0
 69 70  1  0  0  0  0
M  CHG  1  78   1
M  ISO  4  38 100  67 101  77 100  85 101
M  END
> <Batch ID>
0089

> <Smiles>
CCc1cc(C[101CH:1](C)[101O:1]c2ccc3c(c2)CN(C(=O)C(NC(=O)C(C)NC)C(C)(C)C)C(C(=O)NC2CCCc4ccccc42)C3)cc(CC[100NH:0][100C:0](=O)N2CCCC(n3nc(-c4ccc(Oc5ccc(F)cc5F)cc4)c(C(N)=O)c3N)C2)c1C(C)C

> <Shape>
0.195

> <Color>
0.197

> <Negative vol penalty>
0.000

$$$$

  -OEChem-04052319063D

 90 98  0     1  0  0  0  0  0999 V2000
  -26.2887  -34.9263   23.9072 C   0  0  0  0  0  0  0  0  0  0  0  0
  -26.7717  -33.6547   23.6154 C   0  0  0  0  0  0  0  0  0  0  0  0
  -23.9344  -13.7270   19.5858 C   0  0  0  0  0  0  0  0  0  0  0  0
  -25.2925  -14.0379   21.5596 C   0  0  0  0  0  0  0  0  0  0  0  0
  -24.9542  -35.0967   24.2734 C   0  0  0  0  0  0  0  0  0  0  0  0
  -25.9208  -32.5526   23.6906 C   0  0  0  0  0  0  0  0  0  0  0  0
  -26.4187  -29.4395   19.7276 C   0  0  0  0  0  0  0  0  0  0  0  0
  -24.7480  -12.6641   19.1934 C   0  0  0  0  0  0  0  0  0  0  0  0
  -26.1061  -12.9750   21.1672 C   0  0  0  0  0  0  0  0  0  0  0  0
  -27.5178  -28.5817   19.7259 C   0  0  0  0  0  0  0  0  0  0  0  0
  -25.9930   -9.5981   21.2314 C   0  0  0  0  0  0  0  0  0  0  0  0
  -26.3482   -8.6627   22.2032 C   0  0  0  0  0  0  0  0  0  0  0  0
  -26.1063  -26.7816   20.4918 C   0  0  0  0  0  0  0  0  0  0  0  0
  -28.6817   -9.1753   21.8437 C   0  0  0  0  0  0  0  0  0  0  0  0
  -24.2067  -14.4139   20.7689 C   0  0  0  0  0  0  0  0  0  0  0  0
  -22.2132  -15.4484   21.9786 C   0  0  0  0  0  0  0  0  0  0  0  0
  -24.0841  -33.9974   24.3437 C   0  0  0  0  0  0  0  0  0  0  0  0
  -25.1552  -28.9768   20.1225 C   0  0  0  0  0  0  0  0  0  0  0  0
  -24.5737  -32.7083   24.0594 C   0  0  0  0  0  0  0  0  0  0  0  0
  -24.9923  -27.6349   20.4951 C   0  0  0  0  0  0  0  0  0  0  0  0
  -29.9667  -25.0262   24.7178 C   0  0  0  0  0  0  0  0  0  0  0  0
  -29.3538  -25.2839   25.9389 C   0  0  0  0  0  0  0  0  0  0  0  0
  -29.3445  -24.1911   23.7965 C   0  0  0  0  0  0  0  0  0  0  0  0
  -25.8339  -12.2881   19.9841 C   0  0  0  0  0  0  0  0  0  0  0  0
  -27.3622  -27.2533   20.1108 C   0  0  0  0  0  0  0  0  0  0  0  0
  -26.9822  -10.3220   20.5656 C   0  0  0  0  0  0  0  0  0  0  0  0
  -27.6926   -8.4513   22.5094 C   0  0  0  0  0  0  0  0  0  0  0  0
  -28.3265  -10.1107   20.8718 C   0  0  0  0  0  0  0  0  0  0  0  0
  -23.3669  -15.5122   21.1745 C   0  0  0  0  0  0  0  0  0  0  0  0
  -28.1286  -24.6870   26.1884 C   0  0  0  0  0  0  0  0  0  0  0  0
  -28.1197  -23.6429   24.1419 C   0  0  0  0  0  0  0  0  0  0  0  0
  -21.7852  -16.7504   22.0691 C   0  0  0  0  0  0  0  0  0  0  0  0
  -21.5846  -14.3136   22.5893 C   0  0  0  0  0  0  0  0  0  0  0  0
  -23.1286  -29.7074   22.4597 C   0  0  0  0  0  0  0  0  0  0  0  0
  -21.1891  -27.6268   20.9003 C   0  0  0  0  0  0  0  0  0  0  0  0
  -20.9004  -24.9670   18.7815 C   0  0  0  0  0  0  0  0  0  0  0  0
  -24.5994  -22.0116   21.5687 C   0  0  0  0  0  0  0  0  0  0  0  0
  -22.6615  -34.2251   24.7901 C   0  0  0  0  0  0  0  0  0  0  0  0
  -23.9744  -29.9080   20.0932 C   0  0  0  0  0  0  0  0  0  0  0  0
  -23.6529  -27.0836   20.9082 C   0  0  0  0  0  0  0  0  0  0  0  0
  -21.7318  -33.0540   24.4824 C   0  0  0  0  0  0  0  0  0  0  0  0
  -21.8200  -20.8797   19.6529 C   0  0  0  0  0  0  0  0  0  0  0  0
  -22.3810  -31.7355   24.8908 C   0  0  0  0  0  0  0  0  0  0  0  0
  -21.7972  -19.3700   19.8982 C   0  0  0  0  0  0  0  0  0  0  0  0
  -23.2471  -21.4181   19.5798 C   0  0  0  0  0  0  0  0  0  0  0  0
  -24.0749  -19.5671   20.9807 C   0  0  0  0  0  0  0  0  0  0  0  0
  -23.6755  -31.4914   24.1057 C   0  0  1  0  0  0  0  0  0  0  0  0
  -22.8375  -29.4601   21.0065 C   0  0  1  0  0  0  0  0  0  0  0  0
  -22.6568  -18.9870   21.1178 C   0  0  2  0  0  0  0  0  0  0  0  0
  -27.4216  -24.9264   27.4823 C   0  0  0  0  0  0  0  0  0  0  0  0
  -29.3584  -27.5626   26.9850 C   0  0  0  0  0  0  0  0  0  0  0  0
  -19.1884  -23.4666   17.7254 C   0  0  0  0  0  0  0  0  0  0  0  0
  -34.9110  -24.7321   25.5654 C   0  0  0  0  0  0  0  0  0  0  0  0
  -34.1479  -25.4773   23.3021 C   0  0  0  0  0  0  0  0  0  0  0  0
  -20.8555  -26.1476   23.5481 C   0  0  0  0  0  0  0  0  0  0  0  0
  -19.9574  -24.1950   22.2641 C   0  0  0  0  0  0  0  0  0  0  0  0
  -18.7549  -26.3799   22.2110 C   0  0  0  0  0  0  0  0  0  0  0  0
  -21.6872  -25.7973   16.0520 C   0  0  0  0  0  0  0  0  0  0  0  0
  -31.2911  -25.6425   24.3972 C   0  0  0  0  0  0  0  0  0  0  0  0
  -29.9962  -26.1764   26.9473 C   0  0  0  0  0  0  0  0  0  0  0  0
  -29.9830  -23.8919   22.4637 C   0  0  0  0  0  0  0  0  0  0  0  0
  -27.4038  -22.7364   23.1948 C   0  0  0  0  0  0  0  0  0  0  0  0
  -32.4458  -24.9289   25.1216 C   0  0  0  0  0  0  0  0  0  0  0  0
  -29.8661  -25.0358   21.4540 C   0  0  0  0  0  0  0  0  0  0  0  0
  -25.9548  -22.4478   23.6014 C   0  0  0  0  0  0  0  0  0  0  0  0
  -28.4269  -25.3524   21.0643 C   0  0  0  0  0  0  0  0  0  1  0  0
  -20.9431  -26.1389   20.9677 C   0  0  1  0  0  0  0  0  0  0  0  0
  -20.0136  -24.7347   17.5715 C   0  0  2  0  0  0  0  0  0  0  0  0
  -33.8362  -25.5071   24.7990 C   0  0  0  0  0  0  0  0  0  0  0  0
  -20.1535  -25.7259   22.2419 C   0  0  0  0  0  0  0  0  0  0  0  0
  -23.6536  -16.7563   20.7819 N   0  0  0  0  0  0  0  0  0  0  0  0
  -27.4935  -23.8702   25.3183 N   0  0  0  0  0  0  0  0  0  0  0  0
  -22.6738  -17.4862   21.3417 N   0  0  0  0  0  0  0  0  0  0  0  0
  -22.5301  -28.0351   20.8691 N   0  0  0  0  0  0  0  0  0  0  0  0
  -24.0085  -21.0213   20.7668 N   0  0  0  0  0  0  0  0  0  0  0  0
  -20.7391  -17.3261   22.6990 N   0  0  0  0  0  0  0  0  0  0  0  0
  -22.1555  -13.0485   22.3948 N   0  0  0  0  0  0  0  0  0  0  0  0
  -23.3753  -31.0320   22.7665 N   0  0  0  0  0  0  0  0  0  0  0  0
  -20.2885  -25.7762   19.7154 N   0  0  0  0  0  0  0  0  0  0  0  0
  -25.2975  -21.5500   22.6779 N   0  0  0  0  0  0  0  0  0  0  0  0
  -20.8417  -24.6099   16.3388 N   0  3  0  0  0  0  0  0  0  0  0  0
  -20.5380  -14.4163   23.2732 O   0  0  0  0  0  0  0  0  0  0  0  0
  -23.1279  -28.7664   23.2447 O   0  0  0  0  0  0  0  0  0  0  0  0
  -20.2269  -28.3980   20.8690 O   0  0  0  0  0  0  0  0  0  0  0  0
  -22.0221  -24.4764   18.8894 O   0  0  0  0  0  0  0  0  0  0  0  0
  -24.5069  -23.2181   21.3179 O   0  0  0  0  0  0  0  0  0  0  0  0
  -26.6278  -11.2509   19.6016 O   0  0  0  0  0  0  0  0  0  0  0  0
  -28.4335  -26.4140   20.1107 O   0  0  0  0  0  0  0  0  0  1  0  0
  -28.0335   -7.5542   23.4438 F   0  0  0  0  0  0  0  0  0  0  0  0
  -29.2811  -10.8040   20.2364 F   0  0  0  0  0  0  0  0  0  0  0  0
  1  2  1  0  0  0  0
  1  5  2  0  0  0  0
  2  6  2  0  0  0  0
  3  8  2  0  0  0  0
  3 15  1  0  0  0  0
  4  9  1  0  0  0  0
  4 15  2  0  0  0  0
  5 17  1  0  0  0  0
  6 19  1  0  0  0  0
  7 10  2  0  0  0  0
  7 18  1  0  0  0  0
  8 24  1  0  0  0  0
  9 24  2  0  0  0  0
 10 25  1  0  0  0  0
 11 12  2  0  0  0  0
 11 26  1  0  0  0  0
 12 27  1  0  0  0  0
 13 20  1  0  0  0  0
 13 25  2  0  0  0  0
 14 27  2  0  0  0  0
 14 28  1  0  0  0  0
 15 29  1  0  0  0  0
 16 29  1  0  0  0  0
 16 32  2  0  0  0  0
 16 33  1  0  0  0  0
 17 19  2  0  0  0  0
 17 38  1  0  0  0  0
 18 20  2  0  0  0  0
 18 39  1  0  0  0  0
 19 47  1  0  0  0  0
 20 40  1  0  0  0  0
 21 22  2  0  0  0  0
 21 23  1  0  0  0  0
 21 59  1  0  0  0  0
 22 30  1  0  0  0  0
 22 60  1  0  0  0  0
 23 31  2  0  0  0  0
 23 61  1  0  0  0  0
 24 87  1  0  0  0  0
 25 88  1  0  0  0  0
 26 28  2  0  0  0  0
 26 87  1  0  0  0  0
 27 89  1  0  0  0  0
 28 90  1  0  0  0  0
 29 71  2  0  0  0  0
 30 50  1  0  0  0  0
 30 72  2  0  0  0  0
 31 62  1  0  0  0  0
 31 72  1  0  0  0  0
 32 73  1  0  0  0  0
 32 76  1  0  0  0  0
 33 77  1  0  0  0  0
 33 82  2  0  0  0  0
 34 48  1  0  0  0  0
 34 78  1  0  0  0  0
 34 83  2  0  0  0  0
 35 67  1  0  0  0  0
 35 74  1  0  0  0  0
 35 84  2  0  0  0  0
 36 68  1  0  0  0  0
 36 79  1  0  0  0  0
 36 85  2  0  0  0  0
 37 75  1  0  0  0  0
 37 80  1  0  0  0  0
 37 86  2  0  0  0  0
 38 41  1  0  0  0  0
 39 48  1  0  0  0  0
 40 74  1  0  0  0  0
 41 43  1  0  0  0  0
 42 44  1  0  0  0  0
 42 45  1  0  0  0  0
 43 47  1  0  0  0  0
 44 49  1  0  0  0  0
 45 75  1  0  0  0  0
 46 49  1  0  0  0  0
 46 75  1  0  0  0  0
 47 78  1  0  0  0  0
 48 74  1  0  0  0  0
 49 73  1  0  0  0  0
 51 60  1  0  0  0  0
 52 68  1  0  0  0  0
 53 69  1  0  0  0  0
 54 69  1  0  0  0  0
 55 70  1  0  0  0  0
 56 70  1  0  0  0  0
 57 70  1  0  0  0  0
 58 81  1  0  0  0  0
 59 63  1  0  0  0  0
 61 64  1  0  0  0  0
 62 65  1  0  0  0  0
 63 69  1  0  0  0  0
 64 66  1  0  0  0  0
 65 80  1  0  0  0  0
 66 88  1  0  0  0  0
 67 70  1  0  0  0  0
 67 79  1  0  0  0  0
 68 81  1  0  0  0  0
 71 73  1  0  0  0  0
M  CHG  1  81   1
M  ISO  4  37 100  66 101  80 100  88 101
M  END
> <Batch ID>
0089

> <Smiles>
CCc1c(C)nc(CC[100NH:0][100C:0](=O)N2CCCC(n3nc(-c4ccc(Oc5ccc(F)cc5F)cc4)c(C(N)=O)c3N)C2)c(CC[101CH2:1][101O:1]c2ccc3c(c2)CN(C(=O)C(NC(=O)C(C)NC)C(C)(C)C)C(C(=O)NC2CCCc4ccccc42)C3)c1CCC(C)C

> <Shape>
0.177

> <Color>
0.082

> <Negative vol penalty>
0.000

$$$$

  -OEChem-04052319063D

 88 96  0     1  0  0  0  0  0999 V2000
  -27.7072  -37.5958   20.0049 C   0  0  0  0  0  0  0  0  0  0  0  0
  -28.1595  -36.3061   19.7450 C   0  0  0  0  0  0  0  0  0  0  0  0
  -24.1789   -9.4609   22.3430 C   0  0  0  0  0  0  0  0  0  0  0  0
  -23.4287  -10.1329   20.1469 C   0  0  0  0  0  0  0  0  0  0  0  0
  -26.8392  -37.8271   21.0712 C   0  0  0  0  0  0  0  0  0  0  0  0
  -27.7450  -35.2472   20.5519 C   0  0  0  0  0  0  0  0  0  0  0  0
  -26.6844  -29.4768   18.7959 C   0  0  0  0  0  0  0  0  0  0  0  0
  -23.1909   -8.4769   22.3794 C   0  0  0  0  0  0  0  0  0  0  0  0
  -22.4408   -9.1488   20.1833 C   0  0  0  0  0  0  0  0  0  0  0  0
  -27.4584  -28.3191   18.8615 C   0  0  0  0  0  0  0  0  0  0  0  0
  -22.7090   -5.3826   21.1042 C   0  0  0  0  0  0  0  0  0  0  0  0
  -23.0752   -4.1125   21.5496 C   0  0  0  0  0  0  0  0  0  0  0  0
  -26.3544  -27.7044   20.9163 C   0  0  0  0  0  0  0  0  0  0  0  0
  -21.4651   -4.2773   23.3434 C   0  0  0  0  0  0  0  0  0  0  0  0
  -24.4469  -21.9262   18.0177 C   0  0  0  0  0  0  0  0  0  0  0  0
  -24.2977  -10.2889   21.2268 C   0  0  0  0  0  0  0  0  0  0  0  0
  -26.6312  -11.1747   20.6998 C   0  0  0  0  0  0  0  0  0  0  0  0
  -26.4061  -36.7690   21.8857 C   0  0  0  0  0  0  0  0  0  0  0  0
  -25.7456  -29.7629   19.7975 C   0  0  0  0  0  0  0  0  0  0  0  0
  -26.8714  -35.4648   21.6309 C   0  0  0  0  0  0  0  0  0  0  0  0
  -25.5678  -28.8652   20.8598 C   0  0  0  0  0  0  0  0  0  0  0  0
  -23.2162  -21.6127   18.5509 C   0  0  0  0  0  0  0  0  0  0  0  0
  -22.8739  -22.6439   19.4600 C   0  0  0  0  0  0  0  0  0  0  0  0
  -22.3219   -8.3208   21.2995 C   0  0  0  0  0  0  0  0  0  0  0  0
  -27.2955  -27.4341   19.9233 C   0  0  0  0  0  0  0  0  0  0  0  0
  -21.7209   -6.1001   21.7785 C   0  0  0  0  0  0  0  0  0  0  0  0
  -22.4532   -3.5598   22.6691 C   0  0  0  0  0  0  0  0  0  0  0  0
  -21.0989   -5.5474   22.8980 C   0  0  0  0  0  0  0  0  0  0  0  0
  -25.3177  -11.3059   21.1888 C   0  0  0  0  0  0  0  0  0  0  0  0
  -23.9058  -23.5564   19.4544 C   0  0  0  0  0  0  0  0  0  0  0  0
  -27.1926  -12.4143   20.8864 C   0  0  0  0  0  0  0  0  0  0  0  0
  -27.2855  -10.0343   20.1278 C   0  0  0  0  0  0  0  0  0  0  0  0
  -25.3702  -32.1007   21.9182 C   0  0  0  0  0  0  0  0  0  0  0  0
  -22.5791  -30.5666   22.5334 C   0  0  0  0  0  0  0  0  0  0  0  0
  -20.7873  -27.6635   22.4411 C   0  0  0  0  0  0  0  0  0  0  0  0
  -24.8724  -17.9164   21.3273 C   0  0  0  0  0  0  0  0  0  0  0  0
  -25.5048  -37.0753   23.0556 C   0  0  0  0  0  0  0  0  0  0  0  0
  -24.8996  -31.0026   19.6982 C   0  0  0  0  0  0  0  0  0  0  0  0
  -24.5593  -29.1161   21.9499 C   0  0  0  0  0  0  0  0  0  0  0  0
  -24.8169  -35.8413   23.6339 C   0  0  0  0  0  0  0  0  0  0  0  0
  -26.9216  -16.2590   23.7211 C   0  0  0  0  0  0  0  0  0  0  0  0
  -25.8198  -34.7061   23.8136 C   0  0  0  0  0  0  0  0  0  0  0  0
  -26.8615  -14.7899   23.2994 C   0  0  0  0  0  0  0  0  0  0  0  0
  -25.5855  -16.9647   23.5003 C   0  0  0  0  0  0  0  0  0  0  0  0
  -24.9819  -15.3795   21.7125 C   0  0  0  0  0  0  0  0  0  0  0  0
  -26.4246  -34.2862   22.4684 C   0  0  1  0  0  0  0  0  0  0  0  0
  -24.3360  -31.4508   21.0432 C   0  0  1  0  0  0  0  0  0  0  0  0
  -26.3223  -14.6401   21.8641 C   0  0  2  0  0  0  0  0  0  0  0  0
  -24.0695  -24.8158   20.2110 C   0  0  0  0  0  0  0  0  0  0  0  0
  -20.6041  -22.4660   22.5779 C   0  0  0  0  0  0  0  0  0  0  0  0
  -18.5464  -26.7116   23.0490 C   0  0  0  0  0  0  0  0  0  0  0  0
  -21.7435  -18.0214   18.7600 C   0  0  0  0  0  0  0  0  0  0  0  0
  -23.4033  -30.5085   25.4707 C   0  0  0  0  0  0  0  0  0  0  0  0
  -21.6508  -28.7624   25.8558 C   0  0  0  0  0  0  0  0  0  0  0  0
  -20.9915  -31.0378   25.0743 C   0  0  0  0  0  0  0  0  0  0  0  0
  -20.1895  -26.9689   19.6270 C   0  0  0  0  0  0  0  0  0  0  0  0
  -22.4113  -20.4179   18.2272 C   0  0  0  0  0  0  0  0  0  0  0  0
  -21.6387  -22.7277   20.2664 C   0  0  0  0  0  0  0  0  0  0  0  0
  -21.8679  -22.3430   21.7415 C   0  0  0  0  0  0  0  0  0  0  0  0
  -27.2459  -23.5945   19.3138 C   0  0  0  0  0  0  0  0  0  0  0  0
  -28.5864  -24.2205   18.9257 C   0  0  0  0  0  0  0  0  0  0  0  0
  -26.1583  -23.8000   18.2534 C   0  0  0  0  0  0  0  0  0  0  0  0
  -24.1526  -18.7175   19.0914 C   0  0  0  0  0  0  0  0  0  0  0  0
  -28.4700  -25.7290   18.7531 C   0  0  0  0  0  0  0  0  0  1  0  0
  -22.1494  -29.4635   23.4702 C   0  0  1  0  0  0  0  0  0  0  0  0
  -19.3802  -27.3633   21.9568 C   0  0  2  0  0  0  0  0  0  0  0  0
  -22.6847  -19.1752   19.1252 C   0  0  2  0  0  0  0  0  0  0  0  0
  -22.0692  -29.9390   24.9484 C   0  0  0  0  0  0  0  0  0  0  0  0
  -25.0599  -12.5321   21.6516 N   0  0  0  0  0  0  0  0  0  0  0  0
  -24.8563  -23.1099   18.5739 N   0  0  0  0  0  0  0  0  0  0  0  0
  -26.2191  -13.1826   21.4542 N   0  0  0  0  0  0  0  0  0  0  0  0
  -23.7605  -30.3451   21.8115 N   0  0  0  0  0  0  0  0  0  0  0  0
  -25.1306  -16.7856   22.1194 N   0  0  0  0  0  0  0  0  0  0  0  0
  -28.4189  -12.9111   20.6187 N   0  0  0  0  0  0  0  0  0  0  0  0
  -26.5631   -8.8391   20.0096 N   0  0  0  0  0  0  0  0  0  0  0  0
  -25.4908  -33.4642   21.7290 N   0  0  0  0  0  0  0  0  0  0  0  0
  -20.8931  -28.9444   22.9405 N   0  0  0  0  0  0  0  0  0  0  0  0
  -24.4513  -17.6578   20.0286 N   0  0  0  0  0  0  0  0  0  0  0  0
  -19.4209  -26.4437   20.7848 N   0  3  0  0  0  0  0  0  0  0  0  0
  -28.4806  -10.0694   19.7482 O   0  0  0  0  0  0  0  0  0  0  0  0
  -26.0102  -31.4161   22.7078 O   0  0  0  0  0  0  0  0  0  0  0  0
  -21.8881  -31.5842   22.4402 O   0  0  0  0  0  0  0  0  0  0  0  0
  -21.7002  -26.8426   22.3855 O   0  0  0  0  0  0  0  0  0  0  0  0
  -25.0122  -19.0711   21.7447 O   0  0  0  0  0  0  0  0  0  0  0  0
  -21.3579   -7.3606   21.3346 O   0  0  0  0  0  0  0  0  0  0  0  0
  -28.0503  -26.3037   19.9900 O   0  0  0  0  0  0  0  0  0  1  0  0
  -22.8039   -2.3395   23.0958 F   0  0  0  0  0  0  0  0  0  0  0  0
  -20.1482   -6.2314   23.5491 F   0  0  0  0  0  0  0  0  0  0  0  0
  1  2  1  0  0  0  0
  1  5  2  0  0  0  0
  2  6  2  0  0  0  0
  3  8  2  0  0  0  0
  3 16  1  0  0  0  0
  4  9  1  0  0  0  0
  4 16  2  0  0  0  0
  5 18  1  0  0  0  0
  6 20  1  0  0  0  0
  7 10  2  0  0  0  0
  7 19  1  0  0  0  0
  8 24  1  0  0  0  0
  9 24  2  0  0  0  0
 10 25  1  0  0  0  0
 11 12  2  0  0  0  0
 11 26  1  0  0  0  0
 12 27  1  0  0  0  0
 13 21  1  0  0  0  0
 13 25  2  0  0  0  0
 14 27  2  0  0  0  0
 14 28  1  0  0  0  0
 15 22  2  0  0  0  0
 15 70  1  0  0  0  0
 16 29  1  0  0  0  0
 17 29  1  0  0  0  0
 17 31  2  0  0  0  0
 17 32  1  0  0  0  0
 18 20  2  0  0  0  0
 18 37  1  0  0  0  0
 19 21  2  0  0  0  0
 19 38  1  0  0  0  0
 20 46  1  0  0  0  0
 21 39  1  0  0  0  0
 22 23  1  0  0  0  0
 22 57  1  0  0  0  0
 23 30  2  0  0  0  0
 23 58  1  0  0  0  0
 24 85  1  0  0  0  0
 25 86  1  0  0  0  0
 26 28  2  0  0  0  0
 26 85  1  0  0  0  0
 27 87  1  0  0  0  0
 28 88  1  0  0  0  0
 29 69  2  0  0  0  0
 30 49  1  0  0  0  0
 30 70  1  0  0  0  0
 31 71  1  0  0  0  0
 31 74  1  0  0  0  0
 32 75  1  0  0  0  0
 32 80  2  0  0  0  0
 33 47  1  0  0  0  0
 33 76  1  0  0  0  0
 33 81  2  0  0  0  0
 34 65  1  0  0  0  0
 34 72  1  0  0  0  0
 34 82  2  0  0  0  0
 35 66  1  0  0  0  0
 35 77  1  0  0  0  0
 35 83  2  0  0  0  0
 36 73  1  0  0  0  0
 36 78  1  0  0  0  0
 36 84  2  0  0  0  0
 37 40  1  0  0  0  0
 38 47  1  0  0  0  0
 39 72  1  0  0  0  0
 40 42  1  0  0  0  0
 41 43  1  0  0  0  0
 41 44  1  0  0  0  0
 42 46  1  0  0  0  0
 43 48  1  0  0  0  0
 44 73  1  0  0  0  0
 45 48  1  0  0  0  0
 45 73  1  0  0  0  0
 46 76  1  0  0  0  0
 47 72  1  0  0  0  0
 48 71  1  0  0  0  0
 50 59  1  0  0  0  0
 51 66  1  0  0  0  0
 52 67  1  0  0  0  0
 53 68  1  0  0  0  0
 54 68  1  0  0  0  0
 55 68  1  0  0  0  0
 56 79  1  0  0  0  0
 57 67  1  0  0  0  0
 58 59  1  0  0  0  0
 60 61  1  0  0  0  0
 60 62  1  0  0  0  0
 61 64  1  0  0  0  0
 62 70  1  0  0  0  0
 63 67  1  0  0  0  0
 63 78  1  0  0  0  0
 64 86  1  0  0  0  0
 65 68  1  0  0  0  0
 65 77  1  0  0  0  0
 66 79  1  0  0  0  0
 69 71  1  0  0  0  0
M  CHG  1  79   1
M  ISO  4  36 100  64 101  78 100  86 101
M  END
> <Batch ID>
0089

> <Smiles>
CCCc1c(CC(C)C[100NH:0][100C:0](=O)N2CCCC(n3nc(-c4ccc(Oc5ccc(F)cc5F)cc4)c(C(N)=O)c3N)C2)cn(CCC[101CH2:1][101O:1]c2ccc3c(c2)CN(C(=O)C(NC(=O)C(C)NC)C(C)(C)C)C(C(=O)NC2CCCc4ccccc42)C3)c1C

> <Shape>
0.262

> <Color>
0.099

> <Negative vol penalty>
0.000

$$$$

  -OEChem-04052319063D

 86 94  0     1  0  0  0  0  0999 V2000
  -29.4856  -16.6393   18.6252 C   0  0  0  0  0  0  0  0  0  0  0  0
  -28.5625  -17.6082   18.2481 C   0  0  0  0  0  0  0  0  0  0  0  0
  -25.1909  -14.8628   19.7485 C   0  0  0  0  0  0  0  0  0  0  0  0
  -23.0446  -14.6610   20.8393 C   0  0  0  0  0  0  0  0  0  0  0  0
  -30.3412  -16.8776   19.6987 C   0  0  0  0  0  0  0  0  0  0  0  0
  -28.5028  -18.8203   18.9367 C   0  0  0  0  0  0  0  0  0  0  0  0
  -24.6849  -23.5314   18.3395 C   0  0  0  0  0  0  0  0  0  0  0  0
  -25.1211  -13.5241   19.3633 C   0  0  0  0  0  0  0  0  0  0  0  0
  -22.9747  -13.3222   20.4540 C   0  0  0  0  0  0  0  0  0  0  0  0
  -23.4751  -23.9518   18.8904 C   0  0  0  0  0  0  0  0  0  0  0  0
  -22.3957   -9.7550   20.0671 C   0  0  0  0  0  0  0  0  0  0  0  0
  -21.9841   -8.8260   21.0227 C   0  0  0  0  0  0  0  0  0  0  0  0
  -24.6764  -25.3547   20.4423 C   0  0  0  0  0  0  0  0  0  0  0  0
  -20.5024  -27.8132   21.9886 C   0  0  0  0  0  0  0  0  0  0  0  0
  -23.8558   -9.4371   22.4229 C   0  0  0  0  0  0  0  0  0  0  0  0
  -24.1527  -15.4313   20.4866 C   0  0  0  0  0  0  0  0  0  0  0  0
  -23.7551  -17.9310   20.1685 C   0  0  0  0  0  0  0  0  0  0  0  0
  -30.2828  -18.0885   20.4081 C   0  0  0  0  0  0  0  0  0  0  0  0
  -25.9019  -24.0119   18.8439 C   0  0  0  0  0  0  0  0  0  0  0  0
  -29.3741  -19.0892   20.0077 C   0  0  0  0  0  0  0  0  0  0  0  0
  -25.9001  -24.9407   19.8943 C   0  0  0  0  0  0  0  0  0  0  0  0
  -20.9703  -26.5117   22.0345 C   0  0  0  0  0  0  0  0  0  0  0  0
  -24.0130  -12.7538   19.7160 C   0  0  0  0  0  0  0  0  0  0  0  0
  -23.4708  -24.8614   19.9439 C   0  0  0  0  0  0  0  0  0  0  0  0
  -23.5374  -10.5250   20.2894 C   0  0  0  0  0  0  0  0  0  0  0  0
  -22.7142   -8.6670   22.2006 C   0  0  0  0  0  0  0  0  0  0  0  0
  -24.2675  -10.3660   21.4673 C   0  0  0  0  0  0  0  0  0  0  0  0
  -24.2246  -16.8140   20.8853 C   0  0  0  0  0  0  0  0  0  0  0  0
  -19.2187  -28.0543   22.4352 C   0  0  0  0  0  0  0  0  0  0  0  0
  -20.1237  -25.5376   22.5244 C   0  0  0  0  0  0  0  0  0  0  0  0
  -24.0596  -19.0051   20.9685 C   0  0  0  0  0  0  0  0  0  0  0  0
  -23.1019  -17.9921   18.8937 C   0  0  0  0  0  0  0  0  0  0  0  0
  -28.4353  -22.6852   20.2315 C   0  0  0  0  0  0  0  0  0  0  0  0
  -29.6509  -25.6828   19.9887 C   0  0  0  0  0  0  0  0  0  0  0  0
  -29.0645  -29.0337   19.7156 C   0  0  0  0  0  0  0  0  0  0  0  0
  -24.2345  -21.4417   25.9863 C   0  0  0  0  0  0  0  0  0  0  0  0
  -31.2376  -18.2970   21.5570 C   0  0  0  0  0  0  0  0  0  0  0  0
  -27.1973  -23.5690   18.2209 C   0  0  0  0  0  0  0  0  0  0  0  0
  -27.1787  -25.5023   20.4585 C   0  0  0  0  0  0  0  0  0  0  0  0
  -30.8020  -19.4169   22.4964 C   0  0  0  0  0  0  0  0  0  0  0  0
  -26.9496  -19.3122   25.1086 C   0  0  0  0  0  0  0  0  0  0  0  0
  -30.4590  -20.6637   21.6949 C   0  0  0  0  0  0  0  0  0  0  0  0
  -26.4416  -18.5606   23.8769 C   0  0  0  0  0  0  0  0  0  0  0  0
  -25.8333  -19.5544   26.1221 C   0  0  0  0  0  0  0  0  0  0  0  0
  -24.1276  -19.4688   24.3453 C   0  0  0  0  0  0  0  0  0  0  0  0
  -29.2702  -20.4029   20.7612 C   0  0  1  0  0  0  0  0  0  0  0  0
  -28.3944  -23.7304   19.1528 C   0  0  1  0  0  0  0  0  0  0  0  0
  -25.2053  -19.2503   23.2695 C   0  0  2  0  0  0  0  0  0  0  0  0
  -18.4166  -31.6252   23.6643 C   0  0  0  0  0  0  0  0  0  0  0  0
  -30.2570  -31.2374   19.5768 C   0  0  0  0  0  0  0  0  0  0  0  0
  -30.2281  -25.5564   22.9821 C   0  0  0  0  0  0  0  0  0  0  0  0
  -30.5127  -28.0437   22.9616 C   0  0  0  0  0  0  0  0  0  0  0  0
  -32.0402  -26.6041   21.6137 C   0  0  0  0  0  0  0  0  0  0  0  0
  -19.8953  -23.1597   21.8512 C   0  0  0  0  0  0  0  0  0  0  0  0
  -27.9221  -29.6155   17.0482 C   0  0  0  0  0  0  0  0  0  0  0  0
  -22.3610  -26.2064   21.5610 C   0  0  0  0  0  0  0  0  0  1  0  0
  -18.6663  -29.4381   22.4064 C   0  0  0  0  0  0  0  0  0  0  0  0
  -18.9508  -30.2024   23.7089 C   0  0  0  0  0  0  0  0  0  0  0  0
  -21.3948  -23.6729   24.8315 C   0  0  0  0  0  0  0  0  0  0  0  0
  -22.5728  -23.2648   25.7141 C   0  0  0  0  0  0  0  0  0  0  0  0
  -21.7584  -23.8673   23.3600 C   0  0  0  0  0  0  0  0  0  0  0  0
  -29.6455  -26.9128   20.8639 C   0  0  1  0  0  0  0  0  0  0  0  0
  -29.6484  -30.0864   18.7908 C   0  0  2  0  0  0  0  0  0  0  0  0
  -30.5824  -26.7674   22.0962 C   0  0  0  0  0  0  0  0  0  0  0  0
  -24.7850  -17.1477   22.0509 N   0  0  0  0  0  0  0  0  0  0  0  0
  -18.4121  -27.0815   22.9096 N   0  0  0  0  0  0  0  0  0  0  0  0
  -18.8722  -25.8024   22.9551 N   0  0  0  0  0  0  0  0  0  0  0  0
  -24.6697  -18.4865   22.0726 N   0  0  0  0  0  0  0  0  0  0  0  0
  -28.4197  -25.0337   19.8199 N   0  0  0  0  0  0  0  0  0  0  0  0
  -24.6914  -20.2125   25.4828 N   0  0  0  0  0  0  0  0  0  0  0  0
  -23.8626  -20.3332   20.8281 N   0  0  0  0  0  0  0  0  0  0  0  0
  -22.8658  -16.7940   18.2058 N   0  0  0  0  0  0  0  0  0  0  0  0
  -29.1100  -21.5336   19.8738 N   0  0  0  0  0  0  0  0  0  0  0  0
  -29.9746  -28.0355   19.9923 N   0  0  0  0  0  0  0  0  0  0  0  0
  -23.1518  -22.0003   25.3182 N   0  0  0  0  0  0  0  0  0  0  0  0
  -20.5849  -24.2014   22.5816 N   0  0  3  0  0  0  0  0  0  0  0  0
  -28.5897  -30.6355   17.8972 N   0  3  0  0  0  0  0  0  0  0  0  0
  -22.7531  -19.0783   18.3722 O   0  0  0  0  0  0  0  0  0  0  0  0
  -27.8959  -22.9077   21.3091 O   0  0  0  0  0  0  0  0  0  0  0  0
  -30.7072  -25.3158   19.4680 O   0  0  0  0  0  0  0  0  0  0  0  0
  -27.9171  -29.0931   20.1521 O   0  0  0  0  0  0  0  0  0  0  0  0
  -24.7565  -22.0025   26.9558 O   0  0  0  0  0  0  0  0  0  0  0  0
  -23.9443  -11.4474   19.3401 O   0  0  0  0  0  0  0  0  0  0  0  0
  -22.2915  -25.2729   20.4839 O   0  0  0  0  0  0  0  0  0  1  0  0
  -22.3179   -7.7760   23.1189 F   0  0  0  0  0  0  0  0  0  0  0  0
  -25.3644  -11.1037   21.6869 F   0  0  0  0  0  0  0  0  0  0  0  0
  1  2  1  0  0  0  0
  1  5  2  0  0  0  0
  2  6  2  0  0  0  0
  3  8  2  0  0  0  0
  3 16  1  0  0  0  0
  4  9  1  0  0  0  0
  4 16  2  0  0  0  0
  5 18  1  0  0  0  0
  6 20  1  0  0  0  0
  7 10  2  0  0  0  0
  7 19  1  0  0  0  0
  8 23  1  0  0  0  0
  9 23  2  0  0  0  0
 10 24  1  0  0  0  0
 11 12  2  0  0  0  0
 11 25  1  0  0  0  0
 12 26  1  0  0  0  0
 13 21  1  0  0  0  0
 13 24  2  0  0  0  0
 14 22  2  0  0  0  0
 14 29  1  0  0  0  0
 15 26  2  0  0  0  0
 15 27  1  0  0  0  0
 16 28  1  0  0  0  0
 17 28  1  0  0  0  0
 17 31  2  0  0  0  0
 17 32  1  0  0  0  0
 18 20  2  0  0  0  0
 18 37  1  0  0  0  0
 19 21  2  0  0  0  0
 19 38  1  0  0  0  0
 20 46  1  0  0  0  0
 21 39  1  0  0  0  0
 22 30  1  0  0  0  0
 22 56  1  0  0  0  0
 23 83  1  0  0  0  0
 24 84  1  0  0  0  0
 25 27  2  0  0  0  0
 25 83  1  0  0  0  0
 26 85  1  0  0  0  0
 27 86  1  0  0  0  0
 28 65  2  0  0  0  0
 29 57  1  0  0  0  0
 29 66  2  0  0  0  0
 30 67  2  0  0  0  0
 30 76  1  0  0  0  0
 31 68  1  0  0  0  0
 31 71  1  0  0  0  0
 32 72  1  0  0  0  0
 32 78  2  0  0  0  0
 33 47  1  0  0  0  0
 33 73  1  0  0  0  0
 33 79  2  0  0  0  0
 34 62  1  0  0  0  0
 34 69  1  0  0  0  0
 34 80  2  0  0  0  0
 35 63  1  0  0  0  0
 35 74  1  0  0  0  0
 35 81  2  0  0  0  0
 36 70  1  0  0  0  0
 36 75  1  0  0  0  0
 36 82  2  0  0  0  0
 37 40  1  0  0  0  0
 38 47  1  0  0  0  0
 39 69  1  0  0  0  0
 40 42  1  0  0  0  0
 41 43  1  0  0  0  0
 41 44  1  0  0  0  0
 42 46  1  0  0  0  0
 43 48  1  0  0  0  0
 44 70  1  0  0  0  0
 45 48  1  0  0  0  0
 45 70  1  0  0  0  0
 46 73  1  0  0  0  0
 47 69  1  0  0  0  0
 48 68  1  0  0  0  0
 49 58  1  0  0  0  0
 50 63  1  0  0  0  0
 51 64  1  0  0  0  0
 52 64  1  0  0  0  0
 53 64  1  0  0  0  0
 54 76  1  0  0  0  0
 55 77  1  0  0  0  0
 56 84  1  0  0  0  0
 57 58  1  0  0  0  0
 59 60  1  0  0  0  0
 59 61  1  0  0  0  0
 60 75  1  0  0  0  0
 61 76  1  0  0  0  0
 62 64  1  0  0  0  0
 62 74  1  0  0  0  0
 63 77  1  0  0  0  0
 65 68  1  0  0  0  0
 66 67  1  0  0  0  0
M  CHG  1  77   1
M  ISO  4  36 100  56 101  75 100  84 101
M  END
> <Batch ID>
0089

> <Smiles>
CCCc1cc([101CH2:1][101O:1]c2ccc3c(c2)CN(C(=O)C(NC(=O)C(C)NC)C(C)(C)C)C(C(=O)NC2CCCc4ccccc42)C3)c(N(C)CCC[100NH:0][100C:0](=O)N2CCCC(n3nc(-c4ccc(Oc5ccc(F)cc5F)cc4)c(C(N)=O)c3N)C2)nn1

> <Shape>
0.218

> <Color>
0.043

> <Negative vol penalty>
0.000

$$$$

  -OEChem-04052319063D

 88 96  0     1  0  0  0  0  0999 V2000
  -29.8733   -7.9741   16.0770 C   0  0  0  0  0  0  0  0  0  0  0  0
  -30.1853   -9.2405   16.5611 C   0  0  0  0  0  0  0  0  0  0  0  0
  -24.0056  -29.6408   20.0198 C   0  0  0  0  0  0  0  0  0  0  0  0
  -24.2821  -27.7085   21.4435 C   0  0  0  0  0  0  0  0  0  0  0  0
  -28.5518   -7.6523   15.7702 C   0  0  0  0  0  0  0  0  0  0  0  0
  -29.1760  -10.1863   16.7376 C   0  0  0  0  0  0  0  0  0  0  0  0
  -28.8505  -14.4477   21.1239 C   0  0  0  0  0  0  0  0  0  0  0  0
  -22.6556  -29.3290   19.8588 C   0  0  0  0  0  0  0  0  0  0  0  0
  -22.9321  -27.3968   21.2826 C   0  0  0  0  0  0  0  0  0  0  0  0
  -29.1748  -15.8036   21.1404 C   0  0  0  0  0  0  0  0  0  0  0  0
  -19.9698  -28.4459   22.5255 C   0  0  0  0  0  0  0  0  0  0  0  0
  -19.2481  -28.0902   23.6648 C   0  0  0  0  0  0  0  0  0  0  0  0
  -26.8702  -16.3541   20.6874 C   0  0  0  0  0  0  0  0  0  0  0  0
  -29.9022  -21.5543   20.7113 C   0  0  0  0  0  0  0  0  0  0  0  0
  -18.7548  -25.9395   22.6810 C   0  0  0  0  0  0  0  0  0  0  0  0
  -24.8189  -28.8305   20.8121 C   0  0  0  0  0  0  0  0  0  0  0  0
  -26.7856  -29.9666   21.9735 C   0  0  0  0  0  0  0  0  0  0  0  0
  -27.5245   -8.5915   15.9522 C   0  0  0  0  0  0  0  0  0  0  0  0
  -27.5334  -14.0338   20.8779 C   0  0  0  0  0  0  0  0  0  0  0  0
  -27.8397   -9.8773   16.4317 C   0  0  0  0  0  0  0  0  0  0  0  0
  -26.5313  -14.9925   20.6709 C   0  0  0  0  0  0  0  0  0  0  0  0
  -28.5655  -21.2152   20.8255 C   0  0  0  0  0  0  0  0  0  0  0  0
  -22.1188  -28.2071   20.4902 C   0  0  0  0  0  0  0  0  0  0  0  0
  -28.1852  -16.7569   20.9192 C   0  0  0  0  0  0  0  0  0  0  0  0
  -20.0840  -27.5484   21.4638 C   0  0  0  0  0  0  0  0  0  0  0  0
  -18.6406  -26.8370   23.7426 C   0  0  0  0  0  0  0  0  0  0  0  0
  -19.4765  -26.2952   21.5416 C   0  0  0  0  0  0  0  0  0  0  0  0
  -26.2136  -29.1516   20.9783 C   0  0  0  0  0  0  0  0  0  0  0  0
  -30.2684  -22.4014   19.6848 C   0  0  0  0  0  0  0  0  0  0  0  0
  -27.6834  -21.7459   19.9058 C   0  0  0  0  0  0  0  0  0  0  0  0
  -28.1308  -29.9539   21.6965 C   0  0  0  0  0  0  0  0  0  0  0  0
  -26.1571  -30.6718   23.0521 C   0  0  0  0  0  0  0  0  0  0  0  0
  -26.1121  -12.2931   18.6299 C   0  0  0  0  0  0  0  0  0  0  0  0
  -23.5214  -12.6358   20.5515 C   0  0  0  0  0  0  0  0  0  0  0  0
  -21.9265  -14.4393   22.9703 C   0  0  0  0  0  0  0  0  0  0  0  0
  -31.6715  -26.0518   18.8525 C   0  0  0  0  0  0  0  0  0  0  0  0
  -26.1176   -8.2133   15.5619 C   0  0  0  0  0  0  0  0  0  0  0  0
  -27.1948  -12.5684   20.8900 C   0  0  0  0  0  0  0  0  0  0  0  0
  -25.0984  -14.6009   20.4223 C   0  0  0  0  0  0  0  0  0  0  0  0
  -25.0549   -9.1494   16.1317 C   0  0  0  0  0  0  0  0  0  0  0  0
  -31.1998  -29.4897   18.0555 C   0  0  0  0  0  0  0  0  0  0  0  0
  -25.4606  -10.6054   15.9263 C   0  0  0  0  0  0  0  0  0  0  0  0
  -29.9200  -29.8664   18.8040 C   0  0  0  0  0  0  0  0  0  0  0  0
  -31.1363  -28.0644   17.5110 C   0  0  0  0  0  0  0  0  0  0  0  0
  -29.5299  -27.4093   19.2615 C   0  0  0  0  0  0  0  0  0  0  0  0
  -26.7693  -10.9223   16.6601 C   0  0  1  0  0  0  0  0  0  0  0  0
  -25.9190  -12.2435   20.1191 C   0  0  1  0  0  0  0  0  0  0  0  0
  -29.5690  -28.8185   19.8773 C   0  0  2  0  0  0  0  0  0  0  0  0
  -19.8062  -14.4931   24.3115 C   0  0  0  0  0  0  0  0  0  0  0  0
  -23.0836  -23.7312   20.2952 C   0  0  0  0  0  0  0  0  0  0  0  0
  -23.3621  -21.6724   18.9010 C   0  0  0  0  0  0  0  0  0  0  0  0
  -27.0647  -20.9127   22.9077 C   0  0  0  0  0  0  0  0  0  0  0  0
  -29.3231  -19.8787   22.8154 C   0  0  0  0  0  0  0  0  0  0  0  0
  -22.0116  -13.6886   18.1180 C   0  0  0  0  0  0  0  0  0  0  0  0
  -20.2732  -14.5945   19.6754 C   0  0  0  0  0  0  0  0  0  0  0  0
  -20.6944  -12.1379   19.5723 C   0  0  0  0  0  0  0  0  0  0  0  0
  -23.3982  -14.1721   25.5240 C   0  0  0  0  0  0  0  0  0  0  0  0
  -31.6955  -22.7971   19.5175 C   0  0  0  0  0  0  0  0  0  0  0  0
  -26.2282  -21.4244   19.9659 C   0  0  0  0  0  0  0  0  0  0  0  0
  -25.3631  -22.6900   20.1131 C   0  0  0  0  0  0  0  0  0  0  0  0
  -32.0759  -24.0679   20.2876 C   0  0  0  0  0  0  0  0  0  0  0  0
  -27.4793  -18.9856   21.3559 C   0  0  0  0  0  0  0  0  0  1  0  0
  -22.4036  -13.6436   20.6695 C   0  0  1  0  0  0  0  0  0  0  0  0
  -21.2491  -14.0154   24.2610 C   0  0  2  0  0  0  0  0  0  0  0  0
  -23.8484  -22.4135   20.1472 C   0  0  0  0  0  0  0  0  0  0  0  0
  -28.1021  -20.2739   21.9531 C   0  0  0  0  0  0  0  0  0  0  0  0
  -21.3730  -13.5238   19.5115 C   0  0  0  0  0  0  0  0  0  0  0  0
  -27.1212  -28.6574   20.1320 N   0  0  0  0  0  0  0  0  0  0  0  0
  -29.3836  -22.9059   18.7989 N   0  0  0  0  0  0  0  0  0  0  0  0
  -28.0698  -22.5729   18.9115 N   0  0  0  0  0  0  0  0  0  0  0  0
  -28.2771  -29.1632   20.5948 N   0  0  0  0  0  0  0  0  0  0  0  0
  -24.8185  -13.1556   20.4376 N   0  0  0  0  0  0  0  0  0  0  0  0
  -30.8009  -27.1197   18.5792 N   0  0  0  0  0  0  0  0  0  0  0  0
  -29.1910  -30.5421   22.2902 N   0  0  0  0  0  0  0  0  0  0  0  0
  -24.7658  -30.5766   23.1918 N   0  0  0  0  0  0  0  0  0  0  0  0
  -26.5254  -11.0965   18.0760 N   0  0  0  0  0  0  0  0  0  0  0  0
  -21.8314  -13.4647   21.9996 N   0  0  0  0  0  0  0  0  0  0  0  0
  -31.2818  -25.2070   19.8846 N   0  0  0  0  0  0  0  0  0  0  0  0
  -21.9725  -14.5799   25.4353 N   0  3  0  0  0  0  0  0  0  0  0  0
  -26.8081  -31.3792   23.8580 O   0  0  0  0  0  0  0  0  0  0  0  0
  -25.9004  -13.3392   18.0277 O   0  0  0  0  0  0  0  0  0  0  0  0
  -23.2541  -11.4316   20.5673 O   0  0  0  0  0  0  0  0  0  0  0  0
  -22.4810  -15.5278   22.8354 O   0  0  0  0  0  0  0  0  0  0  0  0
  -32.7212  -25.8681   18.2269 O   0  0  0  0  0  0  0  0  0  0  0  0
  -20.8015  -27.9027   20.3336 O   0  0  0  0  0  0  0  0  0  0  0  0
  -28.4991  -18.0810   20.9341 O   0  0  0  0  0  0  0  0  0  1  0  0
  -17.9489  -26.4950   24.8375 F   0  0  0  0  0  0  0  0  0  0  0  0
  -19.5836  -25.4283   20.5253 F   0  0  0  0  0  0  0  0  0  0  0  0
  1  2  1  0  0  0  0
  1  5  2  0  0  0  0
  2  6  2  0  0  0  0
  3  8  2  0  0  0  0
  3 16  1  0  0  0  0
  4  9  1  0  0  0  0
  4 16  2  0  0  0  0
  5 18  1  0  0  0  0
  6 20  1  0  0  0  0
  7 10  2  0  0  0  0
  7 19  1  0  0  0  0
  8 23  1  0  0  0  0
  9 23  2  0  0  0  0
 10 24  1  0  0  0  0
 11 12  2  0  0  0  0
 11 25  1  0  0  0  0
 12 26  1  0  0  0  0
 13 21  1  0  0  0  0
 13 24  2  0  0  0  0
 14 22  1  0  0  0  0
 14 29  2  0  0  0  0
 15 26  2  0  0  0  0
 15 27  1  0  0  0  0
 16 28  1  0  0  0  0
 17 28  1  0  0  0  0
 17 31  2  0  0  0  0
 17 32  1  0  0  0  0
 18 20  2  0  0  0  0
 18 37  1  0  0  0  0
 19 21  2  0  0  0  0
 19 38  1  0  0  0  0
 20 46  1  0  0  0  0
 21 39  1  0  0  0  0
 22 30  2  0  0  0  0
 22 66  1  0  0  0  0
 23 85  1  0  0  0  0
 24 86  1  0  0  0  0
 25 27  2  0  0  0  0
 25 85  1  0  0  0  0
 26 87  1  0  0  0  0
 27 88  1  0  0  0  0
 28 68  2  0  0  0  0
 29 58  1  0  0  0  0
 29 69  1  0  0  0  0
 30 59  1  0  0  0  0
 30 70  1  0  0  0  0
 31 71  1  0  0  0  0
 31 74  1  0  0  0  0
 32 75  1  0  0  0  0
 32 80  2  0  0  0  0
 33 47  1  0  0  0  0
 33 76  1  0  0  0  0
 33 81  2  0  0  0  0
 34 63  1  0  0  0  0
 34 72  1  0  0  0  0
 34 82  2  0  0  0  0
 35 64  1  0  0  0  0
 35 77  1  0  0  0  0
 35 83  2  0  0  0  0
 36 73  1  0  0  0  0
 36 78  1  0  0  0  0
 36 84  2  0  0  0  0
 37 40  1  0  0  0  0
 38 47  1  0  0  0  0
 39 72  1  0  0  0  0
 40 42  1  0  0  0  0
 41 43  1  0  0  0  0
 41 44  1  0  0  0  0
 42 46  1  0  0  0  0
 43 48  1  0  0  0  0
 44 73  1  0  0  0  0
 45 48  1  0  0  0  0
 45 73  1  0  0  0  0
 46 76  1  0  0  0  0
 47 72  1  0  0  0  0
 48 71  1  0  0  0  0
 49 64  1  0  0  0  0
 50 65  1  0  0  0  0
 51 65  1  0  0  0  0
 52 66  1  0  0  0  0
 53 66  1  0  0  0  0
 54 67  1  0  0  0  0
 55 67  1  0  0  0  0
 56 67  1  0  0  0  0
 57 79  1  0  0  0  0
 58 61  1  0  0  0  0
 59 60  1  0  0  0  0
 60 65  1  0  0  0  0
 61 78  1  0  0  0  0
 62 66  1  0  0  0  0
 62 86  1  0  0  0  0
 63 67  1  0  0  0  0
 63 77  1  0  0  0  0
 64 79  1  0  0  0  0
 68 71  1  0  0  0  0
 69 70  2  0  0  0  0
M  CHG  1  79   1
M  ISO  4  36 100  62 101  78 100  86 101
M  END
> <Batch ID>
0089

> <Smiles>
CNC(C)C(=O)NC(C(=O)N1Cc2cc([101O:1][101CH2:1]C(C)(C)c3cc(CC[100NH:0][100C:0](=O)N4CCCC(n5nc(-c6ccc(Oc7ccc(F)cc7F)cc6)c(C(N)=O)c5N)C4)nnc3CCC(C)C)ccc2CC1C(=O)NC1CCCc2ccccc21)C(C)(C)C

> <Shape>
0.254

> <Color>
0.052

> <Negative vol penalty>
0.000

$$$$

  -OEChem-04052319063D

 89 97  0     1  0  0  0  0  0999 V2000
  -27.6149  -36.1844   21.8532 C   0  0  0  0  0  0  0  0  0  0  0  0
  -27.9645  -34.8391   21.7944 C   0  0  0  0  0  0  0  0  0  0  0  0
  -24.5402  -12.2314   21.4790 C   0  0  0  0  0  0  0  0  0  0  0  0
  -24.3233  -12.4581   19.0834 C   0  0  0  0  0  0  0  0  0  0  0  0
  -26.4288  -36.5685   22.4774 C   0  0  0  0  0  0  0  0  0  0  0  0
  -27.1287  -33.8773   22.3607 C   0  0  0  0  0  0  0  0  0  0  0  0
  -26.4739  -29.8577   19.3509 C   0  0  0  0  0  0  0  0  0  0  0  0
  -23.6031  -11.1984   21.4661 C   0  0  0  0  0  0  0  0  0  0  0  0
  -23.3862  -11.4249   19.0705 C   0  0  0  0  0  0  0  0  0  0  0  0
  -27.5066  -28.9223   19.3041 C   0  0  0  0  0  0  0  0  0  0  0  0
  -23.5379   -7.9037   20.7085 C   0  0  0  0  0  0  0  0  0  0  0  0
  -23.8239   -6.7598   21.4536 C   0  0  0  0  0  0  0  0  0  0  0  0
  -26.2890  -27.5103   20.8348 C   0  0  0  0  0  0  0  0  0  0  0  0
  -29.0513  -22.4723   15.2541 C   0  0  0  0  0  0  0  0  0  0  0  0
  -21.8236   -7.1120   22.7621 C   0  0  0  0  0  0  0  0  0  0  0  0
  -24.9003  -12.8613   20.2876 C   0  0  0  0  0  0  0  0  0  0  0  0
  -27.2640  -13.8126   20.1627 C   0  0  0  0  0  0  0  0  0  0  0  0
  -25.5733  -35.6101   23.0432 C   0  0  0  0  0  0  0  0  0  0  0  0
  -25.3439  -29.6310   20.1498 C   0  0  0  0  0  0  0  0  0  0  0  0
  -25.9307  -34.2491   22.9942 C   0  0  0  0  0  0  0  0  0  0  0  0
  -25.2421  -28.4432   20.8879 C   0  0  0  0  0  0  0  0  0  0  0  0
  -30.4409  -22.7445   15.2981 C   0  0  0  0  0  0  0  0  0  0  0  0
  -23.0261  -10.7951   20.2619 C   0  0  0  0  0  0  0  0  0  0  0  0
  -27.4156  -27.7497   20.0483 C   0  0  0  0  0  0  0  0  0  0  0  0
  -22.3948   -8.6519   20.9902 C   0  0  0  0  0  0  0  0  0  0  0  0
  -22.9667   -6.3639   22.4804 C   0  0  0  0  0  0  0  0  0  0  0  0
  -21.5376   -8.2560   22.0169 C   0  0  0  0  0  0  0  0  0  0  0  0
  -25.8678  -13.9289   20.3003 C   0  0  0  0  0  0  0  0  0  0  0  0
  -28.6362  -22.2415   16.5470 C   0  0  0  0  0  0  0  0  0  0  0  0
  -30.8327  -22.6716   16.6166 C   0  0  0  0  0  0  0  0  0  0  0  0
  -27.7257  -15.1037   20.2421 C   0  0  0  0  0  0  0  0  0  0  0  0
  -28.0714  -12.6420   19.9793 C   0  0  0  0  0  0  0  0  0  0  0  0
  -24.0237  -31.1044   22.6377 C   0  0  0  0  0  0  0  0  0  0  0  0
  -21.6793  -28.9057   22.1997 C   0  0  0  0  0  0  0  0  0  0  0  0
  -20.7626  -25.8505   20.9863 C   0  0  0  0  0  0  0  0  0  0  0  0
  -25.2020  -20.4135   19.1070 C   0  0  0  0  0  0  0  0  0  0  0  0
  -24.3251  -36.0775   23.7488 C   0  0  0  0  0  0  0  0  0  0  0  0
  -24.2264  -30.6376   20.1685 C   0  0  0  0  0  0  0  0  0  0  0  0
  -24.0409  -28.1430   21.7455 C   0  0  0  0  0  0  0  0  0  0  0  0
  -23.3110  -34.9634   23.9949 C   0  0  0  0  0  0  0  0  0  0  0  0
  -26.6609  -19.3487   22.1753 C   0  0  0  0  0  0  0  0  0  0  0  0
  -24.0027  -33.7275   24.5615 C   0  0  0  0  0  0  0  0  0  0  0  0
  -26.7490  -17.8284   22.0303 C   0  0  0  0  0  0  0  0  0  0  0  0
  -25.3970  -19.9054   21.5237 C   0  0  0  0  0  0  0  0  0  0  0  0
  -25.2920  -17.9958   19.9693 C   0  0  0  0  0  0  0  0  0  0  0  0
  -25.0381  -33.1740   23.5751 C   0  0  1  0  0  0  0  0  0  0  0  0
  -23.3547  -30.5395   21.4166 C   0  0  1  0  0  0  0  0  0  0  0  0
  -26.5777  -17.3944   20.5621 C   0  0  2  0  0  0  0  0  0  0  0  0
  -32.1652  -22.8676   17.2266 C   0  0  0  0  0  0  0  0  0  0  0  0
  -18.7877  -24.3123   20.8110 C   0  0  0  0  0  0  0  0  0  0  0  0
  -32.8872  -24.6639   12.9670 C   0  0  0  0  0  0  0  0  0  0  0  0
  -30.9489  -25.5786   14.2541 C   0  0  0  0  0  0  0  0  0  0  0  0
  -22.0041  -28.1575   25.1399 C   0  0  0  0  0  0  0  0  0  0  0  0
  -20.7403  -26.0478   24.6706 C   0  0  0  0  0  0  0  0  0  0  0  0
  -19.6351  -28.2604   24.3452 C   0  0  0  0  0  0  0  0  0  0  0  0
  -20.8332  -25.9085   18.0282 C   0  0  0  0  0  0  0  0  0  0  0  0
  -27.2919  -21.9147   17.0655 C   0  0  0  0  0  0  0  0  0  0  0  0
  -26.3891  -21.1272   16.0862 C   0  0  0  0  0  0  0  0  0  0  0  0
  -28.7183  -23.1061   19.5859 C   0  0  0  0  0  0  0  0  0  0  0  0
  -29.0543  -24.5908   19.4368 C   0  0  0  0  0  0  0  0  0  0  0  0
  -29.7136  -22.1903   18.8645 C   0  0  0  0  0  0  0  0  0  0  0  0
  -25.0202  -20.7622   16.6566 C   0  0  0  0  0  0  0  0  0  0  0  0
  -28.0657  -25.4667   20.1946 C   0  0  0  0  0  0  0  0  0  1  0  0
  -31.3032  -23.0499   14.1391 C   0  0  2  0  0  0  0  0  0  0  0  0
  -21.4128  -27.5106   22.7113 C   0  0  1  0  0  0  0  0  0  0  0  0
  -19.5832  -25.4176   20.1342 C   0  0  2  0  0  0  0  0  0  0  0  0
  -31.9825  -24.4505   14.1842 C   0  0  0  0  0  0  0  0  0  0  0  0
  -20.9717  -27.5003   24.2022 C   0  0  0  0  0  0  0  0  0  0  0  0
  -25.4687  -15.1941   20.4556 N   0  0  0  0  0  0  0  0  0  0  0  0
  -29.7276  -22.3650   17.3667 N   0  0  0  0  0  0  0  0  0  0  0  0
  -26.6210  -15.8845   20.4161 N   0  0  0  0  0  0  0  0  0  0  0  0
  -22.9775  -29.1610   21.7356 N   0  0  0  0  0  0  0  0  0  0  0  0
  -25.2952  -19.4581   20.1325 N   0  0  0  0  0  0  0  0  0  0  0  0
  -28.9647  -15.6359   20.1796 N   0  0  0  0  0  0  0  0  0  0  0  0
  -27.4356  -11.3944   19.9196 N   0  0  0  0  0  0  0  0  0  0  0  0
  -24.3836  -32.4332   22.5181 N   0  0  0  0  0  0  0  0  0  0  0  0
  -20.4422  -26.9189   21.7969 N   0  0  0  0  0  0  0  0  0  0  0  0
  -25.1154  -19.9047   17.8169 N   0  0  0  0  0  0  0  0  0  0  0  0
  -20.0554  -24.9154   18.8130 N   0  3  0  0  0  0  0  0  0  0  0  0
  -29.3212  -12.6992   19.8880 O   0  0  0  0  0  0  0  0  0  0  0  0
  -24.1989  -30.3882   23.6165 O   0  0  0  0  0  0  0  0  0  0  0  0
  -20.7672  -29.7362   22.2048 O   0  0  0  0  0  0  0  0  0  0  0  0
  -21.8575  -25.2940   20.9404 O   0  0  0  0  0  0  0  0  0  0  0  0
  -25.2016  -21.6298   19.3246 O   0  0  0  0  0  0  0  0  0  0  0  0
  -22.1118   -9.7869   20.2490 O   0  0  0  0  0  0  0  0  0  0  0  0
  -28.4226  -26.8353   20.0050 O   0  0  0  0  0  0  0  0  0  1  0  0
  -23.2407   -5.2645   23.1949 F   0  0  0  0  0  0  0  0  0  0  0  0
  -20.4373   -8.9700   22.2914 F   0  0  0  0  0  0  0  0  0  0  0  0
  -30.6579  -22.9630   12.9210 F   0  0  0  0  0  0  0  0  0  0  0  0
  1  2  1  0  0  0  0
  1  5  2  0  0  0  0
  2  6  2  0  0  0  0
  3  8  2  0  0  0  0
  3 16  1  0  0  0  0
  4  9  1  0  0  0  0
  4 16  2  0  0  0  0
  5 18  1  0  0  0  0
  6 20  1  0  0  0  0
  7 10  2  0  0  0  0
  7 19  1  0  0  0  0
  8 23  1  0  0  0  0
  9 23  2  0  0  0  0
 10 24  1  0  0  0  0
 11 12  2  0  0  0  0
 11 25  1  0  0  0  0
 12 26  1  0  0  0  0
 13 21  1  0  0  0  0
 13 24  2  0  0  0  0
 14 22  1  0  0  0  0
 14 29  2  0  0  0  0
 15 26  2  0  0  0  0
 15 27  1  0  0  0  0
 16 28  1  0  0  0  0
 17 28  1  0  0  0  0
 17 31  2  0  0  0  0
 17 32  1  0  0  0  0
 18 20  2  0  0  0  0
 18 37  1  0  0  0  0
 19 21  2  0  0  0  0
 19 38  1  0  0  0  0
 20 46  1  0  0  0  0
 21 39  1  0  0  0  0
 22 30  2  0  0  0  0
 22 64  1  0  0  0  0
 23 85  1  0  0  0  0
 24 86  1  0  0  0  0
 25 27  2  0  0  0  0
 25 85  1  0  0  0  0
 26 87  1  0  0  0  0
 27 88  1  0  0  0  0
 28 69  2  0  0  0  0
 29 57  1  0  0  0  0
 29 70  1  0  0  0  0
 30 49  1  0  0  0  0
 30 70  1  0  0  0  0
 31 71  1  0  0  0  0
 31 74  1  0  0  0  0
 32 75  1  0  0  0  0
 32 80  2  0  0  0  0
 33 47  1  0  0  0  0
 33 76  1  0  0  0  0
 33 81  2  0  0  0  0
 34 65  1  0  0  0  0
 34 72  1  0  0  0  0
 34 82  2  0  0  0  0
 35 66  1  0  0  0  0
 35 77  1  0  0  0  0
 35 83  2  0  0  0  0
 36 73  1  0  0  0  0
 36 78  1  0  0  0  0
 36 84  2  0  0  0  0
 37 40  1  0  0  0  0
 38 47  1  0  0  0  0
 39 72  1  0  0  0  0
 40 42  1  0  0  0  0
 41 43  1  0  0  0  0
 41 44  1  0  0  0  0
 42 46  1  0  0  0  0
 43 48  1  0  0  0  0
 44 73  1  0  0  0  0
 45 48  1  0  0  0  0
 45 73  1  0  0  0  0
 46 76  1  0  0  0  0
 47 72  1  0  0  0  0
 48 71  1  0  0  0  0
 50 66  1  0  0  0  0
 51 67  1  0  0  0  0
 52 67  1  0  0  0  0
 53 68  1  0  0  0  0
 54 68  1  0  0  0  0
 55 68  1  0  0  0  0
 56 79  1  0  0  0  0
 57 58  1  0  0  0  0
 58 62  1  0  0  0  0
 59 60  1  0  0  0  0
 59 61  1  0  0  0  0
 60 63  1  0  0  0  0
 61 70  1  0  0  0  0
 62 78  1  0  0  0  0
 63 86  1  0  0  0  0
 64 67  1  0  0  0  0
 64 89  1  0  0  0  0
 65 68  1  0  0  0  0
 65 77  1  0  0  0  0
 66 79  1  0  0  0  0
 69 71  1  0  0  0  0
M  CHG  1  79   1
M  ISO  4  36 100  63 101  78 100  86 101
M  END
> <Batch ID>
0089

> <Smiles>
CNC(C)C(=O)NC(C(=O)N1Cc2cc([101O:1][101CH2:1]CCCn3c(CCC[100NH:0][100C:0](=O)N4CCCC(n5nc(-c6ccc(Oc7ccc(F)cc7F)cc6)c(C(N)=O)c5N)C4)cc(C(F)C(C)C)c3C)ccc2CC1C(=O)NC1CCCc2ccccc21)C(C)(C)C

> <Shape>
0.291

> <Color>
0.066

> <Negative vol penalty>
0.000

$$$$

  -OEChem-04052319063D

 88 96  0     1  0  0  0  0  0999 V2000
  -21.7628  -20.3037   31.0382 C   0  0  0  0  0  0  0  0  0  0  0  0
  -22.8071  -20.4667   30.1337 C   0  0  0  0  0  0  0  0  0  0  0  0
  -23.0718   -9.8731   19.9412 C   0  0  0  0  0  0  0  0  0  0  0  0
  -23.8406   -9.8731   22.2316 C   0  0  0  0  0  0  0  0  0  0  0  0
  -20.4596  -20.1328   30.5732 C   0  0  0  0  0  0  0  0  0  0  0  0
  -22.5489  -20.4579   28.7634 C   0  0  0  0  0  0  0  0  0  0  0  0
  -25.4100  -23.7402   24.4568 C   0  0  0  0  0  0  0  0  0  0  0  0
  -22.3287   -8.7194   20.1906 C   0  0  0  0  0  0  0  0  0  0  0  0
  -23.0974   -8.7194   22.4811 C   0  0  0  0  0  0  0  0  0  0  0  0
  -26.4362  -23.4275   23.5663 C   0  0  0  0  0  0  0  0  0  0  0  0
  -21.1173   -5.9785   23.8171 C   0  0  0  0  0  0  0  0  0  0  0  0
  -20.3655   -5.9316   24.9911 C   0  0  0  0  0  0  0  0  0  0  0  0
  -24.8007  -22.9503   21.8585 C   0  0  0  0  0  0  0  0  0  0  0  0
  -26.5043  -19.1931   22.2094 C   0  0  0  0  0  0  0  0  0  0  0  0
  -19.1184   -7.8712   24.2702 C   0  0  0  0  0  0  0  0  0  0  0  0
  -23.8278  -10.4500   20.9617 C   0  0  0  0  0  0  0  0  0  0  0  0
  -24.1695  -12.9755   20.8479 C   0  0  0  0  0  0  0  0  0  0  0  0
  -20.1839  -20.1315   29.1967 C   0  0  0  0  0  0  0  0  0  0  0  0
  -24.0688  -23.6496   24.0574 C   0  0  0  0  0  0  0  0  0  0  0  0
  -21.2410  -20.2855   28.2794 C   0  0  0  0  0  0  0  0  0  0  0  0
  -23.7594  -23.2648   22.7450 C   0  0  0  0  0  0  0  0  0  0  0  0
  -27.7588  -19.1565   21.6109 C   0  0  0  0  0  0  0  0  0  0  0  0
  -26.2065  -18.3099   23.2413 C   0  0  0  0  0  0  0  0  0  0  0  0
  -22.3415   -8.1425   21.4605 C   0  0  0  0  0  0  0  0  0  0  0  0
  -26.1315  -23.0296   22.2679 C   0  0  0  0  0  0  0  0  0  0  0  0
  -20.8697   -6.9719   22.8697 C   0  0  0  0  0  0  0  0  0  0  0  0
  -19.3661   -6.8778   25.2176 C   0  0  0  0  0  0  0  0  0  0  0  0
  -19.8702   -7.9182   23.0962 C   0  0  0  0  0  0  0  0  0  0  0  0
  -24.5960  -11.6416   20.7046 C   0  0  0  0  0  0  0  0  0  0  0  0
  -28.6729  -18.2255   22.0770 C   0  0  0  0  0  0  0  0  0  0  0  0
  -27.1901  -17.4167   23.6343 C   0  0  0  0  0  0  0  0  0  0  0  0
  -25.2604  -13.7259   20.4827 C   0  0  0  0  0  0  0  0  0  0  0  0
  -22.9007  -13.4902   21.2733 C   0  0  0  0  0  0  0  0  0  0  0  0
  -21.5636  -21.9270   24.9849 C   0  0  0  0  0  0  0  0  0  0  0  0
  -19.9772  -23.8170   22.8793 C   0  0  0  0  0  0  0  0  0  0  0  0
  -20.1008  -25.8103   20.1119 C   0  0  0  0  0  0  0  0  0  0  0  0
  -30.7450  -14.7436   20.6529 C   0  0  0  0  0  0  0  0  0  0  0  0
  -18.7658  -19.8962   28.7406 C   0  0  0  0  0  0  0  0  0  0  0  0
  -22.9743  -24.0162   25.0219 C   0  0  0  0  0  0  0  0  0  0  0  0
  -22.3363  -23.1713   22.2607 C   0  0  0  0  0  0  0  0  0  0  0  0
  -18.5247  -20.2738   27.2813 C   0  0  0  0  0  0  0  0  0  0  0  0
  -29.5978  -12.3664   18.2634 C   0  0  0  0  0  0  0  0  0  0  0  0
  -19.6359  -19.7190   26.3957 C   0  0  0  0  0  0  0  0  0  0  0  0
  -28.1620  -12.0716   18.7010 C   0  0  0  0  0  0  0  0  0  0  0  0
  -30.5196  -12.5835   19.4614 C   0  0  0  0  0  0  0  0  0  0  0  0
  -28.6233  -13.3107   20.8575 C   0  0  0  0  0  0  0  0  0  0  0  0
  -20.9975  -20.3064   26.7860 C   0  0  1  0  0  0  0  0  0  0  0  0
  -21.6286  -23.3933   24.6633 C   0  0  1  0  0  0  0  0  0  0  0  0
  -27.6446  -13.1398   19.6831 C   0  0  2  0  0  0  0  0  0  0  0  0
  -22.6057  -17.2097   24.0950 C   0  0  0  0  0  0  0  0  0  0  0  0
  -27.8598  -16.6601   25.9436 C   0  0  0  0  0  0  0  0  0  0  0  0
  -27.0071  -14.9831   24.2656 C   0  0  0  0  0  0  0  0  0  0  0  0
  -18.6366  -27.1849   18.6073 C   0  0  0  0  0  0  0  0  0  0  0  0
  -18.9360  -21.2669   21.5667 C   0  0  0  0  0  0  0  0  0  0  0  0
  -18.2956  -22.6380   19.5722 C   0  0  0  0  0  0  0  0  0  0  0  0
  -17.2419  -23.0934   21.7870 C   0  0  0  0  0  0  0  0  0  0  0  0
  -21.5720  -28.2957   20.7581 C   0  0  0  0  0  0  0  0  0  0  0  0
  -28.0880  -20.1116   20.4915 C   0  0  0  0  0  0  0  0  0  0  0  0
  -24.8642  -18.3437   23.8866 C   0  0  0  0  0  0  0  0  0  0  0  0
  -30.0357  -18.1393   21.4716 C   0  0  0  0  0  0  0  0  0  0  0  0
  -23.9629  -17.1939   23.4096 C   0  0  0  0  0  0  0  0  0  0  0  0
  -28.9842  -21.2760   20.9189 C   0  0  0  0  0  0  0  0  0  0  0  0
  -30.8159  -16.8904   21.8959 C   0  0  0  0  0  0  0  0  0  0  0  0
  -28.3342  -22.1912   21.9501 C   0  0  0  0  0  0  0  0  0  1  0  0
  -26.9259  -16.4460   24.7385 C   0  0  0  0  0  0  0  0  0  0  0  0
  -19.6559  -23.7412   21.4062 C   0  0  1  0  0  0  0  0  0  0  0  0
  -19.5300  -27.1900   19.8380 C   0  0  2  0  0  0  0  0  0  0  0  0
  -18.5592  -22.6847   21.0924 C   0  0  0  0  0  0  0  0  0  0  0  0
  -25.8592  -11.5468   20.2811 N   0  0  0  0  0  0  0  0  0  0  0  0
  -28.4200  -17.3515   23.0769 N   0  0  0  0  0  0  0  0  0  0  0  0
  -26.2358  -12.8307   20.1552 N   0  0  0  0  0  0  0  0  0  0  0  0
  -21.3013  -23.5339   23.2429 N   0  0  0  0  0  0  0  0  0  0  0  0
  -29.9726  -13.6094   20.3526 N   0  0  0  0  0  0  0  0  0  0  0  0
  -25.4707  -15.0575   20.4128 N   0  0  0  0  0  0  0  0  0  0  0  0
  -21.8900  -12.5802   21.6118 N   0  0  0  0  0  0  0  0  0  0  0  0
  -21.1346  -21.6512   26.2692 N   0  0  0  0  0  0  0  0  0  0  0  0
  -19.3145  -25.0979   20.9924 N   0  0  0  0  0  0  0  0  0  0  0  0
  -30.1492  -15.6700   21.5000 N   0  0  0  0  0  0  0  0  0  0  0  0
  -20.6298  -28.1709   19.6163 N   0  3  0  0  0  0  0  0  0  0  0  0
  -22.6649  -14.7207   21.3352 O   0  0  0  0  0  0  0  0  0  0  0  0
  -21.8778  -21.1066   24.1306 O   0  0  0  0  0  0  0  0  0  0  0  0
  -19.0877  -24.1235   23.6772 O   0  0  0  0  0  0  0  0  0  0  0  0
  -21.1384  -25.4037   19.5935 O   0  0  0  0  0  0  0  0  0  0  0  0
  -31.8792  -14.9203   20.1954 O   0  0  0  0  0  0  0  0  0  0  0  0
  -21.6163   -7.0167   21.7043 O   0  0  0  0  0  0  0  0  0  0  0  0
  -27.1312  -22.7232   21.3969 O   0  0  0  0  0  0  0  0  0  1  0  0
  -18.6432   -6.8317   26.3444 F   0  0  0  0  0  0  0  0  0  0  0  0
  -19.6270   -8.8741   22.1891 F   0  0  0  0  0  0  0  0  0  0  0  0
  1  2  1  0  0  0  0
  1  5  2  0  0  0  0
  2  6  2  0  0  0  0
  3  8  2  0  0  0  0
  3 16  1  0  0  0  0
  4  9  1  0  0  0  0
  4 16  2  0  0  0  0
  5 18  1  0  0  0  0
  6 20  1  0  0  0  0
  7 10  2  0  0  0  0
  7 19  1  0  0  0  0
  8 24  1  0  0  0  0
  9 24  2  0  0  0  0
 10 25  1  0  0  0  0
 11 12  2  0  0  0  0
 11 26  1  0  0  0  0
 12 27  1  0  0  0  0
 13 21  1  0  0  0  0
 13 25  2  0  0  0  0
 14 22  2  0  0  0  0
 14 23  1  0  0  0  0
 15 27  2  0  0  0  0
 15 28  1  0  0  0  0
 16 29  1  0  0  0  0
 17 29  1  0  0  0  0
 17 32  2  0  0  0  0
 17 33  1  0  0  0  0
 18 20  2  0  0  0  0
 18 38  1  0  0  0  0
 19 21  2  0  0  0  0
 19 39  1  0  0  0  0
 20 47  1  0  0  0  0
 21 40  1  0  0  0  0
 22 30  1  0  0  0  0
 22 58  1  0  0  0  0
 23 31  2  0  0  0  0
 23 59  1  0  0  0  0
 24 85  1  0  0  0  0
 25 86  1  0  0  0  0
 26 28  2  0  0  0  0
 26 85  1  0  0  0  0
 27 87  1  0  0  0  0
 28 88  1  0  0  0  0
 29 69  2  0  0  0  0
 30 60  1  0  0  0  0
 30 70  2  0  0  0  0
 31 65  1  0  0  0  0
 31 70  1  0  0  0  0
 32 71  1  0  0  0  0
 32 74  1  0  0  0  0
 33 75  1  0  0  0  0
 33 80  2  0  0  0  0
 34 48  1  0  0  0  0
 34 76  1  0  0  0  0
 34 81  2  0  0  0  0
 35 66  1  0  0  0  0
 35 72  1  0  0  0  0
 35 82  2  0  0  0  0
 36 67  1  0  0  0  0
 36 77  1  0  0  0  0
 36 83  2  0  0  0  0
 37 73  1  0  0  0  0
 37 78  1  0  0  0  0
 37 84  2  0  0  0  0
 38 41  1  0  0  0  0
 39 48  1  0  0  0  0
 40 72  1  0  0  0  0
 41 43  1  0  0  0  0
 42 44  1  0  0  0  0
 42 45  1  0  0  0  0
 43 47  1  0  0  0  0
 44 49  1  0  0  0  0
 45 73  1  0  0  0  0
 46 49  1  0  0  0  0
 46 73  1  0  0  0  0
 47 76  1  0  0  0  0
 48 72  1  0  0  0  0
 49 71  1  0  0  0  0
 50 61  1  0  0  0  0
 51 65  1  0  0  0  0
 52 65  1  0  0  0  0
 53 67  1  0  0  0  0
 54 68  1  0  0  0  0
 55 68  1  0  0  0  0
 56 68  1  0  0  0  0
 57 79  1  0  0  0  0
 58 62  1  0  0  0  0
 59 61  1  0  0  0  0
 60 63  1  0  0  0  0
 62 64  1  0  0  0  0
 63 78  1  0  0  0  0
 64 86  1  0  0  0  0
 66 68  1  0  0  0  0
 66 77  1  0  0  0  0
 67 79  1  0  0  0  0
 69 71  1  0  0  0  0
M  CHG  1  79   1
M  ISO  4  37 100  64 101  78 100  86 101
M  END
> <Batch ID>
0089

> <Smiles>
CCCc1cc(CC[101CH2:1][101O:1]c2ccc3c(c2)CN(C(=O)C(NC(=O)C(C)NC)C(C)(C)C)C(C(=O)NC2CCCc4ccccc42)C3)c(CC[100NH:0][100C:0](=O)N2CCCC(n3nc(-c4ccc(Oc5ccc(F)cc5F)cc4)c(C(N)=O)c3N)C2)nc1C(C)C

> <Shape>
0.201

> <Color>
0.187

> <Negative vol penalty>
0.000

$$$$

  -OEChem-04052319063D

 86 94  0     1  0  0  0  0  0999 V2000
  -26.1397  -20.8495   28.8775 C   0  0  0  0  0  0  0  0  0  0  0  0
  -26.9238  -21.3632   27.8496 C   0  0  0  0  0  0  0  0  0  0  0  0
  -23.8227  -12.4970   21.0126 C   0  0  0  0  0  0  0  0  0  0  0  0
  -26.2055  -12.1475   20.8201 C   0  0  0  0  0  0  0  0  0  0  0  0
  -24.7516  -20.8267   28.7493 C   0  0  0  0  0  0  0  0  0  0  0  0
  -26.3201  -21.8536   26.6922 C   0  0  0  0  0  0  0  0  0  0  0  0
  -28.2062  -26.5703   23.2714 C   0  0  0  0  0  0  0  0  0  0  0  0
  -23.6017  -11.1507   20.7224 C   0  0  0  0  0  0  0  0  0  0  0  0
  -25.9845  -10.8011   20.5299 C   0  0  0  0  0  0  0  0  0  0  0  0
  -28.9411  -26.6364   22.0885 C   0  0  0  0  0  0  0  0  0  0  0  0
  -22.4273   -7.7267   20.3876 C   0  0  0  0  0  0  0  0  0  0  0  0
  -21.5031   -7.0372   21.1725 C   0  0  0  0  0  0  0  0  0  0  0  0
  -26.8888  -26.7786   20.8287 C   0  0  0  0  0  0  0  0  0  0  0  0
  -22.8265   -7.5028   23.1395 C   0  0  0  0  0  0  0  0  0  0  0  0
  -30.1658  -22.3571   18.0385 C   0  0  0  0  0  0  0  0  0  0  0  0
  -25.1246  -12.9954   21.0614 C   0  0  0  0  0  0  0  0  0  0  0  0
  -25.5409  -14.9627   22.6312 C   0  0  0  0  0  0  0  0  0  0  0  0
  -24.1301  -21.3260   27.5938 C   0  0  0  0  0  0  0  0  0  0  0  0
  -26.8045  -26.5969   23.2411 C   0  0  0  0  0  0  0  0  0  0  0  0
  -24.9224  -21.8363   26.5478 C   0  0  0  0  0  0  0  0  0  0  0  0
  -26.1386  -26.7152   22.0128 C   0  0  0  0  0  0  0  0  0  0  0  0
  -24.6826  -10.3027   20.4811 C   0  0  0  0  0  0  0  0  0  0  0  0
  -28.2823  -26.7376   20.8666 C   0  0  0  0  0  0  0  0  0  0  0  0
  -23.5512   -8.3041   20.9786 C   0  0  0  0  0  0  0  0  0  0  0  0
  -21.7027   -6.9253   22.5485 C   0  0  0  0  0  0  0  0  0  0  0  0
  -23.7507   -8.1922   22.3546 C   0  0  0  0  0  0  0  0  0  0  0  0
  -25.3534  -14.3861   21.3606 C   0  0  0  0  0  0  0  0  0  0  0  0
  -29.3916  -23.4263   18.4407 C   0  0  0  0  0  0  0  0  0  0  0  0
  -30.0114  -21.1987   18.7723 C   0  0  0  0  0  0  0  0  0  0  0  0
  -25.7176  -16.3011   22.3782 C   0  0  0  0  0  0  0  0  0  0  0  0
  -28.4693  -22.1940   20.1134 C   0  0  0  0  0  0  0  0  0  0  0  0
  -25.5541  -14.3438   23.9244 C   0  0  0  0  0  0  0  0  0  0  0  0
  -24.5034  -24.5859   24.1153 C   0  0  0  0  0  0  0  0  0  0  0  0
  -22.5716  -27.0754   23.3452 C   0  0  0  0  0  0  0  0  0  0  0  0
  -22.1234  -29.9517   21.5641 C   0  0  0  0  0  0  0  0  0  0  0  0
  -27.6496  -19.3243   17.5846 C   0  0  0  0  0  0  0  0  0  0  0  0
  -22.6288  -21.2369   27.4809 C   0  0  0  0  0  0  0  0  0  0  0  0
  -26.0270  -26.5516   24.5279 C   0  0  0  0  0  0  0  0  0  0  0  0
  -24.6358  -26.7682   21.9274 C   0  0  0  0  0  0  0  0  0  0  0  0
  -22.0473  -22.1196   26.3795 C   0  0  0  0  0  0  0  0  0  0  0  0
  -24.5209  -19.7086   19.2401 C   0  0  0  0  0  0  0  0  0  0  0  0
  -22.8473  -21.9613   25.0904 C   0  0  0  0  0  0  0  0  0  0  0  0
  -24.3964  -18.4401   20.0859 C   0  0  0  0  0  0  0  0  0  0  0  0
  -25.1946  -19.4285   17.8985 C   0  0  0  0  0  0  0  0  0  0  0  0
  -26.3752  -17.4793   18.8369 C   0  0  0  0  0  0  0  0  0  0  0  0
  -24.3033  -22.4002   25.2873 C   0  0  1  0  0  0  0  0  0  0  0  0
  -24.5919  -26.0686   24.3422 C   0  0  1  0  0  0  0  0  0  0  0  0
  -25.7524  -17.7218   20.2224 C   0  0  2  0  0  0  0  0  0  0  0  0
  -29.3706  -22.1373   22.9998 C   0  0  0  0  0  0  0  0  0  0  0  0
  -31.1665  -19.1452   19.6515 C   0  0  0  0  0  0  0  0  0  0  0  0
  -20.4264  -31.7440   21.1110 C   0  0  0  0  0  0  0  0  0  0  0  0
  -21.0397  -25.1622   21.5278 C   0  0  0  0  0  0  0  0  0  0  0  0
  -20.0092  -27.1545   20.4156 C   0  0  0  0  0  0  0  0  0  0  0  0
  -19.6009  -26.7315   22.8399 C   0  0  0  0  0  0  0  0  0  0  0  0
  -23.8922  -32.0625   22.6480 C   0  0  0  0  0  0  0  0  0  0  0  0
  -29.4902  -24.7356   17.6994 C   0  0  0  0  0  0  0  0  0  0  0  0
  -27.5245  -22.1016   21.2635 C   0  0  0  0  0  0  0  0  0  0  0  0
  -28.0793  -22.7836   22.5234 C   0  0  0  0  0  0  0  0  0  0  0  0
  -30.5505  -25.6841   18.2631 C   0  0  0  0  0  0  0  0  0  0  0  0
  -30.1099  -19.0859   17.3636 C   0  0  0  0  0  0  0  0  0  0  0  0
  -30.2593  -26.1361   19.6894 C   0  0  0  0  0  0  0  0  0  1  0  0
  -30.8057  -19.9884   18.4110 C   0  0  1  0  0  0  0  0  0  0  0  0
  -21.8757  -27.5397   22.0886 C   0  0  1  0  0  0  0  0  0  0  0  0
  -21.6054  -31.3190   21.9724 C   0  0  2  0  0  0  0  0  0  0  0  0
  -20.6597  -26.6440   21.7191 C   0  0  0  0  0  0  0  0  0  0  0  0
  -25.4060  -15.2847   20.3738 N   0  0  0  0  0  0  0  0  0  0  0  0
  -28.5296  -23.3795   19.4776 N   0  0  0  0  0  0  0  0  0  0  0  0
  -29.1692  -21.0815   19.8199 N   0  0  0  0  0  0  0  0  0  0  0  0
  -25.6284  -16.4395   21.0243 N   0  0  0  0  0  0  0  0  0  0  0  0
  -23.9199  -26.7143   23.2128 N   0  0  0  0  0  0  0  0  0  0  0  0
  -26.4762  -18.7477   18.0982 N   0  0  0  0  0  0  0  0  0  0  0  0
  -25.9389  -17.3613   23.1840 N   0  0  0  0  0  0  0  0  0  0  0  0
  -25.3567  -12.9585   24.0042 N   0  0  0  0  0  0  0  0  0  0  0  0
  -24.4018  -23.8440   25.2766 N   0  0  0  0  0  0  0  0  0  0  0  0
  -21.5407  -28.9435   22.3024 N   0  0  0  0  0  0  0  0  0  0  0  0
  -28.8217  -18.6174   17.8237 N   0  0  0  0  0  0  0  0  0  0  0  0
  -22.6803  -32.3422   21.8356 N   0  3  0  0  0  0  0  0  0  0  0  0
  -25.7194  -15.0021   24.9793 O   0  0  0  0  0  0  0  0  0  0  0  0
  -24.5241  -24.1475   22.9711 O   0  0  0  0  0  0  0  0  0  0  0  0
  -21.9440  -27.0414   24.4067 O   0  0  0  0  0  0  0  0  0  0  0  0
  -22.9584  -29.7937   20.6762 O   0  0  0  0  0  0  0  0  0  0  0  0
  -27.6531  -20.3928   16.9639 O   0  0  0  0  0  0  0  0  0  0  0  0
  -24.4674   -8.9889   20.1981 O   0  0  0  0  0  0  0  0  0  0  0  0
  -28.9971  -26.8016   19.7104 O   0  0  0  0  0  0  0  0  0  1  0  0
  -20.8143   -6.2645   23.3024 F   0  0  0  0  0  0  0  0  0  0  0  0
  -24.8279   -8.7458   22.9282 F   0  0  0  0  0  0  0  0  0  0  0  0
  1  2  1  0  0  0  0
  1  5  2  0  0  0  0
  2  6  2  0  0  0  0
  3  8  2  0  0  0  0
  3 16  1  0  0  0  0
  4  9  1  0  0  0  0
  4 16  2  0  0  0  0
  5 18  1  0  0  0  0
  6 20  1  0  0  0  0
  7 10  2  0  0  0  0
  7 19  1  0  0  0  0
  8 22  1  0  0  0  0
  9 22  2  0  0  0  0
 10 23  1  0  0  0  0
 11 12  2  0  0  0  0
 11 24  1  0  0  0  0
 12 25  1  0  0  0  0
 13 21  1  0  0  0  0
 13 23  2  0  0  0  0
 14 25  2  0  0  0  0
 14 26  1  0  0  0  0
 15 28  1  0  0  0  0
 15 29  2  0  0  0  0
 16 27  1  0  0  0  0
 17 27  1  0  0  0  0
 17 30  2  0  0  0  0
 17 32  1  0  0  0  0
 18 20  2  0  0  0  0
 18 37  1  0  0  0  0
 19 21  2  0  0  0  0
 19 38  1  0  0  0  0
 20 46  1  0  0  0  0
 21 39  1  0  0  0  0
 22 83  1  0  0  0  0
 23 84  1  0  0  0  0
 24 26  2  0  0  0  0
 24 83  1  0  0  0  0
 25 85  1  0  0  0  0
 26 86  1  0  0  0  0
 27 66  2  0  0  0  0
 28 56  1  0  0  0  0
 28 67  2  0  0  0  0
 29 62  1  0  0  0  0
 29 68  1  0  0  0  0
 30 69  1  0  0  0  0
 30 72  1  0  0  0  0
 31 57  1  0  0  0  0
 31 67  1  0  0  0  0
 31 68  2  0  0  0  0
 32 73  1  0  0  0  0
 32 78  2  0  0  0  0
 33 47  1  0  0  0  0
 33 74  1  0  0  0  0
 33 79  2  0  0  0  0
 34 63  1  0  0  0  0
 34 70  1  0  0  0  0
 34 80  2  0  0  0  0
 35 64  1  0  0  0  0
 35 75  1  0  0  0  0
 35 81  2  0  0  0  0
 36 71  1  0  0  0  0
 36 76  1  0  0  0  0
 36 82  2  0  0  0  0
 37 40  1  0  0  0  0
 38 47  1  0  0  0  0
 39 70  1  0  0  0  0
 40 42  1  0  0  0  0
 41 43  1  0  0  0  0
 41 44  1  0  0  0  0
 42 46  1  0  0  0  0
 43 48  1  0  0  0  0
 44 71  1  0  0  0  0
 45 48  1  0  0  0  0
 45 71  1  0  0  0  0
 46 74  1  0  0  0  0
 47 70  1  0  0  0  0
 48 69  1  0  0  0  0
 49 58  1  0  0  0  0
 50 62  1  0  0  0  0
 51 64  1  0  0  0  0
 52 65  1  0  0  0  0
 53 65  1  0  0  0  0
 54 65  1  0  0  0  0
 55 77  1  0  0  0  0
 56 59  1  0  0  0  0
 57 58  1  0  0  0  0
 59 61  1  0  0  0  0
 60 62  1  0  0  0  0
 60 76  1  0  0  0  0
 61 84  1  0  0  0  0
 63 65  1  0  0  0  0
 63 75  1  0  0  0  0
 64 77  1  0  0  0  0
 66 69  1  0  0  0  0
M  CHG  1  77   1
M  ISO  4  36 100  61 101  76 100  84 101
M  END
> <Batch ID>
0089

> <Smiles>
CCCc1nc(CC[101CH2:1][101O:1]c2ccc3c(c2)CN(C(=O)C(NC(=O)C(C)NC)C(C)(C)C)C(C(=O)NC2CCCc4ccccc42)C3)cc(C(C)C[100NH:0][100C:0](=O)N2CCCC(n3nc(-c4ccc(Oc5ccc(F)cc5F)cc4)c(C(N)=O)c3N)C2)n1

> <Shape>
0.225

> <Color>
0.073

> <Negative vol penalty>
0.000

$$$$

  -OEChem-04052319063D

 77 84  0     1  0  0  0  0  0999 V2000
  -29.7729  -26.7674   16.9812 C   0  0  0  0  0  0  0  0  0  0  0  0
  -28.7094  -26.0973   17.5772 C   0  0  0  0  0  0  0  0  0  0  0  0
  -25.3818  -30.9780   23.6922 C   0  0  0  0  0  0  0  0  0  0  0  0
  -26.0593  -28.8565   24.6287 C   0  0  0  0  0  0  0  0  0  0  0  0
  -30.9854  -26.1091   16.7801 C   0  0  0  0  0  0  0  0  0  0  0  0
  -28.8575  -24.7680   17.9715 C   0  0  0  0  0  0  0  0  0  0  0  0
  -26.9619  -23.8872   22.5841 C   0  0  0  0  0  0  0  0  0  0  0  0
  -26.2538  -31.6385   24.5575 C   0  0  0  0  0  0  0  0  0  0  0  0
  -26.9314  -29.5170   25.4940 C   0  0  0  0  0  0  0  0  0  0  0  0
  -25.5778  -23.7567   22.6894 C   0  0  0  0  0  0  0  0  0  0  0  0
  -29.5699  -32.2713   24.7479 C   0  0  0  0  0  0  0  0  0  0  0  0
  -30.3678  -33.2840   24.2157 C   0  0  0  0  0  0  0  0  0  0  0  0
  -25.8134  -21.3563   22.7324 C   0  0  0  0  0  0  0  0  0  0  0  0
  -29.3680  -34.8718   25.7376 C   0  0  0  0  0  0  0  0  0  0  0  0
  -25.2844  -29.5870   23.7278 C   0  0  0  0  0  0  0  0  0  0  0  0
  -24.6687  -28.4245   21.5421 C   0  0  0  0  0  0  0  0  0  0  0  0
  -31.1515  -24.7741   17.1809 C   0  0  0  0  0  0  0  0  0  0  0  0
  -27.7827  -22.7510   22.5411 C   0  0  0  0  0  0  0  0  0  0  0  0
  -30.0729  -24.0908   17.7744 C   0  0  0  0  0  0  0  0  0  0  0  0
  -27.2078  -21.4751   22.6291 C   0  0  0  0  0  0  0  0  0  0  0  0
  -27.0286  -30.9080   25.4584 C   0  0  0  0  0  0  0  0  0  0  0  0
  -25.0032  -22.4911   22.7607 C   0  0  0  0  0  0  0  0  0  0  0  0
  -28.6709  -32.5588   25.7749 C   0  0  0  0  0  0  0  0  0  0  0  0
  -30.2669  -34.5842   24.7105 C   0  0  0  0  0  0  0  0  0  0  0  0
  -28.5699  -33.8590   26.2698 C   0  0  0  0  0  0  0  0  0  0  0  0
  -24.3834  -28.9042   22.8345 C   0  0  0  0  0  0  0  0  0  0  0  0
  -23.4907  -27.8600   21.1176 C   0  0  0  0  0  0  0  0  0  0  0  0
  -25.8894  -28.4839   20.7924 C   0  0  0  0  0  0  0  0  0  0  0  0
  -29.8019  -21.5216   20.4161 C   0  0  0  0  0  0  0  0  0  0  0  0
  -30.4303  -19.4229   22.8083 C   0  0  0  0  0  0  0  0  0  0  0  0
  -29.3711  -17.8816   25.6630 C   0  0  0  0  0  0  0  0  0  0  0  0
  -18.8001  -25.5394   24.0268 C   0  0  0  0  0  0  0  0  0  0  0  0
  -32.4658  -24.0898   16.8997 C   0  0  0  0  0  0  0  0  0  0  0  0
  -29.2760  -22.9093   22.4542 C   0  0  0  0  0  0  0  0  0  0  0  0
  -28.0465  -20.2242   22.6074 C   0  0  0  0  0  0  0  0  0  0  0  0
  -32.6597  -22.7962   17.6867 C   0  0  0  0  0  0  0  0  0  0  0  0
  -18.7525  -28.2149   21.6782 C   0  0  0  0  0  0  0  0  0  0  0  0
  -31.4032  -21.9343   17.6148 C   0  0  0  0  0  0  0  0  0  0  0  0
  -20.2160  -28.6517   21.5916 C   0  0  0  0  0  0  0  0  0  0  0  0
  -18.3719  -27.7948   23.0962 C   0  0  0  0  0  0  0  0  0  0  0  0
  -20.7096  -27.2049   23.6071 C   0  0  0  0  0  0  0  0  0  0  0  0
  -30.2025  -22.6562   18.2383 C   0  0  1  0  0  0  0  0  0  0  0  0
  -29.9768  -21.6724   21.9008 C   0  0  1  0  0  0  0  0  0  0  0  0
  -21.1556  -27.5846   22.1847 C   0  0  2  0  0  0  0  0  0  0  0  0
  -30.0888  -16.1877   27.3697 C   0  0  0  0  0  0  0  0  0  0  0  0
  -18.3776  -22.6125   22.7429 C   0  0  0  0  0  0  0  0  0  0  0  0
  -29.8423  -17.1795   20.8256 C   0  0  0  0  0  0  0  0  0  0  0  0
  -29.6392  -15.6114   22.7668 C   0  0  0  0  0  0  0  0  0  0  0  0
  -31.8054  -16.7644   22.3183 C   0  0  0  0  0  0  0  0  0  0  0  0
  -29.2377  -19.8639   27.8565 C   0  0  0  0  0  0  0  0  0  0  0  0
  -21.8291  -21.5468   24.2281 C   0  0  0  0  0  0  0  0  0  0  0  0
  -20.7691  -21.9892   23.2120 C   0  0  0  0  0  0  0  0  0  0  0  0
  -19.3890  -23.3123   24.9501 C   0  0  0  0  0  0  0  0  0  0  0  0
  -23.1612  -21.2182   23.5624 C   0  0  0  0  0  0  0  0  0  1  0  0
  -29.8619  -18.0928   23.2404 C   0  0  1  0  0  0  0  0  0  0  0  0
  -30.0523  -17.6629   27.0019 C   0  0  2  0  0  0  0  0  0  0  0  0
  -19.3845  -22.2496   23.8407 C   0  0  1  0  0  0  0  0  0  0  0  0
  -30.2710  -16.9353   22.2862 C   0  0  0  0  0  0  0  0  0  0  0  0
  -23.1230  -28.6653   23.2066 N   0  0  0  0  0  0  0  0  0  0  0  0
  -22.6058  -28.0295   22.1415 N   0  0  0  0  0  0  0  0  0  0  0  0
  -29.5012  -20.4311   22.5150 N   0  0  0  0  0  0  0  0  0  0  0  0
  -19.3009  -26.7801   23.5994 N   0  0  0  0  0  0  0  0  0  0  0  0
  -23.1359  -27.2402   19.9720 N   0  0  0  0  0  0  0  0  0  0  0  0
  -27.0040  -29.0993   21.3782 N   0  0  0  0  0  0  0  0  0  0  0  0
  -30.2702  -22.5949   19.6826 N   0  0  0  0  0  0  0  0  0  0  0  0
  -30.2788  -17.9012   24.6253 N   0  0  0  0  0  0  0  0  0  0  0  0
  -19.7489  -24.6326   24.4831 N   0  0  0  0  0  0  0  0  0  0  0  0
  -29.3285  -18.3977   28.0775 N   0  3  0  0  0  0  0  0  0  0  0  0
  -25.9841  -28.0200   19.6308 O   0  0  0  0  0  0  0  0  0  0  0  0
  -29.2819  -20.5060   19.9690 O   0  0  0  0  0  0  0  0  0  0  0  0
  -31.6539  -19.5643   22.7406 O   0  0  0  0  0  0  0  0  0  0  0  0
  -28.1550  -18.0175   25.5487 O   0  0  0  0  0  0  0  0  0  0  0  0
  -17.5971  -25.2585   23.9985 O   0  0  0  0  0  0  0  0  0  0  0  0
  -27.8799  -31.5522   26.3028 O   0  0  0  0  0  0  0  0  0  0  0  0
  -23.6524  -22.3609   22.8629 O   0  0  0  0  0  0  0  0  0  1  0  0
  -31.0344  -35.5562   24.2004 F   0  0  0  0  0  0  0  0  0  0  0  0
  -27.7090  -34.1411   27.2572 F   0  0  0  0  0  0  0  0  0  0  0  0
  1  2  1  0  0  0  0
  1  5  2  0  0  0  0
  2  6  2  0  0  0  0
  3  8  2  0  0  0  0
  3 15  1  0  0  0  0
  4  9  1  0  0  0  0
  4 15  2  0  0  0  0
  5 17  1  0  0  0  0
  6 19  1  0  0  0  0
  7 10  2  0  0  0  0
  7 18  1  0  0  0  0
  8 21  1  0  0  0  0
  9 21  2  0  0  0  0
 10 22  1  0  0  0  0
 11 12  2  0  0  0  0
 11 23  1  0  0  0  0
 12 24  1  0  0  0  0
 13 20  1  0  0  0  0
 13 22  2  0  0  0  0
 14 24  2  0  0  0  0
 14 25  1  0  0  0  0
 15 26  1  0  0  0  0
 16 26  1  0  0  0  0
 16 27  2  0  0  0  0
 16 28  1  0  0  0  0
 17 19  2  0  0  0  0
 17 33  1  0  0  0  0
 18 20  2  0  0  0  0
 18 34  1  0  0  0  0
 19 42  1  0  0  0  0
 20 35  1  0  0  0  0
 21 74  1  0  0  0  0
 22 75  1  0  0  0  0
 23 25  2  0  0  0  0
 23 74  1  0  0  0  0
 24 76  1  0  0  0  0
 25 77  1  0  0  0  0
 26 59  2  0  0  0  0
 27 60  1  0  0  0  0
 27 63  1  0  0  0  0
 28 64  1  0  0  0  0
 28 69  2  0  0  0  0
 29 43  1  0  0  0  0
 29 65  1  0  0  0  0
 29 70  2  0  0  0  0
 30 55  1  0  0  0  0
 30 61  1  0  0  0  0
 30 71  2  0  0  0  0
 31 56  1  0  0  0  0
 31 66  1  0  0  0  0
 31 72  2  0  0  0  0
 32 62  1  0  0  0  0
 32 67  1  0  0  0  0
 32 73  2  0  0  0  0
 33 36  1  0  0  0  0
 34 43  1  0  0  0  0
 35 61  1  0  0  0  0
 36 38  1  0  0  0  0
 37 39  1  0  0  0  0
 37 40  1  0  0  0  0
 38 42  1  0  0  0  0
 39 44  1  0  0  0  0
 40 62  1  0  0  0  0
 41 44  1  0  0  0  0
 41 62  1  0  0  0  0
 42 65  1  0  0  0  0
 43 61  1  0  0  0  0
 44 60  1  0  0  0  0
 45 56  1  0  0  0  0
 46 57  1  0  0  0  0
 47 58  1  0  0  0  0
 48 58  1  0  0  0  0
 49 58  1  0  0  0  0
 50 68  1  0  0  0  0
 51 52  1  0  0  0  0
 51 54  1  0  0  0  0
 52 57  1  0  0  0  0
 53 57  1  0  0  0  0
 53 67  1  0  0  0  0
 54 75  1  0  0  0  0
 55 58  1  0  0  0  0
 55 66  1  0  0  0  0
 56 68  1  0  0  0  0
 59 60  1  0  0  0  0
M  CHG  1  68   1
M  ISO  4  32 100  54 101  67 100  75 101
M  END
> <Batch ID>
0089

> <Smiles>
CNC(C)C(=O)NC(C(=O)N1Cc2cc([101O:1][101CH2:1]CCC(C)C[100NH:0][100C:0](=O)N3CCCC(n4nc(-c5ccc(Oc6ccc(F)cc6F)cc5)c(C(N)=O)c4N)C3)ccc2CC1C(=O)NC1CCCc2ccccc21)C(C)(C)C

> <Shape>
0.196

> <Color>
0.053

> <Negative vol penalty>
0.000

$$$$

  -OEChem-04052319063D

 86 94  0     1  0  0  0  0  0999 V2000
  -16.7227  -22.7650   26.4618 C   0  0  0  0  0  0  0  0  0  0  0  0
  -17.5655  -21.7308   26.8561 C   0  0  0  0  0  0  0  0  0  0  0  0
  -23.2859   -9.8007   19.9130 C   0  0  0  0  0  0  0  0  0  0  0  0
  -23.7349   -9.9416   22.2828 C   0  0  0  0  0  0  0  0  0  0  0  0
  -16.4143  -22.9356   25.1128 C   0  0  0  0  0  0  0  0  0  0  0  0
  -18.0996  -20.8658   25.9016 C   0  0  0  0  0  0  0  0  0  0  0  0
  -23.6302  -18.2374   26.0001 C   0  0  0  0  0  0  0  0  0  0  0  0
  -22.5580   -8.6291   20.1205 C   0  0  0  0  0  0  0  0  0  0  0  0
  -23.0069   -8.7700   22.4903 C   0  0  0  0  0  0  0  0  0  0  0  0
  -24.0588  -16.9682   26.3865 C   0  0  0  0  0  0  0  0  0  0  0  0
  -19.4746   -7.7727   21.2124 C   0  0  0  0  0  0  0  0  0  0  0  0
  -18.2460   -7.6494   20.5636 C   0  0  0  0  0  0  0  0  0  0  0  0
  -23.9543  -16.2402   24.0890 C   0  0  0  0  0  0  0  0  0  0  0  0
  -29.4939  -14.2467   25.3282 C   0  0  0  0  0  0  0  0  0  0  0  0
  -19.0462   -5.6753   19.4235 C   0  0  0  0  0  0  0  0  0  0  0  0
  -27.9362  -16.0312   25.5424 C   0  0  0  0  0  0  0  0  0  0  0  0
  -23.8744  -10.4569   20.9941 C   0  0  0  0  0  0  0  0  0  0  0  0
  -24.1370  -12.9866   20.7950 C   0  0  0  0  0  0  0  0  0  0  0  0
  -16.9527  -22.0782   24.1403 C   0  0  0  0  0  0  0  0  0  0  0  0
  -23.3495  -18.5149   24.6545 C   0  0  0  0  0  0  0  0  0  0  0  0
  -17.7971  -21.0243   24.5385 C   0  0  0  0  0  0  0  0  0  0  0  0
  -23.5247  -17.5144   23.6878 C   0  0  0  0  0  0  0  0  0  0  0  0
  -28.2633  -14.7066   25.7837 C   0  0  0  0  0  0  0  0  0  0  0  0
  -30.3477  -15.1133   24.6548 C   0  0  0  0  0  0  0  0  0  0  0  0
  -22.4185   -8.1138   21.4091 C   0  0  0  0  0  0  0  0  0  0  0  0
  -24.2181  -15.9685   25.4313 C   0  0  0  0  0  0  0  0  0  0  0  0
  -20.4891   -6.8473   20.9666 C   0  0  0  0  0  0  0  0  0  0  0  0
  -18.0317   -6.6007   19.6692 C   0  0  0  0  0  0  0  0  0  0  0  0
  -20.2748   -5.7986   20.0722 C   0  0  0  0  0  0  0  0  0  0  0  0
  -24.6270  -11.6669   20.7803 C   0  0  0  0  0  0  0  0  0  0  0  0
  -29.9272  -16.4196   24.4638 C   0  0  0  0  0  0  0  0  0  0  0  0
  -25.2396  -13.7651   20.5407 C   0  0  0  0  0  0  0  0  0  0  0  0
  -22.8043  -13.4658   21.0185 C   0  0  0  0  0  0  0  0  0  0  0  0
  -20.7586  -19.4004   23.0400 C   0  0  0  0  0  0  0  0  0  0  0  0
  -22.8506  -19.6265   20.5713 C   0  0  0  0  0  0  0  0  0  0  0  0
  -25.8161  -18.6566   19.1886 C   0  0  0  0  0  0  0  0  0  0  0  0
  -31.1089  -12.9154   21.3654 C   0  0  0  0  0  0  0  0  0  0  0  0
  -16.5528  -22.2732   22.6992 C   0  0  0  0  0  0  0  0  0  0  0  0
  -22.9137  -19.8966   24.2504 C   0  0  0  0  0  0  0  0  0  0  0  0
  -23.2562  -17.7670   22.2275 C   0  0  0  0  0  0  0  0  0  0  0  0
  -17.4589  -21.5427   21.7115 C   0  0  0  0  0  0  0  0  0  0  0  0
  -29.4634  -13.6558   18.2961 C   0  0  0  0  0  0  0  0  0  0  0  0
  -17.7047  -20.1094   22.1721 C   0  0  0  0  0  0  0  0  0  0  0  0
  -27.9931  -13.3491   18.5860 C   0  0  0  0  0  0  0  0  0  0  0  0
  -30.3949  -12.6755   19.0055 C   0  0  0  0  0  0  0  0  0  0  0  0
  -28.7064  -12.2487   20.7492 C   0  0  0  0  0  0  0  0  0  0  0  0
  -18.4160  -20.0806   23.5303 C   0  0  1  0  0  0  0  0  0  0  0  0
  -22.1628  -19.9219   22.9227 C   0  0  1  0  0  0  0  0  0  0  0  0
  -27.7301  -13.2449   20.1004 C   0  0  2  0  0  0  0  0  0  0  0  0
  -32.7943  -14.8852   25.1897 C   0  0  0  0  0  0  0  0  0  0  0  0
  -31.2170  -18.5781   24.6395 C   0  0  0  0  0  0  0  0  0  0  0  0
  -30.1584  -17.9169   22.4492 C   0  0  0  0  0  0  0  0  0  0  0  0
  -27.7231  -18.6190   17.5579 C   0  0  0  0  0  0  0  0  0  0  0  0
  -20.9838  -17.8063   18.9864 C   0  0  0  0  0  0  0  0  0  0  0  0
  -22.8571  -17.4046   17.3747 C   0  0  0  0  0  0  0  0  0  0  0  0
  -21.9467  -19.7072   17.6773 C   0  0  0  0  0  0  0  0  0  0  0  0
  -27.2605  -20.7861   20.6508 C   0  0  0  0  0  0  0  0  0  0  0  0
  -27.3141  -13.7925   26.5165 C   0  0  0  0  0  0  0  0  0  0  0  0
  -26.3395  -13.0523   25.5980 C   0  0  0  0  0  0  0  0  0  0  0  0
  -31.6690  -13.1293   23.7737 C   0  0  0  0  0  0  0  0  0  0  0  0
  -25.3892  -13.9814   24.8517 C   0  0  0  0  0  0  0  0  0  1  0  0
  -31.6683  -14.6276   24.1656 C   0  0  1  0  0  0  0  0  0  0  0  0
  -30.8024  -17.3947   23.7463 C   0  0  0  0  0  0  0  0  0  0  0  0
  -23.3561  -18.6811   19.5083 C   0  0  1  0  0  0  0  0  0  0  0  0
  -26.9439  -19.4556   18.5608 C   0  0  2  0  0  0  0  0  0  0  0  0
  -22.2892  -18.3942   18.4144 C   0  0  0  0  0  0  0  0  0  0  0  0
  -28.7393  -16.9027   24.8919 N   0  0  0  0  0  0  0  0  0  0  0  0
  -25.9387  -11.6067   20.5359 N   0  0  0  0  0  0  0  0  0  0  0  0
  -26.2823  -12.8982   20.3945 N   0  0  0  0  0  0  0  0  0  0  0  0
  -22.8261  -19.1322   21.8831 N   0  0  0  0  0  0  0  0  0  0  0  0
  -30.0944  -12.6249   20.4384 N   0  0  0  0  0  0  0  0  0  0  0  0
  -25.4092  -15.0998   20.4299 N   0  0  0  0  0  0  0  0  0  0  0  0
  -21.7904  -12.5302   21.2654 N   0  0  0  0  0  0  0  0  0  0  0  0
  -19.8257  -20.3653   23.3687 N   0  0  0  0  0  0  0  0  0  0  0  0
  -24.5928  -19.2637   18.9987 N   0  0  0  0  0  0  0  0  0  0  0  0
  -30.7380  -12.8508   22.7030 N   0  0  0  0  0  0  0  0  0  0  0  0
  -27.8886  -19.9313   19.6106 N   0  3  0  0  0  0  0  0  0  0  0  0
  -22.5179  -14.6866   20.9836 O   0  0  0  0  0  0  0  0  0  0  0  0
  -20.5376  -18.2109   22.8452 O   0  0  0  0  0  0  0  0  0  0  0  0
  -22.4973  -20.7640   20.2505 O   0  0  0  0  0  0  0  0  0  0  0  0
  -26.0014  -17.5978   19.7845 O   0  0  0  0  0  0  0  0  0  0  0  0
  -32.2585  -13.2158   21.0262 O   0  0  0  0  0  0  0  0  0  0  0  0
  -21.7080   -6.9707   21.6120 O   0  0  0  0  0  0  0  0  0  0  0  0
  -24.6357  -14.7287   25.8057 O   0  0  0  0  0  0  0  0  0  1  0  0
  -16.8513   -6.4815   19.0475 F   0  0  0  0  0  0  0  0  0  0  0  0
  -21.2452   -4.9059   19.8329 F   0  0  0  0  0  0  0  0  0  0  0  0
  1  2  1  0  0  0  0
  1  5  2  0  0  0  0
  2  6  2  0  0  0  0
  3  8  2  0  0  0  0
  3 17  1  0  0  0  0
  4  9  1  0  0  0  0
  4 17  2  0  0  0  0
  5 19  1  0  0  0  0
  6 21  1  0  0  0  0
  7 10  2  0  0  0  0
  7 20  1  0  0  0  0
  8 25  1  0  0  0  0
  9 25  2  0  0  0  0
 10 26  1  0  0  0  0
 11 12  2  0  0  0  0
 11 27  1  0  0  0  0
 12 28  1  0  0  0  0
 13 22  1  0  0  0  0
 13 26  2  0  0  0  0
 14 23  2  0  0  0  0
 14 24  1  0  0  0  0
 15 28  2  0  0  0  0
 15 29  1  0  0  0  0
 16 23  1  0  0  0  0
 16 67  2  0  0  0  0
 17 30  1  0  0  0  0
 18 30  1  0  0  0  0
 18 32  2  0  0  0  0
 18 33  1  0  0  0  0
 19 21  2  0  0  0  0
 19 38  1  0  0  0  0
 20 22  2  0  0  0  0
 20 39  1  0  0  0  0
 21 47  1  0  0  0  0
 22 40  1  0  0  0  0
 23 58  1  0  0  0  0
 24 31  2  0  0  0  0
 24 62  1  0  0  0  0
 25 83  1  0  0  0  0
 26 84  1  0  0  0  0
 27 29  2  0  0  0  0
 27 83  1  0  0  0  0
 28 85  1  0  0  0  0
 29 86  1  0  0  0  0
 30 68  2  0  0  0  0
 31 63  1  0  0  0  0
 31 67  1  0  0  0  0
 32 69  1  0  0  0  0
 32 72  1  0  0  0  0
 33 73  1  0  0  0  0
 33 78  2  0  0  0  0
 34 48  1  0  0  0  0
 34 74  1  0  0  0  0
 34 79  2  0  0  0  0
 35 64  1  0  0  0  0
 35 70  1  0  0  0  0
 35 80  2  0  0  0  0
 36 65  1  0  0  0  0
 36 75  1  0  0  0  0
 36 81  2  0  0  0  0
 37 71  1  0  0  0  0
 37 76  1  0  0  0  0
 37 82  2  0  0  0  0
 38 41  1  0  0  0  0
 39 48  1  0  0  0  0
 40 70  1  0  0  0  0
 41 43  1  0  0  0  0
 42 44  1  0  0  0  0
 42 45  1  0  0  0  0
 43 47  1  0  0  0  0
 44 49  1  0  0  0  0
 45 71  1  0  0  0  0
 46 49  1  0  0  0  0
 46 71  1  0  0  0  0
 47 74  1  0  0  0  0
 48 70  1  0  0  0  0
 49 69  1  0  0  0  0
 50 62  1  0  0  0  0
 51 63  1  0  0  0  0
 52 63  1  0  0  0  0
 53 65  1  0  0  0  0
 54 66  1  0  0  0  0
 55 66  1  0  0  0  0
 56 66  1  0  0  0  0
 57 77  1  0  0  0  0
 58 59  1  0  0  0  0
 59 61  1  0  0  0  0
 60 62  1  0  0  0  0
 60 76  1  0  0  0  0
 61 84  1  0  0  0  0
 64 66  1  0  0  0  0
 64 75  1  0  0  0  0
 65 77  1  0  0  0  0
 68 69  1  0  0  0  0
M  CHG  1  77   1
M  ISO  4  37 100  61 101  76 100  84 101
M  END
> <Batch ID>
0089

> <Smiles>
CNC(C)C(=O)NC(C(=O)N1Cc2cc([101O:1][101CH2:1]CCc3cnc(C(C)C)c(C(C)C[100NH:0][100C:0](=O)N4CCCC(n5nc(-c6ccc(Oc7ccc(F)cc7F)cc6)c(C(N)=O)c5N)C4)c3)ccc2CC1C(=O)NC1CCCc2ccccc21)C(C)(C)C

> <Shape>
0.141

> <Color>
0.170

> <Negative vol penalty>
0.000

$$$$

  -OEChem-04052319063D

 87 95  0     1  0  0  0  0  0999 V2000
  -19.5612   -9.4745   21.3219 C   0  0  0  0  0  0  0  0  0  0  0  0
  -19.8213  -10.5853   22.1181 C   0  0  0  0  0  0  0  0  0  0  0  0
  -22.7454  -29.3077   19.8940 C   0  0  0  0  0  0  0  0  0  0  0  0
  -23.2040  -28.2955   22.0392 C   0  0  0  0  0  0  0  0  0  0  0  0
  -20.6162   -8.7736   20.7391 C   0  0  0  0  0  0  0  0  0  0  0  0
  -21.1367  -10.9951   22.3330 C   0  0  0  0  0  0  0  0  0  0  0  0
  -23.1433  -16.7458   22.9724 C   0  0  0  0  0  0  0  0  0  0  0  0
  -21.3996  -29.4299   20.2394 C   0  0  0  0  0  0  0  0  0  0  0  0
  -21.8582  -28.4177   22.3846 C   0  0  0  0  0  0  0  0  0  0  0  0
  -23.4490  -17.5132   24.0955 C   0  0  0  0  0  0  0  0  0  0  0  0
  -18.9625  -26.7976   21.7356 C   0  0  0  0  0  0  0  0  0  0  0  0
  -18.3440  -25.6985   22.3315 C   0  0  0  0  0  0  0  0  0  0  0  0
  -25.7754  -16.9205   23.8597 C   0  0  0  0  0  0  0  0  0  0  0  0
  -24.0064  -21.1395   25.4473 C   0  0  0  0  0  0  0  0  0  0  0  0
  -17.8582  -27.0320   24.2868 C   0  0  0  0  0  0  0  0  0  0  0  0
  -23.6477  -28.7404   20.7939 C   0  0  0  0  0  0  0  0  0  0  0  0
  -26.0624  -29.5526   20.6619 C   0  0  0  0  0  0  0  0  0  0  0  0
  -21.9447   -9.1808   20.9391 C   0  0  0  0  0  0  0  0  0  0  0  0
  -24.1514  -16.0501   22.2897 C   0  0  0  0  0  0  0  0  0  0  0  0
  -22.2105  -10.2982   21.7534 C   0  0  0  0  0  0  0  0  0  0  0  0
  -25.4803  -16.1471   22.7266 C   0  0  0  0  0  0  0  0  0  0  0  0
  -23.8017  -22.3937   24.8212 C   0  0  0  0  0  0  0  0  0  0  0  0
  -20.9559  -28.9850   21.4847 C   0  0  0  0  0  0  0  0  0  0  0  0
  -24.7648  -17.5983   24.5411 C   0  0  0  0  0  0  0  0  0  0  0  0
  -19.0290  -28.0139   22.4154 C   0  0  0  0  0  0  0  0  0  0  0  0
  -17.7918  -25.8157   23.6070 C   0  0  0  0  0  0  0  0  0  0  0  0
  -18.4768  -28.1311   23.6909 C   0  0  0  0  0  0  0  0  0  0  0  0
  -25.0380  -28.6134   20.4375 C   0  0  0  0  0  0  0  0  0  0  0  0
  -25.2574  -20.6956   25.0799 C   0  0  0  0  0  0  0  0  0  0  0  0
  -24.9339  -22.6781   24.0900 C   0  0  0  0  0  0  0  0  0  0  0  0
  -27.1890  -28.9623   20.1435 C   0  0  0  0  0  0  0  0  0  0  0  0
  -26.0010  -30.8432   21.2835 C   0  0  0  0  0  0  0  0  0  0  0  0
  -24.7428  -12.9878   21.6762 C   0  0  0  0  0  0  0  0  0  0  0  0
  -27.1464  -14.2155   19.8768 C   0  0  0  0  0  0  0  0  0  0  0  0
  -29.2818  -16.8089   19.2758 C   0  0  0  0  0  0  0  0  0  0  0  0
  -28.7371  -23.2553   19.2033 C   0  0  0  0  0  0  0  0  0  0  0  0
  -23.0545   -8.3633   20.3269 C   0  0  0  0  0  0  0  0  0  0  0  0
  -23.8092  -15.2482   21.0641 C   0  0  0  0  0  0  0  0  0  0  0  0
  -26.6023  -15.4358   22.0170 C   0  0  0  0  0  0  0  0  0  0  0  0
  -24.3989   -9.0857   20.2989 C   0  0  0  0  0  0  0  0  0  0  0  0
  -28.5791  -25.8579   16.7788 C   0  0  0  0  0  0  0  0  0  0  0  0
  -24.6841   -9.7355   21.6492 C   0  0  0  0  0  0  0  0  0  0  0  0
  -27.7461  -26.9440   17.4618 C   0  0  0  0  0  0  0  0  0  0  0  0
  -28.0853  -24.4583   17.1382 C   0  0  0  0  0  0  0  0  0  0  0  0
  -27.1523  -25.2754   19.2679 C   0  0  0  0  0  0  0  0  0  0  0  0
  -23.6226  -10.7884   21.9899 C   0  0  1  0  0  0  0  0  0  0  0  0
  -24.8390  -14.1673   20.7504 C   0  0  1  0  0  0  0  0  0  0  0  0
  -27.6474  -26.7031   18.9802 C   0  0  2  0  0  0  0  0  0  0  0  0
  -25.2550  -23.8506   23.2486 C   0  0  0  0  0  0  0  0  0  0  0  0
  -22.3258  -23.7107   26.3836 C   0  0  0  0  0  0  0  0  0  0  0  0
  -21.3242  -22.5490   24.3830 C   0  0  0  0  0  0  0  0  0  0  0  0
  -26.7991  -19.5847   26.7328 C   0  0  0  0  0  0  0  0  0  0  0  0
  -31.1577  -17.5057   17.7615 C   0  0  0  0  0  0  0  0  0  0  0  0
  -29.2839  -19.8463   22.3639 C   0  0  0  0  0  0  0  0  0  0  0  0
  -29.0546  -12.3893   21.4044 C   0  0  0  0  0  0  0  0  0  0  0  0
  -30.9553  -13.7785   20.5524 C   0  0  0  0  0  0  0  0  0  0  0  0
  -29.4991  -12.5421   18.9481 C   0  0  0  0  0  0  0  0  0  0  0  0
  -27.7493  -19.1241   18.2510 C   0  0  0  0  0  0  0  0  0  0  0  0
  -27.1068  -21.0934   22.1841 C   0  0  0  0  0  0  0  0  0  0  0  0
  -27.1243  -21.5500   23.6495 C   0  0  0  0  0  0  0  0  0  0  0  0
  -29.3084  -22.1631   21.3573 C   0  0  0  0  0  0  0  0  0  0  0  0
  -22.5942  -23.2354   24.9369 C   0  0  0  0  0  0  0  0  0  0  0  0
  -25.9831  -19.4242   25.4565 C   0  0  1  0  0  0  0  0  0  1  0  0
  -28.5886  -14.5845   20.1277 C   0  0  1  0  0  0  0  0  0  0  0  0
  -29.6548  -17.5300   17.9931 C   0  0  2  0  0  0  0  0  0  0  0  0
  -28.4944  -20.8733   21.5424 C   0  0  1  0  0  0  0  0  0  0  0  0
  -29.5032  -13.3356   20.2729 C   0  0  0  0  0  0  0  0  0  0  0  0
  -25.4751  -27.5103   19.8242 N   0  0  0  0  0  0  0  0  0  0  0  0
  -25.8119  -21.6387   24.2545 N   0  0  0  0  0  0  0  0  0  0  0  0
  -26.7866  -27.7527   19.6587 N   0  0  0  0  0  0  0  0  0  0  0  0
  -26.2161  -14.6593   20.8273 N   0  0  0  0  0  0  0  0  0  0  0  0
  -28.0160  -24.2944   18.5923 N   0  0  0  0  0  0  0  0  0  0  0  0
  -28.4747  -29.3652   20.0596 N   0  0  0  0  0  0  0  0  0  0  0  0
  -24.7638  -31.2966   21.7611 N   0  0  0  0  0  0  0  0  0  0  0  0
  -23.8656  -12.0086   21.2507 N   0  0  0  0  0  0  0  0  0  0  0  0
  -28.9737  -15.4847   19.0462 N   0  0  0  0  0  0  0  0  0  0  0  0
  -28.6214  -23.1747   20.5856 N   0  0  0  0  0  0  0  0  0  0  0  0
  -29.2111  -18.9516   18.0502 N   0  3  0  0  0  0  0  0  0  0  0  0
  -27.0101  -31.5796   21.3969 O   0  0  0  0  0  0  0  0  0  0  0  0
  -25.4159  -12.9670   22.7001 O   0  0  0  0  0  0  0  0  0  0  0  0
  -26.8551  -13.5639   18.8708 O   0  0  0  0  0  0  0  0  0  0  0  0
  -29.2689  -17.3639   20.3723 O   0  0  0  0  0  0  0  0  0  0  0  0
  -29.4367  -22.4617   18.5648 O   0  0  0  0  0  0  0  0  0  0  0  0
  -19.6427  -29.1043   21.8221 O   0  0  0  0  0  0  0  0  0  0  0  0
  -25.0659  -18.3460   25.6375 O   0  0  0  0  0  0  0  0  0  1  0  0
  -17.1965  -24.7607   24.1785 F   0  0  0  0  0  0  0  0  0  0  0  0
  -18.5366  -29.2972   24.3483 F   0  0  0  0  0  0  0  0  0  0  0  0
  1  2  1  0  0  0  0
  1  5  2  0  0  0  0
  2  6  2  0  0  0  0
  3  8  2  0  0  0  0
  3 16  1  0  0  0  0
  4  9  1  0  0  0  0
  4 16  2  0  0  0  0
  5 18  1  0  0  0  0
  6 20  1  0  0  0  0
  7 10  2  0  0  0  0
  7 19  1  0  0  0  0
  8 23  1  0  0  0  0
  9 23  2  0  0  0  0
 10 24  1  0  0  0  0
 11 12  2  0  0  0  0
 11 25  1  0  0  0  0
 12 26  1  0  0  0  0
 13 21  1  0  0  0  0
 13 24  2  0  0  0  0
 14 22  1  0  0  0  0
 14 29  2  0  0  0  0
 15 26  2  0  0  0  0
 15 27  1  0  0  0  0
 16 28  1  0  0  0  0
 17 28  1  0  0  0  0
 17 31  2  0  0  0  0
 17 32  1  0  0  0  0
 18 20  2  0  0  0  0
 18 37  1  0  0  0  0
 19 21  2  0  0  0  0
 19 38  1  0  0  0  0
 20 46  1  0  0  0  0
 21 39  1  0  0  0  0
 22 30  2  0  0  0  0
 22 62  1  0  0  0  0
 23 84  1  0  0  0  0
 24 85  1  0  0  0  0
 25 27  2  0  0  0  0
 25 84  1  0  0  0  0
 26 86  1  0  0  0  0
 27 87  1  0  0  0  0
 28 68  2  0  0  0  0
 29 63  1  0  0  0  0
 29 69  1  0  0  0  0
 30 49  1  0  0  0  0
 30 69  1  0  0  0  0
 31 70  1  0  0  0  0
 31 73  1  0  0  0  0
 32 74  1  0  0  0  0
 32 79  2  0  0  0  0
 33 47  1  0  0  0  0
 33 75  1  0  0  0  0
 33 80  2  0  0  0  0
 34 64  1  0  0  0  0
 34 71  1  0  0  0  0
 34 81  2  0  0  0  0
 35 65  1  0  0  0  0
 35 76  1  0  0  0  0
 35 82  2  0  0  0  0
 36 72  1  0  0  0  0
 36 77  1  0  0  0  0
 36 83  2  0  0  0  0
 37 40  1  0  0  0  0
 38 47  1  0  0  0  0
 39 71  1  0  0  0  0
 40 42  1  0  0  0  0
 41 43  1  0  0  0  0
 41 44  1  0  0  0  0
 42 46  1  0  0  0  0
 43 48  1  0  0  0  0
 44 72  1  0  0  0  0
 45 48  1  0  0  0  0
 45 72  1  0  0  0  0
 46 75  1  0  0  0  0
 47 71  1  0  0  0  0
 48 70  1  0  0  0  0
 50 62  1  0  0  0  0
 51 62  1  0  0  0  0
 52 63  1  0  0  0  0
 53 65  1  0  0  0  0
 54 66  1  0  0  0  0
 55 67  1  0  0  0  0
 56 67  1  0  0  0  0
 57 67  1  0  0  0  0
 58 78  1  0  0  0  0
 59 60  1  0  0  0  0
 59 66  1  0  0  0  0
 60 69  1  0  0  0  0
 61 66  1  0  0  0  0
 61 77  1  0  0  0  0
 63 85  1  0  0  0  0
 64 67  1  0  0  0  0
 64 76  1  0  0  0  0
 65 78  1  0  0  0  0
 68 70  1  0  0  0  0
M  CHG  1  78   1
M  ISO  4  36 100  63 101  77 100  85 101
M  END
> <Batch ID>
0089

> <Smiles>
CNC(C)C(=O)NC(C(=O)N1Cc2cc([101O:1][101CH:1](C)c3cc(C(C)C)c(C)n3CCC(C)C[100NH:0][100C:0](=O)N3CCCC(n4nc(-c5ccc(Oc6ccc(F)cc6F)cc5)c(C(N)=O)c4N)C3)ccc2CC1C(=O)NC1CCCc2ccccc21)C(C)(C)C

> <Shape>
0.283

> <Color>
0.053

> <Negative vol penalty>
0.000

$$$$

  -OEChem-04052319063D

 84 92  0     1  0  0  0  0  0999 V2000
  -30.2500  -23.9241   18.2967 C   0  0  0  0  0  0  0  0  0  0  0  0
  -28.8762  -23.8831   18.5120 C   0  0  0  0  0  0  0  0  0  0  0  0
  -26.2481  -13.8498   21.6979 C   0  0  0  0  0  0  0  0  0  0  0  0
  -24.3300  -13.8123   20.2295 C   0  0  0  0  0  0  0  0  0  0  0  0
  -31.0694  -24.6436   19.1654 C   0  0  0  0  0  0  0  0  0  0  0  0
  -28.3211  -24.5606   19.5970 C   0  0  0  0  0  0  0  0  0  0  0  0
  -22.8699  -27.3443   19.8012 C   0  0  0  0  0  0  0  0  0  0  0  0
  -25.7957  -12.6856   22.3187 C   0  0  0  0  0  0  0  0  0  0  0  0
  -23.8775  -12.6480   20.8502 C   0  0  0  0  0  0  0  0  0  0  0  0
  -21.6307  -26.9447   20.2997 C   0  0  0  0  0  0  0  0  0  0  0  0
  -22.4045   -9.4652   21.8084 C   0  0  0  0  0  0  0  0  0  0  0  0
  -21.9487   -8.4296   20.9927 C   0  0  0  0  0  0  0  0  0  0  0  0
  -22.0953  -28.1015   22.3649 C   0  0  0  0  0  0  0  0  0  0  0  0
  -24.1189   -8.3048   19.9384 C   0  0  0  0  0  0  0  0  0  0  0  0
  -20.1699  -22.2160   19.3537 C   0  0  0  0  0  0  0  0  0  0  0  0
  -25.5152  -14.4133   20.6533 C   0  0  0  0  0  0  0  0  0  0  0  0
  -26.8343  -15.7087   18.8957 C   0  0  0  0  0  0  0  0  0  0  0  0
  -30.5230  -25.3383   20.2561 C   0  0  0  0  0  0  0  0  0  0  0  0
  -23.7371  -28.1176   20.5862 C   0  0  0  0  0  0  0  0  0  0  0  0
  -29.1341  -25.2890   20.4820 C   0  0  0  0  0  0  0  0  0  0  0  0
  -23.3438  -28.5117   21.8731 C   0  0  0  0  0  0  0  0  0  0  0  0
  -24.6104  -12.0846   21.8948 C   0  0  0  0  0  0  0  0  0  0  0  0
  -21.2445  -27.3208   21.5828 C   0  0  0  0  0  0  0  0  0  0  0  0
  -23.7175   -9.9207   21.6891 C   0  0  0  0  0  0  0  0  0  0  0  0
  -22.8059   -7.8494   20.0577 C   0  0  0  0  0  0  0  0  0  0  0  0
  -24.5747   -9.3404   20.7541 C   0  0  0  0  0  0  0  0  0  0  0  0
  -25.9817  -15.6163   20.0121 C   0  0  0  0  0  0  0  0  0  0  0  0
  -21.3818  -21.9328   18.7897 C   0  0  0  0  0  0  0  0  0  0  0  0
  -26.9722  -17.0581   18.6798 C   0  0  0  0  0  0  0  0  0  0  0  0
  -20.3510  -23.4012   17.4928 C   0  0  0  0  0  0  0  0  0  0  0  0
  -27.4469  -14.6679   18.1229 C   0  0  0  0  0  0  0  0  0  0  0  0
  -26.6555  -27.7045   21.7762 C   0  0  0  0  0  0  0  0  0  0  0  0
  -23.4680  -21.7280   20.1027 C   0  0  0  0  0  0  0  0  0  0  0  0
  -26.3006  -30.7984   22.6838 C   0  0  0  0  0  0  0  0  0  0  0  0
  -24.1908  -33.3697   23.4481 C   0  0  0  0  0  0  0  0  0  0  0  0
  -31.4542  -26.0635   21.1951 C   0  0  0  0  0  0  0  0  0  0  0  0
  -25.0592  -28.5630   20.0239 C   0  0  0  0  0  0  0  0  0  0  0  0
  -24.2297  -29.3587   22.7485 C   0  0  0  0  0  0  0  0  0  0  0  0
  -30.7446  -27.0624   22.1056 C   0  0  0  0  0  0  0  0  0  0  0  0
  -26.9119  -21.2500   20.9695 C   0  0  0  0  0  0  0  0  0  0  0  0
  -29.4976  -26.4334   22.7189 C   0  0  0  0  0  0  0  0  0  0  0  0
  -27.1335  -19.7543   20.7481 C   0  0  0  0  0  0  0  0  0  0  0  0
  -25.5063  -21.5352   21.4893 C   0  0  0  0  0  0  0  0  0  0  0  0
  -24.6362  -19.4885   20.4051 C   0  0  0  0  0  0  0  0  0  0  0  0
  -28.4917  -26.0315   21.6336 C   0  0  1  0  0  0  0  0  0  0  0  0
  -26.0784  -28.9172   21.1024 C   0  0  1  0  0  0  0  0  0  0  0  0
  -26.0337  -19.1594   19.8509 C   0  0  2  0  0  0  0  0  0  0  0  0
  -20.0189  -23.6209   15.0038 C   0  0  0  0  0  0  0  0  0  0  0  0
  -21.0672  -25.5071   16.3070 C   0  0  0  0  0  0  0  0  0  0  0  0
  -24.1948  -35.7668   24.1906 C   0  0  0  0  0  0  0  0  0  0  0  0
  -17.6605  -27.1069   21.7951 C   0  0  0  0  0  0  0  0  0  0  0  0
  -27.0013  -29.9163   25.5194 C   0  0  0  0  0  0  0  0  0  0  0  0
  -26.0773  -32.0901   26.3494 C   0  0  0  0  0  0  0  0  0  0  0  0
  -28.0418  -32.0776   24.8122 C   0  0  0  0  0  0  0  0  0  0  0  0
  -22.7920  -34.2533   20.9942 C   0  0  0  0  0  0  0  0  0  0  0  0
  -22.4623  -21.0393   19.2149 C   0  0  0  0  0  0  0  0  0  0  0  0
  -18.2251  -25.1658   19.2870 C   0  0  0  0  0  0  0  0  0  0  0  0
  -18.9785  -25.3029   20.6169 C   0  0  0  0  0  0  0  0  0  0  0  0
  -18.1890  -23.7244   18.7657 C   0  0  0  0  0  0  0  0  0  0  0  0
  -20.0684  -24.3325   16.3723 C   0  0  0  0  0  0  0  0  0  0  0  0
  -25.7543  -31.4985   23.9046 C   0  0  1  0  0  0  0  0  0  0  0  0
  -24.1672  -34.8202   23.0007 C   0  0  2  0  0  0  0  0  0  0  0  0
  -18.9815  -26.7480   21.1281 C   0  0  2  0  0  0  0  0  0  1  0  0
  -26.7026  -31.3780   25.1309 C   0  0  0  0  0  0  0  0  0  0  0  0
  -25.6046  -16.8117   20.4733 N   0  0  0  0  0  0  0  0  0  0  0  0
  -19.5537  -23.1275   18.5305 N   0  0  0  0  0  0  0  0  0  0  0  0
  -26.2232  -17.6681   19.6426 N   0  0  0  0  0  0  0  0  0  0  0  0
  -21.4670  -22.6798   17.6396 N   0  3  0  0  0  0  0  0  0  0  0  0
  -25.5153  -29.7637   22.1561 N   0  0  0  0  0  0  0  0  0  0  0  0
  -24.4912  -20.9347   20.6220 N   0  0  0  0  0  0  0  0  0  0  0  0
  -27.6598  -17.7705   17.7621 N   0  0  0  0  0  0  0  0  0  0  0  0
  -27.1995  -13.3358   18.4814 N   0  0  0  0  0  0  0  0  0  0  0  0
  -27.7772  -27.1939   21.1512 N   0  0  0  0  0  0  0  0  0  0  0  0
  -25.4755  -32.8714   23.4974 N   0  0  0  0  0  0  0  0  0  0  0  0
  -22.9362  -35.0977   22.2079 N   0  3  0  0  0  0  0  0  0  0  0  0
  -28.2047  -14.9123   17.1536 O   0  0  0  0  0  0  0  0  0  0  0  0
  -26.1234  -27.2654   22.7890 O   0  0  0  0  0  0  0  0  0  0  0  0
  -23.3479  -22.9358   20.3244 O   0  0  0  0  0  0  0  0  0  0  0  0
  -27.3808  -31.1612   22.2114 O   0  0  0  0  0  0  0  0  0  0  0  0
  -23.1719  -32.7427   23.7294 O   0  0  0  0  0  0  0  0  0  0  0  0
  -24.1688  -10.9483   22.5002 O   0  0  0  0  0  0  0  0  0  0  0  0
  -20.0358  -26.9316   22.0721 O   0  0  0  0  0  0  0  0  0  1  0  0
  -22.3685   -6.8539   19.2755 F   0  0  0  0  0  0  0  0  0  0  0  0
  -25.8376   -9.7730   20.6357 F   0  0  0  0  0  0  0  0  0  0  0  0
  1  2  1  0  0  0  0
  1  5  2  0  0  0  0
  2  6  2  0  0  0  0
  3  8  2  0  0  0  0
  3 16  1  0  0  0  0
  4  9  1  0  0  0  0
  4 16  2  0  0  0  0
  5 18  1  0  0  0  0
  6 20  1  0  0  0  0
  7 10  2  0  0  0  0
  7 19  1  0  0  0  0
  8 22  1  0  0  0  0
  9 22  2  0  0  0  0
 10 23  1  0  0  0  0
 11 12  2  0  0  0  0
 11 24  1  0  0  0  0
 12 25  1  0  0  0  0
 13 21  1  0  0  0  0
 13 23  2  0  0  0  0
 14 25  2  0  0  0  0
 14 26  1  0  0  0  0
 15 28  2  0  0  0  0
 15 66  1  0  0  0  0
 16 27  1  0  0  0  0
 17 27  1  0  0  0  0
 17 29  2  0  0  0  0
 17 31  1  0  0  0  0
 18 20  2  0  0  0  0
 18 36  1  0  0  0  0
 19 21  2  0  0  0  0
 19 37  1  0  0  0  0
 20 45  1  0  0  0  0
 21 38  1  0  0  0  0
 22 81  1  0  0  0  0
 23 82  1  0  0  0  0
 24 26  2  0  0  0  0
 24 81  1  0  0  0  0
 25 83  1  0  0  0  0
 26 84  1  0  0  0  0
 27 65  2  0  0  0  0
 28 56  1  0  0  0  0
 28 68  1  0  0  0  0
 29 67  1  0  0  0  0
 29 71  1  0  0  0  0
 30 60  1  0  0  0  0
 30 66  1  0  0  0  0
 30 68  2  0  0  0  0
 31 72  1  0  0  0  0
 31 76  2  0  0  0  0
 32 46  1  0  0  0  0
 32 73  1  0  0  0  0
 32 77  2  0  0  0  0
 33 56  1  0  0  0  0
 33 70  1  0  0  0  0
 33 78  2  0  0  0  0
 34 61  1  0  0  0  0
 34 69  1  0  0  0  0
 34 79  2  0  0  0  0
 35 62  1  0  0  0  0
 35 74  1  0  0  0  0
 35 80  2  0  0  0  0
 36 39  1  0  0  0  0
 37 46  1  0  0  0  0
 38 69  1  0  0  0  0
 39 41  1  0  0  0  0
 40 42  1  0  0  0  0
 40 43  1  0  0  0  0
 41 45  1  0  0  0  0
 42 47  1  0  0  0  0
 43 70  1  0  0  0  0
 44 47  1  0  0  0  0
 44 70  1  0  0  0  0
 45 73  1  0  0  0  0
 46 69  1  0  0  0  0
 47 67  1  0  0  0  0
 48 60  1  0  0  0  0
 49 60  1  0  0  0  0
 50 62  1  0  0  0  0
 51 63  1  0  0  0  0
 52 64  1  0  0  0  0
 53 64  1  0  0  0  0
 54 64  1  0  0  0  0
 55 75  1  0  0  0  0
 57 58  1  0  0  0  0
 57 59  1  0  0  0  0
 58 63  1  0  0  0  0
 59 66  1  0  0  0  0
 61 64  1  0  0  0  0
 61 74  1  0  0  0  0
 62 75  1  0  0  0  0
 63 82  1  0  0  0  0
 65 67  1  0  0  0  0
M  CHG  2  68   1  75   1
M  ISO  4  33 100  56 100  63 101  82 101
M  END
> <Batch ID>
0089

> <Smiles>
CNC(C)C(=O)NC(C(=O)N1Cc2cc([101O:1][101CH:1](C)CCCn3cc([100CH2:0][100C:0](=O)N4CCCC(n5nc(-c6ccc(Oc7ccc(F)cc7F)cc6)c(C(N)=O)c5N)C4)nc3C(C)C)ccc2CC1C(=O)NC1CCCc2ccccc21)C(C)(C)C

> <Shape>
0.259

> <Color>
0.061

> <Negative vol penalty>
0.000

$$$$

  -OEChem-04052319063D

 94103  0     1  0  0  0  0  0999 V2000
  -18.7408  -25.4282   24.2622 C   0  0  0  0  0  0  0  0  0  0  0  0
  -20.1013  -25.5922   24.0227 C   0  0  0  0  0  0  0  0  0  0  0  0
  -24.5393   -9.5741   21.6919 C   0  0  0  0  0  0  0  0  0  0  0  0
  -22.6877  -10.5987   20.5263 C   0  0  0  0  0  0  0  0  0  0  0  0
  -17.8206  -26.2911   23.6683 C   0  0  0  0  0  0  0  0  0  0  0  0
  -20.5425  -26.6185   23.1881 C   0  0  0  0  0  0  0  0  0  0  0  0
  -24.5160  -29.1067   25.1025 C   0  0  0  0  0  0  0  0  0  0  0  0
  -23.8051   -8.3953   21.8220 C   0  0  0  0  0  0  0  0  0  0  0  0
  -21.9535   -9.4199   20.6563 C   0  0  0  0  0  0  0  0  0  0  0  0
  -25.7633  -28.4932   24.9954 C   0  0  0  0  0  0  0  0  0  0  0  0
  -22.9762   -5.7505   19.8853 C   0  0  0  0  0  0  0  0  0  0  0  0
  -23.6253   -4.5483   19.6044 C   0  0  0  0  0  0  0  0  0  0  0  0
  -27.6777  -22.7691   21.5624 C   0  0  0  0  0  0  0  0  0  0  0  0
  -26.2778  -29.8849   23.0934 C   0  0  0  0  0  0  0  0  0  0  0  0
  -26.4036  -24.7816   21.9672 C   0  0  0  0  0  0  0  0  0  0  0  0
  -23.2028   -3.7931   21.8601 C   0  0  0  0  0  0  0  0  0  0  0  0
  -23.9805  -10.6759   21.0441 C   0  0  0  0  0  0  0  0  0  0  0  0
  -25.5988  -12.2480   19.8535 C   0  0  0  0  0  0  0  0  0  0  0  0
  -18.2514  -27.3345   22.8337 C   0  0  0  0  0  0  0  0  0  0  0  0
  -24.1352  -30.1081   24.1977 C   0  0  0  0  0  0  0  0  0  0  0  0
  -19.6272  -27.4953   22.5814 C   0  0  0  0  0  0  0  0  0  0  0  0
  -27.1578  -22.6999   20.2700 C   0  0  0  0  0  0  0  0  0  0  0  0
  -25.0261  -30.5114   23.1928 C   0  0  0  0  0  0  0  0  0  0  0  0
  -27.3006  -23.8099   22.4111 C   0  0  0  0  0  0  0  0  0  0  0  0
  -25.8837  -24.7124   20.6747 C   0  0  0  0  0  0  0  0  0  0  0  0
  -26.2608  -23.6716   19.8261 C   0  0  0  0  0  0  0  0  0  0  0  0
  -22.5123   -8.3181   21.3041 C   0  0  0  0  0  0  0  0  0  0  0  0
  -26.6433  -28.8802   23.9889 C   0  0  0  0  0  0  0  0  0  0  0  0
  -22.4405   -5.9741   21.1536 C   0  0  0  0  0  0  0  0  0  0  0  0
  -23.7386   -3.5696   20.5918 C   0  0  0  0  0  0  0  0  0  0  0  0
  -22.5537   -4.9954   22.1410 C   0  0  0  0  0  0  0  0  0  0  0  0
  -24.7382  -11.8941   20.9099 C   0  0  0  0  0  0  0  0  0  0  0  0
  -26.0700  -13.4917   20.1965 C   0  0  0  0  0  0  0  0  0  0  0  0
  -25.9415  -11.5178   18.6682 C   0  0  0  0  0  0  0  0  0  0  0  0
  -21.8150  -30.4248   22.0483 C   0  0  0  0  0  0  0  0  0  0  0  0
  -22.9973  -33.4344   21.7897 C   0  0  0  0  0  0  0  0  0  0  0  0
  -25.6482  -35.5488   22.1755 C   0  0  0  0  0  0  0  0  0  0  0  0
  -25.2172  -18.6542   22.1374 C   0  0  0  0  0  0  0  0  0  0  0  0
  -17.2163  -28.2127   22.1765 C   0  0  0  0  0  0  0  0  0  0  0  0
  -22.7968  -30.7788   24.3433 C   0  0  0  0  0  0  0  0  0  0  0  0
  -24.6733  -31.5957   22.2087 C   0  0  0  0  0  0  0  0  0  0  0  0
  -17.7900  -29.5063   21.6038 C   0  0  0  0  0  0  0  0  0  0  0  0
  -29.6245  -20.5213   18.2988 C   0  0  0  0  0  0  0  0  0  0  0  0
  -29.2642  -19.1754   18.9141 C   0  0  0  0  0  0  0  0  0  0  0  0
  -25.7091  -16.0680   24.5345 C   0  0  0  0  0  0  0  0  0  0  0  0
  -29.0981  -21.6764   19.1445 C   0  0  0  0  0  0  0  0  0  0  0  0
  -19.0595  -29.2208   20.8076 C   0  0  0  0  0  0  0  0  0  0  0  0
  -27.7602  -19.0468   19.1304 C   0  0  0  0  0  0  0  0  0  0  0  0
  -25.5652  -14.7816   23.7195 C   0  0  0  0  0  0  0  0  0  0  0  0
  -24.7490  -17.1527   24.0512 C   0  0  0  0  0  0  0  0  0  0  0  0
  -24.6839  -16.1654   21.7941 C   0  0  0  0  0  0  0  0  0  0  0  0
  -27.5768  -21.5748   19.3812 C   0  0  1  0  0  0  0  0  0  0  0  0
  -20.1463  -28.6120   21.7019 C   0  0  1  0  0  0  0  0  0  0  0  0
  -22.3102  -31.4280   23.0513 C   0  0  1  0  0  0  0  0  0  0  0  0
  -27.1965  -20.1947   19.9870 C   0  0  1  0  0  0  0  0  0  0  0  0
  -25.6709  -15.0606   22.2081 C   0  0  2  0  0  0  0  0  0  0  0  0
  -25.7033  -23.5975   18.4402 C   0  0  0  0  0  0  0  0  0  0  0  0
  -26.3225  -37.9433   21.8447 C   0  0  0  0  0  0  0  0  0  0  0  0
  -30.4120  -26.8602   23.7577 C   0  0  0  0  0  0  0  0  0  0  0  0
  -24.6668  -26.8119   21.3508 C   0  0  0  0  0  0  0  0  0  0  0  0
  -23.5494  -25.1447   19.8316 C   0  0  0  0  0  0  0  0  0  0  0  0
  -25.3796  -26.5953   18.9788 C   0  0  0  0  0  0  0  0  0  0  0  0
  -23.2223  -32.9535   18.7850 C   0  0  0  0  0  0  0  0  0  0  0  0
  -24.7410  -34.9394   18.6514 C   0  0  0  0  0  0  0  0  0  0  0  0
  -22.3843  -35.2231   19.4184 C   0  0  0  0  0  0  0  0  0  0  0  0
  -26.2010  -35.9128   25.0601 C   0  0  0  0  0  0  0  0  0  0  0  0
  -27.8634  -23.8856   23.8084 C   0  0  0  0  0  0  0  0  0  0  0  0
  -25.6785  -20.0275   20.1223 C   0  0  0  0  0  0  0  0  0  0  0  0
  -29.1671  -24.6892   23.9132 C   0  0  0  0  0  0  0  0  0  0  0  0
  -27.9590  -26.9258   24.3131 C   0  0  0  0  0  0  0  0  0  1  0  0
  -24.0573  -34.0976   20.9437 C   0  0  1  0  0  0  0  0  0  0  0  0
  -25.7579  -36.9199   22.8177 C   0  0  2  0  0  0  0  0  0  0  0  0
  -29.0537  -26.1827   23.5354 C   0  0  1  0  0  0  0  0  0  0  0  0
  -24.9251  -25.7655   20.2239 C   0  0  0  0  0  0  0  0  0  0  0  0
  -23.6074  -34.2816   19.4668 C   0  0  0  0  0  0  0  0  0  0  0  0
  -24.6652  -12.8368   21.8534 N   0  0  0  0  0  0  0  0  0  0  0  0
  -25.4860  -13.7952   21.3911 N   0  0  0  0  0  0  0  0  0  0  0  0
  -23.3506  -32.2168   22.3884 N   0  0  0  0  0  0  0  0  0  0  0  0
  -24.9009  -17.3700   22.6105 N   0  0  0  0  0  0  0  0  0  0  0  0
  -26.9228  -14.3444   19.5897 N   0  0  0  0  0  0  0  0  0  0  0  0
  -25.3670  -10.2546   18.4720 N   0  0  0  0  0  0  0  0  0  0  0  0
  -20.7739  -29.6393   22.5051 N   0  0  0  0  0  0  0  0  0  0  0  0
  -24.4020  -35.3420   21.6228 N   0  0  0  0  0  0  0  0  0  0  0  0
  -25.3493  -18.7718   20.7591 N   0  0  0  0  0  0  0  0  0  0  0  0
  -26.6497  -36.8634   24.0104 N   0  3  0  0  0  0  0  0  0  0  0  0
  -26.7465  -11.9651   17.8164 O   0  0  0  0  0  0  0  0  0  0  0  0
  -22.3377  -30.3686   20.9414 O   0  0  0  0  0  0  0  0  0  0  0  0
  -21.8989  -33.9802   21.9205 O   0  0  0  0  0  0  0  0  0  0  0  0
  -26.5765  -34.7434   22.1619 O   0  0  0  0  0  0  0  0  0  0  0  0
  -25.3757  -19.6229   22.8879 O   0  0  0  0  0  0  0  0  0  0  0  0
  -21.7957   -7.1679   21.4307 O   0  0  0  0  0  0  0  0  0  0  0  0
  -27.8611  -28.2825   23.8816 O   0  0  0  0  0  0  0  0  0  1  0  0
  -24.3606   -2.4145   20.3214 F   0  0  0  0  0  0  0  0  0  0  0  0
  -22.0400   -5.2040   23.3610 F   0  0  0  0  0  0  0  0  0  0  0  0
  1  2  1  0  0  0  0
  1  5  2  0  0  0  0
  2  6  2  0  0  0  0
  3  8  2  0  0  0  0
  3 17  1  0  0  0  0
  4  9  1  0  0  0  0
  4 17  2  0  0  0  0
  5 19  1  0  0  0  0
  6 21  1  0  0  0  0
  7 10  2  0  0  0  0
  7 20  1  0  0  0  0
  8 27  1  0  0  0  0
  9 27  2  0  0  0  0
 10 28  1  0  0  0  0
 11 12  2  0  0  0  0
 11 29  1  0  0  0  0
 12 30  1  0  0  0  0
 13 22  2  0  0  0  0
 13 24  1  0  0  0  0
 14 23  1  0  0  0  0
 14 28  2  0  0  0  0
 15 24  2  0  0  0  0
 15 25  1  0  0  0  0
 16 30  2  0  0  0  0
 16 31  1  0  0  0  0
 17 32  1  0  0  0  0
 18 32  1  0  0  0  0
 18 33  2  0  0  0  0
 18 34  1  0  0  0  0
 19 21  2  0  0  0  0
 19 39  1  0  0  0  0
 20 23  2  0  0  0  0
 20 40  1  0  0  0  0
 21 53  1  0  0  0  0
 22 26  1  0  0  0  0
 22 52  1  0  0  0  0
 23 41  1  0  0  0  0
 24 67  1  0  0  0  0
 25 26  2  0  0  0  0
 25 74  1  0  0  0  0
 26 57  1  0  0  0  0
 27 91  1  0  0  0  0
 28 92  1  0  0  0  0
 29 31  2  0  0  0  0
 29 91  1  0  0  0  0
 30 93  1  0  0  0  0
 31 94  1  0  0  0  0
 32 76  2  0  0  0  0
 33 77  1  0  0  0  0
 33 80  1  0  0  0  0
 34 81  1  0  0  0  0
 34 86  2  0  0  0  0
 35 54  1  0  0  0  0
 35 82  1  0  0  0  0
 35 87  2  0  0  0  0
 36 71  1  0  0  0  0
 36 78  1  0  0  0  0
 36 88  2  0  0  0  0
 37 72  1  0  0  0  0
 37 83  1  0  0  0  0
 37 89  2  0  0  0  0
 38 79  1  0  0  0  0
 38 84  1  0  0  0  0
 38 90  2  0  0  0  0
 39 42  1  0  0  0  0
 40 54  1  0  0  0  0
 41 78  1  0  0  0  0
 42 47  1  0  0  0  0
 43 44  1  0  0  0  0
 43 46  1  0  0  0  0
 44 48  1  0  0  0  0
 45 49  1  0  0  0  0
 45 50  1  0  0  0  0
 46 52  1  0  0  0  0
 47 53  1  0  0  0  0
 48 55  1  0  0  0  0
 49 56  1  0  0  0  0
 50 79  1  0  0  0  0
 51 56  1  0  0  0  0
 51 79  1  0  0  0  0
 52 55  1  0  0  0  0
 53 82  1  0  0  0  0
 54 78  1  0  0  0  0
 55 68  1  0  0  0  0
 56 77  1  0  0  0  0
 58 72  1  0  0  0  0
 59 73  1  0  0  0  0
 60 74  1  0  0  0  0
 61 74  1  0  0  0  0
 62 74  1  0  0  0  0
 63 75  1  0  0  0  0
 64 75  1  0  0  0  0
 65 75  1  0  0  0  0
 66 85  1  0  0  0  0
 67 69  1  0  0  0  0
 68 84  1  0  0  0  0
 69 73  1  0  0  0  0
 70 73  1  0  0  0  0
 70 92  1  0  0  0  0
 71 75  1  0  0  0  0
 71 83  1  0  0  0  0
 72 85  1  0  0  0  0
 76 77  1  0  0  0  0
M  CHG  1  85   1
M  ISO  4  38 100  70 101  84 100  92 101
M  END
> <Batch ID>
0089

> <Smiles>
CNC(C)C(=O)NC(C(=O)N1Cc2cc([101O:1][101CH2:1]C(C)CCc3cc(C4CCCCC4C[100NH:0][100C:0](=O)N4CCCC(n5nc(-c6ccc(Oc7ccc(F)cc7F)cc6)c(C(N)=O)c5N)C4)c(C)c(C(C)(C)C)c3)ccc2CC1C(=O)NC1CCCc2ccccc21)C(C)(C)C

> <Shape>
0.249

> <Color>
0.122

> <Negative vol penalty>
0.000

$$$$

  -OEChem-04052319063D

 89 97  0     1  0  0  0  0  0999 V2000
  -32.1202  -26.9850   25.4183 C   0  0  0  0  0  0  0  0  0  0  0  0
  -31.4981  -26.6663   24.2155 C   0  0  0  0  0  0  0  0  0  0  0  0
  -26.1413  -13.7323   21.8203 C   0  0  0  0  0  0  0  0  0  0  0  0
  -24.9246  -15.0650   20.2140 C   0  0  0  0  0  0  0  0  0  0  0  0
  -31.3638  -27.1008   26.5838 C   0  0  0  0  0  0  0  0  0  0  0  0
  -30.1192  -26.4621   24.1777 C   0  0  0  0  0  0  0  0  0  0  0  0
  -27.9191  -28.7795   20.2491 C   0  0  0  0  0  0  0  0  0  0  0  0
  -25.0600  -12.8561   21.9124 C   0  0  0  0  0  0  0  0  0  0  0  0
  -23.8432  -14.1888   20.3061 C   0  0  0  0  0  0  0  0  0  0  0  0
  -28.0367  -28.1679   19.0017 C   0  0  0  0  0  0  0  0  0  0  0  0
  -23.7580  -10.3081   20.1108 C   0  0  0  0  0  0  0  0  0  0  0  0
  -24.0280   -8.9400   20.0824 C   0  0  0  0  0  0  0  0  0  0  0  0
  -25.8119  -27.2664   19.2409 C   0  0  0  0  0  0  0  0  0  0  0  0
  -29.7906  -24.6300   16.1338 C   0  0  0  0  0  0  0  0  0  0  0  0
  -23.0294   -8.6974   22.2690 C   0  0  0  0  0  0  0  0  0  0  0  0
  -26.0736  -14.8368   20.9711 C   0  0  0  0  0  0  0  0  0  0  0  0
  -28.2771  -15.6615   19.9850 C   0  0  0  0  0  0  0  0  0  0  0  0
  -29.9736  -26.9074   26.5585 C   0  0  0  0  0  0  0  0  0  0  0  0
  -26.7494  -28.6300   21.0078 C   0  0  0  0  0  0  0  0  0  0  0  0
  -29.3437  -26.5741   25.3442 C   0  0  0  0  0  0  0  0  0  0  0  0
  -25.6811  -27.8793   20.4964 C   0  0  0  0  0  0  0  0  0  0  0  0
  -28.5425  -24.3218   16.7293 C   0  0  0  0  0  0  0  0  0  0  0  0
  -23.9109  -13.0843   21.1553 C   0  0  0  0  0  0  0  0  0  0  0  0
  -26.9841  -27.4088   18.4987 C   0  0  0  0  0  0  0  0  0  0  0  0
  -23.1237  -10.8710   21.2184 C   0  0  0  0  0  0  0  0  0  0  0  0
  -23.6637   -8.1346   21.1614 C   0  0  0  0  0  0  0  0  0  0  0  0
  -22.7595  -10.0656   22.2975 C   0  0  0  0  0  0  0  0  0  0  0  0
  -27.1901  -15.7426   20.8759 C   0  0  0  0  0  0  0  0  0  0  0  0
  -30.7750  -24.1732   16.9821 C   0  0  0  0  0  0  0  0  0  0  0  0
  -28.8023  -23.6863   17.9234 C   0  0  0  0  0  0  0  0  0  0  0  0
  -29.0570  -16.7487   20.2950 C   0  0  0  0  0  0  0  0  0  0  0  0
  -28.5566  -14.6902   18.9680 C   0  0  0  0  0  0  0  0  0  0  0  0
  -26.0624  -27.3788   23.8479 C   0  0  0  0  0  0  0  0  0  0  0  0
  -23.1221  -28.6083   23.2439 C   0  0  0  0  0  0  0  0  0  0  0  0
  -20.8409  -29.6620   20.9346 C   0  0  0  0  0  0  0  0  0  0  0  0
  -27.8534  -22.0439   22.8174 C   0  0  0  0  0  0  0  0  0  0  0  0
  -29.2046  -26.9968   27.8528 C   0  0  0  0  0  0  0  0  0  0  0  0
  -26.6280  -29.3182   22.3397 C   0  0  0  0  0  0  0  0  0  0  0  0
  -24.3962  -27.7046   21.2626 C   0  0  0  0  0  0  0  0  0  0  0  0
  -27.6968  -27.1332   27.6572 C   0  0  0  0  0  0  0  0  0  0  0  0
  -30.1998  -19.6172   23.9496 C   0  0  0  0  0  0  0  0  0  0  0  0
  -27.1988  -26.1252   26.6263 C   0  0  0  0  0  0  0  0  0  0  0  0
  -29.7926  -18.3417   23.2099 C   0  0  0  0  0  0  0  0  0  0  0  0
  -28.9843  -20.4537   24.3433 C   0  0  0  0  0  0  0  0  0  0  0  0
  -27.6630  -19.5033   22.4928 C   0  0  0  0  0  0  0  0  0  0  0  0
  -27.8467  -26.3695   25.2581 C   0  0  1  0  0  0  0  0  0  0  0  0
  -25.5889  -28.6744   23.2524 C   0  0  1  0  0  0  0  0  0  0  0  0
  -28.8578  -18.6543   22.0259 C   0  0  2  0  0  0  0  0  0  0  0  0
  -32.0909  -20.9901   20.0553 C   0  0  0  0  0  0  0  0  0  0  0  0
  -32.7857  -25.6823   16.8005 C   0  0  0  0  0  0  0  0  0  0  0  0
  -32.7705  -23.4552   15.6195 C   0  0  0  0  0  0  0  0  0  0  0  0
  -18.5125  -30.5777   20.7414 C   0  0  0  0  0  0  0  0  0  0  0  0
  -26.2817  -23.3879   15.8953 C   0  0  0  0  0  0  0  0  0  0  0  0
  -27.3337  -25.3414   14.7751 C   0  0  0  0  0  0  0  0  0  0  0  0
  -21.9866  -25.8275   23.7807 C   0  0  0  0  0  0  0  0  0  0  0  0
  -19.8642  -26.5560   22.6703 C   0  0  0  0  0  0  0  0  0  0  0  0
  -20.6442  -27.7059   24.7420 C   0  0  0  0  0  0  0  0  0  0  0  0
  -21.8036  -32.1607   19.6742 C   0  0  0  0  0  0  0  0  0  0  0  0
  -27.8715  -23.1523   18.9405 C   0  0  0  0  0  0  0  0  0  0  0  0
  -31.3847  -21.6097   18.8606 C   0  0  0  0  0  0  0  0  0  0  0  0
  -27.6722  -24.0569   20.1794 C   0  0  0  0  0  0  0  0  0  0  0  0
  -30.8484  -23.0007   19.1914 C   0  0  0  0  0  0  0  0  0  0  0  0
  -26.6747  -23.5092   21.1978 C   0  0  0  0  0  0  0  0  0  0  0  0
  -26.3774  -25.5929   17.0879 C   0  0  0  0  0  0  0  0  0  1  0  0
  -32.2449  -24.2349   16.8465 C   0  0  0  0  0  0  0  0  0  0  0  0
  -21.8706  -28.1035   22.5671 C   0  0  1  0  0  0  0  0  0  0  0  0
  -19.9902  -30.9170   20.8590 C   0  0  2  0  0  0  0  0  0  0  0  0
  -27.1550  -24.6416   16.1421 C   0  0  0  0  0  0  0  0  0  0  0  0
  -21.1162  -27.0497   23.4262 C   0  0  0  0  0  0  0  0  0  0  0  0
  -27.2691  -16.7979   21.6909 N   0  0  0  0  0  0  0  0  0  0  0  0
  -30.1626  -23.6017   18.0668 N   0  0  0  0  0  0  0  0  0  0  0  0
  -28.4150  -17.3898   21.3133 N   0  0  0  0  0  0  0  0  0  0  0  0
  -24.3284  -28.3919   22.5628 N   0  0  0  0  0  0  0  0  0  0  0  0
  -28.1399  -20.7163   23.1754 N   0  0  0  0  0  0  0  0  0  0  0  0
  -30.2225  -17.2093   19.7931 N   0  0  0  0  0  0  0  0  0  0  0  0
  -27.6502  -13.6375   18.7823 N   0  0  0  0  0  0  0  0  0  0  0  0
  -27.2193  -27.4925   24.5950 N   0  0  0  0  0  0  0  0  0  0  0  0
  -21.0792  -29.2844   22.2392 N   0  0  0  0  0  0  0  0  0  0  0  0
  -27.0513  -22.2043   21.6941 N   0  0  0  0  0  0  0  0  0  0  0  0
  -20.3798  -31.7365   19.6768 N   0  3  0  0  0  0  0  0  0  0  0  0
  -29.5883  -14.7449   18.2565 O   0  0  0  0  0  0  0  0  0  0  0  0
  -25.4246  -26.3521   23.6458 O   0  0  0  0  0  0  0  0  0  0  0  0
  -23.0319  -29.1800   24.3332 O   0  0  0  0  0  0  0  0  0  0  0  0
  -21.2497  -29.0733   19.9362 O   0  0  0  0  0  0  0  0  0  0  0  0
  -28.2850  -23.0146   23.4486 O   0  0  0  0  0  0  0  0  0  0  0  0
  -22.8556  -12.2293   21.2448 O   0  0  0  0  0  0  0  0  0  0  0  0
  -27.0964  -26.8102   17.2818 O   0  0  0  0  0  0  0  0  0  1  0  0
  -23.9217   -6.8205   21.1333 F   0  0  0  0  0  0  0  0  0  0  0  0
  -22.1488  -10.6005   23.3637 F   0  0  0  0  0  0  0  0  0  0  0  0
  1  2  1  0  0  0  0
  1  5  2  0  0  0  0
  2  6  2  0  0  0  0
  3  8  2  0  0  0  0
  3 16  1  0  0  0  0
  4  9  1  0  0  0  0
  4 16  2  0  0  0  0
  5 18  1  0  0  0  0
  6 20  1  0  0  0  0
  7 10  2  0  0  0  0
  7 19  1  0  0  0  0
  8 23  1  0  0  0  0
  9 23  2  0  0  0  0
 10 24  1  0  0  0  0
 11 12  2  0  0  0  0
 11 25  1  0  0  0  0
 12 26  1  0  0  0  0
 13 21  1  0  0  0  0
 13 24  2  0  0  0  0
 14 22  1  0  0  0  0
 14 29  2  0  0  0  0
 15 26  2  0  0  0  0
 15 27  1  0  0  0  0
 16 28  1  0  0  0  0
 17 28  1  0  0  0  0
 17 31  2  0  0  0  0
 17 32  1  0  0  0  0
 18 20  2  0  0  0  0
 18 37  1  0  0  0  0
 19 21  2  0  0  0  0
 19 38  1  0  0  0  0
 20 46  1  0  0  0  0
 21 39  1  0  0  0  0
 22 30  2  0  0  0  0
 22 68  1  0  0  0  0
 23 86  1  0  0  0  0
 24 87  1  0  0  0  0
 25 27  2  0  0  0  0
 25 86  1  0  0  0  0
 26 88  1  0  0  0  0
 27 89  1  0  0  0  0
 28 70  2  0  0  0  0
 29 65  1  0  0  0  0
 29 71  1  0  0  0  0
 30 59  1  0  0  0  0
 30 71  1  0  0  0  0
 31 72  1  0  0  0  0
 31 75  1  0  0  0  0
 32 76  1  0  0  0  0
 32 81  2  0  0  0  0
 33 47  1  0  0  0  0
 33 77  1  0  0  0  0
 33 82  2  0  0  0  0
 34 66  1  0  0  0  0
 34 73  1  0  0  0  0
 34 83  2  0  0  0  0
 35 67  1  0  0  0  0
 35 78  1  0  0  0  0
 35 84  2  0  0  0  0
 36 74  1  0  0  0  0
 36 79  1  0  0  0  0
 36 85  2  0  0  0  0
 37 40  1  0  0  0  0
 38 47  1  0  0  0  0
 39 73  1  0  0  0  0
 40 42  1  0  0  0  0
 41 43  1  0  0  0  0
 41 44  1  0  0  0  0
 42 46  1  0  0  0  0
 43 48  1  0  0  0  0
 44 74  1  0  0  0  0
 45 48  1  0  0  0  0
 45 74  1  0  0  0  0
 46 77  1  0  0  0  0
 47 73  1  0  0  0  0
 48 72  1  0  0  0  0
 49 60  1  0  0  0  0
 50 65  1  0  0  0  0
 51 65  1  0  0  0  0
 52 67  1  0  0  0  0
 53 68  1  0  0  0  0
 54 68  1  0  0  0  0
 55 69  1  0  0  0  0
 56 69  1  0  0  0  0
 57 69  1  0  0  0  0
 58 80  1  0  0  0  0
 59 61  1  0  0  0  0
 60 62  1  0  0  0  0
 61 63  1  0  0  0  0
 62 71  1  0  0  0  0
 63 79  1  0  0  0  0
 64 68  1  0  0  0  0
 64 87  1  0  0  0  0
 66 69  1  0  0  0  0
 66 78  1  0  0  0  0
 67 80  1  0  0  0  0
 70 72  1  0  0  0  0
M  CHG  1  80   1
M  ISO  4  36 100  64 101  79 100  87 101
M  END
> <Batch ID>
0089

> <Smiles>
CCCn1c(C(C)C)cc(C(C)(C)[101CH2:1][101O:1]c2ccc3c(c2)CN(C(=O)C(NC(=O)C(C)NC)C(C)(C)C)C(C(=O)NC2CCCc4ccccc42)C3)c1CCC[100NH:0][100C:0](=O)N1CCCC(n2nc(-c3ccc(Oc4ccc(F)cc4F)cc3)c(C(N)=O)c2N)C1

> <Shape>
0.208

> <Color>
0.063

> <Negative vol penalty>
0.000

$$$$

  -OEChem-04052319063D

 86 94  0     1  0  0  0  0  0999 V2000
  -26.7811  -16.2962   15.5920 C   0  0  0  0  0  0  0  0  0  0  0  0
  -25.6839  -16.9191   16.1781 C   0  0  0  0  0  0  0  0  0  0  0  0
  -28.0756  -24.8879   18.9349 C   0  0  0  0  0  0  0  0  0  0  0  0
  -26.4687  -23.7853   20.3629 C   0  0  0  0  0  0  0  0  0  0  0  0
  -27.1389  -15.0060   15.9811 C   0  0  0  0  0  0  0  0  0  0  0  0
  -24.9430  -16.2518   17.1528 C   0  0  0  0  0  0  0  0  0  0  0  0
  -23.8570  -19.1996   21.1247 C   0  0  0  0  0  0  0  0  0  0  0  0
  -28.9899  -23.8614   19.1711 C   0  0  0  0  0  0  0  0  0  0  0  0
  -27.3830  -22.7587   20.5991 C   0  0  0  0  0  0  0  0  0  0  0  0
  -22.8174  -20.1159   20.9722 C   0  0  0  0  0  0  0  0  0  0  0  0
  -29.1635  -19.6653   21.2910 C   0  0  0  0  0  0  0  0  0  0  0  0
  -28.6959  -18.3526   21.2296 C   0  0  0  0  0  0  0  0  0  0  0  0
  -21.3341  -18.6195   22.1469 C   0  0  0  0  0  0  0  0  0  0  0  0
  -19.5712  -28.8669   21.9083 C   0  0  0  0  0  0  0  0  0  0  0  0
  -28.0420  -18.6931   18.9289 C   0  0  0  0  0  0  0  0  0  0  0  0
  -19.6904  -27.4089   23.6199 C   0  0  0  0  0  0  0  0  0  0  0  0
  -26.8150  -24.8499   19.5308 C   0  0  0  0  0  0  0  0  0  0  0  0
  -24.9114  -25.9752   18.2590 C   0  0  0  0  0  0  0  0  0  0  0  0
  -26.4078  -14.3262   16.9681 C   0  0  0  0  0  0  0  0  0  0  0  0
  -23.6399  -17.9795   21.7811 C   0  0  0  0  0  0  0  0  0  0  0  0
  -25.2905  -14.9508   17.5545 C   0  0  0  0  0  0  0  0  0  0  0  0
  -22.3733  -17.6905   22.3087 C   0  0  0  0  0  0  0  0  0  0  0  0
  -19.8854  -28.7301   23.2829 C   0  0  0  0  0  0  0  0  0  0  0  0
  -28.6436  -22.7968   20.0032 C   0  0  0  0  0  0  0  0  0  0  0  0
  -21.5550  -19.8247   21.4808 C   0  0  0  0  0  0  0  0  0  0  0  0
  -29.0702  -20.4920   20.1714 C   0  0  0  0  0  0  0  0  0  0  0  0
  -28.1352  -17.8665   20.0486 C   0  0  0  0  0  0  0  0  0  0  0  0
  -28.5095  -20.0059   18.9903 C   0  0  0  0  0  0  0  0  0  0  0  0
  -25.8703  -25.9103   19.2876 C   0  0  0  0  0  0  0  0  0  0  0  0
  -19.1935  -27.6251   21.4471 C   0  0  0  0  0  0  0  0  0  0  0  0
  -24.2697  -27.1724   18.4628 C   0  0  0  0  0  0  0  0  0  0  0  0
  -24.6261  -25.0372   17.2129 C   0  0  0  0  0  0  0  0  0  0  0  0
  -23.8143  -14.9187   20.9417 C   0  0  0  0  0  0  0  0  0  0  0  0
  -23.2465  -14.4243   24.0969 C   0  0  0  0  0  0  0  0  0  0  0  0
  -21.9669  -15.6083   27.0307 C   0  0  0  0  0  0  0  0  0  0  0  0
  -23.4543  -30.5877   23.3128 C   0  0  0  0  0  0  0  0  0  0  0  0
  -26.8042  -12.9147   17.3220 C   0  0  0  0  0  0  0  0  0  0  0  0
  -24.7785  -17.0133   21.9608 C   0  0  0  0  0  0  0  0  0  0  0  0
  -22.0935  -16.4035   23.0394 C   0  0  0  0  0  0  0  0  0  0  0  0
  -26.1922  -12.4200   18.6300 C   0  0  0  0  0  0  0  0  0  0  0  0
  -24.9924  -31.5514   20.2497 C   0  0  0  0  0  0  0  0  0  0  0  0
  -24.7047  -12.7533   18.6832 C   0  0  0  0  0  0  0  0  0  0  0  0
  -25.3053  -30.2208   19.5630 C   0  0  0  0  0  0  0  0  0  0  0  0
  -25.1774  -31.4628   21.7629 C   0  0  0  0  0  0  0  0  0  0  0  0
  -24.7489  -29.0360   21.7276 C   0  0  0  0  0  0  0  0  0  0  0  0
  -24.4768  -14.2690   18.6330 C   0  0  1  0  0  0  0  0  0  0  0  0
  -24.3140  -15.5793   22.1953 C   0  0  1  0  0  0  0  0  0  0  0  0
  -24.5227  -29.0602   20.2062 C   0  0  2  0  0  0  0  0  0  0  0  0
  -19.3393  -30.0669   25.3417 C   0  0  0  0  0  0  0  0  0  0  0  0
  -19.8689  -27.4000   19.0291 C   0  0  0  0  0  0  0  0  0  0  0  0
  -17.4728  -27.9064   19.6267 C   0  0  0  0  0  0  0  0  0  0  0  0
  -21.6148  -14.9614   29.4297 C   0  0  0  0  0  0  0  0  0  0  0  0
  -20.9222  -12.6292   23.2692 C   0  0  0  0  0  0  0  0  0  0  0  0
  -20.0555  -12.7889   25.6126 C   0  0  0  0  0  0  0  0  0  0  0  0
  -22.2849  -11.7583   25.1768 C   0  0  0  0  0  0  0  0  0  0  0  0
  -23.6448  -17.8449   28.0010 C   0  0  0  0  0  0  0  0  0  0  0  0
  -20.0564  -24.4177   21.8259 C   0  0  0  0  0  0  0  0  0  0  0  0
  -19.7495  -22.9198   21.8671 C   0  0  0  0  0  0  0  0  0  0  0  0
  -18.9449  -25.2750   22.4418 C   0  0  0  0  0  0  0  0  0  0  0  0
  -21.7485  -29.5642   24.7966 C   0  0  0  0  0  0  0  0  0  0  0  0
  -20.8897  -22.0991   21.2795 C   0  0  0  0  0  0  0  0  0  1  0  0
  -20.3385  -29.8038   24.1876 C   0  0  1  0  0  0  0  0  0  0  0  0
  -18.7676  -27.2047   20.0961 C   0  0  0  0  0  0  0  0  0  0  0  0
  -22.0104  -14.2612   24.9480 C   0  0  1  0  0  0  0  0  0  0  0  0
  -22.5393  -15.6478   28.4362 C   0  0  2  0  0  0  0  0  0  0  0  0
  -21.3227  -12.8829   24.7362 C   0  0  0  0  0  0  0  0  0  0  0  0
  -25.8438  -26.9811   20.0856 N   0  0  0  0  0  0  0  0  0  0  0  0
  -19.2695  -26.7466   22.4963 N   0  0  0  0  0  0  0  0  0  0  0  0
  -24.8605  -27.7303   19.5582 N   0  0  0  0  0  0  0  0  0  0  0  0
  -23.2376  -15.4884   23.1840 N   0  0  0  0  0  0  0  0  0  0  0  0
  -24.4080  -30.3431   22.3109 N   0  0  0  0  0  0  0  0  0  0  0  0
  -23.2635  -27.7919   17.8100 N   0  0  0  0  0  0  0  0  0  0  0  0
  -25.3802  -23.8575   17.1493 N   0  0  0  0  0  0  0  0  0  0  0  0
  -24.7478  -14.8638   19.9243 N   0  0  0  0  0  0  0  0  0  0  0  0
  -22.4250  -14.5171   26.3232 N   0  0  0  0  0  0  0  0  0  0  0  0
  -22.7650  -29.4722   23.7723 N   0  0  0  0  0  0  0  0  0  0  0  0
  -22.7374  -17.0580   28.8754 N   0  3  0  0  0  0  0  0  0  0  0  0
  -23.7401  -25.2467   16.3500 O   0  0  0  0  0  0  0  0  0  0  0  0
  -22.6673  -14.4892   20.9010 O   0  0  0  0  0  0  0  0  0  0  0  0
  -24.1883  -13.6409   24.2419 O   0  0  0  0  0  0  0  0  0  0  0  0
  -21.1882  -16.4583   26.6045 O   0  0  0  0  0  0  0  0  0  0  0  0
  -23.2299  -31.7174   23.7605 O   0  0  0  0  0  0  0  0  0  0  0  0
  -29.5355  -21.7948   20.2337 O   0  0  0  0  0  0  0  0  0  0  0  0
  -20.5383  -20.7170   21.3327 O   0  0  0  0  0  0  0  0  0  1  0  0
  -27.6877  -16.6054   19.9893 F   0  0  0  0  0  0  0  0  0  0  0  0
  -28.4182  -20.7950   17.9110 F   0  0  0  0  0  0  0  0  0  0  0  0
  1  2  1  0  0  0  0
  1  5  2  0  0  0  0
  2  6  2  0  0  0  0
  3  8  2  0  0  0  0
  3 17  1  0  0  0  0
  4  9  1  0  0  0  0
  4 17  2  0  0  0  0
  5 19  1  0  0  0  0
  6 21  1  0  0  0  0
  7 10  2  0  0  0  0
  7 20  1  0  0  0  0
  8 24  1  0  0  0  0
  9 24  2  0  0  0  0
 10 25  1  0  0  0  0
 11 12  2  0  0  0  0
 11 26  1  0  0  0  0
 12 27  1  0  0  0  0
 13 22  1  0  0  0  0
 13 25  2  0  0  0  0
 14 23  1  0  0  0  0
 14 30  2  0  0  0  0
 15 27  2  0  0  0  0
 15 28  1  0  0  0  0
 16 23  2  0  0  0  0
 16 68  1  0  0  0  0
 17 29  1  0  0  0  0
 18 29  1  0  0  0  0
 18 31  2  0  0  0  0
 18 32  1  0  0  0  0
 19 21  2  0  0  0  0
 19 37  1  0  0  0  0
 20 22  2  0  0  0  0
 20 38  1  0  0  0  0
 21 46  1  0  0  0  0
 22 39  1  0  0  0  0
 23 62  1  0  0  0  0
 24 83  1  0  0  0  0
 25 84  1  0  0  0  0
 26 28  2  0  0  0  0
 26 83  1  0  0  0  0
 27 85  1  0  0  0  0
 28 86  1  0  0  0  0
 29 67  2  0  0  0  0
 30 63  1  0  0  0  0
 30 68  1  0  0  0  0
 31 69  1  0  0  0  0
 31 72  1  0  0  0  0
 32 73  1  0  0  0  0
 32 78  2  0  0  0  0
 33 47  1  0  0  0  0
 33 74  1  0  0  0  0
 33 79  2  0  0  0  0
 34 64  1  0  0  0  0
 34 70  1  0  0  0  0
 34 80  2  0  0  0  0
 35 65  1  0  0  0  0
 35 75  1  0  0  0  0
 35 81  2  0  0  0  0
 36 71  1  0  0  0  0
 36 76  1  0  0  0  0
 36 82  2  0  0  0  0
 37 40  1  0  0  0  0
 38 47  1  0  0  0  0
 39 70  1  0  0  0  0
 40 42  1  0  0  0  0
 41 43  1  0  0  0  0
 41 44  1  0  0  0  0
 42 46  1  0  0  0  0
 43 48  1  0  0  0  0
 44 71  1  0  0  0  0
 45 48  1  0  0  0  0
 45 71  1  0  0  0  0
 46 74  1  0  0  0  0
 47 70  1  0  0  0  0
 48 69  1  0  0  0  0
 49 62  1  0  0  0  0
 50 63  1  0  0  0  0
 51 63  1  0  0  0  0
 52 65  1  0  0  0  0
 53 66  1  0  0  0  0
 54 66  1  0  0  0  0
 55 66  1  0  0  0  0
 56 77  1  0  0  0  0
 57 58  1  0  0  0  0
 57 59  1  0  0  0  0
 58 61  1  0  0  0  0
 59 68  1  0  0  0  0
 60 62  1  0  0  0  0
 60 76  1  0  0  0  0
 61 84  1  0  0  0  0
 64 66  1  0  0  0  0
 64 75  1  0  0  0  0
 65 77  1  0  0  0  0
 67 69  1  0  0  0  0
M  CHG  1  77   1
M  ISO  4  36 100  61 101  76 100  84 101
M  END
> <Batch ID>
0089

> <Smiles>
CNC(C)C(=O)NC(C(=O)N1Cc2cc([101O:1][101CH2:1]CCCn3cc(C(C)C[100NH:0][100C:0](=O)N4CCCC(n5nc(-c6ccc(Oc7ccc(F)cc7F)cc6)c(C(N)=O)c5N)C4)cc3C(C)C)ccc2CC1C(=O)NC1CCCc2ccccc21)C(C)(C)C

> <Shape>
0.187

> <Color>
0.081

> <Negative vol penalty>
0.000

$$$$

  -OEChem-04052319063D

 92100  0     1  0  0  0  0  0999 V2000
  -21.6184  -11.4972   20.1908 C   0  0  0  0  0  0  0  0  0  0  0  0
  -21.4756  -12.7219   20.8352 C   0  0  0  0  0  0  0  0  0  0  0  0
  -29.8028  -25.3689   22.9919 C   0  0  0  0  0  0  0  0  0  0  0  0
  -27.5868  -24.5773   23.5393 C   0  0  0  0  0  0  0  0  0  0  0  0
  -22.8916  -10.9987   19.9179 C   0  0  0  0  0  0  0  0  0  0  0  0
  -22.6060  -13.4482   21.2081 C   0  0  0  0  0  0  0  0  0  0  0  0
  -23.2104  -19.5421   21.2732 C   0  0  0  0  0  0  0  0  0  0  0  0
  -30.3283  -24.6317   24.0530 C   0  0  0  0  0  0  0  0  0  0  0  0
  -28.1123  -23.8400   24.6004 C   0  0  0  0  0  0  0  0  0  0  0  0
  -23.1153  -20.4833   22.2974 C   0  0  0  0  0  0  0  0  0  0  0  0
  -29.7491  -20.9147   25.0293 C   0  0  0  0  0  0  0  0  0  0  0  0
  -29.3050  -19.6019   25.1871 C   0  0  0  0  0  0  0  0  0  0  0  0
  -25.5119  -20.4248   22.5657 C   0  0  0  0  0  0  0  0  0  0  0  0
  -28.4718  -20.1483   27.3881 C   0  0  0  0  0  0  0  0  0  0  0  0
  -28.4320  -25.3417   22.7351 C   0  0  0  0  0  0  0  0  0  0  0  0
  -28.2082  -25.9763   20.2744 C   0  0  0  0  0  0  0  0  0  0  0  0
  -24.0381  -11.7237   20.2791 C   0  0  0  0  0  0  0  0  0  0  0  0
  -24.4581  -19.0262   20.8943 C   0  0  0  0  0  0  0  0  0  0  0  0
  -23.8957  -12.9582   20.9411 C   0  0  0  0  0  0  0  0  0  0  0  0
  -25.6204  -19.4791   21.5347 C   0  0  0  0  0  0  0  0  0  0  0  0
  -20.2471  -24.5133   23.6811 C   0  0  0  0  0  0  0  0  0  0  0  0
  -19.7566  -25.4568   22.7852 C   0  0  0  0  0  0  0  0  0  0  0  0
  -21.0165  -24.9250   24.7637 C   0  0  0  0  0  0  0  0  0  0  0  0
  -29.4831  -23.8672   24.8572 C   0  0  0  0  0  0  0  0  0  0  0  0
  -24.2658  -20.9226   22.9457 C   0  0  0  0  0  0  0  0  0  0  0  0
  -29.5547  -21.8443   26.0510 C   0  0  0  0  0  0  0  0  0  0  0  0
  -28.6663  -19.2187   26.3664 C   0  0  0  0  0  0  0  0  0  0  0  0
  -28.9160  -21.4611   27.2303 C   0  0  0  0  0  0  0  0  0  0  0  0
  -27.8885  -26.1035   21.6395 C   0  0  0  0  0  0  0  0  0  0  0  0
  -20.0613  -26.7888   23.0145 C   0  0  0  0  0  0  0  0  0  0  0  0
  -21.2649  -26.2808   24.9043 C   0  0  0  0  0  0  0  0  0  0  0  0
  -27.4279  -26.9183   19.6497 C   0  0  0  0  0  0  0  0  0  0  0  0
  -29.1281  -25.0861   19.6287 C   0  0  0  0  0  0  0  0  0  0  0  0
  -25.7805  -16.1358   20.8827 C   0  0  0  0  0  0  0  0  0  0  0  0
  -28.1955  -17.6737   19.3579 C   0  0  0  0  0  0  0  0  0  0  0  0
  -29.8274  -20.6059   18.7365 C   0  0  0  0  0  0  0  0  0  0  0  0
  -22.2481  -29.5421   21.1116 C   0  0  0  0  0  0  0  0  0  0  0  0
  -25.3937  -11.1220   20.0056 C   0  0  0  0  0  0  0  0  0  0  0  0
  -24.5464  -18.0315   19.7695 C   0  0  0  0  0  0  0  0  0  0  0  0
  -26.9858  -18.9715   21.1517 C   0  0  0  0  0  0  0  0  0  0  0  0
  -26.5371  -12.1290   20.0983 C   0  0  0  0  0  0  0  0  0  0  0  0
  -25.3434  -31.1567   20.4124 C   0  0  0  0  0  0  0  0  0  0  0  0
  -26.4000  -12.9779   21.3582 C   0  0  0  0  0  0  0  0  0  0  0  0
  -26.3755  -30.0333   20.5244 C   0  0  0  0  0  0  0  0  0  0  0  0
  -24.2242  -30.9995   21.4394 C   0  0  0  0  0  0  0  0  0  0  0  0
  -24.5840  -28.5634   21.5386 C   0  0  0  0  0  0  0  0  0  0  0  0
  -25.0976  -13.7871   21.3392 C   0  0  1  0  0  0  0  0  0  0  0  0
  -25.8188  -17.1910   19.8137 C   0  0  1  0  0  0  0  0  0  0  0  0
  -25.7027  -28.6479   20.4862 C   0  0  2  0  0  0  0  0  0  0  0  0
  -18.5299  -22.6995   23.8996 C   0  0  0  0  0  0  0  0  0  0  0  0
  -22.8862  -28.0299   25.6781 C   0  0  0  0  0  0  0  0  0  0  0  0
  -15.1043  -25.1142   20.8979 C   0  0  0  0  0  0  0  0  0  0  0  0
  -23.0595  -21.7240   27.3722 C   0  0  0  0  0  0  0  0  0  0  0  0
  -31.4757  -22.1742   17.6779 C   0  0  0  0  0  0  0  0  0  0  0  0
  -30.0856  -16.5290   21.4620 C   0  0  0  0  0  0  0  0  0  0  0  0
  -31.7923  -18.2148   20.7453 C   0  0  0  0  0  0  0  0  0  0  0  0
  -30.9816  -16.4979   19.1274 C   0  0  0  0  0  0  0  0  0  0  0  0
  -27.9804  -21.2288   16.5095 C   0  0  0  0  0  0  0  0  0  0  0  0
  -19.9507  -23.0613   23.4801 C   0  0  0  0  0  0  0  0  0  0  0  0
  -18.9274  -25.0460   21.6148 C   0  0  0  0  0  0  0  0  0  0  0  0
  -21.5638  -23.9252   25.7544 C   0  0  0  0  0  0  0  0  0  0  0  0
  -22.0868  -26.7836   26.0459 C   0  0  0  0  0  0  0  0  0  0  0  0
  -19.5624  -27.8480   22.0869 C   0  0  0  0  0  0  0  0  0  0  0  0
  -16.5845  -24.8688   20.6524 C   0  0  0  0  0  0  0  0  0  0  0  0
  -23.7169  -22.8819   26.6339 C   0  0  0  0  0  0  0  0  0  0  0  0
  -17.4329  -25.3279   21.8383 C   0  0  0  0  0  0  0  0  0  0  0  0
  -20.3691  -27.9534   20.7882 C   0  0  0  0  0  0  0  0  0  0  0  0
  -22.8706  -22.3113   24.2802 C   0  0  0  0  0  0  0  0  0  1  0  0
  -29.4483  -18.3942   19.7944 C   0  0  1  0  0  0  0  0  0  0  0  0
  -30.2980  -21.2418   17.4409 C   0  0  2  0  0  0  0  0  0  0  0  0
  -22.9596  -23.3805   25.3810 C   0  0  1  0  0  0  0  0  0  0  0  0
  -30.5512  -17.4173   20.2911 C   0  0  0  0  0  0  0  0  0  0  0  0
  -26.9763  -27.0518   21.8692 N   0  0  0  0  0  0  0  0  0  0  0  0
  -20.8054  -27.2267   24.0548 N   0  0  0  0  0  0  0  0  0  0  0  0
  -26.7162  -27.5290   20.6401 N   0  0  0  0  0  0  0  0  0  0  0  0
  -27.0194  -17.9951   20.0503 N   0  0  0  0  0  0  0  0  0  0  0  0
  -23.6270  -29.6649   21.3496 N   0  0  0  0  0  0  0  0  0  0  0  0
  -27.2880  -27.2757   18.3555 N   0  0  0  0  0  0  0  0  0  0  0  0
  -30.4555  -25.5035   19.4607 N   0  0  0  0  0  0  0  0  0  0  0  0
  -25.2298  -14.9373   20.4707 N   0  0  0  0  0  0  0  0  0  0  0  0
  -29.8524  -19.2289   18.6682 N   0  0  0  0  0  0  0  0  0  0  0  0
  -21.7644  -28.2418   21.0346 N   0  0  0  0  0  0  0  0  0  0  0  0
  -29.1947  -22.0269   16.8186 N   0  3  0  0  0  0  0  0  0  0  0  0
  -28.7794  -23.9606   19.1984 O   0  0  0  0  0  0  0  0  0  0  0  0
  -26.2195  -16.3897   21.9983 O   0  0  0  0  0  0  0  0  0  0  0  0
  -28.2567  -16.8611   18.4319 O   0  0  0  0  0  0  0  0  0  0  0  0
  -29.4765  -21.2647   19.7129 O   0  0  0  0  0  0  0  0  0  0  0  0
  -21.5042  -30.5189   20.9723 O   0  0  0  0  0  0  0  0  0  0  0  0
  -29.9955  -23.1475   25.8925 O   0  0  0  0  0  0  0  0  0  0  0  0
  -24.1757  -21.8407   23.9462 O   0  0  0  0  0  0  0  0  0  1  0  0
  -28.2384  -17.9584   26.5171 F   0  0  0  0  0  0  0  0  0  0  0  0
  -28.7253  -22.3500   28.2149 F   0  0  0  0  0  0  0  0  0  0  0  0
  1  2  1  0  0  0  0
  1  5  2  0  0  0  0
  2  6  2  0  0  0  0
  3  8  2  0  0  0  0
  3 15  1  0  0  0  0
  4  9  1  0  0  0  0
  4 15  2  0  0  0  0
  5 17  1  0  0  0  0
  6 19  1  0  0  0  0
  7 10  2  0  0  0  0
  7 18  1  0  0  0  0
  8 24  1  0  0  0  0
  9 24  2  0  0  0  0
 10 25  1  0  0  0  0
 11 12  2  0  0  0  0
 11 26  1  0  0  0  0
 12 27  1  0  0  0  0
 13 20  1  0  0  0  0
 13 25  2  0  0  0  0
 14 27  2  0  0  0  0
 14 28  1  0  0  0  0
 15 29  1  0  0  0  0
 16 29  1  0  0  0  0
 16 32  2  0  0  0  0
 16 33  1  0  0  0  0
 17 19  2  0  0  0  0
 17 38  1  0  0  0  0
 18 20  2  0  0  0  0
 18 39  1  0  0  0  0
 19 47  1  0  0  0  0
 20 40  1  0  0  0  0
 21 22  2  0  0  0  0
 21 23  1  0  0  0  0
 21 59  1  0  0  0  0
 22 30  1  0  0  0  0
 22 60  1  0  0  0  0
 23 31  2  0  0  0  0
 23 61  1  0  0  0  0
 24 89  1  0  0  0  0
 25 90  1  0  0  0  0
 26 28  2  0  0  0  0
 26 89  1  0  0  0  0
 27 91  1  0  0  0  0
 28 92  1  0  0  0  0
 29 73  2  0  0  0  0
 30 63  1  0  0  0  0
 30 74  2  0  0  0  0
 31 62  1  0  0  0  0
 31 74  1  0  0  0  0
 32 75  1  0  0  0  0
 32 78  1  0  0  0  0
 33 79  1  0  0  0  0
 33 84  2  0  0  0  0
 34 48  1  0  0  0  0
 34 80  1  0  0  0  0
 34 85  2  0  0  0  0
 35 69  1  0  0  0  0
 35 76  1  0  0  0  0
 35 86  2  0  0  0  0
 36 70  1  0  0  0  0
 36 81  1  0  0  0  0
 36 87  2  0  0  0  0
 37 77  1  0  0  0  0
 37 82  1  0  0  0  0
 37 88  2  0  0  0  0
 38 41  1  0  0  0  0
 39 48  1  0  0  0  0
 40 76  1  0  0  0  0
 41 43  1  0  0  0  0
 42 44  1  0  0  0  0
 42 45  1  0  0  0  0
 43 47  1  0  0  0  0
 44 49  1  0  0  0  0
 45 77  1  0  0  0  0
 46 49  1  0  0  0  0
 46 77  1  0  0  0  0
 47 80  1  0  0  0  0
 48 76  1  0  0  0  0
 49 75  1  0  0  0  0
 50 59  1  0  0  0  0
 51 62  1  0  0  0  0
 52 64  1  0  0  0  0
 53 65  1  0  0  0  0
 54 70  1  0  0  0  0
 55 72  1  0  0  0  0
 56 72  1  0  0  0  0
 57 72  1  0  0  0  0
 58 83  1  0  0  0  0
 60 66  1  0  0  0  0
 61 71  1  0  0  0  0
 63 67  1  0  0  0  0
 64 66  1  0  0  0  0
 65 71  1  0  0  0  0
 67 82  1  0  0  0  0
 68 71  1  0  0  0  0
 68 90  1  0  0  0  0
 69 72  1  0  0  0  0
 69 81  1  0  0  0  0
 70 83  1  0  0  0  0
 73 75  1  0  0  0  0
M  CHG  1  83   1
M  ISO  4  37 100  68 101  82 100  90 101
M  END
> <Batch ID>
0089

> <Smiles>
CCCCc1c(CC[100NH:0][100C:0](=O)N2CCCC(n3nc(-c4ccc(Oc5ccc(F)cc5F)cc4)c(C(N)=O)c3N)C2)nc(CC)c(CC(CC)[101CH2:1][101O:1]c2ccc3c(c2)CN(C(=O)C(NC(=O)C(C)NC)C(C)(C)C)C(C(=O)NC2CCCc4ccccc42)C3)c1CC

> <Shape>
0.216

> <Color>
0.066

> <Negative vol penalty>
0.000

$$$$

  -OEChem-04052319063D

 85 93  0     1  0  0  0  0  0999 V2000
  -23.5842  -29.0649   16.1215 C   0  0  0  0  0  0  0  0  0  0  0  0
  -23.9824  -27.7377   16.2456 C   0  0  0  0  0  0  0  0  0  0  0  0
  -23.6150   -9.8276   21.1269 C   0  0  0  0  0  0  0  0  0  0  0  0
  -24.2560  -10.6497   23.3064 C   0  0  0  0  0  0  0  0  0  0  0  0
  -24.2877  -30.0677   16.7873 C   0  0  0  0  0  0  0  0  0  0  0  0
  -25.0850  -27.4126   17.0349 C   0  0  0  0  0  0  0  0  0  0  0  0
  -25.8297  -22.3631   20.4192 C   0  0  0  0  0  0  0  0  0  0  0  0
  -23.0293   -8.7097   21.7208 C   0  0  0  0  0  0  0  0  0  0  0  0
  -23.6702   -9.5317   23.9003 C   0  0  0  0  0  0  0  0  0  0  0  0
  -26.5134  -21.1705   20.1867 C   0  0  0  0  0  0  0  0  0  0  0  0
  -24.0471   -5.7634   23.0277 C   0  0  0  0  0  0  0  0  0  0  0  0
  -24.3026   -4.5176   22.4549 C   0  0  0  0  0  0  0  0  0  0  0  0
  -28.4188  -22.0359   21.3865 C   0  0  0  0  0  0  0  0  0  0  0  0
  -21.9380   -4.2122   22.0645 C   0  0  0  0  0  0  0  0  0  0  0  0
  -24.2284  -10.7976   21.9197 C   0  0  0  0  0  0  0  0  0  0  0  0
  -24.2178  -13.1858   21.0230 C   0  0  0  0  0  0  0  0  0  0  0  0
  -25.3936  -29.7538   17.5929 C   0  0  0  0  0  0  0  0  0  0  0  0
  -26.4405  -23.4069   21.1289 C   0  0  0  0  0  0  0  0  0  0  0  0
  -25.8047  -28.4124   17.7111 C   0  0  0  0  0  0  0  0  0  0  0  0
  -27.7398  -23.2398   21.6289 C   0  0  0  0  0  0  0  0  0  0  0  0
  -23.0568   -8.5617   23.1075 C   0  0  0  0  0  0  0  0  0  0  0  0
  -27.8092  -21.0079   20.6679 C   0  0  0  0  0  0  0  0  0  0  0  0
  -22.7371   -6.2337   23.1191 C   0  0  0  0  0  0  0  0  0  0  0  0
  -23.2481   -3.7420   21.9732 C   0  0  0  0  0  0  0  0  0  0  0  0
  -21.6825   -5.4581   22.6374 C   0  0  0  0  0  0  0  0  0  0  0  0
  -24.8342  -11.9524   21.3068 C   0  0  0  0  0  0  0  0  0  0  0  0
  -28.5400  -17.4670   23.5468 C   0  0  0  0  0  0  0  0  0  0  0  0
  -29.5079  -17.1409   22.6304 C   0  0  0  0  0  0  0  0  0  0  0  0
  -25.2101  -13.9411   20.4473 C   0  0  0  0  0  0  0  0  0  0  0  0
  -22.8690  -13.6108   21.2589 C   0  0  0  0  0  0  0  0  0  0  0  0
  -27.2566  -26.4034   20.4514 C   0  0  0  0  0  0  0  0  0  0  0  0
  -27.9998  -26.5027   23.6073 C   0  0  0  0  0  0  0  0  0  0  0  0
  -28.8684  -24.7995   26.4342 C   0  0  0  0  0  0  0  0  0  0  0  0
  -31.1848  -13.7776   20.8029 C   0  0  0  0  0  0  0  0  0  0  0  0
  -26.1514  -30.8770   18.2553 C   0  0  0  0  0  0  0  0  0  0  0  0
  -25.6797  -24.6771   21.3943 C   0  0  0  0  0  0  0  0  0  0  0  0
  -28.4327  -24.3223   22.4141 C   0  0  0  0  0  0  0  0  0  0  0  0
  -27.0810  -30.4091   19.3721 C   0  0  0  0  0  0  0  0  0  0  0  0
  -29.2079  -13.5205   17.8529 C   0  0  0  0  0  0  0  0  0  0  0  0
  -27.8942  -29.2009   18.9186 C   0  0  0  0  0  0  0  0  0  0  0  0
  -27.8072  -13.2008   18.3780 C   0  0  0  0  0  0  0  0  0  0  0  0
  -30.2921  -12.8442   18.6890 C   0  0  0  0  0  0  0  0  0  0  0  0
  -28.8160  -12.7952   20.6620 C   0  0  0  0  0  0  0  0  0  0  0  0
  -26.9806  -28.0174   18.5779 C   0  0  1  0  0  0  0  0  0  0  0  0
  -26.5879  -25.8677   21.6857 C   0  0  1  0  0  0  0  0  0  0  0  0
  -27.6913  -13.5003   19.8846 C   0  0  2  0  0  0  0  0  0  0  0  0
  -25.3340  -21.2024   24.5913 C   0  0  0  0  0  0  0  0  0  0  0  0
  -29.3859  -24.4259   28.8612 C   0  0  0  0  0  0  0  0  0  0  0  0
  -30.7686  -27.4953   22.7959 C   0  0  0  0  0  0  0  0  0  0  0  0
  -31.5705  -26.9275   25.0987 C   0  0  0  0  0  0  0  0  0  0  0  0
  -29.7901  -28.6470   24.7886 C   0  0  0  0  0  0  0  0  0  0  0  0
  -26.0225  -24.3145   27.0859 C   0  0  0  0  0  0  0  0  0  0  0  0
  -27.1930  -18.0094   23.3238 C   0  0  0  0  0  0  0  0  0  0  0  0
  -29.5540  -17.2119   21.1249 C   0  0  0  0  0  0  0  0  0  0  0  0
  -25.5452  -19.8960   23.8428 C   0  0  0  0  0  0  0  0  0  0  0  0
  -26.9626  -19.3590   24.0416 C   0  0  0  0  0  0  0  0  0  0  0  0
  -30.3772  -18.3850   20.5885 C   0  0  0  0  0  0  0  0  0  0  0  0
  -31.8266  -16.2110   22.9693 C   0  0  0  0  0  0  0  0  0  0  0  0
  -31.9320  -14.6883   22.9873 C   0  0  0  0  0  0  0  0  0  0  0  0
  -29.8036  -19.7465   20.9634 C   0  0  0  0  0  0  0  0  0  1  0  0
  -29.2342  -26.2076   24.4248 C   0  0  1  0  0  0  0  0  0  0  0  0
  -28.3346  -24.8651   27.8538 C   0  0  2  0  0  0  0  0  0  0  0  0
  -30.3288  -27.2995   24.2606 C   0  0  0  0  0  0  0  0  0  0  0  0
  -26.1185  -11.9216   20.9413 N   0  0  0  0  0  0  0  0  0  0  0  0
  -28.9982  -17.2117   24.8095 N   0  0  0  0  0  0  0  0  0  0  0  0
  -30.2333  -16.7331   24.7066 N   0  0  0  0  0  0  0  0  0  0  0  0
  -30.5371  -16.6916   23.3992 N   0  0  0  0  0  0  0  0  0  0  0  0
  -26.3172  -13.1450   20.4219 N   0  0  0  0  0  0  0  0  0  0  0  0
  -27.6497  -25.5480   22.6420 N   0  0  0  0  0  0  0  0  0  0  0  0
  -30.1263  -13.1700   20.1076 N   0  0  0  0  0  0  0  0  0  0  0  0
  -25.2348  -15.2018   19.9653 N   0  0  0  0  0  0  0  0  0  0  0  0
  -21.9797  -12.7093   21.8596 N   0  0  0  0  0  0  0  0  0  0  0  0
  -26.5228  -27.3678   19.7874 N   0  0  0  0  0  0  0  0  0  0  0  0
  -28.7790  -26.0195   25.7981 N   0  0  0  0  0  0  0  0  0  0  0  0
  -30.9423  -14.0585   22.1419 N   0  0  0  0  0  0  0  0  0  0  0  0
  -27.1442  -23.9808   28.0010 N   0  3  0  0  0  0  0  0  0  0  0  0
  -22.4598  -14.7505   20.9312 O   0  0  0  0  0  0  0  0  0  0  0  0
  -28.3576  -25.9746   20.1263 O   0  0  0  0  0  0  0  0  0  0  0  0
  -27.3655  -27.5386   23.8224 O   0  0  0  0  0  0  0  0  0  0  0  0
  -29.3229  -23.7698   25.9404 O   0  0  0  0  0  0  0  0  0  0  0  0
  -32.2640  -14.0545   20.2684 O   0  0  0  0  0  0  0  0  0  0  0  0
  -22.4851   -7.4711   23.6873 O   0  0  0  0  0  0  0  0  0  0  0  0
  -28.4790  -19.8451   20.4418 O   0  0  0  0  0  0  0  0  0  1  0  0
  -23.4937   -2.5463   21.4217 F   0  0  0  0  0  0  0  0  0  0  0  0
  -20.4220   -5.9050   22.7213 F   0  0  0  0  0  0  0  0  0  0  0  0
  1  2  1  0  0  0  0
  1  5  2  0  0  0  0
  2  6  2  0  0  0  0
  3  8  2  0  0  0  0
  3 15  1  0  0  0  0
  4  9  1  0  0  0  0
  4 15  2  0  0  0  0
  5 17  1  0  0  0  0
  6 19  1  0  0  0  0
  7 10  2  0  0  0  0
  7 18  1  0  0  0  0
  8 21  1  0  0  0  0
  9 21  2  0  0  0  0
 10 22  1  0  0  0  0
 11 12  2  0  0  0  0
 11 23  1  0  0  0  0
 12 24  1  0  0  0  0
 13 20  1  0  0  0  0
 13 22  2  0  0  0  0
 14 24  2  0  0  0  0
 14 25  1  0  0  0  0
 15 26  1  0  0  0  0
 16 26  1  0  0  0  0
 16 29  2  0  0  0  0
 16 30  1  0  0  0  0
 17 19  2  0  0  0  0
 17 35  1  0  0  0  0
 18 20  2  0  0  0  0
 18 36  1  0  0  0  0
 19 44  1  0  0  0  0
 20 37  1  0  0  0  0
 21 82  1  0  0  0  0
 22 83  1  0  0  0  0
 23 25  2  0  0  0  0
 23 82  1  0  0  0  0
 24 84  1  0  0  0  0
 25 85  1  0  0  0  0
 26 64  2  0  0  0  0
 27 28  2  0  0  0  0
 27 53  1  0  0  0  0
 27 65  1  0  0  0  0
 28 54  1  0  0  0  0
 28 67  1  0  0  0  0
 29 68  1  0  0  0  0
 29 71  1  0  0  0  0
 30 72  1  0  0  0  0
 30 77  2  0  0  0  0
 31 45  1  0  0  0  0
 31 73  1  0  0  0  0
 31 78  2  0  0  0  0
 32 61  1  0  0  0  0
 32 69  1  0  0  0  0
 32 79  2  0  0  0  0
 33 62  1  0  0  0  0
 33 74  1  0  0  0  0
 33 80  2  0  0  0  0
 34 70  1  0  0  0  0
 34 75  1  0  0  0  0
 34 81  2  0  0  0  0
 35 38  1  0  0  0  0
 36 45  1  0  0  0  0
 37 69  1  0  0  0  0
 38 40  1  0  0  0  0
 39 41  1  0  0  0  0
 39 42  1  0  0  0  0
 40 44  1  0  0  0  0
 41 46  1  0  0  0  0
 42 70  1  0  0  0  0
 43 46  1  0  0  0  0
 43 70  1  0  0  0  0
 44 73  1  0  0  0  0
 45 69  1  0  0  0  0
 46 68  1  0  0  0  0
 47 55  1  0  0  0  0
 48 62  1  0  0  0  0
 49 63  1  0  0  0  0
 50 63  1  0  0  0  0
 51 63  1  0  0  0  0
 52 76  1  0  0  0  0
 53 56  1  0  0  0  0
 54 57  1  0  0  0  0
 55 56  1  0  0  0  0
 57 60  1  0  0  0  0
 58 59  1  0  0  0  0
 58 67  1  0  0  0  0
 59 75  1  0  0  0  0
 60 83  1  0  0  0  0
 61 63  1  0  0  0  0
 61 74  1  0  0  0  0
 62 76  1  0  0  0  0
 64 68  1  0  0  0  0
 65 66  2  0  0  0  0
 66 67  1  0  0  0  0
M  CHG  1  76   1
M  ISO  4  34 100  60 101  75 100  83 101
M  END
> <Batch ID>
0089

> <Smiles>
CCCCc1nnn(CC[100NH:0][100C:0](=O)N2CCCC(n3nc(-c4ccc(Oc5ccc(F)cc5F)cc4)c(C(N)=O)c3N)C2)c1CC[101CH2:1][101O:1]c1ccc2c(c1)CN(C(=O)C(NC(=O)C(C)NC)C(C)(C)C)C(C(=O)NC1CCCc3ccccc31)C2

> <Shape>
0.217

> <Color>
0.149

> <Negative vol penalty>
0.000

$$$$

  -OEChem-04052319063D

 88 96  0     1  0  0  0  0  0999 V2000
  -21.0085   -6.8266   22.2701 C   0  0  0  0  0  0  0  0  0  0  0  0
  -21.4037   -8.0222   22.8614 C   0  0  0  0  0  0  0  0  0  0  0  0
  -26.3723  -29.4098   19.4654 C   0  0  0  0  0  0  0  0  0  0  0  0
  -26.1507  -28.6688   21.7543 C   0  0  0  0  0  0  0  0  0  0  0  0
  -21.8822   -6.1474   21.4219 C   0  0  0  0  0  0  0  0  0  0  0  0
  -22.6734   -8.5388   22.6057 C   0  0  0  0  0  0  0  0  0  0  0  0
  -22.5924  -13.5130   21.6593 C   0  0  0  0  0  0  0  0  0  0  0  0
  -25.1885  -30.1375   19.5864 C   0  0  0  0  0  0  0  0  0  0  0  0
  -24.9668  -29.3966   21.8752 C   0  0  0  0  0  0  0  0  0  0  0  0
  -22.4731  -14.3677   22.7543 C   0  0  0  0  0  0  0  0  0  0  0  0
  -21.6980  -30.7689   22.6761 C   0  0  0  0  0  0  0  0  0  0  0  0
  -20.6134  -30.1448   23.2922 C   0  0  0  0  0  0  0  0  0  0  0  0
  -24.8508  -14.7696   22.6921 C   0  0  0  0  0  0  0  0  0  0  0  0
  -24.7251  -19.2529   24.6116 C   0  0  0  0  0  0  0  0  0  0  0  0
  -20.6397  -28.4244   21.5961 C   0  0  0  0  0  0  0  0  0  0  0  0
  -26.8534  -28.6754   20.5494 C   0  0  0  0  0  0  0  0  0  0  0  0
  -29.3820  -28.3722   20.6970 C   0  0  0  0  0  0  0  0  0  0  0  0
  -23.1596   -6.6609   21.1481 C   0  0  0  0  0  0  0  0  0  0  0  0
  -23.8456  -13.2714   21.0783 C   0  0  0  0  0  0  0  0  0  0  0  0
  -23.5655   -7.8652   21.7542 C   0  0  0  0  0  0  0  0  0  0  0  0
  -24.9830  -13.9135   21.5882 C   0  0  0  0  0  0  0  0  0  0  0  0
  -23.4550  -18.7562   24.2278 C   0  0  0  0  0  0  0  0  0  0  0  0
  -24.4858  -30.1309   20.7913 C   0  0  0  0  0  0  0  0  0  0  0  0
  -23.6028  -14.9939   23.2727 C   0  0  0  0  0  0  0  0  0  0  0  0
  -22.2534  -30.2208   21.5198 C   0  0  0  0  0  0  0  0  0  0  0  0
  -20.0842  -28.9725   22.7523 C   0  0  0  0  0  0  0  0  0  0  0  0
  -21.7243  -29.0485   20.9799 C   0  0  0  0  0  0  0  0  0  0  0  0
  -28.0759  -27.9230   20.4249 C   0  0  0  0  0  0  0  0  0  0  0  0
  -25.2451  -19.9311   23.5313 C   0  0  0  0  0  0  0  0  0  0  0  0
  -23.2376  -19.1459   22.9246 C   0  0  0  0  0  0  0  0  0  0  0  0
  -30.1813  -27.2890   20.4246 C   0  0  0  0  0  0  0  0  0  0  0  0
  -29.8324  -29.6540   21.1551 C   0  0  0  0  0  0  0  0  0  0  0  0
  -25.6722  -10.7017   20.6729 C   0  0  0  0  0  0  0  0  0  0  0  0
  -27.5043  -12.7553   18.9557 C   0  0  0  0  0  0  0  0  0  0  0  0
  -28.4461  -15.9773   18.3407 C   0  0  0  0  0  0  0  0  0  0  0  0
  -29.1714  -21.3875   20.3692 C   0  0  0  0  0  0  0  0  0  0  0  0
  -24.0866   -5.8670   20.2621 C   0  0  0  0  0  0  0  0  0  0  0  0
  -23.9536  -12.3676   19.8808 C   0  0  0  0  0  0  0  0  0  0  0  0
  -26.3483  -13.7034   20.9880 C   0  0  0  0  0  0  0  0  0  0  0  0
  -25.2761   -6.6733   19.7472 C   0  0  0  0  0  0  0  0  0  0  0  0
  -30.3790  -23.3782   17.6756 C   0  0  0  0  0  0  0  0  0  0  0  0
  -25.9164   -7.4647   20.8832 C   0  0  0  0  0  0  0  0  0  0  0  0
  -30.0435  -24.8093   18.0993 C   0  0  0  0  0  0  0  0  0  0  0  0
  -29.2957  -22.3928   18.1086 C   0  0  0  0  0  0  0  0  0  0  0  0
  -28.6239  -23.8645   19.9677 C   0  0  0  0  0  0  0  0  0  0  0  0
  -24.9256   -8.4704   21.4819 C   0  0  1  0  0  0  0  0  0  0  0  0
  -25.3540  -11.7930   19.6903 C   0  0  1  0  0  0  0  0  0  0  0  0
  -29.7141  -24.8864   19.6022 C   0  0  2  0  0  0  0  0  0  0  0  0
  -22.0809  -18.9000   22.0371 C   0  0  0  0  0  0  0  0  0  0  0  0
  -29.9903  -17.3385   16.9055 C   0  0  0  0  0  0  0  0  0  0  0  0
  -23.9418  -22.3545   19.6080 C   0  0  0  0  0  0  0  0  0  0  0  0
  -24.1853  -22.7827   22.0623 C   0  0  0  0  0  0  0  0  0  0  0  0
  -21.1229  -18.6064   25.3314 C   0  0  0  0  0  0  0  0  0  0  0  0
  -23.1364  -17.7467   26.5079 C   0  0  0  0  0  0  0  0  0  0  0  0
  -29.8638  -11.9073   20.6946 C   0  0  0  0  0  0  0  0  0  0  0  0
  -31.0988  -13.9280   19.8824 C   0  0  0  0  0  0  0  0  0  0  0  0
  -30.3975  -12.1633   18.2648 C   0  0  0  0  0  0  0  0  0  0  0  0
  -26.1918  -17.4380   17.0983 C   0  0  0  0  0  0  0  0  0  0  0  0
  -26.5337  -20.6397   23.3897 C   0  0  0  0  0  0  0  0  0  0  0  0
  -27.7034  -19.7686   22.8728 C   0  0  0  0  0  0  0  0  0  0  0  0
  -24.4999  -20.4473   21.1990 C   0  0  0  0  0  0  0  0  0  0  0  0
  -29.0153  -20.5296   22.6927 C   0  0  0  0  0  0  0  0  0  0  0  0
  -22.2581  -16.5352   24.4861 C   0  0  0  0  0  0  0  0  0  1  0  0
  -28.6493  -13.6869   19.2719 C   0  0  1  0  0  0  0  0  0  0  0  0
  -28.5934  -16.7538   17.0446 C   0  0  2  0  0  0  0  0  0  0  0  0
  -23.7364  -21.7697   21.0071 C   0  0  0  0  0  0  0  0  0  0  0  0
  -22.4991  -17.9333   25.1117 C   0  0  0  0  0  0  0  0  0  0  0  0
  -29.9771  -12.9240   19.5412 C   0  0  0  0  0  0  0  0  0  0  0  0
  -28.0429  -26.6534   20.0112 N   0  0  0  0  0  0  0  0  0  0  0  0
  -24.3324  -19.8592   22.5115 N   0  0  0  0  0  0  0  0  0  0  0  0
  -29.3383  -26.2957   20.0213 N   0  0  0  0  0  0  0  0  0  0  0  0
  -26.4033  -12.8058   19.8223 N   0  0  0  0  0  0  0  0  0  0  0  0
  -29.0319  -22.5158   19.5443 N   0  0  0  0  0  0  0  0  0  0  0  0
  -31.5161  -27.0989   20.4931 N   0  0  0  0  0  0  0  0  0  0  0  0
  -28.8781  -30.6543   21.3857 N   0  0  0  0  0  0  0  0  0  0  0  0
  -24.8018   -9.6296   20.6244 N   0  0  0  0  0  0  0  0  0  0  0  0
  -28.7195  -14.6371   18.1671 N   0  0  0  0  0  0  0  0  0  0  0  0
  -28.9086  -21.5924   21.7181 N   0  0  0  0  0  0  0  0  0  0  0  0
  -27.6090  -17.8716   16.9957 N   0  3  0  0  0  0  0  0  0  0  0  0
  -31.0467  -29.9100   21.3383 O   0  0  0  0  0  0  0  0  0  0  0  0
  -26.6369  -10.8228   21.4188 O   0  0  0  0  0  0  0  0  0  0  0  0
  -27.5809  -12.0152   17.9718 O   0  0  0  0  0  0  0  0  0  0  0  0
  -28.1244  -16.5074   19.4019 O   0  0  0  0  0  0  0  0  0  0  0  0
  -29.5105  -20.2808   19.9365 O   0  0  0  0  0  0  0  0  0  0  0  0
  -23.3307  -30.8411   20.9097 O   0  0  0  0  0  0  0  0  0  0  0  0
  -23.4892  -15.8280   24.3419 O   0  0  0  0  0  0  0  0  0  1  0  0
  -19.0437  -28.3725   23.3450 F   0  0  0  0  0  0  0  0  0  0  0  0
  -22.2544  -28.5166   19.8700 F   0  0  0  0  0  0  0  0  0  0  0  0
  1  2  1  0  0  0  0
  1  5  2  0  0  0  0
  2  6  2  0  0  0  0
  3  8  2  0  0  0  0
  3 16  1  0  0  0  0
  4  9  1  0  0  0  0
  4 16  2  0  0  0  0
  5 18  1  0  0  0  0
  6 20  1  0  0  0  0
  7 10  2  0  0  0  0
  7 19  1  0  0  0  0
  8 23  1  0  0  0  0
  9 23  2  0  0  0  0
 10 24  1  0  0  0  0
 11 12  2  0  0  0  0
 11 25  1  0  0  0  0
 12 26  1  0  0  0  0
 13 21  1  0  0  0  0
 13 24  2  0  0  0  0
 14 22  1  0  0  0  0
 14 29  2  0  0  0  0
 15 26  2  0  0  0  0
 15 27  1  0  0  0  0
 16 28  1  0  0  0  0
 17 28  1  0  0  0  0
 17 31  2  0  0  0  0
 17 32  1  0  0  0  0
 18 20  2  0  0  0  0
 18 37  1  0  0  0  0
 19 21  2  0  0  0  0
 19 38  1  0  0  0  0
 20 46  1  0  0  0  0
 21 39  1  0  0  0  0
 22 30  2  0  0  0  0
 22 67  1  0  0  0  0
 23 85  1  0  0  0  0
 24 86  1  0  0  0  0
 25 27  2  0  0  0  0
 25 85  1  0  0  0  0
 26 87  1  0  0  0  0
 27 88  1  0  0  0  0
 28 69  2  0  0  0  0
 29 59  1  0  0  0  0
 29 70  1  0  0  0  0
 30 49  1  0  0  0  0
 30 70  1  0  0  0  0
 31 71  1  0  0  0  0
 31 74  1  0  0  0  0
 32 75  1  0  0  0  0
 32 80  2  0  0  0  0
 33 47  1  0  0  0  0
 33 76  1  0  0  0  0
 33 81  2  0  0  0  0
 34 64  1  0  0  0  0
 34 72  1  0  0  0  0
 34 82  2  0  0  0  0
 35 65  1  0  0  0  0
 35 77  1  0  0  0  0
 35 83  2  0  0  0  0
 36 73  1  0  0  0  0
 36 78  1  0  0  0  0
 36 84  2  0  0  0  0
 37 40  1  0  0  0  0
 38 47  1  0  0  0  0
 39 72  1  0  0  0  0
 40 42  1  0  0  0  0
 41 43  1  0  0  0  0
 41 44  1  0  0  0  0
 42 46  1  0  0  0  0
 43 48  1  0  0  0  0
 44 73  1  0  0  0  0
 45 48  1  0  0  0  0
 45 73  1  0  0  0  0
 46 76  1  0  0  0  0
 47 72  1  0  0  0  0
 48 71  1  0  0  0  0
 50 65  1  0  0  0  0
 51 66  1  0  0  0  0
 52 66  1  0  0  0  0
 53 67  1  0  0  0  0
 54 67  1  0  0  0  0
 55 68  1  0  0  0  0
 56 68  1  0  0  0  0
 57 68  1  0  0  0  0
 58 79  1  0  0  0  0
 59 60  1  0  0  0  0
 60 62  1  0  0  0  0
 61 66  1  0  0  0  0
 61 70  1  0  0  0  0
 62 78  1  0  0  0  0
 63 67  1  0  0  0  0
 63 86  1  0  0  0  0
 64 68  1  0  0  0  0
 64 77  1  0  0  0  0
 65 79  1  0  0  0  0
 69 71  1  0  0  0  0
M  CHG  1  79   1
M  ISO  4  36 100  63 101  78 100  86 101
M  END
> <Batch ID>
0089

> <Smiles>
CNC(C)C(=O)NC(C(=O)N1Cc2cc([101O:1][101CH2:1]C(C)(C)c3cc(CCC[100NH:0][100C:0](=O)N4CCCC(n5nc(-c6ccc(Oc7ccc(F)cc7F)cc6)c(C(N)=O)c5N)C4)n(CC(C)C)c3C)ccc2CC1C(=O)NC1CCCc2ccccc21)C(C)(C)C

> <Shape>
0.295

> <Color>
0.062

> <Negative vol penalty>
0.000

$$$$

  -OEChem-04052319063D

 87 95  0     1  0  0  0  0  0999 V2000
  -30.3095  -27.1638   37.0442 C   0  0  0  0  0  0  0  0  0  0  0  0
  -29.8018  -26.1592   36.2265 C   0  0  0  0  0  0  0  0  0  0  0  0
  -23.0749   -9.8674   19.9430 C   0  0  0  0  0  0  0  0  0  0  0  0
  -23.8388   -9.8754   22.2350 C   0  0  0  0  0  0  0  0  0  0  0  0
  -30.3281  -28.4836   36.5953 C   0  0  0  0  0  0  0  0  0  0  0  0
  -29.3114  -26.4742   34.9598 C   0  0  0  0  0  0  0  0  0  0  0  0
  -28.7491  -23.7554   28.3561 C   0  0  0  0  0  0  0  0  0  0  0  0
  -22.3325   -8.7136   20.1944 C   0  0  0  0  0  0  0  0  0  0  0  0
  -23.0964   -8.7216   22.4865 C   0  0  0  0  0  0  0  0  0  0  0  0
  -27.7955  -23.5154   27.3678 C   0  0  0  0  0  0  0  0  0  0  0  0
  -19.8700   -7.9209   23.0947 C   0  0  0  0  0  0  0  0  0  0  0  0
  -19.1151   -7.8804   24.2670 C   0  0  0  0  0  0  0  0  0  0  0  0
  -27.9510  -25.8184   26.6669 C   0  0  0  0  0  0  0  0  0  0  0  0
  -20.3596   -5.9442   25.0015 C   0  0  0  0  0  0  0  0  0  0  0  0
  -23.8281  -10.4483   20.9633 C   0  0  0  0  0  0  0  0  0  0  0  0
  -24.1674  -12.9737   20.8423 C   0  0  0  0  0  0  0  0  0  0  0  0
  -29.8465  -28.8135   35.3186 C   0  0  0  0  0  0  0  0  0  0  0  0
  -29.3037  -25.0335   28.5146 C   0  0  0  0  0  0  0  0  0  0  0  0
  -29.3224  -27.7999   34.4939 C   0  0  0  0  0  0  0  0  0  0  0  0
  -28.9134  -26.0714   27.6564 C   0  0  0  0  0  0  0  0  0  0  0  0
  -22.3432   -8.1407   21.4661 C   0  0  0  0  0  0  0  0  0  0  0  0
  -27.3942  -24.5476   26.5248 C   0  0  0  0  0  0  0  0  0  0  0  0
  -20.8696   -6.9730   22.8758 C   0  0  0  0  0  0  0  0  0  0  0  0
  -19.3599   -6.8921   25.2203 C   0  0  0  0  0  0  0  0  0  0  0  0
  -21.1145   -5.9847   23.8292 C   0  0  0  0  0  0  0  0  0  0  0  0
  -24.5956  -11.6398   20.7040 C   0  0  0  0  0  0  0  0  0  0  0  0
  -25.2582  -13.7242   20.4771 C   0  0  0  0  0  0  0  0  0  0  0  0
  -22.8971  -13.4884   21.2634 C   0  0  0  0  0  0  0  0  0  0  0  0
  -29.3380  -27.1900   30.8496 C   0  0  0  0  0  0  0  0  0  0  0  0
  -31.3732  -28.7427   28.8572 C   0  0  0  0  0  0  0  0  0  0  0  0
  -32.4849  -29.2492   25.6706 C   0  0  0  0  0  0  0  0  0  0  0  0
  -30.7413  -14.7483   20.6557 C   0  0  0  0  0  0  0  0  0  0  0  0
  -29.8437  -30.2612   34.8956 C   0  0  0  0  0  0  0  0  0  0  0  0
  -30.3509  -25.2695   29.5683 C   0  0  0  0  0  0  0  0  0  0  0  0
  -29.4933  -27.4565   27.7721 C   0  0  0  0  0  0  0  0  0  0  0  0
  -29.6502  -30.4565   33.3940 C   0  0  0  0  0  0  0  0  0  0  0  0
  -29.6017  -12.3624   18.2712 C   0  0  0  0  0  0  0  0  0  0  0  0
  -28.5051  -29.5864   32.8857 C   0  0  0  0  0  0  0  0  0  0  0  0
  -28.9992  -18.3366   20.8413 C   0  0  0  0  0  0  0  0  0  0  0  0
  -31.3019  -19.3043   21.2515 C   0  0  0  0  0  0  0  0  0  0  0  0
  -28.1653  -12.0674   18.7067 C   0  0  0  0  0  0  0  0  0  0  0  0
  -28.4733  -19.0566   22.0832 C   0  0  0  0  0  0  0  0  0  0  0  0
  -30.7793  -20.0258   22.4939 C   0  0  0  0  0  0  0  0  0  0  0  0
  -30.5207  -12.5842   19.4705 C   0  0  0  0  0  0  0  0  0  0  0  0
  -28.6208  -13.3137   20.8603 C   0  0  0  0  0  0  0  0  0  0  0  0
  -28.8042  -28.0983   33.1037 C   0  0  1  0  0  0  0  0  0  0  0  0
  -30.4710  -26.7354   29.9736 C   0  0  1  0  0  0  0  0  0  0  0  0
  -30.5043  -18.0356   20.9118 C   0  0  0  0  0  0  0  0  0  0  0  0
  -27.6447  -13.1381   19.6844 C   0  0  2  0  0  0  0  0  0  0  0  0
  -29.2858  -20.3160   22.3717 C   0  0  0  0  0  0  0  0  0  0  0  0
  -34.1319  -30.6073   24.3514 C   0  0  0  0  0  0  0  0  0  0  0  0
  -25.0401  -22.4099   25.3224 C   0  0  0  0  0  0  0  0  0  0  0  0
  -29.5581  -31.1825   29.1075 C   0  0  0  0  0  0  0  0  0  0  0  0
  -30.6858  -32.1417   27.0884 C   0  0  0  0  0  0  0  0  0  0  0  0
  -32.0057  -31.6936   29.1571 C   0  0  0  0  0  0  0  0  0  0  0  0
  -28.5678  -24.7144   23.1665 C   0  0  0  0  0  0  0  0  0  0  0  0
  -28.1458  -22.9282   21.4904 C   0  0  0  0  0  0  0  0  0  0  0  0
  -33.9041  -26.8283   24.7303 C   0  0  0  0  0  0  0  0  0  0  0  0
  -29.2876  -20.1222   24.8361 C   0  0  0  0  0  0  0  0  0  0  0  0
  -30.8073  -16.8991   21.8922 C   0  0  0  0  0  0  0  0  0  0  0  0
  -26.6435  -23.0595   23.4912 C   0  0  0  0  0  0  0  0  0  0  0  0
  -29.1292  -22.3594   23.7541 C   0  0  0  0  0  0  0  0  0  0  0  0
  -31.2184  -29.7506   27.7440 C   0  0  1  0  0  0  0  0  0  0  0  0
  -33.8861  -29.3001   25.0887 C   0  0  2  0  0  0  0  0  0  0  0  0
  -26.4115  -23.0007   25.0092 C   0  0  1  0  0  0  0  0  0  1  0  0
  -30.8545  -31.1666   28.2731 C   0  0  0  0  0  0  0  0  0  0  0  0
  -28.1132  -23.2497   23.0029 C   0  0  0  0  0  0  0  0  0  0  0  0
  -25.8598  -11.5451   20.2836 N   0  0  0  0  0  0  0  0  0  0  0  0
  -26.2353  -12.8290   20.1544 N   0  0  0  0  0  0  0  0  0  0  0  0
  -30.5093  -27.6389   28.8219 N   0  0  0  0  0  0  0  0  0  0  0  0
  -29.9708  -13.6124   20.3573 N   0  0  0  0  0  0  0  0  0  0  0  0
  -25.4672  -15.0558   20.4035 N   0  0  0  0  0  0  0  0  0  0  0  0
  -21.8866  -12.5784   21.6026 N   0  0  0  0  0  0  0  0  0  0  0  0
  -29.7326  -27.6175   32.1030 N   0  0  0  0  0  0  0  0  0  0  0  0
  -32.4560  -29.7006   26.9731 N   0  0  0  0  0  0  0  0  0  0  0  0
  -30.1428  -15.6767   21.4987 N   0  0  0  0  0  0  0  0  0  0  0  0
  -34.0911  -28.1755   24.1327 N   0  3  0  0  0  0  0  0  0  0  0  0
  -28.8069  -20.9159   23.6456 N   0  3  1  0  0  0  0  0  0  0  0  0
  -22.6598  -14.7188   21.3210 O   0  0  0  0  0  0  0  0  0  0  0  0
  -28.1910  -27.1569   30.4196 O   0  0  0  0  0  0  0  0  0  0  0  0
  -32.2338  -28.9242   29.7220 O   0  0  0  0  0  0  0  0  0  0  0  0
  -31.5125  -28.8524   25.0321 O   0  0  0  0  0  0  0  0  0  0  0  0
  -31.8763  -14.9247   20.2001 O   0  0  0  0  0  0  0  0  0  0  0  0
  -21.6187   -7.0150   21.7119 O   0  0  0  0  0  0  0  0  0  0  0  0
  -26.4632  -24.3162   25.5597 O   0  0  0  0  0  0  0  0  0  1  0  0
  -18.6360   -6.8543   26.3467 F   0  0  0  0  0  0  0  0  0  0  0  0
  -22.0743   -5.0720   23.6250 F   0  0  0  0  0  0  0  0  0  0  0  0
  1  2  1  0  0  0  0
  1  5  2  0  0  0  0
  2  6  2  0  0  0  0
  3  8  2  0  0  0  0
  3 15  1  0  0  0  0
  4  9  1  0  0  0  0
  4 15  2  0  0  0  0
  5 17  1  0  0  0  0
  6 19  1  0  0  0  0
  7 10  2  0  0  0  0
  7 18  1  0  0  0  0
  8 21  1  0  0  0  0
  9 21  2  0  0  0  0
 10 22  1  0  0  0  0
 11 12  2  0  0  0  0
 11 23  1  0  0  0  0
 12 24  1  0  0  0  0
 13 20  1  0  0  0  0
 13 22  2  0  0  0  0
 14 24  2  0  0  0  0
 14 25  1  0  0  0  0
 15 26  1  0  0  0  0
 16 26  1  0  0  0  0
 16 27  2  0  0  0  0
 16 28  1  0  0  0  0
 17 19  2  0  0  0  0
 17 33  1  0  0  0  0
 18 20  2  0  0  0  0
 18 34  1  0  0  0  0
 19 46  1  0  0  0  0
 20 35  1  0  0  0  0
 21 84  1  0  0  0  0
 22 85  1  0  0  0  0
 23 25  2  0  0  0  0
 23 84  1  0  0  0  0
 24 86  1  0  0  0  0
 25 87  1  0  0  0  0
 26 68  2  0  0  0  0
 27 69  1  0  0  0  0
 27 72  1  0  0  0  0
 28 73  1  0  0  0  0
 28 79  2  0  0  0  0
 29 47  1  0  0  0  0
 29 74  1  0  0  0  0
 29 80  2  0  0  0  0
 30 63  1  0  0  0  0
 30 70  1  0  0  0  0
 30 81  2  0  0  0  0
 31 64  1  0  0  0  0
 31 75  1  0  0  0  0
 31 82  2  0  0  0  0
 32 71  1  0  0  0  0
 32 76  1  0  0  0  0
 32 83  2  0  0  0  0
 33 36  1  0  0  0  0
 34 47  1  0  0  0  0
 35 70  1  0  0  0  0
 36 38  1  0  0  0  0
 37 41  1  0  0  0  0
 37 44  1  0  0  0  0
 38 46  1  0  0  0  0
 39 42  1  0  0  0  0
 39 48  1  0  0  0  0
 40 43  1  0  0  0  0
 40 48  1  0  0  0  0
 41 49  1  0  0  0  0
 42 50  1  0  0  0  0
 43 50  1  0  0  0  0
 44 71  1  0  0  0  0
 45 49  1  0  0  0  0
 45 71  1  0  0  0  0
 46 74  1  0  0  0  0
 47 70  1  0  0  0  0
 48 60  1  0  0  0  0
 49 69  1  0  0  0  0
 50 78  1  0  0  0  0
 51 64  1  0  0  0  0
 52 65  1  0  0  0  0
 53 66  1  0  0  0  0
 54 66  1  0  0  0  0
 55 66  1  0  0  0  0
 56 67  1  0  0  0  0
 57 67  1  0  0  0  0
 58 77  1  0  0  0  0
 59 78  1  0  0  0  0
 60 76  1  0  0  0  0
 61 65  1  0  0  0  0
 61 67  1  0  0  0  0
 62 67  1  0  0  0  0
 62 78  1  0  0  0  0
 63 66  1  0  0  0  0
 63 75  1  0  0  0  0
 64 77  1  0  0  0  0
 65 85  1  0  0  0  0
 68 69  1  0  0  0  0
M  CHG  2  77   1  78   1
M  ISO  4  32 100  65 101  76 100  85 101
M  END
> <Batch ID>
0089

> <Smiles>
CNC(C)C(=O)NC(C(=O)N1Cc2cc([101O:1][101CH:1](C)CC(C)(C)CN(C)C3CCC(C[100NH:0][100C:0](=O)N4CCCC(n5nc(-c6ccc(Oc7ccc(F)cc7F)cc6)c(C(N)=O)c5N)C4)CC3)ccc2CC1C(=O)NC1CCCc2ccccc21)C(C)(C)C

> <Shape>
0.182

> <Color>
0.187

> <Negative vol penalty>
0.000

$$$$

  -OEChem-04052319063D

 86 94  0     1  0  0  0  0  0999 V2000
  -16.9678  -28.4864   17.6781 C   0  0  0  0  0  0  0  0  0  0  0  0
  -17.2973  -27.1349   17.6961 C   0  0  0  0  0  0  0  0  0  0  0  0
  -23.0732   -9.8717   19.9389 C   0  0  0  0  0  0  0  0  0  0  0  0
  -23.8386   -9.8719   22.2305 C   0  0  0  0  0  0  0  0  0  0  0  0
  -17.7016  -29.3713   16.8892 C   0  0  0  0  0  0  0  0  0  0  0  0
  -18.3604  -26.6673   16.9243 C   0  0  0  0  0  0  0  0  0  0  0  0
  -22.2325  -22.1413   18.3482 C   0  0  0  0  0  0  0  0  0  0  0  0
  -22.3301   -8.7176   20.1872 C   0  0  0  0  0  0  0  0  0  0  0  0
  -23.0954   -8.7179   22.4788 C   0  0  0  0  0  0  0  0  0  0  0  0
  -22.2777  -20.7963   17.9841 C   0  0  0  0  0  0  0  0  0  0  0  0
  -19.8689   -7.9177   23.0867 C   0  0  0  0  0  0  0  0  0  0  0  0
  -19.1148   -7.8741   24.2592 C   0  0  0  0  0  0  0  0  0  0  0  0
  -23.8373  -21.3315   16.2234 C   0  0  0  0  0  0  0  0  0  0  0  0
  -30.7401  -18.8847   19.2030 C   0  0  0  0  0  0  0  0  0  0  0  0
  -28.6758  -17.6724   19.4338 C   0  0  0  0  0  0  0  0  0  0  0  0
  -20.3583   -5.9347   24.9869 C   0  0  0  0  0  0  0  0  0  0  0  0
  -23.8275  -10.4488   20.9606 C   0  0  0  0  0  0  0  0  0  0  0  0
  -24.1686  -12.9743   20.8473 C   0  0  0  0  0  0  0  0  0  0  0  0
  -18.7803  -28.9159   16.1148 C   0  0  0  0  0  0  0  0  0  0  0  0
  -22.9822  -23.0948   17.6444 C   0  0  0  0  0  0  0  0  0  0  0  0
  -19.1085  -27.5467   16.1233 C   0  0  0  0  0  0  0  0  0  0  0  0
  -23.8018  -22.6876   16.5821 C   0  0  0  0  0  0  0  0  0  0  0  0
  -29.8108  -18.2345   20.0073 C   0  0  0  0  0  0  0  0  0  0  0  0
  -22.3412   -8.1408   21.4571 C   0  0  0  0  0  0  0  0  0  0  0  0
  -23.0779  -20.3916   16.9198 C   0  0  0  0  0  0  0  0  0  0  0  0
  -20.8677   -6.9697   22.8641 C   0  0  0  0  0  0  0  0  0  0  0  0
  -19.3594   -6.8827   25.2094 C   0  0  0  0  0  0  0  0  0  0  0  0
  -21.1124   -5.9783   23.8143 C   0  0  0  0  0  0  0  0  0  0  0  0
  -24.5957  -11.6406   20.7045 C   0  0  0  0  0  0  0  0  0  0  0  0
  -30.4898  -18.9450   17.8415 C   0  0  0  0  0  0  0  0  0  0  0  0
  -28.5178  -17.7871   18.0620 C   0  0  0  0  0  0  0  0  0  0  0  0
  -25.2597  -13.7251   20.4836 C   0  0  0  0  0  0  0  0  0  0  0  0
  -22.8990  -13.4887   21.2708 C   0  0  0  0  0  0  0  0  0  0  0  0
  -22.2815  -25.6653   15.9109 C   0  0  0  0  0  0  0  0  0  0  0  0
  -25.5035  -26.0391   15.8748 C   0  0  0  0  0  0  0  0  0  0  0  0
  -28.5895  -24.6070   16.1438 C   0  0  0  0  0  0  0  0  0  0  0  0
  -30.7437  -14.7446   20.6619 C   0  0  0  0  0  0  0  0  0  0  0  0
  -19.5143  -29.9022   15.2413 C   0  0  0  0  0  0  0  0  0  0  0  0
  -22.9431  -24.5379   18.0666 C   0  0  0  0  0  0  0  0  0  0  0  0
  -24.6416  -23.6689   15.8073 C   0  0  0  0  0  0  0  0  0  0  0  0
  -20.8622  -29.3883   14.7420 C   0  0  0  0  0  0  0  0  0  0  0  0
  -29.6008  -12.3670   18.2707 C   0  0  0  0  0  0  0  0  0  0  0  0
  -20.7277  -27.9640   14.2128 C   0  0  0  0  0  0  0  0  0  0  0  0
  -28.1645  -12.0717   18.7062 C   0  0  0  0  0  0  0  0  0  0  0  0
  -30.5208  -12.5844   19.4701 C   0  0  0  0  0  0  0  0  0  0  0  0
  -28.6222  -13.3110   20.8634 C   0  0  0  0  0  0  0  0  0  0  0  0
  -20.2704  -27.0054   15.3189 C   0  0  1  0  0  0  0  0  0  0  0  0
  -23.3509  -25.4975   16.9530 C   0  0  1  0  0  0  0  0  0  0  0  0
  -27.6453  -13.1397   19.6876 C   0  0  2  0  0  0  0  0  0  0  0  0
  -31.4657  -19.6351   16.9479 C   0  0  0  0  0  0  0  0  0  0  0  0
  -31.0346  -25.1603   16.0309 C   0  0  0  0  0  0  0  0  0  0  0  0
  -25.8831  -15.0318   16.2127 C   0  0  0  0  0  0  0  0  0  0  0  0
  -25.3265  -26.1891   12.8324 C   0  0  0  0  0  0  0  0  0  0  0  0
  -27.7955  -25.7845   12.7384 C   0  0  0  0  0  0  0  0  0  0  0  0
  -26.9099  -27.8251   13.8672 C   0  0  0  0  0  0  0  0  0  0  0  0
  -29.0318  -23.7480   18.9412 C   0  0  0  0  0  0  0  0  0  0  0  0
  -30.0308  -18.1404   21.4788 C   0  0  0  0  0  0  0  0  0  0  0  0
  -24.5114  -17.1351   16.3489 C   0  0  0  0  0  0  0  0  0  0  0  0
  -30.8121  -16.8915   21.9051 C   0  0  0  0  0  0  0  0  0  0  0  0
  -27.0780  -17.2596   16.0937 C   0  0  0  0  0  0  0  0  0  0  0  0
  -24.3398  -18.6050   15.9861 C   0  0  0  0  0  0  0  0  0  1  0  0
  -26.6240  -25.5718   14.9775 C   0  0  1  0  0  0  0  0  0  0  0  0
  -29.8211  -25.0091   16.9349 C   0  0  2  0  0  0  0  0  0  0  0  0
  -25.7853  -16.4954   15.7664 C   0  0  1  0  0  0  0  0  0  0  0  0
  -26.6468  -26.3242   13.6171 C   0  0  0  0  0  0  0  0  0  0  0  0
  -25.8596  -11.5462   20.2829 N   0  0  0  0  0  0  0  0  0  0  0  0
  -29.3988  -18.4111   17.2482 N   0  0  0  0  0  0  0  0  0  0  0  0
  -26.2360  -12.8302   20.1575 N   0  0  0  0  0  0  0  0  0  0  0  0
  -24.5645  -25.0695   16.2543 N   0  0  0  0  0  0  0  0  0  0  0  0
  -29.9722  -13.6102   20.3604 N   0  0  0  0  0  0  0  0  0  0  0  0
  -25.4697  -15.0568   20.4141 N   0  0  0  0  0  0  0  0  0  0  0  0
  -21.8880  -12.5783   21.6077 N   0  0  0  0  0  0  0  0  0  0  0  0
  -27.3818  -17.2222   17.5046 N   0  0  0  0  0  0  0  0  0  0  0  0
  -21.3779  -26.6729   16.1893 N   0  0  0  0  0  0  0  0  0  0  0  0
  -27.8516  -25.7048   15.7545 N   0  0  0  0  0  0  0  0  0  0  0  0
  -30.1464  -15.6708   21.5081 N   0  0  0  0  0  0  0  0  0  0  0  0
  -30.1307  -23.9818   17.9692 N   0  3  0  0  0  0  0  0  0  0  0  0
  -22.6627  -14.7191   21.3323 O   0  0  0  0  0  0  0  0  0  0  0  0
  -22.2775  -24.9356   14.9264 O   0  0  0  0  0  0  0  0  0  0  0  0
  -25.4669  -27.2193   16.2318 O   0  0  0  0  0  0  0  0  0  0  0  0
  -28.3120  -23.4363   15.8929 O   0  0  0  0  0  0  0  0  0  0  0  0
  -31.8785  -14.9216   20.2061 O   0  0  0  0  0  0  0  0  0  0  0  0
  -21.6160   -7.0148   21.6999 O   0  0  0  0  0  0  0  0  0  0  0  0
  -23.1234  -19.0794   16.5619 O   0  0  0  0  0  0  0  0  0  1  0  0
  -18.6362   -6.8419   26.3361 F   0  0  0  0  0  0  0  0  0  0  0  0
  -22.0714   -5.0656   23.6066 F   0  0  0  0  0  0  0  0  0  0  0  0
  1  2  1  0  0  0  0
  1  5  2  0  0  0  0
  2  6  2  0  0  0  0
  3  8  2  0  0  0  0
  3 17  1  0  0  0  0
  4  9  1  0  0  0  0
  4 17  2  0  0  0  0
  5 19  1  0  0  0  0
  6 21  1  0  0  0  0
  7 10  2  0  0  0  0
  7 20  1  0  0  0  0
  8 24  1  0  0  0  0
  9 24  2  0  0  0  0
 10 25  1  0  0  0  0
 11 12  2  0  0  0  0
 11 26  1  0  0  0  0
 12 27  1  0  0  0  0
 13 22  1  0  0  0  0
 13 25  2  0  0  0  0
 14 23  1  0  0  0  0
 14 30  2  0  0  0  0
 15 23  2  0  0  0  0
 15 31  1  0  0  0  0
 16 27  2  0  0  0  0
 16 28  1  0  0  0  0
 17 29  1  0  0  0  0
 18 29  1  0  0  0  0
 18 32  2  0  0  0  0
 18 33  1  0  0  0  0
 19 21  2  0  0  0  0
 19 38  1  0  0  0  0
 20 22  2  0  0  0  0
 20 39  1  0  0  0  0
 21 47  1  0  0  0  0
 22 40  1  0  0  0  0
 23 57  1  0  0  0  0
 24 83  1  0  0  0  0
 25 84  1  0  0  0  0
 26 28  2  0  0  0  0
 26 83  1  0  0  0  0
 27 85  1  0  0  0  0
 28 86  1  0  0  0  0
 29 66  2  0  0  0  0
 30 50  1  0  0  0  0
 30 67  1  0  0  0  0
 31 67  2  0  0  0  0
 31 73  1  0  0  0  0
 32 68  1  0  0  0  0
 32 71  1  0  0  0  0
 33 72  1  0  0  0  0
 33 78  2  0  0  0  0
 34 48  1  0  0  0  0
 34 74  1  0  0  0  0
 34 79  2  0  0  0  0
 35 62  1  0  0  0  0
 35 69  1  0  0  0  0
 35 80  2  0  0  0  0
 36 63  1  0  0  0  0
 36 75  1  0  0  0  0
 36 81  2  0  0  0  0
 37 70  1  0  0  0  0
 37 76  1  0  0  0  0
 37 82  2  0  0  0  0
 38 41  1  0  0  0  0
 39 48  1  0  0  0  0
 40 69  1  0  0  0  0
 41 43  1  0  0  0  0
 42 44  1  0  0  0  0
 42 45  1  0  0  0  0
 43 47  1  0  0  0  0
 44 49  1  0  0  0  0
 45 70  1  0  0  0  0
 46 49  1  0  0  0  0
 46 70  1  0  0  0  0
 47 74  1  0  0  0  0
 48 69  1  0  0  0  0
 49 68  1  0  0  0  0
 51 63  1  0  0  0  0
 52 64  1  0  0  0  0
 53 65  1  0  0  0  0
 54 65  1  0  0  0  0
 55 65  1  0  0  0  0
 56 77  1  0  0  0  0
 57 59  1  0  0  0  0
 58 61  1  0  0  0  0
 58 64  1  0  0  0  0
 59 76  1  0  0  0  0
 60 64  1  0  0  0  0
 60 73  1  0  0  0  0
 61 84  1  0  0  0  0
 62 65  1  0  0  0  0
 62 75  1  0  0  0  0
 63 77  1  0  0  0  0
 66 68  1  0  0  0  0
M  CHG  1  77   1
M  ISO  4  37 100  61 101  76 100  84 101
M  END
> <Batch ID>
0089

> <Smiles>
CNC(C)C(=O)NC(C(=O)N1Cc2cc([101O:1][101CH2:1]CC(C)CNc3cc(CC[100NH:0][100C:0](=O)N4CCCC(n5nc(-c6ccc(Oc7ccc(F)cc7F)cc6)c(C(N)=O)c5N)C4)cc(C)n3)ccc2CC1C(=O)NC1CCCc2ccccc21)C(C)(C)C

> <Shape>
0.214

> <Color>
0.187

> <Negative vol penalty>
0.000

$$$$

  -OEChem-04052319063D

 87 95  0     1  0  0  0  0  0999 V2000
  -31.2718  -25.6982   16.9787 C   0  0  0  0  0  0  0  0  0  0  0  0
  -30.9608  -25.2295   18.2511 C   0  0  0  0  0  0  0  0  0  0  0  0
  -24.0645   -9.4171   19.8071 C   0  0  0  0  0  0  0  0  0  0  0  0
  -24.4193   -9.6219   22.1881 C   0  0  0  0  0  0  0  0  0  0  0  0
  -31.2737  -27.0689   16.7232 C   0  0  0  0  0  0  0  0  0  0  0  0
  -30.6525  -26.1313   19.2691 C   0  0  0  0  0  0  0  0  0  0  0  0
  -26.6091  -24.7090   21.9658 C   0  0  0  0  0  0  0  0  0  0  0  0
  -23.6183   -8.1077   19.9862 C   0  0  0  0  0  0  0  0  0  0  0  0
  -23.9730   -8.3126   22.3673 C   0  0  0  0  0  0  0  0  0  0  0  0
  -26.7989  -23.7092   22.9188 C   0  0  0  0  0  0  0  0  0  0  0  0
  -21.0128   -6.6874   22.4959 C   0  0  0  0  0  0  0  0  0  0  0  0
  -20.1155   -6.4468   23.5364 C   0  0  0  0  0  0  0  0  0  0  0  0
  -26.9015  -25.3867   24.6493 C   0  0  0  0  0  0  0  0  0  0  0  0
  -29.2601  -20.2260   25.4672 C   0  0  0  0  0  0  0  0  0  0  0  0
  -21.6864   -4.9063   24.5347 C   0  0  0  0  0  0  0  0  0  0  0  0
  -24.4651  -10.1742   20.9081 C   0  0  0  0  0  0  0  0  0  0  0  0
  -24.1489  -12.6998   20.7388 C   0  0  0  0  0  0  0  0  0  0  0  0
  -30.9558  -27.9874   17.7360 C   0  0  0  0  0  0  0  0  0  0  0  0
  -26.5749  -26.0581   22.3466 C   0  0  0  0  0  0  0  0  0  0  0  0
  -30.6514  -27.5156   19.0271 C   0  0  0  0  0  0  0  0  0  0  0  0
  -26.7085  -26.4015   23.6995 C   0  0  0  0  0  0  0  0  0  0  0  0
  -30.1447  -19.6669   24.5517 C   0  0  0  0  0  0  0  0  0  0  0  0
  -31.2406  -20.4024   24.1141 C   0  0  0  0  0  0  0  0  0  0  0  0
  -23.5725   -7.5555   21.2663 C   0  0  0  0  0  0  0  0  0  0  0  0
  -26.9481  -24.0482   24.2604 C   0  0  0  0  0  0  0  0  0  0  0  0
  -22.2468   -6.0374   22.4747 C   0  0  0  0  0  0  0  0  0  0  0  0
  -20.4523   -5.5563   24.5558 C   0  0  0  0  0  0  0  0  0  0  0  0
  -22.5836   -5.1469   23.4942 C   0  0  0  0  0  0  0  0  0  0  0  0
  -24.9267  -11.5266   20.7236 C   0  0  0  0  0  0  0  0  0  0  0  0
  -29.5138  -21.5139   25.9109 C   0  0  0  0  0  0  0  0  0  0  0  0
  -31.4056  -21.6824   24.6182 C   0  0  0  0  0  0  0  0  0  0  0  0
  -25.0503  -13.7123   20.5182 C   0  0  0  0  0  0  0  0  0  0  0  0
  -22.7376  -12.8601   20.9348 C   0  0  0  0  0  0  0  0  0  0  0  0
  -28.3352  -28.6209   21.6854 C   0  0  0  0  0  0  0  0  0  0  0  0
  -26.0413  -30.1549   23.3905 C   0  0  0  0  0  0  0  0  0  0  0  0
  -23.5956  -29.9852   25.7646 C   0  0  0  0  0  0  0  0  0  0  0  0
  -29.9731  -16.1472   21.5098 C   0  0  0  0  0  0  0  0  0  0  0  0
  -31.0171  -29.4618   17.4242 C   0  0  0  0  0  0  0  0  0  0  0  0
  -26.3425  -27.1228   21.3099 C   0  0  0  0  0  0  0  0  0  0  0  0
  -26.6590  -27.8338   24.1628 C   0  0  0  0  0  0  0  0  0  0  0  0
  -30.3135  -30.3334   18.4613 C   0  0  0  0  0  0  0  0  0  0  0  0
  -29.8959  -13.5498   19.0758 C   0  0  0  0  0  0  0  0  0  0  0  0
  -30.7089  -29.9090   19.8721 C   0  0  0  0  0  0  0  0  0  0  0  0
  -28.5354  -12.8853   19.2931 C   0  0  0  0  0  0  0  0  0  0  0  0
  -30.5191  -14.0040   20.3939 C   0  0  0  0  0  0  0  0  0  0  0  0
  -28.2959  -14.2034   21.4388 C   0  0  0  0  0  0  0  0  0  0  0  0
  -30.2875  -28.4613   20.1511 C   0  0  1  0  0  0  0  0  0  0  0  0
  -26.8388  -28.4984   21.7444 C   0  0  1  0  0  0  0  0  0  0  0  0
  -27.6027  -13.7786   20.1329 C   0  0  2  0  0  0  0  0  0  0  0  0
  -32.2076  -19.8276   23.1344 C   0  0  0  0  0  0  0  0  0  0  0  0
  -30.6774  -25.7909   23.2559 C   0  0  0  0  0  0  0  0  0  0  0  0
  -29.2902  -22.4719   28.2269 C   0  0  0  0  0  0  0  0  0  0  0  0
  -21.9198  -31.4106   26.9718 C   0  0  0  0  0  0  0  0  0  0  0  0
  -28.2758  -31.3207   25.1104 C   0  0  0  0  0  0  0  0  0  0  0  0
  -26.5489  -31.9300   26.8177 C   0  0  0  0  0  0  0  0  0  0  0  0
  -26.4524  -32.9330   24.5357 C   0  0  0  0  0  0  0  0  0  0  0  0
  -21.3235  -28.4017   24.7208 C   0  0  0  0  0  0  0  0  0  0  0  0
  -29.8948  -18.2817   24.0539 C   0  0  0  0  0  0  0  0  0  0  0  0
  -32.5646  -22.5203   24.1868 C   0  0  0  0  0  0  0  0  0  0  0  0
  -31.0414  -24.3149   23.2389 C   0  0  0  0  0  0  0  0  0  0  0  0
  -32.2178  -24.0171   24.1685 C   0  0  0  0  0  0  0  0  0  0  0  0
  -29.2752  -18.2367   22.6527 C   0  0  0  0  0  0  0  0  0  0  0  0
  -27.9009  -23.4176   26.3462 C   0  0  0  0  0  0  0  0  0  1  0  0
  -28.5687  -22.1575   26.9134 C   0  0  1  0  0  0  0  0  0  0  0  0
  -25.8423  -30.4992   24.8468 C   0  0  1  0  0  0  0  0  0  0  0  0
  -22.1679  -30.5010   25.7786 C   0  0  2  0  0  0  0  0  0  0  0  0
  -26.7828  -31.6438   25.3190 C   0  0  0  0  0  0  0  0  0  0  0  0
  -26.2226  -11.7698   20.5102 N   0  0  0  0  0  0  0  0  0  0  0  0
  -30.5676  -22.2591   25.5086 N   0  0  0  0  0  0  0  0  0  0  0  0
  -26.2659  -13.1075   20.3890 N   0  0  0  0  0  0  0  0  0  0  0  0
  -26.4361  -28.8390   23.1104 N   0  0  0  0  0  0  0  0  0  0  0  0
  -29.5842  -14.8488   21.1412 N   0  0  0  0  0  0  0  0  0  0  0  0
  -24.9139  -15.0521   20.4240 N   0  0  0  0  0  0  0  0  0  0  0  0
  -21.9584  -11.7149   21.1486 N   0  0  0  0  0  0  0  0  0  0  0  0
  -28.8693  -28.3928   20.4315 N   0  0  0  0  0  0  0  0  0  0  0  0
  -24.4215  -30.7887   25.0073 N   0  0  0  0  0  0  0  0  0  0  0  0
  -29.0251  -16.8830   22.2103 N   0  0  0  0  0  0  0  0  0  0  0  0
  -21.2070  -29.3639   25.8467 N   0  3  0  0  0  0  0  0  0  0  0  0
  -22.1816  -13.9841   20.9044 O   0  0  0  0  0  0  0  0  0  0  0  0
  -28.9589  -28.9029   22.7018 O   0  0  0  0  0  0  0  0  0  0  0  0
  -25.8466  -31.0195   22.5326 O   0  0  0  0  0  0  0  0  0  0  0  0
  -23.9441  -28.9730   26.3682 O   0  0  0  0  0  0  0  0  0  0  0  0
  -31.0809  -16.6179   21.2304 O   0  0  0  0  0  0  0  0  0  0  0  0
  -23.1369   -6.2780   21.4415 O   0  0  0  0  0  0  0  0  0  0  0  0
  -27.1342  -23.0744   25.1926 O   0  0  0  0  0  0  0  0  0  1  0  0
  -19.5912   -5.3265   25.5557 F   0  0  0  0  0  0  0  0  0  0  0  0
  -23.7682   -4.5204   23.4799 F   0  0  0  0  0  0  0  0  0  0  0  0
  1  2  1  0  0  0  0
  1  5  2  0  0  0  0
  2  6  2  0  0  0  0
  3  8  2  0  0  0  0
  3 16  1  0  0  0  0
  4  9  1  0  0  0  0
  4 16  2  0  0  0  0
  5 18  1  0  0  0  0
  6 20  1  0  0  0  0
  7 10  2  0  0  0  0
  7 19  1  0  0  0  0
  8 24  1  0  0  0  0
  9 24  2  0  0  0  0
 10 25  1  0  0  0  0
 11 12  2  0  0  0  0
 11 26  1  0  0  0  0
 12 27  1  0  0  0  0
 13 21  1  0  0  0  0
 13 25  2  0  0  0  0
 14 22  2  0  0  0  0
 14 30  1  0  0  0  0
 15 27  2  0  0  0  0
 15 28  1  0  0  0  0
 16 29  1  0  0  0  0
 17 29  1  0  0  0  0
 17 32  2  0  0  0  0
 17 33  1  0  0  0  0
 18 20  2  0  0  0  0
 18 38  1  0  0  0  0
 19 21  2  0  0  0  0
 19 39  1  0  0  0  0
 20 47  1  0  0  0  0
 21 40  1  0  0  0  0
 22 23  1  0  0  0  0
 22 58  1  0  0  0  0
 23 31  2  0  0  0  0
 23 50  1  0  0  0  0
 24 84  1  0  0  0  0
 25 85  1  0  0  0  0
 26 28  2  0  0  0  0
 26 84  1  0  0  0  0
 27 86  1  0  0  0  0
 28 87  1  0  0  0  0
 29 68  2  0  0  0  0
 30 64  1  0  0  0  0
 30 69  2  0  0  0  0
 31 59  1  0  0  0  0
 31 69  1  0  0  0  0
 32 70  1  0  0  0  0
 32 73  1  0  0  0  0
 33 74  1  0  0  0  0
 33 79  2  0  0  0  0
 34 48  1  0  0  0  0
 34 75  1  0  0  0  0
 34 80  2  0  0  0  0
 35 65  1  0  0  0  0
 35 71  1  0  0  0  0
 35 81  2  0  0  0  0
 36 66  1  0  0  0  0
 36 76  1  0  0  0  0
 36 82  2  0  0  0  0
 37 72  1  0  0  0  0
 37 77  1  0  0  0  0
 37 83  2  0  0  0  0
 38 41  1  0  0  0  0
 39 48  1  0  0  0  0
 40 71  1  0  0  0  0
 41 43  1  0  0  0  0
 42 44  1  0  0  0  0
 42 45  1  0  0  0  0
 43 47  1  0  0  0  0
 44 49  1  0  0  0  0
 45 72  1  0  0  0  0
 46 49  1  0  0  0  0
 46 72  1  0  0  0  0
 47 75  1  0  0  0  0
 48 71  1  0  0  0  0
 49 70  1  0  0  0  0
 51 60  1  0  0  0  0
 52 64  1  0  0  0  0
 53 66  1  0  0  0  0
 54 67  1  0  0  0  0
 55 67  1  0  0  0  0
 56 67  1  0  0  0  0
 57 78  1  0  0  0  0
 58 62  1  0  0  0  0
 59 61  1  0  0  0  0
 60 61  1  0  0  0  0
 62 77  1  0  0  0  0
 63 64  1  0  0  0  0
 63 85  1  0  0  0  0
 65 67  1  0  0  0  0
 65 76  1  0  0  0  0
 66 78  1  0  0  0  0
 68 70  1  0  0  0  0
M  CHG  1  78   1
M  ISO  4  37 100  63 101  77 100  85 101
M  END
> <Batch ID>
0089

> <Smiles>
CCCCc1nc(C(C)[101CH2:1][101O:1]c2ccc3c(c2)CN(C(=O)C(NC(=O)C(C)NC)C(C)(C)C)C(C(=O)NC2CCCc4ccccc42)C3)cc(CC[100NH:0][100C:0](=O)N2CCCC(n3nc(-c4ccc(Oc5ccc(F)cc5F)cc4)c(C(N)=O)c3N)C2)c1C

> <Shape>
0.260

> <Color>
0.123

> <Negative vol penalty>
0.000

$$$$

  -OEChem-04052319063D

 85 93  0     1  0  0  0  0  0999 V2000
  -22.0122  -20.4952   22.8758 C   0  0  0  0  0  0  0  0  0  0  0  0
  -22.9627  -21.2745   22.2241 C   0  0  0  0  0  0  0  0  0  0  0  0
  -26.8527  -14.0359   23.0884 C   0  0  0  0  0  0  0  0  0  0  0  0
  -25.7059  -14.2157   20.9696 C   0  0  0  0  0  0  0  0  0  0  0  0
  -20.7269  -20.9940   23.0833 C   0  0  0  0  0  0  0  0  0  0  0  0
  -22.6280  -22.5527   21.7786 C   0  0  0  0  0  0  0  0  0  0  0  0
  -26.1926  -25.9829   22.8614 C   0  0  0  0  0  0  0  0  0  0  0  0
  -25.9377  -13.0677   23.5016 C   0  0  0  0  0  0  0  0  0  0  0  0
  -24.7908  -13.2473   21.3827 C   0  0  0  0  0  0  0  0  0  0  0  0
  -27.3245  -26.0034   22.0477 C   0  0  0  0  0  0  0  0  0  0  0  0
  -24.6850   -9.8812   21.6626 C   0  0  0  0  0  0  0  0  0  0  0  0
  -24.3596   -8.8712   20.7574 C   0  0  0  0  0  0  0  0  0  0  0  0
  -26.4117  -27.8787   20.8356 C   0  0  0  0  0  0  0  0  0  0  0  0
  -28.1530  -24.6943   17.4874 C   0  0  0  0  0  0  0  0  0  0  0  0
  -22.0421   -9.5499   20.8333 C   0  0  0  0  0  0  0  0  0  0  0  0
  -26.7368  -14.6100   21.8224 C   0  0  0  0  0  0  0  0  0  0  0  0
  -28.8975  -15.3981   20.7188 C   0  0  0  0  0  0  0  0  0  0  0  0
  -20.3791  -22.2827   22.6486 C   0  0  0  0  0  0  0  0  0  0  0  0
  -25.1551  -26.9047   22.6610 C   0  0  0  0  0  0  0  0  0  0  0  0
  -21.3364  -23.0687   21.9793 C   0  0  0  0  0  0  0  0  0  0  0  0
  -25.2688  -27.8694   21.6498 C   0  0  0  0  0  0  0  0  0  0  0  0
  -29.3180  -25.2823   17.9674 C   0  0  0  0  0  0  0  0  0  0  0  0
  -30.3605  -24.4799   18.4177 C   0  0  0  0  0  0  0  0  0  0  0  0
  -24.9068  -12.6733   22.6487 C   0  0  0  0  0  0  0  0  0  0  0  0
  -27.4329  -26.9496   21.0327 C   0  0  0  0  0  0  0  0  0  0  0  0
  -23.6890  -10.7255   22.1533 C   0  0  0  0  0  0  0  0  0  0  0  0
  -23.0381   -8.7055   20.3427 C   0  0  0  0  0  0  0  0  0  0  0  0
  -22.3675  -10.5599   21.7387 C   0  0  0  0  0  0  0  0  0  0  0  0
  -27.6813  -15.6107   21.3953 C   0  0  0  0  0  0  0  0  0  0  0  0
  -28.0808  -23.3106   17.4788 C   0  0  0  0  0  0  0  0  0  0  0  0
  -30.1894  -23.1059   18.3677 C   0  0  0  0  0  0  0  0  0  0  0  0
  -29.4174  -16.6572   20.5433 C   0  0  0  0  0  0  0  0  0  0  0  0
  -29.5030  -14.1721   20.2876 C   0  0  0  0  0  0  0  0  0  0  0  0
  -22.0792  -26.6871   21.8892 C   0  0  0  0  0  0  0  0  0  0  0  0
  -22.1154  -29.8831   22.4432 C   0  0  0  0  0  0  0  0  0  0  0  0
  -23.9208  -32.7744   22.6094 C   0  0  0  0  0  0  0  0  0  0  0  0
  -26.9244  -22.0929   20.2441 C   0  0  0  0  0  0  0  0  0  0  0  0
  -18.9633  -22.7605   22.8536 C   0  0  0  0  0  0  0  0  0  0  0  0
  -23.9527  -26.8863   23.5645 C   0  0  0  0  0  0  0  0  0  0  0  0
  -24.1920  -28.8939   21.4064 C   0  0  0  0  0  0  0  0  0  0  0  0
  -18.7988  -24.2685   22.6834 C   0  0  0  0  0  0  0  0  0  0  0  0
  -29.4343  -21.0114   22.5261 C   0  0  0  0  0  0  0  0  0  0  0  0
  -19.5123  -24.7443   21.4219 C   0  0  0  0  0  0  0  0  0  0  0  0
  -29.3793  -19.4854   22.4340 C   0  0  0  0  0  0  0  0  0  0  0  0
  -28.0453  -21.6344   22.4051 C   0  0  0  0  0  0  0  0  0  0  0  0
  -27.2291  -19.6973   21.1186 C   0  0  0  0  0  0  0  0  0  0  0  0
  -21.0187  -24.4697   21.5032 C   0  0  1  0  0  0  0  0  0  0  0  0
  -22.7261  -27.5443   22.9401 C   0  0  1  0  0  0  0  0  0  0  0  0
  -28.6122  -19.0267   21.1793 C   0  0  2  0  0  0  0  0  0  0  0  0
  -31.6229  -25.0827   18.9357 C   0  0  0  0  0  0  0  0  0  0  0  0
  -31.0350  -20.7459   18.4138 C   0  0  0  0  0  0  0  0  0  0  0  0
  -29.3463  -27.3791   16.5766 C   0  0  0  0  0  0  0  0  0  0  0  0
  -23.6678  -35.2323   23.0480 C   0  0  0  0  0  0  0  0  0  0  0  0
  -20.9057  -30.2517   19.6664 C   0  0  0  0  0  0  0  0  0  0  0  0
  -21.5538  -32.6673   19.7810 C   0  0  0  0  0  0  0  0  0  0  0  0
  -19.9346  -31.7325   21.4324 C   0  0  0  0  0  0  0  0  0  0  0  0
  -25.7385  -32.6632   24.9422 C   0  0  0  0  0  0  0  0  0  0  0  0
  -26.8462  -22.6450   16.9693 C   0  0  0  0  0  0  0  0  0  0  0  0
  -31.2745  -22.1922   18.8360 C   0  0  0  0  0  0  0  0  0  0  0  0
  -25.7940  -22.3907   18.0549 C   0  0  0  0  0  0  0  0  0  0  0  0
  -28.3626  -27.4353   18.8984 C   0  0  0  0  0  0  0  0  0  1  0  0
  -29.4248  -26.7989   17.9915 C   0  0  1  0  0  0  0  0  0  0  0  0
  -22.3791  -31.1105   21.6049 C   0  0  1  0  0  0  0  0  0  0  0  0
  -23.9707  -33.8720   23.6569 C   0  0  2  0  0  0  0  0  0  0  0  0
  -21.2129  -31.4201   20.6243 C   0  0  0  0  0  0  0  0  0  0  0  0
  -27.4429  -16.9032   21.6334 N   0  0  0  0  0  0  0  0  0  0  0  0
  -29.0725  -22.4984   17.9081 N   0  0  0  0  0  0  0  0  0  0  0  0
  -28.5164  -17.5141   21.1037 N   0  0  0  0  0  0  0  0  0  0  0  0
  -23.0330  -28.8311   22.3122 N   0  0  0  0  0  0  0  0  0  0  0  0
  -27.3719  -21.1597   21.1938 N   0  0  0  0  0  0  0  0  0  0  0  0
  -30.5529  -17.1039   19.9658 N   0  0  0  0  0  0  0  0  0  0  0  0
  -28.8339  -12.9685   20.5485 N   0  0  0  0  0  0  0  0  0  0  0  0
  -21.6665  -25.4506   22.3474 N   0  0  0  0  0  0  0  0  0  0  0  0
  -22.6741  -32.1892   22.5419 N   0  0  0  0  0  0  0  0  0  0  0  0
  -26.3023  -21.5584   19.1224 N   0  0  0  0  0  0  0  0  0  0  0  0
  -25.3212  -33.9282   24.2844 N   0  3  0  0  0  0  0  0  0  0  0  0
  -30.6126  -14.1434   19.7032 O   0  0  0  0  0  0  0  0  0  0  0  0
  -21.9619  -27.1164   20.7474 O   0  0  0  0  0  0  0  0  0  0  0  0
  -21.1356  -29.8614   23.1923 O   0  0  0  0  0  0  0  0  0  0  0  0
  -24.8897  -32.4695   21.9174 O   0  0  0  0  0  0  0  0  0  0  0  0
  -27.0733  -23.3117   20.3828 O   0  0  0  0  0  0  0  0  0  0  0  0
  -24.0138  -11.7283   23.0514 O   0  0  0  0  0  0  0  0  0  0  0  0
  -28.5364  -26.9715   20.2367 O   0  0  0  0  0  0  0  0  0  1  0  0
  -22.7260   -7.7365   19.4721 F   0  0  0  0  0  0  0  0  0  0  0  0
  -21.4065  -11.3687   22.2057 F   0  0  0  0  0  0  0  0  0  0  0  0
  1  2  1  0  0  0  0
  1  5  2  0  0  0  0
  2  6  2  0  0  0  0
  3  8  2  0  0  0  0
  3 16  1  0  0  0  0
  4  9  1  0  0  0  0
  4 16  2  0  0  0  0
  5 18  1  0  0  0  0
  6 20  1  0  0  0  0
  7 10  2  0  0  0  0
  7 19  1  0  0  0  0
  8 24  1  0  0  0  0
  9 24  2  0  0  0  0
 10 25  1  0  0  0  0
 11 12  2  0  0  0  0
 11 26  1  0  0  0  0
 12 27  1  0  0  0  0
 13 21  1  0  0  0  0
 13 25  2  0  0  0  0
 14 22  2  0  0  0  0
 14 30  1  0  0  0  0
 15 27  2  0  0  0  0
 15 28  1  0  0  0  0
 16 29  1  0  0  0  0
 17 29  1  0  0  0  0
 17 32  2  0  0  0  0
 17 33  1  0  0  0  0
 18 20  2  0  0  0  0
 18 38  1  0  0  0  0
 19 21  2  0  0  0  0
 19 39  1  0  0  0  0
 20 47  1  0  0  0  0
 21 40  1  0  0  0  0
 22 23  1  0  0  0  0
 22 62  1  0  0  0  0
 23 31  2  0  0  0  0
 23 50  1  0  0  0  0
 24 82  1  0  0  0  0
 25 83  1  0  0  0  0
 26 28  2  0  0  0  0
 26 82  1  0  0  0  0
 27 84  1  0  0  0  0
 28 85  1  0  0  0  0
 29 66  2  0  0  0  0
 30 58  1  0  0  0  0
 30 67  2  0  0  0  0
 31 59  1  0  0  0  0
 31 67  1  0  0  0  0
 32 68  1  0  0  0  0
 32 71  1  0  0  0  0
 33 72  1  0  0  0  0
 33 77  2  0  0  0  0
 34 48  1  0  0  0  0
 34 73  1  0  0  0  0
 34 78  2  0  0  0  0
 35 63  1  0  0  0  0
 35 69  1  0  0  0  0
 35 79  2  0  0  0  0
 36 64  1  0  0  0  0
 36 74  1  0  0  0  0
 36 80  2  0  0  0  0
 37 70  1  0  0  0  0
 37 75  1  0  0  0  0
 37 81  2  0  0  0  0
 38 41  1  0  0  0  0
 39 48  1  0  0  0  0
 40 69  1  0  0  0  0
 41 43  1  0  0  0  0
 42 44  1  0  0  0  0
 42 45  1  0  0  0  0
 43 47  1  0  0  0  0
 44 49  1  0  0  0  0
 45 70  1  0  0  0  0
 46 49  1  0  0  0  0
 46 70  1  0  0  0  0
 47 73  1  0  0  0  0
 48 69  1  0  0  0  0
 49 68  1  0  0  0  0
 51 59  1  0  0  0  0
 52 62  1  0  0  0  0
 53 64  1  0  0  0  0
 54 65  1  0  0  0  0
 55 65  1  0  0  0  0
 56 65  1  0  0  0  0
 57 76  1  0  0  0  0
 58 60  1  0  0  0  0
 60 75  1  0  0  0  0
 61 62  1  0  0  0  0
 61 83  1  0  0  0  0
 63 65  1  0  0  0  0
 63 74  1  0  0  0  0
 64 76  1  0  0  0  0
 66 68  1  0  0  0  0
M  CHG  1  76   1
M  ISO  4  37 100  61 101  75 100  83 101
M  END
> <Batch ID>
0089

> <Smiles>
CCc1nc(CC[100NH:0][100C:0](=O)N2CCCC(n3nc(-c4ccc(Oc5ccc(F)cc5F)cc4)c(C(N)=O)c3N)C2)cc(C(C)[101CH2:1][101O:1]c2ccc3c(c2)CN(C(=O)C(NC(=O)C(C)NC)C(C)(C)C)C(C(=O)NC2CCCc4ccccc42)C3)c1C

> <Shape>
0.239

> <Color>
0.071

> <Negative vol penalty>
0.000

$$$$

  -OEChem-04052319063D

 91 99  0     1  0  0  0  0  0999 V2000
  -29.9922  -31.4509   16.3228 C   0  0  0  0  0  0  0  0  0  0  0  0
  -29.3201  -30.2846   16.6740 C   0  0  0  0  0  0  0  0  0  0  0  0
  -24.5318   -9.8347   21.3910 C   0  0  0  0  0  0  0  0  0  0  0  0
  -24.8510  -10.8614   23.5546 C   0  0  0  0  0  0  0  0  0  0  0  0
  -30.2292  -32.4337   17.2830 C   0  0  0  0  0  0  0  0  0  0  0  0
  -28.8855  -30.0999   17.9860 C   0  0  0  0  0  0  0  0  0  0  0  0
  -24.1555  -28.3078   18.2317 C   0  0  0  0  0  0  0  0  0  0  0  0
  -24.2175   -8.6255   22.0111 C   0  0  0  0  0  0  0  0  0  0  0  0
  -24.5366   -9.6521   24.1747 C   0  0  0  0  0  0  0  0  0  0  0  0
  -23.9768  -26.9467   17.9885 C   0  0  0  0  0  0  0  0  0  0  0  0
  -21.5511   -7.2405   23.5620 C   0  0  0  0  0  0  0  0  0  0  0  0
  -20.4454   -6.5360   23.0859 C   0  0  0  0  0  0  0  0  0  0  0  0
  -23.8583  -26.5441   20.3640 C   0  0  0  0  0  0  0  0  0  0  0  0
  -21.8702   -4.6583   22.5554 C   0  0  0  0  0  0  0  0  0  0  0  0
  -27.8575  -23.7422   19.8919 C   0  0  0  0  0  0  0  0  0  0  0  0
  -24.8486  -10.9527   22.1627 C   0  0  0  0  0  0  0  0  0  0  0  0
  -24.2827  -13.2316   21.1657 C   0  0  0  0  0  0  0  0  0  0  0  0
  -29.7888  -32.2651   18.6052 C   0  0  0  0  0  0  0  0  0  0  0  0
  -24.1978  -28.7967   19.5453 C   0  0  0  0  0  0  0  0  0  0  0  0
  -29.1180  -31.0807   18.9651 C   0  0  0  0  0  0  0  0  0  0  0  0
  -24.0350  -27.9122   20.6211 C   0  0  0  0  0  0  0  0  0  0  0  0
  -28.9811  -23.7347   19.0953 C   0  0  0  0  0  0  0  0  0  0  0  0
  -29.3312  -22.3805   18.8703 C   0  0  0  0  0  0  0  0  0  0  0  0
  -24.2199   -8.5342   23.4030 C   0  0  0  0  0  0  0  0  0  0  0  0
  -23.8311  -26.0642   19.0548 C   0  0  0  0  0  0  0  0  0  0  0  0
  -22.8164   -6.6540   23.5347 C   0  0  0  0  0  0  0  0  0  0  0  0
  -20.6049   -5.2449   22.5827 C   0  0  0  0  0  0  0  0  0  0  0  0
  -22.9759   -5.3629   23.0315 C   0  0  0  0  0  0  0  0  0  0  0  0
  -25.1739  -12.2019   21.5227 C   0  0  0  0  0  0  0  0  0  0  0  0
  -28.4107  -21.6017   19.5362 C   0  0  0  0  0  0  0  0  0  0  0  0
  -25.0798  -14.1924   20.5931 C   0  0  0  0  0  0  0  0  0  0  0  0
  -22.8614  -13.3123   21.3366 C   0  0  0  0  0  0  0  0  0  0  0  0
  -26.3743  -30.2952   21.3120 C   0  0  0  0  0  0  0  0  0  0  0  0
  -23.9414  -30.4854   23.4492 C   0  0  0  0  0  0  0  0  0  0  0  0
  -20.9835  -29.2238   24.5917 C   0  0  0  0  0  0  0  0  0  0  0  0
  -29.7292  -17.2792   20.5714 C   0  0  0  0  0  0  0  0  0  0  0  0
  -30.1098  -33.3345   19.6191 C   0  0  0  0  0  0  0  0  0  0  0  0
  -24.3645  -30.2714   19.7902 C   0  0  0  0  0  0  0  0  0  0  0  0
  -24.0527  -28.3892   22.0496 C   0  0  0  0  0  0  0  0  0  0  0  0
  -29.2869  -33.2259   20.9002 C   0  0  0  0  0  0  0  0  0  0  0  0
  -29.9254  -14.0198   19.1520 C   0  0  0  0  0  0  0  0  0  0  0  0
  -29.2648  -31.7848   21.4000 C   0  0  0  0  0  0  0  0  0  0  0  0
  -28.6368  -13.3398   19.6178 C   0  0  0  0  0  0  0  0  0  0  0  0
  -30.4927  -14.9484   20.2234 C   0  0  0  0  0  0  0  0  0  0  0  0
  -28.2549  -15.2733   21.2035 C   0  0  0  0  0  0  0  0  0  0  0  0
  -28.6092  -30.8545   20.3723 C   0  0  1  0  0  0  0  0  0  0  0  0
  -24.9066  -30.5887   21.1804 C   0  0  1  0  0  0  0  0  0  0  0  0
  -27.6149  -14.3697   20.1357 C   0  0  2  0  0  0  0  0  0  0  0  0
  -29.2226  -21.7643   15.8356 C   0  0  0  0  0  0  0  0  0  0  0  0
  -31.4926  -21.1097   18.9339 C   0  0  0  0  0  0  0  0  0  0  0  0
  -19.2539  -29.5672   26.3773 C   0  0  0  0  0  0  0  0  0  0  0  0
  -23.3320  -21.8483   18.4941 C   0  0  0  0  0  0  0  0  0  0  0  0
  -28.9957  -26.2532   19.0431 C   0  0  0  0  0  0  0  0  0  0  0  0
  -29.7109  -24.9493   17.0122 C   0  0  0  0  0  0  0  0  0  0  0  0
  -31.1865  -25.0781   19.0091 C   0  0  0  0  0  0  0  0  0  0  0  0
  -25.8096  -29.2144   25.4997 C   0  0  0  0  0  0  0  0  0  0  0  0
  -23.8049  -28.7177   26.9149 C   0  0  0  0  0  0  0  0  0  0  0  0
  -24.4020  -31.0815   26.3870 C   0  0  0  0  0  0  0  0  0  0  0  0
  -18.8597  -29.7434   22.5971 C   0  0  0  0  0  0  0  0  0  0  0  0
  -28.3015  -20.1310   19.6382 C   0  0  0  0  0  0  0  0  0  0  0  0
  -30.0754  -21.0085   16.8473 C   0  0  0  0  0  0  0  0  0  0  0  0
  -25.1512  -21.4897   20.1819 C   0  0  0  0  0  0  0  0  0  0  0  0
  -26.3425  -22.0148   20.9952 C   0  0  0  0  0  0  0  0  0  0  0  0
  -28.8199  -19.5541   20.9672 C   0  0  0  0  0  0  0  0  0  0  0  0
  -24.1519  -23.8312   19.8076 C   0  0  0  0  0  0  0  0  0  1  0  0
  -30.4725  -21.8911   18.0697 C   0  0  1  0  0  0  0  0  0  0  0  0
  -23.4335  -29.6127   24.5714 C   0  0  1  0  0  0  0  0  0  0  0  0
  -19.6730  -29.8992   24.9536 C   0  0  2  0  0  0  0  0  0  0  0  0
  -24.5483  -22.4915   19.1726 C   0  0  2  0  0  0  0  0  0  0  0  0
  -29.6834  -24.9260   18.5775 C   0  0  0  0  0  0  0  0  0  0  0  0
  -24.3641  -29.6470   25.8165 C   0  0  0  0  0  0  0  0  0  0  0  0
  -26.4402  -12.4822   21.2034 N   0  0  0  0  0  0  0  0  0  0  0  0
  -27.5195  -22.4401   20.1534 N   0  0  0  0  0  0  0  0  0  0  0  0
  -26.3504  -13.6989   20.6398 N   0  0  0  0  0  0  0  0  0  0  0  0
  -24.2247  -29.8392   22.2376 N   0  0  0  0  0  0  0  0  0  0  0  0
  -29.4740  -15.9015   20.6705 N   0  0  0  0  0  0  0  0  0  0  0  0
  -24.8108  -15.4028   20.0593 N   0  0  0  0  0  0  0  0  0  0  0  0
  -22.1993  -12.2366   21.9439 N   0  0  0  0  0  0  0  0  0  0  0  0
  -27.1687  -30.9866   20.4175 N   0  0  0  0  0  0  0  0  0  0  0  0
  -22.0650  -30.0434   24.8361 N   0  0  0  0  0  0  0  0  0  0  0  0
  -28.7086  -18.1131   21.0114 N   0  0  0  0  0  0  0  0  0  0  0  0
  -18.5902  -29.4575   24.0298 N   0  3  0  0  0  0  0  0  0  0  0  0
  -22.1961  -14.3018   20.9470 O   0  0  0  0  0  0  0  0  0  0  0  0
  -26.7577  -29.5013   22.1632 O   0  0  0  0  0  0  0  0  0  0  0  0
  -24.0749  -31.6971   23.6384 O   0  0  0  0  0  0  0  0  0  0  0  0
  -21.0421  -28.0818   24.1411 O   0  0  0  0  0  0  0  0  0  0  0  0
  -30.7861  -17.7324   20.1191 O   0  0  0  0  0  0  0  0  0  0  0  0
  -23.9130   -7.3544   24.0085 O   0  0  0  0  0  0  0  0  0  0  0  0
  -23.6573  -24.7350   18.8203 O   0  0  0  0  0  0  0  0  0  1  0  0
  -19.5428   -4.5679   22.1269 F   0  0  0  0  0  0  0  0  0  0  0  0
  -24.1888   -4.7937   23.0039 F   0  0  0  0  0  0  0  0  0  0  0  0
  1  2  1  0  0  0  0
  1  5  2  0  0  0  0
  2  6  2  0  0  0  0
  3  8  2  0  0  0  0
  3 16  1  0  0  0  0
  4  9  1  0  0  0  0
  4 16  2  0  0  0  0
  5 18  1  0  0  0  0
  6 20  1  0  0  0  0
  7 10  2  0  0  0  0
  7 19  1  0  0  0  0
  8 24  1  0  0  0  0
  9 24  2  0  0  0  0
 10 25  1  0  0  0  0
 11 12  2  0  0  0  0
 11 26  1  0  0  0  0
 12 27  1  0  0  0  0
 13 21  1  0  0  0  0
 13 25  2  0  0  0  0
 14 27  2  0  0  0  0
 14 28  1  0  0  0  0
 15 22  2  0  0  0  0
 15 73  1  0  0  0  0
 16 29  1  0  0  0  0
 17 29  1  0  0  0  0
 17 31  2  0  0  0  0
 17 32  1  0  0  0  0
 18 20  2  0  0  0  0
 18 37  1  0  0  0  0
 19 21  2  0  0  0  0
 19 38  1  0  0  0  0
 20 46  1  0  0  0  0
 21 39  1  0  0  0  0
 22 23  1  0  0  0  0
 22 70  1  0  0  0  0
 23 30  2  0  0  0  0
 23 66  1  0  0  0  0
 24 88  1  0  0  0  0
 25 89  1  0  0  0  0
 26 28  2  0  0  0  0
 26 88  1  0  0  0  0
 27 90  1  0  0  0  0
 28 91  1  0  0  0  0
 29 72  2  0  0  0  0
 30 60  1  0  0  0  0
 30 73  1  0  0  0  0
 31 74  1  0  0  0  0
 31 77  1  0  0  0  0
 32 78  1  0  0  0  0
 32 83  2  0  0  0  0
 33 47  1  0  0  0  0
 33 79  1  0  0  0  0
 33 84  2  0  0  0  0
 34 67  1  0  0  0  0
 34 75  1  0  0  0  0
 34 85  2  0  0  0  0
 35 68  1  0  0  0  0
 35 80  1  0  0  0  0
 35 86  2  0  0  0  0
 36 76  1  0  0  0  0
 36 81  1  0  0  0  0
 36 87  2  0  0  0  0
 37 40  1  0  0  0  0
 38 47  1  0  0  0  0
 39 75  1  0  0  0  0
 40 42  1  0  0  0  0
 41 43  1  0  0  0  0
 41 44  1  0  0  0  0
 42 46  1  0  0  0  0
 43 48  1  0  0  0  0
 44 76  1  0  0  0  0
 45 48  1  0  0  0  0
 45 76  1  0  0  0  0
 46 79  1  0  0  0  0
 47 75  1  0  0  0  0
 48 74  1  0  0  0  0
 49 61  1  0  0  0  0
 50 66  1  0  0  0  0
 51 68  1  0  0  0  0
 52 69  1  0  0  0  0
 53 70  1  0  0  0  0
 54 70  1  0  0  0  0
 55 70  1  0  0  0  0
 56 71  1  0  0  0  0
 57 71  1  0  0  0  0
 58 71  1  0  0  0  0
 59 82  1  0  0  0  0
 60 64  1  0  0  0  0
 61 66  1  0  0  0  0
 62 63  1  0  0  0  0
 62 69  1  0  0  0  0
 63 73  1  0  0  0  0
 64 81  1  0  0  0  0
 65 69  1  0  0  0  0
 65 89  1  0  0  0  0
 67 71  1  0  0  0  0
 67 80  1  0  0  0  0
 68 82  1  0  0  0  0
 72 74  1  0  0  0  0
M  CHG  1  82   1
M  ISO  4  36 100  65 101  81 100  89 101
M  END
> <Batch ID>
0089

> <Smiles>
CCC(C)c1c(C(C)(C)C)cn(CCC(C)[101CH2:1][101O:1]c2ccc3c(c2)CN(C(=O)C(NC(=O)C(C)NC)C(C)(C)C)C(C(=O)NC2CCCc4ccccc42)C3)c1CC[100NH:0][100C:0](=O)N1CCCC(n2nc(-c3ccc(Oc4ccc(F)cc4F)cc3)c(C(N)=O)c2N)C1

> <Shape>
0.302

> <Color>
0.113

> <Negative vol penalty>
0.000

$$$$

  -OEChem-04052319063D

 90 98  0     1  0  0  0  0  0999 V2000
  -31.4756  -32.1128   27.2973 C   0  0  0  0  0  0  0  0  0  0  0  0
  -30.6953  -31.1563   26.6556 C   0  0  0  0  0  0  0  0  0  0  0  0
  -23.2890   -9.7993   19.9144 C   0  0  0  0  0  0  0  0  0  0  0  0
  -23.7410   -9.9410   22.2835 C   0  0  0  0  0  0  0  0  0  0  0  0
  -32.7621  -31.7881   27.7257 C   0  0  0  0  0  0  0  0  0  0  0  0
  -31.2015  -29.8749   26.4410 C   0  0  0  0  0  0  0  0  0  0  0  0
  -28.0661  -24.6150   26.5328 C   0  0  0  0  0  0  0  0  0  0  0  0
  -22.5627   -8.6269   20.1230 C   0  0  0  0  0  0  0  0  0  0  0  0
  -23.0147   -8.7686   22.4922 C   0  0  0  0  0  0  0  0  0  0  0  0
  -27.5289  -23.8254   25.5171 C   0  0  0  0  0  0  0  0  0  0  0  0
  -20.9762   -6.0091   23.6953 C   0  0  0  0  0  0  0  0  0  0  0  0
  -20.0751   -5.9843   24.7598 C   0  0  0  0  0  0  0  0  0  0  0  0
  -29.5024  -22.4388   25.5596 C   0  0  0  0  0  0  0  0  0  0  0  0
  -27.8008  -16.3105   24.2910 C   0  0  0  0  0  0  0  0  0  0  0  0
  -30.0102  -16.2926   23.3408 C   0  0  0  0  0  0  0  0  0  0  0  0
  -18.8651   -7.8310   23.7785 C   0  0  0  0  0  0  0  0  0  0  0  0
  -23.8782  -10.4564   20.9946 C   0  0  0  0  0  0  0  0  0  0  0  0
  -24.1375  -12.9863   20.7947 C   0  0  0  0  0  0  0  0  0  0  0  0
  -33.2807  -30.4992   27.5248 C   0  0  0  0  0  0  0  0  0  0  0  0
  -29.3323  -24.3284   27.0629 C   0  0  0  0  0  0  0  0  0  0  0  0
  -32.4966  -29.5330   26.8659 C   0  0  0  0  0  0  0  0  0  0  0  0
  -30.0523  -23.2248   26.5838 C   0  0  0  0  0  0  0  0  0  0  0  0
  -28.7304  -16.8332   23.3989 C   0  0  0  0  0  0  0  0  0  0  0  0
  -22.4255   -8.1116   21.4119 C   0  0  0  0  0  0  0  0  0  0  0  0
  -28.2483  -22.7388   25.0283 C   0  0  0  0  0  0  0  0  0  0  0  0
  -20.8218   -6.9449   22.6725 C   0  0  0  0  0  0  0  0  0  0  0  0
  -19.0196   -6.8952   24.8014 C   0  0  0  0  0  0  0  0  0  0  0  0
  -19.7662   -7.8558   22.7141 C   0  0  0  0  0  0  0  0  0  0  0  0
  -24.6291  -11.6672   20.7796 C   0  0  0  0  0  0  0  0  0  0  0  0
  -28.1973  -15.2556   25.0970 C   0  0  0  0  0  0  0  0  0  0  0  0
  -30.3079  -15.2386   24.1895 C   0  0  0  0  0  0  0  0  0  0  0  0
  -25.2389  -13.7660   20.5388 C   0  0  0  0  0  0  0  0  0  0  0  0
  -22.8046  -13.4640   21.0200 C   0  0  0  0  0  0  0  0  0  0  0  0
  -32.1057  -25.8747   27.2079 C   0  0  0  0  0  0  0  0  0  0  0  0
  -32.9719  -23.3501   29.0512 C   0  0  0  0  0  0  0  0  0  0  0  0
  -32.4709  -20.0869   29.9157 C   0  0  0  0  0  0  0  0  0  0  0  0
  -31.1103  -12.9233   21.3557 C   0  0  0  0  0  0  0  0  0  0  0  0
  -34.6943  -30.2090   27.9633 C   0  0  0  0  0  0  0  0  0  0  0  0
  -29.8862  -25.1740   28.1768 C   0  0  0  0  0  0  0  0  0  0  0  0
  -31.4071  -22.8626   27.1331 C   0  0  0  0  0  0  0  0  0  0  0  0
  -35.0169  -28.7185   28.0319 C   0  0  0  0  0  0  0  0  0  0  0  0
  -29.4598  -13.6613   18.2885 C   0  0  0  0  0  0  0  0  0  0  0  0
  -34.5239  -28.0073   26.7758 C   0  0  0  0  0  0  0  0  0  0  0  0
  -27.9902  -13.3530   18.5805 C   0  0  0  0  0  0  0  0  0  0  0  0
  -30.3934  -12.6822   18.9968 C   0  0  0  0  0  0  0  0  0  0  0  0
  -28.7077  -12.2537   20.7428 C   0  0  0  0  0  0  0  0  0  0  0  0
  -33.0012  -28.1248   26.6370 C   0  0  1  0  0  0  0  0  0  0  0  0
  -31.4058  -25.0970   28.2864 C   0  0  1  0  0  0  0  0  0  0  0  0
  -27.7294  -13.2486   20.0952 C   0  0  2  0  0  0  0  0  0  0  0  0
  -32.4133  -14.8119   25.4968 C   0  0  0  0  0  0  0  0  0  0  0  0
  -33.3593  -18.2904   31.4259 C   0  0  0  0  0  0  0  0  0  0  0  0
  -28.0278  -23.0131   21.8978 C   0  0  0  0  0  0  0  0  0  0  0  0
  -25.4462  -14.0207   24.4030 C   0  0  0  0  0  0  0  0  0  0  0  0
  -27.2094  -12.3495   24.9699 C   0  0  0  0  0  0  0  0  0  0  0  0
  -25.4350  -12.9263   26.6448 C   0  0  0  0  0  0  0  0  0  0  0  0
  -35.3636  -22.9749   27.1941 C   0  0  0  0  0  0  0  0  0  0  0  0
  -35.6544  -20.6779   28.1467 C   0  0  0  0  0  0  0  0  0  0  0  0
  -35.8728  -22.6758   29.6243 C   0  0  0  0  0  0  0  0  0  0  0  0
  -29.8824  -19.8325   31.3278 C   0  0  0  0  0  0  0  0  0  0  0  0
  -28.3519  -17.9810   22.4971 C   0  0  0  0  0  0  0  0  0  0  0  0
  -27.2256  -14.6682   26.0652 C   0  0  0  0  0  0  0  0  0  0  0  0
  -28.6252  -19.3618   23.1052 C   0  0  0  0  0  0  0  0  0  0  0  0
  -28.2242  -20.5155   22.1756 C   0  0  0  0  0  0  0  0  0  0  0  0
  -31.6734  -13.1381   23.7631 C   0  0  0  0  0  0  0  0  0  0  0  0
  -31.6723  -14.6353   24.1553 C   0  0  1  0  0  0  0  0  0  0  0  0
  -33.5853  -21.9958   28.7894 C   0  0  1  0  0  0  0  0  0  0  0  0
  -32.3437  -19.4115   31.2693 C   0  0  2  0  0  0  0  0  0  0  0  0
  -28.4679  -21.8839   22.8200 C   0  0  2  0  0  0  0  0  0  1  0  0
  -26.3451  -13.4881   25.5389 C   0  0  0  0  0  0  0  0  0  0  0  0
  -35.0944  -22.0888   28.4267 C   0  0  0  0  0  0  0  0  0  0  0  0
  -25.9405  -11.6084   20.5334 N   0  0  0  0  0  0  0  0  0  0  0  0
  -29.4313  -14.7042   25.0691 N   0  0  0  0  0  0  0  0  0  0  0  0
  -26.2824  -12.9003   20.3913 N   0  0  0  0  0  0  0  0  0  0  0  0
  -31.9087  -23.7235   28.2170 N   0  0  0  0  0  0  0  0  0  0  0  0
  -30.0949  -12.6315   20.4300 N   0  0  0  0  0  0  0  0  0  0  0  0
  -25.4068  -15.1009   20.4276 N   0  0  0  0  0  0  0  0  0  0  0  0
  -21.7922  -12.5272   21.2684 N   0  0  0  0  0  0  0  0  0  0  0  0
  -32.3393  -27.1981   27.5299 N   0  0  0  0  0  0  0  0  0  0  0  0
  -33.3032  -21.1849   29.9689 N   0  0  0  0  0  0  0  0  0  0  0  0
  -30.7413  -12.8584   22.6937 N   0  0  0  0  0  0  0  0  0  0  0  0
  -30.9791  -18.8360   31.4349 N   0  3  0  0  0  0  0  0  0  0  0  0
  -22.5167  -14.6845   20.9852 O   0  0  0  0  0  0  0  0  0  0  0  0
  -32.4124  -25.3152   26.1617 O   0  0  0  0  0  0  0  0  0  0  0  0
  -33.4150  -24.0478   29.9669 O   0  0  0  0  0  0  0  0  0  0  0  0
  -31.8929  -19.6788   28.9108 O   0  0  0  0  0  0  0  0  0  0  0  0
  -32.2591  -13.2249   21.0148 O   0  0  0  0  0  0  0  0  0  0  0  0
  -21.7167   -6.9677   21.6160 O   0  0  0  0  0  0  0  0  0  0  0  0
  -27.7266  -21.9668   24.0365 O   0  0  0  0  0  0  0  0  0  1  0  0
  -18.1535   -6.8703   25.8229 F   0  0  0  0  0  0  0  0  0  0  0  0
  -19.6121   -8.7563   21.7337 F   0  0  0  0  0  0  0  0  0  0  0  0
  1  2  1  0  0  0  0
  1  5  2  0  0  0  0
  2  6  2  0  0  0  0
  3  8  2  0  0  0  0
  3 17  1  0  0  0  0
  4  9  1  0  0  0  0
  4 17  2  0  0  0  0
  5 19  1  0  0  0  0
  6 21  1  0  0  0  0
  7 10  2  0  0  0  0
  7 20  1  0  0  0  0
  8 24  1  0  0  0  0
  9 24  2  0  0  0  0
 10 25  1  0  0  0  0
 11 12  2  0  0  0  0
 11 26  1  0  0  0  0
 12 27  1  0  0  0  0
 13 22  1  0  0  0  0
 13 25  2  0  0  0  0
 14 23  1  0  0  0  0
 14 30  2  0  0  0  0
 15 23  2  0  0  0  0
 15 31  1  0  0  0  0
 16 27  2  0  0  0  0
 16 28  1  0  0  0  0
 17 29  1  0  0  0  0
 18 29  1  0  0  0  0
 18 32  2  0  0  0  0
 18 33  1  0  0  0  0
 19 21  2  0  0  0  0
 19 38  1  0  0  0  0
 20 22  2  0  0  0  0
 20 39  1  0  0  0  0
 21 47  1  0  0  0  0
 22 40  1  0  0  0  0
 23 60  1  0  0  0  0
 24 87  1  0  0  0  0
 25 88  1  0  0  0  0
 26 28  2  0  0  0  0
 26 87  1  0  0  0  0
 27 89  1  0  0  0  0
 28 90  1  0  0  0  0
 29 71  2  0  0  0  0
 30 61  1  0  0  0  0
 30 72  1  0  0  0  0
 31 65  1  0  0  0  0
 31 72  2  0  0  0  0
 32 73  1  0  0  0  0
 32 76  1  0  0  0  0
 33 77  1  0  0  0  0
 33 82  2  0  0  0  0
 34 48  1  0  0  0  0
 34 78  1  0  0  0  0
 34 83  2  0  0  0  0
 35 66  1  0  0  0  0
 35 74  1  0  0  0  0
 35 84  2  0  0  0  0
 36 67  1  0  0  0  0
 36 79  1  0  0  0  0
 36 85  2  0  0  0  0
 37 75  1  0  0  0  0
 37 80  1  0  0  0  0
 37 86  2  0  0  0  0
 38 41  1  0  0  0  0
 39 48  1  0  0  0  0
 40 74  1  0  0  0  0
 41 43  1  0  0  0  0
 42 44  1  0  0  0  0
 42 45  1  0  0  0  0
 43 47  1  0  0  0  0
 44 49  1  0  0  0  0
 45 75  1  0  0  0  0
 46 49  1  0  0  0  0
 46 75  1  0  0  0  0
 47 78  1  0  0  0  0
 48 74  1  0  0  0  0
 49 73  1  0  0  0  0
 50 65  1  0  0  0  0
 51 67  1  0  0  0  0
 52 68  1  0  0  0  0
 53 69  1  0  0  0  0
 54 69  1  0  0  0  0
 55 69  1  0  0  0  0
 56 70  1  0  0  0  0
 57 70  1  0  0  0  0
 58 70  1  0  0  0  0
 59 81  1  0  0  0  0
 60 62  1  0  0  0  0
 61 69  1  0  0  0  0
 62 63  1  0  0  0  0
 63 68  1  0  0  0  0
 64 65  1  0  0  0  0
 64 80  1  0  0  0  0
 66 70  1  0  0  0  0
 66 79  1  0  0  0  0
 67 81  1  0  0  0  0
 68 88  1  0  0  0  0
 71 73  1  0  0  0  0
M  CHG  1  81   1
M  ISO  4  37 100  68 101  80 100  88 101
M  END
> <Batch ID>
0089

> <Smiles>
CNC(C)C(=O)NC(C(=O)N1Cc2cc([101O:1][101CH:1](C)CCCc3cc(CC(C)(C)C)nc(C(C)C[100NH:0][100C:0](=O)N4CCCC(n5nc(-c6ccc(Oc7ccc(F)cc7F)cc6)c(C(N)=O)c5N)C4)c3)ccc2CC1C(=O)NC1CCCc2ccccc21)C(C)(C)C

> <Shape>
0.141

> <Color>
0.170

> <Negative vol penalty>
0.000

$$$$

  -OEChem-04052319063D

 90 98  0     1  0  0  0  0  0999 V2000
  -28.8972  -33.8279   19.9354 C   0  0  0  0  0  0  0  0  0  0  0  0
  -29.3176  -32.5530   19.5705 C   0  0  0  0  0  0  0  0  0  0  0  0
  -22.5071  -10.3821   20.3780 C   0  0  0  0  0  0  0  0  0  0  0  0
  -24.4194   -9.4006   21.4811 C   0  0  0  0  0  0  0  0  0  0  0  0
  -27.9907  -33.9887   20.9824 C   0  0  0  0  0  0  0  0  0  0  0  0
  -28.8326  -31.4381   20.2532 C   0  0  0  0  0  0  0  0  0  0  0  0
  -27.6604  -25.9052   17.9039 C   0  0  0  0  0  0  0  0  0  0  0  0
  -21.8137   -9.1790   20.5094 C   0  0  0  0  0  0  0  0  0  0  0  0
  -23.7260   -8.1974   21.6126 C   0  0  0  0  0  0  0  0  0  0  0  0
  -28.3919  -24.7184   17.8888 C   0  0  0  0  0  0  0  0  0  0  0  0
  -22.3302   -4.9772   22.5612 C   0  0  0  0  0  0  0  0  0  0  0  0
  -22.3890   -4.3252   23.7929 C   0  0  0  0  0  0  0  0  0  0  0  0
  -27.1775  -23.9522   19.8272 C   0  0  0  0  0  0  0  0  0  0  0  0
  -27.3737  -18.7323   21.4613 C   0  0  0  0  0  0  0  0  0  0  0  0
  -21.3975   -6.2525   24.8604 C   0  0  0  0  0  0  0  0  0  0  0  0
  -23.8100  -10.4929   20.8637 C   0  0  0  0  0  0  0  0  0  0  0  0
  -24.5511  -12.8072   21.6400 C   0  0  0  0  0  0  0  0  0  0  0  0
  -27.4868  -32.8746   21.6719 C   0  0  0  0  0  0  0  0  0  0  0  0
  -26.6879  -26.1293   18.8890 C   0  0  0  0  0  0  0  0  0  0  0  0
  -27.9195  -31.5842   21.3113 C   0  0  0  0  0  0  0  0  0  0  0  0
  -26.4332  -25.1415   19.8511 C   0  0  0  0  0  0  0  0  0  0  0  0
  -28.3867  -18.5489   20.5268 C   0  0  0  0  0  0  0  0  0  0  0  0
  -27.6044  -18.4255   22.7977 C   0  0  0  0  0  0  0  0  0  0  0  0
  -22.4231   -8.0866   21.1268 C   0  0  0  0  0  0  0  0  0  0  0  0
  -28.1525  -23.7429   18.8522 C   0  0  0  0  0  0  0  0  0  0  0  0
  -21.8051   -6.2669   22.4791 C   0  0  0  0  0  0  0  0  0  0  0  0
  -21.9226   -4.9628   24.9425 C   0  0  0  0  0  0  0  0  0  0  0  0
  -21.3388   -6.9045   23.6287 C   0  0  0  0  0  0  0  0  0  0  0  0
  -24.5269  -11.7353   20.7277 C   0  0  0  0  0  0  0  0  0  0  0  0
  -29.6028  -18.0600   20.9761 C   0  0  0  0  0  0  0  0  0  0  0  0
  -28.8554  -17.9419   23.1453 C   0  0  0  0  0  0  0  0  0  0  0  0
  -25.3700  -13.7400   21.0522 C   0  0  0  0  0  0  0  0  0  0  0  0
  -23.8922  -12.9470   22.9057 C   0  0  0  0  0  0  0  0  0  0  0  0
  -26.2961  -28.2665   21.2091 C   0  0  0  0  0  0  0  0  0  0  0  0
  -23.4310  -26.7859   21.5572 C   0  0  0  0  0  0  0  0  0  0  0  0
  -21.5497  -23.9738   21.1101 C   0  0  0  0  0  0  0  0  0  0  0  0
  -30.0447  -15.0745   18.3114 C   0  0  0  0  0  0  0  0  0  0  0  0
  -26.5449  -33.1013   22.8279 C   0  0  0  0  0  0  0  0  0  0  0  0
  -25.8887  -27.4035   18.8756 C   0  0  0  0  0  0  0  0  0  0  0  0
  -25.3860  -25.3248   20.9179 C   0  0  0  0  0  0  0  0  0  0  0  0
  -25.7914  -31.8443   23.2551 C   0  0  0  0  0  0  0  0  0  0  0  0
  -27.2726  -13.9671   16.3708 C   0  0  0  0  0  0  0  0  0  0  0  0
  -26.7469  -30.6604   23.3650 C   0  0  0  0  0  0  0  0  0  0  0  0
  -26.3166  -13.3709   17.4055 C   0  0  0  0  0  0  0  0  0  0  0  0
  -28.7321  -13.6942   16.7277 C   0  0  0  0  0  0  0  0  0  0  0  0
  -28.1703  -13.5163   19.1207 C   0  0  0  0  0  0  0  0  0  0  0  0
  -27.3969  -30.3486   22.0115 C   0  0  1  0  0  0  0  0  0  0  0  0
  -25.2810  -27.7420   20.2333 C   0  0  1  0  0  0  0  0  0  0  0  0
  -26.6886  -13.8138   18.8334 C   0  0  2  0  0  0  0  0  0  0  0  0
  -30.2916  -18.4620   25.1505 C   0  0  0  0  0  0  0  0  0  0  0  0
  -29.4915  -16.1051   24.7502 C   0  0  0  0  0  0  0  0  0  0  0  0
  -19.2536  -23.0525   21.5301 C   0  0  0  0  0  0  0  0  0  0  0  0
  -25.5407  -18.9716   26.6607 C   0  0  0  0  0  0  0  0  0  0  0  0
  -25.8570  -21.4460   26.4672 C   0  0  0  0  0  0  0  0  0  0  0  0
  -24.1210  -26.4170   24.5064 C   0  0  0  0  0  0  0  0  0  0  0  0
  -22.2961  -24.7089   24.6480 C   0  0  0  0  0  0  0  0  0  0  0  0
  -21.7481  -27.0714   24.0642 C   0  0  0  0  0  0  0  0  0  0  0  0
  -21.0552  -23.5737   18.2197 C   0  0  0  0  0  0  0  0  0  0  0  0
  -28.1430  -18.8798   19.0760 C   0  0  0  0  0  0  0  0  0  0  0  0
  -26.5231  -18.6194   23.8040 C   0  0  0  0  0  0  0  0  0  0  0  0
  -30.7274  -17.8416   20.0177 C   0  0  0  0  0  0  0  0  0  0  0  0
  -28.7834  -20.1954   18.6284 C   0  0  0  0  0  0  0  0  0  0  0  0
  -26.7426  -19.8864   24.6528 C   0  0  0  0  0  0  0  0  0  0  0  0
  -31.2609  -16.4050   20.0172 C   0  0  0  0  0  0  0  0  0  0  0  0
  -28.2165  -21.4167   19.3429 C   0  0  0  0  0  0  0  0  0  1  0  0
  -29.1596  -17.5972   24.5666 C   0  0  0  0  0  0  0  0  0  0  0  0
  -22.9236  -25.6153   22.3642 C   0  0  1  0  0  0  0  0  0  0  0  0
  -20.1564  -23.7739   20.5415 C   0  0  2  0  0  0  0  0  0  0  0  0
  -25.6328  -20.1496   25.6875 C   0  0  0  0  0  0  0  0  0  0  0  0
  -22.7933  -25.9502   23.8769 C   0  0  0  0  0  0  0  0  0  0  0  0
  -25.2713  -11.9648   19.6427 N   0  0  0  0  0  0  0  0  0  0  0  0
  -29.8642  -17.7506   22.2659 N   0  0  0  0  0  0  0  0  0  0  0  0
  -25.7708  -13.1917   19.8694 N   0  0  0  0  0  0  0  0  0  0  0  0
  -24.6353  -26.5903   20.8665 N   0  0  0  0  0  0  0  0  0  0  0  0
  -29.0200  -14.1388   18.0934 N   0  0  0  0  0  0  0  0  0  0  0  0
  -25.7792  -14.9677   21.4368 N   0  0  0  0  0  0  0  0  0  0  0  0
  -23.0880  -11.8931   23.3604 N   0  0  0  0  0  0  0  0  0  0  0  0
  -26.4703  -29.6363   21.1580 N   0  0  0  0  0  0  0  0  0  0  0  0
  -21.6756  -25.1963   21.7353 N   0  0  0  0  0  0  0  0  0  0  0  0
  -30.2477  -15.4470   19.6346 N   0  0  0  0  0  0  0  0  0  0  0  0
  -20.2188  -22.9695   19.2885 N   0  3  0  0  0  0  0  0  0  0  0  0
  -23.9998  -13.9829   23.6049 O   0  0  0  0  0  0  0  0  0  0  0  0
  -26.8772  -27.4862   21.9543 O   0  0  0  0  0  0  0  0  0  0  0  0
  -22.7790  -27.8328   21.5346 O   0  0  0  0  0  0  0  0  0  0  0  0
  -22.4364  -23.1284   21.0129 O   0  0  0  0  0  0  0  0  0  0  0  0
  -30.7245  -15.5473   17.3941 O   0  0  0  0  0  0  0  0  0  0  0  0
  -21.7467   -6.9126   21.2554 O   0  0  0  0  0  0  0  0  0  0  0  0
  -28.8656  -22.5839   18.8401 O   0  0  0  0  0  0  0  0  0  1  0  0
  -21.9777   -4.3360   26.1250 F   0  0  0  0  0  0  0  0  0  0  0  0
  -20.8322   -8.1430   23.5559 F   0  0  0  0  0  0  0  0  0  0  0  0
  1  2  1  0  0  0  0
  1  5  2  0  0  0  0
  2  6  2  0  0  0  0
  3  8  2  0  0  0  0
  3 16  1  0  0  0  0
  4  9  1  0  0  0  0
  4 16  2  0  0  0  0
  5 18  1  0  0  0  0
  6 20  1  0  0  0  0
  7 10  2  0  0  0  0
  7 19  1  0  0  0  0
  8 24  1  0  0  0  0
  9 24  2  0  0  0  0
 10 25  1  0  0  0  0
 11 12  2  0  0  0  0
 11 26  1  0  0  0  0
 12 27  1  0  0  0  0
 13 21  1  0  0  0  0
 13 25  2  0  0  0  0
 14 22  1  0  0  0  0
 14 23  2  0  0  0  0
 15 27  2  0  0  0  0
 15 28  1  0  0  0  0
 16 29  1  0  0  0  0
 17 29  1  0  0  0  0
 17 32  2  0  0  0  0
 17 33  1  0  0  0  0
 18 20  2  0  0  0  0
 18 38  1  0  0  0  0
 19 21  2  0  0  0  0
 19 39  1  0  0  0  0
 20 47  1  0  0  0  0
 21 40  1  0  0  0  0
 22 30  2  0  0  0  0
 22 59  1  0  0  0  0
 23 31  1  0  0  0  0
 23 60  1  0  0  0  0
 24 87  1  0  0  0  0
 25 88  1  0  0  0  0
 26 28  2  0  0  0  0
 26 87  1  0  0  0  0
 27 89  1  0  0  0  0
 28 90  1  0  0  0  0
 29 71  2  0  0  0  0
 30 61  1  0  0  0  0
 30 72  1  0  0  0  0
 31 66  1  0  0  0  0
 31 72  2  0  0  0  0
 32 73  1  0  0  0  0
 32 76  1  0  0  0  0
 33 77  1  0  0  0  0
 33 82  2  0  0  0  0
 34 48  1  0  0  0  0
 34 78  1  0  0  0  0
 34 83  2  0  0  0  0
 35 67  1  0  0  0  0
 35 74  1  0  0  0  0
 35 84  2  0  0  0  0
 36 68  1  0  0  0  0
 36 79  1  0  0  0  0
 36 85  2  0  0  0  0
 37 75  1  0  0  0  0
 37 80  1  0  0  0  0
 37 86  2  0  0  0  0
 38 41  1  0  0  0  0
 39 48  1  0  0  0  0
 40 74  1  0  0  0  0
 41 43  1  0  0  0  0
 42 44  1  0  0  0  0
 42 45  1  0  0  0  0
 43 47  1  0  0  0  0
 44 49  1  0  0  0  0
 45 75  1  0  0  0  0
 46 49  1  0  0  0  0
 46 75  1  0  0  0  0
 47 78  1  0  0  0  0
 48 74  1  0  0  0  0
 49 73  1  0  0  0  0
 50 66  1  0  0  0  0
 51 66  1  0  0  0  0
 52 68  1  0  0  0  0
 53 69  1  0  0  0  0
 54 69  1  0  0  0  0
 55 70  1  0  0  0  0
 56 70  1  0  0  0  0
 57 70  1  0  0  0  0
 58 81  1  0  0  0  0
 59 62  1  0  0  0  0
 60 63  1  0  0  0  0
 61 64  1  0  0  0  0
 62 65  1  0  0  0  0
 63 69  1  0  0  0  0
 64 80  1  0  0  0  0
 65 88  1  0  0  0  0
 67 70  1  0  0  0  0
 67 79  1  0  0  0  0
 68 81  1  0  0  0  0
 71 73  1  0  0  0  0
M  CHG  1  81   1
M  ISO  4  37 100  65 101  80 100  88 101
M  END
> <Batch ID>
0089

> <Smiles>
CNC(C)C(=O)NC(C(=O)N1Cc2cc([101O:1][101CH2:1]CCc3cc(CCC(C)C)c(C(C)C)nc3CC[100NH:0][100C:0](=O)N3CCCC(n4nc(-c5ccc(Oc6ccc(F)cc6F)cc5)c(C(N)=O)c4N)C3)ccc2CC1C(=O)NC1CCCc2ccccc21)C(C)(C)C

> <Shape>
0.256

> <Color>
0.105

> <Negative vol penalty>
0.000

$$$$

  -OEChem-04052319063D

 90 98  0     1  0  0  0  0  0999 V2000
  -20.7644  -32.7246   23.6151 C   0  0  0  0  0  0  0  0  0  0  0  0
  -21.7514  -31.8527   24.0634 C   0  0  0  0  0  0  0  0  0  0  0  0
  -24.0339   -9.8910   22.3395 C   0  0  0  0  0  0  0  0  0  0  0  0
  -24.4492  -11.4852   24.1067 C   0  0  0  0  0  0  0  0  0  0  0  0
  -20.1337  -32.4929   22.3934 C   0  0  0  0  0  0  0  0  0  0  0  0
  -22.1075  -30.7479   23.2907 C   0  0  0  0  0  0  0  0  0  0  0  0
  -27.6847  -28.2759   22.7519 C   0  0  0  0  0  0  0  0  0  0  0  0
  -23.5932   -8.9615   23.2815 C   0  0  0  0  0  0  0  0  0  0  0  0
  -24.0085  -10.5557   25.0487 C   0  0  0  0  0  0  0  0  0  0  0  0
  -28.2861  -27.1760   23.3620 C   0  0  0  0  0  0  0  0  0  0  0  0
  -20.7911   -8.3757   25.0809 C   0  0  0  0  0  0  0  0  0  0  0  0
  -19.6201   -7.6723   24.7988 C   0  0  0  0  0  0  0  0  0  0  0  0
  -27.6955  -25.8083   21.4647 C   0  0  0  0  0  0  0  0  0  0  0  0
  -29.6440  -20.9788   20.8259 C   0  0  0  0  0  0  0  0  0  0  0  0
  -30.3541  -19.8575   22.8446 C   0  0  0  0  0  0  0  0  0  0  0  0
  -20.8444   -5.5921   24.9048 C   0  0  0  0  0  0  0  0  0  0  0  0
  -24.4620  -11.1528   22.7521 C   0  0  0  0  0  0  0  0  0  0  0  0
  -24.1399  -13.0696   21.0998 C   0  0  0  0  0  0  0  0  0  0  0  0
  -20.4890  -31.3901   21.6009 C   0  0  0  0  0  0  0  0  0  0  0  0
  -27.0736  -28.1475   21.4964 C   0  0  0  0  0  0  0  0  0  0  0  0
  -21.4800  -30.5005   22.0580 C   0  0  0  0  0  0  0  0  0  0  0  0
  -27.0893  -26.9087   20.8397 C   0  0  0  0  0  0  0  0  0  0  0  0
  -30.4091  -20.9600   21.9920 C   0  0  0  0  0  0  0  0  0  0  0  0
  -28.8237  -19.8950   20.5125 C   0  0  0  0  0  0  0  0  0  0  0  0
  -29.5338  -18.7737   22.5312 C   0  0  0  0  0  0  0  0  0  0  0  0
  -28.7686  -18.7925   21.3651 C   0  0  0  0  0  0  0  0  0  0  0  0
  -23.5804   -9.2939   24.6361 C   0  0  0  0  0  0  0  0  0  0  0  0
  -28.2891  -25.9413   22.7198 C   0  0  0  0  0  0  0  0  0  0  0  0
  -21.9887   -7.6874   25.2749 C   0  0  0  0  0  0  0  0  0  0  0  0
  -19.6468   -6.2804   24.7108 C   0  0  0  0  0  0  0  0  0  0  0  0
  -22.0153   -6.2956   25.1868 C   0  0  0  0  0  0  0  0  0  0  0  0
  -24.9179  -12.1132   21.7795 C   0  0  0  0  0  0  0  0  0  0  0  0
  -25.0349  -13.7306   20.2944 C   0  0  0  0  0  0  0  0  0  0  0  0
  -22.7341  -13.3367   21.1886 C   0  0  0  0  0  0  0  0  0  0  0  0
  -24.1155  -28.5166   20.3932 C   0  0  0  0  0  0  0  0  0  0  0  0
  -25.5409  -28.0165   17.5225 C   0  0  0  0  0  0  0  0  0  0  0  0
  -28.1588  -26.6919   15.7794 C   0  0  0  0  0  0  0  0  0  0  0  0
  -30.9468  -14.6154   20.6363 C   0  0  0  0  0  0  0  0  0  0  0  0
  -19.7461  -31.1546   20.3097 C   0  0  0  0  0  0  0  0  0  0  0  0
  -26.4526  -29.3499   20.8398 C   0  0  0  0  0  0  0  0  0  0  0  0
  -26.4647  -26.7230   19.4818 C   0  0  0  0  0  0  0  0  0  0  0  0
  -20.4447  -30.1695   19.3759 C   0  0  0  0  0  0  0  0  0  0  0  0
  -29.1626  -13.0824   17.9636 C   0  0  0  0  0  0  0  0  0  0  0  0
  -20.8988  -28.9338   20.1465 C   0  0  0  0  0  0  0  0  0  0  0  0
  -27.8022  -12.7465   18.5771 C   0  0  0  0  0  0  0  0  0  0  0  0
  -30.2962  -12.9011   18.9706 C   0  0  0  0  0  0  0  0  0  0  0  0
  -28.7570  -13.2914   20.8554 C   0  0  0  0  0  0  0  0  0  0  0  0
  -21.9114  -29.3048   21.2367 C   0  0  1  0  0  0  0  0  0  0  0  0
  -25.4091  -28.9844   19.7886 C   0  0  1  0  0  0  0  0  0  0  0  0
  -27.5765  -13.5130   19.8943 C   0  0  2  0  0  0  0  0  0  0  0  0
  -27.8893  -17.6304   21.0286 C   0  0  0  0  0  0  0  0  0  0  0  0
  -28.9239  -18.0028   24.8389 C   0  0  0  0  0  0  0  0  0  0  0  0
  -29.0274  -26.4092   13.4421 C   0  0  0  0  0  0  0  0  0  0  0  0
  -24.2159  -20.6549   18.6573 C   0  0  0  0  0  0  0  0  0  0  0  0
  -26.1731  -21.3929   17.2844 C   0  0  0  0  0  0  0  0  0  0  0  0
  -23.4933  -25.8082   17.0314 C   0  0  0  0  0  0  0  0  0  0  0  0
  -24.9566  -24.9576   15.1866 C   0  0  0  0  0  0  0  0  0  0  0  0
  -23.9743  -27.2461   15.0425 C   0  0  0  0  0  0  0  0  0  0  0  0
  -30.6160  -28.2273   16.3826 C   0  0  0  0  0  0  0  0  0  0  0  0
  -31.2953  -22.1319   22.3312 C   0  0  0  0  0  0  0  0  0  0  0  0
  -28.0151  -19.9395   19.2571 C   0  0  0  0  0  0  0  0  0  0  0  0
  -30.6014  -23.2060   23.1715 C   0  0  0  0  0  0  0  0  0  0  0  0
  -26.5345  -20.2526   19.5378 C   0  0  0  0  0  0  0  0  0  0  0  0
  -30.8678  -16.9047   23.6578 C   0  0  0  0  0  0  0  0  0  0  0  0
  -31.4539  -16.3099   22.3772 C   0  0  0  0  0  0  0  0  0  0  0  0
  -29.4348  -23.8743   22.4533 C   0  0  0  0  0  0  0  0  0  1  0  0
  -29.4928  -17.6050   23.4609 C   0  0  2  0  0  0  0  0  0  0  0  0
  -25.8496  -26.8030   16.6792 C   0  0  1  0  0  0  0  0  0  0  0  0
  -29.0430  -27.2753   14.6920 C   0  0  2  0  0  0  0  0  0  0  0  0
  -25.6635  -20.3413   18.2709 C   0  0  0  0  0  0  0  0  0  0  0  0
  -24.5786  -26.2065   16.0114 C   0  0  0  0  0  0  0  0  0  0  0  0
  -26.2077  -12.1591   21.4357 N   0  0  0  0  0  0  0  0  0  0  0  0
  -26.2472  -13.1522   20.5311 N   0  0  0  0  0  0  0  0  0  0  0  0
  -25.8645  -27.9270   18.8838 N   0  0  0  0  0  0  0  0  0  0  0  0
  -30.0213  -13.6547   20.1964 N   0  0  0  0  0  0  0  0  0  0  0  0
  -24.8952  -14.7442   19.4138 N   0  0  0  0  0  0  0  0  0  0  0  0
  -21.9613  -12.5640   22.0662 N   0  0  0  0  0  0  0  0  0  0  0  0
  -23.2175  -29.5333   20.6567 N   0  0  0  0  0  0  0  0  0  0  0  0
  -26.8834  -27.2142   15.7355 N   0  0  0  0  0  0  0  0  0  0  0  0
  -30.6063  -15.2887   21.8030 N   0  0  0  0  0  0  0  0  0  0  0  0
  -30.4500  -27.3837   15.1711 N   0  3  0  0  0  0  0  0  0  0  0  0
  -22.1767  -14.2230   20.4977 O   0  0  0  0  0  0  0  0  0  0  0  0
  -23.9441  -27.3215   20.6035 O   0  0  0  0  0  0  0  0  0  0  0  0
  -25.0378  -29.0098   16.9916 O   0  0  0  0  0  0  0  0  0  0  0  0
  -28.5584  -25.8539   16.5846 O   0  0  0  0  0  0  0  0  0  0  0  0
  -31.9962  -14.8590   20.0310 O   0  0  0  0  0  0  0  0  0  0  0  0
  -23.1502   -8.3872   25.5556 O   0  0  0  0  0  0  0  0  0  0  0  0
  -28.8748  -24.8659   23.3133 O   0  0  0  0  0  0  0  0  0  1  0  0
  -18.5219   -5.6049   24.4414 F   0  0  0  0  0  0  0  0  0  0  0  0
  -23.1626   -5.6287   25.3734 F   0  0  0  0  0  0  0  0  0  0  0  0
  1  2  1  0  0  0  0
  1  5  2  0  0  0  0
  2  6  2  0  0  0  0
  3  8  2  0  0  0  0
  3 17  1  0  0  0  0
  4  9  1  0  0  0  0
  4 17  2  0  0  0  0
  5 19  1  0  0  0  0
  6 21  1  0  0  0  0
  7 10  2  0  0  0  0
  7 20  1  0  0  0  0
  8 27  1  0  0  0  0
  9 27  2  0  0  0  0
 10 28  1  0  0  0  0
 11 12  2  0  0  0  0
 11 29  1  0  0  0  0
 12 30  1  0  0  0  0
 13 22  1  0  0  0  0
 13 28  2  0  0  0  0
 14 23  1  0  0  0  0
 14 24  2  0  0  0  0
 15 23  2  0  0  0  0
 15 25  1  0  0  0  0
 16 30  2  0  0  0  0
 16 31  1  0  0  0  0
 17 32  1  0  0  0  0
 18 32  1  0  0  0  0
 18 33  2  0  0  0  0
 18 34  1  0  0  0  0
 19 21  2  0  0  0  0
 19 39  1  0  0  0  0
 20 22  2  0  0  0  0
 20 40  1  0  0  0  0
 21 48  1  0  0  0  0
 22 41  1  0  0  0  0
 23 60  1  0  0  0  0
 24 26  1  0  0  0  0
 24 61  1  0  0  0  0
 25 26  2  0  0  0  0
 25 67  1  0  0  0  0
 26 51  1  0  0  0  0
 27 87  1  0  0  0  0
 28 88  1  0  0  0  0
 29 31  2  0  0  0  0
 29 87  1  0  0  0  0
 30 89  1  0  0  0  0
 31 90  1  0  0  0  0
 32 72  2  0  0  0  0
 33 73  1  0  0  0  0
 33 76  1  0  0  0  0
 34 77  1  0  0  0  0
 34 82  2  0  0  0  0
 35 49  1  0  0  0  0
 35 78  1  0  0  0  0
 35 83  2  0  0  0  0
 36 68  1  0  0  0  0
 36 74  1  0  0  0  0
 36 84  2  0  0  0  0
 37 69  1  0  0  0  0
 37 79  1  0  0  0  0
 37 85  2  0  0  0  0
 38 75  1  0  0  0  0
 38 80  1  0  0  0  0
 38 86  2  0  0  0  0
 39 42  1  0  0  0  0
 40 49  1  0  0  0  0
 41 74  1  0  0  0  0
 42 44  1  0  0  0  0
 43 45  1  0  0  0  0
 43 46  1  0  0  0  0
 44 48  1  0  0  0  0
 45 50  1  0  0  0  0
 46 75  1  0  0  0  0
 47 50  1  0  0  0  0
 47 75  1  0  0  0  0
 48 78  1  0  0  0  0
 49 74  1  0  0  0  0
 50 73  1  0  0  0  0
 52 67  1  0  0  0  0
 53 69  1  0  0  0  0
 54 70  1  0  0  0  0
 55 70  1  0  0  0  0
 56 71  1  0  0  0  0
 57 71  1  0  0  0  0
 58 71  1  0  0  0  0
 59 81  1  0  0  0  0
 60 62  1  0  0  0  0
 61 63  1  0  0  0  0
 62 66  1  0  0  0  0
 63 70  1  0  0  0  0
 64 65  1  0  0  0  0
 64 67  1  0  0  0  0
 65 80  1  0  0  0  0
 66 88  1  0  0  0  0
 68 71  1  0  0  0  0
 68 79  1  0  0  0  0
 69 81  1  0  0  0  0
 72 73  1  0  0  0  0
M  CHG  1  81   1
M  ISO  4  38 100  66 101  80 100  88 101
M  END
> <Batch ID>
0089

> <Smiles>
CNC(C)C(=O)NC(C(=O)N1Cc2cc([101O:1][101CH2:1]CCc3cc(CCC(C)C)c(C)c(C(C)CC[100NH:0][100C:0](=O)N4CCCC(n5nc(-c6ccc(Oc7ccc(F)cc7F)cc6)c(C(N)=O)c5N)C4)c3)ccc2CC1C(=O)NC1CCCc2ccccc21)C(C)(C)C

> <Shape>
0.235

> <Color>
0.119

> <Negative vol penalty>
0.000

$$$$

  -OEChem-04052319063D

 86 94  0     1  0  0  0  0  0999 V2000
  -18.5987  -32.9423   20.3251 C   0  0  0  0  0  0  0  0  0  0  0  0
  -19.9257  -32.6995   19.9854 C   0  0  0  0  0  0  0  0  0  0  0  0
  -27.8169  -17.8945   21.3091 C   0  0  0  0  0  0  0  0  0  0  0  0
  -29.5992  -17.2309   19.8190 C   0  0  0  0  0  0  0  0  0  0  0  0
  -18.0827  -32.4397   21.5189 C   0  0  0  0  0  0  0  0  0  0  0  0
  -20.7379  -31.9548   20.8399 C   0  0  0  0  0  0  0  0  0  0  0  0
  -25.2095  -28.0919   19.2306 C   0  0  0  0  0  0  0  0  0  0  0  0
  -27.2463  -16.6272   21.1910 C   0  0  0  0  0  0  0  0  0  0  0  0
  -29.0286  -15.9635   19.7010 C   0  0  0  0  0  0  0  0  0  0  0  0
  -26.5944  -28.2368   19.1616 C   0  0  0  0  0  0  0  0  0  0  0  0
  -26.4757  -14.5282   18.0118 C   0  0  0  0  0  0  0  0  0  0  0  0
  -26.3842  -13.9751   16.7346 C   0  0  0  0  0  0  0  0  0  0  0  0
  -26.7992  -27.2699   21.3621 C   0  0  0  0  0  0  0  0  0  0  0  0
  -31.3957  -29.0916   20.8184 C   0  0  0  0  0  0  0  0  0  0  0  0
  -31.8596  -26.7419   21.0371 C   0  0  0  0  0  0  0  0  0  0  0  0
  -27.7542  -12.1151   17.4420 C   0  0  0  0  0  0  0  0  0  0  0  0
  -28.9933  -18.1964   20.6230 C   0  0  0  0  0  0  0  0  0  0  0  0
  -30.5335  -19.9252   21.6938 C   0  0  0  0  0  0  0  0  0  0  0  0
  -18.8863  -31.6802   22.3838 C   0  0  0  0  0  0  0  0  0  0  0  0
  -24.6072  -27.5441   20.3724 C   0  0  0  0  0  0  0  0  0  0  0  0
  -20.2326  -31.4426   22.0470 C   0  0  0  0  0  0  0  0  0  0  0  0
  -25.4066  -27.1168   21.4421 C   0  0  0  0  0  0  0  0  0  0  0  0
  -30.9504  -27.7938   21.0435 C   0  0  0  0  0  0  0  0  0  0  0  0
  -27.8521  -15.6617   20.3870 C   0  0  0  0  0  0  0  0  0  0  0  0
  -27.3893  -27.8284   20.2286 C   0  0  0  0  0  0  0  0  0  0  0  0
  -27.2065  -13.8748   19.0041 C   0  0  0  0  0  0  0  0  0  0  0  0
  -27.0234  -12.7685   16.4497 C   0  0  0  0  0  0  0  0  0  0  0  0
  -27.8457  -12.6683   18.7192 C   0  0  0  0  0  0  0  0  0  0  0  0
  -29.5829  -19.5055   20.7440 C   0  0  0  0  0  0  0  0  0  0  0  0
  -32.7494  -29.2830   20.5936 C   0  0  0  0  0  0  0  0  0  0  0  0
  -33.1926  -27.0384   20.8024 C   0  0  0  0  0  0  0  0  0  0  0  0
  -30.7679  -21.2431   21.3858 C   0  0  0  0  0  0  0  0  0  0  0  0
  -31.1496  -19.1896   22.7591 C   0  0  0  0  0  0  0  0  0  0  0  0
  -22.5413  -28.6009   22.5447 C   0  0  0  0  0  0  0  0  0  0  0  0
  -22.6658  -25.5320   23.5880 C   0  0  0  0  0  0  0  0  0  0  0  0
  -24.4020  -22.5991   23.7613 C   0  0  0  0  0  0  0  0  0  0  0  0
  -31.7225  -25.2707   17.6426 C   0  0  0  0  0  0  0  0  0  0  0  0
  -18.2973  -31.1979   23.6857 C   0  0  0  0  0  0  0  0  0  0  0  0
  -23.1139  -27.3700   20.4203 C   0  0  0  0  0  0  0  0  0  0  0  0
  -24.8106  -26.5039   22.6821 C   0  0  0  0  0  0  0  0  0  0  0  0
  -19.1198  -30.1011   24.3571 C   0  0  0  0  0  0  0  0  0  0  0  0
  -28.3305  -24.3748   18.2493 C   0  0  0  0  0  0  0  0  0  0  0  0
  -20.5994  -30.4720   24.3641 C   0  0  0  0  0  0  0  0  0  0  0  0
  -28.4325  -23.0602   19.0249 C   0  0  0  0  0  0  0  0  0  0  0  0
  -29.4180  -24.4868   17.1831 C   0  0  0  0  0  0  0  0  0  0  0  0
  -30.8955  -22.9787   18.4543 C   0  0  0  0  0  0  0  0  0  0  0  0
  -21.1383  -30.6182   22.9359 C   0  0  1  0  0  0  0  0  0  0  0  0
  -22.5690  -27.2731   21.8420 C   0  0  1  0  0  0  0  0  0  0  0  0
  -29.8539  -22.8446   19.5783 C   0  0  2  0  0  0  0  0  0  0  0  0
  -33.8951  -30.8166   18.9538 C   0  0  0  0  0  0  0  0  0  0  0  0
  -34.2635  -31.1169   21.4295 C   0  0  0  0  0  0  0  0  0  0  0  0
  -35.2237  -26.0911   21.9275 C   0  0  0  0  0  0  0  0  0  0  0  0
  -24.2640  -20.2815   24.7137 C   0  0  0  0  0  0  0  0  0  0  0  0
  -34.8593  -25.7009   16.9163 C   0  0  0  0  0  0  0  0  0  0  0  0
  -23.3370  -26.6313   26.3540 C   0  0  0  0  0  0  0  0  0  0  0  0
  -24.1073  -24.3389   27.0016 C   0  0  0  0  0  0  0  0  0  0  0  0
  -21.7280  -24.7168   26.3546 C   0  0  0  0  0  0  0  0  0  0  0  0
  -24.5107  -21.3632   21.0743 C   0  0  0  0  0  0  0  0  0  0  0  0
  -29.4947  -27.5297   21.2934 C   0  0  0  0  0  0  0  0  0  1  0  0
  -34.9537  -25.7830   19.4341 C   0  0  0  0  0  0  0  0  0  0  0  0
  -33.2634  -30.6625   20.3499 C   0  0  0  0  0  0  0  0  0  0  0  0
  -34.1956  -25.9336   20.7866 C   0  0  2  0  0  0  0  0  0  0  0  0
  -23.5207  -24.7715   24.5727 C   0  0  1  0  0  0  0  0  0  0  0  0
  -23.9812  -21.1628   23.5071 C   0  0  2  0  0  0  0  0  0  0  0  0
  -34.0533  -25.9216   18.1931 C   0  0  2  0  0  0  0  0  0  0  0  0
  -23.1847  -25.1279   26.0483 C   0  0  0  0  0  0  0  0  0  0  0  0
  -29.2369  -20.4780   19.8963 N   0  0  0  0  0  0  0  0  0  0  0  0
  -33.6626  -28.2863   20.5798 N   0  0  0  0  0  0  0  0  0  0  0  0
  -29.9741  -21.5218   20.3124 N   0  0  0  0  0  0  0  0  0  0  0  0
  -23.3453  -26.3606   22.6839 N   0  0  0  0  0  0  0  0  0  0  0  0
  -30.7416  -24.2739   17.7735 N   0  0  0  0  0  0  0  0  0  0  0  0
  -31.5734  -22.1790   21.9313 N   0  0  0  0  0  0  0  0  0  0  0  0
  -30.7951  -17.8451   22.9350 N   0  0  0  0  0  0  0  0  0  0  0  0
  -21.3754  -29.3165   22.3495 N   0  0  0  0  0  0  0  0  0  0  0  0
  -23.3589  -23.3585   24.2476 N   0  0  0  0  0  0  0  0  0  0  0  0
  -32.9471  -24.9914   18.2369 N   0  0  0  0  0  0  0  0  0  0  0  0
  -24.7169  -20.6070   22.3363 N   0  3  0  0  0  0  0  0  0  0  0  0
  -31.9775  -19.7137   23.5424 O   0  0  0  0  0  0  0  0  0  0  0  0
  -23.5056  -28.9497   23.2156 O   0  0  0  0  0  0  0  0  0  0  0  0
  -21.4407  -25.3905   23.6152 O   0  0  0  0  0  0  0  0  0  0  0  0
  -25.5430  -23.0056   23.5531 O   0  0  0  0  0  0  0  0  0  0  0  0
  -31.5201  -26.3334   17.0453 O   0  0  0  0  0  0  0  0  0  0  0  0
  -27.2958  -14.4249   20.2718 O   0  0  0  0  0  0  0  0  0  0  0  0
  -28.7413  -27.9692   20.1640 O   0  0  0  0  0  0  0  0  0  1  0  0
  -26.9342  -12.2366   15.2236 F   0  0  0  0  0  0  0  0  0  0  0  0
  -28.5483  -12.0353   19.6688 F   0  0  0  0  0  0  0  0  0  0  0  0
  1  2  1  0  0  0  0
  1  5  2  0  0  0  0
  2  6  2  0  0  0  0
  3  8  2  0  0  0  0
  3 17  1  0  0  0  0
  4  9  1  0  0  0  0
  4 17  2  0  0  0  0
  5 19  1  0  0  0  0
  6 21  1  0  0  0  0
  7 10  2  0  0  0  0
  7 20  1  0  0  0  0
  8 24  1  0  0  0  0
  9 24  2  0  0  0  0
 10 25  1  0  0  0  0
 11 12  2  0  0  0  0
 11 26  1  0  0  0  0
 12 27  1  0  0  0  0
 13 22  1  0  0  0  0
 13 25  2  0  0  0  0
 14 23  1  0  0  0  0
 14 30  2  0  0  0  0
 15 23  2  0  0  0  0
 15 31  1  0  0  0  0
 16 27  2  0  0  0  0
 16 28  1  0  0  0  0
 17 29  1  0  0  0  0
 18 29  1  0  0  0  0
 18 32  2  0  0  0  0
 18 33  1  0  0  0  0
 19 21  2  0  0  0  0
 19 38  1  0  0  0  0
 20 22  2  0  0  0  0
 20 39  1  0  0  0  0
 21 47  1  0  0  0  0
 22 40  1  0  0  0  0
 23 59  1  0  0  0  0
 24 83  1  0  0  0  0
 25 84  1  0  0  0  0
 26 28  2  0  0  0  0
 26 83  1  0  0  0  0
 27 85  1  0  0  0  0
 28 86  1  0  0  0  0
 29 67  2  0  0  0  0
 30 61  1  0  0  0  0
 30 68  1  0  0  0  0
 31 62  1  0  0  0  0
 31 68  2  0  0  0  0
 32 69  1  0  0  0  0
 32 72  1  0  0  0  0
 33 73  1  0  0  0  0
 33 78  2  0  0  0  0
 34 48  1  0  0  0  0
 34 74  1  0  0  0  0
 34 79  2  0  0  0  0
 35 63  1  0  0  0  0
 35 70  1  0  0  0  0
 35 80  2  0  0  0  0
 36 64  1  0  0  0  0
 36 75  1  0  0  0  0
 36 81  2  0  0  0  0
 37 71  1  0  0  0  0
 37 76  1  0  0  0  0
 37 82  2  0  0  0  0
 38 41  1  0  0  0  0
 39 48  1  0  0  0  0
 40 70  1  0  0  0  0
 41 43  1  0  0  0  0
 42 44  1  0  0  0  0
 42 45  1  0  0  0  0
 43 47  1  0  0  0  0
 44 49  1  0  0  0  0
 45 71  1  0  0  0  0
 46 49  1  0  0  0  0
 46 71  1  0  0  0  0
 47 74  1  0  0  0  0
 48 70  1  0  0  0  0
 49 69  1  0  0  0  0
 50 61  1  0  0  0  0
 51 61  1  0  0  0  0
 52 62  1  0  0  0  0
 53 64  1  0  0  0  0
 54 65  1  0  0  0  0
 55 66  1  0  0  0  0
 56 66  1  0  0  0  0
 57 66  1  0  0  0  0
 58 77  1  0  0  0  0
 59 84  1  0  0  0  0
 60 62  1  0  0  0  0
 60 65  1  0  0  0  0
 63 66  1  0  0  0  0
 63 75  1  0  0  0  0
 64 77  1  0  0  0  0
 65 76  1  0  0  0  0
 67 69  1  0  0  0  0
M  CHG  1  77   1
M  ISO  4  37 100  59 101  76 100  84 101
M  END
> <Batch ID>
0089

> <Smiles>
CNC(C)C(=O)NC(C(=O)N1Cc2cc([101O:1][101CH2:1]c3cc(C(C)C)nc(C(C)CC(C)[100NH:0][100C:0](=O)N4CCCC(n5nc(-c6ccc(Oc7ccc(F)cc7F)cc6)c(C(N)=O)c5N)C4)c3)ccc2CC1C(=O)NC1CCCc2ccccc21)C(C)(C)C

> <Shape>
0.190

> <Color>
0.073

> <Negative vol penalty>
0.000

$$$$

  -OEChem-04052319063D

 89 97  0     1  0  0  0  0  0999 V2000
  -27.7247  -31.2379   28.4932 C   0  0  0  0  0  0  0  0  0  0  0  0
  -27.8962  -30.3120   27.4691 C   0  0  0  0  0  0  0  0  0  0  0  0
  -23.7682  -11.7783   23.0501 C   0  0  0  0  0  0  0  0  0  0  0  0
  -23.2886  -13.8406   21.8866 C   0  0  0  0  0  0  0  0  0  0  0  0
  -26.4884  -31.8573   28.6715 C   0  0  0  0  0  0  0  0  0  0  0  0
  -26.8312  -30.0042   26.6234 C   0  0  0  0  0  0  0  0  0  0  0  0
  -27.1396  -28.6449   20.6599 C   0  0  0  0  0  0  0  0  0  0  0  0
  -22.9677  -12.1926   24.1145 C   0  0  0  0  0  0  0  0  0  0  0  0
  -22.4880  -14.2549   22.9510 C   0  0  0  0  0  0  0  0  0  0  0  0
  -27.1362  -27.4316   19.9730 C   0  0  0  0  0  0  0  0  0  0  0  0
  -22.9276  -15.5724   26.0335 C   0  0  0  0  0  0  0  0  0  0  0  0
  -23.0774  -16.8836   26.4850 C   0  0  0  0  0  0  0  0  0  0  0  0
  -24.7604  -27.6479   19.6148 C   0  0  0  0  0  0  0  0  0  0  0  0
  -27.6344  -19.2630   20.7668 C   0  0  0  0  0  0  0  0  0  0  0  0
  -28.7450  -19.2999   18.6338 C   0  0  0  0  0  0  0  0  0  0  0  0
  -20.7585  -17.3255   25.9706 C   0  0  0  0  0  0  0  0  0  0  0  0
  -23.9287  -12.6023   21.9361 C   0  0  0  0  0  0  0  0  0  0  0  0
  -24.3529  -11.4426   19.7038 C   0  0  0  0  0  0  0  0  0  0  0  0
  -25.4104  -31.5641   27.8215 C   0  0  0  0  0  0  0  0  0  0  0  0
  -25.9495  -29.3646   20.8392 C   0  0  0  0  0  0  0  0  0  0  0  0
  -25.5789  -30.6193   26.7913 C   0  0  0  0  0  0  0  0  0  0  0  0
  -24.7518  -28.8713   20.3022 C   0  0  0  0  0  0  0  0  0  0  0  0
  -27.7597  -19.7875   19.4852 C   0  0  0  0  0  0  0  0  0  0  0  0
  -22.3275  -13.4309   24.0650 C   0  0  0  0  0  0  0  0  0  0  0  0
  -25.9460  -26.9315   19.4529 C   0  0  0  0  0  0  0  0  0  0  0  0
  -21.6933  -15.1377   25.5505 C   0  0  0  0  0  0  0  0  0  0  0  0
  -21.9928  -17.7602   26.4536 C   0  0  0  0  0  0  0  0  0  0  0  0
  -20.6088  -16.0142   25.5191 C   0  0  0  0  0  0  0  0  0  0  0  0
  -24.7560  -12.1751   20.8364 C   0  0  0  0  0  0  0  0  0  0  0  0
  -28.5121  -18.2601   21.1458 C   0  0  0  0  0  0  0  0  0  0  0  0
  -29.5731  -18.2955   19.1083 C   0  0  0  0  0  0  0  0  0  0  0  0
  -25.5010  -11.2937   18.9648 C   0  0  0  0  0  0  0  0  0  0  0  0
  -23.0566  -10.9417   19.3513 C   0  0  0  0  0  0  0  0  0  0  0  0
  -24.2508  -30.2989   23.3582 C   0  0  0  0  0  0  0  0  0  0  0  0
  -22.5053  -31.8587   21.1126 C   0  0  0  0  0  0  0  0  0  0  0  0
  -21.5131  -32.0838   17.8551 C   0  0  0  0  0  0  0  0  0  0  0  0
  -30.5756  -14.4544   18.6333 C   0  0  0  0  0  0  0  0  0  0  0  0
  -24.0796  -32.2240   28.0828 C   0  0  0  0  0  0  0  0  0  0  0  0
  -25.9746  -30.6849   21.5593 C   0  0  0  0  0  0  0  0  0  0  0  0
  -23.4507  -29.6155   20.4497 C   0  0  0  0  0  0  0  0  0  0  0  0
  -23.1079  -32.1209   26.9100 C   0  0  0  0  0  0  0  0  0  0  0  0
  -30.2523  -11.0029   19.4456 C   0  0  0  0  0  0  0  0  0  0  0  0
  -23.0771  -30.6961   26.3659 C   0  0  0  0  0  0  0  0  0  0  0  0
  -28.7707  -10.8459   19.7919 C   0  0  0  0  0  0  0  0  0  0  0  0
  -30.8025  -12.3475   19.9163 C   0  0  0  0  0  0  0  0  0  0  0  0
  -28.5618  -13.3668   19.7988 C   0  0  0  0  0  0  0  0  0  0  0  0
  -24.4545  -30.2774   25.8379 C   0  0  1  0  0  0  0  0  0  0  0  0
  -24.6156  -31.0811   22.1282 C   0  0  1  0  0  0  0  0  0  0  0  0
  -27.9479  -12.0496   19.2945 C   0  0  2  0  0  0  0  0  0  0  0  0
  -20.0530  -33.4399   16.3298 C   0  0  0  0  0  0  0  0  0  0  0  0
  -20.0350  -30.4790   22.2546 C   0  0  0  0  0  0  0  0  0  0  0  0
  -18.8076  -31.0983   20.1622 C   0  0  0  0  0  0  0  0  0  0  0  0
  -19.7032  -32.8843   21.6556 C   0  0  0  0  0  0  0  0  0  0  0  0
  -23.8157  -32.8951   16.1821 C   0  0  0  0  0  0  0  0  0  0  0  0
  -28.5269  -14.9474   25.9773 C   0  0  0  0  0  0  0  0  0  0  0  0
  -29.3464  -14.4832   23.6722 C   0  0  0  0  0  0  0  0  0  0  0  0
  -26.8301  -20.8799   19.0201 C   0  0  0  0  0  0  0  0  0  0  0  0
  -28.4060  -17.6724   22.5133 C   0  0  0  0  0  0  0  0  0  0  0  0
  -30.6426  -17.7500   18.2222 C   0  0  0  0  0  0  0  0  0  0  0  0
  -27.3429  -22.2947   19.3110 C   0  0  0  0  0  0  0  0  0  0  0  0
  -27.4649  -16.4565   22.6126 C   0  0  0  0  0  0  0  0  0  0  0  0
  -26.3527  -23.3862   18.9022 C   0  0  0  0  0  0  0  0  0  0  0  0
  -30.1871  -16.5572   17.3738 C   0  0  0  0  0  0  0  0  0  0  0  0
  -27.3069  -15.8708   24.0124 C   0  0  0  0  0  0  0  0  0  0  0  0
  -26.9122  -24.7770   19.1692 C   0  0  0  0  0  0  0  0  0  1  0  0
  -21.3071  -31.5151   20.2610 C   0  0  1  0  0  0  0  0  0  0  0  0
  -21.4516  -33.2621   16.8999 C   0  0  2  0  0  0  0  0  0  0  0  0
  -19.9872  -31.4790   21.0821 C   0  0  0  0  0  0  0  0  0  0  0  0
  -26.0585  -12.4708   20.8226 N   0  0  0  0  0  0  0  0  0  0  0  0
  -29.4817  -17.7611   20.3468 N   0  0  0  0  0  0  0  0  0  0  0  0
  -26.4838  -11.9213   19.6723 N   0  0  0  0  0  0  0  0  0  0  0  0
  -23.5257  -30.8987   21.1674 N   0  0  0  0  0  0  0  0  0  0  0  0
  -29.9783  -13.4471   19.4089 N   0  0  0  0  0  0  0  0  0  0  0  0
  -25.7557  -10.6884   17.7853 N   0  0  0  0  0  0  0  0  0  0  0  0
  -21.9867  -11.1841   20.2236 N   0  0  0  0  0  0  0  0  0  0  0  0
  -24.6970  -30.8643   24.5374 N   0  0  0  0  0  0  0  0  0  0  0  0
  -21.3002  -32.4730   19.1606 N   0  0  0  0  0  0  0  0  0  0  0  0
  -29.7220  -15.4558   18.1871 N   0  0  0  0  0  0  0  0  0  0  0  0
  -22.3988  -33.0606   15.7672 N   0  3  0  0  0  0  0  0  0  0  0  0
  -28.6214  -15.4644   24.5618 N   0  3  0  0  0  0  0  0  0  0  0  0
  -22.8563  -10.2841   18.3021 O   0  0  0  0  0  0  0  0  0  0  0  0
  -23.6106  -29.2601   23.2457 O   0  0  0  0  0  0  0  0  0  0  0  0
  -22.5379  -32.9420   21.7016 O   0  0  0  0  0  0  0  0  0  0  0  0
  -21.7248  -30.9327   17.4800 O   0  0  0  0  0  0  0  0  0  0  0  0
  -31.7794  -14.4579   18.3544 O   0  0  0  0  0  0  0  0  0  0  0  0
  -21.5461  -13.8354   25.1034 O   0  0  0  0  0  0  0  0  0  0  0  0
  -25.9398  -25.7473   18.7826 O   0  0  0  0  0  0  0  0  0  1  0  0
  -22.1363  -19.0189   26.8886 F   0  0  0  0  0  0  0  0  0  0  0  0
  -19.4202  -15.6020   25.0573 F   0  0  0  0  0  0  0  0  0  0  0  0
  1  2  1  0  0  0  0
  1  5  2  0  0  0  0
  2  6  2  0  0  0  0
  3  8  2  0  0  0  0
  3 17  1  0  0  0  0
  4  9  1  0  0  0  0
  4 17  2  0  0  0  0
  5 19  1  0  0  0  0
  6 21  1  0  0  0  0
  7 10  2  0  0  0  0
  7 20  1  0  0  0  0
  8 24  1  0  0  0  0
  9 24  2  0  0  0  0
 10 25  1  0  0  0  0
 11 12  2  0  0  0  0
 11 26  1  0  0  0  0
 12 27  1  0  0  0  0
 13 22  1  0  0  0  0
 13 25  2  0  0  0  0
 14 23  1  0  0  0  0
 14 30  2  0  0  0  0
 15 23  2  0  0  0  0
 15 31  1  0  0  0  0
 16 27  2  0  0  0  0
 16 28  1  0  0  0  0
 17 29  1  0  0  0  0
 18 29  1  0  0  0  0
 18 32  2  0  0  0  0
 18 33  1  0  0  0  0
 19 21  2  0  0  0  0
 19 38  1  0  0  0  0
 20 22  2  0  0  0  0
 20 39  1  0  0  0  0
 21 47  1  0  0  0  0
 22 40  1  0  0  0  0
 23 57  1  0  0  0  0
 24 86  1  0  0  0  0
 25 87  1  0  0  0  0
 26 28  2  0  0  0  0
 26 86  1  0  0  0  0
 27 88  1  0  0  0  0
 28 89  1  0  0  0  0
 29 69  2  0  0  0  0
 30 58  1  0  0  0  0
 30 70  1  0  0  0  0
 31 59  1  0  0  0  0
 31 70  2  0  0  0  0
 32 71  1  0  0  0  0
 32 74  1  0  0  0  0
 33 75  1  0  0  0  0
 33 81  2  0  0  0  0
 34 48  1  0  0  0  0
 34 76  1  0  0  0  0
 34 82  2  0  0  0  0
 35 66  1  0  0  0  0
 35 72  1  0  0  0  0
 35 83  2  0  0  0  0
 36 67  1  0  0  0  0
 36 77  1  0  0  0  0
 36 84  2  0  0  0  0
 37 73  1  0  0  0  0
 37 78  1  0  0  0  0
 37 85  2  0  0  0  0
 38 41  1  0  0  0  0
 39 48  1  0  0  0  0
 40 72  1  0  0  0  0
 41 43  1  0  0  0  0
 42 44  1  0  0  0  0
 42 45  1  0  0  0  0
 43 47  1  0  0  0  0
 44 49  1  0  0  0  0
 45 73  1  0  0  0  0
 46 49  1  0  0  0  0
 46 73  1  0  0  0  0
 47 76  1  0  0  0  0
 48 72  1  0  0  0  0
 49 71  1  0  0  0  0
 50 67  1  0  0  0  0
 51 68  1  0  0  0  0
 52 68  1  0  0  0  0
 53 68  1  0  0  0  0
 54 79  1  0  0  0  0
 55 80  1  0  0  0  0
 56 80  1  0  0  0  0
 57 60  1  0  0  0  0
 58 61  1  0  0  0  0
 59 63  1  0  0  0  0
 60 62  1  0  0  0  0
 61 64  1  0  0  0  0
 62 65  1  0  0  0  0
 63 78  1  0  0  0  0
 64 80  1  0  0  0  0
 65 87  1  0  0  0  0
 66 68  1  0  0  0  0
 66 77  1  0  0  0  0
 67 79  1  0  0  0  0
 69 71  1  0  0  0  0
M  CHG  2  79   1  80   1
M  ISO  4  37 100  65 101  78 100  87 101
M  END
> <Batch ID>
0089

> <Smiles>
CNC(C)C(=O)NC(C(=O)N1Cc2cc([101O:1][101CH2:1]CCCc3cc(CCCN(C)C)nc(CC[100NH:0][100C:0](=O)N4CCCC(n5nc(-c6ccc(Oc7ccc(F)cc7F)cc6)c(C(N)=O)c5N)C4)c3)ccc2CC1C(=O)NC1CCCc2ccccc21)C(C)(C)C

> <Shape>
0.231

> <Color>
0.090

> <Negative vol penalty>
0.000

$$$$

  -OEChem-04052319063D

 88 96  0     1  0  0  0  0  0999 V2000
  -30.8448  -24.6119   16.5963 C   0  0  0  0  0  0  0  0  0  0  0  0
  -30.3240  -24.2176   17.8246 C   0  0  0  0  0  0  0  0  0  0  0  0
  -23.9924  -12.4967   19.2699 C   0  0  0  0  0  0  0  0  0  0  0  0
  -25.4807  -12.2117   21.1516 C   0  0  0  0  0  0  0  0  0  0  0  0
  -30.6941  -25.9299   16.1673 C   0  0  0  0  0  0  0  0  0  0  0  0
  -29.6531  -25.1413   18.6251 C   0  0  0  0  0  0  0  0  0  0  0  0
  -25.3649  -23.2756   20.5681 C   0  0  0  0  0  0  0  0  0  0  0  0
  -24.1685  -11.1561   18.9275 C   0  0  0  0  0  0  0  0  0  0  0  0
  -25.6568  -10.8710   20.8092 C   0  0  0  0  0  0  0  0  0  0  0  0
  -25.4811  -22.4213   21.6638 C   0  0  0  0  0  0  0  0  0  0  0  0
  -23.9535   -7.9716   21.1451 C   0  0  0  0  0  0  0  0  0  0  0  0
  -23.8931   -7.0289   22.1713 C   0  0  0  0  0  0  0  0  0  0  0  0
  -24.9202  -24.2462   23.1384 C   0  0  0  0  0  0  0  0  0  0  0  0
  -26.5576  -21.3452   27.0462 C   0  0  0  0  0  0  0  0  0  0  0  0
  -26.1537   -6.3389   21.6705 C   0  0  0  0  0  0  0  0  0  0  0  0
  -24.6485  -13.0245   20.3820 C   0  0  0  0  0  0  0  0  0  0  0  0
  -23.4878  -14.9469   21.5923 C   0  0  0  0  0  0  0  0  0  0  0  0
  -30.0125  -26.8680   16.9587 C   0  0  0  0  0  0  0  0  0  0  0  0
  -25.0356  -24.6264   20.7506 C   0  0  0  0  0  0  0  0  0  0  0  0
  -29.4943  -26.4735   18.2069 C   0  0  0  0  0  0  0  0  0  0  0  0
  -24.7979  -25.1149   22.0432 C   0  0  0  0  0  0  0  0  0  0  0  0
  -27.5360  -21.8969   27.8657 C   0  0  0  0  0  0  0  0  0  0  0  0
  -26.9294  -20.5587   25.9616 C   0  0  0  0  0  0  0  0  0  0  0  0
  -25.0007  -10.3432   19.6972 C   0  0  0  0  0  0  0  0  0  0  0  0
  -25.2616  -22.9072   22.9494 C   0  0  0  0  0  0  0  0  0  0  0  0
  -25.1140   -8.0979   20.3815 C   0  0  0  0  0  0  0  0  0  0  0  0
  -24.9932   -6.2125   22.4341 C   0  0  0  0  0  0  0  0  0  0  0  0
  -26.2140   -7.2816   20.6442 C   0  0  0  0  0  0  0  0  0  0  0  0
  -24.4674  -14.4095   20.7359 C   0  0  0  0  0  0  0  0  0  0  0  0
  -28.8617  -21.6341   27.5602 C   0  0  0  0  0  0  0  0  0  0  0  0
  -28.2822  -20.3560   25.7412 C   0  0  0  0  0  0  0  0  0  0  0  0
  -23.7403  -16.2970   21.5982 C   0  0  0  0  0  0  0  0  0  0  0  0
  -22.4432  -14.2850   22.3177 C   0  0  0  0  0  0  0  0  0  0  0  0
  -26.4837  -27.3901   20.1432 C   0  0  0  0  0  0  0  0  0  0  0  0
  -23.6489  -28.6401   21.1044 C   0  0  0  0  0  0  0  0  0  0  0  0
  -20.7765  -28.2581   22.9073 C   0  0  0  0  0  0  0  0  0  0  0  0
  -28.6740  -19.5270   20.5606 C   0  0  0  0  0  0  0  0  0  0  0  0
  -29.9159  -28.2929   16.4741 C   0  0  0  0  0  0  0  0  0  0  0  0
  -24.8879  -25.5286   19.5562 C   0  0  0  0  0  0  0  0  0  0  0  0
  -24.4220  -26.5521   22.2912 C   0  0  0  0  0  0  0  0  0  0  0  0
  -28.8655  -29.1178   17.2134 C   0  0  0  0  0  0  0  0  0  0  0  0
  -25.5540  -19.7791   18.8639 C   0  0  0  0  0  0  0  0  0  0  0  0
  -28.9844  -28.9072   18.7195 C   0  0  0  0  0  0  0  0  0  0  0  0
  -24.8334  -18.4800   19.2285 C   0  0  0  0  0  0  0  0  0  0  0  0
  -27.0550  -19.5611   18.6860 C   0  0  0  0  0  0  0  0  0  0  0  0
  -27.0049  -17.6103   20.1912 C   0  0  0  0  0  0  0  0  0  0  0  0
  -28.7385  -27.4403   19.0926 C   0  0  1  0  0  0  0  0  0  0  0  0
  -25.0516  -27.0060   19.8995 C   0  0  1  0  0  0  0  0  0  0  0  0
  -25.4969  -17.7905   20.4358 C   0  0  2  0  0  0  0  0  0  0  0  0
  -29.9560  -22.2007   28.4043 C   0  0  0  0  0  0  0  0  0  0  0  0
  -18.6675  -29.4661   23.5319 C   0  0  0  0  0  0  0  0  0  0  0  0
  -27.1635  -26.6229   29.5321 C   0  0  0  0  0  0  0  0  0  0  0  0
  -25.4592  -24.9638   30.3088 C   0  0  0  0  0  0  0  0  0  0  0  0
  -25.2171  -30.3472   23.0885 C   0  0  0  0  0  0  0  0  0  0  0  0
  -23.0693  -30.7943   24.2947 C   0  0  0  0  0  0  0  0  0  0  0  0
  -23.3497  -31.5426   21.9317 C   0  0  0  0  0  0  0  0  0  0  0  0
  -19.0803  -26.1994   21.6254 C   0  0  0  0  0  0  0  0  0  0  0  0
  -27.1442  -22.7403   29.0294 C   0  0  0  0  0  0  0  0  0  0  0  0
  -25.8722  -19.9571   25.0679 C   0  0  0  0  0  0  0  0  0  0  0  0
  -28.7391  -19.5187   24.5916 C   0  0  0  0  0  0  0  0  0  0  0  0
  -27.3454  -24.2421   28.7499 C   0  0  0  0  0  0  0  0  0  0  0  0
  -29.7171  -20.2292   23.6367 C   0  0  0  0  0  0  0  0  0  0  0  0
  -30.2242  -19.3559   22.4911 C   0  0  0  0  0  0  0  0  0  0  0  0
  -25.7219  -20.7173   23.7546 C   0  0  0  0  0  0  0  0  0  1  0  0
  -23.0676  -29.0793   22.4266 C   0  0  1  0  0  0  0  0  0  0  0  0
  -19.3223  -28.5071   22.5499 C   0  0  2  0  0  0  0  0  0  0  0  0
  -26.9233  -25.1597   29.9124 C   0  0  0  0  0  0  0  0  0  0  0  0
  -23.6849  -30.4142   22.9312 C   0  0  0  0  0  0  0  0  0  0  0  0
  -25.2813  -15.3420   20.2340 N   0  0  0  0  0  0  0  0  0  0  0  0
  -29.2614  -20.8751   26.5153 N   0  0  0  0  0  0  0  0  0  0  0  0
  -24.8137  -16.4791   20.7766 N   0  0  0  0  0  0  0  0  0  0  0  0
  -24.2961  -27.3964   21.0916 N   0  0  0  0  0  0  0  0  0  0  0  0
  -27.6233  -18.9051   19.8661 N   0  0  0  0  0  0  0  0  0  0  0  0
  -23.1466  -17.3343   22.2258 N   0  0  0  0  0  0  0  0  0  0  0  0
  -22.3255  -12.8935   22.1991 N   0  0  0  0  0  0  0  0  0  0  0  0
  -27.3221  -27.1442   19.0726 N   0  0  0  0  0  0  0  0  0  0  0  0
  -21.6210  -29.1219   22.2425 N   0  0  0  0  0  0  0  0  0  0  0  0
  -29.1502  -18.8410   21.6711 N   0  0  0  0  0  0  0  0  0  0  0  0
  -18.5592  -27.2271   22.5632 N   0  3  0  0  0  0  0  0  0  0  0  0
  -21.6277  -14.9110   23.0366 O   0  0  0  0  0  0  0  0  0  0  0  0
  -26.8040  -27.8749   21.2221 O   0  0  0  0  0  0  0  0  0  0  0  0
  -23.5269  -29.3702   20.1177 O   0  0  0  0  0  0  0  0  0  0  0  0
  -21.1279  -27.3871   23.7000 O   0  0  0  0  0  0  0  0  0  0  0  0
  -29.1487  -20.6157   20.2195 O   0  0  0  0  0  0  0  0  0  0  0  0
  -25.1727   -9.0349   19.3635 O   0  0  0  0  0  0  0  0  0  0  0  0
  -25.3750  -22.0757   24.0207 O   0  0  0  0  0  0  0  0  0  1  0  0
  -24.9355   -5.3083   23.4206 F   0  0  0  0  0  0  0  0  0  0  0  0
  -27.3321   -7.3991   19.9148 F   0  0  0  0  0  0  0  0  0  0  0  0
  1  2  1  0  0  0  0
  1  5  2  0  0  0  0
  2  6  2  0  0  0  0
  3  8  2  0  0  0  0
  3 16  1  0  0  0  0
  4  9  1  0  0  0  0
  4 16  2  0  0  0  0
  5 18  1  0  0  0  0
  6 20  1  0  0  0  0
  7 10  2  0  0  0  0
  7 19  1  0  0  0  0
  8 24  1  0  0  0  0
  9 24  2  0  0  0  0
 10 25  1  0  0  0  0
 11 12  2  0  0  0  0
 11 26  1  0  0  0  0
 12 27  1  0  0  0  0
 13 21  1  0  0  0  0
 13 25  2  0  0  0  0
 14 22  2  0  0  0  0
 14 23  1  0  0  0  0
 15 27  2  0  0  0  0
 15 28  1  0  0  0  0
 16 29  1  0  0  0  0
 17 29  1  0  0  0  0
 17 32  2  0  0  0  0
 17 33  1  0  0  0  0
 18 20  2  0  0  0  0
 18 38  1  0  0  0  0
 19 21  2  0  0  0  0
 19 39  1  0  0  0  0
 20 47  1  0  0  0  0
 21 40  1  0  0  0  0
 22 30  1  0  0  0  0
 22 58  1  0  0  0  0
 23 31  2  0  0  0  0
 23 59  1  0  0  0  0
 24 85  1  0  0  0  0
 25 86  1  0  0  0  0
 26 28  2  0  0  0  0
 26 85  1  0  0  0  0
 27 87  1  0  0  0  0
 28 88  1  0  0  0  0
 29 69  2  0  0  0  0
 30 50  1  0  0  0  0
 30 70  2  0  0  0  0
 31 60  1  0  0  0  0
 31 70  1  0  0  0  0
 32 71  1  0  0  0  0
 32 74  1  0  0  0  0
 33 75  1  0  0  0  0
 33 80  2  0  0  0  0
 34 48  1  0  0  0  0
 34 76  1  0  0  0  0
 34 81  2  0  0  0  0
 35 65  1  0  0  0  0
 35 72  1  0  0  0  0
 35 82  2  0  0  0  0
 36 66  1  0  0  0  0
 36 77  1  0  0  0  0
 36 83  2  0  0  0  0
 37 73  1  0  0  0  0
 37 78  1  0  0  0  0
 37 84  2  0  0  0  0
 38 41  1  0  0  0  0
 39 48  1  0  0  0  0
 40 72  1  0  0  0  0
 41 43  1  0  0  0  0
 42 44  1  0  0  0  0
 42 45  1  0  0  0  0
 43 47  1  0  0  0  0
 44 49  1  0  0  0  0
 45 73  1  0  0  0  0
 46 49  1  0  0  0  0
 46 73  1  0  0  0  0
 47 76  1  0  0  0  0
 48 72  1  0  0  0  0
 49 71  1  0  0  0  0
 51 66  1  0  0  0  0
 52 67  1  0  0  0  0
 53 67  1  0  0  0  0
 54 68  1  0  0  0  0
 55 68  1  0  0  0  0
 56 68  1  0  0  0  0
 57 79  1  0  0  0  0
 58 61  1  0  0  0  0
 59 64  1  0  0  0  0
 60 62  1  0  0  0  0
 61 67  1  0  0  0  0
 62 63  1  0  0  0  0
 63 78  1  0  0  0  0
 64 86  1  0  0  0  0
 65 68  1  0  0  0  0
 65 77  1  0  0  0  0
 66 79  1  0  0  0  0
 69 71  1  0  0  0  0
M  CHG  1  79   1
M  ISO  4  37 100  64 101  78 100  86 101
M  END
> <Batch ID>
0089

> <Smiles>
CNC(C)C(=O)NC(C(=O)N1Cc2cc([101O:1][101CH2:1]Cc3cc(CCC(C)C)c(C)nc3CCC[100NH:0][100C:0](=O)N3CCCC(n4nc(-c5ccc(Oc6ccc(F)cc6F)cc5)c(C(N)=O)c4N)C3)ccc2CC1C(=O)NC1CCCc2ccccc21)C(C)(C)C

> <Shape>
0.208

> <Color>
0.073

> <Negative vol penalty>
0.000

$$$$

  -OEChem-04052319063D

 80 88  0     1  0  0  0  0  0999 V2000
  -24.2334  -18.4447   25.9513 C   0  0  0  0  0  0  0  0  0  0  0  0
  -25.0251  -19.5736   25.7733 C   0  0  0  0  0  0  0  0  0  0  0  0
  -25.4743  -13.3253   21.8595 C   0  0  0  0  0  0  0  0  0  0  0  0
  -26.3932  -13.3114   19.6251 C   0  0  0  0  0  0  0  0  0  0  0  0
  -23.0621  -18.2958   25.2117 C   0  0  0  0  0  0  0  0  0  0  0  0
  -24.6397  -20.5596   24.8643 C   0  0  0  0  0  0  0  0  0  0  0  0
  -27.4864  -25.6488   23.0971 C   0  0  0  0  0  0  0  0  0  0  0  0
  -24.4597  -12.4612   21.4476 C   0  0  0  0  0  0  0  0  0  0  0  0
  -25.3787  -12.4473   19.2132 C   0  0  0  0  0  0  0  0  0  0  0  0
  -28.3669  -26.0382   22.0886 C   0  0  0  0  0  0  0  0  0  0  0  0
  -24.0991   -9.1555   20.8353 C   0  0  0  0  0  0  0  0  0  0  0  0
  -23.7957   -8.0722   21.6599 C   0  0  0  0  0  0  0  0  0  0  0  0
  -26.5052  -26.8411   20.7815 C   0  0  0  0  0  0  0  0  0  0  0  0
  -21.5335   -8.8864   21.8974 C   0  0  0  0  0  0  0  0  0  0  0  0
  -31.1762  -25.1927   18.6800 C   0  0  0  0  0  0  0  0  0  0  0  0
  -26.4410  -13.7504   20.9482 C   0  0  0  0  0  0  0  0  0  0  0  0
  -28.7485  -14.2898   21.8929 C   0  0  0  0  0  0  0  0  0  0  0  0
  -22.6693  -19.2750   24.2844 C   0  0  0  0  0  0  0  0  0  0  0  0
  -26.1054  -25.8430   22.9503 C   0  0  0  0  0  0  0  0  0  0  0  0
  -23.4486  -20.4390   24.1258 C   0  0  0  0  0  0  0  0  0  0  0  0
  -25.6095  -26.4556   21.7906 C   0  0  0  0  0  0  0  0  0  0  0  0
  -24.4119  -12.0222   20.1245 C   0  0  0  0  0  0  0  0  0  0  0  0
  -27.8761  -26.6318   20.9294 C   0  0  0  0  0  0  0  0  0  0  0  0
  -23.1197  -10.1043   20.5418 C   0  0  0  0  0  0  0  0  0  0  0  0
  -22.5129   -7.9376   22.1909 C   0  0  0  0  0  0  0  0  0  0  0  0
  -21.8369   -9.9698   21.0728 C   0  0  0  0  0  0  0  0  0  0  0  0
  -27.4890  -14.6435   21.3730 C   0  0  0  0  0  0  0  0  0  0  0  0
  -30.1026  -25.4590   17.8678 C   0  0  0  0  0  0  0  0  0  0  0  0
  -29.3678  -15.4907   22.1393 C   0  0  0  0  0  0  0  0  0  0  0  0
  -29.3085  -12.9917   22.1318 C   0  0  0  0  0  0  0  0  0  0  0  0
  -23.5710  -23.9282   22.8322 C   0  0  0  0  0  0  0  0  0  0  0  0
  -21.9397  -26.7319   22.8318 C   0  0  0  0  0  0  0  0  0  0  0  0
  -21.9316  -30.0791   22.1658 C   0  0  0  0  0  0  0  0  0  0  0  0
  -30.7702  -20.5346   20.5457 C   0  0  0  0  0  0  0  0  0  0  0  0
  -21.3880  -19.0668   23.5162 C   0  0  0  0  0  0  0  0  0  0  0  0
  -25.1712  -25.4417   24.0588 C   0  0  0  0  0  0  0  0  0  0  0  0
  -24.1374  -26.7048   21.5929 C   0  0  0  0  0  0  0  0  0  0  0  0
  -21.2944  -19.9391   22.2686 C   0  0  0  0  0  0  0  0  0  0  0  0
  -27.5343  -20.2056   22.1327 C   0  0  0  0  0  0  0  0  0  0  0  0
  -21.6214  -21.3832   22.6183 C   0  0  0  0  0  0  0  0  0  0  0  0
  -27.3409  -18.6882   22.1173 C   0  0  0  0  0  0  0  0  0  0  0  0
  -28.2266  -20.6875   20.8612 C   0  0  0  0  0  0  0  0  0  0  0  0
  -29.3415  -18.5095   20.5663 C   0  0  0  0  0  0  0  0  0  0  0  0
  -23.0653  -21.5099   23.1206 C   0  0  1  0  0  0  0  0  0  0  0  0
  -23.7392  -25.2193   23.5822 C   0  0  1  0  0  0  0  0  0  0  0  0
  -28.6668  -17.9571   21.8351 C   0  0  2  0  0  0  0  0  0  0  0  0
  -20.4414  -32.0971   22.2317 C   0  0  0  0  0  0  0  0  0  0  0  0
  -20.5117  -25.7564   20.3180 C   0  0  0  0  0  0  0  0  0  0  0  0
  -19.7784  -28.1142   19.9038 C   0  0  0  0  0  0  0  0  0  0  0  0
  -19.0388  -26.9241   21.9677 C   0  0  0  0  0  0  0  0  0  0  0  0
  -23.7007  -31.4664   24.0905 C   0  0  0  0  0  0  0  0  0  0  0  0
  -29.3910  -26.7692   17.6324 C   0  0  0  0  0  0  0  0  0  0  0  0
  -32.4063  -23.0415   19.1097 C   0  0  0  0  0  0  0  0  0  0  0  0
  -32.0699  -22.6483   20.5458 C   0  0  0  0  0  0  0  0  0  0  0  0
  -28.2372  -26.9855   18.6055 C   0  0  0  0  0  0  0  0  0  1  0  0
  -21.4432  -27.6798   21.7668 C   0  0  1  0  0  0  0  0  0  0  0  0
  -21.4684  -31.2685   22.9876 C   0  0  2  0  0  0  0  0  0  0  0  0
  -20.2206  -27.1123   20.9917 C   0  0  0  0  0  0  0  0  0  0  0  0
  -27.3168  -15.9656   21.2934 N   0  0  0  0  0  0  0  0  0  0  0  0
  -29.7105  -24.3128   17.2339 N   0  0  0  0  0  0  0  0  0  0  0  0
  -30.5136  -23.3317   17.6308 N   0  0  0  0  0  0  0  0  0  0  0  0
  -31.3916  -23.8613   18.4979 N   0  0  0  0  0  0  0  0  0  0  0  0
  -28.4762  -16.4532   21.7668 N   0  0  0  0  0  0  0  0  0  0  0  0
  -23.2637  -26.2891   22.7026 N   0  0  0  0  0  0  0  0  0  0  0  0
  -29.4910  -19.9655   20.6607 N   0  0  0  0  0  0  0  0  0  0  0  0
  -30.5825  -15.8067   22.6362 N   0  0  0  0  0  0  0  0  0  0  0  0
  -28.5366  -11.8637   21.8221 N   0  0  0  0  0  0  0  0  0  0  0  0
  -23.2701  -22.8455   23.6364 N   0  0  0  0  0  0  0  0  0  0  0  0
  -21.1882  -28.9500   22.4376 N   0  0  0  0  0  0  0  0  0  0  0  0
  -30.8242  -21.9199   20.6391 N   0  0  0  0  0  0  0  0  0  0  0  0
  -22.6243  -32.1465   23.3251 N   0  3  0  0  0  0  0  0  0  0  0  0
  -30.4531  -12.8369   22.6211 O   0  0  0  0  0  0  0  0  0  0  0  0
  -23.7030  -23.9155   21.6140 O   0  0  0  0  0  0  0  0  0  0  0  0
  -21.1830  -26.4024   23.7486 O   0  0  0  0  0  0  0  0  0  0  0  0
  -22.8576  -30.1459   21.3605 O   0  0  0  0  0  0  0  0  0  0  0  0
  -31.7902  -19.8575   20.3775 O   0  0  0  0  0  0  0  0  0  0  0  0
  -23.4222  -11.1789   19.7223 O   0  0  0  0  0  0  0  0  0  0  0  0
  -28.7332  -27.0123   19.9433 O   0  0  0  0  0  0  0  0  0  1  0  0
  -22.2213   -6.8964   22.9815 F   0  0  0  0  0  0  0  0  0  0  0  0
  -20.8915  -10.8775   20.7934 F   0  0  0  0  0  0  0  0  0  0  0  0
  1  2  1  0  0  0  0
  1  5  2  0  0  0  0
  2  6  2  0  0  0  0
  3  8  2  0  0  0  0
  3 16  1  0  0  0  0
  4  9  1  0  0  0  0
  4 16  2  0  0  0  0
  5 18  1  0  0  0  0
  6 20  1  0  0  0  0
  7 10  2  0  0  0  0
  7 19  1  0  0  0  0
  8 22  1  0  0  0  0
  9 22  2  0  0  0  0
 10 23  1  0  0  0  0
 11 12  2  0  0  0  0
 11 24  1  0  0  0  0
 12 25  1  0  0  0  0
 13 21  1  0  0  0  0
 13 23  2  0  0  0  0
 14 25  2  0  0  0  0
 14 26  1  0  0  0  0
 15 28  2  0  0  0  0
 15 62  1  0  0  0  0
 16 27  1  0  0  0  0
 17 27  1  0  0  0  0
 17 29  2  0  0  0  0
 17 30  1  0  0  0  0
 18 20  2  0  0  0  0
 18 35  1  0  0  0  0
 19 21  2  0  0  0  0
 19 36  1  0  0  0  0
 20 44  1  0  0  0  0
 21 37  1  0  0  0  0
 22 77  1  0  0  0  0
 23 78  1  0  0  0  0
 24 26  2  0  0  0  0
 24 77  1  0  0  0  0
 25 79  1  0  0  0  0
 26 80  1  0  0  0  0
 27 59  2  0  0  0  0
 28 52  1  0  0  0  0
 28 60  1  0  0  0  0
 29 63  1  0  0  0  0
 29 66  1  0  0  0  0
 30 67  1  0  0  0  0
 30 72  2  0  0  0  0
 31 45  1  0  0  0  0
 31 68  1  0  0  0  0
 31 73  2  0  0  0  0
 32 56  1  0  0  0  0
 32 64  1  0  0  0  0
 32 74  2  0  0  0  0
 33 57  1  0  0  0  0
 33 69  1  0  0  0  0
 33 75  2  0  0  0  0
 34 65  1  0  0  0  0
 34 70  1  0  0  0  0
 34 76  2  0  0  0  0
 35 38  1  0  0  0  0
 36 45  1  0  0  0  0
 37 64  1  0  0  0  0
 38 40  1  0  0  0  0
 39 41  1  0  0  0  0
 39 42  1  0  0  0  0
 40 44  1  0  0  0  0
 41 46  1  0  0  0  0
 42 65  1  0  0  0  0
 43 46  1  0  0  0  0
 43 65  1  0  0  0  0
 44 68  1  0  0  0  0
 45 64  1  0  0  0  0
 46 63  1  0  0  0  0
 47 57  1  0  0  0  0
 48 58  1  0  0  0  0
 49 58  1  0  0  0  0
 50 58  1  0  0  0  0
 51 71  1  0  0  0  0
 52 55  1  0  0  0  0
 53 54  1  0  0  0  0
 53 62  1  0  0  0  0
 54 70  1  0  0  0  0
 55 78  1  0  0  0  0
 56 58  1  0  0  0  0
 56 69  1  0  0  0  0
 57 71  1  0  0  0  0
 59 63  1  0  0  0  0
 60 61  2  0  0  0  0
 61 62  1  0  0  0  0
M  CHG  1  71   1
M  ISO  4  34 100  55 101  70 100  78 101
M  END
> <Batch ID>
0089

> <Smiles>
CNC(C)C(=O)NC(C(=O)N1Cc2cc([101O:1][101CH2:1]Cc3cn(CC[100NH:0][100C:0](=O)N4CCCC(n5nc(-c6ccc(Oc7ccc(F)cc7F)cc6)c(C(N)=O)c5N)C4)nn3)ccc2CC1C(=O)NC1CCCc2ccccc21)C(C)(C)C

> <Shape>
0.237

> <Color>
0.064

> <Negative vol penalty>
0.000

$$$$

  -OEChem-04052319063D

 89 97  0     1  0  0  0  0  0999 V2000
  -15.8028  -26.0209   24.1648 C   0  0  0  0  0  0  0  0  0  0  0  0
  -16.4370  -25.3777   23.1068 C   0  0  0  0  0  0  0  0  0  0  0  0
  -25.3123  -13.3482   21.8839 C   0  0  0  0  0  0  0  0  0  0  0  0
  -25.8665  -13.2862   19.5331 C   0  0  0  0  0  0  0  0  0  0  0  0
  -16.1782  -27.3165   24.5174 C   0  0  0  0  0  0  0  0  0  0  0  0
  -17.4463  -26.0304   22.3999 C   0  0  0  0  0  0  0  0  0  0  0  0
  -22.4400  -23.4921   19.9247 C   0  0  0  0  0  0  0  0  0  0  0  0
  -24.4958  -12.2291   21.7210 C   0  0  0  0  0  0  0  0  0  0  0  0
  -25.0500  -12.1671   19.3702 C   0  0  0  0  0  0  0  0  0  0  0  0
  -22.7403  -23.0875   18.6248 C   0  0  0  0  0  0  0  0  0  0  0  0
  -21.9825   -9.6042   21.8504 C   0  0  0  0  0  0  0  0  0  0  0  0
  -20.7237   -9.6250   22.4508 C   0  0  0  0  0  0  0  0  0  0  0  0
  -23.8387  -25.1983   18.2279 C   0  0  0  0  0  0  0  0  0  0  0  0
  -28.7475  -22.8650   15.6015 C   0  0  0  0  0  0  0  0  0  0  0  0
  -20.1362  -11.5751   21.1511 C   0  0  0  0  0  0  0  0  0  0  0  0
  -25.9976  -13.8768   20.7900 C   0  0  0  0  0  0  0  0  0  0  0  0
  -28.2110  -15.0466   21.2800 C   0  0  0  0  0  0  0  0  0  0  0  0
  -17.1993  -27.9817   23.8206 C   0  0  0  0  0  0  0  0  0  0  0  0
  -22.8279  -24.7593   20.3832 C   0  0  0  0  0  0  0  0  0  0  0  0
  -17.8349  -27.3366   22.7426 C   0  0  0  0  0  0  0  0  0  0  0  0
  -23.5443  -25.6156   19.5349 C   0  0  0  0  0  0  0  0  0  0  0  0
  -29.7567  -23.2065   16.4949 C   0  0  0  0  0  0  0  0  0  0  0  0
  -29.8529  -24.5132   16.9601 C   0  0  0  0  0  0  0  0  0  0  0  0
  -24.3647  -11.6385   20.4641 C   0  0  0  0  0  0  0  0  0  0  0  0
  -23.4372  -23.9417   17.7752 C   0  0  0  0  0  0  0  0  0  0  0  0
  -22.3183  -10.5689   20.9005 C   0  0  0  0  0  0  0  0  0  0  0  0
  -19.8005  -10.6105   22.1011 C   0  0  0  0  0  0  0  0  0  0  0  0
  -21.3951  -11.5543   20.5508 C   0  0  0  0  0  0  0  0  0  0  0  0
  -26.8407  -15.0331   20.9575 C   0  0  0  0  0  0  0  0  0  0  0  0
  -27.8666  -23.8592   15.2072 C   0  0  0  0  0  0  0  0  0  0  0  0
  -28.9227  -25.4337   16.5049 C   0  0  0  0  0  0  0  0  0  0  0  0
  -28.5409  -16.3792   21.3218 C   0  0  0  0  0  0  0  0  0  0  0  0
  -29.1057  -13.9523   21.5203 C   0  0  0  0  0  0  0  0  0  0  0  0
  -21.2863  -27.3372   21.4232 C   0  0  0  0  0  0  0  0  0  0  0  0
  -24.2863  -28.3996   22.0503 C   0  0  0  0  0  0  0  0  0  0  0  0
  -27.6244  -28.2258   21.3618 C   0  0  0  0  0  0  0  0  0  0  0  0
  -28.2984  -21.5226   19.1695 C   0  0  0  0  0  0  0  0  0  0  0  0
  -17.5380  -29.3994   24.2081 C   0  0  0  0  0  0  0  0  0  0  0  0
  -22.5196  -25.1704   21.7969 C   0  0  0  0  0  0  0  0  0  0  0  0
  -24.0011  -26.9783   19.9854 C   0  0  0  0  0  0  0  0  0  0  0  0
  -18.8740  -29.8812   23.6483 C   0  0  0  0  0  0  0  0  0  0  0  0
  -25.6081  -20.5001   21.2656 C   0  0  0  0  0  0  0  0  0  0  0  0
  -18.9946  -29.5216   22.1708 C   0  0  0  0  0  0  0  0  0  0  0  0
  -25.7985  -18.9877   21.3935 C   0  0  0  0  0  0  0  0  0  0  0  0
  -25.9810  -20.9999   19.8716 C   0  0  0  0  0  0  0  0  0  0  0  0
  -27.5208  -19.1037   19.5445 C   0  0  0  0  0  0  0  0  0  0  0  0
  -18.9512  -28.0023   21.9675 C   0  0  1  0  0  0  0  0  0  0  0  0
  -22.5140  -26.6835   21.9914 C   0  0  1  0  0  0  0  0  0  0  0  0
  -27.2107  -18.5608   20.9500 C   0  0  2  0  0  0  0  0  0  0  0  0
  -32.0576  -25.6731   17.2438 C   0  0  0  0  0  0  0  0  0  0  0  0
  -27.7329  -29.0548   17.1193 C   0  0  0  0  0  0  0  0  0  0  0  0
  -29.8249  -29.2437   22.0093 C   0  0  0  0  0  0  0  0  0  0  0  0
  -32.2267  -22.4418   16.5986 C   0  0  0  0  0  0  0  0  0  0  0  0
  -30.4061  -20.7969   16.2308 C   0  0  0  0  0  0  0  0  0  0  0  0
  -23.6081  -30.8925   20.4269 C   0  0  0  0  0  0  0  0  0  0  0  0
  -26.0578  -31.3950   20.3056 C   0  0  0  0  0  0  0  0  0  0  0  0
  -24.9076  -31.3310   22.5182 C   0  0  0  0  0  0  0  0  0  0  0  0
  -28.6844  -25.6252   22.2955 C   0  0  0  0  0  0  0  0  0  0  0  0
  -30.9236  -24.9080   17.9209 C   0  0  0  0  0  0  0  0  0  0  0  0
  -26.7587  -23.5253   14.2404 C   0  0  0  0  0  0  0  0  0  0  0  0
  -28.9739  -26.8523   16.9702 C   0  0  0  0  0  0  0  0  0  0  0  0
  -27.6928  -27.6208   16.6155 C   0  0  0  0  0  0  0  0  0  0  0  0
  -25.4657  -23.0686   14.9194 C   0  0  0  0  0  0  0  0  0  0  0  0
  -30.6547  -21.8871   18.4811 C   0  0  0  0  0  0  0  0  0  0  0  0
  -24.9198  -24.0798   15.9208 C   0  0  0  0  0  0  0  0  0  1  0  0
  -25.3312  -29.1687   21.2785 C   0  0  1  0  0  0  0  0  0  0  0  0
  -28.8359  -28.1182   22.2701 C   0  0  2  0  0  0  0  0  0  0  0  0
  -30.7222  -22.1562   16.9352 C   0  0  0  0  0  0  0  0  0  0  0  0
  -24.9660  -30.6720   21.1229 C   0  0  0  0  0  0  0  0  0  0  0  0
  -26.3348  -16.2599   20.8054 N   0  0  0  0  0  0  0  0  0  0  0  0
  -27.9284  -25.1393   15.6374 N   0  0  0  0  0  0  0  0  0  0  0  0
  -27.3928  -17.0566   21.0334 N   0  0  0  0  0  0  0  0  0  0  0  0
  -23.6701  -27.3369   21.3744 N   0  0  0  0  0  0  0  0  0  0  0  0
  -27.3321  -20.5625   19.5122 N   0  0  0  0  0  0  0  0  0  0  0  0
  -29.6981  -17.0259   21.5768 N   0  0  0  0  0  0  0  0  0  0  0  0
  -28.6022  -12.6469   21.4368 N   0  0  0  0  0  0  0  0  0  0  0  0
  -20.2272  -27.4102   22.3078 N   0  0  0  0  0  0  0  0  0  0  0  0
  -26.5995  -28.9292   21.9586 N   0  0  0  0  0  0  0  0  0  0  0  0
  -29.5548  -21.0234   18.8483 N   0  0  0  0  0  0  0  0  0  0  0  0
  -29.5335  -26.8195   22.0514 N   0  3  0  0  0  0  0  0  0  0  0  0
  -30.3119  -14.1272   21.8168 O   0  0  0  0  0  0  0  0  0  0  0  0
  -21.2993  -27.7465   20.2682 O   0  0  0  0  0  0  0  0  0  0  0  0
  -24.0315  -28.7250   23.2125 O   0  0  0  0  0  0  0  0  0  0  0  0
  -27.5918  -27.7381   20.2341 O   0  0  0  0  0  0  0  0  0  0  0  0
  -28.0607  -22.7351   19.1563 O   0  0  0  0  0  0  0  0  0  0  0  0
  -23.5682  -10.5464   20.3048 O   0  0  0  0  0  0  0  0  0  0  0  0
  -23.7311  -23.5495   16.5057 O   0  0  0  0  0  0  0  0  0  1  0  0
  -18.5911  -10.6294   22.6766 F   0  0  0  0  0  0  0  0  0  0  0  0
  -21.7115  -12.4830   19.6380 F   0  0  0  0  0  0  0  0  0  0  0  0
  1  2  1  0  0  0  0
  1  5  2  0  0  0  0
  2  6  2  0  0  0  0
  3  8  2  0  0  0  0
  3 16  1  0  0  0  0
  4  9  1  0  0  0  0
  4 16  2  0  0  0  0
  5 18  1  0  0  0  0
  6 20  1  0  0  0  0
  7 10  2  0  0  0  0
  7 19  1  0  0  0  0
  8 24  1  0  0  0  0
  9 24  2  0  0  0  0
 10 25  1  0  0  0  0
 11 12  2  0  0  0  0
 11 26  1  0  0  0  0
 12 27  1  0  0  0  0
 13 21  1  0  0  0  0
 13 25  2  0  0  0  0
 14 22  2  0  0  0  0
 14 30  1  0  0  0  0
 15 27  2  0  0  0  0
 15 28  1  0  0  0  0
 16 29  1  0  0  0  0
 17 29  1  0  0  0  0
 17 32  2  0  0  0  0
 17 33  1  0  0  0  0
 18 20  2  0  0  0  0
 18 38  1  0  0  0  0
 19 21  2  0  0  0  0
 19 39  1  0  0  0  0
 20 47  1  0  0  0  0
 21 40  1  0  0  0  0
 22 23  1  0  0  0  0
 22 68  1  0  0  0  0
 23 31  2  0  0  0  0
 23 59  1  0  0  0  0
 24 86  1  0  0  0  0
 25 87  1  0  0  0  0
 26 28  2  0  0  0  0
 26 86  1  0  0  0  0
 27 88  1  0  0  0  0
 28 89  1  0  0  0  0
 29 70  2  0  0  0  0
 30 60  1  0  0  0  0
 30 71  2  0  0  0  0
 31 61  1  0  0  0  0
 31 71  1  0  0  0  0
 32 72  1  0  0  0  0
 32 75  1  0  0  0  0
 33 76  1  0  0  0  0
 33 81  2  0  0  0  0
 34 48  1  0  0  0  0
 34 77  1  0  0  0  0
 34 82  2  0  0  0  0
 35 66  1  0  0  0  0
 35 73  1  0  0  0  0
 35 83  2  0  0  0  0
 36 67  1  0  0  0  0
 36 78  1  0  0  0  0
 36 84  2  0  0  0  0
 37 74  1  0  0  0  0
 37 79  1  0  0  0  0
 37 85  2  0  0  0  0
 38 41  1  0  0  0  0
 39 48  1  0  0  0  0
 40 73  1  0  0  0  0
 41 43  1  0  0  0  0
 42 44  1  0  0  0  0
 42 45  1  0  0  0  0
 43 47  1  0  0  0  0
 44 49  1  0  0  0  0
 45 74  1  0  0  0  0
 46 49  1  0  0  0  0
 46 74  1  0  0  0  0
 47 77  1  0  0  0  0
 48 73  1  0  0  0  0
 49 72  1  0  0  0  0
 50 59  1  0  0  0  0
 51 62  1  0  0  0  0
 52 67  1  0  0  0  0
 53 68  1  0  0  0  0
 54 68  1  0  0  0  0
 55 69  1  0  0  0  0
 56 69  1  0  0  0  0
 57 69  1  0  0  0  0
 58 80  1  0  0  0  0
 60 63  1  0  0  0  0
 61 62  1  0  0  0  0
 63 65  1  0  0  0  0
 64 68  1  0  0  0  0
 64 79  1  0  0  0  0
 65 87  1  0  0  0  0
 66 69  1  0  0  0  0
 66 78  1  0  0  0  0
 67 80  1  0  0  0  0
 70 72  1  0  0  0  0
M  CHG  1  80   1
M  ISO  4  37 100  65 101  79 100  87 101
M  END
> <Batch ID>
0089

> <Smiles>
CCCc1nc(CC[101CH2:1][101O:1]c2ccc3c(c2)CN(C(=O)C(NC(=O)C(C)NC)C(C)(C)C)C(C(=O)NC2CCCc4ccccc42)C3)cc(C(C)(C)C[100NH:0][100C:0](=O)N2CCCC(n3nc(-c4ccc(Oc5ccc(F)cc5F)cc4)c(C(N)=O)c3N)C2)c1CC

> <Shape>
0.246

> <Color>
0.052

> <Negative vol penalty>
0.000

$$$$

  -OEChem-04052319063D

 87 95  0     1  0  0  0  0  0999 V2000
  -16.4640  -26.3141   22.6127 C   0  0  0  0  0  0  0  0  0  0  0  0
  -17.8541  -26.2688   22.6428 C   0  0  0  0  0  0  0  0  0  0  0  0
  -28.1582  -17.7104   20.7297 C   0  0  0  0  0  0  0  0  0  0  0  0
  -30.2929  -18.1023   21.7910 C   0  0  0  0  0  0  0  0  0  0  0  0
  -15.7295  -25.1294   22.5833 C   0  0  0  0  0  0  0  0  0  0  0  0
  -18.5106  -25.0386   22.6447 C   0  0  0  0  0  0  0  0  0  0  0  0
  -22.4289  -24.9225   19.4386 C   0  0  0  0  0  0  0  0  0  0  0  0
  -28.2981  -16.3409   20.9538 C   0  0  0  0  0  0  0  0  0  0  0  0
  -30.4328  -16.7327   22.0152 C   0  0  0  0  0  0  0  0  0  0  0  0
  -23.6071  -25.5437   19.8504 C   0  0  0  0  0  0  0  0  0  0  0  0
  -29.9677  -13.7486   19.5692 C   0  0  0  0  0  0  0  0  0  0  0  0
  -29.6612  -12.8859   18.5170 C   0  0  0  0  0  0  0  0  0  0  0  0
  -24.5192  -23.3956   20.4609 C   0  0  0  0  0  0  0  0  0  0  0  0
  -27.5071  -27.3200   22.4663 C   0  0  0  0  0  0  0  0  0  0  0  0
  -29.7219  -28.1472   21.9689 C   0  0  0  0  0  0  0  0  0  0  0  0
  -28.1812  -27.6636   20.1719 C   0  0  0  0  0  0  0  0  0  0  0  0
  -27.9540  -11.8415   19.8704 C   0  0  0  0  0  0  0  0  0  0  0  0
  -29.1556  -18.5912   21.1483 C   0  0  0  0  0  0  0  0  0  0  0  0
  -28.4136  -20.9510   21.7715 C   0  0  0  0  0  0  0  0  0  0  0  0
  -16.3775  -23.8841   22.5751 C   0  0  0  0  0  0  0  0  0  0  0  0
  -22.2825  -23.5320   19.5452 C   0  0  0  0  0  0  0  0  0  0  0  0
  -17.7841  -23.8360   22.6165 C   0  0  0  0  0  0  0  0  0  0  0  0
  -23.3391  -22.7589   20.0474 C   0  0  0  0  0  0  0  0  0  0  0  0
  -28.7589  -27.7569   22.8995 C   0  0  0  0  0  0  0  0  0  0  0  0
  -27.2183  -27.2733   21.1025 C   0  0  0  0  0  0  0  0  0  0  0  0
  -29.4331  -28.1006   20.6051 C   0  0  0  0  0  0  0  0  0  0  0  0
  -29.4354  -15.8520   21.5966 C   0  0  0  0  0  0  0  0  0  0  0  0
  -24.6514  -24.7806   20.3644 C   0  0  0  0  0  0  0  0  0  0  0  0
  -29.2673  -13.6578   20.7722 C   0  0  0  0  0  0  0  0  0  0  0  0
  -28.6544  -11.9323   18.6675 C   0  0  0  0  0  0  0  0  0  0  0  0
  -28.2604  -12.7043   20.9227 C   0  0  0  0  0  0  0  0  0  0  0  0
  -29.0119  -20.0060   20.9166 C   0  0  0  0  0  0  0  0  0  0  0  0
  -28.5296  -22.1435   21.0999 C   0  0  0  0  0  0  0  0  0  0  0  0
  -27.8074  -20.7673   23.0577 C   0  0  0  0  0  0  0  0  0  0  0  0
  -20.3219  -21.5979   21.1323 C   0  0  0  0  0  0  0  0  0  0  0  0
  -21.8405  -19.2955   19.4250 C   0  0  0  0  0  0  0  0  0  0  0  0
  -24.6236  -18.3250   17.7046 C   0  0  0  0  0  0  0  0  0  0  0  0
  -31.5247  -25.7576   18.0812 C   0  0  0  0  0  0  0  0  0  0  0  0
  -15.5401  -22.6299   22.5907 C   0  0  0  0  0  0  0  0  0  0  0  0
  -21.0154  -22.8742   19.0718 C   0  0  0  0  0  0  0  0  0  0  0  0
  -23.2399  -21.2605   20.1637 C   0  0  0  0  0  0  0  0  0  0  0  0
  -16.3199  -21.3721   22.2163 C   0  0  0  0  0  0  0  0  0  0  0  0
  -29.9036  -23.1154   16.3298 C   0  0  0  0  0  0  0  0  0  0  0  0
  -17.6481  -21.3249   22.9649 C   0  0  0  0  0  0  0  0  0  0  0  0
  -29.4836  -22.1466   17.4365 C   0  0  0  0  0  0  0  0  0  0  0  0
  -31.2511  -23.7674   16.6318 C   0  0  0  0  0  0  0  0  0  0  0  0
  -30.9183  -23.4594   19.0542 C   0  0  0  0  0  0  0  0  0  0  0  0
  -18.5330  -22.5212   22.5946 C   0  0  1  0  0  0  0  0  0  0  0  0
  -20.7800  -21.5061   19.7043 C   0  0  1  0  0  0  0  0  0  0  0  0
  -29.5391  -22.8192   18.8214 C   0  0  2  0  0  0  0  0  0  0  0  0
  -30.8377  -30.0073   19.7593 C   0  0  0  0  0  0  0  0  0  0  0  0
  -25.5863  -16.3731   16.4553 C   0  0  0  0  0  0  0  0  0  0  0  0
  -25.3428  -31.0361   25.5479 C   0  0  0  0  0  0  0  0  0  0  0  0
  -27.5928  -31.9822   24.9977 C   0  0  0  0  0  0  0  0  0  0  0  0
  -22.4186  -17.8902   22.0709 C   0  0  0  0  0  0  0  0  0  0  0  0
  -24.1432  -16.5166   20.8846 C   0  0  0  0  0  0  0  0  0  0  0  0
  -21.7477  -16.3661   20.2051 C   0  0  0  0  0  0  0  0  0  0  0  0
  -24.8155  -19.8786   15.1929 C   0  0  0  0  0  0  0  0  0  0  0  0
  -29.0670  -27.8070   24.3580 C   0  0  0  0  0  0  0  0  0  0  0  0
  -25.8718  -26.8037   20.6359 C   0  0  0  0  0  0  0  0  0  1  0  0
  -28.7182  -29.1463   25.0347 C   0  0  0  0  0  0  0  0  0  0  0  0
  -27.2170  -29.4588   24.9884 C   0  0  0  0  0  0  0  0  0  0  0  0
  -31.7503  -27.6596   19.6594 C   0  0  0  0  0  0  0  0  0  0  0  0
  -30.4630  -28.5180   19.6103 C   0  0  1  0  0  0  0  0  0  0  0  0
  -23.0696  -18.4444   19.6347 C   0  0  1  0  0  0  0  0  0  0  0  0
  -24.7898  -17.6642   16.3481 C   0  0  2  0  0  0  0  0  0  0  0  0
  -26.8536  -30.8070   25.6390 C   0  0  0  0  0  0  0  0  0  0  0  0
  -22.8462  -17.3328   20.6986 C   0  0  0  0  0  0  0  0  0  0  0  0
  -29.4735  -20.5511   19.7880 N   0  0  0  0  0  0  0  0  0  0  0  0
  -29.1652  -21.8516   19.9290 N   0  0  0  0  0  0  0  0  0  0  0  0
  -21.9784  -20.6647   19.6935 N   0  0  0  0  0  0  0  0  0  0  0  0
  -31.2367  -24.3883   17.9586 N   0  0  0  0  0  0  0  0  0  0  0  0
  -28.1488  -23.4028   21.4026 N   0  0  0  0  0  0  0  0  0  0  0  0
  -27.7730  -19.4762   23.6019 N   0  0  0  0  0  0  0  0  0  0  0  0
  -19.1512  -22.3119   21.3029 N   0  0  0  0  0  0  0  0  0  0  0  0
  -23.4490  -17.9437   18.3180 N   0  0  0  0  0  0  0  0  0  0  0  0
  -31.4832  -26.2677   19.3730 N   0  0  0  0  0  0  0  0  0  0  0  0
  -25.5006  -18.5784   15.4101 N   0  3  0  0  0  0  0  0  0  0  0  0
  -27.2962  -21.7172   23.6980 O   0  0  0  0  0  0  0  0  0  0  0  0
  -20.9810  -21.0594   22.0140 O   0  0  0  0  0  0  0  0  0  0  0  0
  -20.7985  -18.7661   19.0304 O   0  0  0  0  0  0  0  0  0  0  0  0
  -25.4545  -19.0990   18.1748 O   0  0  0  0  0  0  0  0  0  0  0  0
  -31.7934  -26.4737   17.1107 O   0  0  0  0  0  0  0  0  0  0  0  0
  -29.5722  -14.5156   21.8157 O   0  0  0  0  0  0  0  0  0  0  0  0
  -25.8023  -25.3845   20.7676 O   0  0  0  0  0  0  0  0  0  1  0  0
  -28.3592  -11.1049   17.6564 F   0  0  0  0  0  0  0  0  0  0  0  0
  -27.5833  -12.6131   22.0755 F   0  0  0  0  0  0  0  0  0  0  0  0
  1  2  1  0  0  0  0
  1  5  2  0  0  0  0
  2  6  2  0  0  0  0
  3  8  2  0  0  0  0
  3 18  1  0  0  0  0
  4  9  1  0  0  0  0
  4 18  2  0  0  0  0
  5 20  1  0  0  0  0
  6 22  1  0  0  0  0
  7 10  2  0  0  0  0
  7 21  1  0  0  0  0
  8 27  1  0  0  0  0
  9 27  2  0  0  0  0
 10 28  1  0  0  0  0
 11 12  2  0  0  0  0
 11 29  1  0  0  0  0
 12 30  1  0  0  0  0
 13 23  1  0  0  0  0
 13 28  2  0  0  0  0
 14 24  2  0  0  0  0
 14 25  1  0  0  0  0
 15 24  1  0  0  0  0
 15 26  2  0  0  0  0
 16 25  2  0  0  0  0
 16 26  1  0  0  0  0
 17 30  2  0  0  0  0
 17 31  1  0  0  0  0
 18 32  1  0  0  0  0
 19 32  1  0  0  0  0
 19 33  2  0  0  0  0
 19 34  1  0  0  0  0
 20 22  2  0  0  0  0
 20 39  1  0  0  0  0
 21 23  2  0  0  0  0
 21 40  1  0  0  0  0
 22 48  1  0  0  0  0
 23 41  1  0  0  0  0
 24 59  1  0  0  0  0
 25 60  1  0  0  0  0
 26 64  1  0  0  0  0
 27 84  1  0  0  0  0
 28 85  1  0  0  0  0
 29 31  2  0  0  0  0
 29 84  1  0  0  0  0
 30 86  1  0  0  0  0
 31 87  1  0  0  0  0
 32 69  2  0  0  0  0
 33 70  1  0  0  0  0
 33 73  1  0  0  0  0
 34 74  1  0  0  0  0
 34 79  2  0  0  0  0
 35 49  1  0  0  0  0
 35 75  1  0  0  0  0
 35 80  2  0  0  0  0
 36 65  1  0  0  0  0
 36 71  1  0  0  0  0
 36 81  2  0  0  0  0
 37 66  1  0  0  0  0
 37 76  1  0  0  0  0
 37 82  2  0  0  0  0
 38 72  1  0  0  0  0
 38 77  1  0  0  0  0
 38 83  2  0  0  0  0
 39 42  1  0  0  0  0
 40 49  1  0  0  0  0
 41 71  1  0  0  0  0
 42 44  1  0  0  0  0
 43 45  1  0  0  0  0
 43 46  1  0  0  0  0
 44 48  1  0  0  0  0
 45 50  1  0  0  0  0
 46 72  1  0  0  0  0
 47 50  1  0  0  0  0
 47 72  1  0  0  0  0
 48 75  1  0  0  0  0
 49 71  1  0  0  0  0
 50 70  1  0  0  0  0
 51 64  1  0  0  0  0
 52 66  1  0  0  0  0
 53 67  1  0  0  0  0
 54 67  1  0  0  0  0
 55 68  1  0  0  0  0
 56 68  1  0  0  0  0
 57 68  1  0  0  0  0
 58 78  1  0  0  0  0
 59 61  1  0  0  0  0
 60 85  1  0  0  0  0
 61 62  1  0  0  0  0
 62 67  1  0  0  0  0
 63 64  1  0  0  0  0
 63 77  1  0  0  0  0
 65 68  1  0  0  0  0
 65 76  1  0  0  0  0
 66 78  1  0  0  0  0
 69 70  1  0  0  0  0
M  CHG  1  78   1
M  ISO  4  38 100  60 101  77 100  85 101
M  END
> <Batch ID>
0089

> <Smiles>
CNC(C)C(=O)NC(C(=O)N1Cc2cc([101O:1][101CH2:1]c3cc(CCCC(C)C)cc(C(C)C[100NH:0][100C:0](=O)N4CCCC(n5nc(-c6ccc(Oc7ccc(F)cc7F)cc6)c(C(N)=O)c5N)C4)c3)ccc2CC1C(=O)NC1CCCc2ccccc21)C(C)(C)C

> <Shape>
0.213

> <Color>
0.054

> <Negative vol penalty>
0.000

$$$$

  -OEChem-04052319063D

 86 93  0     1  0  0  0  0  0999 V2000
  -16.9826  -30.0139   23.1793 C   0  0  0  0  0  0  0  0  0  0  0  0
  -18.2228  -30.6298   23.0445 C   0  0  0  0  0  0  0  0  0  0  0  0
  -28.5075  -17.4521   19.2405 C   0  0  0  0  0  0  0  0  0  0  0  0
  -26.1234  -17.7183   19.5275 C   0  0  0  0  0  0  0  0  0  0  0  0
  -16.8980  -28.6231   23.2297 C   0  0  0  0  0  0  0  0  0  0  0  0
  -19.3792  -29.8551   22.9611 C   0  0  0  0  0  0  0  0  0  0  0  0
  -25.8578  -29.8066   19.9047 C   0  0  0  0  0  0  0  0  0  0  0  0
  -28.3331  -16.0794   19.0647 C   0  0  0  0  0  0  0  0  0  0  0  0
  -25.9490  -16.3456   19.3516 C   0  0  0  0  0  0  0  0  0  0  0  0
  -27.2039  -29.6582   20.2359 C   0  0  0  0  0  0  0  0  0  0  0  0
  -24.9120  -12.8621   19.3363 C   0  0  0  0  0  0  0  0  0  0  0  0
  -24.0576  -12.1990   20.2172 C   0  0  0  0  0  0  0  0  0  0  0  0
  -26.9290  -27.2617   20.2543 C   0  0  0  0  0  0  0  0  0  0  0  0
  -25.4518  -12.8682   22.0734 C   0  0  0  0  0  0  0  0  0  0  0  0
  -27.4026  -18.2715   19.4720 C   0  0  0  0  0  0  0  0  0  0  0  0
  -27.5728  -20.6828   18.6568 C   0  0  0  0  0  0  0  0  0  0  0  0
  -18.0531  -27.8308   23.1372 C   0  0  0  0  0  0  0  0  0  0  0  0
  -25.0332  -28.6821   19.7562 C   0  0  0  0  0  0  0  0  0  0  0  0
  -19.3102  -28.4525   23.0117 C   0  0  0  0  0  0  0  0  0  0  0  0
  -25.5734  -27.3984   19.9186 C   0  0  0  0  0  0  0  0  0  0  0  0
  -27.0538  -15.5262   19.1202 C   0  0  0  0  0  0  0  0  0  0  0  0
  -27.7390  -28.3857   20.4137 C   0  0  0  0  0  0  0  0  0  0  0  0
  -26.0364  -13.5282   19.8240 C   0  0  0  0  0  0  0  0  0  0  0  0
  -24.3275  -12.2021   21.5857 C   0  0  0  0  0  0  0  0  0  0  0  0
  -26.3063  -13.5313   21.1925 C   0  0  0  0  0  0  0  0  0  0  0  0
  -27.5822  -19.6895   19.6543 C   0  0  0  0  0  0  0  0  0  0  0  0
  -27.7850  -21.8561   19.3385 C   0  0  0  0  0  0  0  0  0  0  0  0
  -27.3887  -20.5562   17.2405 C   0  0  0  0  0  0  0  0  0  0  0  0
  -22.4296  -27.6003   21.2240 C   0  0  0  0  0  0  0  0  0  0  0  0
  -26.3205  -24.2625   24.3266 C   0  0  0  0  0  0  0  0  0  0  0  0
  -22.5063  -25.3666   18.8730 C   0  0  0  0  0  0  0  0  0  0  0  0
  -24.3456  -23.6472   16.5692 C   0  0  0  0  0  0  0  0  0  0  0  0
  -17.9162  -26.3326   23.2439 C   0  0  0  0  0  0  0  0  0  0  0  0
  -23.5896  -28.8581   19.3724 C   0  0  0  0  0  0  0  0  0  0  0  0
  -24.7353  -26.1583   19.7506 C   0  0  0  0  0  0  0  0  0  0  0  0
  -19.1533  -25.5728   22.7722 C   0  0  0  0  0  0  0  0  0  0  0  0
  -29.6967  -23.0494   23.7298 C   0  0  0  0  0  0  0  0  0  0  0  0
  -20.4171  -26.1941   23.3582 C   0  0  0  0  0  0  0  0  0  0  0  0
  -29.4823  -22.1257   22.5315 C   0  0  0  0  0  0  0  0  0  0  0  0
  -28.5064  -23.0154   24.6848 C   0  0  0  0  0  0  0  0  0  0  0  0
  -26.9834  -22.4057   22.8319 C   0  0  0  0  0  0  0  0  0  0  0  0
  -20.5850  -27.6457   22.8932 C   0  0  1  0  0  0  0  0  0  0  0  0
  -22.7206  -27.6628   19.7512 C   0  0  1  0  0  0  0  0  0  0  0  0
  -28.1486  -22.4341   21.8287 C   0  0  2  0  0  0  0  0  0  0  0  0
  -24.1387  -21.8597   14.8200 C   0  0  0  0  0  0  0  0  0  0  0  0
  -31.8794  -28.0920   21.5028 C   0  0  0  0  0  0  0  0  0  0  0  0
  -30.4575  -29.0036   26.1202 C   0  0  0  0  0  0  0  0  0  0  0  0
  -26.1745  -30.1900   27.2681 C   0  0  0  0  0  0  0  0  0  0  0  0
  -28.7806  -31.5566   26.7044 C   0  0  0  0  0  0  0  0  0  0  0  0
  -24.3967  -25.5246   26.6061 C   0  0  0  0  0  0  0  0  0  0  0  0
  -22.4008  -23.2419   21.0602 C   0  0  0  0  0  0  0  0  0  0  0  0
  -23.1453  -21.5580   19.3636 C   0  0  0  0  0  0  0  0  0  0  0  0
  -20.9772  -22.7544   19.0627 C   0  0  0  0  0  0  0  0  0  0  0  0
  -25.1952  -25.4925   14.4171 C   0  0  0  0  0  0  0  0  0  0  0  0
  -26.6445  -25.0980   25.5394 C   0  0  0  0  0  0  0  0  0  0  0  0
  -31.3385  -29.8395   23.2786 C   0  0  0  0  0  0  0  0  0  0  0  0
  -30.3085  -30.5583   24.1610 C   0  0  0  0  0  0  0  0  0  0  0  0
  -26.8521  -28.2516   25.7836 C   0  0  0  0  0  0  0  0  0  0  0  0
  -29.6563  -29.2825   21.4980 C   0  0  0  0  0  0  0  0  0  1  0  0
  -23.1440  -24.0081   18.7094 C   0  0  1  0  0  0  0  0  0  0  0  0
  -24.1003  -23.3540   15.1001 C   0  0  2  0  0  0  0  0  0  0  0  0
  -30.7864  -28.7211   22.3735 C   0  0  1  0  0  0  0  0  0  0  0  0
  -29.4910  -29.6616   25.1247 C   0  0  2  0  0  0  0  0  0  0  0  0
  -27.3582  -29.4207   26.6516 C   0  0  1  0  0  0  0  0  0  0  0  0
  -28.2942  -30.3849   25.8315 C   0  0  1  0  0  0  0  0  0  0  0  0
  -25.5458  -26.1228   25.8074 C   0  0  2  0  0  0  0  0  0  0  0  0
  -22.4324  -22.9138   19.5541 C   0  0  0  0  0  0  0  0  0  0  0  0
  -27.7845  -20.1883   20.8768 N   0  0  0  0  0  0  0  0  0  0  0  0
  -27.9043  -21.5078   20.6518 N   0  0  0  0  0  0  0  0  0  0  0  0
  -23.3279  -26.3827   19.3813 N   0  0  0  0  0  0  0  0  0  0  0  0
  -27.2524  -23.2868   23.9719 N   0  0  0  0  0  0  0  0  0  0  0  0
  -27.8795  -23.1414   18.9368 N   0  0  0  0  0  0  0  0  0  0  0  0
  -27.1823  -19.2774   16.7053 N   0  0  0  0  0  0  0  0  0  0  0  0
  -21.0862  -27.6869   21.5362 N   0  0  0  0  0  0  0  0  0  0  0  0
  -23.1651  -23.7370   17.2761 N   0  0  0  0  0  0  0  0  0  0  0  0
  -25.1374  -24.0165   14.2595 N   0  3  0  0  0  0  0  0  0  0  0  0
  -26.1119  -27.2515   26.5942 N   0  3  0  0  0  0  0  0  0  0  0  0
  -27.4231  -21.5458   16.4705 O   0  0  0  0  0  0  0  0  0  0  0  0
  -23.3551  -27.4807   22.0182 O   0  0  0  0  0  0  0  0  0  0  0  0
  -25.2715  -24.4741   23.7126 O   0  0  0  0  0  0  0  0  0  0  0  0
  -21.3248  -25.5224   18.5545 O   0  0  0  0  0  0  0  0  0  0  0  0
  -25.4718  -23.7793   17.0431 O   0  0  0  0  0  0  0  0  0  0  0  0
  -26.8833  -14.1868   18.9483 O   0  0  0  0  0  0  0  0  0  0  0  0
  -29.0618  -28.2370   20.7400 O   0  0  0  0  0  0  0  0  0  1  0  0
  -23.5061  -11.5665   22.4316 F   0  0  0  0  0  0  0  0  0  0  0  0
  -27.3843  -14.1705   21.6670 F   0  0  0  0  0  0  0  0  0  0  0  0
  1  2  1  0  0  0  0
  1  5  2  0  0  0  0
  2  6  2  0  0  0  0
  3  8  2  0  0  0  0
  3 15  1  0  0  0  0
  4  9  1  0  0  0  0
  4 15  2  0  0  0  0
  5 17  1  0  0  0  0
  6 19  1  0  0  0  0
  7 10  2  0  0  0  0
  7 18  1  0  0  0  0
  8 21  1  0  0  0  0
  9 21  2  0  0  0  0
 10 22  1  0  0  0  0
 11 12  2  0  0  0  0
 11 23  1  0  0  0  0
 12 24  1  0  0  0  0
 13 20  1  0  0  0  0
 13 22  2  0  0  0  0
 14 24  2  0  0  0  0
 14 25  1  0  0  0  0
 15 26  1  0  0  0  0
 16 26  1  0  0  0  0
 16 27  2  0  0  0  0
 16 28  1  0  0  0  0
 17 19  2  0  0  0  0
 17 33  1  0  0  0  0
 18 20  2  0  0  0  0
 18 34  1  0  0  0  0
 19 42  1  0  0  0  0
 20 35  1  0  0  0  0
 21 83  1  0  0  0  0
 22 84  1  0  0  0  0
 23 25  2  0  0  0  0
 23 83  1  0  0  0  0
 24 85  1  0  0  0  0
 25 86  1  0  0  0  0
 26 68  2  0  0  0  0
 27 69  1  0  0  0  0
 27 72  1  0  0  0  0
 28 73  1  0  0  0  0
 28 78  2  0  0  0  0
 29 43  1  0  0  0  0
 29 74  1  0  0  0  0
 29 79  2  0  0  0  0
 30 55  1  0  0  0  0
 30 71  1  0  0  0  0
 30 80  2  0  0  0  0
 31 60  1  0  0  0  0
 31 70  1  0  0  0  0
 31 81  2  0  0  0  0
 32 61  1  0  0  0  0
 32 75  1  0  0  0  0
 32 82  2  0  0  0  0
 33 36  1  0  0  0  0
 34 43  1  0  0  0  0
 35 70  1  0  0  0  0
 36 38  1  0  0  0  0
 37 39  1  0  0  0  0
 37 40  1  0  0  0  0
 38 42  1  0  0  0  0
 39 44  1  0  0  0  0
 40 71  1  0  0  0  0
 41 44  1  0  0  0  0
 41 71  1  0  0  0  0
 42 74  1  0  0  0  0
 43 70  1  0  0  0  0
 44 69  1  0  0  0  0
 45 61  1  0  0  0  0
 46 62  1  0  0  0  0
 47 63  1  0  0  0  0
 48 64  1  0  0  0  0
 49 65  1  0  0  0  0
 50 66  1  0  0  0  0
 51 67  1  0  0  0  0
 52 67  1  0  0  0  0
 53 67  1  0  0  0  0
 54 76  1  0  0  0  0
 55 66  1  0  0  0  0
 56 57  1  0  0  0  0
 56 62  1  0  0  0  0
 57 63  1  0  0  0  0
 58 64  1  0  0  0  0
 58 77  1  0  0  0  0
 59 62  1  0  0  0  0
 59 84  1  0  0  0  0
 60 67  1  0  0  0  0
 60 75  1  0  0  0  0
 61 76  1  0  0  0  0
 63 65  1  0  0  0  0
 64 65  1  0  0  0  0
 66 77  1  0  0  0  0
 68 69  1  0  0  0  0
M  CHG  2  76   1  77   1
M  ISO  4  30 100  55 100  59 101  84 101
M  END
> <Batch ID>
0089

> <Smiles>
CNC(C)C(=O)NC(C(=O)N1Cc2cc([101O:1][101CH2:1]C(C)CCC(C)C(C)C(C)CNC(C)[100CH2:0][100C:0](=O)N3CCCC(n4nc(-c5ccc(Oc6ccc(F)cc6F)cc5)c(C(N)=O)c4N)C3)ccc2CC1C(=O)NC1CCCc2ccccc21)C(C)(C)C

> <Shape>
0.206

> <Color>
0.062

> <Negative vol penalty>
0.000

$$$$

  -OEChem-04052319063D

 88 96  0     1  0  0  0  0  0999 V2000
  -18.6912  -33.6213   21.4938 C   0  0  0  0  0  0  0  0  0  0  0  0
  -20.0210  -33.4463   21.1242 C   0  0  0  0  0  0  0  0  0  0  0  0
  -26.9794  -17.6775   18.8700 C   0  0  0  0  0  0  0  0  0  0  0  0
  -29.2277  -17.3614   19.6962 C   0  0  0  0  0  0  0  0  0  0  0  0
  -18.1329  -32.8162   22.4858 C   0  0  0  0  0  0  0  0  0  0  0  0
  -20.7935  -32.4668   21.7473 C   0  0  0  0  0  0  0  0  0  0  0  0
  -25.2180  -29.0903   19.1921 C   0  0  0  0  0  0  0  0  0  0  0  0
  -26.6627  -16.3678   19.2305 C   0  0  0  0  0  0  0  0  0  0  0  0
  -28.9110  -16.0517   20.0568 C   0  0  0  0  0  0  0  0  0  0  0  0
  -26.6072  -29.2086   19.1931 C   0  0  0  0  0  0  0  0  0  0  0  0
  -28.5731  -13.0577   18.5228 C   0  0  0  0  0  0  0  0  0  0  0  0
  -29.4888  -12.0568   18.1984 C   0  0  0  0  0  0  0  0  0  0  0  0
  -26.7323  -27.6524   21.0321 C   0  0  0  0  0  0  0  0  0  0  0  0
  -32.6675  -25.9293   17.7009 C   0  0  0  0  0  0  0  0  0  0  0  0
  -34.5836  -24.8937   18.7463 C   0  0  0  0  0  0  0  0  0  0  0  0
  -29.7173  -11.5070   20.5399 C   0  0  0  0  0  0  0  0  0  0  0  0
  -28.2619  -18.1743   19.1027 C   0  0  0  0  0  0  0  0  0  0  0  0
  -28.4609  -20.6825   19.5237 C   0  0  0  0  0  0  0  0  0  0  0  0
  -18.8962  -31.8198   23.1145 C   0  0  0  0  0  0  0  0  0  0  0  0
  -24.5738  -28.2591   20.1198 C   0  0  0  0  0  0  0  0  0  0  0  0
  -20.2452  -31.6485   22.7495 C   0  0  0  0  0  0  0  0  0  0  0  0
  -25.3350  -27.5233   21.0391 C   0  0  0  0  0  0  0  0  0  0  0  0
  -33.9248  -25.3341   17.5984 C   0  0  0  0  0  0  0  0  0  0  0  0
  -32.0691  -26.0843   18.9514 C   0  0  0  0  0  0  0  0  0  0  0  0
  -33.9852  -25.0485   19.9967 C   0  0  0  0  0  0  0  0  0  0  0  0
  -32.7279  -25.6439   20.0992 C   0  0  0  0  0  0  0  0  0  0  0  0
  -27.6285  -15.5549   19.8239 C   0  0  0  0  0  0  0  0  0  0  0  0
  -27.3644  -28.4918   20.1151 C   0  0  0  0  0  0  0  0  0  0  0  0
  -28.2295  -13.2834   19.8558 C   0  0  0  0  0  0  0  0  0  0  0  0
  -30.0609  -11.2814   19.2069 C   0  0  0  0  0  0  0  0  0  0  0  0
  -28.8016  -12.5080   20.8643 C   0  0  0  0  0  0  0  0  0  0  0  0
  -28.5898  -19.5269   18.7300 C   0  0  0  0  0  0  0  0  0  0  0  0
  -28.9016  -21.7035   18.7176 C   0  0  0  0  0  0  0  0  0  0  0  0
  -27.9853  -20.8205   20.8692 C   0  0  0  0  0  0  0  0  0  0  0  0
  -22.4757  -28.7166   22.4634 C   0  0  0  0  0  0  0  0  0  0  0  0
  -22.5039  -25.4756   22.5947 C   0  0  0  0  0  0  0  0  0  0  0  0
  -24.1688  -22.5647   21.9609 C   0  0  0  0  0  0  0  0  0  0  0  0
  -32.8784  -22.7910   14.6536 C   0  0  0  0  0  0  0  0  0  0  0  0
  -18.2625  -31.0057   24.2146 C   0  0  0  0  0  0  0  0  0  0  0  0
  -23.0762  -28.1219   20.0882 C   0  0  0  0  0  0  0  0  0  0  0  0
  -24.6930  -26.6017   22.0426 C   0  0  0  0  0  0  0  0  0  0  0  0
  -19.0423  -29.7403   24.5623 C   0  0  0  0  0  0  0  0  0  0  0  0
  -29.4461  -22.3056   13.8408 C   0  0  0  0  0  0  0  0  0  0  0  0
  -20.5291  -30.0510   24.7022 C   0  0  0  0  0  0  0  0  0  0  0  0
  -28.8634  -21.6470   15.0925 C   0  0  0  0  0  0  0  0  0  0  0  0
  -30.8711  -21.8310   13.5648 C   0  0  0  0  0  0  0  0  0  0  0  0
  -31.2205  -21.3189   15.9500 C   0  0  0  0  0  0  0  0  0  0  0  0
  -21.1085  -30.5801   23.3847 C   0  0  1  0  0  0  0  0  0  0  0  0
  -22.4921  -27.6421   21.4133 C   0  0  1  0  0  0  0  0  0  0  0  0
  -29.8051  -21.8084   16.3010 C   0  0  2  0  0  0  0  0  0  0  0  0
  -31.4961  -24.5040   21.9620 C   0  0  0  0  0  0  0  0  0  0  0  0
  -35.8778  -25.9718   16.1482 C   0  0  0  0  0  0  0  0  0  0  0  0
  -36.0439  -25.3084   21.4277 C   0  0  0  0  0  0  0  0  0  0  0  0
  -34.9537  -23.0483   21.1863 C   0  0  0  0  0  0  0  0  0  0  0  0
  -23.9538  -20.0772   22.2134 C   0  0  0  0  0  0  0  0  0  0  0  0
  -23.1267  -25.7263   25.5711 C   0  0  0  0  0  0  0  0  0  0  0  0
  -23.8281  -23.3230   25.5557 C   0  0  0  0  0  0  0  0  0  0  0  0
  -21.4756  -23.9375   24.9979 C   0  0  0  0  0  0  0  0  0  0  0  0
  -24.3202  -22.1381   19.0362 C   0  0  0  0  0  0  0  0  0  0  0  0
  -30.7090  -26.7299   19.0345 C   0  0  0  0  0  0  0  0  0  0  0  0
  -32.0858  -25.8097   21.4398 C   0  0  0  0  0  0  0  0  0  0  0  0
  -30.7382  -28.2510   18.8701 C   0  0  0  0  0  0  0  0  0  0  0  0
  -34.8352  -23.6917   15.8860 C   0  0  0  0  0  0  0  0  0  0  0  0
  -29.3520  -28.8850   18.8699 C   0  0  0  0  0  0  0  0  0  1  0  0
  -34.5649  -25.1691   16.2616 C   0  0  1  0  0  0  0  0  0  0  0  0
  -34.7115  -24.5684   21.2107 C   0  0  0  0  0  0  0  0  0  0  0  0
  -23.3153  -24.4428   23.3389 C   0  0  1  0  0  0  0  0  0  0  0  0
  -23.7226  -21.2721   21.3015 C   0  0  2  0  0  0  0  0  0  0  0  0
  -22.9487  -24.3761   24.8484 C   0  0  0  0  0  0  0  0  0  0  0  0
  -29.0744  -19.7886   17.5131 N   0  0  0  0  0  0  0  0  0  0  0  0
  -29.2536  -21.1203   17.5361 N   0  0  0  0  0  0  0  0  0  0  0  0
  -23.2254  -26.5063   21.9760 N   0  0  0  0  0  0  0  0  0  0  0  0
  -31.7129  -22.0129   14.7497 N   0  0  0  0  0  0  0  0  0  0  0  0
  -29.0183  -23.0344   18.9114 N   0  0  0  0  0  0  0  0  0  0  0  0
  -27.5714  -19.6692   21.5529 N   0  0  0  0  0  0  0  0  0  0  0  0
  -21.3317  -29.4916   22.4575 N   0  0  0  0  0  0  0  0  0  0  0  0
  -23.1305  -23.1851   22.6230 N   0  0  0  0  0  0  0  0  0  0  0  0
  -33.6154  -22.9177   15.8247 N   0  0  0  0  0  0  0  0  0  0  0  0
  -24.4762  -21.0497   20.0352 N   0  3  0  0  0  0  0  0  0  0  0  0
  -27.9138  -21.9340   21.4424 O   0  0  0  0  0  0  0  0  0  0  0  0
  -23.4297  -28.8329   23.2238 O   0  0  0  0  0  0  0  0  0  0  0  0
  -21.2756  -25.3677   22.5575 O   0  0  0  0  0  0  0  0  0  0  0  0
  -25.3237  -22.9804   21.8982 O   0  0  0  0  0  0  0  0  0  0  0  0
  -33.2328  -23.3372   13.6033 O   0  0  0  0  0  0  0  0  0  0  0  0
  -27.3197  -14.2769   20.1761 O   0  0  0  0  0  0  0  0  0  0  0  0
  -28.7204  -28.6059   20.1187 O   0  0  0  0  0  0  0  0  0  1  0  0
  -30.9390  -10.3192   18.8951 F   0  0  0  0  0  0  0  0  0  0  0  0
  -28.4746  -12.7193   22.1466 F   0  0  0  0  0  0  0  0  0  0  0  0
  1  2  1  0  0  0  0
  1  5  2  0  0  0  0
  2  6  2  0  0  0  0
  3  8  2  0  0  0  0
  3 17  1  0  0  0  0
  4  9  1  0  0  0  0
  4 17  2  0  0  0  0
  5 19  1  0  0  0  0
  6 21  1  0  0  0  0
  7 10  2  0  0  0  0
  7 20  1  0  0  0  0
  8 27  1  0  0  0  0
  9 27  2  0  0  0  0
 10 28  1  0  0  0  0
 11 12  2  0  0  0  0
 11 29  1  0  0  0  0
 12 30  1  0  0  0  0
 13 22  1  0  0  0  0
 13 28  2  0  0  0  0
 14 23  1  0  0  0  0
 14 24  2  0  0  0  0
 15 23  2  0  0  0  0
 15 25  1  0  0  0  0
 16 30  2  0  0  0  0
 16 31  1  0  0  0  0
 17 32  1  0  0  0  0
 18 32  1  0  0  0  0
 18 33  2  0  0  0  0
 18 34  1  0  0  0  0
 19 21  2  0  0  0  0
 19 39  1  0  0  0  0
 20 22  2  0  0  0  0
 20 40  1  0  0  0  0
 21 48  1  0  0  0  0
 22 41  1  0  0  0  0
 23 65  1  0  0  0  0
 24 26  1  0  0  0  0
 24 60  1  0  0  0  0
 25 26  2  0  0  0  0
 25 66  1  0  0  0  0
 26 61  1  0  0  0  0
 27 85  1  0  0  0  0
 28 86  1  0  0  0  0
 29 31  2  0  0  0  0
 29 85  1  0  0  0  0
 30 87  1  0  0  0  0
 31 88  1  0  0  0  0
 32 70  2  0  0  0  0
 33 71  1  0  0  0  0
 33 74  1  0  0  0  0
 34 75  1  0  0  0  0
 34 80  2  0  0  0  0
 35 49  1  0  0  0  0
 35 76  1  0  0  0  0
 35 81  2  0  0  0  0
 36 67  1  0  0  0  0
 36 72  1  0  0  0  0
 36 82  2  0  0  0  0
 37 68  1  0  0  0  0
 37 77  1  0  0  0  0
 37 83  2  0  0  0  0
 38 73  1  0  0  0  0
 38 78  1  0  0  0  0
 38 84  2  0  0  0  0
 39 42  1  0  0  0  0
 40 49  1  0  0  0  0
 41 72  1  0  0  0  0
 42 44  1  0  0  0  0
 43 45  1  0  0  0  0
 43 46  1  0  0  0  0
 44 48  1  0  0  0  0
 45 50  1  0  0  0  0
 46 73  1  0  0  0  0
 47 50  1  0  0  0  0
 47 73  1  0  0  0  0
 48 76  1  0  0  0  0
 49 72  1  0  0  0  0
 50 71  1  0  0  0  0
 51 61  1  0  0  0  0
 52 65  1  0  0  0  0
 53 66  1  0  0  0  0
 54 66  1  0  0  0  0
 55 68  1  0  0  0  0
 56 69  1  0  0  0  0
 57 69  1  0  0  0  0
 58 69  1  0  0  0  0
 59 79  1  0  0  0  0
 60 62  1  0  0  0  0
 62 64  1  0  0  0  0
 63 65  1  0  0  0  0
 63 78  1  0  0  0  0
 64 86  1  0  0  0  0
 67 69  1  0  0  0  0
 67 77  1  0  0  0  0
 68 79  1  0  0  0  0
 70 71  1  0  0  0  0
M  CHG  1  79   1
M  ISO  4  38 100  64 101  78 100  86 101
M  END
> <Batch ID>
0089

> <Smiles>
CCc1c(CC[101CH2:1][101O:1]c2ccc3c(c2)CN(C(=O)C(NC(=O)C(C)NC)C(C)(C)C)C(C(=O)NC2CCCc4ccccc42)C3)cc(C(C)C[100NH:0][100C:0](=O)N2CCCC(n3nc(-c4ccc(Oc5ccc(F)cc5F)cc4)c(C(N)=O)c3N)C2)cc1C(C)C

> <Shape>
0.189

> <Color>
0.091

> <Negative vol penalty>
0.000

$$$$

  -OEChem-04052319063D

 84 92  0     1  0  0  0  0  0999 V2000
  -31.2853  -19.6119   20.4989 C   0  0  0  0  0  0  0  0  0  0  0  0
  -29.9364  -19.9225   20.3600 C   0  0  0  0  0  0  0  0  0  0  0  0
  -29.9373  -24.0753   18.5869 C   0  0  0  0  0  0  0  0  0  0  0  0
  -28.9292  -25.6369   17.0434 C   0  0  0  0  0  0  0  0  0  0  0  0
  -31.7218  -18.3024   20.3028 C   0  0  0  0  0  0  0  0  0  0  0  0
  -29.0232  -18.9237   20.0238 C   0  0  0  0  0  0  0  0  0  0  0  0
  -24.8097  -19.1204   22.8261 C   0  0  0  0  0  0  0  0  0  0  0  0
  -30.0342  -23.1292   17.5665 C   0  0  0  0  0  0  0  0  0  0  0  0
  -29.0261  -24.6908   16.0230 C   0  0  0  0  0  0  0  0  0  0  0  0
  -23.8648  -20.0882   22.4880 C   0  0  0  0  0  0  0  0  0  0  0  0
  -30.2175  -20.1759   15.4528 C   0  0  0  0  0  0  0  0  0  0  0  0
  -29.8371  -18.8656   15.7428 C   0  0  0  0  0  0  0  0  0  0  0  0
  -22.5728  -18.4130   21.3288 C   0  0  0  0  0  0  0  0  0  0  0  0
  -20.7906  -27.5854   20.9223 C   0  0  0  0  0  0  0  0  0  0  0  0
  -27.6101  -19.6316   16.2823 C   0  0  0  0  0  0  0  0  0  0  0  0
  -19.7603  -27.2131   23.0218 C   0  0  0  0  0  0  0  0  0  0  0  0
  -29.3848  -25.3291   18.3254 C   0  0  0  0  0  0  0  0  0  0  0  0
  -30.2412  -27.2757   19.7342 C   0  0  0  0  0  0  0  0  0  0  0  0
  -30.8121  -17.2852   19.9734 C   0  0  0  0  0  0  0  0  0  0  0  0
  -24.6486  -17.7916   22.4081 C   0  0  0  0  0  0  0  0  0  0  0  0
  -29.4481  -17.5996   19.8217 C   0  0  0  0  0  0  0  0  0  0  0  0
  -23.5158  -17.4298   21.6650 C   0  0  0  0  0  0  0  0  0  0  0  0
  -20.1729  -26.7145   21.8025 C   0  0  0  0  0  0  0  0  0  0  0  0
  -29.5787  -23.4370   16.2845 C   0  0  0  0  0  0  0  0  0  0  0  0
  -22.7476  -19.7352   21.7368 C   0  0  0  0  0  0  0  0  0  0  0  0
  -29.2943  -21.2140   15.5776 C   0  0  0  0  0  0  0  0  0  0  0  0
  -28.5334  -18.5935   16.1575 C   0  0  0  0  0  0  0  0  0  0  0  0
  -27.9906  -20.9419   15.9923 C   0  0  0  0  0  0  0  0  0  0  0  0
  -29.2839  -26.3065   19.3792 C   0  0  0  0  0  0  0  0  0  0  0  0
  -20.9546  -28.8972   21.3194 C   0  0  0  0  0  0  0  0  0  0  0  0
  -29.6726  -27.9504   20.7868 C   0  0  0  0  0  0  0  0  0  0  0  0
  -31.5291  -27.5424   19.1634 C   0  0  0  0  0  0  0  0  0  0  0  0
  -26.3022  -15.8063   20.5567 C   0  0  0  0  0  0  0  0  0  0  0  0
  -24.0979  -13.6510   21.5657 C   0  0  0  0  0  0  0  0  0  0  0  0
  -20.9735  -13.0678   22.8086 C   0  0  0  0  0  0  0  0  0  0  0  0
  -23.9968  -28.8239   22.4817 C   0  0  0  0  0  0  0  0  0  0  0  0
  -31.3379  -15.8936   19.7247 C   0  0  0  0  0  0  0  0  0  0  0  0
  -25.6633  -16.7542   22.8037 C   0  0  0  0  0  0  0  0  0  0  0  0
  -23.2859  -16.0129   21.2090 C   0  0  0  0  0  0  0  0  0  0  0  0
  -30.2520  -14.8208   19.7381 C   0  0  0  0  0  0  0  0  0  0  0  0
  -26.6011  -27.3412   24.4041 C   0  0  0  0  0  0  0  0  0  0  0  0
  -29.0527  -15.2647   18.9064 C   0  0  0  0  0  0  0  0  0  0  0  0
  -27.6703  -26.9953   23.3663 C   0  0  0  0  0  0  0  0  0  0  0  0
  -25.1919  -27.1407   23.8509 C   0  0  0  0  0  0  0  0  0  0  0  0
  -25.9874  -27.4980   21.5459 C   0  0  0  0  0  0  0  0  0  0  0  0
  -28.4234  -16.5390   19.4822 C   0  0  1  0  0  0  0  0  0  0  0  0
  -25.6594  -15.5345   21.8873 C   0  0  1  0  0  0  0  0  0  0  0  0
  -27.4246  -27.7380   22.0392 C   0  0  2  0  0  0  0  0  0  0  0  0
  -20.6567  -31.0145   19.9957 C   0  0  0  0  0  0  0  0  0  0  0  0
  -19.4433  -11.2011   23.4950 C   0  0  0  0  0  0  0  0  0  0  0  0
  -23.5532  -13.0214   18.6302 C   0  0  0  0  0  0  0  0  0  0  0  0
  -21.4266  -11.9047   19.3365 C   0  0  0  0  0  0  0  0  0  0  0  0
  -23.6203  -11.0220   20.1309 C   0  0  0  0  0  0  0  0  0  0  0  0
  -20.8252  -14.0580   25.5936 C   0  0  0  0  0  0  0  0  0  0  0  0
  -19.9574  -25.2664   21.4415 C   0  0  0  0  0  0  0  0  0  0  0  0
  -21.1154  -24.3481   21.8474 C   0  0  0  0  0  0  0  0  0  0  0  0
  -20.9132  -22.8982   21.4048 C   0  0  0  0  0  0  0  0  0  0  0  0
  -22.9109  -30.4862   20.9928 C   0  0  0  0  0  0  0  0  0  0  0  0
  -22.0628  -22.0094   21.8595 C   0  0  0  0  0  0  0  0  0  1  0  0
  -21.6132  -29.8757   20.4086 C   0  0  1  0  0  0  0  0  0  0  0  0
  -22.7440  -13.1972   21.0757 C   0  0  1  0  0  0  0  0  0  0  0  0
  -20.4923  -12.2003   23.9576 C   0  0  2  0  0  0  0  0  0  0  0  0
  -22.8410  -12.3135   19.8001 C   0  0  0  0  0  0  0  0  0  0  0  0
  -19.9338  -28.5018   23.3842 N   0  0  0  0  0  0  0  0  0  0  0  0
  -28.1902  -26.3575   20.1443 N   0  0  0  0  0  0  0  0  0  0  0  0
  -20.5406  -29.3577   22.5188 N   0  0  0  0  0  0  0  0  0  0  0  0
  -28.4569  -27.3669   20.9906 N   0  0  0  0  0  0  0  0  0  0  0  0
  -24.3096  -15.0361   21.6156 N   0  0  0  0  0  0  0  0  0  0  0  0
  -25.0238  -27.8722   22.5929 N   0  0  0  0  0  0  0  0  0  0  0  0
  -30.0991  -28.9800   21.5488 N   0  0  0  0  0  0  0  0  0  0  0  0
  -31.9589  -26.7546   18.0868 N   0  0  0  0  0  0  0  0  0  0  0  0
  -27.6164  -16.2248   20.6417 N   0  0  0  0  0  0  0  0  0  0  0  0
  -22.0983  -12.5426   22.2084 N   0  0  0  0  0  0  0  0  0  0  0  0
  -23.9112  -29.4764   21.2578 N   0  0  0  0  0  0  0  0  0  0  0  0
  -19.8955  -13.0455   25.0302 N   0  3  0  0  0  0  0  0  0  0  0  0
  -32.2836  -28.4415   19.6059 O   0  0  0  0  0  0  0  0  0  0  0  0
  -25.6543  -15.6466   19.5288 O   0  0  0  0  0  0  0  0  0  0  0  0
  -24.9343  -12.8077   21.8988 O   0  0  0  0  0  0  0  0  0  0  0  0
  -20.4060  -14.1055   22.4744 O   0  0  0  0  0  0  0  0  0  0  0  0
  -23.2174  -29.0776   23.4064 O   0  0  0  0  0  0  0  0  0  0  0  0
  -29.6733  -22.5142   15.2885 O   0  0  0  0  0  0  0  0  0  0  0  0
  -21.8241  -20.6779   21.4049 O   0  0  0  0  0  0  0  0  0  1  0  0
  -28.1678  -17.3350   16.4345 F   0  0  0  0  0  0  0  0  0  0  0  0
  -27.0989  -21.9350   16.1129 F   0  0  0  0  0  0  0  0  0  0  0  0
  1  2  1  0  0  0  0
  1  5  2  0  0  0  0
  2  6  2  0  0  0  0
  3  8  2  0  0  0  0
  3 17  1  0  0  0  0
  4  9  1  0  0  0  0
  4 17  2  0  0  0  0
  5 19  1  0  0  0  0
  6 21  1  0  0  0  0
  7 10  2  0  0  0  0
  7 20  1  0  0  0  0
  8 24  1  0  0  0  0
  9 24  2  0  0  0  0
 10 25  1  0  0  0  0
 11 12  2  0  0  0  0
 11 26  1  0  0  0  0
 12 27  1  0  0  0  0
 13 22  1  0  0  0  0
 13 25  2  0  0  0  0
 14 23  2  0  0  0  0
 14 30  1  0  0  0  0
 15 27  2  0  0  0  0
 15 28  1  0  0  0  0
 16 23  1  0  0  0  0
 16 64  2  0  0  0  0
 17 29  1  0  0  0  0
 18 29  1  0  0  0  0
 18 31  2  0  0  0  0
 18 32  1  0  0  0  0
 19 21  2  0  0  0  0
 19 37  1  0  0  0  0
 20 22  2  0  0  0  0
 20 38  1  0  0  0  0
 21 46  1  0  0  0  0
 22 39  1  0  0  0  0
 23 55  1  0  0  0  0
 24 81  1  0  0  0  0
 25 82  1  0  0  0  0
 26 28  2  0  0  0  0
 26 81  1  0  0  0  0
 27 83  1  0  0  0  0
 28 84  1  0  0  0  0
 29 65  2  0  0  0  0
 30 60  1  0  0  0  0
 30 66  2  0  0  0  0
 31 67  1  0  0  0  0
 31 70  1  0  0  0  0
 32 71  1  0  0  0  0
 32 76  2  0  0  0  0
 33 47  1  0  0  0  0
 33 72  1  0  0  0  0
 33 77  2  0  0  0  0
 34 61  1  0  0  0  0
 34 68  1  0  0  0  0
 34 78  2  0  0  0  0
 35 62  1  0  0  0  0
 35 73  1  0  0  0  0
 35 79  2  0  0  0  0
 36 69  1  0  0  0  0
 36 74  1  0  0  0  0
 36 80  2  0  0  0  0
 37 40  1  0  0  0  0
 38 47  1  0  0  0  0
 39 68  1  0  0  0  0
 40 42  1  0  0  0  0
 41 43  1  0  0  0  0
 41 44  1  0  0  0  0
 42 46  1  0  0  0  0
 43 48  1  0  0  0  0
 44 69  1  0  0  0  0
 45 48  1  0  0  0  0
 45 69  1  0  0  0  0
 46 72  1  0  0  0  0
 47 68  1  0  0  0  0
 48 67  1  0  0  0  0
 49 60  1  0  0  0  0
 50 62  1  0  0  0  0
 51 63  1  0  0  0  0
 52 63  1  0  0  0  0
 53 63  1  0  0  0  0
 54 75  1  0  0  0  0
 55 56  1  0  0  0  0
 56 57  1  0  0  0  0
 57 59  1  0  0  0  0
 58 60  1  0  0  0  0
 58 74  1  0  0  0  0
 59 82  1  0  0  0  0
 61 63  1  0  0  0  0
 61 73  1  0  0  0  0
 62 75  1  0  0  0  0
 64 66  1  0  0  0  0
 65 67  1  0  0  0  0
M  CHG  1  75   1
M  ISO  4  36 100  59 101  74 100  82 101
M  END
> <Batch ID>
0089

> <Smiles>
CNC(C)C(=O)NC(C(=O)N1Cc2cc([101O:1][101CH2:1]CCCc3cnnc(C(C)C[100NH:0][100C:0](=O)N4CCCC(n5nc(-c6ccc(Oc7ccc(F)cc7F)cc6)c(C(N)=O)c5N)C4)c3)ccc2CC1C(=O)NC1CCCc2ccccc21)C(C)(C)C

> <Shape>
0.217

> <Color>
0.060

> <Negative vol penalty>
0.000

$$$$

  -OEChem-04052319063D

 80 87  0     1  0  0  0  0  0999 V2000
  -31.7697  -26.0248   20.3308 C   0  0  0  0  0  0  0  0  0  0  0  0
  -31.0042  -25.2927   21.2313 C   0  0  0  0  0  0  0  0  0  0  0  0
  -25.3521  -29.3008   20.4053 C   0  0  0  0  0  0  0  0  0  0  0  0
  -25.3699  -26.9481   19.8562 C   0  0  0  0  0  0  0  0  0  0  0  0
  -31.6830  -25.7543   18.9668 C   0  0  0  0  0  0  0  0  0  0  0  0
  -30.1607  -24.2817   20.7692 C   0  0  0  0  0  0  0  0  0  0  0  0
  -26.1949  -20.7550   23.7628 C   0  0  0  0  0  0  0  0  0  0  0  0
  -26.7347  -29.2689   20.5871 C   0  0  0  0  0  0  0  0  0  0  0  0
  -26.7525  -26.9161   20.0379 C   0  0  0  0  0  0  0  0  0  0  0  0
  -24.8413  -20.7816   24.0955 C   0  0  0  0  0  0  0  0  0  0  0  0
  -29.5032  -29.2828   18.6460 C   0  0  0  0  0  0  0  0  0  0  0  0
  -30.2549  -30.3148   18.0843 C   0  0  0  0  0  0  0  0  0  0  0  0
  -24.3499  -19.3983   22.1812 C   0  0  0  0  0  0  0  0  0  0  0  0
  -31.0608  -30.9225   20.2794 C   0  0  0  0  0  0  0  0  0  0  0  0
  -24.6697  -28.1404   20.0399 C   0  0  0  0  0  0  0  0  0  0  0  0
  -22.5466  -28.4457   18.6591 C   0  0  0  0  0  0  0  0  0  0  0  0
  -30.8284  -24.7478   18.4876 C   0  0  0  0  0  0  0  0  0  0  0  0
  -26.6357  -20.0577   22.6288 C   0  0  0  0  0  0  0  0  0  0  0  0
  -30.0772  -23.9775   19.3984 C   0  0  0  0  0  0  0  0  0  0  0  0
  -25.7100  -19.3623   21.8378 C   0  0  0  0  0  0  0  0  0  0  0  0
  -27.4349  -28.0766   20.4033 C   0  0  0  0  0  0  0  0  0  0  0  0
  -23.9182  -20.1056   23.3030 C   0  0  0  0  0  0  0  0  0  0  0  0
  -29.5303  -29.0706   20.0244 C   0  0  0  0  0  0  0  0  0  0  0  0
  -31.0337  -31.1347   18.9010 C   0  0  0  0  0  0  0  0  0  0  0  0
  -30.3091  -29.8904   20.8411 C   0  0  0  0  0  0  0  0  0  0  0  0
  -23.2414  -28.1726   19.8525 C   0  0  0  0  0  0  0  0  0  0  0  0
  -21.2205  -28.3540   19.0051 C   0  0  0  0  0  0  0  0  0  0  0  0
  -23.0543  -28.7545   17.3543 C   0  0  0  0  0  0  0  0  0  0  0  0
  -28.0987  -20.8677   19.9256 C   0  0  0  0  0  0  0  0  0  0  0  0
  -28.1760  -17.6581   19.4623 C   0  0  0  0  0  0  0  0  0  0  0  0
  -26.8317  -14.5981   20.1521 C   0  0  0  0  0  0  0  0  0  0  0  0
  -18.3348  -25.4175   23.3526 C   0  0  0  0  0  0  0  0  0  0  0  0
  -30.7793  -24.4916   17.0019 C   0  0  0  0  0  0  0  0  0  0  0  0
  -28.1025  -20.0166   22.2987 C   0  0  0  0  0  0  0  0  0  0  0  0
  -26.1344  -18.5821   20.6214 C   0  0  0  0  0  0  0  0  0  0  0  0
  -29.5393  -23.7138   16.5734 C   0  0  0  0  0  0  0  0  0  0  0  0
  -18.2755  -28.9231   22.7326 C   0  0  0  0  0  0  0  0  0  0  0  0
  -29.3645  -22.4870   17.4559 C   0  0  0  0  0  0  0  0  0  0  0  0
  -19.4788  -29.1529   21.8165 C   0  0  0  0  0  0  0  0  0  0  0  0
  -18.5599  -27.8474   23.7786 C   0  0  0  0  0  0  0  0  0  0  0  0
  -20.2402  -26.7930   22.3163 C   0  0  0  0  0  0  0  0  0  0  0  0
  -29.1299  -22.8937   18.9163 C   0  0  1  0  0  0  0  0  0  0  0  0
  -28.3762  -19.7014   20.8314 C   0  0  1  0  0  0  0  0  0  0  0  0
  -19.9821  -27.8295   21.2093 C   0  0  2  0  0  0  0  0  0  0  0  0
  -27.0848  -12.1644   19.5950 C   0  0  0  0  0  0  0  0  0  0  0  0
  -26.8568  -18.1433   16.7541 C   0  0  0  0  0  0  0  0  0  0  0  0
  -26.2803  -15.7082   16.6769 C   0  0  0  0  0  0  0  0  0  0  0  0
  -28.6700  -16.4209   16.7376 C   0  0  0  0  0  0  0  0  0  0  0  0
  -17.2230  -21.9699   20.1266 C   0  0  0  0  0  0  0  0  0  0  0  0
  -19.3508  -20.7414   19.7079 C   0  0  0  0  0  0  0  0  0  0  0  0
  -19.3457  -23.2324   19.8765 C   0  0  0  0  0  0  0  0  0  0  0  0
  -27.3944  -13.8922   22.9706 C   0  0  0  0  0  0  0  0  0  0  0  0
  -20.6450  -21.5276   23.9486 C   0  0  0  0  0  0  0  0  0  0  0  0
  -20.4335  -21.7166   22.4385 C   0  0  0  0  0  0  0  0  0  0  0  0
  -18.2341  -22.9954   22.8211 C   0  0  0  0  0  0  0  0  0  0  0  0
  -22.1108  -21.2894   24.2971 C   0  0  0  0  0  0  0  0  0  1  0  0
  -27.2555  -16.6481   18.8208 C   0  0  1  0  0  0  0  0  0  0  0  0
  -27.4749  -13.2818   20.5499 C   0  0  2  0  0  0  0  0  0  0  0  0
  -18.9427  -21.8727   22.0257 C   0  0  1  0  0  0  0  0  0  0  0  0
  -27.2571  -16.7463   17.2691 C   0  0  0  0  0  0  0  0  0  0  0  0
  -18.7347  -21.9375   20.4570 C   0  0  0  0  0  0  0  0  0  0  0  0
  -22.4244  -27.9261   20.8800 N   0  0  0  0  0  0  0  0  0  0  0  0
  -21.2025  -28.0440   20.3332 N   0  0  0  0  0  0  0  0  0  0  0  0
  -27.5788  -18.5773   20.3365 N   0  0  0  0  0  0  0  0  0  0  0  0
  -19.0319  -26.6178   23.1374 N   0  0  0  0  0  0  0  0  0  0  0  0
  -20.0799  -28.5092   18.3000 N   0  0  0  0  0  0  0  0  0  0  0  0
  -24.4431  -28.8081   17.1732 N   0  0  0  0  0  0  0  0  0  0  0  0
  -29.1781  -21.7121   19.7490 N   0  0  0  0  0  0  0  0  0  0  0  0
  -27.6569  -15.3441   19.3374 N   0  0  0  0  0  0  0  0  0  0  0  0
  -18.8453  -24.3005   22.7027 N   0  0  0  0  0  0  0  0  0  0  0  0
  -27.0522  -12.8936   21.9253 N   0  3  0  0  0  0  0  0  0  0  0  0
  -22.2988  -28.9926   16.3817 O   0  0  0  0  0  0  0  0  0  0  0  0
  -26.9879  -20.9915   19.4231 O   0  0  0  0  0  0  0  0  0  0  0  0
  -29.3816  -17.6279   19.2029 O   0  0  0  0  0  0  0  0  0  0  0  0
  -25.7080  -14.9295   20.5236 O   0  0  0  0  0  0  0  0  0  0  0  0
  -17.3286  -25.3477   24.0665 O   0  0  0  0  0  0  0  0  0  0  0  0
  -28.7841  -28.0451   20.5804 O   0  0  0  0  0  0  0  0  0  0  0  0
  -22.5862  -20.1306   23.6274 O   0  0  0  0  0  0  0  0  0  1  0  0
  -31.7567  -32.1247   18.3613 F   0  0  0  0  0  0  0  0  0  0  0  0
  -30.3400  -29.6907   22.1658 F   0  0  0  0  0  0  0  0  0  0  0  0
  1  2  1  0  0  0  0
  1  5  2  0  0  0  0
  2  6  2  0  0  0  0
  3  8  2  0  0  0  0
  3 15  1  0  0  0  0
  4  9  1  0  0  0  0
  4 15  2  0  0  0  0
  5 17  1  0  0  0  0
  6 19  1  0  0  0  0
  7 10  2  0  0  0  0
  7 18  1  0  0  0  0
  8 21  1  0  0  0  0
  9 21  2  0  0  0  0
 10 22  1  0  0  0  0
 11 12  2  0  0  0  0
 11 23  1  0  0  0  0
 12 24  1  0  0  0  0
 13 20  1  0  0  0  0
 13 22  2  0  0  0  0
 14 24  2  0  0  0  0
 14 25  1  0  0  0  0
 15 26  1  0  0  0  0
 16 26  1  0  0  0  0
 16 27  2  0  0  0  0
 16 28  1  0  0  0  0
 17 19  2  0  0  0  0
 17 33  1  0  0  0  0
 18 20  2  0  0  0  0
 18 34  1  0  0  0  0
 19 42  1  0  0  0  0
 20 35  1  0  0  0  0
 21 77  1  0  0  0  0
 22 78  1  0  0  0  0
 23 25  2  0  0  0  0
 23 77  1  0  0  0  0
 24 79  1  0  0  0  0
 25 80  1  0  0  0  0
 26 62  2  0  0  0  0
 27 63  1  0  0  0  0
 27 66  1  0  0  0  0
 28 67  1  0  0  0  0
 28 72  2  0  0  0  0
 29 43  1  0  0  0  0
 29 68  1  0  0  0  0
 29 73  2  0  0  0  0
 30 57  1  0  0  0  0
 30 64  1  0  0  0  0
 30 74  2  0  0  0  0
 31 58  1  0  0  0  0
 31 69  1  0  0  0  0
 31 75  2  0  0  0  0
 32 65  1  0  0  0  0
 32 70  1  0  0  0  0
 32 76  2  0  0  0  0
 33 36  1  0  0  0  0
 34 43  1  0  0  0  0
 35 64  1  0  0  0  0
 36 38  1  0  0  0  0
 37 39  1  0  0  0  0
 37 40  1  0  0  0  0
 38 42  1  0  0  0  0
 39 44  1  0  0  0  0
 40 65  1  0  0  0  0
 41 44  1  0  0  0  0
 41 65  1  0  0  0  0
 42 68  1  0  0  0  0
 43 64  1  0  0  0  0
 44 63  1  0  0  0  0
 45 58  1  0  0  0  0
 46 60  1  0  0  0  0
 47 60  1  0  0  0  0
 48 60  1  0  0  0  0
 49 61  1  0  0  0  0
 50 61  1  0  0  0  0
 51 61  1  0  0  0  0
 52 71  1  0  0  0  0
 53 54  1  0  0  0  0
 53 56  1  0  0  0  0
 54 59  1  0  0  0  0
 55 59  1  0  0  0  0
 55 70  1  0  0  0  0
 56 78  1  0  0  0  0
 57 60  1  0  0  0  0
 57 69  1  0  0  0  0
 58 71  1  0  0  0  0
 59 61  1  0  0  0  0
 62 63  1  0  0  0  0
M  CHG  1  71   1
M  ISO  4  32 100  56 101  70 100  78 101
M  END
> <Batch ID>
0089

> <Smiles>
CNC(C)C(=O)NC(C(=O)N1Cc2cc([101O:1][101CH2:1]CCC(C[100NH:0][100C:0](=O)N3CCCC(n4nc(-c5ccc(Oc6ccc(F)cc6F)cc5)c(C(N)=O)c4N)C3)C(C)(C)C)ccc2CC1C(=O)NC1CCCc2ccccc21)C(C)(C)C

> <Shape>
0.202

> <Color>
0.060

> <Negative vol penalty>
0.000

$$$$

  -OEChem-04052319063D

 86 94  0     1  0  0  0  0  0999 V2000
  -19.3053  -22.6063   24.7571 C   0  0  0  0  0  0  0  0  0  0  0  0
  -20.6296  -22.1884   24.6735 C   0  0  0  0  0  0  0  0  0  0  0  0
  -27.5061  -13.3125   22.5523 C   0  0  0  0  0  0  0  0  0  0  0  0
  -26.8805  -12.9413   20.2484 C   0  0  0  0  0  0  0  0  0  0  0  0
  -18.8366  -23.6077   23.9077 C   0  0  0  0  0  0  0  0  0  0  0  0
  -21.4858  -22.7710   23.7397 C   0  0  0  0  0  0  0  0  0  0  0  0
  -28.3564  -24.5853   22.8343 C   0  0  0  0  0  0  0  0  0  0  0  0
  -26.9828  -12.0660   22.8953 C   0  0  0  0  0  0  0  0  0  0  0  0
  -26.3572  -11.6946   20.5914 C   0  0  0  0  0  0  0  0  0  0  0  0
  -29.4044  -24.4180   21.9301 C   0  0  0  0  0  0  0  0  0  0  0  0
  -24.5331   -8.5684   20.9218 C   0  0  0  0  0  0  0  0  0  0  0  0
  -23.2873   -8.2220   20.3987 C   0  0  0  0  0  0  0  0  0  0  0  0
  -28.5053  -26.1947   20.5685 C   0  0  0  0  0  0  0  0  0  0  0  0
  -22.2958  -10.1335   21.4942 C   0  0  0  0  0  0  0  0  0  0  0  0
  -27.2340  -23.0736   17.1943 C   0  0  0  0  0  0  0  0  0  0  0  0
  -27.4549  -13.7503   21.2288 C   0  0  0  0  0  0  0  0  0  0  0  0
  -29.3123  -15.3255   20.4697 C   0  0  0  0  0  0  0  0  0  0  0  0
  -19.6900  -24.2096   22.9696 C   0  0  0  0  0  0  0  0  0  0  0  0
  -27.3673  -25.5528   22.6063 C   0  0  0  0  0  0  0  0  0  0  0  0
  -21.0277  -23.7805   22.8761 C   0  0  0  0  0  0  0  0  0  0  0  0
  -27.4472  -26.3740   21.4726 C   0  0  0  0  0  0  0  0  0  0  0  0
  -26.4083  -11.2570   21.9149 C   0  0  0  0  0  0  0  0  0  0  0  0
  -29.4774  -25.2208   20.7956 C   0  0  0  0  0  0  0  0  0  0  0  0
  -24.6602   -9.6973   21.7312 C   0  0  0  0  0  0  0  0  0  0  0  0
  -22.1687   -9.0046   20.6848 C   0  0  0  0  0  0  0  0  0  0  0  0
  -23.5415  -10.4799   22.0173 C   0  0  0  0  0  0  0  0  0  0  0  0
  -27.9948  -15.0382   20.8740 C   0  0  0  0  0  0  0  0  0  0  0  0
  -28.3372  -22.7527   16.4298 C   0  0  0  0  0  0  0  0  0  0  0  0
  -26.0634  -23.2835   16.4945 C   0  0  0  0  0  0  0  0  0  0  0  0
  -29.3159  -16.6812   20.2494 C   0  0  0  0  0  0  0  0  0  0  0  0
  -27.1106  -22.8705   14.5197 C   0  0  0  0  0  0  0  0  0  0  0  0
  -30.4327  -14.4456   20.3077 C   0  0  0  0  0  0  0  0  0  0  0  0
  -24.2243  -25.4804   22.1376 C   0  0  0  0  0  0  0  0  0  0  0  0
  -24.5232  -28.7078   22.2676 C   0  0  0  0  0  0  0  0  0  0  0  0
  -26.5223  -31.4493   21.9010 C   0  0  0  0  0  0  0  0  0  0  0  0
  -25.0058  -20.4388   18.7800 C   0  0  0  0  0  0  0  0  0  0  0  0
  -19.1255  -25.2551   22.0407 C   0  0  0  0  0  0  0  0  0  0  0  0
  -26.2580  -25.7388   23.6050 C   0  0  0  0  0  0  0  0  0  0  0  0
  -26.4218  -27.4410   21.1924 C   0  0  0  0  0  0  0  0  0  0  0  0
  -20.1954  -26.0834   21.3339 C   0  0  0  0  0  0  0  0  0  0  0  0
  -27.1634  -20.7121   21.6727 C   0  0  0  0  0  0  0  0  0  0  0  0
  -21.2871  -25.1781   20.7725 C   0  0  0  0  0  0  0  0  0  0  0  0
  -27.7474  -19.3004   21.7510 C   0  0  0  0  0  0  0  0  0  0  0  0
  -25.7005  -20.6820   21.2398 C   0  0  0  0  0  0  0  0  0  0  0  0
  -26.0362  -18.5621   20.0286 C   0  0  0  0  0  0  0  0  0  0  0  0
  -21.9936  -24.4056   21.8931 C   0  0  1  0  0  0  0  0  0  0  0  0
  -25.0233  -26.4078   23.0089 C   0  0  1  0  0  0  0  0  0  0  0  0
  -27.5195  -18.5262   20.4392 C   0  0  2  0  0  0  0  0  0  0  0  0
  -27.0405  -22.7543   13.0346 C   0  0  0  0  0  0  0  0  0  0  0  0
  -26.4745  -33.9546   22.0376 C   0  0  0  0  0  0  0  0  0  0  0  0
  -31.1829  -24.1071   15.9220 C   0  0  0  0  0  0  0  0  0  0  0  0
  -22.5403  -22.7900   17.9640 C   0  0  0  0  0  0  0  0  0  0  0  0
  -23.0809  -28.8242   19.5812 C   0  0  0  0  0  0  0  0  0  0  0  0
  -23.8944  -31.1782   19.3254 C   0  0  0  0  0  0  0  0  0  0  0  0
  -22.3822  -30.5818   21.2175 C   0  0  0  0  0  0  0  0  0  0  0  0
  -28.5431  -31.4859   24.0630 C   0  0  0  0  0  0  0  0  0  0  0  0
  -29.6640  -22.5040   17.1059 C   0  0  0  0  0  0  0  0  0  0  0  0
  -24.8167  -23.6336   17.2357 C   0  0  0  0  0  0  0  0  0  0  0  0
  -31.5960  -23.5783   18.3753 C   0  0  0  0  0  0  0  0  0  0  0  0
  -31.0513  -23.7491   19.7892 C   0  0  0  0  0  0  0  0  0  1  0  0
  -24.7857  -29.7987   21.2576 C   0  0  1  0  0  0  0  0  0  0  0  0
  -26.7440  -32.6603   22.7892 C   0  0  2  0  0  0  0  0  0  0  0  0
  -30.5372  -23.7690   17.2707 C   0  0  1  0  0  0  0  0  0  0  0  0
  -23.9849  -22.4044   17.6614 C   0  0  1  0  0  0  0  0  0  0  0  0
  -23.5542  -30.0744   20.3494 C   0  0  0  0  0  0  0  0  0  0  0  0
  -27.2179  -16.1241   20.9094 N   0  0  0  0  0  0  0  0  0  0  0  0
  -28.3112  -22.6423   15.0854 N   0  0  0  0  0  0  0  0  0  0  0  0
  -25.9654  -23.1900   15.1521 N   0  0  0  0  0  0  0  0  0  0  0  0
  -28.0498  -17.1070   20.5247 N   0  0  0  0  0  0  0  0  0  0  0  0
  -25.3529  -27.5799   22.1953 N   0  0  0  0  0  0  0  0  0  0  0  0
  -25.5549  -19.9466   19.9757 N   0  0  0  0  0  0  0  0  0  0  0  0
  -30.2786  -17.5388   19.8490 N   0  0  0  0  0  0  0  0  0  0  0  0
  -30.2553  -13.0816   20.5764 N   0  0  0  0  0  0  0  0  0  0  0  0
  -22.9342  -25.2627   22.5824 N   0  0  0  0  0  0  0  0  0  0  0  0
  -25.2391  -30.9583   22.0178 N   0  0  0  0  0  0  0  0  0  0  0  0
  -24.5673  -21.7568   18.8157 N   0  0  0  0  0  0  0  0  0  0  0  0
  -28.1490  -32.6887   23.2852 N   0  3  0  0  0  0  0  0  0  0  0  0
  -31.5620  -14.8594   19.9515 O   0  0  0  0  0  0  0  0  0  0  0  0
  -24.7395  -24.9992   21.1353 O   0  0  0  0  0  0  0  0  0  0  0  0
  -23.6200  -28.8543   23.0949 O   0  0  0  0  0  0  0  0  0  0  0  0
  -27.3986  -30.9876   21.1734 O   0  0  0  0  0  0  0  0  0  0  0  0
  -24.9176  -19.7555   17.7541 O   0  0  0  0  0  0  0  0  0  0  0  0
  -25.8978  -10.0404   22.2492 O   0  0  0  0  0  0  0  0  0  0  0  0
  -30.4989  -25.0592   19.9111 O   0  0  0  0  0  0  0  0  0  1  0  0
  -20.9727   -8.6727   20.1811 F   0  0  0  0  0  0  0  0  0  0  0  0
  -23.6577  -11.5662   22.7933 F   0  0  0  0  0  0  0  0  0  0  0  0
  1  2  1  0  0  0  0
  1  5  2  0  0  0  0
  2  6  2  0  0  0  0
  3  8  2  0  0  0  0
  3 16  1  0  0  0  0
  4  9  1  0  0  0  0
  4 16  2  0  0  0  0
  5 18  1  0  0  0  0
  6 20  1  0  0  0  0
  7 10  2  0  0  0  0
  7 19  1  0  0  0  0
  8 22  1  0  0  0  0
  9 22  2  0  0  0  0
 10 23  1  0  0  0  0
 11 12  2  0  0  0  0
 11 24  1  0  0  0  0
 12 25  1  0  0  0  0
 13 21  1  0  0  0  0
 13 23  2  0  0  0  0
 14 25  2  0  0  0  0
 14 26  1  0  0  0  0
 15 28  1  0  0  0  0
 15 29  2  0  0  0  0
 16 27  1  0  0  0  0
 17 27  1  0  0  0  0
 17 30  2  0  0  0  0
 17 32  1  0  0  0  0
 18 20  2  0  0  0  0
 18 37  1  0  0  0  0
 19 21  2  0  0  0  0
 19 38  1  0  0  0  0
 20 46  1  0  0  0  0
 21 39  1  0  0  0  0
 22 83  1  0  0  0  0
 23 84  1  0  0  0  0
 24 26  2  0  0  0  0
 24 83  1  0  0  0  0
 25 85  1  0  0  0  0
 26 86  1  0  0  0  0
 27 66  2  0  0  0  0
 28 57  1  0  0  0  0
 28 67  2  0  0  0  0
 29 58  1  0  0  0  0
 29 68  1  0  0  0  0
 30 69  1  0  0  0  0
 30 72  1  0  0  0  0
 31 49  1  0  0  0  0
 31 67  1  0  0  0  0
 31 68  2  0  0  0  0
 32 73  1  0  0  0  0
 32 78  2  0  0  0  0
 33 47  1  0  0  0  0
 33 74  1  0  0  0  0
 33 79  2  0  0  0  0
 34 61  1  0  0  0  0
 34 70  1  0  0  0  0
 34 80  2  0  0  0  0
 35 62  1  0  0  0  0
 35 75  1  0  0  0  0
 35 81  2  0  0  0  0
 36 71  1  0  0  0  0
 36 76  1  0  0  0  0
 36 82  2  0  0  0  0
 37 40  1  0  0  0  0
 38 47  1  0  0  0  0
 39 70  1  0  0  0  0
 40 42  1  0  0  0  0
 41 43  1  0  0  0  0
 41 44  1  0  0  0  0
 42 46  1  0  0  0  0
 43 48  1  0  0  0  0
 44 71  1  0  0  0  0
 45 48  1  0  0  0  0
 45 71  1  0  0  0  0
 46 74  1  0  0  0  0
 47 70  1  0  0  0  0
 48 69  1  0  0  0  0
 50 62  1  0  0  0  0
 51 63  1  0  0  0  0
 52 64  1  0  0  0  0
 53 65  1  0  0  0  0
 54 65  1  0  0  0  0
 55 65  1  0  0  0  0
 56 77  1  0  0  0  0
 57 63  1  0  0  0  0
 58 64  1  0  0  0  0
 59 60  1  0  0  0  0
 59 63  1  0  0  0  0
 60 84  1  0  0  0  0
 61 65  1  0  0  0  0
 61 75  1  0  0  0  0
 62 77  1  0  0  0  0
 64 76  1  0  0  0  0
 66 69  1  0  0  0  0
M  CHG  1  77   1
M  ISO  4  36 100  60 101  76 100  84 101
M  END
> <Batch ID>
0089

> <Smiles>
CNC(C)C(=O)NC(C(=O)N1Cc2cc([101O:1][101CH2:1]CC(C)Cc3cc(CC(C)[100NH:0][100C:0](=O)N4CCCC(n5nc(-c6ccc(Oc7ccc(F)cc7F)cc6)c(C(N)=O)c5N)C4)nc(C)n3)ccc2CC1C(=O)NC1CCCc2ccccc21)C(C)(C)C

> <Shape>
0.215

> <Color>
0.085

> <Negative vol penalty>
0.000

$$$$

  -OEChem-04052319063D

 90 98  0     1  0  0  0  0  0999 V2000
  -26.7718  -30.1699   18.8333 C   0  0  0  0  0  0  0  0  0  0  0  0
  -26.5004  -28.8383   19.1312 C   0  0  0  0  0  0  0  0  0  0  0  0
  -23.3548   -9.8472   19.8489 C   0  0  0  0  0  0  0  0  0  0  0  0
  -23.8112   -9.9237   22.2202 C   0  0  0  0  0  0  0  0  0  0  0  0
  -28.0383  -30.5377   18.3810 C   0  0  0  0  0  0  0  0  0  0  0  0
  -27.4952  -27.8736   18.9760 C   0  0  0  0  0  0  0  0  0  0  0  0
  -28.3711  -22.8983   22.4379 C   0  0  0  0  0  0  0  0  0  0  0  0
  -22.6658   -8.6467   20.0203 C   0  0  0  0  0  0  0  0  0  0  0  0
  -23.1221   -8.7232   22.3916 C   0  0  0  0  0  0  0  0  0  0  0  0
  -28.0117  -21.5620   22.2678 C   0  0  0  0  0  0  0  0  0  0  0  0
  -23.4218   -5.3785   20.4353 C   0  0  0  0  0  0  0  0  0  0  0  0
  -23.6792   -4.3495   19.5296 C   0  0  0  0  0  0  0  0  0  0  0  0
  -30.1989  -21.0951   21.3637 C   0  0  0  0  0  0  0  0  0  0  0  0
  -29.3446  -18.8862   25.1244 C   0  0  0  0  0  0  0  0  0  0  0  0
  -21.3540   -4.3455   18.8734 C   0  0  0  0  0  0  0  0  0  0  0  0
  -23.9276  -10.4858   20.9489 C   0  0  0  0  0  0  0  0  0  0  0  0
  -24.1083  -13.0277   20.8330 C   0  0  0  0  0  0  0  0  0  0  0  0
  -29.0519  -29.5785   18.2293 C   0  0  0  0  0  0  0  0  0  0  0  0
  -29.6456  -23.3460   22.0615 C   0  0  0  0  0  0  0  0  0  0  0  0
  -28.7761  -28.2287   18.5199 C   0  0  0  0  0  0  0  0  0  0  0  0
  -30.5729  -22.4370   21.5325 C   0  0  0  0  0  0  0  0  0  0  0  0
  -29.3263  -17.5845   24.6358 C   0  0  0  0  0  0  0  0  0  0  0  0
  -30.2290  -19.2288   26.1412 C   0  0  0  0  0  0  0  0  0  0  0  0
  -22.5493   -8.0846   21.2916 C   0  0  0  0  0  0  0  0  0  0  0  0
  -28.9246  -20.6608   21.7279 C   0  0  0  0  0  0  0  0  0  0  0  0
  -22.1305   -5.8911   20.5601 C   0  0  0  0  0  0  0  0  0  0  0  0
  -22.6453   -3.8329   18.7486 C   0  0  0  0  0  0  0  0  0  0  0  0
  -21.0966   -5.3745   19.7792 C   0  0  0  0  0  0  0  0  0  0  0  0
  -24.6401  -11.7257   20.7725 C   0  0  0  0  0  0  0  0  0  0  0  0
  -30.2054  -16.6701   25.1933 C   0  0  0  0  0  0  0  0  0  0  0  0
  -31.0676  -18.2407   26.6314 C   0  0  0  0  0  0  0  0  0  0  0  0
  -25.1842  -13.8492   20.6003 C   0  0  0  0  0  0  0  0  0  0  0  0
  -22.7622  -13.4563   21.0778 C   0  0  0  0  0  0  0  0  0  0  0  0
  -30.7508  -25.4556   19.9563 C   0  0  0  0  0  0  0  0  0  0  0  0
  -33.5985  -24.7696   21.3500 C   0  0  0  0  0  0  0  0  0  0  0  0
  -35.4956  -22.5601   23.1292 C   0  0  0  0  0  0  0  0  0  0  0  0
  -31.0818  -13.1612   21.3725 C   0  0  0  0  0  0  0  0  0  0  0  0
  -30.3914  -30.0166   17.6922 C   0  0  0  0  0  0  0  0  0  0  0  0
  -30.0270  -24.7850   22.2763 C   0  0  0  0  0  0  0  0  0  0  0  0
  -31.9607  -22.8629   21.1312 C   0  0  0  0  0  0  0  0  0  0  0  0
  -31.5008  -28.9912   17.9121 C   0  0  0  0  0  0  0  0  0  0  0  0
  -29.3978  -13.9498   18.3362 C   0  0  0  0  0  0  0  0  0  0  0  0
  -31.0232  -27.5961   17.5219 C   0  0  0  0  0  0  0  0  0  0  0  0
  -27.9396  -13.5867   18.6218 C   0  0  0  0  0  0  0  0  0  0  0  0
  -30.3638  -12.9769   19.0088 C   0  0  0  0  0  0  0  0  0  0  0  0
  -28.6986  -12.4386   20.7441 C   0  0  0  0  0  0  0  0  0  0  0  0
  -29.8363  -27.1570   18.3879 C   0  0  1  0  0  0  0  0  0  0  0  0
  -31.1760  -25.2387   21.3810 C   0  0  1  0  0  0  0  0  0  0  0  0
  -27.6878  -13.4239   20.1328 C   0  0  2  0  0  0  0  0  0  0  0  0
  -28.9211  -22.4665   27.7879 C   0  0  0  0  0  0  0  0  0  0  0  0
  -37.4723  -21.6898   24.4070 C   0  0  0  0  0  0  0  0  0  0  0  0
  -31.3042  -19.0493   29.0054 C   0  0  0  0  0  0  0  0  0  0  0  0
  -33.0362  -19.6693   27.2873 C   0  0  0  0  0  0  0  0  0  0  0  0
  -32.9295  -17.3545   28.1882 C   0  0  0  0  0  0  0  0  0  0  0  0
  -34.6757  -24.1631   18.5604 C   0  0  0  0  0  0  0  0  0  0  0  0
  -36.6075  -22.9899   19.6374 C   0  0  0  0  0  0  0  0  0  0  0  0
  -36.2514  -25.4266   20.0353 C   0  0  0  0  0  0  0  0  0  0  0  0
  -34.4700  -23.6474   25.6836 C   0  0  0  0  0  0  0  0  0  0  0  0
  -28.3697  -17.2066   23.5332 C   0  0  0  0  0  0  0  0  0  0  0  0
  -30.2534  -20.6215   26.6693 C   0  0  0  0  0  0  0  0  0  0  0  0
  -30.2299  -15.2572   24.7094 C   0  0  0  0  0  0  0  0  0  0  0  0
  -28.8855  -21.0573   27.2179 C   0  0  0  0  0  0  0  0  0  0  0  0
  -29.0324  -17.0783   22.1600 C   0  0  0  0  0  0  0  0  0  0  0  0
  -31.6117  -14.7733   24.2298 C   0  0  0  0  0  0  0  0  0  0  0  0
  -31.6471  -13.3130   23.7843 C   0  0  0  0  0  0  0  0  0  0  0  0
  -29.6209  -18.3882   21.6487 C   0  0  0  0  0  0  0  0  0  1  0  0
  -34.6893  -23.7540   21.1097 C   0  0  1  0  0  0  0  0  0  0  0  0
  -36.3794  -22.7456   24.3495 C   0  0  2  0  0  0  0  0  0  0  0  0
  -32.0387  -18.5525   27.7227 C   0  0  0  0  0  0  0  0  0  0  0  0
  -35.5292  -24.0755   19.8414 C   0  0  0  0  0  0  0  0  0  0  0  0
  -25.9518  -11.7156   20.5209 N   0  0  0  0  0  0  0  0  0  0  0  0
  -31.0787  -16.9657   26.1820 N   0  0  0  0  0  0  0  0  0  0  0  0
  -26.2533  -13.0214   20.4211 N   0  0  0  0  0  0  0  0  0  0  0  0
  -32.2840  -24.2817   21.3549 N   0  0  0  0  0  0  0  0  0  0  0  0
  -30.0723  -12.8692   20.4404 N   0  0  0  0  0  0  0  0  0  0  0  0
  -25.3106  -15.1915   20.5334 N   0  0  0  0  0  0  0  0  0  0  0  0
  -21.7800  -12.4810   21.2975 N   0  0  0  0  0  0  0  0  0  0  0  0
  -30.2932  -26.7328   19.6939 N   0  0  0  0  0  0  0  0  0  0  0  0
  -35.4677  -23.6917   22.3419 N   0  0  0  0  0  0  0  0  0  0  0  0
  -30.7200  -13.0404   22.7087 N   0  0  0  0  0  0  0  0  0  0  0  0
  -35.5680  -22.6506   25.5959 N   0  3  0  0  0  0  0  0  0  0  0  0
  -22.4368  -14.6678   21.0846 O   0  0  0  0  0  0  0  0  0  0  0  0
  -30.8333  -24.5330   19.1540 O   0  0  0  0  0  0  0  0  0  0  0  0
  -33.9020  -25.9510   21.5339 O   0  0  0  0  0  0  0  0  0  0  0  0
  -34.8935  -21.5144   22.8957 O   0  0  0  0  0  0  0  0  0  0  0  0
  -32.2195  -13.5093   21.0388 O   0  0  0  0  0  0  0  0  0  0  0  0
  -21.8768   -6.9133   21.4592 O   0  0  0  0  0  0  0  0  0  0  0  0
  -28.5761  -19.3561   21.5602 O   0  0  0  0  0  0  0  0  0  1  0  0
  -22.8929   -2.8458   17.8778 F   0  0  0  0  0  0  0  0  0  0  0  0
  -19.8543   -5.8637   19.8938 F   0  0  0  0  0  0  0  0  0  0  0  0
  1  2  1  0  0  0  0
  1  5  2  0  0  0  0
  2  6  2  0  0  0  0
  3  8  2  0  0  0  0
  3 16  1  0  0  0  0
  4  9  1  0  0  0  0
  4 16  2  0  0  0  0
  5 18  1  0  0  0  0
  6 20  1  0  0  0  0
  7 10  2  0  0  0  0
  7 19  1  0  0  0  0
  8 24  1  0  0  0  0
  9 24  2  0  0  0  0
 10 25  1  0  0  0  0
 11 12  2  0  0  0  0
 11 26  1  0  0  0  0
 12 27  1  0  0  0  0
 13 21  1  0  0  0  0
 13 25  2  0  0  0  0
 14 22  2  0  0  0  0
 14 23  1  0  0  0  0
 15 27  2  0  0  0  0
 15 28  1  0  0  0  0
 16 29  1  0  0  0  0
 17 29  1  0  0  0  0
 17 32  2  0  0  0  0
 17 33  1  0  0  0  0
 18 20  2  0  0  0  0
 18 38  1  0  0  0  0
 19 21  2  0  0  0  0
 19 39  1  0  0  0  0
 20 47  1  0  0  0  0
 21 40  1  0  0  0  0
 22 30  1  0  0  0  0
 22 59  1  0  0  0  0
 23 31  2  0  0  0  0
 23 60  1  0  0  0  0
 24 87  1  0  0  0  0
 25 88  1  0  0  0  0
 26 28  2  0  0  0  0
 26 87  1  0  0  0  0
 27 89  1  0  0  0  0
 28 90  1  0  0  0  0
 29 71  2  0  0  0  0
 30 61  1  0  0  0  0
 30 72  2  0  0  0  0
 31 69  1  0  0  0  0
 31 72  1  0  0  0  0
 32 73  1  0  0  0  0
 32 76  1  0  0  0  0
 33 77  1  0  0  0  0
 33 82  2  0  0  0  0
 34 48  1  0  0  0  0
 34 78  1  0  0  0  0
 34 83  2  0  0  0  0
 35 67  1  0  0  0  0
 35 74  1  0  0  0  0
 35 84  2  0  0  0  0
 36 68  1  0  0  0  0
 36 79  1  0  0  0  0
 36 85  2  0  0  0  0
 37 75  1  0  0  0  0
 37 80  1  0  0  0  0
 37 86  2  0  0  0  0
 38 41  1  0  0  0  0
 39 48  1  0  0  0  0
 40 74  1  0  0  0  0
 41 43  1  0  0  0  0
 42 44  1  0  0  0  0
 42 45  1  0  0  0  0
 43 47  1  0  0  0  0
 44 49  1  0  0  0  0
 45 75  1  0  0  0  0
 46 49  1  0  0  0  0
 46 75  1  0  0  0  0
 47 78  1  0  0  0  0
 48 74  1  0  0  0  0
 49 73  1  0  0  0  0
 50 62  1  0  0  0  0
 51 68  1  0  0  0  0
 52 69  1  0  0  0  0
 53 69  1  0  0  0  0
 54 69  1  0  0  0  0
 55 70  1  0  0  0  0
 56 70  1  0  0  0  0
 57 70  1  0  0  0  0
 58 81  1  0  0  0  0
 59 63  1  0  0  0  0
 60 62  1  0  0  0  0
 61 64  1  0  0  0  0
 63 66  1  0  0  0  0
 64 65  1  0  0  0  0
 65 80  1  0  0  0  0
 66 88  1  0  0  0  0
 67 70  1  0  0  0  0
 67 79  1  0  0  0  0
 68 81  1  0  0  0  0
 71 73  1  0  0  0  0
M  CHG  1  81   1
M  ISO  4  37 100  66 101  80 100  88 101
M  END
> <Batch ID>
0089

> <Smiles>
CCCc1cc(CC[101CH2:1][101O:1]c2ccc3c(c2)CN(C(=O)C(NC(=O)C(C)NC)C(C)(C)C)C(C(=O)NC2CCCc4ccccc42)C3)c(CCC[100NH:0][100C:0](=O)N2CCCC(n3nc(-c4ccc(Oc5ccc(F)cc5F)cc4)c(C(N)=O)c3N)C2)nc1C(C)(C)C

> <Shape>
0.186

> <Color>
0.178

> <Negative vol penalty>
0.000

$$$$

  -OEChem-04052319063D

 87 95  0     1  0  0  0  0  0999 V2000
  -28.8667  -24.2875   17.1700 C   0  0  0  0  0  0  0  0  0  0  0  0
  -27.7141  -24.3696   17.9447 C   0  0  0  0  0  0  0  0  0  0  0  0
  -24.4506  -13.4055   18.3925 C   0  0  0  0  0  0  0  0  0  0  0  0
  -23.1222  -13.3287   20.4091 C   0  0  0  0  0  0  0  0  0  0  0  0
  -29.9970  -25.0232   17.5238 C   0  0  0  0  0  0  0  0  0  0  0  0
  -27.6915  -25.1867   19.0745 C   0  0  0  0  0  0  0  0  0  0  0  0
  -23.4557  -27.9438   19.3934 C   0  0  0  0  0  0  0  0  0  0  0  0
  -24.0929  -12.0880   18.1067 C   0  0  0  0  0  0  0  0  0  0  0  0
  -22.7644  -12.0112   20.1232 C   0  0  0  0  0  0  0  0  0  0  0  0
  -22.3074  -27.2966   19.8475 C   0  0  0  0  0  0  0  0  0  0  0  0
  -24.1531   -8.9397   20.3854 C   0  0  0  0  0  0  0  0  0  0  0  0
  -24.2026   -8.0141   21.4276 C   0  0  0  0  0  0  0  0  0  0  0  0
  -22.6481  -28.2431   22.0400 C   0  0  0  0  0  0  0  0  0  0  0  0
  -21.8412   -7.5818   21.1558 C   0  0  0  0  0  0  0  0  0  0  0  0
  -23.0644  -24.0637   22.9541 C   0  0  0  0  0  0  0  0  0  0  0  0
  -23.9653  -14.0259   19.5438 C   0  0  0  0  0  0  0  0  0  0  0  0
  -23.6613  -16.5566   19.4408 C   0  0  0  0  0  0  0  0  0  0  0  0
  -29.9850  -25.8572   18.6529 C   0  0  0  0  0  0  0  0  0  0  0  0
  -24.2162  -28.7381   20.2636 C   0  0  0  0  0  0  0  0  0  0  0  0
  -28.8231  -25.9332   19.4445 C   0  0  0  0  0  0  0  0  0  0  0  0
  -23.8043  -28.9014   21.5939 C   0  0  0  0  0  0  0  0  0  0  0  0
  -21.7710  -23.6031   22.9914 C   0  0  0  0  0  0  0  0  0  0  0  0
  -23.2498  -11.3908   18.9720 C   0  0  0  0  0  0  0  0  0  0  0  0
  -21.9050  -27.4438   21.1717 C   0  0  0  0  0  0  0  0  0  0  0  0
  -22.9476   -9.1865   19.7284 C   0  0  0  0  0  0  0  0  0  0  0  0
  -23.0467   -7.3351   21.8129 C   0  0  0  0  0  0  0  0  0  0  0  0
  -21.7917   -8.5075   20.1136 C   0  0  0  0  0  0  0  0  0  0  0  0
  -24.3350  -15.3867   19.8399 C   0  0  0  0  0  0  0  0  0  0  0  0
  -21.8804  -22.2249   22.7262 C   0  0  0  0  0  0  0  0  0  0  0  0
  -24.4071  -17.5804   19.9721 C   0  0  0  0  0  0  0  0  0  0  0  0
  -22.4680  -16.7047   18.6599 C   0  0  0  0  0  0  0  0  0  0  0  0
  -27.1964  -28.6387   21.3646 C   0  0  0  0  0  0  0  0  0  0  0  0
  -26.3972  -31.5008   22.6654 C   0  0  0  0  0  0  0  0  0  0  0  0
  -23.9407  -33.5954   23.7724 C   0  0  0  0  0  0  0  0  0  0  0  0
  -27.2450  -19.8423   24.2118 C   0  0  0  0  0  0  0  0  0  0  0  0
  -31.2464  -26.5968   19.0224 C   0  0  0  0  0  0  0  0  0  0  0  0
  -25.4376  -29.4511   19.7514 C   0  0  0  0  0  0  0  0  0  0  0  0
  -24.5745  -29.7594   22.5630 C   0  0  0  0  0  0  0  0  0  0  0  0
  -31.0187  -27.7278   20.0220 C   0  0  0  0  0  0  0  0  0  0  0  0
  -28.9864  -17.5467   22.1202 C   0  0  0  0  0  0  0  0  0  0  0  0
  -30.1339  -27.2547   21.1711 C   0  0  0  0  0  0  0  0  0  0  0  0
  -27.8758  -16.8727   21.3126 C   0  0  0  0  0  0  0  0  0  0  0  0
  -28.5448  -17.8392   23.5525 C   0  0  0  0  0  0  0  0  0  0  0  0
  -26.1810  -17.9339   22.8618 C   0  0  0  0  0  0  0  0  0  0  0  0
  -28.7515  -26.8276   20.6631 C   0  0  1  0  0  0  0  0  0  0  0  0
  -26.4210  -29.8215   20.8574 C   0  0  1  0  0  0  0  0  0  0  0  0
  -26.5601  -17.6699   21.3946 C   0  0  2  0  0  0  0  0  0  0  0  0
  -20.9079  -20.1208   23.7164 C   0  0  0  0  0  0  0  0  0  0  0  0
  -20.6739  -20.5774   21.2483 C   0  0  0  0  0  0  0  0  0  0  0  0
  -23.5982  -35.8513   24.8168 C   0  0  0  0  0  0  0  0  0  0  0  0
  -27.3062  -30.3897   25.3578 C   0  0  0  0  0  0  0  0  0  0  0  0
  -26.0837  -32.2714   26.4683 C   0  0  0  0  0  0  0  0  0  0  0  0
  -27.9820  -32.7583   24.9249 C   0  0  0  0  0  0  0  0  0  0  0  0
  -25.8648  -24.2869   24.6457 C   0  0  0  0  0  0  0  0  0  0  0  0
  -27.6109  -22.9726   23.4551 C   0  0  0  0  0  0  0  0  0  0  0  0
  -22.3529  -34.5511   21.4649 C   0  0  0  0  0  0  0  0  0  0  0  0
  -20.5222  -24.4050   23.2578 C   0  0  0  0  0  0  0  0  0  0  0  0
  -19.7033  -24.7055   22.0005 C   0  0  0  0  0  0  0  0  0  0  0  0
  -25.2762  -22.9611   22.5398 C   0  0  0  0  0  0  0  0  0  0  0  0
  -25.8180  -21.7902   24.7848 C   0  0  0  0  0  0  0  0  0  0  0  0
  -20.4433  -25.5765   20.9919 C   0  0  0  0  0  0  0  0  0  1  0  0
  -20.7950  -21.2318   22.6453 C   0  0  0  0  0  0  0  0  0  0  0  0
  -25.7852  -31.9483   23.9708 C   0  0  1  0  0  0  0  0  0  0  0  0
  -23.6819  -35.0689   23.5154 C   0  0  2  0  0  0  0  0  0  0  0  0
  -26.7756  -31.8242   25.1630 C   0  0  0  0  0  0  0  0  0  0  0  0
  -26.1168  -22.9883   23.8523 C   0  0  0  0  0  0  0  0  0  0  0  0
  -25.4250  -15.6423   20.5682 N   0  0  0  0  0  0  0  0  0  0  0  0
  -23.1436  -21.8354   22.5343 N   0  0  0  0  0  0  0  0  0  0  0  0
  -23.8397  -22.9758   22.6791 N   0  0  0  0  0  0  0  0  0  0  0  0
  -25.4420  -16.9846   20.6310 N   0  0  0  0  0  0  0  0  0  0  0  0
  -25.7651  -30.4309   22.0161 N   0  0  0  0  0  0  0  0  0  0  0  0
  -27.2923  -18.5989   23.5601 N   0  0  0  0  0  0  0  0  0  0  0  0
  -24.2720  -18.9231   19.9351 N   0  0  0  0  0  0  0  0  0  0  0  0
  -21.8274  -15.5489   18.1930 N   0  0  0  0  0  0  0  0  0  0  0  0
  -27.9318  -27.9889   20.3917 N   0  0  0  0  0  0  0  0  0  0  0  0
  -25.2875  -33.3011   23.7459 N   0  0  0  0  0  0  0  0  0  0  0  0
  -26.0216  -20.4993   24.1659 N   0  0  0  0  0  0  0  0  0  0  0  0
  -22.4006  -35.2485   22.7758 N   0  3  0  0  0  0  0  0  0  0  0  0
  -21.9934  -17.8292   18.3705 O   0  0  0  0  0  0  0  0  0  0  0  0
  -27.1335  -28.3388   22.5511 O   0  0  0  0  0  0  0  0  0  0  0  0
  -27.3949  -32.0839   22.2339 O   0  0  0  0  0  0  0  0  0  0  0  0
  -23.0386  -32.7869   23.9799 O   0  0  0  0  0  0  0  0  0  0  0  0
  -28.2223  -20.3331   24.7870 O   0  0  0  0  0  0  0  0  0  0  0  0
  -22.9003  -10.1052   18.6933 O   0  0  0  0  0  0  0  0  0  0  0  0
  -20.7849  -26.8126   21.6176 O   0  0  0  0  0  0  0  0  0  1  0  0
  -23.0947   -6.4451   22.8127 F   0  0  0  0  0  0  0  0  0  0  0  0
  -20.6309   -8.7395   19.4854 F   0  0  0  0  0  0  0  0  0  0  0  0
  1  2  1  0  0  0  0
  1  5  2  0  0  0  0
  2  6  2  0  0  0  0
  3  8  2  0  0  0  0
  3 16  1  0  0  0  0
  4  9  1  0  0  0  0
  4 16  2  0  0  0  0
  5 18  1  0  0  0  0
  6 20  1  0  0  0  0
  7 10  2  0  0  0  0
  7 19  1  0  0  0  0
  8 23  1  0  0  0  0
  9 23  2  0  0  0  0
 10 24  1  0  0  0  0
 11 12  2  0  0  0  0
 11 25  1  0  0  0  0
 12 26  1  0  0  0  0
 13 21  1  0  0  0  0
 13 24  2  0  0  0  0
 14 26  2  0  0  0  0
 14 27  1  0  0  0  0
 15 22  2  0  0  0  0
 15 69  1  0  0  0  0
 16 28  1  0  0  0  0
 17 28  1  0  0  0  0
 17 30  2  0  0  0  0
 17 31  1  0  0  0  0
 18 20  2  0  0  0  0
 18 36  1  0  0  0  0
 19 21  2  0  0  0  0
 19 37  1  0  0  0  0
 20 45  1  0  0  0  0
 21 38  1  0  0  0  0
 22 29  1  0  0  0  0
 22 57  1  0  0  0  0
 23 84  1  0  0  0  0
 24 85  1  0  0  0  0
 25 27  2  0  0  0  0
 25 84  1  0  0  0  0
 26 86  1  0  0  0  0
 27 87  1  0  0  0  0
 28 67  2  0  0  0  0
 29 62  1  0  0  0  0
 29 68  2  0  0  0  0
 30 70  1  0  0  0  0
 30 73  1  0  0  0  0
 31 74  1  0  0  0  0
 31 79  2  0  0  0  0
 32 46  1  0  0  0  0
 32 75  1  0  0  0  0
 32 80  2  0  0  0  0
 33 63  1  0  0  0  0
 33 71  1  0  0  0  0
 33 81  2  0  0  0  0
 34 64  1  0  0  0  0
 34 76  1  0  0  0  0
 34 82  2  0  0  0  0
 35 72  1  0  0  0  0
 35 77  1  0  0  0  0
 35 83  2  0  0  0  0
 36 39  1  0  0  0  0
 37 46  1  0  0  0  0
 38 71  1  0  0  0  0
 39 41  1  0  0  0  0
 40 42  1  0  0  0  0
 40 43  1  0  0  0  0
 41 45  1  0  0  0  0
 42 47  1  0  0  0  0
 43 72  1  0  0  0  0
 44 47  1  0  0  0  0
 44 72  1  0  0  0  0
 45 75  1  0  0  0  0
 46 71  1  0  0  0  0
 47 70  1  0  0  0  0
 48 62  1  0  0  0  0
 49 62  1  0  0  0  0
 50 64  1  0  0  0  0
 51 65  1  0  0  0  0
 52 65  1  0  0  0  0
 53 65  1  0  0  0  0
 54 66  1  0  0  0  0
 55 66  1  0  0  0  0
 56 78  1  0  0  0  0
 57 58  1  0  0  0  0
 58 61  1  0  0  0  0
 59 66  1  0  0  0  0
 59 69  1  0  0  0  0
 60 66  1  0  0  0  0
 60 77  1  0  0  0  0
 61 85  1  0  0  0  0
 63 65  1  0  0  0  0
 63 76  1  0  0  0  0
 64 78  1  0  0  0  0
 67 70  1  0  0  0  0
 68 69  1  0  0  0  0
M  CHG  1  78   1
M  ISO  4  35 100  61 101  77 100  85 101
M  END
> <Batch ID>
0089

> <Smiles>
CNC(C)C(=O)NC(C(=O)N1Cc2cc([101O:1][101CH2:1]CCc3cn(CC(C)(C)C[100NH:0][100C:0](=O)N4CCCC(n5nc(-c6ccc(Oc7ccc(F)cc7F)cc6)c(C(N)=O)c5N)C4)nc3C(C)C)ccc2CC1C(=O)NC1CCCc2ccccc21)C(C)(C)C

> <Shape>
0.246

> <Color>
0.065

> <Negative vol penalty>
0.000

$$$$

  -OEChem-04052319063D

 85 93  0     1  0  0  0  0  0999 V2000
  -26.2667  -11.6075   34.1192 C   0  0  0  0  0  0  0  0  0  0  0  0
  -25.7877  -12.1357   32.9246 C   0  0  0  0  0  0  0  0  0  0  0  0
  -23.0740   -9.8690   19.9416 C   0  0  0  0  0  0  0  0  0  0  0  0
  -23.8385   -9.8744   22.2334 C   0  0  0  0  0  0  0  0  0  0  0  0
  -26.1870  -12.3561   35.2927 C   0  0  0  0  0  0  0  0  0  0  0  0
  -25.2276  -13.4125   32.9031 C   0  0  0  0  0  0  0  0  0  0  0  0
  -26.8585  -16.1838   28.9910 C   0  0  0  0  0  0  0  0  0  0  0  0
  -22.3314   -8.7151   20.1920 C   0  0  0  0  0  0  0  0  0  0  0  0
  -23.0958   -8.7205   22.4839 C   0  0  0  0  0  0  0  0  0  0  0  0
  -26.2912  -15.9218   27.7447 C   0  0  0  0  0  0  0  0  0  0  0  0
  -19.8695   -7.9200   23.0922 C   0  0  0  0  0  0  0  0  0  0  0  0
  -19.1149   -7.8785   24.2646 C   0  0  0  0  0  0  0  0  0  0  0  0
  -24.8376  -17.8283   28.0123 C   0  0  0  0  0  0  0  0  0  0  0  0
  -28.4993  -17.2747   24.2942 C   0  0  0  0  0  0  0  0  0  0  0  0
  -20.3591   -5.9412   24.9967 C   0  0  0  0  0  0  0  0  0  0  0  0
  -23.8276  -10.4486   20.9623 C   0  0  0  0  0  0  0  0  0  0  0  0
  -24.1675  -12.9741   20.8439 C   0  0  0  0  0  0  0  0  0  0  0  0
  -25.6344  -13.6466   35.2837 C   0  0  0  0  0  0  0  0  0  0  0  0
  -26.4113  -17.2654   29.7634 C   0  0  0  0  0  0  0  0  0  0  0  0
  -25.1391  -14.1786   34.0779 C   0  0  0  0  0  0  0  0  0  0  0  0
  -25.4027  -18.1034   29.2670 C   0  0  0  0  0  0  0  0  0  0  0  0
  -27.5840  -18.2313   24.6967 C   0  0  0  0  0  0  0  0  0  0  0  0
  -22.3423   -8.1409   21.4631 C   0  0  0  0  0  0  0  0  0  0  0  0
  -25.2786  -16.7424   27.2565 C   0  0  0  0  0  0  0  0  0  0  0  0
  -20.8688   -6.9721   22.8720 C   0  0  0  0  0  0  0  0  0  0  0  0
  -19.3597   -6.8891   25.2168 C   0  0  0  0  0  0  0  0  0  0  0  0
  -21.1136   -5.9827   23.8243 C   0  0  0  0  0  0  0  0  0  0  0  0
  -24.5953  -11.6403   20.7041 C   0  0  0  0  0  0  0  0  0  0  0  0
  -29.7761  -17.3431   24.8142 C   0  0  0  0  0  0  0  0  0  0  0  0
  -28.0061  -19.1929   25.5927 C   0  0  0  0  0  0  0  0  0  0  0  0
  -25.2584  -13.7247   20.4791 C   0  0  0  0  0  0  0  0  0  0  0  0
  -22.8975  -13.4887   21.2659 C   0  0  0  0  0  0  0  0  0  0  0  0
  -25.0421  -17.5706   32.6158 C   0  0  0  0  0  0  0  0  0  0  0  0
  -25.4505  -20.7367   32.0404 C   0  0  0  0  0  0  0  0  0  0  0  0
  -25.8516  -23.2376   29.7532 C   0  0  0  0  0  0  0  0  0  0  0  0
  -30.7418  -14.7472   20.6573 C   0  0  0  0  0  0  0  0  0  0  0  0
  -25.5267  -14.3992   36.5863 C   0  0  0  0  0  0  0  0  0  0  0  0
  -27.0521  -17.5504   31.0941 C   0  0  0  0  0  0  0  0  0  0  0  0
  -24.9011  -19.2894   30.0482 C   0  0  0  0  0  0  0  0  0  0  0  0
  -25.2603  -15.8915   36.4072 C   0  0  0  0  0  0  0  0  0  0  0  0
  -29.6010  -12.3641   18.2707 C   0  0  0  0  0  0  0  0  0  0  0  0
  -24.1500  -16.1168   35.3858 C   0  0  0  0  0  0  0  0  0  0  0  0
  -28.1646  -12.0691   18.7062 C   0  0  0  0  0  0  0  0  0  0  0  0
  -30.5204  -12.5845   19.4699 C   0  0  0  0  0  0  0  0  0  0  0  0
  -28.6210  -13.3130   20.8610 C   0  0  0  0  0  0  0  0  0  0  0  0
  -24.5473  -15.5696   34.0094 C   0  0  1  0  0  0  0  0  0  0  0  0
  -26.1636  -18.3744   32.0209 C   0  0  1  0  0  0  0  0  0  0  0  0
  -27.6446  -13.1388   19.6852 C   0  0  2  0  0  0  0  0  0  0  0  0
  -27.0756  -20.2560   26.0706 C   0  0  0  0  0  0  0  0  0  0  0  0
  -26.1210  -25.7267   29.5828 C   0  0  0  0  0  0  0  0  0  0  0  0
  -24.9561  -14.5232   24.6830 C   0  0  0  0  0  0  0  0  0  0  0  0
  -22.4725  -21.0948   32.6003 C   0  0  0  0  0  0  0  0  0  0  0  0
  -22.6095  -23.3450   31.5112 C   0  0  0  0  0  0  0  0  0  0  0  0
  -23.9377  -22.8747   33.5697 C   0  0  0  0  0  0  0  0  0  0  0  0
  -28.5073  -22.9791   28.4727 C   0  0  0  0  0  0  0  0  0  0  0  0
  -26.1754  -18.2020   24.1594 C   0  0  0  0  0  0  0  0  0  0  0  0
  -30.7998  -16.3371   24.4127 C   0  0  0  0  0  0  0  0  0  0  0  0
  -25.6646  -16.7899   23.8379 C   0  0  0  0  0  0  0  0  0  0  0  0
  -31.6291  -16.7288   23.1732 C   0  0  0  0  0  0  0  0  0  0  0  0
  -30.8087  -16.8967   21.8960 C   0  0  0  0  0  0  0  0  0  0  0  0
  -24.6297  -21.8178   31.3797 C   0  0  1  0  0  0  0  0  0  0  0  0
  -26.8380  -24.3893   29.6825 C   0  0  2  0  0  0  0  0  0  0  0  0
  -25.5569  -15.8711   25.0612 C   0  0  1  0  0  0  0  0  0  1  0  0
  -23.4202  -22.2597   32.2511 C   0  0  0  0  0  0  0  0  0  0  0  0
  -25.8594  -11.5457   20.2832 N   0  0  0  0  0  0  0  0  0  0  0  0
  -30.1617  -18.2954   25.6897 N   0  0  0  0  0  0  0  0  0  0  0  0
  -29.2620  -19.2354   26.0855 N   0  0  0  0  0  0  0  0  0  0  0  0
  -26.2352  -12.8296   20.1553 N   0  0  0  0  0  0  0  0  0  0  0  0
  -25.5548  -19.5228   31.3466 N   0  0  0  0  0  0  0  0  0  0  0  0
  -29.9709  -13.6118   20.3579 N   0  0  0  0  0  0  0  0  0  0  0  0
  -25.4678  -15.0563   20.4069 N   0  0  0  0  0  0  0  0  0  0  0  0
  -21.8869  -12.5786   21.6043 N   0  0  0  0  0  0  0  0  0  0  0  0
  -25.4612  -16.4771   33.3494 N   0  0  0  0  0  0  0  0  0  0  0  0
  -25.5585  -22.8954   31.0563 N   0  0  0  0  0  0  0  0  0  0  0  0
  -30.1438  -15.6749   21.5014 N   0  0  0  0  0  0  0  0  0  0  0  0
  -27.7233  -24.2409   28.4929 N   0  3  0  0  0  0  0  0  0  0  0  0
  -22.6605  -14.7191   21.3248 O   0  0  0  0  0  0  0  0  0  0  0  0
  -23.8825  -17.9176   32.4247 O   0  0  0  0  0  0  0  0  0  0  0  0
  -25.9854  -20.9634   33.1286 O   0  0  0  0  0  0  0  0  0  0  0  0
  -25.3847  -22.6981   28.7524 O   0  0  0  0  0  0  0  0  0  0  0  0
  -31.8767  -14.9239   20.2016 O   0  0  0  0  0  0  0  0  0  0  0  0
  -21.6176   -7.0151   21.7079 O   0  0  0  0  0  0  0  0  0  0  0  0
  -24.7227  -16.4885   26.0406 O   0  0  0  0  0  0  0  0  0  1  0  0
  -18.6361   -6.8503   26.3434 F   0  0  0  0  0  0  0  0  0  0  0  0
  -22.0731   -5.0701   23.6189 F   0  0  0  0  0  0  0  0  0  0  0  0
  1  2  1  0  0  0  0
  1  5  2  0  0  0  0
  2  6  2  0  0  0  0
  3  8  2  0  0  0  0
  3 16  1  0  0  0  0
  4  9  1  0  0  0  0
  4 16  2  0  0  0  0
  5 18  1  0  0  0  0
  6 20  1  0  0  0  0
  7 10  2  0  0  0  0
  7 19  1  0  0  0  0
  8 23  1  0  0  0  0
  9 23  2  0  0  0  0
 10 24  1  0  0  0  0
 11 12  2  0  0  0  0
 11 25  1  0  0  0  0
 12 26  1  0  0  0  0
 13 21  1  0  0  0  0
 13 24  2  0  0  0  0
 14 22  1  0  0  0  0
 14 29  2  0  0  0  0
 15 26  2  0  0  0  0
 15 27  1  0  0  0  0
 16 28  1  0  0  0  0
 17 28  1  0  0  0  0
 17 31  2  0  0  0  0
 17 32  1  0  0  0  0
 18 20  2  0  0  0  0
 18 37  1  0  0  0  0
 19 21  2  0  0  0  0
 19 38  1  0  0  0  0
 20 46  1  0  0  0  0
 21 39  1  0  0  0  0
 22 30  2  0  0  0  0
 22 56  1  0  0  0  0
 23 82  1  0  0  0  0
 24 83  1  0  0  0  0
 25 27  2  0  0  0  0
 25 82  1  0  0  0  0
 26 84  1  0  0  0  0
 27 85  1  0  0  0  0
 28 65  2  0  0  0  0
 29 57  1  0  0  0  0
 29 66  1  0  0  0  0
 30 49  1  0  0  0  0
 30 67  1  0  0  0  0
 31 68  1  0  0  0  0
 31 71  1  0  0  0  0
 32 72  1  0  0  0  0
 32 77  2  0  0  0  0
 33 47  1  0  0  0  0
 33 73  1  0  0  0  0
 33 78  2  0  0  0  0
 34 61  1  0  0  0  0
 34 69  1  0  0  0  0
 34 79  2  0  0  0  0
 35 62  1  0  0  0  0
 35 74  1  0  0  0  0
 35 80  2  0  0  0  0
 36 70  1  0  0  0  0
 36 75  1  0  0  0  0
 36 81  2  0  0  0  0
 37 40  1  0  0  0  0
 38 47  1  0  0  0  0
 39 69  1  0  0  0  0
 40 42  1  0  0  0  0
 41 43  1  0  0  0  0
 41 44  1  0  0  0  0
 42 46  1  0  0  0  0
 43 48  1  0  0  0  0
 44 70  1  0  0  0  0
 45 48  1  0  0  0  0
 45 70  1  0  0  0  0
 46 73  1  0  0  0  0
 47 69  1  0  0  0  0
 48 68  1  0  0  0  0
 50 62  1  0  0  0  0
 51 63  1  0  0  0  0
 52 64  1  0  0  0  0
 53 64  1  0  0  0  0
 54 64  1  0  0  0  0
 55 76  1  0  0  0  0
 56 58  1  0  0  0  0
 57 59  1  0  0  0  0
 58 63  1  0  0  0  0
 59 60  1  0  0  0  0
 60 75  1  0  0  0  0
 61 64  1  0  0  0  0
 61 74  1  0  0  0  0
 62 76  1  0  0  0  0
 63 83  1  0  0  0  0
 65 68  1  0  0  0  0
 66 67  2  0  0  0  0
M  CHG  1  76   1
M  ISO  4  36 100  63 101  75 100  83 101
M  END
> <Batch ID>
0089

> <Smiles>
CNC(C)C(=O)NC(C(=O)N1Cc2cc([101O:1][101CH:1](C)CCc3cc(CCC[100NH:0][100C:0](=O)N4CCCC(n5nc(-c6ccc(Oc7ccc(F)cc7F)cc6)c(C(N)=O)c5N)C4)nnc3C)ccc2CC1C(=O)NC1CCCc2ccccc21)C(C)(C)C

> <Shape>
0.162

> <Color>
0.190

> <Negative vol penalty>
0.000

$$$$

  -OEChem-04052319063D

 89 97  0     1  0  0  0  0  0999 V2000
  -16.5366  -30.0862   23.8302 C   0  0  0  0  0  0  0  0  0  0  0  0
  -16.9150  -28.7499   23.7488 C   0  0  0  0  0  0  0  0  0  0  0  0
  -29.8974  -20.7466   19.3812 C   0  0  0  0  0  0  0  0  0  0  0  0
  -27.8378  -20.6689   18.1207 C   0  0  0  0  0  0  0  0  0  0  0  0
  -17.3633  -31.0770   23.3022 C   0  0  0  0  0  0  0  0  0  0  0  0
  -18.1199  -28.4036   23.1383 C   0  0  0  0  0  0  0  0  0  0  0  0
  -21.8581  -23.8147   24.7110 C   0  0  0  0  0  0  0  0  0  0  0  0
  -30.3644  -21.7691   18.5553 C   0  0  0  0  0  0  0  0  0  0  0  0
  -28.3047  -21.6915   17.2948 C   0  0  0  0  0  0  0  0  0  0  0  0
  -22.0265  -22.5266   24.2048 C   0  0  0  0  0  0  0  0  0  0  0  0
  -29.9161  -25.1040   18.2236 C   0  0  0  0  0  0  0  0  0  0  0  0
  -30.5250  -26.2016   18.8320 C   0  0  0  0  0  0  0  0  0  0  0  0
  -23.8564  -23.3082   22.8411 C   0  0  0  0  0  0  0  0  0  0  0  0
  -18.8188  -16.6379   19.2147 C   0  0  0  0  0  0  0  0  0  0  0  0
  -32.5608  -25.7479   17.6126 C   0  0  0  0  0  0  0  0  0  0  0  0
  -28.6341  -20.1965   19.1639 C   0  0  0  0  0  0  0  0  0  0  0  0
  -27.4162  -19.2786   21.2088 C   0  0  0  0  0  0  0  0  0  0  0  0
  -18.5835  -30.7434   22.6936 C   0  0  0  0  0  0  0  0  0  0  0  0
  -22.6820  -24.8632   24.2772 C   0  0  0  0  0  0  0  0  0  0  0  0
  -18.9631  -29.3908   22.6006 C   0  0  0  0  0  0  0  0  0  0  0  0
  -23.6981  -24.6081   23.3452 C   0  0  0  0  0  0  0  0  0  0  0  0
  -17.9460  -15.5344   19.3806 C   0  0  0  0  0  0  0  0  0  0  0  0
  -29.5681  -22.2415   17.5121 C   0  0  0  0  0  0  0  0  0  0  0  0
  -23.0239  -22.2737   23.2676 C   0  0  0  0  0  0  0  0  0  0  0  0
  -30.6295  -24.3283   17.3098 C   0  0  0  0  0  0  0  0  0  0  0  0
  -31.8474  -26.5236   18.5264 C   0  0  0  0  0  0  0  0  0  0  0  0
  -31.9519  -24.6503   17.0043 C   0  0  0  0  0  0  0  0  0  0  0  0
  -28.1515  -19.1399   20.0163 C   0  0  0  0  0  0  0  0  0  0  0  0
  -19.9057  -16.4296   20.0349 C   0  0  0  0  0  0  0  0  0  0  0  0
  -18.5259  -14.6854   20.2972 C   0  0  0  0  0  0  0  0  0  0  0  0
  -27.2040  -17.9896   21.6332 C   0  0  0  0  0  0  0  0  0  0  0  0
  -26.9652  -20.4663   21.8733 C   0  0  0  0  0  0  0  0  0  0  0  0
  -22.1993  -27.6148   22.7608 C   0  0  0  0  0  0  0  0  0  0  0  0
  -25.7564  -12.7108   20.4811 C   0  0  0  0  0  0  0  0  0  0  0  0
  -25.3549  -28.0553   23.3695 C   0  0  0  0  0  0  0  0  0  0  0  0
  -28.3988  -26.6634   24.0363 C   0  0  0  0  0  0  0  0  0  0  0  0
  -19.4215  -31.8454   22.0952 C   0  0  0  0  0  0  0  0  0  0  0  0
  -22.5048  -26.2415   24.8528 C   0  0  0  0  0  0  0  0  0  0  0  0
  -24.6222  -25.6950   22.8622 C   0  0  0  0  0  0  0  0  0  0  0  0
  -20.8585  -31.4250   21.7981 C   0  0  0  0  0  0  0  0  0  0  0  0
  -29.1949  -13.6246   20.0549 C   0  0  0  0  0  0  0  0  0  0  0  0
  -20.8839  -30.0752   21.0880 C   0  0  0  0  0  0  0  0  0  0  0  0
  -29.1654  -15.1523   20.0745 C   0  0  0  0  0  0  0  0  0  0  0  0
  -27.9485  -13.0506   19.3885 C   0  0  0  0  0  0  0  0  0  0  0  0
  -26.6334  -15.0519   20.0106 C   0  0  0  0  0  0  0  0  0  0  0  0
  -20.2742  -28.9773   21.9680 C   0  0  1  0  0  0  0  0  0  0  0  0
  -23.0671  -27.3403   23.9563 C   0  0  1  0  0  0  0  0  0  0  0  0
  -27.8602  -15.6720   20.7027 C   0  0  2  0  0  0  0  0  0  0  0  0
  -18.0481  -13.3934   20.8344 C   0  0  0  0  0  0  0  0  0  0  0  0
  -16.7987  -15.2236   17.1577 C   0  0  0  0  0  0  0  0  0  0  0  0
  -15.6192  -16.4370   19.0263 C   0  0  0  0  0  0  0  0  0  0  0  0
  -30.7975  -27.2758   24.4468 C   0  0  0  0  0  0  0  0  0  0  0  0
  -25.7290  -28.5792   20.3870 C   0  0  0  0  0  0  0  0  0  0  0  0
  -28.1888  -28.2393   20.7068 C   0  0  0  0  0  0  0  0  0  0  0  0
  -27.0257  -30.1053   21.8849 C   0  0  0  0  0  0  0  0  0  0  0  0
  -28.3603  -25.4720   26.7452 C   0  0  0  0  0  0  0  0  0  0  0  0
  -21.5751  -11.9838   23.0552 C   0  0  0  0  0  0  0  0  0  0  0  0
  -21.1299  -17.2829   20.2518 C   0  0  0  0  0  0  0  0  0  0  0  0
  -24.5315  -13.3362   21.0994 C   0  0  0  0  0  0  0  0  0  0  0  0
  -20.9777  -18.3084   21.3807 C   0  0  0  0  0  0  0  0  0  0  0  0
  -22.1996  -19.2151   21.5346 C   0  0  0  0  0  0  0  0  0  0  0  0
  -20.6348  -14.6583   21.6450 C   0  0  0  0  0  0  0  0  0  0  0  0
  -23.5597  -12.2733   21.5793 C   0  0  0  0  0  0  0  0  0  0  0  0
  -21.4506  -13.5010   21.0842 C   0  0  0  0  0  0  0  0  0  0  0  0
  -22.0283  -20.1928   22.6893 C   0  0  0  0  0  0  0  0  0  1  0  0
  -16.6543  -15.3378   18.6929 C   0  0  0  0  0  0  0  0  0  0  0  0
  -26.6392  -27.7260   22.6474 C   0  0  1  0  0  0  0  0  0  0  0  0
  -29.4472  -26.9888   25.0848 C   0  0  2  0  0  0  0  0  0  0  0  0
  -26.8772  -28.6422   21.4140 C   0  0  0  0  0  0  0  0  0  0  0  0
  -28.3905  -17.8636   19.7034 N   0  0  0  0  0  0  0  0  0  0  0  0
  -19.7166  -15.2398   20.6883 N   0  0  0  0  0  0  0  0  0  0  0  0
  -27.8021  -17.1885   20.7055 N   0  0  0  0  0  0  0  0  0  0  0  0
  -24.4050  -27.0272   23.4499 N   0  0  0  0  0  0  0  0  0  0  0  0
  -26.7301  -13.5856   19.9989 N   0  0  0  0  0  0  0  0  0  0  0  0
  -26.5662  -17.4747   22.7058 N   0  0  0  0  0  0  0  0  0  0  0  0
  -27.2696  -21.7088   21.3007 N   0  0  0  0  0  0  0  0  0  0  0  0
  -21.2177  -28.5616   22.9836 N   0  0  0  0  0  0  0  0  0  0  0  0
  -27.6978  -27.7860   23.6495 N   0  0  0  0  0  0  0  0  0  0  0  0
  -29.6069  -25.8472   26.0294 N   0  3  0  0  0  0  0  0  0  0  0  0
  -22.3193  -12.9250   22.1399 N   0  3  1  0  0  0  0  0  0  0  0  0
  -26.3257  -20.4275   22.9518 O   0  0  0  0  0  0  0  0  0  0  0  0
  -22.4060  -27.0134   21.7133 O   0  0  0  0  0  0  0  0  0  0  0  0
  -25.8448  -11.4811   20.4318 O   0  0  0  0  0  0  0  0  0  0  0  0
  -25.2033  -29.1809   23.8508 O   0  0  0  0  0  0  0  0  0  0  0  0
  -28.2220  -25.5277   23.6011 O   0  0  0  0  0  0  0  0  0  0  0  0
  -30.0233  -23.2394   16.7062 O   0  0  0  0  0  0  0  0  0  0  0  0
  -23.1900  -21.0175   22.7714 O   0  0  0  0  0  0  0  0  0  1  0  0
  -32.4315  -27.5786   19.1095 F   0  0  0  0  0  0  0  0  0  0  0  0
  -32.6419  -23.9095   16.1263 F   0  0  0  0  0  0  0  0  0  0  0  0
  1  2  1  0  0  0  0
  1  5  2  0  0  0  0
  2  6  2  0  0  0  0
  3  8  2  0  0  0  0
  3 16  1  0  0  0  0
  4  9  1  0  0  0  0
  4 16  2  0  0  0  0
  5 18  1  0  0  0  0
  6 20  1  0  0  0  0
  7 10  2  0  0  0  0
  7 19  1  0  0  0  0
  8 23  1  0  0  0  0
  9 23  2  0  0  0  0
 10 24  1  0  0  0  0
 11 12  2  0  0  0  0
 11 25  1  0  0  0  0
 12 26  1  0  0  0  0
 13 21  1  0  0  0  0
 13 24  2  0  0  0  0
 14 22  1  0  0  0  0
 14 29  2  0  0  0  0
 15 26  2  0  0  0  0
 15 27  1  0  0  0  0
 16 28  1  0  0  0  0
 17 28  1  0  0  0  0
 17 31  2  0  0  0  0
 17 32  1  0  0  0  0
 18 20  2  0  0  0  0
 18 37  1  0  0  0  0
 19 21  2  0  0  0  0
 19 38  1  0  0  0  0
 20 46  1  0  0  0  0
 21 39  1  0  0  0  0
 22 30  2  0  0  0  0
 22 66  1  0  0  0  0
 23 86  1  0  0  0  0
 24 87  1  0  0  0  0
 25 27  2  0  0  0  0
 25 86  1  0  0  0  0
 26 88  1  0  0  0  0
 27 89  1  0  0  0  0
 28 70  2  0  0  0  0
 29 58  1  0  0  0  0
 29 71  1  0  0  0  0
 30 49  1  0  0  0  0
 30 71  1  0  0  0  0
 31 72  1  0  0  0  0
 31 75  1  0  0  0  0
 32 76  1  0  0  0  0
 32 81  2  0  0  0  0
 33 47  1  0  0  0  0
 33 77  1  0  0  0  0
 33 82  2  0  0  0  0
 34 59  1  0  0  0  0
 34 74  1  0  0  0  0
 34 83  2  0  0  0  0
 35 67  1  0  0  0  0
 35 73  1  0  0  0  0
 35 84  2  0  0  0  0
 36 68  1  0  0  0  0
 36 78  1  0  0  0  0
 36 85  2  0  0  0  0
 37 40  1  0  0  0  0
 38 47  1  0  0  0  0
 39 73  1  0  0  0  0
 40 42  1  0  0  0  0
 41 43  1  0  0  0  0
 41 44  1  0  0  0  0
 42 46  1  0  0  0  0
 43 48  1  0  0  0  0
 44 74  1  0  0  0  0
 45 48  1  0  0  0  0
 45 74  1  0  0  0  0
 46 77  1  0  0  0  0
 47 73  1  0  0  0  0
 48 72  1  0  0  0  0
 50 66  1  0  0  0  0
 51 66  1  0  0  0  0
 52 68  1  0  0  0  0
 53 69  1  0  0  0  0
 54 69  1  0  0  0  0
 55 69  1  0  0  0  0
 56 79  1  0  0  0  0
 57 80  1  0  0  0  0
 58 60  1  0  0  0  0
 59 63  1  0  0  0  0
 60 61  1  0  0  0  0
 61 65  1  0  0  0  0
 62 64  1  0  0  0  0
 62 71  1  0  0  0  0
 63 80  1  0  0  0  0
 64 80  1  0  0  0  0
 65 87  1  0  0  0  0
 67 69  1  0  0  0  0
 67 78  1  0  0  0  0
 68 79  1  0  0  0  0
 70 72  1  0  0  0  0
M  CHG  2  79   1  80   1
M  ISO  4  34 100  59 100  65 101  87 101
M  END
> <Batch ID>
0089

> <Smiles>
CNC(C)C(=O)NC(C(=O)N1Cc2cc([101O:1][101CH2:1]CCCc3cc(C(C)C)c(C)n3CCN(C)C[100CH2:0][100C:0](=O)N3CCCC(n4nc(-c5ccc(Oc6ccc(F)cc6F)cc5)c(C(N)=O)c4N)C3)ccc2CC1C(=O)NC1CCCc2ccccc21)C(C)(C)C

> <Shape>
0.212

> <Color>
0.059

> <Negative vol penalty>
0.000

$$$$

  -OEChem-04052319063D

 83 91  0     1  0  0  0  0  0999 V2000
  -15.4131  -27.5579   25.6087 C   0  0  0  0  0  0  0  0  0  0  0  0
  -16.1808  -26.4683   25.2100 C   0  0  0  0  0  0  0  0  0  0  0  0
  -30.1454  -19.8826   19.3524 C   0  0  0  0  0  0  0  0  0  0  0  0
  -28.4301  -19.9951   21.0500 C   0  0  0  0  0  0  0  0  0  0  0  0
  -15.7223  -28.8350   25.1426 C   0  0  0  0  0  0  0  0  0  0  0  0
  -17.2575  -26.6552   24.3438 C   0  0  0  0  0  0  0  0  0  0  0  0
  -21.3886  -24.1160   25.8039 C   0  0  0  0  0  0  0  0  0  0  0  0
  -29.7935  -21.1586   18.9123 C   0  0  0  0  0  0  0  0  0  0  0  0
  -28.0782  -21.2711   20.6100 C   0  0  0  0  0  0  0  0  0  0  0  0
  -21.4219  -22.7477   25.5385 C   0  0  0  0  0  0  0  0  0  0  0  0
  -29.5866  -24.5323   17.5743 C   0  0  0  0  0  0  0  0  0  0  0  0
  -30.6171  -25.4348   17.3115 C   0  0  0  0  0  0  0  0  0  0  0  0
  -22.8098  -23.1618   23.6094 C   0  0  0  0  0  0  0  0  0  0  0  0
  -31.3539  -25.2616   19.6058 C   0  0  0  0  0  0  0  0  0  0  0  0
  -23.7496  -15.2865   23.6118 C   0  0  0  0  0  0  0  0  0  0  0  0
  -29.4636  -19.3008   20.4212 C   0  0  0  0  0  0  0  0  0  0  0  0
  -30.7783  -17.6547   21.8598 C   0  0  0  0  0  0  0  0  0  0  0  0
  -16.8092  -29.0389   24.2780 C   0  0  0  0  0  0  0  0  0  0  0  0
  -22.0578  -25.0200   24.9663 C   0  0  0  0  0  0  0  0  0  0  0  0
  -17.5807  -27.9360   23.8646 C   0  0  0  0  0  0  0  0  0  0  0  0
  -22.7856  -24.5408   23.8678 C   0  0  0  0  0  0  0  0  0  0  0  0
  -28.7599  -21.8529   19.5411 C   0  0  0  0  0  0  0  0  0  0  0  0
  -22.1302  -22.2707   24.4395 C   0  0  0  0  0  0  0  0  0  0  0  0
  -29.4396  -23.9945   18.8529 C   0  0  0  0  0  0  0  0  0  0  0  0
  -31.5008  -25.7994   18.3272 C   0  0  0  0  0  0  0  0  0  0  0  0
  -30.3233  -24.3591   19.8687 C   0  0  0  0  0  0  0  0  0  0  0  0
  -29.8263  -17.9826   20.8759 C   0  0  0  0  0  0  0  0  0  0  0  0
  -22.8185  -14.5828   22.8902 C   0  0  0  0  0  0  0  0  0  0  0  0
  -30.7489  -16.2829   21.9222 C   0  0  0  0  0  0  0  0  0  0  0  0
  -31.6142  -18.5133   22.6469 C   0  0  0  0  0  0  0  0  0  0  0  0
  -21.1657  -27.4459   23.1162 C   0  0  0  0  0  0  0  0  0  0  0  0
  -24.3655  -27.8438   22.7623 C   0  0  0  0  0  0  0  0  0  0  0  0
  -27.4850  -26.4629   22.8582 C   0  0  0  0  0  0  0  0  0  0  0  0
  -26.5511  -12.2290   20.5824 C   0  0  0  0  0  0  0  0  0  0  0  0
  -17.0758  -30.4312   23.7629 C   0  0  0  0  0  0  0  0  0  0  0  0
  -22.0343  -26.4905   25.2816 C   0  0  0  0  0  0  0  0  0  0  0  0
  -23.5377  -25.4679   22.9495 C   0  0  0  0  0  0  0  0  0  0  0  0
  -18.4617  -30.5970   23.1448 C   0  0  0  0  0  0  0  0  0  0  0  0
  -29.8402  -12.4308   19.2341 C   0  0  0  0  0  0  0  0  0  0  0  0
  -18.7657  -29.4404   22.1978 C   0  0  0  0  0  0  0  0  0  0  0  0
  -30.2955  -13.8469   19.5908 C   0  0  0  0  0  0  0  0  0  0  0  0
  -28.3531  -12.3860   18.8899 C   0  0  0  0  0  0  0  0  0  0  0  0
  -27.9180  -14.3809   20.2701 C   0  0  0  0  0  0  0  0  0  0  0  0
  -18.7717  -28.1018   22.9458 C   0  0  1  0  0  0  0  0  0  0  0  0
  -22.3263  -27.3667   24.0673 C   0  0  1  0  0  0  0  0  0  0  0  0
  -29.3985  -14.4669   20.6790 C   0  0  2  0  0  0  0  0  0  0  0  0
  -29.9014  -27.0273   22.4846 C   0  0  0  0  0  0  0  0  0  0  0  0
  -23.9157  -27.7618   19.7455 C   0  0  0  0  0  0  0  0  0  0  0  0
  -26.3724  -27.3726   19.4600 C   0  0  0  0  0  0  0  0  0  0  0  0
  -25.5596  -29.4851   20.5086 C   0  0  0  0  0  0  0  0  0  0  0  0
  -28.1881  -25.8218   25.6606 C   0  0  0  0  0  0  0  0  0  0  0  0
  -22.9715  -13.9026   21.5976 C   0  0  0  0  0  0  0  0  0  0  0  0
  -23.4202  -12.4201   21.6800 C   0  0  0  0  0  0  0  0  0  0  0  0
  -22.7730  -17.7807   26.1388 C   0  0  0  0  0  0  0  0  0  0  0  0
  -22.8474  -18.7810   24.9841 C   0  0  0  0  0  0  0  0  0  0  0  0
  -23.5753  -16.5011   25.8767 C   0  0  0  0  0  0  0  0  0  0  0  0
  -24.7882  -12.2211   22.3292 C   0  0  0  0  0  0  0  0  0  0  0  0
  -22.0687  -20.0523   25.2945 C   0  0  0  0  0  0  0  0  0  1  0  0
  -25.4086  -27.3197   21.8051 C   0  0  1  0  0  0  0  0  0  0  0  0
  -28.7758  -26.9344   23.5030 C   0  0  2  0  0  0  0  0  0  0  0  0
  -25.2984  -27.9673   20.3958 C   0  0  0  0  0  0  0  0  0  0  0  0
  -29.2354  -16.9058   20.3510 N   0  0  0  0  0  0  0  0  0  0  0  0
  -21.6267  -14.5764   23.5605 N   0  0  0  0  0  0  0  0  0  0  0  0
  -21.7884  -15.2616   24.6871 N   0  0  0  0  0  0  0  0  0  0  0  0
  -23.0619  -15.6867   24.7159 N   0  0  0  0  0  0  0  0  0  0  0  0
  -29.8177  -15.8879   21.0074 N   0  0  0  0  0  0  0  0  0  0  0  0
  -23.4792  -26.8976   23.2960 N   0  0  0  0  0  0  0  0  0  0  0  0
  -27.5579  -12.9878   19.9629 N   0  0  0  0  0  0  0  0  0  0  0  0
  -31.4292  -15.3881   22.6699 N   0  0  0  0  0  0  0  0  0  0  0  0
  -31.5172  -19.8984   22.4561 N   0  0  0  0  0  0  0  0  0  0  0  0
  -20.0065  -27.9403   23.6830 N   0  0  0  0  0  0  0  0  0  0  0  0
  -26.6984  -27.5217   22.4562 N   0  0  0  0  0  0  0  0  0  0  0  0
  -25.8491  -12.8729   21.5940 N   0  0  0  0  0  0  0  0  0  0  0  0
  -29.1922  -25.9910   24.5789 N   0  3  0  0  0  0  0  0  0  0  0  0
  -32.4351  -18.0647   23.4827 O   0  0  0  0  0  0  0  0  0  0  0  0
  -21.3116  -27.0865   21.9538 O   0  0  0  0  0  0  0  0  0  0  0  0
  -24.3427  -29.0473   23.0322 O   0  0  0  0  0  0  0  0  0  0  0  0
  -27.2042  -25.2743   22.7213 O   0  0  0  0  0  0  0  0  0  0  0  0
  -26.3002  -11.0624   20.2615 O   0  0  0  0  0  0  0  0  0  0  0  0
  -28.4165  -23.0981   19.1121 O   0  0  0  0  0  0  0  0  0  0  0  0
  -22.1637  -20.9356   24.1778 O   0  0  0  0  0  0  0  0  0  1  0  0
  -32.4914  -26.6649   18.0743 F   0  0  0  0  0  0  0  0  0  0  0  0
  -30.1879  -23.8449   21.0987 F   0  0  0  0  0  0  0  0  0  0  0  0
  1  2  1  0  0  0  0
  1  5  2  0  0  0  0
  2  6  2  0  0  0  0
  3  8  2  0  0  0  0
  3 16  1  0  0  0  0
  4  9  1  0  0  0  0
  4 16  2  0  0  0  0
  5 18  1  0  0  0  0
  6 20  1  0  0  0  0
  7 10  2  0  0  0  0
  7 19  1  0  0  0  0
  8 22  1  0  0  0  0
  9 22  2  0  0  0  0
 10 23  1  0  0  0  0
 11 12  2  0  0  0  0
 11 24  1  0  0  0  0
 12 25  1  0  0  0  0
 13 21  1  0  0  0  0
 13 23  2  0  0  0  0
 14 25  2  0  0  0  0
 14 26  1  0  0  0  0
 15 28  2  0  0  0  0
 15 65  1  0  0  0  0
 16 27  1  0  0  0  0
 17 27  1  0  0  0  0
 17 29  2  0  0  0  0
 17 30  1  0  0  0  0
 18 20  2  0  0  0  0
 18 35  1  0  0  0  0
 19 21  2  0  0  0  0
 19 36  1  0  0  0  0
 20 44  1  0  0  0  0
 21 37  1  0  0  0  0
 22 80  1  0  0  0  0
 23 81  1  0  0  0  0
 24 26  2  0  0  0  0
 24 80  1  0  0  0  0
 25 82  1  0  0  0  0
 26 83  1  0  0  0  0
 27 62  2  0  0  0  0
 28 52  1  0  0  0  0
 28 63  1  0  0  0  0
 29 66  1  0  0  0  0
 29 69  1  0  0  0  0
 30 70  1  0  0  0  0
 30 75  2  0  0  0  0
 31 45  1  0  0  0  0
 31 71  1  0  0  0  0
 31 76  2  0  0  0  0
 32 59  1  0  0  0  0
 32 67  1  0  0  0  0
 32 77  2  0  0  0  0
 33 60  1  0  0  0  0
 33 72  1  0  0  0  0
 33 78  2  0  0  0  0
 34 68  1  0  0  0  0
 34 73  1  0  0  0  0
 34 79  2  0  0  0  0
 35 38  1  0  0  0  0
 36 45  1  0  0  0  0
 37 67  1  0  0  0  0
 38 40  1  0  0  0  0
 39 41  1  0  0  0  0
 39 42  1  0  0  0  0
 40 44  1  0  0  0  0
 41 46  1  0  0  0  0
 42 68  1  0  0  0  0
 43 46  1  0  0  0  0
 43 68  1  0  0  0  0
 44 71  1  0  0  0  0
 45 67  1  0  0  0  0
 46 66  1  0  0  0  0
 47 60  1  0  0  0  0
 48 61  1  0  0  0  0
 49 61  1  0  0  0  0
 50 61  1  0  0  0  0
 51 74  1  0  0  0  0
 52 53  1  0  0  0  0
 53 57  1  0  0  0  0
 54 55  1  0  0  0  0
 54 56  1  0  0  0  0
 55 58  1  0  0  0  0
 56 65  1  0  0  0  0
 57 73  1  0  0  0  0
 58 81  1  0  0  0  0
 59 61  1  0  0  0  0
 59 72  1  0  0  0  0
 60 74  1  0  0  0  0
 62 66  1  0  0  0  0
 63 64  2  0  0  0  0
 64 65  1  0  0  0  0
M  CHG  1  74   1
M  ISO  4  34 100  58 101  73 100  81 101
M  END
> <Batch ID>
0089

> <Smiles>
CNC(C)C(=O)NC(C(=O)N1Cc2cc([101O:1][101CH2:1]CCCn3cc(CCC[100NH:0][100C:0](=O)N4CCCC(n5nc(-c6ccc(Oc7ccc(F)cc7F)cc6)c(C(N)=O)c5N)C4)nn3)ccc2CC1C(=O)NC1CCCc2ccccc21)C(C)(C)C

> <Shape>
0.256

> <Color>
0.063

> <Negative vol penalty>
0.000

$$$$

  -OEChem-04052319063D

 85 92  0     1  0  0  0  0  0999 V2000
  -17.2531  -12.6039   21.6558 C   0  0  0  0  0  0  0  0  0  0  0  0
  -17.9033  -13.8312   21.5755 C   0  0  0  0  0  0  0  0  0  0  0  0
  -20.5041  -26.5383   23.2368 C   0  0  0  0  0  0  0  0  0  0  0  0
  -19.7134  -27.4764   21.1555 C   0  0  0  0  0  0  0  0  0  0  0  0
  -17.9159  -11.4987   22.1878 C   0  0  0  0  0  0  0  0  0  0  0  0
  -19.2164  -13.9542   22.0283 C   0  0  0  0  0  0  0  0  0  0  0  0
  -23.6033  -17.5209   19.6747 C   0  0  0  0  0  0  0  0  0  0  0  0
  -19.2667  -26.8000   23.8249 C   0  0  0  0  0  0  0  0  0  0  0  0
  -18.4760  -27.7381   21.7436 C   0  0  0  0  0  0  0  0  0  0  0  0
  -24.0891  -18.7755   20.0407 C   0  0  0  0  0  0  0  0  0  0  0  0
  -15.2276  -28.9815   22.7980 C   0  0  0  0  0  0  0  0  0  0  0  0
  -14.6498  -30.2294   22.5646 C   0  0  0  0  0  0  0  0  0  0  0  0
  -25.8673  -17.7182   21.2815 C   0  0  0  0  0  0  0  0  0  0  0  0
  -16.5615  -31.3041   23.5783 C   0  0  0  0  0  0  0  0  0  0  0  0
  -20.7275  -26.8765   21.9021 C   0  0  0  0  0  0  0  0  0  0  0  0
  -22.3953  -25.4353   20.6178 C   0  0  0  0  0  0  0  0  0  0  0  0
  -19.2411  -11.6059   22.6384 C   0  0  0  0  0  0  0  0  0  0  0  0
  -24.2405  -16.3535   20.1191 C   0  0  0  0  0  0  0  0  0  0  0  0
  -19.8971  -12.8497   22.5681 C   0  0  0  0  0  0  0  0  0  0  0  0
  -25.3891  -16.4501   20.9176 C   0  0  0  0  0  0  0  0  0  0  0  0
  -18.2526  -27.3999   23.0783 C   0  0  0  0  0  0  0  0  0  0  0  0
  -25.2196  -18.8742   20.8466 C   0  0  0  0  0  0  0  0  0  0  0  0
  -16.4723  -28.8948   23.4216 C   0  0  0  0  0  0  0  0  0  0  0  0
  -15.3168  -31.3907   22.9548 C   0  0  0  0  0  0  0  0  0  0  0  0
  -17.1393  -30.0561   23.8117 C   0  0  0  0  0  0  0  0  0  0  0  0
  -22.0057  -26.6069   21.2942 C   0  0  0  0  0  0  0  0  0  0  0  0
  -23.6915  -25.6760   20.2329 C   0  0  0  0  0  0  0  0  0  0  0  0
  -21.6518  -24.2367   20.3605 C   0  0  0  0  0  0  0  0  0  0  0  0
  -23.3866  -13.8797   21.9232 C   0  0  0  0  0  0  0  0  0  0  0  0
  -26.2926  -12.7359   21.0463 C   0  0  0  0  0  0  0  0  0  0  0  0
  -29.4574  -13.3975   19.9540 C   0  0  0  0  0  0  0  0  0  0  0  0
  -27.5782  -29.0398   18.0594 C   0  0  0  0  0  0  0  0  0  0  0  0
  -19.9003  -10.3947   23.2494 C   0  0  0  0  0  0  0  0  0  0  0  0
  -23.7197  -15.0082   19.6935 C   0  0  0  0  0  0  0  0  0  0  0  0
  -26.1217  -15.2275   21.4044 C   0  0  0  0  0  0  0  0  0  0  0  0
  -21.4176  -10.5188   23.3618 C   0  0  0  0  0  0  0  0  0  0  0  0
  -26.8780  -29.3829   21.5334 C   0  0  0  0  0  0  0  0  0  0  0  0
  -21.8008  -11.8781   23.9384 C   0  0  0  0  0  0  0  0  0  0  0  0
  -25.5775  -28.6003   21.7235 C   0  0  0  0  0  0  0  0  0  0  0  0
  -26.9082  -30.1098   20.1908 C   0  0  0  0  0  0  0  0  0  0  0  0
  -25.3521  -28.4711   19.2073 C   0  0  0  0  0  0  0  0  0  0  0  0
  -21.3298  -13.0170   23.0260 C   0  0  1  0  0  0  0  0  0  0  0  0
  -24.1465  -13.8796   20.6270 C   0  0  1  0  0  0  0  0  0  0  0  0
  -25.2988  -27.6759   20.5230 C   0  0  2  0  0  0  0  0  0  0  0  0
  -31.6158  -12.2611   19.3648 C   0  0  0  0  0  0  0  0  0  0  0  0
  -29.3470  -23.1268   21.5364 C   0  0  0  0  0  0  0  0  0  0  0  0
  -27.5319  -22.9290   17.2043 C   0  0  0  0  0  0  0  0  0  0  0  0
  -26.8974  -12.3521   24.0122 C   0  0  0  0  0  0  0  0  0  0  0  0
  -29.3202  -12.1370   23.4189 C   0  0  0  0  0  0  0  0  0  0  0  0
  -27.6711  -10.4847   22.5396 C   0  0  0  0  0  0  0  0  0  0  0  0
  -29.3471  -14.3793   17.1642 C   0  0  0  0  0  0  0  0  0  0  0  0
  -29.9585  -23.8197   15.3937 C   0  0  0  0  0  0  0  0  0  0  0  0
  -26.6117  -22.1924   20.4065 C   0  0  0  0  0  0  0  0  0  0  0  0
  -27.9769  -21.5762   20.0729 C   0  0  0  0  0  0  0  0  0  0  0  0
  -29.1038  -26.7448   16.2079 C   0  0  0  0  0  0  0  0  0  0  0  0
  -28.1160  -27.8742   15.9355 C   0  0  0  0  0  0  0  0  0  0  0  0
  -28.4039  -25.4227   16.4956 C   0  0  0  0  0  0  0  0  0  0  0  0
  -25.4829  -21.1725   20.2950 C   0  0  0  0  0  0  0  0  0  1  0  0
  -27.6923  -12.8331   21.6033 C   0  0  1  0  0  0  0  0  0  0  0  0
  -30.2875  -12.7844   18.8407 C   0  0  2  0  0  0  0  0  0  0  0  0
  -29.1666  -22.5595   20.1186 C   0  0  1  0  0  0  0  0  0  0  0  0
  -28.9638  -23.2668   17.6088 C   0  0  2  0  0  0  0  0  0  0  0  0
  -29.0949  -23.7087   19.0798 C   0  0  2  0  0  0  0  0  0  0  0  0
  -27.8805  -11.9749   22.8861 C   0  0  0  0  0  0  0  0  0  0  0  0
  -22.9761  -27.5237   21.3382 N   0  0  0  0  0  0  0  0  0  0  0  0
  -23.9882  -26.9282   20.6847 N   0  0  0  0  0  0  0  0  0  0  0  0
  -25.5698  -13.9347   20.9665 N   0  0  0  0  0  0  0  0  0  0  0  0
  -26.6382  -29.1769   19.0941 N   0  0  0  0  0  0  0  0  0  0  0  0
  -24.5952  -24.9364   19.5554 N   0  0  0  0  0  0  0  0  0  0  0  0
  -20.3323  -24.1559   20.8263 N   0  0  0  0  0  0  0  0  0  0  0  0
  -22.2131  -13.1508   21.8875 N   0  0  0  0  0  0  0  0  0  0  0  0
  -28.5920  -12.4796   20.5106 N   0  0  0  0  0  0  0  0  0  0  0  0
  -27.2473  -28.1299   17.0627 N   0  0  0  0  0  0  0  0  0  0  0  0
  -30.5656  -13.7976   17.7838 N   0  3  0  0  0  0  0  0  0  0  0  0
  -29.4424  -24.3521   16.7045 N   0  3  1  0  0  0  0  0  0  0  0  0
  -22.1483  -23.2596   19.7504 O   0  0  0  0  0  0  0  0  0  0  0  0
  -23.8326  -14.4943   22.8850 O   0  0  0  0  0  0  0  0  0  0  0  0
  -25.8591  -11.6379   20.6882 O   0  0  0  0  0  0  0  0  0  0  0  0
  -29.5683  -14.5722   20.2981 O   0  0  0  0  0  0  0  0  0  0  0  0
  -28.6365  -29.6769   18.0290 O   0  0  0  0  0  0  0  0  0  0  0  0
  -30.2660  -24.5180   19.2355 O   0  0  0  0  0  0  0  0  0  0  0  0
  -17.0449  -27.6552   23.6518 O   0  0  0  0  0  0  0  0  0  0  0  0
  -25.6991  -20.1067   21.2085 O   0  0  0  0  0  0  0  0  0  1  0  0
  -14.7625  -32.5891   22.7292 F   0  0  0  0  0  0  0  0  0  0  0  0
  -18.3359  -29.9792   24.4101 F   0  0  0  0  0  0  0  0  0  0  0  0
  1  2  1  0  0  0  0
  1  5  2  0  0  0  0
  2  6  2  0  0  0  0
  3  8  2  0  0  0  0
  3 15  1  0  0  0  0
  4  9  1  0  0  0  0
  4 15  2  0  0  0  0
  5 17  1  0  0  0  0
  6 19  1  0  0  0  0
  7 10  2  0  0  0  0
  7 18  1  0  0  0  0
  8 21  1  0  0  0  0
  9 21  2  0  0  0  0
 10 22  1  0  0  0  0
 11 12  2  0  0  0  0
 11 23  1  0  0  0  0
 12 24  1  0  0  0  0
 13 20  1  0  0  0  0
 13 22  2  0  0  0  0
 14 24  2  0  0  0  0
 14 25  1  0  0  0  0
 15 26  1  0  0  0  0
 16 26  1  0  0  0  0
 16 27  2  0  0  0  0
 16 28  1  0  0  0  0
 17 19  2  0  0  0  0
 17 33  1  0  0  0  0
 18 20  2  0  0  0  0
 18 34  1  0  0  0  0
 19 42  1  0  0  0  0
 20 35  1  0  0  0  0
 21 82  1  0  0  0  0
 22 83  1  0  0  0  0
 23 25  2  0  0  0  0
 23 82  1  0  0  0  0
 24 84  1  0  0  0  0
 25 85  1  0  0  0  0
 26 65  2  0  0  0  0
 27 66  1  0  0  0  0
 27 69  1  0  0  0  0
 28 70  1  0  0  0  0
 28 76  2  0  0  0  0
 29 43  1  0  0  0  0
 29 71  1  0  0  0  0
 29 77  2  0  0  0  0
 30 59  1  0  0  0  0
 30 67  1  0  0  0  0
 30 78  2  0  0  0  0
 31 60  1  0  0  0  0
 31 72  1  0  0  0  0
 31 79  2  0  0  0  0
 32 68  1  0  0  0  0
 32 73  1  0  0  0  0
 32 80  2  0  0  0  0
 33 36  1  0  0  0  0
 34 43  1  0  0  0  0
 35 67  1  0  0  0  0
 36 38  1  0  0  0  0
 37 39  1  0  0  0  0
 37 40  1  0  0  0  0
 38 42  1  0  0  0  0
 39 44  1  0  0  0  0
 40 68  1  0  0  0  0
 41 44  1  0  0  0  0
 41 68  1  0  0  0  0
 42 71  1  0  0  0  0
 43 67  1  0  0  0  0
 44 66  1  0  0  0  0
 45 60  1  0  0  0  0
 46 61  1  0  0  0  0
 47 62  1  0  0  0  0
 48 64  1  0  0  0  0
 49 64  1  0  0  0  0
 50 64  1  0  0  0  0
 51 74  1  0  0  0  0
 52 75  1  0  0  0  0
 53 54  1  0  0  0  0
 53 58  1  0  0  0  0
 54 61  1  0  0  0  0
 55 56  1  0  0  0  0
 55 57  1  0  0  0  0
 56 73  1  0  0  0  0
 57 75  1  0  0  0  0
 58 83  1  0  0  0  0
 59 64  1  0  0  0  0
 59 72  1  0  0  0  0
 60 74  1  0  0  0  0
 61 63  1  0  0  0  0
 62 63  1  0  0  0  0
 62 75  1  0  0  0  0
 63 81  1  0  0  0  0
 65 66  1  0  0  0  0
M  CHG  2  74   1  75   1
M  ISO  4  32 100  58 101  73 100  83 101
M  END
> <Batch ID>
0089

> <Smiles>
CNC(C)C(=O)NC(C(=O)N1Cc2cc([101O:1][101CH2:1]CCC(C)C(O)C(C)N(C)CCC[100NH:0][100C:0](=O)N3CCCC(n4nc(-c5ccc(Oc6ccc(F)cc6F)cc5)c(C(N)=O)c4N)C3)ccc2CC1C(=O)NC1CCCc2ccccc21)C(C)(C)C

> <Shape>
0.232

> <Color>
0.067

> <Negative vol penalty>
0.000

$$$$

  -OEChem-04052319063D

 88 96  0     1  0  0  0  0  0999 V2000
  -30.2017  -20.9558   19.4322 C   0  0  0  0  0  0  0  0  0  0  0  0
  -28.8602  -20.9247   19.0651 C   0  0  0  0  0  0  0  0  0  0  0  0
  -25.7325  -28.0043   21.9362 C   0  0  0  0  0  0  0  0  0  0  0  0
  -25.2044  -28.4042   19.6128 C   0  0  0  0  0  0  0  0  0  0  0  0
  -30.8875  -19.7643   19.6644 C   0  0  0  0  0  0  0  0  0  0  0  0
  -28.2039  -19.7019   18.9289 C   0  0  0  0  0  0  0  0  0  0  0  0
  -23.6217  -19.7056   21.0849 C   0  0  0  0  0  0  0  0  0  0  0  0
  -26.9069  -27.3540   21.5574 C   0  0  0  0  0  0  0  0  0  0  0  0
  -26.3788  -27.7539   19.2340 C   0  0  0  0  0  0  0  0  0  0  0  0
  -22.5894  -20.3293   20.3855 C   0  0  0  0  0  0  0  0  0  0  0  0
  -30.0123  -28.2153   20.5339 C   0  0  0  0  0  0  0  0  0  0  0  0
  -31.1802  -28.5291   21.2290 C   0  0  0  0  0  0  0  0  0  0  0  0
  -21.8185  -18.1769   19.6160 C   0  0  0  0  0  0  0  0  0  0  0  0
  -19.2088  -21.1277   16.6062 C   0  0  0  0  0  0  0  0  0  0  0  0
  -31.3942  -26.2212   21.9111 C   0  0  0  0  0  0  0  0  0  0  0  0
  -16.5388  -20.8512   17.0963 C   0  0  0  0  0  0  0  0  0  0  0  0
  -24.8812  -28.5294   20.9639 C   0  0  0  0  0  0  0  0  0  0  0  0
  -23.5049  -30.5723   21.6274 C   0  0  0  0  0  0  0  0  0  0  0  0
  -30.2367  -18.5266   19.5404 C   0  0  0  0  0  0  0  0  0  0  0  0
  -23.7668  -18.3113   21.0462 C   0  0  0  0  0  0  0  0  0  0  0  0
  -28.8820  -18.4927   19.1584 C   0  0  0  0  0  0  0  0  0  0  0  0
  -22.8519  -17.5377   20.3179 C   0  0  0  0  0  0  0  0  0  0  0  0
  -18.7791  -20.1786   17.5269 C   0  0  0  0  0  0  0  0  0  0  0  0
  -17.4203  -20.0314   17.7824 C   0  0  0  0  0  0  0  0  0  0  0  0
  -27.2300  -27.2288   20.2063 C   0  0  0  0  0  0  0  0  0  0  0  0
  -21.6893  -19.5652   19.6485 C   0  0  0  0  0  0  0  0  0  0  0  0
  -29.5352  -26.9045   20.5275 C   0  0  0  0  0  0  0  0  0  0  0  0
  -31.8711  -27.5320   21.9176 C   0  0  0  0  0  0  0  0  0  0  0  0
  -30.2262  -25.9075   21.2160 C   0  0  0  0  0  0  0  0  0  0  0  0
  -23.6677  -29.2008   21.3546 C   0  0  0  0  0  0  0  0  0  0  0  0
  -18.2473  -21.8983   15.9726 C   0  0  0  0  0  0  0  0  0  0  0  0
  -22.1765  -30.7027   21.9509 C   0  0  0  0  0  0  0  0  0  0  0  0
  -24.4684  -31.6334   21.5915 C   0  0  0  0  0  0  0  0  0  0  0  0
  -26.0230  -16.3185   20.0255 C   0  0  0  0  0  0  0  0  0  0  0  0
  -24.0971  -14.0745   21.3589 C   0  0  0  0  0  0  0  0  0  0  0  0
  -20.9635  -13.1759   22.3689 C   0  0  0  0  0  0  0  0  0  0  0  0
  -17.3118  -27.4922   20.5803 C   0  0  0  0  0  0  0  0  0  0  0  0
  -31.0322  -17.2634   19.7556 C   0  0  0  0  0  0  0  0  0  0  0  0
  -24.8697  -17.6517   21.8278 C   0  0  0  0  0  0  0  0  0  0  0  0
  -22.9520  -16.0360   20.2605 C   0  0  0  0  0  0  0  0  0  0  0  0
  -30.1642  -16.0236   19.9547 C   0  0  0  0  0  0  0  0  0  0  0  0
  -18.5247  -28.2555   23.8396 C   0  0  0  0  0  0  0  0  0  0  0  0
  -29.0577  -15.9725   18.9060 C   0  0  0  0  0  0  0  0  0  0  0  0
  -19.9657  -28.7080   23.5969 C   0  0  0  0  0  0  0  0  0  0  0  0
  -18.1206  -27.1273   22.8931 C   0  0  0  0  0  0  0  0  0  0  0  0
  -19.7710  -27.8673   21.2191 C   0  0  0  0  0  0  0  0  0  0  0  0
  -28.1289  -17.1869   19.0245 C   0  0  1  0  0  0  0  0  0  0  0  0
  -25.2297  -16.2662   21.3005 C   0  0  1  0  0  0  0  0  0  0  0  0
  -20.2061  -29.0417   22.1123 C   0  0  2  0  0  0  0  0  0  0  0  0
  -19.6939  -11.2653   23.3862 C   0  0  0  0  0  0  0  0  0  0  0  0
  -15.3483  -19.0780   18.8519 C   0  0  0  0  0  0  0  0  0  0  0  0
  -17.4688  -19.2938   20.1909 C   0  0  0  0  0  0  0  0  0  0  0  0
  -17.2574  -17.5387   18.4427 C   0  0  0  0  0  0  0  0  0  0  0  0
  -24.1576  -12.6119   18.6817 C   0  0  0  0  0  0  0  0  0  0  0  0
  -22.1740  -11.2860   19.4403 C   0  0  0  0  0  0  0  0  0  0  0  0
  -24.3293  -11.1263   20.6862 C   0  0  0  0  0  0  0  0  0  0  0  0
  -20.1913  -14.7918   24.7251 C   0  0  0  0  0  0  0  0  0  0  0  0
  -19.7953  -19.3275   18.2301 C   0  0  0  0  0  0  0  0  0  1  0  0
  -18.6721  -22.9270   14.9786 C   0  0  0  0  0  0  0  0  0  0  0  0
  -16.5456  -26.5879   17.4791 C   0  0  0  0  0  0  0  0  0  0  0  0
  -16.6505  -27.9134   18.2256 C   0  0  0  0  0  0  0  0  0  0  0  0
  -18.9394  -24.3066   15.5812 C   0  0  0  0  0  0  0  0  0  0  0  0
  -17.8696  -26.1734   16.8498 C   0  0  0  0  0  0  0  0  0  0  0  0
  -22.9423  -13.2318   20.8737 C   0  0  1  0  0  0  0  0  0  0  0  0
  -20.4613  -12.5499   23.6575 C   0  0  2  0  0  0  0  0  0  0  0  0
  -16.9058  -19.0313   18.7588 C   0  0  0  0  0  0  0  0  0  0  0  0
  -23.3998  -12.0925   19.9198 C   0  0  0  0  0  0  0  0  0  0  0  0
  -16.9187  -21.7842   16.1948 N   0  0  0  0  0  0  0  0  0  0  0  0
  -22.5333  -28.5094   21.4929 N   0  0  0  0  0  0  0  0  0  0  0  0
  -21.6450  -29.4502   21.8563 N   0  0  0  0  0  0  0  0  0  0  0  0
  -24.0511  -15.4382   21.0364 N   0  0  0  0  0  0  0  0  0  0  0  0
  -18.3724  -27.5080   21.5011 N   0  0  0  0  0  0  0  0  0  0  0  0
  -21.4228  -31.7654   22.3044 N   0  0  0  0  0  0  0  0  0  0  0  0
  -25.7893  -31.3249   21.2389 N   0  0  0  0  0  0  0  0  0  0  0  0
  -27.2115  -17.0155   20.1307 N   0  0  0  0  0  0  0  0  0  0  0  0
  -22.2457  -12.7673   22.0684 N   0  0  0  0  0  0  0  0  0  0  0  0
  -17.6352  -27.8730   19.2837 N   0  0  0  0  0  0  0  0  0  0  0  0
  -19.5585  -13.4942   24.3746 N   0  3  0  0  0  0  0  0  0  0  0  0
  -17.6988  -24.8532   16.1843 N   0  3  0  0  0  0  0  0  0  0  0  0
  -24.1705  -32.8173   21.8799 O   0  0  0  0  0  0  0  0  0  0  0  0
  -25.5897  -15.7659   19.0212 O   0  0  0  0  0  0  0  0  0  0  0  0
  -25.0029  -13.5437   22.0065 O   0  0  0  0  0  0  0  0  0  0  0  0
  -20.2848  -13.9472   21.6943 O   0  0  0  0  0  0  0  0  0  0  0  0
  -16.1607  -27.1683   20.8919 O   0  0  0  0  0  0  0  0  0  0  0  0
  -28.3760  -26.5945   19.8363 O   0  0  0  0  0  0  0  0  0  0  0  0
  -20.6812  -20.1715   18.9644 O   0  0  0  0  0  0  0  0  0  1  0  0
  -32.9935  -27.8332   22.5837 F   0  0  0  0  0  0  0  0  0  0  0  0
  -29.7735  -24.6462   21.2125 F   0  0  0  0  0  0  0  0  0  0  0  0
  1  2  1  0  0  0  0
  1  5  2  0  0  0  0
  2  6  2  0  0  0  0
  3  8  2  0  0  0  0
  3 17  1  0  0  0  0
  4  9  1  0  0  0  0
  4 17  2  0  0  0  0
  5 19  1  0  0  0  0
  6 21  1  0  0  0  0
  7 10  2  0  0  0  0
  7 20  1  0  0  0  0
  8 25  1  0  0  0  0
  9 25  2  0  0  0  0
 10 26  1  0  0  0  0
 11 12  2  0  0  0  0
 11 27  1  0  0  0  0
 12 28  1  0  0  0  0
 13 22  1  0  0  0  0
 13 26  2  0  0  0  0
 14 23  1  0  0  0  0
 14 31  2  0  0  0  0
 15 28  2  0  0  0  0
 15 29  1  0  0  0  0
 16 24  1  0  0  0  0
 16 68  2  0  0  0  0
 17 30  1  0  0  0  0
 18 30  1  0  0  0  0
 18 32  2  0  0  0  0
 18 33  1  0  0  0  0
 19 21  2  0  0  0  0
 19 38  1  0  0  0  0
 20 22  2  0  0  0  0
 20 39  1  0  0  0  0
 21 47  1  0  0  0  0
 22 40  1  0  0  0  0
 23 24  2  0  0  0  0
 23 58  1  0  0  0  0
 24 66  1  0  0  0  0
 25 85  1  0  0  0  0
 26 86  1  0  0  0  0
 27 29  2  0  0  0  0
 27 85  1  0  0  0  0
 28 87  1  0  0  0  0
 29 88  1  0  0  0  0
 30 69  2  0  0  0  0
 31 59  1  0  0  0  0
 31 68  1  0  0  0  0
 32 70  1  0  0  0  0
 32 73  1  0  0  0  0
 33 74  1  0  0  0  0
 33 80  2  0  0  0  0
 34 48  1  0  0  0  0
 34 75  1  0  0  0  0
 34 81  2  0  0  0  0
 35 64  1  0  0  0  0
 35 71  1  0  0  0  0
 35 82  2  0  0  0  0
 36 65  1  0  0  0  0
 36 76  1  0  0  0  0
 36 83  2  0  0  0  0
 37 72  1  0  0  0  0
 37 77  1  0  0  0  0
 37 84  2  0  0  0  0
 38 41  1  0  0  0  0
 39 48  1  0  0  0  0
 40 71  1  0  0  0  0
 41 43  1  0  0  0  0
 42 44  1  0  0  0  0
 42 45  1  0  0  0  0
 43 47  1  0  0  0  0
 44 49  1  0  0  0  0
 45 72  1  0  0  0  0
 46 49  1  0  0  0  0
 46 72  1  0  0  0  0
 47 75  1  0  0  0  0
 48 71  1  0  0  0  0
 49 70  1  0  0  0  0
 50 65  1  0  0  0  0
 51 66  1  0  0  0  0
 52 66  1  0  0  0  0
 53 66  1  0  0  0  0
 54 67  1  0  0  0  0
 55 67  1  0  0  0  0
 56 67  1  0  0  0  0
 57 78  1  0  0  0  0
 58 86  1  0  0  0  0
 59 62  1  0  0  0  0
 60 61  1  0  0  0  0
 60 63  1  0  0  0  0
 61 77  1  0  0  0  0
 62 79  1  0  0  0  0
 63 79  1  0  0  0  0
 64 67  1  0  0  0  0
 64 76  1  0  0  0  0
 65 78  1  0  0  0  0
 69 70  1  0  0  0  0
M  CHG  2  78   1  79   1
M  ISO  4  37 100  58 101  77 100  86 101
M  END
> <Batch ID>
0089

> <Smiles>
CNC(C)C(=O)NC(C(=O)N1Cc2cc([101O:1][101CH2:1]c3cc(CCNCCC[100NH:0][100C:0](=O)N4CCCC(n5nc(-c6ccc(Oc7ccc(F)cc7F)cc6)c(C(N)=O)c5N)C4)ncc3C(C)(C)C)ccc2CC1C(=O)NC1CCCc2ccccc21)C(C)(C)C

> <Shape>
0.221

> <Color>
0.066

> <Negative vol penalty>
0.000

$$$$

  -OEChem-04052319063D

 83 90  0     1  0  0  0  0  0999 V2000
  -23.3799  -23.7305   17.9473 C   0  0  0  0  0  0  0  0  0  0  0  0
  -24.4819  -23.0225   18.4160 C   0  0  0  0  0  0  0  0  0  0  0  0
  -22.6149  -27.9584   20.9010 C   0  0  0  0  0  0  0  0  0  0  0  0
  -23.9185  -27.5902   22.9016 C   0  0  0  0  0  0  0  0  0  0  0  0
  -22.0945  -23.3533   18.3340 C   0  0  0  0  0  0  0  0  0  0  0  0
  -24.2993  -21.9375   19.2727 C   0  0  0  0  0  0  0  0  0  0  0  0
  -27.1423  -17.9484   17.9887 C   0  0  0  0  0  0  0  0  0  0  0  0
  -21.4506  -27.6440   21.6017 C   0  0  0  0  0  0  0  0  0  0  0  0
  -22.7541  -27.2757   23.6023 C   0  0  0  0  0  0  0  0  0  0  0  0
  -28.4912  -17.9887   18.3390 C   0  0  0  0  0  0  0  0  0  0  0  0
  -19.3662  -29.1716   23.7822 C   0  0  0  0  0  0  0  0  0  0  0  0
  -18.2584  -30.0002   23.6037 C   0  0  0  0  0  0  0  0  0  0  0  0
  -28.0324  -16.5810   20.2435 C   0  0  0  0  0  0  0  0  0  0  0  0
  -16.9856  -28.1204   22.7770 C   0  0  0  0  0  0  0  0  0  0  0  0
  -23.8489  -27.9315   21.5509 C   0  0  0  0  0  0  0  0  0  0  0  0
  -25.6386  -29.5268   20.6795 C   0  0  0  0  0  0  0  0  0  0  0  0
  -21.8955  -22.2572   19.1882 C   0  0  0  0  0  0  0  0  0  0  0  0
  -26.2250  -17.2318   18.7706 C   0  0  0  0  0  0  0  0  0  0  0  0
  -23.0101  -21.5461   19.6723 C   0  0  0  0  0  0  0  0  0  0  0  0
  -26.6729  -16.5311   19.8995 C   0  0  0  0  0  0  0  0  0  0  0  0
  -21.5202  -27.3026   22.9524 C   0  0  0  0  0  0  0  0  0  0  0  0
  -28.9359  -17.3073   19.4682 C   0  0  0  0  0  0  0  0  0  0  0  0
  -19.2838  -27.8174   23.4580 C   0  0  0  0  0  0  0  0  0  0  0  0
  -17.0681  -29.4746   23.1011 C   0  0  0  0  0  0  0  0  0  0  0  0
  -18.0935  -27.2918   22.9555 C   0  0  0  0  0  0  0  0  0  0  0  0
  -25.0521  -28.2557   20.8274 C   0  0  0  0  0  0  0  0  0  0  0  0
  -26.7552  -29.3025   19.9117 C   0  0  0  0  0  0  0  0  0  0  0  0
  -25.2124  -30.7968   21.1905 C   0  0  0  0  0  0  0  0  0  0  0  0
  -23.6439  -17.9928   20.4626 C   0  0  0  0  0  0  0  0  0  0  0  0
  -30.1113  -24.3930   19.0488 C   0  0  0  0  0  0  0  0  0  0  0  0
  -23.3966  -14.7763   20.8025 C   0  0  0  0  0  0  0  0  0  0  0  0
  -24.9460  -11.7355   20.8041 C   0  0  0  0  0  0  0  0  0  0  0  0
  -20.4901  -21.9163   19.6163 C   0  0  0  0  0  0  0  0  0  0  0  0
  -24.7779  -17.1763   18.3642 C   0  0  0  0  0  0  0  0  0  0  0  0
  -25.7319  -15.7305   20.7609 C   0  0  0  0  0  0  0  0  0  0  0  0
  -20.3605  -20.5237   20.2278 C   0  0  0  0  0  0  0  0  0  0  0  0
  -28.4720  -26.3727   16.5521 C   0  0  0  0  0  0  0  0  0  0  0  0
  -21.4702  -20.2825   21.2463 C   0  0  0  0  0  0  0  0  0  0  0  0
  -27.4432  -27.1745   17.3482 C   0  0  0  0  0  0  0  0  0  0  0  0
  -28.6609  -24.9746   17.1325 C   0  0  0  0  0  0  0  0  0  0  0  0
  -27.9942  -25.7636   19.3807 C   0  0  0  0  0  0  0  0  0  0  0  0
  -22.8513  -20.3482   20.5832 C   0  0  1  0  0  0  0  0  0  0  0  0
  -23.8445  -16.8380   19.5225 C   0  0  1  0  0  0  0  0  0  0  0  0
  -27.7957  -27.1931   18.8461 C   0  0  2  0  0  0  0  0  0  0  0  0
  -24.4896   -9.2923   21.1505 C   0  0  0  0  0  0  0  0  0  0  0  0
  -31.1334  -24.5913   23.3296 C   0  0  0  0  0  0  0  0  0  0  0  0
  -32.9334  -25.7772   22.0903 C   0  0  0  0  0  0  0  0  0  0  0  0
  -33.0439  -20.5712   23.0478 C   0  0  0  0  0  0  0  0  0  0  0  0
  -23.2658  -15.2306   23.8169 C   0  0  0  0  0  0  0  0  0  0  0  0
  -23.7674  -12.7984   24.1350 C   0  0  0  0  0  0  0  0  0  0  0  0
  -21.6841  -13.4964   22.9536 C   0  0  0  0  0  0  0  0  0  0  0  0
  -25.7977  -11.0671   18.0497 C   0  0  0  0  0  0  0  0  0  0  0  0
  -33.4160  -21.5392   19.4301 C   0  0  0  0  0  0  0  0  0  0  0  0
  -30.3676  -24.5022   20.5308 C   0  0  0  0  0  0  0  0  0  0  0  0
  -31.8462  -18.0050   21.5067 C   0  0  0  0  0  0  0  0  0  0  0  0
  -31.7188  -19.4990   21.1810 C   0  0  0  0  0  0  0  0  0  0  0  0
  -31.5869  -22.2933   20.9422 C   0  0  0  0  0  0  0  0  0  0  0  0
  -30.5630  -17.2399   21.2014 C   0  0  0  0  0  0  0  0  0  1  0  0
  -23.9150  -13.7631   21.7943 C   0  0  1  0  0  0  0  0  0  0  0  0
  -24.5855  -10.4210   20.1358 C   0  0  2  0  0  0  0  0  0  0  0  0
  -32.2424  -24.4201   22.2812 C   0  0  0  0  0  0  0  0  0  0  0  0
  -31.6998  -23.8338   20.9367 C   0  0  2  0  0  0  0  0  0  0  0  0
  -32.9660  -20.3109   21.5492 C   0  0  1  0  0  0  0  0  0  0  0  0
  -23.1758  -13.8387   23.1600 C   0  0  0  0  0  0  0  0  0  0  0  0
  -25.7390  -27.2950   20.2036 N   0  0  0  0  0  0  0  0  0  0  0  0
  -26.7688  -27.9628   19.6561 N   0  0  0  0  0  0  0  0  0  0  0  0
  -24.3255  -15.7120   20.3257 N   0  0  0  0  0  0  0  0  0  0  0  0
  -28.9723  -25.0343   18.5617 N   0  0  0  0  0  0  0  0  0  0  0  0
  -27.7168  -30.1224   19.4369 N   0  0  0  0  0  0  0  0  0  0  0  0
  -24.0429  -30.8485   21.9611 N   0  0  0  0  0  0  0  0  0  0  0  0
  -23.1245  -19.1236   19.8619 N   0  0  0  0  0  0  0  0  0  0  0  0
  -23.8235  -12.4641   21.1364 N   0  0  0  0  0  0  0  0  0  0  0  0
  -25.6153  -10.0557   19.1223 N   0  3  0  0  0  0  0  0  0  0  0  0
  -32.9366  -21.6289   20.8558 N   0  3  1  0  0  0  0  0  0  0  0  0
  -25.8408  -31.8570   20.9565 O   0  0  0  0  0  0  0  0  0  0  0  0
  -23.9373  -17.8667   21.6457 O   0  0  0  0  0  0  0  0  0  0  0  0
  -30.9026  -23.7586   18.3462 O   0  0  0  0  0  0  0  0  0  0  0  0
  -22.2129  -14.7345   20.4580 O   0  0  0  0  0  0  0  0  0  0  0  0
  -26.1070  -12.0797   21.0139 O   0  0  0  0  0  0  0  0  0  0  0  0
  -20.3842  -26.9960   23.6366 O   0  0  0  0  0  0  0  0  0  0  0  0
  -30.2519  -17.3455   19.8127 O   0  0  0  0  0  0  0  0  0  1  0  0
  -16.0039  -30.2701   22.9312 F   0  0  0  0  0  0  0  0  0  0  0  0
  -18.0078  -25.9914   22.6434 F   0  0  0  0  0  0  0  0  0  0  0  0
  1  2  1  0  0  0  0
  1  5  2  0  0  0  0
  2  6  2  0  0  0  0
  3  8  2  0  0  0  0
  3 15  1  0  0  0  0
  4  9  1  0  0  0  0
  4 15  2  0  0  0  0
  5 17  1  0  0  0  0
  6 19  1  0  0  0  0
  7 10  2  0  0  0  0
  7 18  1  0  0  0  0
  8 21  1  0  0  0  0
  9 21  2  0  0  0  0
 10 22  1  0  0  0  0
 11 12  2  0  0  0  0
 11 23  1  0  0  0  0
 12 24  1  0  0  0  0
 13 20  1  0  0  0  0
 13 22  2  0  0  0  0
 14 24  2  0  0  0  0
 14 25  1  0  0  0  0
 15 26  1  0  0  0  0
 16 26  1  0  0  0  0
 16 27  2  0  0  0  0
 16 28  1  0  0  0  0
 17 19  2  0  0  0  0
 17 33  1  0  0  0  0
 18 20  2  0  0  0  0
 18 34  1  0  0  0  0
 19 42  1  0  0  0  0
 20 35  1  0  0  0  0
 21 80  1  0  0  0  0
 22 81  1  0  0  0  0
 23 25  2  0  0  0  0
 23 80  1  0  0  0  0
 24 82  1  0  0  0  0
 25 83  1  0  0  0  0
 26 65  2  0  0  0  0
 27 66  1  0  0  0  0
 27 69  1  0  0  0  0
 28 70  1  0  0  0  0
 28 75  2  0  0  0  0
 29 43  1  0  0  0  0
 29 71  1  0  0  0  0
 29 76  2  0  0  0  0
 30 54  1  0  0  0  0
 30 68  1  0  0  0  0
 30 77  2  0  0  0  0
 31 59  1  0  0  0  0
 31 67  1  0  0  0  0
 31 78  2  0  0  0  0
 32 60  1  0  0  0  0
 32 72  1  0  0  0  0
 32 79  2  0  0  0  0
 33 36  1  0  0  0  0
 34 43  1  0  0  0  0
 35 67  1  0  0  0  0
 36 38  1  0  0  0  0
 37 39  1  0  0  0  0
 37 40  1  0  0  0  0
 38 42  1  0  0  0  0
 39 44  1  0  0  0  0
 40 68  1  0  0  0  0
 41 44  1  0  0  0  0
 41 68  1  0  0  0  0
 42 71  1  0  0  0  0
 43 67  1  0  0  0  0
 44 66  1  0  0  0  0
 45 60  1  0  0  0  0
 46 61  1  0  0  0  0
 47 61  1  0  0  0  0
 48 63  1  0  0  0  0
 49 64  1  0  0  0  0
 50 64  1  0  0  0  0
 51 64  1  0  0  0  0
 52 73  1  0  0  0  0
 53 74  1  0  0  0  0
 54 62  1  0  0  0  0
 55 56  1  0  0  0  0
 55 58  1  0  0  0  0
 56 63  1  0  0  0  0
 57 62  1  0  0  0  0
 57 74  1  0  0  0  0
 58 81  1  0  0  0  0
 59 64  1  0  0  0  0
 59 72  1  0  0  0  0
 60 73  1  0  0  0  0
 61 62  1  0  0  0  0
 63 74  1  0  0  0  0
 65 66  1  0  0  0  0
M  CHG  2  73   1  74   1
M  ISO  4  30 100  54 100  58 101  81 101
M  END
> <Batch ID>
0089

> <Smiles>
CNC(C)C(=O)NC(C(=O)N1Cc2cc([101O:1][101CH2:1]CCC(C)N(C)CC([100CH2:0][100C:0](=O)N3CCCC(n4nc(-c5ccc(Oc6ccc(F)cc6F)cc5)c(C(N)=O)c4N)C3)C(C)C)ccc2CC1C(=O)NC1CCCc2ccccc21)C(C)(C)C

> <Shape>
0.231

> <Color>
0.078

> <Negative vol penalty>
0.000

$$$$

  -OEChem-04052319063D

 90 98  0     1  0  0  0  0  0999 V2000
  -18.1845  -28.1968   22.8920 C   0  0  0  0  0  0  0  0  0  0  0  0
  -18.8254  -27.1552   22.2288 C   0  0  0  0  0  0  0  0  0  0  0  0
  -23.4872   -9.6153   19.9079 C   0  0  0  0  0  0  0  0  0  0  0  0
  -23.7008   -9.9196   22.2951 C   0  0  0  0  0  0  0  0  0  0  0  0
  -18.9328  -29.2375   23.4405 C   0  0  0  0  0  0  0  0  0  0  0  0
  -20.2150  -27.1544   22.1128 C   0  0  0  0  0  0  0  0  0  0  0  0
  -23.9109  -22.2714   22.1670 C   0  0  0  0  0  0  0  0  0  0  0  0
  -22.8137   -8.4126   20.1215 C   0  0  0  0  0  0  0  0  0  0  0  0
  -23.0272   -8.7170   22.5087 C   0  0  0  0  0  0  0  0  0  0  0  0
  -24.5145  -21.5405   21.1446 C   0  0  0  0  0  0  0  0  0  0  0  0
  -19.6971   -7.4215   20.9801 C   0  0  0  0  0  0  0  0  0  0  0  0
  -18.5448   -7.1821   20.2314 C   0  0  0  0  0  0  0  0  0  0  0  0
  -26.5287  -22.8408   21.4124 C   0  0  0  0  0  0  0  0  0  0  0  0
  -30.1424  -16.5075   24.3191 C   0  0  0  0  0  0  0  0  0  0  0  0
  -30.7120  -18.3775   22.8994 C   0  0  0  0  0  0  0  0  0  0  0  0
  -30.1811  -16.2342   21.9189 C   0  0  0  0  0  0  0  0  0  0  0  0
  -19.5649   -5.2024   19.2947 C   0  0  0  0  0  0  0  0  0  0  0  0
  -23.9309  -10.3687   20.9948 C   0  0  0  0  0  0  0  0  0  0  0  0
  -24.0606  -12.8946   20.6620 C   0  0  0  0  0  0  0  0  0  0  0  0
  -20.3329  -29.2445   23.3396 C   0  0  0  0  0  0  0  0  0  0  0  0
  -24.6091  -23.3015   22.8134 C   0  0  0  0  0  0  0  0  0  0  0  0
  -20.9826  -28.1969   22.6593 C   0  0  0  0  0  0  0  0  0  0  0  0
  -25.9325  -23.5816   22.4443 C   0  0  0  0  0  0  0  0  0  0  0  0
  -30.5093  -17.8452   24.1727 C   0  0  0  0  0  0  0  0  0  0  0  0
  -29.9784  -15.7020   23.1921 C   0  0  0  0  0  0  0  0  0  0  0  0
  -30.5479  -17.5720   21.7725 C   0  0  0  0  0  0  0  0  0  0  0  0
  -22.5837   -7.9635   21.4219 C   0  0  0  0  0  0  0  0  0  0  0  0
  -25.8226  -21.8271   20.7652 C   0  0  0  0  0  0  0  0  0  0  0  0
  -20.7833   -6.5515   20.8861 C   0  0  0  0  0  0  0  0  0  0  0  0
  -18.4787   -6.0725   19.3887 C   0  0  0  0  0  0  0  0  0  0  0  0
  -20.7172   -5.4419   20.0434 C   0  0  0  0  0  0  0  0  0  0  0  0
  -24.6272  -11.6108   20.7748 C   0  0  0  0  0  0  0  0  0  0  0  0
  -25.1342  -13.7273   20.4607 C   0  0  0  0  0  0  0  0  0  0  0  0
  -22.6867  -13.2984   20.7330 C   0  0  0  0  0  0  0  0  0  0  0  0
  -24.1988  -26.4382   23.1242 C   0  0  0  0  0  0  0  0  0  0  0  0
  -26.7261  -26.1755   25.1407 C   0  0  0  0  0  0  0  0  0  0  0  0
  -29.4984  -24.4315   26.0995 C   0  0  0  0  0  0  0  0  0  0  0  0
  -31.0142  -12.7727   21.8936 C   0  0  0  0  0  0  0  0  0  0  0  0
  -21.0958  -30.4151   23.9073 C   0  0  0  0  0  0  0  0  0  0  0  0
  -23.9530  -24.0629   23.9325 C   0  0  0  0  0  0  0  0  0  0  0  0
  -26.7323  -24.6640   23.1206 C   0  0  0  0  0  0  0  0  0  0  0  0
  -22.5904  -30.1485   24.0668 C   0  0  0  0  0  0  0  0  0  0  0  0
  -29.5545  -13.7851   18.6461 C   0  0  0  0  0  0  0  0  0  0  0  0
  -23.1550  -29.5027   22.8054 C   0  0  0  0  0  0  0  0  0  0  0  0
  -28.0893  -13.3805   18.7989 C   0  0  0  0  0  0  0  0  0  0  0  0
  -30.4759  -12.9083   19.4887 C   0  0  0  0  0  0  0  0  0  0  0  0
  -28.6411  -12.4517   21.0822 C   0  0  0  0  0  0  0  0  0  0  0  0
  -22.4900  -28.1478   22.5343 C   0  0  1  0  0  0  0  0  0  0  0  0
  -24.5815  -25.4321   24.1725 C   0  0  1  0  0  0  0  0  0  0  0  0
  -27.6816  -13.3454   20.2821 C   0  0  2  0  0  0  0  0  0  0  0  0
  -31.9441  -17.4518   19.6928 C   0  0  0  0  0  0  0  0  0  0  0  0
  -31.4908  -23.8077   27.4919 C   0  0  0  0  0  0  0  0  0  0  0  0
  -31.4600  -19.1308   28.2863 C   0  0  0  0  0  0  0  0  0  0  0  0
  -33.8281  -19.5505   27.5961 C   0  0  0  0  0  0  0  0  0  0  0  0
  -28.0951  -28.3602   23.5089 C   0  0  0  0  0  0  0  0  0  0  0  0
  -30.2613  -27.7062   24.5804 C   0  0  0  0  0  0  0  0  0  0  0  0
  -28.3879  -28.5684   25.9838 C   0  0  0  0  0  0  0  0  0  0  0  0
  -31.6894  -13.3083   24.2037 C   0  0  0  0  0  0  0  0  0  0  0  0
  -27.8699  -22.6993   27.8621 C   0  0  0  0  0  0  0  0  0  0  0  0
  -30.6842  -18.7061   25.3780 C   0  0  0  0  0  0  0  0  0  0  0  0
  -29.5857  -14.2715   23.3480 C   0  0  0  0  0  0  0  0  0  0  0  0
  -32.1294  -18.6690   25.9090 C   0  0  0  0  0  0  0  0  0  0  0  0
  -28.3473  -18.9296   20.0462 C   0  0  0  0  0  0  0  0  0  0  0  0
  -27.1535  -18.9172   19.0856 C   0  0  0  0  0  0  0  0  0  0  0  0
  -29.5093  -18.0931   19.4956 C   0  0  0  0  0  0  0  0  0  0  0  0
  -25.9933  -19.7627   19.5969 C   0  0  0  0  0  0  0  0  0  1  0  0
  -30.7688  -18.1521   20.3861 C   0  0  1  0  0  0  0  0  0  0  0  0
  -28.2264  -26.2494   24.9898 C   0  0  1  0  0  0  0  0  0  0  0  0
  -29.9796  -23.9763   27.4654 C   0  0  2  0  0  0  0  0  0  0  0  0
  -32.3698  -19.5685   27.1357 C   0  0  0  0  0  0  0  0  0  0  0  0
  -28.7272  -27.7019   24.7514 C   0  0  0  0  0  0  0  0  0  0  0  0
  -25.9574  -11.6220   20.6549 N   0  0  0  0  0  0  0  0  0  0  0  0
  -26.2357  -12.9229   20.4646 N   0  0  0  0  0  0  0  0  0  0  0  0
  -26.0447  -25.3846   24.2048 N   0  0  0  0  0  0  0  0  0  0  0  0
  -30.0406  -12.8581   20.8848 N   0  0  0  0  0  0  0  0  0  0  0  0
  -25.2341  -15.0617   20.2823 N   0  0  0  0  0  0  0  0  0  0  0  0
  -21.7113  -12.3145   20.9450 N   0  0  0  0  0  0  0  0  0  0  0  0
  -23.0379  -27.1321   23.4075 N   0  0  0  0  0  0  0  0  0  0  0  0
  -28.7878  -25.6107   26.1752 N   0  0  0  0  0  0  0  0  0  0  0  0
  -30.7074  -13.3607   23.1300 N   0  0  0  0  0  0  0  0  0  0  0  0
  -29.3549  -22.6724   27.8267 N   0  3  0  0  0  0  0  0  0  0  0  0
  -22.3330  -14.4940   20.5957 O   0  0  0  0  0  0  0  0  0  0  0  0
  -24.9053  -26.5759   22.1325 O   0  0  0  0  0  0  0  0  0  0  0  0
  -26.1797  -26.7911   26.0595 O   0  0  0  0  0  0  0  0  0  0  0  0
  -29.7329  -23.8057   25.0681 O   0  0  0  0  0  0  0  0  0  0  0  0
  -32.0998  -12.2116   21.6970 O   0  0  0  0  0  0  0  0  0  0  0  0
  -21.9263   -6.7901   21.6306 O   0  0  0  0  0  0  0  0  0  0  0  0
  -26.4139  -21.1156   19.7672 O   0  0  0  0  0  0  0  0  0  1  0  0
  -17.3715   -5.8418   18.6710 F   0  0  0  0  0  0  0  0  0  0  0  0
  -21.7570   -4.6018   19.9498 F   0  0  0  0  0  0  0  0  0  0  0  0
  1  2  1  0  0  0  0
  1  5  2  0  0  0  0
  2  6  2  0  0  0  0
  3  8  2  0  0  0  0
  3 18  1  0  0  0  0
  4  9  1  0  0  0  0
  4 18  2  0  0  0  0
  5 20  1  0  0  0  0
  6 22  1  0  0  0  0
  7 10  2  0  0  0  0
  7 21  1  0  0  0  0
  8 27  1  0  0  0  0
  9 27  2  0  0  0  0
 10 28  1  0  0  0  0
 11 12  2  0  0  0  0
 11 29  1  0  0  0  0
 12 30  1  0  0  0  0
 13 23  1  0  0  0  0
 13 28  2  0  0  0  0
 14 24  1  0  0  0  0
 14 25  2  0  0  0  0
 15 24  2  0  0  0  0
 15 26  1  0  0  0  0
 16 25  1  0  0  0  0
 16 26  2  0  0  0  0
 17 30  2  0  0  0  0
 17 31  1  0  0  0  0
 18 32  1  0  0  0  0
 19 32  1  0  0  0  0
 19 33  2  0  0  0  0
 19 34  1  0  0  0  0
 20 22  2  0  0  0  0
 20 39  1  0  0  0  0
 21 23  2  0  0  0  0
 21 40  1  0  0  0  0
 22 48  1  0  0  0  0
 23 41  1  0  0  0  0
 24 60  1  0  0  0  0
 25 61  1  0  0  0  0
 26 67  1  0  0  0  0
 27 87  1  0  0  0  0
 28 88  1  0  0  0  0
 29 31  2  0  0  0  0
 29 87  1  0  0  0  0
 30 89  1  0  0  0  0
 31 90  1  0  0  0  0
 32 72  2  0  0  0  0
 33 73  1  0  0  0  0
 33 76  1  0  0  0  0
 34 77  1  0  0  0  0
 34 82  2  0  0  0  0
 35 49  1  0  0  0  0
 35 78  1  0  0  0  0
 35 83  2  0  0  0  0
 36 68  1  0  0  0  0
 36 74  1  0  0  0  0
 36 84  2  0  0  0  0
 37 69  1  0  0  0  0
 37 79  1  0  0  0  0
 37 85  2  0  0  0  0
 38 75  1  0  0  0  0
 38 80  1  0  0  0  0
 38 86  2  0  0  0  0
 39 42  1  0  0  0  0
 40 49  1  0  0  0  0
 41 74  1  0  0  0  0
 42 44  1  0  0  0  0
 43 45  1  0  0  0  0
 43 46  1  0  0  0  0
 44 48  1  0  0  0  0
 45 50  1  0  0  0  0
 46 75  1  0  0  0  0
 47 50  1  0  0  0  0
 47 75  1  0  0  0  0
 48 78  1  0  0  0  0
 49 74  1  0  0  0  0
 50 73  1  0  0  0  0
 51 67  1  0  0  0  0
 52 69  1  0  0  0  0
 53 70  1  0  0  0  0
 54 70  1  0  0  0  0
 55 71  1  0  0  0  0
 56 71  1  0  0  0  0
 57 71  1  0  0  0  0
 58 80  1  0  0  0  0
 59 81  1  0  0  0  0
 60 62  1  0  0  0  0
 61 80  1  0  0  0  0
 62 70  1  0  0  0  0
 63 64  1  0  0  0  0
 63 65  1  0  0  0  0
 64 66  1  0  0  0  0
 65 67  1  0  0  0  0
 66 88  1  0  0  0  0
 68 71  1  0  0  0  0
 68 79  1  0  0  0  0
 69 81  1  0  0  0  0
 72 73  1  0  0  0  0
M  CHG  1  81   1
M  ISO  4  38 100  66 101  80 100  88 101
M  END
> <Batch ID>
0089

> <Smiles>
CNC(C)C(=O)NC(C(=O)N1Cc2cc([101O:1][101CH2:1]CCCC(C)c3cc(CCC(C)C)cc(C[100N:0](C)[100C:0](=O)N4CCCC(n5nc(-c6ccc(Oc7ccc(F)cc7F)cc6)c(C(N)=O)c5N)C4)c3)ccc2CC1C(=O)NC1CCCc2ccccc21)C(C)(C)C

> <Shape>
0.226

> <Color>
0.177

> <Negative vol penalty>
0.000

$$$$

  -OEChem-04052319062D

  0  0  0     0  0  0  0  0  0999 V2000
M  END
$$$$

  -OEChem-04052319063D

 85 93  0     1  0  0  0  0  0999 V2000
  -20.9412  -21.0934   30.0067 C   0  0  0  0  0  0  0  0  0  0  0  0
  -22.0555  -21.1877   29.1791 C   0  0  0  0  0  0  0  0  0  0  0  0
  -23.1139   -9.8075   19.9611 C   0  0  0  0  0  0  0  0  0  0  0  0
  -23.6808  -10.0086   22.3010 C   0  0  0  0  0  0  0  0  0  0  0  0
  -19.6801  -20.8746   29.4536 C   0  0  0  0  0  0  0  0  0  0  0  0
  -21.9095  -21.0621   27.7981 C   0  0  0  0  0  0  0  0  0  0  0  0
  -25.1096  -23.9926   23.4763 C   0  0  0  0  0  0  0  0  0  0  0  0
  -22.3455   -8.6784   20.2443 C   0  0  0  0  0  0  0  0  0  0  0  0
  -22.9124   -8.8795   22.5843 C   0  0  0  0  0  0  0  0  0  0  0  0
  -26.2050  -23.6138   22.7014 C   0  0  0  0  0  0  0  0  0  0  0  0
  -19.6410   -8.1304   22.9810 C   0  0  0  0  0  0  0  0  0  0  0  0
  -18.7892   -8.1880   24.0841 C   0  0  0  0  0  0  0  0  0  0  0  0
  -24.7140  -22.9832   20.9130 C   0  0  0  0  0  0  0  0  0  0  0  0
  -26.3917  -19.2799   21.7143 C   0  0  0  0  0  0  0  0  0  0  0  0
  -19.9545   -6.3213   25.0814 C   0  0  0  0  0  0  0  0  0  0  0  0
  -23.7816  -10.4726   20.9895 C   0  0  0  0  0  0  0  0  0  0  0  0
  -24.1461  -12.9792   20.6866 C   0  0  0  0  0  0  0  0  0  0  0  0
  -19.5173  -20.7559   28.0644 C   0  0  0  0  0  0  0  0  0  0  0  0
  -23.8054  -23.8590   22.9787 C   0  0  0  0  0  0  0  0  0  0  0  0
  -20.6453  -20.8402   27.2260 C   0  0  0  0  0  0  0  0  0  0  0  0
  -23.6039  -23.3633   21.6827 C   0  0  0  0  0  0  0  0  0  0  0  0
  -27.6842  -19.2038   21.2259 C   0  0  0  0  0  0  0  0  0  0  0  0
  -22.2447   -8.2144   21.5559 C   0  0  0  0  0  0  0  0  0  0  0  0
  -26.0071  -23.1063   21.4206 C   0  0  0  0  0  0  0  0  0  0  0  0
  -20.6495   -7.1681   22.9281 C   0  0  0  0  0  0  0  0  0  0  0  0
  -18.9460   -7.2835   25.1343 C   0  0  0  0  0  0  0  0  0  0  0  0
  -20.8062   -6.2636   23.9782 C   0  0  0  0  0  0  0  0  0  0  0  0
  -24.5760  -11.6387   20.6975 C   0  0  0  0  0  0  0  0  0  0  0  0
  -26.0564  -18.4729   22.7828 C   0  0  0  0  0  0  0  0  0  0  0  0
  -28.5559  -18.3260   21.8386 C   0  0  0  0  0  0  0  0  0  0  0  0
  -25.2688  -13.6971   20.3538 C   0  0  0  0  0  0  0  0  0  0  0  0
  -22.8481  -13.5265   20.9536 C   0  0  0  0  0  0  0  0  0  0  0  0
  -21.2339  -22.2020   23.8420 C   0  0  0  0  0  0  0  0  0  0  0  0
  -19.8230  -23.8971   21.4633 C   0  0  0  0  0  0  0  0  0  0  0  0
  -20.1703  -25.6521   18.5571 C   0  0  0  0  0  0  0  0  0  0  0  0
  -30.7235  -14.7366   20.9114 C   0  0  0  0  0  0  0  0  0  0  0  0
  -18.1410  -20.4727   27.5164 C   0  0  0  0  0  0  0  0  0  0  0  0
  -22.6360  -24.2971   23.8171 C   0  0  0  0  0  0  0  0  0  0  0  0
  -22.2250  -23.2191   21.0943 C   0  0  0  0  0  0  0  0  0  0  0  0
  -18.0192  -20.7249   26.0158 C   0  0  0  0  0  0  0  0  0  0  0  0
  -29.7748  -12.1580   18.6470 C   0  0  0  0  0  0  0  0  0  0  0  0
  -19.1990  -20.1059   25.2729 C   0  0  0  0  0  0  0  0  0  0  0  0
  -28.3048  -11.8996   18.9820 C   0  0  0  0  0  0  0  0  0  0  0  0
  -30.5903  -12.4804   19.8973 C   0  0  0  0  0  0  0  0  0  0  0  0
  -28.5841  -13.3228   21.0545 C   0  0  0  0  0  0  0  0  0  0  0  0
  -20.5241  -20.7340   25.7213 C   0  0  1  0  0  0  0  0  0  0  0  0
  -21.3242  -23.6366   23.4044 C   0  0  1  0  0  0  0  0  0  0  0  0
  -27.7101  -13.0482   19.8188 C   0  0  2  0  0  0  0  0  0  0  0  0
  -24.6541  -18.9849   24.8139 C   0  0  0  0  0  0  0  0  0  0  0  0
  -23.9448  -17.1668   23.2181 C   0  0  0  0  0  0  0  0  0  0  0  0
  -18.8326  -26.8850   16.8285 C   0  0  0  0  0  0  0  0  0  0  0  0
  -18.8932  -21.2383   20.2900 C   0  0  0  0  0  0  0  0  0  0  0  0
  -18.4164  -22.4326   18.1419 C   0  0  0  0  0  0  0  0  0  0  0  0
  -17.1860  -23.0644   20.2179 C   0  0  0  0  0  0  0  0  0  0  0  0
  -21.5828  -28.1937   19.1088 C   0  0  0  0  0  0  0  0  0  0  0  0
  -28.1029  -20.0640   20.0604 C   0  0  0  0  0  0  0  0  0  0  0  0
  -29.9639  -18.1895   21.3662 C   0  0  0  0  0  0  0  0  0  0  0  0
  -28.9608  -21.2667   20.4594 C   0  0  0  0  0  0  0  0  0  0  0  0
  -30.6983  -16.9837   21.9645 C   0  0  0  0  0  0  0  0  0  0  0  0
  -28.2288  -22.2603   21.3540 C   0  0  0  0  0  0  0  0  0  1  0  0
  -24.6773  -18.5164   23.3462 C   0  0  0  0  0  0  0  0  0  0  0  0
  -19.6226  -23.6956   19.9806 C   0  0  1  0  0  0  0  0  0  0  0  0
  -19.6229  -26.9998   18.1227 C   0  0  2  0  0  0  0  0  0  0  0  0
  -18.5556  -22.6085   19.6691 C   0  0  0  0  0  0  0  0  0  0  0  0
  -25.8707  -11.5099   20.3954 N   0  0  0  0  0  0  0  0  0  0  0  0
  -26.9300  -17.6230   23.3629 N   0  0  0  0  0  0  0  0  0  0  0  0
  -28.2004  -17.5485   22.8831 N   0  0  0  0  0  0  0  0  0  0  0  0
  -26.2640  -12.7787   20.1915 N   0  0  0  0  0  0  0  0  0  0  0  0
  -21.1133  -23.6551   21.9555 N   0  0  0  0  0  0  0  0  0  0  0  0
  -29.9738  -13.5791   20.6448 N   0  0  0  0  0  0  0  0  0  0  0  0
  -25.4919  -15.0180   20.1870 N   0  0  0  0  0  0  0  0  0  0  0  0
  -21.8067  -12.6475   21.2807 N   0  0  0  0  0  0  0  0  0  0  0  0
  -20.7021  -22.0317   25.1060 N   0  0  0  0  0  0  0  0  0  0  0  0
  -19.3153  -25.0103   19.4279 N   0  0  0  0  0  0  0  0  0  0  0  0
  -30.0616  -15.7321   21.6197 N   0  0  0  0  0  0  0  0  0  0  0  0
  -20.7367  -27.9667   17.9090 N   0  3  0  0  0  0  0  0  0  0  0  0
  -22.6147  -14.7573   20.8875 O   0  0  0  0  0  0  0  0  0  0  0  0
  -21.6169  -21.3151   23.0880 O   0  0  0  0  0  0  0  0  0  0  0  0
  -18.8715  -24.2628   22.1579 O   0  0  0  0  0  0  0  0  0  0  0  0
  -21.2467  -25.2112   18.1605 O   0  0  0  0  0  0  0  0  0  0  0  0
  -31.8941  -14.8750   20.5407 O   0  0  0  0  0  0  0  0  0  0  0  0
  -21.4948   -7.1127   21.8326 O   0  0  0  0  0  0  0  0  0  0  0  0
  -27.0744  -22.7353   20.6624 O   0  0  0  0  0  0  0  0  0  1  0  0
  -18.1290   -7.3399   26.1942 F   0  0  0  0  0  0  0  0  0  0  0  0
  -21.7740   -5.3378   23.9336 F   0  0  0  0  0  0  0  0  0  0  0  0
  1  2  1  0  0  0  0
  1  5  2  0  0  0  0
  2  6  2  0  0  0  0
  3  8  2  0  0  0  0
  3 16  1  0  0  0  0
  4  9  1  0  0  0  0
  4 16  2  0  0  0  0
  5 18  1  0  0  0  0
  6 20  1  0  0  0  0
  7 10  2  0  0  0  0
  7 19  1  0  0  0  0
  8 23  1  0  0  0  0
  9 23  2  0  0  0  0
 10 24  1  0  0  0  0
 11 12  2  0  0  0  0
 11 25  1  0  0  0  0
 12 26  1  0  0  0  0
 13 21  1  0  0  0  0
 13 24  2  0  0  0  0
 14 22  1  0  0  0  0
 14 29  2  0  0  0  0
 15 26  2  0  0  0  0
 15 27  1  0  0  0  0
 16 28  1  0  0  0  0
 17 28  1  0  0  0  0
 17 31  2  0  0  0  0
 17 32  1  0  0  0  0
 18 20  2  0  0  0  0
 18 37  1  0  0  0  0
 19 21  2  0  0  0  0
 19 38  1  0  0  0  0
 20 46  1  0  0  0  0
 21 39  1  0  0  0  0
 22 30  2  0  0  0  0
 22 56  1  0  0  0  0
 23 82  1  0  0  0  0
 24 83  1  0  0  0  0
 25 27  2  0  0  0  0
 25 82  1  0  0  0  0
 26 84  1  0  0  0  0
 27 85  1  0  0  0  0
 28 65  2  0  0  0  0
 29 61  1  0  0  0  0
 29 66  1  0  0  0  0
 30 57  1  0  0  0  0
 30 67  1  0  0  0  0
 31 68  1  0  0  0  0
 31 71  1  0  0  0  0
 32 72  1  0  0  0  0
 32 77  2  0  0  0  0
 33 47  1  0  0  0  0
 33 73  1  0  0  0  0
 33 78  2  0  0  0  0
 34 62  1  0  0  0  0
 34 69  1  0  0  0  0
 34 79  2  0  0  0  0
 35 63  1  0  0  0  0
 35 74  1  0  0  0  0
 35 80  2  0  0  0  0
 36 70  1  0  0  0  0
 36 75  1  0  0  0  0
 36 81  2  0  0  0  0
 37 40  1  0  0  0  0
 38 47  1  0  0  0  0
 39 69  1  0  0  0  0
 40 42  1  0  0  0  0
 41 43  1  0  0  0  0
 41 44  1  0  0  0  0
 42 46  1  0  0  0  0
 43 48  1  0  0  0  0
 44 70  1  0  0  0  0
 45 48  1  0  0  0  0
 45 70  1  0  0  0  0
 46 73  1  0  0  0  0
 47 69  1  0  0  0  0
 48 68  1  0  0  0  0
 49 61  1  0  0  0  0
 50 61  1  0  0  0  0
 51 63  1  0  0  0  0
 52 64  1  0  0  0  0
 53 64  1  0  0  0  0
 54 64  1  0  0  0  0
 55 76  1  0  0  0  0
 56 58  1  0  0  0  0
 57 59  1  0  0  0  0
 58 60  1  0  0  0  0
 59 75  1  0  0  0  0
 60 83  1  0  0  0  0
 62 64  1  0  0  0  0
 62 74  1  0  0  0  0
 63 76  1  0  0  0  0
 65 68  1  0  0  0  0
 66 67  2  0  0  0  0
M  CHG  1  76   1
M  ISO  4  36 100  60 101  75 100  83 101
M  END
> <Batch ID>
0089

> <Smiles>
CNC(C)C(=O)NC(C(=O)N1Cc2cc([101O:1][101CH2:1]CCc3cc(C(C)C)nnc3CC[100NH:0][100C:0](=O)N3CCCC(n4nc(-c5ccc(Oc6ccc(F)cc6F)cc5)c(C(N)=O)c4N)C3)ccc2CC1C(=O)NC1CCCc2ccccc21)C(C)(C)C

> <Shape>
0.194

> <Color>
0.176

> <Negative vol penalty>
0.000

$$$$

  -OEChem-04052319063D

 87 95  0     1  0  0  0  0  0999 V2000
  -29.3544  -24.4532   17.3395 C   0  0  0  0  0  0  0  0  0  0  0  0
  -28.1546  -24.5128   18.0411 C   0  0  0  0  0  0  0  0  0  0  0  0
  -26.5587  -13.5692   20.5490 C   0  0  0  0  0  0  0  0  0  0  0  0
  -24.1747  -13.7500   20.2014 C   0  0  0  0  0  0  0  0  0  0  0  0
  -30.4526  -25.1939   17.7746 C   0  0  0  0  0  0  0  0  0  0  0  0
  -28.0526  -25.3124   19.1789 C   0  0  0  0  0  0  0  0  0  0  0  0
  -23.7771  -28.0248   19.2702 C   0  0  0  0  0  0  0  0  0  0  0  0
  -26.4740  -12.1839   20.4101 C   0  0  0  0  0  0  0  0  0  0  0  0
  -24.0899  -12.3647   20.0624 C   0  0  0  0  0  0  0  0  0  0  0  0
  -22.6092  -27.3601   19.6414 C   0  0  0  0  0  0  0  0  0  0  0  0
  -24.0426   -9.6562   22.0855 C   0  0  0  0  0  0  0  0  0  0  0  0
  -23.0111   -8.9995   22.7565 C   0  0  0  0  0  0  0  0  0  0  0  0
  -22.8015  -28.2764   21.8647 C   0  0  0  0  0  0  0  0  0  0  0  0
  -22.5678  -23.2226   23.9331 C   0  0  0  0  0  0  0  0  0  0  0  0
  -22.1571   -8.1863   20.6479 C   0  0  0  0  0  0  0  0  0  0  0  0
  -25.4091  -14.3523   20.4447 C   0  0  0  0  0  0  0  0  0  0  0  0
  -25.7162  -16.7285   19.5689 C   0  0  0  0  0  0  0  0  0  0  0  0
  -30.3611  -26.0105   18.9128 C   0  0  0  0  0  0  0  0  0  0  0  0
  -24.4732  -28.8129   20.1981 C   0  0  0  0  0  0  0  0  0  0  0  0
  -29.1509  -26.0637   19.6304 C   0  0  0  0  0  0  0  0  0  0  0  0
  -23.9766  -28.9521   21.5020 C   0  0  0  0  0  0  0  0  0  0  0  0
  -22.2216  -23.8832   25.1066 C   0  0  0  0  0  0  0  0  0  0  0  0
  -21.8458  -23.4607   22.7689 C   0  0  0  0  0  0  0  0  0  0  0  0
  -25.2396  -11.5816   20.1668 C   0  0  0  0  0  0  0  0  0  0  0  0
  -22.1228  -27.4835   20.9396 C   0  0  0  0  0  0  0  0  0  0  0  0
  -24.1314   -9.5780   20.6956 C   0  0  0  0  0  0  0  0  0  0  0  0
  -22.0683   -8.2645   22.0377 C   0  0  0  0  0  0  0  0  0  0  0  0
  -23.1886   -8.8430   19.9768 C   0  0  0  0  0  0  0  0  0  0  0  0
  -25.4960  -15.7833   20.5887 C   0  0  0  0  0  0  0  0  0  0  0  0
  -21.1537  -24.7650   25.0636 C   0  0  0  0  0  0  0  0  0  0  0  0
  -20.7946  -24.3613   22.8306 C   0  0  0  0  0  0  0  0  0  0  0  0
  -25.7127  -17.9396   20.2167 C   0  0  0  0  0  0  0  0  0  0  0  0
  -25.9067  -16.5295   18.1619 C   0  0  0  0  0  0  0  0  0  0  0  0
  -27.3790  -28.7246   21.4833 C   0  0  0  0  0  0  0  0  0  0  0  0
  -26.4702  -31.5590   22.7726 C   0  0  0  0  0  0  0  0  0  0  0  0
  -23.9276  -33.6136   23.7528 C   0  0  0  0  0  0  0  0  0  0  0  0
  -23.1498  -19.7105   25.2317 C   0  0  0  0  0  0  0  0  0  0  0  0
  -31.5891  -26.7562   19.3718 C   0  0  0  0  0  0  0  0  0  0  0  0
  -25.7169  -29.5449   19.7744 C   0  0  0  0  0  0  0  0  0  0  0  0
  -24.6755  -29.8024   22.5301 C   0  0  0  0  0  0  0  0  0  0  0  0
  -31.2873  -27.8697   20.3714 C   0  0  0  0  0  0  0  0  0  0  0  0
  -26.6811  -19.9159   24.4669 C   0  0  0  0  0  0  0  0  0  0  0  0
  -30.3369  -27.3710   21.4553 C   0  0  0  0  0  0  0  0  0  0  0  0
  -26.7910  -18.9592   23.2783 C   0  0  0  0  0  0  0  0  0  0  0  0
  -25.6844  -19.4006   25.5009 C   0  0  0  0  0  0  0  0  0  0  0  0
  -24.4305  -18.1698   23.7728 C   0  0  0  0  0  0  0  0  0  0  0  0
  -28.9937  -26.9388   20.8550 C   0  0  1  0  0  0  0  0  0  0  0  0
  -26.6249  -29.9077   20.9454 C   0  0  1  0  0  0  0  0  0  0  0  0
  -25.4062  -18.6458   22.6813 C   0  0  2  0  0  0  0  0  0  0  0  0
  -20.7355  -25.5022   26.2935 C   0  0  0  0  0  0  0  0  0  0  0  0
  -20.6884  -20.7320   21.8910 C   0  0  0  0  0  0  0  0  0  0  0  0
  -23.6299  -23.1410   21.0354 C   0  0  0  0  0  0  0  0  0  0  0  0
  -23.4970  -35.8501   24.8062 C   0  0  0  0  0  0  0  0  0  0  0  0
  -27.2193  -30.4157   25.5005 C   0  0  0  0  0  0  0  0  0  0  0  0
  -25.9102  -32.2689   26.5590 C   0  0  0  0  0  0  0  0  0  0  0  0
  -27.8967  -32.7968   25.1456 C   0  0  0  0  0  0  0  0  0  0  0  0
  -22.4785  -34.5894   21.3639 C   0  0  0  0  0  0  0  0  0  0  0  0
  -22.9912  -23.6326   26.3571 C   0  0  0  0  0  0  0  0  0  0  0  0
  -19.9769  -24.6596   21.5975 C   0  0  0  0  0  0  0  0  0  0  0  0
  -22.1049  -21.2077   21.5917 C   0  0  0  0  0  0  0  0  0  0  0  0
  -22.3080  -22.6665   27.3463 C   0  0  0  0  0  0  0  0  0  0  0  0
  -22.0027  -21.2869   26.7668 C   0  0  0  0  0  0  0  0  0  0  0  0
  -20.6944  -25.6056   20.6408 C   0  0  0  0  0  0  0  0  0  1  0  0
  -22.2114  -22.7560   21.5084 C   0  0  1  0  0  0  0  0  0  0  0  0
  -25.7728  -31.9809   24.0432 C   0  0  1  0  0  0  0  0  0  0  0  0
  -23.6705  -35.0884   23.5015 C   0  0  2  0  0  0  0  0  0  0  0  0
  -26.6874  -31.8479   25.2935 C   0  0  0  0  0  0  0  0  0  0  0  0
  -25.3625  -16.3456   21.7928 N   0  0  0  0  0  0  0  0  0  0  0  0
  -20.4287  -25.0220   23.9519 N   0  0  0  0  0  0  0  0  0  0  0  0
  -25.4993  -17.6572   21.5339 N   0  0  0  0  0  0  0  0  0  0  0  0
  -25.8912  -30.4932   22.0693 N   0  0  0  0  0  0  0  0  0  0  0  0
  -24.3819  -19.1397   24.8720 N   0  0  0  0  0  0  0  0  0  0  0  0
  -25.8715  -19.2079   19.7824 N   0  0  0  0  0  0  0  0  0  0  0  0
  -25.8810  -15.2201   17.6627 N   0  0  0  0  0  0  0  0  0  0  0  0
  -28.1808  -28.0965   20.5494 N   0  0  0  0  0  0  0  0  0  0  0  0
  -25.2764  -33.3323   23.8070 N   0  0  0  0  0  0  0  0  0  0  0  0
  -23.1892  -20.6139   26.2868 N   0  0  0  0  0  0  0  0  0  0  0  0
  -22.4365  -35.2673   22.6852 N   0  3  0  0  0  0  0  0  0  0  0  0
  -26.1107  -17.4833   17.3731 O   0  0  0  0  0  0  0  0  0  0  0  0
  -27.2446  -28.4061   22.6590 O   0  0  0  0  0  0  0  0  0  0  0  0
  -27.4871  -32.1579   22.4134 O   0  0  0  0  0  0  0  0  0  0  0  0
  -23.0225  -32.7937   23.8912 O   0  0  0  0  0  0  0  0  0  0  0  0
  -22.0928  -19.4393   24.6518 O   0  0  0  0  0  0  0  0  0  0  0  0
  -25.1565  -10.2299   20.0309 O   0  0  0  0  0  0  0  0  0  0  0  0
  -20.9833  -26.8352   21.3048 O   0  0  0  0  0  0  0  0  0  1  0  0
  -21.0787   -7.6327   22.6824 F   0  0  0  0  0  0  0  0  0  0  0  0
  -23.2694   -8.7632   18.6416 F   0  0  0  0  0  0  0  0  0  0  0  0
  1  2  1  0  0  0  0
  1  5  2  0  0  0  0
  2  6  2  0  0  0  0
  3  8  2  0  0  0  0
  3 16  1  0  0  0  0
  4  9  1  0  0  0  0
  4 16  2  0  0  0  0
  5 18  1  0  0  0  0
  6 20  1  0  0  0  0
  7 10  2  0  0  0  0
  7 19  1  0  0  0  0
  8 24  1  0  0  0  0
  9 24  2  0  0  0  0
 10 25  1  0  0  0  0
 11 12  2  0  0  0  0
 11 26  1  0  0  0  0
 12 27  1  0  0  0  0
 13 21  1  0  0  0  0
 13 25  2  0  0  0  0
 14 22  2  0  0  0  0
 14 23  1  0  0  0  0
 15 27  2  0  0  0  0
 15 28  1  0  0  0  0
 16 29  1  0  0  0  0
 17 29  1  0  0  0  0
 17 32  2  0  0  0  0
 17 33  1  0  0  0  0
 18 20  2  0  0  0  0
 18 38  1  0  0  0  0
 19 21  2  0  0  0  0
 19 39  1  0  0  0  0
 20 47  1  0  0  0  0
 21 40  1  0  0  0  0
 22 30  1  0  0  0  0
 22 58  1  0  0  0  0
 23 31  2  0  0  0  0
 23 64  1  0  0  0  0
 24 84  1  0  0  0  0
 25 85  1  0  0  0  0
 26 28  2  0  0  0  0
 26 84  1  0  0  0  0
 27 86  1  0  0  0  0
 28 87  1  0  0  0  0
 29 68  2  0  0  0  0
 30 50  1  0  0  0  0
 30 69  2  0  0  0  0
 31 59  1  0  0  0  0
 31 69  1  0  0  0  0
 32 70  1  0  0  0  0
 32 73  1  0  0  0  0
 33 74  1  0  0  0  0
 33 79  2  0  0  0  0
 34 48  1  0  0  0  0
 34 75  1  0  0  0  0
 34 80  2  0  0  0  0
 35 65  1  0  0  0  0
 35 71  1  0  0  0  0
 35 81  2  0  0  0  0
 36 66  1  0  0  0  0
 36 76  1  0  0  0  0
 36 82  2  0  0  0  0
 37 72  1  0  0  0  0
 37 77  1  0  0  0  0
 37 83  2  0  0  0  0
 38 41  1  0  0  0  0
 39 48  1  0  0  0  0
 40 71  1  0  0  0  0
 41 43  1  0  0  0  0
 42 44  1  0  0  0  0
 42 45  1  0  0  0  0
 43 47  1  0  0  0  0
 44 49  1  0  0  0  0
 45 72  1  0  0  0  0
 46 49  1  0  0  0  0
 46 72  1  0  0  0  0
 47 75  1  0  0  0  0
 48 71  1  0  0  0  0
 49 70  1  0  0  0  0
 51 60  1  0  0  0  0
 52 64  1  0  0  0  0
 53 66  1  0  0  0  0
 54 67  1  0  0  0  0
 55 67  1  0  0  0  0
 56 67  1  0  0  0  0
 57 78  1  0  0  0  0
 58 61  1  0  0  0  0
 59 63  1  0  0  0  0
 60 64  1  0  0  0  0
 61 62  1  0  0  0  0
 62 77  1  0  0  0  0
 63 85  1  0  0  0  0
 65 67  1  0  0  0  0
 65 76  1  0  0  0  0
 66 78  1  0  0  0  0
 68 70  1  0  0  0  0
M  CHG  1  78   1
M  ISO  4  37 100  63 101  77 100  85 101
M  END
> <Batch ID>
0089

> <Smiles>
CCC(C)c1cc(CCC[100NH:0][100C:0](=O)N2CCCC(n3nc(-c4ccc(Oc5ccc(F)cc5F)cc4)c(C(N)=O)c3N)C2)c(C)nc1C[101CH2:1][101O:1]c1ccc2c(c1)CN(C(=O)C(NC(=O)C(C)NC)C(C)(C)C)C(C(=O)NC1CCCc3ccccc31)C2

> <Shape>
0.255

> <Color>
0.079

> <Negative vol penalty>
0.000

$$$$

  -OEChem-04052319063D

 87 95  0     1  0  0  0  0  0999 V2000
  -24.8788  -31.0413   20.1407 C   0  0  0  0  0  0  0  0  0  0  0  0
  -25.6723  -29.9185   19.9283 C   0  0  0  0  0  0  0  0  0  0  0  0
  -28.6633  -23.3067   19.5550 C   0  0  0  0  0  0  0  0  0  0  0  0
  -30.6571  -22.5298   18.4335 C   0  0  0  0  0  0  0  0  0  0  0  0
  -24.0000  -31.0779   21.2224 C   0  0  0  0  0  0  0  0  0  0  0  0
  -25.5882  -28.8320   20.7984 C   0  0  0  0  0  0  0  0  0  0  0  0
  -24.0359  -21.3257   19.2910 C   0  0  0  0  0  0  0  0  0  0  0  0
  -29.1122  -24.6225   19.4418 C   0  0  0  0  0  0  0  0  0  0  0  0
  -31.1061  -23.8456   18.3201 C   0  0  0  0  0  0  0  0  0  0  0  0
  -23.6173  -20.0005   19.1697 C   0  0  0  0  0  0  0  0  0  0  0  0
  -31.3223  -26.6434   21.0088 C   0  0  0  0  0  0  0  0  0  0  0  0
  -31.2160  -27.4627   22.1327 C   0  0  0  0  0  0  0  0  0  0  0  0
  -22.8216  -20.0317   21.4531 C   0  0  0  0  0  0  0  0  0  0  0  0
  -24.3952  -12.4955   19.8074 C   0  0  0  0  0  0  0  0  0  0  0  0
  -29.7968  -28.9763   20.8950 C   0  0  0  0  0  0  0  0  0  0  0  0
  -25.5226  -13.1956   21.6264 C   0  0  0  0  0  0  0  0  0  0  0  0
  -29.4358  -22.2604   19.0509 C   0  0  0  0  0  0  0  0  0  0  0  0
  -28.1787  -20.1910   18.2478 C   0  0  0  0  0  0  0  0  0  0  0  0
  -23.8981  -29.9875   22.1006 C   0  0  0  0  0  0  0  0  0  0  0  0
  -23.8348  -22.0146   20.4903 C   0  0  0  0  0  0  0  0  0  0  0  0
  -24.7082  -28.8547   21.8937 C   0  0  0  0  0  0  0  0  0  0  0  0
  -23.2275  -21.3632   21.5764 C   0  0  0  0  0  0  0  0  0  0  0  0
  -24.2560  -13.0389   21.1083 C   0  0  0  0  0  0  0  0  0  0  0  0
  -30.3336  -24.8919   18.8243 C   0  0  0  0  0  0  0  0  0  0  0  0
  -23.0119  -19.3550   20.2482 C   0  0  0  0  0  0  0  0  0  0  0  0
  -30.6659  -26.9906   19.8280 C   0  0  0  0  0  0  0  0  0  0  0  0
  -30.4532  -28.6291   22.0758 C   0  0  0  0  0  0  0  0  0  0  0  0
  -29.9032  -28.1570   19.7711 C   0  0  0  0  0  0  0  0  0  0  0  0
  -28.9728  -20.9009   19.1682 C   0  0  0  0  0  0  0  0  0  0  0  0
  -25.7428  -12.3364   19.5702 C   0  0  0  0  0  0  0  0  0  0  0  0
  -28.0174  -18.9517   18.8177 C   0  0  0  0  0  0  0  0  0  0  0  0
  -27.6354  -20.6138   16.9901 C   0  0  0  0  0  0  0  0  0  0  0  0
  -24.2237  -25.2255   22.3915 C   0  0  0  0  0  0  0  0  0  0  0  0
  -21.4648  -24.0931   23.1100 C   0  0  0  0  0  0  0  0  0  0  0  0
  -18.3450  -22.7280   23.3117 C   0  0  0  0  0  0  0  0  0  0  0  0
  -30.6247  -14.6074   21.3957 C   0  0  0  0  0  0  0  0  0  0  0  0
  -22.9681  -30.0923   23.2833 C   0  0  0  0  0  0  0  0  0  0  0  0
  -24.3252  -23.4235   20.6858 C   0  0  0  0  0  0  0  0  0  0  0  0
  -23.0629  -22.1328   22.8584 C   0  0  0  0  0  0  0  0  0  0  0  0
  -22.6671  -28.7488   23.9425 C   0  0  0  0  0  0  0  0  0  0  0  0
  -29.0972  -17.2759   23.4567 C   0  0  0  0  0  0  0  0  0  0  0  0
  -23.9528  -27.9530   24.1436 C   0  0  0  0  0  0  0  0  0  0  0  0
  -28.9338  -18.4179   22.4552 C   0  0  0  0  0  0  0  0  0  0  0  0
  -30.2647  -16.3641   23.0916 C   0  0  0  0  0  0  0  0  0  0  0  0
  -30.0339  -16.9667   20.7047 C   0  0  0  0  0  0  0  0  0  0  0  0
  -24.6275  -27.6463   22.8011 C   0  0  1  0  0  0  0  0  0  0  0  0
  -23.4009  -24.2650   21.5841 C   0  0  1  0  0  0  0  0  0  0  0  0
  -28.8373  -17.8775   21.0179 C   0  0  2  0  0  0  0  0  0  0  0  0
  -22.7657  -12.5205   23.0570 C   0  0  0  0  0  0  0  0  0  0  0  0
  -26.1947  -12.6663   17.1125 C   0  0  0  0  0  0  0  0  0  0  0  0
  -26.0893  -10.3381   18.0733 C   0  0  0  0  0  0  0  0  0  0  0  0
  -16.1154  -23.0638   24.4132 C   0  0  0  0  0  0  0  0  0  0  0  0
  -22.6059  -23.0356   25.7336 C   0  0  0  0  0  0  0  0  0  0  0  0
  -20.2682  -22.4996   26.4522 C   0  0  0  0  0  0  0  0  0  0  0  0
  -20.9184  -24.8633   25.9910 C   0  0  0  0  0  0  0  0  0  0  0  0
  -30.7319  -12.9714   19.5541 C   0  0  0  0  0  0  0  0  0  0  0  0
  -16.9726  -23.0258   20.7065 C   0  0  0  0  0  0  0  0  0  0  0  0
  -22.8230  -15.7954   20.9302 C   0  0  0  0  0  0  0  0  0  0  0  0
  -22.8339  -14.8827   22.1649 C   0  0  0  0  0  0  0  0  0  0  0  0
  -27.8549  -12.7700   20.8526 C   0  0  0  0  0  0  0  0  0  0  0  0
  -28.5361  -13.9332   20.1364 C   0  0  0  0  0  0  0  0  0  0  0  0
  -22.6149  -17.2594   21.3010 C   0  0  0  0  0  0  0  0  0  1  0  0
  -22.9512  -13.3858   21.8044 C   0  0  1  0  0  0  0  0  0  0  0  0
  -26.4400  -11.8125   18.3775 C   0  0  0  0  0  0  0  0  0  0  0  0
  -20.6511  -23.2523   24.0610 C   0  0  1  0  0  0  0  0  0  0  0  0
  -16.9645  -23.3463   23.1836 C   0  0  2  0  0  0  0  0  0  0  0  0
  -21.1215  -23.4019   25.5353 C   0  0  0  0  0  0  0  0  0  0  0  0
  -29.2936  -20.1733   20.2414 N   0  0  0  0  0  0  0  0  0  0  0  0
  -26.4184  -12.7649   20.6829 N   0  0  0  0  0  0  0  0  0  0  0  0
  -28.6980  -18.9933   19.9989 N   0  0  0  0  0  0  0  0  0  0  0  0
  -22.6128  -23.5029   22.5675 N   0  0  0  0  0  0  0  0  0  0  0  0
  -30.1708  -15.8996   21.7072 N   0  0  0  0  0  0  0  0  0  0  0  0
  -27.3612  -17.8415   18.4187 N   0  0  0  0  0  0  0  0  0  0  0  0
  -27.8981  -21.9196   16.5541 N   0  0  0  0  0  0  0  0  0  0  0  0
  -23.9509  -26.5553   22.1330 N   0  0  0  0  0  0  0  0  0  0  0  0
  -19.2565  -23.6184   23.8386 N   0  0  0  0  0  0  0  0  0  0  0  0
  -29.9830  -13.9411   20.3407 N   0  0  0  0  0  0  0  0  0  0  0  0
  -16.2602  -22.7982   21.9901 N   0  3  0  0  0  0  0  0  0  0  0  0
  -26.9241  -19.8615   16.2819 O   0  0  0  0  0  0  0  0  0  0  0  0
  -25.0450  -24.7933   23.1916 O   0  0  0  0  0  0  0  0  0  0  0  0
  -21.0979  -25.2442   22.8577 O   0  0  0  0  0  0  0  0  0  0  0  0
  -18.5894  -21.5698   22.9811 O   0  0  0  0  0  0  0  0  0  0  0  0
  -31.5444  -14.0757   22.0309 O   0  0  0  0  0  0  0  0  0  0  0  0
  -30.7718  -26.1757   18.7133 O   0  0  0  0  0  0  0  0  0  0  0  0
  -22.6016  -18.0626   20.1215 O   0  0  0  0  0  0  0  0  0  1  0  0
  -30.3499  -29.4150   23.1555 F   0  0  0  0  0  0  0  0  0  0  0  0
  -29.2693  -28.4952   18.6398 F   0  0  0  0  0  0  0  0  0  0  0  0
  1  2  1  0  0  0  0
  1  5  2  0  0  0  0
  2  6  2  0  0  0  0
  3  8  2  0  0  0  0
  3 17  1  0  0  0  0
  4  9  1  0  0  0  0
  4 17  2  0  0  0  0
  5 19  1  0  0  0  0
  6 21  1  0  0  0  0
  7 10  2  0  0  0  0
  7 20  1  0  0  0  0
  8 24  1  0  0  0  0
  9 24  2  0  0  0  0
 10 25  1  0  0  0  0
 11 12  2  0  0  0  0
 11 26  1  0  0  0  0
 12 27  1  0  0  0  0
 13 22  1  0  0  0  0
 13 25  2  0  0  0  0
 14 23  1  0  0  0  0
 14 30  2  0  0  0  0
 15 27  2  0  0  0  0
 15 28  1  0  0  0  0
 16 23  2  0  0  0  0
 16 69  1  0  0  0  0
 17 29  1  0  0  0  0
 18 29  1  0  0  0  0
 18 31  2  0  0  0  0
 18 32  1  0  0  0  0
 19 21  2  0  0  0  0
 19 37  1  0  0  0  0
 20 22  2  0  0  0  0
 20 38  1  0  0  0  0
 21 46  1  0  0  0  0
 22 39  1  0  0  0  0
 23 63  1  0  0  0  0
 24 84  1  0  0  0  0
 25 85  1  0  0  0  0
 26 28  2  0  0  0  0
 26 84  1  0  0  0  0
 27 86  1  0  0  0  0
 28 87  1  0  0  0  0
 29 68  2  0  0  0  0
 30 64  1  0  0  0  0
 30 69  1  0  0  0  0
 31 70  1  0  0  0  0
 31 73  1  0  0  0  0
 32 74  1  0  0  0  0
 32 79  2  0  0  0  0
 33 47  1  0  0  0  0
 33 75  1  0  0  0  0
 33 80  2  0  0  0  0
 34 65  1  0  0  0  0
 34 71  1  0  0  0  0
 34 81  2  0  0  0  0
 35 66  1  0  0  0  0
 35 76  1  0  0  0  0
 35 82  2  0  0  0  0
 36 72  1  0  0  0  0
 36 77  1  0  0  0  0
 36 83  2  0  0  0  0
 37 40  1  0  0  0  0
 38 47  1  0  0  0  0
 39 71  1  0  0  0  0
 40 42  1  0  0  0  0
 41 43  1  0  0  0  0
 41 44  1  0  0  0  0
 42 46  1  0  0  0  0
 43 48  1  0  0  0  0
 44 72  1  0  0  0  0
 45 48  1  0  0  0  0
 45 72  1  0  0  0  0
 46 75  1  0  0  0  0
 47 71  1  0  0  0  0
 48 70  1  0  0  0  0
 49 63  1  0  0  0  0
 50 64  1  0  0  0  0
 51 64  1  0  0  0  0
 52 66  1  0  0  0  0
 53 67  1  0  0  0  0
 54 67  1  0  0  0  0
 55 67  1  0  0  0  0
 56 77  1  0  0  0  0
 57 78  1  0  0  0  0
 58 59  1  0  0  0  0
 58 62  1  0  0  0  0
 59 63  1  0  0  0  0
 60 61  1  0  0  0  0
 60 69  1  0  0  0  0
 61 77  1  0  0  0  0
 62 85  1  0  0  0  0
 65 67  1  0  0  0  0
 65 76  1  0  0  0  0
 66 78  1  0  0  0  0
 68 70  1  0  0  0  0
M  CHG  1  78   1
M  ISO  4  36 100  62 101  77 100  85 101
M  END
> <Batch ID>
0089

> <Smiles>
CNC(C)C(=O)NC(C(=O)N1Cc2cc([101O:1][101CH2:1]CCC(C)c3cc(C(C)C)n(CC[100N:0](C)[100C:0](=O)N4CCCC(n5nc(-c6ccc(Oc7ccc(F)cc7F)cc6)c(C(N)=O)c5N)C4)c3)ccc2CC1C(=O)NC1CCCc2ccccc21)C(C)(C)C

> <Shape>
0.229

> <Color>
0.060

> <Negative vol penalty>
0.000

$$$$

  -OEChem-04052319063D

 85 93  0     1  0  0  0  0  0999 V2000
  -28.2443  -33.2172   26.5074 C   0  0  0  0  0  0  0  0  0  0  0  0
  -28.3028  -32.0144   25.8107 C   0  0  0  0  0  0  0  0  0  0  0  0
  -25.1954  -14.0348   19.1644 C   0  0  0  0  0  0  0  0  0  0  0  0
  -25.7757  -13.4036   21.4231 C   0  0  0  0  0  0  0  0  0  0  0  0
  -27.0089  -33.7979   26.7908 C   0  0  0  0  0  0  0  0  0  0  0  0
  -27.1257  -31.3911   25.3980 C   0  0  0  0  0  0  0  0  0  0  0  0
  -27.3850  -29.7148   20.6264 C   0  0  0  0  0  0  0  0  0  0  0  0
  -24.8837  -12.7068   18.8733 C   0  0  0  0  0  0  0  0  0  0  0  0
  -25.4640  -12.0755   21.1320 C   0  0  0  0  0  0  0  0  0  0  0  0
  -28.0824  -28.5280   20.4055 C   0  0  0  0  0  0  0  0  0  0  0  0
  -24.4771   -8.5766   21.0886 C   0  0  0  0  0  0  0  0  0  0  0  0
  -23.7181   -7.8686   22.0204 C   0  0  0  0  0  0  0  0  0  0  0  0
  -25.9941  -27.3231   20.3243 C   0  0  0  0  0  0  0  0  0  0  0  0
  -21.9233   -9.4669   21.7727 C   0  0  0  0  0  0  0  0  0  0  0  0
  -25.6415  -14.3832   20.4393 C   0  0  0  0  0  0  0  0  0  0  0  0
  -25.0945  -16.7427   21.2401 C   0  0  0  0  0  0  0  0  0  0  0  0
  -25.8164  -33.1863   26.3730 C   0  0  0  0  0  0  0  0  0  0  0  0
  -25.9851  -29.7130   20.7090 C   0  0  0  0  0  0  0  0  0  0  0  0
  -25.8731  -31.9635   25.6773 C   0  0  0  0  0  0  0  0  0  0  0  0
  -25.2812  -28.5116   20.5438 C   0  0  0  0  0  0  0  0  0  0  0  0
  -25.9254  -22.7203   22.9628 C   0  0  0  0  0  0  0  0  0  0  0  0
  -25.0180  -11.7271   19.8571 C   0  0  0  0  0  0  0  0  0  0  0  0
  -27.3871  -27.3314   20.2573 C   0  0  0  0  0  0  0  0  0  0  0  0
  -23.9593   -9.7298   20.4989 C   0  0  0  0  0  0  0  0  0  0  0  0
  -22.4412   -8.3137   22.3625 C   0  0  0  0  0  0  0  0  0  0  0  0
  -22.6823  -10.1749   20.8410 C   0  0  0  0  0  0  0  0  0  0  0  0
  -25.9641  -15.7548   20.7404 C   0  0  0  0  0  0  0  0  0  0  0  0
  -25.8210  -22.8851   24.3569 C   0  0  0  0  0  0  0  0  0  0  0  0
  -27.2751  -22.7650   22.7119 C   0  0  0  0  0  0  0  0  0  0  0  0
  -25.8784  -17.8648   21.3532 C   0  0  0  0  0  0  0  0  0  0  0  0
  -23.7026  -16.6539   21.5725 C   0  0  0  0  0  0  0  0  0  0  0  0
  -23.8699  -30.4589   22.9613 C   0  0  0  0  0  0  0  0  0  0  0  0
  -21.7317  -29.9359   20.5787 C   0  0  0  0  0  0  0  0  0  0  0  0
  -21.0167  -28.4101   17.6110 C   0  0  0  0  0  0  0  0  0  0  0  0
  -30.6509  -20.3362   22.8569 C   0  0  0  0  0  0  0  0  0  0  0  0
  -24.5028  -33.8278   26.7439 C   0  0  0  0  0  0  0  0  0  0  0  0
  -25.2462  -31.0058   20.9211 C   0  0  0  0  0  0  0  0  0  0  0  0
  -23.7772  -28.4591   20.6037 C   0  0  0  0  0  0  0  0  0  0  0  0
  -23.3170  -33.2938   25.9445 C   0  0  0  0  0  0  0  0  0  0  0  0
  -30.5448  -18.8070   19.6433 C   0  0  0  0  0  0  0  0  0  0  0  0
  -23.3509  -31.7697   25.8930 C   0  0  0  0  0  0  0  0  0  0  0  0
  -29.2759  -17.9538   19.6860 C   0  0  0  0  0  0  0  0  0  0  0  0
  -31.2598  -18.8229   20.9926 C   0  0  0  0  0  0  0  0  0  0  0  0
  -29.1479  -18.3673   22.1783 C   0  0  0  0  0  0  0  0  0  0  0  0
  -24.6192  -31.2694   25.1912 C   0  0  1  0  0  0  0  0  0  0  0  0
  -23.8487  -30.8073   21.4999 C   0  0  1  0  0  0  0  0  0  0  0  0
  -28.3621  -18.3659   20.8558 C   0  0  2  0  0  0  0  0  0  0  0  0
  -24.8348  -22.5406   21.9889 C   0  0  0  0  0  0  0  0  0  0  0  0
  -24.6744  -25.4343   25.5666 C   0  0  0  0  0  0  0  0  0  0  0  0
  -19.1747  -28.1402   15.9283 C   0  0  0  0  0  0  0  0  0  0  0  0
  -20.3078  -27.9939   22.4525 C   0  0  0  0  0  0  0  0  0  0  0  0
  -19.0979  -27.0716   20.4641 C   0  0  0  0  0  0  0  0  0  0  0  0
  -18.7850  -29.4592   21.1152 C   0  0  0  0  0  0  0  0  0  0  0  0
  -22.6430  -29.6334   15.4621 C   0  0  0  0  0  0  0  0  0  0  0  0
  -24.5951  -22.9167   25.1739 C   0  0  0  0  0  0  0  0  0  0  0  0
  -28.0527  -22.6520   21.4250 C   0  0  0  0  0  0  0  0  0  0  0  0
  -23.8445  -24.2610   25.0701 C   0  0  0  0  0  0  0  0  0  0  0  0
  -28.5776  -23.9913   20.9030 C   0  0  0  0  0  0  0  0  0  0  0  0
  -29.2901  -23.0588   24.1846 C   0  0  0  0  0  0  0  0  0  0  0  0
  -29.8989  -21.7722   24.7361 C   0  0  0  0  0  0  0  0  0  0  0  0
  -27.4700  -24.9705   20.5318 C   0  0  0  0  0  0  0  0  0  1  0  0
  -20.9704  -28.7357   20.0699 C   0  0  1  0  0  0  0  0  0  0  0  0
  -20.4045  -28.9409   16.3272 C   0  0  2  0  0  0  0  0  0  0  0  0
  -19.8187  -28.3155   21.0262 C   0  0  0  0  0  0  0  0  0  0  0  0
  -27.2054  -16.2095   20.5491 N   0  0  0  0  0  0  0  0  0  0  0  0
  -27.0096  -23.0241   24.9502 N   0  0  0  0  0  0  0  0  0  0  0  0
  -27.8737  -22.9465   23.9238 N   0  0  0  0  0  0  0  0  0  0  0  0
  -27.1214  -17.4954   20.9305 N   0  0  0  0  0  0  0  0  0  0  0  0
  -23.1002  -29.7486   20.8194 N   0  0  0  0  0  0  0  0  0  0  0  0
  -30.3385  -19.2234   22.0588 N   0  0  0  0  0  0  0  0  0  0  0  0
  -25.6188  -19.1217   21.7719 N   0  0  0  0  0  0  0  0  0  0  0  0
  -23.0506  -15.4259   21.3960 N   0  0  0  0  0  0  0  0  0  0  0  0
  -24.4895  -31.4043   23.7562 N   0  0  0  0  0  0  0  0  0  0  0  0
  -20.5329  -29.0723   18.7194 N   0  0  0  0  0  0  0  0  0  0  0  0
  -29.7211  -20.6513   23.8402 N   0  0  0  0  0  0  0  0  0  0  0  0
  -21.3929  -28.8700   15.2141 N   0  3  0  0  0  0  0  0  0  0  0  0
  -23.0523  -17.6388   21.9974 O   0  0  0  0  0  0  0  0  0  0  0  0
  -23.3605  -29.4107   23.3400 O   0  0  0  0  0  0  0  0  0  0  0  0
  -21.1357  -31.0023   20.7493 O   0  0  0  0  0  0  0  0  0  0  0  0
  -21.8388  -27.4966   17.6289 O   0  0  0  0  0  0  0  0  0  0  0  0
  -31.6796  -21.0030   22.7011 O   0  0  0  0  0  0  0  0  0  0  0  0
  -24.7137  -10.4312   19.5735 O   0  0  0  0  0  0  0  0  0  0  0  0
  -28.0654  -26.1714   20.0422 O   0  0  0  0  0  0  0  0  0  1  0  0
  -21.7118   -7.6328   23.2561 F   0  0  0  0  0  0  0  0  0  0  0  0
  -22.1790  -11.2814   20.2769 F   0  0  0  0  0  0  0  0  0  0  0  0
  1  2  1  0  0  0  0
  1  5  2  0  0  0  0
  2  6  2  0  0  0  0
  3  8  2  0  0  0  0
  3 15  1  0  0  0  0
  4  9  1  0  0  0  0
  4 15  2  0  0  0  0
  5 17  1  0  0  0  0
  6 19  1  0  0  0  0
  7 10  2  0  0  0  0
  7 18  1  0  0  0  0
  8 22  1  0  0  0  0
  9 22  2  0  0  0  0
 10 23  1  0  0  0  0
 11 12  2  0  0  0  0
 11 24  1  0  0  0  0
 12 25  1  0  0  0  0
 13 20  1  0  0  0  0
 13 23  2  0  0  0  0
 14 25  2  0  0  0  0
 14 26  1  0  0  0  0
 15 27  1  0  0  0  0
 16 27  1  0  0  0  0
 16 30  2  0  0  0  0
 16 31  1  0  0  0  0
 17 19  2  0  0  0  0
 17 36  1  0  0  0  0
 18 20  2  0  0  0  0
 18 37  1  0  0  0  0
 19 45  1  0  0  0  0
 20 38  1  0  0  0  0
 21 28  1  0  0  0  0
 21 29  2  0  0  0  0
 21 48  1  0  0  0  0
 22 82  1  0  0  0  0
 23 83  1  0  0  0  0
 24 26  2  0  0  0  0
 24 82  1  0  0  0  0
 25 84  1  0  0  0  0
 26 85  1  0  0  0  0
 27 65  2  0  0  0  0
 28 55  1  0  0  0  0
 28 66  2  0  0  0  0
 29 56  1  0  0  0  0
 29 67  1  0  0  0  0
 30 68  1  0  0  0  0
 30 71  1  0  0  0  0
 31 72  1  0  0  0  0
 31 77  2  0  0  0  0
 32 46  1  0  0  0  0
 32 73  1  0  0  0  0
 32 78  2  0  0  0  0
 33 62  1  0  0  0  0
 33 69  1  0  0  0  0
 33 79  2  0  0  0  0
 34 63  1  0  0  0  0
 34 74  1  0  0  0  0
 34 80  2  0  0  0  0
 35 70  1  0  0  0  0
 35 75  1  0  0  0  0
 35 81  2  0  0  0  0
 36 39  1  0  0  0  0
 37 46  1  0  0  0  0
 38 69  1  0  0  0  0
 39 41  1  0  0  0  0
 40 42  1  0  0  0  0
 40 43  1  0  0  0  0
 41 45  1  0  0  0  0
 42 47  1  0  0  0  0
 43 70  1  0  0  0  0
 44 47  1  0  0  0  0
 44 70  1  0  0  0  0
 45 73  1  0  0  0  0
 46 69  1  0  0  0  0
 47 68  1  0  0  0  0
 49 57  1  0  0  0  0
 50 63  1  0  0  0  0
 51 64  1  0  0  0  0
 52 64  1  0  0  0  0
 53 64  1  0  0  0  0
 54 76  1  0  0  0  0
 55 57  1  0  0  0  0
 56 58  1  0  0  0  0
 58 61  1  0  0  0  0
 59 60  1  0  0  0  0
 59 67  1  0  0  0  0
 60 75  1  0  0  0  0
 61 83  1  0  0  0  0
 62 64  1  0  0  0  0
 62 74  1  0  0  0  0
 63 76  1  0  0  0  0
 65 68  1  0  0  0  0
 66 67  1  0  0  0  0
M  CHG  1  76   1
M  ISO  4  35 100  61 101  75 100  83 101
M  END
> <Batch ID>
0089

> <Smiles>
CCCc1nn(CC[100NH:0][100C:0](=O)N2CCCC(n3nc(-c4ccc(Oc5ccc(F)cc5F)cc4)c(C(N)=O)c3N)C2)c(CC[101CH2:1][101O:1]c2ccc3c(c2)CN(C(=O)C(NC(=O)C(C)NC)C(C)(C)C)C(C(=O)NC2CCCc4ccccc42)C3)c1C

> <Shape>
0.255

> <Color>
0.083

> <Negative vol penalty>
0.000

$$$$

  -OEChem-04052319063D

 86 94  0     1  0  0  0  0  0999 V2000
  -31.9811  -15.1931   18.6166 C   0  0  0  0  0  0  0  0  0  0  0  0
  -30.9958  -16.1750   18.6370 C   0  0  0  0  0  0  0  0  0  0  0  0
  -29.0480  -26.9816   19.7285 C   0  0  0  0  0  0  0  0  0  0  0  0
  -27.4313  -25.2536   20.2157 C   0  0  0  0  0  0  0  0  0  0  0  0
  -31.6494  -13.8684   18.8981 C   0  0  0  0  0  0  0  0  0  0  0  0
  -29.6780  -15.8327   18.9377 C   0  0  0  0  0  0  0  0  0  0  0  0
  -25.5967  -19.2292   21.9894 C   0  0  0  0  0  0  0  0  0  0  0  0
  -30.0572  -26.0206   19.6686 C   0  0  0  0  0  0  0  0  0  0  0  0
  -28.4405  -24.2925   20.1557 C   0  0  0  0  0  0  0  0  0  0  0  0
  -24.5578  -20.0554   21.5628 C   0  0  0  0  0  0  0  0  0  0  0  0
  -30.5291  -21.3412   19.7746 C   0  0  0  0  0  0  0  0  0  0  0  0
  -30.2662  -20.1667   19.0695 C   0  0  0  0  0  0  0  0  0  0  0  0
  -22.9986  -18.2393   21.8624 C   0  0  0  0  0  0  0  0  0  0  0  0
  -19.8484  -26.5235   23.5274 C   0  0  0  0  0  0  0  0  0  0  0  0
  -29.8970  -21.4559   17.0598 C   0  0  0  0  0  0  0  0  0  0  0  0
  -19.5767  -26.8370   21.1855 C   0  0  0  0  0  0  0  0  0  0  0  0
  -27.7350  -26.5981   20.0021 C   0  0  0  0  0  0  0  0  0  0  0  0
  -25.8863  -28.0449   19.0037 C   0  0  0  0  0  0  0  0  0  0  0  0
  -30.3286  -13.5112   19.2119 C   0  0  0  0  0  0  0  0  0  0  0  0
  -25.3457  -17.8965   22.3458 C   0  0  0  0  0  0  0  0  0  0  0  0
  -29.3281  -14.5018   19.2224 C   0  0  0  0  0  0  0  0  0  0  0  0
  -24.0356  -17.3990   22.2956 C   0  0  0  0  0  0  0  0  0  0  0  0
  -19.6961  -25.9711   22.2606 C   0  0  0  0  0  0  0  0  0  0  0  0
  -19.8762  -27.9054   23.6784 C   0  0  0  0  0  0  0  0  0  0  0  0
  -29.7535  -24.6761   19.8822 C   0  0  0  0  0  0  0  0  0  0  0  0
  -23.2590  -19.5596   21.4965 C   0  0  0  0  0  0  0  0  0  0  0  0
  -30.4759  -22.5730   19.1223 C   0  0  0  0  0  0  0  0  0  0  0  0
  -29.9502  -20.2240   17.7122 C   0  0  0  0  0  0  0  0  0  0  0  0
  -30.1599  -22.6303   17.7649 C   0  0  0  0  0  0  0  0  0  0  0  0
  -26.6922  -27.5904   20.0647 C   0  0  0  0  0  0  0  0  0  0  0  0
  -19.7490  -28.6848   22.5399 C   0  0  0  0  0  0  0  0  0  0  0  0
  -25.0589  -28.9794   19.5768 C   0  0  0  0  0  0  0  0  0  0  0  0
  -25.8858  -27.6569   17.6234 C   0  0  0  0  0  0  0  0  0  0  0  0
  -26.2938  -15.0657   21.2542 C   0  0  0  0  0  0  0  0  0  0  0  0
  -24.6842  -13.9632   23.8457 C   0  0  0  0  0  0  0  0  0  0  0  0
  -22.2423  -14.4765   26.1739 C   0  0  0  0  0  0  0  0  0  0  0  0
  -23.0992  -29.8041   25.1741 C   0  0  0  0  0  0  0  0  0  0  0  0
  -30.0095  -12.0587   19.4628 C   0  0  0  0  0  0  0  0  0  0  0  0
  -26.4730  -17.0260   22.8294 C   0  0  0  0  0  0  0  0  0  0  0  0
  -23.7101  -15.9815   22.6868 C   0  0  0  0  0  0  0  0  0  0  0  0
  -28.6587  -11.8399   20.1394 C   0  0  0  0  0  0  0  0  0  0  0  0
  -24.8956  -32.1347   23.1696 C   0  0  0  0  0  0  0  0  0  0  0  0
  -27.5794  -12.6765   19.4596 C   0  0  0  0  0  0  0  0  0  0  0  0
  -25.4870  -31.2753   22.0508 C   0  0  0  0  0  0  0  0  0  0  0  0
  -24.8789  -31.3913   24.5034 C   0  0  0  0  0  0  0  0  0  0  0  0
  -24.8092  -29.2140   23.3509 C   0  0  0  0  0  0  0  0  0  0  0  0
  -27.8918  -14.1738   19.5685 C   0  0  1  0  0  0  0  0  0  0  0  0
  -26.1847  -15.5356   22.6772 C   0  0  1  0  0  0  0  0  0  0  0  0
  -24.7957  -29.9007   21.9745 C   0  0  2  0  0  0  0  0  0  0  0  0
  -19.3071  -30.8497   21.3549 C   0  0  0  0  0  0  0  0  0  0  0  0
  -18.8574  -28.1525   25.9642 C   0  0  0  0  0  0  0  0  0  0  0  0
  -21.1337  -13.3804   28.1403 C   0  0  0  0  0  0  0  0  0  0  0  0
  -23.1418  -12.1332   21.9530 C   0  0  0  0  0  0  0  0  0  0  0  0
  -21.4564  -11.7882   23.7720 C   0  0  0  0  0  0  0  0  0  0  0  0
  -23.8204  -11.0681   24.1116 C   0  0  0  0  0  0  0  0  0  0  0  0
  -23.0710  -16.6521   28.0012 C   0  0  0  0  0  0  0  0  0  0  0  0
  -19.6628  -24.4766   22.0625 C   0  0  0  0  0  0  0  0  0  0  0  0
  -19.7727  -30.1750   22.6414 C   0  0  0  0  0  0  0  0  0  0  0  0
  -21.0418  -23.8534   21.8189 C   0  0  0  0  0  0  0  0  0  0  0  0
  -20.9794  -22.3503   21.5440 C   0  0  0  0  0  0  0  0  0  0  0  0
  -21.3666  -28.1151   25.7261 C   0  0  0  0  0  0  0  0  0  0  0  0
  -22.3690  -21.7599   21.3465 C   0  0  0  0  0  0  0  0  0  1  0  0
  -20.0373  -28.5039   25.0331 C   0  0  1  0  0  0  0  0  0  0  0  0
  -23.2628  -13.5341   24.1184 C   0  0  1  0  0  0  0  0  0  0  0  0
  -22.2406  -14.3179   27.6836 C   0  0  2  0  0  0  0  0  0  0  0  0
  -22.9265  -12.1571   23.4795 C   0  0  0  0  0  0  0  0  0  0  0  0
  -19.5993  -28.1844   21.2929 N   0  0  0  0  0  0  0  0  0  0  0  0
  -26.4029  -28.1872   21.2241 N   0  0  0  0  0  0  0  0  0  0  0  0
  -25.4061  -29.0263   20.8949 N   0  0  0  0  0  0  0  0  0  0  0  0
  -24.8475  -15.1677   23.1470 N   0  0  0  0  0  0  0  0  0  0  0  0
  -24.2080  -30.0967   24.3629 N   0  0  0  0  0  0  0  0  0  0  0  0
  -24.0755  -29.7574   19.0768 N   0  0  0  0  0  0  0  0  0  0  0  0
  -26.8014  -26.6827   17.2028 N   0  0  0  0  0  0  0  0  0  0  0  0
  -27.5648  -14.6635   20.8905 N   0  0  0  0  0  0  0  0  0  0  0  0
  -23.0939  -13.5779   25.5669 N   0  0  0  0  0  0  0  0  0  0  0  0
  -22.5183  -28.5581   24.9724 N   0  0  0  0  0  0  0  0  0  0  0  0
  -22.0394  -15.6391   28.3430 N   0  3  0  0  0  0  0  0  0  0  0  0
  -25.1077  -28.1710   16.7844 O   0  0  0  0  0  0  0  0  0  0  0  0
  -25.2983  -15.0666   20.5396 O   0  0  0  0  0  0  0  0  0  0  0  0
  -25.6155  -13.2593   24.2443 O   0  0  0  0  0  0  0  0  0  0  0  0
  -21.5540  -15.3114   25.5910 O   0  0  0  0  0  0  0  0  0  0  0  0
  -22.6562  -30.5969   26.0121 O   0  0  0  0  0  0  0  0  0  0  0  0
  -30.7379  -23.7381   19.8235 O   0  0  0  0  0  0  0  0  0  0  0  0
  -22.2433  -20.3637   21.0799 O   0  0  0  0  0  0  0  0  0  1  0  0
  -29.6993  -19.0960   17.0348 F   0  0  0  0  0  0  0  0  0  0  0  0
  -30.1084  -23.8107   17.1326 F   0  0  0  0  0  0  0  0  0  0  0  0
  1  2  1  0  0  0  0
  1  5  2  0  0  0  0
  2  6  2  0  0  0  0
  3  8  2  0  0  0  0
  3 17  1  0  0  0  0
  4  9  1  0  0  0  0
  4 17  2  0  0  0  0
  5 19  1  0  0  0  0
  6 21  1  0  0  0  0
  7 10  2  0  0  0  0
  7 20  1  0  0  0  0
  8 25  1  0  0  0  0
  9 25  2  0  0  0  0
 10 26  1  0  0  0  0
 11 12  2  0  0  0  0
 11 27  1  0  0  0  0
 12 28  1  0  0  0  0
 13 22  1  0  0  0  0
 13 26  2  0  0  0  0
 14 23  2  0  0  0  0
 14 24  1  0  0  0  0
 15 28  2  0  0  0  0
 15 29  1  0  0  0  0
 16 23  1  0  0  0  0
 16 67  2  0  0  0  0
 17 30  1  0  0  0  0
 18 30  1  0  0  0  0
 18 32  2  0  0  0  0
 18 33  1  0  0  0  0
 19 21  2  0  0  0  0
 19 38  1  0  0  0  0
 20 22  2  0  0  0  0
 20 39  1  0  0  0  0
 21 47  1  0  0  0  0
 22 40  1  0  0  0  0
 23 57  1  0  0  0  0
 24 31  2  0  0  0  0
 24 63  1  0  0  0  0
 25 83  1  0  0  0  0
 26 84  1  0  0  0  0
 27 29  2  0  0  0  0
 27 83  1  0  0  0  0
 28 85  1  0  0  0  0
 29 86  1  0  0  0  0
 30 68  2  0  0  0  0
 31 58  1  0  0  0  0
 31 67  1  0  0  0  0
 32 69  1  0  0  0  0
 32 72  1  0  0  0  0
 33 73  1  0  0  0  0
 33 78  2  0  0  0  0
 34 48  1  0  0  0  0
 34 74  1  0  0  0  0
 34 79  2  0  0  0  0
 35 64  1  0  0  0  0
 35 70  1  0  0  0  0
 35 80  2  0  0  0  0
 36 65  1  0  0  0  0
 36 75  1  0  0  0  0
 36 81  2  0  0  0  0
 37 71  1  0  0  0  0
 37 76  1  0  0  0  0
 37 82  2  0  0  0  0
 38 41  1  0  0  0  0
 39 48  1  0  0  0  0
 40 70  1  0  0  0  0
 41 43  1  0  0  0  0
 42 44  1  0  0  0  0
 42 45  1  0  0  0  0
 43 47  1  0  0  0  0
 44 49  1  0  0  0  0
 45 71  1  0  0  0  0
 46 49  1  0  0  0  0
 46 71  1  0  0  0  0
 47 74  1  0  0  0  0
 48 70  1  0  0  0  0
 49 69  1  0  0  0  0
 50 58  1  0  0  0  0
 51 63  1  0  0  0  0
 52 65  1  0  0  0  0
 53 66  1  0  0  0  0
 54 66  1  0  0  0  0
 55 66  1  0  0  0  0
 56 77  1  0  0  0  0
 57 59  1  0  0  0  0
 59 60  1  0  0  0  0
 60 62  1  0  0  0  0
 61 63  1  0  0  0  0
 61 76  1  0  0  0  0
 62 84  1  0  0  0  0
 64 66  1  0  0  0  0
 64 75  1  0  0  0  0
 65 77  1  0  0  0  0
 68 69  1  0  0  0  0
M  CHG  1  77   1
M  ISO  4  37 100  62 101  76 100  84 101
M  END
> <Batch ID>
0089

> <Smiles>
CCc1ncc(CCC[101CH2:1][101O:1]c2ccc3c(c2)CN(C(=O)C(NC(=O)C(C)NC)C(C)(C)C)C(C(=O)NC2CCCc4ccccc42)C3)cc1C(C)C[100NH:0][100C:0](=O)N1CCCC(n2nc(-c3ccc(Oc4ccc(F)cc4F)cc3)c(C(N)=O)c2N)C1

> <Shape>
0.226

> <Color>
0.069

> <Negative vol penalty>
0.000

$$$$

  -OEChem-04052319063D

 89 97  0     1  0  0  0  0  0999 V2000
  -36.5838  -23.1814   14.0905 C   0  0  0  0  0  0  0  0  0  0  0  0
  -35.4585  -22.7383   14.7781 C   0  0  0  0  0  0  0  0  0  0  0  0
  -23.0581   -9.8903   19.9330 C   0  0  0  0  0  0  0  0  0  0  0  0
  -23.8648   -9.8539   22.2101 C   0  0  0  0  0  0  0  0  0  0  0  0
  -37.1792  -24.3933   14.4378 C   0  0  0  0  0  0  0  0  0  0  0  0
  -34.9286  -23.5065   15.8142 C   0  0  0  0  0  0  0  0  0  0  0  0
  -29.8830  -23.8693   15.5792 C   0  0  0  0  0  0  0  0  0  0  0  0
  -22.3188   -8.7328   20.1764 C   0  0  0  0  0  0  0  0  0  0  0  0
  -23.1255   -8.6964   22.4535 C   0  0  0  0  0  0  0  0  0  0  0  0
  -29.1444  -22.7734   16.0236 C   0  0  0  0  0  0  0  0  0  0  0  0
  -21.1668   -5.9349   23.7786 C   0  0  0  0  0  0  0  0  0  0  0  0
  -20.4346   -5.8694   24.9640 C   0  0  0  0  0  0  0  0  0  0  0  0
  -28.7574  -23.8939   18.1245 C   0  0  0  0  0  0  0  0  0  0  0  0
  -30.2167  -19.3305   24.4192 C   0  0  0  0  0  0  0  0  0  0  0  0
  -28.4778  -19.7759   22.8022 C   0  0  0  0  0  0  0  0  0  0  0  0
  -19.1765   -7.8204   24.2948 C   0  0  0  0  0  0  0  0  0  0  0  0
  -23.8312  -10.4508   20.9498 C   0  0  0  0  0  0  0  0  0  0  0  0
  -24.1720  -12.9777   20.8705 C   0  0  0  0  0  0  0  0  0  0  0  0
  -36.6506  -25.1814   15.4723 C   0  0  0  0  0  0  0  0  0  0  0  0
  -30.0737  -24.9830   16.4096 C   0  0  0  0  0  0  0  0  0  0  0  0
  -35.5183  -24.7294   16.1766 C   0  0  0  0  0  0  0  0  0  0  0  0
  -29.4966  -25.0036   17.6873 C   0  0  0  0  0  0  0  0  0  0  0  0
  -29.0772  -20.0369   24.0344 C   0  0  0  0  0  0  0  0  0  0  0  0
  -30.7570  -18.3632   23.5718 C   0  0  0  0  0  0  0  0  0  0  0  0
  -29.0180  -18.8086   21.9548 C   0  0  0  0  0  0  0  0  0  0  0  0
  -30.1576  -18.1022   22.3396 C   0  0  0  0  0  0  0  0  0  0  0  0
  -22.3525   -8.1358   21.4366 C   0  0  0  0  0  0  0  0  0  0  0  0
  -28.5839  -22.7844   17.2975 C   0  0  0  0  0  0  0  0  0  0  0  0
  -20.9038   -6.9433   22.8513 C   0  0  0  0  0  0  0  0  0  0  0  0
  -19.4395   -6.8121   25.2222 C   0  0  0  0  0  0  0  0  0  0  0  0
  -19.9087   -7.8860   23.1094 C   0  0  0  0  0  0  0  0  0  0  0  0
  -24.5955  -11.6462   20.6989 C   0  0  0  0  0  0  0  0  0  0  0  0
  -25.2569  -13.7337   20.4991 C   0  0  0  0  0  0  0  0  0  0  0  0
  -22.9107  -13.4858   21.3250 C   0  0  0  0  0  0  0  0  0  0  0  0
  -32.6028  -26.4106   17.7018 C   0  0  0  0  0  0  0  0  0  0  0  0
  -30.7668  -14.6796   20.6894 C   0  0  0  0  0  0  0  0  0  0  0  0
  -30.3985  -28.5941   18.6485 C   0  0  0  0  0  0  0  0  0  0  0  0
  -27.1380  -29.2910   19.3766 C   0  0  0  0  0  0  0  0  0  0  0  0
  -37.3568  -26.4614   15.8431 C   0  0  0  0  0  0  0  0  0  0  0  0
  -30.8505  -26.1682   15.9054 C   0  0  0  0  0  0  0  0  0  0  0  0
  -29.6549  -26.1835   18.6101 C   0  0  0  0  0  0  0  0  0  0  0  0
  -36.5114  -27.3958   16.7049 C   0  0  0  0  0  0  0  0  0  0  0  0
  -29.5497  -12.4306   18.1792 C   0  0  0  0  0  0  0  0  0  0  0  0
  -35.8461  -26.6210   17.8380 C   0  0  0  0  0  0  0  0  0  0  0  0
  -28.1284  -12.1120   18.6413 C   0  0  0  0  0  0  0  0  0  0  0  0
  -30.4947  -12.6104   19.3631 C   0  0  0  0  0  0  0  0  0  0  0  0
  -28.6210  -13.3190   20.8152 C   0  0  0  0  0  0  0  0  0  0  0  0
  -34.8993  -25.5464   17.2900 C   0  0  1  0  0  0  0  0  0  0  0  0
  -31.4138  -27.0347   17.0276 C   0  0  1  0  0  0  0  0  0  0  0  0
  -27.6274  -13.1600   19.6507 C   0  0  2  0  0  0  0  0  0  0  0  0
  -31.9772  -17.6200   24.0080 C   0  0  0  0  0  0  0  0  0  0  0  0
  -30.4429  -15.1640   23.0801 C   0  0  0  0  0  0  0  0  0  0  0  0
  -25.6491  -31.1529   20.1600 C   0  0  0  0  0  0  0  0  0  0  0  0
  -29.1727  -24.9163   25.2317 C   0  0  0  0  0  0  0  0  0  0  0  0
  -26.9944  -23.7004   25.4235 C   0  0  0  0  0  0  0  0  0  0  0  0
  -31.4396  -28.2266   21.4929 C   0  0  0  0  0  0  0  0  0  0  0  0
  -29.3562  -29.3383   22.3247 C   0  0  0  0  0  0  0  0  0  0  0  0
  -30.9397  -30.5946   20.8628 C   0  0  0  0  0  0  0  0  0  0  0  0
  -25.5392  -29.2157   16.8872 C   0  0  0  0  0  0  0  0  0  0  0  0
  -28.5000  -21.0716   24.9401 C   0  0  0  0  0  0  0  0  0  0  0  0
  -28.3510  -18.5454   20.6282 C   0  0  0  0  0  0  0  0  0  0  0  0
  -30.7368  -17.0646   21.4314 C   0  0  0  0  0  0  0  0  0  0  0  0
  -29.0997  -22.4661   24.6798 C   0  0  0  0  0  0  0  0  0  0  0  0
  -28.6336  -19.6173   19.5697 C   0  0  0  0  0  0  0  0  0  0  0  0
  -27.8876  -19.3738   18.2571 C   0  0  0  0  0  0  0  0  0  0  0  0
  -28.2233  -20.4350   17.2180 C   0  0  0  0  0  0  0  0  0  1  0  0
  -30.1588  -15.6558   21.6648 C   0  0  1  0  0  0  0  0  0  0  0  0
  -29.5135  -28.7638   19.8597 C   0  0  1  0  0  0  0  0  0  0  0  0
  -26.2337  -30.4346   18.9537 C   0  0  2  0  0  0  0  0  0  0  0  0
  -28.5118  -23.5774   25.5692 C   0  0  0  0  0  0  0  0  0  0  0  0
  -30.3107  -29.2076   21.1186 C   0  0  0  0  0  0  0  0  0  0  0  0
  -25.8515  -11.5580   20.2530 N   0  0  0  0  0  0  0  0  0  0  0  0
  -26.2264  -12.8437   20.1412 N   0  0  0  0  0  0  0  0  0  0  0  0
  -30.4284  -27.3155   18.0737 N   0  0  0  0  0  0  0  0  0  0  0  0
  -29.9725  -13.5974   20.3099 N   0  0  0  0  0  0  0  0  0  0  0  0
  -25.4666  -15.0663   20.4469 N   0  0  0  0  0  0  0  0  0  0  0  0
  -21.9053  -12.5707   21.6658 N   0  0  0  0  0  0  0  0  0  0  0  0
  -33.6572  -26.1442   16.8493 N   0  0  0  0  0  0  0  0  0  0  0  0
  -28.4555  -29.6879   19.4659 N   0  0  0  0  0  0  0  0  0  0  0  0
  -25.1089  -29.9244   18.1199 N   0  3  0  0  0  0  0  0  0  0  0  0
  -22.6764  -14.7152   21.4104 O   0  0  0  0  0  0  0  0  0  0  0  0
  -32.5668  -26.1887   18.9064 O   0  0  0  0  0  0  0  0  0  0  0  0
  -31.9125  -14.8763   20.2759 O   0  0  0  0  0  0  0  0  0  0  0  0
  -31.0342  -29.5621   18.2235 O   0  0  0  0  0  0  0  0  0  0  0  0
  -26.7172  -28.1598   19.6084 O   0  0  0  0  0  0  0  0  0  0  0  0
  -21.6310   -7.0065   21.6745 O   0  0  0  0  0  0  0  0  0  0  0  0
  -27.8632  -21.7158   17.7339 O   0  0  0  0  0  0  0  0  0  1  0  0
  -18.7354   -6.7482   26.3599 F   0  0  0  0  0  0  0  0  0  0  0  0
  -19.6507   -8.8562   22.2218 F   0  0  0  0  0  0  0  0  0  0  0  0
  1  2  1  0  0  0  0
  1  5  2  0  0  0  0
  2  6  2  0  0  0  0
  3  8  2  0  0  0  0
  3 17  1  0  0  0  0
  4  9  1  0  0  0  0
  4 17  2  0  0  0  0
  5 19  1  0  0  0  0
  6 21  1  0  0  0  0
  7 10  2  0  0  0  0
  7 20  1  0  0  0  0
  8 27  1  0  0  0  0
  9 27  2  0  0  0  0
 10 28  1  0  0  0  0
 11 12  2  0  0  0  0
 11 29  1  0  0  0  0
 12 30  1  0  0  0  0
 13 22  1  0  0  0  0
 13 28  2  0  0  0  0
 14 23  1  0  0  0  0
 14 24  2  0  0  0  0
 15 23  2  0  0  0  0
 15 25  1  0  0  0  0
 16 30  2  0  0  0  0
 16 31  1  0  0  0  0
 17 32  1  0  0  0  0
 18 32  1  0  0  0  0
 18 33  2  0  0  0  0
 18 34  1  0  0  0  0
 19 21  2  0  0  0  0
 19 39  1  0  0  0  0
 20 22  2  0  0  0  0
 20 40  1  0  0  0  0
 21 48  1  0  0  0  0
 22 41  1  0  0  0  0
 23 60  1  0  0  0  0
 24 26  1  0  0  0  0
 24 51  1  0  0  0  0
 25 26  2  0  0  0  0
 25 61  1  0  0  0  0
 26 62  1  0  0  0  0
 27 86  1  0  0  0  0
 28 87  1  0  0  0  0
 29 31  2  0  0  0  0
 29 86  1  0  0  0  0
 30 88  1  0  0  0  0
 31 89  1  0  0  0  0
 32 72  2  0  0  0  0
 33 73  1  0  0  0  0
 33 76  1  0  0  0  0
 34 77  1  0  0  0  0
 34 81  2  0  0  0  0
 35 49  1  0  0  0  0
 35 78  1  0  0  0  0
 35 82  2  0  0  0  0
 36 67  1  0  0  0  0
 36 75  1  0  0  0  0
 36 83  2  0  0  0  0
 37 68  1  0  0  0  0
 37 74  1  0  0  0  0
 37 84  2  0  0  0  0
 38 69  1  0  0  0  0
 38 79  1  0  0  0  0
 38 85  2  0  0  0  0
 39 42  1  0  0  0  0
 40 49  1  0  0  0  0
 41 74  1  0  0  0  0
 42 44  1  0  0  0  0
 43 45  1  0  0  0  0
 43 46  1  0  0  0  0
 44 48  1  0  0  0  0
 45 50  1  0  0  0  0
 46 75  1  0  0  0  0
 47 50  1  0  0  0  0
 47 75  1  0  0  0  0
 48 78  1  0  0  0  0
 49 74  1  0  0  0  0
 50 73  1  0  0  0  0
 52 67  1  0  0  0  0
 53 69  1  0  0  0  0
 54 70  1  0  0  0  0
 55 70  1  0  0  0  0
 56 71  1  0  0  0  0
 57 71  1  0  0  0  0
 58 71  1  0  0  0  0
 59 80  1  0  0  0  0
 60 63  1  0  0  0  0
 61 64  1  0  0  0  0
 62 67  1  0  0  0  0
 63 70  1  0  0  0  0
 64 65  1  0  0  0  0
 65 66  1  0  0  0  0
 66 87  1  0  0  0  0
 68 71  1  0  0  0  0
 68 79  1  0  0  0  0
 69 80  1  0  0  0  0
 72 73  1  0  0  0  0
M  CHG  1  80   1
M  ISO  4  36 100  66 101  67 100  87 101
M  END
> <Batch ID>
0089

> <Smiles>
CNC(C)C(=O)NC(C(=O)N1Cc2cc([101O:1][101CH2:1]CCCc3cc(CCC(C)C)cc(C)c3C[100CH:0](C)[100C:0](=O)N3CCCC(n4nc(-c5ccc(Oc6ccc(F)cc6F)cc5)c(C(N)=O)c4N)C3)ccc2CC1C(=O)NC1CCCc2ccccc21)C(C)(C)C

> <Shape>
0.254

> <Color>
0.195

> <Negative vol penalty>
0.000

$$$$

  -OEChem-04052319063D

 88 96  0     1  0  0  0  0  0999 V2000
  -16.9736  -30.0001   24.6283 C   0  0  0  0  0  0  0  0  0  0  0  0
  -17.4408  -28.7136   24.3790 C   0  0  0  0  0  0  0  0  0  0  0  0
  -30.5608  -23.2794   18.8050 C   0  0  0  0  0  0  0  0  0  0  0  0
  -28.6972  -22.4304   17.5231 C   0  0  0  0  0  0  0  0  0  0  0  0
  -17.4499  -31.0718   23.8742 C   0  0  0  0  0  0  0  0  0  0  0  0
  -18.3837  -28.4979   23.3747 C   0  0  0  0  0  0  0  0  0  0  0  0
  -22.9073  -24.3696   23.3971 C   0  0  0  0  0  0  0  0  0  0  0  0
  -30.8941  -24.1342   17.7544 C   0  0  0  0  0  0  0  0  0  0  0  0
  -29.0305  -23.2853   16.4725 C   0  0  0  0  0  0  0  0  0  0  0  0
  -23.0245  -23.1035   22.8253 C   0  0  0  0  0  0  0  0  0  0  0  0
  -32.4494  -26.2833   15.2672 C   0  0  0  0  0  0  0  0  0  0  0  0
  -33.7927  -26.3715   14.9021 C   0  0  0  0  0  0  0  0  0  0  0  0
  -24.1620  -24.0709   20.9308 C   0  0  0  0  0  0  0  0  0  0  0  0
  -24.9843  -15.7540   19.2485 C   0  0  0  0  0  0  0  0  0  0  0  0
  -33.8125  -24.0074   14.4040 C   0  0  0  0  0  0  0  0  0  0  0  0
  -29.4624  -22.4274   18.6893 C   0  0  0  0  0  0  0  0  0  0  0  0
  -28.2529  -21.8164   20.8507 C   0  0  0  0  0  0  0  0  0  0  0  0
  -18.4063  -30.8704   22.8665 C   0  0  0  0  0  0  0  0  0  0  0  0
  -23.4077  -25.4992   22.7338 C   0  0  0  0  0  0  0  0  0  0  0  0
  -18.8722  -29.5676   22.6054 C   0  0  0  0  0  0  0  0  0  0  0  0
  -24.0522  -25.3500   21.4975 C   0  0  0  0  0  0  0  0  0  0  0  0
  -24.0496  -16.5973   19.8985 C   0  0  0  0  0  0  0  0  0  0  0  0
  -30.1290  -24.1372   16.5882 C   0  0  0  0  0  0  0  0  0  0  0  0
  -23.6494  -22.9543   21.5907 C   0  0  0  0  0  0  0  0  0  0  0  0
  -31.7876  -25.0571   15.2008 C   0  0  0  0  0  0  0  0  0  0  0  0
  -34.4743  -25.2336   14.4705 C   0  0  0  0  0  0  0  0  0  0  0  0
  -32.4692  -23.9192   14.7692 C   0  0  0  0  0  0  0  0  0  0  0  0
  -29.1179  -21.5437   19.7740 C   0  0  0  0  0  0  0  0  0  0  0  0
  -25.3739  -14.7946   20.1568 C   0  0  0  0  0  0  0  0  0  0  0  0
  -23.8967  -16.1276   21.1843 C   0  0  0  0  0  0  0  0  0  0  0  0
  -28.2620  -20.6645   21.5987 C   0  0  0  0  0  0  0  0  0  0  0  0
  -27.5076  -23.0046   21.1480 C   0  0  0  0  0  0  0  0  0  0  0  0
  -22.1290  -28.1651   21.5669 C   0  0  0  0  0  0  0  0  0  0  0  0
  -25.2300  -28.9604   21.0433 C   0  0  0  0  0  0  0  0  0  0  0  0
  -28.4448  -27.9229   20.5581 C   0  0  0  0  0  0  0  0  0  0  0  0
  -29.3943  -14.9402   20.2565 C   0  0  0  0  0  0  0  0  0  0  0  0
  -18.8562  -32.0531   22.0459 C   0  0  0  0  0  0  0  0  0  0  0  0
  -23.2970  -26.8547   23.3764 C   0  0  0  0  0  0  0  0  0  0  0  0
  -24.6243  -26.5283   20.7541 C   0  0  0  0  0  0  0  0  0  0  0  0
  -20.1332  -31.7926   21.2511 C   0  0  0  0  0  0  0  0  0  0  0  0
  -31.0504  -16.9349   22.6968 C   0  0  0  0  0  0  0  0  0  0  0  0
  -20.0523  -30.4472   20.5368 C   0  0  0  0  0  0  0  0  0  0  0  0
  -30.6649  -18.3669   22.3216 C   0  0  0  0  0  0  0  0  0  0  0  0
  -31.2469  -16.0609   21.4600 C   0  0  0  0  0  0  0  0  0  0  0  0
  -29.7245  -17.4848   20.1453 C   0  0  0  0  0  0  0  0  0  0  0  0
  -19.9133  -29.2968   21.5411 C   0  0  1  0  0  0  0  0  0  0  0  0
  -23.3861  -28.0006   22.3732 C   0  0  1  0  0  0  0  0  0  0  0  0
  -29.4609  -18.3900   21.3608 C   0  0  2  0  0  0  0  0  0  0  0  0
  -23.0486  -16.6286   22.2869 C   0  0  0  0  0  0  0  0  0  0  0  0
  -26.7561  -14.7422   25.8679 C   0  0  0  0  0  0  0  0  0  0  0  0
  -25.6248  -12.3606   19.5768 C   0  0  0  0  0  0  0  0  0  0  0  0
  -30.7537  -28.8028   20.1196 C   0  0  0  0  0  0  0  0  0  0  0  0
  -24.4720  -29.4938   18.1363 C   0  0  0  0  0  0  0  0  0  0  0  0
  -26.9083  -29.4333   17.5628 C   0  0  0  0  0  0  0  0  0  0  0  0
  -26.0404  -31.1694   19.1298 C   0  0  0  0  0  0  0  0  0  0  0  0
  -29.4905  -26.7609   23.0711 C   0  0  0  0  0  0  0  0  0  0  0  0
  -23.3542  -17.7876   19.2875 C   0  0  0  0  0  0  0  0  0  0  0  0
  -25.8503  -14.0811   24.8413 C   0  0  0  0  0  0  0  0  0  0  0  0
  -23.9254  -19.1368   19.7378 C   0  0  0  0  0  0  0  0  0  0  0  0
  -25.7168  -14.9339   23.5806 C   0  0  0  0  0  0  0  0  0  0  0  0
  -23.1587  -20.3314   19.1686 C   0  0  0  0  0  0  0  0  0  0  0  0
  -24.8378  -14.2445   22.5382 C   0  0  0  0  0  0  0  0  0  0  0  0
  -27.4837  -13.9654   19.0081 C   0  0  0  0  0  0  0  0  0  0  0  0
  -23.7781  -21.6523   19.6047 C   0  0  0  0  0  0  0  0  0  1  0  0
  -26.3248  -13.6747   20.0013 C   0  0  1  0  0  0  0  0  0  0  0  0
  -26.2055  -28.7693   19.9072 C   0  0  1  0  0  0  0  0  0  0  0  0
  -29.7535  -28.3732   21.1816 C   0  0  2  0  0  0  0  0  0  0  0  0
  -25.8941  -29.6943   18.6969 C   0  0  0  0  0  0  0  0  0  0  0  0
  -29.6388  -20.3151   19.8295 N   0  0  0  0  0  0  0  0  0  0  0  0
  -24.7066  -15.0317   21.3302 N   0  0  0  0  0  0  0  0  0  0  0  0
  -29.0996  -19.8055   20.9500 N   0  0  0  0  0  0  0  0  0  0  0  0
  -24.4857  -27.8336   21.4207 N   0  0  0  0  0  0  0  0  0  0  0  0
  -30.0690  -16.1258   20.5915 N   0  0  0  0  0  0  0  0  0  0  0  0
  -27.6352  -20.3127   22.7414 N   0  0  0  0  0  0  0  0  0  0  0  0
  -27.6128  -24.0954   20.2742 N   0  0  0  0  0  0  0  0  0  0  0  0
  -21.1927  -28.9986   22.1483 N   0  0  0  0  0  0  0  0  0  0  0  0
  -27.5360  -28.9566   20.4757 N   0  0  0  0  0  0  0  0  0  0  0  0
  -28.2845  -15.0914   19.4342 N   0  0  0  0  0  0  0  0  0  0  0  0
  -30.3573  -27.2657   21.9753 N   0  3  0  0  0  0  0  0  0  0  0  0
  -26.7831  -23.1022   22.1674 O   0  0  0  0  0  0  0  0  0  0  0  0
  -22.0174  -27.5803   20.4957 O   0  0  0  0  0  0  0  0  0  0  0  0
  -25.1371  -30.0666   21.5811 O   0  0  0  0  0  0  0  0  0  0  0  0
  -28.2496  -26.7704   20.1783 O   0  0  0  0  0  0  0  0  0  0  0  0
  -29.7511  -13.8298   20.6647 O   0  0  0  0  0  0  0  0  0  0  0  0
  -30.4538  -24.9714   15.5629 O   0  0  0  0  0  0  0  0  0  0  0  0
  -23.7645  -21.7197   21.0301 O   0  0  0  0  0  0  0  0  0  1  0  0
  -35.7638  -25.3187   14.1184 F   0  0  0  0  0  0  0  0  0  0  0  0
  -31.8384  -22.7388   14.7021 F   0  0  0  0  0  0  0  0  0  0  0  0
  1  2  1  0  0  0  0
  1  5  2  0  0  0  0
  2  6  2  0  0  0  0
  3  8  2  0  0  0  0
  3 16  1  0  0  0  0
  4  9  1  0  0  0  0
  4 16  2  0  0  0  0
  5 18  1  0  0  0  0
  6 20  1  0  0  0  0
  7 10  2  0  0  0  0
  7 19  1  0  0  0  0
  8 23  1  0  0  0  0
  9 23  2  0  0  0  0
 10 24  1  0  0  0  0
 11 12  2  0  0  0  0
 11 25  1  0  0  0  0
 12 26  1  0  0  0  0
 13 21  1  0  0  0  0
 13 24  2  0  0  0  0
 14 22  1  0  0  0  0
 14 29  2  0  0  0  0
 15 26  2  0  0  0  0
 15 27  1  0  0  0  0
 16 28  1  0  0  0  0
 17 28  1  0  0  0  0
 17 31  2  0  0  0  0
 17 32  1  0  0  0  0
 18 20  2  0  0  0  0
 18 37  1  0  0  0  0
 19 21  2  0  0  0  0
 19 38  1  0  0  0  0
 20 46  1  0  0  0  0
 21 39  1  0  0  0  0
 22 30  2  0  0  0  0
 22 57  1  0  0  0  0
 23 85  1  0  0  0  0
 24 86  1  0  0  0  0
 25 27  2  0  0  0  0
 25 85  1  0  0  0  0
 26 87  1  0  0  0  0
 27 88  1  0  0  0  0
 28 69  2  0  0  0  0
 29 65  1  0  0  0  0
 29 70  1  0  0  0  0
 30 49  1  0  0  0  0
 30 70  1  0  0  0  0
 31 71  1  0  0  0  0
 31 74  1  0  0  0  0
 32 75  1  0  0  0  0
 32 80  2  0  0  0  0
 33 47  1  0  0  0  0
 33 76  1  0  0  0  0
 33 81  2  0  0  0  0
 34 66  1  0  0  0  0
 34 72  1  0  0  0  0
 34 82  2  0  0  0  0
 35 67  1  0  0  0  0
 35 77  1  0  0  0  0
 35 83  2  0  0  0  0
 36 73  1  0  0  0  0
 36 78  1  0  0  0  0
 36 84  2  0  0  0  0
 37 40  1  0  0  0  0
 38 47  1  0  0  0  0
 39 72  1  0  0  0  0
 40 42  1  0  0  0  0
 41 43  1  0  0  0  0
 41 44  1  0  0  0  0
 42 46  1  0  0  0  0
 43 48  1  0  0  0  0
 44 73  1  0  0  0  0
 45 48  1  0  0  0  0
 45 73  1  0  0  0  0
 46 76  1  0  0  0  0
 47 72  1  0  0  0  0
 48 71  1  0  0  0  0
 50 58  1  0  0  0  0
 51 65  1  0  0  0  0
 52 67  1  0  0  0  0
 53 68  1  0  0  0  0
 54 68  1  0  0  0  0
 55 68  1  0  0  0  0
 56 79  1  0  0  0  0
 57 59  1  0  0  0  0
 58 60  1  0  0  0  0
 59 61  1  0  0  0  0
 60 62  1  0  0  0  0
 61 64  1  0  0  0  0
 62 70  1  0  0  0  0
 63 65  1  0  0  0  0
 63 78  1  0  0  0  0
 64 86  1  0  0  0  0
 66 68  1  0  0  0  0
 66 77  1  0  0  0  0
 67 79  1  0  0  0  0
 69 71  1  0  0  0  0
M  CHG  1  79   1
M  ISO  4  36 100  64 101  78 100  86 101
M  END
> <Batch ID>
0089

> <Smiles>
CCCCn1c(C(C)C[100NH:0][100C:0](=O)N2CCCC(n3nc(-c4ccc(Oc5ccc(F)cc5F)cc4)c(C(N)=O)c3N)C2)cc(CCC[101CH2:1][101O:1]c2ccc3c(c2)CN(C(=O)C(NC(=O)C(C)NC)C(C)(C)C)C(C(=O)NC2CCCc4ccccc42)C3)c1C

> <Shape>
0.233

> <Color>
0.067

> <Negative vol penalty>
0.000

$$$$

  -OEChem-04052319063D

 85 93  0     1  0  0  0  0  0999 V2000
  -23.1975  -10.6500   18.7637 C   0  0  0  0  0  0  0  0  0  0  0  0
  -22.7514  -11.9084   18.3728 C   0  0  0  0  0  0  0  0  0  0  0  0
  -29.9602  -28.3409   19.3102 C   0  0  0  0  0  0  0  0  0  0  0  0
  -29.2514  -26.4792   20.6773 C   0  0  0  0  0  0  0  0  0  0  0  0
  -24.1011  -10.5285   19.8185 C   0  0  0  0  0  0  0  0  0  0  0  0
  -23.2080  -13.0461   19.0373 C   0  0  0  0  0  0  0  0  0  0  0  0
  -24.2727  -18.5591   16.5921 C   0  0  0  0  0  0  0  0  0  0  0  0
  -31.2805  -27.8986   19.3925 C   0  0  0  0  0  0  0  0  0  0  0  0
  -30.5717  -26.0369   20.7596 C   0  0  0  0  0  0  0  0  0  0  0  0
  -23.5155  -19.7290   16.5508 C   0  0  0  0  0  0  0  0  0  0  0  0
  -34.7886  -27.0585   18.9429 C   0  0  0  0  0  0  0  0  0  0  0  0
  -35.5422  -27.0444   17.7692 C   0  0  0  0  0  0  0  0  0  0  0  0
  -24.7013  -20.5575   18.4812 C   0  0  0  0  0  0  0  0  0  0  0  0
  -19.7580  -26.7988   21.2461 C   0  0  0  0  0  0  0  0  0  0  0  0
  -33.9623  -25.5116   16.7733 C   0  0  0  0  0  0  0  0  0  0  0  0
  -18.7711  -24.8741   22.2351 C   0  0  0  0  0  0  0  0  0  0  0  0
  -28.9456  -27.6312   19.9526 C   0  0  0  0  0  0  0  0  0  0  0  0
  -26.6262  -27.7371   18.8958 C   0  0  0  0  0  0  0  0  0  0  0  0
  -24.5764  -11.6660   20.4900 C   0  0  0  0  0  0  0  0  0  0  0  0
  -25.2440  -18.3746   17.5865 C   0  0  0  0  0  0  0  0  0  0  0  0
  -24.1178  -12.9397   20.1030 C   0  0  0  0  0  0  0  0  0  0  0  0
  -25.4713  -19.3854   18.5314 C   0  0  0  0  0  0  0  0  0  0  0  0
  -19.4071  -25.4567   21.1507 C   0  0  0  0  0  0  0  0  0  0  0  0
  -19.4664  -27.5071   22.4064 C   0  0  0  0  0  0  0  0  0  0  0  0
  -31.5863  -26.7467   20.1171 C   0  0  0  0  0  0  0  0  0  0  0  0
  -23.7278  -20.7272   17.4972 C   0  0  0  0  0  0  0  0  0  0  0  0
  -33.6219  -26.2991   19.0318 C   0  0  0  0  0  0  0  0  0  0  0  0
  -35.1291  -26.2709   16.6844 C   0  0  0  0  0  0  0  0  0  0  0  0
  -33.2088  -25.5256   17.9470 C   0  0  0  0  0  0  0  0  0  0  0  0
  -27.5816  -28.0878   19.8684 C   0  0  0  0  0  0  0  0  0  0  0  0
  -18.8275  -26.8327   23.4345 C   0  0  0  0  0  0  0  0  0  0  0  0
  -25.4975  -28.4312   19.2573 C   0  0  0  0  0  0  0  0  0  0  0  0
  -26.7481  -26.8620   17.7666 C   0  0  0  0  0  0  0  0  0  0  0  0
  -25.6687  -16.2899   19.9481 C   0  0  0  0  0  0  0  0  0  0  0  0
  -28.4987  -17.8392   20.2844 C   0  0  0  0  0  0  0  0  0  0  0  0
  -30.3206  -20.6832   19.7954 C   0  0  0  0  0  0  0  0  0  0  0  0
  -21.8978  -30.1829   23.1456 C   0  0  0  0  0  0  0  0  0  0  0  0
  -25.5161  -11.4815   21.6551 C   0  0  0  0  0  0  0  0  0  0  0  0
  -26.0709  -17.1183   17.6012 C   0  0  0  0  0  0  0  0  0  0  0  0
  -26.5160  -19.2449   19.6072 C   0  0  0  0  0  0  0  0  0  0  0  0
  -26.2395  -12.7624   22.0630 C   0  0  0  0  0  0  0  0  0  0  0  0
  -24.8475  -32.1169   22.6601 C   0  0  0  0  0  0  0  0  0  0  0  0
  -25.2576  -13.9268   22.1456 C   0  0  0  0  0  0  0  0  0  0  0  0
  -25.7447  -31.2099   21.8161 C   0  0  0  0  0  0  0  0  0  0  0  0
  -24.0345  -31.3183   23.6767 C   0  0  0  0  0  0  0  0  0  0  0  0
  -24.1432  -29.3033   22.2619 C   0  0  0  0  0  0  0  0  0  0  0  0
  -24.6090  -14.1992   20.7830 C   0  0  1  0  0  0  0  0  0  0  0  0
  -26.6779  -16.8184   18.9683 C   0  0  1  0  0  0  0  0  0  0  0  0
  -24.9413  -30.0573   21.1844 C   0  0  2  0  0  0  0  0  0  0  0  0
  -19.7055  -27.7296   25.6050 C   0  0  0  0  0  0  0  0  0  0  0  0
  -19.1704  -29.8209   21.4470 C   0  0  0  0  0  0  0  0  0  0  0  0
  -32.5935  -21.6624   20.2108 C   0  0  0  0  0  0  0  0  0  0  0  0
  -27.7833  -18.2473   23.2223 C   0  0  0  0  0  0  0  0  0  0  0  0
  -29.5695  -19.9975   23.3421 C   0  0  0  0  0  0  0  0  0  0  0  0
  -30.1725  -17.6372   22.8054 C   0  0  0  0  0  0  0  0  0  0  0  0
  -30.8233  -21.0407   16.9009 C   0  0  0  0  0  0  0  0  0  0  0  0
  -19.7083  -24.6605   19.9061 C   0  0  0  0  0  0  0  0  0  0  0  0
  -18.4886  -27.5432   24.7041 C   0  0  0  0  0  0  0  0  0  0  0  0
  -21.0762  -23.9693   19.9291 C   0  0  0  0  0  0  0  0  0  0  0  0
  -21.3959  -23.2310   18.6285 C   0  0  0  0  0  0  0  0  0  0  0  0
  -22.7428  -22.5248   18.7031 C   0  0  0  0  0  0  0  0  0  1  0  0
  -19.8412  -28.9448   22.5159 C   0  0  2  0  0  0  0  0  0  0  0  0
  -28.9756  -19.0354   21.0722 C   0  0  1  0  0  0  0  0  0  0  0  0
  -31.7125  -20.9032   19.2309 C   0  0  2  0  0  0  0  0  0  0  0  0
  -29.1041  -18.7315   22.5916 C   0  0  0  0  0  0  0  0  0  0  0  0
  -18.4712  -25.5298   23.3786 N   0  0  0  0  0  0  0  0  0  0  0  0
  -27.1017  -28.9387   20.7793 N   0  0  0  0  0  0  0  0  0  0  0  0
  -25.8324  -29.1286   20.3805 N   0  0  0  0  0  0  0  0  0  0  0  0
  -27.2944  -17.9955   19.5835 N   0  0  0  0  0  0  0  0  0  0  0  0
  -23.2950  -30.2420   23.0130 N   0  0  0  0  0  0  0  0  0  0  0  0
  -24.2610  -28.5069   18.7207 N   0  0  0  0  0  0  0  0  0  0  0  0
  -27.9782  -26.2292   17.5414 N   0  0  0  0  0  0  0  0  0  0  0  0
  -25.5249  -14.9158   19.9215 N   0  0  0  0  0  0  0  0  0  0  0  0
  -30.2178  -19.4700   20.4426 N   0  0  0  0  0  0  0  0  0  0  0  0
  -21.2741  -29.1350   22.4796 N   0  0  0  0  0  0  0  0  0  0  0  0
  -31.6399  -21.6827   17.9628 N   0  3  0  0  0  0  0  0  0  0  0  0
  -25.7993  -26.6603   16.9712 O   0  0  0  0  0  0  0  0  0  0  0  0
  -25.0663  -17.0707   20.6754 O   0  0  0  0  0  0  0  0  0  0  0  0
  -29.1735  -16.8067   20.2849 O   0  0  0  0  0  0  0  0  0  0  0  0
  -29.4161  -21.5070   19.6776 O   0  0  0  0  0  0  0  0  0  0  0  0
  -21.2534  -31.0063   23.8042 O   0  0  0  0  0  0  0  0  0  0  0  0
  -32.8745  -26.3147   20.1975 O   0  0  0  0  0  0  0  0  0  0  0  0
  -22.9896  -21.8698   17.4596 O   0  0  0  0  0  0  0  0  0  1  0  0
  -35.8520  -26.2587   15.5568 F   0  0  0  0  0  0  0  0  0  0  0  0
  -32.0882  -24.7949   18.0261 F   0  0  0  0  0  0  0  0  0  0  0  0
  1  2  1  0  0  0  0
  1  5  2  0  0  0  0
  2  6  2  0  0  0  0
  3  8  2  0  0  0  0
  3 17  1  0  0  0  0
  4  9  1  0  0  0  0
  4 17  2  0  0  0  0
  5 19  1  0  0  0  0
  6 21  1  0  0  0  0
  7 10  2  0  0  0  0
  7 20  1  0  0  0  0
  8 25  1  0  0  0  0
  9 25  2  0  0  0  0
 10 26  1  0  0  0  0
 11 12  2  0  0  0  0
 11 27  1  0  0  0  0
 12 28  1  0  0  0  0
 13 22  1  0  0  0  0
 13 26  2  0  0  0  0
 14 23  2  0  0  0  0
 14 24  1  0  0  0  0
 15 28  2  0  0  0  0
 15 29  1  0  0  0  0
 16 23  1  0  0  0  0
 16 66  2  0  0  0  0
 17 30  1  0  0  0  0
 18 30  1  0  0  0  0
 18 32  2  0  0  0  0
 18 33  1  0  0  0  0
 19 21  2  0  0  0  0
 19 38  1  0  0  0  0
 20 22  2  0  0  0  0
 20 39  1  0  0  0  0
 21 47  1  0  0  0  0
 22 40  1  0  0  0  0
 23 57  1  0  0  0  0
 24 31  2  0  0  0  0
 24 62  1  0  0  0  0
 25 82  1  0  0  0  0
 26 83  1  0  0  0  0
 27 29  2  0  0  0  0
 27 82  1  0  0  0  0
 28 84  1  0  0  0  0
 29 85  1  0  0  0  0
 30 67  2  0  0  0  0
 31 58  1  0  0  0  0
 31 66  1  0  0  0  0
 32 68  1  0  0  0  0
 32 71  1  0  0  0  0
 33 72  1  0  0  0  0
 33 77  2  0  0  0  0
 34 48  1  0  0  0  0
 34 73  1  0  0  0  0
 34 78  2  0  0  0  0
 35 63  1  0  0  0  0
 35 69  1  0  0  0  0
 35 79  2  0  0  0  0
 36 64  1  0  0  0  0
 36 74  1  0  0  0  0
 36 80  2  0  0  0  0
 37 70  1  0  0  0  0
 37 75  1  0  0  0  0
 37 81  2  0  0  0  0
 38 41  1  0  0  0  0
 39 48  1  0  0  0  0
 40 69  1  0  0  0  0
 41 43  1  0  0  0  0
 42 44  1  0  0  0  0
 42 45  1  0  0  0  0
 43 47  1  0  0  0  0
 44 49  1  0  0  0  0
 45 70  1  0  0  0  0
 46 49  1  0  0  0  0
 46 70  1  0  0  0  0
 47 73  1  0  0  0  0
 48 69  1  0  0  0  0
 49 68  1  0  0  0  0
 50 58  1  0  0  0  0
 51 62  1  0  0  0  0
 52 64  1  0  0  0  0
 53 65  1  0  0  0  0
 54 65  1  0  0  0  0
 55 65  1  0  0  0  0
 56 76  1  0  0  0  0
 57 59  1  0  0  0  0
 59 60  1  0  0  0  0
 60 61  1  0  0  0  0
 61 83  1  0  0  0  0
 62 75  1  0  0  0  0
 63 65  1  0  0  0  0
 63 74  1  0  0  0  0
 64 76  1  0  0  0  0
 67 68  1  0  0  0  0
M  CHG  1  76   1
M  ISO  4  37 100  61 101  75 100  83 101
M  END
> <Batch ID>
0089

> <Smiles>
CCc1ncc(CCC[101CH2:1][101O:1]c2ccc3c(c2)CN(C(=O)C(NC(=O)C(C)NC)C(C)(C)C)C(C(=O)NC2CCCc4ccccc42)C3)cc1C(C)[100NH:0][100C:0](=O)N1CCCC(n2nc(-c3ccc(Oc4ccc(F)cc4F)cc3)c(C(N)=O)c2N)C1

> <Shape>
0.234

> <Color>
0.071

> <Negative vol penalty>
0.000

$$$$

  -OEChem-04052319063D

 87 95  0     1  0  0  0  0  0999 V2000
  -28.5583  -31.3414   25.3360 C   0  0  0  0  0  0  0  0  0  0  0  0
  -28.2045  -29.9966   25.2935 C   0  0  0  0  0  0  0  0  0  0  0  0
  -24.1042   -9.6225   21.4273 C   0  0  0  0  0  0  0  0  0  0  0  0
  -24.7147  -10.7014   23.5010 C   0  0  0  0  0  0  0  0  0  0  0  0
  -28.8675  -32.0173   24.1564 C   0  0  0  0  0  0  0  0  0  0  0  0
  -28.1588  -29.3271   24.0712 C   0  0  0  0  0  0  0  0  0  0  0  0
  -30.3443  -24.7634   24.2727 C   0  0  0  0  0  0  0  0  0  0  0  0
  -23.6800   -8.4990   22.1367 C   0  0  0  0  0  0  0  0  0  0  0  0
  -24.2904   -9.5779   24.2104 C   0  0  0  0  0  0  0  0  0  0  0  0
  -29.6111  -23.7316   24.8571 C   0  0  0  0  0  0  0  0  0  0  0  0
  -22.1015   -5.4889   23.4262 C   0  0  0  0  0  0  0  0  0  0  0  0
  -20.8823   -4.9158   23.0647 C   0  0  0  0  0  0  0  0  0  0  0  0
  -28.9992  -22.9329   22.6647 C   0  0  0  0  0  0  0  0  0  0  0  0
  -27.4569  -19.0550   21.5059 C   0  0  0  0  0  0  0  0  0  0  0  0
  -19.7553   -6.9907   23.5764 C   0  0  0  0  0  0  0  0  0  0  0  0
  -24.6216  -10.7237   22.1094 C   0  0  0  0  0  0  0  0  0  0  0  0
  -24.2889  -13.0066   21.0206 C   0  0  0  0  0  0  0  0  0  0  0  0
  -28.8349  -31.3532   22.9200 C   0  0  0  0  0  0  0  0  0  0  0  0
  -30.4016  -24.8944   22.8778 C   0  0  0  0  0  0  0  0  0  0  0  0
  -28.4666  -29.9951   22.8738 C   0  0  0  0  0  0  0  0  0  0  0  0
  -29.7359  -23.9657   22.0650 C   0  0  0  0  0  0  0  0  0  0  0  0
  -26.5519  -19.9971   21.9821 C   0  0  0  0  0  0  0  0  0  0  0  0
  -25.9707  -20.9020   21.1008 C   0  0  0  0  0  0  0  0  0  0  0  0
  -23.7730   -8.4767   23.5282 C   0  0  0  0  0  0  0  0  0  0  0  0
  -28.9361  -22.8178   24.0531 C   0  0  0  0  0  0  0  0  0  0  0  0
  -22.1476   -6.8129   23.8630 C   0  0  0  0  0  0  0  0  0  0  0  0
  -19.7092   -5.6667   23.1397 C   0  0  0  0  0  0  0  0  0  0  0  0
  -20.9745   -7.5638   23.9380 C   0  0  0  0  0  0  0  0  0  0  0  0
  -25.0605  -11.8844   21.3771 C   0  0  0  0  0  0  0  0  0  0  0  0
  -27.7449  -19.0594   20.1506 C   0  0  0  0  0  0  0  0  0  0  0  0
  -26.3254  -20.8238   19.7636 C   0  0  0  0  0  0  0  0  0  0  0  0
  -25.1612  -13.8212   20.3409 C   0  0  0  0  0  0  0  0  0  0  0  0
  -22.9072  -13.2876   21.2806 C   0  0  0  0  0  0  0  0  0  0  0  0
  -28.7051  -18.0742   19.5852 C   0  0  0  0  0  0  0  0  0  0  0  0
  -29.5048  -27.1220   20.7952 C   0  0  0  0  0  0  0  0  0  0  0  0
  -31.0058  -25.1852   18.6696 C   0  0  0  0  0  0  0  0  0  0  0  0
  -32.0999  -22.0514   17.8764 C   0  0  0  0  0  0  0  0  0  0  0  0
  -30.1063  -16.2655   19.8710 C   0  0  0  0  0  0  0  0  0  0  0  0
  -29.1314  -32.1379   21.6666 C   0  0  0  0  0  0  0  0  0  0  0  0
  -31.2188  -25.9972   22.2625 C   0  0  0  0  0  0  0  0  0  0  0  0
  -29.7824  -24.0504   20.5620 C   0  0  0  0  0  0  0  0  0  0  0  0
  -29.4229  -31.2594   20.4527 C   0  0  0  0  0  0  0  0  0  0  0  0
  -29.8204  -12.9466   18.5814 C   0  0  0  0  0  0  0  0  0  0  0  0
  -28.3889  -30.1436   20.3405 C   0  0  0  0  0  0  0  0  0  0  0  0
  -28.5017  -12.4549   19.1815 C   0  0  0  0  0  0  0  0  0  0  0  0
  -30.5837  -13.8398   19.5560 C   0  0  0  0  0  0  0  0  0  0  0  0
  -28.4764  -14.4975   20.6760 C   0  0  0  0  0  0  0  0  0  0  0  0
  -28.4297  -29.2279   21.5699 C   0  0  1  0  0  0  0  0  0  0  0  0
  -30.7864  -26.3389   20.8400 C   0  0  1  0  0  0  0  0  0  0  0  0
  -27.6563  -13.6304   19.7064 C   0  0  2  0  0  0  0  0  0  0  0  0
  -24.9968  -21.9237   21.5831 C   0  0  0  0  0  0  0  0  0  0  0  0
  -28.9831  -18.1243   18.0953 C   0  0  0  0  0  0  0  0  0  0  0  0
  -25.3646  -22.2694   16.3151 C   0  0  0  0  0  0  0  0  0  0  0  0
  -33.2574  -20.7715   16.0545 C   0  0  0  0  0  0  0  0  0  0  0  0
  -29.6724  -20.0198   25.2864 C   0  0  0  0  0  0  0  0  0  0  0  0
  -28.4365  -25.2088   17.0240 C   0  0  0  0  0  0  0  0  0  0  0  0
  -29.3007  -23.2185   15.7749 C   0  0  0  0  0  0  0  0  0  0  0  0
  -30.5381  -25.3824   15.6796 C   0  0  0  0  0  0  0  0  0  0  0  0
  -34.3437  -21.3150   19.6601 C   0  0  0  0  0  0  0  0  0  0  0  0
  -26.2183  -20.0167   23.4524 C   0  0  0  0  0  0  0  0  0  0  0  0
  -25.7341  -21.7698   18.7700 C   0  0  0  0  0  0  0  0  0  0  0  0
  -25.9958  -21.3236   17.3245 C   0  0  0  0  0  0  0  0  0  0  0  0
  -27.3745  -19.5638   24.3558 C   0  0  0  0  0  0  0  0  0  0  0  0
  -30.5893  -24.0181   17.8075 C   0  0  1  0  0  0  0  0  0  0  0  0
  -33.4327  -21.5538   17.3467 C   0  0  2  0  0  0  0  0  0  0  0  0
  -28.6066  -20.4753   24.2978 C   0  0  1  0  0  0  0  0  0  1  0  0
  -29.7135  -24.4562   16.5998 C   0  0  0  0  0  0  0  0  0  0  0  0
  -26.3257  -11.9745   20.9584 N   0  0  0  0  0  0  0  0  0  0  0  0
  -27.2004  -19.9226   19.2640 N   0  0  0  0  0  0  0  0  0  0  0  0
  -29.2404  -17.2028   20.3896 N   0  0  0  0  0  0  0  0  0  0  0  0
  -26.3557  -13.1629   20.3317 N   0  0  0  0  0  0  0  0  0  0  0  0
  -30.5895  -25.1500   20.0080 N   0  0  0  0  0  0  0  0  0  0  0  0
  -29.7294  -14.9231   20.0408 N   0  0  0  0  0  0  0  0  0  0  0  0
  -25.0154  -15.0292   19.7562 N   0  0  0  0  0  0  0  0  0  0  0  0
  -22.1558  -12.3427   21.9926 N   0  0  0  0  0  0  0  0  0  0  0  0
  -29.5521  -28.3182   21.4854 N   0  0  0  0  0  0  0  0  0  0  0  0
  -31.8187  -23.3269   17.4344 N   0  0  0  0  0  0  0  0  0  0  0  0
  -34.0892  -20.6665   18.3480 N   0  3  0  0  0  0  0  0  0  0  0  0
  -22.3511  -14.3378   20.8789 O   0  0  0  0  0  0  0  0  0  0  0  0
  -28.5447  -26.6749   20.1788 O   0  0  0  0  0  0  0  0  0  0  0  0
  -31.6818  -26.0910   18.1757 O   0  0  0  0  0  0  0  0  0  0  0  0
  -31.3785  -21.3747   18.6059 O   0  0  0  0  0  0  0  0  0  0  0  0
  -31.1562  -16.5919   19.3154 O   0  0  0  0  0  0  0  0  0  0  0  0
  -23.3589   -7.3806   24.2209 O   0  0  0  0  0  0  0  0  0  0  0  0
  -28.2191  -21.8101   24.6209 O   0  0  0  0  0  0  0  0  0  1  0  0
  -18.5387   -5.1168   22.7910 F   0  0  0  0  0  0  0  0  0  0  0  0
  -21.0127   -8.8365   24.3557 F   0  0  0  0  0  0  0  0  0  0  0  0
  1  2  1  0  0  0  0
  1  5  2  0  0  0  0
  2  6  2  0  0  0  0
  3  8  2  0  0  0  0
  3 16  1  0  0  0  0
  4  9  1  0  0  0  0
  4 16  2  0  0  0  0
  5 18  1  0  0  0  0
  6 20  1  0  0  0  0
  7 10  2  0  0  0  0
  7 19  1  0  0  0  0
  8 24  1  0  0  0  0
  9 24  2  0  0  0  0
 10 25  1  0  0  0  0
 11 12  2  0  0  0  0
 11 26  1  0  0  0  0
 12 27  1  0  0  0  0
 13 21  1  0  0  0  0
 13 25  2  0  0  0  0
 14 22  2  0  0  0  0
 14 30  1  0  0  0  0
 15 27  2  0  0  0  0
 15 28  1  0  0  0  0
 16 29  1  0  0  0  0
 17 29  1  0  0  0  0
 17 32  2  0  0  0  0
 17 33  1  0  0  0  0
 18 20  2  0  0  0  0
 18 39  1  0  0  0  0
 19 21  2  0  0  0  0
 19 40  1  0  0  0  0
 20 48  1  0  0  0  0
 21 41  1  0  0  0  0
 22 23  1  0  0  0  0
 22 60  1  0  0  0  0
 23 31  2  0  0  0  0
 23 51  1  0  0  0  0
 24 84  1  0  0  0  0
 25 85  1  0  0  0  0
 26 28  2  0  0  0  0
 26 84  1  0  0  0  0
 27 86  1  0  0  0  0
 28 87  1  0  0  0  0
 29 68  2  0  0  0  0
 30 34  1  0  0  0  0
 30 69  2  0  0  0  0
 31 61  1  0  0  0  0
 31 69  1  0  0  0  0
 32 71  1  0  0  0  0
 32 74  1  0  0  0  0
 33 75  1  0  0  0  0
 33 79  2  0  0  0  0
 34 52  1  0  0  0  0
 34 70  2  0  0  0  0
 35 49  1  0  0  0  0
 35 76  1  0  0  0  0
 35 80  2  0  0  0  0
 36 64  1  0  0  0  0
 36 72  1  0  0  0  0
 36 81  2  0  0  0  0
 37 65  1  0  0  0  0
 37 77  1  0  0  0  0
 37 82  2  0  0  0  0
 38 70  1  0  0  0  0
 38 73  1  0  0  0  0
 38 83  2  0  0  0  0
 39 42  1  0  0  0  0
 40 49  1  0  0  0  0
 41 72  1  0  0  0  0
 42 44  1  0  0  0  0
 43 45  1  0  0  0  0
 43 46  1  0  0  0  0
 44 48  1  0  0  0  0
 45 50  1  0  0  0  0
 46 73  1  0  0  0  0
 47 50  1  0  0  0  0
 47 73  1  0  0  0  0
 48 76  1  0  0  0  0
 49 72  1  0  0  0  0
 50 71  1  0  0  0  0
 53 62  1  0  0  0  0
 54 65  1  0  0  0  0
 55 66  1  0  0  0  0
 56 67  1  0  0  0  0
 57 67  1  0  0  0  0
 58 67  1  0  0  0  0
 59 78  1  0  0  0  0
 60 63  1  0  0  0  0
 61 62  1  0  0  0  0
 63 66  1  0  0  0  0
 64 67  1  0  0  0  0
 64 77  1  0  0  0  0
 65 78  1  0  0  0  0
 66 85  1  0  0  0  0
 68 71  1  0  0  0  0
M  CHG  1  78   1
M  ISO  4  38 100  66 101  70 100  85 101
M  END
> <Batch ID>
0089

> <Smiles>
CC=Cc1nc(C(C)[100NH:0][100C:0](=O)N2CCCC(n3nc(-c4ccc(Oc5ccc(F)cc5F)cc4)c(C(N)=O)c3N)C2)cc(CC[101CH:1](C)[101O:1]c2ccc3c(c2)CN(C(=O)C(NC(=O)C(C)NC)C(C)(C)C)C(C(=O)NC2CCCc4ccccc42)C3)c1C

> <Shape>
0.250

> <Color>
0.125

> <Negative vol penalty>
0.000

$$$$

  -OEChem-04052319063D

 82 89  0     1  0  0  0  0  0999 V2000
  -28.1783  -25.4518   16.2057 C   0  0  0  0  0  0  0  0  0  0  0  0
  -27.0002  -25.5532   16.9386 C   0  0  0  0  0  0  0  0  0  0  0  0
  -31.1795  -17.3298   20.6581 C   0  0  0  0  0  0  0  0  0  0  0  0
  -29.3596  -16.2349   19.5063 C   0  0  0  0  0  0  0  0  0  0  0  0
  -29.3669  -25.9635   16.7244 C   0  0  0  0  0  0  0  0  0  0  0  0
  -27.0103  -26.1654   18.1914 C   0  0  0  0  0  0  0  0  0  0  0  0
  -23.1327  -29.3605   18.8238 C   0  0  0  0  0  0  0  0  0  0  0  0
  -31.9296  -16.1559   20.5887 C   0  0  0  0  0  0  0  0  0  0  0  0
  -30.1098  -15.0610   19.4369 C   0  0  0  0  0  0  0  0  0  0  0  0
  -21.8886  -28.8023   19.1147 C   0  0  0  0  0  0  0  0  0  0  0  0
  -31.6834  -11.8827   18.6366 C   0  0  0  0  0  0  0  0  0  0  0  0
  -31.7047  -11.1966   17.4224 C   0  0  0  0  0  0  0  0  0  0  0  0
  -22.2111  -29.3155   21.4496 C   0  0  0  0  0  0  0  0  0  0  0  0
  -32.6547  -13.1377   16.3422 C   0  0  0  0  0  0  0  0  0  0  0  0
  -29.8944  -17.3693   20.1169 C   0  0  0  0  0  0  0  0  0  0  0  0
  -29.0860  -19.6268   19.2464 C   0  0  0  0  0  0  0  0  0  0  0  0
  -29.3898  -26.5909   17.9800 C   0  0  0  0  0  0  0  0  0  0  0  0
  -23.9313  -29.8914   19.8469 C   0  0  0  0  0  0  0  0  0  0  0  0
  -28.2007  -26.6848   18.7281 C   0  0  0  0  0  0  0  0  0  0  0  0
  -23.4637  -29.8821   21.1687 C   0  0  0  0  0  0  0  0  0  0  0  0
  -31.3949  -15.0215   19.9781 C   0  0  0  0  0  0  0  0  0  0  0  0
  -21.4289  -28.7771   20.4281 C   0  0  0  0  0  0  0  0  0  0  0  0
  -32.1477  -13.1964   18.7037 C   0  0  0  0  0  0  0  0  0  0  0  0
  -32.1903  -11.8240   16.2752 C   0  0  0  0  0  0  0  0  0  0  0  0
  -32.6334  -13.8238   17.5564 C   0  0  0  0  0  0  0  0  0  0  0  0
  -29.1188  -18.5815   20.1887 C   0  0  0  0  0  0  0  0  0  0  0  0
  -28.2032  -20.5372   19.7741 C   0  0  0  0  0  0  0  0  0  0  0  0
  -29.7904  -19.7627   18.0051 C   0  0  0  0  0  0  0  0  0  0  0  0
  -26.8057  -29.2199   21.0260 C   0  0  0  0  0  0  0  0  0  0  0  0
  -26.2867  -31.9034   22.7729 C   0  0  0  0  0  0  0  0  0  0  0  0
  -24.0435  -34.0862   24.1331 C   0  0  0  0  0  0  0  0  0  0  0  0
  -23.6557  -19.9100   23.4865 C   0  0  0  0  0  0  0  0  0  0  0  0
  -30.7079  -27.0867   18.5199 C   0  0  0  0  0  0  0  0  0  0  0  0
  -25.2592  -30.5141   19.5130 C   0  0  0  0  0  0  0  0  0  0  0  0
  -24.2739  -30.4574   22.3006 C   0  0  0  0  0  0  0  0  0  0  0  0
  -30.5610  -28.0543   19.6914 C   0  0  0  0  0  0  0  0  0  0  0  0
  -26.4949  -22.1032   23.9618 C   0  0  0  0  0  0  0  0  0  0  0  0
  -29.5579  -27.5154   20.7064 C   0  0  0  0  0  0  0  0  0  0  0  0
  -27.4897  -21.5372   22.9468 C   0  0  0  0  0  0  0  0  0  0  0  0
  -25.6879  -20.9907   24.6244 C   0  0  0  0  0  0  0  0  0  0  0  0
  -25.9601  -19.5333   22.6557 C   0  0  0  0  0  0  0  0  0  0  0  0
  -28.1665  -27.3640   20.0800 C   0  0  1  0  0  0  0  0  0  0  0  0
  -26.2127  -30.5621   20.7029 C   0  0  1  0  0  0  0  0  0  0  0  0
  -26.7912  -20.6101   21.9346 C   0  0  2  0  0  0  0  0  0  0  0  0
  -23.9180  -36.1606   25.5397 C   0  0  0  0  0  0  0  0  0  0  0  0
  -26.8902  -30.2478   25.2639 C   0  0  0  0  0  0  0  0  0  0  0  0
  -25.8433  -32.0605   26.6373 C   0  0  0  0  0  0  0  0  0  0  0  0
  -27.8757  -32.5464   25.2749 C   0  0  0  0  0  0  0  0  0  0  0  0
  -18.1673  -26.7542   24.3102 C   0  0  0  0  0  0  0  0  0  0  0  0
  -17.6350  -24.7183   22.9777 C   0  0  0  0  0  0  0  0  0  0  0  0
  -22.7254  -35.6143   21.9682 C   0  0  0  0  0  0  0  0  0  0  0  0
  -21.1348  -24.0710   21.9038 C   0  0  0  0  0  0  0  0  0  0  0  0
  -20.7115  -21.4399   23.5893 C   0  0  0  0  0  0  0  0  0  0  0  0
  -19.0060  -26.5332   21.9279 C   0  0  0  0  0  0  0  0  0  0  0  0
  -21.4097  -20.3780   24.4319 C   0  0  0  0  0  0  0  0  0  0  0  0
  -21.0164  -22.8523   24.0720 C   0  0  0  0  0  0  0  0  0  0  0  0
  -19.9819  -25.1067   23.8531 C   0  0  0  0  0  0  0  0  0  0  0  0
  -20.0583  -27.6375   22.0024 C   0  0  0  0  0  0  0  0  0  1  0  0
  -25.6572  -32.2021   24.1122 C   0  0  1  0  0  0  0  0  0  0  0  0
  -23.9829  -35.6030   24.1263 C   0  0  2  0  0  0  0  0  0  0  0  0
  -26.5519  -31.7516   25.3012 C   0  0  0  0  0  0  0  0  0  0  0  0
  -18.7249  -25.7768   23.2542 C   0  0  0  0  0  0  0  0  0  0  0  0
  -28.3205  -18.8059   21.2358 N   0  0  0  0  0  0  0  0  0  0  0  0
  -27.7778  -20.0027   20.9546 N   0  0  0  0  0  0  0  0  0  0  0  0
  -25.5683  -31.0493   21.9242 N   0  0  0  0  0  0  0  0  0  0  0  0
  -25.0335  -20.1561   23.6069 N   0  0  0  0  0  0  0  0  0  0  0  0
  -27.7572  -21.7347   19.3389 N   0  0  0  0  0  0  0  0  0  0  0  0
  -30.6582  -18.7343   17.6132 N   0  0  0  0  0  0  0  0  0  0  0  0
  -27.5128  -28.6516   19.9836 N   0  0  0  0  0  0  0  0  0  0  0  0
  -25.3433  -33.6268   24.1069 N   0  0  0  0  0  0  0  0  0  0  0  0
  -22.8476  -20.5315   24.4306 N   0  0  0  0  0  0  0  0  0  0  0  0
  -22.7798  -36.0701   23.3811 N   0  3  0  0  0  0  0  0  0  0  0  0
  -20.3321  -23.8424   23.1613 N   0  3  1  0  0  0  0  0  0  0  0  0
  -29.6669  -20.7740   17.2732 O   0  0  0  0  0  0  0  0  0  0  0  0
  -26.6358  -28.7364   22.1391 O   0  0  0  0  0  0  0  0  0  0  0  0
  -27.3723  -32.4148   22.4874 O   0  0  0  0  0  0  0  0  0  0  0  0
  -23.0383  -33.3795   24.1627 O   0  0  0  0  0  0  0  0  0  0  0  0
  -23.1798  -19.1932   22.5994 O   0  0  0  0  0  0  0  0  0  0  0  0
  -32.1267  -13.8760   19.9100 O   0  0  0  0  0  0  0  0  0  0  0  0
  -20.2153  -28.2323   20.7148 O   0  0  0  0  0  0  0  0  0  1  0  0
  -32.2121  -11.1645   15.1096 F   0  0  0  0  0  0  0  0  0  0  0  0
  -33.0819  -15.0853   17.6149 F   0  0  0  0  0  0  0  0  0  0  0  0
  1  2  1  0  0  0  0
  1  5  2  0  0  0  0
  2  6  2  0  0  0  0
  3  8  2  0  0  0  0
  3 15  1  0  0  0  0
  4  9  1  0  0  0  0
  4 15  2  0  0  0  0
  5 17  1  0  0  0  0
  6 19  1  0  0  0  0
  7 10  2  0  0  0  0
  7 18  1  0  0  0  0
  8 21  1  0  0  0  0
  9 21  2  0  0  0  0
 10 22  1  0  0  0  0
 11 12  2  0  0  0  0
 11 23  1  0  0  0  0
 12 24  1  0  0  0  0
 13 20  1  0  0  0  0
 13 22  2  0  0  0  0
 14 24  2  0  0  0  0
 14 25  1  0  0  0  0
 15 26  1  0  0  0  0
 16 26  1  0  0  0  0
 16 27  2  0  0  0  0
 16 28  1  0  0  0  0
 17 19  2  0  0  0  0
 17 33  1  0  0  0  0
 18 20  2  0  0  0  0
 18 34  1  0  0  0  0
 19 42  1  0  0  0  0
 20 35  1  0  0  0  0
 21 79  1  0  0  0  0
 22 80  1  0  0  0  0
 23 25  2  0  0  0  0
 23 79  1  0  0  0  0
 24 81  1  0  0  0  0
 25 82  1  0  0  0  0
 26 63  2  0  0  0  0
 27 64  1  0  0  0  0
 27 67  1  0  0  0  0
 28 68  1  0  0  0  0
 28 74  2  0  0  0  0
 29 43  1  0  0  0  0
 29 69  1  0  0  0  0
 29 75  2  0  0  0  0
 30 59  1  0  0  0  0
 30 65  1  0  0  0  0
 30 76  2  0  0  0  0
 31 60  1  0  0  0  0
 31 70  1  0  0  0  0
 31 77  2  0  0  0  0
 32 66  1  0  0  0  0
 32 71  1  0  0  0  0
 32 78  2  0  0  0  0
 33 36  1  0  0  0  0
 34 43  1  0  0  0  0
 35 65  1  0  0  0  0
 36 38  1  0  0  0  0
 37 39  1  0  0  0  0
 37 40  1  0  0  0  0
 38 42  1  0  0  0  0
 39 44  1  0  0  0  0
 40 66  1  0  0  0  0
 41 44  1  0  0  0  0
 41 66  1  0  0  0  0
 42 69  1  0  0  0  0
 43 65  1  0  0  0  0
 44 64  1  0  0  0  0
 45 60  1  0  0  0  0
 46 61  1  0  0  0  0
 47 61  1  0  0  0  0
 48 61  1  0  0  0  0
 49 62  1  0  0  0  0
 50 62  1  0  0  0  0
 51 72  1  0  0  0  0
 52 73  1  0  0  0  0
 53 55  1  0  0  0  0
 53 56  1  0  0  0  0
 54 58  1  0  0  0  0
 54 62  1  0  0  0  0
 55 71  1  0  0  0  0
 56 73  1  0  0  0  0
 57 62  1  0  0  0  0
 57 73  1  0  0  0  0
 58 80  1  0  0  0  0
 59 61  1  0  0  0  0
 59 70  1  0  0  0  0
 60 72  1  0  0  0  0
 63 64  1  0  0  0  0
M  CHG  2  72   1  73   1
M  ISO  4  32 100  58 101  71 100  80 101
M  END
> <Batch ID>
0089

> <Smiles>
CNC(C)C(=O)NC(C(=O)N1Cc2cc([101O:1][101CH2:1]CC(C)(C)CN(C)CCC[100NH:0][100C:0](=O)N3CCCC(n4nc(-c5ccc(Oc6ccc(F)cc6F)cc5)c(C(N)=O)c4N)C3)ccc2CC1C(=O)NC1CCCc2ccccc21)C(C)(C)C

> <Shape>
0.267

> <Color>
0.063

> <Negative vol penalty>
0.000

$$$$

  -OEChem-04052319063D

 86 94  0     1  0  0  0  0  0999 V2000
  -19.4539  -34.0556   21.3527 C   0  0  0  0  0  0  0  0  0  0  0  0
  -20.7463  -33.6757   21.0051 C   0  0  0  0  0  0  0  0  0  0  0  0
  -24.6882  -13.6571   20.3389 C   0  0  0  0  0  0  0  0  0  0  0  0
  -27.0083  -13.0001   20.4885 C   0  0  0  0  0  0  0  0  0  0  0  0
  -18.7674  -33.3594   22.3468 C   0  0  0  0  0  0  0  0  0  0  0  0
  -21.3534  -32.6000   21.6522 C   0  0  0  0  0  0  0  0  0  0  0  0
  -25.2467  -28.5542   19.2069 C   0  0  0  0  0  0  0  0  0  0  0  0
  -32.2425  -28.6245   19.9545 C   0  0  0  0  0  0  0  0  0  0  0  0
  -24.3195  -12.3206   20.1864 C   0  0  0  0  0  0  0  0  0  0  0  0
  -26.6396  -11.6635   20.3360 C   0  0  0  0  0  0  0  0  0  0  0  0
  -26.6376  -28.4608   19.2269 C   0  0  0  0  0  0  0  0  0  0  0  0
  -23.8916   -9.6131   22.1662 C   0  0  0  0  0  0  0  0  0  0  0  0
  -22.8052   -9.1516   22.9092 C   0  0  0  0  0  0  0  0  0  0  0  0
  -33.0745  -29.0569   20.9813 C   0  0  0  0  0  0  0  0  0  0  0  0
  -26.5021  -26.9315   21.0876 C   0  0  0  0  0  0  0  0  0  0  0  0
  -21.6474   -8.5865   20.8653 C   0  0  0  0  0  0  0  0  0  0  0  0
  -26.0326  -13.9969   20.4899 C   0  0  0  0  0  0  0  0  0  0  0  0
  -26.5393  -16.0930   21.8528 C   0  0  0  0  0  0  0  0  0  0  0  0
  -19.3629  -32.2686   22.9996 C   0  0  0  0  0  0  0  0  0  0  0  0
  -24.4722  -27.8443   20.1357 C   0  0  0  0  0  0  0  0  0  0  0  0
  -20.6748  -31.8894   22.6568 C   0  0  0  0  0  0  0  0  0  0  0  0
  -25.1014  -27.0157   21.0757 C   0  0  0  0  0  0  0  0  0  0  0  0
  -31.5319  -27.4378   20.0962 C   0  0  0  0  0  0  0  0  0  0  0  0
  -25.2952  -11.3237   20.1850 C   0  0  0  0  0  0  0  0  0  0  0  0
  -27.2657  -27.6516   20.1692 C   0  0  0  0  0  0  0  0  0  0  0  0
  -23.8560   -9.5615   20.7727 C   0  0  0  0  0  0  0  0  0  0  0  0
  -21.6831   -8.6382   22.2588 C   0  0  0  0  0  0  0  0  0  0  0  0
  -22.7339   -9.0481   20.1223 C   0  0  0  0  0  0  0  0  0  0  0  0
  -26.4142  -15.3774   20.6469 C   0  0  0  0  0  0  0  0  0  0  0  0
  -33.1604  -28.2726   22.1202 C   0  0  0  0  0  0  0  0  0  0  0  0
  -31.6870  -26.7258   21.2747 C   0  0  0  0  0  0  0  0  0  0  0  0
  -26.9222  -17.3539   21.4657 C   0  0  0  0  0  0  0  0  0  0  0  0
  -26.3283  -15.6568   23.2022 C   0  0  0  0  0  0  0  0  0  0  0  0
  -22.4383  -28.6496   22.4419 C   0  0  0  0  0  0  0  0  0  0  0  0
  -21.9731  -25.4440   22.6157 C   0  0  0  0  0  0  0  0  0  0  0  0
  -23.1852  -22.3054   22.0446 C   0  0  0  0  0  0  0  0  0  0  0  0
  -30.0679  -20.7392   18.3368 C   0  0  0  0  0  0  0  0  0  0  0  0
  -18.5991  -31.5765   24.1007 C   0  0  0  0  0  0  0  0  0  0  0  0
  -22.9717  -27.9350   20.0837 C   0  0  0  0  0  0  0  0  0  0  0  0
  -24.3145  -26.2172   22.0815 C   0  0  0  0  0  0  0  0  0  0  0  0
  -19.1736  -30.2130   24.4764 C   0  0  0  0  0  0  0  0  0  0  0  0
  -27.0685  -19.4885   16.8822 C   0  0  0  0  0  0  0  0  0  0  0  0
  -20.6885  -30.2970   24.6342 C   0  0  0  0  0  0  0  0  0  0  0  0
  -26.6451  -18.3630   17.8277 C   0  0  0  0  0  0  0  0  0  0  0  0
  -28.5869  -19.5625   16.7373 C   0  0  0  0  0  0  0  0  0  0  0  0
  -28.9029  -18.5353   18.9551 C   0  0  0  0  0  0  0  0  0  0  0  0
  -21.3580  -30.7124   23.3186 C   0  0  1  0  0  0  0  0  0  0  0  0
  -22.3049  -27.5692   21.4062 C   0  0  1  0  0  0  0  0  0  0  0  0
  -27.3828  -18.4568   19.1768 C   0  0  2  0  0  0  0  0  0  0  0  0
  -34.0426  -28.7075   23.2426 C   0  0  0  0  0  0  0  0  0  0  0  0
  -22.5924  -19.8832   22.3262 C   0  0  0  0  0  0  0  0  0  0  0  0
  -32.8124  -23.8318   21.9985 C   0  0  0  0  0  0  0  0  0  0  0  0
  -30.0001  -22.4665   21.9633 C   0  0  0  0  0  0  0  0  0  0  0  0
  -22.5890  -25.6425   25.5976 C   0  0  0  0  0  0  0  0  0  0  0  0
  -22.9180  -23.1607   25.6238 C   0  0  0  0  0  0  0  0  0  0  0  0
  -20.6932  -24.1159   25.0233 C   0  0  0  0  0  0  0  0  0  0  0  0
  -23.3072  -21.8166   19.1282 C   0  0  0  0  0  0  0  0  0  0  0  0
  -30.6281  -26.9625   18.9846 C   0  0  0  0  0  0  0  0  0  0  0  0
  -30.9462  -25.4458   21.4835 C   0  0  0  0  0  0  0  0  0  0  0  0
  -31.5103  -21.8064   20.0514 C   0  0  0  0  0  0  0  0  0  0  0  0
  -29.3055  -27.7205   18.9485 C   0  0  0  0  0  0  0  0  0  1  0  0
  -22.6091  -24.3116   23.3852 C   0  0  1  0  0  0  0  0  0  0  0  0
  -22.5566  -21.0855   21.3955 C   0  0  2  0  0  0  0  0  0  0  0  0
  -31.6945  -24.1705   21.0022 C   0  0  2  0  0  0  0  0  0  0  0  0
  -30.7451  -22.9653   20.7179 C   0  0  2  0  0  0  0  0  0  0  0  0
  -22.2176  -24.3241   24.8899 C   0  0  0  0  0  0  0  0  0  0  0  0
  -26.6947  -16.1220   19.5741 N   0  0  0  0  0  0  0  0  0  0  0  0
  -32.4857  -27.1140   22.2940 N   0  0  0  0  0  0  0  0  0  0  0  0
  -26.9998  -17.3185   20.1045 N   0  0  0  0  0  0  0  0  0  0  0  0
  -22.8503  -26.3442   21.9944 N   0  0  0  0  0  0  0  0  0  0  0  0
  -29.2258  -19.6515   18.0525 N   0  0  0  0  0  0  0  0  0  0  0  0
  -27.1966  -18.4785   22.1603 N   0  0  0  0  0  0  0  0  0  0  0  0
  -25.9373  -14.3289   23.4218 N   0  0  0  0  0  0  0  0  0  0  0  0
  -21.4253  -29.5888   22.4090 N   0  0  0  0  0  0  0  0  0  0  0  0
  -22.2448  -23.0858   22.6832 N   0  0  0  0  0  0  0  0  0  0  0  0
  -30.6279  -20.7500   19.6085 N   0  0  0  0  0  0  0  0  0  0  0  0
  -23.2837  -20.7324   20.1435 N   0  3  0  0  0  0  0  0  0  0  0  0
  -26.4660  -16.4264   24.1832 O   0  0  0  0  0  0  0  0  0  0  0  0
  -23.3892  -28.6316   23.2147 O   0  0  0  0  0  0  0  0  0  0  0  0
  -20.7433  -25.5228   22.5618 O   0  0  0  0  0  0  0  0  0  0  0  0
  -24.3905  -22.5403   21.9936 O   0  0  0  0  0  0  0  0  0  0  0  0
  -30.2991  -21.6371   17.5200 O   0  0  0  0  0  0  0  0  0  0  0  0
  -24.9358  -10.0194   20.0364 O   0  0  0  0  0  0  0  0  0  0  0  0
  -28.6232  -27.5591   20.1914 O   0  0  0  0  0  0  0  0  0  1  0  0
  -20.6405   -8.1936   22.9725 F   0  0  0  0  0  0  0  0  0  0  0  0
  -22.6943   -8.9949   18.7839 F   0  0  0  0  0  0  0  0  0  0  0  0
  1  2  1  0  0  0  0
  1  5  2  0  0  0  0
  2  6  2  0  0  0  0
  3  9  2  0  0  0  0
  3 17  1  0  0  0  0
  4 10  1  0  0  0  0
  4 17  2  0  0  0  0
  5 19  1  0  0  0  0
  6 21  1  0  0  0  0
  7 11  2  0  0  0  0
  7 20  1  0  0  0  0
  8 14  2  0  0  0  0
  8 23  1  0  0  0  0
  9 24  1  0  0  0  0
 10 24  2  0  0  0  0
 11 25  1  0  0  0  0
 12 13  2  0  0  0  0
 12 26  1  0  0  0  0
 13 27  1  0  0  0  0
 14 30  1  0  0  0  0
 15 22  1  0  0  0  0
 15 25  2  0  0  0  0
 16 27  2  0  0  0  0
 16 28  1  0  0  0  0
 17 29  1  0  0  0  0
 18 29  1  0  0  0  0
 18 32  2  0  0  0  0
 18 33  1  0  0  0  0
 19 21  2  0  0  0  0
 19 38  1  0  0  0  0
 20 22  2  0  0  0  0
 20 39  1  0  0  0  0
 21 47  1  0  0  0  0
 22 40  1  0  0  0  0
 23 31  2  0  0  0  0
 23 58  1  0  0  0  0
 24 83  1  0  0  0  0
 25 84  1  0  0  0  0
 26 28  2  0  0  0  0
 26 83  1  0  0  0  0
 27 85  1  0  0  0  0
 28 86  1  0  0  0  0
 29 67  2  0  0  0  0
 30 50  1  0  0  0  0
 30 68  2  0  0  0  0
 31 59  1  0  0  0  0
 31 68  1  0  0  0  0
 32 69  1  0  0  0  0
 32 72  1  0  0  0  0
 33 73  1  0  0  0  0
 33 78  2  0  0  0  0
 34 48  1  0  0  0  0
 34 74  1  0  0  0  0
 34 79  2  0  0  0  0
 35 62  1  0  0  0  0
 35 70  1  0  0  0  0
 35 80  2  0  0  0  0
 36 63  1  0  0  0  0
 36 75  1  0  0  0  0
 36 81  2  0  0  0  0
 37 71  1  0  0  0  0
 37 76  1  0  0  0  0
 37 82  2  0  0  0  0
 38 41  1  0  0  0  0
 39 48  1  0  0  0  0
 40 70  1  0  0  0  0
 41 43  1  0  0  0  0
 42 44  1  0  0  0  0
 42 45  1  0  0  0  0
 43 47  1  0  0  0  0
 44 49  1  0  0  0  0
 45 71  1  0  0  0  0
 46 49  1  0  0  0  0
 46 71  1  0  0  0  0
 47 74  1  0  0  0  0
 48 70  1  0  0  0  0
 49 69  1  0  0  0  0
 51 63  1  0  0  0  0
 52 64  1  0  0  0  0
 53 65  1  0  0  0  0
 54 66  1  0  0  0  0
 55 66  1  0  0  0  0
 56 66  1  0  0  0  0
 57 77  1  0  0  0  0
 58 61  1  0  0  0  0
 59 64  1  0  0  0  0
 60 65  1  0  0  0  0
 60 76  1  0  0  0  0
 61 84  1  0  0  0  0
 62 66  1  0  0  0  0
 62 75  1  0  0  0  0
 63 77  1  0  0  0  0
 64 65  1  0  0  0  0
 67 69  1  0  0  0  0
M  CHG  1  77   1
M  ISO  4  37 100  61 101  76 100  84 101
M  END
> <Batch ID>
0089

> <Smiles>
CNC(C)C(=O)NC(C(=O)N1Cc2cc([101O:1][101CH2:1]Cc3ccc(C)nc3CC(C)C(C)C[100NH:0][100C:0](=O)N3CCCC(n4nc(-c5ccc(Oc6ccc(F)cc6F)cc5)c(C(N)=O)c4N)C3)ccc2CC1C(=O)NC1CCCc2ccccc21)C(C)(C)C

> <Shape>
0.196

> <Color>
0.090

> <Negative vol penalty>
0.000

$$$$

  -OEChem-04052319063D

 87 95  0     1  0  0  0  0  0999 V2000
  -20.0985  -17.1538   20.3103 C   0  0  0  0  0  0  0  0  0  0  0  0
  -21.2928  -17.8529   20.4524 C   0  0  0  0  0  0  0  0  0  0  0  0
  -24.4657  -31.7724   23.5914 C   0  0  0  0  0  0  0  0  0  0  0  0
  -25.5932  -30.2672   25.1080 C   0  0  0  0  0  0  0  0  0  0  0  0
  -20.0164  -15.8251   20.7246 C   0  0  0  0  0  0  0  0  0  0  0  0
  -22.4055  -17.2240   21.0098 C   0  0  0  0  0  0  0  0  0  0  0  0
  -26.6585  -18.1451   18.4196 C   0  0  0  0  0  0  0  0  0  0  0  0
  -24.5998  -32.8064   24.5178 C   0  0  0  0  0  0  0  0  0  0  0  0
  -25.7274  -31.3013   26.0345 C   0  0  0  0  0  0  0  0  0  0  0  0
  -27.2685  -19.3831   18.6168 C   0  0  0  0  0  0  0  0  0  0  0  0
  -24.9658  -35.9333   26.3355 C   0  0  0  0  0  0  0  0  0  0  0  0
  -25.3868  -37.1764   25.8634 C   0  0  0  0  0  0  0  0  0  0  0  0
  -30.1068  -23.5307   18.3344 C   0  0  0  0  0  0  0  0  0  0  0  0
  -28.8478  -18.3580   20.1249 C   0  0  0  0  0  0  0  0  0  0  0  0
  -27.4398  -36.1798   25.0702 C   0  0  0  0  0  0  0  0  0  0  0  0
  -30.8389  -24.6618   18.6574 C   0  0  0  0  0  0  0  0  0  0  0  0
  -24.9623  -30.5027   23.8865 C   0  0  0  0  0  0  0  0  0  0  0  0
  -25.7281  -29.0834   21.9100 C   0  0  0  0  0  0  0  0  0  0  0  0
  -21.1314  -15.1765   21.2785 C   0  0  0  0  0  0  0  0  0  0  0  0
  -27.1325  -17.0043   19.0832 C   0  0  0  0  0  0  0  0  0  0  0  0
  -22.3378  -15.8857   21.4331 C   0  0  0  0  0  0  0  0  0  0  0  0
  -28.2435  -17.1062   19.9325 C   0  0  0  0  0  0  0  0  0  0  0  0
  -29.2197  -23.0364   19.2842 C   0  0  0  0  0  0  0  0  0  0  0  0
  -29.0937  -23.6793   20.5106 C   0  0  0  0  0  0  0  0  0  0  0  0
  -25.2307  -32.5709   25.7394 C   0  0  0  0  0  0  0  0  0  0  0  0
  -28.3615  -19.4903   19.4717 C   0  0  0  0  0  0  0  0  0  0  0  0
  -25.7818  -34.8134   26.1750 C   0  0  0  0  0  0  0  0  0  0  0  0
  -26.6238  -37.2997   25.2307 C   0  0  0  0  0  0  0  0  0  0  0  0
  -27.0187  -34.9367   25.5423 C   0  0  0  0  0  0  0  0  0  0  0  0
  -24.8236  -29.4340   22.9301 C   0  0  0  0  0  0  0  0  0  0  0  0
  -29.8713  -24.8037   20.7362 C   0  0  0  0  0  0  0  0  0  0  0  0
  -25.1407  -28.0112   21.2839 C   0  0  0  0  0  0  0  0  0  0  0  0
  -26.9867  -29.6740   21.5597 C   0  0  0  0  0  0  0  0  0  0  0  0
  -25.9077  -14.9638   21.1904 C   0  0  0  0  0  0  0  0  0  0  0  0
  -28.7004  -13.3875   20.7015 C   0  0  0  0  0  0  0  0  0  0  0  0
  -21.9211  -23.3582   22.5997 C   0  0  0  0  0  0  0  0  0  0  0  0
  -31.9708  -13.5193   19.7353 C   0  0  0  0  0  0  0  0  0  0  0  0
  -20.9809  -13.7536   21.7553 C   0  0  0  0  0  0  0  0  0  0  0  0
  -26.4800  -15.6712   18.8392 C   0  0  0  0  0  0  0  0  0  0  0  0
  -28.8036  -15.9079   20.6529 C   0  0  0  0  0  0  0  0  0  0  0  0
  -22.3128  -13.0462   21.9913 C   0  0  0  0  0  0  0  0  0  0  0  0
  -20.5459  -26.2370   20.9684 C   0  0  0  0  0  0  0  0  0  0  0  0
  -23.2607  -13.9427   22.7818 C   0  0  0  0  0  0  0  0  0  0  0  0
  -21.5805  -27.3295   21.2354 C   0  0  0  0  0  0  0  0  0  0  0  0
  -20.4292  -25.2779   22.1489 C   0  0  0  0  0  0  0  0  0  0  0  0
  -22.7620  -25.7485   22.8259 C   0  0  0  0  0  0  0  0  0  0  0  0
  -23.5738  -15.2305   22.0104 C   0  0  1  0  0  0  0  0  0  0  0  0
  -26.7256  -14.6708   19.9644 C   0  0  1  0  0  0  0  0  0  0  0  0
  -22.9333  -26.7211   21.6457 C   0  0  2  0  0  0  0  0  0  0  0  0
  -30.4570  -26.9017   21.9780 C   0  0  0  0  0  0  0  0  0  0  0  0
  -34.0085  -12.0774   19.4782 C   0  0  0  0  0  0  0  0  0  0  0  0
  -23.9436  -22.8132   20.4823 C   0  0  0  0  0  0  0  0  0  0  0  0
  -23.6243  -23.4401   24.3779 C   0  0  0  0  0  0  0  0  0  0  0  0
  -23.1846  -21.3473   23.0763 C   0  0  0  0  0  0  0  0  0  0  0  0
  -29.1089  -13.4300   23.7249 C   0  0  0  0  0  0  0  0  0  0  0  0
  -31.5164  -12.8627   23.3376 C   0  0  0  0  0  0  0  0  0  0  0  0
  -29.7315  -11.2755   22.6183 C   0  0  0  0  0  0  0  0  0  0  0  0
  -32.1138  -14.0390   16.8253 C   0  0  0  0  0  0  0  0  0  0  0  0
  -28.1500  -23.1717   21.5485 C   0  0  0  0  0  0  0  0  0  0  0  0
  -28.4130  -21.8128   18.9628 C   0  0  0  0  0  0  0  0  0  1  0  0
  -29.7792  -25.5362   22.0349 C   0  0  0  0  0  0  0  0  0  0  0  0
  -25.7626  -22.9222   22.2389 C   0  0  0  0  0  0  0  0  0  0  0  0
  -30.0726  -13.4238   21.3297 C   0  0  1  0  0  0  0  0  0  0  0  0
  -32.7779  -12.6474   18.7903 C   0  0  2  0  0  0  0  0  0  0  0  0
  -24.3166  -23.3274   21.8834 C   0  0  2  0  0  0  0  0  0  0  0  0
  -23.2976  -22.8789   22.9865 C   0  0  0  0  0  0  0  0  0  0  0  0
  -30.0958  -12.7711   22.7407 C   0  0  0  0  0  0  0  0  0  0  0  0
  -30.7437  -25.3134   19.8380 N   0  0  0  0  0  0  0  0  0  0  0  0
  -23.7436  -28.6484   22.9541 N   0  0  0  0  0  0  0  0  0  0  0  0
  -23.9657  -27.7935   21.9413 N   0  0  0  0  0  0  0  0  0  0  0  0
  -28.1271  -14.6277   20.3865 N   0  0  0  0  0  0  0  0  0  0  0  0
  -21.7382  -24.7390   22.5222 N   0  0  0  0  0  0  0  0  0  0  0  0
  -25.5199  -27.2429   20.2407 N   0  0  0  0  0  0  0  0  0  0  0  0
  -27.4419  -30.7689   22.3067 N   0  0  0  0  0  0  0  0  0  0  0  0
  -24.5439  -14.9721   20.9680 N   0  0  0  0  0  0  0  0  0  0  0  0
  -30.9779  -12.8025   20.3690 N   0  0  0  0  0  0  0  0  0  0  0  0
  -33.2241  -13.4389   17.6090 N   0  3  0  0  0  0  0  0  0  0  0  0
  -26.7230  -23.4694   21.2454 N   0  3  0  0  0  0  0  0  0  0  0  0
  -27.6792  -29.2538   20.6018 O   0  0  0  0  0  0  0  0  0  0  0  0
  -26.4721  -15.1658   22.2592 O   0  0  0  0  0  0  0  0  0  0  0  0
  -28.1601  -12.2987   20.4912 O   0  0  0  0  0  0  0  0  0  0  0  0
  -21.0370  -22.5287   22.3708 O   0  0  0  0  0  0  0  0  0  0  0  0
  -32.2008  -14.7155   19.8981 O   0  0  0  0  0  0  0  0  0  0  0  0
  -25.3620  -33.5797   26.6436 O   0  0  0  0  0  0  0  0  0  0  0  0
  -28.9585  -20.6976   19.6664 O   0  0  0  0  0  0  0  0  0  1  0  0
  -27.0274  -38.4933   24.7760 F   0  0  0  0  0  0  0  0  0  0  0  0
  -27.8065  -33.8642   25.3842 F   0  0  0  0  0  0  0  0  0  0  0  0
  1  2  1  0  0  0  0
  1  5  2  0  0  0  0
  2  6  2  0  0  0  0
  3  8  2  0  0  0  0
  3 17  1  0  0  0  0
  4  9  1  0  0  0  0
  4 17  2  0  0  0  0
  5 19  1  0  0  0  0
  6 21  1  0  0  0  0
  7 10  2  0  0  0  0
  7 20  1  0  0  0  0
  8 25  1  0  0  0  0
  9 25  2  0  0  0  0
 10 26  1  0  0  0  0
 11 12  2  0  0  0  0
 11 27  1  0  0  0  0
 12 28  1  0  0  0  0
 13 16  1  0  0  0  0
 13 23  2  0  0  0  0
 14 22  1  0  0  0  0
 14 26  2  0  0  0  0
 15 28  2  0  0  0  0
 15 29  1  0  0  0  0
 16 68  2  0  0  0  0
 17 30  1  0  0  0  0
 18 30  1  0  0  0  0
 18 32  2  0  0  0  0
 18 33  1  0  0  0  0
 19 21  2  0  0  0  0
 19 38  1  0  0  0  0
 20 22  2  0  0  0  0
 20 39  1  0  0  0  0
 21 47  1  0  0  0  0
 22 40  1  0  0  0  0
 23 24  1  0  0  0  0
 23 60  1  0  0  0  0
 24 31  2  0  0  0  0
 24 59  1  0  0  0  0
 25 84  1  0  0  0  0
 26 85  1  0  0  0  0
 27 29  2  0  0  0  0
 27 84  1  0  0  0  0
 28 86  1  0  0  0  0
 29 87  1  0  0  0  0
 30 69  2  0  0  0  0
 31 61  1  0  0  0  0
 31 68  1  0  0  0  0
 32 70  1  0  0  0  0
 32 73  1  0  0  0  0
 33 74  1  0  0  0  0
 33 79  2  0  0  0  0
 34 48  1  0  0  0  0
 34 75  1  0  0  0  0
 34 80  2  0  0  0  0
 35 63  1  0  0  0  0
 35 71  1  0  0  0  0
 35 81  2  0  0  0  0
 36 66  1  0  0  0  0
 36 72  1  0  0  0  0
 36 82  2  0  0  0  0
 37 64  1  0  0  0  0
 37 76  1  0  0  0  0
 37 83  2  0  0  0  0
 38 41  1  0  0  0  0
 39 48  1  0  0  0  0
 40 71  1  0  0  0  0
 41 43  1  0  0  0  0
 42 44  1  0  0  0  0
 42 45  1  0  0  0  0
 43 47  1  0  0  0  0
 44 49  1  0  0  0  0
 45 72  1  0  0  0  0
 46 49  1  0  0  0  0
 46 72  1  0  0  0  0
 47 75  1  0  0  0  0
 48 71  1  0  0  0  0
 49 70  1  0  0  0  0
 50 61  1  0  0  0  0
 51 64  1  0  0  0  0
 52 65  1  0  0  0  0
 53 66  1  0  0  0  0
 54 66  1  0  0  0  0
 55 67  1  0  0  0  0
 56 67  1  0  0  0  0
 57 67  1  0  0  0  0
 58 77  1  0  0  0  0
 59 78  1  0  0  0  0
 60 85  1  0  0  0  0
 62 65  1  0  0  0  0
 62 78  1  0  0  0  0
 63 67  1  0  0  0  0
 63 76  1  0  0  0  0
 64 77  1  0  0  0  0
 65 66  1  0  0  0  0
 69 70  1  0  0  0  0
M  CHG  2  77   1  78   1
M  ISO  4  36 100  60 101  66 100  85 101
M  END
> <Batch ID>
0089

> <Smiles>
CCc1nccc([101CH2:1][101O:1]c2ccc3c(c2)CN(C(=O)C(NC(=O)C(C)NC)C(C)(C)C)C(C(=O)NC2CCCc4ccccc42)C3)c1CNCC(C)[100C:0](C)(C)[100C:0](=O)N1CCCC(n2nc(-c3ccc(Oc4ccc(F)cc4F)cc3)c(C(N)=O)c2N)C1

> <Shape>
0.265

> <Color>
0.064

> <Negative vol penalty>
0.000

$$$$

  -OEChem-04052319063D

 83 91  0     1  0  0  0  0  0999 V2000
  -29.3177  -28.8345   22.2985 C   0  0  0  0  0  0  0  0  0  0  0  0
  -28.3021  -28.2851   21.5225 C   0  0  0  0  0  0  0  0  0  0  0  0
  -24.5945  -31.1255   25.1561 C   0  0  0  0  0  0  0  0  0  0  0  0
  -25.8735  -29.1225   24.7211 C   0  0  0  0  0  0  0  0  0  0  0  0
  -30.5826  -28.2480   22.3059 C   0  0  0  0  0  0  0  0  0  0  0  0
  -28.5511  -27.1494   20.7526 C   0  0  0  0  0  0  0  0  0  0  0  0
  -24.8589  -23.7034   21.1231 C   0  0  0  0  0  0  0  0  0  0  0  0
  -25.4333  -31.4282   26.2286 C   0  0  0  0  0  0  0  0  0  0  0  0
  -26.7124  -29.4252   25.7936 C   0  0  0  0  0  0  0  0  0  0  0  0
  -23.6954  -23.9357   20.3911 C   0  0  0  0  0  0  0  0  0  0  0  0
  -29.4089  -29.8580   28.1936 C   0  0  0  0  0  0  0  0  0  0  0  0
  -30.7837  -29.7240   28.0004 C   0  0  0  0  0  0  0  0  0  0  0  0
  -24.4589  -22.3943   18.6998 C   0  0  0  0  0  0  0  0  0  0  0  0
  -30.6929  -31.3554   26.2208 C   0  0  0  0  0  0  0  0  0  0  0  0
  -24.8145  -29.9726   24.4024 C   0  0  0  0  0  0  0  0  0  0  0  0
  -24.1079  -30.0523   21.9525 C   0  0  0  0  0  0  0  0  0  0  0  0
  -30.8446  -27.0989   21.5433 C   0  0  0  0  0  0  0  0  0  0  0  0
  -25.8379  -22.8216   20.6429 C   0  0  0  0  0  0  0  0  0  0  0  0
  -29.8210  -26.5478   20.7489 C   0  0  0  0  0  0  0  0  0  0  0  0
  -25.6329  -22.1506   19.4289 C   0  0  0  0  0  0  0  0  0  0  0  0
  -19.7184  -22.7513   17.5006 C   0  0  0  0  0  0  0  0  0  0  0  0
  -26.4923  -30.5781   26.5474 C   0  0  0  0  0  0  0  0  0  0  0  0
  -23.4965  -23.2833   19.1778 C   0  0  0  0  0  0  0  0  0  0  0  0
  -28.6759  -30.7408   27.4002 C   0  0  0  0  0  0  0  0  0  0  0  0
  -31.4258  -30.4727   27.0141 C   0  0  0  0  0  0  0  0  0  0  0  0
  -29.3179  -31.4895   26.4139 C   0  0  0  0  0  0  0  0  0  0  0  0
  -23.9480  -29.6590   23.2947 C   0  0  0  0  0  0  0  0  0  0  0  0
  -19.1868  -21.4690   17.7351 C   0  0  0  0  0  0  0  0  0  0  0  0
  -18.9524  -23.5876   18.2754 C   0  0  0  0  0  0  0  0  0  0  0  0
  -23.0292  -29.5036   21.3031 C   0  0  0  0  0  0  0  0  0  0  0  0
  -25.1393  -30.8430   21.3469 C   0  0  0  0  0  0  0  0  0  0  0  0
  -28.8870  -23.1037   19.7902 C   0  0  0  0  0  0  0  0  0  0  0  0
  -28.7062  -19.8760   19.5233 C   0  0  0  0  0  0  0  0  0  0  0  0
  -26.7604  -17.1124   19.0510 C   0  0  0  0  0  0  0  0  0  0  0  0
  -19.7013  -24.7776   22.5055 C   0  0  0  0  0  0  0  0  0  0  0  0
  -32.2405  -26.5280   21.5467 C   0  0  0  0  0  0  0  0  0  0  0  0
  -27.0753  -22.5615   21.4575 C   0  0  0  0  0  0  0  0  0  0  0  0
  -26.6439  -21.1788   18.8794 C   0  0  0  0  0  0  0  0  0  0  0  0
  -32.3190  -25.1072   20.9940 C   0  0  0  0  0  0  0  0  0  0  0  0
  -18.4964  -28.1594   22.0479 C   0  0  0  0  0  0  0  0  0  0  0  0
  -31.5309  -24.9964   19.6927 C   0  0  0  0  0  0  0  0  0  0  0  0
  -19.7892  -28.9647   22.1905 C   0  0  0  0  0  0  0  0  0  0  0  0
  -18.4736  -26.9755   23.0103 C   0  0  0  0  0  0  0  0  0  0  0  0
  -20.9354  -26.8620   23.0297 C   0  0  0  0  0  0  0  0  0  0  0  0
  -30.0454  -25.3020   19.9196 C   0  0  1  0  0  0  0  0  0  0  0  0
  -28.2394  -22.0346   20.6241 C   0  0  1  0  0  0  0  0  0  0  0  0
  -21.0295  -28.0599   22.0674 C   0  0  2  0  0  0  0  0  0  0  0  0
  -19.6294  -20.1877   17.1575 C   0  0  0  0  0  0  0  0  0  0  0  0
  -19.0000  -25.0488   18.4720 C   0  0  0  0  0  0  0  0  0  0  0  0
  -26.9021  -14.6156   18.8431 C   0  0  0  0  0  0  0  0  0  0  0  0
  -29.7812  -20.1759   16.6835 C   0  0  0  0  0  0  0  0  0  0  0  0
  -29.0129  -17.8385   16.2203 C   0  0  0  0  0  0  0  0  0  0  0  0
  -30.7445  -18.2574   17.9664 C   0  0  0  0  0  0  0  0  0  0  0  0
  -25.0472  -16.7009   21.4290 C   0  0  0  0  0  0  0  0  0  0  0  0
  -20.8704  -23.1267   16.6005 C   0  0  0  0  0  0  0  0  0  0  0  0
  -17.0724  -22.4843   21.1835 C   0  0  0  0  0  0  0  0  0  0  0  0
  -17.0140  -23.2001   19.8272 C   0  0  0  0  0  0  0  0  0  0  0  0
  -18.3313  -22.7717   21.9989 C   0  0  0  0  0  0  0  0  0  0  0  0
  -22.2235  -22.8066   17.2264 C   0  0  0  0  0  0  0  0  0  1  0  0
  -28.3449  -18.9132   18.4180 C   0  0  1  0  0  0  0  0  0  0  0  0
  -26.6958  -15.7878   19.7897 C   0  0  2  0  0  0  0  0  0  0  0  0
  -29.4525  -18.8160   17.3312 C   0  0  0  0  0  0  0  0  0  0  0  0
  -22.8538  -28.9178   23.4880 N   0  0  0  0  0  0  0  0  0  0  0  0
  -18.1623  -21.4844   18.5920 N   0  0  0  0  0  0  0  0  0  0  0  0
  -18.0441  -22.7866   18.9027 N   0  0  0  0  0  0  0  0  0  0  0  0
  -22.3163  -28.8410   22.2586 N   0  0  0  0  0  0  0  0  0  0  0  0
  -27.8404  -20.9629   19.7096 N   0  0  0  0  0  0  0  0  0  0  0  0
  -19.6721  -26.1443   22.8290 N   0  0  0  0  0  0  0  0  0  0  0  0
  -22.6303  -29.5280   20.0136 N   0  0  0  0  0  0  0  0  0  0  0  0
  -26.1734  -31.3278   22.1592 N   0  0  0  0  0  0  0  0  0  0  0  0
  -29.3821  -24.1658   20.5226 N   0  0  0  0  0  0  0  0  0  0  0  0
  -28.0322  -17.6449   19.0676 N   0  0  0  0  0  0  0  0  0  0  0  0
  -18.4623  -24.1710   22.3392 N   0  0  0  0  0  0  0  0  0  0  0  0
  -25.3708  -15.6287   20.4530 N   0  3  0  0  0  0  0  0  0  0  0  0
  -25.1349  -31.1253   20.1247 O   0  0  0  0  0  0  0  0  0  0  0  0
  -28.9352  -22.9740   18.5726 O   0  0  0  0  0  0  0  0  0  0  0  0
  -29.7155  -19.6673   20.2011 O   0  0  0  0  0  0  0  0  0  0  0  0
  -25.7815  -17.6218   18.5100 O   0  0  0  0  0  0  0  0  0  0  0  0
  -20.7543  -24.1453   22.3695 O   0  0  0  0  0  0  0  0  0  0  0  0
  -27.3111  -30.8733   27.5937 O   0  0  0  0  0  0  0  0  0  0  0  0
  -22.3620  -23.5087   18.4609 O   0  0  0  0  0  0  0  0  0  1  0  0
  -32.7463  -30.3449   26.8298 F   0  0  0  0  0  0  0  0  0  0  0  0
  -28.6193  -32.3400   25.6495 F   0  0  0  0  0  0  0  0  0  0  0  0
  1  2  1  0  0  0  0
  1  5  2  0  0  0  0
  2  6  2  0  0  0  0
  3  8  2  0  0  0  0
  3 15  1  0  0  0  0
  4  9  1  0  0  0  0
  4 15  2  0  0  0  0
  5 17  1  0  0  0  0
  6 19  1  0  0  0  0
  7 10  2  0  0  0  0
  7 18  1  0  0  0  0
  8 22  1  0  0  0  0
  9 22  2  0  0  0  0
 10 23  1  0  0  0  0
 11 12  2  0  0  0  0
 11 24  1  0  0  0  0
 12 25  1  0  0  0  0
 13 20  1  0  0  0  0
 13 23  2  0  0  0  0
 14 25  2  0  0  0  0
 14 26  1  0  0  0  0
 15 27  1  0  0  0  0
 16 27  1  0  0  0  0
 16 30  2  0  0  0  0
 16 31  1  0  0  0  0
 17 19  2  0  0  0  0
 17 36  1  0  0  0  0
 18 20  2  0  0  0  0
 18 37  1  0  0  0  0
 19 45  1  0  0  0  0
 20 38  1  0  0  0  0
 21 28  1  0  0  0  0
 21 29  2  0  0  0  0
 21 55  1  0  0  0  0
 22 80  1  0  0  0  0
 23 81  1  0  0  0  0
 24 26  2  0  0  0  0
 24 80  1  0  0  0  0
 25 82  1  0  0  0  0
 26 83  1  0  0  0  0
 27 63  2  0  0  0  0
 28 48  1  0  0  0  0
 28 64  2  0  0  0  0
 29 49  1  0  0  0  0
 29 65  1  0  0  0  0
 30 66  1  0  0  0  0
 30 69  1  0  0  0  0
 31 70  1  0  0  0  0
 31 75  2  0  0  0  0
 32 46  1  0  0  0  0
 32 71  1  0  0  0  0
 32 76  2  0  0  0  0
 33 60  1  0  0  0  0
 33 67  1  0  0  0  0
 33 77  2  0  0  0  0
 34 61  1  0  0  0  0
 34 72  1  0  0  0  0
 34 78  2  0  0  0  0
 35 68  1  0  0  0  0
 35 73  1  0  0  0  0
 35 79  2  0  0  0  0
 36 39  1  0  0  0  0
 37 46  1  0  0  0  0
 38 67  1  0  0  0  0
 39 41  1  0  0  0  0
 40 42  1  0  0  0  0
 40 43  1  0  0  0  0
 41 45  1  0  0  0  0
 42 47  1  0  0  0  0
 43 68  1  0  0  0  0
 44 47  1  0  0  0  0
 44 68  1  0  0  0  0
 45 71  1  0  0  0  0
 46 67  1  0  0  0  0
 47 66  1  0  0  0  0
 50 61  1  0  0  0  0
 51 62  1  0  0  0  0
 52 62  1  0  0  0  0
 53 62  1  0  0  0  0
 54 74  1  0  0  0  0
 55 59  1  0  0  0  0
 56 57  1  0  0  0  0
 56 58  1  0  0  0  0
 57 65  1  0  0  0  0
 58 73  1  0  0  0  0
 59 81  1  0  0  0  0
 60 62  1  0  0  0  0
 60 72  1  0  0  0  0
 61 74  1  0  0  0  0
 63 66  1  0  0  0  0
 64 65  1  0  0  0  0
M  CHG  1  74   1
M  ISO  4  35 100  59 101  73 100  81 101
M  END
> <Batch ID>
0089

> <Smiles>
CNC(C)C(=O)NC(C(=O)N1Cc2cc([101O:1][101CH2:1]Cc3c(C)nn(CCC[100NH:0][100C:0](=O)N4CCCC(n5nc(-c6ccc(Oc7ccc(F)cc7F)cc6)c(C(N)=O)c5N)C4)c3C)ccc2CC1C(=O)NC1CCCc2ccccc21)C(C)(C)C

> <Shape>
0.227

> <Color>
0.074

> <Negative vol penalty>
0.000

$$$$

  -OEChem-04052319063D

 86 94  0     1  0  0  0  0  0999 V2000
  -21.2218  -12.8925   22.9902 C   0  0  0  0  0  0  0  0  0  0  0  0
  -21.2230  -14.2015   23.4612 C   0  0  0  0  0  0  0  0  0  0  0  0
  -27.6544  -17.6854   19.6720 C   0  0  0  0  0  0  0  0  0  0  0  0
  -29.8057  -18.5918   19.0496 C   0  0  0  0  0  0  0  0  0  0  0  0
  -21.7857  -12.5988   21.7493 C   0  0  0  0  0  0  0  0  0  0  0  0
  -21.7891  -15.2175   22.6920 C   0  0  0  0  0  0  0  0  0  0  0  0
  -19.8946  -21.0280   22.2986 C   0  0  0  0  0  0  0  0  0  0  0  0
  -28.0269  -16.4452   19.1536 C   0  0  0  0  0  0  0  0  0  0  0  0
  -30.1783  -17.3516   18.5313 C   0  0  0  0  0  0  0  0  0  0  0  0
  -20.3267  -22.1995   22.9186 C   0  0  0  0  0  0  0  0  0  0  0  0
  -28.5456  -12.9452   18.3193 C   0  0  0  0  0  0  0  0  0  0  0  0
  -28.2616  -11.8120   19.0814 C   0  0  0  0  0  0  0  0  0  0  0  0
  -21.6932  -22.7058   20.9962 C   0  0  0  0  0  0  0  0  0  0  0  0
  -29.6310  -12.6751   20.8750 C   0  0  0  0  0  0  0  0  0  0  0  0
  -24.4371  -29.6064   20.0403 C   0  0  0  0  0  0  0  0  0  0  0  0
  -28.5437  -18.7588   19.6199 C   0  0  0  0  0  0  0  0  0  0  0  0
  -28.3456  -20.5025   21.4713 C   0  0  0  0  0  0  0  0  0  0  0  0
  -22.3503  -13.6132   20.9602 C   0  0  0  0  0  0  0  0  0  0  0  0
  -20.3676  -20.6805   21.0250 C   0  0  0  0  0  0  0  0  0  0  0  0
  -22.3623  -14.9369   21.4400 C   0  0  0  0  0  0  0  0  0  0  0  0
  -21.2635  -21.5306   20.3611 C   0  0  0  0  0  0  0  0  0  0  0  0
  -29.2888  -16.2783   18.5833 C   0  0  0  0  0  0  0  0  0  0  0  0
  -21.2284  -23.0372   22.2687 C   0  0  0  0  0  0  0  0  0  0  0  0
  -29.3724  -13.9434   18.8351 C   0  0  0  0  0  0  0  0  0  0  0  0
  -28.8043  -11.6769   20.3592 C   0  0  0  0  0  0  0  0  0  0  0  0
  -29.9150  -13.8083   20.1129 C   0  0  0  0  0  0  0  0  0  0  0  0
  -28.1593  -20.0403   20.1547 C   0  0  0  0  0  0  0  0  0  0  0  0
  -25.8013  -29.5397   20.0765 C   0  0  0  0  0  0  0  0  0  0  0  0
  -27.8127  -21.7684   21.4694 C   0  0  0  0  0  0  0  0  0  0  0  0
  -25.1001  -30.2642   22.0473 C   0  0  0  0  0  0  0  0  0  0  0  0
  -28.9468  -19.8464   22.5955 C   0  0  0  0  0  0  0  0  0  0  0  0
  -22.0402  -18.2515   19.8392 C   0  0  0  0  0  0  0  0  0  0  0  0
  -21.3920  -19.6956   17.0078 C   0  0  0  0  0  0  0  0  0  0  0  0
  -20.5889  -22.5583   15.3325 C   0  0  0  0  0  0  0  0  0  0  0  0
  -27.2885  -26.7053   19.1674 C   0  0  0  0  0  0  0  0  0  0  0  0
  -22.9902  -13.2398   19.6466 C   0  0  0  0  0  0  0  0  0  0  0  0
  -19.8711  -19.4268   20.3586 C   0  0  0  0  0  0  0  0  0  0  0  0
  -21.7857  -21.2132   18.9845 C   0  0  0  0  0  0  0  0  0  0  0  0
  -23.2348  -14.4334   18.7271 C   0  0  0  0  0  0  0  0  0  0  0  0
  -24.9996  -24.1535   18.0069 C   0  0  0  0  0  0  0  0  0  0  0  0
  -23.8702  -15.5832   19.5024 C   0  0  0  0  0  0  0  0  0  0  0  0
  -25.6411  -22.8873   18.5772 C   0  0  0  0  0  0  0  0  0  0  0  0
  -26.0587  -25.1472   17.5388 C   0  0  0  0  0  0  0  0  0  0  0  0
  -27.6958  -24.2606   19.1536 C   0  0  0  0  0  0  0  0  0  0  0  0
  -22.9446  -16.0704   20.6238 C   0  0  1  0  0  0  0  0  0  0  0  0
  -20.8142  -18.9123   19.2754 C   0  0  1  0  0  0  0  0  0  0  0  0
  -26.6776  -23.2255   19.6652 C   0  0  2  0  0  0  0  0  0  0  0  0
  -25.8366  -32.0998   23.6099 C   0  0  0  0  0  0  0  0  0  0  0  0
  -25.6996  -29.7217   24.4349 C   0  0  0  0  0  0  0  0  0  0  0  0
  -20.1634  -23.4337   13.0195 C   0  0  0  0  0  0  0  0  0  0  0  0
  -20.2688  -26.6961   23.1441 C   0  0  0  0  0  0  0  0  0  0  0  0
  -24.3903  -19.6546   16.4433 C   0  0  0  0  0  0  0  0  0  0  0  0
  -24.0025  -21.3433   14.6361 C   0  0  0  0  0  0  0  0  0  0  0  0
  -22.9510  -19.0867   14.4785 C   0  0  0  0  0  0  0  0  0  0  0  0
  -17.8209  -23.3514   16.0165 C   0  0  0  0  0  0  0  0  0  0  0  0
  -26.7778  -29.1313   19.0634 C   0  0  0  0  0  0  0  0  0  0  0  0
  -22.0809  -29.1501   22.5773 C   0  0  0  0  0  0  0  0  0  0  0  0
  -22.1870  -27.7952   21.8696 C   0  0  0  0  0  0  0  0  0  0  0  0
  -22.5973  -30.2816   21.6839 C   0  0  0  0  0  0  0  0  0  0  0  0
  -21.9961  -25.2746   22.0221 C   0  0  0  0  0  0  0  0  0  1  0  0
  -25.1055  -30.7503   23.4496 C   0  0  0  0  0  0  0  0  0  0  0  0
  -22.0689  -20.7501   16.1658 C   0  0  1  0  0  0  0  0  0  0  0  0
  -19.5384  -22.8455   14.2749 C   0  0  2  0  0  0  0  0  0  0  0  0
  -21.7431  -26.6045   22.7464 C   0  0  2  0  0  0  0  0  0  0  0  0
  -23.3450  -20.2140   15.4577 C   0  0  0  0  0  0  0  0  0  0  0  0
  -27.5550  -20.9393   19.3733 N   0  0  0  0  0  0  0  0  0  0  0  0
  -24.0301  -30.0571   21.2729 N   0  0  0  0  0  0  0  0  0  0  0  0
  -27.3570  -21.9791   20.2013 N   0  0  0  0  0  0  0  0  0  0  0  0
  -26.1844  -29.9526   21.3299 N   0  3  0  0  0  0  0  0  0  0  0  0
  -21.2755  -19.9728   18.3772 N   0  0  0  0  0  0  0  0  0  0  0  0
  -27.0026  -25.4408   18.6264 N   0  0  0  0  0  0  0  0  0  0  0  0
  -27.6940  -22.7107   22.4288 N   0  0  0  0  0  0  0  0  0  0  0  0
  -29.4436  -18.5471   22.4236 N   0  0  0  0  0  0  0  0  0  0  0  0
  -21.8890  -16.8999   20.0833 N   0  0  0  0  0  0  0  0  0  0  0  0
  -21.0502  -21.2612   15.2551 N   0  0  0  0  0  0  0  0  0  0  0  0
  -26.5947  -27.7712   18.6078 N   0  0  0  0  0  0  0  0  0  0  0  0
  -18.5304  -23.8121   14.7952 N   0  3  0  0  0  0  0  0  0  0  0  0
  -29.0258  -20.3896   23.7234 O   0  0  0  0  0  0  0  0  0  0  0  0
  -23.0492  -18.9183   20.0367 O   0  0  0  0  0  0  0  0  0  0  0  0
  -20.9755  -18.6671   16.4690 O   0  0  0  0  0  0  0  0  0  0  0  0
  -20.9656  -23.4015   16.1435 O   0  0  0  0  0  0  0  0  0  0  0  0
  -28.0987  -26.8718   20.0856 O   0  0  0  0  0  0  0  0  0  0  0  0
  -29.6528  -15.0682   18.0775 O   0  0  0  0  0  0  0  0  0  0  0  0
  -21.6524  -24.1810   22.8719 O   0  0  0  0  0  0  0  0  0  1  0  0
  -28.5302  -10.5894   21.0915 F   0  0  0  0  0  0  0  0  0  0  0  0
  -30.7090  -14.7644   20.6142 F   0  0  0  0  0  0  0  0  0  0  0  0
  1  2  1  0  0  0  0
  1  5  2  0  0  0  0
  2  6  2  0  0  0  0
  3  8  2  0  0  0  0
  3 16  1  0  0  0  0
  4  9  1  0  0  0  0
  4 16  2  0  0  0  0
  5 18  1  0  0  0  0
  6 20  1  0  0  0  0
  7 10  2  0  0  0  0
  7 19  1  0  0  0  0
  8 22  1  0  0  0  0
  9 22  2  0  0  0  0
 10 23  1  0  0  0  0
 11 12  2  0  0  0  0
 11 24  1  0  0  0  0
 12 25  1  0  0  0  0
 13 21  1  0  0  0  0
 13 23  2  0  0  0  0
 14 25  2  0  0  0  0
 14 26  1  0  0  0  0
 15 28  2  0  0  0  0
 15 67  1  0  0  0  0
 16 27  1  0  0  0  0
 17 27  1  0  0  0  0
 17 29  2  0  0  0  0
 17 31  1  0  0  0  0
 18 20  2  0  0  0  0
 18 36  1  0  0  0  0
 19 21  2  0  0  0  0
 19 37  1  0  0  0  0
 20 45  1  0  0  0  0
 21 38  1  0  0  0  0
 22 83  1  0  0  0  0
 23 84  1  0  0  0  0
 24 26  2  0  0  0  0
 24 83  1  0  0  0  0
 25 85  1  0  0  0  0
 26 86  1  0  0  0  0
 27 66  2  0  0  0  0
 28 56  1  0  0  0  0
 28 69  1  0  0  0  0
 29 68  1  0  0  0  0
 29 72  1  0  0  0  0
 30 61  1  0  0  0  0
 30 67  1  0  0  0  0
 30 69  2  0  0  0  0
 31 73  1  0  0  0  0
 31 78  2  0  0  0  0
 32 46  1  0  0  0  0
 32 74  1  0  0  0  0
 32 79  2  0  0  0  0
 33 62  1  0  0  0  0
 33 70  1  0  0  0  0
 33 80  2  0  0  0  0
 34 63  1  0  0  0  0
 34 75  1  0  0  0  0
 34 81  2  0  0  0  0
 35 71  1  0  0  0  0
 35 76  1  0  0  0  0
 35 82  2  0  0  0  0
 36 39  1  0  0  0  0
 37 46  1  0  0  0  0
 38 70  1  0  0  0  0
 39 41  1  0  0  0  0
 40 42  1  0  0  0  0
 40 43  1  0  0  0  0
 41 45  1  0  0  0  0
 42 47  1  0  0  0  0
 43 71  1  0  0  0  0
 44 47  1  0  0  0  0
 44 71  1  0  0  0  0
 45 74  1  0  0  0  0
 46 70  1  0  0  0  0
 47 68  1  0  0  0  0
 48 61  1  0  0  0  0
 49 61  1  0  0  0  0
 50 63  1  0  0  0  0
 51 64  1  0  0  0  0
 52 65  1  0  0  0  0
 53 65  1  0  0  0  0
 54 65  1  0  0  0  0
 55 77  1  0  0  0  0
 56 76  1  0  0  0  0
 57 58  1  0  0  0  0
 57 59  1  0  0  0  0
 58 64  1  0  0  0  0
 59 67  1  0  0  0  0
 60 64  1  0  0  0  0
 60 84  1  0  0  0  0
 62 65  1  0  0  0  0
 62 75  1  0  0  0  0
 63 77  1  0  0  0  0
 66 68  1  0  0  0  0
M  CHG  2  69   1  77   1
M  ISO  4  35 100  60 101  76 100  84 101
M  END
> <Batch ID>
0089

> <Smiles>
CNC(C)C(=O)NC(C(=O)N1Cc2cc([101O:1][101CH2:1]C(C)CCCn3cc(C[100NH:0][100C:0](=O)N4CCCC(n5nc(-c6ccc(Oc7ccc(F)cc7F)cc6)c(C(N)=O)c5N)C4)nc3C(C)C)ccc2CC1C(=O)NC1CCCc2ccccc21)C(C)(C)C

> <Shape>
0.213

> <Color>
0.050

> <Negative vol penalty>
0.000

$$$$

  -OEChem-04052319063D

 82 90  0     1  0  0  0  0  0999 V2000
  -22.6374  -37.5954   18.6742 C   0  0  0  0  0  0  0  0  0  0  0  0
  -23.0266  -36.4488   17.9892 C   0  0  0  0  0  0  0  0  0  0  0  0
  -24.6862  -13.9784   20.9293 C   0  0  0  0  0  0  0  0  0  0  0  0
  -26.6027  -13.4086   19.5730 C   0  0  0  0  0  0  0  0  0  0  0  0
  -23.1211  -37.8361   19.9595 C   0  0  0  0  0  0  0  0  0  0  0  0
  -23.9007  -35.5427   18.5887 C   0  0  0  0  0  0  0  0  0  0  0  0
  -25.3550  -28.5336   18.8605 C   0  0  0  0  0  0  0  0  0  0  0  0
  -24.6008  -12.6558   21.3642 C   0  0  0  0  0  0  0  0  0  0  0  0
  -26.5173  -12.0860   20.0080 C   0  0  0  0  0  0  0  0  0  0  0  0
  -26.4214  -27.6483   18.7099 C   0  0  0  0  0  0  0  0  0  0  0  0
  -23.4447   -9.7120   20.1719 C   0  0  0  0  0  0  0  0  0  0  0  0
  -22.1829   -9.1179   20.1935 C   0  0  0  0  0  0  0  0  0  0  0  0
  -27.1306  -28.1284   20.9651 C   0  0  0  0  0  0  0  0  0  0  0  0
  -22.3937   -8.7566   22.5730 C   0  0  0  0  0  0  0  0  0  0  0  0
  -25.6872  -14.3548   20.0336 C   0  0  0  0  0  0  0  0  0  0  0  0
  -24.7941  -16.4517   18.8879 C   0  0  0  0  0  0  0  0  0  0  0  0
  -23.9940  -36.9277   20.5788 C   0  0  0  0  0  0  0  0  0  0  0  0
  -25.1744  -29.2324   20.0628 C   0  0  0  0  0  0  0  0  0  0  0  0
  -24.3976  -35.7722   19.8830 C   0  0  0  0  0  0  0  0  0  0  0  0
  -26.0596  -29.0201   21.1293 C   0  0  0  0  0  0  0  0  0  0  0  0
  -25.5163  -11.7097   20.9036 C   0  0  0  0  0  0  0  0  0  0  0  0
  -27.3111  -27.4477   19.7613 C   0  0  0  0  0  0  0  0  0  0  0  0
  -24.1811   -9.8283   21.3509 C   0  0  0  0  0  0  0  0  0  0  0  0
  -21.6574   -8.6402   21.3941 C   0  0  0  0  0  0  0  0  0  0  0  0
  -23.6556   -9.3507   22.5514 C   0  0  0  0  0  0  0  0  0  0  0  0
  -25.7756  -15.7207   19.5836 C   0  0  0  0  0  0  0  0  0  0  0  0
  -25.3595  -17.6885   18.6950 C   0  0  0  0  0  0  0  0  0  0  0  0
  -23.4880  -16.0489   18.4548 C   0  0  0  0  0  0  0  0  0  0  0  0
  -29.5720  -20.5610   21.7413 C   0  0  0  0  0  0  0  0  0  0  0  0
  -25.1589  -32.3005   20.8935 C   0  0  0  0  0  0  0  0  0  0  0  0
  -24.2576  -31.1137   23.7747 C   0  0  0  0  0  0  0  0  0  0  0  0
  -24.2147  -28.4719   25.9348 C   0  0  0  0  0  0  0  0  0  0  0  0
  -24.5278  -37.2544   21.9511 C   0  0  0  0  0  0  0  0  0  0  0  0
  -24.0036  -30.1638   20.2185 C   0  0  0  0  0  0  0  0  0  0  0  0
  -25.8980  -29.7305   22.4475 C   0  0  0  0  0  0  0  0  0  0  0  0
  -25.1553  -36.0577   22.6613 C   0  0  0  0  0  0  0  0  0  0  0  0
  -31.5449  -23.6039   23.0503 C   0  0  0  0  0  0  0  0  0  0  0  0
  -29.5940  -19.8390   18.1768 C   0  0  0  0  0  0  0  0  0  0  0  0
  -26.0894  -35.3066   21.7179 C   0  0  0  0  0  0  0  0  0  0  0  0
  -31.6950  -24.3183   21.7069 C   0  0  0  0  0  0  0  0  0  0  0  0
  -28.5376  -18.7390   18.0813 C   0  0  0  0  0  0  0  0  0  0  0  0
  -30.5772  -22.4215   23.0131 C   0  0  0  0  0  0  0  0  0  0  0  0
  -30.5027  -22.4783   20.4573 C   0  0  0  0  0  0  0  0  0  0  0  0
  -30.3880  -19.7432   19.4769 C   0  0  0  0  0  0  0  0  0  0  0  0
  -28.4795  -18.6501   20.6114 C   0  0  0  0  0  0  0  0  0  0  0  0
  -25.3247  -34.7532   20.5094 C   0  0  1  0  0  0  0  0  0  0  0  0
  -24.2130  -31.2096   21.3092 C   0  0  1  0  0  0  0  0  0  0  0  0
  -30.5547  -23.9910   20.7411 C   0  0  2  0  0  0  0  0  0  0  0  0
  -27.6359  -18.7299   19.3281 C   0  0  2  0  0  0  0  0  0  0  0  0
  -30.6706  -21.5951   21.7192 C   0  0  2  0  0  0  0  0  0  0  0  0
  -31.9946  -20.8177   21.6641 C   0  0  0  0  0  0  0  0  0  0  0  0
  -31.1793  -28.4818   18.3259 C   0  0  0  0  0  0  0  0  0  0  0  0
  -23.4381  -27.8158   28.2291 C   0  0  0  0  0  0  0  0  0  0  0  0
  -26.5717  -32.6780   25.0026 C   0  0  0  0  0  0  0  0  0  0  0  0
  -26.3403  -31.2700   27.0599 C   0  0  0  0  0  0  0  0  0  0  0  0
  -24.4543  -32.7316   26.3323 C   0  0  0  0  0  0  0  0  0  0  0  0
  -22.4508  -26.3532   24.8584 C   0  0  0  0  0  0  0  0  0  0  0  0
  -30.6993  -24.7785   19.4392 C   0  0  0  0  0  0  0  0  0  0  0  0
  -31.0041  -26.9710   18.2617 C   0  0  0  0  0  0  0  0  0  0  0  0
  -29.5386  -26.8675   20.3591 C   0  0  0  0  0  0  0  0  0  1  0  0
  -24.9839  -30.6421   25.0112 C   0  0  1  0  0  0  0  0  0  0  0  0
  -23.0919  -27.8545   26.7488 C   0  0  2  0  0  0  0  0  0  0  0  0
  -30.7765  -26.3091   19.6397 C   0  0  1  0  0  0  0  0  0  0  0  0
  -25.5920  -31.8184   25.8261 C   0  0  0  0  0  0  0  0  0  0  0  0
  -26.8808  -16.4335   19.8168 N   0  0  0  0  0  0  0  0  0  0  0  0
  -26.5973  -17.6254   19.2645 N   0  0  0  0  0  0  0  0  0  0  0  0
  -29.4921  -19.7095   20.6391 N   0  0  0  0  0  0  0  0  0  0  0  0
  -24.7413  -30.6358   22.5485 N   0  0  0  0  0  0  0  0  0  0  0  0
  -24.9138  -18.8129   18.0956 N   0  0  0  0  0  0  0  0  0  0  0  0
  -23.3528  -15.4777   17.1821 N   0  0  0  0  0  0  0  0  0  0  0  0
  -24.5921  -33.5607   20.8776 N   0  0  0  0  0  0  0  0  0  0  0  0
  -24.0318  -29.8271   25.7580 N   0  0  0  0  0  0  0  0  0  0  0  0
  -22.8263  -26.4612   26.2917 N   0  3  0  0  0  0  0  0  0  0  0  0
  -22.4686  -16.2063   19.1685 O   0  0  0  0  0  0  0  0  0  0  0  0
  -28.8076  -20.5152   22.7087 O   0  0  0  0  0  0  0  0  0  0  0  0
  -26.3175  -32.0200   20.6095 O   0  0  0  0  0  0  0  0  0  0  0  0
  -23.2921  -31.8722   23.8928 O   0  0  0  0  0  0  0  0  0  0  0  0
  -25.1613  -27.8181   25.5025 O   0  0  0  0  0  0  0  0  0  0  0  0
  -25.4334  -10.4191   21.3280 O   0  0  0  0  0  0  0  0  0  0  0  0
  -28.3532  -26.5846   19.6167 O   0  0  0  0  0  0  0  0  0  1  0  0
  -20.4450   -8.0711   21.4149 F   0  0  0  0  0  0  0  0  0  0  0  0
  -24.3578   -9.4607   23.6875 F   0  0  0  0  0  0  0  0  0  0  0  0
  1  2  1  0  0  0  0
  1  5  2  0  0  0  0
  2  6  2  0  0  0  0
  3  8  2  0  0  0  0
  3 15  1  0  0  0  0
  4  9  1  0  0  0  0
  4 15  2  0  0  0  0
  5 17  1  0  0  0  0
  6 19  1  0  0  0  0
  7 10  2  0  0  0  0
  7 18  1  0  0  0  0
  8 21  1  0  0  0  0
  9 21  2  0  0  0  0
 10 22  1  0  0  0  0
 11 12  2  0  0  0  0
 11 23  1  0  0  0  0
 12 24  1  0  0  0  0
 13 20  1  0  0  0  0
 13 22  2  0  0  0  0
 14 24  2  0  0  0  0
 14 25  1  0  0  0  0
 15 26  1  0  0  0  0
 16 26  1  0  0  0  0
 16 27  2  0  0  0  0
 16 28  1  0  0  0  0
 17 19  2  0  0  0  0
 17 33  1  0  0  0  0
 18 20  2  0  0  0  0
 18 34  1  0  0  0  0
 19 46  1  0  0  0  0
 20 35  1  0  0  0  0
 21 79  1  0  0  0  0
 22 80  1  0  0  0  0
 23 25  2  0  0  0  0
 23 79  1  0  0  0  0
 24 81  1  0  0  0  0
 25 82  1  0  0  0  0
 26 65  2  0  0  0  0
 27 66  1  0  0  0  0
 27 69  1  0  0  0  0
 28 70  1  0  0  0  0
 28 74  2  0  0  0  0
 29 50  1  0  0  0  0
 29 67  1  0  0  0  0
 29 75  2  0  0  0  0
 30 47  1  0  0  0  0
 30 71  1  0  0  0  0
 30 76  2  0  0  0  0
 31 61  1  0  0  0  0
 31 68  1  0  0  0  0
 31 77  2  0  0  0  0
 32 62  1  0  0  0  0
 32 72  1  0  0  0  0
 32 78  2  0  0  0  0
 33 36  1  0  0  0  0
 34 47  1  0  0  0  0
 35 68  1  0  0  0  0
 36 39  1  0  0  0  0
 37 40  1  0  0  0  0
 37 42  1  0  0  0  0
 38 41  1  0  0  0  0
 38 44  1  0  0  0  0
 39 46  1  0  0  0  0
 40 48  1  0  0  0  0
 41 49  1  0  0  0  0
 42 50  1  0  0  0  0
 43 48  1  0  0  0  0
 43 50  1  0  0  0  0
 44 67  1  0  0  0  0
 45 49  1  0  0  0  0
 45 67  1  0  0  0  0
 46 71  1  0  0  0  0
 47 68  1  0  0  0  0
 48 58  1  0  0  0  0
 49 66  1  0  0  0  0
 50 51  1  0  0  0  0
 52 59  1  0  0  0  0
 53 62  1  0  0  0  0
 54 64  1  0  0  0  0
 55 64  1  0  0  0  0
 56 64  1  0  0  0  0
 57 73  1  0  0  0  0
 58 63  1  0  0  0  0
 59 63  1  0  0  0  0
 60 63  1  0  0  0  0
 60 80  1  0  0  0  0
 61 64  1  0  0  0  0
 61 72  1  0  0  0  0
 62 73  1  0  0  0  0
 65 66  1  0  0  0  0
M  CHG  1  73   1
M  ISO  4  29 100  50 100  60 101  80 101
M  END
> <Batch ID>
0089

> <Smiles>
CCC(CC1CCC[100C:0](C)([100C:0](=O)N2CCCC(n3nc(-c4ccc(Oc5ccc(F)cc5F)cc4)c(C(N)=O)c3N)C2)C1)[101CH2:1][101O:1]c1ccc2c(c1)CN(C(=O)C(NC(=O)C(C)NC)C(C)(C)C)C(C(=O)NC1CCCc3ccccc31)C2

> <Shape>
0.268

> <Color>
0.111

> <Negative vol penalty>
0.000

$$$$
