
  -OEChem-04052319093D

 87 95  0     1  0  0  0  0  0999 V2000
  -19.8292   -8.2581   22.0391 C   0  0  0  0  0  0  0  0  0  0  0  0
  -19.5294   -9.1966   23.0213 C   0  0  0  0  0  0  0  0  0  0  0  0
  -29.9578  -24.0515   20.2970 C   0  0  0  0  0  0  0  0  0  0  0  0
  -27.9846  -24.0208   18.9032 C   0  0  0  0  0  0  0  0  0  0  0  0
  -21.0057   -8.3755   21.3003 C   0  0  0  0  0  0  0  0  0  0  0  0
  -20.4067  -10.2525   23.2661 C   0  0  0  0  0  0  0  0  0  0  0  0
  -19.1135  -17.9560   23.1637 C   0  0  0  0  0  0  0  0  0  0  0  0
  -29.9525  -22.6572   20.3353 C   0  0  0  0  0  0  0  0  0  0  0  0
  -27.9793  -22.6264   18.9415 C   0  0  0  0  0  0  0  0  0  0  0  0
  -19.0459  -19.3421   23.0216 C   0  0  0  0  0  0  0  0  0  0  0  0
  -28.2851  -20.2172   21.9756 C   0  0  0  0  0  0  0  0  0  0  0  0
  -28.4911  -19.6027   23.2107 C   0  0  0  0  0  0  0  0  0  0  0  0
  -21.4062  -19.4145   22.5006 C   0  0  0  0  0  0  0  0  0  0  0  0
  -30.4536  -18.4992   22.3345 C   0  0  0  0  0  0  0  0  0  0  0  0
  -19.0962  -27.5648   21.5018 C   0  0  0  0  0  0  0  0  0  0  0  0
  -28.9738  -24.7333   19.5810 C   0  0  0  0  0  0  0  0  0  0  0  0
  -29.6288  -26.9963   18.6024 C   0  0  0  0  0  0  0  0  0  0  0  0
  -21.8932   -9.4388   21.5296 C   0  0  0  0  0  0  0  0  0  0  0  0
  -20.3259  -17.2914   22.9594 C   0  0  0  0  0  0  0  0  0  0  0  0
  -21.5969  -10.3834   22.5307 C   0  0  0  0  0  0  0  0  0  0  0  0
  -21.4773  -18.0249   22.6293 C   0  0  0  0  0  0  0  0  0  0  0  0
  -28.9633  -21.9446   19.6575 C   0  0  0  0  0  0  0  0  0  0  0  0
  -20.1895  -20.0696   22.6911 C   0  0  0  0  0  0  0  0  0  0  0  0
  -29.1634  -19.9727   20.9198 C   0  0  0  0  0  0  0  0  0  0  0  0
  -29.5753  -18.7438   23.3902 C   0  0  0  0  0  0  0  0  0  0  0  0
  -30.2476  -19.1137   21.0993 C   0  0  0  0  0  0  0  0  0  0  0  0
  -28.9784  -26.1736   19.5416 C   0  0  0  0  0  0  0  0  0  0  0  0
  -20.4060  -27.7603   21.8380 C   0  0  0  0  0  0  0  0  0  0  0  0
  -29.3272  -28.2759   18.9998 C   0  0  0  0  0  0  0  0  0  0  0  0
  -19.4587  -26.5688   23.4453 C   0  0  0  0  0  0  0  0  0  0  0  0
  -30.4335  -26.6359   17.4718 C   0  0  0  0  0  0  0  0  0  0  0  0
  -22.1589  -14.0189   22.8782 C   0  0  0  0  0  0  0  0  0  0  0  0
  -23.1972  -15.6805   20.5179 C   0  0  0  0  0  0  0  0  0  0  0  0
  -23.7648  -17.6590   17.7975 C   0  0  0  0  0  0  0  0  0  0  0  0
  -24.8003  -30.6071   22.1501 C   0  0  0  0  0  0  0  0  0  0  0  0
  -23.1757   -9.4974   20.7381 C   0  0  0  0  0  0  0  0  0  0  0  0
  -20.4587  -15.8064   23.1620 C   0  0  0  0  0  0  0  0  0  0  0  0
  -22.7674  -17.2715   22.4530 C   0  0  0  0  0  0  0  0  0  0  0  0
  -23.8696  -10.8555   20.8025 C   0  0  0  0  0  0  0  0  0  0  0  0
  -28.2728  -30.8344   22.9028 C   0  0  0  0  0  0  0  0  0  0  0  0
  -23.9222  -11.3605   22.2409 C   0  0  0  0  0  0  0  0  0  0  0  0
  -28.9061  -29.7399   22.0420 C   0  0  0  0  0  0  0  0  0  0  0  0
  -26.9069  -30.4113   23.4387 C   0  0  0  0  0  0  0  0  0  0  0  0
  -26.5857  -28.8610   21.5500 C   0  0  0  0  0  0  0  0  0  0  0  0
  -22.5113  -11.5568   22.8086 C   0  0  1  0  0  0  0  0  0  0  0  0
  -21.4558  -15.1514   22.1895 C   0  0  1  0  0  0  0  0  0  0  0  0
  -27.9399  -29.2631   20.9409 C   0  0  2  0  0  0  0  0  0  0  0  0
  -25.1173  -17.7645   15.6863 C   0  0  0  0  0  0  0  0  0  0  0  0
  -18.4231  -23.6960   25.8427 C   0  0  0  0  0  0  0  0  0  0  0  0
  -22.3782  -25.6572   23.9244 C   0  0  0  0  0  0  0  0  0  0  0  0
  -21.7487  -27.7897   25.1338 C   0  0  0  0  0  0  0  0  0  0  0  0
  -25.6735  -16.4050   22.1449 C   0  0  0  0  0  0  0  0  0  0  0  0
  -26.6608  -17.3959   20.0685 C   0  0  0  0  0  0  0  0  0  0  0  0
  -26.1198  -14.9622   20.1515 C   0  0  0  0  0  0  0  0  0  0  0  0
  -21.3361  -17.7250   16.1074 C   0  0  0  0  0  0  0  0  0  0  0  0
  -21.4736  -28.4770   21.1297 C   0  0  0  0  0  0  0  0  0  0  0  0
  -19.2308  -25.7818   24.7133 C   0  0  0  0  0  0  0  0  0  0  0  0
  -21.6056  -29.9823   21.4811 C   0  0  0  0  0  0  0  0  0  0  0  0
  -19.6354  -23.5178   23.6139 C   0  0  0  0  0  0  0  0  0  0  0  0
  -22.7485  -30.6903   20.7565 C   0  0  0  0  0  0  0  0  0  0  0  0
  -19.1380  -22.1038   23.3346 C   0  0  0  0  0  0  0  0  0  1  0  0
  -24.2390  -16.6459   20.0118 C   0  0  1  0  0  0  0  0  0  0  0  0
  -23.7963  -17.3454   16.3125 C   0  0  2  0  0  0  0  0  0  0  0  0
  -18.6772  -24.3569   24.4830 C   0  0  1  0  0  0  0  0  0  0  0  0
  -21.8533  -27.0869   23.7789 C   0  0  0  0  0  0  0  0  0  0  0  0
  -25.6481  -16.3613   20.6040 C   0  0  0  0  0  0  0  0  0  0  0  0
  -28.3139  -26.8721   20.4661 N   0  0  0  0  0  0  0  0  0  0  0  0
  -20.6024  -27.1338   23.0450 N   0  0  0  0  0  0  0  0  0  0  0  0
  -28.5452  -28.1471   20.1098 N   0  0  0  0  0  0  0  0  0  0  0  0
  -18.5343  -26.8244   22.5138 N   0  3  0  0  0  0  0  0  0  0  0  0
  -22.5266  -16.0335   21.6952 N   0  0  0  0  0  0  0  0  0  0  0  0
  -26.0380  -29.9719   22.3442 N   0  0  0  0  0  0  0  0  0  0  0  0
  -29.6573  -29.4876   18.5045 N   0  0  0  0  0  0  0  0  0  0  0  0
  -30.6427  -25.2755   17.2070 N   0  0  0  0  0  0  0  0  0  0  0  0
  -21.9298  -12.7826   22.3049 N   0  0  0  0  0  0  0  0  0  0  0  0
  -24.1793  -16.5843   18.5554 N   0  0  0  0  0  0  0  0  0  0  0  0
  -24.0415  -30.1337   21.0866 N   0  0  0  0  0  0  0  0  0  0  0  0
  -22.6946  -18.0606   15.6085 N   0  3  0  0  0  0  0  0  0  0  0  0
  -30.9653  -27.4949   16.7283 O   0  0  0  0  0  0  0  0  0  0  0  0
  -22.8594  -14.2486   23.8571 O   0  0  0  0  0  0  0  0  0  0  0  0
  -22.9857  -14.6383   19.8915 O   0  0  0  0  0  0  0  0  0  0  0  0
  -23.4116  -18.7496   18.2405 O   0  0  0  0  0  0  0  0  0  0  0  0
  -24.4034  -31.5313   22.8678 O   0  0  0  0  0  0  0  0  0  0  0  0
  -28.9580  -20.5841   19.6944 O   0  0  0  0  0  0  0  0  0  0  0  0
  -20.1154  -21.4221   22.5496 O   0  0  0  0  0  0  0  0  0  1  0  0
  -29.7739  -18.1550   24.5768 F   0  0  0  0  0  0  0  0  0  0  0  0
  -31.0955  -18.8758   20.0891 F   0  0  0  0  0  0  0  0  0  0  0  0
  1  2  1  0  0  0  0
  1  5  2  0  0  0  0
  2  6  2  0  0  0  0
  3  8  2  0  0  0  0
  3 16  1  0  0  0  0
  4  9  1  0  0  0  0
  4 16  2  0  0  0  0
  5 18  1  0  0  0  0
  6 20  1  0  0  0  0
  7 10  2  0  0  0  0
  7 19  1  0  0  0  0
  8 22  1  0  0  0  0
  9 22  2  0  0  0  0
 10 23  1  0  0  0  0
 11 12  2  0  0  0  0
 11 24  1  0  0  0  0
 12 25  1  0  0  0  0
 13 21  1  0  0  0  0
 13 23  2  0  0  0  0
 14 25  2  0  0  0  0
 14 26  1  0  0  0  0
 15 28  2  0  0  0  0
 15 70  1  0  0  0  0
 16 27  1  0  0  0  0
 17 27  1  0  0  0  0
 17 29  2  0  0  0  0
 17 31  1  0  0  0  0
 18 20  2  0  0  0  0
 18 36  1  0  0  0  0
 19 21  2  0  0  0  0
 19 37  1  0  0  0  0
 20 45  1  0  0  0  0
 21 38  1  0  0  0  0
 22 84  1  0  0  0  0
 23 85  1  0  0  0  0
 24 26  2  0  0  0  0
 24 84  1  0  0  0  0
 25 86  1  0  0  0  0
 26 87  1  0  0  0  0
 27 67  2  0  0  0  0
 28 56  1  0  0  0  0
 28 68  1  0  0  0  0
 29 69  1  0  0  0  0
 29 73  1  0  0  0  0
 30 57  1  0  0  0  0
 30 68  1  0  0  0  0
 30 70  2  0  0  0  0
 31 74  1  0  0  0  0
 31 79  2  0  0  0  0
 32 46  1  0  0  0  0
 32 75  1  0  0  0  0
 32 80  2  0  0  0  0
 33 62  1  0  0  0  0
 33 71  1  0  0  0  0
 33 81  2  0  0  0  0
 34 63  1  0  0  0  0
 34 76  1  0  0  0  0
 34 82  2  0  0  0  0
 35 72  1  0  0  0  0
 35 77  1  0  0  0  0
 35 83  2  0  0  0  0
 36 39  1  0  0  0  0
 37 46  1  0  0  0  0
 38 71  1  0  0  0  0
 39 41  1  0  0  0  0
 40 42  1  0  0  0  0
 40 43  1  0  0  0  0
 41 45  1  0  0  0  0
 42 47  1  0  0  0  0
 43 72  1  0  0  0  0
 44 47  1  0  0  0  0
 44 72  1  0  0  0  0
 45 75  1  0  0  0  0
 46 71  1  0  0  0  0
 47 69  1  0  0  0  0
 48 63  1  0  0  0  0
 49 64  1  0  0  0  0
 50 65  1  0  0  0  0
 51 65  1  0  0  0  0
 52 66  1  0  0  0  0
 53 66  1  0  0  0  0
 54 66  1  0  0  0  0
 55 78  1  0  0  0  0
 56 58  1  0  0  0  0
 57 64  1  0  0  0  0
 58 60  1  0  0  0  0
 59 61  1  0  0  0  0
 59 64  1  0  0  0  0
 60 77  1  0  0  0  0
 61 85  1  0  0  0  0
 62 66  1  0  0  0  0
 62 76  1  0  0  0  0
 63 78  1  0  0  0  0
 65 68  1  0  0  0  0
 67 69  1  0  0  0  0
M  CHG  2  70   1  78   1
M  ISO  4  35 100  61 101  77 100  85 101
M  END
> <Batch ID>
0090

> <Smiles>
CNC(C)C(=O)NC(C(=O)N1Cc2cc([101O:1][101CH2:1]CC(C)Cc3ncc(CCC[100NH:0][100C:0](=O)N4CCCC(n5nc(-c6ccc(Oc7ccc(F)cc7F)cc6)c(C(N)=O)c5N)C4)n3C(C)C)ccc2CC1C(=O)NC1CCCc2ccccc21)C(C)(C)C

> <Shape>
0.233

> <Color>
0.071

> <Negative vol penalty>
0.000

$$$$

  -OEChem-04052319093D

 86 94  0     1  0  0  0  0  0999 V2000
  -23.5512   -8.0876   21.6941 C   0  0  0  0  0  0  0  0  0  0  0  0
  -24.1856   -9.0624   20.9309 C   0  0  0  0  0  0  0  0  0  0  0  0
  -25.0527  -26.2732   21.0184 C   0  0  0  0  0  0  0  0  0  0  0  0
  -26.3282  -26.7257   23.0198 C   0  0  0  0  0  0  0  0  0  0  0  0
  -22.3032   -8.3484   22.2585 C   0  0  0  0  0  0  0  0  0  0  0  0
  -23.5719  -10.2984   20.7306 C   0  0  0  0  0  0  0  0  0  0  0  0
  -26.7732  -14.1765   21.3281 C   0  0  0  0  0  0  0  0  0  0  0  0
  -24.0016  -27.0447   21.5138 C   0  0  0  0  0  0  0  0  0  0  0  0
  -25.2770  -27.4973   23.5152 C   0  0  0  0  0  0  0  0  0  0  0  0
  -27.6474  -14.4483   20.2766 C   0  0  0  0  0  0  0  0  0  0  0  0
  -21.4828  -26.6866   23.7391 C   0  0  0  0  0  0  0  0  0  0  0  0
  -20.1917  -26.1714   23.6247 C   0  0  0  0  0  0  0  0  0  0  0  0
  -26.2018  -16.2355   19.5448 C   0  0  0  0  0  0  0  0  0  0  0  0
  -19.5466  -28.0831   22.2957 C   0  0  0  0  0  0  0  0  0  0  0  0
  -33.0531  -15.6778   21.2021 C   0  0  0  0  0  0  0  0  0  0  0  0
  -26.2160  -26.1136   21.7714 C   0  0  0  0  0  0  0  0  0  0  0  0
  -28.3824  -25.7564   20.4726 C   0  0  0  0  0  0  0  0  0  0  0  0
  -21.6783   -9.5917   22.0731 C   0  0  0  0  0  0  0  0  0  0  0  0
  -25.5993  -14.9263   21.4897 C   0  0  0  0  0  0  0  0  0  0  0  0
  -22.3138  -10.5757   21.2919 C   0  0  0  0  0  0  0  0  0  0  0  0
  -25.3157  -15.9729   20.6006 C   0  0  0  0  0  0  0  0  0  0  0  0
  -33.0345  -17.0835   21.2749 C   0  0  0  0  0  0  0  0  0  0  0  0
  -24.1137  -27.6568   22.7622 C   0  0  0  0  0  0  0  0  0  0  0  0
  -27.3603  -15.4761   19.3830 C   0  0  0  0  0  0  0  0  0  0  0  0
  -21.8058  -27.9001   23.1319 C   0  0  0  0  0  0  0  0  0  0  0  0
  -19.2236  -26.8696   22.9029 C   0  0  0  0  0  0  0  0  0  0  0  0
  -20.8377  -28.5984   22.4102 C   0  0  0  0  0  0  0  0  0  0  0  0
  -27.3019  -25.3163   21.2605 C   0  0  0  0  0  0  0  0  0  0  0  0
  -32.6080  -17.4861   20.0329 C   0  0  0  0  0  0  0  0  0  0  0  0
  -29.1302  -24.6255   20.2528 C   0  0  0  0  0  0  0  0  0  0  0  0
  -28.6832  -27.0701   19.9833 C   0  0  0  0  0  0  0  0  0  0  0  0
  -22.4909  -14.2629   21.4520 C   0  0  0  0  0  0  0  0  0  0  0  0
  -22.2145  -17.3671   22.3520 C   0  0  0  0  0  0  0  0  0  0  0  0
  -23.5759  -20.4958   22.4211 C   0  0  0  0  0  0  0  0  0  0  0  0
  -30.7918  -19.9176   22.9889 C   0  0  0  0  0  0  0  0  0  0  0  0
  -20.3078   -9.8105   22.6635 C   0  0  0  0  0  0  0  0  0  0  0  0
  -24.6801  -14.6379   22.6448 C   0  0  0  0  0  0  0  0  0  0  0  0
  -24.0788  -16.8205   20.7423 C   0  0  0  0  0  0  0  0  0  0  0  0
  -19.8942  -11.2790   22.7152 C   0  0  0  0  0  0  0  0  0  0  0  0
  -28.2349  -19.7655   20.4323 C   0  0  0  0  0  0  0  0  0  0  0  0
  -20.1903  -11.9641   21.3848 C   0  0  0  0  0  0  0  0  0  0  0  0
  -27.8388  -21.2381   20.3103 C   0  0  0  0  0  0  0  0  0  0  0  0
  -28.5360  -19.3923   21.8808 C   0  0  0  0  0  0  0  0  0  0  0  0
  -29.1815  -21.7108   22.4111 C   0  0  0  0  0  0  0  0  0  0  0  0
  -21.6914  -11.9375   21.0726 C   0  0  1  0  0  0  0  0  0  0  0  0
  -23.2551  -15.1304   22.4118 C   0  0  1  0  0  0  0  0  0  0  0  0
  -28.8863  -22.1564   20.9673 C   0  0  2  0  0  0  0  0  0  0  0  0
  -23.8039  -22.9234   23.0147 C   0  0  0  0  0  0  0  0  0  0  0  0
  -33.6595  -21.0025   19.7348 C   0  0  0  0  0  0  0  0  0  0  0  0
  -34.9445  -18.8936   19.3818 C   0  0  0  0  0  0  0  0  0  0  0  0
  -33.6292  -19.8979   17.4981 C   0  0  0  0  0  0  0  0  0  0  0  0
  -20.3012  -17.7467   20.0056 C   0  0  0  0  0  0  0  0  0  0  0  0
  -20.6093  -20.2198   20.2448 C   0  0  0  0  0  0  0  0  0  0  0  0
  -19.6101  -18.9028   22.1128 C   0  0  0  0  0  0  0  0  0  0  0  0
  -25.0364  -19.8678   24.9175 C   0  0  0  0  0  0  0  0  0  0  0  0
  -33.3930  -17.9275   22.4269 C   0  0  0  0  0  0  0  0  0  0  0  0
  -32.3801  -18.8306   19.4701 C   0  0  0  0  0  0  0  0  0  0  0  0
  -30.4231  -16.4286   17.7263 C   0  0  0  0  0  0  0  0  0  0  0  0
  -31.9321  -16.2355   17.8916 C   0  0  0  0  0  0  0  0  0  0  0  0
  -32.3004  -18.0177   23.5101 C   0  0  0  0  0  0  0  0  0  0  0  0
  -29.5949  -15.4657   18.5692 C   0  0  0  0  0  0  0  0  0  1  0  0
  -22.0810  -18.6833   21.6246 C   0  0  1  0  0  0  0  0  0  0  0  0
  -23.7340  -21.5008   23.5478 C   0  0  2  0  0  0  0  0  0  0  0  0
  -33.6489  -19.6376   19.0144 C   0  0  0  0  0  0  0  0  0  0  0  0
  -20.6728  -18.8711   20.9929 C   0  0  0  0  0  0  0  0  0  0  0  0
  -32.6688  -15.2182   20.0083 N   0  0  0  0  0  0  0  0  0  0  0  0
  -27.3548  -24.0078   21.5233 N   0  0  0  0  0  0  0  0  0  0  0  0
  -32.4046  -16.3416   19.3196 N   0  0  0  0  0  0  0  0  0  0  0  0
  -28.4774  -23.6160   20.8969 N   0  0  0  0  0  0  0  0  0  0  0  0
  -23.2080  -16.4954   21.8840 N   0  0  0  0  0  0  0  0  0  0  0  0
  -29.5537  -20.2924   22.4413 N   0  0  0  0  0  0  0  0  0  0  0  0
  -30.2758  -24.4061   19.5732 N   0  0  0  0  0  0  0  0  0  0  0  0
  -27.8092  -28.1183   20.3024 N   0  0  0  0  0  0  0  0  0  0  0  0
  -22.3866  -12.9429   21.8473 N   0  0  0  0  0  0  0  0  0  0  0  0
  -22.4484  -19.7190   22.5842 N   0  0  0  0  0  0  0  0  0  0  0  0
  -31.0646  -18.5552   22.9858 N   0  0  0  0  0  0  0  0  0  0  0  0
  -24.9807  -21.2253   24.3165 N   0  3  0  0  0  0  0  0  0  0  0  0
  -29.6882  -27.3043   19.2701 O   0  0  0  0  0  0  0  0  0  0  0  0
  -22.0287  -14.7551   20.4294 O   0  0  0  0  0  0  0  0  0  0  0  0
  -21.4696  -17.1245   23.3048 O   0  0  0  0  0  0  0  0  0  0  0  0
  -24.3709  -20.4110   21.4877 O   0  0  0  0  0  0  0  0  0  0  0  0
  -31.5977  -20.7374   23.4425 O   0  0  0  0  0  0  0  0  0  0  0  0
  -23.0883  -28.4100   23.2458 O   0  0  0  0  0  0  0  0  0  0  0  0
  -28.2116  -15.7430   18.3554 O   0  0  0  0  0  0  0  0  0  1  0  0
  -17.9842  -26.3739   22.7918 F   0  0  0  0  0  0  0  0  0  0  0  0
  -21.1425  -29.7641   21.8236 F   0  0  0  0  0  0  0  0  0  0  0  0
  1  2  1  0  0  0  0
  1  5  2  0  0  0  0
  2  6  2  0  0  0  0
  3  8  2  0  0  0  0
  3 16  1  0  0  0  0
  4  9  1  0  0  0  0
  4 16  2  0  0  0  0
  5 18  1  0  0  0  0
  6 20  1  0  0  0  0
  7 10  2  0  0  0  0
  7 19  1  0  0  0  0
  8 23  1  0  0  0  0
  9 23  2  0  0  0  0
 10 24  1  0  0  0  0
 11 12  2  0  0  0  0
 11 25  1  0  0  0  0
 12 26  1  0  0  0  0
 13 21  1  0  0  0  0
 13 24  2  0  0  0  0
 14 26  2  0  0  0  0
 14 27  1  0  0  0  0
 15 22  1  0  0  0  0
 15 66  2  0  0  0  0
 16 28  1  0  0  0  0
 17 28  1  0  0  0  0
 17 30  2  0  0  0  0
 17 31  1  0  0  0  0
 18 20  2  0  0  0  0
 18 36  1  0  0  0  0
 19 21  2  0  0  0  0
 19 37  1  0  0  0  0
 20 45  1  0  0  0  0
 21 38  1  0  0  0  0
 22 29  2  0  0  0  0
 22 56  1  0  0  0  0
 23 83  1  0  0  0  0
 24 84  1  0  0  0  0
 25 27  2  0  0  0  0
 25 83  1  0  0  0  0
 26 85  1  0  0  0  0
 27 86  1  0  0  0  0
 28 67  2  0  0  0  0
 29 57  1  0  0  0  0
 29 68  1  0  0  0  0
 30 69  1  0  0  0  0
 30 72  1  0  0  0  0
 31 73  1  0  0  0  0
 31 78  2  0  0  0  0
 32 46  1  0  0  0  0
 32 74  1  0  0  0  0
 32 79  2  0  0  0  0
 33 62  1  0  0  0  0
 33 70  1  0  0  0  0
 33 80  2  0  0  0  0
 34 63  1  0  0  0  0
 34 75  1  0  0  0  0
 34 81  2  0  0  0  0
 35 71  1  0  0  0  0
 35 76  1  0  0  0  0
 35 82  2  0  0  0  0
 36 39  1  0  0  0  0
 37 46  1  0  0  0  0
 38 70  1  0  0  0  0
 39 41  1  0  0  0  0
 40 42  1  0  0  0  0
 40 43  1  0  0  0  0
 41 45  1  0  0  0  0
 42 47  1  0  0  0  0
 43 71  1  0  0  0  0
 44 47  1  0  0  0  0
 44 71  1  0  0  0  0
 45 74  1  0  0  0  0
 46 70  1  0  0  0  0
 47 69  1  0  0  0  0
 48 63  1  0  0  0  0
 49 64  1  0  0  0  0
 50 64  1  0  0  0  0
 51 64  1  0  0  0  0
 52 65  1  0  0  0  0
 53 65  1  0  0  0  0
 54 65  1  0  0  0  0
 55 77  1  0  0  0  0
 56 60  1  0  0  0  0
 57 64  1  0  0  0  0
 58 59  1  0  0  0  0
 58 61  1  0  0  0  0
 59 68  1  0  0  0  0
 60 76  1  0  0  0  0
 61 84  1  0  0  0  0
 62 65  1  0  0  0  0
 62 75  1  0  0  0  0
 63 77  1  0  0  0  0
 66 68  1  0  0  0  0
 67 69  1  0  0  0  0
M  CHG  1  77   1
M  ISO  4  35 100  61 101  76 100  84 101
M  END
> <Batch ID>
0090

> <Smiles>
CNC(C)C(=O)NC(C(=O)N1Cc2cc([101O:1][101CH2:1]CCn3ncc(CC[100NH:0][100C:0](=O)N4CCCC(n5nc(-c6ccc(Oc7ccc(F)cc7F)cc6)c(C(N)=O)c5N)C4)c3CC(C)(C)C)ccc2CC1C(=O)NC1CCCc2ccccc21)C(C)(C)C

> <Shape>
0.189

> <Color>
0.082

> <Negative vol penalty>
0.000

$$$$

  -OEChem-04052319093D

 88 96  0     1  0  0  0  0  0999 V2000
  -16.9594  -26.0108   22.3345 C   0  0  0  0  0  0  0  0  0  0  0  0
  -18.2614  -25.5207   22.3440 C   0  0  0  0  0  0  0  0  0  0  0  0
  -21.6780  -10.4845   20.7065 C   0  0  0  0  0  0  0  0  0  0  0  0
  -23.7111   -9.8897   21.8683 C   0  0  0  0  0  0  0  0  0  0  0  0
  -16.7187  -27.3399   21.9891 C   0  0  0  0  0  0  0  0  0  0  0  0
  -19.3233  -26.3592   22.0070 C   0  0  0  0  0  0  0  0  0  0  0  0
  -23.2419  -25.9033   25.1823 C   0  0  0  0  0  0  0  0  0  0  0  0
  -21.2888   -9.1451   20.7017 C   0  0  0  0  0  0  0  0  0  0  0  0
  -23.3219   -8.5502   21.8636 C   0  0  0  0  0  0  0  0  0  0  0  0
  -24.0723  -24.7961   25.0140 C   0  0  0  0  0  0  0  0  0  0  0  0
  -22.6954   -5.0218   22.4770 C   0  0  0  0  0  0  0  0  0  0  0  0
  -22.8461   -4.2978   23.6596 C   0  0  0  0  0  0  0  0  0  0  0  0
  -25.6629  -26.1755   23.8367 C   0  0  0  0  0  0  0  0  0  0  0  0
  -21.3664   -5.8369   24.7905 C   0  0  0  0  0  0  0  0  0  0  0  0
  -29.3379  -16.9920   21.9787 C   0  0  0  0  0  0  0  0  0  0  0  0
  -22.8892  -10.8568   21.2897 C   0  0  0  0  0  0  0  0  0  0  0  0
  -23.0106  -13.2042   22.2809 C   0  0  0  0  0  0  0  0  0  0  0  0
  -17.7791  -28.1978   21.6571 C   0  0  0  0  0  0  0  0  0  0  0  0
  -23.6114  -27.1547   24.6686 C   0  0  0  0  0  0  0  0  0  0  0  0
  -19.0964  -27.7007   21.6556 C   0  0  0  0  0  0  0  0  0  0  0  0
  -24.8367  -27.2976   24.0020 C   0  0  0  0  0  0  0  0  0  0  0  0
  -29.0478  -18.3262   21.8295 C   0  0  0  0  0  0  0  0  0  0  0  0
  -22.1107   -8.1779   21.2803 C   0  0  0  0  0  0  0  0  0  0  0  0
  -25.2816  -24.9314   24.3386 C   0  0  0  0  0  0  0  0  0  0  0  0
  -21.8803   -6.1535   22.4512 C   0  0  0  0  0  0  0  0  0  0  0  0
  -22.1816   -4.7053   24.8164 C   0  0  0  0  0  0  0  0  0  0  0  0
  -21.2158   -6.5610   23.6079 C   0  0  0  0  0  0  0  0  0  0  0  0
  -23.2921  -12.2402   21.2944 C   0  0  0  0  0  0  0  0  0  0  0  0
  -29.7328  -18.7066   20.6599 C   0  0  0  0  0  0  0  0  0  0  0  0
  -23.6100  -14.3513   21.8211 C   0  0  0  0  0  0  0  0  0  0  0  0
  -22.2733  -13.0745   23.5038 C   0  0  0  0  0  0  0  0  0  0  0  0
  -22.3872  -29.1453   22.5140 C   0  0  0  0  0  0  0  0  0  0  0  0
  -24.7748  -31.0924   23.5291 C   0  0  0  0  0  0  0  0  0  0  0  0
  -27.8430  -31.3937   24.9928 C   0  0  0  0  0  0  0  0  0  0  0  0
  -28.2128  -15.3456   18.1229 C   0  0  0  0  0  0  0  0  0  0  0  0
  -17.4652  -29.6141   21.2446 C   0  0  0  0  0  0  0  0  0  0  0  0
  -22.7169  -28.3450   24.8818 C   0  0  0  0  0  0  0  0  0  0  0  0
  -25.2888  -28.6236   23.4493 C   0  0  0  0  0  0  0  0  0  0  0  0
  -18.6805  -30.5377   21.2637 C   0  0  0  0  0  0  0  0  0  0  0  0
  -24.8797  -16.5443   17.7628 C   0  0  0  0  0  0  0  0  0  0  0  0
  -19.8705  -29.8682   20.5837 C   0  0  0  0  0  0  0  0  0  0  0  0
  -24.0694  -15.6642   18.7161 C   0  0  0  0  0  0  0  0  0  0  0  0
  -26.0015  -15.7596   17.0862 C   0  0  0  0  0  0  0  0  0  0  0  0
  -26.0922  -14.1655   18.9634 C   0  0  0  0  0  0  0  0  0  0  0  0
  -20.2771  -28.5860   21.3201 C   0  0  1  0  0  0  0  0  0  0  0  0
  -22.9552  -29.4606   23.8689 C   0  0  1  0  0  0  0  0  0  0  0  0
  -24.9842  -14.9261   19.7119 C   0  0  2  0  0  0  0  0  0  0  0  0
  -29.1697  -20.0511   18.6035 C   0  0  0  0  0  0  0  0  0  0  0  0
  -31.1943  -20.6456   19.9828 C   0  0  0  0  0  0  0  0  0  0  0  0
  -29.5512  -33.1098   25.6519 C   0  0  0  0  0  0  0  0  0  0  0  0
  -25.6254  -31.3629   20.6113 C   0  0  0  0  0  0  0  0  0  0  0  0
  -27.8209  -32.2651   21.4076 C   0  0  0  0  0  0  0  0  0  0  0  0
  -25.7100  -33.4898   21.9240 C   0  0  0  0  0  0  0  0  0  0  0  0
  -24.4595  -20.2809   22.2100 C   0  0  0  0  0  0  0  0  0  0  0  0
  -25.5511  -19.5117   24.3221 C   0  0  0  0  0  0  0  0  0  0  0  0
  -27.6406  -30.6652   27.8541 C   0  0  0  0  0  0  0  0  0  0  0  0
  -28.1860  -19.1816   22.7266 C   0  0  0  0  0  0  0  0  0  0  0  0
  -26.7998  -19.4159   22.1107 C   0  0  0  0  0  0  0  0  0  0  0  0
  -26.3377  -21.6641   23.2219 C   0  0  0  0  0  0  0  0  0  0  0  0
  -30.7156  -15.3685   20.6574 C   0  0  0  0  0  0  0  0  0  0  0  0
  -30.3527  -14.8380   19.2729 C   0  0  0  0  0  0  0  0  0  0  0  0
  -25.4653  -22.5740   24.0839 C   0  0  0  0  0  0  0  0  0  1  0  0
  -29.7722  -20.0374   20.0287 C   0  0  0  0  0  0  0  0  0  0  0  0
  -26.2112  -31.3225   23.1255 C   0  0  1  0  0  0  0  0  0  0  0  0
  -28.3452  -32.3001   26.1021 C   0  0  2  0  0  0  0  0  0  0  0  0
  -26.3328  -32.0845   21.7757 C   0  0  0  0  0  0  0  0  0  0  0  0
  -25.7952  -20.2298   22.9819 C   0  0  0  0  0  0  0  0  0  0  0  0
  -24.0140  -12.7320   20.2840 N   0  0  0  0  0  0  0  0  0  0  0  0
  -30.4074  -17.6958   20.1056 N   0  0  0  0  0  0  0  0  0  0  0  0
  -30.1478  -16.6671   20.9305 N   0  0  0  0  0  0  0  0  0  0  0  0
  -24.1911  -14.0176   20.6331 N   0  0  0  0  0  0  0  0  0  0  0  0
  -24.3765  -29.7563   23.6777 N   0  0  0  0  0  0  0  0  0  0  0  0
  -26.8331  -15.0849   18.0856 N   0  0  0  0  0  0  0  0  0  0  0  0
  -23.6914  -15.6026   22.3209 N   0  0  0  0  0  0  0  0  0  0  0  0
  -21.7242  -11.8252   23.8235 N   0  0  0  0  0  0  0  0  0  0  0  0
  -21.0262  -28.9061   22.5162 N   0  0  0  0  0  0  0  0  0  0  0  0
  -26.8486  -31.9963   24.2516 N   0  0  0  0  0  0  0  0  0  0  0  0
  -28.9265  -14.6694   19.1048 N   0  0  0  0  0  0  0  0  0  0  0  0
  -28.7383  -31.4935   27.2920 N   0  3  0  0  0  0  0  0  0  0  0  0
  -22.0925  -14.0418   24.2816 O   0  0  0  0  0  0  0  0  0  0  0  0
  -23.1286  -29.1224   21.5385 O   0  0  0  0  0  0  0  0  0  0  0  0
  -24.0355  -32.0626   23.7128 O   0  0  0  0  0  0  0  0  0  0  0  0
  -28.2908  -30.2654   24.8004 O   0  0  0  0  0  0  0  0  0  0  0  0
  -28.7667  -16.1275   17.3426 O   0  0  0  0  0  0  0  0  0  0  0  0
  -21.7311   -6.8709   21.2761 O   0  0  0  0  0  0  0  0  0  0  0  0
  -26.0937  -23.8522   24.1724 O   0  0  0  0  0  0  0  0  0  1  0  0
  -22.3252   -4.0090   25.9516 F   0  0  0  0  0  0  0  0  0  0  0  0
  -20.4304   -7.6467   23.5889 F   0  0  0  0  0  0  0  0  0  0  0  0
  1  2  1  0  0  0  0
  1  5  2  0  0  0  0
  2  6  2  0  0  0  0
  3  8  2  0  0  0  0
  3 16  1  0  0  0  0
  4  9  1  0  0  0  0
  4 16  2  0  0  0  0
  5 18  1  0  0  0  0
  6 20  1  0  0  0  0
  7 10  2  0  0  0  0
  7 19  1  0  0  0  0
  8 23  1  0  0  0  0
  9 23  2  0  0  0  0
 10 24  1  0  0  0  0
 11 12  2  0  0  0  0
 11 25  1  0  0  0  0
 12 26  1  0  0  0  0
 13 21  1  0  0  0  0
 13 24  2  0  0  0  0
 14 26  2  0  0  0  0
 14 27  1  0  0  0  0
 15 22  2  0  0  0  0
 15 70  1  0  0  0  0
 16 28  1  0  0  0  0
 17 28  1  0  0  0  0
 17 30  2  0  0  0  0
 17 31  1  0  0  0  0
 18 20  2  0  0  0  0
 18 36  1  0  0  0  0
 19 21  2  0  0  0  0
 19 37  1  0  0  0  0
 20 45  1  0  0  0  0
 21 38  1  0  0  0  0
 22 29  1  0  0  0  0
 22 57  1  0  0  0  0
 23 85  1  0  0  0  0
 24 86  1  0  0  0  0
 25 27  2  0  0  0  0
 25 85  1  0  0  0  0
 26 87  1  0  0  0  0
 27 88  1  0  0  0  0
 28 68  2  0  0  0  0
 29 63  1  0  0  0  0
 29 69  2  0  0  0  0
 30 71  1  0  0  0  0
 30 74  1  0  0  0  0
 31 75  1  0  0  0  0
 31 80  2  0  0  0  0
 32 46  1  0  0  0  0
 32 76  1  0  0  0  0
 32 81  2  0  0  0  0
 33 64  1  0  0  0  0
 33 72  1  0  0  0  0
 33 82  2  0  0  0  0
 34 65  1  0  0  0  0
 34 77  1  0  0  0  0
 34 83  2  0  0  0  0
 35 73  1  0  0  0  0
 35 78  1  0  0  0  0
 35 84  2  0  0  0  0
 36 39  1  0  0  0  0
 37 46  1  0  0  0  0
 38 72  1  0  0  0  0
 39 41  1  0  0  0  0
 40 42  1  0  0  0  0
 40 43  1  0  0  0  0
 41 45  1  0  0  0  0
 42 47  1  0  0  0  0
 43 73  1  0  0  0  0
 44 47  1  0  0  0  0
 44 73  1  0  0  0  0
 45 76  1  0  0  0  0
 46 72  1  0  0  0  0
 47 71  1  0  0  0  0
 48 63  1  0  0  0  0
 49 63  1  0  0  0  0
 50 65  1  0  0  0  0
 51 66  1  0  0  0  0
 52 66  1  0  0  0  0
 53 66  1  0  0  0  0
 54 67  1  0  0  0  0
 55 67  1  0  0  0  0
 56 79  1  0  0  0  0
 57 58  1  0  0  0  0
 58 67  1  0  0  0  0
 59 62  1  0  0  0  0
 59 67  1  0  0  0  0
 60 61  1  0  0  0  0
 60 70  1  0  0  0  0
 61 78  1  0  0  0  0
 62 86  1  0  0  0  0
 64 66  1  0  0  0  0
 64 77  1  0  0  0  0
 65 79  1  0  0  0  0
 68 71  1  0  0  0  0
 69 70  1  0  0  0  0
M  CHG  1  79   1
M  ISO  4  35 100  62 101  78 100  86 101
M  END
> <Batch ID>
0090

> <Smiles>
CNC(C)C(=O)NC(C(=O)N1Cc2cc([101O:1][101CH2:1]CC(C)(C)CCc3cn(CC[100NH:0][100C:0](=O)N4CCCC(n5nc(-c6ccc(Oc7ccc(F)cc7F)cc6)c(C(N)=O)c5N)C4)nc3C(C)C)ccc2CC1C(=O)NC1CCCc2ccccc21)C(C)(C)C

> <Shape>
0.290

> <Color>
0.094

> <Negative vol penalty>
0.000

$$$$

  -OEChem-04052319093D

 88 96  0     1  0  0  0  0  0999 V2000
  -20.0515  -22.4622   18.1670 C   0  0  0  0  0  0  0  0  0  0  0  0
  -21.4296  -22.2754   18.1311 C   0  0  0  0  0  0  0  0  0  0  0  0
  -22.8775  -29.6077   21.7349 C   0  0  0  0  0  0  0  0  0  0  0  0
  -23.6526  -27.8792   23.2345 C   0  0  0  0  0  0  0  0  0  0  0  0
  -19.2742  -21.7373   19.0693 C   0  0  0  0  0  0  0  0  0  0  0  0
  -22.0314  -21.3644   18.9985 C   0  0  0  0  0  0  0  0  0  0  0  0
  -26.9075  -17.8456   17.8379 C   0  0  0  0  0  0  0  0  0  0  0  0
  -21.7626  -29.8129   22.5477 C   0  0  0  0  0  0  0  0  0  0  0  0
  -22.5378  -28.0845   24.0473 C   0  0  0  0  0  0  0  0  0  0  0  0
  -28.2594  -17.9837   18.1495 C   0  0  0  0  0  0  0  0  0  0  0  0
  -18.7765  -28.3289   23.1003 C   0  0  0  0  0  0  0  0  0  0  0  0
  -17.5347  -28.4513   22.4770 C   0  0  0  0  0  0  0  0  0  0  0  0
  -27.9467  -16.5933   20.0958 C   0  0  0  0  0  0  0  0  0  0  0  0
  -17.2835  -30.6647   23.4125 C   0  0  0  0  0  0  0  0  0  0  0  0
  -30.5002  -23.0049   21.9380 C   0  0  0  0  0  0  0  0  0  0  0  0
  -23.8225  -28.6408   22.0783 C   0  0  0  0  0  0  0  0  0  0  0  0
  -26.2239  -29.0689   21.3318 C   0  0  0  0  0  0  0  0  0  0  0  0
  -19.8656  -20.8099   19.9415 C   0  0  0  0  0  0  0  0  0  0  0  0
  -26.0614  -17.0879   18.6604 C   0  0  0  0  0  0  0  0  0  0  0  0
  -21.2615  -20.6274   19.9143 C   0  0  0  0  0  0  0  0  0  0  0  0
  -26.5850  -16.4450   19.7911 C   0  0  0  0  0  0  0  0  0  0  0  0
  -21.5928  -29.0513   23.7039 C   0  0  0  0  0  0  0  0  0  0  0  0
  -28.7786  -17.3599   19.2801 C   0  0  0  0  0  0  0  0  0  0  0  0
  -19.2718  -29.3743   23.8798 C   0  0  0  0  0  0  0  0  0  0  0  0
  -16.7882  -29.6192   22.6331 C   0  0  0  0  0  0  0  0  0  0  0  0
  -18.5253  -30.5422   24.0359 C   0  0  0  0  0  0  0  0  0  0  0  0
  -24.9740  -28.4280   21.2388 C   0  0  0  0  0  0  0  0  0  0  0  0
  -30.2095  -24.1266   21.2141 C   0  0  0  0  0  0  0  0  0  0  0  0
  -26.9677  -28.5200   20.3159 C   0  0  0  0  0  0  0  0  0  0  0  0
  -29.6055  -22.3652   20.0169 C   0  0  0  0  0  0  0  0  0  0  0  0
  -26.6726  -30.0709   22.2540 C   0  0  0  0  0  0  0  0  0  0  0  0
  -23.4807  -17.7145   20.4072 C   0  0  0  0  0  0  0  0  0  0  0  0
  -23.4591  -14.4975   20.8228 C   0  0  0  0  0  0  0  0  0  0  0  0
  -25.2087  -11.5675   20.8463 C   0  0  0  0  0  0  0  0  0  0  0  0
  -26.6775  -23.2888   17.4174 C   0  0  0  0  0  0  0  0  0  0  0  0
  -18.9899  -20.0841   20.9320 C   0  0  0  0  0  0  0  0  0  0  0  0
  -24.6110  -16.9267   18.2958 C   0  0  0  0  0  0  0  0  0  0  0  0
  -25.7230  -15.6038   20.6954 C   0  0  0  0  0  0  0  0  0  0  0  0
  -19.6608  -18.8647   21.5592 C   0  0  0  0  0  0  0  0  0  0  0  0
  -26.5061  -26.5432   15.9835 C   0  0  0  0  0  0  0  0  0  0  0  0
  -21.0767  -19.2079   22.0111 C   0  0  0  0  0  0  0  0  0  0  0  0
  -26.2068  -27.4531   17.1761 C   0  0  0  0  0  0  0  0  0  0  0  0
  -25.7951  -25.1975   16.1079 C   0  0  0  0  0  0  0  0  0  0  0  0
  -25.7457  -25.3894   18.5644 C   0  0  0  0  0  0  0  0  0  0  0  0
  -21.9482  -19.6303   20.8222 C   0  0  1  0  0  0  0  0  0  0  0  0
  -23.7334  -16.5541   19.4868 C   0  0  1  0  0  0  0  0  0  0  0  0
  -26.4854  -26.7372   18.5114 C   0  0  2  0  0  0  0  0  0  0  0  0
  -24.9268   -9.1081   21.2576 C   0  0  0  0  0  0  0  0  0  0  0  0
  -31.6285  -25.7985   22.4537 C   0  0  0  0  0  0  0  0  0  0  0  0
  -29.1477  -26.1674   22.2408 C   0  0  0  0  0  0  0  0  0  0  0  0
  -30.6418  -26.4969   20.2811 C   0  0  0  0  0  0  0  0  0  0  0  0
  -23.3778  -15.0122   23.8292 C   0  0  0  0  0  0  0  0  0  0  0  0
  -24.0499  -12.6269   24.1852 C   0  0  0  0  0  0  0  0  0  0  0  0
  -21.8939  -13.1569   23.0479 C   0  0  0  0  0  0  0  0  0  0  0  0
  -32.8754  -17.8199   20.4116 C   0  0  0  0  0  0  0  0  0  0  0  0
  -32.0574  -18.1852   22.7431 C   0  0  0  0  0  0  0  0  0  0  0  0
  -26.0302  -10.8934   18.0841 C   0  0  0  0  0  0  0  0  0  0  0  0
  -29.0732  -21.5345   18.9081 C   0  0  0  0  0  0  0  0  0  0  0  0
  -31.4420  -19.8139   20.8835 C   0  0  0  0  0  0  0  0  0  0  0  0
  -30.2500  -20.4825   21.5811 C   0  0  0  0  0  0  0  0  0  0  0  0
  -27.5390  -21.4658   18.8643 C   0  0  0  0  0  0  0  0  0  0  0  0
  -30.4518  -17.4413   20.9683 C   0  0  0  0  0  0  0  0  0  1  0  0
  -24.0704  -13.5444   21.8212 C   0  0  1  0  0  0  0  0  0  0  0  0
  -24.9198  -10.2167   20.2167 C   0  0  2  0  0  0  0  0  0  0  0  0
  -30.3949  -25.5483   21.5156 C   0  0  0  0  0  0  0  0  0  0  0  0
  -23.3641  -13.6024   23.2051 C   0  0  0  0  0  0  0  0  0  0  0  0
  -31.6851  -18.3241   21.2562 C   0  0  0  0  0  0  0  0  0  0  0  0
  -24.9228  -27.5399   20.2425 N   0  0  0  0  0  0  0  0  0  0  0  0
  -30.1156  -21.9298   21.1736 N   0  0  0  0  0  0  0  0  0  0  0  0
  -26.1498  -27.6189   19.7000 N   0  0  0  0  0  0  0  0  0  0  0  0
  -29.6573  -23.7010   20.0300 N   0  3  0  0  0  0  0  0  0  0  0  0
  -24.3101  -15.4817   20.3002 N   0  0  0  0  0  0  0  0  0  0  0  0
  -26.1022  -24.5701   17.3955 N   0  0  0  0  0  0  0  0  0  0  0  0
  -28.2350  -28.7250   19.8983 N   0  0  0  0  0  0  0  0  0  0  0  0
  -25.7801  -30.5232   23.2354 N   0  0  0  0  0  0  0  0  0  0  0  0
  -22.3736  -18.4695   20.0698 N   0  0  0  0  0  0  0  0  0  0  0  0
  -24.0490  -12.2273   21.1942 N   0  0  0  0  0  0  0  0  0  0  0  0
  -26.9425  -22.7699   18.6788 N   0  0  0  0  0  0  0  0  0  0  0  0
  -25.9446   -9.8972   19.1829 N   0  3  0  0  0  0  0  0  0  0  0  0
  -27.8252  -30.5627   22.1987 O   0  0  0  0  0  0  0  0  0  0  0  0
  -24.2335  -17.9097   21.3542 O   0  0  0  0  0  0  0  0  0  0  0  0
  -22.2722  -14.3690   20.5124 O   0  0  0  0  0  0  0  0  0  0  0  0
  -26.3491  -11.9930   21.0161 O   0  0  0  0  0  0  0  0  0  0  0  0
  -26.9407  -22.6565   16.3888 O   0  0  0  0  0  0  0  0  0  0  0  0
  -20.5052  -29.2514   24.4974 O   0  0  0  0  0  0  0  0  0  0  0  0
  -30.0977  -17.4936   19.5869 O   0  0  0  0  0  0  0  0  0  1  0  0
  -15.5964  -29.7373   22.0332 F   0  0  0  0  0  0  0  0  0  0  0  0
  -18.9964  -31.5503   24.7825 F   0  0  0  0  0  0  0  0  0  0  0  0
  1  2  1  0  0  0  0
  1  5  2  0  0  0  0
  2  6  2  0  0  0  0
  3  8  2  0  0  0  0
  3 16  1  0  0  0  0
  4  9  1  0  0  0  0
  4 16  2  0  0  0  0
  5 18  1  0  0  0  0
  6 20  1  0  0  0  0
  7 10  2  0  0  0  0
  7 19  1  0  0  0  0
  8 22  1  0  0  0  0
  9 22  2  0  0  0  0
 10 23  1  0  0  0  0
 11 12  2  0  0  0  0
 11 24  1  0  0  0  0
 12 25  1  0  0  0  0
 13 21  1  0  0  0  0
 13 23  2  0  0  0  0
 14 25  2  0  0  0  0
 14 26  1  0  0  0  0
 15 28  2  0  0  0  0
 15 69  1  0  0  0  0
 16 27  1  0  0  0  0
 17 27  1  0  0  0  0
 17 29  2  0  0  0  0
 17 31  1  0  0  0  0
 18 20  2  0  0  0  0
 18 36  1  0  0  0  0
 19 21  2  0  0  0  0
 19 37  1  0  0  0  0
 20 45  1  0  0  0  0
 21 38  1  0  0  0  0
 22 85  1  0  0  0  0
 23 86  1  0  0  0  0
 24 26  2  0  0  0  0
 24 85  1  0  0  0  0
 25 87  1  0  0  0  0
 26 88  1  0  0  0  0
 27 68  2  0  0  0  0
 28 65  1  0  0  0  0
 28 71  1  0  0  0  0
 29 70  1  0  0  0  0
 29 74  1  0  0  0  0
 30 58  1  0  0  0  0
 30 69  1  0  0  0  0
 30 71  2  0  0  0  0
 31 75  1  0  0  0  0
 31 80  2  0  0  0  0
 32 46  1  0  0  0  0
 32 76  1  0  0  0  0
 32 81  2  0  0  0  0
 33 63  1  0  0  0  0
 33 72  1  0  0  0  0
 33 82  2  0  0  0  0
 34 64  1  0  0  0  0
 34 77  1  0  0  0  0
 34 83  2  0  0  0  0
 35 73  1  0  0  0  0
 35 78  1  0  0  0  0
 35 84  2  0  0  0  0
 36 39  1  0  0  0  0
 37 46  1  0  0  0  0
 38 72  1  0  0  0  0
 39 41  1  0  0  0  0
 40 42  1  0  0  0  0
 40 43  1  0  0  0  0
 41 45  1  0  0  0  0
 42 47  1  0  0  0  0
 43 73  1  0  0  0  0
 44 47  1  0  0  0  0
 44 73  1  0  0  0  0
 45 76  1  0  0  0  0
 46 72  1  0  0  0  0
 47 70  1  0  0  0  0
 48 64  1  0  0  0  0
 49 65  1  0  0  0  0
 50 65  1  0  0  0  0
 51 65  1  0  0  0  0
 52 66  1  0  0  0  0
 53 66  1  0  0  0  0
 54 66  1  0  0  0  0
 55 67  1  0  0  0  0
 56 67  1  0  0  0  0
 57 79  1  0  0  0  0
 58 61  1  0  0  0  0
 59 60  1  0  0  0  0
 59 67  1  0  0  0  0
 60 69  1  0  0  0  0
 61 78  1  0  0  0  0
 62 67  1  0  0  0  0
 62 86  1  0  0  0  0
 63 66  1  0  0  0  0
 63 77  1  0  0  0  0
 64 79  1  0  0  0  0
 68 70  1  0  0  0  0
M  CHG  2  71   1  79   1
M  ISO  4  35 100  62 101  78 100  86 101
M  END
> <Batch ID>
0090

> <Smiles>
CNC(C)C(=O)NC(C(=O)N1Cc2cc([101O:1][101CH2:1]C(C)(C)CCn3cc(C(C)(C)C)nc3CC[100NH:0][100C:0](=O)N3CCCC(n4nc(-c5ccc(Oc6ccc(F)cc6F)cc5)c(C(N)=O)c4N)C3)ccc2CC1C(=O)NC1CCCc2ccccc21)C(C)(C)C

> <Shape>
0.241

> <Color>
0.076

> <Negative vol penalty>
0.000

$$$$

  -OEChem-04052319093D

 78 85  0     1  0  0  0  0  0999 V2000
  -17.0655  -25.8242   25.2687 C   0  0  0  0  0  0  0  0  0  0  0  0
  -17.8833  -24.8102   24.7804 C   0  0  0  0  0  0  0  0  0  0  0  0
  -26.1074  -12.8481   21.7103 C   0  0  0  0  0  0  0  0  0  0  0  0
  -25.1359  -14.0511   19.8540 C   0  0  0  0  0  0  0  0  0  0  0  0
  -17.1300  -27.1000   24.7102 C   0  0  0  0  0  0  0  0  0  0  0  0
  -18.7654  -25.0713   23.7324 C   0  0  0  0  0  0  0  0  0  0  0  0
  -25.2089  -23.1625   21.2518 C   0  0  0  0  0  0  0  0  0  0  0  0
  -25.0216  -11.9725   21.7112 C   0  0  0  0  0  0  0  0  0  0  0  0
  -24.0501  -13.1755   19.8548 C   0  0  0  0  0  0  0  0  0  0  0  0
  -25.8224  -22.7066   20.0858 C   0  0  0  0  0  0  0  0  0  0  0  0
  -23.9831   -9.2904   19.9334 C   0  0  0  0  0  0  0  0  0  0  0  0
  -24.2507   -7.9259   20.0437 C   0  0  0  0  0  0  0  0  0  0  0  0
  -25.9043  -24.9687   19.2517 C   0  0  0  0  0  0  0  0  0  0  0  0
  -22.9498   -7.8352   22.0775 C   0  0  0  0  0  0  0  0  0  0  0  0
  -26.1645  -13.8874   20.7818 C   0  0  0  0  0  0  0  0  0  0  0  0
  -28.4883  -14.6553   20.0621 C   0  0  0  0  0  0  0  0  0  0  0  0
  -18.0201  -27.3793   23.6613 C   0  0  0  0  0  0  0  0  0  0  0  0
  -24.9282  -24.5258   21.4221 C   0  0  0  0  0  0  0  0  0  0  0  0
  -18.8408  -26.3517   23.1584 C   0  0  0  0  0  0  0  0  0  0  0  0
  -25.2895  -25.4396   20.4219 C   0  0  0  0  0  0  0  0  0  0  0  0
  -23.9930  -12.1362   20.7835 C   0  0  0  0  0  0  0  0  0  0  0  0
  -26.1675  -23.6094   19.0842 C   0  0  0  0  0  0  0  0  0  0  0  0
  -23.1989   -9.9273   20.8952 C   0  0  0  0  0  0  0  0  0  0  0  0
  -23.7341   -7.1983   21.1157 C   0  0  0  0  0  0  0  0  0  0  0  0
  -22.6822   -9.1997   21.9672 C   0  0  0  0  0  0  0  0  0  0  0  0
  -27.2856  -14.7926   20.7807 C   0  0  0  0  0  0  0  0  0  0  0  0
  -29.2190  -15.7682   20.3998 C   0  0  0  0  0  0  0  0  0  0  0  0
  -28.9075  -13.6150   19.1690 C   0  0  0  0  0  0  0  0  0  0  0  0
  -22.2790  -26.2391   21.8096 C   0  0  0  0  0  0  0  0  0  0  0  0
  -24.3815  -28.6676   22.2614 C   0  0  0  0  0  0  0  0  0  0  0  0
  -27.5039  -29.9348   21.7211 C   0  0  0  0  0  0  0  0  0  0  0  0
  -29.5827  -21.2654   21.2908 C   0  0  0  0  0  0  0  0  0  0  0  0
  -18.0204  -28.7617   23.0580 C   0  0  0  0  0  0  0  0  0  0  0  0
  -24.2902  -25.0049   22.6972 C   0  0  0  0  0  0  0  0  0  0  0  0
  -25.0282  -26.9160   20.5646 C   0  0  0  0  0  0  0  0  0  0  0  0
  -19.2495  -29.0518   22.2005 C   0  0  0  0  0  0  0  0  0  0  0  0
  -28.4531  -19.2432   23.9948 C   0  0  0  0  0  0  0  0  0  0  0  0
  -19.5290  -27.8865   21.2566 C   0  0  0  0  0  0  0  0  0  0  0  0
  -28.1422  -17.8965   23.3394 C   0  0  0  0  0  0  0  0  0  0  0  0
  -28.0962  -20.4122   23.0794 C   0  0  0  0  0  0  0  0  0  0  0  0
  -28.3849  -19.0035   21.0779 C   0  0  0  0  0  0  0  0  0  0  0  0
  -19.8282  -26.6022   22.0393 C   0  0  1  0  0  0  0  0  0  0  0  0
  -23.5851  -26.3491   22.5442 C   0  0  1  0  0  0  0  0  0  0  0  0
  -28.7800  -17.7929   21.9410 C   0  0  2  0  0  0  0  0  0  0  0  0
  -28.9155  -31.9579   22.1811 C   0  0  0  0  0  0  0  0  0  0  0  0
  -22.8769  -30.2062   20.0983 C   0  0  0  0  0  0  0  0  0  0  0  0
  -24.8379  -31.7539   19.9331 C   0  0  0  0  0  0  0  0  0  0  0  0
  -23.5636  -31.5819   22.0707 C   0  0  0  0  0  0  0  0  0  0  0  0
  -29.6532  -24.3136   15.7929 C   0  0  0  0  0  0  0  0  0  0  0  0
  -28.0433  -22.4445   15.4046 C   0  0  0  0  0  0  0  0  0  0  0  0
  -29.4833  -28.3500   23.2474 C   0  0  0  0  0  0  0  0  0  0  0  0
  -30.3167  -22.9961   18.5507 C   0  0  0  0  0  0  0  0  0  0  0  0
  -29.5546  -22.3326   17.3940 C   0  0  0  0  0  0  0  0  0  0  0  0
  -31.0508  -21.9781   19.4211 C   0  0  0  0  0  0  0  0  0  0  0  0
  -27.6571  -24.0671   17.2877 C   0  0  0  0  0  0  0  0  0  1  0  0
  -25.0629  -29.6726   21.3644 C   0  0  1  0  0  0  0  0  0  0  0  0
  -28.5083  -30.5741   22.6628 C   0  0  2  0  0  0  0  0  0  0  0  0
  -24.0886  -30.7756   20.8628 C   0  0  0  0  0  0  0  0  0  0  0  0
  -28.7328  -23.2971   16.4919 C   0  0  0  0  0  0  0  0  0  0  0  0
  -27.2504  -15.9048   21.5194 N   0  0  0  0  0  0  0  0  0  0  0  0
  -28.4400  -16.4766   21.2668 N   0  0  0  0  0  0  0  0  0  0  0  0
  -24.3966  -27.3346   21.8269 N   0  0  0  0  0  0  0  0  0  0  0  0
  -28.7338  -20.2541   21.7700 N   0  0  0  0  0  0  0  0  0  0  0  0
  -30.4455  -16.2001   20.0369 N   0  0  0  0  0  0  0  0  0  0  0  0
  -28.0341  -12.5445   18.9334 N   0  0  0  0  0  0  0  0  0  0  0  0
  -21.1808  -26.6271   22.5533 N   0  0  0  0  0  0  0  0  0  0  0  0
  -26.2057  -30.1811   22.1152 N   0  0  0  0  0  0  0  0  0  0  0  0
  -30.1510  -21.0332   20.0443 N   0  0  0  0  0  0  0  0  0  0  0  0
  -29.7337  -29.7318   22.7627 N   0  3  0  0  0  0  0  0  0  0  0  0
  -30.0303  -13.6258   18.6097 O   0  0  0  0  0  0  0  0  0  0  0  0
  -22.2684  -25.8337   20.6532 O   0  0  0  0  0  0  0  0  0  0  0  0
  -23.8614  -29.0501   23.3125 O   0  0  0  0  0  0  0  0  0  0  0  0
  -27.8375  -29.2851   20.7326 O   0  0  0  0  0  0  0  0  0  0  0  0
  -29.8208  -22.2964   21.9291 O   0  0  0  0  0  0  0  0  0  0  0  0
  -22.9334  -11.2819   20.7838 O   0  0  0  0  0  0  0  0  0  0  0  0
  -26.7658  -23.1670   17.9448 O   0  0  0  0  0  0  0  0  0  1  0  0
  -23.9899   -5.8877   21.2206 F   0  0  0  0  0  0  0  0  0  0  0  0
  -21.9271   -9.8058   22.8937 F   0  0  0  0  0  0  0  0  0  0  0  0
  1  2  1  0  0  0  0
  1  5  2  0  0  0  0
  2  6  2  0  0  0  0
  3  8  2  0  0  0  0
  3 15  1  0  0  0  0
  4  9  1  0  0  0  0
  4 15  2  0  0  0  0
  5 17  1  0  0  0  0
  6 19  1  0  0  0  0
  7 10  2  0  0  0  0
  7 18  1  0  0  0  0
  8 21  1  0  0  0  0
  9 21  2  0  0  0  0
 10 22  1  0  0  0  0
 11 12  2  0  0  0  0
 11 23  1  0  0  0  0
 12 24  1  0  0  0  0
 13 20  1  0  0  0  0
 13 22  2  0  0  0  0
 14 24  2  0  0  0  0
 14 25  1  0  0  0  0
 15 26  1  0  0  0  0
 16 26  1  0  0  0  0
 16 27  2  0  0  0  0
 16 28  1  0  0  0  0
 17 19  2  0  0  0  0
 17 33  1  0  0  0  0
 18 20  2  0  0  0  0
 18 34  1  0  0  0  0
 19 42  1  0  0  0  0
 20 35  1  0  0  0  0
 21 75  1  0  0  0  0
 22 76  1  0  0  0  0
 23 25  2  0  0  0  0
 23 75  1  0  0  0  0
 24 77  1  0  0  0  0
 25 78  1  0  0  0  0
 26 60  2  0  0  0  0
 27 61  1  0  0  0  0
 27 64  1  0  0  0  0
 28 65  1  0  0  0  0
 28 70  2  0  0  0  0
 29 43  1  0  0  0  0
 29 66  1  0  0  0  0
 29 71  2  0  0  0  0
 30 56  1  0  0  0  0
 30 62  1  0  0  0  0
 30 72  2  0  0  0  0
 31 57  1  0  0  0  0
 31 67  1  0  0  0  0
 31 73  2  0  0  0  0
 32 63  1  0  0  0  0
 32 68  1  0  0  0  0
 32 74  2  0  0  0  0
 33 36  1  0  0  0  0
 34 43  1  0  0  0  0
 35 62  1  0  0  0  0
 36 38  1  0  0  0  0
 37 39  1  0  0  0  0
 37 40  1  0  0  0  0
 38 42  1  0  0  0  0
 39 44  1  0  0  0  0
 40 63  1  0  0  0  0
 41 44  1  0  0  0  0
 41 63  1  0  0  0  0
 42 66  1  0  0  0  0
 43 62  1  0  0  0  0
 44 61  1  0  0  0  0
 45 57  1  0  0  0  0
 46 58  1  0  0  0  0
 47 58  1  0  0  0  0
 48 58  1  0  0  0  0
 49 59  1  0  0  0  0
 50 59  1  0  0  0  0
 51 69  1  0  0  0  0
 52 53  1  0  0  0  0
 52 54  1  0  0  0  0
 53 59  1  0  0  0  0
 54 68  1  0  0  0  0
 55 59  1  0  0  0  0
 55 76  1  0  0  0  0
 56 58  1  0  0  0  0
 56 67  1  0  0  0  0
 57 69  1  0  0  0  0
 60 61  1  0  0  0  0
M  CHG  1  69   1
M  ISO  4  32 100  55 101  68 100  76 101
M  END
> <Batch ID>
0090

> <Smiles>
CNC(C)C(=O)NC(C(=O)N1Cc2cc([101O:1][101CH2:1]C(C)(C)CCC[100NH:0][100C:0](=O)N3CCCC(n4nc(-c5ccc(Oc6ccc(F)cc6F)cc5)c(C(N)=O)c4N)C3)ccc2CC1C(=O)NC1CCCc2ccccc21)C(C)(C)C

> <Shape>
0.251

> <Color>
0.062

> <Negative vol penalty>
0.000

$$$$

  -OEChem-04052319093D

 84 92  0     1  0  0  0  0  0999 V2000
  -19.4061   -8.4743   20.9370 C   0  0  0  0  0  0  0  0  0  0  0  0
  -19.5468   -9.8235   21.2458 C   0  0  0  0  0  0  0  0  0  0  0  0
  -26.1479  -27.9775   18.9393 C   0  0  0  0  0  0  0  0  0  0  0  0
  -26.7976  -28.5490   21.1950 C   0  0  0  0  0  0  0  0  0  0  0  0
  -20.5362   -7.6673   20.8123 C   0  0  0  0  0  0  0  0  0  0  0  0
  -20.8178  -10.3662   21.4312 C   0  0  0  0  0  0  0  0  0  0  0  0
  -22.6623  -16.0132   19.9428 C   0  0  0  0  0  0  0  0  0  0  0  0
  -25.0365  -28.8133   19.0476 C   0  0  0  0  0  0  0  0  0  0  0  0
  -25.6862  -29.3848   21.3033 C   0  0  0  0  0  0  0  0  0  0  0  0
  -22.8085  -17.1801   20.6917 C   0  0  0  0  0  0  0  0  0  0  0  0
  -22.3680  -29.0575   21.8631 C   0  0  0  0  0  0  0  0  0  0  0  0
  -21.6129  -28.9833   23.0335 C   0  0  0  0  0  0  0  0  0  0  0  0
  -25.1517  -16.6893   20.9880 C   0  0  0  0  0  0  0  0  0  0  0  0
  -25.8636  -16.4601   27.0711 C   0  0  0  0  0  0  0  0  0  0  0  0
  -22.0669  -31.3149   23.4744 C   0  0  0  0  0  0  0  0  0  0  0  0
  -27.0285  -27.8453   20.0130 C   0  0  0  0  0  0  0  0  0  0  0  0
  -29.4612  -27.3300   19.4438 C   0  0  0  0  0  0  0  0  0  0  0  0
  -21.8222   -8.2026   20.9867 C   0  0  0  0  0  0  0  0  0  0  0  0
  -23.7593  -15.1686   19.7198 C   0  0  0  0  0  0  0  0  0  0  0  0
  -21.9661   -9.5654   21.3100 C   0  0  0  0  0  0  0  0  0  0  0  0
  -25.0174  -15.5136   20.2338 C   0  0  0  0  0  0  0  0  0  0  0  0
  -27.0885  -16.4062   26.3612 C   0  0  0  0  0  0  0  0  0  0  0  0
  -24.8056  -29.5170   20.2296 C   0  0  0  0  0  0  0  0  0  0  0  0
  -24.0526  -17.5168   21.2168 C   0  0  0  0  0  0  0  0  0  0  0  0
  -22.9726  -30.2605   21.4983 C   0  0  0  0  0  0  0  0  0  0  0  0
  -21.4623  -30.1119   23.8392 C   0  0  0  0  0  0  0  0  0  0  0  0
  -22.8221  -31.3892   22.3040 C   0  0  0  0  0  0  0  0  0  0  0  0
  -28.1764  -26.9816   19.9019 C   0  0  0  0  0  0  0  0  0  0  0  0
  -25.2487  -17.6475   26.7407 C   0  0  0  0  0  0  0  0  0  0  0  0
  -27.1848  -17.5624   25.6188 C   0  0  0  0  0  0  0  0  0  0  0  0
  -30.1844  -26.1656   19.5314 C   0  0  0  0  0  0  0  0  0  0  0  0
  -29.9566  -28.5932   18.9806 C   0  0  0  0  0  0  0  0  0  0  0  0
  -24.4584  -12.1572   20.4591 C   0  0  0  0  0  0  0  0  0  0  0  0
  -27.0666  -12.7196   18.6143 C   0  0  0  0  0  0  0  0  0  0  0  0
  -29.2359  -14.9909   17.2794 C   0  0  0  0  0  0  0  0  0  0  0  0
  -29.5869  -21.4146   22.9848 C   0  0  0  0  0  0  0  0  0  0  0  0
  -23.0117   -7.2807   20.8884 C   0  0  0  0  0  0  0  0  0  0  0  0
  -23.5909  -13.9272   18.8873 C   0  0  0  0  0  0  0  0  0  0  0  0
  -26.2309  -14.6511   20.0058 C   0  0  0  0  0  0  0  0  0  0  0  0
  -24.3405   -8.0155   20.7313 C   0  0  0  0  0  0  0  0  0  0  0  0
  -29.6612  -21.4110   19.3666 C   0  0  0  0  0  0  0  0  0  0  0  0
  -24.4373   -9.1633   21.7312 C   0  0  0  0  0  0  0  0  0  0  0  0
  -29.4085  -22.8873   19.0557 C   0  0  0  0  0  0  0  0  0  0  0  0
  -28.8444  -20.9519   20.5708 C   0  0  0  0  0  0  0  0  0  0  0  0
  -28.8062  -23.2358   21.4961 C   0  0  0  0  0  0  0  0  0  0  0  0
  -23.3292  -10.1965   21.4941 C   0  0  1  0  0  0  0  0  0  0  0  0
  -24.6643  -12.8771   19.1564 C   0  0  1  0  0  0  0  0  0  0  0  0
  -29.6204  -23.7667   20.3022 C   0  0  2  0  0  0  0  0  0  0  0  0
  -28.0746  -15.3085   26.4128 C   0  0  0  0  0  0  0  0  0  0  0  0
  -23.9566  -18.2024   27.1939 C   0  0  0  0  0  0  0  0  0  0  0  0
  -31.2887  -15.1468   15.8445 C   0  0  0  0  0  0  0  0  0  0  0  0
  -28.7741  -11.7709   20.9582 C   0  0  0  0  0  0  0  0  0  0  0  0
  -30.7565  -12.8250   19.8504 C   0  0  0  0  0  0  0  0  0  0  0  0
  -29.5388  -10.9659   18.7174 C   0  0  0  0  0  0  0  0  0  0  0  0
  -27.8290  -16.6102   15.2404 C   0  0  0  0  0  0  0  0  0  0  0  0
  -28.2511  -18.0199   24.7023 C   0  0  0  0  0  0  0  0  0  0  0  0
  -29.2230  -19.0624   25.3034 C   0  0  0  0  0  0  0  0  0  0  0  0
  -24.7681  -19.5934   24.0819 C   0  0  0  0  0  0  0  0  0  0  0  0
  -25.7631  -19.6538   25.2429 C   0  0  0  0  0  0  0  0  0  0  0  0
  -30.3426  -19.4901   24.3568 C   0  0  0  0  0  0  0  0  0  0  0  0
  -25.1996  -18.6500   22.9651 C   0  0  0  0  0  0  0  0  0  1  0  0
  -28.4589  -13.2472   18.8637 C   0  0  1  0  0  0  0  0  0  0  0  0
  -29.7683  -15.1669   15.8687 C   0  0  2  0  0  0  0  0  0  0  0  0
  -29.3590  -12.2177   19.6035 C   0  0  0  0  0  0  0  0  0  0  0  0
  -28.0855  -25.6965   20.2542 N   0  0  0  0  0  0  0  0  0  0  0  0
  -26.0610  -18.3095   25.8575 N   0  0  0  0  0  0  0  0  0  0  0  0
  -29.3223  -25.2270   20.0173 N   0  0  0  0  0  0  0  0  0  0  0  0
  -26.0139  -13.4444   19.1908 N   0  0  0  0  0  0  0  0  0  0  0  0
  -29.1060  -21.8190   21.7284 N   0  0  0  0  0  0  0  0  0  0  0  0
  -31.4672  -25.8632   19.2392 N   0  0  0  0  0  0  0  0  0  0  0  0
  -29.0797  -29.6862   18.9554 N   0  0  0  0  0  0  0  0  0  0  0  0
  -23.6555  -11.0368   20.3619 N   0  0  0  0  0  0  0  0  0  0  0  0
  -28.9747  -13.6676   17.5654 N   0  0  0  0  0  0  0  0  0  0  0  0
  -29.8392  -20.0554   23.1247 N   0  0  0  0  0  0  0  0  0  0  0  0
  -29.3062  -16.4640   15.2987 N   0  3  0  0  0  0  0  0  0  0  0  0
  -31.1373  -28.7441   18.5848 O   0  0  0  0  0  0  0  0  0  0  0  0
  -24.9899  -12.5857   21.4768 O   0  0  0  0  0  0  0  0  0  0  0  0
  -26.9180  -11.7060   17.9271 O   0  0  0  0  0  0  0  0  0  0  0  0
  -29.0719  -15.9328   18.0518 O   0  0  0  0  0  0  0  0  0  0  0  0
  -29.7822  -22.2074   23.9124 O   0  0  0  0  0  0  0  0  0  0  0  0
  -23.7213  -30.3328   20.3356 O   0  0  0  0  0  0  0  0  0  0  0  0
  -24.1979  -18.6549   21.9487 O   0  0  0  0  0  0  0  0  0  1  0  0
  -20.7359  -30.0408   24.9623 F   0  0  0  0  0  0  0  0  0  0  0  0
  -23.3995  -32.5479   21.9581 F   0  0  0  0  0  0  0  0  0  0  0  0
  1  2  1  0  0  0  0
  1  5  2  0  0  0  0
  2  6  2  0  0  0  0
  3  8  2  0  0  0  0
  3 16  1  0  0  0  0
  4  9  1  0  0  0  0
  4 16  2  0  0  0  0
  5 18  1  0  0  0  0
  6 20  1  0  0  0  0
  7 10  2  0  0  0  0
  7 19  1  0  0  0  0
  8 23  1  0  0  0  0
  9 23  2  0  0  0  0
 10 24  1  0  0  0  0
 11 12  2  0  0  0  0
 11 25  1  0  0  0  0
 12 26  1  0  0  0  0
 13 21  1  0  0  0  0
 13 24  2  0  0  0  0
 14 22  1  0  0  0  0
 14 29  2  0  0  0  0
 15 26  2  0  0  0  0
 15 27  1  0  0  0  0
 16 28  1  0  0  0  0
 17 28  1  0  0  0  0
 17 31  2  0  0  0  0
 17 32  1  0  0  0  0
 18 20  2  0  0  0  0
 18 37  1  0  0  0  0
 19 21  2  0  0  0  0
 19 38  1  0  0  0  0
 20 46  1  0  0  0  0
 21 39  1  0  0  0  0
 22 30  2  0  0  0  0
 22 49  1  0  0  0  0
 23 81  1  0  0  0  0
 24 82  1  0  0  0  0
 25 27  2  0  0  0  0
 25 81  1  0  0  0  0
 26 83  1  0  0  0  0
 27 84  1  0  0  0  0
 28 65  2  0  0  0  0
 29 50  1  0  0  0  0
 29 66  1  0  0  0  0
 30 56  1  0  0  0  0
 30 66  1  0  0  0  0
 31 67  1  0  0  0  0
 31 70  1  0  0  0  0
 32 71  1  0  0  0  0
 32 76  2  0  0  0  0
 33 47  1  0  0  0  0
 33 72  1  0  0  0  0
 33 77  2  0  0  0  0
 34 62  1  0  0  0  0
 34 68  1  0  0  0  0
 34 78  2  0  0  0  0
 35 63  1  0  0  0  0
 35 73  1  0  0  0  0
 35 79  2  0  0  0  0
 36 69  1  0  0  0  0
 36 74  1  0  0  0  0
 36 80  2  0  0  0  0
 37 40  1  0  0  0  0
 38 47  1  0  0  0  0
 39 68  1  0  0  0  0
 40 42  1  0  0  0  0
 41 43  1  0  0  0  0
 41 44  1  0  0  0  0
 42 46  1  0  0  0  0
 43 48  1  0  0  0  0
 44 69  1  0  0  0  0
 45 48  1  0  0  0  0
 45 69  1  0  0  0  0
 46 72  1  0  0  0  0
 47 68  1  0  0  0  0
 48 67  1  0  0  0  0
 51 63  1  0  0  0  0
 52 64  1  0  0  0  0
 53 64  1  0  0  0  0
 54 64  1  0  0  0  0
 55 75  1  0  0  0  0
 56 57  1  0  0  0  0
 57 60  1  0  0  0  0
 58 59  1  0  0  0  0
 58 61  1  0  0  0  0
 59 66  1  0  0  0  0
 60 74  1  0  0  0  0
 61 82  1  0  0  0  0
 62 64  1  0  0  0  0
 62 73  1  0  0  0  0
 63 75  1  0  0  0  0
 65 67  1  0  0  0  0
M  CHG  1  75   1
M  ISO  4  36 100  61 101  74 100  82 101
M  END
> <Batch ID>
0090

> <Smiles>
CNC(C)C(=O)NC(C(=O)N1Cc2cc([101O:1][101CH2:1]CCn3c(C)cc(C)c3CCC[100NH:0][100C:0](=O)N3CCCC(n4nc(-c5ccc(Oc6ccc(F)cc6F)cc5)c(C(N)=O)c4N)C3)ccc2CC1C(=O)NC1CCCc2ccccc21)C(C)(C)C

> <Shape>
0.257

> <Color>
0.047

> <Negative vol penalty>
0.000

$$$$

  -OEChem-04052319093D

 83 91  0     1  0  0  0  0  0999 V2000
  -29.5434  -12.2223   19.8985 C   0  0  0  0  0  0  0  0  0  0  0  0
  -29.5803  -13.5032   20.4401 C   0  0  0  0  0  0  0  0  0  0  0  0
  -28.2650  -26.1997   20.3153 C   0  0  0  0  0  0  0  0  0  0  0  0
  -26.3626  -24.8527   19.6803 C   0  0  0  0  0  0  0  0  0  0  0  0
  -28.5111  -11.8620   19.0334 C   0  0  0  0  0  0  0  0  0  0  0  0
  -28.5854  -14.4249   20.1160 C   0  0  0  0  0  0  0  0  0  0  0  0
  -24.9364  -19.9169   22.9159 C   0  0  0  0  0  0  0  0  0  0  0  0
  -29.1247  -25.2173   19.8240 C   0  0  0  0  0  0  0  0  0  0  0  0
  -27.2223  -23.8702   19.1889 C   0  0  0  0  0  0  0  0  0  0  0  0
  -24.6017  -21.2413   22.6374 C   0  0  0  0  0  0  0  0  0  0  0  0
  -28.9181  -20.8478   18.0940 C   0  0  0  0  0  0  0  0  0  0  0  0
  -28.6388  -19.5204   18.4188 C   0  0  0  0  0  0  0  0  0  0  0  0
  -19.3533  -28.4952   22.1548 C   0  0  0  0  0  0  0  0  0  0  0  0
  -19.7979  -27.5086   21.2404 C   0  0  0  0  0  0  0  0  0  0  0  0
  -22.8237  -20.4823   21.1945 C   0  0  0  0  0  0  0  0  0  0  0  0
  -28.8540  -20.0497   20.7663 C   0  0  0  0  0  0  0  0  0  0  0  0
  -26.8840  -26.0174   20.2435 C   0  0  0  0  0  0  0  0  0  0  0  0
  -25.4584  -28.1234   20.0432 C   0  0  0  0  0  0  0  0  0  0  0  0
  -27.4978  -12.7767   18.7061 C   0  0  0  0  0  0  0  0  0  0  0  0
  -24.2231  -18.8634   22.3262 C   0  0  0  0  0  0  0  0  0  0  0  0
  -27.5394  -14.0769   19.2446 C   0  0  0  0  0  0  0  0  0  0  0  0
  -23.1498  -19.1453   21.4691 C   0  0  0  0  0  0  0  0  0  0  0  0
  -28.6034  -24.0525   19.2608 C   0  0  0  0  0  0  0  0  0  0  0  0
  -23.5470  -21.5242   21.7744 C   0  0  0  0  0  0  0  0  0  0  0  0
  -29.1655  -21.7761   19.1052 C   0  0  0  0  0  0  0  0  0  0  0  0
  -28.6067  -19.1213   19.7550 C   0  0  0  0  0  0  0  0  0  0  0  0
  -29.1334  -21.3771   20.4414 C   0  0  0  0  0  0  0  0  0  0  0  0
  -25.9954  -27.0316   20.7513 C   0  0  0  0  0  0  0  0  0  0  0  0
  -19.0229  -27.8510   23.3266 C   0  0  0  0  0  0  0  0  0  0  0  0
  -19.7254  -26.2914   21.8813 C   0  0  0  0  0  0  0  0  0  0  0  0
  -24.6828  -28.7827   20.9653 C   0  0  0  0  0  0  0  0  0  0  0  0
  -25.6441  -28.5073   18.6743 C   0  0  0  0  0  0  0  0  0  0  0  0
  -24.9619  -16.4785   20.3589 C   0  0  0  0  0  0  0  0  0  0  0  0
  -21.9033  -15.5682   20.9411 C   0  0  0  0  0  0  0  0  0  0  0  0
  -18.7468  -16.4552   21.8878 C   0  0  0  0  0  0  0  0  0  0  0  0
  -21.9126  -27.0167   25.9711 C   0  0  0  0  0  0  0  0  0  0  0  0
  -26.4283  -12.3564   17.7292 C   0  0  0  0  0  0  0  0  0  0  0  0
  -24.5795  -17.4402   22.6578 C   0  0  0  0  0  0  0  0  0  0  0  0
  -22.3395  -18.0505   20.8263 C   0  0  0  0  0  0  0  0  0  0  0  0
  -25.2074  -13.2727   17.7313 C   0  0  0  0  0  0  0  0  0  0  0  0
  -24.3389  -29.6045   25.6661 C   0  0  0  0  0  0  0  0  0  0  0  0
  -25.6379  -14.7357   17.6966 C   0  0  0  0  0  0  0  0  0  0  0  0
  -24.9902  -29.3371   24.3080 C   0  0  0  0  0  0  0  0  0  0  0  0
  -23.9863  -28.3061   26.3883 C   0  0  0  0  0  0  0  0  0  0  0  0
  -23.8145  -27.0981   24.2470 C   0  0  0  0  0  0  0  0  0  0  0  0
  -26.4648  -15.0970   18.9364 C   0  0  1  0  0  0  0  0  0  0  0  0
  -24.1140  -16.4454   21.5989 C   0  0  1  0  0  0  0  0  0  0  0  0
  -24.1373  -28.3776   23.4564 C   0  0  2  0  0  0  0  0  0  0  0  0
  -18.5083  -28.4021   24.5972 C   0  0  0  0  0  0  0  0  0  0  0  0
  -16.4519  -15.5002   22.2321 C   0  0  0  0  0  0  0  0  0  0  0  0
  -17.5474  -25.4009   24.5225 C   0  0  0  0  0  0  0  0  0  0  0  0
  -21.4796  -15.5038   17.9202 C   0  0  0  0  0  0  0  0  0  0  0  0
  -19.0109  -15.4885   18.3369 C   0  0  0  0  0  0  0  0  0  0  0  0
  -20.4250  -13.6065   19.1622 C   0  0  0  0  0  0  0  0  0  0  0  0
  -18.7501  -17.1780   24.7578 C   0  0  0  0  0  0  0  0  0  0  0  0
  -20.0745  -24.9132   21.3791 C   0  0  0  0  0  0  0  0  0  0  0  0
  -21.5296  -24.5147   21.6349 C   0  0  0  0  0  0  0  0  0  0  0  0
  -19.8914  -25.6935   25.4030 C   0  0  0  0  0  0  0  0  0  0  0  0
  -21.8503  -23.0890   21.2014 C   0  0  0  0  0  0  0  0  0  1  0  0
  -20.5634  -15.8559   20.3082 C   0  0  1  0  0  0  0  0  0  0  0  0
  -17.7833  -15.8375   22.8851 C   0  0  2  0  0  0  0  0  0  0  0  0
  -19.0306  -25.4867   24.1467 C   0  0  2  0  0  0  0  0  0  0  0  0
  -20.3860  -15.1346   18.9423 C   0  0  0  0  0  0  0  0  0  0  0  0
  -25.5949  -26.9959   22.0250 N   0  0  0  0  0  0  0  0  0  0  0  0
  -19.2528  -26.5117   23.1487 N   0  0  0  0  0  0  0  0  0  0  0  0
  -24.7981  -28.0735   22.1246 N   0  0  0  0  0  0  0  0  0  0  0  0
  -22.7309  -16.6752   21.1768 N   0  0  0  0  0  0  0  0  0  0  0  0
  -23.1756  -27.4417   25.5271 N   0  0  0  0  0  0  0  0  0  0  0  0
  -23.9202  -29.8941   20.8894 N   0  0  0  0  0  0  0  0  0  0  0  0
  -26.4736  -27.7184   17.8658 N   0  0  0  0  0  0  0  0  0  0  0  0
  -25.6014  -15.2852   20.0825 N   0  0  0  0  0  0  0  0  0  0  0  0
  -19.5574  -15.5044   21.3046 N   0  0  0  0  0  0  0  0  0  0  0  0
  -21.2073  -26.2052   25.0910 N   0  0  0  0  0  0  0  0  0  0  0  0
  -17.5290  -16.7797   24.0114 N   0  3  0  0  0  0  0  0  0  0  0  0
  -25.1039  -29.5292   18.1871 O   0  0  0  0  0  0  0  0  0  0  0  0
  -25.0295  -17.5100   19.7006 O   0  0  0  0  0  0  0  0  0  0  0  0
  -22.2018  -14.4049   21.2228 O   0  0  0  0  0  0  0  0  0  0  0  0
  -18.7749  -17.6602   21.6474 O   0  0  0  0  0  0  0  0  0  0  0  0
  -21.4457  -27.3412   27.0683 O   0  0  0  0  0  0  0  0  0  0  0  0
  -29.4419  -23.0938   18.7811 O   0  0  0  0  0  0  0  0  0  0  0  0
  -23.2186  -22.8161   21.5004 O   0  0  0  0  0  0  0  0  0  1  0  0
  -28.3369  -17.8469   20.0669 F   0  0  0  0  0  0  0  0  0  0  0  0
  -29.3691  -22.2647   21.4174 F   0  0  0  0  0  0  0  0  0  0  0  0
  1  2  1  0  0  0  0
  1  5  2  0  0  0  0
  2  6  2  0  0  0  0
  3  8  2  0  0  0  0
  3 17  1  0  0  0  0
  4  9  1  0  0  0  0
  4 17  2  0  0  0  0
  5 19  1  0  0  0  0
  6 21  1  0  0  0  0
  7 10  2  0  0  0  0
  7 20  1  0  0  0  0
  8 23  1  0  0  0  0
  9 23  2  0  0  0  0
 10 24  1  0  0  0  0
 11 12  2  0  0  0  0
 11 25  1  0  0  0  0
 12 26  1  0  0  0  0
 13 14  1  0  0  0  0
 13 29  2  0  0  0  0
 14 30  2  0  0  0  0
 15 22  1  0  0  0  0
 15 24  2  0  0  0  0
 16 26  2  0  0  0  0
 16 27  1  0  0  0  0
 17 28  1  0  0  0  0
 18 28  1  0  0  0  0
 18 31  2  0  0  0  0
 18 32  1  0  0  0  0
 19 21  2  0  0  0  0
 19 37  1  0  0  0  0
 20 22  2  0  0  0  0
 20 38  1  0  0  0  0
 21 46  1  0  0  0  0
 22 39  1  0  0  0  0
 23 80  1  0  0  0  0
 24 81  1  0  0  0  0
 25 27  2  0  0  0  0
 25 80  1  0  0  0  0
 26 82  1  0  0  0  0
 27 83  1  0  0  0  0
 28 64  2  0  0  0  0
 29 49  1  0  0  0  0
 29 65  1  0  0  0  0
 30 56  1  0  0  0  0
 30 65  1  0  0  0  0
 31 66  1  0  0  0  0
 31 69  1  0  0  0  0
 32 70  1  0  0  0  0
 32 75  2  0  0  0  0
 33 47  1  0  0  0  0
 33 71  1  0  0  0  0
 33 76  2  0  0  0  0
 34 60  1  0  0  0  0
 34 67  1  0  0  0  0
 34 77  2  0  0  0  0
 35 61  1  0  0  0  0
 35 72  1  0  0  0  0
 35 78  2  0  0  0  0
 36 68  1  0  0  0  0
 36 73  1  0  0  0  0
 36 79  2  0  0  0  0
 37 40  1  0  0  0  0
 38 47  1  0  0  0  0
 39 67  1  0  0  0  0
 40 42  1  0  0  0  0
 41 43  1  0  0  0  0
 41 44  1  0  0  0  0
 42 46  1  0  0  0  0
 43 48  1  0  0  0  0
 44 68  1  0  0  0  0
 45 48  1  0  0  0  0
 45 68  1  0  0  0  0
 46 71  1  0  0  0  0
 47 67  1  0  0  0  0
 48 66  1  0  0  0  0
 50 61  1  0  0  0  0
 51 62  1  0  0  0  0
 52 63  1  0  0  0  0
 53 63  1  0  0  0  0
 54 63  1  0  0  0  0
 55 74  1  0  0  0  0
 56 57  1  0  0  0  0
 57 59  1  0  0  0  0
 58 62  1  0  0  0  0
 58 73  1  0  0  0  0
 59 81  1  0  0  0  0
 60 63  1  0  0  0  0
 60 72  1  0  0  0  0
 61 74  1  0  0  0  0
 62 65  1  0  0  0  0
 64 66  1  0  0  0  0
M  CHG  1  74   1
M  ISO  4  36 100  59 101  73 100  81 101
M  END
> <Batch ID>
0090

> <Smiles>
CNC(C)C(=O)NC(C(=O)N1Cc2cc([101O:1][101CH2:1]CCc3ccc(C)n3C(C)C[100NH:0][100C:0](=O)N3CCCC(n4nc(-c5ccc(Oc6ccc(F)cc6F)cc5)c(C(N)=O)c4N)C3)ccc2CC1C(=O)NC1CCCc2ccccc21)C(C)(C)C

> <Shape>
0.194

> <Color>
0.081

> <Negative vol penalty>
0.000

$$$$

  -OEChem-04052319093D

 87 95  0     1  0  0  0  0  0999 V2000
  -16.7326  -26.1629   20.4969 C   0  0  0  0  0  0  0  0  0  0  0  0
  -17.8050  -25.3719   20.0972 C   0  0  0  0  0  0  0  0  0  0  0  0
  -28.9014  -26.6212   18.6613 C   0  0  0  0  0  0  0  0  0  0  0  0
  -27.1101  -25.5727   19.8978 C   0  0  0  0  0  0  0  0  0  0  0  0
  -16.9216  -27.1605   21.4524 C   0  0  0  0  0  0  0  0  0  0  0  0
  -19.0674  -25.5788   20.6522 C   0  0  0  0  0  0  0  0  0  0  0  0
  -21.3520  -21.2497   21.9503 C   0  0  0  0  0  0  0  0  0  0  0  0
  -28.1081  -27.7527   18.4715 C   0  0  0  0  0  0  0  0  0  0  0  0
  -26.3167  -26.7041   19.7080 C   0  0  0  0  0  0  0  0  0  0  0  0
  -21.9327  -20.5040   20.9253 C   0  0  0  0  0  0  0  0  0  0  0  0
  -23.9492  -29.4592   19.8582 C   0  0  0  0  0  0  0  0  0  0  0  0
  -23.2426  -29.9485   20.9568 C   0  0  0  0  0  0  0  0  0  0  0  0
  -24.0971  -21.3918   21.5139 C   0  0  0  0  0  0  0  0  0  0  0  0
  -27.1579  -15.0811   18.2320 C   0  0  0  0  0  0  0  0  0  0  0  0
  -25.3203  -30.2864   22.1426 C   0  0  0  0  0  0  0  0  0  0  0  0
  -28.4023  -25.5312   19.3744 C   0  0  0  0  0  0  0  0  0  0  0  0
  -30.1042  -24.1115   20.6378 C   0  0  0  0  0  0  0  0  0  0  0  0
  -18.1849  -27.3733   22.0264 C   0  0  0  0  0  0  0  0  0  0  0  0
  -22.1393  -22.0819   22.7591 C   0  0  0  0  0  0  0  0  0  0  0  0
  -19.2738  -26.5810   21.6153 C   0  0  0  0  0  0  0  0  0  0  0  0
  -23.5244  -22.1451   22.5501 C   0  0  0  0  0  0  0  0  0  0  0  0
  -26.0760  -15.0859   19.1466 C   0  0  0  0  0  0  0  0  0  0  0  0
  -26.8158  -27.7942   18.9948 C   0  0  0  0  0  0  0  0  0  0  0  0
  -23.3050  -20.5772   20.7051 C   0  0  0  0  0  0  0  0  0  0  0  0
  -25.3414  -29.3834   19.9018 C   0  0  0  0  0  0  0  0  0  0  0  0
  -23.9282  -30.3621   22.0990 C   0  0  0  0  0  0  0  0  0  0  0  0
  -26.0269  -29.7971   21.0440 C   0  0  0  0  0  0  0  0  0  0  0  0
  -29.2211  -24.3619   19.5704 C   0  0  0  0  0  0  0  0  0  0  0  0
  -28.2090  -14.4323   18.8416 C   0  0  0  0  0  0  0  0  0  0  0  0
  -26.4988  -14.4400   20.2874 C   0  0  0  0  0  0  0  0  0  0  0  0
  -30.6356  -22.8756   20.3612 C   0  0  0  0  0  0  0  0  0  0  0  0
  -30.4161  -24.9236   21.7775 C   0  0  0  0  0  0  0  0  0  0  0  0
  -22.2427  -25.2066   23.3327 C   0  0  0  0  0  0  0  0  0  0  0  0
  -24.4418  -24.3316   25.5510 C   0  0  0  0  0  0  0  0  0  0  0  0
  -26.7455  -22.0432   26.6012 C   0  0  0  0  0  0  0  0  0  0  0  0
  -29.9977  -17.6490   18.8703 C   0  0  0  0  0  0  0  0  0  0  0  0
  -18.3507  -28.4949   23.0210 C   0  0  0  0  0  0  0  0  0  0  0  0
  -21.5015  -22.8593   23.8776 C   0  0  0  0  0  0  0  0  0  0  0  0
  -24.4166  -23.0076   23.4035 C   0  0  0  0  0  0  0  0  0  0  0  0
  -19.6389  -28.4019   23.8347 C   0  0  0  0  0  0  0  0  0  0  0  0
  -30.3783  -20.0395   16.1800 C   0  0  0  0  0  0  0  0  0  0  0  0
  -20.8259  -28.1061   22.9234 C   0  0  0  0  0  0  0  0  0  0  0  0
  -30.1822  -21.3640   16.9200 C   0  0  0  0  0  0  0  0  0  0  0  0
  -29.4535  -18.9573   16.7291 C   0  0  0  0  0  0  0  0  0  0  0  0
  -29.3823  -20.0488   18.9375 C   0  0  0  0  0  0  0  0  0  0  0  0
  -20.6530  -26.7585   22.2123 C   0  0  1  0  0  0  0  0  0  0  0  0
  -22.3250  -24.0685   24.3103 C   0  0  1  0  0  0  0  0  0  0  0  0
  -30.3051  -21.1779   18.4439 C   0  0  2  0  0  0  0  0  0  0  0  0
  -25.7778  -14.1631   21.5481 C   0  0  0  0  0  0  0  0  0  0  0  0
  -27.8605  -11.0379   20.2171 C   0  0  0  0  0  0  0  0  0  0  0  0
  -28.4116  -21.6219   28.4299 C   0  0  0  0  0  0  0  0  0  0  0  0
  -28.8515  -14.1825   22.3076 C   0  0  0  0  0  0  0  0  0  0  0  0
  -26.3427  -26.3528   24.2815 C   0  0  0  0  0  0  0  0  0  0  0  0
  -28.2282  -25.2340   25.4904 C   0  0  0  0  0  0  0  0  0  0  0  0
  -26.3844  -26.3091   26.7816 C   0  0  0  0  0  0  0  0  0  0  0  0
  -25.3560  -19.5743   27.4570 C   0  0  0  0  0  0  0  0  0  0  0  0
  -24.7147  -15.6888   18.9071 C   0  0  0  0  0  0  0  0  0  0  0  0
  -29.5679  -14.1491   18.3358 C   0  0  0  0  0  0  0  0  0  0  0  0
  -28.0409  -11.9502   21.4238 C   0  0  0  0  0  0  0  0  0  0  0  0
  -24.4958  -17.0271   19.6214 C   0  0  0  0  0  0  0  0  0  0  0  0
  -25.4433  -18.1258   19.1378 C   0  0  0  0  0  0  0  0  0  0  0  0
  -30.5961  -15.2513   18.6462 C   0  0  0  0  0  0  0  0  0  0  0  0
  -25.2235  -19.4275   19.8967 C   0  0  0  0  0  0  0  0  0  1  0  0
  -25.9397  -24.1434   25.5552 C   0  0  1  0  0  0  0  0  0  0  0  0
  -26.9831  -21.4023   27.9566 C   0  0  2  0  0  0  0  0  0  0  0  0
  -28.6094  -13.3346   21.0543 C   0  0  1  0  0  0  0  0  0  0  0  0
  -26.7069  -25.4950   25.5097 C   0  0  0  0  0  0  0  0  0  0  0  0
  -29.1906  -23.3651   18.6818 N   0  0  0  0  0  0  0  0  0  0  0  0
  -27.7970  -14.0472   20.0907 N   0  0  0  0  0  0  0  0  0  0  0  0
  -30.0612  -22.4764   19.1903 N   0  0  0  0  0  0  0  0  0  0  0  0
  -23.7449  -23.7536   24.4804 N   0  0  0  0  0  0  0  0  0  0  0  0
  -29.6332  -18.8175   18.1811 N   0  0  0  0  0  0  0  0  0  0  0  0
  -31.5336  -22.1022   21.0076 N   0  0  0  0  0  0  0  0  0  0  0  0
  -29.7798  -26.1656   21.9073 N   0  0  0  0  0  0  0  0  0  0  0  0
  -20.9589  -25.6685   23.1138 N   0  0  0  0  0  0  0  0  0  0  0  0
  -26.2446  -23.3222   26.7218 N   0  0  0  0  0  0  0  0  0  0  0  0
  -30.2103  -16.5253   18.0812 N   0  0  0  0  0  0  0  0  0  0  0  0
  -26.7314  -19.9350   27.8870 N   0  3  0  0  0  0  0  0  0  0  0  0
  -31.2473  -24.5659   22.6463 O   0  0  0  0  0  0  0  0  0  0  0  0
  -23.2682  -25.6350   22.8165 O   0  0  0  0  0  0  0  0  0  0  0  0
  -23.9090  -24.9620   26.4677 O   0  0  0  0  0  0  0  0  0  0  0  0
  -26.9842  -21.4683   25.5415 O   0  0  0  0  0  0  0  0  0  0  0  0
  -30.1294  -17.6110   20.0985 O   0  0  0  0  0  0  0  0  0  0  0  0
  -26.0414  -28.8982   18.8100 O   0  0  0  0  0  0  0  0  0  0  0  0
  -23.8743  -19.8509   19.7050 O   0  0  0  0  0  0  0  0  0  1  0  0
  -23.2496  -30.8334   23.1533 F   0  0  0  0  0  0  0  0  0  0  0  0
  -27.3643  -29.7278   21.0913 F   0  0  0  0  0  0  0  0  0  0  0  0
  1  2  1  0  0  0  0
  1  5  2  0  0  0  0
  2  6  2  0  0  0  0
  3  8  2  0  0  0  0
  3 16  1  0  0  0  0
  4  9  1  0  0  0  0
  4 16  2  0  0  0  0
  5 18  1  0  0  0  0
  6 20  1  0  0  0  0
  7 10  2  0  0  0  0
  7 19  1  0  0  0  0
  8 23  1  0  0  0  0
  9 23  2  0  0  0  0
 10 24  1  0  0  0  0
 11 12  2  0  0  0  0
 11 25  1  0  0  0  0
 12 26  1  0  0  0  0
 13 21  1  0  0  0  0
 13 24  2  0  0  0  0
 14 22  1  0  0  0  0
 14 29  2  0  0  0  0
 15 26  2  0  0  0  0
 15 27  1  0  0  0  0
 16 28  1  0  0  0  0
 17 28  1  0  0  0  0
 17 31  2  0  0  0  0
 17 32  1  0  0  0  0
 18 20  2  0  0  0  0
 18 37  1  0  0  0  0
 19 21  2  0  0  0  0
 19 38  1  0  0  0  0
 20 46  1  0  0  0  0
 21 39  1  0  0  0  0
 22 30  2  0  0  0  0
 22 57  1  0  0  0  0
 23 84  1  0  0  0  0
 24 85  1  0  0  0  0
 25 27  2  0  0  0  0
 25 84  1  0  0  0  0
 26 86  1  0  0  0  0
 27 87  1  0  0  0  0
 28 68  2  0  0  0  0
 29 58  1  0  0  0  0
 29 69  1  0  0  0  0
 30 49  1  0  0  0  0
 30 69  1  0  0  0  0
 31 70  1  0  0  0  0
 31 73  1  0  0  0  0
 32 74  1  0  0  0  0
 32 79  2  0  0  0  0
 33 47  1  0  0  0  0
 33 75  1  0  0  0  0
 33 80  2  0  0  0  0
 34 64  1  0  0  0  0
 34 71  1  0  0  0  0
 34 81  2  0  0  0  0
 35 65  1  0  0  0  0
 35 76  1  0  0  0  0
 35 82  2  0  0  0  0
 36 72  1  0  0  0  0
 36 77  1  0  0  0  0
 36 83  2  0  0  0  0
 37 40  1  0  0  0  0
 38 47  1  0  0  0  0
 39 71  1  0  0  0  0
 40 42  1  0  0  0  0
 41 43  1  0  0  0  0
 41 44  1  0  0  0  0
 42 46  1  0  0  0  0
 43 48  1  0  0  0  0
 44 72  1  0  0  0  0
 45 48  1  0  0  0  0
 45 72  1  0  0  0  0
 46 75  1  0  0  0  0
 47 71  1  0  0  0  0
 48 70  1  0  0  0  0
 50 59  1  0  0  0  0
 51 65  1  0  0  0  0
 52 66  1  0  0  0  0
 53 67  1  0  0  0  0
 54 67  1  0  0  0  0
 55 67  1  0  0  0  0
 56 78  1  0  0  0  0
 57 60  1  0  0  0  0
 58 62  1  0  0  0  0
 59 66  1  0  0  0  0
 60 61  1  0  0  0  0
 61 63  1  0  0  0  0
 62 77  1  0  0  0  0
 63 85  1  0  0  0  0
 64 67  1  0  0  0  0
 64 76  1  0  0  0  0
 65 78  1  0  0  0  0
 66 69  1  0  0  0  0
 68 70  1  0  0  0  0
M  CHG  1  78   1
M  ISO  4  36 100  63 101  77 100  85 101
M  END
> <Batch ID>
0090

> <Smiles>
CCC(C)n1c(CC[100NH:0][100C:0](=O)N2CCCC(n3nc(-c4ccc(Oc5ccc(F)cc5F)cc4)c(C(N)=O)c3N)C2)cc(CCC[101CH2:1][101O:1]c2ccc3c(c2)CN(C(=O)C(NC(=O)C(C)NC)C(C)(C)C)C(C(=O)NC2CCCc4ccccc42)C3)c1C

> <Shape>
0.224

> <Color>
0.071

> <Negative vol penalty>
0.000

$$$$

  -OEChem-04052319093D

 86 94  0     1  0  0  0  0  0999 V2000
  -25.0180  -28.9704   20.3343 C   0  0  0  0  0  0  0  0  0  0  0  0
  -24.7589  -27.9128   19.4683 C   0  0  0  0  0  0  0  0  0  0  0  0
  -20.7795  -22.8003   21.7377 C   0  0  0  0  0  0  0  0  0  0  0  0
  -23.1755  -23.0880   21.6224 C   0  0  0  0  0  0  0  0  0  0  0  0
  -26.2192  -29.0131   21.0407 C   0  0  0  0  0  0  0  0  0  0  0  0
  -25.7016  -26.8980   19.3074 C   0  0  0  0  0  0  0  0  0  0  0  0
  -26.1698  -19.8631   18.0392 C   0  0  0  0  0  0  0  0  0  0  0  0
  -20.6630  -24.0298   22.3860 C   0  0  0  0  0  0  0  0  0  0  0  0
  -23.0591  -24.3176   22.2707 C   0  0  0  0  0  0  0  0  0  0  0  0
  -26.7983  -18.9632   17.1797 C   0  0  0  0  0  0  0  0  0  0  0  0
  -19.6993  -27.2591   23.7491 C   0  0  0  0  0  0  0  0  0  0  0  0
  -18.6932  -28.1252   23.3212 C   0  0  0  0  0  0  0  0  0  0  0  0
  -28.8046  -19.1012   18.5119 C   0  0  0  0  0  0  0  0  0  0  0  0
  -27.0256  -15.0415   18.4140 C   0  0  0  0  0  0  0  0  0  0  0  0
  -19.6715  -28.1706   21.1126 C   0  0  0  0  0  0  0  0  0  0  0  0
  -22.0357  -22.3294   21.3559 C   0  0  0  0  0  0  0  0  0  0  0  0
  -22.1187  -20.8220   19.2996 C   0  0  0  0  0  0  0  0  0  0  0  0
  -27.1729  -27.9933   20.8958 C   0  0  0  0  0  0  0  0  0  0  0  0
  -26.8587  -20.3982   19.1372 C   0  0  0  0  0  0  0  0  0  0  0  0
  -26.9173  -26.9279   20.0116 C   0  0  0  0  0  0  0  0  0  0  0  0
  -28.1818  -20.0058   19.3853 C   0  0  0  0  0  0  0  0  0  0  0  0
  -28.0296  -14.3462   17.7491 C   0  0  0  0  0  0  0  0  0  0  0  0
  -28.6264  -13.2475   18.3571 C   0  0  0  0  0  0  0  0  0  0  0  0
  -21.8028  -24.7885   22.6525 C   0  0  0  0  0  0  0  0  0  0  0  0
  -28.1168  -18.5843   17.4142 C   0  0  0  0  0  0  0  0  0  0  0  0
  -20.6917  -26.8489   22.8588 C   0  0  0  0  0  0  0  0  0  0  0  0
  -18.6792  -28.5809   22.0030 C   0  0  0  0  0  0  0  0  0  0  0  0
  -20.6777  -27.3046   21.5405 C   0  0  0  0  0  0  0  0  0  0  0  0
  -22.1567  -21.0591   20.6867 C   0  0  0  0  0  0  0  0  0  0  0  0
  -28.1870  -12.8873   19.6209 C   0  0  0  0  0  0  0  0  0  0  0  0
  -26.6576  -14.6009   19.6751 C   0  0  0  0  0  0  0  0  0  0  0  0
  -22.2769  -19.4630   19.1790 C   0  0  0  0  0  0  0  0  0  0  0  0
  -21.9550  -21.7475   18.2168 C   0  0  0  0  0  0  0  0  0  0  0  0
  -27.7247  -23.3222   20.0338 C   0  0  0  0  0  0  0  0  0  0  0  0
  -28.6748  -21.7916   22.7314 C   0  0  0  0  0  0  0  0  0  0  0  0
  -29.6706  -18.8839   24.2146 C   0  0  0  0  0  0  0  0  0  0  0  0
  -25.1082  -15.0540   21.6090 C   0  0  0  0  0  0  0  0  0  0  0  0
  -28.4771  -28.1073   21.6446 C   0  0  0  0  0  0  0  0  0  0  0  0
  -26.1580  -21.3473   20.0702 C   0  0  0  0  0  0  0  0  0  0  0  0
  -28.9588  -20.5357   20.5617 C   0  0  0  0  0  0  0  0  0  0  0  0
  -29.2631  -26.7999   21.7015 C   0  0  0  0  0  0  0  0  0  0  0  0
  -21.6401  -15.5987   22.2031 C   0  0  0  0  0  0  0  0  0  0  0  0
  -29.3126  -26.1464   20.3240 C   0  0  0  0  0  0  0  0  0  0  0  0
  -21.4143  -17.0389   21.7374 C   0  0  0  0  0  0  0  0  0  0  0  0
  -23.0018  -15.4264   22.8737 C   0  0  0  0  0  0  0  0  0  0  0  0
  -23.9212  -17.3358   21.6176 C   0  0  0  0  0  0  0  0  0  0  0  0
  -27.9044  -25.7954   19.8289 C   0  0  1  0  0  0  0  0  0  0  0  0
  -27.1209  -22.2249   20.8639 C   0  0  1  0  0  0  0  0  0  0  0  0
  -22.5897  -17.5440   20.8778 C   0  0  2  0  0  0  0  0  0  0  0  0
  -29.3085  -11.0173   17.4007 C   0  0  0  0  0  0  0  0  0  0  0  0
  -31.0417  -12.5297   18.4320 C   0  0  0  0  0  0  0  0  0  0  0  0
  -27.7650  -10.6033   20.6000 C   0  0  0  0  0  0  0  0  0  0  0  0
  -29.4955  -12.1175   21.6331 C   0  0  0  0  0  0  0  0  0  0  0  0
  -30.4157  -17.9535   26.4230 C   0  0  0  0  0  0  0  0  0  0  0  0
  -31.4152  -23.0764   22.3453 C   0  0  0  0  0  0  0  0  0  0  0  0
  -32.3469  -21.4117   23.9666 C   0  0  0  0  0  0  0  0  0  0  0  0
  -30.6061  -23.0359   24.7113 C   0  0  0  0  0  0  0  0  0  0  0  0
  -27.3852  -17.0068   24.3263 C   0  0  0  0  0  0  0  0  0  0  0  0
  -28.4524  -14.8019   16.3754 C   0  0  0  0  0  0  0  0  0  0  0  0
  -29.7817  -15.5596   16.3598 C   0  0  0  0  0  0  0  0  0  0  0  0
  -29.7402  -16.8679   17.1407 C   0  0  0  0  0  0  0  0  0  1  0  0
  -29.7051  -12.4815   17.6679 C   0  0  0  0  0  0  0  0  0  0  0  0
  -28.7922  -11.7161   20.3239 C   0  0  0  0  0  0  0  0  0  0  0  0
  -29.9497  -21.1260   23.1902 C   0  0  1  0  0  0  0  0  0  0  0  0
  -29.2329  -18.2082   25.5016 C   0  0  2  0  0  0  0  0  0  0  0  0
  -31.0657  -22.1538   23.5300 C   0  0  0  0  0  0  0  0  0  0  0  0
  -22.3257  -19.9404   21.3966 N   0  0  0  0  0  0  0  0  0  0  0  0
  -27.2145  -13.5381   20.2979 N   0  0  0  0  0  0  0  0  0  0  0  0
  -22.3952  -18.9872   20.4518 N   0  0  0  0  0  0  0  0  0  0  0  0
  -28.2320  -21.4659   21.4415 N   0  0  0  0  0  0  0  0  0  0  0  0
  -24.0669  -15.9224   21.9995 N   0  0  0  0  0  0  0  0  0  0  0  0
  -22.3249  -18.6406   18.1096 N   0  0  0  0  0  0  0  0  0  0  0  0
  -21.8054  -23.1082   18.5177 N   0  0  0  0  0  0  0  0  0  0  0  0
  -25.6339  -15.3163   20.3443 N   0  0  0  0  0  0  0  0  0  0  0  0
  -27.4244  -24.5952   20.4798 N   0  0  0  0  0  0  0  0  0  0  0  0
  -29.5792  -20.2569   24.3019 N   0  0  0  0  0  0  0  0  0  0  0  0
  -28.5788  -16.9025   25.2047 N   0  3  0  0  0  0  0  0  0  0  0  0
  -21.9254  -21.3769   17.0188 O   0  0  0  0  0  0  0  0  0  0  0  0
  -28.4132  -23.0352   19.0616 O   0  0  0  0  0  0  0  0  0  0  0  0
  -28.0894  -22.5663   23.4921 O   0  0  0  0  0  0  0  0  0  0  0  0
  -30.0587  -18.2565   23.2316 O   0  0  0  0  0  0  0  0  0  0  0  0
  -25.4858  -14.1277   22.3310 O   0  0  0  0  0  0  0  0  0  0  0  0
  -21.6895  -25.9884   23.2849 O   0  0  0  0  0  0  0  0  0  0  0  0
  -28.7328  -17.7065   16.5765 O   0  0  0  0  0  0  0  0  0  1  0  0
  -17.7120  -29.4113   21.5917 F   0  0  0  0  0  0  0  0  0  0  0  0
  -21.6277  -26.9129   20.6803 F   0  0  0  0  0  0  0  0  0  0  0  0
  1  2  1  0  0  0  0
  1  5  2  0  0  0  0
  2  6  2  0  0  0  0
  3  8  2  0  0  0  0
  3 16  1  0  0  0  0
  4  9  1  0  0  0  0
  4 16  2  0  0  0  0
  5 18  1  0  0  0  0
  6 20  1  0  0  0  0
  7 10  2  0  0  0  0
  7 19  1  0  0  0  0
  8 24  1  0  0  0  0
  9 24  2  0  0  0  0
 10 25  1  0  0  0  0
 11 12  2  0  0  0  0
 11 26  1  0  0  0  0
 12 27  1  0  0  0  0
 13 21  1  0  0  0  0
 13 25  2  0  0  0  0
 14 22  1  0  0  0  0
 14 31  2  0  0  0  0
 15 27  2  0  0  0  0
 15 28  1  0  0  0  0
 16 29  1  0  0  0  0
 17 29  1  0  0  0  0
 17 32  2  0  0  0  0
 17 33  1  0  0  0  0
 18 20  2  0  0  0  0
 18 38  1  0  0  0  0
 19 21  2  0  0  0  0
 19 39  1  0  0  0  0
 20 47  1  0  0  0  0
 21 40  1  0  0  0  0
 22 23  2  0  0  0  0
 22 59  1  0  0  0  0
 23 30  1  0  0  0  0
 23 62  1  0  0  0  0
 24 83  1  0  0  0  0
 25 84  1  0  0  0  0
 26 28  2  0  0  0  0
 26 83  1  0  0  0  0
 27 85  1  0  0  0  0
 28 86  1  0  0  0  0
 29 67  2  0  0  0  0
 30 63  1  0  0  0  0
 30 68  2  0  0  0  0
 31 68  1  0  0  0  0
 31 74  1  0  0  0  0
 32 69  1  0  0  0  0
 32 72  1  0  0  0  0
 33 73  1  0  0  0  0
 33 78  2  0  0  0  0
 34 48  1  0  0  0  0
 34 75  1  0  0  0  0
 34 79  2  0  0  0  0
 35 64  1  0  0  0  0
 35 70  1  0  0  0  0
 35 80  2  0  0  0  0
 36 65  1  0  0  0  0
 36 76  1  0  0  0  0
 36 81  2  0  0  0  0
 37 71  1  0  0  0  0
 37 74  1  0  0  0  0
 37 82  2  0  0  0  0
 38 41  1  0  0  0  0
 39 48  1  0  0  0  0
 40 70  1  0  0  0  0
 41 43  1  0  0  0  0
 42 44  1  0  0  0  0
 42 45  1  0  0  0  0
 43 47  1  0  0  0  0
 44 49  1  0  0  0  0
 45 71  1  0  0  0  0
 46 49  1  0  0  0  0
 46 71  1  0  0  0  0
 47 75  1  0  0  0  0
 48 70  1  0  0  0  0
 49 69  1  0  0  0  0
 50 62  1  0  0  0  0
 51 62  1  0  0  0  0
 52 63  1  0  0  0  0
 53 63  1  0  0  0  0
 54 65  1  0  0  0  0
 55 66  1  0  0  0  0
 56 66  1  0  0  0  0
 57 66  1  0  0  0  0
 58 77  1  0  0  0  0
 59 60  1  0  0  0  0
 60 61  1  0  0  0  0
 61 84  1  0  0  0  0
 64 66  1  0  0  0  0
 64 76  1  0  0  0  0
 65 77  1  0  0  0  0
 67 69  1  0  0  0  0
M  CHG  1  77   1
M  ISO  4  37 100  61 101  74 100  84 101
M  END
> <Batch ID>
0090

> <Smiles>
CNC(C)C(=O)NC(C(=O)N1Cc2cc([101O:1][101CH2:1]CCc3cc([100NH:0][100C:0](=O)N4CCCC(n5nc(-c6ccc(Oc7ccc(F)cc7F)cc6)c(C(N)=O)c5N)C4)nc(C(C)C)c3C(C)C)ccc2CC1C(=O)NC1CCCc2ccccc21)C(C)(C)C

> <Shape>
0.199

> <Color>
0.064

> <Negative vol penalty>
0.000

$$$$

  -OEChem-04052319093D

 86 94  0     1  0  0  0  0  0999 V2000
  -24.5993  -11.4122   20.9229 C   0  0  0  0  0  0  0  0  0  0  0  0
  -23.9613  -12.5120   21.4876 C   0  0  0  0  0  0  0  0  0  0  0  0
  -31.0398  -25.4245   18.6637 C   0  0  0  0  0  0  0  0  0  0  0  0
  -31.5611  -26.6081   20.7043 C   0  0  0  0  0  0  0  0  0  0  0  0
  -25.8367  -11.5695   20.3000 C   0  0  0  0  0  0  0  0  0  0  0  0
  -24.5609  -13.7696   21.4306 C   0  0  0  0  0  0  0  0  0  0  0  0
  -21.7355  -19.1724   20.8534 C   0  0  0  0  0  0  0  0  0  0  0  0
  -32.3632  -25.5626   18.2454 C   0  0  0  0  0  0  0  0  0  0  0  0
  -32.8846  -26.7461   20.2861 C   0  0  0  0  0  0  0  0  0  0  0  0
  -21.3767  -20.1473   21.7832 C   0  0  0  0  0  0  0  0  0  0  0  0
  -35.6670  -24.8325   20.1575 C   0  0  0  0  0  0  0  0  0  0  0  0
  -36.6706  -24.5668   21.0891 C   0  0  0  0  0  0  0  0  0  0  0  0
  -23.4025  -21.3589   21.2856 C   0  0  0  0  0  0  0  0  0  0  0  0
  -18.3027  -26.7422   22.0965 C   0  0  0  0  0  0  0  0  0  0  0  0
  -19.8894  -27.5881   23.6938 C   0  0  0  0  0  0  0  0  0  0  0  0
  -37.4892  -26.8275   20.8521 C   0  0  0  0  0  0  0  0  0  0  0  0
  -30.6387  -25.9473   19.8931 C   0  0  0  0  0  0  0  0  0  0  0  0
  -28.7231  -24.7497   21.0781 C   0  0  0  0  0  0  0  0  0  0  0  0
  -26.4473  -12.8315   20.2268 C   0  0  0  0  0  0  0  0  0  0  0  0
  -22.9378  -19.2780   20.1394 C   0  0  0  0  0  0  0  0  0  0  0  0
  -25.8083  -13.9437   20.8073 C   0  0  0  0  0  0  0  0  0  0  0  0
  -23.7730  -20.3853   20.3454 C   0  0  0  0  0  0  0  0  0  0  0  0
  -18.9082  -26.6664   23.3459 C   0  0  0  0  0  0  0  0  0  0  0  0
  -33.2857  -26.2234   19.0566 C   0  0  0  0  0  0  0  0  0  0  0  0
  -22.2116  -21.2393   22.0015 C   0  0  0  0  0  0  0  0  0  0  0  0
  -35.5746  -26.0957   19.5731 C   0  0  0  0  0  0  0  0  0  0  0  0
  -37.5816  -25.5642   21.4365 C   0  0  0  0  0  0  0  0  0  0  0  0
  -36.4857  -27.0931   19.9204 C   0  0  0  0  0  0  0  0  0  0  0  0
  -29.2715  -25.8054   20.3255 C   0  0  0  0  0  0  0  0  0  0  0  0
  -18.7107  -27.7504   21.2382 C   0  0  0  0  0  0  0  0  0  0  0  0
  -20.2265  -28.5583   22.7639 C   0  0  0  0  0  0  0  0  0  0  0  0
  -27.3988  -25.0836   21.2238 C   0  0  0  0  0  0  0  0  0  0  0  0
  -29.3544  -23.5725   21.5991 C   0  0  0  0  0  0  0  0  0  0  0  0
  -25.5802  -17.5243   19.9240 C   0  0  0  0  0  0  0  0  0  0  0  0
  -26.3431  -19.6622   17.6067 C   0  0  0  0  0  0  0  0  0  0  0  0
  -25.9175  -22.7812   16.2885 C   0  0  0  0  0  0  0  0  0  0  0  0
  -23.5236  -28.7555   22.4263 C   0  0  0  0  0  0  0  0  0  0  0  0
  -27.8074  -12.9437   19.5848 C   0  0  0  0  0  0  0  0  0  0  0  0
  -23.2976  -18.2316   19.1205 C   0  0  0  0  0  0  0  0  0  0  0  0
  -25.0648  -20.5557   19.5899 C   0  0  0  0  0  0  0  0  0  0  0  0
  -28.2007  -14.3773   19.2379 C   0  0  0  0  0  0  0  0  0  0  0  0
  -24.6448  -28.6890   18.9860 C   0  0  0  0  0  0  0  0  0  0  0  0
  -27.9119  -15.3088   20.4108 C   0  0  0  0  0  0  0  0  0  0  0  0
  -25.9118  -27.8388   19.0954 C   0  0  0  0  0  0  0  0  0  0  0  0
  -24.4836  -29.5997   20.1996 C   0  0  0  0  0  0  0  0  0  0  0  0
  -25.7547  -28.0378   21.6204 C   0  0  0  0  0  0  0  0  0  0  0  0
  -26.4152  -15.3286   20.7439 C   0  0  1  0  0  0  0  0  0  0  0  0
  -24.7928  -18.1766   18.8229 C   0  0  1  0  0  0  0  0  0  0  0  0
  -25.9628  -27.0789   20.4341 C   0  0  2  0  0  0  0  0  0  0  0  0
  -18.1750  -27.1356   17.4645 C   0  0  0  0  0  0  0  0  0  0  0  0
  -17.0283  -25.7502   24.7292 C   0  0  0  0  0  0  0  0  0  0  0  0
  -26.7044  -24.2514   14.4132 C   0  0  0  0  0  0  0  0  0  0  0  0
  -28.9690  -20.1391   19.0856 C   0  0  0  0  0  0  0  0  0  0  0  0
  -29.2628  -22.2333   17.7454 C   0  0  0  0  0  0  0  0  0  0  0  0
  -29.1802  -20.0206   16.5965 C   0  0  0  0  0  0  0  0  0  0  0  0
  -23.1883  -23.0080   15.1664 C   0  0  0  0  0  0  0  0  0  0  0  0
  -18.0817  -27.8633   19.8898 C   0  0  0  0  0  0  0  0  0  0  0  0
  -21.2768  -29.5626   23.1030 C   0  0  0  0  0  0  0  0  0  0  0  0
  -18.8370  -27.0468   18.8305 C   0  0  0  0  0  0  0  0  0  0  0  0
  -20.2354  -23.8592   23.5499 C   0  0  0  0  0  0  0  0  0  0  0  0
  -18.7483  -24.1541   23.7941 C   0  0  0  0  0  0  0  0  0  0  0  0
  -20.4698  -22.4179   23.1118 C   0  0  0  0  0  0  0  0  0  1  0  0
  -18.4987  -25.5816   24.3272 C   0  0  1  0  0  0  0  0  0  0  0  0
  -27.0589  -20.9909   17.5716 C   0  0  1  0  0  0  0  0  0  0  0  0
  -25.6566  -23.2472   14.8675 C   0  0  2  0  0  0  0  0  0  0  0  0
  -28.5944  -20.8421   17.7656 C   0  0  0  0  0  0  0  0  0  0  0  0
  -28.3693  -26.7400   20.0145 N   0  0  0  0  0  0  0  0  0  0  0  0
  -19.6604  -28.6637   21.5407 N   0  0  0  0  0  0  0  0  0  0  0  0
  -27.2406  -26.2725   20.5745 N   0  0  0  0  0  0  0  0  0  0  0  0
  -25.3757  -19.5027   18.6090 N   0  0  0  0  0  0  0  0  0  0  0  0
  -24.5223  -28.8124   21.4401 N   0  0  0  0  0  0  0  0  0  0  0  0
  -26.3659  -24.4732   21.8425 N   0  0  0  0  0  0  0  0  0  0  0  0
  -30.7222  -23.3852   21.3574 N   0  0  0  0  0  0  0  0  0  0  0  0
  -25.6972  -16.1534   19.7960 N   0  0  0  0  0  0  0  0  0  0  0  0
  -26.6741  -21.6288   16.3173 N   0  0  0  0  0  0  0  0  0  0  0  0
  -22.3915  -29.5235   22.1827 N   0  0  0  0  0  0  0  0  0  0  0  0
  -24.3159  -23.8909   14.7715 N   0  3  0  0  0  0  0  0  0  0  0  0
  -28.7206  -22.7040   22.2453 O   0  0  0  0  0  0  0  0  0  0  0  0
  -26.0482  -18.2140   20.8224 O   0  0  0  0  0  0  0  0  0  0  0  0
  -26.6265  -18.8003   16.7710 O   0  0  0  0  0  0  0  0  0  0  0  0
  -25.4958  -23.3816   17.2745 O   0  0  0  0  0  0  0  0  0  0  0  0
  -23.6303  -28.0666   23.4466 O   0  0  0  0  0  0  0  0  0  0  0  0
  -34.5773  -26.3581   18.6490 O   0  0  0  0  0  0  0  0  0  0  0  0
  -21.8641  -22.1920   22.9090 O   0  0  0  0  0  0  0  0  0  1  0  0
  -38.5443  -25.3094   22.3323 F   0  0  0  0  0  0  0  0  0  0  0  0
  -36.4012  -28.3090   19.3632 F   0  0  0  0  0  0  0  0  0  0  0  0
  1  2  1  0  0  0  0
  1  5  2  0  0  0  0
  2  6  2  0  0  0  0
  3  8  2  0  0  0  0
  3 17  1  0  0  0  0
  4  9  1  0  0  0  0
  4 17  2  0  0  0  0
  5 19  1  0  0  0  0
  6 21  1  0  0  0  0
  7 10  2  0  0  0  0
  7 20  1  0  0  0  0
  8 24  1  0  0  0  0
  9 24  2  0  0  0  0
 10 25  1  0  0  0  0
 11 12  2  0  0  0  0
 11 26  1  0  0  0  0
 12 27  1  0  0  0  0
 13 22  1  0  0  0  0
 13 25  2  0  0  0  0
 14 23  2  0  0  0  0
 14 30  1  0  0  0  0
 15 23  1  0  0  0  0
 15 31  2  0  0  0  0
 16 27  2  0  0  0  0
 16 28  1  0  0  0  0
 17 29  1  0  0  0  0
 18 29  1  0  0  0  0
 18 32  2  0  0  0  0
 18 33  1  0  0  0  0
 19 21  2  0  0  0  0
 19 38  1  0  0  0  0
 20 22  2  0  0  0  0
 20 39  1  0  0  0  0
 21 47  1  0  0  0  0
 22 40  1  0  0  0  0
 23 63  1  0  0  0  0
 24 83  1  0  0  0  0
 25 84  1  0  0  0  0
 26 28  2  0  0  0  0
 26 83  1  0  0  0  0
 27 85  1  0  0  0  0
 28 86  1  0  0  0  0
 29 67  2  0  0  0  0
 30 57  1  0  0  0  0
 30 68  2  0  0  0  0
 31 58  1  0  0  0  0
 31 68  1  0  0  0  0
 32 69  1  0  0  0  0
 32 72  1  0  0  0  0
 33 73  1  0  0  0  0
 33 78  2  0  0  0  0
 34 48  1  0  0  0  0
 34 74  1  0  0  0  0
 34 79  2  0  0  0  0
 35 64  1  0  0  0  0
 35 70  1  0  0  0  0
 35 80  2  0  0  0  0
 36 65  1  0  0  0  0
 36 75  1  0  0  0  0
 36 81  2  0  0  0  0
 37 71  1  0  0  0  0
 37 76  1  0  0  0  0
 37 82  2  0  0  0  0
 38 41  1  0  0  0  0
 39 48  1  0  0  0  0
 40 70  1  0  0  0  0
 41 43  1  0  0  0  0
 42 44  1  0  0  0  0
 42 45  1  0  0  0  0
 43 47  1  0  0  0  0
 44 49  1  0  0  0  0
 45 71  1  0  0  0  0
 46 49  1  0  0  0  0
 46 71  1  0  0  0  0
 47 74  1  0  0  0  0
 48 70  1  0  0  0  0
 49 69  1  0  0  0  0
 50 59  1  0  0  0  0
 51 63  1  0  0  0  0
 52 65  1  0  0  0  0
 53 66  1  0  0  0  0
 54 66  1  0  0  0  0
 55 66  1  0  0  0  0
 56 77  1  0  0  0  0
 57 59  1  0  0  0  0
 58 76  1  0  0  0  0
 60 61  1  0  0  0  0
 60 62  1  0  0  0  0
 61 63  1  0  0  0  0
 62 84  1  0  0  0  0
 64 66  1  0  0  0  0
 64 75  1  0  0  0  0
 65 77  1  0  0  0  0
 67 69  1  0  0  0  0
M  CHG  1  77   1
M  ISO  4  37 100  62 101  76 100  84 101
M  END
> <Batch ID>
0090

> <Smiles>
CCCc1cc(C(C)CC[101CH2:1][101O:1]c2ccc3c(c2)CN(C(=O)C(NC(=O)C(C)NC)C(C)(C)C)C(C(=O)NC2CCCc4ccccc42)C3)cc(C[100NH:0][100C:0](=O)N2CCCC(n3nc(-c4ccc(Oc5ccc(F)cc5F)cc4)c(C(N)=O)c3N)C2)n1

> <Shape>
0.186

> <Color>
0.087

> <Negative vol penalty>
0.000

$$$$

  -OEChem-04052319093D

 86 94  0     1  0  0  0  0  0999 V2000
  -15.8852  -29.2439   23.2778 C   0  0  0  0  0  0  0  0  0  0  0  0
  -16.9125  -28.9843   22.3763 C   0  0  0  0  0  0  0  0  0  0  0  0
  -27.9983  -17.3093   21.0516 C   0  0  0  0  0  0  0  0  0  0  0  0
  -27.8934  -17.6679   18.6647 C   0  0  0  0  0  0  0  0  0  0  0  0
  -16.1487  -29.9565   24.4468 C   0  0  0  0  0  0  0  0  0  0  0  0
  -18.2037  -29.4383   22.6427 C   0  0  0  0  0  0  0  0  0  0  0  0
  -21.7276  -25.9174   21.7312 C   0  0  0  0  0  0  0  0  0  0  0  0
  -26.9358  -16.4100   20.9632 C   0  0  0  0  0  0  0  0  0  0  0  0
  -26.8308  -16.7686   18.5763 C   0  0  0  0  0  0  0  0  0  0  0  0
  -22.0850  -25.7038   20.4007 C   0  0  0  0  0  0  0  0  0  0  0  0
  -26.4680  -13.1892   20.0464 C   0  0  0  0  0  0  0  0  0  0  0  0
  -26.5776  -11.9859   20.7432 C   0  0  0  0  0  0  0  0  0  0  0  0
  -24.0534  -27.0618   20.7178 C   0  0  0  0  0  0  0  0  0  0  0  0
  -28.2328  -26.4743   16.1881 C   0  0  0  0  0  0  0  0  0  0  0  0
  -24.5973  -12.5400   22.0115 C   0  0  0  0  0  0  0  0  0  0  0  0
  -30.4704  -27.8781   15.5039 C   0  0  0  0  0  0  0  0  0  0  0  0
  -28.4771  -17.9383   19.9023 C   0  0  0  0  0  0  0  0  0  0  0  0
  -30.9474  -18.5750   19.8885 C   0  0  0  0  0  0  0  0  0  0  0  0
  -17.4458  -30.4111   24.7324 C   0  0  0  0  0  0  0  0  0  0  0  0
  -22.5260  -26.7151   22.5635 C   0  0  0  0  0  0  0  0  0  0  0  0
  -18.4845  -30.1588   23.8160 C   0  0  0  0  0  0  0  0  0  0  0  0
  -23.7052  -27.2819   22.0592 C   0  0  0  0  0  0  0  0  0  0  0  0
  -29.4598  -26.1090   16.7308 C   0  0  0  0  0  0  0  0  0  0  0  0
  -30.6047  -26.8192   16.3873 C   0  0  0  0  0  0  0  0  0  0  0  0
  -26.3520  -16.1396   19.7256 C   0  0  0  0  0  0  0  0  0  0  0  0
  -23.2465  -26.2784   19.8930 C   0  0  0  0  0  0  0  0  0  0  0  0
  -25.4231  -14.0680   20.3322 C   0  0  0  0  0  0  0  0  0  0  0  0
  -25.6422  -11.6613   21.7257 C   0  0  0  0  0  0  0  0  0  0  0  0
  -24.4878  -13.7434   21.3147 C   0  0  0  0  0  0  0  0  0  0  0  0
  -29.5744  -18.8678   19.9930 C   0  0  0  0  0  0  0  0  0  0  0  0
  -28.2047  -27.5488   15.3138 C   0  0  0  0  0  0  0  0  0  0  0  0
  -31.5701  -19.7895   20.0427 C   0  0  0  0  0  0  0  0  0  0  0  0
  -31.6013  -17.3177   19.6712 C   0  0  0  0  0  0  0  0  0  0  0  0
  -22.0906  -29.4297   24.1588 C   0  0  0  0  0  0  0  0  0  0  0  0
  -29.6799  -25.4160   19.1041 C   0  0  0  0  0  0  0  0  0  0  0  0
  -25.0472  -28.7680   25.3179 C   0  0  0  0  0  0  0  0  0  0  0  0
  -28.0329  -27.1694   24.8976 C   0  0  0  0  0  0  0  0  0  0  0  0
  -17.6725  -31.2182   25.9861 C   0  0  0  0  0  0  0  0  0  0  0  0
  -22.1406  -26.9138   24.0038 C   0  0  0  0  0  0  0  0  0  0  0  0
  -24.6074  -28.1297   22.9169 C   0  0  0  0  0  0  0  0  0  0  0  0
  -19.1438  -31.3401   26.3743 C   0  0  0  0  0  0  0  0  0  0  0  0
  -31.0207  -24.0494   22.1330 C   0  0  0  0  0  0  0  0  0  0  0  0
  -19.9888  -31.7029   25.1573 C   0  0  0  0  0  0  0  0  0  0  0  0
  -30.9003  -22.5396   21.9298 C   0  0  0  0  0  0  0  0  0  0  0  0
  -29.8544  -24.7940   21.4909 C   0  0  0  0  0  0  0  0  0  0  0  0
  -29.5454  -22.9828   19.8339 C   0  0  0  0  0  0  0  0  0  0  0  0
  -19.9034  -30.6132   24.0817 C   0  0  1  0  0  0  0  0  0  0  0  0
  -22.7582  -28.1651   24.6203 C   0  0  1  0  0  0  0  0  0  0  0  0
  -30.7198  -22.1949   20.4408 C   0  0  2  0  0  0  0  0  0  0  0  0
  -31.9435  -26.4703   16.9385 C   0  0  0  0  0  0  0  0  0  0  0  0
  -30.2668  -26.8478   25.9948 C   0  0  0  0  0  0  0  0  0  0  0  0
  -25.8871  -31.5607   24.4205 C   0  0  0  0  0  0  0  0  0  0  0  0
  -28.2740  -30.8434   24.6582 C   0  0  0  0  0  0  0  0  0  0  0  0
  -26.7771  -30.8708   26.6535 C   0  0  0  0  0  0  0  0  0  0  0  0
  -27.6239  -24.2481   25.1386 C   0  0  0  0  0  0  0  0  0  0  0  0
  -22.6988  -28.4961   13.9691 C   0  0  0  0  0  0  0  0  0  0  0  0
  -29.5240  -24.9557   17.6765 C   0  0  0  0  0  0  0  0  0  0  0  0
  -26.8917  -27.9731   14.7056 C   0  0  0  0  0  0  0  0  0  0  0  0
  -26.1335  -29.0197   15.5327 C   0  0  0  0  0  0  0  0  0  0  0  0
  -22.9873  -26.3726   16.2943 C   0  0  0  0  0  0  0  0  0  0  0  0
  -24.7737  -29.4328   14.9780 C   0  0  0  0  0  0  0  0  0  0  0  0
  -23.3628  -27.8468   16.2798 C   0  0  0  0  0  0  0  0  0  0  0  0
  -22.5384  -25.8677   17.6601 C   0  0  0  0  0  0  0  0  0  1  0  0
  -26.4593  -29.0872   24.8900 C   0  0  1  0  0  0  0  0  0  0  0  0
  -28.8544  -26.3062   25.8381 C   0  0  2  0  0  0  0  0  0  0  0  0
  -26.8316  -30.5762   25.1386 C   0  0  0  0  0  0  0  0  0  0  0  0
  -29.2957  -28.2626   14.9564 N   0  0  0  0  0  0  0  0  0  0  0  0
  -29.3382  -20.1664   20.1980 N   0  0  0  0  0  0  0  0  0  0  0  0
  -30.5712  -20.7003   20.2236 N   0  0  0  0  0  0  0  0  0  0  0  0
  -24.1843  -28.2999   24.3168 N   0  0  0  0  0  0  0  0  0  0  0  0
  -29.7023  -24.4225   20.0830 N   0  0  0  0  0  0  0  0  0  0  0  0
  -32.8693  -20.1564   20.0400 N   0  0  0  0  0  0  0  0  0  0  0  0
  -30.8110  -16.1684   19.5341 N   0  0  0  0  0  0  0  0  0  0  0  0
  -20.7382  -29.4858   24.4370 N   0  0  0  0  0  0  0  0  0  0  0  0
  -27.3204  -28.1328   25.5799 N   0  0  0  0  0  0  0  0  0  0  0  0
  -28.9407  -24.9119   25.3190 N   0  3  0  0  0  0  0  0  0  0  0  0
  -23.8336  -28.2521   14.9346 N   0  3  1  0  0  0  0  0  0  0  0  0
  -32.8503  -17.2140   19.6173 O   0  0  0  0  0  0  0  0  0  0  0  0
  -22.7537  -30.2913   23.5935 O   0  0  0  0  0  0  0  0  0  0  0  0
  -29.7817  -26.6228   19.3398 O   0  0  0  0  0  0  0  0  0  0  0  0
  -24.7236  -28.9214   26.4983 O   0  0  0  0  0  0  0  0  0  0  0  0
  -28.0269  -27.0078   23.6793 O   0  0  0  0  0  0  0  0  0  0  0  0
  -25.3153  -15.2620   19.6390 O   0  0  0  0  0  0  0  0  0  0  0  0
  -23.5974  -26.0721   18.5944 O   0  0  0  0  0  0  0  0  0  1  0  0
  -25.7466  -10.5050   22.3937 F   0  0  0  0  0  0  0  0  0  0  0  0
  -23.4811  -14.5831   21.5928 F   0  0  0  0  0  0  0  0  0  0  0  0
  1  2  1  0  0  0  0
  1  5  2  0  0  0  0
  2  6  2  0  0  0  0
  3  8  2  0  0  0  0
  3 17  1  0  0  0  0
  4  9  1  0  0  0  0
  4 17  2  0  0  0  0
  5 19  1  0  0  0  0
  6 21  1  0  0  0  0
  7 10  2  0  0  0  0
  7 20  1  0  0  0  0
  8 25  1  0  0  0  0
  9 25  2  0  0  0  0
 10 26  1  0  0  0  0
 11 12  2  0  0  0  0
 11 27  1  0  0  0  0
 12 28  1  0  0  0  0
 13 22  1  0  0  0  0
 13 26  2  0  0  0  0
 14 23  2  0  0  0  0
 14 31  1  0  0  0  0
 15 28  2  0  0  0  0
 15 29  1  0  0  0  0
 16 24  2  0  0  0  0
 16 67  1  0  0  0  0
 17 30  1  0  0  0  0
 18 30  1  0  0  0  0
 18 32  2  0  0  0  0
 18 33  1  0  0  0  0
 19 21  2  0  0  0  0
 19 38  1  0  0  0  0
 20 22  2  0  0  0  0
 20 39  1  0  0  0  0
 21 47  1  0  0  0  0
 22 40  1  0  0  0  0
 23 24  1  0  0  0  0
 23 57  1  0  0  0  0
 24 50  1  0  0  0  0
 25 83  1  0  0  0  0
 26 84  1  0  0  0  0
 27 29  2  0  0  0  0
 27 83  1  0  0  0  0
 28 85  1  0  0  0  0
 29 86  1  0  0  0  0
 30 68  2  0  0  0  0
 31 58  1  0  0  0  0
 31 67  2  0  0  0  0
 32 69  1  0  0  0  0
 32 72  1  0  0  0  0
 33 73  1  0  0  0  0
 33 78  2  0  0  0  0
 34 48  1  0  0  0  0
 34 74  1  0  0  0  0
 34 79  2  0  0  0  0
 35 57  1  0  0  0  0
 35 71  1  0  0  0  0
 35 80  2  0  0  0  0
 36 64  1  0  0  0  0
 36 70  1  0  0  0  0
 36 81  2  0  0  0  0
 37 65  1  0  0  0  0
 37 75  1  0  0  0  0
 37 82  2  0  0  0  0
 38 41  1  0  0  0  0
 39 48  1  0  0  0  0
 40 70  1  0  0  0  0
 41 43  1  0  0  0  0
 42 44  1  0  0  0  0
 42 45  1  0  0  0  0
 43 47  1  0  0  0  0
 44 49  1  0  0  0  0
 45 71  1  0  0  0  0
 46 49  1  0  0  0  0
 46 71  1  0  0  0  0
 47 74  1  0  0  0  0
 48 70  1  0  0  0  0
 49 69  1  0  0  0  0
 51 65  1  0  0  0  0
 52 66  1  0  0  0  0
 53 66  1  0  0  0  0
 54 66  1  0  0  0  0
 55 76  1  0  0  0  0
 56 77  1  0  0  0  0
 58 59  1  0  0  0  0
 59 61  1  0  0  0  0
 60 62  1  0  0  0  0
 60 63  1  0  0  0  0
 61 77  1  0  0  0  0
 62 77  1  0  0  0  0
 63 84  1  0  0  0  0
 64 66  1  0  0  0  0
 64 75  1  0  0  0  0
 65 76  1  0  0  0  0
 68 69  1  0  0  0  0
M  CHG  2  76   1  77   1
M  ISO  4  35 100  57 100  63 101  84 101
M  END
> <Batch ID>
0090

> <Smiles>
CNC(C)C(=O)NC(C(=O)N1Cc2cc([101O:1][101CH2:1]CCN(C)CCCc3cc([100CH2:0][100C:0](=O)N4CCCC(n5nc(-c6ccc(Oc7ccc(F)cc7F)cc6)c(C(N)=O)c5N)C4)c(C)cn3)ccc2CC1C(=O)NC1CCCc2ccccc21)C(C)(C)C

> <Shape>
0.213

> <Color>
0.072

> <Negative vol penalty>
0.000

$$$$

  -OEChem-04052319093D

 87 95  0     1  0  0  0  0  0999 V2000
  -30.3105  -23.6509   13.8934 C   0  0  0  0  0  0  0  0  0  0  0  0
  -29.9310  -23.0473   15.0881 C   0  0  0  0  0  0  0  0  0  0  0  0
  -27.7974  -13.5634   19.9363 C   0  0  0  0  0  0  0  0  0  0  0  0
  -26.7678  -13.7419   22.1146 C   0  0  0  0  0  0  0  0  0  0  0  0
  -30.5158  -25.0290   13.8444 C   0  0  0  0  0  0  0  0  0  0  0  0
  -29.7578  -23.8216   16.2348 C   0  0  0  0  0  0  0  0  0  0  0  0
  -25.6526  -22.9326   20.6916 C   0  0  0  0  0  0  0  0  0  0  0  0
  -27.2545  -12.2876   19.7842 C   0  0  0  0  0  0  0  0  0  0  0  0
  -26.2248  -12.4661   21.9625 C   0  0  0  0  0  0  0  0  0  0  0  0
  -25.7457  -22.3322   21.9465 C   0  0  0  0  0  0  0  0  0  0  0  0
  -23.6150  -11.0476   20.3509 C   0  0  0  0  0  0  0  0  0  0  0  0
  -22.2770  -10.8683   20.7017 C   0  0  0  0  0  0  0  0  0  0  0  0
  -26.0959  -24.4977   22.9499 C   0  0  0  0  0  0  0  0  0  0  0  0
  -29.5216  -22.1162   23.3709 C   0  0  0  0  0  0  0  0  0  0  0  0
  -22.9286   -9.2232   22.3467 C   0  0  0  0  0  0  0  0  0  0  0  0
  -31.5485  -22.4508   24.2926 C   0  0  0  0  0  0  0  0  0  0  0  0
  -27.5541  -14.2906   21.1016 C   0  0  0  0  0  0  0  0  0  0  0  0
  -27.5302  -16.8321   20.8829 C   0  0  0  0  0  0  0  0  0  0  0  0
  -30.3356  -25.8219   14.9888 C   0  0  0  0  0  0  0  0  0  0  0  0
  -25.7916  -24.3212   20.5549 C   0  0  0  0  0  0  0  0  0  0  0  0
  -29.9622  -25.2115   16.2014 C   0  0  0  0  0  0  0  0  0  0  0  0
  -26.0017  -25.1136   21.6926 C   0  0  0  0  0  0  0  0  0  0  0  0
  -30.8302  -22.6009   23.1269 C   0  0  0  0  0  0  0  0  0  0  0  0
  -26.4681  -11.7390   20.7972 C   0  0  0  0  0  0  0  0  0  0  0  0
  -25.9702  -23.1144   23.0755 C   0  0  0  0  0  0  0  0  0  0  0  0
  -24.6099  -10.3146   20.9979 C   0  0  0  0  0  0  0  0  0  0  0  0
  -21.9338   -9.9562   21.6996 C   0  0  0  0  0  0  0  0  0  0  0  0
  -24.2667   -9.4024   21.9958 C   0  0  0  0  0  0  0  0  0  0  0  0
  -28.1152  -15.6083   21.2595 C   0  0  0  0  0  0  0  0  0  0  0  0
  -29.4799  -21.6848   24.6785 C   0  0  0  0  0  0  0  0  0  0  0  0
  -28.4558  -17.7805   21.2437 C   0  0  0  0  0  0  0  0  0  0  0  0
  -26.2633  -17.0886   20.2626 C   0  0  0  0  0  0  0  0  0  0  0  0
  -27.8302  -26.2333   19.0410 C   0  0  0  0  0  0  0  0  0  0  0  0
  -25.7844  -28.5496   20.0268 C   0  0  0  0  0  0  0  0  0  0  0  0
  -23.3999  -29.5538   22.2523 C   0  0  0  0  0  0  0  0  0  0  0  0
  -32.9293  -17.3448   25.4073 C   0  0  0  0  0  0  0  0  0  0  0  0
  -30.6152  -27.3012   14.8984 C   0  0  0  0  0  0  0  0  0  0  0  0
  -25.6620  -24.9564   19.1977 C   0  0  0  0  0  0  0  0  0  0  0  0
  -26.1377  -26.6108   21.6021 C   0  0  0  0  0  0  0  0  0  0  0  0
  -30.0465  -28.1011   16.0676 C   0  0  0  0  0  0  0  0  0  0  0  0
  -33.1531  -18.3992   21.8662 C   0  0  0  0  0  0  0  0  0  0  0  0
  -30.3720  -27.4165   17.3913 C   0  0  0  0  0  0  0  0  0  0  0  0
  -31.8631  -17.8387   21.2696 C   0  0  0  0  0  0  0  0  0  0  0  0
  -33.6356  -17.5711   23.0533 C   0  0  0  0  0  0  0  0  0  0  0  0
  -31.3227  -16.8336   23.5231 C   0  0  0  0  0  0  0  0  0  0  0  0
  -29.7402  -26.0209   17.4606 C   0  0  1  0  0  0  0  0  0  0  0  0
  -26.3321  -26.3243   19.1116 C   0  0  1  0  0  0  0  0  0  0  0  0
  -30.7844  -17.6720   22.3539 C   0  0  2  0  0  0  0  0  0  0  0  0
  -30.7145  -25.6005   22.3538 C   0  0  0  0  0  0  0  0  0  0  0  0
  -31.3174  -22.1178   20.7144 C   0  0  0  0  0  0  0  0  0  0  0  0
  -21.9412  -31.5135   22.8258 C   0  0  0  0  0  0  0  0  0  0  0  0
  -28.1881  -29.9784   21.2477 C   0  0  0  0  0  0  0  0  0  0  0  0
  -26.5933  -31.3722   22.5828 C   0  0  0  0  0  0  0  0  0  0  0  0
  -26.5580  -31.4814   20.0909 C   0  0  0  0  0  0  0  0  0  0  0  0
  -31.9537  -17.2556   27.6700 C   0  0  0  0  0  0  0  0  0  0  0  0
  -20.9265  -27.9894   21.8123 C   0  0  0  0  0  0  0  0  0  0  0  0
  -28.3421  -21.0804   25.4619 C   0  0  0  0  0  0  0  0  0  0  0  0
  -30.5840  -24.4420   21.3724 C   0  0  0  0  0  0  0  0  0  0  0  0
  -27.4797  -22.1127   26.1914 C   0  0  0  0  0  0  0  0  0  0  0  0
  -31.9022  -20.2746   26.7194 C   0  0  0  0  0  0  0  0  0  0  0  0
  -31.1049  -21.5791   26.5868 C   0  0  0  0  0  0  0  0  0  0  0  0
  -31.2049  -19.0436   26.1442 C   0  0  0  0  0  0  0  0  0  0  0  0
  -26.8950  -23.1733   25.2658 C   0  0  0  0  0  0  0  0  0  1  0  0
  -31.3326  -23.1626   21.8586 C   0  0  1  0  0  0  0  0  0  0  0  0
  -25.6671  -29.4209   21.2540 C   0  0  1  0  0  0  0  0  0  0  0  0
  -22.0458  -30.2096   22.0502 C   0  0  2  0  0  0  0  0  0  0  0  0
  -26.7510  -30.5349   21.2956 C   0  0  0  0  0  0  0  0  0  0  0  0
  -29.3194  -15.7622   21.8166 N   0  0  0  0  0  0  0  0  0  0  0  0
  -30.7174  -21.8934   25.2290 N   0  0  0  0  0  0  0  0  0  0  0  0
  -29.4985  -17.0939   21.7927 N   0  0  0  0  0  0  0  0  0  0  0  0
  -26.0098  -27.1842   20.2522 N   0  0  0  0  0  0  0  0  0  0  0  0
  -32.5777  -17.3918   24.0483 N   0  0  0  0  0  0  0  0  0  0  0  0
  -28.4714  -19.1265   21.1415 N   0  0  0  0  0  0  0  0  0  0  0  0
  -25.4350  -15.9994   19.9595 N   0  0  0  0  0  0  0  0  0  0  0  0
  -28.3271  -26.1200   17.7566 N   0  0  0  0  0  0  0  0  0  0  0  0
  -24.2964  -29.9201   21.2707 N   0  0  0  0  0  0  0  0  0  0  0  0
  -31.9852  -17.8220   26.3291 N   0  0  0  0  0  0  0  0  0  0  0  0
  -20.9569  -29.3013   22.5086 N   0  3  0  0  0  0  0  0  0  0  0  0
  -25.8842  -18.2481   19.9703 O   0  0  0  0  0  0  0  0  0  0  0  0
  -28.4869  -26.2651   20.0752 O   0  0  0  0  0  0  0  0  0  0  0  0
  -25.6727  -29.0603   18.9095 O   0  0  0  0  0  0  0  0  0  0  0  0
  -23.6397  -28.7956   23.1894 O   0  0  0  0  0  0  0  0  0  0  0  0
  -34.0284  -16.9104   25.7751 O   0  0  0  0  0  0  0  0  0  0  0  0
  -25.9380  -10.4942   20.6490 O   0  0  0  0  0  0  0  0  0  0  0  0
  -26.0621  -22.5309   24.3014 O   0  0  0  0  0  0  0  0  0  1  0  0
  -20.6489   -9.7853   22.0374 F   0  0  0  0  0  0  0  0  0  0  0  0
  -25.2182   -8.6962   22.6218 F   0  0  0  0  0  0  0  0  0  0  0  0
  1  2  1  0  0  0  0
  1  5  2  0  0  0  0
  2  6  2  0  0  0  0
  3  8  2  0  0  0  0
  3 17  1  0  0  0  0
  4  9  1  0  0  0  0
  4 17  2  0  0  0  0
  5 19  1  0  0  0  0
  6 21  1  0  0  0  0
  7 10  2  0  0  0  0
  7 20  1  0  0  0  0
  8 24  1  0  0  0  0
  9 24  2  0  0  0  0
 10 25  1  0  0  0  0
 11 12  2  0  0  0  0
 11 26  1  0  0  0  0
 12 27  1  0  0  0  0
 13 22  1  0  0  0  0
 13 25  2  0  0  0  0
 14 23  1  0  0  0  0
 14 30  2  0  0  0  0
 15 27  2  0  0  0  0
 15 28  1  0  0  0  0
 16 23  2  0  0  0  0
 16 69  1  0  0  0  0
 17 29  1  0  0  0  0
 18 29  1  0  0  0  0
 18 31  2  0  0  0  0
 18 32  1  0  0  0  0
 19 21  2  0  0  0  0
 19 37  1  0  0  0  0
 20 22  2  0  0  0  0
 20 38  1  0  0  0  0
 21 46  1  0  0  0  0
 22 39  1  0  0  0  0
 23 64  1  0  0  0  0
 24 84  1  0  0  0  0
 25 85  1  0  0  0  0
 26 28  2  0  0  0  0
 26 84  1  0  0  0  0
 27 86  1  0  0  0  0
 28 87  1  0  0  0  0
 29 68  2  0  0  0  0
 30 57  1  0  0  0  0
 30 69  1  0  0  0  0
 31 70  1  0  0  0  0
 31 73  1  0  0  0  0
 32 74  1  0  0  0  0
 32 79  2  0  0  0  0
 33 47  1  0  0  0  0
 33 75  1  0  0  0  0
 33 80  2  0  0  0  0
 34 65  1  0  0  0  0
 34 71  1  0  0  0  0
 34 81  2  0  0  0  0
 35 66  1  0  0  0  0
 35 76  1  0  0  0  0
 35 82  2  0  0  0  0
 36 72  1  0  0  0  0
 36 77  1  0  0  0  0
 36 83  2  0  0  0  0
 37 40  1  0  0  0  0
 38 47  1  0  0  0  0
 39 71  1  0  0  0  0
 40 42  1  0  0  0  0
 41 43  1  0  0  0  0
 41 44  1  0  0  0  0
 42 46  1  0  0  0  0
 43 48  1  0  0  0  0
 44 72  1  0  0  0  0
 45 48  1  0  0  0  0
 45 72  1  0  0  0  0
 46 75  1  0  0  0  0
 47 71  1  0  0  0  0
 48 70  1  0  0  0  0
 49 58  1  0  0  0  0
 50 64  1  0  0  0  0
 51 66  1  0  0  0  0
 52 67  1  0  0  0  0
 53 67  1  0  0  0  0
 54 67  1  0  0  0  0
 55 77  1  0  0  0  0
 56 78  1  0  0  0  0
 57 59  1  0  0  0  0
 58 64  1  0  0  0  0
 59 63  1  0  0  0  0
 60 61  1  0  0  0  0
 60 62  1  0  0  0  0
 61 69  1  0  0  0  0
 62 77  1  0  0  0  0
 63 85  1  0  0  0  0
 65 67  1  0  0  0  0
 65 76  1  0  0  0  0
 66 78  1  0  0  0  0
 68 70  1  0  0  0  0
M  CHG  1  78   1
M  ISO  4  36 100  63 101  77 100  85 101
M  END
> <Batch ID>
0090

> <Smiles>
CCC(C)c1cc(CC[101CH2:1][101O:1]c2ccc3c(c2)CN(C(=O)C(NC(=O)C(C)NC)C(C)(C)C)C(C(=O)NC2CCCc4ccccc42)C3)n(CCC[100N:0](C)[100C:0](=O)N2CCCC(n3nc(-c4ccc(Oc5ccc(F)cc5F)cc4)c(C(N)=O)c3N)C2)c1

> <Shape>
0.205

> <Color>
0.072

> <Negative vol penalty>
0.000

$$$$

  -OEChem-04052319093D

 82 90  0     1  0  0  0  0  0999 V2000
  -27.7872  -24.4972   16.5637 C   0  0  0  0  0  0  0  0  0  0  0  0
  -26.6113  -24.7295   17.2699 C   0  0  0  0  0  0  0  0  0  0  0  0
  -25.1629  -14.3610   20.7602 C   0  0  0  0  0  0  0  0  0  0  0  0
  -23.0307  -15.4961   20.7078 C   0  0  0  0  0  0  0  0  0  0  0  0
  -29.0050  -24.9461   17.0729 C   0  0  0  0  0  0  0  0  0  0  0  0
  -26.6527  -25.4099   18.4864 C   0  0  0  0  0  0  0  0  0  0  0  0
  -23.0239  -28.9209   18.8730 C   0  0  0  0  0  0  0  0  0  0  0  0
  -24.5588  -13.2537   21.3556 C   0  0  0  0  0  0  0  0  0  0  0  0
  -22.4266  -14.3887   21.3032 C   0  0  0  0  0  0  0  0  0  0  0  0
  -21.7372  -28.4763   19.1738 C   0  0  0  0  0  0  0  0  0  0  0  0
  -23.5115   -9.9875   22.5597 C   0  0  0  0  0  0  0  0  0  0  0  0
  -23.8423   -8.7252   22.0670 C   0  0  0  0  0  0  0  0  0  0  0  0
  -22.0689  -29.0963   21.4813 C   0  0  0  0  0  0  0  0  0  0  0  0
  -21.6321  -24.7958   22.0696 C   0  0  0  0  0  0  0  0  0  0  0  0
  -23.0066   -9.3560   19.8897 C   0  0  0  0  0  0  0  0  0  0  0  0
  -20.0155  -23.4655   20.9628 C   0  0  0  0  0  0  0  0  0  0  0  0
  -24.3988  -15.4823   20.4363 C   0  0  0  0  0  0  0  0  0  0  0  0
  -25.1849  -16.8689   18.4446 C   0  0  0  0  0  0  0  0  0  0  0  0
  -29.0603  -25.6409   18.2915 C   0  0  0  0  0  0  0  0  0  0  0  0
  -23.8481  -29.4474   19.8780 C   0  0  0  0  0  0  0  0  0  0  0  0
  -27.8726  -25.8673   19.0130 C   0  0  0  0  0  0  0  0  0  0  0  0
  -23.3647  -29.5493   21.1903 C   0  0  0  0  0  0  0  0  0  0  0  0
  -20.3154  -24.5979   21.6930 C   0  0  0  0  0  0  0  0  0  0  0  0
  -23.1907  -13.2675   21.6271 C   0  0  0  0  0  0  0  0  0  0  0  0
  -21.2605  -28.5613   20.4786 C   0  0  0  0  0  0  0  0  0  0  0  0
  -22.9281  -10.9340   21.7174 C   0  0  0  0  0  0  0  0  0  0  0  0
  -23.5899   -8.4094   20.7320 C   0  0  0  0  0  0  0  0  0  0  0  0
  -22.6757  -10.6183   20.3824 C   0  0  0  0  0  0  0  0  0  0  0  0
  -25.0224  -16.6267   19.8218 C   0  0  0  0  0  0  0  0  0  0  0  0
  -22.5618  -23.8481   21.6914 C   0  0  0  0  0  0  0  0  0  0  0  0
  -25.8301  -18.0798   18.3827 C   0  0  0  0  0  0  0  0  0  0  0  0
  -24.7881  -16.0707   17.3216 C   0  0  0  0  0  0  0  0  0  0  0  0
  -26.6476  -28.6283   21.1412 C   0  0  0  0  0  0  0  0  0  0  0  0
  -26.3142  -31.4391   22.7258 C   0  0  0  0  0  0  0  0  0  0  0  0
  -24.2281  -33.8601   23.9233 C   0  0  0  0  0  0  0  0  0  0  0  0
  -26.1225  -22.7402   22.1305 C   0  0  0  0  0  0  0  0  0  0  0  0
  -30.4057  -26.0653   18.8248 C   0  0  0  0  0  0  0  0  0  0  0  0
  -25.2239  -29.9474   19.5321 C   0  0  0  0  0  0  0  0  0  0  0  0
  -24.2024  -30.1253   22.3015 C   0  0  0  0  0  0  0  0  0  0  0  0
  -30.3188  -27.1067   19.9375 C   0  0  0  0  0  0  0  0  0  0  0  0
  -28.8527  -20.8428   20.8567 C   0  0  0  0  0  0  0  0  0  0  0  0
  -29.2647  -26.7044   20.9642 C   0  0  0  0  0  0  0  0  0  0  0  0
  -28.1953  -19.5690   20.3228 C   0  0  0  0  0  0  0  0  0  0  0  0
  -28.1672  -21.3419   22.1268 C   0  0  0  0  0  0  0  0  0  0  0  0
  -26.0519  -20.2576   21.4762 C   0  0  0  0  0  0  0  0  0  0  0  0
  -27.8737  -26.6235   20.3239 C   0  0  1  0  0  0  0  0  0  0  0  0
  -26.1633  -29.9910   20.7334 C   0  0  1  0  0  0  0  0  0  0  0  0
  -26.6733  -19.7473   20.1648 C   0  0  2  0  0  0  0  0  0  0  0  0
  -18.1972  -24.9401   22.9916 C   0  0  0  0  0  0  0  0  0  0  0  0
  -24.2446  -36.0151   25.2090 C   0  0  0  0  0  0  0  0  0  0  0  0
  -26.7577  -29.8878   25.3155 C   0  0  0  0  0  0  0  0  0  0  0  0
  -25.8358  -31.8504   26.5672 C   0  0  0  0  0  0  0  0  0  0  0  0
  -27.9164  -32.1018   25.2141 C   0  0  0  0  0  0  0  0  0  0  0  0
  -23.0584  -35.3573   21.6542 C   0  0  0  0  0  0  0  0  0  0  0  0
  -23.9930  -24.0135   22.0720 C   0  0  0  0  0  0  0  0  0  0  0  0
  -18.5407  -26.2272   20.8484 C   0  0  0  0  0  0  0  0  0  0  0  0
  -19.4835  -27.0598   19.9848 C   0  0  0  0  0  0  0  0  0  1  0  0
  -19.2339  -25.5952   22.0710 C   0  0  2  0  0  0  0  0  0  0  0  0
  -25.6928  -31.8609   24.0353 C   0  0  1  0  0  0  0  0  0  0  0  0
  -24.2842  -35.3742   23.8304 C   0  0  2  0  0  0  0  0  0  0  0  0
  -26.5353  -31.4126   25.2627 C   0  0  0  0  0  0  0  0  0  0  0  0
  -20.9458  -22.5546   20.6064 N   0  0  0  0  0  0  0  0  0  0  0  0
  -25.5240  -17.6051   20.5801 N   0  0  0  0  0  0  0  0  0  0  0  0
  -22.2399  -22.7490   20.9770 N   0  0  0  0  0  0  0  0  0  0  0  0
  -26.0082  -18.4738   19.6763 N   0  0  0  0  0  0  0  0  0  0  0  0
  -25.5430  -30.5948   21.9144 N   0  0  0  0  0  0  0  0  0  0  0  0
  -26.7263  -21.4914   21.9094 N   0  0  0  0  0  0  0  0  0  0  0  0
  -26.2569  -18.8353   17.3486 N   0  0  0  0  0  0  0  0  0  0  0  0
  -24.1354  -14.8542   17.5638 N   0  0  0  0  0  0  0  0  0  0  0  0
  -27.3220  -27.9493   20.1444 N   0  0  0  0  0  0  0  0  0  0  0  0
  -25.4891  -33.3027   23.9449 N   0  0  0  0  0  0  0  0  0  0  0  0
  -24.7543  -22.7970   21.8949 N   0  0  0  0  0  0  0  0  0  0  0  0
  -23.1298  -35.8878   23.0400 N   0  3  0  0  0  0  0  0  0  0  0  0
  -25.0204  -16.4178   16.1388 O   0  0  0  0  0  0  0  0  0  0  0  0
  -26.4272  -28.2236   22.2767 O   0  0  0  0  0  0  0  0  0  0  0  0
  -27.4393  -31.8495   22.4303 O   0  0  0  0  0  0  0  0  0  0  0  0
  -23.1715  -33.2346   23.9756 O   0  0  0  0  0  0  0  0  0  0  0  0
  -26.7567  -23.7325   22.5048 O   0  0  0  0  0  0  0  0  0  0  0  0
  -22.6009  -12.1870   22.2078 O   0  0  0  0  0  0  0  0  0  0  0  0
  -20.0052  -28.1274   20.7751 O   0  0  0  0  0  0  0  0  0  1  0  0
  -23.9091   -7.1977   20.2586 F   0  0  0  0  0  0  0  0  0  0  0  0
  -22.1165  -11.5238   19.5681 F   0  0  0  0  0  0  0  0  0  0  0  0
  1  2  1  0  0  0  0
  1  5  2  0  0  0  0
  2  6  2  0  0  0  0
  3  8  2  0  0  0  0
  3 17  1  0  0  0  0
  4  9  1  0  0  0  0
  4 17  2  0  0  0  0
  5 19  1  0  0  0  0
  6 21  1  0  0  0  0
  7 10  2  0  0  0  0
  7 20  1  0  0  0  0
  8 24  1  0  0  0  0
  9 24  2  0  0  0  0
 10 25  1  0  0  0  0
 11 12  2  0  0  0  0
 11 26  1  0  0  0  0
 12 27  1  0  0  0  0
 13 22  1  0  0  0  0
 13 25  2  0  0  0  0
 14 23  2  0  0  0  0
 14 30  1  0  0  0  0
 15 27  2  0  0  0  0
 15 28  1  0  0  0  0
 16 23  1  0  0  0  0
 16 62  2  0  0  0  0
 17 29  1  0  0  0  0
 18 29  1  0  0  0  0
 18 31  2  0  0  0  0
 18 32  1  0  0  0  0
 19 21  2  0  0  0  0
 19 37  1  0  0  0  0
 20 22  2  0  0  0  0
 20 38  1  0  0  0  0
 21 46  1  0  0  0  0
 22 39  1  0  0  0  0
 23 58  1  0  0  0  0
 24 79  1  0  0  0  0
 25 80  1  0  0  0  0
 26 28  2  0  0  0  0
 26 79  1  0  0  0  0
 27 81  1  0  0  0  0
 28 82  1  0  0  0  0
 29 63  2  0  0  0  0
 30 55  1  0  0  0  0
 30 64  2  0  0  0  0
 31 65  1  0  0  0  0
 31 68  1  0  0  0  0
 32 69  1  0  0  0  0
 32 74  2  0  0  0  0
 33 47  1  0  0  0  0
 33 70  1  0  0  0  0
 33 75  2  0  0  0  0
 34 59  1  0  0  0  0
 34 66  1  0  0  0  0
 34 76  2  0  0  0  0
 35 60  1  0  0  0  0
 35 71  1  0  0  0  0
 35 77  2  0  0  0  0
 36 67  1  0  0  0  0
 36 72  1  0  0  0  0
 36 78  2  0  0  0  0
 37 40  1  0  0  0  0
 38 47  1  0  0  0  0
 39 66  1  0  0  0  0
 40 42  1  0  0  0  0
 41 43  1  0  0  0  0
 41 44  1  0  0  0  0
 42 46  1  0  0  0  0
 43 48  1  0  0  0  0
 44 67  1  0  0  0  0
 45 48  1  0  0  0  0
 45 67  1  0  0  0  0
 46 70  1  0  0  0  0
 47 66  1  0  0  0  0
 48 65  1  0  0  0  0
 49 58  1  0  0  0  0
 50 60  1  0  0  0  0
 51 61  1  0  0  0  0
 52 61  1  0  0  0  0
 53 61  1  0  0  0  0
 54 73  1  0  0  0  0
 55 72  1  0  0  0  0
 56 57  1  0  0  0  0
 56 58  1  0  0  0  0
 57 80  1  0  0  0  0
 59 61  1  0  0  0  0
 59 71  1  0  0  0  0
 60 73  1  0  0  0  0
 62 64  1  0  0  0  0
 63 65  1  0  0  0  0
M  CHG  1  73   1
M  ISO  4  36 100  57 101  72 100  80 101
M  END
> <Batch ID>
0090

> <Smiles>
CNC(C)C(=O)NC(C(=O)N1Cc2cc([101O:1][101CH2:1]CC(C)c3cnnc(C[100NH:0][100C:0](=O)N4CCCC(n5nc(-c6ccc(Oc7ccc(F)cc7F)cc6)c(C(N)=O)c5N)C4)c3)ccc2CC1C(=O)NC1CCCc2ccccc21)C(C)(C)C

> <Shape>
0.292

> <Color>
0.068

> <Negative vol penalty>
0.000

$$$$

  -OEChem-04052319093D

 90 98  0     1  0  0  0  0  0999 V2000
  -21.3262  -27.4329   15.8506 C   0  0  0  0  0  0  0  0  0  0  0  0
  -21.8252  -26.6276   16.8693 C   0  0  0  0  0  0  0  0  0  0  0  0
  -23.8467  -10.0095   22.1501 C   0  0  0  0  0  0  0  0  0  0  0  0
  -22.2825  -10.4723   20.3679 C   0  0  0  0  0  0  0  0  0  0  0  0
  -21.6279  -28.7939   15.8283 C   0  0  0  0  0  0  0  0  0  0  0  0
  -22.6273  -27.1827   17.8658 C   0  0  0  0  0  0  0  0  0  0  0  0
  -21.3418  -25.5995   22.5011 C   0  0  0  0  0  0  0  0  0  0  0  0
  -23.3754   -8.6988   22.2234 C   0  0  0  0  0  0  0  0  0  0  0  0
  -21.8113   -9.1615   20.4411 C   0  0  0  0  0  0  0  0  0  0  0  0
  -21.7656  -24.3263   22.8794 C   0  0  0  0  0  0  0  0  0  0  0  0
  -20.7137   -7.0789   23.5333 C   0  0  0  0  0  0  0  0  0  0  0  0
  -20.4628   -6.5510   24.7998 C   0  0  0  0  0  0  0  0  0  0  0  0
  -23.5856  -25.3078   24.1218 C   0  0  0  0  0  0  0  0  0  0  0  0
  -22.0830   -4.8055   24.3933 C   0  0  0  0  0  0  0  0  0  0  0  0
  -23.3002  -10.8963   21.2224 C   0  0  0  0  0  0  0  0  0  0  0  0
  -24.8398  -12.7322   20.3467 C   0  0  0  0  0  0  0  0  0  0  0  0
  -22.4261  -29.3678   16.8303 C   0  0  0  0  0  0  0  0  0  0  0  0
  -22.0443  -26.7378   22.9221 C   0  0  0  0  0  0  0  0  0  0  0  0
  -22.9411  -28.5524   17.8561 C   0  0  0  0  0  0  0  0  0  0  0  0
  -23.1671  -26.5944   23.7496 C   0  0  0  0  0  0  0  0  0  0  0  0
  -28.2814  -22.9053   23.5481 C   0  0  0  0  0  0  0  0  0  0  0  0
  -22.3577   -8.2747   21.3689 C   0  0  0  0  0  0  0  0  0  0  0  0
  -22.8893  -24.1801   23.6875 C   0  0  0  0  0  0  0  0  0  0  0  0
  -21.6492   -6.4700   22.6967 C   0  0  0  0  0  0  0  0  0  0  0  0
  -21.1474   -5.4144   25.2298 C   0  0  0  0  0  0  0  0  0  0  0  0
  -22.3339   -5.3333   23.1267 C   0  0  0  0  0  0  0  0  0  0  0  0
  -23.7862  -12.2506   21.1466 C   0  0  0  0  0  0  0  0  0  0  0  0
  -28.9067  -23.2020   22.3223 C   0  0  0  0  0  0  0  0  0  0  0  0
  -27.4874  -21.8185   23.2743 C   0  0  0  0  0  0  0  0  0  0  0  0
  -24.9054  -14.0732   20.6362 C   0  0  0  0  0  0  0  0  0  0  0  0
  -25.6837  -12.0301   19.4244 C   0  0  0  0  0  0  0  0  0  0  0  0
  -23.6235  -29.0709   21.4503 C   0  0  0  0  0  0  0  0  0  0  0  0
  -23.8223  -30.2975   24.4467 C   0  0  0  0  0  0  0  0  0  0  0  0
  -23.7873  -29.7406   27.8135 C   0  0  0  0  0  0  0  0  0  0  0  0
  -22.4156  -18.9902   21.5135 C   0  0  0  0  0  0  0  0  0  0  0  0
  -22.7641  -30.8348   16.7378 C   0  0  0  0  0  0  0  0  0  0  0  0
  -21.5586  -28.1055   22.5274 C   0  0  0  0  0  0  0  0  0  0  0  0
  -23.9443  -27.7856   24.2452 C   0  0  0  0  0  0  0  0  0  0  0  0
  -23.3123  -31.4167   18.0382 C   0  0  0  0  0  0  0  0  0  0  0  0
  -22.6642  -16.7674   24.2838 C   0  0  0  0  0  0  0  0  0  0  0  0
  -24.3787  -30.4981   18.6263 C   0  0  0  0  0  0  0  0  0  0  0  0
  -23.0589  -15.4333   23.6480 C   0  0  0  0  0  0  0  0  0  0  0  0
  -21.6982  -17.5509   23.3978 C   0  0  0  0  0  0  0  0  0  0  0  0
  -22.5556  -16.4292   21.3778 C   0  0  0  0  0  0  0  0  0  0  0  0
  -23.7941  -29.1224   18.9686 C   0  0  1  0  0  0  0  0  0  0  0  0
  -22.6507  -29.1688   22.5912 C   0  0  1  0  0  0  0  0  0  0  0  0
  -23.5726  -15.6282   22.2087 C   0  0  2  0  0  0  0  0  0  0  0  0
  -28.4400  -23.6018   24.8365 C   0  0  0  0  0  0  0  0  0  0  0  0
  -28.1978  -25.7138   20.7524 C   0  0  0  0  0  0  0  0  0  0  0  0
  -24.0119  -30.9333   30.0099 C   0  0  0  0  0  0  0  0  0  0  0  0
  -24.6154  -21.5669   17.8578 C   0  0  0  0  0  0  0  0  0  0  0  0
  -26.8409  -30.4758   24.0385 C   0  0  0  0  0  0  0  0  0  0  0  0
  -27.0892  -30.7521   26.5144 C   0  0  0  0  0  0  0  0  0  0  0  0
  -25.8259  -32.4488   25.1924 C   0  0  0  0  0  0  0  0  0  0  0  0
  -21.0585  -28.9574   28.6498 C   0  0  0  0  0  0  0  0  0  0  0  0
  -26.5547  -19.0942   18.3945 C   0  0  0  0  0  0  0  0  0  0  0  0
  -29.8695  -24.2803   22.0366 C   0  0  0  0  0  0  0  0  0  0  0  0
  -26.5605  -21.0163   24.1523 C   0  0  0  0  0  0  0  0  0  0  0  0
  -29.1942  -25.6610   21.8997 C   0  0  0  0  0  0  0  0  0  0  0  0
  -25.0788  -21.3274   23.9301 C   0  0  0  0  0  0  0  0  0  0  0  0
  -27.0590  -20.4822   21.1895 C   0  0  0  0  0  0  0  0  0  0  0  0
  -23.1853  -20.2970   19.5492 C   0  0  0  0  0  0  0  0  0  0  0  0
  -26.2560  -20.9787   19.9944 C   0  0  0  0  0  0  0  0  0  0  0  0
  -24.7037  -22.7622   24.2822 C   0  0  0  0  0  0  0  0  0  1  0  0
  -24.7998  -30.1727   25.5903 C   0  0  1  0  0  0  0  0  0  0  0  0
  -23.0492  -30.4375   28.9421 C   0  0  2  0  0  0  0  0  0  0  0  0
  -24.3528  -20.2449   18.5662 C   0  0  2  0  0  0  0  0  0  0  0  0
  -26.1257  -30.9396   25.3231 C   0  0  0  0  0  0  0  0  0  0  0  0
  -23.2231  -13.2079   21.8886 N   0  0  0  0  0  0  0  0  0  0  0  0
  -28.5415  -22.3708   21.3426 N   0  0  0  0  0  0  0  0  0  0  0  0
  -27.6782  -21.5410   21.9527 N   0  0  0  0  0  0  0  0  0  0  0  0
  -23.9255  -14.3043   21.5563 N   0  0  0  0  0  0  0  0  0  0  0  0
  -23.4335  -29.1015   23.8269 N   0  0  0  0  0  0  0  0  0  0  0  0
  -22.2455  -17.7021   22.0474 N   0  0  0  0  0  0  0  0  0  0  0  0
  -25.7052  -15.0655   20.1910 N   0  0  0  0  0  0  0  0  0  0  0  0
  -25.4804  -10.6548   19.2467 N   0  0  0  0  0  0  0  0  0  0  0  0
  -23.0408  -29.1861   20.2027 N   0  0  0  0  0  0  0  0  0  0  0  0
  -24.0872  -30.6098   26.7860 N   0  0  0  0  0  0  0  0  0  0  0  0
  -22.9460  -19.0443   20.2304 N   0  0  0  0  0  0  0  0  0  0  0  0
  -22.0790  -29.5039   29.5809 N   0  3  0  0  0  0  0  0  0  0  0  0
  -25.6064  -19.8389   19.3020 N   0  3  1  0  0  0  0  0  0  0  0  0
  -26.6018  -12.6021   18.7893 O   0  0  0  0  0  0  0  0  0  0  0  0
  -24.8148  -28.9047   21.6847 O   0  0  0  0  0  0  0  0  0  0  0  0
  -23.4132  -31.4145   24.1201 O   0  0  0  0  0  0  0  0  0  0  0  0
  -24.0728  -28.5455   27.8423 O   0  0  0  0  0  0  0  0  0  0  0  0
  -22.1218  -20.0161   22.1364 O   0  0  0  0  0  0  0  0  0  0  0  0
  -21.8978   -6.9957   21.4399 O   0  0  0  0  0  0  0  0  0  0  0  0
  -23.3055  -22.9385   24.0576 O   0  0  0  0  0  0  0  0  0  1  0  0
  -20.9075   -4.9085   26.4467 F   0  0  0  0  0  0  0  0  0  0  0  0
  -23.2346   -4.7447   22.3280 F   0  0  0  0  0  0  0  0  0  0  0  0
  1  2  1  0  0  0  0
  1  5  2  0  0  0  0
  2  6  2  0  0  0  0
  3  8  2  0  0  0  0
  3 15  1  0  0  0  0
  4  9  1  0  0  0  0
  4 15  2  0  0  0  0
  5 17  1  0  0  0  0
  6 19  1  0  0  0  0
  7 10  2  0  0  0  0
  7 18  1  0  0  0  0
  8 22  1  0  0  0  0
  9 22  2  0  0  0  0
 10 23  1  0  0  0  0
 11 12  2  0  0  0  0
 11 24  1  0  0  0  0
 12 25  1  0  0  0  0
 13 20  1  0  0  0  0
 13 23  2  0  0  0  0
 14 25  2  0  0  0  0
 14 26  1  0  0  0  0
 15 27  1  0  0  0  0
 16 27  1  0  0  0  0
 16 30  2  0  0  0  0
 16 31  1  0  0  0  0
 17 19  2  0  0  0  0
 17 36  1  0  0  0  0
 18 20  2  0  0  0  0
 18 37  1  0  0  0  0
 19 45  1  0  0  0  0
 20 38  1  0  0  0  0
 21 28  1  0  0  0  0
 21 29  2  0  0  0  0
 21 48  1  0  0  0  0
 22 87  1  0  0  0  0
 23 88  1  0  0  0  0
 24 26  2  0  0  0  0
 24 87  1  0  0  0  0
 25 89  1  0  0  0  0
 26 90  1  0  0  0  0
 27 69  2  0  0  0  0
 28 57  1  0  0  0  0
 28 70  2  0  0  0  0
 29 58  1  0  0  0  0
 29 71  1  0  0  0  0
 30 72  1  0  0  0  0
 30 75  1  0  0  0  0
 31 76  1  0  0  0  0
 31 82  2  0  0  0  0
 32 46  1  0  0  0  0
 32 77  1  0  0  0  0
 32 83  2  0  0  0  0
 33 65  1  0  0  0  0
 33 73  1  0  0  0  0
 33 84  2  0  0  0  0
 34 66  1  0  0  0  0
 34 78  1  0  0  0  0
 34 85  2  0  0  0  0
 35 74  1  0  0  0  0
 35 79  1  0  0  0  0
 35 86  2  0  0  0  0
 36 39  1  0  0  0  0
 37 46  1  0  0  0  0
 38 73  1  0  0  0  0
 39 41  1  0  0  0  0
 40 42  1  0  0  0  0
 40 43  1  0  0  0  0
 41 45  1  0  0  0  0
 42 47  1  0  0  0  0
 43 74  1  0  0  0  0
 44 47  1  0  0  0  0
 44 74  1  0  0  0  0
 45 77  1  0  0  0  0
 46 73  1  0  0  0  0
 47 72  1  0  0  0  0
 49 59  1  0  0  0  0
 50 66  1  0  0  0  0
 51 67  1  0  0  0  0
 52 68  1  0  0  0  0
 53 68  1  0  0  0  0
 54 68  1  0  0  0  0
 55 80  1  0  0  0  0
 56 81  1  0  0  0  0
 57 59  1  0  0  0  0
 58 60  1  0  0  0  0
 60 64  1  0  0  0  0
 61 63  1  0  0  0  0
 61 71  1  0  0  0  0
 62 67  1  0  0  0  0
 62 79  1  0  0  0  0
 63 81  1  0  0  0  0
 64 88  1  0  0  0  0
 65 68  1  0  0  0  0
 65 78  1  0  0  0  0
 66 80  1  0  0  0  0
 67 81  1  0  0  0  0
 69 72  1  0  0  0  0
 70 71  1  0  0  0  0
M  CHG  2  80   1  81   1
M  ISO  4  35 100  64 101  79 100  88 101
M  END
> <Batch ID>
0090

> <Smiles>
CCCc1nn(CCN(C)C(C)C[100NH:0][100C:0](=O)N2CCCC(n3nc(-c4ccc(Oc5ccc(F)cc5F)cc4)c(C(N)=O)c3N)C2)c(CC[101CH2:1][101O:1]c2ccc3c(c2)CN(C(=O)C(NC(=O)C(C)NC)C(C)(C)C)C(C(=O)NC2CCCc4ccccc42)C3)c1C

> <Shape>
0.215

> <Color>
0.105

> <Negative vol penalty>
0.000

$$$$

  -OEChem-04052319093D

 86 94  0     1  0  0  0  0  0999 V2000
  -21.9715  -11.0309   19.1973 C   0  0  0  0  0  0  0  0  0  0  0  0
  -21.6053  -12.3477   19.4564 C   0  0  0  0  0  0  0  0  0  0  0  0
  -26.6114  -25.0181   20.0524 C   0  0  0  0  0  0  0  0  0  0  0  0
  -28.0119  -26.0097   21.7531 C   0  0  0  0  0  0  0  0  0  0  0  0
  -23.2349  -10.5737   19.5696 C   0  0  0  0  0  0  0  0  0  0  0  0
  -22.5020  -13.2080   20.0891 C   0  0  0  0  0  0  0  0  0  0  0  0
  -23.1564  -19.2171   19.1049 C   0  0  0  0  0  0  0  0  0  0  0  0
  -27.0737  -23.7517   20.4100 C   0  0  0  0  0  0  0  0  0  0  0  0
  -28.4743  -24.7432   22.1108 C   0  0  0  0  0  0  0  0  0  0  0  0
  -22.6736  -20.3364   19.7814 C   0  0  0  0  0  0  0  0  0  0  0  0
  -27.3722  -22.1104   23.9202 C   0  0  0  0  0  0  0  0  0  0  0  0
  -27.4417  -21.8077   25.2800 C   0  0  0  0  0  0  0  0  0  0  0  0
  -19.8177  -26.1461   23.5017 C   0  0  0  0  0  0  0  0  0  0  0  0
  -19.5655  -27.5400   23.4754 C   0  0  0  0  0  0  0  0  0  0  0  0
  -24.7531  -20.4931   20.9939 C   0  0  0  0  0  0  0  0  0  0  0  0
  -29.8206  -21.4382   25.0762 C   0  0  0  0  0  0  0  0  0  0  0  0
  -27.0805  -26.1472   20.7239 C   0  0  0  0  0  0  0  0  0  0  0  0
  -26.7208  -28.0798   19.0981 C   0  0  0  0  0  0  0  0  0  0  0  0
  -24.1511  -11.4315   20.1985 C   0  0  0  0  0  0  0  0  0  0  0  0
  -24.4393  -18.7200   19.3761 C   0  0  0  0  0  0  0  0  0  0  0  0
  -23.7784  -12.7615   20.4714 C   0  0  0  0  0  0  0  0  0  0  0  0
  -25.2509  -19.3689   20.3176 C   0  0  0  0  0  0  0  0  0  0  0  0
  -28.0051  -23.6142   21.4392 C   0  0  0  0  0  0  0  0  0  0  0  0
  -23.4708  -20.9729   20.7282 C   0  0  0  0  0  0  0  0  0  0  0  0
  -28.5268  -22.0769   23.1383 C   0  0  0  0  0  0  0  0  0  0  0  0
  -28.6659  -21.4716   25.8580 C   0  0  0  0  0  0  0  0  0  0  0  0
  -29.7510  -21.7409   23.7163 C   0  0  0  0  0  0  0  0  0  0  0  0
  -26.6037  -27.4557   20.3546 C   0  0  0  0  0  0  0  0  0  0  0  0
  -19.7527  -25.6917   22.2031 C   0  0  0  0  0  0  0  0  0  0  0  0
  -19.3539  -27.8949   22.1614 C   0  0  0  0  0  0  0  0  0  0  0  0
  -26.1133  -29.3006   19.2632 C   0  0  0  0  0  0  0  0  0  0  0  0
  -27.3245  -27.5989   17.8898 C   0  0  0  0  0  0  0  0  0  0  0  0
  -25.5912  -15.9811   20.5053 C   0  0  0  0  0  0  0  0  0  0  0  0
  -28.4491  -17.3388   19.7900 C   0  0  0  0  0  0  0  0  0  0  0  0
  -30.2542  -20.1884   19.2722 C   0  0  0  0  0  0  0  0  0  0  0  0
  -21.8993  -31.2824   23.0269 C   0  0  0  0  0  0  0  0  0  0  0  0
  -25.4880  -10.8789   20.6250 C   0  0  0  0  0  0  0  0  0  0  0  0
  -24.9555  -17.5276   18.6184 C   0  0  0  0  0  0  0  0  0  0  0  0
  -26.6431  -18.8870   20.6306 C   0  0  0  0  0  0  0  0  0  0  0  0
  -26.5164  -11.9581   20.9538 C   0  0  0  0  0  0  0  0  0  0  0  0
  -25.1805  -32.5978   22.6022 C   0  0  0  0  0  0  0  0  0  0  0  0
  -25.8976  -13.0318   21.8432 C   0  0  0  0  0  0  0  0  0  0  0  0
  -25.9279  -31.4854   21.8646 C   0  0  0  0  0  0  0  0  0  0  0  0
  -24.1854  -32.0343   23.6142 C   0  0  0  0  0  0  0  0  0  0  0  0
  -23.9761  -29.9438   22.3259 C   0  0  0  0  0  0  0  0  0  0  0  0
  -24.7324  -13.7319   21.1334 C   0  0  1  0  0  0  0  0  0  0  0  0
  -26.0824  -16.8000   19.3452 C   0  0  1  0  0  0  0  0  0  0  0  0
  -24.9509  -30.4623   21.2548 C   0  0  2  0  0  0  0  0  0  0  0  0
  -18.8599  -23.3480   22.1959 C   0  0  0  0  0  0  0  0  0  0  0  0
  -17.5301  -29.4634   21.4283 C   0  0  0  0  0  0  0  0  0  0  0  0
  -32.5755  -20.9807   18.7419 C   0  0  0  0  0  0  0  0  0  0  0  0
  -18.1328  -25.8344   19.5413 C   0  0  0  0  0  0  0  0  0  0  0  0
  -20.6091  -26.2775   19.2616 C   0  0  0  0  0  0  0  0  0  0  0  0
  -29.2977  -16.7692   22.6650 C   0  0  0  0  0  0  0  0  0  0  0  0
  -31.1836  -18.3866   22.3550 C   0  0  0  0  0  0  0  0  0  0  0  0
  -31.0635  -16.3292   20.9494 C   0  0  0  0  0  0  0  0  0  0  0  0
  -29.3675  -21.4675   16.7550 C   0  0  0  0  0  0  0  0  0  0  0  0
  -21.3431  -23.7129   21.9339 C   0  0  0  0  0  0  0  0  0  0  0  0
  -19.6769  -30.4085   22.3517 C   0  0  0  0  0  0  0  0  0  0  0  0
  -21.6837  -22.5053   21.0657 C   0  0  0  0  0  0  0  0  0  1  0  0
  -19.9419  -24.2889   21.6522 C   0  0  2  0  0  0  0  0  0  0  0  0
  -19.0515  -29.2169   21.5751 C   0  0  1  0  0  0  0  0  0  0  0  0
  -29.4318  -18.2142   20.5295 C   0  0  1  0  0  0  0  0  0  0  0  0
  -31.2235  -20.5807   18.1718 C   0  0  2  0  0  0  0  0  0  0  0  0
  -19.3171  -26.7087   19.9583 C   0  0  0  0  0  0  0  0  0  0  0  0
  -30.2172  -17.4330   21.6205 C   0  0  0  0  0  0  0  0  0  0  0  0
  -25.9718  -28.2172   21.2517 N   0  0  0  0  0  0  0  0  0  0  0  0
  -19.4698  -26.7634   21.3970 N   0  0  0  0  0  0  0  0  0  0  0  0
  -25.6864  -29.3324   20.5581 N   0  0  0  0  0  0  0  0  0  0  0  0
  -27.1003  -17.7136   19.8680 N   0  0  0  0  0  0  0  0  0  0  0  0
  -23.2870  -31.0719   22.9718 N   0  0  0  0  0  0  0  0  0  0  0  0
  -25.9082  -30.3392   18.4256 N   0  0  0  0  0  0  0  0  0  0  0  0
  -28.6830  -27.8643   17.6702 N   0  0  0  0  0  0  0  0  0  0  0  0
  -25.2300  -14.6902   20.1698 N   0  0  0  0  0  0  0  0  0  0  0  0
  -30.2758  -18.8306   19.5116 N   0  0  0  0  0  0  0  0  0  0  0  0
  -21.1200  -30.3263   22.3872 N   0  0  0  0  0  0  0  0  0  0  0  0
  -30.6838  -21.7301   17.3916 N   0  3  0  0  0  0  0  0  0  0  0  0
  -26.6743  -26.9672   17.0228 O   0  0  0  0  0  0  0  0  0  0  0  0
  -25.5449  -16.4828   21.6223 O   0  0  0  0  0  0  0  0  0  0  0  0
  -28.8638  -16.3625   19.1602 O   0  0  0  0  0  0  0  0  0  0  0  0
  -29.5512  -21.0051   19.8631 O   0  0  0  0  0  0  0  0  0  0  0  0
  -21.3927  -32.2535   23.5989 O   0  0  0  0  0  0  0  0  0  0  0  0
  -28.4563  -22.3785   21.7886 O   0  0  0  0  0  0  0  0  0  0  0  0
  -23.0018  -22.0653   21.3904 O   0  0  0  0  0  0  0  0  0  1  0  0
  -28.7328  -21.1825   27.1642 F   0  0  0  0  0  0  0  0  0  0  0  0
  -30.8639  -21.7083   22.9705 F   0  0  0  0  0  0  0  0  0  0  0  0
  1  2  1  0  0  0  0
  1  5  2  0  0  0  0
  2  6  2  0  0  0  0
  3  8  2  0  0  0  0
  3 17  1  0  0  0  0
  4  9  1  0  0  0  0
  4 17  2  0  0  0  0
  5 19  1  0  0  0  0
  6 21  1  0  0  0  0
  7 10  2  0  0  0  0
  7 20  1  0  0  0  0
  8 23  1  0  0  0  0
  9 23  2  0  0  0  0
 10 24  1  0  0  0  0
 11 12  2  0  0  0  0
 11 25  1  0  0  0  0
 12 26  1  0  0  0  0
 13 14  1  0  0  0  0
 13 29  2  0  0  0  0
 14 30  2  0  0  0  0
 15 22  1  0  0  0  0
 15 24  2  0  0  0  0
 16 26  2  0  0  0  0
 16 27  1  0  0  0  0
 17 28  1  0  0  0  0
 18 28  1  0  0  0  0
 18 31  2  0  0  0  0
 18 32  1  0  0  0  0
 19 21  2  0  0  0  0
 19 37  1  0  0  0  0
 20 22  2  0  0  0  0
 20 38  1  0  0  0  0
 21 46  1  0  0  0  0
 22 39  1  0  0  0  0
 23 83  1  0  0  0  0
 24 84  1  0  0  0  0
 25 27  2  0  0  0  0
 25 83  1  0  0  0  0
 26 85  1  0  0  0  0
 27 86  1  0  0  0  0
 28 67  2  0  0  0  0
 29 61  1  0  0  0  0
 29 68  1  0  0  0  0
 30 62  1  0  0  0  0
 30 68  1  0  0  0  0
 31 69  1  0  0  0  0
 31 72  1  0  0  0  0
 32 73  1  0  0  0  0
 32 78  2  0  0  0  0
 33 47  1  0  0  0  0
 33 74  1  0  0  0  0
 33 79  2  0  0  0  0
 34 63  1  0  0  0  0
 34 70  1  0  0  0  0
 34 80  2  0  0  0  0
 35 64  1  0  0  0  0
 35 75  1  0  0  0  0
 35 81  2  0  0  0  0
 36 71  1  0  0  0  0
 36 76  1  0  0  0  0
 36 82  2  0  0  0  0
 37 40  1  0  0  0  0
 38 47  1  0  0  0  0
 39 70  1  0  0  0  0
 40 42  1  0  0  0  0
 41 43  1  0  0  0  0
 41 44  1  0  0  0  0
 42 46  1  0  0  0  0
 43 48  1  0  0  0  0
 44 71  1  0  0  0  0
 45 48  1  0  0  0  0
 45 71  1  0  0  0  0
 46 74  1  0  0  0  0
 47 70  1  0  0  0  0
 48 69  1  0  0  0  0
 49 61  1  0  0  0  0
 50 62  1  0  0  0  0
 51 64  1  0  0  0  0
 52 65  1  0  0  0  0
 53 65  1  0  0  0  0
 54 66  1  0  0  0  0
 55 66  1  0  0  0  0
 56 66  1  0  0  0  0
 57 77  1  0  0  0  0
 58 60  1  0  0  0  0
 58 61  1  0  0  0  0
 59 62  1  0  0  0  0
 59 76  1  0  0  0  0
 60 84  1  0  0  0  0
 63 66  1  0  0  0  0
 63 75  1  0  0  0  0
 64 77  1  0  0  0  0
 65 68  1  0  0  0  0
 67 69  1  0  0  0  0
M  CHG  1  77   1
M  ISO  4  36 100  60 101  76 100  84 101
M  END
> <Batch ID>
0090

> <Smiles>
CNC(C)C(=O)NC(C(=O)N1Cc2cc([101O:1][101CH2:1]CC(C)c3ccc(C(C)C[100NH:0][100C:0](=O)N4CCCC(n5nc(-c6ccc(Oc7ccc(F)cc7F)cc6)c(C(N)=O)c5N)C4)n3C(C)C)ccc2CC1C(=O)NC1CCCc2ccccc21)C(C)(C)C

> <Shape>
0.227

> <Color>
0.077

> <Negative vol penalty>
0.000

$$$$

  -OEChem-04052319093D

 81 89  0     1  0  0  0  0  0999 V2000
  -29.8019  -12.6483   20.2712 C   0  0  0  0  0  0  0  0  0  0  0  0
  -29.7293  -14.0285   20.4296 C   0  0  0  0  0  0  0  0  0  0  0  0
  -28.9924  -25.7454   21.0748 C   0  0  0  0  0  0  0  0  0  0  0  0
  -27.0373  -24.5647   20.2872 C   0  0  0  0  0  0  0  0  0  0  0  0
  -28.8025  -11.9747   19.5702 C   0  0  0  0  0  0  0  0  0  0  0  0
  -28.6576  -14.7361   19.8862 C   0  0  0  0  0  0  0  0  0  0  0  0
  -24.5545  -20.4758   21.1260 C   0  0  0  0  0  0  0  0  0  0  0  0
  -29.6071  -24.5291   21.3723 C   0  0  0  0  0  0  0  0  0  0  0  0
  -27.6520  -23.3484   20.5845 C   0  0  0  0  0  0  0  0  0  0  0  0
  -24.1058  -21.6355   20.4955 C   0  0  0  0  0  0  0  0  0  0  0  0
  -28.8475  -19.9217   20.8007 C   0  0  0  0  0  0  0  0  0  0  0  0
  -28.7654  -18.9034   19.8511 C   0  0  0  0  0  0  0  0  0  0  0  0
  -22.3965  -20.3563   19.3724 C   0  0  0  0  0  0  0  0  0  0  0  0
  -29.8982  -20.3092   18.2456 C   0  0  0  0  0  0  0  0  0  0  0  0
  -19.5576  -27.6680   19.9658 C   0  0  0  0  0  0  0  0  0  0  0  0
  -27.7075  -25.7632   20.5323 C   0  0  0  0  0  0  0  0  0  0  0  0
  -27.1326  -27.7284   19.0109 C   0  0  0  0  0  0  0  0  0  0  0  0
  -27.7131  -12.6732   19.0262 C   0  0  0  0  0  0  0  0  0  0  0  0
  -23.9334  -19.2437   20.8757 C   0  0  0  0  0  0  0  0  0  0  0  0
  -27.6434  -14.0714   19.1762 C   0  0  0  0  0  0  0  0  0  0  0  0
  -22.8376  -19.1829   20.0029 C   0  0  0  0  0  0  0  0  0  0  0  0
  -28.9369  -23.3306   21.1271 C   0  0  0  0  0  0  0  0  0  0  0  0
  -23.0285  -21.5754   19.6163 C   0  0  0  0  0  0  0  0  0  0  0  0
  -29.4550  -21.1339   20.4728 C   0  0  0  0  0  0  0  0  0  0  0  0
  -29.2907  -19.0971   18.5735 C   0  0  0  0  0  0  0  0  0  0  0  0
  -29.9803  -21.3276   19.1953 C   0  0  0  0  0  0  0  0  0  0  0  0
  -27.0718  -27.0193   20.2254 C   0  0  0  0  0  0  0  0  0  0  0  0
  -19.3194  -27.8474   21.3053 C   0  0  0  0  0  0  0  0  0  0  0  0
  -26.3677  -28.8483   19.2284 C   0  0  0  0  0  0  0  0  0  0  0  0
  -27.8191  -27.4039   17.7947 C   0  0  0  0  0  0  0  0  0  0  0  0
  -24.8707  -16.4695   19.6390 C   0  0  0  0  0  0  0  0  0  0  0  0
  -21.9038  -15.5124   20.5355 C   0  0  0  0  0  0  0  0  0  0  0  0
  -18.6848  -16.3680   21.2789 C   0  0  0  0  0  0  0  0  0  0  0  0
  -21.8531  -30.0370   22.9776 C   0  0  0  0  0  0  0  0  0  0  0  0
  -26.6815  -11.9077   18.2360 C   0  0  0  0  0  0  0  0  0  0  0  0
  -24.4124  -18.0064   21.5843 C   0  0  0  0  0  0  0  0  0  0  0  0
  -22.1234  -17.8883   19.7157 C   0  0  0  0  0  0  0  0  0  0  0  0
  -25.3859  -12.6837   18.0131 C   0  0  0  0  0  0  0  0  0  0  0  0
  -24.9426  -31.7884   22.7235 C   0  0  0  0  0  0  0  0  0  0  0  0
  -25.6882  -14.1076   17.5570 C   0  0  0  0  0  0  0  0  0  0  0  0
  -25.8441  -30.8287   21.9449 C   0  0  0  0  0  0  0  0  0  0  0  0
  -24.0086  -31.0406   23.6725 C   0  0  0  0  0  0  0  0  0  0  0  0
  -24.1011  -29.0228   22.2605 C   0  0  0  0  0  0  0  0  0  0  0  0
  -26.4839  -14.8710   18.6226 C   0  0  1  0  0  0  0  0  0  0  0  0
  -24.0320  -16.7184   20.8607 C   0  0  1  0  0  0  0  0  0  0  0  0
  -25.0220  -29.7270   21.2494 C   0  0  2  0  0  0  0  0  0  0  0  0
  -16.4819  -15.3637   21.9392 C   0  0  0  0  0  0  0  0  0  0  0  0
  -21.4797  -14.5629   17.6669 C   0  0  0  0  0  0  0  0  0  0  0  0
  -19.0226  -14.4630   18.1371 C   0  0  0  0  0  0  0  0  0  0  0  0
  -20.5961  -13.0136   19.4200 C   0  0  0  0  0  0  0  0  0  0  0  0
  -18.6328  -17.8695   23.8287 C   0  0  0  0  0  0  0  0  0  0  0  0
  -19.7784  -28.9262   22.1897 C   0  0  0  0  0  0  0  0  0  0  0  0
  -19.2701  -24.3646   18.3642 C   0  0  0  0  0  0  0  0  0  0  0  0
  -20.7576  -24.2262   18.6921 C   0  0  0  0  0  0  0  0  0  0  0  0
  -18.7941  -25.8216   18.3402 C   0  0  0  0  0  0  0  0  0  0  0  0
  -21.2014  -22.7696   18.6723 C   0  0  0  0  0  0  0  0  0  1  0  0
  -20.5424  -15.4984   19.8833 C   0  0  1  0  0  0  0  0  0  0  0  0
  -17.7807  -15.9800   22.4350 C   0  0  2  0  0  0  0  0  0  0  0  0
  -20.4247  -14.4087   18.7806 C   0  0  0  0  0  0  0  0  0  0  0  0
  -26.3272  -27.6369   21.1464 N   0  0  0  0  0  0  0  0  0  0  0  0
  -18.5371  -26.8283   21.7733 N   0  0  0  0  0  0  0  0  0  0  0  0
  -18.2794  -26.0119   20.7574 N   0  0  0  0  0  0  0  0  0  0  0  0
  -18.8923  -26.5170   19.6746 N   0  0  0  0  0  0  0  0  0  0  0  0
  -25.9131  -28.7459   20.5103 N   0  0  0  0  0  0  0  0  0  0  0  0
  -22.6331  -16.7050   20.4281 N   0  0  0  0  0  0  0  0  0  0  0  0
  -23.2572  -30.0112   22.9503 N   0  0  0  0  0  0  0  0  0  0  0  0
  -26.0463  -29.9007   18.4464 N   0  0  0  0  0  0  0  0  0  0  0  0
  -28.5592  -26.2149   17.7421 N   0  0  0  0  0  0  0  0  0  0  0  0
  -25.6103  -15.3035   19.6923 N   0  0  0  0  0  0  0  0  0  0  0  0
  -19.5730  -15.3611   20.9649 N   0  0  0  0  0  0  0  0  0  0  0  0
  -21.2189  -29.0290   22.2618 N   0  0  0  0  0  0  0  0  0  0  0  0
  -17.4488  -17.1776   23.2575 N   0  3  0  0  0  0  0  0  0  0  0  0
  -27.7908  -28.1544   16.7900 O   0  0  0  0  0  0  0  0  0  0  0  0
  -24.8473  -17.2750   18.7158 O   0  0  0  0  0  0  0  0  0  0  0  0
  -22.3024  -14.5047   21.1248 O   0  0  0  0  0  0  0  0  0  0  0  0
  -18.6080  -17.4540   20.7087 O   0  0  0  0  0  0  0  0  0  0  0  0
  -21.2121  -30.8980   23.5898 O   0  0  0  0  0  0  0  0  0  0  0  0
  -29.5365  -22.1436   21.4170 O   0  0  0  0  0  0  0  0  0  0  0  0
  -22.5890  -22.7058   18.9991 O   0  0  0  0  0  0  0  0  0  1  0  0
  -29.2131  -18.1186   17.6622 F   0  0  0  0  0  0  0  0  0  0  0  0
  -30.5661  -22.4894   18.8747 F   0  0  0  0  0  0  0  0  0  0  0  0
  1  2  1  0  0  0  0
  1  5  2  0  0  0  0
  2  6  2  0  0  0  0
  3  8  2  0  0  0  0
  3 16  1  0  0  0  0
  4  9  1  0  0  0  0
  4 16  2  0  0  0  0
  5 18  1  0  0  0  0
  6 20  1  0  0  0  0
  7 10  2  0  0  0  0
  7 19  1  0  0  0  0
  8 22  1  0  0  0  0
  9 22  2  0  0  0  0
 10 23  1  0  0  0  0
 11 12  2  0  0  0  0
 11 24  1  0  0  0  0
 12 25  1  0  0  0  0
 13 21  1  0  0  0  0
 13 23  2  0  0  0  0
 14 25  2  0  0  0  0
 14 26  1  0  0  0  0
 15 28  2  0  0  0  0
 15 63  1  0  0  0  0
 16 27  1  0  0  0  0
 17 27  1  0  0  0  0
 17 29  2  0  0  0  0
 17 30  1  0  0  0  0
 18 20  2  0  0  0  0
 18 35  1  0  0  0  0
 19 21  2  0  0  0  0
 19 36  1  0  0  0  0
 20 44  1  0  0  0  0
 21 37  1  0  0  0  0
 22 78  1  0  0  0  0
 23 79  1  0  0  0  0
 24 26  2  0  0  0  0
 24 78  1  0  0  0  0
 25 80  1  0  0  0  0
 26 81  1  0  0  0  0
 27 60  2  0  0  0  0
 28 52  1  0  0  0  0
 28 61  1  0  0  0  0
 29 64  1  0  0  0  0
 29 67  1  0  0  0  0
 30 68  1  0  0  0  0
 30 73  2  0  0  0  0
 31 45  1  0  0  0  0
 31 69  1  0  0  0  0
 31 74  2  0  0  0  0
 32 57  1  0  0  0  0
 32 65  1  0  0  0  0
 32 75  2  0  0  0  0
 33 58  1  0  0  0  0
 33 70  1  0  0  0  0
 33 76  2  0  0  0  0
 34 66  1  0  0  0  0
 34 71  1  0  0  0  0
 34 77  2  0  0  0  0
 35 38  1  0  0  0  0
 36 45  1  0  0  0  0
 37 65  1  0  0  0  0
 38 40  1  0  0  0  0
 39 41  1  0  0  0  0
 39 42  1  0  0  0  0
 40 44  1  0  0  0  0
 41 46  1  0  0  0  0
 42 66  1  0  0  0  0
 43 46  1  0  0  0  0
 43 66  1  0  0  0  0
 44 69  1  0  0  0  0
 45 65  1  0  0  0  0
 46 64  1  0  0  0  0
 47 58  1  0  0  0  0
 48 59  1  0  0  0  0
 49 59  1  0  0  0  0
 50 59  1  0  0  0  0
 51 72  1  0  0  0  0
 52 71  1  0  0  0  0
 53 54  1  0  0  0  0
 53 55  1  0  0  0  0
 54 56  1  0  0  0  0
 55 63  1  0  0  0  0
 56 79  1  0  0  0  0
 57 59  1  0  0  0  0
 57 70  1  0  0  0  0
 58 72  1  0  0  0  0
 60 64  1  0  0  0  0
 61 62  2  0  0  0  0
 62 63  1  0  0  0  0
M  CHG  1  72   1
M  ISO  4  34 100  56 101  71 100  79 101
M  END
> <Batch ID>
0090

> <Smiles>
CNC(C)C(=O)NC(C(=O)N1Cc2cc([101O:1][101CH2:1]CCCn3cc(C[100NH:0][100C:0](=O)N4CCCC(n5nc(-c6ccc(Oc7ccc(F)cc7F)cc6)c(C(N)=O)c5N)C4)nn3)ccc2CC1C(=O)NC1CCCc2ccccc21)C(C)(C)C

> <Shape>
0.212

> <Color>
0.070

> <Negative vol penalty>
0.000

$$$$

  -OEChem-04052319093D

 84 92  0     1  0  0  0  0  0999 V2000
  -17.1711  -29.8645   24.8682 C   0  0  0  0  0  0  0  0  0  0  0  0
  -18.0276  -28.7724   24.9631 C   0  0  0  0  0  0  0  0  0  0  0  0
  -24.4901   -9.6082   21.4122 C   0  0  0  0  0  0  0  0  0  0  0  0
  -24.8246  -10.6532   23.5646 C   0  0  0  0  0  0  0  0  0  0  0  0
  -17.1758  -30.6549   23.7196 C   0  0  0  0  0  0  0  0  0  0  0  0
  -18.8887  -28.4694   23.9090 C   0  0  0  0  0  0  0  0  0  0  0  0
  -24.5392  -26.1442   24.3232 C   0  0  0  0  0  0  0  0  0  0  0  0
  -24.1562   -8.4110   22.0452 C   0  0  0  0  0  0  0  0  0  0  0  0
  -24.4907   -9.4560   24.1978 C   0  0  0  0  0  0  0  0  0  0  0  0
  -25.0317  -24.8468   24.1897 C   0  0  0  0  0  0  0  0  0  0  0  0
  -21.4673   -7.0858   23.6093 C   0  0  0  0  0  0  0  0  0  0  0  0
  -20.3507   -6.3938   23.1402 C   0  0  0  0  0  0  0  0  0  0  0  0
  -25.5833  -25.2997   21.8854 C   0  0  0  0  0  0  0  0  0  0  0  0
  -30.8106  -23.3195   21.4529 C   0  0  0  0  0  0  0  0  0  0  0  0
  -21.7457   -4.4880   22.6312 C   0  0  0  0  0  0  0  0  0  0  0  0
  -24.8243  -10.7293   22.1719 C   0  0  0  0  0  0  0  0  0  0  0  0
  -24.2954  -13.0060   21.1498 C   0  0  0  0  0  0  0  0  0  0  0  0
  -18.0442  -30.3671   22.6549 C   0  0  0  0  0  0  0  0  0  0  0  0
  -24.5551  -27.0272   23.2339 C   0  0  0  0  0  0  0  0  0  0  0  0
  -18.9041  -29.2559   22.7446 C   0  0  0  0  0  0  0  0  0  0  0  0
  -25.0927  -26.6087   22.0083 C   0  0  0  0  0  0  0  0  0  0  0  0
  -30.7122  -21.9326   21.4546 C   0  0  0  0  0  0  0  0  0  0  0  0
  -29.6780  -21.3155   22.1495 C   0  0  0  0  0  0  0  0  0  0  0  0
  -24.1565   -8.3349   23.4380 C   0  0  0  0  0  0  0  0  0  0  0  0
  -25.5512  -24.4234   22.9698 C   0  0  0  0  0  0  0  0  0  0  0  0
  -22.7231   -6.4789   23.5893 C   0  0  0  0  0  0  0  0  0  0  0  0
  -20.4899   -5.0949   22.6511 C   0  0  0  0  0  0  0  0  0  0  0  0
  -22.8622   -5.1800   23.1003 C   0  0  0  0  0  0  0  0  0  0  0  0
  -25.1698  -11.9662   21.5185 C   0  0  0  0  0  0  0  0  0  0  0  0
  -29.8573  -24.0382   22.1561 C   0  0  0  0  0  0  0  0  0  0  0  0
  -28.7755  -22.1239   22.8217 C   0  0  0  0  0  0  0  0  0  0  0  0
  -25.1080  -13.9477   20.5673 C   0  0  0  0  0  0  0  0  0  0  0  0
  -22.8755  -13.1113   21.3188 C   0  0  0  0  0  0  0  0  0  0  0  0
  -22.3324  -28.5590   21.5554 C   0  0  0  0  0  0  0  0  0  0  0  0
  -24.9055  -29.9456   20.1488 C   0  0  0  0  0  0  0  0  0  0  0  0
  -28.2204  -29.7687   19.3571 C   0  0  0  0  0  0  0  0  0  0  0  0
  -29.8061  -16.9594   20.5150 C   0  0  0  0  0  0  0  0  0  0  0  0
  -17.9799  -31.2223   21.4142 C   0  0  0  0  0  0  0  0  0  0  0  0
  -24.0445  -28.4320   23.4016 C   0  0  0  0  0  0  0  0  0  0  0  0
  -25.1513  -27.5244   20.8140 C   0  0  0  0  0  0  0  0  0  0  0  0
  -19.1880  -31.0555   20.4962 C   0  0  0  0  0  0  0  0  0  0  0  0
  -29.9510  -13.6821   19.1313 C   0  0  0  0  0  0  0  0  0  0  0  0
  -19.5095  -29.5773   20.3000 C   0  0  0  0  0  0  0  0  0  0  0  0
  -28.6514  -13.0278   19.6037 C   0  0  0  0  0  0  0  0  0  0  0  0
  -30.5325  -14.6131   20.1929 C   0  0  0  0  0  0  0  0  0  0  0  0
  -28.2997  -14.9844   21.1680 C   0  0  0  0  0  0  0  0  0  0  0  0
  -19.8703  -28.9097   21.6325 C   0  0  1  0  0  0  0  0  0  0  0  0
  -23.6388  -29.0819   22.0824 C   0  0  1  0  0  0  0  0  0  0  0  0
  -27.6458  -14.0795   20.1097 C   0  0  2  0  0  0  0  0  0  0  0  0
  -31.7272  -21.1320   20.7077 C   0  0  0  0  0  0  0  0  0  0  0  0
  -30.7687  -26.0528   23.3382 C   0  0  0  0  0  0  0  0  0  0  0  0
  -30.0326  -31.0355   18.1701 C   0  0  0  0  0  0  0  0  0  0  0  0
  -23.7415  -29.0883   17.4618 C   0  0  0  0  0  0  0  0  0  0  0  0
  -25.9842  -29.5135   16.4334 C   0  0  0  0  0  0  0  0  0  0  0  0
  -24.7217  -31.3889   17.4877 C   0  0  0  0  0  0  0  0  0  0  0  0
  -29.8330  -30.0057   21.8274 C   0  0  0  0  0  0  0  0  0  0  0  0
  -29.5458  -19.8297   22.1670 C   0  0  0  0  0  0  0  0  0  0  0  0
  -29.9308  -25.5286   22.1753 C   0  0  0  0  0  0  0  0  0  0  0  0
  -27.6307  -21.5127   23.5925 C   0  0  0  0  0  0  0  0  0  0  0  0
  -28.9330  -19.2528   20.8854 C   0  0  0  0  0  0  0  0  0  0  0  0
  -26.5884  -22.5480   24.0009 C   0  0  0  0  0  0  0  0  0  1  0  0
  -25.7762  -29.6234   18.9584 C   0  0  1  0  0  0  0  0  0  0  0  0
  -29.3459  -30.7770   19.5022 C   0  0  2  0  0  0  0  0  0  0  0  0
  -25.0532  -29.8854   17.6071 C   0  0  0  0  0  0  0  0  0  0  0  0
  -26.4406  -12.2227   21.1970 N   0  0  0  0  0  0  0  0  0  0  0  0
  -28.8386  -23.4741   22.8428 N   0  0  0  0  0  0  0  0  0  0  0  0
  -26.3706  -13.4345   20.6201 N   0  0  0  0  0  0  0  0  0  0  0  0
  -24.6341  -28.8863   21.0263 N   0  0  0  0  0  0  0  0  0  0  0  0
  -29.5289  -15.5871   20.6289 N   0  0  0  0  0  0  0  0  0  0  0  0
  -24.8586  -15.1563   20.0201 N   0  0  0  0  0  0  0  0  0  0  0  0
  -22.1960  -12.0530   21.9373 N   0  0  0  0  0  0  0  0  0  0  0  0
  -21.2249  -29.2454   22.0155 N   0  0  0  0  0  0  0  0  0  0  0  0
  -27.0075  -30.3857   19.1349 N   0  0  0  0  0  0  0  0  0  0  0  0
  -28.7988  -17.8143   20.9452 N   0  0  0  0  0  0  0  0  0  0  0  0
  -30.3660  -30.2793   20.4680 N   0  3  0  0  0  0  0  0  0  0  0  0
  -22.2263  -14.1069   20.9180 O   0  0  0  0  0  0  0  0  0  0  0  0
  -22.3295  -27.6044   20.7871 O   0  0  0  0  0  0  0  0  0  0  0  0
  -24.4877  -31.0966   20.2985 O   0  0  0  0  0  0  0  0  0  0  0  0
  -28.4000  -28.5550   19.4295 O   0  0  0  0  0  0  0  0  0  0  0  0
  -30.8703  -17.3908   20.0585 O   0  0  0  0  0  0  0  0  0  0  0  0
  -23.8305   -7.1668   24.0561 O   0  0  0  0  0  0  0  0  0  0  0  0
  -26.0320  -23.1573   22.8366 O   0  0  0  0  0  0  0  0  0  1  0  0
  -19.4173   -4.4300   22.2021 F   0  0  0  0  0  0  0  0  0  0  0  0
  -24.0659   -4.5912   23.0796 F   0  0  0  0  0  0  0  0  0  0  0  0
  1  2  1  0  0  0  0
  1  5  2  0  0  0  0
  2  6  2  0  0  0  0
  3  8  2  0  0  0  0
  3 16  1  0  0  0  0
  4  9  1  0  0  0  0
  4 16  2  0  0  0  0
  5 18  1  0  0  0  0
  6 20  1  0  0  0  0
  7 10  2  0  0  0  0
  7 19  1  0  0  0  0
  8 24  1  0  0  0  0
  9 24  2  0  0  0  0
 10 25  1  0  0  0  0
 11 12  2  0  0  0  0
 11 26  1  0  0  0  0
 12 27  1  0  0  0  0
 13 21  1  0  0  0  0
 13 25  2  0  0  0  0
 14 22  2  0  0  0  0
 14 30  1  0  0  0  0
 15 27  2  0  0  0  0
 15 28  1  0  0  0  0
 16 29  1  0  0  0  0
 17 29  1  0  0  0  0
 17 32  2  0  0  0  0
 17 33  1  0  0  0  0
 18 20  2  0  0  0  0
 18 38  1  0  0  0  0
 19 21  2  0  0  0  0
 19 39  1  0  0  0  0
 20 47  1  0  0  0  0
 21 40  1  0  0  0  0
 22 23  1  0  0  0  0
 22 50  1  0  0  0  0
 23 31  2  0  0  0  0
 23 57  1  0  0  0  0
 24 81  1  0  0  0  0
 25 82  1  0  0  0  0
 26 28  2  0  0  0  0
 26 81  1  0  0  0  0
 27 83  1  0  0  0  0
 28 84  1  0  0  0  0
 29 65  2  0  0  0  0
 30 58  1  0  0  0  0
 30 66  2  0  0  0  0
 31 59  1  0  0  0  0
 31 66  1  0  0  0  0
 32 67  1  0  0  0  0
 32 70  1  0  0  0  0
 33 71  1  0  0  0  0
 33 76  2  0  0  0  0
 34 48  1  0  0  0  0
 34 72  1  0  0  0  0
 34 77  2  0  0  0  0
 35 62  1  0  0  0  0
 35 68  1  0  0  0  0
 35 78  2  0  0  0  0
 36 63  1  0  0  0  0
 36 73  1  0  0  0  0
 36 79  2  0  0  0  0
 37 69  1  0  0  0  0
 37 74  1  0  0  0  0
 37 80  2  0  0  0  0
 38 41  1  0  0  0  0
 39 48  1  0  0  0  0
 40 68  1  0  0  0  0
 41 43  1  0  0  0  0
 42 44  1  0  0  0  0
 42 45  1  0  0  0  0
 43 47  1  0  0  0  0
 44 49  1  0  0  0  0
 45 69  1  0  0  0  0
 46 49  1  0  0  0  0
 46 69  1  0  0  0  0
 47 72  1  0  0  0  0
 48 68  1  0  0  0  0
 49 67  1  0  0  0  0
 51 58  1  0  0  0  0
 52 63  1  0  0  0  0
 53 64  1  0  0  0  0
 54 64  1  0  0  0  0
 55 64  1  0  0  0  0
 56 75  1  0  0  0  0
 57 60  1  0  0  0  0
 59 61  1  0  0  0  0
 60 74  1  0  0  0  0
 61 82  1  0  0  0  0
 62 64  1  0  0  0  0
 62 73  1  0  0  0  0
 63 75  1  0  0  0  0
 65 67  1  0  0  0  0
M  CHG  1  75   1
M  ISO  4  37 100  61 101  74 100  82 101
M  END
> <Batch ID>
0090

> <Smiles>
CCc1cc(C)c(CC[100NH:0][100C:0](=O)N2CCCC(n3nc(-c4ccc(Oc5ccc(F)cc5F)cc4)c(C(N)=O)c3N)C2)c(C[101CH2:1][101O:1]c2ccc3c(c2)CN(C(=O)C(NC(=O)C(C)NC)C(C)(C)C)C(C(=O)NC2CCCc4ccccc42)C3)n1

> <Shape>
0.243

> <Color>
0.137

> <Negative vol penalty>
0.000

$$$$

  -OEChem-04052319093D

 81 89  0     1  0  0  0  0  0999 V2000
  -26.0614  -23.7756   17.6155 C   0  0  0  0  0  0  0  0  0  0  0  0
  -24.9617  -24.4306   18.1606 C   0  0  0  0  0  0  0  0  0  0  0  0
  -27.1425  -14.6435   20.1840 C   0  0  0  0  0  0  0  0  0  0  0  0
  -24.8338  -14.5353   19.4803 C   0  0  0  0  0  0  0  0  0  0  0  0
  -27.3146  -23.9044   18.2128 C   0  0  0  0  0  0  0  0  0  0  0  0
  -25.1146  -25.2140   19.3041 C   0  0  0  0  0  0  0  0  0  0  0  0
  -22.7160  -29.6598   18.9480 C   0  0  0  0  0  0  0  0  0  0  0  0
  -27.1147  -13.2817   20.4847 C   0  0  0  0  0  0  0  0  0  0  0  0
  -24.8060  -13.1735   19.7808 C   0  0  0  0  0  0  0  0  0  0  0  0
  -21.3356  -29.6560   19.1438 C   0  0  0  0  0  0  0  0  0  0  0  0
  -25.8415  -10.2886   18.3576 C   0  0  0  0  0  0  0  0  0  0  0  0
  -25.2513   -9.4331   17.4274 C   0  0  0  0  0  0  0  0  0  0  0  0
  -21.6604  -30.4320   21.4047 C   0  0  0  0  0  0  0  0  0  0  0  0
  -23.6429   -8.7352   19.0897 C   0  0  0  0  0  0  0  0  0  0  0  0
  -17.9891  -25.5127   21.8965 C   0  0  0  0  0  0  0  0  0  0  0  0
  -19.8884  -26.6204   21.9187 C   0  0  0  0  0  0  0  0  0  0  0  0
  -26.0020  -15.2703   19.6819 C   0  0  0  0  0  0  0  0  0  0  0  0
  -26.3766  -17.2700   18.1428 C   0  0  0  0  0  0  0  0  0  0  0  0
  -27.4847  -24.6975   19.3585 C   0  0  0  0  0  0  0  0  0  0  0  0
  -23.5809  -30.0399   19.9842 C   0  0  0  0  0  0  0  0  0  0  0  0
  -26.3710  -25.3524   19.9180 C   0  0  0  0  0  0  0  0  0  0  0  0
  -23.0512  -30.4422   21.2186 C   0  0  0  0  0  0  0  0  0  0  0  0
  -18.5286  -26.8120   21.9449 C   0  0  0  0  0  0  0  0  0  0  0  0
  -25.9465  -12.5467   20.2830 C   0  0  0  0  0  0  0  0  0  0  0  0
  -20.8077  -30.0394   20.3732 C   0  0  0  0  0  0  0  0  0  0  0  0
  -25.3325  -10.3674   19.6539 C   0  0  0  0  0  0  0  0  0  0  0  0
  -24.1520   -8.6564   17.7934 C   0  0  0  0  0  0  0  0  0  0  0  0
  -24.2332   -9.5907   20.0199 C   0  0  0  0  0  0  0  0  0  0  0  0
  -26.0300  -16.6771   19.3717 C   0  0  0  0  0  0  0  0  0  0  0  0
  -26.2453  -18.6193   18.3633 C   0  0  0  0  0  0  0  0  0  0  0  0
  -26.7811  -16.6559   16.9120 C   0  0  0  0  0  0  0  0  0  0  0  0
  -25.8880  -28.5940   21.6244 C   0  0  0  0  0  0  0  0  0  0  0  0
  -26.3085  -31.5518   22.8880 C   0  0  0  0  0  0  0  0  0  0  0  0
  -24.9770  -34.6101   23.6098 C   0  0  0  0  0  0  0  0  0  0  0  0
  -22.9148  -21.6786   22.1586 C   0  0  0  0  0  0  0  0  0  0  0  0
  -28.8497  -24.7684   19.9962 C   0  0  0  0  0  0  0  0  0  0  0  0
  -25.0662  -30.0642   19.7484 C   0  0  0  0  0  0  0  0  0  0  0  0
  -23.9358  -30.8784   22.3569 C   0  0  0  0  0  0  0  0  0  0  0  0
  -28.9994  -25.9188   20.9884 C   0  0  0  0  0  0  0  0  0  0  0  0
  -26.5146  -21.8876   21.8494 C   0  0  0  0  0  0  0  0  0  0  0  0
  -27.7962  -25.9765   21.9242 C   0  0  0  0  0  0  0  0  0  0  0  0
  -26.8258  -20.6182   21.0546 C   0  0  0  0  0  0  0  0  0  0  0  0
  -25.3874  -21.6508   22.8502 C   0  0  0  0  0  0  0  0  0  0  0  0
  -24.4386  -19.8555   21.4538 C   0  0  0  0  0  0  0  0  0  0  0  0
  -26.5014  -26.2312   21.1431 C   0  0  1  0  0  0  0  0  0  0  0  0
  -25.8773  -29.9772   21.0376 C   0  0  1  0  0  0  0  0  0  0  0  0
  -25.5546  -20.0356   20.4088 C   0  0  2  0  0  0  0  0  0  0  0  0
  -25.5520  -36.8063   24.6791 C   0  0  0  0  0  0  0  0  0  0  0  0
  -26.0530  -30.2730   25.6465 C   0  0  0  0  0  0  0  0  0  0  0  0
  -25.6814  -32.5598   26.5955 C   0  0  0  0  0  0  0  0  0  0  0  0
  -27.8378  -32.0154   25.4657 C   0  0  0  0  0  0  0  0  0  0  0  0
  -24.5020  -36.0921   21.0925 C   0  0  0  0  0  0  0  0  0  0  0  0
  -17.7835  -28.1214   22.0083 C   0  0  0  0  0  0  0  0  0  0  0  0
  -17.4602  -28.7133   20.6347 C   0  0  0  0  0  0  0  0  0  0  0  0
  -21.3407  -24.5813   21.8118 C   0  0  0  0  0  0  0  0  0  0  0  0
  -21.5108  -23.5689   22.9414 C   0  0  0  0  0  0  0  0  0  0  0  0
  -18.7006  -29.0807   19.8285 C   0  0  0  0  0  0  0  0  0  1  0  0
  -25.7460  -32.2976   24.0740 C   0  0  1  0  0  0  0  0  0  0  0  0
  -25.5008  -36.0163   23.3806 C   0  0  2  0  0  0  0  0  0  0  0  0
  -26.3127  -31.7765   25.4248 C   0  0  0  0  0  0  0  0  0  0  0  0
  -18.9294  -24.5656   21.8434 N   0  0  0  0  0  0  0  0  0  0  0  0
  -25.7031  -17.5761   20.3039 N   0  0  0  0  0  0  0  0  0  0  0  0
  -20.0735  -25.2705   21.8582 N   0  0  0  0  0  0  0  0  0  0  0  0
  -25.8439  -18.7476   19.6605 N   0  0  0  0  0  0  0  0  0  0  0  0
  -25.3816  -30.8791   22.0792 N   0  0  0  0  0  0  0  0  0  0  0  0
  -24.2011  -21.1139   22.1687 N   0  0  0  0  0  0  0  0  0  0  0  0
  -26.4352  -19.6966   17.5723 N   0  0  0  0  0  0  0  0  0  0  0  0
  -26.8637  -15.2578   16.8583 N   0  0  0  0  0  0  0  0  0  0  0  0
  -26.3977  -27.6278   20.7781 N   0  0  0  0  0  0  0  0  0  0  0  0
  -26.0012  -33.7123   23.8250 N   0  0  0  0  0  0  0  0  0  0  0  0
  -22.7726  -22.8666   22.8652 N   0  0  0  0  0  0  0  0  0  0  0  0
  -24.6243  -36.7456   22.4210 N   0  3  0  0  0  0  0  0  0  0  0  0
  -27.0767  -17.3278   15.8948 O   0  0  0  0  0  0  0  0  0  0  0  0
  -25.4666  -28.4168   22.7613 O   0  0  0  0  0  0  0  0  0  0  0  0
  -27.5247  -31.5716   22.6826 O   0  0  0  0  0  0  0  0  0  0  0  0
  -23.7789  -34.3362   23.6028 O   0  0  0  0  0  0  0  0  0  0  0  0
  -21.9640  -21.1648   21.5594 O   0  0  0  0  0  0  0  0  0  0  0  0
  -25.9191  -11.2178   20.5760 O   0  0  0  0  0  0  0  0  0  0  0  0
  -19.4608  -30.0360   20.5673 O   0  0  0  0  0  0  0  0  0  1  0  0
  -23.5844   -7.8360   16.8995 F   0  0  0  0  0  0  0  0  0  0  0  0
  -23.7390   -9.6630   21.2634 F   0  0  0  0  0  0  0  0  0  0  0  0
  1  2  1  0  0  0  0
  1  5  2  0  0  0  0
  2  6  2  0  0  0  0
  3  8  2  0  0  0  0
  3 17  1  0  0  0  0
  4  9  1  0  0  0  0
  4 17  2  0  0  0  0
  5 19  1  0  0  0  0
  6 21  1  0  0  0  0
  7 10  2  0  0  0  0
  7 20  1  0  0  0  0
  8 24  1  0  0  0  0
  9 24  2  0  0  0  0
 10 25  1  0  0  0  0
 11 12  2  0  0  0  0
 11 26  1  0  0  0  0
 12 27  1  0  0  0  0
 13 22  1  0  0  0  0
 13 25  2  0  0  0  0
 14 27  2  0  0  0  0
 14 28  1  0  0  0  0
 15 23  1  0  0  0  0
 15 61  2  0  0  0  0
 16 23  2  0  0  0  0
 16 63  1  0  0  0  0
 17 29  1  0  0  0  0
 18 29  1  0  0  0  0
 18 30  2  0  0  0  0
 18 31  1  0  0  0  0
 19 21  2  0  0  0  0
 19 36  1  0  0  0  0
 20 22  2  0  0  0  0
 20 37  1  0  0  0  0
 21 45  1  0  0  0  0
 22 38  1  0  0  0  0
 23 53  1  0  0  0  0
 24 78  1  0  0  0  0
 25 79  1  0  0  0  0
 26 28  2  0  0  0  0
 26 78  1  0  0  0  0
 27 80  1  0  0  0  0
 28 81  1  0  0  0  0
 29 62  2  0  0  0  0
 30 64  1  0  0  0  0
 30 67  1  0  0  0  0
 31 68  1  0  0  0  0
 31 73  2  0  0  0  0
 32 46  1  0  0  0  0
 32 69  1  0  0  0  0
 32 74  2  0  0  0  0
 33 58  1  0  0  0  0
 33 65  1  0  0  0  0
 33 75  2  0  0  0  0
 34 59  1  0  0  0  0
 34 70  1  0  0  0  0
 34 76  2  0  0  0  0
 35 66  1  0  0  0  0
 35 71  1  0  0  0  0
 35 77  2  0  0  0  0
 36 39  1  0  0  0  0
 37 46  1  0  0  0  0
 38 65  1  0  0  0  0
 39 41  1  0  0  0  0
 40 42  1  0  0  0  0
 40 43  1  0  0  0  0
 41 45  1  0  0  0  0
 42 47  1  0  0  0  0
 43 66  1  0  0  0  0
 44 47  1  0  0  0  0
 44 66  1  0  0  0  0
 45 69  1  0  0  0  0
 46 65  1  0  0  0  0
 47 64  1  0  0  0  0
 48 59  1  0  0  0  0
 49 60  1  0  0  0  0
 50 60  1  0  0  0  0
 51 60  1  0  0  0  0
 52 72  1  0  0  0  0
 53 54  1  0  0  0  0
 54 57  1  0  0  0  0
 55 56  1  0  0  0  0
 55 63  1  0  0  0  0
 56 71  1  0  0  0  0
 57 79  1  0  0  0  0
 58 60  1  0  0  0  0
 58 70  1  0  0  0  0
 59 72  1  0  0  0  0
 61 63  1  0  0  0  0
 62 64  1  0  0  0  0
M  CHG  1  72   1
M  ISO  4  35 100  57 101  71 100  79 101
M  END
> <Batch ID>
0090

> <Smiles>
CNC(C)C(=O)NC(C(=O)N1Cc2cc([101O:1][101CH2:1]CCc3cnn(CC[100NH:0][100C:0](=O)N4CCCC(n5nc(-c6ccc(Oc7ccc(F)cc7F)cc6)c(C(N)=O)c5N)C4)c3)ccc2CC1C(=O)NC1CCCc2ccccc21)C(C)(C)C

> <Shape>
0.241

> <Color>
0.064

> <Negative vol penalty>
0.000

$$$$

  -OEChem-04052319093D

 89 97  0     1  0  0  0  0  0999 V2000
  -26.2836  -22.0938   11.7088 C   0  0  0  0  0  0  0  0  0  0  0  0
  -26.2675  -21.8255   13.0738 C   0  0  0  0  0  0  0  0  0  0  0  0
  -23.0685   -9.9445   19.8842 C   0  0  0  0  0  0  0  0  0  0  0  0
  -23.8761   -9.8112   22.1573 C   0  0  0  0  0  0  0  0  0  0  0  0
  -26.0890  -23.3971   11.2533 C   0  0  0  0  0  0  0  0  0  0  0  0
  -26.0579  -22.8607   13.9842 C   0  0  0  0  0  0  0  0  0  0  0  0
  -22.7655  -21.6104   17.6232 C   0  0  0  0  0  0  0  0  0  0  0  0
  -22.3333   -8.7749   20.0768 C   0  0  0  0  0  0  0  0  0  0  0  0
  -23.1409   -8.6416   22.3500 C   0  0  0  0  0  0  0  0  0  0  0  0
  -23.2367  -20.8047   18.6588 C   0  0  0  0  0  0  0  0  0  0  0  0
  -19.9283   -7.7943   22.9679 C   0  0  0  0  0  0  0  0  0  0  0  0
  -19.1961   -7.6781   24.1494 C   0  0  0  0  0  0  0  0  0  0  0  0
  -23.4767  -22.7547   20.0586 C   0  0  0  0  0  0  0  0  0  0  0  0
  -27.4446  -21.5877   19.8661 C   0  0  0  0  0  0  0  0  0  0  0  0
  -20.4582   -5.7035   24.7373 C   0  0  0  0  0  0  0  0  0  0  0  0
  -23.8400  -10.4627   20.9245 C   0  0  0  0  0  0  0  0  0  0  0  0
  -24.1720  -12.9918   20.9557 C   0  0  0  0  0  0  0  0  0  0  0  0
  -25.8673  -24.4472   12.1582 C   0  0  0  0  0  0  0  0  0  0  0  0
  -22.6564  -22.9980   17.7941 C   0  0  0  0  0  0  0  0  0  0  0  0
  -25.8615  -24.1795   13.5405 C   0  0  0  0  0  0  0  0  0  0  0  0
  -23.0014  -23.5755   19.0244 C   0  0  0  0  0  0  0  0  0  0  0  0
  -28.2639  -21.8354   18.7703 C   0  0  0  0  0  0  0  0  0  0  0  0
  -27.6746  -20.4701   20.6606 C   0  0  0  0  0  0  0  0  0  0  0  0
  -22.3695   -8.1235   21.3097 C   0  0  0  0  0  0  0  0  0  0  0  0
  -23.5952  -21.3771   19.8757 C   0  0  0  0  0  0  0  0  0  0  0  0
  -20.9254   -6.8651   22.6711 C   0  0  0  0  0  0  0  0  0  0  0  0
  -19.4610   -6.6327   25.0341 C   0  0  0  0  0  0  0  0  0  0  0  0
  -21.1903   -5.8198   23.5558 C   0  0  0  0  0  0  0  0  0  0  0  0
  -24.6001  -11.6705   20.7260 C   0  0  0  0  0  0  0  0  0  0  0  0
  -29.2916  -20.9420   18.5139 C   0  0  0  0  0  0  0  0  0  0  0  0
  -28.7285  -19.6378   20.3194 C   0  0  0  0  0  0  0  0  0  0  0  0
  -25.2542  -13.7670   20.6176 C   0  0  0  0  0  0  0  0  0  0  0  0
  -22.9091  -13.4751   21.4323 C   0  0  0  0  0  0  0  0  0  0  0  0
  -23.9741  -25.5388   16.4116 C   0  0  0  0  0  0  0  0  0  0  0  0
  -21.8848  -27.1592   18.2907 C   0  0  0  0  0  0  0  0  0  0  0  0
  -19.9565  -27.2077   21.1061 C   0  0  0  0  0  0  0  0  0  0  0  0
  -30.7377  -14.7951   20.7560 C   0  0  0  0  0  0  0  0  0  0  0  0
  -25.7091  -25.8474   11.6207 C   0  0  0  0  0  0  0  0  0  0  0  0
  -22.1211  -23.8500   16.6762 C   0  0  0  0  0  0  0  0  0  0  0  0
  -22.8837  -25.0575   19.2656 C   0  0  0  0  0  0  0  0  0  0  0  0
  -25.1203  -26.8258   12.6337 C   0  0  0  0  0  0  0  0  0  0  0  0
  -29.5574  -12.5598   18.2487 C   0  0  0  0  0  0  0  0  0  0  0  0
  -25.8149  -26.6789   13.9838 C   0  0  0  0  0  0  0  0  0  0  0  0
  -28.1301  -12.2336   18.6920 C   0  0  0  0  0  0  0  0  0  0  0  0
  -30.4987  -12.7089   19.4418 C   0  0  0  0  0  0  0  0  0  0  0  0
  -28.6243  -13.3439   20.9105 C   0  0  0  0  0  0  0  0  0  0  0  0
  -25.6125  -25.2715   14.5581 C   0  0  1  0  0  0  0  0  0  0  0  0
  -22.5372  -25.3135   16.7883 C   0  0  1  0  0  0  0  0  0  0  0  0
  -27.6262  -13.2393   19.7446 C   0  0  2  0  0  0  0  0  0  0  0  0
  -30.2030  -21.1561   17.3501 C   0  0  0  0  0  0  0  0  0  0  0  0
  -18.3899  -28.6844   22.3955 C   0  0  0  0  0  0  0  0  0  0  0  0
  -28.8624  -26.8153   18.4652 C   0  0  0  0  0  0  0  0  0  0  0  0
  -29.0147  -25.4806   16.3544 C   0  0  0  0  0  0  0  0  0  0  0  0
  -24.2601  -28.7686   19.3289 C   0  0  0  0  0  0  0  0  0  0  0  0
  -22.8252  -29.5244   21.2362 C   0  0  0  0  0  0  0  0  0  0  0  0
  -22.1975  -30.1147   18.8952 C   0  0  0  0  0  0  0  0  0  0  0  0
  -17.7156  -25.3000   20.7931 C   0  0  0  0  0  0  0  0  0  0  0  0
  -28.0228  -23.0311   17.9152 C   0  0  0  0  0  0  0  0  0  0  0  0
  -26.7896  -20.1957   21.8501 C   0  0  0  0  0  0  0  0  0  0  0  0
  -29.0226  -18.4236   21.1383 C   0  0  0  0  0  0  0  0  0  0  0  0
  -25.7698  -19.0793   21.6146 C   0  0  0  0  0  0  0  0  0  0  0  0
  -28.5271  -24.3277   18.5774 C   0  0  0  0  0  0  0  0  0  0  0  0
  -30.5195  -18.0751   21.2436 C   0  0  0  0  0  0  0  0  0  0  0  0
  -30.8233  -16.8644   22.1235 C   0  0  0  0  0  0  0  0  0  0  0  0
  -24.7585  -19.4061   20.5220 C   0  0  0  0  0  0  0  0  0  1  0  0
  -21.9239  -27.7296   19.6879 C   0  0  1  0  0  0  0  0  0  0  0  0
  -18.5089  -27.6071   21.3287 C   0  0  2  0  0  0  0  0  0  0  0  0
  -28.3303  -25.5901   17.7176 C   0  0  0  0  0  0  0  0  0  0  0  0
  -22.8059  -29.0066   19.7822 C   0  0  0  0  0  0  0  0  0  0  0  0
  -25.8562  -11.6063   20.2764 N   0  0  0  0  0  0  0  0  0  0  0  0
  -29.5458  -19.8457   19.2629 N   0  0  0  0  0  0  0  0  0  0  0  0
  -26.2267  -12.8969   20.2210 N   0  0  0  0  0  0  0  0  0  0  0  0
  -22.3610  -25.8492   18.1397 N   0  0  0  0  0  0  0  0  0  0  0  0
  -29.9639  -13.6777   20.4016 N   0  0  0  0  0  0  0  0  0  0  0  0
  -25.4592  -15.1013   20.6237 N   0  0  0  0  0  0  0  0  0  0  0  0
  -21.9070  -12.5424   21.7328 N   0  0  0  0  0  0  0  0  0  0  0  0
  -24.2872  -25.1429   15.1252 N   0  0  0  0  0  0  0  0  0  0  0  0
  -20.5349  -27.9321   20.0852 N   0  0  0  0  0  0  0  0  0  0  0  0
  -30.1536  -15.6670   21.6668 N   0  0  0  0  0  0  0  0  0  0  0  0
  -17.7067  -26.4276   21.7604 N   0  3  0  0  0  0  0  0  0  0  0  0
  -22.6706  -14.6987   21.5714 O   0  0  0  0  0  0  0  0  0  0  0  0
  -24.7416  -26.0366   17.2270 O   0  0  0  0  0  0  0  0  0  0  0  0
  -21.4411  -27.8480   17.3686 O   0  0  0  0  0  0  0  0  0  0  0  0
  -20.5190  -26.3426   21.7736 O   0  0  0  0  0  0  0  0  0  0  0  0
  -31.8635  -15.0033   20.2909 O   0  0  0  0  0  0  0  0  0  0  0  0
  -21.6520   -6.9823   21.4981 O   0  0  0  0  0  0  0  0  0  0  0  0
  -24.0560  -20.5931   20.8880 O   0  0  0  0  0  0  0  0  0  1  0  0
  -18.7589   -6.5222   26.1694 F   0  0  0  0  0  0  0  0  0  0  0  0
  -22.1478   -4.9247   23.2766 F   0  0  0  0  0  0  0  0  0  0  0  0
  1  2  1  0  0  0  0
  1  5  2  0  0  0  0
  2  6  2  0  0  0  0
  3  8  2  0  0  0  0
  3 16  1  0  0  0  0
  4  9  1  0  0  0  0
  4 16  2  0  0  0  0
  5 18  1  0  0  0  0
  6 20  1  0  0  0  0
  7 10  2  0  0  0  0
  7 19  1  0  0  0  0
  8 24  1  0  0  0  0
  9 24  2  0  0  0  0
 10 25  1  0  0  0  0
 11 12  2  0  0  0  0
 11 26  1  0  0  0  0
 12 27  1  0  0  0  0
 13 21  1  0  0  0  0
 13 25  2  0  0  0  0
 14 22  2  0  0  0  0
 14 23  1  0  0  0  0
 15 27  2  0  0  0  0
 15 28  1  0  0  0  0
 16 29  1  0  0  0  0
 17 29  1  0  0  0  0
 17 32  2  0  0  0  0
 17 33  1  0  0  0  0
 18 20  2  0  0  0  0
 18 38  1  0  0  0  0
 19 21  2  0  0  0  0
 19 39  1  0  0  0  0
 20 47  1  0  0  0  0
 21 40  1  0  0  0  0
 22 30  1  0  0  0  0
 22 58  1  0  0  0  0
 23 31  2  0  0  0  0
 23 59  1  0  0  0  0
 24 86  1  0  0  0  0
 25 87  1  0  0  0  0
 26 28  2  0  0  0  0
 26 86  1  0  0  0  0
 27 88  1  0  0  0  0
 28 89  1  0  0  0  0
 29 70  2  0  0  0  0
 30 50  1  0  0  0  0
 30 71  2  0  0  0  0
 31 60  1  0  0  0  0
 31 71  1  0  0  0  0
 32 72  1  0  0  0  0
 32 75  1  0  0  0  0
 33 76  1  0  0  0  0
 33 81  2  0  0  0  0
 34 48  1  0  0  0  0
 34 77  1  0  0  0  0
 34 82  2  0  0  0  0
 35 66  1  0  0  0  0
 35 73  1  0  0  0  0
 35 83  2  0  0  0  0
 36 67  1  0  0  0  0
 36 78  1  0  0  0  0
 36 84  2  0  0  0  0
 37 74  1  0  0  0  0
 37 79  1  0  0  0  0
 37 85  2  0  0  0  0
 38 41  1  0  0  0  0
 39 48  1  0  0  0  0
 40 73  1  0  0  0  0
 41 43  1  0  0  0  0
 42 44  1  0  0  0  0
 42 45  1  0  0  0  0
 43 47  1  0  0  0  0
 44 49  1  0  0  0  0
 45 74  1  0  0  0  0
 46 49  1  0  0  0  0
 46 74  1  0  0  0  0
 47 77  1  0  0  0  0
 48 73  1  0  0  0  0
 49 72  1  0  0  0  0
 51 67  1  0  0  0  0
 52 68  1  0  0  0  0
 53 68  1  0  0  0  0
 54 69  1  0  0  0  0
 55 69  1  0  0  0  0
 56 69  1  0  0  0  0
 57 80  1  0  0  0  0
 58 62  1  0  0  0  0
 59 61  1  0  0  0  0
 60 63  1  0  0  0  0
 61 65  1  0  0  0  0
 62 68  1  0  0  0  0
 63 64  1  0  0  0  0
 64 79  1  0  0  0  0
 65 87  1  0  0  0  0
 66 69  1  0  0  0  0
 66 78  1  0  0  0  0
 67 80  1  0  0  0  0
 70 72  1  0  0  0  0
M  CHG  1  80   1
M  ISO  4  37 100  65 101  79 100  87 101
M  END
> <Batch ID>
0090

> <Smiles>
CNC(C)C(=O)NC(C(=O)N1Cc2cc([101O:1][101CH2:1]CCc3cc(CCC(C)C)c(C)nc3CCC[100NH:0][100C:0](=O)N3CCCC(n4nc(-c5ccc(Oc6ccc(F)cc6F)cc5)c(C(N)=O)c4N)C3)ccc2CC1C(=O)NC1CCCc2ccccc21)C(C)(C)C

> <Shape>
0.280

> <Color>
0.198

> <Negative vol penalty>
0.000

$$$$

  -OEChem-04052319093D

 88 96  0     1  0  0  0  0  0999 V2000
  -24.3620   -5.5356   20.1650 C   0  0  0  0  0  0  0  0  0  0  0  0
  -24.7642   -6.4335   19.1815 C   0  0  0  0  0  0  0  0  0  0  0  0
  -22.5845  -30.7839   20.6175 C   0  0  0  0  0  0  0  0  0  0  0  0
  -22.5732  -29.0344   22.2838 C   0  0  0  0  0  0  0  0  0  0  0  0
  -23.5977   -5.9805   21.2429 C   0  0  0  0  0  0  0  0  0  0  0  0
  -24.4014   -7.7767   19.2747 C   0  0  0  0  0  0  0  0  0  0  0  0
  -26.8118  -14.3336   17.6892 C   0  0  0  0  0  0  0  0  0  0  0  0
  -21.2039  -30.6515   20.4691 C   0  0  0  0  0  0  0  0  0  0  0  0
  -21.1926  -28.9020   22.1354 C   0  0  0  0  0  0  0  0  0  0  0  0
  -26.4158  -15.4965   17.0299 C   0  0  0  0  0  0  0  0  0  0  0  0
  -18.4115  -30.5199   23.1690 C   0  0  0  0  0  0  0  0  0  0  0  0
  -17.6428  -30.4236   24.3290 C   0  0  0  0  0  0  0  0  0  0  0  0
  -25.1606  -16.1664   18.9779 C   0  0  0  0  0  0  0  0  0  0  0  0
  -28.2556  -18.9296   18.1606 C   0  0  0  0  0  0  0  0  0  0  0  0
  -28.1287  -21.3305   18.0977 C   0  0  0  0  0  0  0  0  0  0  0  0
  -16.8442  -28.2565   23.6198 C   0  0  0  0  0  0  0  0  0  0  0  0
  -23.2692  -29.9753   21.5248 C   0  0  0  0  0  0  0  0  0  0  0  0
  -25.3774  -30.9581   22.5723 C   0  0  0  0  0  0  0  0  0  0  0  0
  -23.2335   -7.3316   21.3544 C   0  0  0  0  0  0  0  0  0  0  0  0
  -26.3755  -14.0728   18.9962 C   0  0  0  0  0  0  0  0  0  0  0  0
  -23.6304   -8.2398   20.3544 C   0  0  0  0  0  0  0  0  0  0  0  0
  -25.5545  -15.0008   19.6526 C   0  0  0  0  0  0  0  0  0  0  0  0
  -27.7176  -20.0915   17.6188 C   0  0  0  0  0  0  0  0  0  0  0  0
  -20.5079  -29.7106   21.2281 C   0  0  0  0  0  0  0  0  0  0  0  0
  -25.5877  -16.4117   17.6731 C   0  0  0  0  0  0  0  0  0  0  0  0
  -18.3964  -29.4845   22.2344 C   0  0  0  0  0  0  0  0  0  0  0  0
  -16.8592  -29.2919   24.5544 C   0  0  0  0  0  0  0  0  0  0  0  0
  -17.6128  -28.3528   22.4598 C   0  0  0  0  0  0  0  0  0  0  0  0
  -24.6954  -30.1112   21.6782 C   0  0  0  0  0  0  0  0  0  0  0  0
  -29.1942  -19.0596   19.1715 C   0  0  0  0  0  0  0  0  0  0  0  0
  -29.0728  -21.3530   19.1115 C   0  0  0  0  0  0  0  0  0  0  0  0
  -26.7071  -30.7159   22.3281 C   0  0  0  0  0  0  0  0  0  0  0  0
  -24.8555  -31.8812   23.5373 C   0  0  0  0  0  0  0  0  0  0  0  0
  -24.6295  -11.7971   20.3660 C   0  0  0  0  0  0  0  0  0  0  0  0
  -25.4721  -13.3354   23.0947 C   0  0  0  0  0  0  0  0  0  0  0  0
  -26.4947  -16.2258   24.5936 C   0  0  0  0  0  0  0  0  0  0  0  0
  -29.6492  -26.0072   20.0868 C   0  0  0  0  0  0  0  0  0  0  0  0
  -22.3665   -7.7565   22.5131 C   0  0  0  0  0  0  0  0  0  0  0  0
  -26.8333  -12.8267   19.7033 C   0  0  0  0  0  0  0  0  0  0  0  0
  -25.0752  -14.7774   21.0628 C   0  0  0  0  0  0  0  0  0  0  0  0
  -22.3408   -9.2669   22.7328 C   0  0  0  0  0  0  0  0  0  0  0  0
  -29.6849  -29.3435   18.8439 C   0  0  0  0  0  0  0  0  0  0  0  0
  -22.1300   -9.9953   21.4092 C   0  0  0  0  0  0  0  0  0  0  0  0
  -28.4718  -29.9950   19.5100 C   0  0  0  0  0  0  0  0  0  0  0  0
  -29.4160  -27.8834   18.4862 C   0  0  0  0  0  0  0  0  0  0  0  0
  -27.7270  -27.7006   20.2716 C   0  0  0  0  0  0  0  0  0  0  0  0
  -23.2777   -9.7093   20.4332 C   0  0  1  0  0  0  0  0  0  0  0  0
  -25.9114  -12.4159   20.8473 C   0  0  1  0  0  0  0  0  0  0  0  0
  -27.9692  -29.1576   20.7015 C   0  0  2  0  0  0  0  0  0  0  0  0
  -29.7943  -17.8341   19.7756 C   0  0  0  0  0  0  0  0  0  0  0  0
  -25.8084  -22.5222   23.1047 C   0  0  0  0  0  0  0  0  0  0  0  0
  -31.0370  -22.8642   19.3330 C   0  0  0  0  0  0  0  0  0  0  0  0
  -27.0633  -17.1847   26.8418 C   0  0  0  0  0  0  0  0  0  0  0  0
  -22.5025  -13.4845   23.7795 C   0  0  0  0  0  0  0  0  0  0  0  0
  -23.0547  -15.2328   25.4844 C   0  0  0  0  0  0  0  0  0  0  0  0
  -23.9920  -12.9322   25.7110 C   0  0  0  0  0  0  0  0  0  0  0  0
  -29.2691  -16.8339   23.7616 C   0  0  0  0  0  0  0  0  0  0  0  0
  -26.6931  -20.0084   16.5156 C   0  0  0  0  0  0  0  0  0  0  0  0
  -27.2960  -22.7838   22.9193 C   0  0  0  0  0  0  0  0  0  0  0  0
  -25.2494  -19.9459   17.0191 C   0  0  0  0  0  0  0  0  0  0  0  0
  -27.6980  -22.6935   21.4440 C   0  0  0  0  0  0  0  0  0  0  0  0
  -29.7570  -24.1901   21.7737 C   0  0  0  0  0  0  0  0  0  0  0  0
  -24.9497  -18.6967   17.8395 C   0  0  0  0  0  0  0  0  0  1  0  0
  -29.5355  -22.6652   19.6507 C   0  0  2  0  0  0  0  0  0  0  0  0
  -24.8879  -14.4637   23.9099 C   0  0  1  0  0  0  0  0  0  0  0  0
  -27.6028  -16.5049   25.5930 C   0  0  2  0  0  0  0  0  0  0  0  0
  -29.2210  -22.8665   21.1875 C   0  0  2  0  0  0  0  0  0  0  0  0
  -23.6165  -14.0319   24.6939 C   0  0  0  0  0  0  0  0  0  0  0  0
  -25.5235  -29.3853   20.9223 N   0  0  0  0  0  0  0  0  0  0  0  0
  -29.6182  -20.2455   19.6627 N   0  0  0  0  0  0  0  0  0  0  0  0
  -26.7395  -29.7755   21.3408 N   0  0  0  0  0  0  0  0  0  0  0  0
  -25.5449  -13.5411   21.7097 N   0  0  0  0  0  0  0  0  0  0  0  0
  -28.9440  -27.1444   19.6596 N   0  0  0  0  0  0  0  0  0  0  0  0
  -27.8401  -31.2177   22.8637 N   0  0  0  0  0  0  0  0  0  0  0  0
  -23.4649  -32.0064   23.6583 N   0  0  0  0  0  0  0  0  0  0  0  0
  -24.4440  -10.4922   20.7812 N   0  0  0  0  0  0  0  0  0  0  0  0
  -25.9697  -14.9609   24.7531 N   0  0  0  0  0  0  0  0  0  0  0  0
  -29.1381  -25.3693   21.2104 N   0  0  0  0  0  0  0  0  0  0  0  0
  -28.6372  -17.3895   24.9859 N   0  3  0  0  0  0  0  0  0  0  0  0
  -25.6005  -32.5865   24.2592 O   0  0  0  0  0  0  0  0  0  0  0  0
  -23.8646  -12.4553   19.6707 O   0  0  0  0  0  0  0  0  0  0  0  0
  -25.8565  -12.3122   23.6665 O   0  0  0  0  0  0  0  0  0  0  0  0
  -26.1288  -17.0491   23.7576 O   0  0  0  0  0  0  0  0  0  0  0  0
  -30.6626  -25.5943   19.5127 O   0  0  0  0  0  0  0  0  0  0  0  0
  -19.1607  -29.5813   21.0837 O   0  0  0  0  0  0  0  0  0  0  0  0
  -25.1992  -17.5472   17.0316 O   0  0  0  0  0  0  0  0  0  1  0  0
  -16.1223  -29.1989   25.6691 F   0  0  0  0  0  0  0  0  0  0  0  0
  -17.5952  -27.3544   21.5662 F   0  0  0  0  0  0  0  0  0  0  0  0
  1  2  1  0  0  0  0
  1  5  2  0  0  0  0
  2  6  2  0  0  0  0
  3  8  2  0  0  0  0
  3 17  1  0  0  0  0
  4  9  1  0  0  0  0
  4 17  2  0  0  0  0
  5 19  1  0  0  0  0
  6 21  1  0  0  0  0
  7 10  2  0  0  0  0
  7 20  1  0  0  0  0
  8 24  1  0  0  0  0
  9 24  2  0  0  0  0
 10 25  1  0  0  0  0
 11 12  2  0  0  0  0
 11 26  1  0  0  0  0
 12 27  1  0  0  0  0
 13 22  1  0  0  0  0
 13 25  2  0  0  0  0
 14 23  1  0  0  0  0
 14 30  2  0  0  0  0
 15 23  2  0  0  0  0
 15 31  1  0  0  0  0
 16 27  2  0  0  0  0
 16 28  1  0  0  0  0
 17 29  1  0  0  0  0
 18 29  1  0  0  0  0
 18 32  2  0  0  0  0
 18 33  1  0  0  0  0
 19 21  2  0  0  0  0
 19 38  1  0  0  0  0
 20 22  2  0  0  0  0
 20 39  1  0  0  0  0
 21 47  1  0  0  0  0
 22 40  1  0  0  0  0
 23 58  1  0  0  0  0
 24 85  1  0  0  0  0
 25 86  1  0  0  0  0
 26 28  2  0  0  0  0
 26 85  1  0  0  0  0
 27 87  1  0  0  0  0
 28 88  1  0  0  0  0
 29 69  2  0  0  0  0
 30 50  1  0  0  0  0
 30 70  1  0  0  0  0
 31 64  1  0  0  0  0
 31 70  2  0  0  0  0
 32 71  1  0  0  0  0
 32 74  1  0  0  0  0
 33 75  1  0  0  0  0
 33 80  2  0  0  0  0
 34 48  1  0  0  0  0
 34 76  1  0  0  0  0
 34 81  2  0  0  0  0
 35 65  1  0  0  0  0
 35 72  1  0  0  0  0
 35 82  2  0  0  0  0
 36 66  1  0  0  0  0
 36 77  1  0  0  0  0
 36 83  2  0  0  0  0
 37 73  1  0  0  0  0
 37 78  1  0  0  0  0
 37 84  2  0  0  0  0
 38 41  1  0  0  0  0
 39 48  1  0  0  0  0
 40 72  1  0  0  0  0
 41 43  1  0  0  0  0
 42 44  1  0  0  0  0
 42 45  1  0  0  0  0
 43 47  1  0  0  0  0
 44 49  1  0  0  0  0
 45 73  1  0  0  0  0
 46 49  1  0  0  0  0
 46 73  1  0  0  0  0
 47 76  1  0  0  0  0
 48 72  1  0  0  0  0
 49 71  1  0  0  0  0
 51 59  1  0  0  0  0
 52 64  1  0  0  0  0
 53 66  1  0  0  0  0
 54 68  1  0  0  0  0
 55 68  1  0  0  0  0
 56 68  1  0  0  0  0
 57 79  1  0  0  0  0
 58 60  1  0  0  0  0
 59 61  1  0  0  0  0
 60 63  1  0  0  0  0
 61 67  1  0  0  0  0
 62 67  1  0  0  0  0
 62 78  1  0  0  0  0
 63 86  1  0  0  0  0
 64 67  1  0  0  0  0
 65 68  1  0  0  0  0
 65 77  1  0  0  0  0
 66 79  1  0  0  0  0
 69 71  1  0  0  0  0
M  CHG  1  79   1
M  ISO  4  37 100  63 101  78 100  86 101
M  END
> <Batch ID>
0090

> <Smiles>
CCCC(C[100NH:0][100C:0](=O)N1CCCC(n2nc(-c3ccc(Oc4ccc(F)cc4F)cc3)c(C(N)=O)c2N)C1)C(C)c1cc(CC[101CH2:1][101O:1]c2ccc3c(c2)CN(C(=O)C(NC(=O)C(C)NC)C(C)(C)C)C(C(=O)NC2CCCc4ccccc42)C3)cc(C)n1

> <Shape>
0.282

> <Color>
0.068

> <Negative vol penalty>
0.000

$$$$

  -OEChem-04052319093D

 89 97  0     1  0  0  0  0  0999 V2000
  -34.5111  -31.1408   14.5996 C   0  0  0  0  0  0  0  0  0  0  0  0
  -34.5541  -29.7550   14.4851 C   0  0  0  0  0  0  0  0  0  0  0  0
  -23.0009   -9.8957   19.9820 C   0  0  0  0  0  0  0  0  0  0  0  0
  -23.7310   -9.9456   22.2845 C   0  0  0  0  0  0  0  0  0  0  0  0
  -33.3786  -31.7609   15.1257 C   0  0  0  0  0  0  0  0  0  0  0  0
  -33.4649  -28.9883   14.8978 C   0  0  0  0  0  0  0  0  0  0  0  0
  -29.9741  -22.9380   13.3088 C   0  0  0  0  0  0  0  0  0  0  0  0
  -22.2358   -8.7604   20.2492 C   0  0  0  0  0  0  0  0  0  0  0  0
  -22.9657   -8.8104   22.5518 C   0  0  0  0  0  0  0  0  0  0  0  0
  -29.5175  -21.7675   13.9131 C   0  0  0  0  0  0  0  0  0  0  0  0
  -23.2114   -5.4719   22.0771 C   0  0  0  0  0  0  0  0  0  0  0  0
  -23.8013   -4.4547   22.8273 C   0  0  0  0  0  0  0  0  0  0  0  0
  -27.5831  -22.9526   14.7334 C   0  0  0  0  0  0  0  0  0  0  0  0
  -22.0808   -4.6953   24.5063 C   0  0  0  0  0  0  0  0  0  0  0  0
  -27.1140  -18.4654   20.0214 C   0  0  0  0  0  0  0  0  0  0  0  0
  -23.7486  -10.4882   20.9996 C   0  0  0  0  0  0  0  0  0  0  0  0
  -24.1317  -13.0042   20.8245 C   0  0  0  0  0  0  0  0  0  0  0  0
  -32.2712  -31.0021   15.5362 C   0  0  0  0  0  0  0  0  0  0  0  0
  -29.2429  -24.1293   13.4216 C   0  0  0  0  0  0  0  0  0  0  0  0
  -32.3170  -29.5987   15.4312 C   0  0  0  0  0  0  0  0  0  0  0  0
  -28.0313  -24.1363   14.1274 C   0  0  0  0  0  0  0  0  0  0  0  0
  -22.2181   -8.2178   21.5341 C   0  0  0  0  0  0  0  0  0  0  0  0
  -28.3234  -21.7753   14.6280 C   0  0  0  0  0  0  0  0  0  0  0  0
  -22.0563   -6.1010   22.5415 C   0  0  0  0  0  0  0  0  0  0  0  0
  -23.2360   -4.0663   24.0419 C   0  0  0  0  0  0  0  0  0  0  0  0
  -21.4910   -5.7126   23.7561 C   0  0  0  0  0  0  0  0  0  0  0  0
  -24.5396  -11.6606   20.7241 C   0  0  0  0  0  0  0  0  0  0  0  0
  -27.3102  -19.1405   21.2410 C   0  0  0  0  0  0  0  0  0  0  0  0
  -28.3428  -17.9283   19.7247 C   0  0  0  0  0  0  0  0  0  0  0  0
  -25.2402  -13.7278   20.4582 C   0  0  0  0  0  0  0  0  0  0  0  0
  -22.8642  -13.5495   21.2141 C   0  0  0  0  0  0  0  0  0  0  0  0
  -29.8057  -26.9969   14.6720 C   0  0  0  0  0  0  0  0  0  0  0  0
  -26.9416  -27.7144   13.3286 C   0  0  0  0  0  0  0  0  0  0  0  0
  -23.9273  -26.6108   12.1699 C   0  0  0  0  0  0  0  0  0  0  0  0
  -30.7364  -14.6661   20.6957 C   0  0  0  0  0  0  0  0  0  0  0  0
  -31.0880  -31.7140   16.1426 C   0  0  0  0  0  0  0  0  0  0  0  0
  -29.7354  -25.3771   12.7414 C   0  0  0  0  0  0  0  0  0  0  0  0
  -27.1986  -25.3842   14.2610 C   0  0  0  0  0  0  0  0  0  0  0  0
  -29.8284  -30.8542   16.2092 C   0  0  0  0  0  0  0  0  0  0  0  0
  -29.5925  -12.2432   18.3510 C   0  0  0  0  0  0  0  0  0  0  0  0
  -30.1560  -29.4689   16.7574 C   0  0  0  0  0  0  0  0  0  0  0  0
  -28.1450  -11.9822   18.7715 C   0  0  0  0  0  0  0  0  0  0  0  0
  -30.4973  -12.4784   19.5585 C   0  0  0  0  0  0  0  0  0  0  0  0
  -28.5894  -13.2717   20.9018 C   0  0  0  0  0  0  0  0  0  0  0  0
  -31.1458  -28.7344   15.8450 C   0  0  1  0  0  0  0  0  0  0  0  0
  -29.1700  -26.6546   13.3543 C   0  0  1  0  0  0  0  0  0  0  0  0
  -27.6280  -13.0842   19.7157 C   0  0  2  0  0  0  0  0  0  0  0  0
  -21.7804  -27.4365   11.1665 C   0  0  0  0  0  0  0  0  0  0  0  0
  -25.1235  -24.9144   18.1665 C   0  0  0  0  0  0  0  0  0  0  0  0
  -23.7919  -22.7952   18.1270 C   0  0  0  0  0  0  0  0  0  0  0  0
  -26.0468  -28.7117   16.0699 C   0  0  0  0  0  0  0  0  0  0  0  0
  -23.6818  -28.6228   15.2530 C   0  0  0  0  0  0  0  0  0  0  0  0
  -25.3236  -30.1440   14.1516 C   0  0  0  0  0  0  0  0  0  0  0  0
  -24.3429  -25.0381    9.6975 C   0  0  0  0  0  0  0  0  0  0  0  0
  -26.3150  -19.9000   22.0165 C   0  0  0  0  0  0  0  0  0  0  0  0
  -28.8028  -17.0928   18.5567 C   0  0  0  0  0  0  0  0  0  0  0  0
  -26.2162  -21.4026   21.6563 C   0  0  0  0  0  0  0  0  0  0  0  0
  -29.3323  -17.9159   17.3772 C   0  0  0  0  0  0  0  0  0  0  0  0
  -25.7741  -21.6276   20.2066 C   0  0  0  0  0  0  0  0  0  0  0  0
  -28.3152  -18.9287   16.8493 C   0  0  0  0  0  0  0  0  0  0  0  0
  -25.6729  -23.1092   19.8239 C   0  0  0  0  0  0  0  0  0  0  0  0
  -30.5686  -17.9769   20.8901 C   0  0  0  0  0  0  0  0  0  0  0  0
  -30.8201  -16.8443   21.8821 C   0  0  0  0  0  0  0  0  0  0  0  0
  -28.8614  -19.6987   15.6546 C   0  0  0  0  0  0  0  0  0  1  0  0
  -25.5026  -27.6496   13.7803 C   0  0  1  0  0  0  0  0  0  0  0  0
  -23.1752  -26.9006   10.8835 C   0  0  2  0  0  0  0  0  0  0  0  0
  -25.1697  -23.4012   18.3974 C   0  0  0  0  0  0  0  0  0  0  0  0
  -25.1552  -28.7588   14.8130 C   0  0  0  0  0  0  0  0  0  0  0  0
  -25.8081  -11.5352   20.3251 N   0  0  0  0  0  0  0  0  0  0  0  0
  -28.5649  -19.0427   21.6886 N   0  0  0  0  0  0  0  0  0  0  0  0
  -29.1681  -18.2997   20.7451 N   0  0  0  0  0  0  0  0  0  0  0  0
  -26.2069  -12.8094   20.1715 N   0  0  0  0  0  0  0  0  0  0  0  0
  -27.7256  -26.5803   13.5835 N   0  0  0  0  0  0  0  0  0  0  0  0
  -29.9515  -13.5362   20.4124 N   0  0  0  0  0  0  0  0  0  0  0  0
  -25.4725  -15.0537   20.3565 N   0  0  0  0  0  0  0  0  0  0  0  0
  -21.8338  -12.6644   21.5592 N   0  0  0  0  0  0  0  0  0  0  0  0
  -30.4660  -28.2107   14.6796 N   0  0  0  0  0  0  0  0  0  0  0  0
  -24.6921  -27.6869   12.5679 N   0  0  0  0  0  0  0  0  0  0  0  0
  -30.1411  -15.6239   21.5074 N   0  0  0  0  0  0  0  0  0  0  0  0
  -23.0455  -25.6597   10.0685 N   0  3  0  0  0  0  0  0  0  0  0  0
  -22.6467  -14.7846   21.2391 O   0  0  0  0  0  0  0  0  0  0  0  0
  -29.7033  -26.2182   15.6126 O   0  0  0  0  0  0  0  0  0  0  0  0
  -27.3529  -28.7310   12.7637 O   0  0  0  0  0  0  0  0  0  0  0  0
  -23.8417  -25.5385   12.7644 O   0  0  0  0  0  0  0  0  0  0  0  0
  -31.8808  -14.8131   20.2532 O   0  0  0  0  0  0  0  0  0  0  0  0
  -21.4714   -7.1102   21.7952 O   0  0  0  0  0  0  0  0  0  0  0  0
  -27.8758  -20.6344   15.2193 O   0  0  0  0  0  0  0  0  0  1  0  0
  -23.8016   -3.0883   24.7614 F   0  0  0  0  0  0  0  0  0  0  0  0
  -20.3806   -6.3124   24.2069 F   0  0  0  0  0  0  0  0  0  0  0  0
  1  2  1  0  0  0  0
  1  5  2  0  0  0  0
  2  6  2  0  0  0  0
  3  8  2  0  0  0  0
  3 16  1  0  0  0  0
  4  9  1  0  0  0  0
  4 16  2  0  0  0  0
  5 18  1  0  0  0  0
  6 20  1  0  0  0  0
  7 10  2  0  0  0  0
  7 19  1  0  0  0  0
  8 22  1  0  0  0  0
  9 22  2  0  0  0  0
 10 23  1  0  0  0  0
 11 12  2  0  0  0  0
 11 24  1  0  0  0  0
 12 25  1  0  0  0  0
 13 21  1  0  0  0  0
 13 23  2  0  0  0  0
 14 25  2  0  0  0  0
 14 26  1  0  0  0  0
 15 28  1  0  0  0  0
 15 29  2  0  0  0  0
 16 27  1  0  0  0  0
 17 27  1  0  0  0  0
 17 30  2  0  0  0  0
 17 31  1  0  0  0  0
 18 20  2  0  0  0  0
 18 36  1  0  0  0  0
 19 21  2  0  0  0  0
 19 37  1  0  0  0  0
 20 45  1  0  0  0  0
 21 38  1  0  0  0  0
 22 86  1  0  0  0  0
 23 87  1  0  0  0  0
 24 26  2  0  0  0  0
 24 86  1  0  0  0  0
 25 88  1  0  0  0  0
 26 89  1  0  0  0  0
 27 69  2  0  0  0  0
 28 55  1  0  0  0  0
 28 70  2  0  0  0  0
 29 56  1  0  0  0  0
 29 71  1  0  0  0  0
 30 72  1  0  0  0  0
 30 75  1  0  0  0  0
 31 76  1  0  0  0  0
 31 81  2  0  0  0  0
 32 46  1  0  0  0  0
 32 77  1  0  0  0  0
 32 82  2  0  0  0  0
 33 65  1  0  0  0  0
 33 73  1  0  0  0  0
 33 83  2  0  0  0  0
 34 66  1  0  0  0  0
 34 78  1  0  0  0  0
 34 84  2  0  0  0  0
 35 74  1  0  0  0  0
 35 79  1  0  0  0  0
 35 85  2  0  0  0  0
 36 39  1  0  0  0  0
 37 46  1  0  0  0  0
 38 73  1  0  0  0  0
 39 41  1  0  0  0  0
 40 42  1  0  0  0  0
 40 43  1  0  0  0  0
 41 45  1  0  0  0  0
 42 47  1  0  0  0  0
 43 74  1  0  0  0  0
 44 47  1  0  0  0  0
 44 74  1  0  0  0  0
 45 77  1  0  0  0  0
 46 73  1  0  0  0  0
 47 72  1  0  0  0  0
 48 66  1  0  0  0  0
 49 67  1  0  0  0  0
 50 67  1  0  0  0  0
 51 68  1  0  0  0  0
 52 68  1  0  0  0  0
 53 68  1  0  0  0  0
 54 80  1  0  0  0  0
 55 57  1  0  0  0  0
 56 58  1  0  0  0  0
 57 59  1  0  0  0  0
 58 60  1  0  0  0  0
 59 61  1  0  0  0  0
 60 64  1  0  0  0  0
 61 67  1  0  0  0  0
 62 63  1  0  0  0  0
 62 71  1  0  0  0  0
 63 79  1  0  0  0  0
 64 87  1  0  0  0  0
 65 68  1  0  0  0  0
 65 78  1  0  0  0  0
 66 80  1  0  0  0  0
 69 72  1  0  0  0  0
 70 71  1  0  0  0  0
M  CHG  1  80   1
M  ISO  4  35 100  64 101  79 100  87 101
M  END
> <Batch ID>
0090

> <Smiles>
CNC(C)C(=O)NC(C(=O)N1Cc2cc([101O:1][101CH2:1]CCCc3cc(CCCCC(C)C)nn3CC[100NH:0][100C:0](=O)N3CCCC(n4nc(-c5ccc(Oc6ccc(F)cc6F)cc5)c(C(N)=O)c4N)C3)ccc2CC1C(=O)NC1CCCc2ccccc21)C(C)(C)C

> <Shape>
0.201

> <Color>
0.193

> <Negative vol penalty>
0.000

$$$$

  -OEChem-04052319093D

 90 98  0     1  0  0  0  0  0999 V2000
  -31.3493  -30.4928   16.6272 C   0  0  0  0  0  0  0  0  0  0  0  0
  -30.5009  -29.8362   17.5129 C   0  0  0  0  0  0  0  0  0  0  0  0
  -23.0788   -9.8728   19.9267 C   0  0  0  0  0  0  0  0  0  0  0  0
  -23.8495   -9.8573   22.2164 C   0  0  0  0  0  0  0  0  0  0  0  0
  -32.1965  -29.7567   15.7999 C   0  0  0  0  0  0  0  0  0  0  0  0
  -30.4984  -28.4430   17.5711 C   0  0  0  0  0  0  0  0  0  0  0  0
  -29.6297  -24.9672   22.5380 C   0  0  0  0  0  0  0  0  0  0  0  0
  -22.3414   -8.7135   20.1670 C   0  0  0  0  0  0  0  0  0  0  0  0
  -23.1121   -8.6979   22.4567 C   0  0  0  0  0  0  0  0  0  0  0  0
  -28.5088  -24.3023   23.0332 C   0  0  0  0  0  0  0  0  0  0  0  0
  -19.8905   -7.8784   23.0653 C   0  0  0  0  0  0  0  0  0  0  0  0
  -19.1393   -7.8217   24.2391 C   0  0  0  0  0  0  0  0  0  0  0  0
  -29.2493  -22.2705   21.9642 C   0  0  0  0  0  0  0  0  0  0  0  0
  -28.4400  -17.4139   24.4754 C   0  0  0  0  0  0  0  0  0  0  0  0
  -20.3930   -5.8818   24.9477 C   0  0  0  0  0  0  0  0  0  0  0  0
  -23.8329  -10.4447   20.9514 C   0  0  0  0  0  0  0  0  0  0  0  0
  -24.1627  -12.9726   20.8585 C   0  0  0  0  0  0  0  0  0  0  0  0
  -32.2113  -28.3541   15.8548 C   0  0  0  0  0  0  0  0  0  0  0  0
  -30.5648  -24.2903   21.7418 C   0  0  0  0  0  0  0  0  0  0  0  0
  -31.3456  -27.6874   16.7428 C   0  0  0  0  0  0  0  0  0  0  0  0
  -30.3826  -22.9284   21.4623 C   0  0  0  0  0  0  0  0  0  0  0  0
  -27.8917  -18.5240   25.1639 C   0  0  0  0  0  0  0  0  0  0  0  0
  -22.3580   -8.1260   21.4320 C   0  0  0  0  0  0  0  0  0  0  0  0
  -28.3170  -22.9545   22.7439 C   0  0  0  0  0  0  0  0  0  0  0  0
  -20.8929   -6.9368   22.8325 C   0  0  0  0  0  0  0  0  0  0  0  0
  -19.3906   -6.8234   25.1804 C   0  0  0  0  0  0  0  0  0  0  0  0
  -21.1442   -5.9385   23.7737 C   0  0  0  0  0  0  0  0  0  0  0  0
  -24.5953  -11.6420   20.7036 C   0  0  0  0  0  0  0  0  0  0  0  0
  -29.7583  -17.3025   24.8586 C   0  0  0  0  0  0  0  0  0  0  0  0
  -28.8917  -19.0573   25.9468 C   0  0  0  0  0  0  0  0  0  0  0  0
  -25.2496  -13.7312   20.4986 C   0  0  0  0  0  0  0  0  0  0  0  0
  -22.8918  -13.4777   21.2892 C   0  0  0  0  0  0  0  0  0  0  0  0
  -31.6116  -24.6008   18.7565 C   0  0  0  0  0  0  0  0  0  0  0  0
  -33.6926  -22.2818   19.6585 C   0  0  0  0  0  0  0  0  0  0  0  0
  -34.4040  -19.6816   21.7513 C   0  0  0  0  0  0  0  0  0  0  0  0
  -30.7295  -14.7734   20.6729 C   0  0  0  0  0  0  0  0  0  0  0  0
  -33.1104  -27.6000   14.9073 C   0  0  0  0  0  0  0  0  0  0  0  0
  -31.7825  -25.0152   21.2375 C   0  0  0  0  0  0  0  0  0  0  0  0
  -31.3675  -22.1512   20.6290 C   0  0  0  0  0  0  0  0  0  0  0  0
  -33.3162  -26.1383   15.2964 C   0  0  0  0  0  0  0  0  0  0  0  0
  -29.5915  -12.4109   18.2645 C   0  0  0  0  0  0  0  0  0  0  0  0
  -31.9826  -25.4868   15.6486 C   0  0  0  0  0  0  0  0  0  0  0  0
  -28.1575  -12.1056   18.7008 C   0  0  0  0  0  0  0  0  0  0  0  0
  -30.5133  -12.6223   19.4635 C   0  0  0  0  0  0  0  0  0  0  0  0
  -28.6148  -13.3288   20.8672 C   0  0  0  0  0  0  0  0  0  0  0  0
  -31.3318  -26.1782   16.8527 C   0  0  1  0  0  0  0  0  0  0  0  0
  -32.4040  -24.3568   20.0096 C   0  0  1  0  0  0  0  0  0  0  0  0
  -27.6359  -13.1631   19.6923 C   0  0  2  0  0  0  0  0  0  0  0  0
  -28.8679  -20.2176   26.8629 C   0  0  0  0  0  0  0  0  0  0  0  0
  -34.0221  -18.2324   30.6638 C   0  0  0  0  0  0  0  0  0  0  0  0
  -36.1640  -17.9555   22.2208 C   0  0  0  0  0  0  0  0  0  0  0  0
  -25.5635  -18.2093   24.0818 C   0  0  0  0  0  0  0  0  0  0  0  0
  -25.7777  -18.9206   26.4468 C   0  0  0  0  0  0  0  0  0  0  0  0
  -32.7680  -20.6820   17.2304 C   0  0  0  0  0  0  0  0  0  0  0  0
  -33.8110  -18.6513   18.2583 C   0  0  0  0  0  0  0  0  0  0  0  0
  -35.2322  -20.6093   17.6508 C   0  0  0  0  0  0  0  0  0  0  0  0
  -34.8567  -20.7189   24.4859 C   0  0  0  0  0  0  0  0  0  0  0  0
  -30.7843  -16.3228   24.4460 C   0  0  0  0  0  0  0  0  0  0  0  0
  -32.6900  -17.9406   29.9915 C   0  0  0  0  0  0  0  0  0  0  0  0
  -31.6159  -16.7321   23.2070 C   0  0  0  0  0  0  0  0  0  0  0  0
  -32.7079  -18.3411   28.5159 C   0  0  0  0  0  0  0  0  0  0  0  0
  -31.3523  -18.0793   27.8537 C   0  0  0  0  0  0  0  0  0  0  0  0
  -26.4031  -20.5291   24.6163 C   0  0  0  0  0  0  0  0  0  0  0  0
  -31.2991  -18.5389   26.3944 C   0  0  0  0  0  0  0  0  0  0  0  0
  -30.7914  -16.9100   21.9338 C   0  0  0  0  0  0  0  0  0  0  0  0
  -27.3622  -20.9076   23.4886 C   0  0  0  0  0  0  0  0  0  1  0  0
  -33.6838  -20.7723   19.6427 C   0  0  1  0  0  0  0  0  0  0  0  0
  -35.6477  -19.3464   22.5547 C   0  0  2  0  0  0  0  0  0  0  0  0
  -26.4432  -19.0334   25.0524 C   0  0  0  0  0  0  0  0  0  0  0  0
  -33.8540  -20.1936   18.2097 C   0  0  0  0  0  0  0  0  0  0  0  0
  -25.8586  -11.5567   20.2783 N   0  0  0  0  0  0  0  0  0  0  0  0
  -30.0219  -18.3069   25.7530 N   0  0  0  0  0  0  0  0  0  0  0  0
  -26.2291  -12.8434   20.1628 N   0  0  0  0  0  0  0  0  0  0  0  0
  -32.5389  -22.9058   20.1537 N   0  0  0  0  0  0  0  0  0  0  0  0
  -29.9623  -13.6381   20.3637 N   0  0  0  0  0  0  0  0  0  0  0  0
  -25.4536  -15.0644   20.4398 N   0  0  0  0  0  0  0  0  0  0  0  0
  -21.8857  -12.5601   21.6208 N   0  0  0  0  0  0  0  0  0  0  0  0
  -31.9658  -25.7540   18.0826 N   0  0  0  0  0  0  0  0  0  0  0  0
  -34.7139  -20.3481   20.5847 N   0  0  0  0  0  0  0  0  0  0  0  0
  -30.1301  -15.6898   21.5282 N   0  0  0  0  0  0  0  0  0  0  0  0
  -35.3514  -19.3999   24.0143 N   0  3  0  0  0  0  0  0  0  0  0  0
  -22.6502  -14.7065   21.3616 O   0  0  0  0  0  0  0  0  0  0  0  0
  -30.7441  -23.8013   18.4249 O   0  0  0  0  0  0  0  0  0  0  0  0
  -34.6895  -22.8849   19.2533 O   0  0  0  0  0  0  0  0  0  0  0  0
  -33.2713  -19.3789   22.1198 O   0  0  0  0  0  0  0  0  0  0  0  0
  -31.8625  -14.9592   20.2160 O   0  0  0  0  0  0  0  0  0  0  0  0
  -21.6384   -6.9949   21.6669 O   0  0  0  0  0  0  0  0  0  0  0  0
  -27.2234  -22.3032   23.2254 O   0  0  0  0  0  0  0  0  0  1  0  0
  -18.6701   -6.7700   26.3084 F   0  0  0  0  0  0  0  0  0  0  0  0
  -22.1067   -5.0318   23.5563 F   0  0  0  0  0  0  0  0  0  0  0  0
  1  2  1  0  0  0  0
  1  5  2  0  0  0  0
  2  6  2  0  0  0  0
  3  8  2  0  0  0  0
  3 16  1  0  0  0  0
  4  9  1  0  0  0  0
  4 16  2  0  0  0  0
  5 18  1  0  0  0  0
  6 20  1  0  0  0  0
  7 10  2  0  0  0  0
  7 19  1  0  0  0  0
  8 23  1  0  0  0  0
  9 23  2  0  0  0  0
 10 24  1  0  0  0  0
 11 12  2  0  0  0  0
 11 25  1  0  0  0  0
 12 26  1  0  0  0  0
 13 21  1  0  0  0  0
 13 24  2  0  0  0  0
 14 22  1  0  0  0  0
 14 29  2  0  0  0  0
 15 26  2  0  0  0  0
 15 27  1  0  0  0  0
 16 28  1  0  0  0  0
 17 28  1  0  0  0  0
 17 31  2  0  0  0  0
 17 32  1  0  0  0  0
 18 20  2  0  0  0  0
 18 37  1  0  0  0  0
 19 21  2  0  0  0  0
 19 38  1  0  0  0  0
 20 46  1  0  0  0  0
 21 39  1  0  0  0  0
 22 30  2  0  0  0  0
 22 69  1  0  0  0  0
 23 87  1  0  0  0  0
 24 88  1  0  0  0  0
 25 27  2  0  0  0  0
 25 87  1  0  0  0  0
 26 89  1  0  0  0  0
 27 90  1  0  0  0  0
 28 71  2  0  0  0  0
 29 58  1  0  0  0  0
 29 72  1  0  0  0  0
 30 49  1  0  0  0  0
 30 72  1  0  0  0  0
 31 73  1  0  0  0  0
 31 76  1  0  0  0  0
 32 77  1  0  0  0  0
 32 82  2  0  0  0  0
 33 47  1  0  0  0  0
 33 78  1  0  0  0  0
 33 83  2  0  0  0  0
 34 67  1  0  0  0  0
 34 74  1  0  0  0  0
 34 84  2  0  0  0  0
 35 68  1  0  0  0  0
 35 79  1  0  0  0  0
 35 85  2  0  0  0  0
 36 75  1  0  0  0  0
 36 80  1  0  0  0  0
 36 86  2  0  0  0  0
 37 40  1  0  0  0  0
 38 47  1  0  0  0  0
 39 74  1  0  0  0  0
 40 42  1  0  0  0  0
 41 43  1  0  0  0  0
 41 44  1  0  0  0  0
 42 46  1  0  0  0  0
 43 48  1  0  0  0  0
 44 75  1  0  0  0  0
 45 48  1  0  0  0  0
 45 75  1  0  0  0  0
 46 78  1  0  0  0  0
 47 74  1  0  0  0  0
 48 73  1  0  0  0  0
 50 59  1  0  0  0  0
 51 68  1  0  0  0  0
 52 69  1  0  0  0  0
 53 69  1  0  0  0  0
 54 70  1  0  0  0  0
 55 70  1  0  0  0  0
 56 70  1  0  0  0  0
 57 81  1  0  0  0  0
 58 60  1  0  0  0  0
 59 61  1  0  0  0  0
 60 65  1  0  0  0  0
 61 62  1  0  0  0  0
 62 64  1  0  0  0  0
 63 66  1  0  0  0  0
 63 69  1  0  0  0  0
 64 72  1  0  0  0  0
 65 80  1  0  0  0  0
 66 88  1  0  0  0  0
 67 70  1  0  0  0  0
 67 79  1  0  0  0  0
 68 81  1  0  0  0  0
 71 73  1  0  0  0  0
M  CHG  1  81   1
M  ISO  4  36 100  66 101  80 100  88 101
M  END
> <Batch ID>
0090

> <Smiles>
CCCCCn1c(CCC[100NH:0][100C:0](=O)N2CCCC(n3nc(-c4ccc(Oc5ccc(F)cc5F)cc4)c(C(N)=O)c3N)C2)cc(C(C)(C)C[101CH2:1][101O:1]c2ccc3c(c2)CN(C(=O)C(NC(=O)C(C)NC)C(C)(C)C)C(C(=O)NC2CCCc4ccccc42)C3)c1C

> <Shape>
0.194

> <Color>
0.193

> <Negative vol penalty>
0.000

$$$$

  -OEChem-04052319093D

 84 92  0     1  0  0  0  0  0999 V2000
  -25.9500   -7.5061   26.8850 C   0  0  0  0  0  0  0  0  0  0  0  0
  -26.6692   -8.6476   26.5457 C   0  0  0  0  0  0  0  0  0  0  0  0
  -23.0858   -9.8690   19.9420 C   0  0  0  0  0  0  0  0  0  0  0  0
  -23.7002   -9.9593   22.2768 C   0  0  0  0  0  0  0  0  0  0  0  0
  -24.5615   -7.5661   26.9973 C   0  0  0  0  0  0  0  0  0  0  0  0
  -26.0002   -9.8496   26.3173 C   0  0  0  0  0  0  0  0  0  0  0  0
  -27.9979  -15.4846   27.6447 C   0  0  0  0  0  0  0  0  0  0  0  0
  -22.3279   -8.7237   20.1857 C   0  0  0  0  0  0  0  0  0  0  0  0
  -22.9422   -8.8140   22.5206 C   0  0  0  0  0  0  0  0  0  0  0  0
  -28.6043  -16.4717   26.8691 C   0  0  0  0  0  0  0  0  0  0  0  0
  -21.4609   -5.7081   23.6904 C   0  0  0  0  0  0  0  0  0  0  0  0
  -22.0285   -4.7118   24.4846 C   0  0  0  0  0  0  0  0  0  0  0  0
  -26.4554  -17.5118   26.5235 C   0  0  0  0  0  0  0  0  0  0  0  0
  -23.8361   -4.4775   22.8988 C   0  0  0  0  0  0  0  0  0  0  0  0
  -30.8068  -19.1132   20.7237 C   0  0  0  0  0  0  0  0  0  0  0  0
  -23.7720  -10.4868   20.9875 C   0  0  0  0  0  0  0  0  0  0  0  0
  -24.1204  -13.0069   20.7992 C   0  0  0  0  0  0  0  0  0  0  0  0
  -23.8761   -8.7717   26.7796 C   0  0  0  0  0  0  0  0  0  0  0  0
  -26.6118  -15.4975   27.8569 C   0  0  0  0  0  0  0  0  0  0  0  0
  -24.6012   -9.9255   26.4255 C   0  0  0  0  0  0  0  0  0  0  0  0
  -25.8342  -16.5252   27.3043 C   0  0  0  0  0  0  0  0  0  0  0  0
  -22.2560   -8.1962   21.4750 C   0  0  0  0  0  0  0  0  0  0  0  0
  -27.8327  -17.4839   26.3060 C   0  0  0  0  0  0  0  0  0  0  0  0
  -22.0808   -6.0890   22.5003 C   0  0  0  0  0  0  0  0  0  0  0  0
  -23.2162   -4.0965   24.0888 C   0  0  0  0  0  0  0  0  0  0  0  0
  -23.2684   -5.4737   22.1045 C   0  0  0  0  0  0  0  0  0  0  0  0
  -24.5556  -11.6696   20.7362 C   0  0  0  0  0  0  0  0  0  0  0  0
  -31.1544  -17.9896   20.0283 C   0  0  0  0  0  0  0  0  0  0  0  0
  -25.2331  -13.7455   20.4787 C   0  0  0  0  0  0  0  0  0  0  0  0
  -29.0101  -18.3902   19.6515 C   0  0  0  0  0  0  0  0  0  0  0  0
  -22.8260  -13.5342   21.1190 C   0  0  0  0  0  0  0  0  0  0  0  0
  -24.2175  -13.5262   27.1608 C   0  0  0  0  0  0  0  0  0  0  0  0
  -22.4893  -15.6273   28.9274 C   0  0  0  0  0  0  0  0  0  0  0  0
  -22.1603  -18.7922   30.1611 C   0  0  0  0  0  0  0  0  0  0  0  0
  -30.5651  -14.8196   21.0811 C   0  0  0  0  0  0  0  0  0  0  0  0
  -22.3704   -8.7765   26.8663 C   0  0  0  0  0  0  0  0  0  0  0  0
  -25.9766  -14.4405   28.7181 C   0  0  0  0  0  0  0  0  0  0  0  0
  -24.3450  -16.5957   27.5189 C   0  0  0  0  0  0  0  0  0  0  0  0
  -21.7710  -10.1762   26.9750 C   0  0  0  0  0  0  0  0  0  0  0  0
  -29.7120  -12.3148   18.6122 C   0  0  0  0  0  0  0  0  0  0  0  0
  -22.4066  -11.1102   25.9500 C   0  0  0  0  0  0  0  0  0  0  0  0
  -28.2478  -12.0353   18.9559 C   0  0  0  0  0  0  0  0  0  0  0  0
  -30.5393  -12.5549   19.8715 C   0  0  0  0  0  0  0  0  0  0  0  0
  -28.5591  -13.3642   21.0953 C   0  0  0  0  0  0  0  0  0  0  0  0
  -23.9137  -11.2536   26.1943 C   0  0  1  0  0  0  0  0  0  0  0  0
  -24.4867  -14.2615   28.4431 C   0  0  1  0  0  0  0  0  0  0  0  0
  -27.6652  -13.1354   19.8629 C   0  0  2  0  0  0  0  0  0  0  0  0
  -27.6261  -18.2612   19.1312 C   0  0  0  0  0  0  0  0  0  0  0  0
  -20.6242  -20.2191   31.5402 C   0  0  0  0  0  0  0  0  0  0  0  0
  -34.1174  -15.7930   21.1333 C   0  0  0  0  0  0  0  0  0  0  0  0
  -20.5769  -15.8520   26.5606 C   0  0  0  0  0  0  0  0  0  0  0  0
  -19.6501  -17.9343   27.5965 C   0  0  0  0  0  0  0  0  0  0  0  0
  -19.4620  -15.7558   28.7971 C   0  0  0  0  0  0  0  0  0  0  0  0
  -24.2492  -19.2716   32.2020 C   0  0  0  0  0  0  0  0  0  0  0  0
  -32.4299  -17.2778   19.9139 C   0  0  0  0  0  0  0  0  0  0  0  0
  -27.7762  -20.0829   22.2191 C   0  0  0  0  0  0  0  0  0  0  0  0
  -28.5566  -19.4387   23.3660 C   0  0  0  0  0  0  0  0  0  0  0  0
  -28.6664  -20.4794   21.0359 C   0  0  0  0  0  0  0  0  0  0  0  0
  -27.6359  -19.0268   24.5069 C   0  0  0  0  0  0  0  0  0  1  0  0
  -21.7157  -16.8896   28.6323 C   0  0  1  0  0  0  0  0  0  0  0  0
  -21.8372  -19.3018   31.5540 C   0  0  2  0  0  0  0  0  0  0  0  0
  -32.6464  -16.1668   20.9802 C   0  0  1  0  0  0  0  0  0  0  0  0
  -20.3790  -16.6058   27.8908 C   0  0  0  0  0  0  0  0  0  0  0  0
  -25.8442  -11.5619   20.4018 N   0  0  0  0  0  0  0  0  0  0  0  0
  -29.4748  -19.3381   20.4720 N   0  0  0  0  0  0  0  0  0  0  0  0
  -26.2283  -12.8410   20.2517 N   0  0  0  0  0  0  0  0  0  0  0  0
  -30.0235  -17.5634   19.3744 N   0  3  0  0  0  0  0  0  0  0  0  0
  -23.7696  -15.5357   28.3633 N   0  0  0  0  0  0  0  0  0  0  0  0
  -29.9416  -13.6260   20.6812 N   0  0  0  0  0  0  0  0  0  0  0  0
  -25.4475  -15.0741   20.3716 N   0  0  0  0  0  0  0  0  0  0  0  0
  -21.7951  -12.6352   21.4243 N   0  0  0  0  0  0  0  0  0  0  0  0
  -24.1631  -12.1525   27.3007 N   0  0  0  0  0  0  0  0  0  0  0  0
  -21.5566  -17.5785   29.9084 N   0  0  0  0  0  0  0  0  0  0  0  0
  -31.8764  -14.9874   20.6532 N   0  0  0  0  0  0  0  0  0  0  0  0
  -22.9936  -20.0602   32.1093 N   0  3  0  0  0  0  0  0  0  0  0  0
  -22.5865  -14.7656   21.1175 O   0  0  0  0  0  0  0  0  0  0  0  0
  -24.0686  -14.1583   26.1216 O   0  0  0  0  0  0  0  0  0  0  0  0
  -21.9793  -14.7577   29.6383 O   0  0  0  0  0  0  0  0  0  0  0  0
  -22.8736  -19.4108   29.3743 O   0  0  0  0  0  0  0  0  0  0  0  0
  -29.9935  -15.6757   21.7648 O   0  0  0  0  0  0  0  0  0  0  0  0
  -21.5163   -7.0788   21.7132 O   0  0  0  0  0  0  0  0  0  0  0  0
  -28.4219  -18.4483   25.5480 O   0  0  0  0  0  0  0  0  0  1  0  0
  -23.7620   -3.1409   24.8524 F   0  0  0  0  0  0  0  0  0  0  0  0
  -23.8692   -5.8363   20.9628 F   0  0  0  0  0  0  0  0  0  0  0  0
  1  2  1  0  0  0  0
  1  5  2  0  0  0  0
  2  6  2  0  0  0  0
  3  8  2  0  0  0  0
  3 16  1  0  0  0  0
  4  9  1  0  0  0  0
  4 16  2  0  0  0  0
  5 18  1  0  0  0  0
  6 20  1  0  0  0  0
  7 10  2  0  0  0  0
  7 19  1  0  0  0  0
  8 22  1  0  0  0  0
  9 22  2  0  0  0  0
 10 23  1  0  0  0  0
 11 12  2  0  0  0  0
 11 24  1  0  0  0  0
 12 25  1  0  0  0  0
 13 21  1  0  0  0  0
 13 23  2  0  0  0  0
 14 25  2  0  0  0  0
 14 26  1  0  0  0  0
 15 28  2  0  0  0  0
 15 65  1  0  0  0  0
 16 27  1  0  0  0  0
 17 27  1  0  0  0  0
 17 29  2  0  0  0  0
 17 31  1  0  0  0  0
 18 20  2  0  0  0  0
 18 36  1  0  0  0  0
 19 21  2  0  0  0  0
 19 37  1  0  0  0  0
 20 45  1  0  0  0  0
 21 38  1  0  0  0  0
 22 81  1  0  0  0  0
 23 82  1  0  0  0  0
 24 26  2  0  0  0  0
 24 81  1  0  0  0  0
 25 83  1  0  0  0  0
 26 84  1  0  0  0  0
 27 64  2  0  0  0  0
 28 55  1  0  0  0  0
 28 67  1  0  0  0  0
 29 66  1  0  0  0  0
 29 70  1  0  0  0  0
 30 48  1  0  0  0  0
 30 65  1  0  0  0  0
 30 67  2  0  0  0  0
 31 71  1  0  0  0  0
 31 76  2  0  0  0  0
 32 46  1  0  0  0  0
 32 72  1  0  0  0  0
 32 77  2  0  0  0  0
 33 60  1  0  0  0  0
 33 68  1  0  0  0  0
 33 78  2  0  0  0  0
 34 61  1  0  0  0  0
 34 73  1  0  0  0  0
 34 79  2  0  0  0  0
 35 69  1  0  0  0  0
 35 74  1  0  0  0  0
 35 80  2  0  0  0  0
 36 39  1  0  0  0  0
 37 46  1  0  0  0  0
 38 68  1  0  0  0  0
 39 41  1  0  0  0  0
 40 42  1  0  0  0  0
 40 43  1  0  0  0  0
 41 45  1  0  0  0  0
 42 47  1  0  0  0  0
 43 69  1  0  0  0  0
 44 47  1  0  0  0  0
 44 69  1  0  0  0  0
 45 72  1  0  0  0  0
 46 68  1  0  0  0  0
 47 66  1  0  0  0  0
 49 61  1  0  0  0  0
 50 62  1  0  0  0  0
 51 63  1  0  0  0  0
 52 63  1  0  0  0  0
 53 63  1  0  0  0  0
 54 75  1  0  0  0  0
 55 62  1  0  0  0  0
 56 57  1  0  0  0  0
 56 58  1  0  0  0  0
 57 59  1  0  0  0  0
 58 65  1  0  0  0  0
 59 82  1  0  0  0  0
 60 63  1  0  0  0  0
 60 73  1  0  0  0  0
 61 75  1  0  0  0  0
 62 74  1  0  0  0  0
 64 66  1  0  0  0  0
M  CHG  2  67   1  75   1
M  ISO  4  35 100  59 101  74 100  82 101
M  END
> <Batch ID>
0090

> <Smiles>
CNC(C)C(=O)NC(C(=O)N1Cc2cc([101O:1][101CH2:1]CCCn3cc(CC(C)[100NH:0][100C:0](=O)N4CCCC(n5nc(-c6ccc(Oc7ccc(F)cc7F)cc6)c(C(N)=O)c5N)C4)nc3C)ccc2CC1C(=O)NC1CCCc2ccccc21)C(C)(C)C

> <Shape>
0.195

> <Color>
0.176

> <Negative vol penalty>
0.000

$$$$

  -OEChem-04052319093D

 80 88  0     1  0  0  0  0  0999 V2000
  -14.0425  -25.0747   24.7424 C   0  0  0  0  0  0  0  0  0  0  0  0
  -15.1015  -24.9896   23.8443 C   0  0  0  0  0  0  0  0  0  0  0  0
  -23.0727   -9.8746   19.9428 C   0  0  0  0  0  0  0  0  0  0  0  0
  -23.8355   -9.8804   22.2353 C   0  0  0  0  0  0  0  0  0  0  0  0
  -14.0619  -24.3202   25.9148 C   0  0  0  0  0  0  0  0  0  0  0  0
  -16.1811  -24.1507   24.1185 C   0  0  0  0  0  0  0  0  0  0  0  0
  -21.0031  -20.0001   20.8266 C   0  0  0  0  0  0  0  0  0  0  0  0
  -22.3274   -8.7226   20.1938 C   0  0  0  0  0  0  0  0  0  0  0  0
  -23.0901   -8.7284   22.4862 C   0  0  0  0  0  0  0  0  0  0  0  0
  -22.3801  -19.7916   20.7628 C   0  0  0  0  0  0  0  0  0  0  0  0
  -19.3797   -7.9306   21.6488 C   0  0  0  0  0  0  0  0  0  0  0  0
  -18.0722   -7.8864   21.1652 C   0  0  0  0  0  0  0  0  0  0  0  0
  -22.2682  -18.4753   22.7812 C   0  0  0  0  0  0  0  0  0  0  0  0
  -18.6272   -5.9424   19.8423 C   0  0  0  0  0  0  0  0  0  0  0  0
  -28.5514  -19.3465   21.6739 C   0  0  0  0  0  0  0  0  0  0  0  0
  -27.0516  -18.1122   19.8424 C   0  0  0  0  0  0  0  0  0  0  0  0
  -23.8269  -10.4535   20.9636 C   0  0  0  0  0  0  0  0  0  0  0  0
  -24.1725  -12.9781   20.8430 C   0  0  0  0  0  0  0  0  0  0  0  0
  -15.1377  -23.4644   26.1989 C   0  0  0  0  0  0  0  0  0  0  0  0
  -20.2487  -19.4560   21.8759 C   0  0  0  0  0  0  0  0  0  0  0  0
  -16.2155  -23.3851   25.2964 C   0  0  0  0  0  0  0  0  0  0  0  0
  -20.8814  -18.6763   22.8546 C   0  0  0  0  0  0  0  0  0  0  0  0
  -22.3361   -8.1495   21.4655 C   0  0  0  0  0  0  0  0  0  0  0  0
  -23.0134  -19.0315   21.7417 C   0  0  0  0  0  0  0  0  0  0  0  0
  -20.3111   -6.9808   21.2291 C   0  0  0  0  0  0  0  0  0  0  0  0
  -17.6959   -6.8923   20.2620 C   0  0  0  0  0  0  0  0  0  0  0  0
  -19.9348   -5.9867   20.3259 C   0  0  0  0  0  0  0  0  0  0  0  0
  -24.5975  -11.6432   20.7048 C   0  0  0  0  0  0  0  0  0  0  0  0
  -29.0926  -18.3991   20.8330 C   0  0  0  0  0  0  0  0  0  0  0  0
  -26.5101  -19.0589   20.6838 C   0  0  0  0  0  0  0  0  0  0  0  0
  -25.2653  -13.7259   20.4784 C   0  0  0  0  0  0  0  0  0  0  0  0
  -22.9033  -13.4959   21.2636 C   0  0  0  0  0  0  0  0  0  0  0  0
  -18.4638  -20.6598   24.2145 C   0  0  0  0  0  0  0  0  0  0  0  0
  -17.7667  -17.5393   24.7611 C   0  0  0  0  0  0  0  0  0  0  0  0
  -18.6859  -14.2675   24.4485 C   0  0  0  0  0  0  0  0  0  0  0  0
  -30.7509  -14.7364   20.6597 C   0  0  0  0  0  0  0  0  0  0  0  0
  -15.1363  -22.7043   27.5016 C   0  0  0  0  0  0  0  0  0  0  0  0
  -18.7601  -19.6678   21.9157 C   0  0  0  0  0  0  0  0  0  0  0  0
  -20.1136  -18.0532   23.9907 C   0  0  0  0  0  0  0  0  0  0  0  0
  -16.1418  -21.5564   27.5381 C   0  0  0  0  0  0  0  0  0  0  0  0
  -29.6066  -12.3536   18.2745 C   0  0  0  0  0  0  0  0  0  0  0  0
  -17.4964  -22.0162   27.0085 C   0  0  0  0  0  0  0  0  0  0  0  0
  -28.1692  -12.0621   18.7092 C   0  0  0  0  0  0  0  0  0  0  0  0
  -30.5256  -12.5730   19.4742 C   0  0  0  0  0  0  0  0  0  0  0  0
  -28.6267  -13.3071   20.8632 C   0  0  0  0  0  0  0  0  0  0  0  0
  -17.3928  -22.4678   25.5467 C   0  0  1  0  0  0  0  0  0  0  0  0
  -18.1691  -19.4955   23.3116 C   0  0  1  0  0  0  0  0  0  0  0  0
  -27.6508  -13.1340   19.6868 C   0  0  2  0  0  0  0  0  0  0  0  0
  -18.4843  -11.7696   24.5794 C   0  0  0  0  0  0  0  0  0  0  0  0
  -18.6204  -17.9853   27.6563 C   0  0  0  0  0  0  0  0  0  0  0  0
  -18.7577  -15.4999   27.9255 C   0  0  0  0  0  0  0  0  0  0  0  0
  -16.5742  -16.5746   27.3775 C   0  0  0  0  0  0  0  0  0  0  0  0
  -17.4352  -14.1120   21.7707 C   0  0  0  0  0  0  0  0  0  0  0  0
  -30.5345  -18.0407   20.9266 C   0  0  0  0  0  0  0  0  0  0  0  0
  -25.0569  -19.4205   20.5892 C   0  0  0  0  0  0  0  0  0  1  0  0
  -30.8217  -16.8869   21.8965 C   0  0  0  0  0  0  0  0  0  0  0  0
  -18.3698  -16.4407   25.6027 C   0  0  1  0  0  0  0  0  0  0  0  0
  -17.9175  -13.0460   23.9774 C   0  0  2  0  0  0  0  0  0  0  0  0
  -18.0956  -16.6383   27.1203 C   0  0  0  0  0  0  0  0  0  0  0  0
  -28.3526  -17.7653   19.9019 N   0  0  0  0  0  0  0  0  0  0  0  0
  -27.2503  -19.6931   21.6146 N   0  0  0  0  0  0  0  0  0  0  0  0
  -25.8616  -11.5453   20.2849 N   0  0  0  0  0  0  0  0  0  0  0  0
  -26.2404  -12.8283   20.1561 N   0  0  0  0  0  0  0  0  0  0  0  0
  -18.6613  -18.2944   23.9894 N   0  0  0  0  0  0  0  0  0  0  0  0
  -29.9777  -13.6024   20.3608 N   0  0  0  0  0  0  0  0  0  0  0  0
  -25.4777  -15.0570   20.4050 N   0  0  0  0  0  0  0  0  0  0  0  0
  -21.8904  -12.5883   21.6021 N   0  0  0  0  0  0  0  0  0  0  0  0
  -17.3374  -21.3208   24.6660 N   0  0  0  0  0  0  0  0  0  0  0  0
  -17.8597  -15.1854   25.0618 N   0  0  0  0  0  0  0  0  0  0  0  0
  -30.1543  -15.6661   21.5025 N   0  0  0  0  0  0  0  0  0  0  0  0
  -17.9818  -12.9344   22.4927 N   0  3  0  0  0  0  0  0  0  0  0  0
  -22.6691  -14.7269   21.3212 O   0  0  0  0  0  0  0  0  0  0  0  0
  -19.6269  -20.9370   24.4828 O   0  0  0  0  0  0  0  0  0  0  0  0
  -16.5461  -17.7162   24.7819 O   0  0  0  0  0  0  0  0  0  0  0  0
  -19.8983  -14.3931   24.2916 O   0  0  0  0  0  0  0  0  0  0  0  0
  -31.8865  -14.9100   20.2047 O   0  0  0  0  0  0  0  0  0  0  0  0
  -21.6087   -7.0256   21.7108 O   0  0  0  0  0  0  0  0  0  0  0  0
  -24.3574  -18.8270   21.6822 O   0  0  0  0  0  0  0  0  0  1  0  0
  -16.4398   -6.8490   19.7989 F   0  0  0  0  0  0  0  0  0  0  0  0
  -20.8248   -5.0708   19.9200 F   0  0  0  0  0  0  0  0  0  0  0  0
  1  2  1  0  0  0  0
  1  5  2  0  0  0  0
  2  6  2  0  0  0  0
  3  8  2  0  0  0  0
  3 17  1  0  0  0  0
  4  9  1  0  0  0  0
  4 17  2  0  0  0  0
  5 19  1  0  0  0  0
  6 21  1  0  0  0  0
  7 10  2  0  0  0  0
  7 20  1  0  0  0  0
  8 23  1  0  0  0  0
  9 23  2  0  0  0  0
 10 24  1  0  0  0  0
 11 12  2  0  0  0  0
 11 25  1  0  0  0  0
 12 26  1  0  0  0  0
 13 22  1  0  0  0  0
 13 24  2  0  0  0  0
 14 26  2  0  0  0  0
 14 27  1  0  0  0  0
 15 29  2  0  0  0  0
 15 61  1  0  0  0  0
 16 30  1  0  0  0  0
 16 60  2  0  0  0  0
 17 28  1  0  0  0  0
 18 28  1  0  0  0  0
 18 31  2  0  0  0  0
 18 32  1  0  0  0  0
 19 21  2  0  0  0  0
 19 37  1  0  0  0  0
 20 22  2  0  0  0  0
 20 38  1  0  0  0  0
 21 46  1  0  0  0  0
 22 39  1  0  0  0  0
 23 77  1  0  0  0  0
 24 78  1  0  0  0  0
 25 27  2  0  0  0  0
 25 77  1  0  0  0  0
 26 79  1  0  0  0  0
 27 80  1  0  0  0  0
 28 62  2  0  0  0  0
 29 54  1  0  0  0  0
 29 60  1  0  0  0  0
 30 55  1  0  0  0  0
 30 61  2  0  0  0  0
 31 63  1  0  0  0  0
 31 66  1  0  0  0  0
 32 67  1  0  0  0  0
 32 72  2  0  0  0  0
 33 47  1  0  0  0  0
 33 68  1  0  0  0  0
 33 73  2  0  0  0  0
 34 57  1  0  0  0  0
 34 64  1  0  0  0  0
 34 74  2  0  0  0  0
 35 58  1  0  0  0  0
 35 69  1  0  0  0  0
 35 75  2  0  0  0  0
 36 65  1  0  0  0  0
 36 70  1  0  0  0  0
 36 76  2  0  0  0  0
 37 40  1  0  0  0  0
 38 47  1  0  0  0  0
 39 64  1  0  0  0  0
 40 42  1  0  0  0  0
 41 43  1  0  0  0  0
 41 44  1  0  0  0  0
 42 46  1  0  0  0  0
 43 48  1  0  0  0  0
 44 65  1  0  0  0  0
 45 48  1  0  0  0  0
 45 65  1  0  0  0  0
 46 68  1  0  0  0  0
 47 64  1  0  0  0  0
 48 63  1  0  0  0  0
 49 58  1  0  0  0  0
 50 59  1  0  0  0  0
 51 59  1  0  0  0  0
 52 59  1  0  0  0  0
 53 71  1  0  0  0  0
 54 56  1  0  0  0  0
 55 78  1  0  0  0  0
 56 70  1  0  0  0  0
 57 59  1  0  0  0  0
 57 69  1  0  0  0  0
 58 71  1  0  0  0  0
 62 63  1  0  0  0  0
M  CHG  1  71   1
M  ISO  4  36 100  55 101  70 100  78 101
M  END
> <Batch ID>
0090

> <Smiles>
CNC(C)C(=O)NC(C(=O)N1Cc2cc([101O:1][101CH2:1]c3cnc(CC[100NH:0][100C:0](=O)N4CCCC(n5nc(-c6ccc(Oc7ccc(F)cc7F)cc6)c(C(N)=O)c5N)C4)cn3)ccc2CC1C(=O)NC1CCCc2ccccc21)C(C)(C)C

> <Shape>
0.169

> <Color>
0.192

> <Negative vol penalty>
0.000

$$$$

  -OEChem-04052319093D

 90 98  0     1  0  0  0  0  0999 V2000
  -34.4617  -15.3696   26.2931 C   0  0  0  0  0  0  0  0  0  0  0  0
  -34.0300  -16.2649   25.3198 C   0  0  0  0  0  0  0  0  0  0  0  0
  -21.0206  -25.4871   22.8365 C   0  0  0  0  0  0  0  0  0  0  0  0
  -21.3295  -25.8820   20.4731 C   0  0  0  0  0  0  0  0  0  0  0  0
  -34.4593  -14.0005   26.0294 C   0  0  0  0  0  0  0  0  0  0  0  0
  -33.5967  -15.7917   24.0817 C   0  0  0  0  0  0  0  0  0  0  0  0
  -29.3265  -18.0301   22.5325 C   0  0  0  0  0  0  0  0  0  0  0  0
  -34.4950  -25.4576   20.8201 C   0  0  0  0  0  0  0  0  0  0  0  0
  -19.8013  -26.1629   22.7901 C   0  0  0  0  0  0  0  0  0  0  0  0
  -20.1102  -26.5578   20.4266 C   0  0  0  0  0  0  0  0  0  0  0  0
  -29.4381  -19.3119   21.9954 C   0  0  0  0  0  0  0  0  0  0  0  0
  -18.7316  -29.3686   22.7294 C   0  0  0  0  0  0  0  0  0  0  0  0
  -18.4639  -30.2910   23.7409 C   0  0  0  0  0  0  0  0  0  0  0  0
  -35.2956  -26.3868   21.4751 C   0  0  0  0  0  0  0  0  0  0  0  0
  -29.3214  -18.3838   19.7719 C   0  0  0  0  0  0  0  0  0  0  0  0
  -16.5102  -29.0219   24.3809 C   0  0  0  0  0  0  0  0  0  0  0  0
  -21.7848  -25.3466   21.6780 C   0  0  0  0  0  0  0  0  0  0  0  0
  -23.2625  -23.2730   21.5237 C   0  0  0  0  0  0  0  0  0  0  0  0
  -34.0167  -13.5096   24.7910 C   0  0  0  0  0  0  0  0  0  0  0  0
  -29.2222  -16.9127   21.6918 C   0  0  0  0  0  0  0  0  0  0  0  0
  -33.5897  -14.4148   23.8008 C   0  0  0  0  0  0  0  0  0  0  0  0
  -29.2059  -17.0892   20.3008 C   0  0  0  0  0  0  0  0  0  0  0  0
  -33.2143  -25.8156   20.4137 C   0  0  0  0  0  0  0  0  0  0  0  0
  -19.3461  -26.6983   21.5852 C   0  0  0  0  0  0  0  0  0  0  0  0
  -29.4385  -19.4886   20.6149 C   0  0  0  0  0  0  0  0  0  0  0  0
  -17.8886  -28.2729   22.5436 C   0  0  0  0  0  0  0  0  0  0  0  0
  -17.3532  -30.1176   24.5667 C   0  0  0  0  0  0  0  0  0  0  0  0
  -16.7779  -28.0995   23.3694 C   0  0  0  0  0  0  0  0  0  0  0  0
  -23.0446  -24.6491   21.7254 C   0  0  0  0  0  0  0  0  0  0  0  0
  -34.7730  -27.6505   21.6979 C   0  0  0  0  0  0  0  0  0  0  0  0
  -32.7849  -27.1048   20.6842 C   0  0  0  0  0  0  0  0  0  0  0  0
  -24.6186  -23.1145   21.6736 C   0  0  0  0  0  0  0  0  0  0  0  0
  -22.3232  -22.2311   21.2273 C   0  0  0  0  0  0  0  0  0  0  0  0
  -30.9838  -14.3162   21.1830 C   0  0  0  0  0  0  0  0  0  0  0  0
  -28.4903  -13.4710   19.2882 C   0  0  0  0  0  0  0  0  0  0  0  0
  -25.8141  -14.4532   17.4120 C   0  0  0  0  0  0  0  0  0  0  0  0
  -29.1243  -26.8510   20.9039 C   0  0  0  0  0  0  0  0  0  0  0  0
  -34.0770  -12.0245   24.5352 C   0  0  0  0  0  0  0  0  0  0  0  0
  -29.0756  -15.5392   22.2871 C   0  0  0  0  0  0  0  0  0  0  0  0
  -29.0760  -15.9242   19.3551 C   0  0  0  0  0  0  0  0  0  0  0  0
  -33.2493  -11.5795   23.3322 C   0  0  0  0  0  0  0  0  0  0  0  0
  -28.3839  -25.0167   23.9345 C   0  0  0  0  0  0  0  0  0  0  0  0
  -33.5045  -12.4963   22.1401 C   0  0  0  0  0  0  0  0  0  0  0  0
  -26.9386  -24.5835   23.6824 C   0  0  0  0  0  0  0  0  0  0  0  0
  -28.6443  -26.4176   23.3887 C   0  0  0  0  0  0  0  0  0  0  0  0
  -26.8796  -26.1527   21.6889 C   0  0  0  0  0  0  0  0  0  0  0  0
  -33.0889  -13.9385   22.4545 C   0  0  1  0  0  0  0  0  0  0  0  0
  -29.4926  -14.4259   21.3310 C   0  0  1  0  0  0  0  0  0  0  0  0
  -26.5590  -24.7354   22.1975 C   0  0  2  0  0  0  0  0  0  0  0  0
  -38.1848  -31.3105   21.1616 C   0  0  0  0  0  0  0  0  0  0  0  0
  -23.9896  -13.5381   15.9522 C   0  0  0  0  0  0  0  0  0  0  0  0
  -31.9459  -31.0925   18.6501 C   0  0  0  0  0  0  0  0  0  0  0  0
  -31.8605  -28.8716   17.5032 C   0  0  0  0  0  0  0  0  0  0  0  0
  -30.5057  -13.0522   17.0360 C   0  0  0  0  0  0  0  0  0  0  0  0
  -28.5965  -13.0783   15.4167 C   0  0  0  0  0  0  0  0  0  0  0  0
  -28.7165  -11.3102   17.1722 C   0  0  0  0  0  0  0  0  0  0  0  0
  -23.6999  -15.5070   19.1950 C   0  0  0  0  0  0  0  0  0  0  0  0
  -32.3408  -24.8119   19.7041 C   0  0  0  0  0  0  0  0  0  0  0  0
  -35.6056  -28.6731   22.3966 C   0  0  0  0  0  0  0  0  0  0  0  0
  -37.3265  -30.5216   22.1376 C   0  0  0  0  0  0  0  0  0  0  0  0
  -31.7279  -23.7582   20.6332 C   0  0  0  0  0  0  0  0  0  0  0  0
  -36.4466  -29.5028   21.4133 C   0  0  0  0  0  0  0  0  0  0  0  0
  -30.9087  -22.7049   19.8859 C   0  0  0  0  0  0  0  0  0  0  0  0
  -31.2948  -29.0655   19.9859 C   0  0  0  0  0  0  0  0  0  0  0  0
  -30.2837  -21.6997   20.8437 C   0  0  0  0  0  0  0  0  0  1  0  0
  -31.4199  -27.5461   20.2682 C   0  0  2  0  0  0  0  0  0  0  0  0
  -28.1323  -13.6786   17.8364 C   0  0  1  0  0  0  0  0  0  0  0  0
  -24.3815  -13.9536   17.3616 C   0  0  2  0  0  0  0  0  0  0  0  0
  -32.1629  -29.5861   18.8210 C   0  0  0  0  0  0  0  0  0  0  0  0
  -28.9922  -12.8018   16.8828 C   0  0  0  0  0  0  0  0  0  0  0  0
  -24.1719  -25.3172   21.9839 N   0  0  0  0  0  0  0  0  0  0  0  0
  -33.5339  -28.0349   21.3180 N   0  0  0  0  0  0  0  0  0  0  0  0
  -25.1112  -24.3568   21.9457 N   0  0  0  0  0  0  0  0  0  0  0  0
  -28.9417  -14.6005   19.9856 N   0  0  0  0  0  0  0  0  0  0  0  0
  -28.2798  -26.4898   21.9667 N   0  0  0  0  0  0  0  0  0  0  0  0
  -25.4257  -22.0350   21.5980 N   0  0  0  0  0  0  0  0  0  0  0  0
  -20.9680  -22.5677   21.1072 N   0  0  0  0  0  0  0  0  0  0  0  0
  -31.6512  -14.0801   22.3697 N   0  0  0  0  0  0  0  0  0  0  0  0
  -26.6963  -13.4431   17.7323 N   0  0  0  0  0  0  0  0  0  0  0  0
  -30.4328  -27.1622   21.2527 N   0  0  0  0  0  0  0  0  0  0  0  0
  -23.4446  -15.0203   17.8148 N   0  3  0  0  0  0  0  0  0  0  0  0
  -22.6730  -21.0344   21.0898 O   0  0  0  0  0  0  0  0  0  0  0  0
  -31.4913  -14.4355   20.0739 O   0  0  0  0  0  0  0  0  0  0  0  0
  -28.3669  -12.3496   19.7871 O   0  0  0  0  0  0  0  0  0  0  0  0
  -26.1203  -15.6218   17.1859 O   0  0  0  0  0  0  0  0  0  0  0  0
  -28.7419  -26.8883   19.7294 O   0  0  0  0  0  0  0  0  0  0  0  0
  -18.1563  -27.3576   21.5394 O   0  0  0  0  0  0  0  0  0  0  0  0
  -29.5480  -20.7385   20.0880 O   0  0  0  0  0  0  0  0  0  1  0  0
  -17.0970  -31.0026   25.5390 F   0  0  0  0  0  0  0  0  0  0  0  0
  -15.9651  -27.0482   23.1965 F   0  0  0  0  0  0  0  0  0  0  0  0
  1  2  1  0  0  0  0
  1  5  2  0  0  0  0
  2  6  2  0  0  0  0
  3  9  2  0  0  0  0
  3 17  1  0  0  0  0
  4 10  1  0  0  0  0
  4 17  2  0  0  0  0
  5 19  1  0  0  0  0
  6 21  1  0  0  0  0
  7 11  2  0  0  0  0
  7 20  1  0  0  0  0
  8 14  2  0  0  0  0
  8 23  1  0  0  0  0
  9 24  1  0  0  0  0
 10 24  2  0  0  0  0
 11 25  1  0  0  0  0
 12 13  2  0  0  0  0
 12 26  1  0  0  0  0
 13 27  1  0  0  0  0
 14 30  1  0  0  0  0
 15 22  1  0  0  0  0
 15 25  2  0  0  0  0
 16 27  2  0  0  0  0
 16 28  1  0  0  0  0
 17 29  1  0  0  0  0
 18 29  1  0  0  0  0
 18 32  2  0  0  0  0
 18 33  1  0  0  0  0
 19 21  2  0  0  0  0
 19 38  1  0  0  0  0
 20 22  2  0  0  0  0
 20 39  1  0  0  0  0
 21 47  1  0  0  0  0
 22 40  1  0  0  0  0
 23 31  2  0  0  0  0
 23 58  1  0  0  0  0
 24 87  1  0  0  0  0
 25 88  1  0  0  0  0
 26 28  2  0  0  0  0
 26 87  1  0  0  0  0
 27 89  1  0  0  0  0
 28 90  1  0  0  0  0
 29 71  2  0  0  0  0
 30 59  1  0  0  0  0
 30 72  2  0  0  0  0
 31 66  1  0  0  0  0
 31 72  1  0  0  0  0
 32 73  1  0  0  0  0
 32 76  1  0  0  0  0
 33 77  1  0  0  0  0
 33 82  2  0  0  0  0
 34 48  1  0  0  0  0
 34 78  1  0  0  0  0
 34 83  2  0  0  0  0
 35 67  1  0  0  0  0
 35 74  1  0  0  0  0
 35 84  2  0  0  0  0
 36 68  1  0  0  0  0
 36 79  1  0  0  0  0
 36 85  2  0  0  0  0
 37 75  1  0  0  0  0
 37 80  1  0  0  0  0
 37 86  2  0  0  0  0
 38 41  1  0  0  0  0
 39 48  1  0  0  0  0
 40 74  1  0  0  0  0
 41 43  1  0  0  0  0
 42 44  1  0  0  0  0
 42 45  1  0  0  0  0
 43 47  1  0  0  0  0
 44 49  1  0  0  0  0
 45 75  1  0  0  0  0
 46 49  1  0  0  0  0
 46 75  1  0  0  0  0
 47 78  1  0  0  0  0
 48 74  1  0  0  0  0
 49 73  1  0  0  0  0
 50 60  1  0  0  0  0
 51 68  1  0  0  0  0
 52 69  1  0  0  0  0
 53 69  1  0  0  0  0
 54 70  1  0  0  0  0
 55 70  1  0  0  0  0
 56 70  1  0  0  0  0
 57 81  1  0  0  0  0
 58 61  1  0  0  0  0
 59 62  1  0  0  0  0
 60 62  1  0  0  0  0
 61 63  1  0  0  0  0
 63 65  1  0  0  0  0
 64 66  1  0  0  0  0
 64 69  1  0  0  0  0
 65 88  1  0  0  0  0
 66 80  1  0  0  0  0
 67 70  1  0  0  0  0
 67 79  1  0  0  0  0
 68 81  1  0  0  0  0
 71 73  1  0  0  0  0
M  CHG  1  81   1
M  ISO  4  37 100  65 101  80 100  88 101
M  END
> <Batch ID>
0090

> <Smiles>
CCCCc1ccc(CCC[101CH2:1][101O:1]c2ccc3c(c2)CN(C(=O)C(NC(=O)C(C)NC)C(C)(C)C)C(C(=O)NC2CCCc4ccccc42)C3)c(C(CC(C)C)[100NH:0][100C:0](=O)N2CCCC(n3nc(-c4ccc(Oc5ccc(F)cc5F)cc4)c(C(N)=O)c3N)C2)n1

> <Shape>
0.185

> <Color>
0.064

> <Negative vol penalty>
0.000

$$$$

  -OEChem-04052319093D

 82 90  0     1  0  0  0  0  0999 V2000
  -24.0143   -8.2506   21.4132 C   0  0  0  0  0  0  0  0  0  0  0  0
  -25.0899   -9.0502   21.0400 C   0  0  0  0  0  0  0  0  0  0  0  0
  -22.3568  -25.5768   21.6956 C   0  0  0  0  0  0  0  0  0  0  0  0
  -22.8251  -27.3519   23.2662 C   0  0  0  0  0  0  0  0  0  0  0  0
  -22.7445   -8.8104   21.5473 C   0  0  0  0  0  0  0  0  0  0  0  0
  -24.8959  -10.4100   20.7997 C   0  0  0  0  0  0  0  0  0  0  0  0
  -28.8256  -14.9552   21.9850 C   0  0  0  0  0  0  0  0  0  0  0  0
  -20.9940  -25.6949   21.9683 C   0  0  0  0  0  0  0  0  0  0  0  0
  -21.4623  -27.4701   23.5389 C   0  0  0  0  0  0  0  0  0  0  0  0
  -29.7304  -15.6465   21.1805 C   0  0  0  0  0  0  0  0  0  0  0  0
  -18.0742  -28.4846   24.3815 C   0  0  0  0  0  0  0  0  0  0  0  0
  -17.5320  -29.7686   24.4362 C   0  0  0  0  0  0  0  0  0  0  0  0
  -28.0959  -17.3898   20.8508 C   0  0  0  0  0  0  0  0  0  0  0  0
  -18.2006  -30.1484   22.1458 C   0  0  0  0  0  0  0  0  0  0  0  0
  -30.5203  -23.1764   17.8838 C   0  0  0  0  0  0  0  0  0  0  0  0
  -23.2724  -26.4052   22.3445 C   0  0  0  0  0  0  0  0  0  0  0  0
  -25.4120  -26.9663   21.0737 C   0  0  0  0  0  0  0  0  0  0  0  0
  -22.5367  -10.1797   21.3179 C   0  0  0  0  0  0  0  0  0  0  0  0
  -27.5432  -15.4715   22.2199 C   0  0  0  0  0  0  0  0  0  0  0  0
  -23.6219  -10.9884   20.9296 C   0  0  0  0  0  0  0  0  0  0  0  0
  -27.1776  -16.7042   21.6606 C   0  0  0  0  0  0  0  0  0  0  0  0
  -20.5467  -26.6416   22.8899 C   0  0  0  0  0  0  0  0  0  0  0  0
  -29.3646  -16.8626   20.6109 C   0  0  0  0  0  0  0  0  0  0  0  0
  -18.6798  -28.0326   23.2091 C   0  0  0  0  0  0  0  0  0  0  0  0
  -17.5951  -30.6005   23.3183 C   0  0  0  0  0  0  0  0  0  0  0  0
  -18.7429  -28.8644   22.0912 C   0  0  0  0  0  0  0  0  0  0  0  0
  -24.6803  -26.2832   22.0636 C   0  0  0  0  0  0  0  0  0  0  0  0
  -30.3630  -22.6193   20.4900 C   0  0  0  0  0  0  0  0  0  0  0  0
  -29.9076  -22.0257   18.3291 C   0  0  0  0  0  0  0  0  0  0  0  0
  -30.9759  -23.7699   20.0448 C   0  0  0  0  0  0  0  0  0  0  0  0
  -26.6971  -26.5029   21.2156 C   0  0  0  0  0  0  0  0  0  0  0  0
  -24.9695  -27.9333   20.1121 C   0  0  0  0  0  0  0  0  0  0  0  0
  -30.2621  -22.2827   21.9160 C   0  0  0  0  0  0  0  0  0  0  0  0
  -24.5830  -14.4923   21.6017 C   0  0  0  0  0  0  0  0  0  0  0  0
  -23.7718  -17.0975   23.3560 C   0  0  0  0  0  0  0  0  0  0  0  0
  -24.6374  -20.1814   24.5338 C   0  0  0  0  0  0  0  0  0  0  0  0
  -21.1370  -10.7302   21.4295 C   0  0  0  0  0  0  0  0  0  0  0  0
  -26.5882  -14.7265   23.1117 C   0  0  0  0  0  0  0  0  0  0  0  0
  -25.8200  -17.3116   21.8985 C   0  0  0  0  0  0  0  0  0  0  0  0
  -21.0871  -12.2532   21.5211 C   0  0  0  0  0  0  0  0  0  0  0  0
  -28.8206  -23.7060   24.8550 C   0  0  0  0  0  0  0  0  0  0  0  0
  -21.9942  -12.8814   20.4680 C   0  0  0  0  0  0  0  0  0  0  0  0
  -27.6616  -24.5452   24.3140 C   0  0  0  0  0  0  0  0  0  0  0  0
  -29.0157  -22.4264   24.0457 C   0  0  0  0  0  0  0  0  0  0  0  0
  -28.0154  -23.4796   22.0469 C   0  0  0  0  0  0  0  0  0  0  0  0
  -23.4562  -12.4725   20.6843 C   0  0  1  0  0  0  0  0  0  0  0  0
  -25.1287  -15.0956   22.8650 C   0  0  1  0  0  0  0  0  0  0  0  0
  -27.8173  -24.8033   22.8035 C   0  0  1  0  0  0  0  0  0  0  0  0
  -31.5741  -24.7518   20.9939 C   0  0  0  0  0  0  0  0  0  0  0  0
  -23.7528  -22.0838   25.9105 C   0  0  0  0  0  0  0  0  0  0  0  0
  -31.7149  -17.9588   17.3327 C   0  0  0  0  0  0  0  0  0  0  0  0
  -22.0175  -17.9709   21.0174 C   0  0  0  0  0  0  0  0  0  0  0  0
  -21.9300  -20.2597   22.0283 C   0  0  0  0  0  0  0  0  0  0  0  0
  -20.9938  -18.3115   23.2736 C   0  0  0  0  0  0  0  0  0  0  0  0
  -26.8036  -19.8964   26.5302 C   0  0  0  0  0  0  0  0  0  0  0  0
  -29.3082  -21.0497   17.3478 C   0  0  0  0  0  0  0  0  0  0  0  0
  -30.2846  -19.9657   16.8704 C   0  0  0  0  0  0  0  0  0  0  0  0
  -29.6989  -18.3505   18.7860 C   0  0  0  0  0  0  0  0  0  1  0  0
  -23.5007  -18.5506   23.0496 C   0  0  1  0  0  0  0  0  0  0  0  0
  -24.5519  -20.7899   25.9219 C   0  0  2  0  0  0  0  0  0  0  0  0
  -30.8139  -19.0224   17.9732 C   0  0  1  0  0  0  0  0  0  0  0  0
  -22.1355  -18.7610   22.3360 C   0  0  0  0  0  0  0  0  0  0  0  0
  -31.0654  -24.0693   18.7337 N   0  0  0  0  0  0  0  0  0  0  0  0
  -25.4377  -25.4492   22.7812 N   0  0  0  0  0  0  0  0  0  0  0  0
  -29.8179  -21.7265   19.6401 N   0  0  0  0  0  0  0  0  0  0  0  0
  -26.6586  -25.6052   22.2416 N   0  0  0  0  0  0  0  0  0  0  0  0
  -29.1418  -22.7296   22.6206 N   0  0  0  0  0  0  0  0  0  0  0  0
  -24.9194  -16.5420   22.7726 N   0  0  0  0  0  0  0  0  0  0  0  0
  -27.8451  -26.7799   20.5614 N   0  0  0  0  0  0  0  0  0  0  0  0
  -23.6159  -28.2965   20.1040 N   0  0  0  0  0  0  0  0  0  0  0  0
  -24.0386  -13.2333   21.7690 N   0  0  0  0  0  0  0  0  0  0  0  0
  -23.6302  -19.2656   24.3147 N   0  0  0  0  0  0  0  0  0  0  0  0
  -25.9165  -21.0849   26.4432 N   0  3  0  0  0  0  0  0  0  0  0  0
  -25.7481  -28.4475   19.2737 O   0  0  0  0  0  0  0  0  0  0  0  0
  -31.1938  -21.6330   22.3882 O   0  0  0  0  0  0  0  0  0  0  0  0
  -24.6495  -15.1230   20.5532 O   0  0  0  0  0  0  0  0  0  0  0  0
  -22.9980  -16.4800   24.0919 O   0  0  0  0  0  0  0  0  0  0  0  0
  -25.5083  -20.4904   23.7235 O   0  0  0  0  0  0  0  0  0  0  0  0
  -19.2169  -26.7573   23.1562 O   0  0  0  0  0  0  0  0  0  0  0  0
  -30.2456  -17.5392   19.8248 O   0  0  0  0  0  0  0  0  0  1  0  0
  -17.0730  -31.8329   23.3704 F   0  0  0  0  0  0  0  0  0  0  0  0
  -19.3223  -28.4353   20.9616 F   0  0  0  0  0  0  0  0  0  0  0  0
  1  2  1  0  0  0  0
  1  5  2  0  0  0  0
  2  6  2  0  0  0  0
  3  8  2  0  0  0  0
  3 16  1  0  0  0  0
  4  9  1  0  0  0  0
  4 16  2  0  0  0  0
  5 18  1  0  0  0  0
  6 20  1  0  0  0  0
  7 10  2  0  0  0  0
  7 19  1  0  0  0  0
  8 22  1  0  0  0  0
  9 22  2  0  0  0  0
 10 23  1  0  0  0  0
 11 12  2  0  0  0  0
 11 24  1  0  0  0  0
 12 25  1  0  0  0  0
 13 21  1  0  0  0  0
 13 23  2  0  0  0  0
 14 25  2  0  0  0  0
 14 26  1  0  0  0  0
 15 29  1  0  0  0  0
 15 63  2  0  0  0  0
 16 27  1  0  0  0  0
 17 27  1  0  0  0  0
 17 31  2  0  0  0  0
 17 32  1  0  0  0  0
 18 20  2  0  0  0  0
 18 37  1  0  0  0  0
 19 21  2  0  0  0  0
 19 38  1  0  0  0  0
 20 46  1  0  0  0  0
 21 39  1  0  0  0  0
 22 79  1  0  0  0  0
 23 80  1  0  0  0  0
 24 26  2  0  0  0  0
 24 79  1  0  0  0  0
 25 81  1  0  0  0  0
 26 82  1  0  0  0  0
 27 64  2  0  0  0  0
 28 30  2  0  0  0  0
 28 33  1  0  0  0  0
 28 65  1  0  0  0  0
 29 56  1  0  0  0  0
 29 65  2  0  0  0  0
 30 49  1  0  0  0  0
 30 63  1  0  0  0  0
 31 66  1  0  0  0  0
 31 69  1  0  0  0  0
 32 70  1  0  0  0  0
 32 74  2  0  0  0  0
 33 67  1  0  0  0  0
 33 75  2  0  0  0  0
 34 47  1  0  0  0  0
 34 71  1  0  0  0  0
 34 76  2  0  0  0  0
 35 59  1  0  0  0  0
 35 68  1  0  0  0  0
 35 77  2  0  0  0  0
 36 60  1  0  0  0  0
 36 72  1  0  0  0  0
 36 78  2  0  0  0  0
 37 40  1  0  0  0  0
 38 47  1  0  0  0  0
 39 68  1  0  0  0  0
 40 42  1  0  0  0  0
 41 43  1  0  0  0  0
 41 44  1  0  0  0  0
 42 46  1  0  0  0  0
 43 48  1  0  0  0  0
 44 67  1  0  0  0  0
 45 48  1  0  0  0  0
 45 67  1  0  0  0  0
 46 71  1  0  0  0  0
 47 68  1  0  0  0  0
 48 66  1  0  0  0  0
 50 60  1  0  0  0  0
 51 61  1  0  0  0  0
 52 62  1  0  0  0  0
 53 62  1  0  0  0  0
 54 62  1  0  0  0  0
 55 73  1  0  0  0  0
 56 57  1  0  0  0  0
 57 61  1  0  0  0  0
 58 61  1  0  0  0  0
 58 80  1  0  0  0  0
 59 62  1  0  0  0  0
 59 72  1  0  0  0  0
 60 73  1  0  0  0  0
 64 66  1  0  0  0  0
M  CHG  1  73   1
M  ISO  4  28 100  33 100  58 101  80 101
M  END
> <Batch ID>
0090

> <Smiles>
CNC(C)C(=O)NC(C(=O)N1Cc2cc([101O:1][101CH2:1]C(C)CCc3cnc(C)[100c:0]([100C:0](=O)N4CCCC(n5nc(-c6ccc(Oc7ccc(F)cc7F)cc6)c(C(N)=O)c5N)C4)n3)ccc2CC1C(=O)NC1CCCc2ccccc21)C(C)(C)C

> <Shape>
0.206

> <Color>
0.073

> <Negative vol penalty>
0.000

$$$$

  -OEChem-04052319093D

 86 94  0     1  0  0  0  0  0999 V2000
  -29.0826  -22.7440   16.3452 C   0  0  0  0  0  0  0  0  0  0  0  0
  -27.9265  -22.5469   17.0918 C   0  0  0  0  0  0  0  0  0  0  0  0
  -25.9056  -12.5879   19.7312 C   0  0  0  0  0  0  0  0  0  0  0  0
  -24.3705  -14.2203   20.6342 C   0  0  0  0  0  0  0  0  0  0  0  0
  -29.8043  -23.9276   16.4843 C   0  0  0  0  0  0  0  0  0  0  0  0
  -27.4851  -23.5382   17.9689 C   0  0  0  0  0  0  0  0  0  0  0  0
  -23.1071  -22.8459   20.1037 C   0  0  0  0  0  0  0  0  0  0  0  0
  -25.3930  -11.6249   20.6004 C   0  0  0  0  0  0  0  0  0  0  0  0
  -23.8578  -13.2574   21.5034 C   0  0  0  0  0  0  0  0  0  0  0  0
  -22.8977  -21.8968   21.1032 C   0  0  0  0  0  0  0  0  0  0  0  0
  -24.2411   -8.6428   22.3310 C   0  0  0  0  0  0  0  0  0  0  0  0
  -23.9661   -7.3788   21.8092 C   0  0  0  0  0  0  0  0  0  0  0  0
  -22.9051  -23.6496   22.7606 C   0  0  0  0  0  0  0  0  0  0  0  0
  -22.3963   -8.3610   20.2573 C   0  0  0  0  0  0  0  0  0  0  0  0
  -26.1751  -21.6134   23.8538 C   0  0  0  0  0  0  0  0  0  0  0  0
  -25.3944  -13.8856   19.7481 C   0  0  0  0  0  0  0  0  0  0  0  0
  -25.4746  -15.1781   17.5502 C   0  0  0  0  0  0  0  0  0  0  0  0
  -29.3777  -24.9282   17.3731 C   0  0  0  0  0  0  0  0  0  0  0  0
  -23.2283  -24.2050   20.4268 C   0  0  0  0  0  0  0  0  0  0  0  0
  -28.1866  -24.7497   18.1057 C   0  0  0  0  0  0  0  0  0  0  0  0
  -23.1135  -24.6142   21.7630 C   0  0  0  0  0  0  0  0  0  0  0  0
  -24.3690  -11.9596   21.4865 C   0  0  0  0  0  0  0  0  0  0  0  0
  -22.7995  -22.2982   22.4322 C   0  0  0  0  0  0  0  0  0  0  0  0
  -23.5937   -9.7659   21.8160 C   0  0  0  0  0  0  0  0  0  0  0  0
  -23.0437   -7.2379   20.7723 C   0  0  0  0  0  0  0  0  0  0  0  0
  -22.6713   -9.6250   20.7792 C   0  0  0  0  0  0  0  0  0  0  0  0
  -25.9239  -14.8809   18.8508 C   0  0  0  0  0  0  0  0  0  0  0  0
  -27.3908  -21.3899   23.2716 C   0  0  0  0  0  0  0  0  0  0  0  0
  -26.2997  -16.1905   17.1249 C   0  0  0  0  0  0  0  0  0  0  0  0
  -26.7932  -19.5432   24.3360 C   0  0  0  0  0  0  0  0  0  0  0  0
  -24.4069  -14.5916   16.7942 C   0  0  0  0  0  0  0  0  0  0  0  0
  -25.5182  -26.3881   20.1202 C   0  0  0  0  0  0  0  0  0  0  0  0
  -23.2097  -28.3957   21.1984 C   0  0  0  0  0  0  0  0  0  0  0  0
  -20.3030  -28.7989   22.9407 C   0  0  0  0  0  0  0  0  0  0  0  0
  -29.5017  -20.3331   20.0296 C   0  0  0  0  0  0  0  0  0  0  0  0
  -30.1927  -26.1931   17.4786 C   0  0  0  0  0  0  0  0  0  0  0  0
  -23.4274  -25.2193   19.3340 C   0  0  0  0  0  0  0  0  0  0  0  0
  -23.2162  -26.0633   22.1603 C   0  0  0  0  0  0  0  0  0  0  0  0
  -29.8963  -26.9871   18.7467 C   0  0  0  0  0  0  0  0  0  0  0  0
  -30.7227  -17.9154   17.7186 C   0  0  0  0  0  0  0  0  0  0  0  0
  -28.3939  -27.1599   18.9126 C   0  0  0  0  0  0  0  0  0  0  0  0
  -29.5908  -16.8904   17.6294 C   0  0  0  0  0  0  0  0  0  0  0  0
  -30.8694  -18.4725   19.1329 C   0  0  0  0  0  0  0  0  0  0  0  0
  -28.4998  -18.0037   19.6216 C   0  0  0  0  0  0  0  0  0  0  0  0
  -27.7041  -25.8011   19.0886 C   0  0  1  0  0  0  0  0  0  0  0  0
  -24.0494  -26.5201   19.8323 C   0  0  1  0  0  0  0  0  0  0  0  0
  -28.2767  -17.4548   18.2020 C   0  0  2  0  0  0  0  0  0  0  0  0
  -26.8171  -18.1597   24.8728 C   0  0  0  0  0  0  0  0  0  0  0  0
  -18.6793  -30.5627   23.6822 C   0  0  0  0  0  0  0  0  0  0  0  0
  -28.3934  -25.6638   24.4436 C   0  0  0  0  0  0  0  0  0  0  0  0
  -29.9836  -23.7368   24.5562 C   0  0  0  0  0  0  0  0  0  0  0  0
  -25.1713  -29.2906   23.3573 C   0  0  0  0  0  0  0  0  0  0  0  0
  -23.2415  -30.2946   24.5966 C   0  0  0  0  0  0  0  0  0  0  0  0
  -23.8393  -31.1395   22.3269 C   0  0  0  0  0  0  0  0  0  0  0  0
  -18.0794  -27.5462   21.4423 C   0  0  0  0  0  0  0  0  0  0  0  0
  -23.4912  -19.4513   24.5316 C   0  0  0  0  0  0  0  0  0  0  0  0
  -28.1329  -23.7839   22.7951 C   0  0  0  0  0  0  0  0  0  0  0  0
  -24.5577  -20.2459   25.2885 C   0  0  0  0  0  0  0  0  0  0  0  0
  -28.0013  -22.0988   20.9185 C   0  0  0  0  0  0  0  0  0  0  0  0
  -23.1209  -20.0659   23.1868 C   0  0  0  0  0  0  0  0  0  1  0  0
  -28.2466  -22.2544   22.4550 C   0  0  2  0  0  0  0  0  0  0  0  0
  -22.7531  -28.8682   22.5575 C   0  0  1  0  0  0  0  0  0  0  0  0
  -19.0234  -29.5442   22.6066 C   0  0  2  0  0  0  0  0  0  0  0  0
  -28.5475  -24.1540   24.2361 C   0  0  0  0  0  0  0  0  0  0  0  0
  -23.7513  -29.8706   23.2027 C   0  0  0  0  0  0  0  0  0  0  0  0
  -26.9545  -15.6427   19.2270 N   0  0  0  0  0  0  0  0  0  0  0  0
  -25.8292  -20.4541   24.5053 N   0  0  0  0  0  0  0  0  0  0  0  0
  -27.1597  -16.4286   18.1563 N   0  0  0  0  0  0  0  0  0  0  0  0
  -27.7492  -20.1013   23.5865 N   0  3  0  0  0  0  0  0  0  0  0  0
  -23.4173  -27.0164   21.0563 N   0  0  0  0  0  0  0  0  0  0  0  0
  -29.5885  -18.9934   19.6164 N   0  0  0  0  0  0  0  0  0  0  0  0
  -26.3662  -16.8913   15.9730 N   0  0  0  0  0  0  0  0  0  0  0  0
  -23.6591  -13.5622   17.3818 N   0  0  0  0  0  0  0  0  0  0  0  0
  -26.2711  -25.9885   19.0326 N   0  0  0  0  0  0  0  0  0  0  0  0
  -21.4070  -29.3999   22.3739 N   0  0  0  0  0  0  0  0  0  0  0  0
  -28.2499  -20.7476   20.4676 N   0  0  0  0  0  0  0  0  0  0  0  0
  -17.8857  -28.5898   22.4817 N   0  3  0  0  0  0  0  0  0  0  0  0
  -24.1349  -14.9580   15.6257 O   0  0  0  0  0  0  0  0  0  0  0  0
  -25.9376  -26.6323   21.2455 O   0  0  0  0  0  0  0  0  0  0  0  0
  -23.3692  -29.2193   20.2940 O   0  0  0  0  0  0  0  0  0  0  0  0
  -20.3218  -27.7870   23.6381 O   0  0  0  0  0  0  0  0  0  0  0  0
  -30.4669  -21.1042   20.0046 O   0  0  0  0  0  0  0  0  0  0  0  0
  -23.8684  -11.0202   22.3346 O   0  0  0  0  0  0  0  0  0  0  0  0
  -22.5957  -21.3739   23.4099 O   0  0  0  0  0  0  0  0  0  1  0  0
  -22.7808   -6.0242   20.2703 F   0  0  0  0  0  0  0  0  0  0  0  0
  -22.0471  -10.7005   20.2795 F   0  0  0  0  0  0  0  0  0  0  0  0
  1  2  1  0  0  0  0
  1  5  2  0  0  0  0
  2  6  2  0  0  0  0
  3  8  2  0  0  0  0
  3 16  1  0  0  0  0
  4  9  1  0  0  0  0
  4 16  2  0  0  0  0
  5 18  1  0  0  0  0
  6 20  1  0  0  0  0
  7 10  2  0  0  0  0
  7 19  1  0  0  0  0
  8 22  1  0  0  0  0
  9 22  2  0  0  0  0
 10 23  1  0  0  0  0
 11 12  2  0  0  0  0
 11 24  1  0  0  0  0
 12 25  1  0  0  0  0
 13 21  1  0  0  0  0
 13 23  2  0  0  0  0
 14 25  2  0  0  0  0
 14 26  1  0  0  0  0
 15 28  2  0  0  0  0
 15 67  1  0  0  0  0
 16 27  1  0  0  0  0
 17 27  1  0  0  0  0
 17 29  2  0  0  0  0
 17 31  1  0  0  0  0
 18 20  2  0  0  0  0
 18 36  1  0  0  0  0
 19 21  2  0  0  0  0
 19 37  1  0  0  0  0
 20 45  1  0  0  0  0
 21 38  1  0  0  0  0
 22 83  1  0  0  0  0
 23 84  1  0  0  0  0
 24 26  2  0  0  0  0
 24 83  1  0  0  0  0
 25 85  1  0  0  0  0
 26 86  1  0  0  0  0
 27 66  2  0  0  0  0
 28 61  1  0  0  0  0
 28 69  1  0  0  0  0
 29 68  1  0  0  0  0
 29 72  1  0  0  0  0
 30 48  1  0  0  0  0
 30 67  1  0  0  0  0
 30 69  2  0  0  0  0
 31 73  1  0  0  0  0
 31 78  2  0  0  0  0
 32 46  1  0  0  0  0
 32 74  1  0  0  0  0
 32 79  2  0  0  0  0
 33 62  1  0  0  0  0
 33 70  1  0  0  0  0
 33 80  2  0  0  0  0
 34 63  1  0  0  0  0
 34 75  1  0  0  0  0
 34 81  2  0  0  0  0
 35 71  1  0  0  0  0
 35 76  1  0  0  0  0
 35 82  2  0  0  0  0
 36 39  1  0  0  0  0
 37 46  1  0  0  0  0
 38 70  1  0  0  0  0
 39 41  1  0  0  0  0
 40 42  1  0  0  0  0
 40 43  1  0  0  0  0
 41 45  1  0  0  0  0
 42 47  1  0  0  0  0
 43 71  1  0  0  0  0
 44 47  1  0  0  0  0
 44 71  1  0  0  0  0
 45 74  1  0  0  0  0
 46 70  1  0  0  0  0
 47 68  1  0  0  0  0
 49 63  1  0  0  0  0
 50 64  1  0  0  0  0
 51 64  1  0  0  0  0
 52 65  1  0  0  0  0
 53 65  1  0  0  0  0
 54 65  1  0  0  0  0
 55 77  1  0  0  0  0
 56 58  1  0  0  0  0
 56 60  1  0  0  0  0
 57 61  1  0  0  0  0
 57 64  1  0  0  0  0
 58 67  1  0  0  0  0
 59 61  1  0  0  0  0
 59 76  1  0  0  0  0
 60 84  1  0  0  0  0
 62 65  1  0  0  0  0
 62 75  1  0  0  0  0
 63 77  1  0  0  0  0
 66 68  1  0  0  0  0
M  CHG  2  69   1  77   1
M  ISO  4  35 100  60 101  76 100  84 101
M  END
> <Batch ID>
0090

> <Smiles>
CNC(C)C(=O)NC(C(=O)N1Cc2cc([101O:1][101CH2:1]CCn3cc(C(C[100NH:0][100C:0](=O)N4CCCC(n5nc(-c6ccc(Oc7ccc(F)cc7F)cc6)c(C(N)=O)c5N)C4)CC(C)C)nc3C)ccc2CC1C(=O)NC1CCCc2ccccc21)C(C)(C)C

> <Shape>
0.231

> <Color>
0.047

> <Negative vol penalty>
0.000

$$$$

  -OEChem-04052319093D

 87 95  0     1  0  0  0  0  0999 V2000
  -24.0978   -9.9151   18.4177 C   0  0  0  0  0  0  0  0  0  0  0  0
  -23.3043  -11.0128   18.1002 C   0  0  0  0  0  0  0  0  0  0  0  0
  -26.2188  -29.4426   21.1566 C   0  0  0  0  0  0  0  0  0  0  0  0
  -24.8003  -27.8248   20.0576 C   0  0  0  0  0  0  0  0  0  0  0  0
  -25.0448  -10.0124   19.4364 C   0  0  0  0  0  0  0  0  0  0  0  0
  -23.4566  -12.2082   18.8019 C   0  0  0  0  0  0  0  0  0  0  0  0
  -23.0219  -19.3021   17.9059 C   0  0  0  0  0  0  0  0  0  0  0  0
  -27.2635  -29.1132   20.2931 C   0  0  0  0  0  0  0  0  0  0  0  0
  -25.8451  -27.4955   19.1940 C   0  0  0  0  0  0  0  0  0  0  0  0
  -22.4155  -20.4238   18.4697 C   0  0  0  0  0  0  0  0  0  0  0  0
  -29.5549  -26.6480   19.9828 C   0  0  0  0  0  0  0  0  0  0  0  0
  -30.8208  -26.4639   20.5389 C   0  0  0  0  0  0  0  0  0  0  0  0
  -24.1384  -20.4998   20.1565 C   0  0  0  0  0  0  0  0  0  0  0  0
  -31.6836  -28.2566   19.1682 C   0  0  0  0  0  0  0  0  0  0  0  0
  -18.2282  -23.7793   22.4890 C   0  0  0  0  0  0  0  0  0  0  0  0
  -24.9872  -28.7983   21.0389 C   0  0  0  0  0  0  0  0  0  0  0  0
  -22.9261  -30.1283   21.7394 C   0  0  0  0  0  0  0  0  0  0  0  0
  -25.2154  -11.2124   20.1444 C   0  0  0  0  0  0  0  0  0  0  0  0
  -24.1869  -18.7634   18.4705 C   0  0  0  0  0  0  0  0  0  0  0  0
  -24.4058  -12.3211   19.8318 C   0  0  0  0  0  0  0  0  0  0  0  0
  -24.7590  -19.3728   19.5964 C   0  0  0  0  0  0  0  0  0  0  0  0
  -27.0767  -28.1397   19.3118 C   0  0  0  0  0  0  0  0  0  0  0  0
  -22.9721  -21.0211   19.5969 C   0  0  0  0  0  0  0  0  0  0  0  0
  -29.3533  -27.6363   19.0193 C   0  0  0  0  0  0  0  0  0  0  0  0
  -31.8851  -27.2682   20.1316 C   0  0  0  0  0  0  0  0  0  0  0  0
  -30.4177  -28.4406   18.6120 C   0  0  0  0  0  0  0  0  0  0  0  0
  -23.9078  -29.1377   21.9310 C   0  0  0  0  0  0  0  0  0  0  0  0
  -18.3186  -24.6168   23.5648 C   0  0  0  0  0  0  0  0  0  0  0  0
  -22.1393  -30.0538   22.8627 C   0  0  0  0  0  0  0  0  0  0  0  0
  -18.6924  -25.8091   21.7374 C   0  0  0  0  0  0  0  0  0  0  0  0
  -22.7419  -31.0348   20.6439 C   0  0  0  0  0  0  0  0  0  0  0  0
  -24.9608  -15.9739   19.7832 C   0  0  0  0  0  0  0  0  0  0  0  0
  -27.9389  -17.2592   19.8188 C   0  0  0  0  0  0  0  0  0  0  0  0
  -29.8844  -20.0631   19.8233 C   0  0  0  0  0  0  0  0  0  0  0  0
  -20.9951  -25.6498   26.7546 C   0  0  0  0  0  0  0  0  0  0  0  0
  -26.2194  -11.2552   21.2691 C   0  0  0  0  0  0  0  0  0  0  0  0
  -24.8438  -17.5691   17.8345 C   0  0  0  0  0  0  0  0  0  0  0  0
  -26.0202  -18.8454   20.2286 C   0  0  0  0  0  0  0  0  0  0  0  0
  -26.5771  -12.6714   21.7127 C   0  0  0  0  0  0  0  0  0  0  0  0
  -22.3272  -28.8678   27.4940 C   0  0  0  0  0  0  0  0  0  0  0  0
  -25.3158  -13.5128   21.8806 C   0  0  0  0  0  0  0  0  0  0  0  0
  -22.7948  -29.3913   26.1348 C   0  0  0  0  0  0  0  0  0  0  0  0
  -22.5555  -27.3639   27.6285 C   0  0  0  0  0  0  0  0  0  0  0  0
  -22.4447  -27.0736   25.1837 C   0  0  0  0  0  0  0  0  0  0  0  0
  -24.5585  -13.6425   20.5536 C   0  0  1  0  0  0  0  0  0  0  0  0
  -25.7406  -16.7971   18.7974 C   0  0  1  0  0  0  0  0  0  0  0  0
  -22.1837  -28.5758   24.9795 C   0  0  2  0  0  0  0  0  0  0  0  0
  -32.2834  -20.7960   19.8942 C   0  0  0  0  0  0  0  0  0  0  0  0
  -23.5200  -24.1076   19.4522 C   0  0  0  0  0  0  0  0  0  0  0  0
  -17.8253  -27.2092   19.8312 C   0  0  0  0  0  0  0  0  0  0  0  0
  -20.2864  -26.7112   20.0076 C   0  0  0  0  0  0  0  0  0  0  0  0
  -19.2162  -28.3329   21.5587 C   0  0  0  0  0  0  0  0  0  0  0  0
  -28.0442  -16.6180   22.8001 C   0  0  0  0  0  0  0  0  0  0  0  0
  -29.9873  -18.1845   22.9973 C   0  0  0  0  0  0  0  0  0  0  0  0
  -30.1648  -16.1549   21.5578 C   0  0  0  0  0  0  0  0  0  0  0  0
  -29.6718  -21.4088   17.1960 C   0  0  0  0  0  0  0  0  0  0  0  0
  -18.1636  -24.3687   25.0004 C   0  0  0  0  0  0  0  0  0  0  0  0
  -19.7241  -23.2448   19.5784 C   0  0  0  0  0  0  0  0  0  0  0  0
  -21.0092  -24.0709   19.7248 C   0  0  0  0  0  0  0  0  0  0  0  0
  -18.4620  -24.0302   19.9538 C   0  0  0  0  0  0  0  0  0  0  0  0
  -19.4696  -23.9829   25.7283 C   0  0  0  0  0  0  0  0  0  0  0  0
  -28.7317  -18.0934   20.7959 C   0  0  1  0  0  0  0  0  0  0  0  0
  -31.1027  -20.4450   19.0022 C   0  0  2  0  0  0  0  0  0  0  0  0
  -22.2538  -23.2716   19.3228 C   0  0  2  0  0  0  0  0  0  1  0  0
  -18.9888  -26.9563   20.8435 C   0  0  0  0  0  0  0  0  0  0  0  0
  -29.2071  -17.2717   22.0272 C   0  0  0  0  0  0  0  0  0  0  0  0
  -23.7603  -28.4820   23.0853 N   0  0  0  0  0  0  0  0  0  0  0  0
  -18.4634  -24.5437   21.3716 N   0  0  0  0  0  0  0  0  0  0  0  0
  -22.6768  -29.0619   23.6292 N   0  0  0  0  0  0  0  0  0  0  0  0
  -18.6069  -25.8660   23.0704 N   0  3  0  0  0  0  0  0  0  0  0  0
  -26.6215  -17.6719   19.5738 N   0  0  0  0  0  0  0  0  0  0  0  0
  -21.9501  -26.6486   26.5026 N   0  0  0  0  0  0  0  0  0  0  0  0
  -21.0470  -30.7406   23.2597 N   0  0  0  0  0  0  0  0  0  0  0  0
  -23.6410  -30.9769   19.5703 N   0  0  0  0  0  0  0  0  0  0  0  0
  -25.2018  -14.6159   19.6975 N   0  0  0  0  0  0  0  0  0  0  0  0
  -29.8138  -18.7015   20.0294 N   0  0  0  0  0  0  0  0  0  0  0  0
  -20.4665  -25.0257   25.6313 N   0  0  0  0  0  0  0  0  0  0  0  0
  -30.7984  -21.6223   18.1406 N   0  3  0  0  0  0  0  0  0  0  0  0
  -21.8173  -31.8824   20.6254 O   0  0  0  0  0  0  0  0  0  0  0  0
  -24.1981  -16.5297   20.5649 O   0  0  0  0  0  0  0  0  0  0  0  0
  -28.4712  -16.2818   19.2870 O   0  0  0  0  0  0  0  0  0  0  0  0
  -29.0782  -20.8902   20.2434 O   0  0  0  0  0  0  0  0  0  0  0  0
  -20.6360  -25.3411   27.8960 O   0  0  0  0  0  0  0  0  0  0  0  0
  -28.0958  -27.8183   18.4688 O   0  0  0  0  0  0  0  0  0  0  0  0
  -22.3819  -22.1157   20.1496 O   0  0  0  0  0  0  0  0  0  1  0  0
  -33.1004  -27.0924   20.6668 F   0  0  0  0  0  0  0  0  0  0  0  0
  -30.2299  -29.3925   17.6877 F   0  0  0  0  0  0  0  0  0  0  0  0
  1  2  1  0  0  0  0
  1  5  2  0  0  0  0
  2  6  2  0  0  0  0
  3  8  2  0  0  0  0
  3 16  1  0  0  0  0
  4  9  1  0  0  0  0
  4 16  2  0  0  0  0
  5 18  1  0  0  0  0
  6 20  1  0  0  0  0
  7 10  2  0  0  0  0
  7 19  1  0  0  0  0
  8 22  1  0  0  0  0
  9 22  2  0  0  0  0
 10 23  1  0  0  0  0
 11 12  2  0  0  0  0
 11 24  1  0  0  0  0
 12 25  1  0  0  0  0
 13 21  1  0  0  0  0
 13 23  2  0  0  0  0
 14 25  2  0  0  0  0
 14 26  1  0  0  0  0
 15 28  2  0  0  0  0
 15 68  1  0  0  0  0
 16 27  1  0  0  0  0
 17 27  1  0  0  0  0
 17 29  2  0  0  0  0
 17 31  1  0  0  0  0
 18 20  2  0  0  0  0
 18 36  1  0  0  0  0
 19 21  2  0  0  0  0
 19 37  1  0  0  0  0
 20 45  1  0  0  0  0
 21 38  1  0  0  0  0
 22 84  1  0  0  0  0
 23 85  1  0  0  0  0
 24 26  2  0  0  0  0
 24 84  1  0  0  0  0
 25 86  1  0  0  0  0
 26 87  1  0  0  0  0
 27 67  2  0  0  0  0
 28 57  1  0  0  0  0
 28 70  1  0  0  0  0
 29 69  1  0  0  0  0
 29 73  1  0  0  0  0
 30 65  1  0  0  0  0
 30 68  1  0  0  0  0
 30 70  2  0  0  0  0
 31 74  1  0  0  0  0
 31 79  2  0  0  0  0
 32 46  1  0  0  0  0
 32 75  1  0  0  0  0
 32 80  2  0  0  0  0
 33 62  1  0  0  0  0
 33 71  1  0  0  0  0
 33 81  2  0  0  0  0
 34 63  1  0  0  0  0
 34 76  1  0  0  0  0
 34 82  2  0  0  0  0
 35 72  1  0  0  0  0
 35 77  1  0  0  0  0
 35 83  2  0  0  0  0
 36 39  1  0  0  0  0
 37 46  1  0  0  0  0
 38 71  1  0  0  0  0
 39 41  1  0  0  0  0
 40 42  1  0  0  0  0
 40 43  1  0  0  0  0
 41 45  1  0  0  0  0
 42 47  1  0  0  0  0
 43 72  1  0  0  0  0
 44 47  1  0  0  0  0
 44 72  1  0  0  0  0
 45 75  1  0  0  0  0
 46 71  1  0  0  0  0
 47 69  1  0  0  0  0
 48 63  1  0  0  0  0
 49 64  1  0  0  0  0
 50 65  1  0  0  0  0
 51 65  1  0  0  0  0
 52 65  1  0  0  0  0
 53 66  1  0  0  0  0
 54 66  1  0  0  0  0
 55 66  1  0  0  0  0
 56 78  1  0  0  0  0
 57 61  1  0  0  0  0
 58 59  1  0  0  0  0
 58 60  1  0  0  0  0
 59 64  1  0  0  0  0
 60 68  1  0  0  0  0
 61 77  1  0  0  0  0
 62 66  1  0  0  0  0
 62 76  1  0  0  0  0
 63 78  1  0  0  0  0
 64 85  1  0  0  0  0
 67 69  1  0  0  0  0
M  CHG  2  70   1  78   1
M  ISO  4  35 100  64 101  77 100  85 101
M  END
> <Batch ID>
0090

> <Smiles>
CNC(C)C(=O)NC(C(=O)N1Cc2cc([101O:1][101CH:1](C)CCCn3cc(CC[100NH:0][100C:0](=O)N4CCCC(n5nc(-c6ccc(Oc7ccc(F)cc7F)cc6)c(C(N)=O)c5N)C4)nc3C(C)(C)C)ccc2CC1C(=O)NC1CCCc2ccccc21)C(C)(C)C

> <Shape>
0.207

> <Color>
0.072

> <Negative vol penalty>
0.000

$$$$

  -OEChem-04052319093D

 88 96  0     1  0  0  0  0  0999 V2000
  -30.6667  -24.4709   16.8650 C   0  0  0  0  0  0  0  0  0  0  0  0
  -29.4205  -24.3995   17.4792 C   0  0  0  0  0  0  0  0  0  0  0  0
  -30.5725  -22.8235   22.4852 C   0  0  0  0  0  0  0  0  0  0  0  0
  -28.5005  -21.9153   23.3333 C   0  0  0  0  0  0  0  0  0  0  0  0
  -31.6747  -25.2548   17.4249 C   0  0  0  0  0  0  0  0  0  0  0  0
  -29.1818  -25.1112   18.6544 C   0  0  0  0  0  0  0  0  0  0  0  0
  -24.7213  -27.5082   18.6020 C   0  0  0  0  0  0  0  0  0  0  0  0
  -30.5143  -23.8433   23.4350 C   0  0  0  0  0  0  0  0  0  0  0  0
  -28.4423  -22.9351   24.2832 C   0  0  0  0  0  0  0  0  0  0  0  0
  -23.5830  -26.7405   18.8443 C   0  0  0  0  0  0  0  0  0  0  0  0
  -29.8699  -23.6462   27.2626 C   0  0  0  0  0  0  0  0  0  0  0  0
  -29.5424  -23.2927   28.5715 C   0  0  0  0  0  0  0  0  0  0  0  0
  -23.5542  -27.5151   21.1287 C   0  0  0  0  0  0  0  0  0  0  0  0
  -27.6071  -24.7360   28.4770 C   0  0  0  0  0  0  0  0  0  0  0  0
  -21.5365  -19.5717   17.9511 C   0  0  0  0  0  0  0  0  0  0  0  0
  -29.5656  -21.8595   22.4343 C   0  0  0  0  0  0  0  0  0  0  0  0
  -30.2352  -19.5455   21.5949 C   0  0  0  0  0  0  0  0  0  0  0  0
  -31.4452  -25.9841   18.6022 C   0  0  0  0  0  0  0  0  0  0  0  0
  -25.2919  -28.2780   19.6259 C   0  0  0  0  0  0  0  0  0  0  0  0
  -30.1881  -25.9046   19.2313 C   0  0  0  0  0  0  0  0  0  0  0  0
  -24.6982  -28.2937   20.8961 C   0  0  0  0  0  0  0  0  0  0  0  0
  -29.4492  -23.8991   24.3340 C   0  0  0  0  0  0  0  0  0  0  0  0
  -23.0010  -26.7416   20.1086 C   0  0  0  0  0  0  0  0  0  0  0  0
  -29.0661  -24.5446   26.5609 C   0  0  0  0  0  0  0  0  0  0  0  0
  -28.4110  -23.8375   29.1788 C   0  0  0  0  0  0  0  0  0  0  0  0
  -27.9347  -25.0895   27.1681 C   0  0  0  0  0  0  0  0  0  0  0  0
  -29.6248  -20.8061   21.4530 C   0  0  0  0  0  0  0  0  0  0  0  0
  -22.7095  -18.8713   17.9713 C   0  0  0  0  0  0  0  0  0  0  0  0
  -30.0158  -18.9204   20.3917 C   0  0  0  0  0  0  0  0  0  0  0  0
  -21.8378  -18.8029   20.0050 C   0  0  0  0  0  0  0  0  0  0  0  0
  -30.9377  -18.9893   22.7142 C   0  0  0  0  0  0  0  0  0  0  0  0
  -28.1013  -28.3045   21.1125 C   0  0  0  0  0  0  0  0  0  0  0  0
  -26.8991  -30.9752   22.5068 C   0  0  0  0  0  0  0  0  0  0  0  0
  -24.1503  -32.7773   23.4250 C   0  0  0  0  0  0  0  0  0  0  0  0
  -25.8353  -19.5809   16.1564 C   0  0  0  0  0  0  0  0  0  0  0  0
  -32.5803  -26.7803   19.1958 C   0  0  0  0  0  0  0  0  0  0  0  0
  -26.5042  -29.1215   19.3412 C   0  0  0  0  0  0  0  0  0  0  0  0
  -25.2601  -29.1189   22.0239 C   0  0  0  0  0  0  0  0  0  0  0  0
  -32.1292  -27.8000   20.2384 C   0  0  0  0  0  0  0  0  0  0  0  0
  -29.3608  -19.8629   15.7470 C   0  0  0  0  0  0  0  0  0  0  0  0
  -31.1462  -27.1642   21.2164 C   0  0  0  0  0  0  0  0  0  0  0  0
  -29.8833  -20.0228   17.1757 C   0  0  0  0  0  0  0  0  0  0  0  0
  -28.0231  -20.5733   15.5524 C   0  0  0  0  0  0  0  0  0  0  0  0
  -27.4992  -20.3598   17.9511 C   0  0  0  0  0  0  0  0  0  0  0  0
  -29.8829  -26.6816   20.4935 C   0  0  1  0  0  0  0  0  0  0  0  0
  -27.3004  -29.4661   20.5960 C   0  0  1  0  0  0  0  0  0  0  0  0
  -28.8188  -19.6133   18.2113 C   0  0  2  0  0  0  0  0  0  0  0  0
  -23.8843  -17.0872   16.6302 C   0  0  0  0  0  0  0  0  0  0  0  0
  -23.4841  -34.9021   24.5821 C   0  0  0  0  0  0  0  0  0  0  0  0
  -21.4573  -15.0894   23.3689 C   0  0  0  0  0  0  0  0  0  0  0  0
  -22.5772  -17.2109   24.0798 C   0  0  0  0  0  0  0  0  0  0  0  0
  -27.5419  -29.7044   25.2053 C   0  0  0  0  0  0  0  0  0  0  0  0
  -26.0298  -31.3863   26.2791 C   0  0  0  0  0  0  0  0  0  0  0  0
  -28.0641  -32.1452   25.0508 C   0  0  0  0  0  0  0  0  0  0  0  0
  -22.8001  -33.8099   21.0022 C   0  0  0  0  0  0  0  0  0  0  0  0
  -21.6529  -18.4981   21.4457 C   0  0  0  0  0  0  0  0  0  0  0  0
  -21.6269  -16.9806   21.7234 C   0  0  0  0  0  0  0  0  0  0  0  0
  -20.7636  -22.4528   19.6258 C   0  0  0  0  0  0  0  0  0  0  0  0
  -19.9699  -21.4381   20.4513 C   0  0  0  0  0  0  0  0  0  0  0  0
  -20.9731  -23.7568   20.4011 C   0  0  0  0  0  0  0  0  0  0  0  0
  -19.7253  -20.1503   19.6617 C   0  0  0  0  0  0  0  0  0  0  0  0
  -21.7393  -24.7937   19.5889 C   0  0  0  0  0  0  0  0  0  1  0  0
  -23.6895  -18.5936   16.9181 C   0  0  2  0  0  0  0  0  0  0  0  0
  -26.0869  -31.2606   23.7469 C   0  0  1  0  0  0  0  0  0  0  0  0
  -23.8025  -34.2444   23.2484 C   0  0  2  0  0  0  0  0  0  0  0  0
  -21.4707  -16.6118   23.2105 C   0  0  0  0  0  0  0  0  0  0  0  0
  -26.9210  -31.1070   25.0500 C   0  0  0  0  0  0  0  0  0  0  0  0
  -29.0602  -20.9736   20.2542 N   0  0  0  0  0  0  0  0  0  0  0  0
  -21.0184  -19.5125   19.2223 N   0  0  0  0  0  0  0  0  0  0  0  0
  -29.3149  -19.8101   19.6318 N   0  0  0  0  0  0  0  0  0  0  0  0
  -22.8710  -18.4072   19.2545 N   0  3  0  0  0  0  0  0  0  0  0  0
  -26.4501  -29.9219   21.6975 N   0  0  0  0  0  0  0  0  0  0  0  0
  -27.0576  -20.1393   16.5650 N   0  0  0  0  0  0  0  0  0  0  0  0
  -30.3560  -17.7021   19.9202 N   0  0  0  0  0  0  0  0  0  0  0  0
  -31.0718  -19.7670   23.8724 N   0  0  0  0  0  0  0  0  0  0  0  0
  -29.0095  -27.7982   20.2023 N   0  0  0  0  0  0  0  0  0  0  0  0
  -25.5093  -32.5872   23.5601 N   0  0  0  0  0  0  0  0  0  0  0  0
  -24.9804  -19.1902   17.1798 N   0  0  0  0  0  0  0  0  0  0  0  0
  -22.6176  -34.3922   22.3567 N   0  3  0  0  0  0  0  0  0  0  0  0
  -31.4461  -17.8430   22.6822 O   0  0  0  0  0  0  0  0  0  0  0  0
  -27.9106  -27.8985   22.2529 O   0  0  0  0  0  0  0  0  0  0  0  0
  -27.8911  -31.6660   22.2613 O   0  0  0  0  0  0  0  0  0  0  0  0
  -23.3009  -31.8892   23.4451 O   0  0  0  0  0  0  0  0  0  0  0  0
  -25.5307  -19.4361   14.9676 O   0  0  0  0  0  0  0  0  0  0  0  0
  -29.3922  -24.8940   25.2612 O   0  0  0  0  0  0  0  0  0  0  0  0
  -21.8903  -25.9926   20.3479 O   0  0  0  0  0  0  0  0  0  1  0  0
  -28.0957  -23.4968   30.4352 F   0  0  0  0  0  0  0  0  0  0  0  0
  -27.1580  -25.9522   26.4986 F   0  0  0  0  0  0  0  0  0  0  0  0
  1  2  1  0  0  0  0
  1  5  2  0  0  0  0
  2  6  2  0  0  0  0
  3  8  2  0  0  0  0
  3 16  1  0  0  0  0
  4  9  1  0  0  0  0
  4 16  2  0  0  0  0
  5 18  1  0  0  0  0
  6 20  1  0  0  0  0
  7 10  2  0  0  0  0
  7 19  1  0  0  0  0
  8 22  1  0  0  0  0
  9 22  2  0  0  0  0
 10 23  1  0  0  0  0
 11 12  2  0  0  0  0
 11 24  1  0  0  0  0
 12 25  1  0  0  0  0
 13 21  1  0  0  0  0
 13 23  2  0  0  0  0
 14 25  2  0  0  0  0
 14 26  1  0  0  0  0
 15 28  2  0  0  0  0
 15 69  1  0  0  0  0
 16 27  1  0  0  0  0
 17 27  1  0  0  0  0
 17 29  2  0  0  0  0
 17 31  1  0  0  0  0
 18 20  2  0  0  0  0
 18 36  1  0  0  0  0
 19 21  2  0  0  0  0
 19 37  1  0  0  0  0
 20 45  1  0  0  0  0
 21 38  1  0  0  0  0
 22 85  1  0  0  0  0
 23 86  1  0  0  0  0
 24 26  2  0  0  0  0
 24 85  1  0  0  0  0
 25 87  1  0  0  0  0
 26 88  1  0  0  0  0
 27 68  2  0  0  0  0
 28 63  1  0  0  0  0
 28 71  1  0  0  0  0
 29 70  1  0  0  0  0
 29 74  1  0  0  0  0
 30 56  1  0  0  0  0
 30 69  1  0  0  0  0
 30 71  2  0  0  0  0
 31 75  1  0  0  0  0
 31 80  2  0  0  0  0
 32 46  1  0  0  0  0
 32 76  1  0  0  0  0
 32 81  2  0  0  0  0
 33 64  1  0  0  0  0
 33 72  1  0  0  0  0
 33 82  2  0  0  0  0
 34 65  1  0  0  0  0
 34 77  1  0  0  0  0
 34 83  2  0  0  0  0
 35 73  1  0  0  0  0
 35 78  1  0  0  0  0
 35 84  2  0  0  0  0
 36 39  1  0  0  0  0
 37 46  1  0  0  0  0
 38 72  1  0  0  0  0
 39 41  1  0  0  0  0
 40 42  1  0  0  0  0
 40 43  1  0  0  0  0
 41 45  1  0  0  0  0
 42 47  1  0  0  0  0
 43 73  1  0  0  0  0
 44 47  1  0  0  0  0
 44 73  1  0  0  0  0
 45 76  1  0  0  0  0
 46 72  1  0  0  0  0
 47 70  1  0  0  0  0
 48 63  1  0  0  0  0
 49 65  1  0  0  0  0
 50 66  1  0  0  0  0
 51 66  1  0  0  0  0
 52 67  1  0  0  0  0
 53 67  1  0  0  0  0
 54 67  1  0  0  0  0
 55 79  1  0  0  0  0
 56 57  1  0  0  0  0
 57 66  1  0  0  0  0
 58 59  1  0  0  0  0
 58 60  1  0  0  0  0
 59 61  1  0  0  0  0
 60 62  1  0  0  0  0
 61 69  1  0  0  0  0
 62 86  1  0  0  0  0
 63 78  1  0  0  0  0
 64 67  1  0  0  0  0
 64 77  1  0  0  0  0
 65 79  1  0  0  0  0
 68 70  1  0  0  0  0
M  CHG  2  71   1  79   1
M  ISO  4  35 100  62 101  78 100  86 101
M  END
> <Batch ID>
0090

> <Smiles>
CNC(C)C(=O)NC(C(=O)N1Cc2cc([101O:1][101CH2:1]CCCCn3cc(C(C)[100NH:0][100C:0](=O)N4CCCC(n5nc(-c6ccc(Oc7ccc(F)cc7F)cc6)c(C(N)=O)c5N)C4)nc3CCC(C)C)ccc2CC1C(=O)NC1CCCc2ccccc21)C(C)(C)C

> <Shape>
0.192

> <Color>
0.069

> <Negative vol penalty>
0.000

$$$$

  -OEChem-04052319093D

 85 93  0     1  0  0  0  0  0999 V2000
  -18.0355  -26.8493   22.2765 C   0  0  0  0  0  0  0  0  0  0  0  0
  -19.0893  -26.8218   21.3687 C   0  0  0  0  0  0  0  0  0  0  0  0
  -26.9086  -12.7955   21.2445 C   0  0  0  0  0  0  0  0  0  0  0  0
  -26.4554  -13.6318   19.0236 C   0  0  0  0  0  0  0  0  0  0  0  0
  -18.1728  -27.5368   23.4816 C   0  0  0  0  0  0  0  0  0  0  0  0
  -20.2808  -27.4827   21.6651 C   0  0  0  0  0  0  0  0  0  0  0  0
  -24.3687  -24.6916   20.5957 C   0  0  0  0  0  0  0  0  0  0  0  0
  -26.2368  -11.6126   20.9362 C   0  0  0  0  0  0  0  0  0  0  0  0
  -25.7835  -12.4489   18.7153 C   0  0  0  0  0  0  0  0  0  0  0  0
  -24.7537  -24.6127   19.2580 C   0  0  0  0  0  0  0  0  0  0  0  0
  -23.0349  -10.5547   20.7054 C   0  0  0  0  0  0  0  0  0  0  0  0
  -22.1384  -10.0544   21.6496 C   0  0  0  0  0  0  0  0  0  0  0  0
  -26.4519  -26.2795   19.6546 C   0  0  0  0  0  0  0  0  0  0  0  0
  -31.3513  -22.2721   16.8600 C   0  0  0  0  0  0  0  0  0  0  0  0
  -23.4305   -8.0183   21.7978 C   0  0  0  0  0  0  0  0  0  0  0  0
  -27.0179  -13.8051   20.2882 C   0  0  0  0  0  0  0  0  0  0  0  0
  -29.0812  -15.2987   20.4286 C   0  0  0  0  0  0  0  0  0  0  0  0
  -19.3700  -28.1984   23.7972 C   0  0  0  0  0  0  0  0  0  0  0  0
  -25.0163  -25.5745   21.4718 C   0  0  0  0  0  0  0  0  0  0  0  0
  -20.4338  -28.1809   22.8750 C   0  0  0  0  0  0  0  0  0  0  0  0
  -26.0749  -26.3658   21.0036 C   0  0  0  0  0  0  0  0  0  0  0  0
  -30.2504  -22.5269   17.6588 C   0  0  0  0  0  0  0  0  0  0  0  0
  -25.6743  -11.4393   19.6716 C   0  0  0  0  0  0  0  0  0  0  0  0
  -25.7934  -25.4088   18.7866 C   0  0  0  0  0  0  0  0  0  0  0  0
  -24.1292   -9.7867   20.3073 C   0  0  0  0  0  0  0  0  0  0  0  0
  -22.3362   -8.7863   22.1958 C   0  0  0  0  0  0  0  0  0  0  0  0
  -24.3270   -8.5186   20.8535 C   0  0  0  0  0  0  0  0  0  0  0  0
  -27.7112  -15.0275   20.6063 C   0  0  0  0  0  0  0  0  0  0  0  0
  -32.5974  -22.2866   17.4536 C   0  0  0  0  0  0  0  0  0  0  0  0
  -30.4685  -22.7790   18.9983 C   0  0  0  0  0  0  0  0  0  0  0  0
  -29.2377  -16.5862   20.8806 C   0  0  0  0  0  0  0  0  0  0  0  0
  -30.1193  -14.4616   19.9020 C   0  0  0  0  0  0  0  0  0  0  0  0
  -24.1132  -28.0844   23.2004 C   0  0  0  0  0  0  0  0  0  0  0  0
  -27.1442  -27.8979   24.3409 C   0  0  0  0  0  0  0  0  0  0  0  0
  -30.3641  -26.8760   23.8567 C   0  0  0  0  0  0  0  0  0  0  0  0
  -27.5243  -21.8904   21.1536 C   0  0  0  0  0  0  0  0  0  0  0  0
  -19.4548  -28.9680   25.0915 C   0  0  0  0  0  0  0  0  0  0  0  0
  -24.6069  -25.6283   22.9181 C   0  0  0  0  0  0  0  0  0  0  0  0
  -26.8159  -27.3150   21.9082 C   0  0  0  0  0  0  0  0  0  0  0  0
  -20.8827  -29.3282   25.4936 C   0  0  0  0  0  0  0  0  0  0  0  0
  -26.0702  -19.5839   23.4432 C   0  0  0  0  0  0  0  0  0  0  0  0
  -21.6459  -29.8962   24.3013 C   0  0  0  0  0  0  0  0  0  0  0  0
  -26.4752  -18.2160   22.8912 C   0  0  0  0  0  0  0  0  0  0  0  0
  -25.7775  -20.5802   22.3236 C   0  0  0  0  0  0  0  0  0  0  0  0
  -27.2627  -19.3631   20.7787 C   0  0  0  0  0  0  0  0  0  0  0  0
  -21.7508  -28.8649   23.1713 C   0  0  1  0  0  0  0  0  0  0  0  0
  -24.9955  -26.9361   23.6009 C   0  0  1  0  0  0  0  0  0  0  0  0
  -27.6221  -18.3405   21.8702 C   0  0  2  0  0  0  0  0  0  0  0  0
  -34.1744  -20.5354   16.5976 C   0  0  0  0  0  0  0  0  0  0  0  0
  -32.6235  -26.8991   24.9486 C   0  0  0  0  0  0  0  0  0  0  0  0
  -26.9873  -24.9840   14.6975 C   0  0  0  0  0  0  0  0  0  0  0  0
  -27.4738  -30.8372   23.5912 C   0  0  0  0  0  0  0  0  0  0  0  0
  -29.9507  -30.5421   23.8055 C   0  0  0  0  0  0  0  0  0  0  0  0
  -28.4795  -30.2026   25.7912 C   0  0  0  0  0  0  0  0  0  0  0  0
  -30.4792  -23.9200   23.9468 C   0  0  0  0  0  0  0  0  0  0  0  0
  -28.8659  -22.5226   17.0605 C   0  0  0  0  0  0  0  0  0  0  0  0
  -33.8154  -22.0190   16.6376 C   0  0  0  0  0  0  0  0  0  0  0  0
  -29.3306  -23.0626   19.9198 C   0  0  0  0  0  0  0  0  0  0  0  0
  -28.5030  -23.8161   16.3180 C   0  0  0  0  0  0  0  0  0  0  0  0
  -25.9939  -24.0796   16.8247 C   0  0  0  0  0  0  0  0  0  1  0  0
  -28.4761  -28.4832   23.9377 C   0  0  1  0  0  0  0  0  0  0  0  0
  -31.3287  -26.1249   24.7567 C   0  0  2  0  0  0  0  0  0  0  0  0
  -27.0679  -23.8697   15.7488 C   0  0  1  0  0  0  0  0  0  0  0  0
  -28.5800  -29.9999   24.2636 C   0  0  0  0  0  0  0  0  0  0  0  0
  -27.0450  -16.0597   21.1304 N   0  0  0  0  0  0  0  0  0  0  0  0
  -32.7814  -22.5365   18.7674 N   0  0  0  0  0  0  0  0  0  0  0  0
  -31.6993  -22.7865   19.5525 N   0  0  0  0  0  0  0  0  0  0  0  0
  -28.0003  -16.9920   21.2860 N   0  0  0  0  0  0  0  0  0  0  0  0
  -26.3743  -27.3362   23.3125 N   0  0  0  0  0  0  0  0  0  0  0  0
  -26.9048  -20.6522   21.3909 N   0  0  0  0  0  0  0  0  0  0  0  0
  -30.3118  -17.3994   20.9668 N   0  0  0  0  0  0  0  0  0  0  0  0
  -29.7854  -13.1665   19.4832 N   0  0  0  0  0  0  0  0  0  0  0  0
  -22.7732  -27.8862   23.4736 N   0  0  0  0  0  0  0  0  0  0  0  0
  -29.4948  -27.6622   24.5830 N   0  0  0  0  0  0  0  0  0  0  0  0
  -28.5888  -21.8692   20.2609 N   0  0  0  0  0  0  0  0  0  0  0  0
  -31.6584  -24.7961   24.1680 N   0  3  0  0  0  0  0  0  0  0  0  0
  -31.3109  -14.8450   19.8209 O   0  0  0  0  0  0  0  0  0  0  0  0
  -24.6114  -29.0775   22.6833 O   0  0  0  0  0  0  0  0  0  0  0  0
  -26.8027  -27.9313   25.5258 O   0  0  0  0  0  0  0  0  0  0  0  0
  -30.3826  -26.7781   22.6317 O   0  0  0  0  0  0  0  0  0  0  0  0
  -27.1592  -22.9363   21.7012 O   0  0  0  0  0  0  0  0  0  0  0  0
  -25.0188  -10.2851   19.3703 O   0  0  0  0  0  0  0  0  0  0  0  0
  -26.1708  -25.3342   17.4813 O   0  0  0  0  0  0  0  0  0  1  0  0
  -21.4760   -8.3067   23.1037 F   0  0  0  0  0  0  0  0  0  0  0  0
  -25.3771   -7.7767   20.4758 F   0  0  0  0  0  0  0  0  0  0  0  0
  1  2  1  0  0  0  0
  1  5  2  0  0  0  0
  2  6  2  0  0  0  0
  3  8  2  0  0  0  0
  3 16  1  0  0  0  0
  4  9  1  0  0  0  0
  4 16  2  0  0  0  0
  5 18  1  0  0  0  0
  6 20  1  0  0  0  0
  7 10  2  0  0  0  0
  7 19  1  0  0  0  0
  8 23  1  0  0  0  0
  9 23  2  0  0  0  0
 10 24  1  0  0  0  0
 11 12  2  0  0  0  0
 11 25  1  0  0  0  0
 12 26  1  0  0  0  0
 13 21  1  0  0  0  0
 13 24  2  0  0  0  0
 14 22  2  0  0  0  0
 14 29  1  0  0  0  0
 15 26  2  0  0  0  0
 15 27  1  0  0  0  0
 16 28  1  0  0  0  0
 17 28  1  0  0  0  0
 17 31  2  0  0  0  0
 17 32  1  0  0  0  0
 18 20  2  0  0  0  0
 18 37  1  0  0  0  0
 19 21  2  0  0  0  0
 19 38  1  0  0  0  0
 20 46  1  0  0  0  0
 21 39  1  0  0  0  0
 22 30  1  0  0  0  0
 22 56  1  0  0  0  0
 23 82  1  0  0  0  0
 24 83  1  0  0  0  0
 25 27  2  0  0  0  0
 25 82  1  0  0  0  0
 26 84  1  0  0  0  0
 27 85  1  0  0  0  0
 28 65  2  0  0  0  0
 29 57  1  0  0  0  0
 29 66  2  0  0  0  0
 30 58  1  0  0  0  0
 30 67  2  0  0  0  0
 31 68  1  0  0  0  0
 31 71  1  0  0  0  0
 32 72  1  0  0  0  0
 32 77  2  0  0  0  0
 33 47  1  0  0  0  0
 33 73  1  0  0  0  0
 33 78  2  0  0  0  0
 34 61  1  0  0  0  0
 34 69  1  0  0  0  0
 34 79  2  0  0  0  0
 35 62  1  0  0  0  0
 35 74  1  0  0  0  0
 35 80  2  0  0  0  0
 36 70  1  0  0  0  0
 36 75  1  0  0  0  0
 36 81  2  0  0  0  0
 37 40  1  0  0  0  0
 38 47  1  0  0  0  0
 39 69  1  0  0  0  0
 40 42  1  0  0  0  0
 41 43  1  0  0  0  0
 41 44  1  0  0  0  0
 42 46  1  0  0  0  0
 43 48  1  0  0  0  0
 44 70  1  0  0  0  0
 45 48  1  0  0  0  0
 45 70  1  0  0  0  0
 46 73  1  0  0  0  0
 47 69  1  0  0  0  0
 48 68  1  0  0  0  0
 49 57  1  0  0  0  0
 50 62  1  0  0  0  0
 51 63  1  0  0  0  0
 52 64  1  0  0  0  0
 53 64  1  0  0  0  0
 54 64  1  0  0  0  0
 55 76  1  0  0  0  0
 56 59  1  0  0  0  0
 58 75  1  0  0  0  0
 59 63  1  0  0  0  0
 60 63  1  0  0  0  0
 60 83  1  0  0  0  0
 61 64  1  0  0  0  0
 61 74  1  0  0  0  0
 62 76  1  0  0  0  0
 65 68  1  0  0  0  0
 66 67  1  0  0  0  0
M  CHG  1  76   1
M  ISO  4  36 100  60 101  75 100  83 101
M  END
> <Batch ID>
0090

> <Smiles>
CCc1cc(CCC(C)[101CH2:1][101O:1]c2ccc3c(c2)CN(C(=O)C(NC(=O)C(C)NC)C(C)(C)C)C(C(=O)NC2CCCc4ccccc42)C3)c(C[100NH:0][100C:0](=O)N2CCCC(n3nc(-c4ccc(Oc5ccc(F)cc5F)cc4)c(C(N)=O)c3N)C2)nn1

> <Shape>
0.222

> <Color>
0.062

> <Negative vol penalty>
0.000

$$$$

  -OEChem-04052319093D

 86 94  0     1  0  0  0  0  0999 V2000
  -24.1517  -11.8628   20.6580 C   0  0  0  0  0  0  0  0  0  0  0  0
  -23.5102  -13.0966   20.6994 C   0  0  0  0  0  0  0  0  0  0  0  0
  -31.4153  -25.8345   19.4511 C   0  0  0  0  0  0  0  0  0  0  0  0
  -31.6745  -27.5726   21.1090 C   0  0  0  0  0  0  0  0  0  0  0  0
  -25.5307  -11.7887   20.8494 C   0  0  0  0  0  0  0  0  0  0  0  0
  -24.2473  -14.2569   20.9333 C   0  0  0  0  0  0  0  0  0  0  0  0
  -23.2156  -19.8127   18.5721 C   0  0  0  0  0  0  0  0  0  0  0  0
  -32.7211  -26.0568   19.0139 C   0  0  0  0  0  0  0  0  0  0  0  0
  -32.9803  -27.7949   20.6718 C   0  0  0  0  0  0  0  0  0  0  0  0
  -22.5753  -20.9429   19.0784 C   0  0  0  0  0  0  0  0  0  0  0  0
  -35.8519  -25.2604   20.0123 C   0  0  0  0  0  0  0  0  0  0  0  0
  -36.6581  -24.1452   19.7851 C   0  0  0  0  0  0  0  0  0  0  0  0
  -24.7076  -21.8330   19.7713 C   0  0  0  0  0  0  0  0  0  0  0  0
  -36.9166  -24.8027   17.4747 C   0  0  0  0  0  0  0  0  0  0  0  0
  -18.8665  -28.1430   21.9582 C   0  0  0  0  0  0  0  0  0  0  0  0
  -30.8920  -26.5924   20.4987 C   0  0  0  0  0  0  0  0  0  0  0  0
  -29.1225  -25.4698   21.9535 C   0  0  0  0  0  0  0  0  0  0  0  0
  -26.2865  -12.9497   21.0762 C   0  0  0  0  0  0  0  0  0  0  0  0
  -24.6080  -19.6789   18.6715 C   0  0  0  0  0  0  0  0  0  0  0  0
  -25.6376  -14.1981   21.1293 C   0  0  0  0  0  0  0  0  0  0  0  0
  -25.3634  -20.7013   19.2632 C   0  0  0  0  0  0  0  0  0  0  0  0
  -33.5036  -27.0370   19.6243 C   0  0  0  0  0  0  0  0  0  0  0  0
  -23.3210  -21.9520   19.6807 C   0  0  0  0  0  0  0  0  0  0  0  0
  -35.5779  -26.1468   18.9707 C   0  0  0  0  0  0  0  0  0  0  0  0
  -37.1905  -23.9163   18.5163 C   0  0  0  0  0  0  0  0  0  0  0  0
  -36.1102  -25.9180   17.7019 C   0  0  0  0  0  0  0  0  0  0  0  0
  -29.5430  -26.3636   20.9504 C   0  0  0  0  0  0  0  0  0  0  0  0
  -20.0850  -28.3072   22.5542 C   0  0  0  0  0  0  0  0  0  0  0  0
  -27.7589  -25.6267   22.0034 C   0  0  0  0  0  0  0  0  0  0  0  0
  -19.4149  -26.2310   22.9298 C   0  0  0  0  0  0  0  0  0  0  0  0
  -29.8954  -24.5777   22.7673 C   0  0  0  0  0  0  0  0  0  0  0  0
  -26.5677  -17.6218   20.0969 C   0  0  0  0  0  0  0  0  0  0  0  0
  -28.8510  -19.3123   18.5313 C   0  0  0  0  0  0  0  0  0  0  0  0
  -29.7832  -22.2436   17.0530 C   0  0  0  0  0  0  0  0  0  0  0  0
  -23.3461  -28.8577   22.1887 C   0  0  0  0  0  0  0  0  0  0  0  0
  -27.7680  -12.8146   21.3246 C   0  0  0  0  0  0  0  0  0  0  0  0
  -25.2862  -18.4658   18.0965 C   0  0  0  0  0  0  0  0  0  0  0  0
  -26.8628  -20.6153   19.3766 C   0  0  0  0  0  0  0  0  0  0  0  0
  -28.5300  -14.1309   21.1944 C   0  0  0  0  0  0  0  0  0  0  0  0
  -24.6072  -28.0684   18.8896 C   0  0  0  0  0  0  0  0  0  0  0  0
  -27.8033  -15.2445   21.9418 C   0  0  0  0  0  0  0  0  0  0  0  0
  -25.9783  -27.4768   19.2216 C   0  0  0  0  0  0  0  0  0  0  0  0
  -24.2655  -29.2283   19.8202 C   0  0  0  0  0  0  0  0  0  0  0  0
  -25.6892  -28.2997   21.6047 C   0  0  0  0  0  0  0  0  0  0  0  0
  -26.4062  -15.4818   21.3559 C   0  0  1  0  0  0  0  0  0  0  0  0
  -26.6562  -18.1990   18.7124 C   0  0  1  0  0  0  0  0  0  0  0  0
  -26.0832  -27.1080   20.7133 C   0  0  2  0  0  0  0  0  0  0  0  0
  -31.7234  -23.3366   15.8961 C   0  0  0  0  0  0  0  0  0  0  0  0
  -15.6475  -23.9414   20.5013 C   0  0  0  0  0  0  0  0  0  0  0  0
  -16.1166  -24.9412   18.2560 C   0  0  0  0  0  0  0  0  0  0  0  0
  -30.2403  -19.6884   21.2217 C   0  0  0  0  0  0  0  0  0  0  0  0
  -31.5904  -21.5265   20.1889 C   0  0  0  0  0  0  0  0  0  0  0  0
  -31.7794  -19.1987   19.3123 C   0  0  0  0  0  0  0  0  0  0  0  0
  -28.2335  -22.6213   14.5601 C   0  0  0  0  0  0  0  0  0  0  0  0
  -20.9800  -29.4650   22.6245 C   0  0  0  0  0  0  0  0  0  0  0  0
  -19.3886  -24.8053   23.4204 C   0  0  0  0  0  0  0  0  0  0  0  0
  -19.6973  -23.7705   22.3327 C   0  0  0  0  0  0  0  0  0  0  0  0
  -21.1091  -23.9063   21.7606 C   0  0  0  0  0  0  0  0  0  0  0  0
  -17.2945  -25.8740   20.2693 C   0  0  0  0  0  0  0  0  0  0  0  0
  -17.2364  -26.2510   21.7510 C   0  0  0  0  0  0  0  0  0  0  0  0
  -21.3653  -22.8890   20.6570 C   0  0  0  0  0  0  0  0  0  1  0  0
  -29.6826  -20.5322   18.8462 C   0  0  1  0  0  0  0  0  0  0  0  0
  -30.4450  -22.5325   15.7177 C   0  0  2  0  0  0  0  0  0  0  0  0
  -15.9949  -25.2298   19.7542 C   0  0  0  0  0  0  0  0  0  0  0  0
  -30.7947  -20.2375   19.8920 C   0  0  0  0  0  0  0  0  0  0  0  0
  -28.5287  -27.0381   20.4025 N   0  0  0  0  0  0  0  0  0  0  0  0
  -18.4759  -26.8491   22.2061 N   0  0  0  0  0  0  0  0  0  0  0  0
  -27.4573  -26.5679   21.0636 N   0  0  0  0  0  0  0  0  0  0  0  0
  -20.3996  -27.1086   23.1479 N   0  3  0  0  0  0  0  0  0  0  0  0
  -27.4792  -19.4066   18.8050 N   0  0  0  0  0  0  0  0  0  0  0  0
  -24.3662  -28.8060   21.2243 N   0  0  0  0  0  0  0  0  0  0  0  0
  -26.8005  -25.0498   22.7591 N   0  0  0  0  0  0  0  0  0  0  0  0
  -31.2847  -24.5423   22.5862 N   0  0  0  0  0  0  0  0  0  0  0  0
  -26.4957  -16.2422   20.1278 N   0  0  0  0  0  0  0  0  0  0  0  0
  -30.1809  -21.0278   17.5677 N   0  0  0  0  0  0  0  0  0  0  0  0
  -22.1259  -29.3563   21.7492 N   0  0  0  0  0  0  0  0  0  0  0  0
  -29.5224  -23.3054   14.8389 N   0  3  0  0  0  0  0  0  0  0  0  0
  -29.3678  -23.8220   23.6183 O   0  0  0  0  0  0  0  0  0  0  0  0
  -26.5664  -18.3726   21.0655 O   0  0  0  0  0  0  0  0  0  0  0  0
  -29.3973  -18.3150   18.0531 O   0  0  0  0  0  0  0  0  0  0  0  0
  -28.9954  -23.0206   17.5880 O   0  0  0  0  0  0  0  0  0  0  0  0
  -23.5090  -28.4821   23.3547 O   0  0  0  0  0  0  0  0  0  0  0  0
  -34.7778  -27.2541   19.1980 O   0  0  0  0  0  0  0  0  0  0  0  0
  -22.6985  -23.0559   20.1763 O   0  0  0  0  0  0  0  0  0  1  0  0
  -37.9661  -22.8461   18.2986 F   0  0  0  0  0  0  0  0  0  0  0  0
  -35.8515  -26.7666   16.6976 F   0  0  0  0  0  0  0  0  0  0  0  0
  1  2  1  0  0  0  0
  1  5  2  0  0  0  0
  2  6  2  0  0  0  0
  3  8  2  0  0  0  0
  3 16  1  0  0  0  0
  4  9  1  0  0  0  0
  4 16  2  0  0  0  0
  5 18  1  0  0  0  0
  6 20  1  0  0  0  0
  7 10  2  0  0  0  0
  7 19  1  0  0  0  0
  8 22  1  0  0  0  0
  9 22  2  0  0  0  0
 10 23  1  0  0  0  0
 11 12  2  0  0  0  0
 11 24  1  0  0  0  0
 12 25  1  0  0  0  0
 13 21  1  0  0  0  0
 13 23  2  0  0  0  0
 14 25  2  0  0  0  0
 14 26  1  0  0  0  0
 15 28  2  0  0  0  0
 15 67  1  0  0  0  0
 16 27  1  0  0  0  0
 17 27  1  0  0  0  0
 17 29  2  0  0  0  0
 17 31  1  0  0  0  0
 18 20  2  0  0  0  0
 18 36  1  0  0  0  0
 19 21  2  0  0  0  0
 19 37  1  0  0  0  0
 20 45  1  0  0  0  0
 21 38  1  0  0  0  0
 22 83  1  0  0  0  0
 23 84  1  0  0  0  0
 24 26  2  0  0  0  0
 24 83  1  0  0  0  0
 25 85  1  0  0  0  0
 26 86  1  0  0  0  0
 27 66  2  0  0  0  0
 28 55  1  0  0  0  0
 28 69  1  0  0  0  0
 29 68  1  0  0  0  0
 29 72  1  0  0  0  0
 30 56  1  0  0  0  0
 30 67  1  0  0  0  0
 30 69  2  0  0  0  0
 31 73  1  0  0  0  0
 31 78  2  0  0  0  0
 32 46  1  0  0  0  0
 32 74  1  0  0  0  0
 32 79  2  0  0  0  0
 33 62  1  0  0  0  0
 33 70  1  0  0  0  0
 33 80  2  0  0  0  0
 34 63  1  0  0  0  0
 34 75  1  0  0  0  0
 34 81  2  0  0  0  0
 35 71  1  0  0  0  0
 35 76  1  0  0  0  0
 35 82  2  0  0  0  0
 36 39  1  0  0  0  0
 37 46  1  0  0  0  0
 38 70  1  0  0  0  0
 39 41  1  0  0  0  0
 40 42  1  0  0  0  0
 40 43  1  0  0  0  0
 41 45  1  0  0  0  0
 42 47  1  0  0  0  0
 43 71  1  0  0  0  0
 44 47  1  0  0  0  0
 44 71  1  0  0  0  0
 45 74  1  0  0  0  0
 46 70  1  0  0  0  0
 47 68  1  0  0  0  0
 48 63  1  0  0  0  0
 49 64  1  0  0  0  0
 50 64  1  0  0  0  0
 51 65  1  0  0  0  0
 52 65  1  0  0  0  0
 53 65  1  0  0  0  0
 54 77  1  0  0  0  0
 55 76  1  0  0  0  0
 56 57  1  0  0  0  0
 57 58  1  0  0  0  0
 58 61  1  0  0  0  0
 59 60  1  0  0  0  0
 59 64  1  0  0  0  0
 60 67  1  0  0  0  0
 61 84  1  0  0  0  0
 62 65  1  0  0  0  0
 62 75  1  0  0  0  0
 63 77  1  0  0  0  0
 66 68  1  0  0  0  0
M  CHG  2  69   1  77   1
M  ISO  4  35 100  61 101  76 100  84 101
M  END
> <Batch ID>
0090

> <Smiles>
CNC(C)C(=O)NC(C(=O)N1Cc2cc([101O:1][101CH2:1]CCCc3nc(C[100NH:0][100C:0](=O)N4CCCC(n5nc(-c6ccc(Oc7ccc(F)cc7F)cc6)c(C(N)=O)c5N)C4)cn3CCC(C)C)ccc2CC1C(=O)NC1CCCc2ccccc21)C(C)(C)C

> <Shape>
0.206

> <Color>
0.085

> <Negative vol penalty>
0.000

$$$$

  -OEChem-04052319093D

 87 95  0     1  0  0  0  0  0999 V2000
  -40.0209  -21.9112    7.9764 C   0  0  0  0  0  0  0  0  0  0  0  0
  -39.8037  -21.4383    9.2666 C   0  0  0  0  0  0  0  0  0  0  0  0
  -23.0721   -9.8711   19.9426 C   0  0  0  0  0  0  0  0  0  0  0  0
  -23.8346   -9.8776   22.2352 C   0  0  0  0  0  0  0  0  0  0  0  0
  -39.3067  -23.0140    7.5100 C   0  0  0  0  0  0  0  0  0  0  0  0
  -38.8728  -22.0687   10.0916 C   0  0  0  0  0  0  0  0  0  0  0  0
  -35.2548  -19.4151   14.2598 C   0  0  0  0  0  0  0  0  0  0  0  0
  -22.3288   -8.7178   20.1931 C   0  0  0  0  0  0  0  0  0  0  0  0
  -23.0911   -8.7242   22.4856 C   0  0  0  0  0  0  0  0  0  0  0  0
  -35.3603  -19.2798   15.6434 C   0  0  0  0  0  0  0  0  0  0  0  0
  -22.9019   -5.3993   20.4824 C   0  0  0  0  0  0  0  0  0  0  0  0
  -22.9679   -4.3700   19.5435 C   0  0  0  0  0  0  0  0  0  0  0  0
  -33.9623  -21.2242   15.9339 C   0  0  0  0  0  0  0  0  0  0  0  0
  -32.0281  -17.4865   17.5876 C   0  0  0  0  0  0  0  0  0  0  0  0
  -20.5830   -4.5355   19.1944 C   0  0  0  0  0  0  0  0  0  0  0  0
  -23.8251  -10.4510   20.9636 C   0  0  0  0  0  0  0  0  0  0  0  0
  -24.1664  -12.9763   20.8439 C   0  0  0  0  0  0  0  0  0  0  0  0
  -38.3596  -23.6523    8.3262 C   0  0  0  0  0  0  0  0  0  0  0  0
  -34.5100  -20.4641   13.7018 C   0  0  0  0  0  0  0  0  0  0  0  0
  -38.1462  -23.1819    9.6361 C   0  0  0  0  0  0  0  0  0  0  0  0
  -33.8468  -21.3690   14.5429 C   0  0  0  0  0  0  0  0  0  0  0  0
  -32.1809  -17.8324   18.9529 C   0  0  0  0  0  0  0  0  0  0  0  0
  -22.3382   -8.1444   21.4646 C   0  0  0  0  0  0  0  0  0  0  0  0
  -34.7163  -20.1862   16.4807 C   0  0  0  0  0  0  0  0  0  0  0  0
  -21.6765   -5.9967   20.7775 C   0  0  0  0  0  0  0  0  0  0  0  0
  -21.8085   -3.9381   18.8994 C   0  0  0  0  0  0  0  0  0  0  0  0
  -20.5170   -5.5648   20.1335 C   0  0  0  0  0  0  0  0  0  0  0  0
  -24.5937  -11.6421   20.7054 C   0  0  0  0  0  0  0  0  0  0  0  0
  -30.6906  -17.2364   17.3738 C   0  0  0  0  0  0  0  0  0  0  0  0
  -30.9321  -17.7830   19.5320 C   0  0  0  0  0  0  0  0  0  0  0  0
  -25.2580  -13.7260   20.4797 C   0  0  0  0  0  0  0  0  0  0  0  0
  -22.8963  -13.4917   21.2644 C   0  0  0  0  0  0  0  0  0  0  0  0
  -35.1807  -22.9419   11.8272 C   0  0  0  0  0  0  0  0  0  0  0  0
  -31.9619  -23.3422   11.8630 C   0  0  0  0  0  0  0  0  0  0  0  0
  -28.9934  -22.8069   13.4592 C   0  0  0  0  0  0  0  0  0  0  0  0
  -30.7418  -14.7459   20.6623 C   0  0  0  0  0  0  0  0  0  0  0  0
  -37.6460  -24.8700    7.7946 C   0  0  0  0  0  0  0  0  0  0  0  0
  -34.3841  -20.5804   12.2075 C   0  0  0  0  0  0  0  0  0  0  0  0
  -33.0182  -22.5007   13.9941 C   0  0  0  0  0  0  0  0  0  0  0  0
  -36.4072  -25.2506    8.6012 C   0  0  0  0  0  0  0  0  0  0  0  0
  -29.6020  -12.3619   18.2761 C   0  0  0  0  0  0  0  0  0  0  0  0
  -36.7152  -25.2282   10.0950 C   0  0  0  0  0  0  0  0  0  0  0  0
  -28.1650  -12.0678   18.7105 C   0  0  0  0  0  0  0  0  0  0  0  0
  -30.5204  -12.5825   19.4760 C   0  0  0  0  0  0  0  0  0  0  0  0
  -28.6200  -13.3129   20.8649 C   0  0  0  0  0  0  0  0  0  0  0  0
  -37.1270  -23.8236   10.5523 C   0  0  1  0  0  0  0  0  0  0  0  0
  -34.0220  -21.9887   11.7462 C   0  0  1  0  0  0  0  0  0  0  0  0
  -27.6446  -13.1385   19.6883 C   0  0  2  0  0  0  0  0  0  0  0  0
  -30.9303  -16.6967   14.9371 C   0  0  0  0  0  0  0  0  0  0  0  0
  -26.5378  -23.2862   13.2649 C   0  0  0  0  0  0  0  0  0  0  0  0
  -26.3287  -18.3565   19.0117 C   0  0  0  0  0  0  0  0  0  0  0  0
  -28.0560  -19.3476   17.4952 C   0  0  0  0  0  0  0  0  0  0  0  0
  -32.4552  -26.2181   12.7554 C   0  0  0  0  0  0  0  0  0  0  0  0
  -30.0528  -26.3412   13.4493 C   0  0  0  0  0  0  0  0  0  0  0  0
  -30.6396  -25.9498   11.0565 C   0  0  0  0  0  0  0  0  0  0  0  0
  -28.3223  -19.9268   13.3424 C   0  0  0  0  0  0  0  0  0  0  0  0
  -33.4760  -18.1886   19.6381 C   0  0  0  0  0  0  0  0  0  0  0  0
  -29.9880  -16.8395   16.1363 C   0  0  0  0  0  0  0  0  0  0  0  0
  -30.5169  -18.0508   20.9255 C   0  0  0  0  0  0  0  0  0  0  0  0
  -33.6463  -19.6879   19.8923 C   0  0  0  0  0  0  0  0  0  0  0  0
  -28.6096  -17.2538   18.7633 C   0  0  0  0  0  0  0  0  0  0  0  0
  -30.8087  -16.8962   21.8997 C   0  0  0  0  0  0  0  0  0  0  0  0
  -33.7147  -20.5133   18.6127 C   0  0  0  0  0  0  0  0  0  1  0  0
  -30.9878  -24.0938   12.7377 C   0  0  1  0  0  0  0  0  0  0  0  0
  -27.6543  -22.3018   12.9530 C   0  0  2  0  0  0  0  0  0  0  0  0
  -27.8276  -18.5788   18.7982 C   0  0  0  0  0  0  0  0  0  0  0  0
  -31.0509  -25.6306   12.5104 C   0  0  0  0  0  0  0  0  0  0  0  0
  -25.8581  -11.5466   20.2857 N   0  0  0  0  0  0  0  0  0  0  0  0
  -30.0340  -17.4194   18.5628 N   0  0  0  0  0  0  0  0  0  0  0  0
  -26.2347  -12.8303   20.1573 N   0  0  0  0  0  0  0  0  0  0  0  0
  -32.9308  -22.5760   12.5263 N   0  0  0  0  0  0  0  0  0  0  0  0
  -29.9706  -13.6107   20.3629 N   0  0  0  0  0  0  0  0  0  0  0  0
  -25.4681  -15.0575   20.4068 N   0  0  0  0  0  0  0  0  0  0  0  0
  -21.8849  -12.5823   21.6026 N   0  0  0  0  0  0  0  0  0  0  0  0
  -35.9628  -22.9748   10.6885 N   0  0  0  0  0  0  0  0  0  0  0  0
  -29.6763  -23.5061   12.4866 N   0  0  0  0  0  0  0  0  0  0  0  0
  -30.1434  -15.6744   21.5052 N   0  0  0  0  0  0  0  0  0  0  0  0
  -27.3199  -20.9955   13.5875 N   0  3  0  0  0  0  0  0  0  0  0  0
  -22.6599  -14.7223   21.3224 O   0  0  0  0  0  0  0  0  0  0  0  0
  -35.3517  -23.5999   12.8468 O   0  0  0  0  0  0  0  0  0  0  0  0
  -31.8624  -23.4261   10.6363 O   0  0  0  0  0  0  0  0  0  0  0  0
  -29.3920  -22.6047   14.6041 O   0  0  0  0  0  0  0  0  0  0  0  0
  -31.8772  -14.9217   20.2074 O   0  0  0  0  0  0  0  0  0  0  0  0
  -21.6127   -7.0191   21.7094 O   0  0  0  0  0  0  0  0  0  0  0  0
  -34.8182  -20.0569   17.8315 O   0  0  0  0  0  0  0  0  0  1  0  0
  -21.8722   -2.9507   17.9966 F   0  0  0  0  0  0  0  0  0  0  0  0
  -19.3370   -6.1357   20.4119 F   0  0  0  0  0  0  0  0  0  0  0  0
  1  2  1  0  0  0  0
  1  5  2  0  0  0  0
  2  6  2  0  0  0  0
  3  8  2  0  0  0  0
  3 16  1  0  0  0  0
  4  9  1  0  0  0  0
  4 16  2  0  0  0  0
  5 18  1  0  0  0  0
  6 20  1  0  0  0  0
  7 10  2  0  0  0  0
  7 19  1  0  0  0  0
  8 23  1  0  0  0  0
  9 23  2  0  0  0  0
 10 24  1  0  0  0  0
 11 12  2  0  0  0  0
 11 25  1  0  0  0  0
 12 26  1  0  0  0  0
 13 21  1  0  0  0  0
 13 24  2  0  0  0  0
 14 22  1  0  0  0  0
 14 29  2  0  0  0  0
 15 26  2  0  0  0  0
 15 27  1  0  0  0  0
 16 28  1  0  0  0  0
 17 28  1  0  0  0  0
 17 31  2  0  0  0  0
 17 32  1  0  0  0  0
 18 20  2  0  0  0  0
 18 37  1  0  0  0  0
 19 21  2  0  0  0  0
 19 38  1  0  0  0  0
 20 46  1  0  0  0  0
 21 39  1  0  0  0  0
 22 30  2  0  0  0  0
 22 57  1  0  0  0  0
 23 84  1  0  0  0  0
 24 85  1  0  0  0  0
 25 27  2  0  0  0  0
 25 84  1  0  0  0  0
 26 86  1  0  0  0  0
 27 87  1  0  0  0  0
 28 68  2  0  0  0  0
 29 58  1  0  0  0  0
 29 69  1  0  0  0  0
 30 59  1  0  0  0  0
 30 69  1  0  0  0  0
 31 70  1  0  0  0  0
 31 73  1  0  0  0  0
 32 74  1  0  0  0  0
 32 79  2  0  0  0  0
 33 47  1  0  0  0  0
 33 75  1  0  0  0  0
 33 80  2  0  0  0  0
 34 64  1  0  0  0  0
 34 71  1  0  0  0  0
 34 81  2  0  0  0  0
 35 65  1  0  0  0  0
 35 76  1  0  0  0  0
 35 82  2  0  0  0  0
 36 72  1  0  0  0  0
 36 77  1  0  0  0  0
 36 83  2  0  0  0  0
 37 40  1  0  0  0  0
 38 47  1  0  0  0  0
 39 71  1  0  0  0  0
 40 42  1  0  0  0  0
 41 43  1  0  0  0  0
 41 44  1  0  0  0  0
 42 46  1  0  0  0  0
 43 48  1  0  0  0  0
 44 72  1  0  0  0  0
 45 48  1  0  0  0  0
 45 72  1  0  0  0  0
 46 75  1  0  0  0  0
 47 71  1  0  0  0  0
 48 70  1  0  0  0  0
 49 58  1  0  0  0  0
 50 65  1  0  0  0  0
 51 66  1  0  0  0  0
 52 66  1  0  0  0  0
 53 67  1  0  0  0  0
 54 67  1  0  0  0  0
 55 67  1  0  0  0  0
 56 78  1  0  0  0  0
 57 60  1  0  0  0  0
 59 62  1  0  0  0  0
 60 63  1  0  0  0  0
 61 66  1  0  0  0  0
 61 69  1  0  0  0  0
 62 77  1  0  0  0  0
 63 85  1  0  0  0  0
 64 67  1  0  0  0  0
 64 76  1  0  0  0  0
 65 78  1  0  0  0  0
 68 70  1  0  0  0  0
M  CHG  1  78   1
M  ISO  4  36 100  63 101  77 100  85 101
M  END
> <Batch ID>
0090

> <Smiles>
CCc1cc(CC[101CH2:1][101O:1]c2ccc3c(c2)CN(C(=O)C(NC(=O)C(C)NC)C(C)(C)C)C(C(=O)NC2CCCc4ccccc42)C3)c(CC[100NH:0][100C:0](=O)N2CCCC(n3nc(-c4ccc(Oc5ccc(F)cc5F)cc4)c(C(N)=O)c3N)C2)n1CC(C)C

> <Shape>
0.169

> <Color>
0.191

> <Negative vol penalty>
0.000

$$$$

  -OEChem-04052319093D

 91 99  0     1  0  0  0  0  0999 V2000
  -20.9598  -17.9598   23.1061 C   0  0  0  0  0  0  0  0  0  0  0  0
  -22.1085  -18.5566   23.6159 C   0  0  0  0  0  0  0  0  0  0  0  0
  -24.3574   -9.2317   21.3659 C   0  0  0  0  0  0  0  0  0  0  0  0
  -24.8946  -10.2096   23.5088 C   0  0  0  0  0  0  0  0  0  0  0  0
  -20.2797  -18.5539   22.0438 C   0  0  0  0  0  0  0  0  0  0  0  0
  -22.5783  -19.7474   23.0630 C   0  0  0  0  0  0  0  0  0  0  0  0
  -25.3333  -24.3462   26.0238 C   0  0  0  0  0  0  0  0  0  0  0  0
  -24.0413   -8.0274   21.9946 C   0  0  0  0  0  0  0  0  0  0  0  0
  -24.5785   -9.0053   24.1376 C   0  0  0  0  0  0  0  0  0  0  0  0
  -26.6750  -24.6926   26.1773 C   0  0  0  0  0  0  0  0  0  0  0  0
  -22.7475   -4.8055   23.0719 C   0  0  0  0  0  0  0  0  0  0  0  0
  -21.5791   -4.1544   22.6762 C   0  0  0  0  0  0  0  0  0  0  0  0
  -26.4811  -26.2367   24.3341 C   0  0  0  0  0  0  0  0  0  0  0  0
  -20.2806   -6.0800   23.3418 C   0  0  0  0  0  0  0  0  0  0  0  0
  -31.9373  -18.0615   21.9863 C   0  0  0  0  0  0  0  0  0  0  0  0
  -24.7841  -10.3228   22.1229 C   0  0  0  0  0  0  0  0  0  0  0  0
  -24.2403  -12.6392   21.2032 C   0  0  0  0  0  0  0  0  0  0  0  0
  -20.7360  -19.7576   21.4839 C   0  0  0  0  0  0  0  0  0  0  0  0
  -24.5570  -24.9354   25.0155 C   0  0  0  0  0  0  0  0  0  0  0  0
  -21.9044  -20.3574   21.9913 C   0  0  0  0  0  0  0  0  0  0  0  0
  -25.1291  -25.8979   24.1715 C   0  0  0  0  0  0  0  0  0  0  0  0
  -31.1714  -17.1946   22.7489 C   0  0  0  0  0  0  0  0  0  0  0  0
  -30.0692  -17.7160   23.4171 C   0  0  0  0  0  0  0  0  0  0  0  0
  -29.7708  -19.0694   23.3039 C   0  0  0  0  0  0  0  0  0  0  0  0
  -24.1518   -7.9142   23.3805 C   0  0  0  0  0  0  0  0  0  0  0  0
  -27.2499  -25.6359   25.3306 C   0  0  0  0  0  0  0  0  0  0  0  0
  -22.6824   -6.0938   23.6027 C   0  0  0  0  0  0  0  0  0  0  0  0
  -20.3457   -4.7916   22.8111 C   0  0  0  0  0  0  0  0  0  0  0  0
  -21.4489   -6.7311   23.7376 C   0  0  0  0  0  0  0  0  0  0  0  0
  -25.1112  -11.5669   21.4739 C   0  0  0  0  0  0  0  0  0  0  0  0
  -30.5996  -19.8524   22.5166 C   0  0  0  0  0  0  0  0  0  0  0  0
  -25.0301  -13.5740   20.5795 C   0  0  0  0  0  0  0  0  0  0  0  0
  -22.8423  -12.7779   21.4898 C   0  0  0  0  0  0  0  0  0  0  0  0
  -22.9977  -23.8550   22.4650 C   0  0  0  0  0  0  0  0  0  0  0  0
  -21.9699  -26.9259   22.2764 C   0  0  0  0  0  0  0  0  0  0  0  0
  -22.5017  -30.2108   23.0339 C   0  0  0  0  0  0  0  0  0  0  0  0
  -30.9160  -14.6666   20.6914 C   0  0  0  0  0  0  0  0  0  0  0  0
  -19.9941  -20.3374   20.3058 C   0  0  0  0  0  0  0  0  0  0  0  0
  -23.1041  -24.5705   24.8801 C   0  0  0  0  0  0  0  0  0  0  0  0
  -24.3334  -26.5746   23.0864 C   0  0  0  0  0  0  0  0  0  0  0  0
  -20.3462  -21.7954   20.0218 C   0  0  0  0  0  0  0  0  0  0  0  0
  -28.9260  -13.9483   17.8277 C   0  0  0  0  0  0  0  0  0  0  0  0
  -21.8582  -21.9950   20.0517 C   0  0  0  0  0  0  0  0  0  0  0  0
  -27.6441  -13.3533   18.4130 C   0  0  0  0  0  0  0  0  0  0  0  0
  -30.1586  -13.5285   18.6256 C   0  0  0  0  0  0  0  0  0  0  0  0
  -28.8013  -13.2094   20.6578 C   0  0  0  0  0  0  0  0  0  0  0  0
  -22.4313  -21.6622   21.4346 C   0  0  1  0  0  0  0  0  0  0  0  0
  -22.5436  -24.8553   23.4901 C   0  0  1  0  0  0  0  0  0  0  0  0
  -27.5254  -13.6500   19.9201 C   0  0  2  0  0  0  0  0  0  0  0  0
  -29.2097  -16.8230   24.2535 C   0  0  0  0  0  0  0  0  0  0  0  0
  -21.5077  -32.4924   22.7124 C   0  0  0  0  0  0  0  0  0  0  0  0
  -22.9633  -26.9495   19.3915 C   0  0  0  0  0  0  0  0  0  0  0  0
  -22.8268  -29.4490   19.4384 C   0  0  0  0  0  0  0  0  0  0  0  0
  -20.7624  -28.0830   19.7463 C   0  0  0  0  0  0  0  0  0  0  0  0
  -22.1821  -30.6094   25.9490 C   0  0  0  0  0  0  0  0  0  0  0  0
  -25.6465  -20.2799   19.9217 C   0  0  0  0  0  0  0  0  0  0  0  0
  -25.4029  -18.2551   21.3505 C   0  0  0  0  0  0  0  0  0  0  0  0
  -28.5943  -19.6585   24.0070 C   0  0  0  0  0  0  0  0  0  0  0  0
  -31.5387  -15.7534   22.8339 C   0  0  0  0  0  0  0  0  0  0  0  0
  -30.3276  -21.3269   22.3563 C   0  0  0  0  0  0  0  0  0  0  0  0
  -27.2451  -19.4184   23.3024 C   0  0  0  0  0  0  0  0  0  0  0  0
  -30.7855  -22.1746   23.5487 C   0  0  0  0  0  0  0  0  0  0  0  0
  -30.4879  -23.6678   23.3723 C   0  0  0  0  0  0  0  0  0  0  0  0
  -30.9348  -24.4684   24.5983 C   0  0  0  0  0  0  0  0  0  0  0  0
  -30.7239  -25.9752   24.4465 C   0  0  0  0  0  0  0  0  0  0  0  0
  -27.1574  -19.9433   21.8726 C   0  0  0  0  0  0  0  0  0  0  0  0
  -29.2622  -26.3777   24.3030 C   0  0  0  0  0  0  0  0  0  1  0  0
  -22.4720  -28.1821   21.6063 C   0  0  1  0  0  0  0  0  0  0  0  0
  -21.5849  -31.2715   23.6158 C   0  0  2  0  0  0  0  0  0  0  0  0
  -22.2719  -28.1519   20.0647 C   0  0  0  0  0  0  0  0  0  0  0  0
  -31.6789  -19.3817   21.8524 N   0  0  0  0  0  0  0  0  0  0  0  0
  -26.3588  -11.7978   21.0564 N   0  0  0  0  0  0  0  0  0  0  0  0
  -26.2774  -13.0260   20.5168 N   0  0  0  0  0  0  0  0  0  0  0  0
  -22.9184  -26.1795   22.9899 N   0  0  0  0  0  0  0  0  0  0  0  0
  -29.9824  -13.8388   20.0464 N   0  0  0  0  0  0  0  0  0  0  0  0
  -24.7723  -14.8030   20.0841 N   0  0  0  0  0  0  0  0  0  0  0  0
  -22.1847  -11.7221   22.1356 N   0  0  0  0  0  0  0  0  0  0  0  0
  -22.1799  -22.7461   22.3600 N   0  0  0  0  0  0  0  0  0  0  0  0
  -21.8054  -29.2950   22.2737 N   0  0  0  0  0  0  0  0  0  0  0  0
  -30.6712  -14.9155   22.0363 N   0  0  0  0  0  0  0  0  0  0  0  0
  -22.0792  -31.7066   24.9527 N   0  3  0  0  0  0  0  0  0  0  0  0
  -25.8067  -19.7095   21.3105 N   0  3  0  0  0  0  0  0  0  0  0  0
  -22.1918  -13.8010   21.1676 O   0  0  0  0  0  0  0  0  0  0  0  0
  -24.0140  -24.0738   21.8162 O   0  0  0  0  0  0  0  0  0  0  0  0
  -20.7786  -26.6221   22.1766 O   0  0  0  0  0  0  0  0  0  0  0  0
  -23.7148  -30.1981   23.2307 O   0  0  0  0  0  0  0  0  0  0  0  0
  -31.8924  -15.1525   20.1103 O   0  0  0  0  0  0  0  0  0  0  0  0
  -23.8433   -6.7392   23.9944 O   0  0  0  0  0  0  0  0  0  0  0  0
  -28.5594  -25.9754   25.4780 O   0  0  0  0  0  0  0  0  0  1  0  0
  -19.2240   -4.1668   22.4296 F   0  0  0  0  0  0  0  0  0  0  0  0
  -21.3802   -7.9692   24.2457 F   0  0  0  0  0  0  0  0  0  0  0  0
  1  2  1  0  0  0  0
  1  5  2  0  0  0  0
  2  6  2  0  0  0  0
  3  8  2  0  0  0  0
  3 16  1  0  0  0  0
  4  9  1  0  0  0  0
  4 16  2  0  0  0  0
  5 18  1  0  0  0  0
  6 20  1  0  0  0  0
  7 10  2  0  0  0  0
  7 19  1  0  0  0  0
  8 25  1  0  0  0  0
  9 25  2  0  0  0  0
 10 26  1  0  0  0  0
 11 12  2  0  0  0  0
 11 27  1  0  0  0  0
 12 28  1  0  0  0  0
 13 21  1  0  0  0  0
 13 26  2  0  0  0  0
 14 28  2  0  0  0  0
 14 29  1  0  0  0  0
 15 22  1  0  0  0  0
 15 71  2  0  0  0  0
 16 30  1  0  0  0  0
 17 30  1  0  0  0  0
 17 32  2  0  0  0  0
 17 33  1  0  0  0  0
 18 20  2  0  0  0  0
 18 38  1  0  0  0  0
 19 21  2  0  0  0  0
 19 39  1  0  0  0  0
 20 47  1  0  0  0  0
 21 40  1  0  0  0  0
 22 23  2  0  0  0  0
 22 59  1  0  0  0  0
 23 24  1  0  0  0  0
 23 50  1  0  0  0  0
 24 31  2  0  0  0  0
 24 58  1  0  0  0  0
 25 88  1  0  0  0  0
 26 89  1  0  0  0  0
 27 29  2  0  0  0  0
 27 88  1  0  0  0  0
 28 90  1  0  0  0  0
 29 91  1  0  0  0  0
 30 72  2  0  0  0  0
 31 60  1  0  0  0  0
 31 71  1  0  0  0  0
 32 73  1  0  0  0  0
 32 76  1  0  0  0  0
 33 77  1  0  0  0  0
 33 83  2  0  0  0  0
 34 48  1  0  0  0  0
 34 78  1  0  0  0  0
 34 84  2  0  0  0  0
 35 68  1  0  0  0  0
 35 74  1  0  0  0  0
 35 85  2  0  0  0  0
 36 69  1  0  0  0  0
 36 79  1  0  0  0  0
 36 86  2  0  0  0  0
 37 75  1  0  0  0  0
 37 80  1  0  0  0  0
 37 87  2  0  0  0  0
 38 41  1  0  0  0  0
 39 48  1  0  0  0  0
 40 74  1  0  0  0  0
 41 43  1  0  0  0  0
 42 44  1  0  0  0  0
 42 45  1  0  0  0  0
 43 47  1  0  0  0  0
 44 49  1  0  0  0  0
 45 75  1  0  0  0  0
 46 49  1  0  0  0  0
 46 75  1  0  0  0  0
 47 78  1  0  0  0  0
 48 74  1  0  0  0  0
 49 73  1  0  0  0  0
 51 69  1  0  0  0  0
 52 70  1  0  0  0  0
 53 70  1  0  0  0  0
 54 70  1  0  0  0  0
 55 81  1  0  0  0  0
 56 82  1  0  0  0  0
 57 82  1  0  0  0  0
 58 61  1  0  0  0  0
 59 80  1  0  0  0  0
 60 62  1  0  0  0  0
 61 66  1  0  0  0  0
 62 63  1  0  0  0  0
 63 64  1  0  0  0  0
 64 65  1  0  0  0  0
 65 67  1  0  0  0  0
 66 82  1  0  0  0  0
 67 89  1  0  0  0  0
 68 70  1  0  0  0  0
 68 79  1  0  0  0  0
 69 81  1  0  0  0  0
 72 73  1  0  0  0  0
M  CHG  2  81   1  82   1
M  ISO  4  37 100  67 101  80 100  89 101
M  END
> <Batch ID>
0090

> <Smiles>
CNC(C)C(=O)NC(C(=O)N1Cc2cc([101O:1][101CH2:1]CCCCCc3ncc(C[100NH:0][100C:0](=O)N4CCCC(n5nc(-c6ccc(Oc7ccc(F)cc7F)cc6)c(C(N)=O)c5N)C4)c(C)c3CCCN(C)C)ccc2CC1C(=O)NC1CCCc2ccccc21)C(C)(C)C

> <Shape>
0.201

> <Color>
0.122

> <Negative vol penalty>
0.000

$$$$

  -OEChem-04052319093D

 83 91  0     1  0  0  0  0  0999 V2000
  -18.2934  -24.5674   21.1898 C   0  0  0  0  0  0  0  0  0  0  0  0
  -19.6360  -24.5553   20.8255 C   0  0  0  0  0  0  0  0  0  0  0  0
  -26.2999  -13.6127   21.7267 C   0  0  0  0  0  0  0  0  0  0  0  0
  -25.2381  -13.1871   19.5986 C   0  0  0  0  0  0  0  0  0  0  0  0
  -17.7930  -25.6102   21.9684 C   0  0  0  0  0  0  0  0  0  0  0  0
  -20.4787  -25.5866   21.2387 C   0  0  0  0  0  0  0  0  0  0  0  0
  -24.9229  -23.8873   22.9726 C   0  0  0  0  0  0  0  0  0  0  0  0
  -26.1155  -12.2776   22.0858 C   0  0  0  0  0  0  0  0  0  0  0  0
  -25.0538  -11.8519   19.9577 C   0  0  0  0  0  0  0  0  0  0  0  0
  -25.8707  -23.5020   22.0255 C   0  0  0  0  0  0  0  0  0  0  0  0
  -23.9801   -8.4156   20.4567 C   0  0  0  0  0  0  0  0  0  0  0  0
  -22.7354   -7.8410   20.1997 C   0  0  0  0  0  0  0  0  0  0  0  0
  -26.9941  -25.6194   22.2972 C   0  0  0  0  0  0  0  0  0  0  0  0
  -21.6827   -9.4841   21.6242 C   0  0  0  0  0  0  0  0  0  0  0  0
  -25.8611  -14.0675   20.4831 C   0  0  0  0  0  0  0  0  0  0  0  0
  -27.1598  -16.0034   19.4470 C   0  0  0  0  0  0  0  0  0  0  0  0
  -18.6321  -26.6498   22.3993 C   0  0  0  0  0  0  0  0  0  0  0  0
  -24.9975  -25.1479   23.5822 C   0  0  0  0  0  0  0  0  0  0  0  0
  -19.9887  -26.6449   22.0226 C   0  0  0  0  0  0  0  0  0  0  0  0
  -26.0475  -26.0172   23.2536 C   0  0  0  0  0  0  0  0  0  0  0  0
  -25.4925  -11.3971   21.2013 C   0  0  0  0  0  0  0  0  0  0  0  0
  -26.9048  -24.3692   21.6855 C   0  0  0  0  0  0  0  0  0  0  0  0
  -24.0762   -9.5244   21.2976 C   0  0  0  0  0  0  0  0  0  0  0  0
  -21.5867   -8.3753   20.7834 C   0  0  0  0  0  0  0  0  0  0  0  0
  -22.9275  -10.0586   21.8813 C   0  0  0  0  0  0  0  0  0  0  0  0
  -26.0508  -15.4467   20.1118 C   0  0  0  0  0  0  0  0  0  0  0  0
  -27.8464  -23.6219   16.9460 C   0  0  0  0  0  0  0  0  0  0  0  0
  -28.7019  -23.5176   18.0228 C   0  0  0  0  0  0  0  0  0  0  0  0
  -26.8561  -17.3378   19.3306 C   0  0  0  0  0  0  0  0  0  0  0  0
  -29.0719  -25.4009   16.5671 C   0  0  0  0  0  0  0  0  0  0  0  0
  -28.3573  -15.3707   18.9765 C   0  0  0  0  0  0  0  0  0  0  0  0
  -23.1170  -27.7089   23.6763 C   0  0  0  0  0  0  0  0  0  0  0  0
  -25.3180  -28.7647   25.8125 C   0  0  0  0  0  0  0  0  0  0  0  0
  -28.5141  -28.6041   26.9983 C   0  0  0  0  0  0  0  0  0  0  0  0
  -23.2383  -21.4211   18.1544 C   0  0  0  0  0  0  0  0  0  0  0  0
  -18.0351  -27.7800   23.1999 C   0  0  0  0  0  0  0  0  0  0  0  0
  -23.9827  -25.5379   24.6216 C   0  0  0  0  0  0  0  0  0  0  0  0
  -26.1840  -27.3736   23.8941 C   0  0  0  0  0  0  0  0  0  0  0  0
  -19.0772  -28.6399   23.9104 C   0  0  0  0  0  0  0  0  0  0  0  0
  -23.1637  -20.0708   21.4480 C   0  0  0  0  0  0  0  0  0  0  0  0
  -20.2159  -28.9938   22.9590 C   0  0  0  0  0  0  0  0  0  0  0  0
  -23.9940  -18.7908   21.3374 C   0  0  0  0  0  0  0  0  0  0  0  0
  -22.3423  -20.3215   20.1852 C   0  0  0  0  0  0  0  0  0  0  0  0
  -23.9495  -19.0449   18.8210 C   0  0  0  0  0  0  0  0  0  0  0  0
  -20.9399  -27.7328   22.4720 C   0  0  1  0  0  0  0  0  0  0  0  0
  -23.8617  -27.0480   24.8016 C   0  0  1  0  0  0  0  0  0  0  0  0
  -24.8377  -18.7793   20.0485 C   0  0  2  0  0  0  0  0  0  0  0  0
  -30.4411  -26.3488   14.6928 C   0  0  0  0  0  0  0  0  0  0  0  0
  -30.0269  -29.6143   28.7269 C   0  0  0  0  0  0  0  0  0  0  0  0
  -25.5832  -31.2805   24.1065 C   0  0  0  0  0  0  0  0  0  0  0  0
  -27.7196  -31.7870   25.3097 C   0  0  0  0  0  0  0  0  0  0  0  0
  -25.5712  -31.6895   26.5737 C   0  0  0  0  0  0  0  0  0  0  0  0
  -28.9394  -25.9910   28.3211 C   0  0  0  0  0  0  0  0  0  0  0  0
  -26.7427  -22.6956   16.6201 C   0  0  0  0  0  0  0  0  0  0  0  0
  -28.7600  -22.4849   19.1221 C   0  0  0  0  0  0  0  0  0  0  0  0
  -29.5916  -26.6329   15.9346 C   0  0  0  0  0  0  0  0  0  0  0  0
  -25.3530  -23.3612   16.4786 C   0  0  0  0  0  0  0  0  0  0  0  0
  -24.2340  -22.3935   16.0995 C   0  0  0  0  0  0  0  0  0  0  0  0
  -27.6823  -22.7015   20.1787 C   0  0  0  0  0  0  0  0  0  1  0  0
  -26.6066  -29.5460   25.7221 C   0  0  1  0  0  0  0  0  0  0  0  0
  -29.0599  -28.4842   28.4097 C   0  0  2  0  0  0  0  0  0  0  0  0
  -26.3667  -31.0510   25.4143 C   0  0  0  0  0  0  0  0  0  0  0  0
  -25.1127  -16.3535   20.3980 N   0  0  0  0  0  0  0  0  0  0  0  0
  -28.0568  -24.7014   16.1105 N   0  0  0  0  0  0  0  0  0  0  0  0
  -25.6315  -17.4934   19.9106 N   0  0  0  0  0  0  0  0  0  0  0  0
  -25.1634  -27.7115   24.8999 N   0  0  0  0  0  0  0  0  0  0  0  0
  -23.2018  -20.2995   18.9992 N   0  0  0  0  0  0  0  0  0  0  0  0
  -27.5198  -18.3816   18.7899 N   0  0  0  0  0  0  0  0  0  0  0  0
  -28.5080  -13.9919   19.1780 N   0  0  0  0  0  0  0  0  0  0  0  0
  -21.8317  -27.2343   23.4970 N   0  0  0  0  0  0  0  0  0  0  0  0
  -27.3227  -29.2977   26.9686 N   0  0  0  0  0  0  0  0  0  0  0  0
  -24.0837  -21.3198   17.0563 N   0  0  0  0  0  0  0  0  0  0  0  0
  -29.7783  -27.1896   28.5791 N   0  3  0  0  0  0  0  0  0  0  0  0
  -29.2741  -16.0121   18.4094 O   0  0  0  0  0  0  0  0  0  0  0  0
  -23.6673  -28.5855   23.0202 O   0  0  0  0  0  0  0  0  0  0  0  0
  -24.4826  -29.0728   26.6661 O   0  0  0  0  0  0  0  0  0  0  0  0
  -29.0890  -28.1329   26.0195 O   0  0  0  0  0  0  0  0  0  0  0  0
  -22.5713  -22.4395   18.3661 O   0  0  0  0  0  0  0  0  0  0  0  0
  -25.3126  -10.0942   21.5512 O   0  0  0  0  0  0  0  0  0  0  0  0
  -27.8308  -23.9959   20.7609 O   0  0  0  0  0  0  0  0  0  1  0  0
  -20.3913   -7.8243   20.5352 F   0  0  0  0  0  0  0  0  0  0  0  0
  -23.0134  -11.1245   22.6890 F   0  0  0  0  0  0  0  0  0  0  0  0
  -29.8204  -24.8175   17.9970 S   0  0  0  0  0  0  0  0  0  0  0  0
  1  2  1  0  0  0  0
  1  5  2  0  0  0  0
  2  6  2  0  0  0  0
  3  8  2  0  0  0  0
  3 15  1  0  0  0  0
  4  9  1  0  0  0  0
  4 15  2  0  0  0  0
  5 17  1  0  0  0  0
  6 19  1  0  0  0  0
  7 10  2  0  0  0  0
  7 18  1  0  0  0  0
  8 21  1  0  0  0  0
  9 21  2  0  0  0  0
 10 22  1  0  0  0  0
 11 12  2  0  0  0  0
 11 23  1  0  0  0  0
 12 24  1  0  0  0  0
 13 20  1  0  0  0  0
 13 22  2  0  0  0  0
 14 24  2  0  0  0  0
 14 25  1  0  0  0  0
 15 26  1  0  0  0  0
 16 26  1  0  0  0  0
 16 29  2  0  0  0  0
 16 31  1  0  0  0  0
 17 19  2  0  0  0  0
 17 36  1  0  0  0  0
 18 20  2  0  0  0  0
 18 37  1  0  0  0  0
 19 45  1  0  0  0  0
 20 38  1  0  0  0  0
 21 79  1  0  0  0  0
 22 80  1  0  0  0  0
 23 25  2  0  0  0  0
 23 79  1  0  0  0  0
 24 81  1  0  0  0  0
 25 82  1  0  0  0  0
 26 63  2  0  0  0  0
 27 28  2  0  0  0  0
 27 54  1  0  0  0  0
 27 64  1  0  0  0  0
 28 55  1  0  0  0  0
 28 83  1  0  0  0  0
 29 65  1  0  0  0  0
 29 68  1  0  0  0  0
 30 56  1  0  0  0  0
 30 64  2  0  0  0  0
 30 83  1  0  0  0  0
 31 69  1  0  0  0  0
 31 74  2  0  0  0  0
 32 46  1  0  0  0  0
 32 70  1  0  0  0  0
 32 75  2  0  0  0  0
 33 60  1  0  0  0  0
 33 66  1  0  0  0  0
 33 76  2  0  0  0  0
 34 61  1  0  0  0  0
 34 71  1  0  0  0  0
 34 77  2  0  0  0  0
 35 67  1  0  0  0  0
 35 72  1  0  0  0  0
 35 78  2  0  0  0  0
 36 39  1  0  0  0  0
 37 46  1  0  0  0  0
 38 66  1  0  0  0  0
 39 41  1  0  0  0  0
 40 42  1  0  0  0  0
 40 43  1  0  0  0  0
 41 45  1  0  0  0  0
 42 47  1  0  0  0  0
 43 67  1  0  0  0  0
 44 47  1  0  0  0  0
 44 67  1  0  0  0  0
 45 70  1  0  0  0  0
 46 66  1  0  0  0  0
 47 65  1  0  0  0  0
 48 56  1  0  0  0  0
 49 61  1  0  0  0  0
 50 62  1  0  0  0  0
 51 62  1  0  0  0  0
 52 62  1  0  0  0  0
 53 73  1  0  0  0  0
 54 57  1  0  0  0  0
 55 59  1  0  0  0  0
 57 58  1  0  0  0  0
 58 72  1  0  0  0  0
 59 80  1  0  0  0  0
 60 62  1  0  0  0  0
 60 71  1  0  0  0  0
 61 73  1  0  0  0  0
 63 65  1  0  0  0  0
M  CHG  1  73   1
M  ISO  4  35 100  59 101  72 100  80 101
M  END
> <Batch ID>
0090

> <Smiles>
CCc1nc(CCC[100NH:0][100C:0](=O)N2CCCC(n3nc(-c4ccc(Oc5ccc(F)cc5F)cc4)c(C(N)=O)c3N)C2)c(C[101CH2:1][101O:1]c2ccc3c(c2)CN(C(=O)C(NC(=O)C(C)NC)C(C)(C)C)C(C(=O)NC2CCCc4ccccc42)C3)s1

> <Shape>
0.200

> <Color>
0.088

> <Negative vol penalty>
0.000

$$$$

  -OEChem-04052319093D

 86 94  0     1  0  0  0  0  0999 V2000
  -31.5626  -25.4761   18.4886 C   0  0  0  0  0  0  0  0  0  0  0  0
  -30.7118  -24.8970   19.4246 C   0  0  0  0  0  0  0  0  0  0  0  0
  -24.2678  -12.1492   19.4823 C   0  0  0  0  0  0  0  0  0  0  0  0
  -25.4883  -12.1234   21.5672 C   0  0  0  0  0  0  0  0  0  0  0  0
  -31.5840  -26.8612   18.3304 C   0  0  0  0  0  0  0  0  0  0  0  0
  -29.8825  -25.7029   20.2039 C   0  0  0  0  0  0  0  0  0  0  0  0
  -25.1603  -23.9010   20.5183 C   0  0  0  0  0  0  0  0  0  0  0  0
  -24.4749  -10.7767   19.3441 C   0  0  0  0  0  0  0  0  0  0  0  0
  -25.6953  -10.7510   21.4291 C   0  0  0  0  0  0  0  0  0  0  0  0
  -24.9409  -22.8396   21.3953 C   0  0  0  0  0  0  0  0  0  0  0  0
  -23.9337   -7.9072   21.9087 C   0  0  0  0  0  0  0  0  0  0  0  0
  -23.7272   -7.1059   23.0316 C   0  0  0  0  0  0  0  0  0  0  0  0
  -24.0666  -24.3808   23.0322 C   0  0  0  0  0  0  0  0  0  0  0  0
  -26.0275   -6.3738   22.9321 C   0  0  0  0  0  0  0  0  0  0  0  0
  -28.2619  -20.9302   24.9652 C   0  0  0  0  0  0  0  0  0  0  0  0
  -24.7746  -12.8226   20.5938 C   0  0  0  0  0  0  0  0  0  0  0  0
  -23.4816  -14.8774   21.3771 C   0  0  0  0  0  0  0  0  0  0  0  0
  -30.7475  -27.6838   19.1013 C   0  0  0  0  0  0  0  0  0  0  0  0
  -24.8441  -25.2138   20.8964 C   0  0  0  0  0  0  0  0  0  0  0  0
  -29.8936  -27.1004   20.0568 C   0  0  0  0  0  0  0  0  0  0  0  0
  -24.2806  -25.4568   22.1572 C   0  0  0  0  0  0  0  0  0  0  0  0
  -25.1886  -10.0776   20.3175 C   0  0  0  0  0  0  0  0  0  0  0  0
  -24.3967  -23.0798   22.6535 C   0  0  0  0  0  0  0  0  0  0  0  0
  -25.1870   -7.9417   21.2974 C   0  0  0  0  0  0  0  0  0  0  0  0
  -24.7741   -6.3392   23.5433 C   0  0  0  0  0  0  0  0  0  0  0  0
  -26.2339   -7.1751   21.8091 C   0  0  0  0  0  0  0  0  0  0  0  0
  -24.5615  -14.2404   20.7369 C   0  0  0  0  0  0  0  0  0  0  0  0
  -28.4186  -19.6496   24.4825 C   0  0  0  0  0  0  0  0  0  0  0  0
  -26.0229  -20.5535   25.2380 C   0  0  0  0  0  0  0  0  0  0  0  0
  -26.1793  -19.2731   24.7546 C   0  0  0  0  0  0  0  0  0  0  0  0
  -23.7444  -16.2187   21.2408 C   0  0  0  0  0  0  0  0  0  0  0  0
  -22.3429  -14.3078   22.0361 C   0  0  0  0  0  0  0  0  0  0  0  0
  -26.5048  -27.8944   21.2971 C   0  0  0  0  0  0  0  0  0  0  0  0
  -23.5638  -29.1902   21.7372 C   0  0  0  0  0  0  0  0  0  0  0  0
  -20.2959  -28.7306   22.6072 C   0  0  0  0  0  0  0  0  0  0  0  0
  -28.8044  -19.3235   20.4611 C   0  0  0  0  0  0  0  0  0  0  0  0
  -30.8400  -29.1791   18.9280 C   0  0  0  0  0  0  0  0  0  0  0  0
  -25.0620  -26.3445   19.9287 C   0  0  0  0  0  0  0  0  0  0  0  0
  -23.9050  -26.8453   22.6036 C   0  0  0  0  0  0  0  0  0  0  0  0
  -29.6590  -29.9362   19.5298 C   0  0  0  0  0  0  0  0  0  0  0  0
  -25.9420  -19.3282   18.3438 C   0  0  0  0  0  0  0  0  0  0  0  0
  -29.3539  -29.4214   20.9329 C   0  0  0  0  0  0  0  0  0  0  0  0
  -25.1662  -18.0823   18.7748 C   0  0  0  0  0  0  0  0  0  0  0  0
  -27.4510  -19.1003   18.3984 C   0  0  0  0  0  0  0  0  0  0  0  0
  -27.1807  -17.3622   20.1245 C   0  0  0  0  0  0  0  0  0  0  0  0
  -28.9611  -27.9394   20.9035 C   0  0  1  0  0  0  0  0  0  0  0  0
  -25.1805  -27.7026   20.6135 C   0  0  1  0  0  0  0  0  0  0  0  0
  -25.6554  -17.5612   20.1395 C   0  0  2  0  0  0  0  0  0  0  0  0
  -22.0001  -15.0186   27.0057 C   0  0  0  0  0  0  0  0  0  0  0  0
  -18.1429  -29.9837   22.9094 C   0  0  0  0  0  0  0  0  0  0  0  0
  -24.5925  -30.3155   24.3802 C   0  0  0  0  0  0  0  0  0  0  0  0
  -22.2150  -30.7148   25.0554 C   0  0  0  0  0  0  0  0  0  0  0  0
  -23.1580  -31.8864   23.0653 C   0  0  0  0  0  0  0  0  0  0  0  0
  -18.9391  -27.1352   20.5161 C   0  0  0  0  0  0  0  0  0  0  0  0
  -29.7605  -19.1584   24.0657 C   0  0  0  0  0  0  0  0  0  0  0  0
  -24.6724  -21.0733   25.6672 C   0  0  0  0  0  0  0  0  0  0  0  0
  -25.0221  -18.3416   24.6331 C   0  0  0  0  0  0  0  0  0  0  0  0
  -23.1062  -16.0510   27.1551 C   0  0  0  0  0  0  0  0  0  0  0  0
  -24.6075  -17.6954   25.9621 C   0  0  0  0  0  0  0  0  0  0  0  0
  -23.4662  -16.6847   25.8107 C   0  0  0  0  0  0  0  0  0  0  0  0
  -30.0807  -19.4174   22.5875 C   0  0  0  0  0  0  0  0  0  0  0  0
  -24.2670  -22.3315   24.9073 C   0  0  0  0  0  0  0  0  0  1  0  0
  -22.6600  -29.4116   22.9260 C   0  0  1  0  0  0  0  0  0  0  0  0
  -19.0050  -29.1810   21.9476 C   0  0  2  0  0  0  0  0  0  0  0  0
  -23.1651  -30.5560   23.8493 C   0  0  0  0  0  0  0  0  0  0  0  0
  -27.0613  -21.4051   25.3516 N   0  0  0  0  0  0  0  0  0  0  0  0
  -25.4445  -15.1057   20.2313 N   0  0  0  0  0  0  0  0  0  0  0  0
  -27.3800  -18.7981   24.3685 N   0  0  0  0  0  0  0  0  0  0  0  0
  -24.9198  -16.3002   20.5537 N   0  0  0  0  0  0  0  0  0  0  0  0
  -24.1431  -27.9184   21.6242 N   0  0  0  0  0  0  0  0  0  0  0  0
  -27.8499  -18.6083   19.7193 N   0  0  0  0  0  0  0  0  0  0  0  0
  -23.0825  -17.3244   21.6427 N   0  0  0  0  0  0  0  0  0  0  0  0
  -22.2283  -12.9118   22.0851 N   0  0  0  0  0  0  0  0  0  0  0  0
  -27.5940  -27.7877   20.4536 N   0  0  0  0  0  0  0  0  0  0  0  0
  -21.3214  -29.6256   22.3869 N   0  0  0  0  0  0  0  0  0  0  0  0
  -29.1210  -18.7918   21.7053 N   0  0  0  0  0  0  0  0  0  0  0  0
  -18.2203  -28.0012   21.4857 N   0  3  0  0  0  0  0  0  0  0  0  0
  -21.4449  -15.0159   22.5516 O   0  0  0  0  0  0  0  0  0  0  0  0
  -26.5359  -28.1237   22.5005 O   0  0  0  0  0  0  0  0  0  0  0  0
  -23.7432  -30.1094   20.9344 O   0  0  0  0  0  0  0  0  0  0  0  0
  -20.3847  -27.6907   23.2564 O   0  0  0  0  0  0  0  0  0  0  0  0
  -29.3313  -20.3620   20.0478 O   0  0  0  0  0  0  0  0  0  0  0  0
  -25.3906   -8.7383   20.1831 O   0  0  0  0  0  0  0  0  0  0  0  0
  -24.1821  -22.0457   23.5117 O   0  0  0  0  0  0  0  0  0  1  0  0
  -24.5761   -5.5710   24.6226 F   0  0  0  0  0  0  0  0  0  0  0  0
  -27.4406   -7.2051   21.2269 F   0  0  0  0  0  0  0  0  0  0  0  0
  1  2  1  0  0  0  0
  1  5  2  0  0  0  0
  2  6  2  0  0  0  0
  3  8  2  0  0  0  0
  3 16  1  0  0  0  0
  4  9  1  0  0  0  0
  4 16  2  0  0  0  0
  5 18  1  0  0  0  0
  6 20  1  0  0  0  0
  7 10  2  0  0  0  0
  7 19  1  0  0  0  0
  8 22  1  0  0  0  0
  9 22  2  0  0  0  0
 10 23  1  0  0  0  0
 11 12  2  0  0  0  0
 11 24  1  0  0  0  0
 12 25  1  0  0  0  0
 13 21  1  0  0  0  0
 13 23  2  0  0  0  0
 14 25  2  0  0  0  0
 14 26  1  0  0  0  0
 15 28  1  0  0  0  0
 15 66  2  0  0  0  0
 16 27  1  0  0  0  0
 17 27  1  0  0  0  0
 17 31  2  0  0  0  0
 17 32  1  0  0  0  0
 18 20  2  0  0  0  0
 18 37  1  0  0  0  0
 19 21  2  0  0  0  0
 19 38  1  0  0  0  0
 20 46  1  0  0  0  0
 21 39  1  0  0  0  0
 22 83  1  0  0  0  0
 23 84  1  0  0  0  0
 24 26  2  0  0  0  0
 24 83  1  0  0  0  0
 25 85  1  0  0  0  0
 26 86  1  0  0  0  0
 27 67  2  0  0  0  0
 28 55  1  0  0  0  0
 28 68  2  0  0  0  0
 29 30  2  0  0  0  0
 29 56  1  0  0  0  0
 29 66  1  0  0  0  0
 30 57  1  0  0  0  0
 30 68  1  0  0  0  0
 31 69  1  0  0  0  0
 31 72  1  0  0  0  0
 32 73  1  0  0  0  0
 32 78  2  0  0  0  0
 33 47  1  0  0  0  0
 33 74  1  0  0  0  0
 33 79  2  0  0  0  0
 34 63  1  0  0  0  0
 34 70  1  0  0  0  0
 34 80  2  0  0  0  0
 35 64  1  0  0  0  0
 35 75  1  0  0  0  0
 35 81  2  0  0  0  0
 36 71  1  0  0  0  0
 36 76  1  0  0  0  0
 36 82  2  0  0  0  0
 37 40  1  0  0  0  0
 38 47  1  0  0  0  0
 39 70  1  0  0  0  0
 40 42  1  0  0  0  0
 41 43  1  0  0  0  0
 41 44  1  0  0  0  0
 42 46  1  0  0  0  0
 43 48  1  0  0  0  0
 44 71  1  0  0  0  0
 45 48  1  0  0  0  0
 45 71  1  0  0  0  0
 46 74  1  0  0  0  0
 47 70  1  0  0  0  0
 48 69  1  0  0  0  0
 49 58  1  0  0  0  0
 50 64  1  0  0  0  0
 51 65  1  0  0  0  0
 52 65  1  0  0  0  0
 53 65  1  0  0  0  0
 54 77  1  0  0  0  0
 55 61  1  0  0  0  0
 56 62  1  0  0  0  0
 57 59  1  0  0  0  0
 58 60  1  0  0  0  0
 59 60  1  0  0  0  0
 61 76  1  0  0  0  0
 62 84  1  0  0  0  0
 63 65  1  0  0  0  0
 63 75  1  0  0  0  0
 64 77  1  0  0  0  0
 67 69  1  0  0  0  0
M  CHG  1  77   1
M  ISO  4  36 100  62 101  76 100  84 101
M  END
> <Batch ID>
0090

> <Smiles>
CCCCCc1nc(CC[100NH:0][100C:0](=O)N2CCCC(n3nc(-c4ccc(Oc5ccc(F)cc5F)cc4)c(C(N)=O)c3N)C2)cnc1C[101CH2:1][101O:1]c1ccc2c(c1)CN(C(=O)C(NC(=O)C(C)NC)C(C)(C)C)C(C(=O)NC1CCCc3ccccc31)C2

> <Shape>
0.216

> <Color>
0.075

> <Negative vol penalty>
0.000

$$$$

  -OEChem-04052319093D

 86 94  0     1  0  0  0  0  0999 V2000
  -21.3458  -30.7063   16.1576 C   0  0  0  0  0  0  0  0  0  0  0  0
  -22.2962  -29.7037   15.9936 C   0  0  0  0  0  0  0  0  0  0  0  0
  -23.0679   -9.9320   19.9218 C   0  0  0  0  0  0  0  0  0  0  0  0
  -23.8533   -9.8881   22.2062 C   0  0  0  0  0  0  0  0  0  0  0  0
  -21.2824  -31.4157   17.3562 C   0  0  0  0  0  0  0  0  0  0  0  0
  -23.1845  -29.4107   17.0278 C   0  0  0  0  0  0  0  0  0  0  0  0
  -25.4400  -23.9094   18.4956 C   0  0  0  0  0  0  0  0  0  0  0  0
  -22.3203   -8.7781   20.1566 C   0  0  0  0  0  0  0  0  0  0  0  0
  -23.1056   -8.7342   22.4410 C   0  0  0  0  0  0  0  0  0  0  0  0
  -26.6516  -23.2842   18.2042 C   0  0  0  0  0  0  0  0  0  0  0  0
  -19.8799   -7.9419   23.0634 C   0  0  0  0  0  0  0  0  0  0  0  0
  -19.1358   -7.8822   24.2416 C   0  0  0  0  0  0  0  0  0  0  0  0
  -27.5308  -24.0102   20.3299 C   0  0  0  0  0  0  0  0  0  0  0  0
  -27.3158  -19.5886   19.9360 C   0  0  0  0  0  0  0  0  0  0  0  0
  -20.3743   -5.9234   24.9246 C   0  0  0  0  0  0  0  0  0  0  0  0
  -23.8344  -10.4870   20.9466 C   0  0  0  0  0  0  0  0  0  0  0  0
  -24.1893  -13.0122   20.8741 C   0  0  0  0  0  0  0  0  0  0  0  0
  -22.1640  -31.1247   18.4091 C   0  0  0  0  0  0  0  0  0  0  0  0
  -25.2682  -24.6002   19.7038 C   0  0  0  0  0  0  0  0  0  0  0  0
  -23.1337  -30.1178   18.2411 C   0  0  0  0  0  0  0  0  0  0  0  0
  -26.3153  -24.6412   20.6355 C   0  0  0  0  0  0  0  0  0  0  0  0
  -28.6721  -19.2828   19.9544 C   0  0  0  0  0  0  0  0  0  0  0  0
  -26.4684  -19.0228   20.8820 C   0  0  0  0  0  0  0  0  0  0  0  0
  -22.3392   -8.1792   21.4162 C   0  0  0  0  0  0  0  0  0  0  0  0
  -27.6982  -23.3370   19.1201 C   0  0  0  0  0  0  0  0  0  0  0  0
  -20.8712   -6.9922   22.8156 C   0  0  0  0  0  0  0  0  0  0  0  0
  -19.3830   -6.8730   25.1723 C   0  0  0  0  0  0  0  0  0  0  0  0
  -21.1184   -5.9830   23.7463 C   0  0  0  0  0  0  0  0  0  0  0  0
  -24.6074  -11.6787   20.7045 C   0  0  0  0  0  0  0  0  0  0  0  0
  -29.1275  -18.4125   20.9316 C   0  0  0  0  0  0  0  0  0  0  0  0
  -27.0224  -18.1640   21.8176 C   0  0  0  0  0  0  0  0  0  0  0  0
  -25.2815  -13.7629   20.5139 C   0  0  0  0  0  0  0  0  0  0  0  0
  -22.9265  -13.5263   21.3176 C   0  0  0  0  0  0  0  0  0  0  0  0
  -24.6566  -27.6174   20.4953 C   0  0  0  0  0  0  0  0  0  0  0  0
  -24.4555  -26.3825   23.4881 C   0  0  0  0  0  0  0  0  0  0  0  0
  -25.3194  -23.8964   25.6605 C   0  0  0  0  0  0  0  0  0  0  0  0
  -30.7728  -14.7480   20.6613 C   0  0  0  0  0  0  0  0  0  0  0  0
  -22.0881  -31.9506   19.6688 C   0  0  0  0  0  0  0  0  0  0  0  0
  -23.9461  -25.2467   20.0148 C   0  0  0  0  0  0  0  0  0  0  0  0
  -26.1748  -25.3526   21.9556 C   0  0  0  0  0  0  0  0  0  0  0  0
  -22.8208  -31.3246   20.8527 C   0  0  0  0  0  0  0  0  0  0  0  0
  -29.5952  -12.4189   18.2395 C   0  0  0  0  0  0  0  0  0  0  0  0
  -24.2028  -30.8379   20.4284 C   0  0  0  0  0  0  0  0  0  0  0  0
  -28.1610  -12.1243   18.6825 C   0  0  0  0  0  0  0  0  0  0  0  0
  -30.5268  -12.6102   19.4342 C   0  0  0  0  0  0  0  0  0  0  0  0
  -28.6448  -13.3232   20.8567 C   0  0  0  0  0  0  0  0  0  0  0  0
  -24.0984  -29.7539   19.3487 C   0  0  1  0  0  0  0  0  0  0  0  0
  -24.0545  -26.3589   21.0533 C   0  0  1  0  0  0  0  0  0  0  0  0
  -27.6566  -13.1780   19.6867 C   0  0  2  0  0  0  0  0  0  0  0  0
  -26.1595  -17.5285   22.8581 C   0  0  0  0  0  0  0  0  0  0  0  0
  -24.3214  -18.8929   19.5678 C   0  0  0  0  0  0  0  0  0  0  0  0
  -24.7396  -20.8431   21.1095 C   0  0  0  0  0  0  0  0  0  0  0  0
  -25.0356  -23.1808   28.0490 C   0  0  0  0  0  0  0  0  0  0  0  0
  -26.4900  -28.4839   24.3568 C   0  0  0  0  0  0  0  0  0  0  0  0
  -26.8730  -27.1507   26.4410 C   0  0  0  0  0  0  0  0  0  0  0  0
  -24.6190  -28.1121   25.9741 C   0  0  0  0  0  0  0  0  0  0  0  0
  -23.9638  -21.3874   24.8693 C   0  0  0  0  0  0  0  0  0  0  0  0
  -29.5964  -19.8932   18.9313 C   0  0  0  0  0  0  0  0  0  0  0  0
  -30.5740  -18.0465   20.9997 C   0  0  0  0  0  0  0  0  0  0  0  0
  -30.4552  -21.0345   19.4804 C   0  0  0  0  0  0  0  0  0  0  0  0
  -30.8646  -16.8725   21.9408 C   0  0  0  0  0  0  0  0  0  0  0  0
  -29.6390  -22.2358   19.9428 C   0  0  0  0  0  0  0  0  0  1  0  0
  -25.0142  -19.3461   20.8676 C   0  0  0  0  0  0  0  0  0  0  0  0
  -25.4326  -26.1426   24.6135 C   0  0  1  0  0  0  0  0  0  0  0  0
  -24.4915  -23.0756   26.6328 C   0  0  2  0  0  0  0  0  0  0  0  0
  -25.8573  -27.4605   25.3207 C   0  0  0  0  0  0  0  0  0  0  0  0
  -25.8669  -11.5845   20.2702 N   0  0  0  0  0  0  0  0  0  0  0  0
  -28.3348  -17.8432   21.8670 N   0  0  0  0  0  0  0  0  0  0  0  0
  -26.2497  -12.8683   20.1637 N   0  0  0  0  0  0  0  0  0  0  0  0
  -24.8650  -25.9746   22.2107 N   0  0  0  0  0  0  0  0  0  0  0  0
  -29.9920  -13.6234   20.3471 N   0  0  0  0  0  0  0  0  0  0  0  0
  -25.4987  -15.0945   20.4656 N   0  0  0  0  0  0  0  0  0  0  0  0
  -21.9132  -12.6159   21.6477 N   0  0  0  0  0  0  0  0  0  0  0  0
  -23.7346  -28.4844   19.9407 N   0  0  0  0  0  0  0  0  0  0  0  0
  -24.8057  -25.1655   25.4971 N   0  0  0  0  0  0  0  0  0  0  0  0
  -30.1883  -15.6627   21.5287 N   0  0  0  0  0  0  0  0  0  0  0  0
  -24.4957  -21.6399   26.2332 N   0  3  0  0  0  0  0  0  0  0  0  0
  -22.6979  -14.7567   21.4026 O   0  0  0  0  0  0  0  0  0  0  0  0
  -25.8679  -27.7897   20.5641 O   0  0  0  0  0  0  0  0  0  0  0  0
  -23.3660  -26.9059   23.7345 O   0  0  0  0  0  0  0  0  0  0  0  0
  -26.3236  -23.4570   25.1047 O   0  0  0  0  0  0  0  0  0  0  0  0
  -31.9046  -14.9265   20.1986 O   0  0  0  0  0  0  0  0  0  0  0  0
  -21.6096   -7.0533   21.6457 O   0  0  0  0  0  0  0  0  0  0  0  0
  -28.8820  -22.7281   18.8378 O   0  0  0  0  0  0  0  0  0  1  0  0
  -18.6694   -6.8167   26.3044 F   0  0  0  0  0  0  0  0  0  0  0  0
  -22.0702   -5.0687   23.5144 F   0  0  0  0  0  0  0  0  0  0  0  0
  1  2  1  0  0  0  0
  1  5  2  0  0  0  0
  2  6  2  0  0  0  0
  3  8  2  0  0  0  0
  3 16  1  0  0  0  0
  4  9  1  0  0  0  0
  4 16  2  0  0  0  0
  5 18  1  0  0  0  0
  6 20  1  0  0  0  0
  7 10  2  0  0  0  0
  7 19  1  0  0  0  0
  8 24  1  0  0  0  0
  9 24  2  0  0  0  0
 10 25  1  0  0  0  0
 11 12  2  0  0  0  0
 11 26  1  0  0  0  0
 12 27  1  0  0  0  0
 13 21  1  0  0  0  0
 13 25  2  0  0  0  0
 14 22  1  0  0  0  0
 14 23  2  0  0  0  0
 15 27  2  0  0  0  0
 15 28  1  0  0  0  0
 16 29  1  0  0  0  0
 17 29  1  0  0  0  0
 17 32  2  0  0  0  0
 17 33  1  0  0  0  0
 18 20  2  0  0  0  0
 18 38  1  0  0  0  0
 19 21  2  0  0  0  0
 19 39  1  0  0  0  0
 20 47  1  0  0  0  0
 21 40  1  0  0  0  0
 22 30  2  0  0  0  0
 22 58  1  0  0  0  0
 23 31  1  0  0  0  0
 23 63  1  0  0  0  0
 24 83  1  0  0  0  0
 25 84  1  0  0  0  0
 26 28  2  0  0  0  0
 26 83  1  0  0  0  0
 27 85  1  0  0  0  0
 28 86  1  0  0  0  0
 29 67  2  0  0  0  0
 30 59  1  0  0  0  0
 30 68  1  0  0  0  0
 31 50  1  0  0  0  0
 31 68  2  0  0  0  0
 32 69  1  0  0  0  0
 32 72  1  0  0  0  0
 33 73  1  0  0  0  0
 33 78  2  0  0  0  0
 34 48  1  0  0  0  0
 34 74  1  0  0  0  0
 34 79  2  0  0  0  0
 35 64  1  0  0  0  0
 35 70  1  0  0  0  0
 35 80  2  0  0  0  0
 36 65  1  0  0  0  0
 36 75  1  0  0  0  0
 36 81  2  0  0  0  0
 37 71  1  0  0  0  0
 37 76  1  0  0  0  0
 37 82  2  0  0  0  0
 38 41  1  0  0  0  0
 39 48  1  0  0  0  0
 40 70  1  0  0  0  0
 41 43  1  0  0  0  0
 42 44  1  0  0  0  0
 42 45  1  0  0  0  0
 43 47  1  0  0  0  0
 44 49  1  0  0  0  0
 45 71  1  0  0  0  0
 46 49  1  0  0  0  0
 46 71  1  0  0  0  0
 47 74  1  0  0  0  0
 48 70  1  0  0  0  0
 49 69  1  0  0  0  0
 51 63  1  0  0  0  0
 52 63  1  0  0  0  0
 53 65  1  0  0  0  0
 54 66  1  0  0  0  0
 55 66  1  0  0  0  0
 56 66  1  0  0  0  0
 57 77  1  0  0  0  0
 58 60  1  0  0  0  0
 59 61  1  0  0  0  0
 60 62  1  0  0  0  0
 61 76  1  0  0  0  0
 62 84  1  0  0  0  0
 64 66  1  0  0  0  0
 64 75  1  0  0  0  0
 65 77  1  0  0  0  0
 67 69  1  0  0  0  0
M  CHG  1  77   1
M  ISO  4  37 100  62 101  76 100  84 101
M  END
> <Batch ID>
0090

> <Smiles>
CNC(C)C(=O)NC(C(=O)N1Cc2cc([101O:1][101CH2:1]CCc3cc(C(C)C)c(C)nc3CC[100NH:0][100C:0](=O)N3CCCC(n4nc(-c5ccc(Oc6ccc(F)cc6F)cc5)c(C(N)=O)c4N)C3)ccc2CC1C(=O)NC1CCCc2ccccc21)C(C)(C)C

> <Shape>
0.265

> <Color>
0.215

> <Negative vol penalty>
0.000

$$$$

  -OEChem-04052319093D

 83 91  0     1  0  0  0  0  0999 V2000
  -18.0916  -30.2338   23.8634 C   0  0  0  0  0  0  0  0  0  0  0  0
  -19.2418  -29.4617   23.9913 C   0  0  0  0  0  0  0  0  0  0  0  0
  -25.3143  -14.0666   21.0595 C   0  0  0  0  0  0  0  0  0  0  0  0
  -25.7735  -14.0581   18.6875 C   0  0  0  0  0  0  0  0  0  0  0  0
  -16.9306  -29.6708   23.3352 C   0  0  0  0  0  0  0  0  0  0  0  0
  -19.2312  -28.1257   23.5921 C   0  0  0  0  0  0  0  0  0  0  0  0
  -23.3399  -26.8662   20.9130 C   0  0  0  0  0  0  0  0  0  0  0  0
  -24.3681  -13.0576   20.8799 C   0  0  0  0  0  0  0  0  0  0  0  0
  -24.8274  -13.0490   18.5080 C   0  0  0  0  0  0  0  0  0  0  0  0
  -24.5176  -26.6371   21.6233 C   0  0  0  0  0  0  0  0  0  0  0  0
  -24.3550   -9.7060   20.4330 C   0  0  0  0  0  0  0  0  0  0  0  0
  -24.3705   -8.6361   21.3278 C   0  0  0  0  0  0  0  0  0  0  0  0
  -24.1416  -24.2594   21.4681 C   0  0  0  0  0  0  0  0  0  0  0  0
  -22.1075   -9.1594   21.9926 C   0  0  0  0  0  0  0  0  0  0  0  0
  -28.7037  -25.9160   19.0449 C   0  0  0  0  0  0  0  0  0  0  0  0
  -26.0169  -14.5669   19.9633 C   0  0  0  0  0  0  0  0  0  0  0  0
  -28.3672  -15.4504   20.4143 C   0  0  0  0  0  0  0  0  0  0  0  0
  -16.9086  -28.3299   22.9204 C   0  0  0  0  0  0  0  0  0  0  0  0
  -22.5473  -25.7920   20.4837 C   0  0  0  0  0  0  0  0  0  0  0  0
  -18.0684  -27.5439   23.0591 C   0  0  0  0  0  0  0  0  0  0  0  0
  -22.9557  -24.4774   20.7504 C   0  0  0  0  0  0  0  0  0  0  0  0
  -24.1247  -12.5488   19.6042 C   0  0  0  0  0  0  0  0  0  0  0  0
  -24.9171  -25.3337   21.9034 C   0  0  0  0  0  0  0  0  0  0  0  0
  -23.2158  -10.5027   20.3180 C   0  0  0  0  0  0  0  0  0  0  0  0
  -23.2468   -8.3628   22.1076 C   0  0  0  0  0  0  0  0  0  0  0  0
  -22.0920  -10.2293   21.0978 C   0  0  0  0  0  0  0  0  0  0  0  0
  -26.9940  -15.6096   20.1480 C   0  0  0  0  0  0  0  0  0  0  0  0
  -29.2935  -25.0762   18.1339 C   0  0  0  0  0  0  0  0  0  0  0  0
  -28.8508  -16.7330   20.5025 C   0  0  0  0  0  0  0  0  0  0  0  0
  -29.1368  -14.2505   20.5680 C   0  0  0  0  0  0  0  0  0  0  0  0
  -19.5780  -24.8205   21.0698 C   0  0  0  0  0  0  0  0  0  0  0  0
  -20.2521  -22.6402   18.7645 C   0  0  0  0  0  0  0  0  0  0  0  0
  -22.6155  -20.8759   17.0474 C   0  0  0  0  0  0  0  0  0  0  0  0
  -26.9801  -21.8127   18.1462 C   0  0  0  0  0  0  0  0  0  0  0  0
  -15.6165  -27.7524   22.3993 C   0  0  0  0  0  0  0  0  0  0  0  0
  -21.2936  -26.0551   19.6955 C   0  0  0  0  0  0  0  0  0  0  0  0
  -22.1508  -23.2889   20.2941 C   0  0  0  0  0  0  0  0  0  0  0  0
  -15.7963  -26.4333   21.6523 C   0  0  0  0  0  0  0  0  0  0  0  0
  -27.4984  -21.1730   21.6704 C   0  0  0  0  0  0  0  0  0  0  0  0
  -16.7050  -25.4940   22.4388 C   0  0  0  0  0  0  0  0  0  0  0  0
  -27.5579  -19.6447   21.6965 C   0  0  0  0  0  0  0  0  0  0  0  0
  -26.4696  -21.6689   20.6585 C   0  0  0  0  0  0  0  0  0  0  0  0
  -26.7325  -19.6316   19.2969 C   0  0  0  0  0  0  0  0  0  0  0  0
  -18.1036  -26.0978   22.6142 C   0  0  1  0  0  0  0  0  0  0  0  0
  -20.2980  -24.9006   19.7534 C   0  0  1  0  0  0  0  0  0  0  0  0
  -27.7704  -19.0679   20.2843 C   0  0  2  0  0  0  0  0  0  0  0  0
  -23.5646  -19.3360   15.3081 C   0  0  0  0  0  0  0  0  0  0  0  0
  -28.5850  -24.7958   24.0469 C   0  0  0  0  0  0  0  0  0  0  0  0
  -19.4023  -20.4750   20.7394 C   0  0  0  0  0  0  0  0  0  0  0  0
  -20.5425  -18.7922   19.2777 C   0  0  0  0  0  0  0  0  0  0  0  0
  -18.6195  -20.1114   18.3921 C   0  0  0  0  0  0  0  0  0  0  0  0
  -22.9297  -23.0816   15.0993 C   0  0  0  0  0  0  0  0  0  0  0  0
  -28.6956  -24.4056   16.9722 C   0  0  0  0  0  0  0  0  0  0  0  0
  -29.6653  -26.3862   22.4374 C   0  0  0  0  0  0  0  0  0  0  0  0
  -29.6679  -27.1367   21.0983 C   0  0  0  0  0  0  0  0  0  0  0  0
  -27.1992  -24.0670   17.1325 C   0  0  0  0  0  0  0  0  0  0  0  0
  -27.1122  -26.0666   22.4515 C   0  0  0  0  0  0  0  0  0  1  0  0
  -20.8474  -21.2530   18.7463 C   0  0  1  0  0  0  0  0  0  0  0  0
  -22.8071  -20.6301   15.5617 C   0  0  2  0  0  0  0  0  0  0  0  0
  -28.4859  -25.4106   22.6449 C   0  0  2  0  0  0  0  0  0  0  0  0
  -19.8673  -20.1801   19.2993 C   0  0  0  0  0  0  0  0  0  0  0  0
  -26.6288  -16.8922   20.0722 N   0  0  0  0  0  0  0  0  0  0  0  0
  -30.6153  -24.9163   18.4450 N   0  0  0  0  0  0  0  0  0  0  0  0
  -30.8688  -25.6365   19.5322 N   0  0  0  0  0  0  0  0  0  0  0  0
  -29.7213  -26.2350   19.8904 N   0  0  0  0  0  0  0  0  0  0  0  0
  -27.7796  -17.5505   20.2922 N   0  0  0  0  0  0  0  0  0  0  0  0
  -20.9295  -23.5981   19.5322 N   0  0  0  0  0  0  0  0  0  0  0  0
  -26.7394  -21.0979   19.3313 N   0  0  0  0  0  0  0  0  0  0  0  0
  -30.0836  -17.2298   20.7387 N   0  0  0  0  0  0  0  0  0  0  0  0
  -28.4826  -13.0170   20.4465 N   0  0  0  0  0  0  0  0  0  0  0  0
  -18.8695  -25.9618   21.3939 N   0  0  0  0  0  0  0  0  0  0  0  0
  -21.2832  -21.0138   17.3746 N   0  0  0  0  0  0  0  0  0  0  0  0
  -26.9626  -23.1972   18.2632 N   0  0  0  0  0  0  0  0  0  0  0  0
  -23.5721  -21.7509   14.9456 N   0  3  0  0  0  0  0  0  0  0  0  0
  -30.3649  -14.2717   20.8224 O   0  0  0  0  0  0  0  0  0  0  0  0
  -19.6581  -23.7984   21.7410 O   0  0  0  0  0  0  0  0  0  0  0  0
  -19.2278  -22.8672   18.1157 O   0  0  0  0  0  0  0  0  0  0  0  0
  -23.5537  -20.9357   17.8391 O   0  0  0  0  0  0  0  0  0  0  0  0
  -27.2001  -21.2580   17.0641 O   0  0  0  0  0  0  0  0  0  0  0  0
  -23.2017  -11.5640   19.4286 O   0  0  0  0  0  0  0  0  0  0  0  0
  -26.0658  -25.1073   22.5971 O   0  0  0  0  0  0  0  0  0  1  0  0
  -23.2612   -7.3344   22.9657 F   0  0  0  0  0  0  0  0  0  0  0  0
  -20.9942  -10.9904   20.9909 F   0  0  0  0  0  0  0  0  0  0  0  0
  1  2  1  0  0  0  0
  1  5  2  0  0  0  0
  2  6  2  0  0  0  0
  3  8  2  0  0  0  0
  3 16  1  0  0  0  0
  4  9  1  0  0  0  0
  4 16  2  0  0  0  0
  5 18  1  0  0  0  0
  6 20  1  0  0  0  0
  7 10  2  0  0  0  0
  7 19  1  0  0  0  0
  8 22  1  0  0  0  0
  9 22  2  0  0  0  0
 10 23  1  0  0  0  0
 11 12  2  0  0  0  0
 11 24  1  0  0  0  0
 12 25  1  0  0  0  0
 13 21  1  0  0  0  0
 13 23  2  0  0  0  0
 14 25  2  0  0  0  0
 14 26  1  0  0  0  0
 15 28  2  0  0  0  0
 15 65  1  0  0  0  0
 16 27  1  0  0  0  0
 17 27  1  0  0  0  0
 17 29  2  0  0  0  0
 17 30  1  0  0  0  0
 18 20  2  0  0  0  0
 18 35  1  0  0  0  0
 19 21  2  0  0  0  0
 19 36  1  0  0  0  0
 20 44  1  0  0  0  0
 21 37  1  0  0  0  0
 22 80  1  0  0  0  0
 23 81  1  0  0  0  0
 24 26  2  0  0  0  0
 24 80  1  0  0  0  0
 25 82  1  0  0  0  0
 26 83  1  0  0  0  0
 27 62  2  0  0  0  0
 28 53  1  0  0  0  0
 28 63  1  0  0  0  0
 29 66  1  0  0  0  0
 29 69  1  0  0  0  0
 30 70  1  0  0  0  0
 30 75  2  0  0  0  0
 31 45  1  0  0  0  0
 31 71  1  0  0  0  0
 31 76  2  0  0  0  0
 32 58  1  0  0  0  0
 32 67  1  0  0  0  0
 32 77  2  0  0  0  0
 33 59  1  0  0  0  0
 33 72  1  0  0  0  0
 33 78  2  0  0  0  0
 34 68  1  0  0  0  0
 34 73  1  0  0  0  0
 34 79  2  0  0  0  0
 35 38  1  0  0  0  0
 36 45  1  0  0  0  0
 37 67  1  0  0  0  0
 38 40  1  0  0  0  0
 39 41  1  0  0  0  0
 39 42  1  0  0  0  0
 40 44  1  0  0  0  0
 41 46  1  0  0  0  0
 42 68  1  0  0  0  0
 43 46  1  0  0  0  0
 43 68  1  0  0  0  0
 44 71  1  0  0  0  0
 45 67  1  0  0  0  0
 46 66  1  0  0  0  0
 47 59  1  0  0  0  0
 48 60  1  0  0  0  0
 49 61  1  0  0  0  0
 50 61  1  0  0  0  0
 51 61  1  0  0  0  0
 52 74  1  0  0  0  0
 53 56  1  0  0  0  0
 54 55  1  0  0  0  0
 54 60  1  0  0  0  0
 55 65  1  0  0  0  0
 56 73  1  0  0  0  0
 57 60  1  0  0  0  0
 57 81  1  0  0  0  0
 58 61  1  0  0  0  0
 58 72  1  0  0  0  0
 59 74  1  0  0  0  0
 62 66  1  0  0  0  0
 63 64  2  0  0  0  0
 64 65  1  0  0  0  0
M  CHG  1  74   1
M  ISO  4  34 100  57 101  73 100  81 101
M  END
> <Batch ID>
0090

> <Smiles>
CNC(C)C(=O)NC(C(=O)N1Cc2cc([101O:1][101CH2:1]C(C)CCn3cc(CC[100NH:0][100C:0](=O)N4CCCC(n5nc(-c6ccc(Oc7ccc(F)cc7F)cc6)c(C(N)=O)c5N)C4)nn3)ccc2CC1C(=O)NC1CCCc2ccccc21)C(C)(C)C

> <Shape>
0.214

> <Color>
0.066

> <Negative vol penalty>
0.000

$$$$

  -OEChem-04052319092D

  0  0  0     0  0  0  0  0  0999 V2000
M  END
$$$$

  -OEChem-04052319093D

 85 93  0     1  0  0  0  0  0999 V2000
  -17.0383  -24.1414   20.5199 C   0  0  0  0  0  0  0  0  0  0  0  0
  -18.0207  -23.1611   20.6159 C   0  0  0  0  0  0  0  0  0  0  0  0
  -29.7516  -23.8773   19.0569 C   0  0  0  0  0  0  0  0  0  0  0  0
  -27.7613  -23.5118   20.3768 C   0  0  0  0  0  0  0  0  0  0  0  0
  -17.3230  -25.4517   20.9019 C   0  0  0  0  0  0  0  0  0  0  0  0
  -19.2888  -23.4908   21.0930 C   0  0  0  0  0  0  0  0  0  0  0  0
  -21.0456  -20.1155   24.4346 C   0  0  0  0  0  0  0  0  0  0  0  0
  -29.1928  -25.0451   18.5376 C   0  0  0  0  0  0  0  0  0  0  0  0
  -27.2025  -24.6796   19.8575 C   0  0  0  0  0  0  0  0  0  0  0  0
  -21.5553  -18.9218   23.9257 C   0  0  0  0  0  0  0  0  0  0  0  0
  -25.3977  -27.7561   19.1530 C   0  0  0  0  0  0  0  0  0  0  0  0
  -24.7675  -28.6258   20.0429 C   0  0  0  0  0  0  0  0  0  0  0  0
  -23.7961  -19.7802   24.1731 C   0  0  0  0  0  0  0  0  0  0  0  0
  -25.8659  -11.4958   21.3601 C   0  0  0  0  0  0  0  0  0  0  0  0
  -26.8390  -28.8813   21.2599 C   0  0  0  0  0  0  0  0  0  0  0  0
  -29.0358  -23.1106   19.9764 C   0  0  0  0  0  0  0  0  0  0  0  0
  -30.4028  -21.7814   21.6712 C   0  0  0  0  0  0  0  0  0  0  0  0
  -18.5923  -25.7957   21.3929 C   0  0  0  0  0  0  0  0  0  0  0  0
  -21.9083  -21.1564   24.8069 C   0  0  0  0  0  0  0  0  0  0  0  0
  -19.5912  -24.8072   21.4806 C   0  0  0  0  0  0  0  0  0  0  0  0
  -23.2950  -20.9851   24.6887 C   0  0  0  0  0  0  0  0  0  0  0  0
  -24.5092  -11.2735   21.1521 C   0  0  0  0  0  0  0  0  0  0  0  0
  -23.7401  -12.2444   20.5202 C   0  0  0  0  0  0  0  0  0  0  0  0
  -27.9183  -25.4463   18.9379 C   0  0  0  0  0  0  0  0  0  0  0  0
  -22.9306  -18.7550   23.7922 C   0  0  0  0  0  0  0  0  0  0  0  0
  -26.7485  -27.4489   19.3165 C   0  0  0  0  0  0  0  0  0  0  0  0
  -25.4882  -29.1884   21.0964 C   0  0  0  0  0  0  0  0  0  0  0  0
  -27.4691  -28.0115   20.3699 C   0  0  0  0  0  0  0  0  0  0  0  0
  -29.6123  -21.9039   20.5128 C   0  0  0  0  0  0  0  0  0  0  0  0
  -26.4012  -12.6959   20.9209 C   0  0  0  0  0  0  0  0  0  0  0  0
  -24.3706  -13.4111   20.1189 C   0  0  0  0  0  0  0  0  0  0  0  0
  -30.6972  -20.4419   21.7458 C   0  0  0  0  0  0  0  0  0  0  0  0
  -30.8324  -22.7883   22.5970 C   0  0  0  0  0  0  0  0  0  0  0  0
  -22.3555  -24.1523   23.8433 C   0  0  0  0  0  0  0  0  0  0  0  0
  -24.4033  -24.2433   26.3574 C   0  0  0  0  0  0  0  0  0  0  0  0
  -26.4146  -22.5322   28.5192 C   0  0  0  0  0  0  0  0  0  0  0  0
  -28.2424  -15.3954   20.7871 C   0  0  0  0  0  0  0  0  0  0  0  0
  -18.8673  -27.2352   21.7490 C   0  0  0  0  0  0  0  0  0  0  0  0
  -21.3439  -22.4278   25.3791 C   0  0  0  0  0  0  0  0  0  0  0  0
  -24.2646  -22.0643   25.0931 C   0  0  0  0  0  0  0  0  0  0  0  0
  -20.1227  -27.4238   22.5969 C   0  0  0  0  0  0  0  0  0  0  0  0
  -30.7411  -16.6976   18.5159 C   0  0  0  0  0  0  0  0  0  0  0  0
  -21.2837  -26.6219   22.0173 C   0  0  0  0  0  0  0  0  0  0  0  0
  -30.7792  -18.1728   18.9191 C   0  0  0  0  0  0  0  0  0  0  0  0
  -29.3209  -16.1435   18.5803 C   0  0  0  0  0  0  0  0  0  0  0  0
  -28.6902  -17.7852   20.3068 C   0  0  0  0  0  0  0  0  0  0  0  0
  -20.9713  -25.1206   22.0165 C   0  0  1  0  0  0  0  0  0  0  0  0
  -22.2917  -23.6157   25.2453 C   0  0  1  0  0  0  0  0  0  0  0  0
  -30.1022  -18.3984   20.2840 C   0  0  2  0  0  0  0  0  0  0  0  0
  -22.2830  -12.0325   20.2815 C   0  0  0  0  0  0  0  0  0  0  0  0
  -23.1055  -10.1603   22.9063 C   0  0  0  0  0  0  0  0  0  0  0  0
  -27.9909  -22.8829   30.4400 C   0  0  0  0  0  0  0  0  0  0  0  0
  -26.5423  -25.2310   24.4185 C   0  0  0  0  0  0  0  0  0  0  0  0
  -28.2681  -24.6564   26.1389 C   0  0  0  0  0  0  0  0  0  0  0  0
  -26.5364  -26.3808   26.6394 C   0  0  0  0  0  0  0  0  0  0  0  0
  -24.7398  -20.9089   30.3411 C   0  0  0  0  0  0  0  0  0  0  0  0
  -23.9043   -9.9902   21.6173 C   0  0  0  0  0  0  0  0  0  0  0  0
  -23.5900  -14.5002   19.4272 C   0  0  0  0  0  0  0  0  0  0  0  0
  -27.8540  -12.9682   21.1261 C   0  0  0  0  0  0  0  0  0  0  0  0
  -22.7142  -15.3301   20.3725 C   0  0  0  0  0  0  0  0  0  0  0  0
  -23.5237  -16.1026   21.4150 C   0  0  0  0  0  0  0  0  0  0  0  0
  -22.6191  -16.8825   22.3595 C   0  0  0  0  0  0  0  0  0  1  0  0
  -25.8699  -23.9435   26.5531 C   0  0  1  0  0  0  0  0  0  0  0  0
  -26.5550  -22.5962   30.0294 C   0  0  2  0  0  0  0  0  0  0  0  0
  -26.7861  -25.0331   25.9279 C   0  0  0  0  0  0  0  0  0  0  0  0
  -29.4171  -20.7355   19.8958 N   0  0  0  0  0  0  0  0  0  0  0  0
  -25.6860  -13.6628   20.3035 N   0  0  0  0  0  0  0  0  0  0  0  0
  -30.0892  -19.8660   20.6693 N   0  0  0  0  0  0  0  0  0  0  0  0
  -23.6637  -23.2915   25.6413 N   0  0  0  0  0  0  0  0  0  0  0  0
  -28.7405  -16.3739   19.9108 N   0  0  0  0  0  0  0  0  0  0  0  0
  -31.4144  -19.7123   22.6265 N   0  0  0  0  0  0  0  0  0  0  0  0
  -30.4401  -24.1147   22.3712 N   0  0  0  0  0  0  0  0  0  0  0  0
  -21.1362  -24.5694   23.3445 N   0  0  0  0  0  0  0  0  0  0  0  0
  -26.0599  -23.7537   27.9870 N   0  0  0  0  0  0  0  0  0  0  0  0
  -28.3206  -14.0843   20.3338 N   0  0  0  0  0  0  0  0  0  0  0  0
  -26.1398  -21.3033   30.6435 N   0  3  0  0  0  0  0  0  0  0  0  0
  -31.5569  -22.5223   23.5859 O   0  0  0  0  0  0  0  0  0  0  0  0
  -23.4316  -24.1868   23.2580 O   0  0  0  0  0  0  0  0  0  0  0  0
  -23.9299  -25.2802   26.8288 O   0  0  0  0  0  0  0  0  0  0  0  0
  -26.6045  -21.5025   27.8756 O   0  0  0  0  0  0  0  0  0  0  0  0
  -27.7677  -15.6695   21.8947 O   0  0  0  0  0  0  0  0  0  0  0  0
  -27.3729  -26.5858   18.4316 O   0  0  0  0  0  0  0  0  0  0  0  0
  -23.4308  -17.5911   23.2952 O   0  0  0  0  0  0  0  0  0  1  0  0
  -24.8833  -30.0248   21.9500 F   0  0  0  0  0  0  0  0  0  0  0  0
  -28.7674  -27.7211   20.5314 F   0  0  0  0  0  0  0  0  0  0  0  0
  1  2  1  0  0  0  0
  1  5  2  0  0  0  0
  2  6  2  0  0  0  0
  3  8  2  0  0  0  0
  3 16  1  0  0  0  0
  4  9  1  0  0  0  0
  4 16  2  0  0  0  0
  5 18  1  0  0  0  0
  6 20  1  0  0  0  0
  7 10  2  0  0  0  0
  7 19  1  0  0  0  0
  8 24  1  0  0  0  0
  9 24  2  0  0  0  0
 10 25  1  0  0  0  0
 11 12  2  0  0  0  0
 11 26  1  0  0  0  0
 12 27  1  0  0  0  0
 13 21  1  0  0  0  0
 13 25  2  0  0  0  0
 14 22  1  0  0  0  0
 14 30  2  0  0  0  0
 15 27  2  0  0  0  0
 15 28  1  0  0  0  0
 16 29  1  0  0  0  0
 17 29  1  0  0  0  0
 17 32  2  0  0  0  0
 17 33  1  0  0  0  0
 18 20  2  0  0  0  0
 18 38  1  0  0  0  0
 19 21  2  0  0  0  0
 19 39  1  0  0  0  0
 20 47  1  0  0  0  0
 21 40  1  0  0  0  0
 22 23  2  0  0  0  0
 22 57  1  0  0  0  0
 23 31  1  0  0  0  0
 23 50  1  0  0  0  0
 24 82  1  0  0  0  0
 25 83  1  0  0  0  0
 26 28  2  0  0  0  0
 26 82  1  0  0  0  0
 27 84  1  0  0  0  0
 28 85  1  0  0  0  0
 29 66  2  0  0  0  0
 30 59  1  0  0  0  0
 30 67  1  0  0  0  0
 31 58  1  0  0  0  0
 31 67  2  0  0  0  0
 32 68  1  0  0  0  0
 32 71  1  0  0  0  0
 33 72  1  0  0  0  0
 33 77  2  0  0  0  0
 34 48  1  0  0  0  0
 34 73  1  0  0  0  0
 34 78  2  0  0  0  0
 35 63  1  0  0  0  0
 35 69  1  0  0  0  0
 35 79  2  0  0  0  0
 36 64  1  0  0  0  0
 36 74  1  0  0  0  0
 36 80  2  0  0  0  0
 37 70  1  0  0  0  0
 37 75  1  0  0  0  0
 37 81  2  0  0  0  0
 38 41  1  0  0  0  0
 39 48  1  0  0  0  0
 40 69  1  0  0  0  0
 41 43  1  0  0  0  0
 42 44  1  0  0  0  0
 42 45  1  0  0  0  0
 43 47  1  0  0  0  0
 44 49  1  0  0  0  0
 45 70  1  0  0  0  0
 46 49  1  0  0  0  0
 46 70  1  0  0  0  0
 47 73  1  0  0  0  0
 48 69  1  0  0  0  0
 49 68  1  0  0  0  0
 51 57  1  0  0  0  0
 52 64  1  0  0  0  0
 53 65  1  0  0  0  0
 54 65  1  0  0  0  0
 55 65  1  0  0  0  0
 56 76  1  0  0  0  0
 58 60  1  0  0  0  0
 59 75  1  0  0  0  0
 60 61  1  0  0  0  0
 61 62  1  0  0  0  0
 62 83  1  0  0  0  0
 63 65  1  0  0  0  0
 63 74  1  0  0  0  0
 64 76  1  0  0  0  0
 66 68  1  0  0  0  0
M  CHG  1  76   1
M  ISO  4  37 100  62 101  75 100  83 101
M  END
> <Batch ID>
0090

> <Smiles>
CCc1cc(C[100NH:0][100C:0](=O)N2CCCC(n3nc(-c4ccc(Oc5ccc(F)cc5F)cc4)c(C(N)=O)c3N)C2)nc(CCC[101CH2:1][101O:1]c2ccc3c(c2)CN(C(=O)C(NC(=O)C(C)NC)C(C)(C)C)C(C(=O)NC2CCCc4ccccc42)C3)c1C

> <Shape>
0.206

> <Color>
0.057

> <Negative vol penalty>
0.000

$$$$

  -OEChem-04052319093D

 80 88  0     1  0  0  0  0  0999 V2000
  -22.2774  -11.5791   22.0877 C   0  0  0  0  0  0  0  0  0  0  0  0
  -22.2856  -12.8484   22.6570 C   0  0  0  0  0  0  0  0  0  0  0  0
  -27.8881  -26.0760   20.7763 C   0  0  0  0  0  0  0  0  0  0  0  0
  -28.5438  -27.4717   18.9164 C   0  0  0  0  0  0  0  0  0  0  0  0
  -23.3202  -11.1852   21.2503 C   0  0  0  0  0  0  0  0  0  0  0  0
  -23.3374  -13.7242   22.3901 C   0  0  0  0  0  0  0  0  0  0  0  0
  -21.7420  -18.4178   21.3556 C   0  0  0  0  0  0  0  0  0  0  0  0
  -29.0561  -25.3283   20.6270 C   0  0  0  0  0  0  0  0  0  0  0  0
  -29.7119  -26.7240   18.7671 C   0  0  0  0  0  0  0  0  0  0  0  0
  -21.3626  -19.2139   22.4355 C   0  0  0  0  0  0  0  0  0  0  0  0
  -33.0393  -25.4071   18.1251 C   0  0  0  0  0  0  0  0  0  0  0  0
  -34.2339  -26.1007   17.9317 C   0  0  0  0  0  0  0  0  0  0  0  0
  -23.5036  -20.3230   22.3622 C   0  0  0  0  0  0  0  0  0  0  0  0
  -33.9368  -27.2058   20.0595 C   0  0  0  0  0  0  0  0  0  0  0  0
  -19.4673  -25.8123   22.1597 C   0  0  0  0  0  0  0  0  0  0  0  0
  -27.6319  -27.1477   19.9209 C   0  0  0  0  0  0  0  0  0  0  0  0
  -26.2454  -29.0667   20.8710 C   0  0  0  0  0  0  0  0  0  0  0  0
  -24.3804  -12.0601   20.9653 C   0  0  0  0  0  0  0  0  0  0  0  0
  -23.0112  -18.5611   20.7769 C   0  0  0  0  0  0  0  0  0  0  0  0
  -24.3960  -13.3412   21.5492 C   0  0  0  0  0  0  0  0  0  0  0  0
  -23.8957  -19.5293   21.2734 C   0  0  0  0  0  0  0  0  0  0  0  0
  -29.9680  -25.6523   19.6224 C   0  0  0  0  0  0  0  0  0  0  0  0
  -22.2446  -20.1646   22.9408 C   0  0  0  0  0  0  0  0  0  0  0  0
  -32.2934  -25.6129   19.2857 C   0  0  0  0  0  0  0  0  0  0  0  0
  -34.6827  -27.0000   18.8989 C   0  0  0  0  0  0  0  0  0  0  0  0
  -32.7421  -26.5122   20.2529 C   0  0  0  0  0  0  0  0  0  0  0  0
  -26.4253  -27.9201   20.0743 C   0  0  0  0  0  0  0  0  0  0  0  0
  -19.8740  -26.8719   21.3304 C   0  0  0  0  0  0  0  0  0  0  0  0
  -19.8006  -26.2377   23.4184 C   0  0  0  0  0  0  0  0  0  0  0  0
  -24.9331  -29.4203   20.6726 C   0  0  0  0  0  0  0  0  0  0  0  0
  -27.1809  -29.7510   21.7149 C   0  0  0  0  0  0  0  0  0  0  0  0
  -19.7608  -26.9638   19.8690 C   0  0  0  0  0  0  0  0  0  0  0  0
  -25.5379  -16.6670   20.4142 C   0  0  0  0  0  0  0  0  0  0  0  0
  -26.6605  -19.1523   18.6577 C   0  0  0  0  0  0  0  0  0  0  0  0
  -26.5736  -22.4968   17.9840 C   0  0  0  0  0  0  0  0  0  0  0  0
  -25.5092  -11.5725   20.0919 C   0  0  0  0  0  0  0  0  0  0  0  0
  -23.3952  -17.7130   19.5955 C   0  0  0  0  0  0  0  0  0  0  0  0
  -25.2621  -19.7365   20.6748 C   0  0  0  0  0  0  0  0  0  0  0  0
  -26.3969  -12.6951   19.5608 C   0  0  0  0  0  0  0  0  0  0  0  0
  -21.5511  -28.4951   17.1872 C   0  0  0  0  0  0  0  0  0  0  0  0
  -26.7601  -13.6641   20.6815 C   0  0  0  0  0  0  0  0  0  0  0  0
  -22.9797  -28.5982   17.7243 C   0  0  0  0  0  0  0  0  0  0  0  0
  -20.8581  -27.2231   17.6693 C   0  0  0  0  0  0  0  0  0  0  0  0
  -22.2963  -27.1417   19.6768 C   0  0  0  0  0  0  0  0  0  0  0  0
  -25.5068  -14.3286   21.2639 C   0  0  1  0  0  0  0  0  0  0  0  0
  -24.9049  -17.5912   19.4128 C   0  0  1  0  0  0  0  0  0  0  0  0
  -23.0131  -28.4350   19.2555 C   0  0  1  0  0  0  0  0  0  0  0  0
  -27.6329  -24.2400   16.5223 C   0  0  0  0  0  0  0  0  0  0  0  0
  -29.1596  -19.0974   20.4074 C   0  0  0  0  0  0  0  0  0  0  0  0
  -29.7203  -21.3846   19.5574 C   0  0  0  0  0  0  0  0  0  0  0  0
  -29.5987  -19.4620   17.9725 C   0  0  0  0  0  0  0  0  0  0  0  0
  -23.9853  -23.1758   16.7197 C   0  0  0  0  0  0  0  0  0  0  0  0
  -19.6655  -25.6342   24.7938 C   0  0  0  0  0  0  0  0  0  0  0  0
  -20.9909  -25.5277   25.5565 C   0  0  0  0  0  0  0  0  0  0  0  0
  -22.0014  -24.5992   24.8755 C   0  0  0  0  0  0  0  0  0  0  0  0
  -21.4638  -23.1725   24.7785 C   0  0  0  0  0  0  0  0  0  0  0  0
  -22.4429  -22.2506   24.0656 C   0  0  0  0  0  0  0  0  0  1  0  0
  -27.4643  -20.3950   18.9554 C   0  0  1  0  0  0  0  0  0  0  0  0
  -26.4813  -23.2584   16.6741 C   0  0  2  0  0  0  0  0  0  0  0  0
  -28.9608  -20.0798   19.2359 C   0  0  0  0  0  0  0  0  0  0  0  0
  -25.3160  -27.5685   19.4187 N   0  0  0  0  0  0  0  0  0  0  0  0
  -20.4177  -27.8774   22.0219 N   0  0  0  0  0  0  0  0  0  0  0  0
  -24.4264  -28.4996   19.8032 N   0  0  0  0  0  0  0  0  0  0  0  0
  -20.9341  -27.1127   19.1256 N   0  0  0  0  0  0  0  0  0  0  0  0
  -25.5935  -18.8786   19.5251 N   0  0  0  0  0  0  0  0  0  0  0  0
  -24.1748  -30.4257   21.1588 N   0  0  0  0  0  0  0  0  0  0  0  0
  -28.4883  -29.2540   21.8038 N   0  0  0  0  0  0  0  0  0  0  0  0
  -25.0375  -15.3792   20.3861 N   0  0  0  0  0  0  0  0  0  0  0  0
  -27.2447  -21.3017   17.8338 N   0  0  0  0  0  0  0  0  0  0  0  0
  -25.2023  -24.0204   16.6070 N   0  3  0  0  0  0  0  0  0  0  0  0
  -26.8623  -30.7634   22.3835 O   0  0  0  0  0  0  0  0  0  0  0  0
  -18.6216  -26.9137   19.4079 O   0  0  0  0  0  0  0  0  0  0  0  0
  -26.4165  -17.0904   21.1562 O   0  0  0  0  0  0  0  0  0  0  0  0
  -26.9636  -18.4542   17.6870 O   0  0  0  0  0  0  0  0  0  0  0  0
  -26.1012  -22.9214   19.0362 O   0  0  0  0  0  0  0  0  0  0  0  0
  -20.3686  -27.4688   23.3492 O   0  0  0  0  0  0  0  0  0  0  0  0
  -31.1079  -24.9230   19.4766 O   0  0  0  0  0  0  0  0  0  0  0  0
  -21.8771  -20.9425   23.9952 O   0  0  0  0  0  0  0  0  0  1  0  0
  -35.8307  -27.6648   18.7138 F   0  0  0  0  0  0  0  0  0  0  0  0
  -32.0304  -26.7133   21.3705 F   0  0  0  0  0  0  0  0  0  0  0  0
  1  2  1  0  0  0  0
  1  5  2  0  0  0  0
  2  6  2  0  0  0  0
  3  8  2  0  0  0  0
  3 16  1  0  0  0  0
  4  9  1  0  0  0  0
  4 16  2  0  0  0  0
  5 18  1  0  0  0  0
  6 20  1  0  0  0  0
  7 10  2  0  0  0  0
  7 19  1  0  0  0  0
  8 22  1  0  0  0  0
  9 22  2  0  0  0  0
 10 23  1  0  0  0  0
 11 12  2  0  0  0  0
 11 24  1  0  0  0  0
 12 25  1  0  0  0  0
 13 21  1  0  0  0  0
 13 23  2  0  0  0  0
 14 25  2  0  0  0  0
 14 26  1  0  0  0  0
 15 28  1  0  0  0  0
 15 29  2  0  0  0  0
 16 27  1  0  0  0  0
 17 27  1  0  0  0  0
 17 30  2  0  0  0  0
 17 31  1  0  0  0  0
 18 20  2  0  0  0  0
 18 36  1  0  0  0  0
 19 21  2  0  0  0  0
 19 37  1  0  0  0  0
 20 45  1  0  0  0  0
 21 38  1  0  0  0  0
 22 77  1  0  0  0  0
 23 78  1  0  0  0  0
 24 26  2  0  0  0  0
 24 77  1  0  0  0  0
 25 79  1  0  0  0  0
 26 80  1  0  0  0  0
 27 61  2  0  0  0  0
 28 32  1  0  0  0  0
 28 62  2  0  0  0  0
 29 53  1  0  0  0  0
 29 76  1  0  0  0  0
 30 63  1  0  0  0  0
 30 66  1  0  0  0  0
 31 67  1  0  0  0  0
 31 71  2  0  0  0  0
 32 64  1  0  0  0  0
 32 72  2  0  0  0  0
 33 46  1  0  0  0  0
 33 68  1  0  0  0  0
 33 73  2  0  0  0  0
 34 58  1  0  0  0  0
 34 65  1  0  0  0  0
 34 74  2  0  0  0  0
 35 59  1  0  0  0  0
 35 69  1  0  0  0  0
 35 75  2  0  0  0  0
 36 39  1  0  0  0  0
 37 46  1  0  0  0  0
 38 65  1  0  0  0  0
 39 41  1  0  0  0  0
 40 42  1  0  0  0  0
 40 43  1  0  0  0  0
 41 45  1  0  0  0  0
 42 47  1  0  0  0  0
 43 64  1  0  0  0  0
 44 47  1  0  0  0  0
 44 64  1  0  0  0  0
 45 68  1  0  0  0  0
 46 65  1  0  0  0  0
 47 63  1  0  0  0  0
 48 59  1  0  0  0  0
 49 60  1  0  0  0  0
 50 60  1  0  0  0  0
 51 60  1  0  0  0  0
 52 70  1  0  0  0  0
 53 54  1  0  0  0  0
 54 55  1  0  0  0  0
 55 56  1  0  0  0  0
 56 57  1  0  0  0  0
 57 78  1  0  0  0  0
 58 60  1  0  0  0  0
 58 69  1  0  0  0  0
 59 70  1  0  0  0  0
 61 63  1  0  0  0  0
 62 76  1  0  0  0  0
M  CHG  1  70   1
M  ISO  4  28 100  32 100  57 101  78 101
M  END
> <Batch ID>
0090

> <Smiles>
CNC(C)C(=O)NC(C(=O)N1Cc2cc([101O:1][101CH2:1]CCCCc3c[100c:0]([100C:0](=O)N4CCCC(n5nc(-c6ccc(Oc7ccc(F)cc7F)cc6)c(C(N)=O)c5N)C4)no3)ccc2CC1C(=O)NC1CCCc2ccccc21)C(C)(C)C

> <Shape>
0.214

> <Color>
0.069

> <Negative vol penalty>
0.000

$$$$

  -OEChem-04052319093D

 86 94  0     1  0  0  0  0  0999 V2000
  -24.3994  -32.4899   21.7646 C   0  0  0  0  0  0  0  0  0  0  0  0
  -24.3776  -31.1411   22.1045 C   0  0  0  0  0  0  0  0  0  0  0  0
  -23.0484   -9.8970   19.9296 C   0  0  0  0  0  0  0  0  0  0  0  0
  -23.8416   -9.8483   22.2112 C   0  0  0  0  0  0  0  0  0  0  0  0
  -24.0612  -32.8873   20.4717 C   0  0  0  0  0  0  0  0  0  0  0  0
  -24.0165  -30.1889   21.1520 C   0  0  0  0  0  0  0  0  0  0  0  0
  -27.0976  -26.1699   21.1574 C   0  0  0  0  0  0  0  0  0  0  0  0
  -22.2969   -8.7460   20.1662 C   0  0  0  0  0  0  0  0  0  0  0  0
  -23.0900   -8.6973   22.4478 C   0  0  0  0  0  0  0  0  0  0  0  0
  -26.9086  -25.2241   22.1641 C   0  0  0  0  0  0  0  0  0  0  0  0
  -21.0977   -5.9517   23.7558 C   0  0  0  0  0  0  0  0  0  0  0  0
  -20.3581   -5.8907   24.9369 C   0  0  0  0  0  0  0  0  0  0  0  0
  -25.6953  -23.8276   20.6159 C   0  0  0  0  0  0  0  0  0  0  0  0
  -28.4820  -18.6823   22.0986 C   0  0  0  0  0  0  0  0  0  0  0  0
  -19.1223   -7.8548   24.2645 C   0  0  0  0  0  0  0  0  0  0  0  0
  -23.8208  -10.4481   20.9520 C   0  0  0  0  0  0  0  0  0  0  0  0
  -24.1858  -12.9719   20.8800 C   0  0  0  0  0  0  0  0  0  0  0  0
  -23.7051  -31.9386   19.5001 C   0  0  0  0  0  0  0  0  0  0  0  0
  -26.5766  -25.9563   19.8732 C   0  0  0  0  0  0  0  0  0  0  0  0
  -23.6719  -30.5740   19.8453 C   0  0  0  0  0  0  0  0  0  0  0  0
  -25.8813  -24.7711   19.5940 C   0  0  0  0  0  0  0  0  0  0  0  0
  -29.1470  -18.3518   20.9231 C   0  0  0  0  0  0  0  0  0  0  0  0
  -28.4608  -18.3699   19.7139 C   0  0  0  0  0  0  0  0  0  0  0  0
  -22.3177   -8.1462   21.4253 C   0  0  0  0  0  0  0  0  0  0  0  0
  -26.2049  -24.0540   21.8942 C   0  0  0  0  0  0  0  0  0  0  0  0
  -20.8497   -6.9644   22.8291 C   0  0  0  0  0  0  0  0  0  0  0  0
  -19.3704   -6.8422   25.1912 C   0  0  0  0  0  0  0  0  0  0  0  0
  -19.8619   -7.9159   23.0834 C   0  0  0  0  0  0  0  0  0  0  0  0
  -24.5978  -11.6368   20.7080 C   0  0  0  0  0  0  0  0  0  0  0  0
  -27.1413  -19.0211   22.0119 C   0  0  0  0  0  0  0  0  0  0  0  0
  -27.1210  -18.7225   19.7341 C   0  0  0  0  0  0  0  0  0  0  0  0
  -25.2800  -13.7183   20.5165 C   0  0  0  0  0  0  0  0  0  0  0  0
  -22.9267  -13.4909   21.3283 C   0  0  0  0  0  0  0  0  0  0  0  0
  -24.4536  -27.4480   18.0370 C   0  0  0  0  0  0  0  0  0  0  0  0
  -25.4139  -25.2722   15.8312 C   0  0  0  0  0  0  0  0  0  0  0  0
  -26.8049  -22.2239   15.1830 C   0  0  0  0  0  0  0  0  0  0  0  0
  -30.7757  -14.6806   20.6454 C   0  0  0  0  0  0  0  0  0  0  0  0
  -23.3016  -32.4201   18.1290 C   0  0  0  0  0  0  0  0  0  0  0  0
  -26.8122  -26.9742   18.7911 C   0  0  0  0  0  0  0  0  0  0  0  0
  -25.3194  -24.4847   18.2262 C   0  0  0  0  0  0  0  0  0  0  0  0
  -23.2929  -31.3168   17.0741 C   0  0  0  0  0  0  0  0  0  0  0  0
  -29.5800  -12.3580   18.2262 C   0  0  0  0  0  0  0  0  0  0  0  0
  -22.5842  -30.0751   17.6061 C   0  0  0  0  0  0  0  0  0  0  0  0
  -28.1462  -12.0690   18.6740 C   0  0  0  0  0  0  0  0  0  0  0  0
  -30.5166  -12.5446   19.4178 C   0  0  0  0  0  0  0  0  0  0  0  0
  -28.6425  -13.2645   20.8473 C   0  0  0  0  0  0  0  0  0  0  0  0
  -23.3095  -29.5091   18.8330 C   0  0  1  0  0  0  0  0  0  0  0  0
  -25.7950  -26.8874   17.6574 C   0  0  1  0  0  0  0  0  0  0  0  0
  -27.6497  -13.1241   19.6807 C   0  0  2  0  0  0  0  0  0  0  0  0
  -30.0299  -19.1586   17.9245 C   0  0  0  0  0  0  0  0  0  0  0  0
  -24.9898  -19.4665   18.6427 C   0  0  0  0  0  0  0  0  0  0  0  0
  -27.7581  -20.3406   13.8259 C   0  0  0  0  0  0  0  0  0  0  0  0
  -22.4771  -24.5268   15.4712 C   0  0  0  0  0  0  0  0  0  0  0  0
  -23.2221  -22.4290   14.3256 C   0  0  0  0  0  0  0  0  0  0  0  0
  -23.7897  -24.6519   13.3461 C   0  0  0  0  0  0  0  0  0  0  0  0
  -29.5268  -23.3822   15.2737 C   0  0  0  0  0  0  0  0  0  0  0  0
  -30.5916  -17.9798   20.9864 C   0  0  0  0  0  0  0  0  0  0  0  0
  -29.1488  -18.0224   18.4368 C   0  0  0  0  0  0  0  0  0  0  0  0
  -26.3881  -19.3866   23.2660 C   0  0  0  0  0  0  0  0  0  0  0  0
  -26.3312  -18.7616   18.4666 C   0  0  0  0  0  0  0  0  0  0  0  0
  -26.4327  -20.8796   23.5983 C   0  0  0  0  0  0  0  0  0  0  0  0
  -30.8807  -16.8038   21.9260 C   0  0  0  0  0  0  0  0  0  0  0  0
  -25.9153  -21.7649   22.4705 C   0  0  0  0  0  0  0  0  0  1  0  0
  -24.9767  -23.8809   15.4410 C   0  0  1  0  0  0  0  0  0  0  0  0
  -27.9030  -21.8012   14.2239 C   0  0  2  0  0  0  0  0  0  0  0  0
  -23.6252  -23.8781   14.6724 C   0  0  0  0  0  0  0  0  0  0  0  0
  -25.8555  -11.5377   20.2693 N   0  0  0  0  0  0  0  0  0  0  0  0
  -26.4411  -19.0499   20.8559 N   0  0  0  0  0  0  0  0  0  0  0  0
  -26.2432  -12.8200   20.1624 N   0  0  0  0  0  0  0  0  0  0  0  0
  -25.5706  -25.5135   17.2034 N   0  0  0  0  0  0  0  0  0  0  0  0
  -29.9892  -13.5595   20.3332 N   0  0  0  0  0  0  0  0  0  0  0  0
  -25.5025  -15.0490   20.4683 N   0  0  0  0  0  0  0  0  0  0  0  0
  -21.9109  -12.5845   21.6613 N   0  0  0  0  0  0  0  0  0  0  0  0
  -24.4879  -28.7728   18.4284 N   0  0  0  0  0  0  0  0  0  0  0  0
  -26.0881  -23.2972   14.6977 N   0  0  0  0  0  0  0  0  0  0  0  0
  -30.1980  -15.5971   21.5155 N   0  0  0  0  0  0  0  0  0  0  0  0
  -29.2407  -21.9862   14.8541 N   0  3  0  0  0  0  0  0  0  0  0  0
  -22.7035  -14.7222   21.4149 O   0  0  0  0  0  0  0  0  0  0  0  0
  -23.4608  -26.7321   17.9777 O   0  0  0  0  0  0  0  0  0  0  0  0
  -25.6161  -26.1118   14.9504 O   0  0  0  0  0  0  0  0  0  0  0  0
  -26.6008  -21.6562   16.2538 O   0  0  0  0  0  0  0  0  0  0  0  0
  -31.9066  -14.8547   20.1789 O   0  0  0  0  0  0  0  0  0  0  0  0
  -21.5842   -7.0232   21.6567 O   0  0  0  0  0  0  0  0  0  0  0  0
  -26.0184  -23.1294   22.8752 O   0  0  0  0  0  0  0  0  0  1  0  0
  -18.6592   -6.7825   26.3247 F   0  0  0  0  0  0  0  0  0  0  0  0
  -19.6183   -8.8904   22.1964 F   0  0  0  0  0  0  0  0  0  0  0  0
  1  2  1  0  0  0  0
  1  5  2  0  0  0  0
  2  6  2  0  0  0  0
  3  8  2  0  0  0  0
  3 16  1  0  0  0  0
  4  9  1  0  0  0  0
  4 16  2  0  0  0  0
  5 18  1  0  0  0  0
  6 20  1  0  0  0  0
  7 10  2  0  0  0  0
  7 19  1  0  0  0  0
  8 24  1  0  0  0  0
  9 24  2  0  0  0  0
 10 25  1  0  0  0  0
 11 12  2  0  0  0  0
 11 26  1  0  0  0  0
 12 27  1  0  0  0  0
 13 21  1  0  0  0  0
 13 25  2  0  0  0  0
 14 22  2  0  0  0  0
 14 30  1  0  0  0  0
 15 27  2  0  0  0  0
 15 28  1  0  0  0  0
 16 29  1  0  0  0  0
 17 29  1  0  0  0  0
 17 32  2  0  0  0  0
 17 33  1  0  0  0  0
 18 20  2  0  0  0  0
 18 38  1  0  0  0  0
 19 21  2  0  0  0  0
 19 39  1  0  0  0  0
 20 47  1  0  0  0  0
 21 40  1  0  0  0  0
 22 23  1  0  0  0  0
 22 57  1  0  0  0  0
 23 31  2  0  0  0  0
 23 58  1  0  0  0  0
 24 83  1  0  0  0  0
 25 84  1  0  0  0  0
 26 28  2  0  0  0  0
 26 83  1  0  0  0  0
 27 85  1  0  0  0  0
 28 86  1  0  0  0  0
 29 67  2  0  0  0  0
 30 59  1  0  0  0  0
 30 68  2  0  0  0  0
 31 60  1  0  0  0  0
 31 68  1  0  0  0  0
 32 69  1  0  0  0  0
 32 72  1  0  0  0  0
 33 73  1  0  0  0  0
 33 78  2  0  0  0  0
 34 48  1  0  0  0  0
 34 74  1  0  0  0  0
 34 79  2  0  0  0  0
 35 64  1  0  0  0  0
 35 70  1  0  0  0  0
 35 80  2  0  0  0  0
 36 65  1  0  0  0  0
 36 75  1  0  0  0  0
 36 81  2  0  0  0  0
 37 71  1  0  0  0  0
 37 76  1  0  0  0  0
 37 82  2  0  0  0  0
 38 41  1  0  0  0  0
 39 48  1  0  0  0  0
 40 70  1  0  0  0  0
 41 43  1  0  0  0  0
 42 44  1  0  0  0  0
 42 45  1  0  0  0  0
 43 47  1  0  0  0  0
 44 49  1  0  0  0  0
 45 71  1  0  0  0  0
 46 49  1  0  0  0  0
 46 71  1  0  0  0  0
 47 74  1  0  0  0  0
 48 70  1  0  0  0  0
 49 69  1  0  0  0  0
 50 58  1  0  0  0  0
 51 60  1  0  0  0  0
 52 65  1  0  0  0  0
 53 66  1  0  0  0  0
 54 66  1  0  0  0  0
 55 66  1  0  0  0  0
 56 77  1  0  0  0  0
 57 62  1  0  0  0  0
 59 61  1  0  0  0  0
 61 63  1  0  0  0  0
 62 76  1  0  0  0  0
 63 84  1  0  0  0  0
 64 66  1  0  0  0  0
 64 75  1  0  0  0  0
 65 77  1  0  0  0  0
 67 69  1  0  0  0  0
M  CHG  1  77   1
M  ISO  4  37 100  63 101  76 100  84 101
M  END
> <Batch ID>
0090

> <Smiles>
CCc1nc(CC[101CH2:1][101O:1]c2ccc3c(c2)CN(C(=O)C(NC(=O)C(C)NC)C(C)(C)C)C(C(=O)NC2CCCc4ccccc42)C3)cc(CC[100NH:0][100C:0](=O)N2CCCC(n3nc(-c4ccc(Oc5ccc(F)cc5F)cc4)c(C(N)=O)c3N)C2)c1CC

> <Shape>
0.251

> <Color>
0.189

> <Negative vol penalty>
0.000

$$$$

  -OEChem-04052319093D

 83 91  0     1  0  0  0  0  0999 V2000
  -25.0170  -28.9716   20.3212 C   0  0  0  0  0  0  0  0  0  0  0  0
  -24.7623  -27.9137   19.4544 C   0  0  0  0  0  0  0  0  0  0  0  0
  -20.7781  -22.7976   21.7340 C   0  0  0  0  0  0  0  0  0  0  0  0
  -23.1749  -23.0834   21.6292 C   0  0  0  0  0  0  0  0  0  0  0  0
  -26.2146  -29.0144   21.0339 C   0  0  0  0  0  0  0  0  0  0  0  0
  -25.7055  -26.8985   19.2989 C   0  0  0  0  0  0  0  0  0  0  0  0
  -26.1787  -19.8630   18.0366 C   0  0  0  0  0  0  0  0  0  0  0  0
  -20.6601  -24.0259   22.3844 C   0  0  0  0  0  0  0  0  0  0  0  0
  -23.0568  -24.3118   22.2795 C   0  0  0  0  0  0  0  0  0  0  0  0
  -26.8114  -18.9624   17.1808 C   0  0  0  0  0  0  0  0  0  0  0  0
  -20.6844  -27.3013   21.5452 C   0  0  0  0  0  0  0  0  0  0  0  0
  -19.6830  -28.1704   21.1123 C   0  0  0  0  0  0  0  0  0  0  0  0
  -28.8108  -19.1006   18.5234 C   0  0  0  0  0  0  0  0  0  0  0  0
  -27.0315  -15.0398   18.4201 C   0  0  0  0  0  0  0  0  0  0  0  0
  -18.6913  -28.1250   23.3150 C   0  0  0  0  0  0  0  0  0  0  0  0
  -28.1872  -12.8838   19.6292 C   0  0  0  0  0  0  0  0  0  0  0  0
  -22.0355  -22.3264   21.3565 C   0  0  0  0  0  0  0  0  0  0  0  0
  -22.1256  -20.8232   19.2973 C   0  0  0  0  0  0  0  0  0  0  0  0
  -27.1688  -27.9943   20.8945 C   0  0  0  0  0  0  0  0  0  0  0  0
  -26.8620  -20.3984   19.1379 C   0  0  0  0  0  0  0  0  0  0  0  0
  -26.9175  -26.9285   20.0094 C   0  0  0  0  0  0  0  0  0  0  0  0
  -28.1836  -20.0058   19.3932 C   0  0  0  0  0  0  0  0  0  0  0  0
  -28.0386  -14.3455   17.7589 C   0  0  0  0  0  0  0  0  0  0  0  0
  -28.6326  -13.2458   18.3681 C   0  0  0  0  0  0  0  0  0  0  0  0
  -21.7994  -24.7830   22.6571 C   0  0  0  0  0  0  0  0  0  0  0  0
  -28.1286  -18.5833   17.4225 C   0  0  0  0  0  0  0  0  0  0  0  0
  -20.6892  -26.8439   22.8630 C   0  0  0  0  0  0  0  0  0  0  0  0
  -18.6865  -28.5823   21.9972 C   0  0  0  0  0  0  0  0  0  0  0  0
  -19.6927  -27.2558   23.7479 C   0  0  0  0  0  0  0  0  0  0  0  0
  -22.1582  -21.0574   20.6851 C   0  0  0  0  0  0  0  0  0  0  0  0
  -26.6576  -14.5973   19.6787 C   0  0  0  0  0  0  0  0  0  0  0  0
  -22.2832  -19.4643   19.1747 C   0  0  0  0  0  0  0  0  0  0  0  0
  -21.9672  -21.7510   18.2158 C   0  0  0  0  0  0  0  0  0  0  0  0
  -27.7239  -23.3226   20.0377 C   0  0  0  0  0  0  0  0  0  0  0  0
  -28.6594  -21.7931   22.7409 C   0  0  0  0  0  0  0  0  0  0  0  0
  -29.6468  -18.8858   24.2308 C   0  0  0  0  0  0  0  0  0  0  0  0
  -25.1006  -15.0478   21.6072 C   0  0  0  0  0  0  0  0  0  0  0  0
  -28.4690  -28.1083   21.6501 C   0  0  0  0  0  0  0  0  0  0  0  0
  -26.1566  -21.3482   20.0668 C   0  0  0  0  0  0  0  0  0  0  0  0
  -28.9545  -20.5361   20.5734 C   0  0  0  0  0  0  0  0  0  0  0  0
  -29.2543  -26.8007   21.7117 C   0  0  0  0  0  0  0  0  0  0  0  0
  -21.6306  -15.5943   22.1881 C   0  0  0  0  0  0  0  0  0  0  0  0
  -29.3110  -26.1466   20.3349 C   0  0  0  0  0  0  0  0  0  0  0  0
  -21.4079  -17.0357   21.7244 C   0  0  0  0  0  0  0  0  0  0  0  0
  -22.9893  -15.4194   22.8640 C   0  0  0  0  0  0  0  0  0  0  0  0
  -23.9156  -17.3306   21.6156 C   0  0  0  0  0  0  0  0  0  0  0  0
  -27.9053  -25.7957   19.8326 C   0  0  1  0  0  0  0  0  0  0  0  0
  -27.1155  -22.2259   20.8651 C   0  0  1  0  0  0  0  0  0  0  0  0
  -22.5873  -17.5415   20.8707 C   0  0  2  0  0  0  0  0  0  0  0  0
  -29.3145  -11.0015   17.4452 C   0  0  0  0  0  0  0  0  0  0  0  0
  -31.0414  -12.5128   18.4886 C   0  0  0  0  0  0  0  0  0  0  0  0
  -30.3800  -17.9564   26.4435 C   0  0  0  0  0  0  0  0  0  0  0  0
  -31.4022  -23.0771   22.3686 C   0  0  0  0  0  0  0  0  0  0  0  0
  -32.3249  -21.4129   23.9957 C   0  0  0  0  0  0  0  0  0  0  0  0
  -30.5806  -23.0378   24.7304 C   0  0  0  0  0  0  0  0  0  0  0  0
  -27.3603  -17.0094   24.3314 C   0  0  0  0  0  0  0  0  0  0  0  0
  -28.4688  -14.8004   16.3872 C   0  0  0  0  0  0  0  0  0  0  0  0
  -29.7984  -15.5578   16.3782 C   0  0  0  0  0  0  0  0  0  0  0  0
  -29.7530  -16.8665   17.1583 C   0  0  0  0  0  0  0  0  0  1  0  0
  -29.7152  -12.4668   17.7049 C   0  0  0  0  0  0  0  0  0  0  0  0
  -29.9317  -21.1274   23.2068 C   0  0  1  0  0  0  0  0  0  0  0  0
  -29.2021  -18.2109   25.5158 C   0  0  2  0  0  0  0  0  0  0  0  0
  -31.0462  -22.1551   23.5519 C   0  0  0  0  0  0  0  0  0  0  0  0
  -27.2115  -13.5335   20.3026 N   0  0  0  0  0  0  0  0  0  0  0  0
  -22.3233  -19.9370   21.3934 N   0  0  0  0  0  0  0  0  0  0  0  0
  -22.3958  -18.9857   20.4469 N   0  0  0  0  0  0  0  0  0  0  0  0
  -28.2234  -21.4669   21.4489 N   0  0  0  0  0  0  0  0  0  0  0  0
  -24.0585  -15.9163   21.9952 N   0  0  0  0  0  0  0  0  0  0  0  0
  -22.3349  -18.6440   18.1038 N   0  0  0  0  0  0  0  0  0  0  0  0
  -21.8175  -23.1112   18.5189 N   0  0  0  0  0  0  0  0  0  0  0  0
  -25.6317  -15.3122   20.3452 N   0  0  0  0  0  0  0  0  0  0  0  0
  -27.4216  -24.5959   20.4814 N   0  0  0  0  0  0  0  0  0  0  0  0
  -29.5552  -20.2590   24.3169 N   0  0  0  0  0  0  0  0  0  0  0  0
  -28.5492  -16.9052   25.2160 N   0  3  0  0  0  0  0  0  0  0  0  0
  -21.9423  -21.3828   17.0169 O   0  0  0  0  0  0  0  0  0  0  0  0
  -28.4175  -23.0350   19.0692 O   0  0  0  0  0  0  0  0  0  0  0  0
  -28.0702  -22.5683   23.4982 O   0  0  0  0  0  0  0  0  0  0  0  0
  -30.0398  -18.2579   23.2501 O   0  0  0  0  0  0  0  0  0  0  0  0
  -25.4745  -14.1197   22.3289 O   0  0  0  0  0  0  0  0  0  0  0  0
  -21.6845  -25.9817   23.2915 O   0  0  0  0  0  0  0  0  0  0  0  0
  -28.7488  -17.7050   16.5884 O   0  0  0  0  0  0  0  0  0  1  0  0
  -17.7258  -29.4181   21.5817 F   0  0  0  0  0  0  0  0  0  0  0  0
  -19.6928  -26.8207   25.0154 F   0  0  0  0  0  0  0  0  0  0  0  0
  1  2  1  0  0  0  0
  1  5  2  0  0  0  0
  2  6  2  0  0  0  0
  3  8  2  0  0  0  0
  3 17  1  0  0  0  0
  4  9  1  0  0  0  0
  4 17  2  0  0  0  0
  5 19  1  0  0  0  0
  6 21  1  0  0  0  0
  7 10  2  0  0  0  0
  7 20  1  0  0  0  0
  8 25  1  0  0  0  0
  9 25  2  0  0  0  0
 10 26  1  0  0  0  0
 11 12  2  0  0  0  0
 11 27  1  0  0  0  0
 12 28  1  0  0  0  0
 13 22  1  0  0  0  0
 13 26  2  0  0  0  0
 14 23  1  0  0  0  0
 14 31  2  0  0  0  0
 15 28  2  0  0  0  0
 15 29  1  0  0  0  0
 16 24  1  0  0  0  0
 16 64  2  0  0  0  0
 17 30  1  0  0  0  0
 18 30  1  0  0  0  0
 18 32  2  0  0  0  0
 18 33  1  0  0  0  0
 19 21  2  0  0  0  0
 19 38  1  0  0  0  0
 20 22  2  0  0  0  0
 20 39  1  0  0  0  0
 21 47  1  0  0  0  0
 22 40  1  0  0  0  0
 23 24  2  0  0  0  0
 23 57  1  0  0  0  0
 24 60  1  0  0  0  0
 25 80  1  0  0  0  0
 26 81  1  0  0  0  0
 27 29  2  0  0  0  0
 27 80  1  0  0  0  0
 28 82  1  0  0  0  0
 29 83  1  0  0  0  0
 30 65  2  0  0  0  0
 31 64  1  0  0  0  0
 31 71  1  0  0  0  0
 32 66  1  0  0  0  0
 32 69  1  0  0  0  0
 33 70  1  0  0  0  0
 33 75  2  0  0  0  0
 34 48  1  0  0  0  0
 34 72  1  0  0  0  0
 34 76  2  0  0  0  0
 35 61  1  0  0  0  0
 35 67  1  0  0  0  0
 35 77  2  0  0  0  0
 36 62  1  0  0  0  0
 36 73  1  0  0  0  0
 36 78  2  0  0  0  0
 37 68  1  0  0  0  0
 37 71  1  0  0  0  0
 37 79  2  0  0  0  0
 38 41  1  0  0  0  0
 39 48  1  0  0  0  0
 40 67  1  0  0  0  0
 41 43  1  0  0  0  0
 42 44  1  0  0  0  0
 42 45  1  0  0  0  0
 43 47  1  0  0  0  0
 44 49  1  0  0  0  0
 45 68  1  0  0  0  0
 46 49  1  0  0  0  0
 46 68  1  0  0  0  0
 47 72  1  0  0  0  0
 48 67  1  0  0  0  0
 49 66  1  0  0  0  0
 50 60  1  0  0  0  0
 51 60  1  0  0  0  0
 52 62  1  0  0  0  0
 53 63  1  0  0  0  0
 54 63  1  0  0  0  0
 55 63  1  0  0  0  0
 56 74  1  0  0  0  0
 57 58  1  0  0  0  0
 58 59  1  0  0  0  0
 59 81  1  0  0  0  0
 61 63  1  0  0  0  0
 61 73  1  0  0  0  0
 62 74  1  0  0  0  0
 65 66  1  0  0  0  0
M  CHG  1  74   1
M  ISO  4  37 100  59 101  71 100  81 101
M  END
> <Batch ID>
0090

> <Smiles>
CNC(C)C(=O)NC(C(=O)N1Cc2cc([101O:1][101CH2:1]CCc3cc([100NH:0][100C:0](=O)N4CCCC(n5nc(-c6ccc(Oc7ccc(F)cc7F)cc6)c(C(N)=O)c5N)C4)ncc3C(C)C)ccc2CC1C(=O)NC1CCCc2ccccc21)C(C)(C)C

> <Shape>
0.187

> <Color>
0.066

> <Negative vol penalty>
0.000

$$$$

  -OEChem-04052319093D

 87 95  0     1  0  0  0  0  0999 V2000
  -31.2830  -16.6563   15.6526 C   0  0  0  0  0  0  0  0  0  0  0  0
  -30.6938  -16.8337   16.9003 C   0  0  0  0  0  0  0  0  0  0  0  0
  -23.0531   -9.9156   19.8821 C   0  0  0  0  0  0  0  0  0  0  0  0
  -23.8507   -9.8037   22.1599 C   0  0  0  0  0  0  0  0  0  0  0  0
  -32.2370  -17.5656   15.1978 C   0  0  0  0  0  0  0  0  0  0  0  0
  -31.0590  -17.9202   17.6944 C   0  0  0  0  0  0  0  0  0  0  0  0
  -27.0644  -20.2392   19.7705 C   0  0  0  0  0  0  0  0  0  0  0  0
  -22.3106   -8.7524   20.0849 C   0  0  0  0  0  0  0  0  0  0  0  0
  -23.1081   -8.6405   22.3628 C   0  0  0  0  0  0  0  0  0  0  0  0
  -26.4822  -19.6317   20.8821 C   0  0  0  0  0  0  0  0  0  0  0  0
  -22.8792   -5.4224   20.1959 C   0  0  0  0  0  0  0  0  0  0  0  0
  -22.9280   -4.4422   19.2048 C   0  0  0  0  0  0  0  0  0  0  0  0
  -27.6565  -21.1649   22.3276 C   0  0  0  0  0  0  0  0  0  0  0  0
  -28.4740  -16.7645   24.5371 C   0  0  0  0  0  0  0  0  0  0  0  0
  -20.5384   -4.6298   18.9016 C   0  0  0  0  0  0  0  0  0  0  0  0
  -23.8233  -10.4412   20.9196 C   0  0  0  0  0  0  0  0  0  0  0  0
  -24.1695  -12.9686   20.9234 C   0  0  0  0  0  0  0  0  0  0  0  0
  -32.6071  -18.6691   15.9827 C   0  0  0  0  0  0  0  0  0  0  0  0
  -27.9570  -21.3090   19.9299 C   0  0  0  0  0  0  0  0  0  0  0  0
  -32.0199  -18.8444   17.2503 C   0  0  0  0  0  0  0  0  0  0  0  0
  -28.2467  -21.7860   21.2162 C   0  0  0  0  0  0  0  0  0  0  0  0
  -27.4644  -17.5697   25.0343 C   0  0  0  0  0  0  0  0  0  0  0  0
  -22.3380   -8.1148   21.3253 C   0  0  0  0  0  0  0  0  0  0  0  0
  -26.7805  -20.0926   22.1610 C   0  0  0  0  0  0  0  0  0  0  0  0
  -21.6600   -6.0063   20.5400 C   0  0  0  0  0  0  0  0  0  0  0  0
  -21.7576   -4.0459   18.5576 C   0  0  0  0  0  0  0  0  0  0  0  0
  -20.4896   -5.6100   19.8928 C   0  0  0  0  0  0  0  0  0  0  0  0
  -24.5910  -11.6424   20.7105 C   0  0  0  0  0  0  0  0  0  0  0  0
  -29.7416  -16.9202   25.0609 C   0  0  0  0  0  0  0  0  0  0  0  0
  -27.7891  -18.4770   26.0226 C   0  0  0  0  0  0  0  0  0  0  0  0
  -25.2574  -13.7339   20.5810 C   0  0  0  0  0  0  0  0  0  0  0  0
  -22.9073  -13.4644   21.3892 C   0  0  0  0  0  0  0  0  0  0  0  0
  -31.0186  -21.7991   19.2302 C   0  0  0  0  0  0  0  0  0  0  0  0
  -30.3598  -24.8157   20.2244 C   0  0  0  0  0  0  0  0  0  0  0  0
  -28.3955  -26.8850   22.0968 C   0  0  0  0  0  0  0  0  0  0  0  0
  -30.7460  -14.7327   20.7304 C   0  0  0  0  0  0  0  0  0  0  0  0
  -33.6774  -19.5991   15.4688 C   0  0  0  0  0  0  0  0  0  0  0  0
  -28.5558  -21.9708   18.7192 C   0  0  0  0  0  0  0  0  0  0  0  0
  -29.1828  -22.9445   21.4402 C   0  0  0  0  0  0  0  0  0  0  0  0
  -33.7351  -20.9312   16.2120 C   0  0  0  0  0  0  0  0  0  0  0  0
  -29.5633  -12.4756   18.2438 C   0  0  0  0  0  0  0  0  0  0  0  0
  -33.6834  -20.7041   17.7195 C   0  0  0  0  0  0  0  0  0  0  0  0
  -28.1324  -12.1625   18.6848 C   0  0  0  0  0  0  0  0  0  0  0  0
  -30.5006  -12.6330   19.4390 C   0  0  0  0  0  0  0  0  0  0  0  0
  -28.6238  -13.2953   20.8926 C   0  0  0  0  0  0  0  0  0  0  0  0
  -32.3717  -20.0242   18.1303 C   0  0  1  0  0  0  0  0  0  0  0  0
  -29.8489  -22.7199   19.0261 C   0  0  1  0  0  0  0  0  0  0  0  0
  -27.6299  -13.1829   19.7239 C   0  0  2  0  0  0  0  0  0  0  0  0
  -26.3199  -21.4471   28.0039 C   0  0  0  0  0  0  0  0  0  0  0  0
  -28.1254  -29.2956   22.7398 C   0  0  0  0  0  0  0  0  0  0  0  0
  -32.7253  -24.5684   22.1357 C   0  0  0  0  0  0  0  0  0  0  0  0
  -31.8397  -26.5537   23.3778 C   0  0  0  0  0  0  0  0  0  0  0  0
  -32.5346  -26.7849   20.9931 C   0  0  0  0  0  0  0  0  0  0  0  0
  -32.3567  -17.9689   23.6937 C   0  0  0  0  0  0  0  0  0  0  0  0
  -32.8345  -15.6136   23.0473 C   0  0  0  0  0  0  0  0  0  0  0  0
  -25.6931  -27.0224   20.8979 C   0  0  0  0  0  0  0  0  0  0  0  0
  -26.0599  -17.4397   24.4967 C   0  0  0  0  0  0  0  0  0  0  0  0
  -30.8644  -16.0781   24.5596 C   0  0  0  0  0  0  0  0  0  0  0  0
  -26.7536  -19.3783   26.6056 C   0  0  0  0  0  0  0  0  0  0  0  0
  -27.3751  -20.5096   27.4387 C   0  0  0  0  0  0  0  0  0  0  0  0
  -30.8377  -16.8169   22.0746 C   0  0  0  0  0  0  0  0  0  0  0  0
  -25.8939  -18.1146   23.1395 C   0  0  0  0  0  0  0  0  0  1  0  0
  -30.4059  -25.5390   21.5487 C   0  0  1  0  0  0  0  0  0  0  0  0
  -27.7167  -28.2018   21.7654 C   0  0  2  0  0  0  0  0  0  0  0  0
  -31.8602  -25.8384   22.0100 C   0  0  0  0  0  0  0  0  0  0  0  0
  -31.6978  -16.6183   23.3455 C   0  0  0  0  0  0  0  0  0  0  0  0
  -25.8486  -11.5660   20.2669 N   0  0  0  0  0  0  0  0  0  0  0  0
  -30.0308  -17.8166   26.0279 N   0  0  0  0  0  0  0  0  0  0  0  0
  -29.0384  -18.6076   26.5168 N   0  0  0  0  0  0  0  0  0  0  0  0
  -26.2265  -12.8539   20.1983 N   0  0  0  0  0  0  0  0  0  0  0  0
  -29.7479  -23.5542   20.2252 N   0  0  0  0  0  0  0  0  0  0  0  0
  -29.9673  -13.6157   20.3855 N   0  0  0  0  0  0  0  0  0  0  0  0
  -25.4699  -15.0670   20.5728 N   0  0  0  0  0  0  0  0  0  0  0  0
  -21.8988  -12.5408   21.6962 N   0  0  0  0  0  0  0  0  0  0  0  0
  -31.2887  -20.9841   18.1475 N   0  0  0  0  0  0  0  0  0  0  0  0
  -29.5715  -26.7258   21.3949 N   0  0  0  0  0  0  0  0  0  0  0  0
  -30.1632  -15.6181   21.6287 N   0  0  0  0  0  0  0  0  0  0  0  0
  -26.2353  -28.0501   21.8236 N   0  3  0  0  0  0  0  0  0  0  0  0
  -22.6752  -14.6909   21.5135 O   0  0  0  0  0  0  0  0  0  0  0  0
  -31.6317  -21.8272   20.2909 O   0  0  0  0  0  0  0  0  0  0  0  0
  -30.8423  -25.3535   19.2245 O   0  0  0  0  0  0  0  0  0  0  0  0
  -27.9308  -26.0800   22.9009 O   0  0  0  0  0  0  0  0  0  0  0  0
  -31.8748  -14.9293   20.2676 O   0  0  0  0  0  0  0  0  0  0  0  0
  -21.6133   -6.9799   21.5236 O   0  0  0  0  0  0  0  0  0  0  0  0
  -26.2141  -19.5010   23.2478 O   0  0  0  0  0  0  0  0  0  1  0  0
  -21.8048   -3.1057   17.6048 F   0  0  0  0  0  0  0  0  0  0  0  0
  -19.3156   -6.1682   20.2182 F   0  0  0  0  0  0  0  0  0  0  0  0
  1  2  1  0  0  0  0
  1  5  2  0  0  0  0
  2  6  2  0  0  0  0
  3  8  2  0  0  0  0
  3 16  1  0  0  0  0
  4  9  1  0  0  0  0
  4 16  2  0  0  0  0
  5 18  1  0  0  0  0
  6 20  1  0  0  0  0
  7 10  2  0  0  0  0
  7 19  1  0  0  0  0
  8 23  1  0  0  0  0
  9 23  2  0  0  0  0
 10 24  1  0  0  0  0
 11 12  2  0  0  0  0
 11 25  1  0  0  0  0
 12 26  1  0  0  0  0
 13 21  1  0  0  0  0
 13 24  2  0  0  0  0
 14 22  1  0  0  0  0
 14 29  2  0  0  0  0
 15 26  2  0  0  0  0
 15 27  1  0  0  0  0
 16 28  1  0  0  0  0
 17 28  1  0  0  0  0
 17 31  2  0  0  0  0
 17 32  1  0  0  0  0
 18 20  2  0  0  0  0
 18 37  1  0  0  0  0
 19 21  2  0  0  0  0
 19 38  1  0  0  0  0
 20 46  1  0  0  0  0
 21 39  1  0  0  0  0
 22 30  2  0  0  0  0
 22 57  1  0  0  0  0
 23 84  1  0  0  0  0
 24 85  1  0  0  0  0
 25 27  2  0  0  0  0
 25 84  1  0  0  0  0
 26 86  1  0  0  0  0
 27 87  1  0  0  0  0
 28 67  2  0  0  0  0
 29 58  1  0  0  0  0
 29 68  1  0  0  0  0
 30 59  1  0  0  0  0
 30 69  1  0  0  0  0
 31 70  1  0  0  0  0
 31 73  1  0  0  0  0
 32 74  1  0  0  0  0
 32 79  2  0  0  0  0
 33 47  1  0  0  0  0
 33 75  1  0  0  0  0
 33 80  2  0  0  0  0
 34 63  1  0  0  0  0
 34 71  1  0  0  0  0
 34 81  2  0  0  0  0
 35 64  1  0  0  0  0
 35 76  1  0  0  0  0
 35 82  2  0  0  0  0
 36 72  1  0  0  0  0
 36 77  1  0  0  0  0
 36 83  2  0  0  0  0
 37 40  1  0  0  0  0
 38 47  1  0  0  0  0
 39 71  1  0  0  0  0
 40 42  1  0  0  0  0
 41 43  1  0  0  0  0
 41 44  1  0  0  0  0
 42 46  1  0  0  0  0
 43 48  1  0  0  0  0
 44 72  1  0  0  0  0
 45 48  1  0  0  0  0
 45 72  1  0  0  0  0
 46 75  1  0  0  0  0
 47 71  1  0  0  0  0
 48 70  1  0  0  0  0
 49 60  1  0  0  0  0
 50 64  1  0  0  0  0
 51 65  1  0  0  0  0
 52 65  1  0  0  0  0
 53 65  1  0  0  0  0
 54 66  1  0  0  0  0
 55 66  1  0  0  0  0
 56 78  1  0  0  0  0
 57 62  1  0  0  0  0
 58 66  1  0  0  0  0
 59 60  1  0  0  0  0
 61 66  1  0  0  0  0
 61 77  1  0  0  0  0
 62 85  1  0  0  0  0
 63 65  1  0  0  0  0
 63 76  1  0  0  0  0
 64 78  1  0  0  0  0
 67 70  1  0  0  0  0
 68 69  2  0  0  0  0
M  CHG  1  78   1
M  ISO  4  36 100  62 101  77 100  85 101
M  END
> <Batch ID>
0090

> <Smiles>
CCCc1nnc(CC(C)(C)C[100NH:0][100C:0](=O)N2CCCC(n3nc(-c4ccc(Oc5ccc(F)cc5F)cc4)c(C(N)=O)c3N)C2)cc1C[101CH2:1][101O:1]c1ccc2c(c1)CN(C(=O)C(NC(=O)C(C)NC)C(C)(C)C)C(C(=O)NC1CCCc3ccccc31)C2

> <Shape>
0.234

> <Color>
0.203

> <Negative vol penalty>
0.000

$$$$

  -OEChem-04052319093D

 84 92  0     1  0  0  0  0  0999 V2000
  -20.2890  -22.5439   23.8209 C   0  0  0  0  0  0  0  0  0  0  0  0
  -20.7920  -21.3393   23.3399 C   0  0  0  0  0  0  0  0  0  0  0  0
  -23.2884   -9.7997   19.9126 C   0  0  0  0  0  0  0  0  0  0  0  0
  -23.7388   -9.9398   22.2821 C   0  0  0  0  0  0  0  0  0  0  0  0
  -20.5369  -22.9248   25.1390 C   0  0  0  0  0  0  0  0  0  0  0  0
  -21.5442  -20.5154   24.1765 C   0  0  0  0  0  0  0  0  0  0  0  0
  -22.9164  -13.5983   25.4364 C   0  0  0  0  0  0  0  0  0  0  0  0
  -22.5619   -8.6272   20.1200 C   0  0  0  0  0  0  0  0  0  0  0  0
  -23.0122   -8.7673   22.4895 C   0  0  0  0  0  0  0  0  0  0  0  0
  -23.9912  -12.7206   25.5709 C   0  0  0  0  0  0  0  0  0  0  0  0
  -19.7651   -7.8565   22.7061 C   0  0  0  0  0  0  0  0  0  0  0  0
  -18.8625   -7.8347   23.7693 C   0  0  0  0  0  0  0  0  0  0  0  0
  -24.2889  -13.4441   27.8528 C   0  0  0  0  0  0  0  0  0  0  0  0
  -20.0679   -5.9872   24.7547 C   0  0  0  0  0  0  0  0  0  0  0  0
  -27.9382  -14.6770   25.9146 C   0  0  0  0  0  0  0  0  0  0  0  0
  -23.8769  -10.4560   20.9936 C   0  0  0  0  0  0  0  0  0  0  0  0
  -24.1365  -12.9860   20.7955 C   0  0  0  0  0  0  0  0  0  0  0  0
  -21.2844  -22.1007   25.9950 C   0  0  0  0  0  0  0  0  0  0  0  0
  -22.5259  -14.4148   26.5076 C   0  0  0  0  0  0  0  0  0  0  0  0
  -21.8035  -20.8864   25.5069 C   0  0  0  0  0  0  0  0  0  0  0  0
  -23.2071  -14.3295   27.7302 C   0  0  0  0  0  0  0  0  0  0  0  0
  -22.4238   -8.1110   21.4084 C   0  0  0  0  0  0  0  0  0  0  0  0
  -24.6795  -12.6454   26.7782 C   0  0  0  0  0  0  0  0  0  0  0  0
  -20.8191   -6.9436   22.6671 C   0  0  0  0  0  0  0  0  0  0  0  0
  -19.0139   -6.9001   24.7936 C   0  0  0  0  0  0  0  0  0  0  0  0
  -20.9705   -6.0090   23.6914 C   0  0  0  0  0  0  0  0  0  0  0  0
  -24.6280  -11.6669   20.7799 C   0  0  0  0  0  0  0  0  0  0  0  0
  -28.6367  -15.5212   25.0308 C   0  0  0  0  0  0  0  0  0  0  0  0
  -28.7654  -13.5931   26.0801 C   0  0  0  0  0  0  0  0  0  0  0  0
  -25.2381  -13.7659   20.5409 C   0  0  0  0  0  0  0  0  0  0  0  0
  -22.8034  -13.4637   21.0202 C   0  0  0  0  0  0  0  0  0  0  0  0
  -22.3677  -17.5518   26.9953 C   0  0  0  0  0  0  0  0  0  0  0  0
  -20.9667  -16.6548   29.7801 C   0  0  0  0  0  0  0  0  0  0  0  0
  -20.5364  -14.2509   32.1640 C   0  0  0  0  0  0  0  0  0  0  0  0
  -31.1089  -12.9223   21.3615 C   0  0  0  0  0  0  0  0  0  0  0  0
  -21.5662  -22.5771   27.3980 C   0  0  0  0  0  0  0  0  0  0  0  0
  -21.3475  -15.3370   26.3549 C   0  0  0  0  0  0  0  0  0  0  0  0
  -22.8148  -15.1698   28.9169 C   0  0  0  0  0  0  0  0  0  0  0  0
  -22.0556  -21.4714   28.3298 C   0  0  0  0  0  0  0  0  0  0  0  0
  -29.4606  -13.6624   18.2935 C   0  0  0  0  0  0  0  0  0  0  0  0
  -23.1414  -20.6427   27.6508 C   0  0  0  0  0  0  0  0  0  0  0  0
  -27.9908  -13.3539   18.5843 C   0  0  0  0  0  0  0  0  0  0  0  0
  -30.3937  -12.6828   19.0019 C   0  0  0  0  0  0  0  0  0  0  0  0
  -28.7067  -12.2532   20.7464 C   0  0  0  0  0  0  0  0  0  0  0  0
  -22.6029  -19.9540   26.3910 C   0  0  1  0  0  0  0  0  0  0  0  0
  -21.3613  -16.4938   27.3495 C   0  0  1  0  0  0  0  0  0  0  0  0
  -27.7289  -13.2486   20.0988 C   0  0  2  0  0  0  0  0  0  0  0  0
  -27.4119  -16.7206   23.2011 C   0  0  0  0  0  0  0  0  0  0  0  0
  -19.3634  -13.8230   34.3408 C   0  0  0  0  0  0  0  0  0  0  0  0
  -32.0577  -13.2709   26.2567 C   0  0  0  0  0  0  0  0  0  0  0  0
  -23.0280  -18.3776   31.2268 C   0  0  0  0  0  0  0  0  0  0  0  0
  -22.4325  -17.1868   33.3471 C   0  0  0  0  0  0  0  0  0  0  0  0
  -20.7081  -18.5324   32.1478 C   0  0  0  0  0  0  0  0  0  0  0  0
  -18.9888  -12.0020   31.0212 C   0  0  0  0  0  0  0  0  0  0  0  0
  -28.2050  -16.8290   24.5094 C   0  0  0  0  0  0  0  0  0  0  0  0
  -28.6024  -12.3390   26.9011 C   0  0  0  0  0  0  0  0  0  0  0  0
  -27.9238  -11.1932   26.1472 C   0  0  0  0  0  0  0  0  0  0  0  0
  -31.6703  -13.1356   23.7695 C   0  0  0  0  0  0  0  0  0  0  0  0
  -26.4891  -11.5059   25.7379 C   0  0  0  0  0  0  0  0  0  1  0  0
  -21.4609  -16.3265   31.1683 C   0  0  1  0  0  0  0  0  0  0  0  0
  -19.2858  -13.7020   32.8268 C   0  0  2  0  0  0  0  0  0  0  0  0
  -31.0255  -12.9968   25.1577 C   0  0  2  0  0  0  0  0  0  0  0  0
  -21.9162  -17.5912   31.9497 C   0  0  0  0  0  0  0  0  0  0  0  0
  -25.9396  -11.6082   20.5346 N   0  0  0  0  0  0  0  0  0  0  0  0
  -29.8170  -15.0170   24.6608 N   0  0  0  0  0  0  0  0  0  0  0  0
  -29.8664  -13.8444   25.3154 N   0  0  0  0  0  0  0  0  0  0  0  0
  -26.2817  -12.9002   20.3937 N   0  0  0  0  0  0  0  0  0  0  0  0
  -21.6600  -16.0607   28.7160 N   0  0  0  0  0  0  0  0  0  0  0  0
  -30.0941  -12.6312   20.4349 N   0  0  0  0  0  0  0  0  0  0  0  0
  -25.4061  -15.1008   20.4307 N   0  0  0  0  0  0  0  0  0  0  0  0
  -21.7908  -12.5268   21.2673 N   0  0  0  0  0  0  0  0  0  0  0  0
  -21.8147  -18.7936   26.7471 N   0  0  0  0  0  0  0  0  0  0  0  0
  -20.3900  -15.5771   31.8162 N   0  0  0  0  0  0  0  0  0  0  0  0
  -30.7389  -12.8566   22.6992 N   0  0  0  0  0  0  0  0  0  0  0  0
  -19.1037  -12.2644   32.4789 N   0  3  0  0  0  0  0  0  0  0  0  0
  -22.5156  -14.6842   20.9860 O   0  0  0  0  0  0  0  0  0  0  0  0
  -23.5578  -17.2633   26.9520 O   0  0  0  0  0  0  0  0  0  0  0  0
  -19.9967  -17.4048   29.6451 O   0  0  0  0  0  0  0  0  0  0  0  0
  -21.5438  -13.5722   31.9772 O   0  0  0  0  0  0  0  0  0  0  0  0
  -32.2579  -13.2241   21.0216 O   0  0  0  0  0  0  0  0  0  0  0  0
  -21.7147   -6.9670   21.6112 O   0  0  0  0  0  0  0  0  0  0  0  0
  -25.7293  -11.7900   26.9119 O   0  0  0  0  0  0  0  0  0  1  0  0
  -18.1480   -6.8802   25.8154 F   0  0  0  0  0  0  0  0  0  0  0  0
  -21.9818   -5.1303   23.6600 F   0  0  0  0  0  0  0  0  0  0  0  0
  1  2  1  0  0  0  0
  1  5  2  0  0  0  0
  2  6  2  0  0  0  0
  3  8  2  0  0  0  0
  3 16  1  0  0  0  0
  4  9  1  0  0  0  0
  4 16  2  0  0  0  0
  5 18  1  0  0  0  0
  6 20  1  0  0  0  0
  7 10  2  0  0  0  0
  7 19  1  0  0  0  0
  8 22  1  0  0  0  0
  9 22  2  0  0  0  0
 10 23  1  0  0  0  0
 11 12  2  0  0  0  0
 11 24  1  0  0  0  0
 12 25  1  0  0  0  0
 13 21  1  0  0  0  0
 13 23  2  0  0  0  0
 14 25  2  0  0  0  0
 14 26  1  0  0  0  0
 15 28  1  0  0  0  0
 15 29  2  0  0  0  0
 16 27  1  0  0  0  0
 17 27  1  0  0  0  0
 17 30  2  0  0  0  0
 17 31  1  0  0  0  0
 18 20  2  0  0  0  0
 18 36  1  0  0  0  0
 19 21  2  0  0  0  0
 19 37  1  0  0  0  0
 20 45  1  0  0  0  0
 21 38  1  0  0  0  0
 22 81  1  0  0  0  0
 23 82  1  0  0  0  0
 24 26  2  0  0  0  0
 24 81  1  0  0  0  0
 25 83  1  0  0  0  0
 26 84  1  0  0  0  0
 27 64  2  0  0  0  0
 28 55  1  0  0  0  0
 28 65  2  0  0  0  0
 29 56  1  0  0  0  0
 29 66  1  0  0  0  0
 30 67  1  0  0  0  0
 30 70  1  0  0  0  0
 31 71  1  0  0  0  0
 31 76  2  0  0  0  0
 32 46  1  0  0  0  0
 32 72  1  0  0  0  0
 32 77  2  0  0  0  0
 33 60  1  0  0  0  0
 33 68  1  0  0  0  0
 33 78  2  0  0  0  0
 34 61  1  0  0  0  0
 34 73  1  0  0  0  0
 34 79  2  0  0  0  0
 35 69  1  0  0  0  0
 35 74  1  0  0  0  0
 35 80  2  0  0  0  0
 36 39  1  0  0  0  0
 37 46  1  0  0  0  0
 38 68  1  0  0  0  0
 39 41  1  0  0  0  0
 40 42  1  0  0  0  0
 40 43  1  0  0  0  0
 41 45  1  0  0  0  0
 42 47  1  0  0  0  0
 43 69  1  0  0  0  0
 44 47  1  0  0  0  0
 44 69  1  0  0  0  0
 45 72  1  0  0  0  0
 46 68  1  0  0  0  0
 47 67  1  0  0  0  0
 48 55  1  0  0  0  0
 49 61  1  0  0  0  0
 50 62  1  0  0  0  0
 51 63  1  0  0  0  0
 52 63  1  0  0  0  0
 53 63  1  0  0  0  0
 54 75  1  0  0  0  0
 56 57  1  0  0  0  0
 57 59  1  0  0  0  0
 58 62  1  0  0  0  0
 58 74  1  0  0  0  0
 59 82  1  0  0  0  0
 60 63  1  0  0  0  0
 60 73  1  0  0  0  0
 61 75  1  0  0  0  0
 62 66  1  0  0  0  0
 64 67  1  0  0  0  0
 65 66  1  0  0  0  0
M  CHG  1  75   1
M  ISO  4  35 100  59 101  74 100  82 101
M  END
> <Batch ID>
0090

> <Smiles>
CCc1cc(CC[101CH2:1][101O:1]c2ccc3c(c2)CN(C(=O)C(NC(=O)C(C)NC)C(C)(C)C)C(C(=O)NC2CCCc4ccccc42)C3)n(C(C)C[100NH:0][100C:0](=O)N2CCCC(n3nc(-c4ccc(Oc5ccc(F)cc5F)cc4)c(C(N)=O)c3N)C2)n1

> <Shape>
0.134

> <Color>
0.174

> <Negative vol penalty>
0.000

$$$$

  -OEChem-04052319093D

 91 99  0     1  0  0  0  0  0999 V2000
  -26.3403  -34.5091   20.2776 C   0  0  0  0  0  0  0  0  0  0  0  0
  -26.7758  -33.1909   20.3672 C   0  0  0  0  0  0  0  0  0  0  0  0
  -26.5005  -12.9084   21.1817 C   0  0  0  0  0  0  0  0  0  0  0  0
  -26.2085  -13.4488   18.8451 C   0  0  0  0  0  0  0  0  0  0  0  0
  -25.2145  -34.9201   20.9899 C   0  0  0  0  0  0  0  0  0  0  0  0
  -26.0863  -32.2831   21.1702 C   0  0  0  0  0  0  0  0  0  0  0  0
  -25.3606  -27.8249   18.8803 C   0  0  0  0  0  0  0  0  0  0  0  0
  -25.9706  -11.6384   20.9542 C   0  0  0  0  0  0  0  0  0  0  0  0
  -25.6786  -12.1787   18.6176 C   0  0  0  0  0  0  0  0  0  0  0  0
  -26.4445  -26.9493   18.8335 C   0  0  0  0  0  0  0  0  0  0  0  0
  -24.3609   -8.3793   21.0584 C   0  0  0  0  0  0  0  0  0  0  0  0
  -23.4199   -7.8952   21.9671 C   0  0  0  0  0  0  0  0  0  0  0  0
  -25.5264  -25.7230   20.6970 C   0  0  0  0  0  0  0  0  0  0  0  0
  -21.9727   -9.7632   21.4636 C   0  0  0  0  0  0  0  0  0  0  0  0
  -30.9827  -24.3168   19.0260 C   0  0  0  0  0  0  0  0  0  0  0  0
  -26.6194  -13.8136   20.1271 C   0  0  0  0  0  0  0  0  0  0  0  0
  -28.5182  -15.5103   20.2813 C   0  0  0  0  0  0  0  0  0  0  0  0
  -24.5051  -34.0144   21.7944 C   0  0  0  0  0  0  0  0  0  0  0  0
  -24.3553  -27.6624   19.8444 C   0  0  0  0  0  0  0  0  0  0  0  0
  -24.9506  -32.6826   21.8950 C   0  0  0  0  0  0  0  0  0  0  0  0
  -24.4295  -26.5964   20.7523 C   0  0  0  0  0  0  0  0  0  0  0  0
  -25.5596  -11.2735   19.6722 C   0  0  0  0  0  0  0  0  0  0  0  0
  -26.5290  -25.8998   19.7438 C   0  0  0  0  0  0  0  0  0  0  0  0
  -24.1078   -9.5553   20.3523 C   0  0  0  0  0  0  0  0  0  0  0  0
  -22.2258   -8.5871   22.1698 C   0  0  0  0  0  0  0  0  0  0  0  0
  -22.9137  -10.2473   20.5549 C   0  0  0  0  0  0  0  0  0  0  0  0
  -27.1663  -15.1259   20.3616 C   0  0  0  0  0  0  0  0  0  0  0  0
  -31.4380  -22.9849   19.0007 C   0  0  0  0  0  0  0  0  0  0  0  0
  -29.6323  -24.2224   18.7937 C   0  0  0  0  0  0  0  0  0  0  0  0
  -28.5135  -16.8486   20.5905 C   0  0  0  0  0  0  0  0  0  0  0  0
  -29.6747  -14.7277   19.9562 C   0  0  0  0  0  0  0  0  0  0  0  0
  -23.2450  -29.4237   22.2462 C   0  0  0  0  0  0  0  0  0  0  0  0
  -21.0286  -27.0630   22.4389 C   0  0  0  0  0  0  0  0  0  0  0  0
  -20.1929  -23.8151   21.8071 C   0  0  0  0  0  0  0  0  0  0  0  0
  -24.3293  -21.1123   20.1866 C   0  0  0  0  0  0  0  0  0  0  0  0
  -23.3216  -34.5167   22.5829 C   0  0  0  0  0  0  0  0  0  0  0  0
  -23.1791  -28.5997   19.8645 C   0  0  0  0  0  0  0  0  0  0  0  0
  -23.3661  -26.3664   21.7938 C   0  0  0  0  0  0  0  0  0  0  0  0
  -22.4275  -33.4006   23.1169 C   0  0  0  0  0  0  0  0  0  0  0  0
  -26.0774  -20.0992   23.1182 C   0  0  0  0  0  0  0  0  0  0  0  0
  -23.2698  -32.3032   23.7596 C   0  0  0  0  0  0  0  0  0  0  0  0
  -26.6767  -18.7444   22.7369 C   0  0  0  0  0  0  0  0  0  0  0  0
  -24.6965  -20.3002   22.4979 C   0  0  0  0  0  0  0  0  0  0  0  0
  -25.2401  -18.7570   20.6549 C   0  0  0  0  0  0  0  0  0  0  0  0
  -24.2147  -31.6621   22.7360 C   0  0  1  0  0  0  0  0  0  0  0  0
  -22.4748  -28.6457   21.2170 C   0  0  1  0  0  0  0  0  0  0  0  0
  -26.6565  -18.5318   21.2113 C   0  0  2  0  0  0  0  0  0  0  0  0
  -18.3268  -22.1656   22.1143 C   0  0  0  0  0  0  0  0  0  0  0  0
  -31.4810  -18.0706   25.2163 C   0  0  0  0  0  0  0  0  0  0  0  0
  -33.8308  -18.8389   24.8311 C   0  0  0  0  0  0  0  0  0  0  0  0
  -21.7613  -26.7871   25.3879 C   0  0  0  0  0  0  0  0  0  0  0  0
  -20.6044  -24.5668   25.3958 C   0  0  0  0  0  0  0  0  0  0  0  0
  -19.3120  -26.6428   24.9036 C   0  0  0  0  0  0  0  0  0  0  0  0
  -19.8990  -23.4279   18.8877 C   0  0  0  0  0  0  0  0  0  0  0  0
  -25.9629  -21.4974   15.3393 C   0  0  0  0  0  0  0  0  0  0  0  0
  -32.8168  -22.5042   19.1915 C   0  0  0  0  0  0  0  0  0  0  0  0
  -28.5726  -25.2802   18.6970 C   0  0  0  0  0  0  0  0  0  1  0  0
  -33.2020  -22.1838   20.6556 C   0  0  0  0  0  0  0  0  0  0  0  0
  -32.3557  -21.0550   21.2527 C   0  0  0  0  0  0  0  0  0  0  0  0
  -32.7795  -20.7458   22.6913 C   0  0  0  0  0  0  0  0  0  0  0  0
  -31.9540  -19.5960   23.2769 C   0  0  0  0  0  0  0  0  0  0  0  0
  -28.0873  -22.2822   18.3898 C   0  0  0  0  0  0  0  0  0  0  0  0
  -24.0285  -21.7870   17.8173 C   0  0  0  0  0  0  0  0  0  0  0  0
  -27.6225  -22.4263   16.9466 C   0  0  0  0  0  0  0  0  0  0  0  0
  -25.1851  -22.6725   17.3926 C   0  0  0  0  0  0  0  0  0  0  0  0
  -20.9271  -25.7494   23.1758 C   0  0  1  0  0  0  0  0  0  0  0  0
  -18.9528  -23.1963   21.1876 C   0  0  2  0  0  0  0  0  0  0  0  0
  -32.3551  -19.2234   24.7161 C   0  0  0  0  0  0  0  0  0  0  0  0
  -20.6724  -25.9418   24.6975 C   0  0  0  0  0  0  0  0  0  0  0  0
  -26.3614  -16.1381   20.6958 N   0  0  0  0  0  0  0  0  0  0  0  0
  -30.4565  -22.1087   18.7707 N   0  0  0  0  0  0  0  0  0  0  0  0
  -29.3710  -22.8916   18.6494 N   0  0  0  0  0  0  0  0  0  0  0  0
  -27.2100  -17.1717   20.8283 N   0  0  0  0  0  0  0  0  0  0  0  0
  -22.2391  -27.3135   21.7771 N   0  0  0  0  0  0  0  0  0  0  0  0
  -24.7466  -20.0857   21.0497 N   0  0  0  0  0  0  0  0  0  0  0  0
  -29.4974  -17.7686   20.6796 N   0  0  0  0  0  0  0  0  0  0  0  0
  -29.5008  -13.3680   19.6643 N   0  0  0  0  0  0  0  0  0  0  0  0
  -23.4915  -30.7362   21.8910 N   0  0  0  0  0  0  0  0  0  0  0  0
  -19.8975  -24.9755   22.4908 N   0  0  0  0  0  0  0  0  0  0  0  0
  -24.4150  -20.8289   18.8290 N   0  0  0  0  0  0  0  0  0  0  0  0
  -19.2957  -22.5254   19.9019 N   0  3  0  0  0  0  0  0  0  0  0  0
  -26.2751  -21.8289   16.7781 N   0  3  1  0  0  0  0  0  0  0  0  0
  -30.8301  -15.2159   19.9416 O   0  0  0  0  0  0  0  0  0  0  0  0
  -23.5888  -28.8743   23.2862 O   0  0  0  0  0  0  0  0  0  0  0  0
  -20.0667  -27.8352   22.4440 O   0  0  0  0  0  0  0  0  0  0  0  0
  -21.3111  -23.3167   21.6986 O   0  0  0  0  0  0  0  0  0  0  0  0
  -23.9163  -22.2028   20.5956 O   0  0  0  0  0  0  0  0  0  0  0  0
  -25.0427  -10.0342   19.4498 O   0  0  0  0  0  0  0  0  0  0  0  0
  -27.5862  -25.0440   19.7008 O   0  0  0  0  0  0  0  0  0  1  0  0
  -21.3217   -8.1213   23.0413 F   0  0  0  0  0  0  0  0  0  0  0  0
  -22.6645  -11.3770   19.8786 F   0  0  0  0  0  0  0  0  0  0  0  0
  1  2  1  0  0  0  0
  1  5  2  0  0  0  0
  2  6  2  0  0  0  0
  3  8  2  0  0  0  0
  3 16  1  0  0  0  0
  4  9  1  0  0  0  0
  4 16  2  0  0  0  0
  5 18  1  0  0  0  0
  6 20  1  0  0  0  0
  7 10  2  0  0  0  0
  7 19  1  0  0  0  0
  8 22  1  0  0  0  0
  9 22  2  0  0  0  0
 10 23  1  0  0  0  0
 11 12  2  0  0  0  0
 11 24  1  0  0  0  0
 12 25  1  0  0  0  0
 13 21  1  0  0  0  0
 13 23  2  0  0  0  0
 14 25  2  0  0  0  0
 14 26  1  0  0  0  0
 15 28  1  0  0  0  0
 15 29  2  0  0  0  0
 16 27  1  0  0  0  0
 17 27  1  0  0  0  0
 17 30  2  0  0  0  0
 17 31  1  0  0  0  0
 18 20  2  0  0  0  0
 18 36  1  0  0  0  0
 19 21  2  0  0  0  0
 19 37  1  0  0  0  0
 20 45  1  0  0  0  0
 21 38  1  0  0  0  0
 22 88  1  0  0  0  0
 23 89  1  0  0  0  0
 24 26  2  0  0  0  0
 24 88  1  0  0  0  0
 25 90  1  0  0  0  0
 26 91  1  0  0  0  0
 27 70  2  0  0  0  0
 28 56  1  0  0  0  0
 28 71  2  0  0  0  0
 29 57  1  0  0  0  0
 29 72  1  0  0  0  0
 30 73  1  0  0  0  0
 30 76  1  0  0  0  0
 31 77  1  0  0  0  0
 31 83  2  0  0  0  0
 32 46  1  0  0  0  0
 32 78  1  0  0  0  0
 32 84  2  0  0  0  0
 33 66  1  0  0  0  0
 33 74  1  0  0  0  0
 33 85  2  0  0  0  0
 34 67  1  0  0  0  0
 34 79  1  0  0  0  0
 34 86  2  0  0  0  0
 35 75  1  0  0  0  0
 35 80  1  0  0  0  0
 35 87  2  0  0  0  0
 36 39  1  0  0  0  0
 37 46  1  0  0  0  0
 38 74  1  0  0  0  0
 39 41  1  0  0  0  0
 40 42  1  0  0  0  0
 40 43  1  0  0  0  0
 41 45  1  0  0  0  0
 42 47  1  0  0  0  0
 43 75  1  0  0  0  0
 44 47  1  0  0  0  0
 44 75  1  0  0  0  0
 45 78  1  0  0  0  0
 46 74  1  0  0  0  0
 47 73  1  0  0  0  0
 48 67  1  0  0  0  0
 49 68  1  0  0  0  0
 50 68  1  0  0  0  0
 51 69  1  0  0  0  0
 52 69  1  0  0  0  0
 53 69  1  0  0  0  0
 54 81  1  0  0  0  0
 55 82  1  0  0  0  0
 56 58  1  0  0  0  0
 57 89  1  0  0  0  0
 58 59  1  0  0  0  0
 59 60  1  0  0  0  0
 60 61  1  0  0  0  0
 61 68  1  0  0  0  0
 62 64  1  0  0  0  0
 62 72  1  0  0  0  0
 63 65  1  0  0  0  0
 63 80  1  0  0  0  0
 64 82  1  0  0  0  0
 65 82  1  0  0  0  0
 66 69  1  0  0  0  0
 66 79  1  0  0  0  0
 67 81  1  0  0  0  0
 70 73  1  0  0  0  0
 71 72  1  0  0  0  0
M  CHG  2  81   1  82   1
M  ISO  4  35 100  57 101  80 100  89 101
M  END
> <Batch ID>
0090

> <Smiles>
CNC(C)C(=O)NC(C(=O)N1Cc2cc([101O:1][101CH2:1]c3cc(CCCCCC(C)C)nn3CCN(C)CC[100NH:0][100C:0](=O)N3CCCC(n4nc(-c5ccc(Oc6ccc(F)cc6F)cc5)c(C(N)=O)c4N)C3)ccc2CC1C(=O)NC1CCCc2ccccc21)C(C)(C)C

> <Shape>
0.220

> <Color>
0.055

> <Negative vol penalty>
0.000

$$$$

  -OEChem-04052319093D

 83 91  0     1  0  0  0  0  0999 V2000
  -30.9508  -23.2723   23.0716 C   0  0  0  0  0  0  0  0  0  0  0  0
  -31.2794  -24.5733   22.7081 C   0  0  0  0  0  0  0  0  0  0  0  0
  -26.8481  -13.4097   21.1586 C   0  0  0  0  0  0  0  0  0  0  0  0
  -25.2289  -15.0950   20.5461 C   0  0  0  0  0  0  0  0  0  0  0  0
  -30.1978  -22.4803   22.2073 C   0  0  0  0  0  0  0  0  0  0  0  0
  -30.8450  -25.0869   21.4856 C   0  0  0  0  0  0  0  0  0  0  0  0
  -24.5046  -27.9115   18.1574 C   0  0  0  0  0  0  0  0  0  0  0  0
  -25.8484  -12.4376   21.1267 C   0  0  0  0  0  0  0  0  0  0  0  0
  -24.2291  -14.1228   20.5142 C   0  0  0  0  0  0  0  0  0  0  0  0
  -23.1725  -27.5651   18.3792 C   0  0  0  0  0  0  0  0  0  0  0  0
  -22.3114  -12.4476   22.7382 C   0  0  0  0  0  0  0  0  0  0  0  0
  -21.0939  -12.7498   23.3481 C   0  0  0  0  0  0  0  0  0  0  0  0
  -23.5845  -27.5264   20.7558 C   0  0  0  0  0  0  0  0  0  0  0  0
  -19.9610  -12.4493   21.2354 C   0  0  0  0  0  0  0  0  0  0  0  0
  -24.7217  -22.4522   21.5734 C   0  0  0  0  0  0  0  0  0  0  0  0
  -25.0536  -24.0579   23.6802 C   0  0  0  0  0  0  0  0  0  0  0  0
  -26.5384  -14.7385   20.8683 C   0  0  0  0  0  0  0  0  0  0  0  0
  -28.3961  -16.1495   19.8362 C   0  0  0  0  0  0  0  0  0  0  0  0
  -29.7649  -22.9810   20.9684 C   0  0  0  0  0  0  0  0  0  0  0  0
  -25.3909  -28.0576   19.2343 C   0  0  0  0  0  0  0  0  0  0  0  0
  -30.0637  -24.3113   20.6100 C   0  0  0  0  0  0  0  0  0  0  0  0
  -24.9268  -27.8772   20.5451 C   0  0  0  0  0  0  0  0  0  0  0  0
  -24.5389  -12.7941   20.8045 C   0  0  0  0  0  0  0  0  0  0  0  0
  -22.7130  -27.3696   19.6783 C   0  0  0  0  0  0  0  0  0  0  0  0
  -22.3537  -12.1463   21.3769 C   0  0  0  0  0  0  0  0  0  0  0  0
  -19.9187  -12.7506   22.5967 C   0  0  0  0  0  0  0  0  0  0  0  0
  -21.1786  -12.1471   20.6255 C   0  0  0  0  0  0  0  0  0  0  0  0
  -27.5705  -15.7433   20.9016 C   0  0  0  0  0  0  0  0  0  0  0  0
  -23.9065  -23.5451   21.7696 C   0  0  0  0  0  0  0  0  0  0  0  0
  -25.8684  -22.9646   23.4845 C   0  0  0  0  0  0  0  0  0  0  0  0
  -29.2017  -17.1215   20.3773 C   0  0  0  0  0  0  0  0  0  0  0  0
  -28.4316  -15.6896   18.4786 C   0  0  0  0  0  0  0  0  0  0  0  0
  -28.0663  -26.6061   20.1503 C   0  0  0  0  0  0  0  0  0  0  0  0
  -28.0951  -28.9345   22.4086 C   0  0  0  0  0  0  0  0  0  0  0  0
  -26.3352  -31.2026   24.2540 C   0  0  0  0  0  0  0  0  0  0  0  0
  -28.5481  -20.8360   25.0277 C   0  0  0  0  0  0  0  0  0  0  0  0
  -28.9459  -22.0831   20.0750 C   0  0  0  0  0  0  0  0  0  0  0  0
  -26.8183  -28.4578   18.9799 C   0  0  0  0  0  0  0  0  0  0  0  0
  -25.8329  -28.0418   21.7369 C   0  0  0  0  0  0  0  0  0  0  0  0
  -28.9113  -22.5577   18.6259 C   0  0  0  0  0  0  0  0  0  0  0  0
  -31.1659  -18.4758   24.5245 C   0  0  0  0  0  0  0  0  0  0  0  0
  -28.5566  -24.0361   18.5715 C   0  0  0  0  0  0  0  0  0  0  0  0
  -30.6158  -17.5445   23.4428 C   0  0  0  0  0  0  0  0  0  0  0  0
  -30.0703  -18.9357   25.4838 C   0  0  0  0  0  0  0  0  0  0  0  0
  -28.3452  -18.6155   23.7531 C   0  0  0  0  0  0  0  0  0  0  0  0
  -29.6282  -24.8810   19.2721 C   0  0  1  0  0  0  0  0  0  0  0  0
  -27.7580  -28.0764   20.1196 C   0  0  1  0  0  0  0  0  0  0  0  0
  -29.4025  -18.1698   22.7285 C   0  0  2  0  0  0  0  0  0  0  0  0
  -26.6273  -32.9365   26.0445 C   0  0  0  0  0  0  0  0  0  0  0  0
  -19.8197  -26.1353   18.3427 C   0  0  0  0  0  0  0  0  0  0  0  0
  -28.3433  -26.7280   24.5014 C   0  0  0  0  0  0  0  0  0  0  0  0
  -27.6802  -28.4006   26.2423 C   0  0  0  0  0  0  0  0  0  0  0  0
  -29.7732  -28.7352   24.9270 C   0  0  0  0  0  0  0  0  0  0  0  0
  -25.3604  -33.3637   22.4824 C   0  0  0  0  0  0  0  0  0  0  0  0
  -22.8021  -23.8617   20.7928 C   0  0  0  0  0  0  0  0  0  0  0  0
  -26.9589  -22.6522   24.4486 C   0  0  0  0  0  0  0  0  0  0  0  0
  -21.5965  -24.5642   21.4283 C   0  0  0  0  0  0  0  0  0  0  0  0
  -20.4805  -24.8687   20.4194 C   0  0  0  0  0  0  0  0  0  0  0  0
  -27.5347  -29.0784   23.8030 C   0  0  1  0  0  0  0  0  0  0  0  0
  -26.5827  -32.6713   24.5477 C   0  0  2  0  0  0  0  0  0  0  0  0
  -20.9511  -25.8151   19.3104 C   0  0  2  0  0  0  0  0  0  1  0  0
  -28.3160  -28.2305   24.8461 C   0  0  0  0  0  0  0  0  0  0  0  0
  -24.0580  -24.3678   22.8263 N   0  0  0  0  0  0  0  0  0  0  0  0
  -25.7171  -22.1421   22.4275 N   0  0  0  0  0  0  0  0  0  0  0  0
  -27.8281  -16.4030   22.0340 N   0  0  0  0  0  0  0  0  0  0  0  0
  -28.8246  -17.2336   21.6832 N   0  0  0  0  0  0  0  0  0  0  0  0
  -27.2215  -28.4277   21.4361 N   0  0  0  0  0  0  0  0  0  0  0  0
  -28.9497  -19.5204   24.7432 N   0  0  0  0  0  0  0  0  0  0  0  0
  -30.1888  -17.8824   19.8588 N   0  0  0  0  0  0  0  0  0  0  0  0
  -27.5345  -14.6853   18.0898 N   0  0  0  0  0  0  0  0  0  0  0  0
  -29.1569  -26.2439   19.3830 N   0  0  0  0  0  0  0  0  0  0  0  0
  -27.5154  -30.5088   24.0896 N   0  0  0  0  0  0  0  0  0  0  0  0
  -27.4824  -21.3154   24.2759 N   0  0  0  0  0  0  0  0  0  0  0  0
  -25.5012  -33.5076   23.9543 N   0  3  0  0  0  0  0  0  0  0  0  0
  -29.2460  -16.1437   17.6396 O   0  0  0  0  0  0  0  0  0  0  0  0
  -27.3674  -25.8561   20.8217 O   0  0  0  0  0  0  0  0  0  0  0  0
  -29.2626  -29.2665   22.1888 O   0  0  0  0  0  0  0  0  0  0  0  0
  -25.2079  -30.7185   24.1817 O   0  0  0  0  0  0  0  0  0  0  0  0
  -29.1018  -21.5337   25.8842 O   0  0  0  0  0  0  0  0  0  0  0  0
  -23.5631  -11.8457   20.7731 O   0  0  0  0  0  0  0  0  0  0  0  0
  -21.4133  -27.0308   19.8976 O   0  0  0  0  0  0  0  0  0  1  0  0
  -18.7494  -13.0393   23.1828 F   0  0  0  0  0  0  0  0  0  0  0  0
  -21.2128  -11.8573   19.3176 F   0  0  0  0  0  0  0  0  0  0  0  0
  1  2  1  0  0  0  0
  1  5  2  0  0  0  0
  2  6  2  0  0  0  0
  3  8  2  0  0  0  0
  3 17  1  0  0  0  0
  4  9  1  0  0  0  0
  4 17  2  0  0  0  0
  5 19  1  0  0  0  0
  6 21  1  0  0  0  0
  7 10  2  0  0  0  0
  7 20  1  0  0  0  0
  8 23  1  0  0  0  0
  9 23  2  0  0  0  0
 10 24  1  0  0  0  0
 11 12  2  0  0  0  0
 11 25  1  0  0  0  0
 12 26  1  0  0  0  0
 13 22  1  0  0  0  0
 13 24  2  0  0  0  0
 14 26  2  0  0  0  0
 14 27  1  0  0  0  0
 15 29  1  0  0  0  0
 15 64  2  0  0  0  0
 16 30  2  0  0  0  0
 16 63  1  0  0  0  0
 17 28  1  0  0  0  0
 18 28  1  0  0  0  0
 18 31  2  0  0  0  0
 18 32  1  0  0  0  0
 19 21  2  0  0  0  0
 19 37  1  0  0  0  0
 20 22  2  0  0  0  0
 20 38  1  0  0  0  0
 21 46  1  0  0  0  0
 22 39  1  0  0  0  0
 23 80  1  0  0  0  0
 24 81  1  0  0  0  0
 25 27  2  0  0  0  0
 25 80  1  0  0  0  0
 26 82  1  0  0  0  0
 27 83  1  0  0  0  0
 28 65  2  0  0  0  0
 29 55  1  0  0  0  0
 29 63  2  0  0  0  0
 30 56  1  0  0  0  0
 30 64  1  0  0  0  0
 31 66  1  0  0  0  0
 31 69  1  0  0  0  0
 32 70  1  0  0  0  0
 32 75  2  0  0  0  0
 33 47  1  0  0  0  0
 33 71  1  0  0  0  0
 33 76  2  0  0  0  0
 34 59  1  0  0  0  0
 34 67  1  0  0  0  0
 34 77  2  0  0  0  0
 35 60  1  0  0  0  0
 35 72  1  0  0  0  0
 35 78  2  0  0  0  0
 36 68  1  0  0  0  0
 36 73  1  0  0  0  0
 36 79  2  0  0  0  0
 37 40  1  0  0  0  0
 38 47  1  0  0  0  0
 39 67  1  0  0  0  0
 40 42  1  0  0  0  0
 41 43  1  0  0  0  0
 41 44  1  0  0  0  0
 42 46  1  0  0  0  0
 43 48  1  0  0  0  0
 44 68  1  0  0  0  0
 45 48  1  0  0  0  0
 45 68  1  0  0  0  0
 46 71  1  0  0  0  0
 47 67  1  0  0  0  0
 48 66  1  0  0  0  0
 49 60  1  0  0  0  0
 50 61  1  0  0  0  0
 51 62  1  0  0  0  0
 52 62  1  0  0  0  0
 53 62  1  0  0  0  0
 54 74  1  0  0  0  0
 55 57  1  0  0  0  0
 56 73  1  0  0  0  0
 57 58  1  0  0  0  0
 58 61  1  0  0  0  0
 59 62  1  0  0  0  0
 59 72  1  0  0  0  0
 60 74  1  0  0  0  0
 61 81  1  0  0  0  0
 65 66  1  0  0  0  0
M  CHG  1  74   1
M  ISO  4  36 100  61 101  73 100  81 101
M  END
> <Batch ID>
0090

> <Smiles>
CNC(C)C(=O)NC(C(=O)N1Cc2cc([101O:1][101CH:1](C)CCCc3cnc(C[100NH:0][100C:0](=O)N4CCCC(n5nc(-c6ccc(Oc7ccc(F)cc7F)cc6)c(C(N)=O)c5N)C4)cn3)ccc2CC1C(=O)NC1CCCc2ccccc21)C(C)(C)C

> <Shape>
0.221

> <Color>
0.056

> <Negative vol penalty>
0.000

$$$$

  -OEChem-04052319093D

 88 96  0     1  0  0  0  0  0999 V2000
  -28.8487  -33.9901   22.0100 C   0  0  0  0  0  0  0  0  0  0  0  0
  -28.2229  -32.8997   22.6056 C   0  0  0  0  0  0  0  0  0  0  0  0
  -22.9195   -9.9317   20.0141 C   0  0  0  0  0  0  0  0  0  0  0  0
  -23.6574   -9.9671   22.3144 C   0  0  0  0  0  0  0  0  0  0  0  0
  -29.3513  -33.8817   20.7140 C   0  0  0  0  0  0  0  0  0  0  0  0
  -28.0984  -31.7004   21.9051 C   0  0  0  0  0  0  0  0  0  0  0  0
  -27.9873  -24.6135   22.9442 C   0  0  0  0  0  0  0  0  0  0  0  0
  -22.1186   -8.8231   20.2881 C   0  0  0  0  0  0  0  0  0  0  0  0
  -22.8565   -8.8585   22.5884 C   0  0  0  0  0  0  0  0  0  0  0  0
  -27.2093  -23.4941   22.6518 C   0  0  0  0  0  0  0  0  0  0  0  0
  -22.9920   -5.5119   22.1267 C   0  0  0  0  0  0  0  0  0  0  0  0
  -23.5506   -4.4790   22.8794 C   0  0  0  0  0  0  0  0  0  0  0  0
  -28.1858  -23.3985   20.4480 C   0  0  0  0  0  0  0  0  0  0  0  0
  -28.4686  -18.7144   21.6605 C   0  0  0  0  0  0  0  0  0  0  0  0
  -21.8437   -4.7822   24.5622 C   0  0  0  0  0  0  0  0  0  0  0  0
  -23.6890  -10.5037   21.0273 C   0  0  0  0  0  0  0  0  0  0  0  0
  -24.1533  -13.0052   20.8408 C   0  0  0  0  0  0  0  0  0  0  0  0
  -29.2414  -32.6776   20.0008 C   0  0  0  0  0  0  0  0  0  0  0  0
  -28.8639  -25.1412   21.9852 C   0  0  0  0  0  0  0  0  0  0  0  0
  -28.5988  -31.5762   20.5978 C   0  0  0  0  0  0  0  0  0  0  0  0
  -28.9757  -24.5231   20.7316 C   0  0  0  0  0  0  0  0  0  0  0  0
  -27.2224  -18.9409   21.0259 C   0  0  0  0  0  0  0  0  0  0  0  0
  -22.0870   -8.2865   21.5752 C   0  0  0  0  0  0  0  0  0  0  0  0
  -27.3063  -22.8882   21.4026 C   0  0  0  0  0  0  0  0  0  0  0  0
  -21.8593   -6.1801   22.5918 C   0  0  0  0  0  0  0  0  0  0  0  0
  -22.9764   -4.1141   24.0972 C   0  0  0  0  0  0  0  0  0  0  0  0
  -21.2851   -5.8152   23.8095 C   0  0  0  0  0  0  0  0  0  0  0  0
  -24.5170  -11.6486   20.7448 C   0  0  0  0  0  0  0  0  0  0  0  0
  -29.3225  -18.1905   20.7151 C   0  0  0  0  0  0  0  0  0  0  0  0
  -27.3526  -18.5484   19.7120 C   0  0  0  0  0  0  0  0  0  0  0  0
  -25.2837  -13.6908   20.4685 C   0  0  0  0  0  0  0  0  0  0  0  0
  -22.9053  -13.5929   21.2316 C   0  0  0  0  0  0  0  0  0  0  0  0
  -29.1125  -27.9197   20.4614 C   0  0  0  0  0  0  0  0  0  0  0  0
  -31.8592  -26.6121   19.3353 C   0  0  0  0  0  0  0  0  0  0  0  0
  -33.6499  -23.7938   18.6298 C   0  0  0  0  0  0  0  0  0  0  0  0
  -30.8082  -14.4507   20.6870 C   0  0  0  0  0  0  0  0  0  0  0  0
  -29.7580  -32.6228   18.5849 C   0  0  0  0  0  0  0  0  0  0  0  0
  -29.7158  -26.3332   22.3255 C   0  0  0  0  0  0  0  0  0  0  0  0
  -29.9164  -25.0386   19.6744 C   0  0  0  0  0  0  0  0  0  0  0  0
  -29.9185  -31.2023   18.0496 C   0  0  0  0  0  0  0  0  0  0  0  0
  -29.5792  -12.0569   18.3554 C   0  0  0  0  0  0  0  0  0  0  0  0
  -28.6801  -30.3697   18.3655 C   0  0  0  0  0  0  0  0  0  0  0  0
  -28.1253  -11.8448   18.7810 C   0  0  0  0  0  0  0  0  0  0  0  0
  -30.4947  -12.2674   19.5594 C   0  0  0  0  0  0  0  0  0  0  0  0
  -28.6176  -13.1277   20.9048 C   0  0  0  0  0  0  0  0  0  0  0  0
  -28.4665  -30.2509   19.8794 C   0  0  1  0  0  0  0  0  0  0  0  0
  -30.1971  -27.0947   21.0943 C   0  0  1  0  0  0  0  0  0  0  0  0
  -27.6472  -12.9668   19.7221 C   0  0  2  0  0  0  0  0  0  0  0  0
  -26.3671  -18.5673   18.6100 C   0  0  0  0  0  0  0  0  0  0  0  0
  -25.4759  -18.6004   22.8050 C   0  0  0  0  0  0  0  0  0  0  0  0
  -31.6670  -18.9587   21.2018 C   0  0  0  0  0  0  0  0  0  0  0  0
  -35.8486  -23.0428   17.6816 C   0  0  0  0  0  0  0  0  0  0  0  0
  -31.3976  -17.4216   16.1798 C   0  0  0  0  0  0  0  0  0  0  0  0
  -30.3622  -19.4003   15.0512 C   0  0  0  0  0  0  0  0  0  0  0  0
  -30.8580  -27.2406   16.5224 C   0  0  0  0  0  0  0  0  0  0  0  0
  -32.5818  -25.6589   15.6307 C   0  0  0  0  0  0  0  0  0  0  0  0
  -33.2902  -27.6928   16.8894 C   0  0  0  0  0  0  0  0  0  0  0  0
  -34.4167  -22.4603   21.1581 C   0  0  0  0  0  0  0  0  0  0  0  0
  -29.5194  -18.7178   17.3172 C   0  0  0  0  0  0  0  0  0  0  0  0
  -29.1757  -17.5886   18.2908 C   0  0  0  0  0  0  0  0  0  0  0  0
  -30.9662  -16.6297   21.8643 C   0  0  0  0  0  0  0  0  0  0  0  0
  -26.2031  -20.9390   22.2023 C   0  0  0  0  0  0  0  0  0  1  0  0
  -25.9755  -19.5132   21.6817 C   0  0  1  0  0  0  0  0  0  0  0  0
  -30.7349  -17.7762   20.8415 C   0  0  1  0  0  0  0  0  0  0  0  0
  -32.2299  -25.7682   18.1398 C   0  0  1  0  0  0  0  0  0  0  0  0
  -35.0834  -23.4061   18.9446 C   0  0  2  0  0  0  0  0  0  0  0  0
  -30.1050  -18.2154   15.9853 C   0  0  0  0  0  0  0  0  0  0  0  0
  -32.2207  -26.5813   16.8146 C   0  0  0  0  0  0  0  0  0  0  0  0
  -25.7796  -11.4804   20.3428 N   0  0  0  0  0  0  0  0  0  0  0  0
  -28.6332  -18.0938   19.5345 N   0  0  0  0  0  0  0  0  0  0  0  0
  -26.2192  -12.7403   20.1829 N   0  0  0  0  0  0  0  0  0  0  0  0
  -30.7236  -26.2102   20.0528 N   0  0  0  0  0  0  0  0  0  0  0  0
  -29.9862  -13.3457   20.4105 N   0  0  0  0  0  0  0  0  0  0  0  0
  -25.5588  -15.0081   20.3607 N   0  0  0  0  0  0  0  0  0  0  0  0
  -21.8477  -12.7432   21.5832 N   0  0  0  0  0  0  0  0  0  0  0  0
  -29.3755  -29.2761   20.4431 N   0  0  0  0  0  0  0  0  0  0  0  0
  -33.5155  -25.1550   18.4557 N   0  0  0  0  0  0  0  0  0  0  0  0
  -30.2467  -15.4306   21.4964 N   0  0  0  0  0  0  0  0  0  0  0  0
  -35.1129  -22.2346   19.8653 N   0  3  0  0  0  0  0  0  0  0  0  0
  -22.7282  -14.8346   21.2522 O   0  0  0  0  0  0  0  0  0  0  0  0
  -28.1118  -27.3664   20.0208 O   0  0  0  0  0  0  0  0  0  0  0  0
  -32.5558  -27.5877   19.6263 O   0  0  0  0  0  0  0  0  0  0  0  0
  -32.7410  -22.9711   18.5430 O   0  0  0  0  0  0  0  0  0  0  0  0
  -31.9555  -14.5586   20.2408 O   0  0  0  0  0  0  0  0  0  0  0  0
  -21.3054   -7.2048   21.8429 O   0  0  0  0  0  0  0  0  0  0  0  0
  -26.5476  -21.7959   21.1144 O   0  0  0  0  0  0  0  0  0  1  0  0
  -23.5121   -3.1211   24.8191 F   0  0  0  0  0  0  0  0  0  0  0  0
  -20.1962   -6.4526   24.2609 F   0  0  0  0  0  0  0  0  0  0  0  0
  1  2  1  0  0  0  0
  1  5  2  0  0  0  0
  2  6  2  0  0  0  0
  3  8  2  0  0  0  0
  3 16  1  0  0  0  0
  4  9  1  0  0  0  0
  4 16  2  0  0  0  0
  5 18  1  0  0  0  0
  6 20  1  0  0  0  0
  7 10  2  0  0  0  0
  7 19  1  0  0  0  0
  8 23  1  0  0  0  0
  9 23  2  0  0  0  0
 10 24  1  0  0  0  0
 11 12  2  0  0  0  0
 11 25  1  0  0  0  0
 12 26  1  0  0  0  0
 13 21  1  0  0  0  0
 13 24  2  0  0  0  0
 14 22  1  0  0  0  0
 14 29  2  0  0  0  0
 15 26  2  0  0  0  0
 15 27  1  0  0  0  0
 16 28  1  0  0  0  0
 17 28  1  0  0  0  0
 17 31  2  0  0  0  0
 17 32  1  0  0  0  0
 18 20  2  0  0  0  0
 18 37  1  0  0  0  0
 19 21  2  0  0  0  0
 19 38  1  0  0  0  0
 20 46  1  0  0  0  0
 21 39  1  0  0  0  0
 22 30  2  0  0  0  0
 22 63  1  0  0  0  0
 23 85  1  0  0  0  0
 24 86  1  0  0  0  0
 25 27  2  0  0  0  0
 25 85  1  0  0  0  0
 26 87  1  0  0  0  0
 27 88  1  0  0  0  0
 28 69  2  0  0  0  0
 29 64  1  0  0  0  0
 29 70  1  0  0  0  0
 30 49  1  0  0  0  0
 30 70  1  0  0  0  0
 31 71  1  0  0  0  0
 31 74  1  0  0  0  0
 32 75  1  0  0  0  0
 32 80  2  0  0  0  0
 33 47  1  0  0  0  0
 33 76  1  0  0  0  0
 33 81  2  0  0  0  0
 34 65  1  0  0  0  0
 34 72  1  0  0  0  0
 34 82  2  0  0  0  0
 35 66  1  0  0  0  0
 35 77  1  0  0  0  0
 35 83  2  0  0  0  0
 36 73  1  0  0  0  0
 36 78  1  0  0  0  0
 36 84  2  0  0  0  0
 37 40  1  0  0  0  0
 38 47  1  0  0  0  0
 39 72  1  0  0  0  0
 40 42  1  0  0  0  0
 41 43  1  0  0  0  0
 41 44  1  0  0  0  0
 42 46  1  0  0  0  0
 43 48  1  0  0  0  0
 44 73  1  0  0  0  0
 45 48  1  0  0  0  0
 45 73  1  0  0  0  0
 46 76  1  0  0  0  0
 47 72  1  0  0  0  0
 48 71  1  0  0  0  0
 50 63  1  0  0  0  0
 51 64  1  0  0  0  0
 52 66  1  0  0  0  0
 53 67  1  0  0  0  0
 54 67  1  0  0  0  0
 55 68  1  0  0  0  0
 56 68  1  0  0  0  0
 57 68  1  0  0  0  0
 58 79  1  0  0  0  0
 59 60  1  0  0  0  0
 59 67  1  0  0  0  0
 60 70  1  0  0  0  0
 61 64  1  0  0  0  0
 61 78  1  0  0  0  0
 62 63  1  0  0  0  0
 62 86  1  0  0  0  0
 65 68  1  0  0  0  0
 65 77  1  0  0  0  0
 66 79  1  0  0  0  0
 69 71  1  0  0  0  0
M  CHG  1  79   1
M  ISO  4  36 100  62 101  78 100  86 101
M  END
> <Batch ID>
0090

> <Smiles>
CNC(C)C(=O)NC(C(=O)N1Cc2cc([101O:1][101CH2:1]C(C)c3cc(C(C)C[100NH:0][100C:0](=O)N4CCCC(n5nc(-c6ccc(Oc7ccc(F)cc7F)cc6)c(C(N)=O)c5N)C4)n(CCC(C)C)c3C)ccc2CC1C(=O)NC1CCCc2ccccc21)C(C)(C)C

> <Shape>
0.283

> <Color>
0.205

> <Negative vol penalty>
0.000

$$$$

  -OEChem-04052319093D

 88 96  0     1  0  0  0  0  0999 V2000
  -16.4908  -29.8562   23.7730 C   0  0  0  0  0  0  0  0  0  0  0  0
  -16.9494  -29.9359   22.4619 C   0  0  0  0  0  0  0  0  0  0  0  0
  -27.0649  -15.2538   21.4369 C   0  0  0  0  0  0  0  0  0  0  0  0
  -27.1319  -16.1476   19.1933 C   0  0  0  0  0  0  0  0  0  0  0  0
  -17.3362  -29.3899   24.7788 C   0  0  0  0  0  0  0  0  0  0  0  0
  -18.2540  -29.5502   22.1561 C   0  0  0  0  0  0  0  0  0  0  0  0
  -22.1098  -26.5726   16.9041 C   0  0  0  0  0  0  0  0  0  0  0  0
  -25.8838  -14.5773   21.1322 C   0  0  0  0  0  0  0  0  0  0  0  0
  -25.9508  -15.4711   18.8885 C   0  0  0  0  0  0  0  0  0  0  0  0
  -23.2607  -26.8003   16.1509 C   0  0  0  0  0  0  0  0  0  0  0  0
  -24.9780  -11.7582   19.4996 C   0  0  0  0  0  0  0  0  0  0  0  0
  -24.8696  -10.4281   19.9053 C   0  0  0  0  0  0  0  0  0  0  0  0
  -24.6062  -25.9355   17.9567 C   0  0  0  0  0  0  0  0  0  0  0  0
  -30.2225  -23.6499   17.6873 C   0  0  0  0  0  0  0  0  0  0  0  0
  -22.9370  -10.9928   21.2406 C   0  0  0  0  0  0  0  0  0  0  0  0
  -27.6890  -16.0390   20.4675 C   0  0  0  0  0  0  0  0  0  0  0  0
  -30.2249  -16.2622   20.6312 C   0  0  0  0  0  0  0  0  0  0  0  0
  -18.6488  -28.9892   24.4836 C   0  0  0  0  0  0  0  0  0  0  0  0
  -22.1994  -26.0339   18.1957 C   0  0  0  0  0  0  0  0  0  0  0  0
  -19.1182  -29.0793   23.1592 C   0  0  0  0  0  0  0  0  0  0  0  0
  -23.4548  -25.6996   18.7232 C   0  0  0  0  0  0  0  0  0  0  0  0
  -30.4744  -24.6024   16.7062 C   0  0  0  0  0  0  0  0  0  0  0  0
  -30.8617  -25.8860   17.0745 C   0  0  0  0  0  0  0  0  0  0  0  0
  -25.3267  -14.6859   19.8580 C   0  0  0  0  0  0  0  0  0  0  0  0
  -24.5094  -26.4844   16.6783 C   0  0  0  0  0  0  0  0  0  0  0  0
  -24.0659  -12.7057   19.9645 C   0  0  0  0  0  0  0  0  0  0  0  0
  -23.8491  -10.0454   20.7757 C   0  0  0  0  0  0  0  0  0  0  0  0
  -23.0454  -12.3230   20.8349 C   0  0  0  0  0  0  0  0  0  0  0  0
  -28.9088  -16.7385   20.7818 C   0  0  0  0  0  0  0  0  0  0  0  0
  -30.9817  -26.1644   18.4265 C   0  0  0  0  0  0  0  0  0  0  0  0
  -30.3713  -24.0283   19.0119 C   0  0  0  0  0  0  0  0  0  0  0  0
  -31.0165  -17.2970   21.0661 C   0  0  0  0  0  0  0  0  0  0  0  0
  -30.6904  -14.9975   20.1417 C   0  0  0  0  0  0  0  0  0  0  0  0
  -21.4212  -27.0453   21.1069 C   0  0  0  0  0  0  0  0  0  0  0  0
  -22.2747  -24.0336   21.9575 C   0  0  0  0  0  0  0  0  0  0  0  0
  -24.3809  -21.1109   21.7595 C   0  0  0  0  0  0  0  0  0  0  0  0
  -30.1972  -23.2072   21.3871 C   0  0  0  0  0  0  0  0  0  0  0  0
  -19.5408  -28.5364   25.6123 C   0  0  0  0  0  0  0  0  0  0  0  0
  -20.9465  -25.7695   18.9849 C   0  0  0  0  0  0  0  0  0  0  0  0
  -23.6037  -25.1002   20.0969 C   0  0  0  0  0  0  0  0  0  0  0  0
  -20.7890  -27.7940   25.1420 C   0  0  0  0  0  0  0  0  0  0  0  0
  -30.9932  -21.0184   24.0802 C   0  0  0  0  0  0  0  0  0  0  0  0
  -21.4557  -28.5447   23.9936 C   0  0  0  0  0  0  0  0  0  0  0  0
  -30.6746  -19.6286   23.5242 C   0  0  0  0  0  0  0  0  0  0  0  0
  -29.9992  -22.0683   23.5868 C   0  0  0  0  0  0  0  0  0  0  0  0
  -29.5101  -20.7356   21.5733 C   0  0  0  0  0  0  0  0  0  0  0  0
  -20.5190  -28.6469   22.7838 C   0  0  1  0  0  0  0  0  0  0  0  0
  -21.1922  -25.6951   20.4888 C   0  0  1  0  0  0  0  0  0  0  0  0
  -30.5225  -19.6565   21.9906 C   0  0  2  0  0  0  0  0  0  0  0  0
  -29.9965  -27.9307   15.9095 C   0  0  0  0  0  0  0  0  0  0  0  0
  -31.7741  -27.5518   20.3587 C   0  0  0  0  0  0  0  0  0  0  0  0
  -24.2038  -18.8908   22.9159 C   0  0  0  0  0  0  0  0  0  0  0  0
  -29.8793  -22.7443   15.0077 C   0  0  0  0  0  0  0  0  0  0  0  0
  -31.6962  -24.3614   14.5338 C   0  0  0  0  0  0  0  0  0  0  0  0
  -24.1533  -25.2807   24.0130 C   0  0  0  0  0  0  0  0  0  0  0  0
  -25.3101  -23.0678   24.1954 C   0  0  0  0  0  0  0  0  0  0  0  0
  -22.9048  -23.2715   24.8246 C   0  0  0  0  0  0  0  0  0  0  0  0
  -24.4246  -19.6394   19.1921 C   0  0  0  0  0  0  0  0  0  0  0  0
  -31.1398  -26.9284   16.0443 C   0  0  0  0  0  0  0  0  0  0  0  0
  -31.3933  -27.5266   18.8818 C   0  0  0  0  0  0  0  0  0  0  0  0
  -27.8649  -25.0999   15.0225 C   0  0  0  0  0  0  0  0  0  0  0  0
  -29.3070  -25.1532   14.4944 C   0  0  0  0  0  0  0  0  0  0  0  0
  -26.9424  -25.9816   14.1786 C   0  0  0  0  0  0  0  0  0  0  0  0
  -23.5601  -23.3670   22.3846 C   0  0  1  0  0  0  0  0  0  0  0  0
  -23.9243  -19.6682   21.6390 C   0  0  2  0  0  0  0  0  0  0  0  0
  -30.3173  -24.2128   15.2250 C   0  0  0  0  0  0  0  0  0  0  0  0
  -23.9797  -23.7598   23.8293 C   0  0  0  0  0  0  0  0  0  0  0  0
  -28.8627  -17.9793   21.2742 N   0  0  0  0  0  0  0  0  0  0  0  0
  -30.7456  -25.2655   19.4082 N   0  0  0  0  0  0  0  0  0  0  0  0
  -30.1597  -18.2913   21.4368 N   0  0  0  0  0  0  0  0  0  0  0  0
  -22.3497  -24.8664   20.8321 N   0  0  0  0  0  0  0  0  0  0  0  0
  -29.9108  -22.0393   22.1252 N   0  0  0  0  0  0  0  0  0  0  0  0
  -32.3548  -17.4441   21.1639 N   0  0  0  0  0  0  0  0  0  0  0  0
  -29.7424  -14.0482   19.7360 N   0  0  0  0  0  0  0  0  0  0  0  0
  -30.1120  -23.0506   20.0041 N   0  0  0  0  0  0  0  0  0  0  0  0
  -20.4858  -27.3924   22.0629 N   0  0  0  0  0  0  0  0  0  0  0  0
  -23.3620  -21.9349   22.1885 N   0  0  0  0  0  0  0  0  0  0  0  0
  -25.5842  -25.9389   14.7013 N   0  0  0  0  0  0  0  0  0  1  0  0
  -24.6312  -18.9934   20.5138 N   0  3  0  0  0  0  0  0  0  0  0  0
  -31.9102  -14.7114   20.0817 O   0  0  0  0  0  0  0  0  0  0  0  0
  -22.3768  -27.7215   20.7445 O   0  0  0  0  0  0  0  0  0  0  0  0
  -21.2407  -23.8174   22.5945 O   0  0  0  0  0  0  0  0  0  0  0  0
  -25.5278  -21.4703   21.5026 O   0  0  0  0  0  0  0  0  0  0  0  0
  -30.5226  -24.2609   21.9401 O   0  0  0  0  0  0  0  0  0  0  0  0
  -24.1743  -14.0257   19.5602 O   0  0  0  0  0  0  0  0  0  0  0  0
  -25.6344  -26.7062   15.9455 O   0  0  0  0  0  0  0  0  0  1  0  0
  -23.7443   -8.7677   21.1640 F   0  0  0  0  0  0  0  0  0  0  0  0
  -22.1654  -13.2285   21.2840 F   0  0  0  0  0  0  0  0  0  0  0  0
  1  2  1  0  0  0  0
  1  5  2  0  0  0  0
  2  6  2  0  0  0  0
  3  8  2  0  0  0  0
  3 16  1  0  0  0  0
  4  9  1  0  0  0  0
  4 16  2  0  0  0  0
  5 18  1  0  0  0  0
  6 20  1  0  0  0  0
  7 10  2  0  0  0  0
  7 19  1  0  0  0  0
  8 24  1  0  0  0  0
  9 24  2  0  0  0  0
 10 25  1  0  0  0  0
 11 12  2  0  0  0  0
 11 26  1  0  0  0  0
 12 27  1  0  0  0  0
 13 21  1  0  0  0  0
 13 25  2  0  0  0  0
 14 22  2  0  0  0  0
 14 31  1  0  0  0  0
 15 27  2  0  0  0  0
 15 28  1  0  0  0  0
 16 29  1  0  0  0  0
 17 29  1  0  0  0  0
 17 32  2  0  0  0  0
 17 33  1  0  0  0  0
 18 20  2  0  0  0  0
 18 38  1  0  0  0  0
 19 21  2  0  0  0  0
 19 39  1  0  0  0  0
 20 47  1  0  0  0  0
 21 40  1  0  0  0  0
 22 23  1  0  0  0  0
 22 66  1  0  0  0  0
 23 30  2  0  0  0  0
 23 59  1  0  0  0  0
 24 85  1  0  0  0  0
 25 86  1  0  0  0  0
 26 28  2  0  0  0  0
 26 85  1  0  0  0  0
 27 87  1  0  0  0  0
 28 88  1  0  0  0  0
 29 68  2  0  0  0  0
 30 60  1  0  0  0  0
 30 69  1  0  0  0  0
 31 69  2  0  0  0  0
 31 75  1  0  0  0  0
 32 70  1  0  0  0  0
 32 73  1  0  0  0  0
 33 74  1  0  0  0  0
 33 80  2  0  0  0  0
 34 48  1  0  0  0  0
 34 76  1  0  0  0  0
 34 81  2  0  0  0  0
 35 64  1  0  0  0  0
 35 71  1  0  0  0  0
 35 82  2  0  0  0  0
 36 65  1  0  0  0  0
 36 77  1  0  0  0  0
 36 83  2  0  0  0  0
 37 72  1  0  0  0  0
 37 75  1  0  0  0  0
 37 84  2  0  0  0  0
 38 41  1  0  0  0  0
 39 48  1  0  0  0  0
 40 71  1  0  0  0  0
 41 43  1  0  0  0  0
 42 44  1  0  0  0  0
 42 45  1  0  0  0  0
 43 47  1  0  0  0  0
 44 49  1  0  0  0  0
 45 72  1  0  0  0  0
 46 49  1  0  0  0  0
 46 72  1  0  0  0  0
 47 76  1  0  0  0  0
 48 71  1  0  0  0  0
 49 70  1  0  0  0  0
 50 59  1  0  0  0  0
 51 60  1  0  0  0  0
 52 65  1  0  0  0  0
 53 66  1  0  0  0  0
 54 66  1  0  0  0  0
 55 67  1  0  0  0  0
 56 67  1  0  0  0  0
 57 67  1  0  0  0  0
 58 79  1  0  0  0  0
 61 62  1  0  0  0  0
 61 63  1  0  0  0  0
 62 66  1  0  0  0  0
 63 78  1  0  0  0  0
 64 67  1  0  0  0  0
 64 77  1  0  0  0  0
 65 79  1  0  0  0  0
 68 70  1  0  0  0  0
 78 86  1  0  0  0  0
M  CHG  1  79   1
M  ISO  4  37 100  75 100  78 101  86 101
M  END
> <Batch ID>
0090

> <Smiles>
CCc1nc([100NH:0][100C:0](=O)N2CCCC(n3nc(-c4ccc(Oc5ccc(F)cc5F)cc4)c(C(N)=O)c3N)C2)cc(C(C)(C)CCC[101NH:1][101O:1]c2ccc3c(c2)CN(C(=O)C(NC(=O)C(C)NC)C(C)(C)C)C(C(=O)NC2CCCc4ccccc42)C3)c1CC

> <Shape>
0.210

> <Color>
0.058

> <Negative vol penalty>
0.000

$$$$

  -OEChem-04052319093D

 87 95  0     1  0  0  0  0  0999 V2000
  -18.6507  -25.5171   23.9492 C   0  0  0  0  0  0  0  0  0  0  0  0
  -20.0198  -25.4758   23.7057 C   0  0  0  0  0  0  0  0  0  0  0  0
  -27.5149  -15.6498   19.8997 C   0  0  0  0  0  0  0  0  0  0  0  0
  -25.1391  -15.8844   20.2708 C   0  0  0  0  0  0  0  0  0  0  0  0
  -17.8775  -26.5413   23.4042 C   0  0  0  0  0  0  0  0  0  0  0  0
  -20.6163  -26.4582   22.9161 C   0  0  0  0  0  0  0  0  0  0  0  0
  -26.2262  -28.8202   23.5912 C   0  0  0  0  0  0  0  0  0  0  0  0
  -27.4229  -14.2851   20.1733 C   0  0  0  0  0  0  0  0  0  0  0  0
  -25.0471  -14.5197   20.5443 C   0  0  0  0  0  0  0  0  0  0  0  0
  -27.4396  -28.5509   22.9596 C   0  0  0  0  0  0  0  0  0  0  0  0
  -25.7019  -12.4485   23.1352 C   0  0  0  0  0  0  0  0  0  0  0  0
  -24.9496  -12.0590   24.2433 C   0  0  0  0  0  0  0  0  0  0  0  0
  -27.0486  -30.3834   21.4404 C   0  0  0  0  0  0  0  0  0  0  0  0
  -23.4944  -10.7752   22.8040 C   0  0  0  0  0  0  0  0  0  0  0  0
  -26.9632  -27.3015   18.8853 C   0  0  0  0  0  0  0  0  0  0  0  0
  -26.3730  -16.4494   19.9485 C   0  0  0  0  0  0  0  0  0  0  0  0
  -26.3335  -18.4864   18.4133 C   0  0  0  0  0  0  0  0  0  0  0  0
  -18.4664  -27.5421   22.6155 C   0  0  0  0  0  0  0  0  0  0  0  0
  -25.4084  -29.8681   23.1445 C   0  0  0  0  0  0  0  0  0  0  0  0
  -19.8500  -27.4960   22.3589 C   0  0  0  0  0  0  0  0  0  0  0  0
  -25.8265  -30.6656   22.0697 C   0  0  0  0  0  0  0  0  0  0  0  0
  -26.1890  -13.7201   20.4956 C   0  0  0  0  0  0  0  0  0  0  0  0
  -27.8496  -29.3307   21.8822 C   0  0  0  0  0  0  0  0  0  0  0  0
  -25.3504  -12.0015   21.8615 C   0  0  0  0  0  0  0  0  0  0  0  0
  -23.8458  -11.2223   24.0777 C   0  0  0  0  0  0  0  0  0  0  0  0
  -24.2467  -11.1648   21.6959 C   0  0  0  0  0  0  0  0  0  0  0  0
  -26.4675  -17.8593   19.6665 C   0  0  0  0  0  0  0  0  0  0  0  0
  -26.1211  -26.2401   18.7089 C   0  0  0  0  0  0  0  0  0  0  0  0
  -26.5060  -19.8231   18.6781 C   0  0  0  0  0  0  0  0  0  0  0  0
  -28.1860  -25.5470   18.3136 C   0  0  0  0  0  0  0  0  0  0  0  0
  -26.0760  -17.9121   17.1251 C   0  0  0  0  0  0  0  0  0  0  0  0
  -22.4719  -30.0662   21.9438 C   0  0  0  0  0  0  0  0  0  0  0  0
  -23.0146  -33.2562   22.1709 C   0  0  0  0  0  0  0  0  0  0  0  0
  -25.2771  -35.8072   22.3141 C   0  0  0  0  0  0  0  0  0  0  0  0
  -25.5013  -24.3339   21.8067 C   0  0  0  0  0  0  0  0  0  0  0  0
  -17.5820  -28.6026   22.0089 C   0  0  0  0  0  0  0  0  0  0  0  0
  -24.1150  -30.1625   23.8535 C   0  0  0  0  0  0  0  0  0  0  0  0
  -24.9946  -31.8150   21.5644 C   0  0  0  0  0  0  0  0  0  0  0  0
  -18.3519  -29.8153   21.4921 C   0  0  0  0  0  0  0  0  0  0  0  0
  -28.1262  -22.1694   22.8561 C   0  0  0  0  0  0  0  0  0  0  0  0
  -19.5594  -29.3714   20.6725 C   0  0  0  0  0  0  0  0  0  0  0  0
  -27.9138  -20.9053   22.0213 C   0  0  0  0  0  0  0  0  0  0  0  0
  -26.7995  -22.8070   23.2625 C   0  0  0  0  0  0  0  0  0  0  0  0
  -25.6647  -21.8192   21.3105 C   0  0  0  0  0  0  0  0  0  0  0  0
  -20.5377  -28.5574   21.5279 C   0  0  1  0  0  0  0  0  0  0  0  0
  -23.1205  -30.9302   22.9881 C   0  0  1  0  0  0  0  0  0  0  0  0
  -26.9745  -21.1716   20.8296 C   0  0  2  0  0  0  0  0  0  0  0  0
  -32.0241  -19.2837   20.0659 C   0  0  0  0  0  0  0  0  0  0  0  0
  -25.4191  -38.3085   22.4587 C   0  0  0  0  0  0  0  0  0  0  0  0
  -22.2655  -33.4670   19.2206 C   0  0  0  0  0  0  0  0  0  0  0  0
  -23.3205  -35.7372   19.1867 C   0  0  0  0  0  0  0  0  0  0  0  0
  -21.3567  -35.2983   20.6610 C   0  0  0  0  0  0  0  0  0  0  0  0
  -26.7236  -35.6919   24.8935 C   0  0  0  0  0  0  0  0  0  0  0  0
  -24.6659  -26.1273   18.8365 C   0  0  0  0  0  0  0  0  0  0  0  0
  -29.3330  -24.6697   17.9706 C   0  0  0  0  0  0  0  0  0  0  0  0
  -31.8886  -20.4500   19.1000 C   0  0  0  0  0  0  0  0  0  0  0  0
  -29.4328  -23.4540   18.9027 C   0  0  0  0  0  0  0  0  0  0  0  0
  -30.7074  -21.3474   19.4681 C   0  0  0  0  0  0  0  0  0  0  0  0
  -30.5947  -22.5379   18.5143 C   0  0  0  0  0  0  0  0  0  0  0  0
  -30.2912  -27.4669   19.9965 C   0  0  0  0  0  0  0  0  0  0  0  0
  -29.4874  -27.6792   18.7118 C   0  0  0  0  0  0  0  0  0  0  0  0
  -24.1750  -25.7373   20.2476 C   0  0  0  0  0  0  0  0  0  0  0  0
  -29.4812  -27.7147   21.2637 C   0  0  0  0  0  0  0  0  0  1  0  0
  -23.6039  -34.3078   21.2621 C   0  0  1  0  0  0  0  0  0  0  0  0
  -25.3879  -37.0045   23.2407 C   0  0  2  0  0  0  0  0  0  0  0  0
  -22.6517  -34.6798   20.0906 C   0  0  0  0  0  0  0  0  0  0  0  0
  -26.7068  -18.7262   20.6540 N   0  0  0  0  0  0  0  0  0  0  0  0
  -28.2344  -26.8439   18.6348 N   0  0  0  0  0  0  0  0  0  0  0  0
  -26.7246  -19.9118   20.0214 N   0  0  0  0  0  0  0  0  0  0  0  0
  -26.9046  -25.1681   18.3554 N   0  3  0  0  0  0  0  0  0  0  0  0
  -23.7352  -32.0591   22.2868 N   0  0  0  0  0  0  0  0  0  0  0  0
  -25.9561  -23.0348   22.0866 N   0  0  0  0  0  0  0  0  0  0  0  0
  -26.4905  -20.9194   17.8905 N   0  0  0  0  0  0  0  0  0  0  0  0
  -25.9249  -16.5218   17.0315 N   0  0  0  0  0  0  0  0  0  0  0  0
  -21.3206  -29.4338   22.3726 N   0  0  0  0  0  0  0  0  0  0  0  0
  -23.9646  -35.4321   22.1189 N   0  0  0  0  0  0  0  0  0  0  0  0
  -24.7126  -24.4632   20.6700 N   0  0  0  0  0  0  0  0  0  0  0  0
  -26.6324  -36.9154   24.0557 N   0  3  0  0  0  0  0  0  0  0  0  0
  -25.9991  -18.6094   16.0852 O   0  0  0  0  0  0  0  0  0  0  0  0
  -22.9778  -29.9809   20.8309 O   0  0  0  0  0  0  0  0  0  0  0  0
  -21.9577  -33.4912   22.7620 O   0  0  0  0  0  0  0  0  0  0  0  0
  -26.2566  -35.2617   21.8105 O   0  0  0  0  0  0  0  0  0  0  0  0
  -25.7819  -25.3074   22.5141 O   0  0  0  0  0  0  0  0  0  0  0  0
  -26.0988  -12.3885   20.7624 O   0  0  0  0  0  0  0  0  0  0  0  0
  -29.0332  -29.0696   21.2635 O   0  0  0  0  0  0  0  0  0  1  0  0
  -23.1244  -10.8471   25.1421 F   0  0  0  0  0  0  0  0  0  0  0  0
  -23.9049  -10.7311   20.4749 F   0  0  0  0  0  0  0  0  0  0  0  0
  1  2  1  0  0  0  0
  1  5  2  0  0  0  0
  2  6  2  0  0  0  0
  3  8  2  0  0  0  0
  3 16  1  0  0  0  0
  4  9  1  0  0  0  0
  4 16  2  0  0  0  0
  5 18  1  0  0  0  0
  6 20  1  0  0  0  0
  7 10  2  0  0  0  0
  7 19  1  0  0  0  0
  8 22  1  0  0  0  0
  9 22  2  0  0  0  0
 10 23  1  0  0  0  0
 11 12  2  0  0  0  0
 11 24  1  0  0  0  0
 12 25  1  0  0  0  0
 13 21  1  0  0  0  0
 13 23  2  0  0  0  0
 14 25  2  0  0  0  0
 14 26  1  0  0  0  0
 15 28  2  0  0  0  0
 15 68  1  0  0  0  0
 16 27  1  0  0  0  0
 17 27  1  0  0  0  0
 17 29  2  0  0  0  0
 17 31  1  0  0  0  0
 18 20  2  0  0  0  0
 18 36  1  0  0  0  0
 19 21  2  0  0  0  0
 19 37  1  0  0  0  0
 20 45  1  0  0  0  0
 21 38  1  0  0  0  0
 22 84  1  0  0  0  0
 23 85  1  0  0  0  0
 24 26  2  0  0  0  0
 24 84  1  0  0  0  0
 25 86  1  0  0  0  0
 26 87  1  0  0  0  0
 27 67  2  0  0  0  0
 28 54  1  0  0  0  0
 28 70  1  0  0  0  0
 29 69  1  0  0  0  0
 29 73  1  0  0  0  0
 30 55  1  0  0  0  0
 30 68  1  0  0  0  0
 30 70  2  0  0  0  0
 31 74  1  0  0  0  0
 31 79  2  0  0  0  0
 32 46  1  0  0  0  0
 32 75  1  0  0  0  0
 32 80  2  0  0  0  0
 33 64  1  0  0  0  0
 33 71  1  0  0  0  0
 33 81  2  0  0  0  0
 34 65  1  0  0  0  0
 34 76  1  0  0  0  0
 34 82  2  0  0  0  0
 35 72  1  0  0  0  0
 35 77  1  0  0  0  0
 35 83  2  0  0  0  0
 36 39  1  0  0  0  0
 37 46  1  0  0  0  0
 38 71  1  0  0  0  0
 39 41  1  0  0  0  0
 40 42  1  0  0  0  0
 40 43  1  0  0  0  0
 41 45  1  0  0  0  0
 42 47  1  0  0  0  0
 43 72  1  0  0  0  0
 44 47  1  0  0  0  0
 44 72  1  0  0  0  0
 45 75  1  0  0  0  0
 46 71  1  0  0  0  0
 47 69  1  0  0  0  0
 48 56  1  0  0  0  0
 49 65  1  0  0  0  0
 50 66  1  0  0  0  0
 51 66  1  0  0  0  0
 52 66  1  0  0  0  0
 53 78  1  0  0  0  0
 54 62  1  0  0  0  0
 55 57  1  0  0  0  0
 56 58  1  0  0  0  0
 57 59  1  0  0  0  0
 58 59  1  0  0  0  0
 60 61  1  0  0  0  0
 60 63  1  0  0  0  0
 61 68  1  0  0  0  0
 62 77  1  0  0  0  0
 63 85  1  0  0  0  0
 64 66  1  0  0  0  0
 64 76  1  0  0  0  0
 65 78  1  0  0  0  0
 67 69  1  0  0  0  0
M  CHG  2  70   1  78   1
M  ISO  4  35 100  63 101  77 100  85 101
M  END
> <Batch ID>
0090

> <Smiles>
CCCCCCc1nc(CC[100NH:0][100C:0](=O)N2CCCC(n3nc(-c4ccc(Oc5ccc(F)cc5F)cc4)c(C(N)=O)c3N)C2)cn1CC[101CH2:1][101O:1]c1ccc2c(c1)CN(C(=O)C(NC(=O)C(C)NC)C(C)(C)C)C(C(=O)NC1CCCc3ccccc31)C2

> <Shape>
0.256

> <Color>
0.076

> <Negative vol penalty>
0.000

$$$$

  -OEChem-04052319093D

 86 94  0     1  0  0  0  0  0999 V2000
  -30.3966  -26.0240   17.1190 C   0  0  0  0  0  0  0  0  0  0  0  0
  -29.0096  -25.9965   17.2235 C   0  0  0  0  0  0  0  0  0  0  0  0
  -27.8588  -16.9459   18.2371 C   0  0  0  0  0  0  0  0  0  0  0  0
  -25.9103  -15.9760   17.1884 C   0  0  0  0  0  0  0  0  0  0  0  0
  -31.1667  -26.4699   18.1922 C   0  0  0  0  0  0  0  0  0  0  0  0
  -28.3920  -26.4139   18.4020 C   0  0  0  0  0  0  0  0  0  0  0  0
  -23.0245  -29.3176   18.9165 C   0  0  0  0  0  0  0  0  0  0  0  0
  -28.0820  -15.7534   18.9253 C   0  0  0  0  0  0  0  0  0  0  0  0
  -26.1336  -14.7834   17.8765 C   0  0  0  0  0  0  0  0  0  0  0  0
  -21.7393  -28.8673   19.2154 C   0  0  0  0  0  0  0  0  0  0  0  0
  -25.9820  -11.6034   19.6299 C   0  0  0  0  0  0  0  0  0  0  0  0
  -24.8841  -10.9843   20.2272 C   0  0  0  0  0  0  0  0  0  0  0  0
  -22.0758  -29.4612   21.5291 C   0  0  0  0  0  0  0  0  0  0  0  0
  -24.5164  -12.9477   21.5863 C   0  0  0  0  0  0  0  0  0  0  0  0
  -18.4230  -25.6040   19.9433 C   0  0  0  0  0  0  0  0  0  0  0  0
  -26.7729  -17.0573   17.3687 C   0  0  0  0  0  0  0  0  0  0  0  0
  -27.0438  -18.6478   15.3927 C   0  0  0  0  0  0  0  0  0  0  0  0
  -30.5578  -26.9021   19.3810 C   0  0  0  0  0  0  0  0  0  0  0  0
  -23.8503  -29.8339   19.9254 C   0  0  0  0  0  0  0  0  0  0  0  0
  -29.1548  -26.8648   19.4927 C   0  0  0  0  0  0  0  0  0  0  0  0
  -23.3701  -29.9197   21.2400 C   0  0  0  0  0  0  0  0  0  0  0  0
  -27.2194  -14.6721   18.7450 C   0  0  0  0  0  0  0  0  0  0  0  0
  -21.2658  -28.9363   20.5223 C   0  0  0  0  0  0  0  0  0  0  0  0
  -26.3473  -12.8946   20.0108 C   0  0  0  0  0  0  0  0  0  0  0  0
  -24.1513  -11.6564   21.2054 C   0  0  0  0  0  0  0  0  0  0  0  0
  -25.6144  -13.5668   20.9889 C   0  0  0  0  0  0  0  0  0  0  0  0
  -26.5415  -18.2891   16.6579 C   0  0  0  0  0  0  0  0  0  0  0  0
  -18.9382  -24.4310   19.4683 C   0  0  0  0  0  0  0  0  0  0  0  0
  -26.5387  -19.9049   15.1665 C   0  0  0  0  0  0  0  0  0  0  0  0
  -19.7681  -24.7718   21.4921 C   0  0  0  0  0  0  0  0  0  0  0  0
  -27.8910  -17.9105   14.5015 C   0  0  0  0  0  0  0  0  0  0  0  0
  -26.6544  -29.0051   21.1720 C   0  0  0  0  0  0  0  0  0  0  0  0
  -26.3202  -31.7968   22.7898 C   0  0  0  0  0  0  0  0  0  0  0  0
  -24.2331  -34.2002   24.0205 C   0  0  0  0  0  0  0  0  0  0  0  0
  -21.6982  -22.6199   17.1799 C   0  0  0  0  0  0  0  0  0  0  0  0
  -31.4340  -27.3311   20.5311 C   0  0  0  0  0  0  0  0  0  0  0  0
  -25.2244  -30.3402   19.5818 C   0  0  0  0  0  0  0  0  0  0  0  0
  -24.2096  -30.4844   22.3557 C   0  0  0  0  0  0  0  0  0  0  0  0
  -30.6853  -28.1097   21.6098 C   0  0  0  0  0  0  0  0  0  0  0  0
  -25.0938  -23.8334   17.4874 C   0  0  0  0  0  0  0  0  0  0  0  0
  -29.3768  -27.4095   21.9624 C   0  0  0  0  0  0  0  0  0  0  0  0
  -25.8978  -22.5675   17.1852 C   0  0  0  0  0  0  0  0  0  0  0  0
  -23.8358  -23.5113   18.2884 C   0  0  0  0  0  0  0  0  0  0  0  0
  -23.7454  -21.2335   17.3517 C   0  0  0  0  0  0  0  0  0  0  0  0
  -28.4468  -27.3329   20.7456 C   0  0  1  0  0  0  0  0  0  0  0  0
  -26.1668  -30.3715   20.7811 C   0  0  1  0  0  0  0  0  0  0  0  0
  -25.0182  -21.4895   16.5244 C   0  0  2  0  0  0  0  0  0  0  0  0
  -18.6441  -23.3820   23.9931 C   0  0  0  0  0  0  0  0  0  0  0  0
  -24.2491  -36.3402   25.3309 C   0  0  0  0  0  0  0  0  0  0  0  0
  -22.8194  -24.8013   23.9199 C   0  0  0  0  0  0  0  0  0  0  0  0
  -22.6298  -25.6200   21.5601 C   0  0  0  0  0  0  0  0  0  0  0  0
  -26.7730  -30.2165   25.3603 C   0  0  0  0  0  0  0  0  0  0  0  0
  -25.8509  -32.1629   26.6369 C   0  0  0  0  0  0  0  0  0  0  0  0
  -27.9276  -32.4336   25.2816 C   0  0  0  0  0  0  0  0  0  0  0  0
  -23.0550  -35.7215   21.7718 C   0  0  0  0  0  0  0  0  0  0  0  0
  -18.7352  -23.7284   18.1988 C   0  0  0  0  0  0  0  0  0  0  0  0
  -20.1148  -23.3367   23.5911 C   0  0  0  0  0  0  0  0  0  0  0  0
  -18.6573  -26.9634   22.0994 C   0  0  0  0  0  0  0  0  0  0  0  0
  -19.7264  -24.1231   17.0826 C   0  0  0  0  0  0  0  0  0  0  0  0
  -19.7980  -27.9749   22.1276 C   0  0  0  0  0  0  0  0  0  1  0  0
  -20.5415  -24.5823   22.7446 C   0  0  1  0  0  0  0  0  0  0  0  0
  -25.7014  -32.2024   24.1057 C   0  0  1  0  0  0  0  0  0  0  0  0
  -24.2863  -35.7154   23.9449 C   0  0  2  0  0  0  0  0  0  0  0  0
  -22.1103  -24.5986   22.5754 C   0  0  0  0  0  0  0  0  0  0  0  0
  -26.5479  -31.7414   25.3257 C   0  0  0  0  0  0  0  0  0  0  0  0
  -25.7762  -19.2414   17.1978 N   0  0  0  0  0  0  0  0  0  0  0  0
  -18.9530  -25.7898   21.1974 N   0  0  0  0  0  0  0  0  0  0  0  0
  -25.7939  -20.2109   16.2674 N   0  0  0  0  0  0  0  0  0  0  0  0
  -19.7672  -23.9381   20.4470 N   0  3  0  0  0  0  0  0  0  0  0  0
  -25.5484  -30.9606   21.9706 N   0  0  0  0  0  0  0  0  0  0  0  0
  -23.0339  -22.4926   17.5960 N   0  0  0  0  0  0  0  0  0  0  0  0
  -26.6635  -20.7672   14.1355 N   0  0  0  0  0  0  0  0  0  0  0  0
  -28.3187  -16.6335   14.8896 N   0  0  0  0  0  0  0  0  0  0  0  0
  -27.8059  -28.6104   20.5180 N   0  0  0  0  0  0  0  0  0  0  0  0
  -25.4951  -33.6448   24.0324 N   0  0  0  0  0  0  0  0  0  0  0  0
  -21.0948  -23.8409   17.4552 N   0  0  0  0  0  0  0  0  0  0  0  0
  -23.1291  -36.2360   23.1634 N   0  3  0  0  0  0  0  0  0  0  0  0
  -28.2713  -18.3772   13.4010 O   0  0  0  0  0  0  0  0  0  0  0  0
  -26.0329  -28.3576   22.0063 O   0  0  0  0  0  0  0  0  0  0  0  0
  -27.4439  -32.2125   22.4962 O   0  0  0  0  0  0  0  0  0  0  0  0
  -23.1776  -33.5723   24.0682 O   0  0  0  0  0  0  0  0  0  0  0  0
  -21.0895  -21.7138   16.6006 O   0  0  0  0  0  0  0  0  0  0  0  0
  -27.4371  -13.5082   19.4162 O   0  0  0  0  0  0  0  0  0  0  0  0
  -20.0120  -28.4969   20.8169 O   0  0  0  0  0  0  0  0  0  1  0  0
  -23.0960  -11.0624   21.7778 F   0  0  0  0  0  0  0  0  0  0  0  0
  -25.9597  -14.8078   21.3581 F   0  0  0  0  0  0  0  0  0  0  0  0
  1  2  1  0  0  0  0
  1  5  2  0  0  0  0
  2  6  2  0  0  0  0
  3  8  2  0  0  0  0
  3 16  1  0  0  0  0
  4  9  1  0  0  0  0
  4 16  2  0  0  0  0
  5 18  1  0  0  0  0
  6 20  1  0  0  0  0
  7 10  2  0  0  0  0
  7 19  1  0  0  0  0
  8 22  1  0  0  0  0
  9 22  2  0  0  0  0
 10 23  1  0  0  0  0
 11 12  2  0  0  0  0
 11 24  1  0  0  0  0
 12 25  1  0  0  0  0
 13 21  1  0  0  0  0
 13 23  2  0  0  0  0
 14 25  2  0  0  0  0
 14 26  1  0  0  0  0
 15 28  2  0  0  0  0
 15 67  1  0  0  0  0
 16 27  1  0  0  0  0
 17 27  1  0  0  0  0
 17 29  2  0  0  0  0
 17 31  1  0  0  0  0
 18 20  2  0  0  0  0
 18 36  1  0  0  0  0
 19 21  2  0  0  0  0
 19 37  1  0  0  0  0
 20 45  1  0  0  0  0
 21 38  1  0  0  0  0
 22 83  1  0  0  0  0
 23 84  1  0  0  0  0
 24 26  2  0  0  0  0
 24 83  1  0  0  0  0
 25 85  1  0  0  0  0
 26 86  1  0  0  0  0
 27 66  2  0  0  0  0
 28 56  1  0  0  0  0
 28 69  1  0  0  0  0
 29 68  1  0  0  0  0
 29 72  1  0  0  0  0
 30 61  1  0  0  0  0
 30 67  1  0  0  0  0
 30 69  2  0  0  0  0
 31 73  1  0  0  0  0
 31 78  2  0  0  0  0
 32 46  1  0  0  0  0
 32 74  1  0  0  0  0
 32 79  2  0  0  0  0
 33 62  1  0  0  0  0
 33 70  1  0  0  0  0
 33 80  2  0  0  0  0
 34 63  1  0  0  0  0
 34 75  1  0  0  0  0
 34 81  2  0  0  0  0
 35 71  1  0  0  0  0
 35 76  1  0  0  0  0
 35 82  2  0  0  0  0
 36 39  1  0  0  0  0
 37 46  1  0  0  0  0
 38 70  1  0  0  0  0
 39 41  1  0  0  0  0
 40 42  1  0  0  0  0
 40 43  1  0  0  0  0
 41 45  1  0  0  0  0
 42 47  1  0  0  0  0
 43 71  1  0  0  0  0
 44 47  1  0  0  0  0
 44 71  1  0  0  0  0
 45 74  1  0  0  0  0
 46 70  1  0  0  0  0
 47 68  1  0  0  0  0
 48 57  1  0  0  0  0
 49 63  1  0  0  0  0
 50 64  1  0  0  0  0
 51 64  1  0  0  0  0
 52 65  1  0  0  0  0
 53 65  1  0  0  0  0
 54 65  1  0  0  0  0
 55 77  1  0  0  0  0
 56 59  1  0  0  0  0
 57 61  1  0  0  0  0
 58 60  1  0  0  0  0
 58 67  1  0  0  0  0
 59 76  1  0  0  0  0
 60 84  1  0  0  0  0
 61 64  1  0  0  0  0
 62 65  1  0  0  0  0
 62 75  1  0  0  0  0
 63 77  1  0  0  0  0
 66 68  1  0  0  0  0
M  CHG  2  69   1  77   1
M  ISO  4  35 100  60 101  76 100  84 101
M  END
> <Batch ID>
0090

> <Smiles>
CCC(c1nc(CC[100NH:0][100C:0](=O)N2CCCC(n3nc(-c4ccc(Oc5ccc(F)cc5F)cc4)c(C(N)=O)c3N)C2)cn1C[101CH2:1][101O:1]c1ccc2c(c1)CN(C(=O)C(NC(=O)C(C)NC)C(C)(C)C)C(C(=O)NC1CCCc3ccccc31)C2)C(C)C

> <Shape>
0.260

> <Color>
0.068

> <Negative vol penalty>
0.000

$$$$

  -OEChem-04052319093D

 82 90  0     1  0  0  0  0  0999 V2000
  -27.2314  -23.6313   18.4290 C   0  0  0  0  0  0  0  0  0  0  0  0
  -26.0380  -24.1574   18.9131 C   0  0  0  0  0  0  0  0  0  0  0  0
  -27.6124  -15.9652   21.7786 C   0  0  0  0  0  0  0  0  0  0  0  0
  -25.9263  -16.7617   20.2424 C   0  0  0  0  0  0  0  0  0  0  0  0
  -28.4411  -23.9876   19.0237 C   0  0  0  0  0  0  0  0  0  0  0  0
  -26.0535  -25.0394   19.9930 C   0  0  0  0  0  0  0  0  0  0  0  0
  -23.0398  -29.0450   19.2732 C   0  0  0  0  0  0  0  0  0  0  0  0
  -27.4045  -14.6608   21.3304 C   0  0  0  0  0  0  0  0  0  0  0  0
  -25.7185  -15.4573   19.7942 C   0  0  0  0  0  0  0  0  0  0  0  0
  -21.6713  -28.8536   19.4584 C   0  0  0  0  0  0  0  0  0  0  0  0
  -28.2914  -12.7695   18.6715 C   0  0  0  0  0  0  0  0  0  0  0  0
  -29.4161  -11.9892   18.4036 C   0  0  0  0  0  0  0  0  0  0  0  0
  -21.8369  -29.8385   21.6543 C   0  0  0  0  0  0  0  0  0  0  0  0
  -20.6003  -26.0317   22.7268 C   0  0  0  0  0  0  0  0  0  0  0  0
  -28.7004  -10.3872   20.0646 C   0  0  0  0  0  0  0  0  0  0  0  0
  -26.8732  -17.0156   21.2347 C   0  0  0  0  0  0  0  0  0  0  0  0
  -27.9994  -19.3040   21.1837 C   0  0  0  0  0  0  0  0  0  0  0  0
  -28.4722  -24.8819   20.1053 C   0  0  0  0  0  0  0  0  0  0  0  0
  -23.8204  -29.6256   20.2832 C   0  0  0  0  0  0  0  0  0  0  0  0
  -27.2646  -25.4070   20.6036 C   0  0  0  0  0  0  0  0  0  0  0  0
  -23.2146  -30.0385   21.4784 C   0  0  0  0  0  0  0  0  0  0  0  0
  -19.2564  -25.8499   22.4517 C   0  0  0  0  0  0  0  0  0  0  0  0
  -26.4576  -14.4068   20.3381 C   0  0  0  0  0  0  0  0  0  0  0  0
  -21.0701  -29.2478   20.6502 C   0  0  0  0  0  0  0  0  0  0  0  0
  -27.3712  -12.3587   19.6360 C   0  0  0  0  0  0  0  0  0  0  0  0
  -29.6206  -10.7980   19.1001 C   0  0  0  0  0  0  0  0  0  0  0  0
  -27.5757  -11.1676   20.3325 C   0  0  0  0  0  0  0  0  0  0  0  0
  -27.0870  -18.3632   21.6977 C   0  0  0  0  0  0  0  0  0  0  0  0
  -21.4107  -24.9146   22.7560 C   0  0  0  0  0  0  0  0  0  0  0  0
  -18.8119  -24.5631   22.2237 C   0  0  0  0  0  0  0  0  0  0  0  0
  -27.8165  -20.4206   21.9622 C   0  0  0  0  0  0  0  0  0  0  0  0
  -28.9292  -19.1797   20.0994 C   0  0  0  0  0  0  0  0  0  0  0  0
  -26.2824  -28.6629   22.0484 C   0  0  0  0  0  0  0  0  0  0  0  0
  -26.2434  -31.7379   23.0805 C   0  0  0  0  0  0  0  0  0  0  0  0
  -24.4671  -34.6136   23.5516 C   0  0  0  0  0  0  0  0  0  0  0  0
  -23.6162  -23.3385   24.6747 C   0  0  0  0  0  0  0  0  0  0  0  0
  -29.8000  -25.2007   20.7457 C   0  0  0  0  0  0  0  0  0  0  0  0
  -25.2905  -29.8496   20.0573 C   0  0  0  0  0  0  0  0  0  0  0  0
  -24.0046  -30.6852   22.5858 C   0  0  0  0  0  0  0  0  0  0  0  0
  -29.7617  -26.4327   21.6463 C   0  0  0  0  0  0  0  0  0  0  0  0
  -25.9102  -21.2689   26.4442 C   0  0  0  0  0  0  0  0  0  0  0  0
  -28.5456  -26.3842   22.5658 C   0  0  0  0  0  0  0  0  0  0  0  0
  -26.5323  -20.3961   25.3529 C   0  0  0  0  0  0  0  0  0  0  0  0
  -24.4325  -21.5431   26.1736 C   0  0  0  0  0  0  0  0  0  0  0  0
  -24.7630  -21.2343   23.7510 C   0  0  0  0  0  0  0  0  0  0  0  0
  -27.2424  -26.3860   21.7574 C   0  0  1  0  0  0  0  0  0  0  0  0
  -26.0813  -29.9809   21.3554 C   0  0  1  0  0  0  0  0  0  0  0  0
  -26.2664  -20.9768   23.9510 C   0  0  2  0  0  0  0  0  0  0  0  0
  -17.3769  -24.2902   21.9221 C   0  0  0  0  0  0  0  0  0  0  0  0
  -24.6957  -36.9453   24.4506 C   0  0  0  0  0  0  0  0  0  0  0  0
  -26.1250  -30.6490   25.9284 C   0  0  0  0  0  0  0  0  0  0  0  0
  -25.4064  -32.9220   26.6933 C   0  0  0  0  0  0  0  0  0  0  0  0
  -27.6400  -32.6156   25.6256 C   0  0  0  0  0  0  0  0  0  0  0  0
  -23.8288  -35.8140   20.9229 C   0  0  0  0  0  0  0  0  0  0  0  0
  -18.3274  -27.0367   22.4072 C   0  0  0  0  0  0  0  0  0  0  0  0
  -22.8653  -25.0559   23.0481 C   0  0  0  0  0  0  0  0  0  0  0  0
  -17.9473  -27.4686   20.9893 C   0  0  0  0  0  0  0  0  0  0  0  0
  -19.1358  -27.9516   20.1662 C   0  0  0  0  0  0  0  0  0  1  0  0
  -25.5561  -32.4811   24.2004 C   0  0  1  0  0  0  0  0  0  0  0  0
  -24.7847  -36.0599   23.2173 C   0  0  2  0  0  0  0  0  0  0  0  0
  -26.1671  -32.1530   25.5920 C   0  0  0  0  0  0  0  0  0  0  0  0
  -26.3772  -18.8406   22.7235 N   0  0  0  0  0  0  0  0  0  0  0  0
  -20.9485  -23.6668   22.5291 N   0  0  0  0  0  0  0  0  0  0  0  0
  -19.6277  -23.4882   22.2583 N   0  0  0  0  0  0  0  0  0  0  0  0
  -26.8437  -20.0935   22.8604 N   0  0  0  0  0  0  0  0  0  0  0  0
  -25.4399  -30.8769   22.3198 N   0  0  0  0  0  0  0  0  0  0  0  0
  -24.2490  -22.0940   24.8287 N   0  0  0  0  0  0  0  0  0  0  0  0
  -28.3944  -21.6406   21.9593 N   0  0  0  0  0  0  0  0  0  0  0  0
  -28.9878  -17.9633   19.4056 N   0  0  0  0  0  0  0  0  0  0  0  0
  -26.9432  -27.7204   21.2839 N   0  0  0  0  0  0  0  0  0  0  0  0
  -25.6070  -33.8948   23.8438 N   0  0  0  0  0  0  0  0  0  0  0  0
  -23.4883  -23.7906   23.3671 N   0  0  0  0  0  0  0  0  0  0  0  0
  -23.8294  -36.5775   22.1972 N   0  3  0  0  0  0  0  0  0  0  0  0
  -29.6973  -20.1139   19.7664 O   0  0  0  0  0  0  0  0  0  0  0  0
  -25.8699  -28.5127   23.1925 O   0  0  0  0  0  0  0  0  0  0  0  0
  -27.4474  -31.9202   22.8833 O   0  0  0  0  0  0  0  0  0  0  0  0
  -23.3221  -34.1671   23.5569 O   0  0  0  0  0  0  0  0  0  0  0  0
  -23.2010  -24.0004   25.6321 O   0  0  0  0  0  0  0  0  0  0  0  0
  -26.2547  -13.1341   19.9003 O   0  0  0  0  0  0  0  0  0  0  0  0
  -19.7347  -29.0615   20.8338 O   0  0  0  0  0  0  0  0  0  1  0  0
  -30.6999  -10.0480   18.8416 F   0  0  0  0  0  0  0  0  0  0  0  0
  -26.6946  -10.7672   21.2594 F   0  0  0  0  0  0  0  0  0  0  0  0
  1  2  1  0  0  0  0
  1  5  2  0  0  0  0
  2  6  2  0  0  0  0
  3  8  2  0  0  0  0
  3 16  1  0  0  0  0
  4  9  1  0  0  0  0
  4 16  2  0  0  0  0
  5 18  1  0  0  0  0
  6 20  1  0  0  0  0
  7 10  2  0  0  0  0
  7 19  1  0  0  0  0
  8 23  1  0  0  0  0
  9 23  2  0  0  0  0
 10 24  1  0  0  0  0
 11 12  2  0  0  0  0
 11 25  1  0  0  0  0
 12 26  1  0  0  0  0
 13 21  1  0  0  0  0
 13 24  2  0  0  0  0
 14 22  1  0  0  0  0
 14 29  2  0  0  0  0
 15 26  2  0  0  0  0
 15 27  1  0  0  0  0
 16 28  1  0  0  0  0
 17 28  1  0  0  0  0
 17 31  2  0  0  0  0
 17 32  1  0  0  0  0
 18 20  2  0  0  0  0
 18 37  1  0  0  0  0
 19 21  2  0  0  0  0
 19 38  1  0  0  0  0
 20 46  1  0  0  0  0
 21 39  1  0  0  0  0
 22 30  2  0  0  0  0
 22 55  1  0  0  0  0
 23 79  1  0  0  0  0
 24 80  1  0  0  0  0
 25 27  2  0  0  0  0
 25 79  1  0  0  0  0
 26 81  1  0  0  0  0
 27 82  1  0  0  0  0
 28 62  2  0  0  0  0
 29 56  1  0  0  0  0
 29 63  1  0  0  0  0
 30 49  1  0  0  0  0
 30 64  1  0  0  0  0
 31 65  1  0  0  0  0
 31 68  1  0  0  0  0
 32 69  1  0  0  0  0
 32 74  2  0  0  0  0
 33 47  1  0  0  0  0
 33 70  1  0  0  0  0
 33 75  2  0  0  0  0
 34 59  1  0  0  0  0
 34 66  1  0  0  0  0
 34 76  2  0  0  0  0
 35 60  1  0  0  0  0
 35 71  1  0  0  0  0
 35 77  2  0  0  0  0
 36 67  1  0  0  0  0
 36 72  1  0  0  0  0
 36 78  2  0  0  0  0
 37 40  1  0  0  0  0
 38 47  1  0  0  0  0
 39 66  1  0  0  0  0
 40 42  1  0  0  0  0
 41 43  1  0  0  0  0
 41 44  1  0  0  0  0
 42 46  1  0  0  0  0
 43 48  1  0  0  0  0
 44 67  1  0  0  0  0
 45 48  1  0  0  0  0
 45 67  1  0  0  0  0
 46 70  1  0  0  0  0
 47 66  1  0  0  0  0
 48 65  1  0  0  0  0
 50 60  1  0  0  0  0
 51 61  1  0  0  0  0
 52 61  1  0  0  0  0
 53 61  1  0  0  0  0
 54 73  1  0  0  0  0
 55 57  1  0  0  0  0
 56 72  1  0  0  0  0
 57 58  1  0  0  0  0
 58 80  1  0  0  0  0
 59 61  1  0  0  0  0
 59 71  1  0  0  0  0
 60 73  1  0  0  0  0
 62 65  1  0  0  0  0
 63 64  2  0  0  0  0
M  CHG  1  73   1
M  ISO  4  36 100  58 101  72 100  80 101
M  END
> <Batch ID>
0090

> <Smiles>
CNC(C)C(=O)NC(C(=O)N1Cc2cc([101O:1][101CH2:1]CCc3cc(C[100NH:0][100C:0](=O)N4CCCC(n5nc(-c6ccc(Oc7ccc(F)cc7F)cc6)c(C(N)=O)c5N)C4)nnc3C)ccc2CC1C(=O)NC1CCCc2ccccc21)C(C)(C)C

> <Shape>
0.284

> <Color>
0.061

> <Negative vol penalty>
0.000

$$$$

  -OEChem-04052319093D

 85 92  0     1  0  0  0  0  0999 V2000
  -32.6902  -12.5873   21.1189 C   0  0  0  0  0  0  0  0  0  0  0  0
  -32.1009  -13.7754   21.5391 C   0  0  0  0  0  0  0  0  0  0  0  0
  -28.6823  -26.0381   19.2511 C   0  0  0  0  0  0  0  0  0  0  0  0
  -27.5249  -25.0795   21.1429 C   0  0  0  0  0  0  0  0  0  0  0  0
  -31.9862  -11.7174   20.2873 C   0  0  0  0  0  0  0  0  0  0  0  0
  -30.8076  -14.0948   21.1271 C   0  0  0  0  0  0  0  0  0  0  0  0
  -26.5478  -17.0841   24.3557 C   0  0  0  0  0  0  0  0  0  0  0  0
  -29.7590  -25.1801   19.4751 C   0  0  0  0  0  0  0  0  0  0  0  0
  -28.6016  -24.2214   21.3668 C   0  0  0  0  0  0  0  0  0  0  0  0
  -26.1353  -18.4158   24.3577 C   0  0  0  0  0  0  0  0  0  0  0  0
  -29.7994  -21.3397   20.0702 C   0  0  0  0  0  0  0  0  0  0  0  0
  -29.5146  -19.9996   20.3322 C   0  0  0  0  0  0  0  0  0  0  0  0
  -24.3382  -17.8551   22.8493 C   0  0  0  0  0  0  0  0  0  0  0  0
  -30.6060  -20.1874   22.4795 C   0  0  0  0  0  0  0  0  0  0  0  0
  -27.5653  -25.9878   20.0851 C   0  0  0  0  0  0  0  0  0  0  0  0
  -25.3275  -26.6332   19.0441 C   0  0  0  0  0  0  0  0  0  0  0  0
  -30.6800  -12.0217   19.8727 C   0  0  0  0  0  0  0  0  0  0  0  0
  -25.8640  -16.1283   23.5907 C   0  0  0  0  0  0  0  0  0  0  0  0
  -30.0860  -13.2287   20.2881 C   0  0  0  0  0  0  0  0  0  0  0  0
  -24.7425  -16.5114   22.8414 C   0  0  0  0  0  0  0  0  0  0  0  0
  -29.7186  -24.2717   20.5329 C   0  0  0  0  0  0  0  0  0  0  0  0
  -25.0322  -18.8021   23.6021 C   0  0  0  0  0  0  0  0  0  0  0  0
  -30.4876  -22.1037   21.0128 C   0  0  0  0  0  0  0  0  0  0  0  0
  -29.9179  -19.4235   21.5368 C   0  0  0  0  0  0  0  0  0  0  0  0
  -30.8909  -21.5275   22.2174 C   0  0  0  0  0  0  0  0  0  0  0  0
  -26.4530  -26.8743   19.8546 C   0  0  0  0  0  0  0  0  0  0  0  0
  -24.5705  -27.7733   19.1597 C   0  0  0  0  0  0  0  0  0  0  0  0
  -24.9960  -25.4815   18.2571 C   0  0  0  0  0  0  0  0  0  0  0  0
  -26.6377  -14.2254   21.1650 C   0  0  0  0  0  0  0  0  0  0  0  0
  -23.6564  -13.0429   21.6504 C   0  0  0  0  0  0  0  0  0  0  0  0
  -20.5022  -13.5419   22.8543 C   0  0  0  0  0  0  0  0  0  0  0  0
  -23.4128  -31.6483   23.4873 C   0  0  0  0  0  0  0  0  0  0  0  0
  -29.9763  -11.0725   18.9354 C   0  0  0  0  0  0  0  0  0  0  0  0
  -26.3054  -14.6907   23.6204 C   0  0  0  0  0  0  0  0  0  0  0  0
  -23.9618  -15.5201   22.0191 C   0  0  0  0  0  0  0  0  0  0  0  0
  -28.4705  -11.3076   18.8479 C   0  0  0  0  0  0  0  0  0  0  0  0
  -25.4533  -32.4401   20.5023 C   0  0  0  0  0  0  0  0  0  0  0  0
  -28.1711  -12.7937   18.6788 C   0  0  0  0  0  0  0  0  0  0  0  0
  -25.8686  -31.0561   20.0060 C   0  0  0  0  0  0  0  0  0  0  0  0
  -25.2174  -32.4549   22.0095 C   0  0  0  0  0  0  0  0  0  0  0  0
  -24.6603  -30.0460   21.9809 C   0  0  0  0  0  0  0  0  0  0  0  0
  -28.6757  -13.5986   19.8826 C   0  0  1  0  0  0  0  0  0  0  0  0
  -25.8461  -13.8993   22.3997 C   0  0  1  0  0  0  0  0  0  0  0  0
  -24.8607  -29.9856   20.4591 C   0  0  2  0  0  0  0  0  0  0  0  0
  -18.2750  -12.4067   23.0736 C   0  0  0  0  0  0  0  0  0  0  0  0
  -23.1085  -13.5517   18.6922 C   0  0  0  0  0  0  0  0  0  0  0  0
  -20.6637  -13.3119   19.1753 C   0  0  0  0  0  0  0  0  0  0  0  0
  -22.2044  -11.3889   19.5637 C   0  0  0  0  0  0  0  0  0  0  0  0
  -20.7956  -32.2249   24.4391 C   0  0  0  0  0  0  0  0  0  0  0  0
  -20.2739  -29.7786   24.2591 C   0  0  0  0  0  0  0  0  0  0  0  0
  -21.6989  -30.6191   26.1401 C   0  0  0  0  0  0  0  0  0  0  0  0
  -20.5910  -13.6829   25.8091 C   0  0  0  0  0  0  0  0  0  0  0  0
  -22.0220  -24.2814   21.5336 C   0  0  0  0  0  0  0  0  0  0  0  0
  -22.5457  -28.7076   22.2638 C   0  0  0  0  0  0  0  0  0  0  0  0
  -22.9978  -27.2597   22.0399 C   0  0  0  0  0  0  0  0  0  0  0  0
  -23.8191  -22.8904   23.7258 C   0  0  0  0  0  0  0  0  0  0  0  0
  -23.8021  -21.9325   24.9146 C   0  0  0  0  0  0  0  0  0  0  0  0
  -22.9366  -29.2339   23.6417 C   0  0  0  0  0  0  0  0  0  0  0  0
  -22.3476  -26.2687   22.9982 C   0  0  0  0  0  0  0  0  0  0  0  0
  -22.7727  -23.9827   23.8892 C   0  0  0  0  0  0  0  0  0  0  0  0
  -24.8730  -20.8584   24.7864 C   0  0  0  0  0  0  0  0  0  1  0  0
  -22.2779  -13.3720   21.1302 C   0  0  1  0  0  0  0  0  0  0  0  0
  -19.6142  -12.6849   23.7383 C   0  0  2  0  0  0  0  0  0  0  0  0
  -22.0793  -12.9254   19.6542 C   0  0  0  0  0  0  0  0  0  0  0  0
  -21.3354  -30.8084   24.6628 C   0  0  0  0  0  0  0  0  0  0  0  0
  -26.4182  -28.0735   20.4417 N   0  0  0  0  0  0  0  0  0  0  0  0
  -25.2617  -28.5962   19.9995 N   0  0  0  0  0  0  0  0  0  0  0  0
  -24.4364  -14.1276   22.0758 N   0  0  0  0  0  0  0  0  0  0  0  0
  -24.2892  -31.4002   22.4182 N   0  0  0  0  0  0  0  0  0  0  0  0
  -23.3876  -28.1423   18.6239 N   0  0  0  0  0  0  0  0  0  0  0  0
  -25.8849  -24.3979   18.2510 N   0  0  0  0  0  0  0  0  0  0  0  0
  -27.7716  -13.4523   21.0031 N   0  0  0  0  0  0  0  0  0  0  0  0
  -21.3341  -12.7733   22.0678 N   0  0  0  0  0  0  0  0  0  0  0  0
  -22.5299  -30.6174   23.8431 N   0  0  0  0  0  0  0  0  0  0  0  0
  -19.3609  -13.3699   25.0373 N   0  3  0  0  0  0  0  0  0  0  0  0
  -22.7952  -24.8596   22.6938 N   0  3  1  0  0  0  0  0  0  0  0  0
  -23.9505  -25.4217   17.5664 O   0  0  0  0  0  0  0  0  0  0  0  0
  -26.2479  -15.1117   20.4139 O   0  0  0  0  0  0  0  0  0  0  0  0
  -24.0247  -11.8662   21.6849 O   0  0  0  0  0  0  0  0  0  0  0  0
  -20.4594  -14.7701   22.8582 O   0  0  0  0  0  0  0  0  0  0  0  0
  -23.4125  -32.7330   24.0834 O   0  0  0  0  0  0  0  0  0  0  0  0
  -30.7690  -23.4342   20.7515 O   0  0  0  0  0  0  0  0  0  0  0  0
  -24.6278  -20.1015   23.6017 O   0  0  0  0  0  0  0  0  0  1  0  0
  -29.6429  -18.1370   21.7890 F   0  0  0  0  0  0  0  0  0  0  0  0
  -31.5513  -22.2568   23.1273 F   0  0  0  0  0  0  0  0  0  0  0  0
  1  2  1  0  0  0  0
  1  5  2  0  0  0  0
  2  6  2  0  0  0  0
  3  8  2  0  0  0  0
  3 15  1  0  0  0  0
  4  9  1  0  0  0  0
  4 15  2  0  0  0  0
  5 17  1  0  0  0  0
  6 19  1  0  0  0  0
  7 10  2  0  0  0  0
  7 18  1  0  0  0  0
  8 21  1  0  0  0  0
  9 21  2  0  0  0  0
 10 22  1  0  0  0  0
 11 12  2  0  0  0  0
 11 23  1  0  0  0  0
 12 24  1  0  0  0  0
 13 20  1  0  0  0  0
 13 22  2  0  0  0  0
 14 24  2  0  0  0  0
 14 25  1  0  0  0  0
 15 26  1  0  0  0  0
 16 26  1  0  0  0  0
 16 27  2  0  0  0  0
 16 28  1  0  0  0  0
 17 19  2  0  0  0  0
 17 33  1  0  0  0  0
 18 20  2  0  0  0  0
 18 34  1  0  0  0  0
 19 42  1  0  0  0  0
 20 35  1  0  0  0  0
 21 82  1  0  0  0  0
 22 83  1  0  0  0  0
 23 25  2  0  0  0  0
 23 82  1  0  0  0  0
 24 84  1  0  0  0  0
 25 85  1  0  0  0  0
 26 66  2  0  0  0  0
 27 67  1  0  0  0  0
 27 70  1  0  0  0  0
 28 71  1  0  0  0  0
 28 77  2  0  0  0  0
 29 43  1  0  0  0  0
 29 72  1  0  0  0  0
 29 78  2  0  0  0  0
 30 62  1  0  0  0  0
 30 68  1  0  0  0  0
 30 79  2  0  0  0  0
 31 63  1  0  0  0  0
 31 73  1  0  0  0  0
 31 80  2  0  0  0  0
 32 69  1  0  0  0  0
 32 74  1  0  0  0  0
 32 81  2  0  0  0  0
 33 36  1  0  0  0  0
 34 43  1  0  0  0  0
 35 68  1  0  0  0  0
 36 38  1  0  0  0  0
 37 39  1  0  0  0  0
 37 40  1  0  0  0  0
 38 42  1  0  0  0  0
 39 44  1  0  0  0  0
 40 69  1  0  0  0  0
 41 44  1  0  0  0  0
 41 69  1  0  0  0  0
 42 72  1  0  0  0  0
 43 68  1  0  0  0  0
 44 67  1  0  0  0  0
 45 63  1  0  0  0  0
 46 64  1  0  0  0  0
 47 64  1  0  0  0  0
 48 64  1  0  0  0  0
 49 65  1  0  0  0  0
 50 65  1  0  0  0  0
 51 65  1  0  0  0  0
 52 75  1  0  0  0  0
 53 76  1  0  0  0  0
 54 55  1  0  0  0  0
 54 58  1  0  0  0  0
 55 59  1  0  0  0  0
 56 57  1  0  0  0  0
 56 60  1  0  0  0  0
 57 61  1  0  0  0  0
 58 74  1  0  0  0  0
 59 76  1  0  0  0  0
 60 76  1  0  0  0  0
 61 83  1  0  0  0  0
 62 64  1  0  0  0  0
 62 73  1  0  0  0  0
 63 75  1  0  0  0  0
 65 74  1  0  0  0  0
 66 67  1  0  0  0  0
M  CHG  2  75   1  76   1
M  ISO  4  32 100  61 101  74 100  83 101
M  END
> <Batch ID>
0090

> <Smiles>
CNC(C)C(=O)NC(C(=O)N1Cc2cc([101O:1][101CH2:1]CCCN(C)CCCC[100N:0]([100C:0](=O)N3CCCC(n4nc(-c5ccc(Oc6ccc(F)cc6F)cc5)c(C(N)=O)c4N)C3)C(C)(C)C)ccc2CC1C(=O)NC1CCCc2ccccc21)C(C)(C)C

> <Shape>
0.234

> <Color>
0.061

> <Negative vol penalty>
0.000

$$$$

  -OEChem-04052319093D

 88 96  0     1  0  0  0  0  0999 V2000
  -29.6142  -12.0217   19.8876 C   0  0  0  0  0  0  0  0  0  0  0  0
  -30.0018  -13.3244   19.5907 C   0  0  0  0  0  0  0  0  0  0  0  0
  -17.3446  -25.9525   19.8189 C   0  0  0  0  0  0  0  0  0  0  0  0
  -19.4005  -24.7321   20.1667 C   0  0  0  0  0  0  0  0  0  0  0  0
  -28.2600  -11.6995   19.9667 C   0  0  0  0  0  0  0  0  0  0  0  0
  -29.0354  -14.3055   19.3717 C   0  0  0  0  0  0  0  0  0  0  0  0
  -29.4011  -20.2326   20.8687 C   0  0  0  0  0  0  0  0  0  0  0  0
  -17.1039  -25.2163   18.6589 C   0  0  0  0  0  0  0  0  0  0  0  0
  -19.1598  -23.9959   19.0066 C   0  0  0  0  0  0  0  0  0  0  0  0
  -29.7300  -21.3681   20.1297 C   0  0  0  0  0  0  0  0  0  0  0  0
  -19.2683  -22.0433   15.9431 C   0  0  0  0  0  0  0  0  0  0  0  0
  -20.3332  -21.8547   15.0622 C   0  0  0  0  0  0  0  0  0  0  0  0
  -27.3858  -21.7950   19.7535 C   0  0  0  0  0  0  0  0  0  0  0  0
  -27.0790  -27.8271   21.3886 C   0  0  0  0  0  0  0  0  0  0  0  0
  -25.3839  -29.1576   20.2963 C   0  0  0  0  0  0  0  0  0  0  0  0
  -20.5288  -24.2469   14.7864 C   0  0  0  0  0  0  0  0  0  0  0  0
  -18.4930  -25.7104   20.5728 C   0  0  0  0  0  0  0  0  0  0  0  0
  -18.3330  -26.1537   23.0799 C   0  0  0  0  0  0  0  0  0  0  0  0
  -27.2765  -12.6792   19.7581 C   0  0  0  0  0  0  0  0  0  0  0  0
  -28.0602  -19.8630   21.0468 C   0  0  0  0  0  0  0  0  0  0  0  0
  -27.6667  -13.9957   19.4468 C   0  0  0  0  0  0  0  0  0  0  0  0
  -27.0424  -20.6557   20.4974 C   0  0  0  0  0  0  0  0  0  0  0  0
  -26.3025  -28.9844   21.3316 C   0  0  0  0  0  0  0  0  0  0  0  0
  -26.9370  -26.8430   20.4104 C   0  0  0  0  0  0  0  0  0  0  0  0
  -25.2417  -28.1734   19.3181 C   0  0  0  0  0  0  0  0  0  0  0  0
  -26.0183  -27.0161   19.3752 C   0  0  0  0  0  0  0  0  0  0  0  0
  -18.0114  -24.2381   18.2527 C   0  0  0  0  0  0  0  0  0  0  0  0
  -28.7224  -22.1479   19.5695 C   0  0  0  0  0  0  0  0  0  0  0  0
  -18.8336  -23.3337   16.2456 C   0  0  0  0  0  0  0  0  0  0  0  0
  -20.9635  -22.9565   14.4839 C   0  0  0  0  0  0  0  0  0  0  0  0
  -19.4638  -24.4355   15.6673 C   0  0  0  0  0  0  0  0  0  0  0  0
  -18.7425  -26.4709   21.7709 C   0  0  0  0  0  0  0  0  0  0  0  0
  -18.8153  -27.1839   23.8497 C   0  0  0  0  0  0  0  0  0  0  0  0
  -17.5838  -25.0284   23.5573 C   0  0  0  0  0  0  0  0  0  0  0  0
  -26.3051  -17.3356   20.2495 C   0  0  0  0  0  0  0  0  0  0  0  0
  -24.0392  -18.8396   22.0176 C   0  0  0  0  0  0  0  0  0  0  0  0
  -22.8397  -21.7614   23.3104 C   0  0  0  0  0  0  0  0  0  0  0  0
  -23.3739  -31.0036   23.1570 C   0  0  0  0  0  0  0  0  0  0  0  0
  -25.8249  -12.2728   19.8076 C   0  0  0  0  0  0  0  0  0  0  0  0
  -27.7210  -18.6501   21.8692 C   0  0  0  0  0  0  0  0  0  0  0  0
  -25.5866  -20.3135   20.6765 C   0  0  0  0  0  0  0  0  0  0  0  0
  -24.8656  -13.4538   19.9315 C   0  0  0  0  0  0  0  0  0  0  0  0
  -19.9401  -31.8281   23.6107 C   0  0  0  0  0  0  0  0  0  0  0  0
  -25.2416  -14.5529   18.9428 C   0  0  0  0  0  0  0  0  0  0  0  0
  -19.2069  -30.5200   23.3088 C   0  0  0  0  0  0  0  0  0  0  0  0
  -21.1574  -32.0142   22.7076 C   0  0  0  0  0  0  0  0  0  0  0  0
  -21.3740  -29.5778   22.4061 C   0  0  0  0  0  0  0  0  0  0  0  0
  -26.6482  -15.0933   19.2273 C   0  0  1  0  0  0  0  0  0  0  0  0
  -26.3412  -18.0811   21.5536 C   0  0  1  0  0  0  0  0  0  0  0  0
  -20.1713  -29.3189   23.3296 C   0  0  2  0  0  0  0  0  0  0  0  0
  -24.6139  -25.1155   18.5371 C   0  0  0  0  0  0  0  0  0  0  0  0
  -24.5848  -29.6120   17.3554 C   0  0  0  0  0  0  0  0  0  0  0  0
  -22.8072  -28.4873   18.7447 C   0  0  0  0  0  0  0  0  0  0  0  0
  -20.9490  -22.6794   24.6814 C   0  0  0  0  0  0  0  0  0  0  0  0
  -31.1129  -24.4669   18.8216 C   0  0  0  0  0  0  0  0  0  0  0  0
  -22.1806  -18.6014   19.6095 C   0  0  0  0  0  0  0  0  0  0  0  0
  -20.7040  -20.3249   20.6667 C   0  0  0  0  0  0  0  0  0  0  0  0
  -21.0939  -18.1451   21.8153 C   0  0  0  0  0  0  0  0  0  0  0  0
  -24.6825  -22.7337   25.4121 C   0  0  0  0  0  0  0  0  0  0  0  0
  -26.4549  -30.0370   22.3770 C   0  0  0  0  0  0  0  0  0  0  0  0
  -27.7876  -25.6009   20.4959 C   0  0  0  0  0  0  0  0  0  0  0  0
  -25.8658  -25.9605   18.3267 C   0  0  0  0  0  0  0  0  0  0  0  0
  -28.9547  -25.5799   19.4980 C   0  0  0  0  0  0  0  0  0  0  0  0
  -25.5268  -29.8445   23.5824 C   0  0  0  0  0  0  0  0  0  0  0  0
  -24.2508  -28.3828   18.2200 C   0  0  0  0  0  0  0  0  0  0  0  0
  -22.9569  -19.8521   21.7306 C   0  0  1  0  0  0  0  0  0  0  0  0
  -22.3652  -22.1258   24.7055 C   0  0  2  0  0  0  0  0  0  0  0  0
  -29.7712  -24.2818   19.5190 C   0  0  1  0  0  0  0  0  0  1  0  0
  -21.7613  -19.2365   20.9503 C   0  0  0  0  0  0  0  0  0  0  0  0
  -19.4317  -27.6134   21.7089 N   0  0  0  0  0  0  0  0  0  0  0  0
  -19.4590  -28.0231   22.9885 N   0  0  0  0  0  0  0  0  0  0  0  0
  -25.3061  -19.1145   21.4834 N   0  0  0  0  0  0  0  0  0  0  0  0
  -22.0322  -30.8411   22.7744 N   0  0  0  0  0  0  0  0  0  0  0  0
  -18.7472  -27.4448   25.1725 N   0  0  0  0  0  0  0  0  0  0  0  0
  -17.1661  -24.0625   22.6316 N   0  0  0  0  0  0  0  0  0  0  0  0
  -26.6238  -15.9954   20.3586 N   0  0  0  0  0  0  0  0  0  0  0  0
  -22.5935  -20.4368   23.0169 N   0  0  0  0  0  0  0  0  0  0  0  0
  -24.1321  -29.8400   23.2008 N   0  0  0  0  0  0  0  0  0  0  0  0
  -23.2617  -23.1542   25.3054 N   0  3  0  0  0  0  0  0  0  0  0  0
  -17.2791  -24.8920   24.7665 O   0  0  0  0  0  0  0  0  0  0  0  0
  -26.0086  -17.9318   19.2208 O   0  0  0  0  0  0  0  0  0  0  0  0
  -23.7723  -17.8451   22.6969 O   0  0  0  0  0  0  0  0  0  0  0  0
  -23.3719  -22.5717   22.5549 O   0  0  0  0  0  0  0  0  0  0  0  0
  -23.8588  -32.1034   23.4439 O   0  0  0  0  0  0  0  0  0  0  0  0
  -17.7767  -23.5194   17.1210 O   0  0  0  0  0  0  0  0  0  0  0  0
  -29.0407  -23.2564   18.8472 O   0  0  0  0  0  0  0  0  0  1  0  0
  -21.9871  -22.7753   13.6392 F   0  0  0  0  0  0  0  0  0  0  0  0
  -19.0514  -25.6777   15.9550 F   0  0  0  0  0  0  0  0  0  0  0  0
  1  2  1  0  0  0  0
  1  5  2  0  0  0  0
  2  6  2  0  0  0  0
  3  8  2  0  0  0  0
  3 17  1  0  0  0  0
  4  9  1  0  0  0  0
  4 17  2  0  0  0  0
  5 19  1  0  0  0  0
  6 21  1  0  0  0  0
  7 10  2  0  0  0  0
  7 20  1  0  0  0  0
  8 27  1  0  0  0  0
  9 27  2  0  0  0  0
 10 28  1  0  0  0  0
 11 12  2  0  0  0  0
 11 29  1  0  0  0  0
 12 30  1  0  0  0  0
 13 22  1  0  0  0  0
 13 28  2  0  0  0  0
 14 23  1  0  0  0  0
 14 24  2  0  0  0  0
 15 23  2  0  0  0  0
 15 25  1  0  0  0  0
 16 30  2  0  0  0  0
 16 31  1  0  0  0  0
 17 32  1  0  0  0  0
 18 32  1  0  0  0  0
 18 33  2  0  0  0  0
 18 34  1  0  0  0  0
 19 21  2  0  0  0  0
 19 39  1  0  0  0  0
 20 22  2  0  0  0  0
 20 40  1  0  0  0  0
 21 48  1  0  0  0  0
 22 41  1  0  0  0  0
 23 60  1  0  0  0  0
 24 26  1  0  0  0  0
 24 61  1  0  0  0  0
 25 26  2  0  0  0  0
 25 65  1  0  0  0  0
 26 62  1  0  0  0  0
 27 85  1  0  0  0  0
 28 86  1  0  0  0  0
 29 31  2  0  0  0  0
 29 85  1  0  0  0  0
 30 87  1  0  0  0  0
 31 88  1  0  0  0  0
 32 70  2  0  0  0  0
 33 71  1  0  0  0  0
 33 74  1  0  0  0  0
 34 75  1  0  0  0  0
 34 80  2  0  0  0  0
 35 49  1  0  0  0  0
 35 76  1  0  0  0  0
 35 81  2  0  0  0  0
 36 66  1  0  0  0  0
 36 72  1  0  0  0  0
 36 82  2  0  0  0  0
 37 67  1  0  0  0  0
 37 77  1  0  0  0  0
 37 83  2  0  0  0  0
 38 73  1  0  0  0  0
 38 78  1  0  0  0  0
 38 84  2  0  0  0  0
 39 42  1  0  0  0  0
 40 49  1  0  0  0  0
 41 72  1  0  0  0  0
 42 44  1  0  0  0  0
 43 45  1  0  0  0  0
 43 46  1  0  0  0  0
 44 48  1  0  0  0  0
 45 50  1  0  0  0  0
 46 73  1  0  0  0  0
 47 50  1  0  0  0  0
 47 73  1  0  0  0  0
 48 76  1  0  0  0  0
 49 72  1  0  0  0  0
 50 71  1  0  0  0  0
 51 62  1  0  0  0  0
 52 65  1  0  0  0  0
 53 65  1  0  0  0  0
 54 67  1  0  0  0  0
 55 68  1  0  0  0  0
 56 69  1  0  0  0  0
 57 69  1  0  0  0  0
 58 69  1  0  0  0  0
 59 79  1  0  0  0  0
 60 64  1  0  0  0  0
 61 63  1  0  0  0  0
 63 68  1  0  0  0  0
 64 78  1  0  0  0  0
 66 69  1  0  0  0  0
 66 77  1  0  0  0  0
 67 79  1  0  0  0  0
 68 86  1  0  0  0  0
 70 71  1  0  0  0  0
M  CHG  1  79   1
M  ISO  4  38 100  68 101  78 100  86 101
M  END
> <Batch ID>
0090

> <Smiles>
CCc1c(CC[101CH:1](C)[101O:1]c2ccc3c(c2)CN(C(=O)C(NC(=O)C(C)NC)C(C)(C)C)C(C(=O)NC2CCCc4ccccc42)C3)cc(CC[100NH:0][100C:0](=O)N2CCCC(n3nc(-c4ccc(Oc5ccc(F)cc5F)cc4)c(C(N)=O)c3N)C2)cc1C(C)C

> <Shape>
0.223

> <Color>
0.081

> <Negative vol penalty>
0.000

$$$$

  -OEChem-04052319093D

 88 96  0     1  0  0  0  0  0999 V2000
  -31.9451  -25.3388   24.9297 C   0  0  0  0  0  0  0  0  0  0  0  0
  -31.4497  -25.2255   23.6346 C   0  0  0  0  0  0  0  0  0  0  0  0
  -26.6199  -12.7615   21.6779 C   0  0  0  0  0  0  0  0  0  0  0  0
  -26.0290  -13.9487   19.6584 C   0  0  0  0  0  0  0  0  0  0  0  0
  -31.0641  -25.4151   26.0076 C   0  0  0  0  0  0  0  0  0  0  0  0
  -30.0729  -25.1873   23.4169 C   0  0  0  0  0  0  0  0  0  0  0  0
  -28.6310  -28.1529   19.5736 C   0  0  0  0  0  0  0  0  0  0  0  0
  -25.3431  -12.2017   21.7224 C   0  0  0  0  0  0  0  0  0  0  0  0
  -24.7522  -13.3888   19.7028 C   0  0  0  0  0  0  0  0  0  0  0  0
  -28.8412  -27.6697   18.2829 C   0  0  0  0  0  0  0  0  0  0  0  0
  -23.6706   -9.6890   20.1987 C   0  0  0  0  0  0  0  0  0  0  0  0
  -23.5702   -8.3242   20.4687 C   0  0  0  0  0  0  0  0  0  0  0  0
  -26.5239  -27.0110   18.1585 C   0  0  0  0  0  0  0  0  0  0  0  0
  -29.4612  -20.7070   17.0814 C   0  0  0  0  0  0  0  0  0  0  0  0
  -22.2557   -8.8102   22.4367 C   0  0  0  0  0  0  0  0  0  0  0  0
  -28.0690  -22.3818   17.6530 C   0  0  0  0  0  0  0  0  0  0  0  0
  -26.9629  -13.6351   20.6459 C   0  0  0  0  0  0  0  0  0  0  0  0
  -29.4187  -13.6886   19.9578 C   0  0  0  0  0  0  0  0  0  0  0  0
  -29.6757  -25.3876   25.8022 C   0  0  0  0  0  0  0  0  0  0  0  0
  -27.3661  -28.0588   20.1716 C   0  0  0  0  0  0  0  0  0  0  0  0
  -29.1725  -25.2620   24.4932 C   0  0  0  0  0  0  0  0  0  0  0  0
  -26.2996  -27.4961   19.4560 C   0  0  0  0  0  0  0  0  0  0  0  0
  -29.1312  -21.6299   18.1044 C   0  0  0  0  0  0  0  0  0  0  0  0
  -24.4093  -12.5153   20.7349 C   0  0  0  0  0  0  0  0  0  0  0  0
  -27.7883  -27.0960   17.5762 C   0  0  0  0  0  0  0  0  0  0  0  0
  -23.0635  -10.6144   21.0477 C   0  0  0  0  0  0  0  0  0  0  0  0
  -22.8628   -7.8848   21.5877 C   0  0  0  0  0  0  0  0  0  0  0  0
  -22.3561  -10.1750   22.1667 C   0  0  0  0  0  0  0  0  0  0  0  0
  -28.2814  -14.2142   20.5997 C   0  0  0  0  0  0  0  0  0  0  0  0
  -28.5907  -20.9231   16.0360 C   0  0  0  0  0  0  0  0  0  0  0  0
  -30.4089  -14.6072   20.2070 C   0  0  0  0  0  0  0  0  0  0  0  0
  -29.5668  -12.4783   19.2035 C   0  0  0  0  0  0  0  0  0  0  0  0
  -26.2042  -26.5970   22.7440 C   0  0  0  0  0  0  0  0  0  0  0  0
  -23.5036  -28.2160   21.9645 C   0  0  0  0  0  0  0  0  0  0  0  0
  -21.6496  -29.7689   19.5565 C   0  0  0  0  0  0  0  0  0  0  0  0
  -30.3183  -20.4612   21.4615 C   0  0  0  0  0  0  0  0  0  0  0  0
  -28.7634  -25.4254   27.0026 C   0  0  0  0  0  0  0  0  0  0  0  0
  -27.1493  -28.6090   21.5546 C   0  0  0  0  0  0  0  0  0  0  0  0
  -24.9176  -27.3897   20.0453 C   0  0  0  0  0  0  0  0  0  0  0  0
  -27.3139  -25.7555   26.6558 C   0  0  0  0  0  0  0  0  0  0  0  0
  -31.7626  -17.8715   23.4323 C   0  0  0  0  0  0  0  0  0  0  0  0
  -26.8492  -24.9287   25.4611 C   0  0  0  0  0  0  0  0  0  0  0  0
  -31.1368  -16.5931   22.8719 C   0  0  0  0  0  0  0  0  0  0  0  0
  -30.7700  -19.0320   23.4338 C   0  0  0  0  0  0  0  0  0  0  0  0
  -29.5084  -18.0263   21.5709 C   0  0  0  0  0  0  0  0  0  0  0  0
  -27.6852  -25.2423   24.2144 C   0  0  1  0  0  0  0  0  0  0  0  0
  -25.9436  -27.9953   22.2596 C   0  0  1  0  0  0  0  0  0  0  0  0
  -30.4878  -16.8425   21.4972 C   0  0  2  0  0  0  0  0  0  0  0  0
  -19.4694  -30.9631   19.2134 C   0  0  0  0  0  0  0  0  0  0  0  0
  -27.5793  -15.6224   16.6135 C   0  0  0  0  0  0  0  0  0  0  0  0
  -29.9539  -16.2503   16.1364 C   0  0  0  0  0  0  0  0  0  0  0  0
  -28.2679  -25.5094   13.6278 C   0  0  0  0  0  0  0  0  0  0  0  0
  -22.0324  -25.5437   22.0298 C   0  0  0  0  0  0  0  0  0  0  0  0
  -20.1515  -26.6279   20.7829 C   0  0  0  0  0  0  0  0  0  0  0  0
  -20.7784  -27.4502   23.0530 C   0  0  0  0  0  0  0  0  0  0  0  0
  -23.0124  -32.2606   18.7239 C   0  0  0  0  0  0  0  0  0  0  0  0
  -29.8005  -21.7621   19.4124 C   0  0  0  0  0  0  0  0  0  0  0  0
  -28.4922  -20.2425   14.7282 C   0  0  0  0  0  0  0  0  0  0  0  0
  -28.9359  -18.7611   14.7330 C   0  0  0  0  0  0  0  0  0  0  0  0
  -28.0623  -17.8899   15.6447 C   0  0  0  0  0  0  0  0  0  0  0  0
  -27.1192  -23.4236   14.4132 C   0  0  0  0  0  0  0  0  0  0  0  0
  -26.6364  -22.5101   15.5483 C   0  0  0  0  0  0  0  0  0  0  0  0
  -27.1817  -25.5249   15.8970 C   0  0  0  0  0  0  0  0  0  1  0  0
  -22.3021  -27.9351   21.0947 C   0  0  1  0  0  0  0  0  0  0  0  0
  -20.9475  -31.1146   19.5374 C   0  0  2  0  0  0  0  0  0  0  0  0
  -28.5023  -16.4142   15.6838 C   0  0  0  0  0  0  0  0  0  0  0  0
  -27.9199  -24.6662   14.8612 C   0  0  2  0  0  0  0  0  0  0  0  0
  -21.3425  -26.8893   21.7294 C   0  0  0  0  0  0  0  0  0  0  0  0
  -28.5253  -15.3764   21.2110 N   0  0  0  0  0  0  0  0  0  0  0  0
  -27.7491  -21.9436   16.3945 N   0  0  0  0  0  0  0  0  0  0  0  0
  -29.8273  -15.5887   20.9543 N   0  0  0  0  0  0  0  0  0  0  0  0
  -24.7575  -27.9363   21.4030 N   0  0  0  0  0  0  0  0  0  0  0  0
  -30.1919  -19.2167   22.1005 N   0  0  0  0  0  0  0  0  0  0  0  0
  -31.7117  -14.6629   19.8577 N   0  0  0  0  0  0  0  0  0  0  0  0
  -28.4481  -11.6492   19.0443 N   0  0  0  0  0  0  0  0  0  0  0  0
  -27.2637  -26.4952   23.6252 N   0  0  0  0  0  0  0  0  0  0  0  0
  -21.6826  -29.2280   20.8244 N   0  0  0  0  0  0  0  0  0  0  0  0
  -29.7475  -20.5491   20.1977 N   0  0  0  0  0  0  0  0  0  0  0  0
  -21.5638  -32.0060   18.5144 N   0  3  0  0  0  0  0  0  0  0  0  0
  -30.6628  -12.1339   18.6999 O   0  0  0  0  0  0  0  0  0  0  0  0
  -25.4956  -25.6787   22.3486 O   0  0  0  0  0  0  0  0  0  0  0  0
  -23.3361  -28.6737   23.0976 O   0  0  0  0  0  0  0  0  0  0  0  0
  -22.1184  -29.2477   18.5470 O   0  0  0  0  0  0  0  0  0  0  0  0
  -30.9015  -21.4210   21.9767 O   0  0  0  0  0  0  0  0  0  0  0  0
  -23.1634  -11.9690   20.7778 O   0  0  0  0  0  0  0  0  0  0  0  0
  -27.9909  -26.6229   16.3164 O   0  0  0  0  0  0  0  0  0  1  0  0
  -22.7652   -6.5741   21.8460 F   0  0  0  0  0  0  0  0  0  0  0  0
  -21.7698  -11.0593   22.9853 F   0  0  0  0  0  0  0  0  0  0  0  0
  1  2  1  0  0  0  0
  1  5  2  0  0  0  0
  2  6  2  0  0  0  0
  3  8  2  0  0  0  0
  3 17  1  0  0  0  0
  4  9  1  0  0  0  0
  4 17  2  0  0  0  0
  5 19  1  0  0  0  0
  6 21  1  0  0  0  0
  7 10  2  0  0  0  0
  7 20  1  0  0  0  0
  8 24  1  0  0  0  0
  9 24  2  0  0  0  0
 10 25  1  0  0  0  0
 11 12  2  0  0  0  0
 11 26  1  0  0  0  0
 12 27  1  0  0  0  0
 13 22  1  0  0  0  0
 13 25  2  0  0  0  0
 14 23  1  0  0  0  0
 14 30  2  0  0  0  0
 15 27  2  0  0  0  0
 15 28  1  0  0  0  0
 16 23  2  0  0  0  0
 16 70  1  0  0  0  0
 17 29  1  0  0  0  0
 18 29  1  0  0  0  0
 18 31  2  0  0  0  0
 18 32  1  0  0  0  0
 19 21  2  0  0  0  0
 19 37  1  0  0  0  0
 20 22  2  0  0  0  0
 20 38  1  0  0  0  0
 21 46  1  0  0  0  0
 22 39  1  0  0  0  0
 23 57  1  0  0  0  0
 24 85  1  0  0  0  0
 25 86  1  0  0  0  0
 26 28  2  0  0  0  0
 26 85  1  0  0  0  0
 27 87  1  0  0  0  0
 28 88  1  0  0  0  0
 29 69  2  0  0  0  0
 30 58  1  0  0  0  0
 30 70  1  0  0  0  0
 31 71  1  0  0  0  0
 31 74  1  0  0  0  0
 32 75  1  0  0  0  0
 32 80  2  0  0  0  0
 33 47  1  0  0  0  0
 33 76  1  0  0  0  0
 33 81  2  0  0  0  0
 34 64  1  0  0  0  0
 34 72  1  0  0  0  0
 34 82  2  0  0  0  0
 35 65  1  0  0  0  0
 35 77  1  0  0  0  0
 35 83  2  0  0  0  0
 36 73  1  0  0  0  0
 36 78  1  0  0  0  0
 36 84  2  0  0  0  0
 37 40  1  0  0  0  0
 38 47  1  0  0  0  0
 39 72  1  0  0  0  0
 40 42  1  0  0  0  0
 41 43  1  0  0  0  0
 41 44  1  0  0  0  0
 42 46  1  0  0  0  0
 43 48  1  0  0  0  0
 44 73  1  0  0  0  0
 45 48  1  0  0  0  0
 45 73  1  0  0  0  0
 46 76  1  0  0  0  0
 47 72  1  0  0  0  0
 48 71  1  0  0  0  0
 49 65  1  0  0  0  0
 50 66  1  0  0  0  0
 51 66  1  0  0  0  0
 52 67  1  0  0  0  0
 53 68  1  0  0  0  0
 54 68  1  0  0  0  0
 55 68  1  0  0  0  0
 56 79  1  0  0  0  0
 57 78  1  0  0  0  0
 58 59  1  0  0  0  0
 59 60  1  0  0  0  0
 60 66  1  0  0  0  0
 61 62  1  0  0  0  0
 61 67  1  0  0  0  0
 62 70  1  0  0  0  0
 63 67  1  0  0  0  0
 63 86  1  0  0  0  0
 64 68  1  0  0  0  0
 64 77  1  0  0  0  0
 65 79  1  0  0  0  0
 69 71  1  0  0  0  0
M  CHG  1  79   1
M  ISO  4  36 100  63 101  78 100  86 101
M  END
> <Batch ID>
0090

> <Smiles>
CNC(C)C(=O)NC(C(=O)N1Cc2cc([101O:1][101CH2:1]C(C)CCn3cc(C[100NH:0][100C:0](=O)N4CCCC(n5nc(-c6ccc(Oc7ccc(F)cc7F)cc6)c(C(N)=O)c5N)C4)cc3CCCC(C)C)ccc2CC1C(=O)NC1CCCc2ccccc21)C(C)(C)C

> <Shape>
0.220

> <Color>
0.079

> <Negative vol penalty>
0.000

$$$$

  -OEChem-04052319093D

 84 92  0     1  0  0  0  0  0999 V2000
  -25.3304  -20.7406   14.6777 C   0  0  0  0  0  0  0  0  0  0  0  0
  -26.1549  -19.9494   15.4712 C   0  0  0  0  0  0  0  0  0  0  0  0
  -23.8481  -29.2294   21.4757 C   0  0  0  0  0  0  0  0  0  0  0  0
  -25.6011  -29.8040   19.9156 C   0  0  0  0  0  0  0  0  0  0  0  0
  -24.0263  -21.0158   15.0870 C   0  0  0  0  0  0  0  0  0  0  0  0
  -25.6760  -19.4339   16.6751 C   0  0  0  0  0  0  0  0  0  0  0  0
  -26.8761  -14.5556   17.3136 C   0  0  0  0  0  0  0  0  0  0  0  0
  -23.9828  -30.4763   22.0862 C   0  0  0  0  0  0  0  0  0  0  0  0
  -25.7358  -31.0509   20.5260 C   0  0  0  0  0  0  0  0  0  0  0  0
  -28.1793  -14.2680   17.7171 C   0  0  0  0  0  0  0  0  0  0  0  0
  -24.1133  -33.3715   24.2826 C   0  0  0  0  0  0  0  0  0  0  0  0
  -24.1363  -33.4137   25.6766 C   0  0  0  0  0  0  0  0  0  0  0  0
  -27.4094  -13.9932   19.9867 C   0  0  0  0  0  0  0  0  0  0  0  0
  -26.0965  -32.0013   25.6869 C   0  0  0  0  0  0  0  0  0  0  0  0
  -31.5099  -18.5953   18.8541 C   0  0  0  0  0  0  0  0  0  0  0  0
  -24.6574  -28.8932   20.3904 C   0  0  0  0  0  0  0  0  0  0  0  0
  -23.6729  -27.2710   18.6854 C   0  0  0  0  0  0  0  0  0  0  0  0
  -23.5281  -20.4954   16.2918 C   0  0  0  0  0  0  0  0  0  0  0  0
  -25.8298  -14.5749   18.2471 C   0  0  0  0  0  0  0  0  0  0  0  0
  -24.3645  -19.7035   17.1015 C   0  0  0  0  0  0  0  0  0  0  0  0
  -26.0935  -14.2788   19.5920 C   0  0  0  0  0  0  0  0  0  0  0  0
  -24.9265  -31.3871   21.6114 C   0  0  0  0  0  0  0  0  0  0  0  0
  -28.4466  -13.9896   19.0543 C   0  0  0  0  0  0  0  0  0  0  0  0
  -25.0818  -32.6442   23.5907 C   0  0  0  0  0  0  0  0  0  0  0  0
  -25.1279  -32.7286   26.3788 C   0  0  0  0  0  0  0  0  0  0  0  0
  -26.0734  -31.9591   24.2929 C   0  0  0  0  0  0  0  0  0  0  0  0
  -24.5191  -27.6051   19.7597 C   0  0  0  0  0  0  0  0  0  0  0  0
  -30.6172  -19.3692   19.5624 C   0  0  0  0  0  0  0  0  0  0  0  0
  -30.3557  -17.6785   21.0800 C   0  0  0  0  0  0  0  0  0  0  0  0
  -31.2478  -16.9044   20.3712 C   0  0  0  0  0  0  0  0  0  0  0  0
  -23.9122  -25.9371   18.4618 C   0  0  0  0  0  0  0  0  0  0  0  0
  -22.7528  -28.0929   17.9549 C   0  0  0  0  0  0  0  0  0  0  0  0
  -23.7996  -16.7846   19.2956 C   0  0  0  0  0  0  0  0  0  0  0  0
  -22.4914  -14.2732   20.8780 C   0  0  0  0  0  0  0  0  0  0  0  0
  -22.9007  -11.1596   22.2140 C   0  0  0  0  0  0  0  0  0  0  0  0
  -28.6355  -22.5569   19.5202 C   0  0  0  0  0  0  0  0  0  0  0  0
  -22.1270  -20.8592   16.7154 C   0  0  0  0  0  0  0  0  0  0  0  0
  -24.4252  -14.8607   17.7912 C   0  0  0  0  0  0  0  0  0  0  0  0
  -25.0022  -14.2667   20.6300 C   0  0  0  0  0  0  0  0  0  0  0  0
  -21.5742  -19.9658   17.8229 C   0  0  0  0  0  0  0  0  0  0  0  0
  -25.2777  -21.9468   20.7245 C   0  0  0  0  0  0  0  0  0  0  0  0
  -22.6068  -19.7890   18.9316 C   0  0  0  0  0  0  0  0  0  0  0  0
  -24.6235  -23.3122   20.5061 C   0  0  0  0  0  0  0  0  0  0  0  0
  -26.7279  -22.0944   21.1754 C   0  0  0  0  0  0  0  0  0  0  0  0
  -26.9256  -24.2736   20.0415 C   0  0  0  0  0  0  0  0  0  0  0  0
  -23.8733  -19.1056   18.4021 C   0  0  1  0  0  0  0  0  0  0  0  0
  -23.5216  -15.3577   18.9154 C   0  0  1  0  0  0  0  0  0  0  0  0
  -25.4647  -24.1922   19.5626 C   0  0  2  0  0  0  0  0  0  0  0  0
  -28.5363  -18.0501   22.7647 C   0  0  0  0  0  0  0  0  0  0  0  0
  -32.7712  -15.5449   21.8276 C   0  0  0  0  0  0  0  0  0  0  0  0
  -21.6621   -9.3794   23.4766 C   0  0  0  0  0  0  0  0  0  0  0  0
  -22.7495  -15.9129   23.4382 C   0  0  0  0  0  0  0  0  0  0  0  0
  -22.4098  -13.8024   24.7414 C   0  0  0  0  0  0  0  0  0  0  0  0
  -20.6097  -14.6355   23.2287 C   0  0  0  0  0  0  0  0  0  0  0  0
  -23.2638   -9.1952   20.0303 C   0  0  0  0  0  0  0  0  0  0  0  0
  -29.7071  -17.1749   22.3240 C   0  0  0  0  0  0  0  0  0  0  0  0
  -30.2740  -20.7417   19.0993 C   0  0  0  0  0  0  0  0  0  0  0  0
  -31.9537  -14.5582   19.6536 C   0  0  0  0  0  0  0  0  0  0  0  0
  -30.7774  -14.3162   18.7125 C   0  0  0  0  0  0  0  0  0  1  0  0
  -31.6128  -15.5011   20.8238 C   0  0  2  0  0  0  0  0  0  0  0  0
  -22.7038  -13.6325   22.2283 C   0  0  1  0  0  0  0  0  0  0  0  0
  -22.0629   -9.8984   22.1045 C   0  0  2  0  0  0  0  0  0  0  0  0
  -22.1393  -14.4979   23.3902 C   0  0  0  0  0  0  0  0  0  0  0  0
  -31.8412  -17.3490   19.2458 N   0  0  0  0  0  0  0  0  0  0  0  0
  -25.2420  -26.5671   20.1888 N   0  0  0  0  0  0  0  0  0  0  0  0
  -30.0241  -18.9247   20.6881 N   0  0  0  0  0  0  0  0  0  0  0  0
  -24.8505  -25.5677   19.3802 N   0  0  0  0  0  0  0  0  0  0  0  0
  -23.6463  -14.5585   20.1360 N   0  0  0  0  0  0  0  0  0  0  0  0
  -27.4781  -22.9274   20.2249 N   0  0  0  0  0  0  0  0  0  0  0  0
  -23.4094  -25.0559   17.5712 N   0  0  0  0  0  0  0  0  0  0  0  0
  -22.6304  -29.4418   18.3154 N   0  0  0  0  0  0  0  0  0  0  0  0
  -23.6557  -17.6824   18.2551 N   0  0  0  0  0  0  0  0  0  0  0  0
  -22.1239  -12.2966   22.1420 N   0  0  0  0  0  0  0  0  0  0  0  0
  -29.0978  -21.2679   19.7556 N   0  0  0  0  0  0  0  0  0  0  0  0
  -22.8265   -8.8287   21.4020 N   0  3  0  0  0  0  0  0  0  0  0  0
  -22.0477  -27.6405   17.0213 O   0  0  0  0  0  0  0  0  0  0  0  0
  -24.1195  -17.0514   20.4481 O   0  0  0  0  0  0  0  0  0  0  0  0
  -21.3428  -14.5052   20.4926 O   0  0  0  0  0  0  0  0  0  0  0  0
  -24.1216  -11.1382   22.3534 O   0  0  0  0  0  0  0  0  0  0  0  0
  -29.2117  -23.3172   18.7346 O   0  0  0  0  0  0  0  0  0  0  0  0
  -25.0580  -32.6040   22.2067 O   0  0  0  0  0  0  0  0  0  0  0  0
  -29.7178  -13.7093   19.4509 O   0  0  0  0  0  0  0  0  0  1  0  0
  -25.1508  -32.7705   27.7174 F   0  0  0  0  0  0  0  0  0  0  0  0
  -27.0072  -31.2597   23.6336 F   0  0  0  0  0  0  0  0  0  0  0  0
  1  2  1  0  0  0  0
  1  5  2  0  0  0  0
  2  6  2  0  0  0  0
  3  8  2  0  0  0  0
  3 16  1  0  0  0  0
  4  9  1  0  0  0  0
  4 16  2  0  0  0  0
  5 18  1  0  0  0  0
  6 20  1  0  0  0  0
  7 10  2  0  0  0  0
  7 19  1  0  0  0  0
  8 22  1  0  0  0  0
  9 22  2  0  0  0  0
 10 23  1  0  0  0  0
 11 12  2  0  0  0  0
 11 24  1  0  0  0  0
 12 25  1  0  0  0  0
 13 21  1  0  0  0  0
 13 23  2  0  0  0  0
 14 25  2  0  0  0  0
 14 26  1  0  0  0  0
 15 28  1  0  0  0  0
 15 64  2  0  0  0  0
 16 27  1  0  0  0  0
 17 27  1  0  0  0  0
 17 31  2  0  0  0  0
 17 32  1  0  0  0  0
 18 20  2  0  0  0  0
 18 37  1  0  0  0  0
 19 21  2  0  0  0  0
 19 38  1  0  0  0  0
 20 46  1  0  0  0  0
 21 39  1  0  0  0  0
 22 81  1  0  0  0  0
 23 82  1  0  0  0  0
 24 26  2  0  0  0  0
 24 81  1  0  0  0  0
 25 83  1  0  0  0  0
 26 84  1  0  0  0  0
 27 65  2  0  0  0  0
 28 57  1  0  0  0  0
 28 66  2  0  0  0  0
 29 30  2  0  0  0  0
 29 56  1  0  0  0  0
 29 66  1  0  0  0  0
 30 60  1  0  0  0  0
 30 64  1  0  0  0  0
 31 67  1  0  0  0  0
 31 70  1  0  0  0  0
 32 71  1  0  0  0  0
 32 76  2  0  0  0  0
 33 47  1  0  0  0  0
 33 72  1  0  0  0  0
 33 77  2  0  0  0  0
 34 61  1  0  0  0  0
 34 68  1  0  0  0  0
 34 78  2  0  0  0  0
 35 62  1  0  0  0  0
 35 73  1  0  0  0  0
 35 79  2  0  0  0  0
 36 69  1  0  0  0  0
 36 74  1  0  0  0  0
 36 80  2  0  0  0  0
 37 40  1  0  0  0  0
 38 47  1  0  0  0  0
 39 68  1  0  0  0  0
 40 42  1  0  0  0  0
 41 43  1  0  0  0  0
 41 44  1  0  0  0  0
 42 46  1  0  0  0  0
 43 48  1  0  0  0  0
 44 69  1  0  0  0  0
 45 48  1  0  0  0  0
 45 69  1  0  0  0  0
 46 72  1  0  0  0  0
 47 68  1  0  0  0  0
 48 67  1  0  0  0  0
 49 56  1  0  0  0  0
 50 60  1  0  0  0  0
 51 62  1  0  0  0  0
 52 63  1  0  0  0  0
 53 63  1  0  0  0  0
 54 63  1  0  0  0  0
 55 75  1  0  0  0  0
 57 74  1  0  0  0  0
 58 59  1  0  0  0  0
 58 60  1  0  0  0  0
 59 82  1  0  0  0  0
 61 63  1  0  0  0  0
 61 73  1  0  0  0  0
 62 75  1  0  0  0  0
 65 67  1  0  0  0  0
M  CHG  1  75   1
M  ISO  4  36 100  59 101  74 100  82 101
M  END
> <Batch ID>
0090

> <Smiles>
CCc1nc(C[100NH:0][100C:0](=O)N2CCCC(n3nc(-c4ccc(Oc5ccc(F)cc5F)cc4)c(C(N)=O)c3N)C2)cnc1C(C)C[101CH2:1][101O:1]c1ccc2c(c1)CN(C(=O)C(NC(=O)C(C)NC)C(C)(C)C)C(C(=O)NC1CCCc3ccccc31)C2

> <Shape>
0.240

> <Color>
0.058

> <Negative vol penalty>
0.000

$$$$

  -OEChem-04052319093D

 88 96  0     1  0  0  0  0  0999 V2000
  -18.8693  -24.7227   23.5552 C   0  0  0  0  0  0  0  0  0  0  0  0
  -19.9719  -24.7207   22.7068 C   0  0  0  0  0  0  0  0  0  0  0  0
  -31.0600  -18.0802   20.7716 C   0  0  0  0  0  0  0  0  0  0  0  0
  -30.0295  -17.5182   18.6599 C   0  0  0  0  0  0  0  0  0  0  0  0
  -18.2057  -25.9175   23.8311 C   0  0  0  0  0  0  0  0  0  0  0  0
  -20.4108  -25.9133   22.1329 C   0  0  0  0  0  0  0  0  0  0  0  0
  -26.1979  -27.4975   20.9056 C   0  0  0  0  0  0  0  0  0  0  0  0
  -31.5868  -16.7915   20.8575 C   0  0  0  0  0  0  0  0  0  0  0  0
  -30.5564  -16.2295   18.7457 C   0  0  0  0  0  0  0  0  0  0  0  0
  -26.9525  -27.4592   19.7339 C   0  0  0  0  0  0  0  0  0  0  0  0
  -34.1792  -15.0673   19.5387 C   0  0  0  0  0  0  0  0  0  0  0  0
  -35.5149  -14.9370   19.9190 C   0  0  0  0  0  0  0  0  0  0  0  0
  -26.4229  -29.7767   19.3242 C   0  0  0  0  0  0  0  0  0  0  0  0
  -34.8415  -13.6303   21.8363 C   0  0  0  0  0  0  0  0  0  0  0  0
  -24.1918  -28.3256   15.1905 C   0  0  0  0  0  0  0  0  0  0  0  0
  -30.2813  -18.4435   19.6728 C   0  0  0  0  0  0  0  0  0  0  0  0
  -30.3369  -20.9010   18.9907 C   0  0  0  0  0  0  0  0  0  0  0  0
  -18.6425  -27.1268   23.2679 C   0  0  0  0  0  0  0  0  0  0  0  0
  -25.5400  -28.6746   21.2904 C   0  0  0  0  0  0  0  0  0  0  0  0
  -19.7515  -27.1252   22.4004 C   0  0  0  0  0  0  0  0  0  0  0  0
  -25.6626  -29.8280   20.5025 C   0  0  0  0  0  0  0  0  0  0  0  0
  -31.3350  -15.8662   19.8445 C   0  0  0  0  0  0  0  0  0  0  0  0
  -27.0627  -28.5980   18.9415 C   0  0  0  0  0  0  0  0  0  0  0  0
  -33.1747  -14.4791   20.3072 C   0  0  0  0  0  0  0  0  0  0  0  0
  -35.8460  -14.2185   21.0678 C   0  0  0  0  0  0  0  0  0  0  0  0
  -33.5058  -13.7606   21.4560 C   0  0  0  0  0  0  0  0  0  0  0  0
  -29.7363  -19.7744   19.5838 C   0  0  0  0  0  0  0  0  0  0  0  0
  -23.5104  -27.2310   14.7383 C   0  0  0  0  0  0  0  0  0  0  0  0
  -29.4225  -21.9105   19.1674 C   0  0  0  0  0  0  0  0  0  0  0  0
  -24.6702  -28.0614   13.0454 C   0  0  0  0  0  0  0  0  0  0  0  0
  -31.6078  -21.0240   18.3384 C   0  0  0  0  0  0  0  0  0  0  0  0
  -22.5050  -29.5012   21.7479 C   0  0  0  0  0  0  0  0  0  0  0  0
  -23.8248  -32.2709   22.8010 C   0  0  0  0  0  0  0  0  0  0  0  0
  -26.4814  -34.4128   22.7624 C   0  0  0  0  0  0  0  0  0  0  0  0
  -24.1714  -23.7966   19.0466 C   0  0  0  0  0  0  0  0  0  0  0  0
  -17.8643  -28.3857   23.5581 C   0  0  0  0  0  0  0  0  0  0  0  0
  -24.7518  -28.7071   22.5710 C   0  0  0  0  0  0  0  0  0  0  0  0
  -24.9926  -31.1225   20.8820 C   0  0  0  0  0  0  0  0  0  0  0  0
  -18.6207  -29.6642   23.2064 C   0  0  0  0  0  0  0  0  0  0  0  0
  -25.2300  -22.0981   21.9913 C   0  0  0  0  0  0  0  0  0  0  0  0
  -19.2532  -29.5468   21.8233 C   0  0  0  0  0  0  0  0  0  0  0  0
  -26.5424  -21.4304   21.5767 C   0  0  0  0  0  0  0  0  0  0  0  0
  -24.2135  -22.1007   20.8518 C   0  0  0  0  0  0  0  0  0  0  0  0
  -26.0149  -22.0126   19.1722 C   0  0  0  0  0  0  0  0  0  0  0  0
  -20.2729  -28.4024   21.7782 C   0  0  1  0  0  0  0  0  0  0  0  0
  -23.7029  -29.8145   22.5991 C   0  0  1  0  0  0  0  0  0  0  0  0
  -27.0914  -22.0358   20.2708 C   0  0  2  0  0  0  0  0  0  0  0  0
  -26.9291  -27.4164    9.9816 C   0  0  0  0  0  0  0  0  0  0  0  0
  -27.2520  -36.6124   23.6926 C   0  0  0  0  0  0  0  0  0  0  0  0
  -23.9412  -24.1711   15.0219 C   0  0  0  0  0  0  0  0  0  0  0  0
  -29.2897  -28.6435   15.2843 C   0  0  0  0  0  0  0  0  0  0  0  0
  -22.0202  -33.7362   20.8245 C   0  0  0  0  0  0  0  0  0  0  0  0
  -23.4717  -35.7568   21.1044 C   0  0  0  0  0  0  0  0  0  0  0  0
  -22.2279  -34.8362   23.0609 C   0  0  0  0  0  0  0  0  0  0  0  0
  -28.7752  -33.1556   24.1469 C   0  0  0  0  0  0  0  0  0  0  0  0
  -22.5999  -26.3077   15.4202 C   0  0  0  0  0  0  0  0  0  0  0  0
  -25.2383  -28.2456   11.6866 C   0  0  0  0  0  0  0  0  0  0  0  0
  -26.3728  -27.2499   11.3869 C   0  0  0  0  0  0  0  0  0  0  0  0
  -27.2987  -29.6924   14.1786 C   0  0  0  0  0  0  0  0  0  0  0  0
  -25.8011  -30.0290   14.1634 C   0  0  0  0  0  0  0  0  0  0  0  0
  -24.2728  -25.4366   17.1867 C   0  0  0  0  0  0  0  0  0  0  0  0
  -27.3901  -29.4261   16.7363 C   0  0  0  0  0  0  0  0  0  1  0  0
  -24.2254  -33.5766   22.1578 C   0  0  1  0  0  0  0  0  0  0  0  0
  -27.2344  -35.1040   23.8848 C   0  0  2  0  0  0  0  0  0  0  0  0
  -23.2757  -25.0618   16.0773 C   0  0  2  0  0  0  0  0  0  0  0  0
  -27.7700  -28.8334   15.3727 C   0  0  2  0  0  0  0  0  0  0  0  0
  -22.9974  -34.4517   21.7785 C   0  0  0  0  0  0  0  0  0  0  0  0
  -28.5335  -20.0425   20.0989 N   0  0  0  0  0  0  0  0  0  0  0  0
  -24.9014  -28.8191   14.1223 N   0  0  0  0  0  0  0  0  0  0  0  0
  -28.3709  -21.3491   19.8300 N   0  0  0  0  0  0  0  0  0  0  0  0
  -23.8248  -27.0912   13.4080 N   0  3  0  0  0  0  0  0  0  0  0  0
  -24.2279  -31.1021   22.1399 N   0  0  0  0  0  0  0  0  0  0  0  0
  -24.7962  -22.6890   19.6434 N   0  0  0  0  0  0  0  0  0  0  0  0
  -29.4235  -23.2148   18.8190 N   0  0  0  0  0  0  0  0  0  0  0  0
  -32.4230  -19.8879   18.2438 N   0  0  0  0  0  0  0  0  0  0  0  0
  -21.5118  -28.8042   22.4091 N   0  0  0  0  0  0  0  0  0  0  0  0
  -25.1541  -34.2187   23.0817 N   0  0  0  0  0  0  0  0  0  0  0  0
  -24.7924  -24.2966   17.9086 N   0  0  0  0  0  0  0  0  0  0  0  0
  -28.6431  -34.6205   23.9380 N   0  3  0  0  0  0  0  0  0  0  0  0
  -32.0156  -22.1131   17.8683 O   0  0  0  0  0  0  0  0  0  0  0  0
  -22.4829  -29.8660   20.5783 O   0  0  0  0  0  0  0  0  0  0  0  0
  -23.1840  -32.2875   23.8549 O   0  0  0  0  0  0  0  0  0  0  0  0
  -27.0162  -34.0819   21.7065 O   0  0  0  0  0  0  0  0  0  0  0  0
  -23.1398  -24.3056   19.4978 O   0  0  0  0  0  0  0  0  0  0  0  0
  -31.8492  -14.6087   19.9279 O   0  0  0  0  0  0  0  0  0  0  0  0
  -27.7982  -28.5632   17.7970 O   0  0  0  0  0  0  0  0  0  1  0  0
  -37.1288  -14.0922   21.4321 F   0  0  0  0  0  0  0  0  0  0  0  0
  -32.5452  -13.1923   22.1977 F   0  0  0  0  0  0  0  0  0  0  0  0
  1  2  1  0  0  0  0
  1  5  2  0  0  0  0
  2  6  2  0  0  0  0
  3  8  2  0  0  0  0
  3 16  1  0  0  0  0
  4  9  1  0  0  0  0
  4 16  2  0  0  0  0
  5 18  1  0  0  0  0
  6 20  1  0  0  0  0
  7 10  2  0  0  0  0
  7 19  1  0  0  0  0
  8 22  1  0  0  0  0
  9 22  2  0  0  0  0
 10 23  1  0  0  0  0
 11 12  2  0  0  0  0
 11 24  1  0  0  0  0
 12 25  1  0  0  0  0
 13 21  1  0  0  0  0
 13 23  2  0  0  0  0
 14 25  2  0  0  0  0
 14 26  1  0  0  0  0
 15 28  2  0  0  0  0
 15 69  1  0  0  0  0
 16 27  1  0  0  0  0
 17 27  1  0  0  0  0
 17 29  2  0  0  0  0
 17 31  1  0  0  0  0
 18 20  2  0  0  0  0
 18 36  1  0  0  0  0
 19 21  2  0  0  0  0
 19 37  1  0  0  0  0
 20 45  1  0  0  0  0
 21 38  1  0  0  0  0
 22 85  1  0  0  0  0
 23 86  1  0  0  0  0
 24 26  2  0  0  0  0
 24 85  1  0  0  0  0
 25 87  1  0  0  0  0
 26 88  1  0  0  0  0
 27 68  2  0  0  0  0
 28 56  1  0  0  0  0
 28 71  1  0  0  0  0
 29 70  1  0  0  0  0
 29 74  1  0  0  0  0
 30 57  1  0  0  0  0
 30 69  1  0  0  0  0
 30 71  2  0  0  0  0
 31 75  1  0  0  0  0
 31 80  2  0  0  0  0
 32 46  1  0  0  0  0
 32 76  1  0  0  0  0
 32 81  2  0  0  0  0
 33 63  1  0  0  0  0
 33 72  1  0  0  0  0
 33 82  2  0  0  0  0
 34 64  1  0  0  0  0
 34 77  1  0  0  0  0
 34 83  2  0  0  0  0
 35 73  1  0  0  0  0
 35 78  1  0  0  0  0
 35 84  2  0  0  0  0
 36 39  1  0  0  0  0
 37 46  1  0  0  0  0
 38 72  1  0  0  0  0
 39 41  1  0  0  0  0
 40 42  1  0  0  0  0
 40 43  1  0  0  0  0
 41 45  1  0  0  0  0
 42 47  1  0  0  0  0
 43 73  1  0  0  0  0
 44 47  1  0  0  0  0
 44 73  1  0  0  0  0
 45 76  1  0  0  0  0
 46 72  1  0  0  0  0
 47 70  1  0  0  0  0
 48 58  1  0  0  0  0
 49 64  1  0  0  0  0
 50 65  1  0  0  0  0
 51 66  1  0  0  0  0
 52 67  1  0  0  0  0
 53 67  1  0  0  0  0
 54 67  1  0  0  0  0
 55 79  1  0  0  0  0
 56 65  1  0  0  0  0
 57 58  1  0  0  0  0
 59 60  1  0  0  0  0
 59 66  1  0  0  0  0
 60 69  1  0  0  0  0
 61 65  1  0  0  0  0
 61 78  1  0  0  0  0
 62 66  1  0  0  0  0
 62 86  1  0  0  0  0
 63 67  1  0  0  0  0
 63 77  1  0  0  0  0
 64 79  1  0  0  0  0
 68 70  1  0  0  0  0
M  CHG  2  71   1  79   1
M  ISO  4  35 100  62 101  78 100  86 101
M  END
> <Batch ID>
0090

> <Smiles>
CCCc1nc(CC(C)C[100NH:0][100C:0](=O)N2CCCC(n3nc(-c4ccc(Oc5ccc(F)cc5F)cc4)c(C(N)=O)c3N)C2)cn1CCC(C)[101CH2:1][101O:1]c1ccc2c(c1)CN(C(=O)C(NC(=O)C(C)NC)C(C)(C)C)C(C(=O)NC1CCCc3ccccc31)C2

> <Shape>
0.198

> <Color>
0.118

> <Negative vol penalty>
0.000

$$$$

  -OEChem-04052319093D

 86 94  0     1  0  0  0  0  0999 V2000
  -31.6925  -23.4531   33.1371 C   0  0  0  0  0  0  0  0  0  0  0  0
  -30.8103  -23.3160   32.0701 C   0  0  0  0  0  0  0  0  0  0  0  0
  -23.0740   -9.8694   19.9416 C   0  0  0  0  0  0  0  0  0  0  0  0
  -23.8378   -9.8751   22.2336 C   0  0  0  0  0  0  0  0  0  0  0  0
  -33.0122  -23.8377   32.9039 C   0  0  0  0  0  0  0  0  0  0  0  0
  -31.2471  -23.5646   30.7694 C   0  0  0  0  0  0  0  0  0  0  0  0
  -29.4522  -20.6870   25.6700 C   0  0  0  0  0  0  0  0  0  0  0  0
  -22.3309   -8.7159   20.1921 C   0  0  0  0  0  0  0  0  0  0  0  0
  -23.0947   -8.7216   22.4842 C   0  0  0  0  0  0  0  0  0  0  0  0
  -28.5229  -21.0169   24.6845 C   0  0  0  0  0  0  0  0  0  0  0  0
  -19.8678   -7.9225   23.0917 C   0  0  0  0  0  0  0  0  0  0  0  0
  -19.1129   -7.8816   24.2639 C   0  0  0  0  0  0  0  0  0  0  0  0
  -30.2955  -21.9308   23.3273 C   0  0  0  0  0  0  0  0  0  0  0  0
  -26.7695  -23.1528   18.0269 C   0  0  0  0  0  0  0  0  0  0  0  0
  -20.3561   -5.9440   24.9970 C   0  0  0  0  0  0  0  0  0  0  0  0
  -23.8275  -10.4490   20.9623 C   0  0  0  0  0  0  0  0  0  0  0  0
  -24.1685  -12.9744   20.8434 C   0  0  0  0  0  0  0  0  0  0  0  0
  -33.4680  -24.0817   31.5988 C   0  0  0  0  0  0  0  0  0  0  0  0
  -30.8110  -20.9869   25.4960 C   0  0  0  0  0  0  0  0  0  0  0  0
  -32.5738  -23.9542   30.5187 C   0  0  0  0  0  0  0  0  0  0  0  0
  -31.2405  -21.6014   24.3111 C   0  0  0  0  0  0  0  0  0  0  0  0
  -26.6933  -22.3720   19.2066 C   0  0  0  0  0  0  0  0  0  0  0  0
  -22.3412   -8.1420   21.4633 C   0  0  0  0  0  0  0  0  0  0  0  0
  -28.9441  -21.6415   23.5142 C   0  0  0  0  0  0  0  0  0  0  0  0
  -20.8668   -6.9741   22.8721 C   0  0  0  0  0  0  0  0  0  0  0  0
  -19.3570   -6.8924   25.2165 C   0  0  0  0  0  0  0  0  0  0  0  0
  -21.1110   -5.9849   23.8247 C   0  0  0  0  0  0  0  0  0  0  0  0
  -24.5958  -11.6403   20.7041 C   0  0  0  0  0  0  0  0  0  0  0  0
  -27.3717  -22.3788   17.0596 C   0  0  0  0  0  0  0  0  0  0  0  0
  -27.2515  -21.1448   18.9244 C   0  0  0  0  0  0  0  0  0  0  0  0
  -25.2598  -13.7244   20.4787 C   0  0  0  0  0  0  0  0  0  0  0  0
  -22.8986  -13.4895   21.2648 C   0  0  0  0  0  0  0  0  0  0  0  0
  -32.9180  -22.8143   27.0208 C   0  0  0  0  0  0  0  0  0  0  0  0
  -35.0097  -21.4600   24.9441 C   0  0  0  0  0  0  0  0  0  0  0  0
  -35.5249  -19.9157   21.9447 C   0  0  0  0  0  0  0  0  0  0  0  0
  -30.7436  -14.7448   20.6582 C   0  0  0  0  0  0  0  0  0  0  0  0
  -34.8908  -24.5411   31.4008 C   0  0  0  0  0  0  0  0  0  0  0  0
  -31.8046  -20.6004   26.5571 C   0  0  0  0  0  0  0  0  0  0  0  0
  -32.6907  -21.9264   24.0668 C   0  0  0  0  0  0  0  0  0  0  0  0
  -35.3740  -24.4221   29.9576 C   0  0  0  0  0  0  0  0  0  0  0  0
  -29.6025  -12.3615   18.2719 C   0  0  0  0  0  0  0  0  0  0  0  0
  -34.3284  -24.9795   28.9969 C   0  0  0  0  0  0  0  0  0  0  0  0
  -28.1659  -12.0671   18.7071 C   0  0  0  0  0  0  0  0  0  0  0  0
  -30.5216  -12.5818   19.4713 C   0  0  0  0  0  0  0  0  0  0  0  0
  -28.6221  -13.3115   20.8617 C   0  0  0  0  0  0  0  0  0  0  0  0
  -33.0166  -24.1909   29.0911 C   0  0  1  0  0  0  0  0  0  0  0  0
  -33.0918  -21.4171   26.4962 C   0  0  1  0  0  0  0  0  0  0  0  0
  -27.6459  -13.1374   19.6856 C   0  0  2  0  0  0  0  0  0  0  0  0
  -27.6937  -22.7013   15.6542 C   0  0  0  0  0  0  0  0  0  0  0  0
  -36.7711  -18.7131   20.1286 C   0  0  0  0  0  0  0  0  0  0  0  0
  -35.8707  -24.2818   24.1658 C   0  0  0  0  0  0  0  0  0  0  0  0
  -36.9498  -23.3145   22.1242 C   0  0  0  0  0  0  0  0  0  0  0  0
  -37.7468  -22.6435   24.3908 C   0  0  0  0  0  0  0  0  0  0  0  0
  -28.3002  -20.0589   16.9279 C   0  0  0  0  0  0  0  0  0  0  0  0
  -34.9506  -17.2709   23.1422 C   0  0  0  0  0  0  0  0  0  0  0  0
  -26.1067  -22.8111   20.5244 C   0  0  0  0  0  0  0  0  0  0  0  0
  -27.4305  -19.9583   19.7883 C   0  0  0  0  0  0  0  0  0  0  0  0
  -27.0146  -23.7516   21.3199 C   0  0  0  0  0  0  0  0  0  0  0  0
  -30.5274  -18.0459   20.9377 C   0  0  0  0  0  0  0  0  0  0  0  0
  -30.8110  -16.8946   21.8964 C   0  0  0  0  0  0  0  0  0  0  0  0
  -29.0447  -18.3890   20.8700 C   0  0  0  0  0  0  0  0  0  0  0  0
  -28.3286  -23.1064   21.7447 C   0  0  0  0  0  0  0  0  0  1  0  0
  -35.5134  -21.7973   23.5615 C   0  0  1  0  0  0  0  0  0  0  0  0
  -36.3053  -18.6670   21.5756 C   0  0  2  0  0  0  0  0  0  0  0  0
  -36.4925  -23.0050   23.5657 C   0  0  0  0  0  0  0  0  0  0  0  0
  -25.8600  -11.5451   20.2835 N   0  0  0  0  0  0  0  0  0  0  0  0
  -27.6607  -21.1604   17.6165 N   0  0  0  0  0  0  0  0  0  0  0  0
  -26.2363  -12.8288   20.1554 N   0  0  0  0  0  0  0  0  0  0  0  0
  -33.6230  -21.5344   25.1367 N   0  0  0  0  0  0  0  0  0  0  0  0
  -29.9723  -13.6096   20.3589 N   0  0  0  0  0  0  0  0  0  0  0  0
  -25.4697  -15.0559   20.4062 N   0  0  0  0  0  0  0  0  0  0  0  0
  -21.8875  -12.5799   21.6033 N   0  0  0  0  0  0  0  0  0  0  0  0
  -33.1298  -22.9350   28.3810 N   0  0  0  0  0  0  0  0  0  0  0  0
  -36.0842  -20.5671   23.0237 N   0  0  0  0  0  0  0  0  0  0  0  0
  -30.1456  -15.6729   21.5019 N   0  0  0  0  0  0  0  0  0  0  0  0
  -35.4587  -17.4542   21.7583 N   0  3  0  0  0  0  0  0  0  0  0  0
  -28.8562  -19.5446   19.9582 N   0  3  0  0  0  0  0  0  0  0  0  0
  -22.6621  -14.7201   21.3234 O   0  0  0  0  0  0  0  0  0  0  0  0
  -32.6156  -23.7164   26.2485 O   0  0  0  0  0  0  0  0  0  0  0  0
  -35.8164  -21.1353   25.8191 O   0  0  0  0  0  0  0  0  0  0  0  0
  -34.5219  -20.2791   21.3344 O   0  0  0  0  0  0  0  0  0  0  0  0
  -31.8787  -14.9209   20.2028 O   0  0  0  0  0  0  0  0  0  0  0  0
  -21.6159   -7.0166   21.7082 O   0  0  0  0  0  0  0  0  0  0  0  0
  -28.0390  -21.9651   22.5509 O   0  0  0  0  0  0  0  0  0  1  0  0
  -18.6330   -6.8542   26.3428 F   0  0  0  0  0  0  0  0  0  0  0  0
  -22.0702   -5.0718   23.6198 F   0  0  0  0  0  0  0  0  0  0  0  0
  1  2  1  0  0  0  0
  1  5  2  0  0  0  0
  2  6  2  0  0  0  0
  3  8  2  0  0  0  0
  3 16  1  0  0  0  0
  4  9  1  0  0  0  0
  4 16  2  0  0  0  0
  5 18  1  0  0  0  0
  6 20  1  0  0  0  0
  7 10  2  0  0  0  0
  7 19  1  0  0  0  0
  8 23  1  0  0  0  0
  9 23  2  0  0  0  0
 10 24  1  0  0  0  0
 11 12  2  0  0  0  0
 11 25  1  0  0  0  0
 12 26  1  0  0  0  0
 13 21  1  0  0  0  0
 13 24  2  0  0  0  0
 14 22  1  0  0  0  0
 14 29  2  0  0  0  0
 15 26  2  0  0  0  0
 15 27  1  0  0  0  0
 16 28  1  0  0  0  0
 17 28  1  0  0  0  0
 17 31  2  0  0  0  0
 17 32  1  0  0  0  0
 18 20  2  0  0  0  0
 18 37  1  0  0  0  0
 19 21  2  0  0  0  0
 19 38  1  0  0  0  0
 20 46  1  0  0  0  0
 21 39  1  0  0  0  0
 22 30  2  0  0  0  0
 22 56  1  0  0  0  0
 23 83  1  0  0  0  0
 24 84  1  0  0  0  0
 25 27  2  0  0  0  0
 25 83  1  0  0  0  0
 26 85  1  0  0  0  0
 27 86  1  0  0  0  0
 28 66  2  0  0  0  0
 29 49  1  0  0  0  0
 29 67  1  0  0  0  0
 30 57  1  0  0  0  0
 30 67  1  0  0  0  0
 31 68  1  0  0  0  0
 31 71  1  0  0  0  0
 32 72  1  0  0  0  0
 32 78  2  0  0  0  0
 33 47  1  0  0  0  0
 33 73  1  0  0  0  0
 33 79  2  0  0  0  0
 34 63  1  0  0  0  0
 34 69  1  0  0  0  0
 34 80  2  0  0  0  0
 35 64  1  0  0  0  0
 35 74  1  0  0  0  0
 35 81  2  0  0  0  0
 36 70  1  0  0  0  0
 36 75  1  0  0  0  0
 36 82  2  0  0  0  0
 37 40  1  0  0  0  0
 38 47  1  0  0  0  0
 39 69  1  0  0  0  0
 40 42  1  0  0  0  0
 41 43  1  0  0  0  0
 41 44  1  0  0  0  0
 42 46  1  0  0  0  0
 43 48  1  0  0  0  0
 44 70  1  0  0  0  0
 45 48  1  0  0  0  0
 45 70  1  0  0  0  0
 46 73  1  0  0  0  0
 47 69  1  0  0  0  0
 48 68  1  0  0  0  0
 50 64  1  0  0  0  0
 51 65  1  0  0  0  0
 52 65  1  0  0  0  0
 53 65  1  0  0  0  0
 54 67  1  0  0  0  0
 55 76  1  0  0  0  0
 56 58  1  0  0  0  0
 57 77  1  0  0  0  0
 58 62  1  0  0  0  0
 59 60  1  0  0  0  0
 59 61  1  0  0  0  0
 60 75  1  0  0  0  0
 61 77  1  0  0  0  0
 62 84  1  0  0  0  0
 63 65  1  0  0  0  0
 63 74  1  0  0  0  0
 64 76  1  0  0  0  0
 66 68  1  0  0  0  0
M  CHG  2  76   1  77   1
M  ISO  4  36 100  62 101  75 100  84 101
M  END
> <Batch ID>
0090

> <Smiles>
CNC(C)C(=O)NC(C(=O)N1Cc2cc([101O:1][101CH2:1]CCc3cc(C)n(C)c3CNCCC[100NH:0][100C:0](=O)N3CCCC(n4nc(-c5ccc(Oc6ccc(F)cc6F)cc5)c(C(N)=O)c4N)C3)ccc2CC1C(=O)NC1CCCc2ccccc21)C(C)(C)C

> <Shape>
0.196

> <Color>
0.191

> <Negative vol penalty>
0.000

$$$$

  -OEChem-04052319093D

 86 94  0     1  0  0  0  0  0999 V2000
  -17.7383  -26.1976   22.8780 C   0  0  0  0  0  0  0  0  0  0  0  0
  -18.9104  -25.9154   22.1838 C   0  0  0  0  0  0  0  0  0  0  0  0
  -25.0337  -13.8891   21.0956 C   0  0  0  0  0  0  0  0  0  0  0  0
  -25.6459  -13.8572   18.7586 C   0  0  0  0  0  0  0  0  0  0  0  0
  -17.6283  -27.3820   23.6054 C   0  0  0  0  0  0  0  0  0  0  0  0
  -19.9728  -26.8179   22.2157 C   0  0  0  0  0  0  0  0  0  0  0  0
  -25.9476  -25.4743   22.1635 C   0  0  0  0  0  0  0  0  0  0  0  0
  -24.1754  -12.8098   20.8855 C   0  0  0  0  0  0  0  0  0  0  0  0
  -24.7877  -12.7778   18.5485 C   0  0  0  0  0  0  0  0  0  0  0  0
  -26.8959  -25.4556   21.1417 C   0  0  0  0  0  0  0  0  0  0  0  0
  -24.4299   -9.4564   20.5348 C   0  0  0  0  0  0  0  0  0  0  0  0
  -24.4631   -8.4123   21.4590 C   0  0  0  0  0  0  0  0  0  0  0  0
  -27.5881  -27.6845   21.7514 C   0  0  0  0  0  0  0  0  0  0  0  0
  -22.1301   -8.7852   21.9641 C   0  0  0  0  0  0  0  0  0  0  0  0
  -30.0692  -22.9739   17.0782 C   0  0  0  0  0  0  0  0  0  0  0  0
  -25.7689  -14.4128   20.0321 C   0  0  0  0  0  0  0  0  0  0  0  0
  -28.0159  -15.4757   20.6054 C   0  0  0  0  0  0  0  0  0  0  0  0
  -18.6935  -28.2950   23.6542 C   0  0  0  0  0  0  0  0  0  0  0  0
  -25.8048  -26.6044   22.9814 C   0  0  0  0  0  0  0  0  0  0  0  0
  -19.8765  -28.0162   22.9434 C   0  0  0  0  0  0  0  0  0  0  0  0
  -26.6390  -27.7141   22.7846 C   0  0  0  0  0  0  0  0  0  0  0  0
  -24.0524  -12.2542   19.6120 C   0  0  0  0  0  0  0  0  0  0  0  0
  -27.7144  -26.5619   20.9337 C   0  0  0  0  0  0  0  0  0  0  0  0
  -23.2468  -10.1650   20.3252 C   0  0  0  0  0  0  0  0  0  0  0  0
  -23.3132   -8.0767   22.1737 C   0  0  0  0  0  0  0  0  0  0  0  0
  -22.0969   -9.8294   21.0398 C   0  0  0  0  0  0  0  0  0  0  0  0
  -26.6552  -15.5280   20.2484 C   0  0  0  0  0  0  0  0  0  0  0  0
  -30.0928  -22.2279   15.9337 C   0  0  0  0  0  0  0  0  0  0  0  0
  -28.4003  -16.7918   20.6873 C   0  0  0  0  0  0  0  0  0  0  0  0
  -31.4429  -23.9590   15.6489 C   0  0  0  0  0  0  0  0  0  0  0  0
  -28.8573  -14.3391   20.8418 C   0  0  0  0  0  0  0  0  0  0  0  0
  -23.4598  -28.6696   23.5643 C   0  0  0  0  0  0  0  0  0  0  0  0
  -25.5274  -29.7889   25.7992 C   0  0  0  0  0  0  0  0  0  0  0  0
  -28.7552  -30.0982   26.8633 C   0  0  0  0  0  0  0  0  0  0  0  0
  -26.3270  -21.8096   18.1628 C   0  0  0  0  0  0  0  0  0  0  0  0
  -18.5104  -29.5841   24.4153 C   0  0  0  0  0  0  0  0  0  0  0  0
  -24.7953  -26.5986   24.0964 C   0  0  0  0  0  0  0  0  0  0  0  0
  -26.5394  -28.9442   23.6480 C   0  0  0  0  0  0  0  0  0  0  0  0
  -19.8205  -30.3125   24.7038 C   0  0  0  0  0  0  0  0  0  0  0  0
  -26.6656  -21.1467   21.6445 C   0  0  0  0  0  0  0  0  0  0  0  0
  -20.6877  -30.3680   23.4501 C   0  0  0  0  0  0  0  0  0  0  0  0
  -26.8241  -19.6268   21.7137 C   0  0  0  0  0  0  0  0  0  0  0  0
  -25.6917  -21.5630   20.5444 C   0  0  0  0  0  0  0  0  0  0  0  0
  -26.1579  -19.5016   19.2767 C   0  0  0  0  0  0  0  0  0  0  0  0
  -21.0601  -28.9587   22.9740 C   0  0  1  0  0  0  0  0  0  0  0  0
  -24.3862  -28.0000   24.5394 C   0  0  1  0  0  0  0  0  0  0  0  0
  -27.1731  -19.0360   20.3344 C   0  0  2  0  0  0  0  0  0  0  0  0
  -32.4032  -24.9058   15.0290 C   0  0  0  0  0  0  0  0  0  0  0  0
  -26.9018  -27.9074   17.1259 C   0  0  0  0  0  0  0  0  0  0  0  0
  -30.1348  -31.0988   28.7052 C   0  0  0  0  0  0  0  0  0  0  0  0
  -25.1845  -32.5522   24.5516 C   0  0  0  0  0  0  0  0  0  0  0  0
  -27.2437  -33.2829   25.7739 C   0  0  0  0  0  0  0  0  0  0  0  0
  -25.2360  -32.5355   27.0519 C   0  0  0  0  0  0  0  0  0  0  0  0
  -29.7704  -27.4473   27.7004 C   0  0  0  0  0  0  0  0  0  0  0  0
  -29.3983  -20.9900   15.5706 C   0  0  0  0  0  0  0  0  0  0  0  0
  -28.4150  -27.8288   17.2733 C   0  0  0  0  0  0  0  0  0  0  0  0
  -28.0133  -21.1790   14.8950 C   0  0  0  0  0  0  0  0  0  0  0  0
  -30.4931  -26.4556   17.5765 C   0  0  0  0  0  0  0  0  0  0  0  0
  -31.1974  -25.1256   17.8801 C   0  0  0  0  0  0  0  0  0  0  0  0
  -26.9890  -21.8954   15.7724 C   0  0  0  0  0  0  0  0  0  0  0  0
  -28.3391  -25.7630   18.7825 C   0  0  0  0  0  0  0  0  0  1  0  0
  -26.6265  -30.8236   25.8159 C   0  0  1  0  0  0  0  0  0  0  0  0
  -29.3959  -29.8618   28.2190 C   0  0  2  0  0  0  0  0  0  0  0  0
  -28.9458  -26.3971   17.5208 C   0  0  1  0  0  0  0  0  0  0  0  0
  -26.0735  -32.2763   25.7806 C   0  0  0  0  0  0  0  0  0  0  0  0
  -26.2054  -16.7784   20.1130 N   0  0  0  0  0  0  0  0  0  0  0  0
  -30.9138  -24.0384   16.8741 N   0  0  0  0  0  0  0  0  0  0  0  0
  -27.2896  -17.5239   20.3864 N   0  0  0  0  0  0  0  0  0  0  0  0
  -30.9505  -22.8608   15.0666 N   0  3  0  0  0  0  0  0  0  0  0  0
  -25.5328  -28.8925   24.7211 N   0  0  0  0  0  0  0  0  0  0  0  0
  -26.0799  -20.9708   19.2620 N   0  0  0  0  0  0  0  0  0  0  0  0
  -29.5766  -17.3826   20.9867 N   0  0  0  0  0  0  0  0  0  0  0  0
  -28.3018  -13.0586   20.7146 N   0  0  0  0  0  0  0  0  0  0  0  0
  -22.1214  -28.4127   23.7924 N   0  0  0  0  0  0  0  0  0  0  0  0
  -27.4498  -30.5258   26.9829 N   0  0  0  0  0  0  0  0  0  0  0  0
  -26.6959  -21.1676   16.9870 N   0  0  0  0  0  0  0  0  0  0  0  0
  -30.3669  -28.7337   28.1433 N   0  3  0  0  0  0  0  0  0  0  0  0
  -30.0616  -14.4557   21.1727 O   0  0  0  0  0  0  0  0  0  0  0  0
  -23.9248  -29.3690   22.6719 O   0  0  0  0  0  0  0  0  0  0  0  0
  -24.6988  -29.7720   26.7129 O   0  0  0  0  0  0  0  0  0  0  0  0
  -29.3541  -29.9249   25.8041 O   0  0  0  0  0  0  0  0  0  0  0  0
  -26.2313  -23.0400   18.2260 O   0  0  0  0  0  0  0  0  0  0  0  0
  -23.2152  -11.2009   19.4067 O   0  0  0  0  0  0  0  0  0  0  0  0
  -28.6404  -26.5464   19.9366 O   0  0  0  0  0  0  0  0  0  1  0  0
  -23.3449   -7.0730   23.0601 F   0  0  0  0  0  0  0  0  0  0  0  0
  -20.9570  -10.5057   20.8420 F   0  0  0  0  0  0  0  0  0  0  0  0
  1  2  1  0  0  0  0
  1  5  2  0  0  0  0
  2  6  2  0  0  0  0
  3  8  2  0  0  0  0
  3 16  1  0  0  0  0
  4  9  1  0  0  0  0
  4 16  2  0  0  0  0
  5 18  1  0  0  0  0
  6 20  1  0  0  0  0
  7 10  2  0  0  0  0
  7 19  1  0  0  0  0
  8 22  1  0  0  0  0
  9 22  2  0  0  0  0
 10 23  1  0  0  0  0
 11 12  2  0  0  0  0
 11 24  1  0  0  0  0
 12 25  1  0  0  0  0
 13 21  1  0  0  0  0
 13 23  2  0  0  0  0
 14 25  2  0  0  0  0
 14 26  1  0  0  0  0
 15 28  2  0  0  0  0
 15 67  1  0  0  0  0
 16 27  1  0  0  0  0
 17 27  1  0  0  0  0
 17 29  2  0  0  0  0
 17 31  1  0  0  0  0
 18 20  2  0  0  0  0
 18 36  1  0  0  0  0
 19 21  2  0  0  0  0
 19 37  1  0  0  0  0
 20 45  1  0  0  0  0
 21 38  1  0  0  0  0
 22 83  1  0  0  0  0
 23 84  1  0  0  0  0
 24 26  2  0  0  0  0
 24 83  1  0  0  0  0
 25 85  1  0  0  0  0
 26 86  1  0  0  0  0
 27 66  2  0  0  0  0
 28 55  1  0  0  0  0
 28 69  1  0  0  0  0
 29 68  1  0  0  0  0
 29 72  1  0  0  0  0
 30 48  1  0  0  0  0
 30 67  1  0  0  0  0
 30 69  2  0  0  0  0
 31 73  1  0  0  0  0
 31 78  2  0  0  0  0
 32 46  1  0  0  0  0
 32 74  1  0  0  0  0
 32 79  2  0  0  0  0
 33 62  1  0  0  0  0
 33 70  1  0  0  0  0
 33 80  2  0  0  0  0
 34 63  1  0  0  0  0
 34 75  1  0  0  0  0
 34 81  2  0  0  0  0
 35 71  1  0  0  0  0
 35 76  1  0  0  0  0
 35 82  2  0  0  0  0
 36 39  1  0  0  0  0
 37 46  1  0  0  0  0
 38 70  1  0  0  0  0
 39 41  1  0  0  0  0
 40 42  1  0  0  0  0
 40 43  1  0  0  0  0
 41 45  1  0  0  0  0
 42 47  1  0  0  0  0
 43 71  1  0  0  0  0
 44 47  1  0  0  0  0
 44 71  1  0  0  0  0
 45 74  1  0  0  0  0
 46 70  1  0  0  0  0
 47 68  1  0  0  0  0
 49 56  1  0  0  0  0
 50 63  1  0  0  0  0
 51 65  1  0  0  0  0
 52 65  1  0  0  0  0
 53 65  1  0  0  0  0
 54 77  1  0  0  0  0
 55 57  1  0  0  0  0
 56 64  1  0  0  0  0
 57 60  1  0  0  0  0
 58 59  1  0  0  0  0
 58 64  1  0  0  0  0
 59 67  1  0  0  0  0
 60 76  1  0  0  0  0
 61 64  1  0  0  0  0
 61 84  1  0  0  0  0
 62 65  1  0  0  0  0
 62 75  1  0  0  0  0
 63 77  1  0  0  0  0
 66 68  1  0  0  0  0
M  CHG  2  69   1  77   1
M  ISO  4  35 100  61 101  76 100  84 101
M  END
> <Batch ID>
0090

> <Smiles>
CCC(CCn1cc(CCC[100NH:0][100C:0](=O)N2CCCC(n3nc(-c4ccc(Oc5ccc(F)cc5F)cc4)c(C(N)=O)c3N)C2)nc1C)[101CH2:1][101O:1]c1ccc2c(c1)CN(C(=O)C(NC(=O)C(C)NC)C(C)(C)C)C(C(=O)NC1CCCc3ccccc31)C2

> <Shape>
0.262

> <Color>
0.065

> <Negative vol penalty>
0.000

$$$$

  -OEChem-04052319093D

 91100  0     1  0  0  0  0  0999 V2000
  -16.7609  -26.3577   22.6772 C   0  0  0  0  0  0  0  0  0  0  0  0
  -17.9997  -26.1438   22.0812 C   0  0  0  0  0  0  0  0  0  0  0  0
  -23.5817   -9.1528   23.2589 C   0  0  0  0  0  0  0  0  0  0  0  0
  -21.5660  -10.1779   22.4087 C   0  0  0  0  0  0  0  0  0  0  0  0
  -16.3655  -27.6512   23.0155 C   0  0  0  0  0  0  0  0  0  0  0  0
  -18.8432  -27.2235   21.8221 C   0  0  0  0  0  0  0  0  0  0  0  0
  -23.6434  -26.2994   23.1447 C   0  0  0  0  0  0  0  0  0  0  0  0
  -23.1509   -7.9133   22.7860 C   0  0  0  0  0  0  0  0  0  0  0  0
  -21.1352   -8.9385   21.9356 C   0  0  0  0  0  0  0  0  0  0  0  0
  -24.4010  -25.5095   22.2810 C   0  0  0  0  0  0  0  0  0  0  0  0
  -22.4146   -4.4153   22.1185 C   0  0  0  0  0  0  0  0  0  0  0  0
  -22.5445   -3.3152   22.9661 C   0  0  0  0  0  0  0  0  0  0  0  0
  -25.4230  -27.4959   21.3705 C   0  0  0  0  0  0  0  0  0  0  0  0
  -21.1160   -4.3959   24.5875 C   0  0  0  0  0  0  0  0  0  0  0  0
  -22.7893  -10.2851   23.0703 C   0  0  0  0  0  0  0  0  0  0  0  0
  -23.5197  -11.9137   24.8929 C   0  0  0  0  0  0  0  0  0  0  0  0
  -17.2087  -28.7462   22.7692 C   0  0  0  0  0  0  0  0  0  0  0  0
  -23.7621  -27.6964   23.1201 C   0  0  0  0  0  0  0  0  0  0  0  0
  -18.4581  -28.5330   22.1562 C   0  0  0  0  0  0  0  0  0  0  0  0
  -24.6677  -28.3011   22.2366 C   0  0  0  0  0  0  0  0  0  0  0  0
  -21.9277   -7.8061   22.1243 C   0  0  0  0  0  0  0  0  0  0  0  0
  -25.2889  -26.1079   21.3918 C   0  0  0  0  0  0  0  0  0  0  0  0
  -21.6356   -5.5058   22.5054 C   0  0  0  0  0  0  0  0  0  0  0  0
  -21.8951   -3.3054   24.2006 C   0  0  0  0  0  0  0  0  0  0  0  0
  -20.9862   -5.4960   23.7398 C   0  0  0  0  0  0  0  0  0  0  0  0
  -23.2335  -11.5656   23.5592 C   0  0  0  0  0  0  0  0  0  0  0  0
  -27.8351  -24.0056   16.7564 C   0  0  0  0  0  0  0  0  0  0  0  0
  -27.6171  -25.0087   18.7998 C   0  0  0  0  0  0  0  0  0  0  0  0
  -28.8497  -23.2165   17.2519 C   0  0  0  0  0  0  0  0  0  0  0  0
  -28.6311  -24.2191   19.2957 C   0  0  0  0  0  0  0  0  0  0  0  0
  -23.8992  -13.2322   24.8297 C   0  0  0  0  0  0  0  0  0  0  0  0
  -23.4490  -11.1164   26.0825 C   0  0  0  0  0  0  0  0  0  0  0  0
  -21.7851  -30.1049   22.4923 C   0  0  0  0  0  0  0  0  0  0  0  0
  -24.3044  -31.9101   23.4497 C   0  0  0  0  0  0  0  0  0  0  0  0
  -27.6784  -32.1744   23.8893 C   0  0  0  0  0  0  0  0  0  0  0  0
  -26.1074  -16.3795   20.1960 C   0  0  0  0  0  0  0  0  0  0  0  0
  -16.7179  -30.1312   23.1093 C   0  0  0  0  0  0  0  0  0  0  0  0
  -22.9574  -28.5329   24.0767 C   0  0  0  0  0  0  0  0  0  0  0  0
  -24.8472  -29.7956   22.1849 C   0  0  0  0  0  0  0  0  0  0  0  0
  -17.8273  -31.1792   23.1433 C   0  0  0  0  0  0  0  0  0  0  0  0
  -22.4965  -16.3204   21.5137 C   0  0  0  0  0  0  0  0  0  0  0  0
  -18.7249  -31.0464   21.9171 C   0  0  0  0  0  0  0  0  0  0  0  0
  -22.9148  -15.8821   22.9140 C   0  0  0  0  0  0  0  0  0  0  0  0
  -26.8763  -18.8881   17.5785 C   0  0  0  0  0  0  0  0  0  0  0  0
  -28.1483  -18.9040   19.7560 C   0  0  0  0  0  0  0  0  0  0  0  0
  -23.6828  -16.8916   20.7432 C   0  0  0  0  0  0  0  0  0  0  0  0
  -24.7446  -14.7642   21.4979 C   0  0  0  0  0  0  0  0  0  0  0  0
  -28.0957  -19.4625   16.8694 C   0  0  0  0  0  0  0  0  0  0  0  0
  -29.3608  -19.4796   19.0360 C   0  0  0  0  0  0  0  0  0  0  0  0
  -19.4115  -29.6757   21.8818 C   0  0  1  0  0  0  0  0  0  0  0  0
  -22.7823  -29.9743   23.6086 C   0  0  1  0  0  0  0  0  0  0  0  0
  -24.1340  -14.9344   22.9002 C   0  0  2  0  0  0  0  0  0  0  0  0
  -27.2743  -18.0776   18.8125 C   0  0  0  0  0  0  0  0  0  0  0  0
  -27.3841  -23.8939   15.3402 C   0  0  0  0  0  0  0  0  0  0  0  0
  -30.5530  -24.7731   20.8297 C   0  0  0  0  0  0  0  0  0  0  0  0
  -28.8638  -23.0280   21.5050 C   0  0  0  0  0  0  0  0  0  0  0  0
  -30.7216  -22.8391   15.6126 C   0  0  0  0  0  0  0  0  0  0  0  0
  -29.4453  -33.7843   24.6530 C   0  0  0  0  0  0  0  0  0  0  0  0
  -24.0613  -33.4244   20.8120 C   0  0  0  0  0  0  0  0  0  0  0  0
  -26.3620  -34.3319   21.2012 C   0  0  0  0  0  0  0  0  0  0  0  0
  -24.5255  -34.8650   22.8029 C   0  0  0  0  0  0  0  0  0  0  0  0
  -28.5244  -30.3830   26.0880 C   0  0  0  0  0  0  0  0  0  0  0  0
  -26.9190  -26.0186   19.6624 C   0  0  0  0  0  0  0  0  0  1  0  0
  -30.0559  -20.9740   17.1656 C   0  0  0  0  0  0  0  0  0  0  0  0
  -29.0817  -24.3309   20.7120 C   0  0  0  0  0  0  0  0  0  0  0  0
  -29.5440  -22.2143   16.3945 C   0  0  1  0  0  0  0  0  0  0  0  0
  -25.4969  -32.5311   22.7632 C   0  0  1  0  0  0  0  0  0  0  0  0
  -28.5059  -32.6616   25.0650 C   0  0  2  0  0  0  0  0  0  0  0  0
  -25.1069  -33.7600   21.8942 C   0  0  0  0  0  0  0  0  0  0  0  0
  -23.4154  -12.5811   22.7109 N   0  0  0  0  0  0  0  0  0  0  0  0
  -27.2007  -24.9159   17.5214 N   0  0  0  0  0  0  0  0  0  0  0  0
  -29.2658  -23.3091   18.5305 N   0  0  0  0  0  0  0  0  0  0  0  0
  -23.8200  -13.5803   23.5134 N   0  0  0  0  0  0  0  0  0  0  0  0
  -24.0332  -30.5708   23.1357 N   0  0  0  0  0  0  0  0  0  0  0  0
  -24.8835  -16.0487   20.8093 N   0  0  0  0  0  0  0  0  0  0  0  0
  -24.2895  -14.1162   25.7724 N   0  0  0  0  0  0  0  0  0  0  0  0
  -22.2443  -11.0898   26.7982 N   0  0  0  0  0  0  0  0  0  0  0  0
  -20.5220  -29.6427   22.8093 N   0  0  0  0  0  0  0  0  0  0  0  0
  -26.4653  -32.8255   23.8139 N   0  0  0  0  0  0  0  0  0  0  0  0
  -26.1062  -17.5869   19.5020 N   0  0  0  0  0  0  0  0  0  0  0  0
  -28.9036  -20.2853   17.8439 N   0  3  0  0  0  0  0  0  0  0  0  0
  -29.3225  -31.5460   25.6214 N   0  3  0  0  0  0  0  0  0  0  0  0
  -24.4301  -10.4605   26.5073 O   0  0  0  0  0  0  0  0  0  0  0  0
  -22.1353  -30.5906   21.4231 O   0  0  0  0  0  0  0  0  0  0  0  0
  -23.6424  -32.5862   24.2411 O   0  0  0  0  0  0  0  0  0  0  0  0
  -28.0706  -31.3059   23.1131 O   0  0  0  0  0  0  0  0  0  0  0  0
  -27.1099  -15.6615   20.2593 O   0  0  0  0  0  0  0  0  0  0  0  0
  -21.5070   -6.5969   21.6624 O   0  0  0  0  0  0  0  0  0  0  0  0
  -26.0291  -25.3393   20.5473 O   0  0  0  0  0  0  0  0  0  1  0  0
  -22.0186   -2.2483   25.0138 F   0  0  0  0  0  0  0  0  0  0  0  0
  -20.2355   -6.5402   24.1165 F   0  0  0  0  0  0  0  0  0  0  0  0
  1  2  1  0  0  0  0
  1  5  2  0  0  0  0
  2  6  2  0  0  0  0
  3  8  2  0  0  0  0
  3 15  1  0  0  0  0
  4  9  1  0  0  0  0
  4 15  2  0  0  0  0
  5 17  1  0  0  0  0
  6 19  1  0  0  0  0
  7 10  2  0  0  0  0
  7 18  1  0  0  0  0
  8 21  1  0  0  0  0
  9 21  2  0  0  0  0
 10 22  1  0  0  0  0
 11 12  2  0  0  0  0
 11 23  1  0  0  0  0
 12 24  1  0  0  0  0
 13 20  1  0  0  0  0
 13 22  2  0  0  0  0
 14 24  2  0  0  0  0
 14 25  1  0  0  0  0
 15 26  1  0  0  0  0
 16 26  1  0  0  0  0
 16 31  2  0  0  0  0
 16 32  1  0  0  0  0
 17 19  2  0  0  0  0
 17 37  1  0  0  0  0
 18 20  2  0  0  0  0
 18 38  1  0  0  0  0
 19 50  1  0  0  0  0
 20 39  1  0  0  0  0
 21 88  1  0  0  0  0
 22 89  1  0  0  0  0
 23 25  2  0  0  0  0
 23 88  1  0  0  0  0
 24 90  1  0  0  0  0
 25 91  1  0  0  0  0
 26 70  2  0  0  0  0
 27 29  1  0  0  0  0
 27 54  1  0  0  0  0
 27 71  2  0  0  0  0
 28 30  2  0  0  0  0
 28 63  1  0  0  0  0
 28 71  1  0  0  0  0
 29 66  1  0  0  0  0
 29 72  2  0  0  0  0
 30 65  1  0  0  0  0
 30 72  1  0  0  0  0
 31 73  1  0  0  0  0
 31 76  1  0  0  0  0
 32 77  1  0  0  0  0
 32 83  2  0  0  0  0
 33 51  1  0  0  0  0
 33 78  1  0  0  0  0
 33 84  2  0  0  0  0
 34 67  1  0  0  0  0
 34 74  1  0  0  0  0
 34 85  2  0  0  0  0
 35 68  1  0  0  0  0
 35 79  1  0  0  0  0
 35 86  2  0  0  0  0
 36 75  1  0  0  0  0
 36 80  1  0  0  0  0
 36 87  2  0  0  0  0
 37 40  1  0  0  0  0
 38 51  1  0  0  0  0
 39 74  1  0  0  0  0
 40 42  1  0  0  0  0
 41 43  1  0  0  0  0
 41 46  1  0  0  0  0
 42 50  1  0  0  0  0
 43 52  1  0  0  0  0
 44 48  1  0  0  0  0
 44 53  1  0  0  0  0
 45 49  1  0  0  0  0
 45 53  1  0  0  0  0
 46 75  1  0  0  0  0
 47 52  1  0  0  0  0
 47 75  1  0  0  0  0
 48 81  1  0  0  0  0
 49 81  1  0  0  0  0
 50 78  1  0  0  0  0
 51 74  1  0  0  0  0
 52 73  1  0  0  0  0
 53 80  1  0  0  0  0
 55 65  1  0  0  0  0
 56 65  1  0  0  0  0
 57 66  1  0  0  0  0
 58 68  1  0  0  0  0
 59 69  1  0  0  0  0
 60 69  1  0  0  0  0
 61 69  1  0  0  0  0
 62 82  1  0  0  0  0
 63 89  1  0  0  0  0
 64 66  1  0  0  0  0
 64 81  1  0  0  0  0
 67 69  1  0  0  0  0
 67 79  1  0  0  0  0
 68 82  1  0  0  0  0
 70 73  1  0  0  0  0
M  CHG  2  81   1  82   1
M  ISO  4  36 100  63 101  80 100  89 101
M  END
> <Batch ID>
0090

> <Smiles>
CNC(C)C(=O)NC(C(=O)N1Cc2cc([101O:1][101CH2:1]c3nc(C)c(C(C)CN4CCC([100NH:0][100C:0](=O)N5CCCC(n6nc(-c7ccc(Oc8ccc(F)cc8F)cc7)c(C(N)=O)c6N)C5)CC4)nc3C(C)C)ccc2CC1C(=O)NC1CCCc2ccccc21)C(C)(C)C

> <Shape>
0.262

> <Color>
0.064

> <Negative vol penalty>
0.000

$$$$

  -OEChem-04052319093D

 88 96  0     1  0  0  0  0  0999 V2000
  -29.3545  -32.6026   25.2259 C   0  0  0  0  0  0  0  0  0  0  0  0
  -29.1827  -31.4191   24.5150 C   0  0  0  0  0  0  0  0  0  0  0  0
  -26.8650  -13.3327   20.8222 C   0  0  0  0  0  0  0  0  0  0  0  0
  -27.4031  -12.9520   18.4979 C   0  0  0  0  0  0  0  0  0  0  0  0
  -28.2747  -33.1735   25.8983 C   0  0  0  0  0  0  0  0  0  0  0  0
  -27.9312  -30.8054   24.4769 C   0  0  0  0  0  0  0  0  0  0  0  0
  -26.6667  -29.2589   19.8235 C   0  0  0  0  0  0  0  0  0  0  0  0
  -26.2350  -12.0895   20.8800 C   0  0  0  0  0  0  0  0  0  0  0  0
  -26.7732  -11.7088   18.5556 C   0  0  0  0  0  0  0  0  0  0  0  0
  -27.2511  -28.0795   19.3637 C   0  0  0  0  0  0  0  0  0  0  0  0
  -23.2734  -10.7528   19.9491 C   0  0  0  0  0  0  0  0  0  0  0  0
  -22.0312  -10.6853   20.5799 C   0  0  0  0  0  0  0  0  0  0  0  0
  -25.2346  -26.8740   19.9114 C   0  0  0  0  0  0  0  0  0  0  0  0
  -22.9258   -9.1036   22.1721 C   0  0  0  0  0  0  0  0  0  0  0  0
  -31.4363  -20.6545   14.4230 C   0  0  0  0  0  0  0  0  0  0  0  0
  -27.4490  -13.7639   19.6311 C   0  0  0  0  0  0  0  0  0  0  0  0
  -29.4527  -15.3292   19.8378 C   0  0  0  0  0  0  0  0  0  0  0  0
  -27.0071  -32.5716   25.8604 C   0  0  0  0  0  0  0  0  0  0  0  0
  -25.3636  -29.2527   20.3416 C   0  0  0  0  0  0  0  0  0  0  0  0
  -26.8338  -31.3681   25.1505 C   0  0  0  0  0  0  0  0  0  0  0  0
  -24.6351  -28.0551   20.3747 C   0  0  0  0  0  0  0  0  0  0  0  0
  -26.1891  -11.2776   19.7467 C   0  0  0  0  0  0  0  0  0  0  0  0
  -26.5361  -26.8863   19.4103 C   0  0  0  0  0  0  0  0  0  0  0  0
  -24.3418   -9.9956   20.4297 C   0  0  0  0  0  0  0  0  0  0  0  0
  -21.8574   -9.8607   21.6914 C   0  0  0  0  0  0  0  0  0  0  0  0
  -24.1680   -9.1711   21.5412 C   0  0  0  0  0  0  0  0  0  0  0  0
  -28.0994  -15.0482   19.5707 C   0  0  0  0  0  0  0  0  0  0  0  0
  -31.3451  -19.3805   14.9083 C   0  0  0  0  0  0  0  0  0  0  0  0
  -29.5674  -16.6837   19.6416 C   0  0  0  0  0  0  0  0  0  0  0  0
  -29.4900  -19.8171   13.7819 C   0  0  0  0  0  0  0  0  0  0  0  0
  -30.5115  -14.4448   20.2282 C   0  0  0  0  0  0  0  0  0  0  0  0
  -24.0683  -29.9342   23.1632 C   0  0  0  0  0  0  0  0  0  0  0  0
  -21.2863  -29.4724   21.5602 C   0  0  0  0  0  0  0  0  0  0  0  0
  -19.6645  -28.0261   18.9287 C   0  0  0  0  0  0  0  0  0  0  0  0
  -26.4570  -20.6057   16.3561 C   0  0  0  0  0  0  0  0  0  0  0  0
  -25.8810  -33.2008   26.6419 C   0  0  0  0  0  0  0  0  0  0  0  0
  -24.7378  -30.5381   20.8088 C   0  0  0  0  0  0  0  0  0  0  0  0
  -23.2257  -27.9986   20.9028 C   0  0  0  0  0  0  0  0  0  0  0  0
  -24.5004  -32.6867   26.2420 C   0  0  0  0  0  0  0  0  0  0  0  0
  -27.0226  -20.7289   19.8692 C   0  0  0  0  0  0  0  0  0  0  0  0
  -24.5057  -31.1646   26.1426 C   0  0  0  0  0  0  0  0  0  0  0  0
  -27.4848  -19.3123   20.2151 C   0  0  0  0  0  0  0  0  0  0  0  0
  -25.9535  -20.7232   18.7788 C   0  0  0  0  0  0  0  0  0  0  0  0
  -26.7868  -18.5778   17.8974 C   0  0  0  0  0  0  0  0  0  0  0  0
  -25.4859  -30.6855   25.0651 C   0  0  1  0  0  0  0  0  0  0  0  0
  -23.5916  -30.3219   21.7920 C   0  0  1  0  0  0  0  0  0  0  0  0
  -27.9051  -18.5357   18.9528 C   0  0  2  0  0  0  0  0  0  0  0  0
  -17.3853  -27.7989   17.9036 C   0  0  0  0  0  0  0  0  0  0  0  0
  -32.5829  -19.2539   17.0986 C   0  0  0  0  0  0  0  0  0  0  0  0
  -33.6545  -18.3777   14.9961 C   0  0  0  0  0  0  0  0  0  0  0  0
  -31.8018  -17.1241   16.0811 C   0  0  0  0  0  0  0  0  0  0  0  0
  -20.5095  -27.4783   23.7351 C   0  0  0  0  0  0  0  0  0  0  0  0
  -18.7298  -26.6081   22.2043 C   0  0  0  0  0  0  0  0  0  0  0  0
  -18.6540  -28.9768   22.9828 C   0  0  0  0  0  0  0  0  0  0  0  0
  -20.5420  -29.3095   16.4104 C   0  0  0  0  0  0  0  0  0  0  0  0
  -28.1492  -19.6581   13.1656 C   0  0  0  0  0  0  0  0  0  0  0  0
  -28.9469  -23.3881   15.0454 C   0  0  0  0  0  0  0  0  0  0  0  0
  -29.0346  -24.6376   15.9243 C   0  0  0  0  0  0  0  0  0  0  0  0
  -29.9928  -23.4224   13.9266 C   0  0  0  0  0  0  0  0  0  0  0  0
  -28.0150  -24.5897   17.0603 C   0  0  0  0  0  0  0  0  0  0  0  0
  -29.9426  -22.1867   13.0209 C   0  0  0  0  0  0  0  0  0  0  0  0
  -27.0186  -20.3369   13.9537 C   0  0  0  0  0  0  0  0  0  0  0  0
  -28.0667  -25.8479   17.9152 C   0  0  0  0  0  0  0  0  0  1  0  0
  -20.3953  -28.2852   21.2853 C   0  0  1  0  0  0  0  0  0  0  0  0
  -18.6838  -28.5904   17.9167 C   0  0  2  0  0  0  0  0  0  0  0  0
  -32.2732  -18.5826   15.7137 C   0  0  0  0  0  0  0  0  0  0  0  0
  -19.5994  -27.8375   22.5437 C   0  0  0  0  0  0  0  0  0  0  0  0
  -27.4041  -16.1369   19.2309 N   0  0  0  0  0  0  0  0  0  0  0  0
  -30.2752  -20.8980   13.7297 N   0  0  0  0  0  0  0  0  0  0  0  0
  -28.3241  -17.1151   19.2833 N   0  0  0  0  0  0  0  0  0  0  0  0
  -30.1307  -18.8866   14.4968 N   0  3  0  0  0  0  0  0  0  0  0  0
  -22.6598  -29.2807   21.3538 N   0  0  0  0  0  0  0  0  0  0  0  0
  -26.4153  -19.9719   17.6090 N   0  0  0  0  0  0  0  0  0  0  0  0
  -30.6094  -17.5361   19.7425 N   0  0  0  0  0  0  0  0  0  0  0  0
  -30.2208  -13.0827   20.3848 N   0  0  0  0  0  0  0  0  0  0  0  0
  -24.9128  -30.8588   23.7475 N   0  0  0  0  0  0  0  0  0  0  0  0
  -19.5581  -28.6574   20.1499 N   0  0  0  0  0  0  0  0  0  0  0  0
  -26.9130  -19.8242   15.3016 N   0  0  0  0  0  0  0  0  0  0  0  0
  -19.2720  -28.5512   16.5479 N   0  3  0  0  0  0  0  0  0  0  0  0
  -31.6771  -14.8530   20.4482 O   0  0  0  0  0  0  0  0  0  0  0  0
  -23.6963  -28.8754   23.6553 O   0  0  0  0  0  0  0  0  0  0  0  0
  -20.7815  -30.5329   21.9373 O   0  0  0  0  0  0  0  0  0  0  0  0
  -20.4443  -27.1138   18.6636 O   0  0  0  0  0  0  0  0  0  0  0  0
  -26.1183  -21.7825   16.1906 O   0  0  0  0  0  0  0  0  0  0  0  0
  -25.5747  -10.0644   19.8028 O   0  0  0  0  0  0  0  0  0  0  0  0
  -27.1044  -25.7336   18.9628 O   0  0  0  0  0  0  0  0  0  1  0  0
  -20.6649   -9.7971   22.2980 F   0  0  0  0  0  0  0  0  0  0  0  0
  -25.1910   -8.4423   22.0083 F   0  0  0  0  0  0  0  0  0  0  0  0
  1  2  1  0  0  0  0
  1  5  2  0  0  0  0
  2  6  2  0  0  0  0
  3  8  2  0  0  0  0
  3 16  1  0  0  0  0
  4  9  1  0  0  0  0
  4 16  2  0  0  0  0
  5 18  1  0  0  0  0
  6 20  1  0  0  0  0
  7 10  2  0  0  0  0
  7 19  1  0  0  0  0
  8 22  1  0  0  0  0
  9 22  2  0  0  0  0
 10 23  1  0  0  0  0
 11 12  2  0  0  0  0
 11 24  1  0  0  0  0
 12 25  1  0  0  0  0
 13 21  1  0  0  0  0
 13 23  2  0  0  0  0
 14 25  2  0  0  0  0
 14 26  1  0  0  0  0
 15 28  2  0  0  0  0
 15 69  1  0  0  0  0
 16 27  1  0  0  0  0
 17 27  1  0  0  0  0
 17 29  2  0  0  0  0
 17 31  1  0  0  0  0
 18 20  2  0  0  0  0
 18 36  1  0  0  0  0
 19 21  2  0  0  0  0
 19 37  1  0  0  0  0
 20 45  1  0  0  0  0
 21 38  1  0  0  0  0
 22 85  1  0  0  0  0
 23 86  1  0  0  0  0
 24 26  2  0  0  0  0
 24 85  1  0  0  0  0
 25 87  1  0  0  0  0
 26 88  1  0  0  0  0
 27 68  2  0  0  0  0
 28 66  1  0  0  0  0
 28 71  1  0  0  0  0
 29 70  1  0  0  0  0
 29 74  1  0  0  0  0
 30 56  1  0  0  0  0
 30 69  1  0  0  0  0
 30 71  2  0  0  0  0
 31 75  1  0  0  0  0
 31 80  2  0  0  0  0
 32 46  1  0  0  0  0
 32 76  1  0  0  0  0
 32 81  2  0  0  0  0
 33 64  1  0  0  0  0
 33 72  1  0  0  0  0
 33 82  2  0  0  0  0
 34 65  1  0  0  0  0
 34 77  1  0  0  0  0
 34 83  2  0  0  0  0
 35 73  1  0  0  0  0
 35 78  1  0  0  0  0
 35 84  2  0  0  0  0
 36 39  1  0  0  0  0
 37 46  1  0  0  0  0
 38 72  1  0  0  0  0
 39 41  1  0  0  0  0
 40 42  1  0  0  0  0
 40 43  1  0  0  0  0
 41 45  1  0  0  0  0
 42 47  1  0  0  0  0
 43 73  1  0  0  0  0
 44 47  1  0  0  0  0
 44 73  1  0  0  0  0
 45 76  1  0  0  0  0
 46 72  1  0  0  0  0
 47 70  1  0  0  0  0
 48 65  1  0  0  0  0
 49 66  1  0  0  0  0
 50 66  1  0  0  0  0
 51 66  1  0  0  0  0
 52 67  1  0  0  0  0
 53 67  1  0  0  0  0
 54 67  1  0  0  0  0
 55 79  1  0  0  0  0
 56 62  1  0  0  0  0
 57 58  1  0  0  0  0
 57 59  1  0  0  0  0
 58 60  1  0  0  0  0
 59 61  1  0  0  0  0
 60 63  1  0  0  0  0
 61 69  1  0  0  0  0
 62 78  1  0  0  0  0
 63 86  1  0  0  0  0
 64 67  1  0  0  0  0
 64 77  1  0  0  0  0
 65 79  1  0  0  0  0
 68 70  1  0  0  0  0
M  CHG  2  71   1  79   1
M  ISO  4  35 100  63 101  78 100  86 101
M  END
> <Batch ID>
0090

> <Smiles>
CNC(C)C(=O)NC(C(=O)N1Cc2cc([101O:1][101CH2:1]CCCCCn3cc(C(C)(C)C)nc3CC[100NH:0][100C:0](=O)N3CCCC(n4nc(-c5ccc(Oc6ccc(F)cc6F)cc5)c(C(N)=O)c4N)C3)ccc2CC1C(=O)NC1CCCc2ccccc21)C(C)(C)C

> <Shape>
0.279

> <Color>
0.082

> <Negative vol penalty>
0.000

$$$$

  -OEChem-04052319093D

 83 91  0     1  0  0  0  0  0999 V2000
  -34.8778  -25.4389   12.4959 C   0  0  0  0  0  0  0  0  0  0  0  0
  -34.6301  -24.4444   13.4366 C   0  0  0  0  0  0  0  0  0  0  0  0
  -23.2924   -9.7957   19.9134 C   0  0  0  0  0  0  0  0  0  0  0  0
  -23.7439   -9.9380   22.2825 C   0  0  0  0  0  0  0  0  0  0  0  0
  -35.3524  -26.6836   12.9076 C   0  0  0  0  0  0  0  0  0  0  0  0
  -34.8580  -24.6936   14.7895 C   0  0  0  0  0  0  0  0  0  0  0  0
  -31.0870  -23.0321   17.7331 C   0  0  0  0  0  0  0  0  0  0  0  0
  -22.5699   -8.6209   20.1216 C   0  0  0  0  0  0  0  0  0  0  0  0
  -23.0214   -8.7631   22.4908 C   0  0  0  0  0  0  0  0  0  0  0  0
  -31.0429  -21.6644   17.9999 C   0  0  0  0  0  0  0  0  0  0  0  0
  -19.7774   -7.8416   22.7099 C   0  0  0  0  0  0  0  0  0  0  0  0
  -18.8757   -7.8171   23.7737 C   0  0  0  0  0  0  0  0  0  0  0  0
  -32.0558  -22.0579   20.1535 C   0  0  0  0  0  0  0  0  0  0  0  0
  -20.0879   -5.9739   24.7587 C   0  0  0  0  0  0  0  0  0  0  0  0
  -28.4025  -16.0449   24.6882 C   0  0  0  0  0  0  0  0  0  0  0  0
  -23.8794  -10.4543   20.9938 C   0  0  0  0  0  0  0  0  0  0  0  0
  -24.1306  -12.9851   20.7949 C   0  0  0  0  0  0  0  0  0  0  0  0
  -35.5771  -26.9514   14.2672 C   0  0  0  0  0  0  0  0  0  0  0  0
  -31.6268  -23.9233   18.6716 C   0  0  0  0  0  0  0  0  0  0  0  0
  -35.3373  -25.9426   15.2196 C   0  0  0  0  0  0  0  0  0  0  0  0
  -32.1033  -23.4367   19.8973 C   0  0  0  0  0  0  0  0  0  0  0  0
  -22.4344   -8.1046   21.4103 C   0  0  0  0  0  0  0  0  0  0  0  0
  -31.5299  -21.1767   19.2090 C   0  0  0  0  0  0  0  0  0  0  0  0
  -20.8344   -6.9322   22.6704 C   0  0  0  0  0  0  0  0  0  0  0  0
  -19.0309   -6.8833   24.7982 C   0  0  0  0  0  0  0  0  0  0  0  0
  -20.9896   -5.9984   23.6948 C   0  0  0  0  0  0  0  0  0  0  0  0
  -24.6264  -11.6676   20.7793 C   0  0  0  0  0  0  0  0  0  0  0  0
  -28.7446  -15.3887   25.8858 C   0  0  0  0  0  0  0  0  0  0  0  0
  -29.4828  -15.8417   23.8647 C   0  0  0  0  0  0  0  0  0  0  0  0
  -25.2294  -13.7685   20.5393 C   0  0  0  0  0  0  0  0  0  0  0  0
  -22.7961  -13.4584   21.0203 C   0  0  0  0  0  0  0  0  0  0  0  0
  -34.0850  -25.9383   18.6959 C   0  0  0  0  0  0  0  0  0  0  0  0
  -32.8555  -26.7910   21.5740 C   0  0  0  0  0  0  0  0  0  0  0  0
  -30.9582  -25.9414   24.2806 C   0  0  0  0  0  0  0  0  0  0  0  0
  -31.1035  -12.9445   21.3560 C   0  0  0  0  0  0  0  0  0  0  0  0
  -36.1356  -28.2963   14.6595 C   0  0  0  0  0  0  0  0  0  0  0  0
  -31.6427  -25.3987   18.3797 C   0  0  0  0  0  0  0  0  0  0  0  0
  -32.6741  -24.3540   20.9467 C   0  0  0  0  0  0  0  0  0  0  0  0
  -35.9950  -28.6034   16.1482 C   0  0  0  0  0  0  0  0  0  0  0  0
  -29.4506  -13.6783   18.2890 C   0  0  0  0  0  0  0  0  0  0  0  0
  -36.4308  -27.4042   16.9842 C   0  0  0  0  0  0  0  0  0  0  0  0
  -27.9821  -13.3651   18.5809 C   0  0  0  0  0  0  0  0  0  0  0  0
  -30.3874  -12.7020   18.9970 C   0  0  0  0  0  0  0  0  0  0  0  0
  -28.7031  -12.2673   20.7428 C   0  0  0  0  0  0  0  0  0  0  0  0
  -35.5487  -26.1829   16.6987 C   0  0  1  0  0  0  0  0  0  0  0  0
  -32.6849  -26.1579   19.1950 C   0  0  1  0  0  0  0  0  0  0  0  0
  -27.7216  -13.2593   20.0955 C   0  0  2  0  0  0  0  0  0  0  0  0
  -27.9420  -15.2914   27.1166 C   0  0  0  0  0  0  0  0  0  0  0  0
  -30.1682  -26.8312   26.4900 C   0  0  0  0  0  0  0  0  0  0  0  0
  -35.6173  -26.2777   22.7654 C   0  0  0  0  0  0  0  0  0  0  0  0
  -34.5571  -26.2498   25.0333 C   0  0  0  0  0  0  0  0  0  0  0  0
  -34.4660  -28.3178   23.6413 C   0  0  0  0  0  0  0  0  0  0  0  0
  -28.1178  -25.7601   23.4693 C   0  0  0  0  0  0  0  0  0  0  0  0
  -29.7457  -16.2862   22.4479 C   0  0  0  0  0  0  0  0  0  0  0  0
  -30.4407  -17.6485   22.3453 C   0  0  0  0  0  0  0  0  0  0  0  0
  -30.6293  -18.1171   20.9018 C   0  0  0  0  0  0  0  0  0  0  0  0
  -31.6672  -14.6348   24.1581 C   0  0  0  0  0  0  0  0  0  0  0  0
  -31.6659  -13.1602   23.7635 C   0  0  0  0  0  0  0  0  0  0  0  0
  -31.3574  -19.4529   20.8383 C   0  0  0  0  0  0  0  0  0  1  0  0
  -33.0464  -26.3271   22.9979 C   0  0  1  0  0  0  0  0  0  0  0  0
  -29.8533  -26.6847   25.0094 C   0  0  2  0  0  0  0  0  0  0  0  0
  -34.4127  -26.7754   23.5891 C   0  0  0  0  0  0  0  0  0  0  0  0
  -25.9380  -11.6132   20.5331 N   0  0  0  0  0  0  0  0  0  0  0  0
  -29.9481  -14.8117   25.8320 N   0  0  0  0  0  0  0  0  0  0  0  0
  -30.3715  -15.1046   24.5906 N   0  0  0  0  0  0  0  0  0  0  0  0
  -26.2757  -12.9062   20.3916 N   0  0  0  0  0  0  0  0  0  0  0  0
  -32.6736  -25.7876   20.6117 N   0  0  0  0  0  0  0  0  0  0  0  0
  -30.0890  -12.6497   20.4302 N   0  0  0  0  0  0  0  0  0  0  0  0
  -25.3929  -15.1039   20.4286 N   0  0  0  0  0  0  0  0  0  0  0  0
  -21.7867  -12.5183   21.2684 N   0  0  0  0  0  0  0  0  0  0  0  0
  -34.2771  -26.3079   17.3784 N   0  0  0  0  0  0  0  0  0  0  0  0
  -31.8870  -26.8068   23.7423 N   0  0  0  0  0  0  0  0  0  0  0  0
  -30.7347  -12.8779   22.6940 N   0  0  0  0  0  0  0  0  0  0  0  0
  -28.5611  -25.9547   24.8738 N   0  3  0  0  0  0  0  0  0  0  0  0
  -22.5042  -14.6779   20.9861 O   0  0  0  0  0  0  0  0  0  0  0  0
  -34.9290  -25.4696   19.4508 O   0  0  0  0  0  0  0  0  0  0  0  0
  -32.8603  -27.9993   21.3259 O   0  0  0  0  0  0  0  0  0  0  0  0
  -30.9957  -24.7156   24.2001 O   0  0  0  0  0  0  0  0  0  0  0  0
  -32.2513  -13.2500   21.0152 O   0  0  0  0  0  0  0  0  0  0  0  0
  -21.7292   -6.9583   21.6139 O   0  0  0  0  0  0  0  0  0  0  0  0
  -31.4886  -19.8421   19.4717 O   0  0  0  0  0  0  0  0  0  1  0  0
  -18.1658   -6.8609   25.8205 F   0  0  0  0  0  0  0  0  0  0  0  0
  -22.0037   -5.1230   23.6630 F   0  0  0  0  0  0  0  0  0  0  0  0
  1  2  1  0  0  0  0
  1  5  2  0  0  0  0
  2  6  2  0  0  0  0
  3  8  2  0  0  0  0
  3 16  1  0  0  0  0
  4  9  1  0  0  0  0
  4 16  2  0  0  0  0
  5 18  1  0  0  0  0
  6 20  1  0  0  0  0
  7 10  2  0  0  0  0
  7 19  1  0  0  0  0
  8 22  1  0  0  0  0
  9 22  2  0  0  0  0
 10 23  1  0  0  0  0
 11 12  2  0  0  0  0
 11 24  1  0  0  0  0
 12 25  1  0  0  0  0
 13 21  1  0  0  0  0
 13 23  2  0  0  0  0
 14 25  2  0  0  0  0
 14 26  1  0  0  0  0
 15 28  1  0  0  0  0
 15 29  2  0  0  0  0
 16 27  1  0  0  0  0
 17 27  1  0  0  0  0
 17 30  2  0  0  0  0
 17 31  1  0  0  0  0
 18 20  2  0  0  0  0
 18 36  1  0  0  0  0
 19 21  2  0  0  0  0
 19 37  1  0  0  0  0
 20 45  1  0  0  0  0
 21 38  1  0  0  0  0
 22 80  1  0  0  0  0
 23 81  1  0  0  0  0
 24 26  2  0  0  0  0
 24 80  1  0  0  0  0
 25 82  1  0  0  0  0
 26 83  1  0  0  0  0
 27 63  2  0  0  0  0
 28 48  1  0  0  0  0
 28 64  2  0  0  0  0
 29 54  1  0  0  0  0
 29 65  1  0  0  0  0
 30 66  1  0  0  0  0
 30 69  1  0  0  0  0
 31 70  1  0  0  0  0
 31 75  2  0  0  0  0
 32 46  1  0  0  0  0
 32 71  1  0  0  0  0
 32 76  2  0  0  0  0
 33 60  1  0  0  0  0
 33 67  1  0  0  0  0
 33 77  2  0  0  0  0
 34 61  1  0  0  0  0
 34 72  1  0  0  0  0
 34 78  2  0  0  0  0
 35 68  1  0  0  0  0
 35 73  1  0  0  0  0
 35 79  2  0  0  0  0
 36 39  1  0  0  0  0
 37 46  1  0  0  0  0
 38 67  1  0  0  0  0
 39 41  1  0  0  0  0
 40 42  1  0  0  0  0
 40 43  1  0  0  0  0
 41 45  1  0  0  0  0
 42 47  1  0  0  0  0
 43 68  1  0  0  0  0
 44 47  1  0  0  0  0
 44 68  1  0  0  0  0
 45 71  1  0  0  0  0
 46 67  1  0  0  0  0
 47 66  1  0  0  0  0
 49 61  1  0  0  0  0
 50 62  1  0  0  0  0
 51 62  1  0  0  0  0
 52 62  1  0  0  0  0
 53 74  1  0  0  0  0
 54 55  1  0  0  0  0
 55 56  1  0  0  0  0
 56 59  1  0  0  0  0
 57 58  1  0  0  0  0
 57 65  1  0  0  0  0
 58 73  1  0  0  0  0
 59 81  1  0  0  0  0
 60 62  1  0  0  0  0
 60 72  1  0  0  0  0
 61 74  1  0  0  0  0
 63 66  1  0  0  0  0
 64 65  1  0  0  0  0
M  CHG  1  74   1
M  ISO  4  35 100  59 101  73 100  81 101
M  END
> <Batch ID>
0090

> <Smiles>
CNC(C)C(=O)NC(C(=O)N1Cc2cc([101O:1][101CH2:1]CCCc3cc(C)nn3CC[100NH:0][100C:0](=O)N3CCCC(n4nc(-c5ccc(Oc6ccc(F)cc6F)cc5)c(C(N)=O)c4N)C3)ccc2CC1C(=O)NC1CCCc2ccccc21)C(C)(C)C

> <Shape>
0.179

> <Color>
0.178

> <Negative vol penalty>
0.000

$$$$

  -OEChem-04052319093D

 87 95  0     1  0  0  0  0  0999 V2000
  -23.9166  -12.3112   17.0315 C   0  0  0  0  0  0  0  0  0  0  0  0
  -23.2793  -13.5107   17.3320 C   0  0  0  0  0  0  0  0  0  0  0  0
  -28.3868  -25.4935   17.7685 C   0  0  0  0  0  0  0  0  0  0  0  0
  -26.6359  -24.1268   18.7190 C   0  0  0  0  0  0  0  0  0  0  0  0
  -24.7644  -11.7200   17.9672 C   0  0  0  0  0  0  0  0  0  0  0  0
  -23.4887  -14.1193   18.5691 C   0  0  0  0  0  0  0  0  0  0  0  0
  -23.7061  -20.1294   19.7255 C   0  0  0  0  0  0  0  0  0  0  0  0
  -29.2513  -24.3991   17.7873 C   0  0  0  0  0  0  0  0  0  0  0  0
  -27.5004  -23.0323   18.7376 C   0  0  0  0  0  0  0  0  0  0  0  0
  -22.7584  -21.0243   20.2201 C   0  0  0  0  0  0  0  0  0  0  0  0
  -28.6912  -20.7629   16.5348 C   0  0  0  0  0  0  0  0  0  0  0  0
  -28.1957  -19.5398   16.0830 C   0  0  0  0  0  0  0  0  0  0  0  0
  -23.6651  -20.7492   22.4385 C   0  0  0  0  0  0  0  0  0  0  0  0
  -19.1250  -27.4336   21.7058 C   0  0  0  0  0  0  0  0  0  0  0  0
  -28.6387  -18.5610   18.2470 C   0  0  0  0  0  0  0  0  0  0  0  0
  -27.0791  -25.3574   18.2344 C   0  0  0  0  0  0  0  0  0  0  0  0
  -25.3207  -26.8706   17.1733 C   0  0  0  0  0  0  0  0  0  0  0  0
  -24.9918  -12.3265   19.2126 C   0  0  0  0  0  0  0  0  0  0  0  0
  -24.6351  -19.5283   20.5870 C   0  0  0  0  0  0  0  0  0  0  0  0
  -24.3393  -13.5350   19.5229 C   0  0  0  0  0  0  0  0  0  0  0  0
  -24.6252  -19.8489   21.9520 C   0  0  0  0  0  0  0  0  0  0  0  0
  -18.4155  -26.3703   22.3167 C   0  0  0  0  0  0  0  0  0  0  0  0
  -28.8081  -23.1685   18.2718 C   0  0  0  0  0  0  0  0  0  0  0  0
  -22.7359  -21.3321   21.5773 C   0  0  0  0  0  0  0  0  0  0  0  0
  -29.1605  -20.8850   17.8427 C   0  0  0  0  0  0  0  0  0  0  0  0
  -28.1695  -18.4389   16.9391 C   0  0  0  0  0  0  0  0  0  0  0  0
  -29.1343  -19.7841   18.6988 C   0  0  0  0  0  0  0  0  0  0  0  0
  -26.1857  -26.4877   18.2159 C   0  0  0  0  0  0  0  0  0  0  0  0
  -19.4813  -28.3160   22.7016 C   0  0  0  0  0  0  0  0  0  0  0  0
  -18.3597  -26.6355   23.6673 C   0  0  0  0  0  0  0  0  0  0  0  0
  -24.6942  -27.9987   17.6438 C   0  0  0  0  0  0  0  0  0  0  0  0
  -25.1028  -26.2609   15.8941 C   0  0  0  0  0  0  0  0  0  0  0  0
  -25.2821  -16.5398   21.4555 C   0  0  0  0  0  0  0  0  0  0  0  0
  -27.7702  -17.9391   22.9960 C   0  0  0  0  0  0  0  0  0  0  0  0
  -29.0879  -20.7486   24.4163 C   0  0  0  0  0  0  0  0  0  0  0  0
  -22.6242  -30.2388   22.5643 C   0  0  0  0  0  0  0  0  0  0  0  0
  -25.8798  -11.6257   20.2100 C   0  0  0  0  0  0  0  0  0  0  0  0
  -25.6681  -18.5855   20.0335 C   0  0  0  0  0  0  0  0  0  0  0  0
  -25.6138  -19.2463   22.9153 C   0  0  0  0  0  0  0  0  0  0  0  0
  -26.3412  -12.5262   21.3531 C   0  0  0  0  0  0  0  0  0  0  0  0
  -25.7003  -31.3381   21.1479 C   0  0  0  0  0  0  0  0  0  0  0  0
  -25.1663  -13.3213   21.9137 C   0  0  0  0  0  0  0  0  0  0  0  0
  -26.0586  -30.2350   20.1505 C   0  0  0  0  0  0  0  0  0  0  0  0
  -25.0379  -30.7717   22.4019 C   0  0  0  0  0  0  0  0  0  0  0  0
  -24.2241  -28.8099   21.1518 C   0  0  0  0  0  0  0  0  0  0  0  0
  -24.5605  -14.2384   20.8444 C   0  0  1  0  0  0  0  0  0  0  0  0
  -26.2377  -17.6387   21.0854 C   0  0  1  0  0  0  0  0  0  0  0  0
  -24.8438  -29.3376   19.8465 C   0  0  2  0  0  0  0  0  0  0  0  0
  -17.7422  -25.8615   24.7653 C   0  0  0  0  0  0  0  0  0  0  0  0
  -16.7367  -25.6000   20.6211 C   0  0  0  0  0  0  0  0  0  0  0  0
  -19.5438  -30.6417   21.7275 C   0  0  0  0  0  0  0  0  0  0  0  0
  -31.1246  -21.5736   25.6283 C   0  0  0  0  0  0  0  0  0  0  0  0
  -18.4770  -29.8129   25.2466 C   0  0  0  0  0  0  0  0  0  0  0  0
  -20.6486  -28.5570   25.5835 C   0  0  0  0  0  0  0  0  0  0  0  0
  -26.8241  -16.5369   25.5354 C   0  0  0  0  0  0  0  0  0  0  0  0
  -28.2639  -18.1043   26.8539 C   0  0  0  0  0  0  0  0  0  0  0  0
  -29.3036  -16.5432   25.2093 C   0  0  0  0  0  0  0  0  0  0  0  0
  -29.6876  -22.7287   22.3001 C   0  0  0  0  0  0  0  0  0  0  0  0
  -19.9102  -23.6819   21.8462 C   0  0  0  0  0  0  0  0  0  0  0  0
  -18.8907  -24.3071   20.8831 C   0  0  0  0  0  0  0  0  0  0  0  0
  -20.8946  -22.7679   21.1253 C   0  0  0  0  0  0  0  0  0  1  0  0
  -17.8282  -25.1632   21.6059 C   0  0  1  0  0  0  0  0  0  0  0  0
  -20.2302  -29.5867   22.6167 C   0  0  2  0  0  0  0  0  0  0  0  0
  -27.9822  -18.5284   24.3696 C   0  0  1  0  0  0  0  0  0  0  0  0
  -30.4498  -21.4044   24.2760 C   0  0  2  0  0  0  0  0  0  0  0  0
  -19.1762  -28.4536   25.1814 C   0  0  0  0  0  0  0  0  0  0  0  0
  -28.0734  -17.4382   25.4745 C   0  0  0  0  0  0  0  0  0  0  0  0
  -26.1177  -27.3063   19.2691 N   0  0  0  0  0  0  0  0  0  0  0  0
  -19.0106  -27.8208   23.8896 N   0  0  0  0  0  0  0  0  0  0  0  0
  -25.2026  -28.2148   18.8908 N   0  0  0  0  0  0  0  0  0  0  0  0
  -26.6002  -18.3253   22.3269 N   0  0  0  0  0  0  0  0  0  0  0  0
  -23.8924  -29.9315   22.0444 N   0  0  0  0  0  0  0  0  0  0  0  0
  -23.7637  -28.8171   17.1082 N   0  0  0  0  0  0  0  0  0  0  0  0
  -25.8297  -25.1068   15.5715 N   0  0  0  0  0  0  0  0  0  0  0  0
  -25.3844  -15.4139   20.6609 N   0  0  0  0  0  0  0  0  0  0  0  0
  -29.1629  -19.3795   24.2710 N   0  0  0  0  0  0  0  0  0  0  0  0
  -21.5922  -29.3958   22.1703 N   0  0  0  0  0  0  0  0  0  0  0  0
  -30.3151  -22.7485   23.6465 N   0  3  0  0  0  0  0  0  0  0  0  0
  -24.2998  -26.7352   15.0552 O   0  0  0  0  0  0  0  0  0  0  0  0
  -24.5101  -16.7009   22.3935 O   0  0  0  0  0  0  0  0  0  0  0  0
  -28.6153  -17.1703   22.5309 O   0  0  0  0  0  0  0  0  0  0  0  0
  -28.0609  -21.3867   24.6368 O   0  0  0  0  0  0  0  0  0  0  0  0
  -22.4253  -31.1966   23.3192 O   0  0  0  0  0  0  0  0  0  0  0  0
  -29.6514  -22.1002   18.2900 O   0  0  0  0  0  0  0  0  0  0  0  0
  -21.8114  -22.2048   22.0627 O   0  0  0  0  0  0  0  0  0  1  0  0
  -27.6922  -17.2648   16.5056 F   0  0  0  0  0  0  0  0  0  0  0  0
  -29.5827  -19.8957   19.9566 F   0  0  0  0  0  0  0  0  0  0  0  0
  1  2  1  0  0  0  0
  1  5  2  0  0  0  0
  2  6  2  0  0  0  0
  3  8  2  0  0  0  0
  3 16  1  0  0  0  0
  4  9  1  0  0  0  0
  4 16  2  0  0  0  0
  5 18  1  0  0  0  0
  6 20  1  0  0  0  0
  7 10  2  0  0  0  0
  7 19  1  0  0  0  0
  8 23  1  0  0  0  0
  9 23  2  0  0  0  0
 10 24  1  0  0  0  0
 11 12  2  0  0  0  0
 11 25  1  0  0  0  0
 12 26  1  0  0  0  0
 13 21  1  0  0  0  0
 13 24  2  0  0  0  0
 14 22  1  0  0  0  0
 14 29  2  0  0  0  0
 15 26  2  0  0  0  0
 15 27  1  0  0  0  0
 16 28  1  0  0  0  0
 17 28  1  0  0  0  0
 17 31  2  0  0  0  0
 17 32  1  0  0  0  0
 18 20  2  0  0  0  0
 18 37  1  0  0  0  0
 19 21  2  0  0  0  0
 19 38  1  0  0  0  0
 20 46  1  0  0  0  0
 21 39  1  0  0  0  0
 22 30  2  0  0  0  0
 22 62  1  0  0  0  0
 23 84  1  0  0  0  0
 24 85  1  0  0  0  0
 25 27  2  0  0  0  0
 25 84  1  0  0  0  0
 26 86  1  0  0  0  0
 27 87  1  0  0  0  0
 28 68  2  0  0  0  0
 29 63  1  0  0  0  0
 29 69  1  0  0  0  0
 30 49  1  0  0  0  0
 30 69  1  0  0  0  0
 31 70  1  0  0  0  0
 31 73  1  0  0  0  0
 32 74  1  0  0  0  0
 32 79  2  0  0  0  0
 33 47  1  0  0  0  0
 33 75  1  0  0  0  0
 33 80  2  0  0  0  0
 34 64  1  0  0  0  0
 34 71  1  0  0  0  0
 34 81  2  0  0  0  0
 35 65  1  0  0  0  0
 35 76  1  0  0  0  0
 35 82  2  0  0  0  0
 36 72  1  0  0  0  0
 36 77  1  0  0  0  0
 36 83  2  0  0  0  0
 37 40  1  0  0  0  0
 38 47  1  0  0  0  0
 39 71  1  0  0  0  0
 40 42  1  0  0  0  0
 41 43  1  0  0  0  0
 41 44  1  0  0  0  0
 42 46  1  0  0  0  0
 43 48  1  0  0  0  0
 44 72  1  0  0  0  0
 45 48  1  0  0  0  0
 45 72  1  0  0  0  0
 46 75  1  0  0  0  0
 47 71  1  0  0  0  0
 48 70  1  0  0  0  0
 50 62  1  0  0  0  0
 51 63  1  0  0  0  0
 52 65  1  0  0  0  0
 53 66  1  0  0  0  0
 54 66  1  0  0  0  0
 55 67  1  0  0  0  0
 56 67  1  0  0  0  0
 57 67  1  0  0  0  0
 58 78  1  0  0  0  0
 59 60  1  0  0  0  0
 59 61  1  0  0  0  0
 60 62  1  0  0  0  0
 61 85  1  0  0  0  0
 63 77  1  0  0  0  0
 64 67  1  0  0  0  0
 64 76  1  0  0  0  0
 65 78  1  0  0  0  0
 66 69  1  0  0  0  0
 68 70  1  0  0  0  0
M  CHG  1  78   1
M  ISO  4  36 100  61 101  77 100  85 101
M  END
> <Batch ID>
0090

> <Smiles>
CNC(C)C(=O)NC(C(=O)N1Cc2cc([101O:1][101CH2:1]CCC(C)c3cc(C(C)[100NH:0][100C:0](=O)N4CCCC(n5nc(-c6ccc(Oc7ccc(F)cc7F)cc6)c(C(N)=O)c5N)C4)n(C(C)C)c3C)ccc2CC1C(=O)NC1CCCc2ccccc21)C(C)(C)C

> <Shape>
0.178

> <Color>
0.090

> <Negative vol penalty>
0.000

$$$$

  -OEChem-04052319093D

 87 95  0     1  0  0  0  0  0999 V2000
  -18.5310  -27.8859   21.9837 C   0  0  0  0  0  0  0  0  0  0  0  0
  -19.1077  -26.6749   21.6145 C   0  0  0  0  0  0  0  0  0  0  0  0
  -28.1208  -22.9256   19.7144 C   0  0  0  0  0  0  0  0  0  0  0  0
  -30.3470  -22.0356   19.4161 C   0  0  0  0  0  0  0  0  0  0  0  0
  -19.2207  -28.7571   22.8259 C   0  0  0  0  0  0  0  0  0  0  0  0
  -20.3749  -26.3348   22.0866 C   0  0  0  0  0  0  0  0  0  0  0  0
  -20.6255  -21.5405   23.6981 C   0  0  0  0  0  0  0  0  0  0  0  0
  -28.6331  -24.2221   19.6696 C   0  0  0  0  0  0  0  0  0  0  0  0
  -30.8593  -23.3322   19.3711 C   0  0  0  0  0  0  0  0  0  0  0  0
  -20.7288  -20.5466   22.7260 C   0  0  0  0  0  0  0  0  0  0  0  0
  -30.2431  -26.3373   21.7571 C   0  0  0  0  0  0  0  0  0  0  0  0
  -29.7872  -27.2469   22.7113 C   0  0  0  0  0  0  0  0  0  0  0  0
  -23.1048  -20.4147   23.1219 C   0  0  0  0  0  0  0  0  0  0  0  0
  -25.4801  -11.3627   20.9907 C   0  0  0  0  0  0  0  0  0  0  0  0
  -28.9451  -28.6715   20.9511 C   0  0  0  0  0  0  0  0  0  0  0  0
  -25.6861  -13.4245   20.1096 C   0  0  0  0  0  0  0  0  0  0  0  0
  -28.9777  -21.8323   19.5877 C   0  0  0  0  0  0  0  0  0  0  0  0
  -27.9949  -19.7196   18.5493 C   0  0  0  0  0  0  0  0  0  0  0  0
  -20.4929  -28.4232   23.3163 C   0  0  0  0  0  0  0  0  0  0  0  0
  -21.7647  -21.9875   24.3830 C   0  0  0  0  0  0  0  0  0  0  0  0
  -21.0828  -27.2029   22.9351 C   0  0  0  0  0  0  0  0  0  0  0  0
  -23.0128  -21.4126   24.1041 C   0  0  0  0  0  0  0  0  0  0  0  0
  -26.3730  -12.2543   20.3467 C   0  0  0  0  0  0  0  0  0  0  0  0
  -30.0023  -24.4255   19.4979 C   0  0  0  0  0  0  0  0  0  0  0  0
  -21.9690  -19.9855   22.4356 C   0  0  0  0  0  0  0  0  0  0  0  0
  -30.0500  -26.5949   20.3999 C   0  0  0  0  0  0  0  0  0  0  0  0
  -29.1382  -28.4139   22.3083 C   0  0  0  0  0  0  0  0  0  0  0  0
  -29.4010  -27.7619   19.9969 C   0  0  0  0  0  0  0  0  0  0  0  0
  -28.4492  -20.4926   19.6346 C   0  0  0  0  0  0  0  0  0  0  0  0
  -24.2747  -12.0150   21.1274 C   0  0  0  0  0  0  0  0  0  0  0  0
  -27.5974  -18.5331   19.1156 C   0  0  0  0  0  0  0  0  0  0  0  0
  -27.9375  -20.0449   17.1542 C   0  0  0  0  0  0  0  0  0  0  0  0
  -23.2802  -24.7698   24.6393 C   0  0  0  0  0  0  0  0  0  0  0  0
  -25.0521  -23.1594   26.8278 C   0  0  0  0  0  0  0  0  0  0  0  0
  -26.1956  -20.1615   27.9903 C   0  0  0  0  0  0  0  0  0  0  0  0
  -28.4495  -14.3027   22.6544 C   0  0  0  0  0  0  0  0  0  0  0  0
  -21.2197  -29.4181   24.1862 C   0  0  0  0  0  0  0  0  0  0  0  0
  -21.6323  -23.0416   25.4478 C   0  0  0  0  0  0  0  0  0  0  0  0
  -24.2631  -21.8430   24.8254 C   0  0  0  0  0  0  0  0  0  0  0  0
  -22.4004  -28.8163   24.9440 C   0  0  0  0  0  0  0  0  0  0  0  0
  -26.9505  -17.2537   23.9665 C   0  0  0  0  0  0  0  0  0  0  0  0
  -23.2532  -27.9616   24.0119 C   0  0  0  0  0  0  0  0  0  0  0  0
  -27.1749  -18.2965   22.8700 C   0  0  0  0  0  0  0  0  0  0  0  0
  -28.1358  -16.2985   24.0879 C   0  0  0  0  0  0  0  0  0  0  0  0
  -28.7546  -16.6807   21.7332 C   0  0  0  0  0  0  0  0  0  0  0  0
  -22.4452  -26.7874   23.4465 C   0  0  1  0  0  0  0  0  0  0  0  0
  -22.9373  -23.7834   25.7197 C   0  0  1  0  0  0  0  0  0  0  0  0
  -27.5622  -17.6321   21.5352 C   0  0  2  0  0  0  0  0  0  0  0  0
  -27.6569  -19.1672   29.7717 C   0  0  0  0  0  0  0  0  0  0  0  0
  -23.1252  -10.0842   22.2659 C   0  0  0  0  0  0  0  0  0  0  0  0
  -21.8358  -11.5616   20.6877 C   0  0  0  0  0  0  0  0  0  0  0  0
  -22.4755  -12.3862   22.9442 C   0  0  0  0  0  0  0  0  0  0  0  0
  -27.5312  -24.0307   25.2771 C   0  0  0  0  0  0  0  0  0  0  0  0
  -28.8288  -22.2740   26.5012 C   0  0  0  0  0  0  0  0  0  0  0  0
  -27.7639  -24.1427   27.7646 C   0  0  0  0  0  0  0  0  0  0  0  0
  -23.9412  -18.6347   29.1502 C   0  0  0  0  0  0  0  0  0  0  0  0
  -23.7315  -15.6504   21.1813 C   0  0  0  0  0  0  0  0  0  0  0  0
  -22.6680  -16.7379   21.0208 C   0  0  0  0  0  0  0  0  0  0  0  0
  -23.3371  -14.3236   20.5227 C   0  0  0  0  0  0  0  0  0  0  0  0
  -28.7845  -12.4043   21.0915 C   0  0  0  0  0  0  0  0  0  0  0  0
  -23.1093  -18.0496   21.6560 C   0  0  0  0  0  0  0  0  0  1  0  0
  -27.7795  -11.9814   19.9947 C   0  0  2  0  0  0  0  0  0  0  0  0
  -26.3088  -22.3244   26.7805 C   0  0  1  0  0  0  0  0  0  0  0  0
  -26.2426  -19.5754   29.3899 C   0  0  2  0  0  0  0  0  0  0  0  0
  -23.0069  -11.5487   21.7262 C   0  0  0  0  0  0  0  0  0  0  0  0
  -27.5851  -23.1860   26.5657 C   0  0  0  0  0  0  0  0  0  0  0  0
  -28.3498  -19.8513   20.8020 N   0  0  0  0  0  0  0  0  0  0  0  0
  -24.4115  -13.2674   20.5881 N   0  0  0  0  0  0  0  0  0  0  0  0
  -27.8284  -18.6627   20.4535 N   0  0  0  0  0  0  0  0  0  0  0  0
  -24.0830  -22.8813   25.8535 N   0  0  0  0  0  0  0  0  0  0  0  0
  -28.4507  -15.7010   22.7880 N   0  0  0  0  0  0  0  0  0  0  0  0
  -27.0761  -17.4020   18.5946 N   0  0  0  0  0  0  0  0  0  0  0  0
  -28.3864  -21.3075   16.7435 N   0  0  0  0  0  0  0  0  0  0  0  0
  -22.3167  -25.7392   24.4361 N   0  0  0  0  0  0  0  0  0  0  0  0
  -26.3205  -21.5346   28.0071 N   0  0  0  0  0  0  0  0  0  0  0  0
  -28.7523  -13.8192   21.3874 N   0  0  0  0  0  0  0  0  0  0  0  0
  -28.2192  -12.6427   18.7079 N   0  3  0  0  0  0  0  0  0  0  0  0
  -25.3665  -18.3731   29.4776 N   0  3  0  0  0  0  0  0  0  0  0  0
  -27.4857  -19.2459   16.2991 O   0  0  0  0  0  0  0  0  0  0  0  0
  -24.3411  -24.6603   24.0358 O   0  0  0  0  0  0  0  0  0  0  0  0
  -24.9315  -24.0218   27.7016 O   0  0  0  0  0  0  0  0  0  0  0  0
  -26.0652  -19.4700   26.9826 O   0  0  0  0  0  0  0  0  0  0  0  0
  -28.1921  -13.5417   23.5933 O   0  0  0  0  0  0  0  0  0  0  0  0
  -30.5025  -25.6905   19.4538 O   0  0  0  0  0  0  0  0  0  0  0  0
  -22.0728  -19.0157   21.4867 O   0  0  0  0  0  0  0  0  0  1  0  0
  -28.6991  -29.2865   23.2248 F   0  0  0  0  0  0  0  0  0  0  0  0
  -29.2116  -28.0142   18.6944 F   0  0  0  0  0  0  0  0  0  0  0  0
  1  2  1  0  0  0  0
  1  5  2  0  0  0  0
  2  6  2  0  0  0  0
  3  8  2  0  0  0  0
  3 17  1  0  0  0  0
  4  9  1  0  0  0  0
  4 17  2  0  0  0  0
  5 19  1  0  0  0  0
  6 21  1  0  0  0  0
  7 10  2  0  0  0  0
  7 20  1  0  0  0  0
  8 24  1  0  0  0  0
  9 24  2  0  0  0  0
 10 25  1  0  0  0  0
 11 12  2  0  0  0  0
 11 26  1  0  0  0  0
 12 27  1  0  0  0  0
 13 22  1  0  0  0  0
 13 25  2  0  0  0  0
 14 23  1  0  0  0  0
 14 30  2  0  0  0  0
 15 27  2  0  0  0  0
 15 28  1  0  0  0  0
 16 23  2  0  0  0  0
 16 68  1  0  0  0  0
 17 29  1  0  0  0  0
 18 29  1  0  0  0  0
 18 31  2  0  0  0  0
 18 32  1  0  0  0  0
 19 21  2  0  0  0  0
 19 37  1  0  0  0  0
 20 22  2  0  0  0  0
 20 38  1  0  0  0  0
 21 46  1  0  0  0  0
 22 39  1  0  0  0  0
 23 62  1  0  0  0  0
 24 84  1  0  0  0  0
 25 85  1  0  0  0  0
 26 28  2  0  0  0  0
 26 84  1  0  0  0  0
 27 86  1  0  0  0  0
 28 87  1  0  0  0  0
 29 67  2  0  0  0  0
 30 65  1  0  0  0  0
 30 68  1  0  0  0  0
 31 69  1  0  0  0  0
 31 72  1  0  0  0  0
 32 73  1  0  0  0  0
 32 79  2  0  0  0  0
 33 47  1  0  0  0  0
 33 74  1  0  0  0  0
 33 80  2  0  0  0  0
 34 63  1  0  0  0  0
 34 70  1  0  0  0  0
 34 81  2  0  0  0  0
 35 64  1  0  0  0  0
 35 75  1  0  0  0  0
 35 82  2  0  0  0  0
 36 71  1  0  0  0  0
 36 76  1  0  0  0  0
 36 83  2  0  0  0  0
 37 40  1  0  0  0  0
 38 47  1  0  0  0  0
 39 70  1  0  0  0  0
 40 42  1  0  0  0  0
 41 43  1  0  0  0  0
 41 44  1  0  0  0  0
 42 46  1  0  0  0  0
 43 48  1  0  0  0  0
 44 71  1  0  0  0  0
 45 48  1  0  0  0  0
 45 71  1  0  0  0  0
 46 74  1  0  0  0  0
 47 70  1  0  0  0  0
 48 69  1  0  0  0  0
 49 64  1  0  0  0  0
 50 65  1  0  0  0  0
 51 65  1  0  0  0  0
 52 65  1  0  0  0  0
 53 66  1  0  0  0  0
 54 66  1  0  0  0  0
 55 66  1  0  0  0  0
 56 78  1  0  0  0  0
 57 58  1  0  0  0  0
 57 59  1  0  0  0  0
 58 61  1  0  0  0  0
 59 68  1  0  0  0  0
 60 62  1  0  0  0  0
 60 76  1  0  0  0  0
 61 85  1  0  0  0  0
 62 77  1  0  0  0  0
 63 66  1  0  0  0  0
 63 75  1  0  0  0  0
 64 78  1  0  0  0  0
 67 69  1  0  0  0  0
M  CHG  2  77   1  78   1
M  ISO  4  36 100  61 101  76 100  85 101
M  END
> <Batch ID>
0090

> <Smiles>
CNC(C)C(=O)NC(C(=O)N1Cc2cc([101O:1][101CH2:1]CCCn3cc(C(N)C[100NH:0][100C:0](=O)N4CCCC(n5nc(-c6ccc(Oc7ccc(F)cc7F)cc6)c(C(N)=O)c5N)C4)cc3C(C)(C)C)ccc2CC1C(=O)NC1CCCc2ccccc21)C(C)(C)C

> <Shape>
0.220

> <Color>
0.050

> <Negative vol penalty>
0.000

$$$$

  -OEChem-04052319093D

 88 96  0     1  0  0  0  0  0999 V2000
  -21.5313  -12.6381   19.4588 C   0  0  0  0  0  0  0  0  0  0  0  0
  -21.5845  -13.9777   19.8304 C   0  0  0  0  0  0  0  0  0  0  0  0
  -28.6606  -25.9395   23.5617 C   0  0  0  0  0  0  0  0  0  0  0  0
  -26.9971  -24.4203   22.6888 C   0  0  0  0  0  0  0  0  0  0  0  0
  -22.6381  -11.8149   19.6623 C   0  0  0  0  0  0  0  0  0  0  0  0
  -22.7442  -14.4946   20.4068 C   0  0  0  0  0  0  0  0  0  0  0  0
  -24.0493  -18.9820   18.4559 C   0  0  0  0  0  0  0  0  0  0  0  0
  -28.9919  -25.0103   24.5477 C   0  0  0  0  0  0  0  0  0  0  0  0
  -27.3284  -23.4910   23.6749 C   0  0  0  0  0  0  0  0  0  0  0  0
  -23.3407  -20.0985   18.8975 C   0  0  0  0  0  0  0  0  0  0  0  0
  -26.6921  -23.0112   26.9606 C   0  0  0  0  0  0  0  0  0  0  0  0
  -25.6462  -22.3817   27.6354 C   0  0  0  0  0  0  0  0  0  0  0  0
  -25.1470  -20.6427   20.4010 C   0  0  0  0  0  0  0  0  0  0  0  0
  -26.4377  -20.2349   26.8595 C   0  0  0  0  0  0  0  0  0  0  0  0
  -18.7545  -25.9824   21.3784 C   0  0  0  0  0  0  0  0  0  0  0  0
  -27.6631  -25.6446   22.6322 C   0  0  0  0  0  0  0  0  0  0  0  0
  -27.8866  -26.7211   20.3303 C   0  0  0  0  0  0  0  0  0  0  0  0
  -23.8153  -12.3244   20.2326 C   0  0  0  0  0  0  0  0  0  0  0  0
  -25.3094  -18.6807   18.9924 C   0  0  0  0  0  0  0  0  0  0  0  0
  -23.8673  -13.6772   20.6193 C   0  0  0  0  0  0  0  0  0  0  0  0
  -25.8706  -19.5231   19.9627 C   0  0  0  0  0  0  0  0  0  0  0  0
  -19.3553  -25.1420   22.2835 C   0  0  0  0  0  0  0  0  0  0  0  0
  -28.3258  -23.7860   24.6043 C   0  0  0  0  0  0  0  0  0  0  0  0
  -23.8883  -20.9275   19.8722 C   0  0  0  0  0  0  0  0  0  0  0  0
  -27.6107  -22.2525   26.2351 C   0  0  0  0  0  0  0  0  0  0  0  0
  -25.5190  -20.9935   27.5850 C   0  0  0  0  0  0  0  0  0  0  0  0
  -27.4835  -20.8644   26.1846 C   0  0  0  0  0  0  0  0  0  0  0  0
  -27.3201  -26.6043   21.6138 C   0  0  0  0  0  0  0  0  0  0  0  0
  -20.2821  -25.9578   22.9598 C   0  0  0  0  0  0  0  0  0  0  0  0
  -27.2220  -27.7772   19.7564 C   0  0  0  0  0  0  0  0  0  0  0  0
  -28.9210  -25.9443   19.7121 C   0  0  0  0  0  0  0  0  0  0  0  0
  -26.5251  -16.2441   20.6321 C   0  0  0  0  0  0  0  0  0  0  0  0
  -29.3063  -17.8627   20.2227 C   0  0  0  0  0  0  0  0  0  0  0  0
  -30.8662  -20.8428   19.6464 C   0  0  0  0  0  0  0  0  0  0  0  0
  -21.8280  -30.1987   20.7009 C   0  0  0  0  0  0  0  0  0  0  0  0
  -24.9696  -11.3847   20.4763 C   0  0  0  0  0  0  0  0  0  0  0  0
  -26.0726  -17.4875   18.4862 C   0  0  0  0  0  0  0  0  0  0  0  0
  -27.2288  -19.2550   20.5559 C   0  0  0  0  0  0  0  0  0  0  0  0
  -26.2903  -12.1001   20.7489 C   0  0  0  0  0  0  0  0  0  0  0  0
  -24.9776  -31.8486   20.8866 C   0  0  0  0  0  0  0  0  0  0  0  0
  -26.0897  -13.2242   21.7603 C   0  0  0  0  0  0  0  0  0  0  0  0
  -25.9862  -30.7022   20.9783 C   0  0  0  0  0  0  0  0  0  0  0  0
  -23.6911  -31.5304   21.6454 C   0  0  0  0  0  0  0  0  0  0  0  0
  -24.0583  -29.1100   21.3616 C   0  0  0  0  0  0  0  0  0  0  0  0
  -25.1160  -14.2809   21.2247 C   0  0  1  0  0  0  0  0  0  0  0  0
  -27.1241  -16.9884   19.4724 C   0  0  1  0  0  0  0  0  0  0  0  0
  -25.3501  -29.3613   20.5651 C   0  0  2  0  0  0  0  0  0  0  0  0
  -33.1487  -21.8568   19.4029 C   0  0  0  0  0  0  0  0  0  0  0  0
  -22.0393  -24.6295   28.9563 C   0  0  0  0  0  0  0  0  0  0  0  0
  -19.8500  -23.9153   27.9776 C   0  0  0  0  0  0  0  0  0  0  0  0
  -29.6915  -17.7157   23.2460 C   0  0  0  0  0  0  0  0  0  0  0  0
  -31.4228  -19.5127   23.0427 C   0  0  0  0  0  0  0  0  0  0  0  0
  -31.7673  -17.3175   21.9093 C   0  0  0  0  0  0  0  0  0  0  0  0
  -30.3066  -21.7235   16.8769 C   0  0  0  0  0  0  0  0  0  0  0  0
  -19.0757  -23.6754   22.4949 C   0  0  0  0  0  0  0  0  0  0  0  0
  -21.2049  -25.5712   24.0415 C   0  0  0  0  0  0  0  0  0  0  0  0
  -19.6821  -22.7680   21.4188 C   0  0  0  0  0  0  0  0  0  0  0  0
  -20.5573  -25.4605   25.4433 C   0  0  0  0  0  0  0  0  0  0  0  0
  -21.2101  -22.8203   21.3831 C   0  0  0  0  0  0  0  0  0  0  0  0
  -21.5787  -25.1142   26.5343 C   0  0  0  0  0  0  0  0  0  0  0  0
  -19.0316  -28.4128   20.8344 C   0  0  0  0  0  0  0  0  0  0  0  0
  -20.0612  -28.7351   19.7545 C   0  0  0  0  0  0  0  0  0  0  0  0
  -21.7740  -21.9382   20.2774 C   0  0  0  0  0  0  0  0  0  1  0  0
  -30.0467  -18.9282   20.9944 C   0  0  1  0  0  0  0  0  0  0  0  0
  -31.9673  -21.2325   18.6768 C   0  0  2  0  0  0  0  0  0  0  0  0
  -20.9526  -24.9743   27.9348 C   0  0  0  0  0  0  0  0  0  0  0  0
  -30.7056  -18.3728   22.2885 C   0  0  0  0  0  0  0  0  0  0  0  0
  -26.3689  -27.5138   21.8422 N   0  0  0  0  0  0  0  0  0  0  0  0
  -20.2745  -27.2195   22.5217 N   0  0  0  0  0  0  0  0  0  0  0  0
  -19.3356  -27.2029   21.5603 N   0  0  0  0  0  0  0  0  0  0  0  0
  -26.3327  -28.2121   20.6946 N   0  0  0  0  0  0  0  0  0  0  0  0
  -27.9331  -18.0726   20.0329 N   0  0  0  0  0  0  0  0  0  0  0  0
  -23.1380  -30.2472   21.2055 N   0  0  0  0  0  0  0  0  0  0  0  0
  -27.3174  -28.3671   18.5459 N   0  0  0  0  0  0  0  0  0  0  0  0
  -29.4963  -24.8957   20.4428 N   0  0  0  0  0  0  0  0  0  0  0  0
  -25.7790  -15.1398   20.2670 N   0  0  0  0  0  0  0  0  0  0  0  0
  -30.9872  -19.5320   20.0568 N   0  0  0  0  0  0  0  0  0  0  0  0
  -21.3837  -28.9445   20.3004 N   0  0  0  0  0  0  0  0  0  0  0  0
  -31.4559  -22.2150   17.6798 N   0  3  0  0  0  0  0  0  0  0  0  0
  -29.3347  -26.1836   18.5523 O   0  0  0  0  0  0  0  0  0  0  0  0
  -26.7263  -16.6414   21.7738 O   0  0  0  0  0  0  0  0  0  0  0  0
  -29.9249  -16.8838   19.7977 O   0  0  0  0  0  0  0  0  0  0  0  0
  -29.9888  -21.6243   20.0069 O   0  0  0  0  0  0  0  0  0  0  0  0
  -21.1096  -31.1999   20.6089 O   0  0  0  0  0  0  0  0  0  0  0  0
  -28.6490  -22.8789   25.5663 O   0  0  0  0  0  0  0  0  0  0  0  0
  -23.1985  -22.0176   20.3055 O   0  0  0  0  0  0  0  0  0  1  0  0
  -24.5155  -20.3890   28.2344 F   0  0  0  0  0  0  0  0  0  0  0  0
  -28.3637  -20.1302   25.4903 F   0  0  0  0  0  0  0  0  0  0  0  0
  1  2  1  0  0  0  0
  1  5  2  0  0  0  0
  2  6  2  0  0  0  0
  3  8  2  0  0  0  0
  3 16  1  0  0  0  0
  4  9  1  0  0  0  0
  4 16  2  0  0  0  0
  5 18  1  0  0  0  0
  6 20  1  0  0  0  0
  7 10  2  0  0  0  0
  7 19  1  0  0  0  0
  8 23  1  0  0  0  0
  9 23  2  0  0  0  0
 10 24  1  0  0  0  0
 11 12  2  0  0  0  0
 11 25  1  0  0  0  0
 12 26  1  0  0  0  0
 13 21  1  0  0  0  0
 13 24  2  0  0  0  0
 14 26  2  0  0  0  0
 14 27  1  0  0  0  0
 15 22  2  0  0  0  0
 15 70  1  0  0  0  0
 16 28  1  0  0  0  0
 17 28  1  0  0  0  0
 17 30  2  0  0  0  0
 17 31  1  0  0  0  0
 18 20  2  0  0  0  0
 18 36  1  0  0  0  0
 19 21  2  0  0  0  0
 19 37  1  0  0  0  0
 20 45  1  0  0  0  0
 21 38  1  0  0  0  0
 22 29  1  0  0  0  0
 22 55  1  0  0  0  0
 23 85  1  0  0  0  0
 24 86  1  0  0  0  0
 25 27  2  0  0  0  0
 25 85  1  0  0  0  0
 26 87  1  0  0  0  0
 27 88  1  0  0  0  0
 28 68  2  0  0  0  0
 29 56  1  0  0  0  0
 29 69  2  0  0  0  0
 30 71  1  0  0  0  0
 30 74  1  0  0  0  0
 31 75  1  0  0  0  0
 31 80  2  0  0  0  0
 32 46  1  0  0  0  0
 32 76  1  0  0  0  0
 32 81  2  0  0  0  0
 33 64  1  0  0  0  0
 33 72  1  0  0  0  0
 33 82  2  0  0  0  0
 34 65  1  0  0  0  0
 34 77  1  0  0  0  0
 34 83  2  0  0  0  0
 35 73  1  0  0  0  0
 35 78  1  0  0  0  0
 35 84  2  0  0  0  0
 36 39  1  0  0  0  0
 37 46  1  0  0  0  0
 38 72  1  0  0  0  0
 39 41  1  0  0  0  0
 40 42  1  0  0  0  0
 40 43  1  0  0  0  0
 41 45  1  0  0  0  0
 42 47  1  0  0  0  0
 43 73  1  0  0  0  0
 44 47  1  0  0  0  0
 44 73  1  0  0  0  0
 45 76  1  0  0  0  0
 46 72  1  0  0  0  0
 47 71  1  0  0  0  0
 48 65  1  0  0  0  0
 49 66  1  0  0  0  0
 50 66  1  0  0  0  0
 51 67  1  0  0  0  0
 52 67  1  0  0  0  0
 53 67  1  0  0  0  0
 54 79  1  0  0  0  0
 55 57  1  0  0  0  0
 56 58  1  0  0  0  0
 57 59  1  0  0  0  0
 58 60  1  0  0  0  0
 59 63  1  0  0  0  0
 60 66  1  0  0  0  0
 61 62  1  0  0  0  0
 61 70  1  0  0  0  0
 62 78  1  0  0  0  0
 63 86  1  0  0  0  0
 64 67  1  0  0  0  0
 64 77  1  0  0  0  0
 65 79  1  0  0  0  0
 68 71  1  0  0  0  0
 69 70  1  0  0  0  0
M  CHG  1  79   1
M  ISO  4  35 100  63 101  78 100  86 101
M  END
> <Batch ID>
0090

> <Smiles>
CNC(C)C(=O)NC(C(=O)N1Cc2cc([101O:1][101CH2:1]CCCc3cn(CC[100NH:0][100C:0](=O)N4CCCC(n5nc(-c6ccc(Oc7ccc(F)cc7F)cc6)c(C(N)=O)c5N)C4)nc3CCCC(C)C)ccc2CC1C(=O)NC1CCCc2ccccc21)C(C)(C)C

> <Shape>
0.203

> <Color>
0.065

> <Negative vol penalty>
0.000

$$$$

  -OEChem-04052319093D

 90 98  0     1  0  0  0  0  0999 V2000
  -17.6552  -12.5860   23.9850 C   0  0  0  0  0  0  0  0  0  0  0  0
  -18.6110  -13.5569   24.2660 C   0  0  0  0  0  0  0  0  0  0  0  0
  -26.0337  -27.9917   18.8689 C   0  0  0  0  0  0  0  0  0  0  0  0
  -26.5372  -28.4514   21.1867 C   0  0  0  0  0  0  0  0  0  0  0  0
  -18.0399  -11.3780   23.4048 C   0  0  0  0  0  0  0  0  0  0  0  0
  -19.9525  -13.3200   23.9679 C   0  0  0  0  0  0  0  0  0  0  0  0
  -22.1786  -17.2878   21.7441 C   0  0  0  0  0  0  0  0  0  0  0  0
  -25.0493  -28.9797   18.8867 C   0  0  0  0  0  0  0  0  0  0  0  0
  -25.5528  -29.4395   21.2045 C   0  0  0  0  0  0  0  0  0  0  0  0
  -22.5561  -18.3491   22.5657 C   0  0  0  0  0  0  0  0  0  0  0  0
  -22.9274  -31.8353   21.9643 C   0  0  0  0  0  0  0  0  0  0  0  0
  -22.0617  -31.8684   23.0575 C   0  0  0  0  0  0  0  0  0  0  0  0
  -24.8285  -17.5395   22.5570 C   0  0  0  0  0  0  0  0  0  0  0  0
  -26.1211  -24.7947   26.1697 C   0  0  0  0  0  0  0  0  0  0  0  0
  -21.3174  -29.6299   22.5358 C   0  0  0  0  0  0  0  0  0  0  0  0
  -26.7777  -27.7275   20.0189 C   0  0  0  0  0  0  0  0  0  0  0  0
  -29.1542  -26.8667   19.6743 C   0  0  0  0  0  0  0  0  0  0  0  0
  -19.3854  -11.1300   23.0905 C   0  0  0  0  0  0  0  0  0  0  0  0
  -23.1227  -16.3367   21.3311 C   0  0  0  0  0  0  0  0  0  0  0  0
  -20.3557  -12.1070   23.3842 C   0  0  0  0  0  0  0  0  0  0  0  0
  -24.4610  -16.4686   21.7282 C   0  0  0  0  0  0  0  0  0  0  0  0
  -26.5547  -23.4677   26.4108 C   0  0  0  0  0  0  0  0  0  0  0  0
  -24.8088  -29.7036   20.0545 C   0  0  0  0  0  0  0  0  0  0  0  0
  -23.8807  -18.4735   22.9746 C   0  0  0  0  0  0  0  0  0  0  0  0
  -22.9880  -30.6995   21.1568 C   0  0  0  0  0  0  0  0  0  0  0  0
  -21.2568  -30.7656   23.3433 C   0  0  0  0  0  0  0  0  0  0  0  0
  -22.1830  -29.5968   21.4426 C   0  0  0  0  0  0  0  0  0  0  0  0
  -27.7943  -26.7066   20.0013 C   0  0  0  0  0  0  0  0  0  0  0  0
  -27.2409  -25.5515   25.9042 C   0  0  0  0  0  0  0  0  0  0  0  0
  -27.9264  -23.4540   26.2854 C   0  0  0  0  0  0  0  0  0  0  0  0
  -29.6899  -25.6091   19.8083 C   0  0  0  0  0  0  0  0  0  0  0  0
  -29.8692  -28.0467   19.2844 C   0  0  0  0  0  0  0  0  0  0  0  0
  -23.4759  -13.2039   21.7368 C   0  0  0  0  0  0  0  0  0  0  0  0
  -25.9391  -13.6073   19.6650 C   0  0  0  0  0  0  0  0  0  0  0  0
  -28.2531  -15.7042   18.2882 C   0  0  0  0  0  0  0  0  0  0  0  0
  -28.0980  -20.8213   23.0323 C   0  0  0  0  0  0  0  0  0  0  0  0
  -19.7596   -9.7903   22.5075 C   0  0  0  0  0  0  0  0  0  0  0  0
  -22.7048  -15.2127   20.4231 C   0  0  0  0  0  0  0  0  0  0  0  0
  -25.5170  -15.4856   21.2957 C   0  0  0  0  0  0  0  0  0  0  0  0
  -21.1503   -9.7669   21.8784 C   0  0  0  0  0  0  0  0  0  0  0  0
  -28.5079  -20.9832   19.4993 C   0  0  0  0  0  0  0  0  0  0  0  0
  -22.1670  -10.4245   22.8062 C   0  0  0  0  0  0  0  0  0  0  0  0
  -28.4942  -22.4829   19.1978 C   0  0  0  0  0  0  0  0  0  0  0  0
  -27.5417  -20.6253   20.6264 C   0  0  0  0  0  0  0  0  0  0  0  0
  -27.7138  -22.8962   21.5682 C   0  0  0  0  0  0  0  0  0  0  0  0
  -21.8173  -11.8970   23.0528 C   0  0  1  0  0  0  0  0  0  0  0  0
  -23.6469  -14.0143   20.4831 C   0  0  1  0  0  0  0  0  0  0  0  0
  -28.7136  -23.3139   20.4763 C   0  0  2  0  0  0  0  0  0  0  0  0
  -24.7534  -29.8577   25.1351 C   0  0  0  0  0  0  0  0  0  0  0  0
  -28.8942  -21.7542   27.8659 C   0  0  0  0  0  0  0  0  0  0  0  0
  -30.1546  -15.7369   16.6509 C   0  0  0  0  0  0  0  0  0  0  0  0
  -30.3284  -24.4359   24.5540 C   0  0  0  0  0  0  0  0  0  0  0  0
  -30.5583  -24.9593   27.0196 C   0  0  0  0  0  0  0  0  0  0  0  0
  -27.7270  -12.2285   21.7174 C   0  0  0  0  0  0  0  0  0  0  0  0
  -29.7139  -13.1253   20.4859 C   0  0  0  0  0  0  0  0  0  0  0  0
  -28.1477  -11.5533   19.3464 C   0  0  0  0  0  0  0  0  0  0  0  0
  -26.8832  -17.6775   16.5596 C   0  0  0  0  0  0  0  0  0  0  0  0
  -25.6705  -22.2920   26.7423 C   0  0  0  0  0  0  0  0  0  0  0  0
  -27.3579  -26.9897   25.5872 C   0  0  0  0  0  0  0  0  0  0  0  0
  -26.1141  -29.1820   25.1925 C   0  0  0  0  0  0  0  0  0  0  0  0
  -24.9167  -21.7242   25.5346 C   0  0  0  0  0  0  0  0  0  0  0  0
  -25.9907  -27.7041   25.5632 C   0  0  0  0  0  0  0  0  0  0  0  0
  -23.9675  -20.5832   25.9036 C   0  0  0  0  0  0  0  0  0  0  0  0
  -28.6620  -21.1797   25.4224 C   0  0  0  0  0  0  0  0  0  0  0  0
  -23.2673  -20.0190   24.6749 C   0  0  0  0  0  0  0  0  0  1  0  0
  -28.8853  -22.3383   26.4325 C   0  0  1  0  0  0  0  0  0  0  0  0
  -27.4081  -13.9280   19.8001 C   0  0  1  0  0  0  0  0  0  0  0  0
  -28.6610  -15.9467   16.8463 C   0  0  2  0  0  0  0  0  0  0  0  0
  -29.7044  -25.1362   25.7627 C   0  0  0  0  0  0  0  0  0  0  0  0
  -28.2291  -12.7264   20.3473 C   0  0  0  0  0  0  0  0  0  0  0  0
  -27.4852  -25.4466   20.3189 N   0  0  0  0  0  0  0  0  0  0  0  0
  -28.3325  -24.7262   25.9776 N   0  0  0  0  0  0  0  0  0  0  0  0
  -28.6584  -24.8035   20.1920 N   0  0  0  0  0  0  0  0  0  0  0  0
  -25.0576  -14.4004   20.4132 N   0  0  0  0  0  0  0  0  0  0  0  0
  -27.8041  -21.4477   21.8099 N   0  0  0  0  0  0  0  0  0  0  0  0
  -30.9379  -25.1248   19.6340 N   0  0  0  0  0  0  0  0  0  0  0  0
  -29.1658  -29.2557   19.1966 N   0  0  0  0  0  0  0  0  0  0  0  0
  -22.1997  -12.7048   21.9144 N   0  0  0  0  0  0  0  0  0  0  0  0
  -27.8442  -14.4031   18.4914 N   0  0  0  0  0  0  0  0  0  0  0  0
  -28.3401  -21.6741   24.1023 N   0  0  0  0  0  0  0  0  0  0  0  0
  -28.3252  -17.3407   16.4404 N   0  3  0  0  0  0  0  0  0  0  0  0
  -31.0921  -28.0262   19.0058 O   0  0  0  0  0  0  0  0  0  0  0  0
  -24.4316  -13.0422   22.4866 O   0  0  0  0  0  0  0  0  0  0  0  0
  -25.5863  -12.6917   18.9175 O   0  0  0  0  0  0  0  0  0  0  0  0
  -28.2967  -16.5802   19.1492 O   0  0  0  0  0  0  0  0  0  0  0  0
  -28.1467  -19.5931   23.1594 O   0  0  0  0  0  0  0  0  0  0  0  0
  -23.8485  -30.6680   20.0722 O   0  0  0  0  0  0  0  0  0  0  0  0
  -24.2517  -19.5080   23.7770 O   0  0  0  0  0  0  0  0  0  1  0  0
  -20.4267  -30.7969   24.3941 F   0  0  0  0  0  0  0  0  0  0  0  0
  -22.2377  -28.5025   20.6711 F   0  0  0  0  0  0  0  0  0  0  0  0
  1  2  1  0  0  0  0
  1  5  2  0  0  0  0
  2  6  2  0  0  0  0
  3  8  2  0  0  0  0
  3 16  1  0  0  0  0
  4  9  1  0  0  0  0
  4 16  2  0  0  0  0
  5 18  1  0  0  0  0
  6 20  1  0  0  0  0
  7 10  2  0  0  0  0
  7 19  1  0  0  0  0
  8 23  1  0  0  0  0
  9 23  2  0  0  0  0
 10 24  1  0  0  0  0
 11 12  2  0  0  0  0
 11 25  1  0  0  0  0
 12 26  1  0  0  0  0
 13 21  1  0  0  0  0
 13 24  2  0  0  0  0
 14 22  1  0  0  0  0
 14 29  2  0  0  0  0
 15 26  2  0  0  0  0
 15 27  1  0  0  0  0
 16 28  1  0  0  0  0
 17 28  1  0  0  0  0
 17 31  2  0  0  0  0
 17 32  1  0  0  0  0
 18 20  2  0  0  0  0
 18 37  1  0  0  0  0
 19 21  2  0  0  0  0
 19 38  1  0  0  0  0
 20 46  1  0  0  0  0
 21 39  1  0  0  0  0
 22 30  2  0  0  0  0
 22 58  1  0  0  0  0
 23 87  1  0  0  0  0
 24 88  1  0  0  0  0
 25 27  2  0  0  0  0
 25 87  1  0  0  0  0
 26 89  1  0  0  0  0
 27 90  1  0  0  0  0
 28 71  2  0  0  0  0
 29 59  1  0  0  0  0
 29 72  1  0  0  0  0
 30 66  1  0  0  0  0
 30 72  1  0  0  0  0
 31 73  1  0  0  0  0
 31 76  1  0  0  0  0
 32 77  1  0  0  0  0
 32 82  2  0  0  0  0
 33 47  1  0  0  0  0
 33 78  1  0  0  0  0
 33 83  2  0  0  0  0
 34 67  1  0  0  0  0
 34 74  1  0  0  0  0
 34 84  2  0  0  0  0
 35 68  1  0  0  0  0
 35 79  1  0  0  0  0
 35 85  2  0  0  0  0
 36 75  1  0  0  0  0
 36 80  1  0  0  0  0
 36 86  2  0  0  0  0
 37 40  1  0  0  0  0
 38 47  1  0  0  0  0
 39 74  1  0  0  0  0
 40 42  1  0  0  0  0
 41 43  1  0  0  0  0
 41 44  1  0  0  0  0
 42 46  1  0  0  0  0
 43 48  1  0  0  0  0
 44 75  1  0  0  0  0
 45 48  1  0  0  0  0
 45 75  1  0  0  0  0
 46 78  1  0  0  0  0
 47 74  1  0  0  0  0
 48 73  1  0  0  0  0
 49 60  1  0  0  0  0
 50 66  1  0  0  0  0
 51 68  1  0  0  0  0
 52 69  1  0  0  0  0
 53 69  1  0  0  0  0
 54 70  1  0  0  0  0
 55 70  1  0  0  0  0
 56 70  1  0  0  0  0
 57 81  1  0  0  0  0
 58 61  1  0  0  0  0
 59 62  1  0  0  0  0
 60 62  1  0  0  0  0
 61 63  1  0  0  0  0
 63 65  1  0  0  0  0
 64 66  1  0  0  0  0
 64 80  1  0  0  0  0
 65 88  1  0  0  0  0
 67 70  1  0  0  0  0
 67 79  1  0  0  0  0
 68 81  1  0  0  0  0
 69 72  1  0  0  0  0
 71 73  1  0  0  0  0
M  CHG  1  81   1
M  ISO  4  36 100  65 101  80 100  88 101
M  END
> <Batch ID>
0090

> <Smiles>
CCCCc1cc(CCC[101CH2:1][101O:1]c2ccc3c(c2)CN(C(=O)C(NC(=O)C(C)NC)C(C)(C)C)C(C(=O)NC2CCCc4ccccc42)C3)c(C(C)C[100NH:0][100C:0](=O)N2CCCC(n3nc(-c4ccc(Oc5ccc(F)cc5F)cc4)c(C(N)=O)c3N)C2)n1C(C)C

> <Shape>
0.216

> <Color>
0.050

> <Negative vol penalty>
0.000

$$$$

  -OEChem-04052319093D

 90 98  0     1  0  0  0  0  0999 V2000
  -25.0222  -25.3236   11.3941 C   0  0  0  0  0  0  0  0  0  0  0  0
  -25.0840  -24.3561   12.3919 C   0  0  0  0  0  0  0  0  0  0  0  0
  -23.0132  -10.0404   19.8846 C   0  0  0  0  0  0  0  0  0  0  0  0
  -23.9528   -9.7386   22.0899 C   0  0  0  0  0  0  0  0  0  0  0  0
  -25.0207  -26.6756   11.7347 C   0  0  0  0  0  0  0  0  0  0  0  0
  -25.1455  -24.7402   13.7310 C   0  0  0  0  0  0  0  0  0  0  0  0
  -22.6434  -21.8419   18.5106 C   0  0  0  0  0  0  0  0  0  0  0  0
  -22.2840   -8.8608   20.0338 C   0  0  0  0  0  0  0  0  0  0  0  0
  -23.2236   -8.5589   22.2391 C   0  0  0  0  0  0  0  0  0  0  0  0
  -23.1704  -20.9613   19.4543 C   0  0  0  0  0  0  0  0  0  0  0  0
  -23.4477   -5.3450   21.2139 C   0  0  0  0  0  0  0  0  0  0  0  0
  -24.1115   -4.2342   21.7345 C   0  0  0  0  0  0  0  0  0  0  0  0
  -23.5036  -22.8022   20.9772 C   0  0  0  0  0  0  0  0  0  0  0  0
  -27.4466  -21.6475   20.4644 C   0  0  0  0  0  0  0  0  0  0  0  0
  -22.5522   -4.1666   23.5786 C   0  0  0  0  0  0  0  0  0  0  0  0
  -23.8476  -10.4794   20.9126 C   0  0  0  0  0  0  0  0  0  0  0  0
  -24.1952  -12.9988   21.1103 C   0  0  0  0  0  0  0  0  0  0  0  0
  -25.0725  -27.0763   13.0791 C   0  0  0  0  0  0  0  0  0  0  0  0
  -22.5525  -23.2131   18.7894 C   0  0  0  0  0  0  0  0  0  0  0  0
  -25.1461  -26.0988   14.0899 C   0  0  0  0  0  0  0  0  0  0  0  0
  -22.9728  -23.6977   20.0363 C   0  0  0  0  0  0  0  0  0  0  0  0
  -28.2012  -21.9743   19.3432 C   0  0  0  0  0  0  0  0  0  0  0  0
  -27.7167  -20.4740   21.1595 C   0  0  0  0  0  0  0  0  0  0  0  0
  -22.3892   -8.1200   21.2110 C   0  0  0  0  0  0  0  0  0  0  0  0
  -23.6033  -21.4418   20.6867 C   0  0  0  0  0  0  0  0  0  0  0  0
  -22.3361   -5.8666   21.8756 C   0  0  0  0  0  0  0  0  0  0  0  0
  -23.6638   -3.6450   22.9168 C   0  0  0  0  0  0  0  0  0  0  0  0
  -21.8883   -5.2774   23.0580 C   0  0  0  0  0  0  0  0  0  0  0  0
  -24.6015  -11.6976   20.7589 C   0  0  0  0  0  0  0  0  0  0  0  0
  -29.2068  -21.1010   18.9612 C   0  0  0  0  0  0  0  0  0  0  0  0
  -28.7439  -19.6677   20.6961 C   0  0  0  0  0  0  0  0  0  0  0  0
  -25.2600  -13.7955   20.7666 C   0  0  0  0  0  0  0  0  0  0  0  0
  -22.9654  -13.4473   21.6951 C   0  0  0  0  0  0  0  0  0  0  0  0
  -23.8007  -25.8474   17.5220 C   0  0  0  0  0  0  0  0  0  0  0  0
  -21.8352  -27.3273   19.6359 C   0  0  0  0  0  0  0  0  0  0  0  0
  -20.0767  -27.1703   22.5566 C   0  0  0  0  0  0  0  0  0  0  0  0
  -30.7479  -14.8034   20.6550 C   0  0  0  0  0  0  0  0  0  0  0  0
  -25.1163  -28.5501   13.3962 C   0  0  0  0  0  0  0  0  0  0  0  0
  -21.9569  -24.1461   17.7710 C   0  0  0  0  0  0  0  0  0  0  0  0
  -22.8779  -25.1581   20.3925 C   0  0  0  0  0  0  0  0  0  0  0  0
  -24.8056  -28.8685   14.8565 C   0  0  0  0  0  0  0  0  0  0  0  0
  -29.4089  -12.7609   18.0643 C   0  0  0  0  0  0  0  0  0  0  0  0
  -25.5840  -27.9395   15.7827 C   0  0  0  0  0  0  0  0  0  0  0  0
  -28.0085  -12.4047   18.5662 C   0  0  0  0  0  0  0  0  0  0  0  0
  -30.4199  -12.8203   19.2072 C   0  0  0  0  0  0  0  0  0  0  0  0
  -28.6390  -13.3476   20.8272 C   0  0  0  0  0  0  0  0  0  0  0  0
  -25.1889  -26.4754   15.5549 C   0  0  1  0  0  0  0  0  0  0  0  0
  -22.3872  -25.5967   17.9657 C   0  0  1  0  0  0  0  0  0  0  0  0
  -27.5733  -13.3306   19.7180 C   0  0  2  0  0  0  0  0  0  0  0  0
  -30.0491  -21.3992   17.7644 C   0  0  0  0  0  0  0  0  0  0  0  0
  -18.5974  -28.5498   24.0419 C   0  0  0  0  0  0  0  0  0  0  0  0
  -29.0545  -28.0819   17.6554 C   0  0  0  0  0  0  0  0  0  0  0  0
  -30.9390  -26.4857   18.0570 C   0  0  0  0  0  0  0  0  0  0  0  0
  -24.2767  -28.8525   20.6471 C   0  0  0  0  0  0  0  0  0  0  0  0
  -22.9612  -29.4674   22.6867 C   0  0  0  0  0  0  0  0  0  0  0  0
  -22.1998  -30.2297   20.4368 C   0  0  0  0  0  0  0  0  0  0  0  0
  -17.8104  -25.2939   22.2375 C   0  0  0  0  0  0  0  0  0  0  0  0
  -27.9168  -23.2302   18.5943 C   0  0  0  0  0  0  0  0  0  0  0  0
  -26.9019  -20.1136   22.3759 C   0  0  0  0  0  0  0  0  0  0  0  0
  -29.0789  -18.3960   21.4044 C   0  0  0  0  0  0  0  0  0  0  0  0
  -28.8905  -24.3861   18.8969 C   0  0  0  0  0  0  0  0  0  0  0  0
  -25.8637  -19.0190   22.1197 C   0  0  0  0  0  0  0  0  0  0  0  0
  -30.5774  -18.0387   21.3949 C   0  0  0  0  0  0  0  0  0  0  0  0
  -28.5209  -25.6786   18.1580 C   0  0  0  0  0  0  0  0  0  0  0  0
  -30.9257  -16.7659   22.1636 C   0  0  0  0  0  0  0  0  0  0  0  0
  -24.7915  -19.4269   21.1160 C   0  0  0  0  0  0  0  0  0  1  0  0
  -21.9600  -27.7929   21.0666 C   0  0  1  0  0  0  0  0  0  0  0  0
  -18.6471  -27.5540   22.8935 C   0  0  2  0  0  0  0  0  0  0  0  0
  -29.4982  -26.8380   18.4294 C   0  0  0  0  0  0  0  0  0  0  0  0
  -22.8531  -29.0584   21.2021 C   0  0  0  0  0  0  0  0  0  0  0  0
  -25.8285  -11.6651   20.2322 N   0  0  0  0  0  0  0  0  0  0  0  0
  -29.4986  -19.9520   19.6111 N   0  0  0  0  0  0  0  0  0  0  0  0
  -26.2024  -12.9558   20.2500 N   0  0  0  0  0  0  0  0  0  0  0  0
  -22.2942  -26.0314   19.3609 N   0  0  0  0  0  0  0  0  0  0  0  0
  -29.9481  -13.7162   20.2658 N   0  0  0  0  0  0  0  0  0  0  0  0
  -25.4726  -15.1254   20.8588 N   0  0  0  0  0  0  0  0  0  0  0  0
  -21.9776  -12.4963   21.9851 N   0  0  0  0  0  0  0  0  0  0  0  0
  -23.9194  -26.1901   16.1886 N   0  0  0  0  0  0  0  0  0  0  0  0
  -20.5979  -27.9673   21.5594 N   0  0  0  0  0  0  0  0  0  0  0  0
  -30.2235  -15.6064   21.6605 N   0  0  0  0  0  0  0  0  0  0  0  0
  -17.8651  -26.3470   23.2839 N   0  3  0  0  0  0  0  0  0  0  0  0
  -22.7425  -14.6576   21.9379 O   0  0  0  0  0  0  0  0  0  0  0  0
  -24.7157  -25.7395   18.3300 O   0  0  0  0  0  0  0  0  0  0  0  0
  -21.3418  -28.0829   18.7949 O   0  0  0  0  0  0  0  0  0  0  0  0
  -20.6728  -26.2575   23.1240 O   0  0  0  0  0  0  0  0  0  0  0  0
  -31.8453  -15.0439   20.1405 O   0  0  0  0  0  0  0  0  0  0  0  0
  -21.6776   -6.9690   21.3571 O   0  0  0  0  0  0  0  0  0  0  0  0
  -24.1186  -20.5845   21.6094 O   0  0  0  0  0  0  0  0  0  1  0  0
  -24.3005   -2.5774   23.4158 F   0  0  0  0  0  0  0  0  0  0  0  0
  -20.8203   -5.7734   23.6976 F   0  0  0  0  0  0  0  0  0  0  0  0
  1  2  1  0  0  0  0
  1  5  2  0  0  0  0
  2  6  2  0  0  0  0
  3  8  2  0  0  0  0
  3 16  1  0  0  0  0
  4  9  1  0  0  0  0
  4 16  2  0  0  0  0
  5 18  1  0  0  0  0
  6 20  1  0  0  0  0
  7 10  2  0  0  0  0
  7 19  1  0  0  0  0
  8 24  1  0  0  0  0
  9 24  2  0  0  0  0
 10 25  1  0  0  0  0
 11 12  2  0  0  0  0
 11 26  1  0  0  0  0
 12 27  1  0  0  0  0
 13 21  1  0  0  0  0
 13 25  2  0  0  0  0
 14 22  2  0  0  0  0
 14 23  1  0  0  0  0
 15 27  2  0  0  0  0
 15 28  1  0  0  0  0
 16 29  1  0  0  0  0
 17 29  1  0  0  0  0
 17 32  2  0  0  0  0
 17 33  1  0  0  0  0
 18 20  2  0  0  0  0
 18 38  1  0  0  0  0
 19 21  2  0  0  0  0
 19 39  1  0  0  0  0
 20 47  1  0  0  0  0
 21 40  1  0  0  0  0
 22 30  1  0  0  0  0
 22 58  1  0  0  0  0
 23 31  2  0  0  0  0
 23 59  1  0  0  0  0
 24 87  1  0  0  0  0
 25 88  1  0  0  0  0
 26 28  2  0  0  0  0
 26 87  1  0  0  0  0
 27 89  1  0  0  0  0
 28 90  1  0  0  0  0
 29 71  2  0  0  0  0
 30 50  1  0  0  0  0
 30 72  2  0  0  0  0
 31 60  1  0  0  0  0
 31 72  1  0  0  0  0
 32 73  1  0  0  0  0
 32 76  1  0  0  0  0
 33 77  1  0  0  0  0
 33 82  2  0  0  0  0
 34 48  1  0  0  0  0
 34 78  1  0  0  0  0
 34 83  2  0  0  0  0
 35 67  1  0  0  0  0
 35 74  1  0  0  0  0
 35 84  2  0  0  0  0
 36 68  1  0  0  0  0
 36 79  1  0  0  0  0
 36 85  2  0  0  0  0
 37 75  1  0  0  0  0
 37 80  1  0  0  0  0
 37 86  2  0  0  0  0
 38 41  1  0  0  0  0
 39 48  1  0  0  0  0
 40 74  1  0  0  0  0
 41 43  1  0  0  0  0
 42 44  1  0  0  0  0
 42 45  1  0  0  0  0
 43 47  1  0  0  0  0
 44 49  1  0  0  0  0
 45 75  1  0  0  0  0
 46 49  1  0  0  0  0
 46 75  1  0  0  0  0
 47 78  1  0  0  0  0
 48 74  1  0  0  0  0
 49 73  1  0  0  0  0
 51 68  1  0  0  0  0
 52 69  1  0  0  0  0
 53 69  1  0  0  0  0
 54 70  1  0  0  0  0
 55 70  1  0  0  0  0
 56 70  1  0  0  0  0
 57 81  1  0  0  0  0
 58 61  1  0  0  0  0
 59 62  1  0  0  0  0
 60 63  1  0  0  0  0
 61 64  1  0  0  0  0
 62 66  1  0  0  0  0
 63 65  1  0  0  0  0
 64 69  1  0  0  0  0
 65 80  1  0  0  0  0
 66 88  1  0  0  0  0
 67 70  1  0  0  0  0
 67 79  1  0  0  0  0
 68 81  1  0  0  0  0
 71 73  1  0  0  0  0
M  CHG  1  81   1
M  ISO  4  37 100  66 101  80 100  88 101
M  END
> <Batch ID>
0090

> <Smiles>
CNC(C)C(=O)NC(C(=O)N1Cc2cc([101O:1][101CH2:1]CCc3cc(CCCC(C)C)c(C)nc3CCC[100NH:0][100C:0](=O)N3CCCC(n4nc(-c5ccc(Oc6ccc(F)cc6F)cc5)c(C(N)=O)c4N)C3)ccc2CC1C(=O)NC1CCCc2ccccc21)C(C)(C)C

> <Shape>
0.304

> <Color>
0.189

> <Negative vol penalty>
0.000

$$$$

  -OEChem-04052319093D

 87 95  0     1  0  0  0  0  0999 V2000
  -30.5579  -29.1636   27.2374 C   0  0  0  0  0  0  0  0  0  0  0  0
  -29.6059  -28.7019   26.3340 C   0  0  0  0  0  0  0  0  0  0  0  0
  -29.1671  -17.4922   19.3370 C   0  0  0  0  0  0  0  0  0  0  0  0
  -30.4604  -18.0581   21.2977 C   0  0  0  0  0  0  0  0  0  0  0  0
  -31.3346  -28.2550   27.9550 C   0  0  0  0  0  0  0  0  0  0  0  0
  -29.4309  -27.3312   26.1470 C   0  0  0  0  0  0  0  0  0  0  0  0
  -24.5482  -25.9917   26.0483 C   0  0  0  0  0  0  0  0  0  0  0  0
  -29.7426  -16.2217   19.3241 C   0  0  0  0  0  0  0  0  0  0  0  0
  -31.0359  -16.7876   21.2848 C   0  0  0  0  0  0  0  0  0  0  0  0
  -23.8449  -26.2351   24.8694 C   0  0  0  0  0  0  0  0  0  0  0  0
  -29.3575  -13.2959   20.9746 C   0  0  0  0  0  0  0  0  0  0  0  0
  -28.5135  -12.2040   20.7722 C   0  0  0  0  0  0  0  0  0  0  0  0
  -24.1102  -23.9213   24.2407 C   0  0  0  0  0  0  0  0  0  0  0  0
  -24.3505  -29.6119   21.3921 C   0  0  0  0  0  0  0  0  0  0  0  0
  -25.3769  -28.5406   19.4991 C   0  0  0  0  0  0  0  0  0  0  0  0
  -29.7563  -11.6113   18.7869 C   0  0  0  0  0  0  0  0  0  0  0  0
  -29.5261  -18.4105   20.3238 C   0  0  0  0  0  0  0  0  0  0  0  0
  -27.7548  -20.1170   21.0007 C   0  0  0  0  0  0  0  0  0  0  0  0
  -31.1623  -26.8723   27.7838 C   0  0  0  0  0  0  0  0  0  0  0  0
  -25.0480  -24.7117   26.3277 C   0  0  0  0  0  0  0  0  0  0  0  0
  -30.2070  -26.4032   26.8621 C   0  0  0  0  0  0  0  0  0  0  0  0
  -24.8173  -23.6637   25.4251 C   0  0  0  0  0  0  0  0  0  0  0  0
  -24.2684  -28.7359   20.3154 C   0  0  0  0  0  0  0  0  0  0  0  0
  -30.6769  -15.8694   20.2980 C   0  0  0  0  0  0  0  0  0  0  0  0
  -23.6283  -25.2005   23.9640 C   0  0  0  0  0  0  0  0  0  0  0  0
  -30.4009  -13.5456   20.0831 C   0  0  0  0  0  0  0  0  0  0  0  0
  -28.7129  -11.3617   19.6784 C   0  0  0  0  0  0  0  0  0  0  0  0
  -30.6003  -12.7033   18.9893 C   0  0  0  0  0  0  0  0  0  0  0  0
  -28.9324  -19.7233   20.3373 C   0  0  0  0  0  0  0  0  0  0  0  0
  -25.5543  -30.2630   21.6080 C   0  0  0  0  0  0  0  0  0  0  0  0
  -26.5347  -29.2399   19.7997 C   0  0  0  0  0  0  0  0  0  0  0  0
  -27.6230  -21.4514   20.7035 C   0  0  0  0  0  0  0  0  0  0  0  0
  -26.8601  -19.3454   21.8130 C   0  0  0  0  0  0  0  0  0  0  0  0
  -27.9458  -23.4823   26.7695 C   0  0  0  0  0  0  0  0  0  0  0  0
  -26.2712  -20.8041   27.5075 C   0  0  0  0  0  0  0  0  0  0  0  0
  -23.3825  -19.0144   27.1923 C   0  0  0  0  0  0  0  0  0  0  0  0
  -29.7757  -26.4643   20.2745 C   0  0  0  0  0  0  0  0  0  0  0  0
  -32.0580  -25.9292   28.5472 C   0  0  0  0  0  0  0  0  0  0  0  0
  -25.7815  -24.4594   27.6164 C   0  0  0  0  0  0  0  0  0  0  0  0
  -25.3155  -22.2669   25.6876 C   0  0  0  0  0  0  0  0  0  0  0  0
  -31.5511  -24.4894   28.5666 C   0  0  0  0  0  0  0  0  0  0  0  0
  -30.0855  -24.3410   17.3602 C   0  0  0  0  0  0  0  0  0  0  0  0
  -31.1230  -24.0553   27.1683 C   0  0  0  0  0  0  0  0  0  0  0  0
  -29.7124  -22.9747   17.9382 C   0  0  0  0  0  0  0  0  0  0  0  0
  -30.8906  -25.1638   18.3617 C   0  0  0  0  0  0  0  0  0  0  0  0
  -29.8508  -23.9870   20.2612 C   0  0  0  0  0  0  0  0  0  0  0  0
  -29.9704  -24.9237   26.6497 C   0  0  1  0  0  0  0  0  0  0  0  0
  -26.6902  -23.2354   27.5570 C   0  0  1  0  0  0  0  0  0  0  0  0
  -29.0163  -23.1157   19.3049 C   0  0  2  0  0  0  0  0  0  0  0  0
  -26.3134  -31.4804   25.1923 C   0  0  0  0  0  0  0  0  0  0  0  0
  -22.3246  -16.8447   27.8782 C   0  0  0  0  0  0  0  0  0  0  0  0
  -27.9575  -19.3297   25.4357 C   0  0  0  0  0  0  0  0  0  0  0  0
  -26.2679  -17.4826   25.4771 C   0  0  0  0  0  0  0  0  0  0  0  0
  -27.5428  -18.0509   27.5445 C   0  0  0  0  0  0  0  0  0  0  0  0
  -27.5660  -28.1186   17.8402 C   0  0  0  0  0  0  0  0  0  0  0  0
  -21.2067  -20.4002   28.6431 C   0  0  0  0  0  0  0  0  0  0  0  0
  -22.9823  -28.0007   20.0344 C   0  0  0  0  0  0  0  0  0  0  0  0
  -25.6786  -31.2104   22.7543 C   0  0  0  0  0  0  0  0  0  0  0  0
  -26.1547  -30.5077   24.0345 C   0  0  0  0  0  0  0  0  0  0  0  0
  -22.8782  -26.6486   20.7433 C   0  0  0  0  0  0  0  0  0  0  0  0
  -29.7793  -28.9425   20.1510 C   0  0  0  0  0  0  0  0  0  0  0  0
  -28.8925  -29.7384   19.2059 C   0  0  0  0  0  0  0  0  0  0  0  0
  -23.0368  -26.7462   22.2561 C   0  0  0  0  0  0  0  0  0  1  0  0
  -25.7415  -19.6254   26.7271 C   0  0  1  0  0  0  0  0  0  0  0  0
  -22.5141  -18.3140   28.2217 C   0  0  2  0  0  0  0  0  0  0  0  0
  -26.8696  -18.6488   26.2900 C   0  0  0  0  0  0  0  0  0  0  0  0
  -29.5077  -20.7265   19.6689 N   0  0  0  0  0  0  0  0  0  0  0  0
  -26.6525  -30.0990   20.8368 N   0  0  0  0  0  0  0  0  0  0  0  0
  -28.6880  -21.7637   19.9107 N   0  0  0  0  0  0  0  0  0  0  0  0
  -26.0327  -22.0719   26.9585 N   0  0  0  0  0  0  0  0  0  0  0  0
  -30.1644  -25.2756   19.6346 N   0  0  0  0  0  0  0  0  0  0  0  0
  -26.7011  -22.3764   21.0454 N   0  0  0  0  0  0  0  0  0  0  0  0
  -27.1444  -17.9881   22.0162 N   0  0  0  0  0  0  0  0  0  0  0  0
  -28.7202  -24.5185   27.2556 N   0  0  0  0  0  0  0  0  0  0  0  0
  -24.7114  -19.0140   27.5600 N   0  0  0  0  0  0  0  0  0  0  0  0
  -30.1168  -27.6410   19.6189 N   0  0  0  0  0  0  0  0  0  0  0  0
  -27.6559  -29.0306   18.9588 N   0  0  3  0  0  0  0  0  0  0  0  0
  -21.1716  -18.9574   28.2908 N   0  3  0  0  0  0  0  0  0  0  0  0
  -25.8299  -19.8408   22.3294 O   0  0  0  0  0  0  0  0  0  0  0  0
  -28.1945  -22.7836   25.7940 O   0  0  0  0  0  0  0  0  0  0  0  0
  -26.8681  -20.6075   28.5690 O   0  0  0  0  0  0  0  0  0  0  0  0
  -22.9280  -19.5089   26.1630 O   0  0  0  0  0  0  0  0  0  0  0  0
  -29.1647  -26.4762   21.3486 O   0  0  0  0  0  0  0  0  0  0  0  0
  -31.2385  -14.6296   20.2859 O   0  0  0  0  0  0  0  0  0  0  0  0
  -22.9427  -25.4354   22.8122 O   0  0  0  0  0  0  0  0  0  1  0  0
  -27.9032  -10.3123   19.4850 F   0  0  0  0  0  0  0  0  0  0  0  0
  -31.6017  -12.9374   18.1301 F   0  0  0  0  0  0  0  0  0  0  0  0
  1  2  1  0  0  0  0
  1  5  2  0  0  0  0
  2  6  2  0  0  0  0
  3  8  2  0  0  0  0
  3 17  1  0  0  0  0
  4  9  1  0  0  0  0
  4 17  2  0  0  0  0
  5 19  1  0  0  0  0
  6 21  1  0  0  0  0
  7 10  2  0  0  0  0
  7 20  1  0  0  0  0
  8 24  1  0  0  0  0
  9 24  2  0  0  0  0
 10 25  1  0  0  0  0
 11 12  2  0  0  0  0
 11 26  1  0  0  0  0
 12 27  1  0  0  0  0
 13 22  1  0  0  0  0
 13 25  2  0  0  0  0
 14 23  2  0  0  0  0
 14 30  1  0  0  0  0
 15 23  1  0  0  0  0
 15 31  2  0  0  0  0
 16 27  2  0  0  0  0
 16 28  1  0  0  0  0
 17 29  1  0  0  0  0
 18 29  1  0  0  0  0
 18 32  2  0  0  0  0
 18 33  1  0  0  0  0
 19 21  2  0  0  0  0
 19 38  1  0  0  0  0
 20 22  2  0  0  0  0
 20 39  1  0  0  0  0
 21 47  1  0  0  0  0
 22 40  1  0  0  0  0
 23 57  1  0  0  0  0
 24 84  1  0  0  0  0
 25 85  1  0  0  0  0
 26 28  2  0  0  0  0
 26 84  1  0  0  0  0
 27 86  1  0  0  0  0
 28 87  1  0  0  0  0
 29 67  2  0  0  0  0
 30 58  1  0  0  0  0
 30 68  2  0  0  0  0
 31 68  1  0  0  0  0
 31 77  1  0  0  0  0
 32 69  1  0  0  0  0
 32 72  1  0  0  0  0
 33 73  1  0  0  0  0
 33 79  2  0  0  0  0
 34 48  1  0  0  0  0
 34 74  1  0  0  0  0
 34 80  2  0  0  0  0
 35 64  1  0  0  0  0
 35 70  1  0  0  0  0
 35 81  2  0  0  0  0
 36 65  1  0  0  0  0
 36 75  1  0  0  0  0
 36 82  2  0  0  0  0
 37 71  1  0  0  0  0
 37 76  1  0  0  0  0
 37 83  2  0  0  0  0
 38 41  1  0  0  0  0
 39 48  1  0  0  0  0
 40 70  1  0  0  0  0
 41 43  1  0  0  0  0
 42 44  1  0  0  0  0
 42 45  1  0  0  0  0
 43 47  1  0  0  0  0
 44 49  1  0  0  0  0
 45 71  1  0  0  0  0
 46 49  1  0  0  0  0
 46 71  1  0  0  0  0
 47 74  1  0  0  0  0
 48 70  1  0  0  0  0
 49 69  1  0  0  0  0
 50 59  1  0  0  0  0
 51 65  1  0  0  0  0
 52 66  1  0  0  0  0
 53 66  1  0  0  0  0
 54 66  1  0  0  0  0
 55 77  1  0  0  0  0
 56 78  1  0  0  0  0
 57 60  1  0  0  0  0
 58 59  1  0  0  0  0
 60 63  1  0  0  0  0
 61 62  1  0  0  0  0
 61 76  1  0  0  0  0
 62 77  1  0  0  0  0
 63 85  1  0  0  0  0
 64 66  1  0  0  0  0
 64 75  1  0  0  0  0
 65 78  1  0  0  0  0
 67 69  1  0  0  0  0
M  CHG  1  78   1
M  ISO  4  37 100  63 101  76 100  85 101
M  END
> <Batch ID>
0090

> <Smiles>
CCCc1cc(CC[101CH2:1][101O:1]c2ccc3c(c2)CN(C(=O)C(NC(=O)C(C)NC)C(C)(C)C)C(C(=O)NC2CCCc4ccccc42)C3)cc(N(C)CC[100NH:0][100C:0](=O)N2CCCC(n3nc(-c4ccc(Oc5ccc(F)cc5F)cc4)c(C(N)=O)c3N)C2)n1

> <Shape>
0.218

> <Color>
0.068

> <Negative vol penalty>
0.000

$$$$

  -OEChem-04052319093D

 91 99  0     1  0  0  0  0  0999 V2000
  -30.2214  -11.9403   16.2689 C   0  0  0  0  0  0  0  0  0  0  0  0
  -29.2545  -12.8850   15.9399 C   0  0  0  0  0  0  0  0  0  0  0  0
  -20.1921  -23.9464   20.3188 C   0  0  0  0  0  0  0  0  0  0  0  0
  -22.1414  -23.4921   21.6719 C   0  0  0  0  0  0  0  0  0  0  0  0
  -30.4129  -11.5752   17.6008 C   0  0  0  0  0  0  0  0  0  0  0  0
  -28.4777  -13.4642   16.9427 C   0  0  0  0  0  0  0  0  0  0  0  0
  -28.4341  -20.5975   17.9452 C   0  0  0  0  0  0  0  0  0  0  0  0
  -19.9490  -22.5773   20.2092 C   0  0  0  0  0  0  0  0  0  0  0  0
  -21.8983  -22.1230   21.5624 C   0  0  0  0  0  0  0  0  0  0  0  0
  -28.2093  -21.9692   18.0637 C   0  0  0  0  0  0  0  0  0  0  0  0
  -18.6107  -20.1247   22.1137 C   0  0  0  0  0  0  0  0  0  0  0  0
  -17.3006  -19.6823   22.2960 C   0  0  0  0  0  0  0  0  0  0  0  0
  -26.7500  -21.5779   19.9518 C   0  0  0  0  0  0  0  0  0  0  0  0
  -28.3025  -28.4102   24.5027 C   0  0  0  0  0  0  0  0  0  0  0  0
  -17.2969  -18.7710   20.0584 C   0  0  0  0  0  0  0  0  0  0  0  0
  -21.2883  -24.4038   21.0501 C   0  0  0  0  0  0  0  0  0  0  0  0
  -21.0554  -26.6912   22.1553 C   0  0  0  0  0  0  0  0  0  0  0  0
  -29.6446  -12.1573   18.6213 C   0  0  0  0  0  0  0  0  0  0  0  0
  -27.8291  -19.7109   18.8404 C   0  0  0  0  0  0  0  0  0  0  0  0
  -28.6581  -13.1055   18.2893 C   0  0  0  0  0  0  0  0  0  0  0  0
  -26.9813  -20.2038   19.8459 C   0  0  0  0  0  0  0  0  0  0  0  0
  -27.6602  -29.0834   25.5711 C   0  0  0  0  0  0  0  0  0  0  0  0
  -20.8021  -21.6656   20.8310 C   0  0  0  0  0  0  0  0  0  0  0  0
  -27.3692  -22.4581   19.0644 C   0  0  0  0  0  0  0  0  0  0  0  0
  -19.2640  -19.8904   20.9037 C   0  0  0  0  0  0  0  0  0  0  0  0
  -16.6436  -19.0055   21.2684 C   0  0  0  0  0  0  0  0  0  0  0  0
  -18.6071  -19.2135   19.8761 C   0  0  0  0  0  0  0  0  0  0  0  0
  -21.5402  -25.8180   21.1632 C   0  0  0  0  0  0  0  0  0  0  0  0
  -27.4231  -28.3877   23.4428 C   0  0  0  0  0  0  0  0  0  0  0  0
  -26.4077  -29.4515   25.1315 C   0  0  0  0  0  0  0  0  0  0  0  0
  -21.5760  -27.9167   21.8183 C   0  0  0  0  0  0  0  0  0  0  0  0
  -20.2100  -26.4189   23.2809 C   0  0  0  0  0  0  0  0  0  0  0  0
  -27.3675  -16.1519   19.9343 C   0  0  0  0  0  0  0  0  0  0  0  0
  -27.6061  -17.8435   22.4823 C   0  0  0  0  0  0  0  0  0  0  0  0
  -28.3336  -19.9961   25.0267 C   0  0  0  0  0  0  0  0  0  0  0  0
  -26.2464  -30.7473   20.2397 C   0  0  0  0  0  0  0  0  0  0  0  0
  -29.8554  -11.6959   20.0417 C   0  0  0  0  0  0  0  0  0  0  0  0
  -27.9939  -18.2209   18.7121 C   0  0  0  0  0  0  0  0  0  0  0  0
  -26.3245  -19.2102   20.7647 C   0  0  0  0  0  0  0  0  0  0  0  0
  -29.2475  -12.6323   21.0828 C   0  0  0  0  0  0  0  0  0  0  0  0
  -23.9432  -29.4714   17.6380 C   0  0  0  0  0  0  0  0  0  0  0  0
  -27.8265  -13.0206   20.6866 C   0  0  0  0  0  0  0  0  0  0  0  0
  -23.1259  -28.4288   18.3990 C   0  0  0  0  0  0  0  0  0  0  0  0
  -25.3395  -29.6394   18.2293 C   0  0  0  0  0  0  0  0  0  0  0  0
  -24.5268  -28.9052   20.4462 C   0  0  0  0  0  0  0  0  0  0  0  0
  -27.8126  -13.7744   19.3513 C   0  0  1  0  0  0  0  0  0  0  0  0
  -28.0179  -17.4972   20.0704 C   0  0  1  0  0  0  0  0  0  0  0  0
  -23.0983  -28.7453   19.9044 C   0  0  2  0  0  0  0  0  0  0  0  0
  -25.3261  -30.1746   25.8339 C   0  0  0  0  0  0  0  0  0  0  0  0
  -27.6747  -34.2506   22.9102 C   0  0  0  0  0  0  0  0  0  0  0  0
  -28.5918  -20.0816   27.5214 C   0  0  0  0  0  0  0  0  0  0  0  0
  -30.8483  -31.9906   28.1468 C   0  0  0  0  0  0  0  0  0  0  0  0
  -28.7886  -31.1809   29.3140 C   0  0  0  0  0  0  0  0  0  0  0  0
  -24.5731  -17.7610   22.7954 C   0  0  0  0  0  0  0  0  0  0  0  0
  -24.8509  -18.7782   25.0661 C   0  0  0  0  0  0  0  0  0  0  0  0
  -25.8394  -16.5414   24.5740 C   0  0  0  0  0  0  0  0  0  0  0  0
  -31.1631  -20.8389   24.8212 C   0  0  0  0  0  0  0  0  0  0  0  0
  -28.2348  -29.3396   26.9068 C   0  0  0  0  0  0  0  0  0  0  0  0
  -27.5880  -27.8021   22.0630 C   0  0  0  0  0  0  0  0  0  0  0  0
  -26.6589  -33.3146   22.2702 C   0  0  0  0  0  0  0  0  0  0  0  0
  -29.2550  -30.5009   26.8997 C   0  0  0  0  0  0  0  0  0  0  0  0
  -27.1369  -26.3414   21.9524 C   0  0  0  0  0  0  0  0  0  0  0  0
  -27.3831  -25.7420   20.5672 C   0  0  0  0  0  0  0  0  0  0  0  0
  -25.1008  -29.2129   23.0103 C   0  0  0  0  0  0  0  0  0  0  0  0
  -27.1223  -31.8628   22.2567 C   0  0  0  0  0  0  0  0  0  0  0  0
  -24.9968  -30.6236   22.4365 C   0  0  0  0  0  0  0  0  0  0  0  0
  -26.8869  -24.3050   20.4836 C   0  0  0  0  0  0  0  0  0  1  0  0
  -26.8874  -18.6089   23.5644 C   0  0  1  0  0  0  0  0  0  0  0  0
  -29.3024  -19.8897   26.1906 C   0  0  2  0  0  0  0  0  0  0  0  0
  -29.8577  -30.8310   28.2779 C   0  0  0  0  0  0  0  0  0  0  0  0
  -25.5481  -17.9354   23.9769 C   0  0  0  0  0  0  0  0  0  0  0  0
  -22.3096  -26.4363   20.2633 N   0  0  0  0  0  0  0  0  0  0  0  0
  -26.2745  -29.0233   23.8366 N   0  0  0  0  0  0  0  0  0  0  0  0
  -22.3121  -27.7111   20.6886 N   0  0  0  0  0  0  0  0  0  0  0  0
  -27.2920  -18.1742   21.1585 N   0  0  0  0  0  0  0  0  0  0  0  0
  -25.2858  -29.8963   19.6688 N   0  0  0  0  0  0  0  0  0  0  0  0
  -21.4712  -29.1394   22.3809 N   0  0  0  0  0  0  0  0  0  0  0  0
  -19.7648  -25.1049   23.4797 N   0  0  0  0  0  0  0  0  0  0  0  0
  -28.2305  -15.1469   19.5413 N   0  0  0  0  0  0  0  0  0  0  0  0
  -27.8408  -18.7623   24.6579 N   0  0  0  0  0  0  0  0  0  0  0  0
  -26.1560  -30.9786   21.6206 N   0  0  0  0  0  0  0  0  0  0  0  0
  -30.3684  -20.9244   26.0735 N   0  3  0  0  0  0  0  0  0  0  0  0
  -19.8465  -27.3173   24.0771 O   0  0  0  0  0  0  0  0  0  0  0  0
  -26.1708  -16.0329   20.1698 O   0  0  0  0  0  0  0  0  0  0  0  0
  -28.4202  -16.9717   22.7993 O   0  0  0  0  0  0  0  0  0  0  0  0
  -28.0402  -21.0671   24.5000 O   0  0  0  0  0  0  0  0  0  0  0  0
  -27.1285  -31.2779   19.5525 O   0  0  0  0  0  0  0  0  0  0  0  0
  -20.5651  -20.3295   20.7245 O   0  0  0  0  0  0  0  0  0  0  0  0
  -27.1577  -23.7988   19.1771 O   0  0  0  0  0  0  0  0  0  1  0  0
  -15.3860  -18.5793   21.4442 F   0  0  0  0  0  0  0  0  0  0  0  0
  -19.2300  -18.9843   18.7119 F   0  0  0  0  0  0  0  0  0  0  0  0
  1  2  1  0  0  0  0
  1  5  2  0  0  0  0
  2  6  2  0  0  0  0
  3  8  2  0  0  0  0
  3 16  1  0  0  0  0
  4  9  1  0  0  0  0
  4 16  2  0  0  0  0
  5 18  1  0  0  0  0
  6 20  1  0  0  0  0
  7 10  2  0  0  0  0
  7 19  1  0  0  0  0
  8 23  1  0  0  0  0
  9 23  2  0  0  0  0
 10 24  1  0  0  0  0
 11 12  2  0  0  0  0
 11 25  1  0  0  0  0
 12 26  1  0  0  0  0
 13 21  1  0  0  0  0
 13 24  2  0  0  0  0
 14 22  1  0  0  0  0
 14 29  2  0  0  0  0
 15 26  2  0  0  0  0
 15 27  1  0  0  0  0
 16 28  1  0  0  0  0
 17 28  1  0  0  0  0
 17 31  2  0  0  0  0
 17 32  1  0  0  0  0
 18 20  2  0  0  0  0
 18 37  1  0  0  0  0
 19 21  2  0  0  0  0
 19 38  1  0  0  0  0
 20 46  1  0  0  0  0
 21 39  1  0  0  0  0
 22 30  2  0  0  0  0
 22 58  1  0  0  0  0
 23 88  1  0  0  0  0
 24 89  1  0  0  0  0
 25 27  2  0  0  0  0
 25 88  1  0  0  0  0
 26 90  1  0  0  0  0
 27 91  1  0  0  0  0
 28 72  2  0  0  0  0
 29 59  1  0  0  0  0
 29 73  1  0  0  0  0
 30 49  1  0  0  0  0
 30 73  1  0  0  0  0
 31 74  1  0  0  0  0
 31 77  1  0  0  0  0
 32 78  1  0  0  0  0
 32 83  2  0  0  0  0
 33 47  1  0  0  0  0
 33 79  1  0  0  0  0
 33 84  2  0  0  0  0
 34 68  1  0  0  0  0
 34 75  1  0  0  0  0
 34 85  2  0  0  0  0
 35 69  1  0  0  0  0
 35 80  1  0  0  0  0
 35 86  2  0  0  0  0
 36 76  1  0  0  0  0
 36 81  1  0  0  0  0
 36 87  2  0  0  0  0
 37 40  1  0  0  0  0
 38 47  1  0  0  0  0
 39 75  1  0  0  0  0
 40 42  1  0  0  0  0
 41 43  1  0  0  0  0
 41 44  1  0  0  0  0
 42 46  1  0  0  0  0
 43 48  1  0  0  0  0
 44 76  1  0  0  0  0
 45 48  1  0  0  0  0
 45 76  1  0  0  0  0
 46 79  1  0  0  0  0
 47 75  1  0  0  0  0
 48 74  1  0  0  0  0
 50 60  1  0  0  0  0
 51 69  1  0  0  0  0
 52 70  1  0  0  0  0
 53 70  1  0  0  0  0
 54 71  1  0  0  0  0
 55 71  1  0  0  0  0
 56 71  1  0  0  0  0
 57 82  1  0  0  0  0
 58 61  1  0  0  0  0
 59 62  1  0  0  0  0
 60 65  1  0  0  0  0
 61 70  1  0  0  0  0
 62 63  1  0  0  0  0
 63 67  1  0  0  0  0
 64 66  1  0  0  0  0
 64 73  1  0  0  0  0
 65 81  1  0  0  0  0
 66 81  1  0  0  0  0
 67 89  1  0  0  0  0
 68 71  1  0  0  0  0
 68 80  1  0  0  0  0
 69 82  1  0  0  0  0
 72 74  1  0  0  0  0
M  CHG  1  82   1
M  ISO  4  36 100  67 101  81 100  89 101
M  END
> <Batch ID>
0090

> <Smiles>
CCC[100N:0](CCn1c(CCC[101CH2:1][101O:1]c2ccc3c(c2)CN(C(=O)C(NC(=O)C(C)NC)C(C)(C)C)C(C(=O)NC2CCCc4ccccc42)C3)cc(CCC(C)C)c1C)[100C:0](=O)N1CCCC(n2nc(-c3ccc(Oc4ccc(F)cc4F)cc3)c(C(N)=O)c2N)C1

> <Shape>
0.189

> <Color>
0.042

> <Negative vol penalty>
0.000

$$$$

  -OEChem-04052319093D

 90 98  0     1  0  0  0  0  0999 V2000
  -31.0655  -30.1513   24.8569 C   0  0  0  0  0  0  0  0  0  0  0  0
  -31.4043  -29.0108   24.1358 C   0  0  0  0  0  0  0  0  0  0  0  0
  -23.0378  -10.0139   19.7436 C   0  0  0  0  0  0  0  0  0  0  0  0
  -23.8925   -9.7049   21.9821 C   0  0  0  0  0  0  0  0  0  0  0  0
  -29.7244  -30.4657   25.0721 C   0  0  0  0  0  0  0  0  0  0  0  0
  -30.4021  -28.1835   23.6303 C   0  0  0  0  0  0  0  0  0  0  0  0
  -30.5264  -25.0366   18.3780 C   0  0  0  0  0  0  0  0  0  0  0  0
  -27.0933  -18.7154   20.4242 C   0  0  0  0  0  0  0  0  0  0  0  0
  -22.2920   -8.8417   19.8665 C   0  0  0  0  0  0  0  0  0  0  0  0
  -23.1466   -8.5326   22.1050 C   0  0  0  0  0  0  0  0  0  0  0  0
  -30.8162  -23.7036   18.0898 C   0  0  0  0  0  0  0  0  0  0  0  0
  -21.1880   -5.6504   23.1419 C   0  0  0  0  0  0  0  0  0  0  0  0
  -20.4806   -5.4523   24.3276 C   0  0  0  0  0  0  0  0  0  0  0  0
  -26.5198  -18.9873   21.6613 C   0  0  0  0  0  0  0  0  0  0  0  0
  -28.4599  -23.1886   18.1314 C   0  0  0  0  0  0  0  0  0  0  0  0
  -19.2288   -7.4780   23.9193 C   0  0  0  0  0  0  0  0  0  0  0  0
  -23.8382  -10.4455   20.8014 C   0  0  0  0  0  0  0  0  0  0  0  0
  -24.2034  -12.9616   21.0102 C   0  0  0  0  0  0  0  0  0  0  0  0
  -28.7051  -29.6470   24.5608 C   0  0  0  0  0  0  0  0  0  0  0  0
  -29.1996  -25.4541   18.5561 C   0  0  0  0  0  0  0  0  0  0  0  0
  -29.0460  -28.4866   23.8401 C   0  0  0  0  0  0  0  0  0  0  0  0
  -28.1558  -24.5279   18.4192 C   0  0  0  0  0  0  0  0  0  0  0  0
  -28.4385  -18.3717   20.3482 C   0  0  0  0  0  0  0  0  0  0  0  0
  -22.3463   -8.1010   21.0472 C   0  0  0  0  0  0  0  0  0  0  0  0
  -29.7831  -22.7789   17.9693 C   0  0  0  0  0  0  0  0  0  0  0  0
  -20.9158   -6.7624   22.3449 C   0  0  0  0  0  0  0  0  0  0  0  0
  -19.5010   -6.3660   24.7164 C   0  0  0  0  0  0  0  0  0  0  0  0
  -19.9362   -7.6761   22.7336 C   0  0  0  0  0  0  0  0  0  0  0  0
  -24.6093  -11.6560   20.6748 C   0  0  0  0  0  0  0  0  0  0  0  0
  -27.3280  -18.9024   22.7835 C   0  0  0  0  0  0  0  0  0  0  0  0
  -29.1608  -18.3146   21.5292 C   0  0  0  0  0  0  0  0  0  0  0  0
  -25.2879  -13.7473   20.7056 C   0  0  0  0  0  0  0  0  0  0  0  0
  -22.9574  -13.4228   21.5492 C   0  0  0  0  0  0  0  0  0  0  0  0
  -27.5499  -26.7197   20.9603 C   0  0  0  0  0  0  0  0  0  0  0  0
  -25.2147  -26.9543   18.7211 C   0  0  0  0  0  0  0  0  0  0  0  0
  -23.8933  -25.8258   15.7839 C   0  0  0  0  0  0  0  0  0  0  0  0
  -30.7860  -14.7005   20.7957 C   0  0  0  0  0  0  0  0  0  0  0  0
  -27.2701  -30.0023   24.8596 C   0  0  0  0  0  0  0  0  0  0  0  0
  -28.9020  -26.9008   18.8402 C   0  0  0  0  0  0  0  0  0  0  0  0
  -26.7132  -24.9294   18.5811 C   0  0  0  0  0  0  0  0  0  0  0  0
  -26.2647  -29.2754   23.9701 C   0  0  0  0  0  0  0  0  0  0  0  0
  -29.5231  -12.6690   18.1586 C   0  0  0  0  0  0  0  0  0  0  0  0
  -26.6047  -27.7909   23.8829 C   0  0  0  0  0  0  0  0  0  0  0  0
  -28.1016  -12.3272   18.6087 C   0  0  0  0  0  0  0  0  0  0  0  0
  -30.4918  -12.7194   19.3380 C   0  0  0  0  0  0  0  0  0  0  0  0
  -28.6578  -13.2659   20.8909 C   0  0  0  0  0  0  0  0  0  0  0  0
  -27.9872  -27.5776   23.2546 C   0  0  1  0  0  0  0  0  0  0  0  0
  -27.5476  -27.1119   19.5099 C   0  0  1  0  0  0  0  0  0  0  0  0
  -27.6336  -13.2584   19.7432 C   0  0  2  0  0  0  0  0  0  0  0  0
  -31.4999  -19.1000   22.0150 C   0  0  0  0  0  0  0  0  0  0  0  0
  -21.9585  -26.1864   14.2270 C   0  0  0  0  0  0  0  0  0  0  0  0
  -26.1838  -15.7337   27.0389 C   0  0  0  0  0  0  0  0  0  0  0  0
  -25.6986  -14.9426   24.7194 C   0  0  0  0  0  0  0  0  0  0  0  0
  -27.9421  -14.5147   25.7320 C   0  0  0  0  0  0  0  0  0  0  0  0
  -23.3840  -25.4646   20.6549 C   0  0  0  0  0  0  0  0  0  0  0  0
  -21.8340  -25.0242   18.7387 C   0  0  0  0  0  0  0  0  0  0  0  0
  -22.3001  -27.3693   19.4500 C   0  0  0  0  0  0  0  0  0  0  0  0
  -25.6818  -26.5799   13.5498 C   0  0  0  0  0  0  0  0  0  0  0  0
  -29.0664  -18.0770   19.0093 C   0  0  0  0  0  0  0  0  0  0  0  0
  -26.7449  -19.1861   24.1276 C   0  0  0  0  0  0  0  0  0  0  0  0
  -29.9405  -19.2138   18.4753 C   0  0  0  0  0  0  0  0  0  0  0  0
  -26.1745  -17.9219   24.7927 C   0  0  0  0  0  0  0  0  0  0  0  0
  -27.2664  -16.8711   25.0299 C   0  0  0  0  0  0  0  0  0  0  0  0
  -30.9277  -16.6626   22.3088 C   0  0  0  0  0  0  0  0  0  0  0  0
  -29.1621  -20.4945   18.1975 C   0  0  0  0  0  0  0  0  0  1  0  0
  -30.6085  -17.9478   21.5087 C   0  0  1  0  0  0  0  0  0  0  0  0
  -24.0959  -26.0593   18.2454 C   0  0  1  0  0  0  0  0  0  0  0  0
  -23.3950  -26.5634   14.5543 C   0  0  2  0  0  0  0  0  0  0  0  0
  -26.7881  -15.5266   25.6403 C   0  0  0  0  0  0  0  0  0  0  0  0
  -22.9307  -25.9711   19.2710 C   0  0  0  0  0  0  0  0  0  0  0  0
  -25.8545  -11.6108   20.1937 N   0  0  0  0  0  0  0  0  0  0  0  0
  -28.6384  -18.5719   22.7492 N   0  0  0  0  0  0  0  0  0  0  0  0
  -26.2403  -12.8978   20.2246 N   0  0  0  0  0  0  0  0  0  0  0  0
  -26.4737  -26.3541   18.8644 N   0  0  0  0  0  0  0  0  0  0  0  0
  -29.9903  -13.6210   20.3779 N   0  0  0  0  0  0  0  0  0  0  0  0
  -25.5102  -15.0752   20.8048 N   0  0  0  0  0  0  0  0  0  0  0  0
  -21.9501  -12.4819   21.8030 N   0  0  0  0  0  0  0  0  0  0  0  0
  -27.9197  -27.7382   21.8179 N   0  0  0  0  0  0  0  0  0  0  0  0
  -23.7008  -26.5617   16.9340 N   0  0  0  0  0  0  0  0  0  0  0  0
  -30.2330  -15.5096   21.7807 N   0  0  0  0  0  0  0  0  0  0  0  0
  -24.2465  -26.2388   13.3751 N   0  3  0  0  0  0  0  0  0  0  0  0
  -22.7377  -14.6355   21.7828 O   0  0  0  0  0  0  0  0  0  0  0  0
  -27.2378  -25.5781   21.2780 O   0  0  0  0  0  0  0  0  0  0  0  0
  -24.9817  -28.1438   18.9501 O   0  0  0  0  0  0  0  0  0  0  0  0
  -24.3990  -24.7069   15.7301 O   0  0  0  0  0  0  0  0  0  0  0  0
  -31.9040  -14.9296   20.3219 O   0  0  0  0  0  0  0  0  0  0  0  0
  -21.6184   -6.9573   21.1676 O   0  0  0  0  0  0  0  0  0  0  0  0
  -30.0632  -21.4771   17.6887 O   0  0  0  0  0  0  0  0  0  1  0  0
  -18.8208   -6.1748   25.8543 F   0  0  0  0  0  0  0  0  0  0  0  0
  -19.6695   -8.7456   21.9714 F   0  0  0  0  0  0  0  0  0  0  0  0
  1  2  1  0  0  0  0
  1  5  2  0  0  0  0
  2  6  2  0  0  0  0
  3  9  2  0  0  0  0
  3 17  1  0  0  0  0
  4 10  1  0  0  0  0
  4 17  2  0  0  0  0
  5 19  1  0  0  0  0
  6 21  1  0  0  0  0
  7 11  2  0  0  0  0
  7 20  1  0  0  0  0
  8 14  2  0  0  0  0
  8 23  1  0  0  0  0
  9 24  1  0  0  0  0
 10 24  2  0  0  0  0
 11 25  1  0  0  0  0
 12 13  2  0  0  0  0
 12 26  1  0  0  0  0
 13 27  1  0  0  0  0
 14 30  1  0  0  0  0
 15 22  1  0  0  0  0
 15 25  2  0  0  0  0
 16 27  2  0  0  0  0
 16 28  1  0  0  0  0
 17 29  1  0  0  0  0
 18 29  1  0  0  0  0
 18 32  2  0  0  0  0
 18 33  1  0  0  0  0
 19 21  2  0  0  0  0
 19 38  1  0  0  0  0
 20 22  2  0  0  0  0
 20 39  1  0  0  0  0
 21 47  1  0  0  0  0
 22 40  1  0  0  0  0
 23 31  2  0  0  0  0
 23 59  1  0  0  0  0
 24 87  1  0  0  0  0
 25 88  1  0  0  0  0
 26 28  2  0  0  0  0
 26 87  1  0  0  0  0
 27 89  1  0  0  0  0
 28 90  1  0  0  0  0
 29 71  2  0  0  0  0
 30 60  1  0  0  0  0
 30 72  2  0  0  0  0
 31 66  1  0  0  0  0
 31 72  1  0  0  0  0
 32 73  1  0  0  0  0
 32 76  1  0  0  0  0
 33 77  1  0  0  0  0
 33 82  2  0  0  0  0
 34 48  1  0  0  0  0
 34 78  1  0  0  0  0
 34 83  2  0  0  0  0
 35 67  1  0  0  0  0
 35 74  1  0  0  0  0
 35 84  2  0  0  0  0
 36 68  1  0  0  0  0
 36 79  1  0  0  0  0
 36 85  2  0  0  0  0
 37 75  1  0  0  0  0
 37 80  1  0  0  0  0
 37 86  2  0  0  0  0
 38 41  1  0  0  0  0
 39 48  1  0  0  0  0
 40 74  1  0  0  0  0
 41 43  1  0  0  0  0
 42 44  1  0  0  0  0
 42 45  1  0  0  0  0
 43 47  1  0  0  0  0
 44 49  1  0  0  0  0
 45 75  1  0  0  0  0
 46 49  1  0  0  0  0
 46 75  1  0  0  0  0
 47 78  1  0  0  0  0
 48 74  1  0  0  0  0
 49 73  1  0  0  0  0
 50 66  1  0  0  0  0
 51 68  1  0  0  0  0
 52 69  1  0  0  0  0
 53 69  1  0  0  0  0
 54 69  1  0  0  0  0
 55 70  1  0  0  0  0
 56 70  1  0  0  0  0
 57 70  1  0  0  0  0
 58 81  1  0  0  0  0
 59 61  1  0  0  0  0
 60 62  1  0  0  0  0
 61 65  1  0  0  0  0
 62 63  1  0  0  0  0
 63 69  1  0  0  0  0
 64 66  1  0  0  0  0
 64 80  1  0  0  0  0
 65 88  1  0  0  0  0
 67 70  1  0  0  0  0
 67 79  1  0  0  0  0
 68 81  1  0  0  0  0
 71 73  1  0  0  0  0
M  CHG  1  81   1
M  ISO  4  37 100  65 101  80 100  88 101
M  END
> <Batch ID>
0090

> <Smiles>
CNC(C)C(=O)NC(C(=O)N1Cc2cc([101O:1][101CH2:1]CCc3ccc(CCCC(C)(C)C)nc3C(C)C[100NH:0][100C:0](=O)N3CCCC(n4nc(-c5ccc(Oc6ccc(F)cc6F)cc5)c(C(N)=O)c4N)C3)ccc2CC1C(=O)NC1CCCc2ccccc21)C(C)(C)C

> <Shape>
0.289

> <Color>
0.167

> <Negative vol penalty>
0.000

$$$$

  -OEChem-04052319093D

 91 99  0     1  0  0  0  0  0999 V2000
  -18.9466  -26.3219   23.1438 C   0  0  0  0  0  0  0  0  0  0  0  0
  -19.7561  -25.3995   22.4885 C   0  0  0  0  0  0  0  0  0  0  0  0
  -21.9950  -18.0608   19.6230 C   0  0  0  0  0  0  0  0  0  0  0  0
  -22.4602  -16.6183   17.7415 C   0  0  0  0  0  0  0  0  0  0  0  0
  -19.1687  -27.6877   22.9731 C   0  0  0  0  0  0  0  0  0  0  0  0
  -20.7875  -25.8425   21.6612 C   0  0  0  0  0  0  0  0  0  0  0  0
  -25.1018  -23.2963   22.4017 C   0  0  0  0  0  0  0  0  0  0  0  0
  -21.7643  -19.1243   18.7505 C   0  0  0  0  0  0  0  0  0  0  0  0
  -22.2295  -17.6819   16.8690 C   0  0  0  0  0  0  0  0  0  0  0  0
  -25.1985  -22.0279   21.8310 C   0  0  0  0  0  0  0  0  0  0  0  0
  -23.6062  -21.3152   16.9528 C   0  0  0  0  0  0  0  0  0  0  0  0
  -24.1768  -22.5479   17.2697 C   0  0  0  0  0  0  0  0  0  0  0  0
  -26.4877  -22.9508   20.0129 C   0  0  0  0  0  0  0  0  0  0  0  0
  -29.7428  -16.9505   21.0954 C   0  0  0  0  0  0  0  0  0  0  0  0
  -21.9774  -23.5445   17.3531 C   0  0  0  0  0  0  0  0  0  0  0  0
  -30.1438  -15.9579   18.5855 C   0  0  0  0  0  0  0  0  0  0  0  0
  -22.3430  -16.8077   19.1184 C   0  0  0  0  0  0  0  0  0  0  0  0
  -21.6378  -14.7805   20.4971 C   0  0  0  0  0  0  0  0  0  0  0  0
  -20.2094  -28.1476   22.1509 C   0  0  0  0  0  0  0  0  0  0  0  0
  -25.6890  -24.4051   21.7756 C   0  0  0  0  0  0  0  0  0  0  0  0
  -21.0228  -27.2158   21.4782 C   0  0  0  0  0  0  0  0  0  0  0  0
  -26.3992  -24.2318   20.5790 C   0  0  0  0  0  0  0  0  0  0  0  0
  -30.5710  -15.8471   20.9226 C   0  0  0  0  0  0  0  0  0  0  0  0
  -30.7806  -15.3352   19.6469 C   0  0  0  0  0  0  0  0  0  0  0  0
  -21.8815  -18.9349   17.3736 C   0  0  0  0  0  0  0  0  0  0  0  0
  -25.8891  -21.8555   20.6350 C   0  0  0  0  0  0  0  0  0  0  0  0
  -22.2212  -21.1972   16.8359 C   0  0  0  0  0  0  0  0  0  0  0  0
  -23.3624  -23.6626   17.4699 C   0  0  0  0  0  0  0  0  0  0  0  0
  -21.4069  -22.3118   17.0361 C   0  0  0  0  0  0  0  0  0  0  0  0
  -22.5821  -15.7088   20.0192 C   0  0  0  0  0  0  0  0  0  0  0  0
  -29.1526  -17.5011   19.9692 C   0  0  0  0  0  0  0  0  0  0  0  0
  -22.3601  -13.9459   21.3145 C   0  0  0  0  0  0  0  0  0  0  0  0
  -20.2333  -14.6815   20.2264 C   0  0  0  0  0  0  0  0  0  0  0  0
  -24.5979  -27.1271   20.5491 C   0  0  0  0  0  0  0  0  0  0  0  0
  -27.7559  -27.7893   20.2156 C   0  0  0  0  0  0  0  0  0  0  0  0
  -30.9465  -26.6155   19.9171 C   0  0  0  0  0  0  0  0  0  0  0  0
  -28.1541  -12.4498   21.5183 C   0  0  0  0  0  0  0  0  0  0  0  0
  -20.3809  -29.6338   21.9599 C   0  0  0  0  0  0  0  0  0  0  0  0
  -25.5984  -25.7622   22.4178 C   0  0  0  0  0  0  0  0  0  0  0  0
  -27.0648  -25.3864   19.8775 C   0  0  0  0  0  0  0  0  0  0  0  0
  -21.7313  -30.0192   21.3615 C   0  0  0  0  0  0  0  0  0  0  0  0
  -26.2219  -13.8915   24.1383 C   0  0  0  0  0  0  0  0  0  0  0  0
  -22.0608  -29.1272   20.1688 C   0  0  0  0  0  0  0  0  0  0  0  0
  -24.9848  -14.4370   23.4229 C   0  0  0  0  0  0  0  0  0  0  0  0
  -27.4805  -14.0474   23.2875 C   0  0  0  0  0  0  0  0  0  0  0  0
  -26.1476  -14.0240   21.2147 C   0  0  0  0  0  0  0  0  0  0  0  0
  -22.1673  -27.6572   20.5920 C   0  0  1  0  0  0  0  0  0  0  0  0
  -25.7964  -26.9061   21.4280 C   0  0  1  0  0  0  0  0  0  0  0  0
  -24.8443  -13.8382   22.0104 C   0  0  2  0  0  0  0  0  0  0  0  0
  -32.4157  -16.0481   22.6088 C   0  0  0  0  0  0  0  0  0  0  0  0
  -33.2898  -14.5470   17.7024 C   0  0  0  0  0  0  0  0  0  0  0  0
  -33.3131  -27.3961   19.6219 C   0  0  0  0  0  0  0  0  0  0  0  0
  -26.1329  -17.9102   19.0124 C   0  0  0  0  0  0  0  0  0  0  0  0
  -28.3793  -11.2159   17.1744 C   0  0  0  0  0  0  0  0  0  0  0  0
  -27.1966  -28.3634   17.2715 C   0  0  0  0  0  0  0  0  0  0  0  0
  -29.6580  -28.1994   16.8439 C   0  0  0  0  0  0  0  0  0  0  0  0
  -28.7733  -29.9668   18.3659 C   0  0  0  0  0  0  0  0  0  0  0  0
  -31.7892  -25.4021   22.4816 C   0  0  0  0  0  0  0  0  0  0  0  0
  -31.2224  -15.2336   22.1184 C   0  0  0  0  0  0  0  0  0  0  0  0
  -28.2460  -18.6985   20.1191 C   0  0  0  0  0  0  0  0  0  0  0  0
  -30.0028  -12.7140   18.3772 C   0  0  0  0  0  0  0  0  0  0  0  0
  -33.0263  -14.3963   19.1620 C   0  0  0  0  0  0  0  0  0  0  0  0
  -31.0647  -12.8764   19.4630 C   0  0  0  0  0  0  0  0  0  0  0  0
  -28.6969  -10.8953   19.6613 C   0  0  0  0  0  0  0  0  0  0  0  0
  -25.9797  -19.5019   20.9637 C   0  0  0  0  0  0  0  0  0  1  0  0
  -28.7885  -27.5596   19.1386 C   0  0  1  0  0  0  0  0  0  0  0  0
  -32.2337  -27.0071   20.6201 C   0  0  2  0  0  0  0  0  0  0  0  0
  -26.7642  -18.3367   20.3439 C   0  0  1  0  0  0  0  0  0  0  0  0
  -29.3674  -11.3098   18.3427 C   0  0  1  0  0  0  0  0  0  0  0  0
  -28.5900  -28.5007   17.9170 C   0  0  0  0  0  0  0  0  0  0  0  0
  -29.3323  -17.0315   18.7142 N   0  0  0  0  0  0  0  0  0  0  0  0
  -23.8105  -15.4853   20.4936 N   0  0  0  0  0  0  0  0  0  0  0  0
  -23.6430  -14.4072   21.2782 N   0  0  0  0  0  0  0  0  0  0  0  0
  -26.9427  -26.6946   20.5418 N   0  0  0  0  0  0  0  0  0  0  0  0
  -27.2817  -13.4575   21.9615 N   0  0  0  0  0  0  0  0  0  0  0  0
  -22.0165  -12.8698   22.0537 N   0  0  0  0  0  0  0  0  0  0  0  0
  -19.6514  -15.6204   19.3637 N   0  0  0  0  0  0  0  0  0  0  0  0
  -23.4362  -27.4090   21.2422 N   0  0  0  0  0  0  0  0  0  0  0  0
  -30.0894  -27.6876   19.7864 N   0  0  0  0  0  0  0  0  0  0  0  0
  -27.8913  -11.9405   20.2524 N   0  0  0  0  0  0  0  0  0  0  0  0
  -31.6093  -14.2213   19.4231 N   0  0  3  0  0  0  0  0  0  0  0  0
  -32.7409  -25.8722   21.4422 N   0  3  0  0  0  0  0  0  0  0  0  0
  -19.5124  -13.7969   20.7473 O   0  0  0  0  0  0  0  0  0  0  0  0
  -24.7186  -27.0491   19.3321 O   0  0  0  0  0  0  0  0  0  0  0  0
  -27.6786  -28.8969   20.7529 O   0  0  0  0  0  0  0  0  0  0  0  0
  -30.7251  -25.4736   19.5202 O   0  0  0  0  0  0  0  0  0  0  0  0
  -29.0941  -12.0310   22.2023 O   0  0  0  0  0  0  0  0  0  0  0  0
  -21.6562  -19.9725   16.5220 O   0  0  0  0  0  0  0  0  0  0  0  0
  -25.9845  -20.6187   20.0755 O   0  0  0  0  0  0  0  0  0  1  0  0
  -23.9104  -24.8459   17.7758 F   0  0  0  0  0  0  0  0  0  0  0  0
  -20.0756  -22.2043   16.9263 F   0  0  0  0  0  0  0  0  0  0  0  0
  1  2  1  0  0  0  0
  1  5  2  0  0  0  0
  2  6  2  0  0  0  0
  3  8  2  0  0  0  0
  3 17  1  0  0  0  0
  4  9  1  0  0  0  0
  4 17  2  0  0  0  0
  5 19  1  0  0  0  0
  6 21  1  0  0  0  0
  7 10  2  0  0  0  0
  7 20  1  0  0  0  0
  8 25  1  0  0  0  0
  9 25  2  0  0  0  0
 10 26  1  0  0  0  0
 11 12  2  0  0  0  0
 11 27  1  0  0  0  0
 12 28  1  0  0  0  0
 13 22  1  0  0  0  0
 13 26  2  0  0  0  0
 14 23  1  0  0  0  0
 14 31  2  0  0  0  0
 15 28  2  0  0  0  0
 15 29  1  0  0  0  0
 16 24  1  0  0  0  0
 16 71  2  0  0  0  0
 17 30  1  0  0  0  0
 18 30  1  0  0  0  0
 18 32  2  0  0  0  0
 18 33  1  0  0  0  0
 19 21  2  0  0  0  0
 19 38  1  0  0  0  0
 20 22  2  0  0  0  0
 20 39  1  0  0  0  0
 21 47  1  0  0  0  0
 22 40  1  0  0  0  0
 23 24  2  0  0  0  0
 23 59  1  0  0  0  0
 24 81  1  0  0  0  0
 25 88  1  0  0  0  0
 26 89  1  0  0  0  0
 27 29  2  0  0  0  0
 27 88  1  0  0  0  0
 28 90  1  0  0  0  0
 29 91  1  0  0  0  0
 30 72  2  0  0  0  0
 31 60  1  0  0  0  0
 31 71  1  0  0  0  0
 32 73  1  0  0  0  0
 32 76  1  0  0  0  0
 33 77  1  0  0  0  0
 33 83  2  0  0  0  0
 34 48  1  0  0  0  0
 34 78  1  0  0  0  0
 34 84  2  0  0  0  0
 35 66  1  0  0  0  0
 35 74  1  0  0  0  0
 35 85  2  0  0  0  0
 36 67  1  0  0  0  0
 36 79  1  0  0  0  0
 36 86  2  0  0  0  0
 37 75  1  0  0  0  0
 37 80  1  0  0  0  0
 37 87  2  0  0  0  0
 38 41  1  0  0  0  0
 39 48  1  0  0  0  0
 40 74  1  0  0  0  0
 41 43  1  0  0  0  0
 42 44  1  0  0  0  0
 42 45  1  0  0  0  0
 43 47  1  0  0  0  0
 44 49  1  0  0  0  0
 45 75  1  0  0  0  0
 46 49  1  0  0  0  0
 46 75  1  0  0  0  0
 47 78  1  0  0  0  0
 48 74  1  0  0  0  0
 49 73  1  0  0  0  0
 50 59  1  0  0  0  0
 51 62  1  0  0  0  0
 52 67  1  0  0  0  0
 53 68  1  0  0  0  0
 54 69  1  0  0  0  0
 55 70  1  0  0  0  0
 56 70  1  0  0  0  0
 57 70  1  0  0  0  0
 58 82  1  0  0  0  0
 60 68  1  0  0  0  0
 61 63  1  0  0  0  0
 61 69  1  0  0  0  0
 62 81  1  0  0  0  0
 63 81  1  0  0  0  0
 64 69  1  0  0  0  0
 64 80  1  0  0  0  0
 65 68  1  0  0  0  0
 65 89  1  0  0  0  0
 66 70  1  0  0  0  0
 66 79  1  0  0  0  0
 67 82  1  0  0  0  0
 72 73  1  0  0  0  0
M  CHG  1  82   1
M  ISO  4  37 100  65 101  80 100  89 101
M  END
> <Batch ID>
0090

> <Smiles>
CCc1cc(CC(C)[101CH2:1][101O:1]c2ccc3c(c2)CN(C(=O)C(NC(=O)C(C)NC)C(C)(C)C)C(C(=O)NC2CCCc4ccccc42)C3)ncc1N(CC)CCC(C)C[100NH:0][100C:0](=O)N1CCCC(n2nc(-c3ccc(Oc4ccc(F)cc4F)cc3)c(C(N)=O)c2N)C1

> <Shape>
0.218

> <Color>
0.044

> <Negative vol penalty>
0.000

$$$$

  -OEChem-04052319093D

 86 94  0     1  0  0  0  0  0999 V2000
  -32.4371  -24.8757   18.7743 C   0  0  0  0  0  0  0  0  0  0  0  0
  -31.0859  -25.0969   18.5332 C   0  0  0  0  0  0  0  0  0  0  0  0
  -27.6651  -14.3324   18.6836 C   0  0  0  0  0  0  0  0  0  0  0  0
  -25.6309  -15.2643   19.5952 C   0  0  0  0  0  0  0  0  0  0  0  0
  -32.9864  -25.2188   20.0079 C   0  0  0  0  0  0  0  0  0  0  0  0
  -30.2861  -25.6723   19.5212 C   0  0  0  0  0  0  0  0  0  0  0  0
  -24.2905  -26.7530   19.6324 C   0  0  0  0  0  0  0  0  0  0  0  0
  -27.3668  -13.1042   19.2735 C   0  0  0  0  0  0  0  0  0  0  0  0
  -25.3326  -14.0360   20.1850 C   0  0  0  0  0  0  0  0  0  0  0  0
  -23.1341  -26.0965   20.0515 C   0  0  0  0  0  0  0  0  0  0  0  0
  -24.0650  -11.0548   19.2225 C   0  0  0  0  0  0  0  0  0  0  0  0
  -22.7583  -10.5814   19.1048 C   0  0  0  0  0  0  0  0  0  0  0  0
  -23.2085  -27.3088   22.1357 C   0  0  0  0  0  0  0  0  0  0  0  0
  -22.5450  -10.5720   21.5114 C   0  0  0  0  0  0  0  0  0  0  0  0
  -23.6461  -23.0826   23.9046 C   0  0  0  0  0  0  0  0  0  0  0  0
  -22.6028  -21.3947   22.8668 C   0  0  0  0  0  0  0  0  0  0  0  0
  -26.7972  -15.4125   18.8445 C   0  0  0  0  0  0  0  0  0  0  0  0
  -26.7311  -17.1218   16.9520 C   0  0  0  0  0  0  0  0  0  0  0  0
  -32.1895  -25.7871   21.0154 C   0  0  0  0  0  0  0  0  0  0  0  0
  -24.9217  -27.6859   20.4677 C   0  0  0  0  0  0  0  0  0  0  0  0
  -30.8270  -26.0475   20.7642 C   0  0  0  0  0  0  0  0  0  0  0  0
  -24.3713  -27.9776   21.7239 C   0  0  0  0  0  0  0  0  0  0  0  0
  -24.5960  -22.1282   23.6145 C   0  0  0  0  0  0  0  0  0  0  0  0
  -23.9359  -21.0603   22.9580 C   0  0  0  0  0  0  0  0  0  0  0  0
  -26.2006  -12.9559   20.0242 C   0  0  0  0  0  0  0  0  0  0  0  0
  -22.5945  -26.3722   21.3044 C   0  0  0  0  0  0  0  0  0  0  0  0
  -24.6118  -11.2867   20.4846 C   0  0  0  0  0  0  0  0  0  0  0  0
  -21.9982  -10.3401   20.2493 C   0  0  0  0  0  0  0  0  0  0  0  0
  -23.8518  -11.0454   21.6290 C   0  0  0  0  0  0  0  0  0  0  0  0
  -27.1051  -16.6817   18.2358 C   0  0  0  0  0  0  0  0  0  0  0  0
  -27.2639  -18.3839   16.8530 C   0  0  0  0  0  0  0  0  0  0  0  0
  -25.9702  -16.4499   15.9395 C   0  0  0  0  0  0  0  0  0  0  0  0
  -27.7779  -27.8893   21.8478 C   0  0  0  0  0  0  0  0  0  0  0  0
  -26.7187  -30.8309   22.7121 C   0  0  0  0  0  0  0  0  0  0  0  0
  -24.0679  -32.8920   23.3220 C   0  0  0  0  0  0  0  0  0  0  0  0
  -28.7785  -22.5016   20.9275 C   0  0  0  0  0  0  0  0  0  0  0  0
  -32.8373  -26.1465   22.3293 C   0  0  0  0  0  0  0  0  0  0  0  0
  -26.1534  -28.4051   19.9901 C   0  0  0  0  0  0  0  0  0  0  0  0
  -24.9993  -28.9856   22.6502 C   0  0  0  0  0  0  0  0  0  0  0  0
  -31.8285  -26.3354   23.4575 C   0  0  0  0  0  0  0  0  0  0  0  0
  -30.8961  -21.0517   18.4596 C   0  0  0  0  0  0  0  0  0  0  0  0
  -30.7089  -27.2604   23.0043 C   0  0  0  0  0  0  0  0  0  0  0  0
  -30.1309  -19.8070   18.0066 C   0  0  0  0  0  0  0  0  0  0  0  0
  -30.7198  -21.3095   19.9544 C   0  0  0  0  0  0  0  0  0  0  0  0
  -28.5536  -20.1343   19.9569 C   0  0  0  0  0  0  0  0  0  0  0  0
  -29.9310  -26.6439   21.8347 C   0  0  1  0  0  0  0  0  0  0  0  0
  -27.0025  -28.9579   21.1307 C   0  0  1  0  0  0  0  0  0  0  0  0
  -28.6554  -19.8651   18.4458 C   0  0  2  0  0  0  0  0  0  0  0  0
  -24.4273  -19.6506   20.9271 C   0  0  0  0  0  0  0  0  0  0  0  0
  -23.9987  -18.5479   23.1531 C   0  0  0  0  0  0  0  0  0  0  0  0
  -23.5168  -35.2298   24.0491 C   0  0  0  0  0  0  0  0  0  0  0  0
  -19.0587  -24.2505   22.4501 C   0  0  0  0  0  0  0  0  0  0  0  0
  -27.4044  -30.0941   25.5925 C   0  0  0  0  0  0  0  0  0  0  0  0
  -25.9898  -32.0168   26.3476 C   0  0  0  0  0  0  0  0  0  0  0  0
  -28.0082  -32.4321   24.9418 C   0  0  0  0  0  0  0  0  0  0  0  0
  -22.6763  -33.4796   20.7770 C   0  0  0  0  0  0  0  0  0  0  0  0
  -26.0351  -22.2142   23.9328 C   0  0  0  0  0  0  0  0  0  0  0  0
  -26.7528  -23.4683   23.3782 C   0  0  0  0  0  0  0  0  0  0  0  0
  -21.1283  -23.3671   23.5572 C   0  0  0  0  0  0  0  0  0  0  0  0
  -26.7398  -23.5709   21.8545 C   0  0  0  0  0  0  0  0  0  0  0  0
  -21.2475  -24.4143   21.2152 C   0  0  0  0  0  0  0  0  0  1  0  0
  -24.5515  -19.8146   22.4596 C   0  0  0  0  0  0  0  0  0  0  0  0
  -25.9586  -31.3899   23.8906 C   0  0  1  0  0  0  0  0  0  0  0  0
  -23.7673  -34.3083   22.8656 C   0  0  2  0  0  0  0  0  0  0  0  0
  -20.4167  -23.5827   22.2042 C   0  0  2  0  0  0  0  0  0  0  0  0
  -26.8292  -31.4627   25.1767 C   0  0  0  0  0  0  0  0  0  0  0  0
  -27.8203  -17.5903   18.9044 N   0  0  0  0  0  0  0  0  0  0  0  0
  -22.4383  -22.6262   23.4452 N   0  0  0  0  0  0  0  0  0  0  0  0
  -27.9001  -18.6139   18.0373 N   0  0  0  0  0  0  0  0  0  0  0  0
  -26.2059  -29.6579   22.1405 N   0  0  0  0  0  0  0  0  0  0  0  0
  -29.2982  -21.3547   20.3050 N   0  0  0  0  0  0  0  0  0  0  0  0
  -27.2456  -19.3082   15.8692 N   0  0  0  0  0  0  0  0  0  0  0  0
  -25.4983  -15.1574   16.2058 N   0  0  0  0  0  0  0  0  0  0  0  0
  -29.0204  -27.6324   21.3003 N   0  0  0  0  0  0  0  0  0  0  0  0
  -25.4230  -32.6761   23.4579 N   0  0  0  0  0  0  0  0  0  0  0  0
  -27.4206  -22.4643   21.2199 N   0  0  0  0  0  0  0  0  0  0  0  0
  -22.5596  -34.3257   21.9926 N   0  3  0  0  0  0  0  0  0  0  0  0
  -25.7302  -16.9737   14.8252 O   0  0  0  0  0  0  0  0  0  0  0  0
  -27.2860  -27.3395   22.8263 O   0  0  0  0  0  0  0  0  0  0  0  0
  -27.7262  -31.4176   22.3090 O   0  0  0  0  0  0  0  0  0  0  0  0
  -23.1885  -32.0616   23.5401 O   0  0  0  0  0  0  0  0  0  0  0  0
  -29.4721  -23.4879   21.1976 O   0  0  0  0  0  0  0  0  0  0  0  0
  -25.9091  -11.7575   20.5998 O   0  0  0  0  0  0  0  0  0  0  0  0
  -21.4663  -25.7324   21.7162 O   0  0  0  0  0  0  0  0  0  1  0  0
  -20.7428   -9.8870   20.1361 F   0  0  0  0  0  0  0  0  0  0  0  0
  -24.3713  -11.2674   22.8442 F   0  0  0  0  0  0  0  0  0  0  0  0
  1  2  1  0  0  0  0
  1  5  2  0  0  0  0
  2  6  2  0  0  0  0
  3  8  2  0  0  0  0
  3 17  1  0  0  0  0
  4  9  1  0  0  0  0
  4 17  2  0  0  0  0
  5 19  1  0  0  0  0
  6 21  1  0  0  0  0
  7 10  2  0  0  0  0
  7 20  1  0  0  0  0
  8 25  1  0  0  0  0
  9 25  2  0  0  0  0
 10 26  1  0  0  0  0
 11 12  2  0  0  0  0
 11 27  1  0  0  0  0
 12 28  1  0  0  0  0
 13 22  1  0  0  0  0
 13 26  2  0  0  0  0
 14 28  2  0  0  0  0
 14 29  1  0  0  0  0
 15 23  2  0  0  0  0
 15 68  1  0  0  0  0
 16 24  2  0  0  0  0
 16 68  1  0  0  0  0
 17 30  1  0  0  0  0
 18 30  1  0  0  0  0
 18 31  2  0  0  0  0
 18 32  1  0  0  0  0
 19 21  2  0  0  0  0
 19 37  1  0  0  0  0
 20 22  2  0  0  0  0
 20 38  1  0  0  0  0
 21 46  1  0  0  0  0
 22 39  1  0  0  0  0
 23 24  1  0  0  0  0
 23 57  1  0  0  0  0
 24 62  1  0  0  0  0
 25 83  1  0  0  0  0
 26 84  1  0  0  0  0
 27 29  2  0  0  0  0
 27 83  1  0  0  0  0
 28 85  1  0  0  0  0
 29 86  1  0  0  0  0
 30 67  2  0  0  0  0
 31 69  1  0  0  0  0
 31 72  1  0  0  0  0
 32 73  1  0  0  0  0
 32 78  2  0  0  0  0
 33 47  1  0  0  0  0
 33 74  1  0  0  0  0
 33 79  2  0  0  0  0
 34 63  1  0  0  0  0
 34 70  1  0  0  0  0
 34 80  2  0  0  0  0
 35 64  1  0  0  0  0
 35 75  1  0  0  0  0
 35 81  2  0  0  0  0
 36 71  1  0  0  0  0
 36 76  1  0  0  0  0
 36 82  2  0  0  0  0
 37 40  1  0  0  0  0
 38 47  1  0  0  0  0
 39 70  1  0  0  0  0
 40 42  1  0  0  0  0
 41 43  1  0  0  0  0
 41 44  1  0  0  0  0
 42 46  1  0  0  0  0
 43 48  1  0  0  0  0
 44 71  1  0  0  0  0
 45 48  1  0  0  0  0
 45 71  1  0  0  0  0
 46 74  1  0  0  0  0
 47 70  1  0  0  0  0
 48 69  1  0  0  0  0
 49 62  1  0  0  0  0
 50 62  1  0  0  0  0
 51 64  1  0  0  0  0
 52 65  1  0  0  0  0
 53 66  1  0  0  0  0
 54 66  1  0  0  0  0
 55 66  1  0  0  0  0
 56 77  1  0  0  0  0
 57 58  1  0  0  0  0
 58 60  1  0  0  0  0
 59 65  1  0  0  0  0
 59 68  1  0  0  0  0
 60 76  1  0  0  0  0
 61 65  1  0  0  0  0
 61 84  1  0  0  0  0
 63 66  1  0  0  0  0
 63 75  1  0  0  0  0
 64 77  1  0  0  0  0
 67 69  1  0  0  0  0
M  CHG  1  77   1
M  ISO  4  36 100  61 101  76 100  84 101
M  END
> <Batch ID>
0090

> <Smiles>
CNC(C)C(=O)NC(C(=O)N1Cc2cc([101O:1][101CH2:1]C(C)Cn3cc(CCC[100NH:0][100C:0](=O)N4CCCC(n5nc(-c6ccc(Oc7ccc(F)cc7F)cc6)c(C(N)=O)c5N)C4)c(C(C)C)c3)ccc2CC1C(=O)NC1CCCc2ccccc21)C(C)(C)C

> <Shape>
0.240

> <Color>
0.057

> <Negative vol penalty>
0.000

$$$$

  -OEChem-04052319093D

 86 94  0     1  0  0  0  0  0999 V2000
  -21.7350  -12.5944   19.1050 C   0  0  0  0  0  0  0  0  0  0  0  0
  -21.7495  -13.9664   19.3351 C   0  0  0  0  0  0  0  0  0  0  0  0
  -29.0786  -25.5730   18.8195 C   0  0  0  0  0  0  0  0  0  0  0  0
  -29.9965  -26.2807   20.9393 C   0  0  0  0  0  0  0  0  0  0  0  0
  -22.8082  -11.8076   19.5210 C   0  0  0  0  0  0  0  0  0  0  0  0
  -22.8368  -14.5522   19.9824 C   0  0  0  0  0  0  0  0  0  0  0  0
  -24.3729  -18.8179   17.7264 C   0  0  0  0  0  0  0  0  0  0  0  0
  -30.3661  -25.3200   18.3464 C   0  0  0  0  0  0  0  0  0  0  0  0
  -31.2841  -26.0276   20.4662 C   0  0  0  0  0  0  0  0  0  0  0  0
  -23.6220  -19.9687   17.9619 C   0  0  0  0  0  0  0  0  0  0  0  0
  -33.4346  -24.8289   16.4578 C   0  0  0  0  0  0  0  0  0  0  0  0
  -33.7549  -25.2737   15.1752 C   0  0  0  0  0  0  0  0  0  0  0  0
  -25.2449  -20.6860   19.5962 C   0  0  0  0  0  0  0  0  0  0  0  0
  -33.2908  -27.5473   15.8477 C   0  0  0  0  0  0  0  0  0  0  0  0
  -20.0569  -25.3378   22.6368 C   0  0  0  0  0  0  0  0  0  0  0  0
  -28.8938  -26.0534   20.1159 C   0  0  0  0  0  0  0  0  0  0  0  0
  -26.7119  -25.4167   21.2742 C   0  0  0  0  0  0  0  0  0  0  0  0
  -23.9136  -12.3854   20.1651 C   0  0  0  0  0  0  0  0  0  0  0  0
  -25.5619  -18.5868   18.4332 C   0  0  0  0  0  0  0  0  0  0  0  0
  -23.9253  -13.7721   20.4086 C   0  0  0  0  0  0  0  0  0  0  0  0
  -26.0104  -19.5327   19.3660 C   0  0  0  0  0  0  0  0  0  0  0  0
  -31.4689  -25.5473   19.1698 C   0  0  0  0  0  0  0  0  0  0  0  0
  -24.0564  -20.9016   18.8990 C   0  0  0  0  0  0  0  0  0  0  0  0
  -33.0423  -25.7434   17.4354 C   0  0  0  0  0  0  0  0  0  0  0  0
  -33.6831  -26.6329   14.8701 C   0  0  0  0  0  0  0  0  0  0  0  0
  -32.9705  -27.1026   17.1303 C   0  0  0  0  0  0  0  0  0  0  0  0
  -27.5640  -26.3155   20.6050 C   0  0  0  0  0  0  0  0  0  0  0  0
  -20.4405  -25.8337   21.3763 C   0  0  0  0  0  0  0  0  0  0  0  0
  -20.2513  -26.3928   23.4945 C   0  0  0  0  0  0  0  0  0  0  0  0
  -25.5742  -26.1442   21.5250 C   0  0  0  0  0  0  0  0  0  0  0  0
  -26.9293  -24.0467   21.6369 C   0  0  0  0  0  0  0  0  0  0  0  0
  -26.5725  -16.3496   20.4524 C   0  0  0  0  0  0  0  0  0  0  0  0
  -29.3877  -17.9403   20.1947 C   0  0  0  0  0  0  0  0  0  0  0  0
  -31.0136  -20.8561   19.4865 C   0  0  0  0  0  0  0  0  0  0  0  0
  -23.4960  -31.0685   23.4614 C   0  0  0  0  0  0  0  0  0  0  0  0
  -25.0289  -11.4875   20.6387 C   0  0  0  0  0  0  0  0  0  0  0  0
  -26.3743  -17.3534   18.1483 C   0  0  0  0  0  0  0  0  0  0  0  0
  -27.2904  -19.3415   20.1365 C   0  0  0  0  0  0  0  0  0  0  0  0
  -26.3118  -12.2396   20.9832 C   0  0  0  0  0  0  0  0  0  0  0  0
  -24.0959  -30.6653   19.8311 C   0  0  0  0  0  0  0  0  0  0  0  0
  -25.9999  -13.4632   21.8390 C   0  0  0  0  0  0  0  0  0  0  0  0
  -25.0397  -29.4651   19.7807 C   0  0  0  0  0  0  0  0  0  0  0  0
  -24.2357  -31.4424   21.1366 C   0  0  0  0  0  0  0  0  0  0  0  0
  -25.0106  -29.4061   22.3059 C   0  0  0  0  0  0  0  0  0  0  0  0
  -25.0979  -14.4481   21.0854 C   0  0  1  0  0  0  0  0  0  0  0  0
  -27.3035  -16.9716   19.2964 C   0  0  1  0  0  0  0  0  0  0  0  0
  -24.8617  -28.5747   21.0228 C   0  0  2  0  0  0  0  0  0  0  0  0
  -20.9194  -25.5468   25.7730 C   0  0  0  0  0  0  0  0  0  0  0  0
  -18.5560  -26.3197   25.3585 C   0  0  0  0  0  0  0  0  0  0  0  0
  -33.3124  -21.8588   19.3999 C   0  0  0  0  0  0  0  0  0  0  0  0
  -29.4217  -18.1194   23.2405 C   0  0  0  0  0  0  0  0  0  0  0  0
  -31.1709  -19.9001   23.0467 C   0  0  0  0  0  0  0  0  0  0  0  0
  -31.6363  -17.5998   22.2013 C   0  0  0  0  0  0  0  0  0  0  0  0
  -22.1422  -30.6302   25.4750 C   0  0  0  0  0  0  0  0  0  0  0  0
  -30.7796  -21.4319   16.5930 C   0  0  0  0  0  0  0  0  0  0  0  0
  -20.4344  -25.0993   20.0593 C   0  0  0  0  0  0  0  0  0  0  0  0
  -21.7459  -24.3681   19.7520 C   0  0  0  0  0  0  0  0  0  0  0  0
  -22.0631  -23.2598   20.7570 C   0  0  0  0  0  0  0  0  0  0  0  0
  -21.0761  -28.7442   23.1706 C   0  0  0  0  0  0  0  0  0  0  0  0
  -22.4428  -28.8004   23.8480 C   0  0  0  0  0  0  0  0  0  0  0  0
  -23.3907  -22.5835   20.4429 C   0  0  0  0  0  0  0  0  0  1  0  0
  -20.0352  -26.5117   24.9480 C   0  0  0  0  0  0  0  0  0  0  0  0
  -30.0379  -19.0885   20.9281 C   0  0  1  0  0  0  0  0  0  0  0  0
  -32.2204  -21.1501   18.6138 C   0  0  2  0  0  0  0  0  0  0  0  0
  -30.5415  -18.6800   22.3412 C   0  0  0  0  0  0  0  0  0  0  0  0
  -27.0146  -27.5218   20.4408 N   0  0  0  0  0  0  0  0  0  0  0  0
  -20.8476  -27.1049   21.4244 N   0  0  0  0  0  0  0  0  0  0  0  0
  -20.7208  -27.4167   22.7255 N   0  0  0  0  0  0  0  0  0  0  0  0
  -25.8049  -27.3860   21.0104 N   0  0  0  0  0  0  0  0  0  0  0  0
  -28.0462  -18.1165   19.8270 N   0  0  0  0  0  0  0  0  0  0  0  0
  -24.1053  -30.5649   22.3004 N   0  0  0  0  0  0  0  0  0  0  0  0
  -24.4089  -25.8364   22.1331 N   0  0  0  0  0  0  0  0  0  0  0  0
  -28.1547  -23.4537   21.3035 N   0  0  0  0  0  0  0  0  0  0  0  0
  -25.8696  -15.2061   20.1240 N   0  0  0  0  0  0  0  0  0  0  0  0
  -31.0822  -19.5975   20.0456 N   0  0  0  0  0  0  0  0  0  0  0  0
  -22.8004  -30.1540   24.2668 N   0  0  0  0  0  0  0  0  0  0  0  0
  -31.8304  -22.0163   17.4654 N   0  3  0  0  0  0  0  0  0  0  0  0
  -26.0564  -23.3637   22.2243 O   0  0  0  0  0  0  0  0  0  0  0  0
  -26.6422  -16.8679   21.5606 O   0  0  0  0  0  0  0  0  0  0  0  0
  -30.0479  -16.9273   19.9506 O   0  0  0  0  0  0  0  0  0  0  0  0
  -30.1032  -21.6636   19.6583 O   0  0  0  0  0  0  0  0  0  0  0  0
  -23.5616  -32.2688   23.7561 O   0  0  0  0  0  0  0  0  0  0  0  0
  -32.7254  -25.3003   18.7085 O   0  0  0  0  0  0  0  0  0  0  0  0
  -23.3250  -22.0254   19.1312 O   0  0  0  0  0  0  0  0  0  1  0  0
  -33.9922  -27.0600   13.6388 F   0  0  0  0  0  0  0  0  0  0  0  0
  -32.5954  -27.9859   18.0656 F   0  0  0  0  0  0  0  0  0  0  0  0
  1  2  1  0  0  0  0
  1  5  2  0  0  0  0
  2  6  2  0  0  0  0
  3  8  2  0  0  0  0
  3 16  1  0  0  0  0
  4  9  1  0  0  0  0
  4 16  2  0  0  0  0
  5 18  1  0  0  0  0
  6 20  1  0  0  0  0
  7 10  2  0  0  0  0
  7 19  1  0  0  0  0
  8 22  1  0  0  0  0
  9 22  2  0  0  0  0
 10 23  1  0  0  0  0
 11 12  2  0  0  0  0
 11 24  1  0  0  0  0
 12 25  1  0  0  0  0
 13 21  1  0  0  0  0
 13 23  2  0  0  0  0
 14 25  2  0  0  0  0
 14 26  1  0  0  0  0
 15 28  1  0  0  0  0
 15 29  2  0  0  0  0
 16 27  1  0  0  0  0
 17 27  1  0  0  0  0
 17 30  2  0  0  0  0
 17 31  1  0  0  0  0
 18 20  2  0  0  0  0
 18 36  1  0  0  0  0
 19 21  2  0  0  0  0
 19 37  1  0  0  0  0
 20 45  1  0  0  0  0
 21 38  1  0  0  0  0
 22 83  1  0  0  0  0
 23 84  1  0  0  0  0
 24 26  2  0  0  0  0
 24 83  1  0  0  0  0
 25 85  1  0  0  0  0
 26 86  1  0  0  0  0
 27 66  2  0  0  0  0
 28 56  1  0  0  0  0
 28 67  2  0  0  0  0
 29 62  1  0  0  0  0
 29 68  1  0  0  0  0
 30 69  1  0  0  0  0
 30 72  1  0  0  0  0
 31 73  1  0  0  0  0
 31 78  2  0  0  0  0
 32 46  1  0  0  0  0
 32 74  1  0  0  0  0
 32 79  2  0  0  0  0
 33 63  1  0  0  0  0
 33 70  1  0  0  0  0
 33 80  2  0  0  0  0
 34 64  1  0  0  0  0
 34 75  1  0  0  0  0
 34 81  2  0  0  0  0
 35 71  1  0  0  0  0
 35 76  1  0  0  0  0
 35 82  2  0  0  0  0
 36 39  1  0  0  0  0
 37 46  1  0  0  0  0
 38 70  1  0  0  0  0
 39 41  1  0  0  0  0
 40 42  1  0  0  0  0
 40 43  1  0  0  0  0
 41 45  1  0  0  0  0
 42 47  1  0  0  0  0
 43 71  1  0  0  0  0
 44 47  1  0  0  0  0
 44 71  1  0  0  0  0
 45 74  1  0  0  0  0
 46 70  1  0  0  0  0
 47 69  1  0  0  0  0
 48 62  1  0  0  0  0
 49 62  1  0  0  0  0
 50 64  1  0  0  0  0
 51 65  1  0  0  0  0
 52 65  1  0  0  0  0
 53 65  1  0  0  0  0
 54 76  1  0  0  0  0
 55 77  1  0  0  0  0
 56 57  1  0  0  0  0
 57 58  1  0  0  0  0
 58 61  1  0  0  0  0
 59 60  1  0  0  0  0
 59 68  1  0  0  0  0
 60 76  1  0  0  0  0
 61 84  1  0  0  0  0
 63 65  1  0  0  0  0
 63 75  1  0  0  0  0
 64 77  1  0  0  0  0
 66 69  1  0  0  0  0
 67 68  1  0  0  0  0
M  CHG  1  77   1
M  ISO  4  35 100  61 101  76 100  84 101
M  END
> <Batch ID>
0090

> <Smiles>
CNC(C)C(=O)NC(C(=O)N1Cc2cc([101O:1][101CH2:1]CCCc3cc(C(C)C)n(CC[100N:0](C)[100C:0](=O)N4CCCC(n5nc(-c6ccc(Oc7ccc(F)cc7F)cc6)c(C(N)=O)c5N)C4)n3)ccc2CC1C(=O)NC1CCCc2ccccc21)C(C)(C)C

> <Shape>
0.220

> <Color>
0.086

> <Negative vol penalty>
0.000

$$$$

  -OEChem-04052319093D

 86 94  0     1  0  0  0  0  0999 V2000
  -34.0575  -22.1943   15.9116 C   0  0  0  0  0  0  0  0  0  0  0  0
  -33.0504  -21.5593   16.6312 C   0  0  0  0  0  0  0  0  0  0  0  0
  -23.2888   -9.7990   19.9138 C   0  0  0  0  0  0  0  0  0  0  0  0
  -23.7398   -9.9407   22.2831 C   0  0  0  0  0  0  0  0  0  0  0  0
  -35.2308  -22.5867   16.5545 C   0  0  0  0  0  0  0  0  0  0  0  0
  -33.2165  -21.3152   17.9940 C   0  0  0  0  0  0  0  0  0  0  0  0
  -28.8710  -21.4135   22.3082 C   0  0  0  0  0  0  0  0  0  0  0  0
  -22.5627   -8.6265   20.1222 C   0  0  0  0  0  0  0  0  0  0  0  0
  -23.0136   -8.7682   22.4915 C   0  0  0  0  0  0  0  0  0  0  0  0
  -28.1332  -20.4008   22.9197 C   0  0  0  0  0  0  0  0  0  0  0  0
  -19.7668   -7.8566   22.7096 C   0  0  0  0  0  0  0  0  0  0  0  0
  -18.8646   -7.8352   23.7731 C   0  0  0  0  0  0  0  0  0  0  0  0
  -29.6990  -20.3763   24.7546 C   0  0  0  0  0  0  0  0  0  0  0  0
  -29.3138  -15.6770   23.9444 C   0  0  0  0  0  0  0  0  0  0  0  0
  -20.0708   -5.9886   24.7592 C   0  0  0  0  0  0  0  0  0  0  0  0
  -28.7574  -15.6055   26.1250 C   0  0  0  0  0  0  0  0  0  0  0  0
  -23.8774  -10.4562   20.9943 C   0  0  0  0  0  0  0  0  0  0  0  0
  -24.1363  -12.9861   20.7946 C   0  0  0  0  0  0  0  0  0  0  0  0
  -35.4074  -22.3560   17.9279 C   0  0  0  0  0  0  0  0  0  0  0  0
  -30.0363  -21.9085   22.9111 C   0  0  0  0  0  0  0  0  0  0  0  0
  -34.3939  -21.7036   18.6556 C   0  0  0  0  0  0  0  0  0  0  0  0
  -30.4484  -21.3971   24.1499 C   0  0  0  0  0  0  0  0  0  0  0  0
  -28.2972  -15.9823   24.8826 C   0  0  0  0  0  0  0  0  0  0  0  0
  -22.4251   -8.1110   21.4110 C   0  0  0  0  0  0  0  0  0  0  0  0
  -28.5488  -19.8800   24.1416 C   0  0  0  0  0  0  0  0  0  0  0  0
  -20.8210   -6.9440   22.6708 C   0  0  0  0  0  0  0  0  0  0  0  0
  -19.0165   -6.9013   24.7979 C   0  0  0  0  0  0  0  0  0  0  0  0
  -20.9730   -6.0100   23.6956 C   0  0  0  0  0  0  0  0  0  0  0  0
  -24.6281  -11.6672   20.7797 C   0  0  0  0  0  0  0  0  0  0  0  0
  -30.3643  -15.1227   24.6419 C   0  0  0  0  0  0  0  0  0  0  0  0
  -25.2376  -13.7661   20.5392 C   0  0  0  0  0  0  0  0  0  0  0  0
  -22.8032  -13.4636   21.0194 C   0  0  0  0  0  0  0  0  0  0  0  0
  -33.1100  -22.0061   22.1071 C   0  0  0  0  0  0  0  0  0  0  0  0
  -33.3568  -23.7937   24.8027 C   0  0  0  0  0  0  0  0  0  0  0  0
  -32.0755  -24.6264   27.8542 C   0  0  0  0  0  0  0  0  0  0  0  0
  -31.1088  -12.9246   21.3585 C   0  0  0  0  0  0  0  0  0  0  0  0
  -36.7126  -22.7557   18.5692 C   0  0  0  0  0  0  0  0  0  0  0  0
  -30.8061  -23.0196   22.2515 C   0  0  0  0  0  0  0  0  0  0  0  0
  -31.6810  -21.9082   24.8484 C   0  0  0  0  0  0  0  0  0  0  0  0
  -36.6547  -22.7964   20.0941 C   0  0  0  0  0  0  0  0  0  0  0  0
  -29.4594  -13.6624   18.2906 C   0  0  0  0  0  0  0  0  0  0  0  0
  -35.9743  -21.5434   20.6361 C   0  0  0  0  0  0  0  0  0  0  0  0
  -27.9898  -13.3537   18.5820 C   0  0  0  0  0  0  0  0  0  0  0  0
  -30.3930  -12.6834   18.9993 C   0  0  0  0  0  0  0  0  0  0  0  0
  -28.7066  -12.2545   20.7446 C   0  0  0  0  0  0  0  0  0  0  0  0
  -34.5266  -21.4435   20.1405 C   0  0  1  0  0  0  0  0  0  0  0  0
  -32.2605  -23.0909   22.7065 C   0  0  1  0  0  0  0  0  0  0  0  0
  -27.7284  -13.2493   20.0966 C   0  0  2  0  0  0  0  0  0  0  0  0
  -32.5184  -26.0903   29.8438 C   0  0  0  0  0  0  0  0  0  0  0  0
  -32.7692  -14.9743   28.6499 C   0  0  0  0  0  0  0  0  0  0  0  0
  -31.2886  -16.8694   27.9554 C   0  0  0  0  0  0  0  0  0  0  0  0
  -26.0419  -16.8231   25.8236 C   0  0  0  0  0  0  0  0  0  0  0  0
  -26.1471  -15.6925   23.6127 C   0  0  0  0  0  0  0  0  0  0  0  0
  -35.5409  -21.8736   25.7261 C   0  0  0  0  0  0  0  0  0  0  0  0
  -35.2691  -22.7879   28.0409 C   0  0  0  0  0  0  0  0  0  0  0  0
  -36.0089  -24.2863   26.1889 C   0  0  0  0  0  0  0  0  0  0  0  0
  -29.5348  -26.0981   27.4829 C   0  0  0  0  0  0  0  0  0  0  0  0
  -31.6691  -14.6282   24.1560 C   0  0  0  0  0  0  0  0  0  0  0  0
  -30.8341  -14.5754   27.0447 C   0  0  0  0  0  0  0  0  0  0  0  0
  -31.6709  -13.1394   23.7662 C   0  0  0  0  0  0  0  0  0  0  0  0
  -27.1205  -17.9958   23.8859 C   0  0  0  0  0  0  0  0  0  1  0  0
  -33.6076  -23.4988   26.2618 C   0  0  1  0  0  0  0  0  0  0  0  0
  -31.8116  -25.9736   28.5023 C   0  0  2  0  0  0  0  0  0  0  0  0
  -31.9282  -15.5528   27.5099 C   0  0  0  0  0  0  0  0  0  0  0  0
  -26.9293  -16.6186   24.5723 C   0  0  0  0  0  0  0  0  0  0  0  0
  -35.0844  -23.1005   26.5406 C   0  0  0  0  0  0  0  0  0  0  0  0
  -25.9397  -11.6086   20.5340 N   0  0  0  0  0  0  0  0  0  0  0  0
  -30.0149  -15.0840   25.9665 N   0  0  0  0  0  0  0  0  0  0  0  0
  -26.2814  -12.9006   20.3922 N   0  0  0  0  0  0  0  0  0  0  0  0
  -32.4034  -22.9909   24.1604 N   0  0  0  0  0  0  0  0  0  0  0  0
  -30.0939  -12.6326   20.4324 N   0  0  0  0  0  0  0  0  0  0  0  0
  -25.4053  -15.1010   20.4282 N   0  0  0  0  0  0  0  0  0  0  0  0
  -21.7908  -12.5266   21.2674 N   0  0  0  0  0  0  0  0  0  0  0  0
  -33.6728  -22.3400   20.8901 N   0  0  0  0  0  0  0  0  0  0  0  0
  -33.1563  -24.6740   26.9992 N   0  0  0  0  0  0  0  0  0  0  0  0
  -30.7393  -12.8595   22.6964 N   0  0  0  0  0  0  0  0  0  0  0  0
  -30.3502  -26.1649   28.7229 N   0  3  0  0  0  0  0  0  0  0  0  0
  -22.5151  -14.6840   20.9846 O   0  0  0  0  0  0  0  0  0  0  0  0
  -33.2461  -20.9453   22.7053 O   0  0  0  0  0  0  0  0  0  0  0  0
  -33.9784  -24.7075   24.2548 O   0  0  0  0  0  0  0  0  0  0  0  0
  -31.3936  -23.6306   28.0863 O   0  0  0  0  0  0  0  0  0  0  0  0
  -32.2577  -13.2264   21.0181 O   0  0  0  0  0  0  0  0  0  0  0  0
  -21.7164   -6.9670   21.6147 O   0  0  0  0  0  0  0  0  0  0  0  0
  -27.8309  -18.8910   24.7403 O   0  0  0  0  0  0  0  0  0  1  0  0
  -18.1509   -6.8818   25.8200 F   0  0  0  0  0  0  0  0  0  0  0  0
  -21.9845   -5.1315   23.6645 F   0  0  0  0  0  0  0  0  0  0  0  0
  1  2  1  0  0  0  0
  1  5  2  0  0  0  0
  2  6  2  0  0  0  0
  3  8  2  0  0  0  0
  3 17  1  0  0  0  0
  4  9  1  0  0  0  0
  4 17  2  0  0  0  0
  5 19  1  0  0  0  0
  6 21  1  0  0  0  0
  7 10  2  0  0  0  0
  7 20  1  0  0  0  0
  8 24  1  0  0  0  0
  9 24  2  0  0  0  0
 10 25  1  0  0  0  0
 11 12  2  0  0  0  0
 11 26  1  0  0  0  0
 12 27  1  0  0  0  0
 13 22  1  0  0  0  0
 13 25  2  0  0  0  0
 14 23  1  0  0  0  0
 14 30  2  0  0  0  0
 15 27  2  0  0  0  0
 15 28  1  0  0  0  0
 16 23  2  0  0  0  0
 16 68  1  0  0  0  0
 17 29  1  0  0  0  0
 18 29  1  0  0  0  0
 18 31  2  0  0  0  0
 18 32  1  0  0  0  0
 19 21  2  0  0  0  0
 19 37  1  0  0  0  0
 20 22  2  0  0  0  0
 20 38  1  0  0  0  0
 21 46  1  0  0  0  0
 22 39  1  0  0  0  0
 23 65  1  0  0  0  0
 24 83  1  0  0  0  0
 25 84  1  0  0  0  0
 26 28  2  0  0  0  0
 26 83  1  0  0  0  0
 27 85  1  0  0  0  0
 28 86  1  0  0  0  0
 29 67  2  0  0  0  0
 30 58  1  0  0  0  0
 30 68  1  0  0  0  0
 31 69  1  0  0  0  0
 31 72  1  0  0  0  0
 32 73  1  0  0  0  0
 32 78  2  0  0  0  0
 33 47  1  0  0  0  0
 33 74  1  0  0  0  0
 33 79  2  0  0  0  0
 34 62  1  0  0  0  0
 34 70  1  0  0  0  0
 34 80  2  0  0  0  0
 35 63  1  0  0  0  0
 35 75  1  0  0  0  0
 35 81  2  0  0  0  0
 36 71  1  0  0  0  0
 36 76  1  0  0  0  0
 36 82  2  0  0  0  0
 37 40  1  0  0  0  0
 38 47  1  0  0  0  0
 39 70  1  0  0  0  0
 40 42  1  0  0  0  0
 41 43  1  0  0  0  0
 41 44  1  0  0  0  0
 42 46  1  0  0  0  0
 43 48  1  0  0  0  0
 44 71  1  0  0  0  0
 45 48  1  0  0  0  0
 45 71  1  0  0  0  0
 46 74  1  0  0  0  0
 47 70  1  0  0  0  0
 48 69  1  0  0  0  0
 49 63  1  0  0  0  0
 50 64  1  0  0  0  0
 51 64  1  0  0  0  0
 52 65  1  0  0  0  0
 53 65  1  0  0  0  0
 54 66  1  0  0  0  0
 55 66  1  0  0  0  0
 56 66  1  0  0  0  0
 57 77  1  0  0  0  0
 58 60  1  0  0  0  0
 59 64  1  0  0  0  0
 59 68  1  0  0  0  0
 60 76  1  0  0  0  0
 61 65  1  0  0  0  0
 61 84  1  0  0  0  0
 62 66  1  0  0  0  0
 62 75  1  0  0  0  0
 63 77  1  0  0  0  0
 67 69  1  0  0  0  0
M  CHG  1  77   1
M  ISO  4  36 100  61 101  76 100  84 101
M  END
> <Batch ID>
0090

> <Smiles>
CNC(C)C(=O)NC(C(=O)N1Cc2cc([101O:1][101CH2:1]C(C)(C)c3cc(CC[100NH:0][100C:0](=O)N4CCCC(n5nc(-c6ccc(Oc7ccc(F)cc7F)cc6)c(C(N)=O)c5N)C4)n(CC(C)C)c3)ccc2CC1C(=O)NC1CCCc2ccccc21)C(C)(C)C

> <Shape>
0.141

> <Color>
0.174

> <Negative vol penalty>
0.000

$$$$

  -OEChem-04052319093D

 88 96  0     1  0  0  0  0  0999 V2000
  -35.8364   -9.4092   40.6891 C   0  0  0  0  0  0  0  0  0  0  0  0
  -35.0919   -9.5372   39.5208 C   0  0  0  0  0  0  0  0  0  0  0  0
  -23.2878   -9.7992   19.9128 C   0  0  0  0  0  0  0  0  0  0  0  0
  -23.7365   -9.9404   22.2826 C   0  0  0  0  0  0  0  0  0  0  0  0
  -37.0118  -10.1417   40.8490 C   0  0  0  0  0  0  0  0  0  0  0  0
  -35.5219  -10.3987   38.5122 C   0  0  0  0  0  0  0  0  0  0  0  0
  -34.8969   -9.5989   32.4727 C   0  0  0  0  0  0  0  0  0  0  0  0
  -22.5612   -8.6268   20.1202 C   0  0  0  0  0  0  0  0  0  0  0  0
  -23.0098   -8.7680   22.4900 C   0  0  0  0  0  0  0  0  0  0  0  0
  -33.9743  -10.0931   31.5516 C   0  0  0  0  0  0  0  0  0  0  0  0
  -19.7624   -7.8573   22.7046 C   0  0  0  0  0  0  0  0  0  0  0  0
  -18.8591   -7.8360   23.7672 C   0  0  0  0  0  0  0  0  0  0  0  0
  -35.5076  -11.8638   30.9748 C   0  0  0  0  0  0  0  0  0  0  0  0
  -20.0638   -5.9889   24.7543 C   0  0  0  0  0  0  0  0  0  0  0  0
  -29.7953  -14.6755   27.1169 C   0  0  0  0  0  0  0  0  0  0  0  0
  -23.8755  -10.4560   20.9940 C   0  0  0  0  0  0  0  0  0  0  0  0
  -24.1353  -12.9859   20.7949 C   0  0  0  0  0  0  0  0  0  0  0  0
  -37.4616  -11.0054   39.8378 C   0  0  0  0  0  0  0  0  0  0  0  0
  -36.1294  -10.2410   32.6599 C   0  0  0  0  0  0  0  0  0  0  0  0
  -36.7038  -11.1445   38.6594 C   0  0  0  0  0  0  0  0  0  0  0  0
  -36.4452  -11.3743   31.8970 C   0  0  0  0  0  0  0  0  0  0  0  0
  -22.4221   -8.1112   21.4088 C   0  0  0  0  0  0  0  0  0  0  0  0
  -34.2784  -11.2273   30.8046 C   0  0  0  0  0  0  0  0  0  0  0  0
  -20.8164   -6.9444   22.6668 C   0  0  0  0  0  0  0  0  0  0  0  0
  -19.0098   -6.9018   24.7921 C   0  0  0  0  0  0  0  0  0  0  0  0
  -20.9671   -6.0102   23.6917 C   0  0  0  0  0  0  0  0  0  0  0  0
  -24.6268  -11.6668   20.7803 C   0  0  0  0  0  0  0  0  0  0  0  0
  -29.6968  -14.4513   25.7727 C   0  0  0  0  0  0  0  0  0  0  0  0
  -25.2371  -13.7656   20.5407 C   0  0  0  0  0  0  0  0  0  0  0  0
  -28.4734  -12.9264   26.8112 C   0  0  0  0  0  0  0  0  0  0  0  0
  -22.8021  -13.4637   21.0183 C   0  0  0  0  0  0  0  0  0  0  0  0
  -37.5586  -11.6837   35.1053 C   0  0  0  0  0  0  0  0  0  0  0  0
  -40.0634  -11.8317   33.0494 C   0  0  0  0  0  0  0  0  0  0  0  0
  -41.1629  -11.8448   29.8186 C   0  0  0  0  0  0  0  0  0  0  0  0
  -31.1073  -12.9224   21.3660 C   0  0  0  0  0  0  0  0  0  0  0  0
  -38.7134  -11.8122   40.0759 C   0  0  0  0  0  0  0  0  0  0  0  0
  -37.1247   -9.6798   33.6382 C   0  0  0  0  0  0  0  0  0  0  0  0
  -37.7629  -12.0884   32.0457 C   0  0  0  0  0  0  0  0  0  0  0  0
  -39.2973  -12.4204   38.8034 C   0  0  0  0  0  0  0  0  0  0  0  0
  -29.4612  -13.6611   18.2965 C   0  0  0  0  0  0  0  0  0  0  0  0
  -38.1993  -13.0782   37.9736 C   0  0  0  0  0  0  0  0  0  0  0  0
  -27.9912  -13.3527   18.5863 C   0  0  0  0  0  0  0  0  0  0  0  0
  -30.3938  -12.6818   19.0060 C   0  0  0  0  0  0  0  0  0  0  0  0
  -28.7055  -12.2530   20.7495 C   0  0  0  0  0  0  0  0  0  0  0  0
  -37.1506  -12.0501   37.5322 C   0  0  1  0  0  0  0  0  0  0  0  0
  -38.1400  -10.7131   34.1166 C   0  0  1  0  0  0  0  0  0  0  0  0
  -27.7282  -13.2481   20.1006 C   0  0  2  0  0  0  0  0  0  0  0  0
  -43.2609  -12.0161   28.4525 C   0  0  0  0  0  0  0  0  0  0  0  0
  -29.5677   -8.8155   25.4206 C   0  0  0  0  0  0  0  0  0  0  0  0
  -27.7925  -10.2459   24.3899 C   0  0  0  0  0  0  0  0  0  0  0  0
  -40.1638  -14.8340   33.5846 C   0  0  0  0  0  0  0  0  0  0  0  0
  -41.5884  -15.0802   31.5406 C   0  0  0  0  0  0  0  0  0  0  0  0
  -42.3997  -13.7198   33.4677 C   0  0  0  0  0  0  0  0  0  0  0  0
  -40.7456   -9.1669   28.6296 C   0  0  0  0  0  0  0  0  0  0  0  0
  -30.2917  -15.1475   24.6290 C   0  0  0  0  0  0  0  0  0  0  0  0
  -27.5749  -11.7696   27.0508 C   0  0  0  0  0  0  0  0  0  0  0  0
  -31.6749  -14.6115   24.1711 C   0  0  0  0  0  0  0  0  0  0  0  0
  -28.3029  -10.4196   26.8835 C   0  0  0  0  0  0  0  0  0  0  0  0
  -29.6940  -12.4773   29.8590 C   0  0  0  0  0  0  0  0  0  0  0  0
  -31.1888  -12.6355   29.5761 C   0  0  0  0  0  0  0  0  0  0  0  0
  -28.8431  -13.5841   29.2257 C   0  0  0  0  0  0  0  0  0  0  0  0
  -31.6669  -13.1367   23.7743 C   0  0  0  0  0  0  0  0  0  0  0  0
  -31.9972  -11.5005   30.1901 C   0  0  0  0  0  0  0  0  0  1  0  0
  -40.5382  -12.8206   32.0123 C   0  0  1  0  0  0  0  0  0  0  0  0
  -42.2764  -11.0760   29.1305 C   0  0  2  0  0  0  0  0  0  0  0  0
  -28.8704  -10.1772   25.4725 C   0  0  0  0  0  0  0  0  0  0  0  0
  -41.1468  -14.1015   32.6496 C   0  0  0  0  0  0  0  0  0  0  0  0
  -25.9386  -11.6080   20.5360 N   0  0  0  0  0  0  0  0  0  0  0  0
  -29.0281  -13.7177   27.7351 N   0  0  0  0  0  0  0  0  0  0  0  0
  -26.2808  -12.8999   20.3946 N   0  0  0  0  0  0  0  0  0  0  0  0
  -28.8732  -13.3632   25.6125 N   0  3  0  0  0  0  0  0  0  0  0  0
  -38.7002  -11.5050   33.0197 N   0  0  0  0  0  0  0  0  0  0  0  0
  -30.0932  -12.6308   20.4388 N   0  0  0  0  0  0  0  0  0  0  0  0
  -25.4052  -15.1005   20.4300 N   0  0  0  0  0  0  0  0  0  0  0  0
  -21.7892  -12.5269   21.2652 N   0  0  0  0  0  0  0  0  0  0  0  0
  -37.6464  -11.2679   36.4201 N   0  0  0  0  0  0  0  0  0  0  0  0
  -41.4557  -12.0918   31.1432 N   0  0  0  0  0  0  0  0  0  0  0  0
  -30.7363  -12.8572   22.7035 N   0  0  0  0  0  0  0  0  0  0  0  0
  -41.7127  -10.1613   28.0977 N   0  3  0  0  0  0  0  0  0  0  0  0
  -22.5143  -14.6841   20.9834 O   0  0  0  0  0  0  0  0  0  0  0  0
  -37.0681  -12.7329   34.7050 O   0  0  0  0  0  0  0  0  0  0  0  0
  -40.8735  -11.3609   33.8517 O   0  0  0  0  0  0  0  0  0  0  0  0
  -40.1376  -12.1947   29.2382 O   0  0  0  0  0  0  0  0  0  0  0  0
  -32.2566  -13.2240   21.0268 O   0  0  0  0  0  0  0  0  0  0  0  0
  -21.7129   -6.9673   21.6116 O   0  0  0  0  0  0  0  0  0  0  0  0
  -33.3794  -11.7121   29.9053 O   0  0  0  0  0  0  0  0  0  1  0  0
  -18.1431   -6.8825   25.8132 F   0  0  0  0  0  0  0  0  0  0  0  0
  -21.9784   -5.1315   23.6615 F   0  0  0  0  0  0  0  0  0  0  0  0
  1  2  1  0  0  0  0
  1  5  2  0  0  0  0
  2  6  2  0  0  0  0
  3  8  2  0  0  0  0
  3 16  1  0  0  0  0
  4  9  1  0  0  0  0
  4 16  2  0  0  0  0
  5 18  1  0  0  0  0
  6 20  1  0  0  0  0
  7 10  2  0  0  0  0
  7 19  1  0  0  0  0
  8 22  1  0  0  0  0
  9 22  2  0  0  0  0
 10 23  1  0  0  0  0
 11 12  2  0  0  0  0
 11 24  1  0  0  0  0
 12 25  1  0  0  0  0
 13 21  1  0  0  0  0
 13 23  2  0  0  0  0
 14 25  2  0  0  0  0
 14 26  1  0  0  0  0
 15 28  2  0  0  0  0
 15 69  1  0  0  0  0
 16 27  1  0  0  0  0
 17 27  1  0  0  0  0
 17 29  2  0  0  0  0
 17 31  1  0  0  0  0
 18 20  2  0  0  0  0
 18 36  1  0  0  0  0
 19 21  2  0  0  0  0
 19 37  1  0  0  0  0
 20 45  1  0  0  0  0
 21 38  1  0  0  0  0
 22 85  1  0  0  0  0
 23 86  1  0  0  0  0
 24 26  2  0  0  0  0
 24 85  1  0  0  0  0
 25 87  1  0  0  0  0
 26 88  1  0  0  0  0
 27 68  2  0  0  0  0
 28 55  1  0  0  0  0
 28 71  1  0  0  0  0
 29 70  1  0  0  0  0
 29 74  1  0  0  0  0
 30 56  1  0  0  0  0
 30 69  1  0  0  0  0
 30 71  2  0  0  0  0
 31 75  1  0  0  0  0
 31 80  2  0  0  0  0
 32 46  1  0  0  0  0
 32 76  1  0  0  0  0
 32 81  2  0  0  0  0
 33 64  1  0  0  0  0
 33 72  1  0  0  0  0
 33 82  2  0  0  0  0
 34 65  1  0  0  0  0
 34 77  1  0  0  0  0
 34 83  2  0  0  0  0
 35 73  1  0  0  0  0
 35 78  1  0  0  0  0
 35 84  2  0  0  0  0
 36 39  1  0  0  0  0
 37 46  1  0  0  0  0
 38 72  1  0  0  0  0
 39 41  1  0  0  0  0
 40 42  1  0  0  0  0
 40 43  1  0  0  0  0
 41 45  1  0  0  0  0
 42 47  1  0  0  0  0
 43 73  1  0  0  0  0
 44 47  1  0  0  0  0
 44 73  1  0  0  0  0
 45 76  1  0  0  0  0
 46 72  1  0  0  0  0
 47 70  1  0  0  0  0
 48 65  1  0  0  0  0
 49 66  1  0  0  0  0
 50 66  1  0  0  0  0
 51 67  1  0  0  0  0
 52 67  1  0  0  0  0
 53 67  1  0  0  0  0
 54 79  1  0  0  0  0
 55 57  1  0  0  0  0
 56 58  1  0  0  0  0
 57 62  1  0  0  0  0
 58 66  1  0  0  0  0
 59 60  1  0  0  0  0
 59 61  1  0  0  0  0
 60 63  1  0  0  0  0
 61 69  1  0  0  0  0
 62 78  1  0  0  0  0
 63 86  1  0  0  0  0
 64 67  1  0  0  0  0
 64 77  1  0  0  0  0
 65 79  1  0  0  0  0
 68 70  1  0  0  0  0
M  CHG  2  71   1  79   1
M  ISO  4  35 100  63 101  78 100  86 101
M  END
> <Batch ID>
0090

> <Smiles>
CNC(C)C(=O)NC(C(=O)N1Cc2cc([101O:1][101CH2:1]CCCn3cc(CCC[100NH:0][100C:0](=O)N4CCCC(n5nc(-c6ccc(Oc7ccc(F)cc7F)cc6)c(C(N)=O)c5N)C4)nc3CCC(C)C)ccc2CC1C(=O)NC1CCCc2ccccc21)C(C)(C)C

> <Shape>
0.132

> <Color>
0.170

> <Negative vol penalty>
0.000

$$$$

  -OEChem-04052319093D

 88 96  0     1  0  0  0  0  0999 V2000
  -31.1316  -25.5473   26.2083 C   0  0  0  0  0  0  0  0  0  0  0  0
  -30.1632  -24.5874   25.9323 C   0  0  0  0  0  0  0  0  0  0  0  0
  -30.7003  -19.6287   19.1422 C   0  0  0  0  0  0  0  0  0  0  0  0
  -28.9365  -19.9770   20.7561 C   0  0  0  0  0  0  0  0  0  0  0  0
  -30.7492  -26.8248   26.6154 C   0  0  0  0  0  0  0  0  0  0  0  0
  -28.8117  -24.9042   26.0643 C   0  0  0  0  0  0  0  0  0  0  0  0
  -24.1906  -22.8271   22.6238 C   0  0  0  0  0  0  0  0  0  0  0  0
  -30.4645  -20.8966   18.6108 C   0  0  0  0  0  0  0  0  0  0  0  0
  -28.7006  -21.2450   20.2247 C   0  0  0  0  0  0  0  0  0  0  0  0
  -23.2615  -21.8060   22.8185 C   0  0  0  0  0  0  0  0  0  0  0  0
  -27.8751  -24.7161   19.5262 C   0  0  0  0  0  0  0  0  0  0  0  0
  -27.7048  -25.7733   20.4200 C   0  0  0  0  0  0  0  0  0  0  0  0
  -21.6740  -23.4182   23.6550 C   0  0  0  0  0  0  0  0  0  0  0  0
  -21.9754  -14.2209   24.1214 C   0  0  0  0  0  0  0  0  0  0  0  0
  -29.9178  -25.3803   21.3062 C   0  0  0  0  0  0  0  0  0  0  0  0
  -23.2498  -15.0370   22.4541 C   0  0  0  0  0  0  0  0  0  0  0  0
  -29.9362  -19.1689   20.2148 C   0  0  0  0  0  0  0  0  0  0  0  0
  -31.0654  -17.5246   21.8051 C   0  0  0  0  0  0  0  0  0  0  0  0
  -29.3921  -27.1603   26.7431 C   0  0  0  0  0  0  0  0  0  0  0  0
  -23.8716  -24.1521   22.9540 C   0  0  0  0  0  0  0  0  0  0  0  0
  -28.4107  -26.1869   26.4747 C   0  0  0  0  0  0  0  0  0  0  0  0
  -22.5999  -24.4546   23.4611 C   0  0  0  0  0  0  0  0  0  0  0  0
  -22.4050  -15.4073   23.4772 C   0  0  0  0  0  0  0  0  0  0  0  0
  -29.4647  -21.7047   19.1520 C   0  0  0  0  0  0  0  0  0  0  0  0
  -22.0040  -22.1010   23.3369 C   0  0  0  0  0  0  0  0  0  0  0  0
  -29.0667  -23.9909   19.5224 C   0  0  0  0  0  0  0  0  0  0  0  0
  -28.7262  -26.1054   21.3100 C   0  0  0  0  0  0  0  0  0  0  0  0
  -30.0880  -24.3231   20.4124 C   0  0  0  0  0  0  0  0  0  0  0  0
  -30.1790  -17.8590   20.7639 C   0  0  0  0  0  0  0  0  0  0  0  0
  -22.5709  -13.1617   23.4726 C   0  0  0  0  0  0  0  0  0  0  0  0
  -30.9282  -16.1656   21.9497 C   0  0  0  0  0  0  0  0  0  0  0  0
  -31.9351  -18.3670   22.5730 C   0  0  0  0  0  0  0  0  0  0  0  0
  -25.0238  -26.2931   25.0014 C   0  0  0  0  0  0  0  0  0  0  0  0
  -26.4264  -12.4210   20.5993 C   0  0  0  0  0  0  0  0  0  0  0  0
  -22.9162  -28.2658   23.5220 C   0  0  0  0  0  0  0  0  0  0  0  0
  -20.0481  -28.6014   21.7031 C   0  0  0  0  0  0  0  0  0  0  0  0
  -29.0282  -28.5399   27.2318 C   0  0  0  0  0  0  0  0  0  0  0  0
  -24.8756  -25.2459   22.7129 C   0  0  0  0  0  0  0  0  0  0  0  0
  -22.2009  -25.8638   23.8126 C   0  0  0  0  0  0  0  0  0  0  0  0
  -27.5672  -28.9076   26.9857 C   0  0  0  0  0  0  0  0  0  0  0  0
  -29.8273  -12.2225   19.4884 C   0  0  0  0  0  0  0  0  0  0  0  0
  -26.6506  -27.7627   27.4048 C   0  0  0  0  0  0  0  0  0  0  0  0
  -30.3754  -13.6233   19.7578 C   0  0  0  0  0  0  0  0  0  0  0  0
  -28.3617  -12.2677   19.0678 C   0  0  0  0  0  0  0  0  0  0  0  0
  -28.0198  -14.3823   20.3061 C   0  0  0  0  0  0  0  0  0  0  0  0
  -26.9340  -26.4998   26.5824 C   0  0  1  0  0  0  0  0  0  0  0  0
  -24.6247  -26.4857   23.5657 C   0  0  1  0  0  0  0  0  0  0  0  0
  -29.4892  -14.3795   20.7635 C   0  0  2  0  0  0  0  0  0  0  0  0
  -21.0305  -11.1683   23.5567 C   0  0  0  0  0  0  0  0  0  0  0  0
  -22.9960  -11.3098   25.1289 C   0  0  0  0  0  0  0  0  0  0  0  0
  -18.5592  -30.3407   20.6757 C   0  0  0  0  0  0  0  0  0  0  0  0
  -19.1355  -19.1570   22.5773 C   0  0  0  0  0  0  0  0  0  0  0  0
  -23.5740  -13.0759   20.1142 C   0  0  0  0  0  0  0  0  0  0  0  0
  -21.7954  -28.9323   26.2805 C   0  0  0  0  0  0  0  0  0  0  0  0
  -19.7723  -29.8822   25.1523 C   0  0  0  0  0  0  0  0  0  0  0  0
  -22.0162  -30.8921   24.7428 C   0  0  0  0  0  0  0  0  0  0  0  0
  -20.4837  -27.5316   18.9782 C   0  0  0  0  0  0  0  0  0  0  0  0
  -22.0107  -16.8164   23.8427 C   0  0  0  0  0  0  0  0  0  0  0  0
  -20.7538  -17.3201   23.1195 C   0  0  0  0  0  0  0  0  0  0  0  0
  -26.3168  -13.0901   22.9668 C   0  0  0  0  0  0  0  0  0  0  0  0
  -21.4975  -19.7829   23.1768 C   0  0  0  0  0  0  0  0  0  1  0  0
  -22.4671  -11.7110   23.7329 C   0  0  0  0  0  0  0  0  0  0  0  0
  -25.6513  -13.2498   21.5924 C   0  0  2  0  0  0  0  0  0  0  0  0
  -21.4690  -28.6383   23.7363 C   0  0  1  0  0  0  0  0  0  0  0  0
  -19.7363  -29.4040   20.4528 C   0  0  2  0  0  0  0  0  0  0  0  0
  -20.3598  -18.7827   23.4226 C   0  0  1  0  0  0  0  0  0  0  0  0
  -24.1407  -12.8972   21.5337 C   0  0  1  0  0  0  0  0  0  0  0  0
  -21.2711  -29.5593   24.9733 C   0  0  0  0  0  0  0  0  0  0  0  0
  -29.5270  -16.7980   20.2810 N   0  0  0  0  0  0  0  0  0  0  0  0
  -23.3434  -13.6697   22.4610 N   0  0  0  0  0  0  0  0  0  0  0  0
  -30.0042  -15.7835   21.0222 N   0  0  0  0  0  0  0  0  0  0  0  0
  -23.2195  -26.8976   23.5648 N   0  0  0  0  0  0  0  0  0  0  0  0
  -27.5574  -13.0136   20.0373 N   0  0  0  0  0  0  0  0  0  0  0  0
  -31.5091  -15.2722   22.7784 N   0  0  0  0  0  0  0  0  0  0  0  0
  -31.9523  -19.7405   22.2943 N   0  0  0  0  0  0  0  0  0  0  0  0
  -26.3424  -26.6105   25.2662 N   0  0  0  0  0  0  0  0  0  0  0  0
  -21.0063  -29.2177   22.4799 N   0  0  0  0  0  0  0  0  0  0  0  0
  -26.3165  -11.6774   23.4214 N   0  3  0  0  0  0  0  0  0  0  0  0
  -19.4040  -28.4924   19.3216 N   0  3  0  0  0  0  0  0  0  0  0  0
  -32.6870  -17.9129   23.4685 O   0  0  0  0  0  0  0  0  0  0  0  0
  -24.1964  -25.8881   25.8095 O   0  0  0  0  0  0  0  0  0  0  0  0
  -26.0384  -11.2802   20.3344 O   0  0  0  0  0  0  0  0  0  0  0  0
  -23.7457  -29.1554   23.3168 O   0  0  0  0  0  0  0  0  0  0  0  0
  -19.4942  -27.5363   21.9663 O   0  0  0  0  0  0  0  0  0  0  0  0
  -29.2344  -22.9421   18.6339 O   0  0  0  0  0  0  0  0  0  0  0  0
  -21.0955  -21.1062   23.5285 O   0  0  0  0  0  0  0  0  0  1  0  0
  -28.5632  -27.1217   22.1672 F   0  0  0  0  0  0  0  0  0  0  0  0
  -31.2355  -23.6309   20.4127 F   0  0  0  0  0  0  0  0  0  0  0  0
  1  2  1  0  0  0  0
  1  5  2  0  0  0  0
  2  6  2  0  0  0  0
  3  8  2  0  0  0  0
  3 17  1  0  0  0  0
  4  9  1  0  0  0  0
  4 17  2  0  0  0  0
  5 19  1  0  0  0  0
  6 21  1  0  0  0  0
  7 10  2  0  0  0  0
  7 20  1  0  0  0  0
  8 24  1  0  0  0  0
  9 24  2  0  0  0  0
 10 25  1  0  0  0  0
 11 12  2  0  0  0  0
 11 26  1  0  0  0  0
 12 27  1  0  0  0  0
 13 22  1  0  0  0  0
 13 25  2  0  0  0  0
 14 23  1  0  0  0  0
 14 30  2  0  0  0  0
 15 27  2  0  0  0  0
 15 28  1  0  0  0  0
 16 23  2  0  0  0  0
 16 70  1  0  0  0  0
 17 29  1  0  0  0  0
 18 29  1  0  0  0  0
 18 31  2  0  0  0  0
 18 32  1  0  0  0  0
 19 21  2  0  0  0  0
 19 37  1  0  0  0  0
 20 22  2  0  0  0  0
 20 38  1  0  0  0  0
 21 46  1  0  0  0  0
 22 39  1  0  0  0  0
 23 58  1  0  0  0  0
 24 85  1  0  0  0  0
 25 86  1  0  0  0  0
 26 28  2  0  0  0  0
 26 85  1  0  0  0  0
 27 87  1  0  0  0  0
 28 88  1  0  0  0  0
 29 69  2  0  0  0  0
 30 62  1  0  0  0  0
 30 70  1  0  0  0  0
 31 71  1  0  0  0  0
 31 74  1  0  0  0  0
 32 75  1  0  0  0  0
 32 80  2  0  0  0  0
 33 47  1  0  0  0  0
 33 76  1  0  0  0  0
 33 81  2  0  0  0  0
 34 63  1  0  0  0  0
 34 73  1  0  0  0  0
 34 82  2  0  0  0  0
 35 64  1  0  0  0  0
 35 72  1  0  0  0  0
 35 83  2  0  0  0  0
 36 65  1  0  0  0  0
 36 77  1  0  0  0  0
 36 84  2  0  0  0  0
 37 40  1  0  0  0  0
 38 47  1  0  0  0  0
 39 72  1  0  0  0  0
 40 42  1  0  0  0  0
 41 43  1  0  0  0  0
 41 44  1  0  0  0  0
 42 46  1  0  0  0  0
 43 48  1  0  0  0  0
 44 73  1  0  0  0  0
 45 48  1  0  0  0  0
 45 73  1  0  0  0  0
 46 76  1  0  0  0  0
 47 72  1  0  0  0  0
 48 71  1  0  0  0  0
 49 62  1  0  0  0  0
 50 62  1  0  0  0  0
 51 65  1  0  0  0  0
 52 66  1  0  0  0  0
 53 67  1  0  0  0  0
 54 68  1  0  0  0  0
 55 68  1  0  0  0  0
 56 68  1  0  0  0  0
 57 79  1  0  0  0  0
 58 59  1  0  0  0  0
 59 66  1  0  0  0  0
 60 63  1  0  0  0  0
 60 78  1  0  0  0  0
 61 66  1  0  0  0  0
 61 86  1  0  0  0  0
 63 67  1  0  0  0  0
 64 68  1  0  0  0  0
 64 77  1  0  0  0  0
 65 79  1  0  0  0  0
 67 70  1  0  0  0  0
 69 71  1  0  0  0  0
M  CHG  2  78   1  79   1
M  ISO  4  34 100  61 101  63 100  86 101
M  END
> <Batch ID>
0090

> <Smiles>
CNC(C)C(=O)NC(C(=O)N1Cc2cc([101O:1][101CH2:1]C(C)CCc3cc(C(C)C)n(C(C)[100CH:0](CN)[100C:0](=O)N4CCCC(n5nc(-c6ccc(Oc7ccc(F)cc7F)cc6)c(C(N)=O)c5N)C4)c3)ccc2CC1C(=O)NC1CCCc2ccccc21)C(C)(C)C

> <Shape>
0.194

> <Color>
0.079

> <Negative vol penalty>
0.000

$$$$

  -OEChem-04052319093D

 88 97  0     1  0  0  0  0  0999 V2000
  -26.7018  -25.2431   25.3988 C   0  0  0  0  0  0  0  0  0  0  0  0
  -27.4634  -24.3976   24.5985 C   0  0  0  0  0  0  0  0  0  0  0  0
  -23.0737   -9.8697   19.9420 C   0  0  0  0  0  0  0  0  0  0  0  0
  -23.8372   -9.8761   22.2342 C   0  0  0  0  0  0  0  0  0  0  0  0
  -25.8211  -26.1506   24.8117 C   0  0  0  0  0  0  0  0  0  0  0  0
  -27.3440  -24.4585   23.2105 C   0  0  0  0  0  0  0  0  0  0  0  0
  -31.8338  -24.3850   20.8693 C   0  0  0  0  0  0  0  0  0  0  0  0
  -22.3305   -8.7163   20.1927 C   0  0  0  0  0  0  0  0  0  0  0  0
  -23.0938   -8.7228   22.4850 C   0  0  0  0  0  0  0  0  0  0  0  0
  -32.4711  -23.1504   20.7530 C   0  0  0  0  0  0  0  0  0  0  0  0
  -19.8668   -7.9242   23.0922 C   0  0  0  0  0  0  0  0  0  0  0  0
  -19.1116   -7.8838   24.2643 C   0  0  0  0  0  0  0  0  0  0  0  0
  -31.6962  -22.9715   18.4756 C   0  0  0  0  0  0  0  0  0  0  0  0
  -28.9638  -18.7058   21.8731 C   0  0  0  0  0  0  0  0  0  0  0  0
  -20.3545   -5.9463   24.9982 C   0  0  0  0  0  0  0  0  0  0  0  0
  -29.7439  -19.9070   20.1357 C   0  0  0  0  0  0  0  0  0  0  0  0
  -23.8272  -10.4496   20.9627 C   0  0  0  0  0  0  0  0  0  0  0  0
  -24.1683  -12.9748   20.8429 C   0  0  0  0  0  0  0  0  0  0  0  0
  -25.6979  -26.2293   23.4156 C   0  0  0  0  0  0  0  0  0  0  0  0
  -31.1125  -24.9179   19.7912 C   0  0  0  0  0  0  0  0  0  0  0  0
  -26.4599  -25.3670   22.6042 C   0  0  0  0  0  0  0  0  0  0  0  0
  -31.0527  -24.2142   18.5799 C   0  0  0  0  0  0  0  0  0  0  0  0
  -28.7280  -19.8444   21.0638 C   0  0  0  0  0  0  0  0  0  0  0  0
  -22.3405   -8.1429   21.4642 C   0  0  0  0  0  0  0  0  0  0  0  0
  -32.4000  -22.4422   19.5571 C   0  0  0  0  0  0  0  0  0  0  0  0
  -20.8658   -6.9756   22.8731 C   0  0  0  0  0  0  0  0  0  0  0  0
  -19.3555   -6.8949   25.2173 C   0  0  0  0  0  0  0  0  0  0  0  0
  -21.1096   -5.9867   23.8261 C   0  0  0  0  0  0  0  0  0  0  0  0
  -24.5956  -11.6407   20.7042 C   0  0  0  0  0  0  0  0  0  0  0  0
  -30.1168  -18.1072   21.4150 C   0  0  0  0  0  0  0  0  0  0  0  0
  -25.2598  -13.7246   20.4782 C   0  0  0  0  0  0  0  0  0  0  0  0
  -22.8984  -13.4903   21.2640 C   0  0  0  0  0  0  0  0  0  0  0  0
  -28.0740  -25.7107   19.2983 C   0  0  0  0  0  0  0  0  0  0  0  0
  -29.2333  -26.8521   16.4919 C   0  0  0  0  0  0  0  0  0  0  0  0
  -31.6683  -26.7400   14.1034 C   0  0  0  0  0  0  0  0  0  0  0  0
  -30.7436  -14.7446   20.6584 C   0  0  0  0  0  0  0  0  0  0  0  0
  -24.6979  -27.1935   22.8283 C   0  0  0  0  0  0  0  0  0  0  0  0
  -30.4530  -26.2632   19.9240 C   0  0  0  0  0  0  0  0  0  0  0  0
  -30.3081  -24.7520   17.3862 C   0  0  0  0  0  0  0  0  0  0  0  0
  -24.9058  -27.4546   21.3387 C   0  0  0  0  0  0  0  0  0  0  0  0
  -22.3127  -21.8678   20.8739 C   0  0  0  0  0  0  0  0  0  0  0  0
  -22.9897  -22.0754   19.5227 C   0  0  0  0  0  0  0  0  0  0  0  0
  -23.2986  -22.0315   22.0265 C   0  0  0  0  0  0  0  0  0  0  0  0
  -29.6028  -12.3606   18.2727 C   0  0  0  0  0  0  0  0  0  0  0  0
  -25.1205  -26.1421   20.5915 C   0  0  0  0  0  0  0  0  0  0  0  0
  -24.2036  -21.1643   19.3549 C   0  0  0  0  0  0  0  0  0  0  0  0
  -24.5131  -21.1205   21.8628 C   0  0  0  0  0  0  0  0  0  0  0  0
  -28.1661  -12.0665   18.7077 C   0  0  0  0  0  0  0  0  0  0  0  0
  -30.5217  -12.5812   19.4722 C   0  0  0  0  0  0  0  0  0  0  0  0
  -28.6220  -13.3116   20.8620 C   0  0  0  0  0  0  0  0  0  0  0  0
  -26.3766  -25.4202   21.0942 C   0  0  1  0  0  0  0  0  0  0  0  0
  -29.3157  -26.4719   18.9288 C   0  0  1  0  0  0  0  0  0  0  0  0
  -25.2021  -21.3327   20.5081 C   0  0  0  0  0  0  0  0  0  0  0  0
  -27.6460  -13.1371   19.6858 C   0  0  2  0  0  0  0  0  0  0  0  0
  -32.3231  -27.7647   11.9083 C   0  0  0  0  0  0  0  0  0  0  0  0
  -27.1195  -25.1666   15.0773 C   0  0  0  0  0  0  0  0  0  0  0  0
  -28.4021  -25.4702   12.9487 C   0  0  0  0  0  0  0  0  0  0  0  0
  -27.4432  -27.4537   14.1188 C   0  0  0  0  0  0  0  0  0  0  0  0
  -34.1905  -27.8096   15.2229 C   0  0  0  0  0  0  0  0  0  0  0  0
  -27.6022  -20.7895   21.1903 C   0  0  0  0  0  0  0  0  0  0  0  0
  -30.8110  -16.8948   21.8959 C   0  0  0  0  0  0  0  0  0  0  0  0
  -26.3801  -20.3739   20.3460 C   0  0  0  0  0  0  0  0  0  0  0  0
  -33.1205  -18.9783   20.2451 C   0  0  0  0  0  0  0  0  0  0  0  0
  -31.8232  -18.5526   19.5541 C   0  0  0  0  0  0  0  0  0  0  0  0
  -33.1452  -20.4536   20.6276 C   0  0  0  0  0  0  0  0  0  1  0  0
  -29.4493  -26.2787   15.1122 C   0  0  1  0  0  0  0  0  0  0  0  0
  -32.4612  -27.8400   13.4209 C   0  0  2  0  0  0  0  0  0  0  0  0
  -28.1160  -26.0810   14.3372 C   0  0  0  0  0  0  0  0  0  0  0  0
  -25.8598  -11.5452   20.2839 N   0  0  0  0  0  0  0  0  0  0  0  0
  -30.5824  -18.8461   20.3589 N   0  0  0  0  0  0  0  0  0  0  0  0
  -26.2363  -12.8289   20.1554 N   0  0  0  0  0  0  0  0  0  0  0  0
  -29.6746  -26.0685   17.5676 N   0  0  0  0  0  0  0  0  0  0  0  0
  -29.9723  -13.6094   20.3594 N   0  0  0  0  0  0  0  0  0  0  0  0
  -25.4698  -15.0561   20.4053 N   0  0  0  0  0  0  0  0  0  0  0  0
  -21.8872  -12.5808   21.6025 N   0  0  0  0  0  0  0  0  0  0  0  0
  -27.5662  -26.0325   20.5425 N   0  0  0  0  0  0  0  0  0  0  0  0
  -30.4015  -27.1619   14.4476 N   0  0  0  0  0  0  0  0  0  0  0  0
  -30.1456  -15.6731   21.5017 N   0  0  0  0  0  0  0  0  0  0  0  0
  -33.9063  -27.7279   13.7670 N   0  3  0  0  0  0  0  0  0  0  0  0
  -22.6620  -14.7208   21.3220 O   0  0  0  0  0  0  0  0  0  0  0  0
  -27.6102  -24.8930   18.5122 O   0  0  0  0  0  0  0  0  0  0  0  0
  -28.6994  -27.9577   16.6105 O   0  0  0  0  0  0  0  0  0  0  0  0
  -32.1255  -25.6176   14.3072 O   0  0  0  0  0  0  0  0  0  0  0  0
  -31.8789  -14.9204   20.2031 O   0  0  0  0  0  0  0  0  0  0  0  0
  -21.6151   -7.0176   21.7094 O   0  0  0  0  0  0  0  0  0  0  0  0
  -33.0206  -21.2367   19.4412 O   0  0  0  0  0  0  0  0  0  1  0  0
  -18.6313   -6.8571   26.3435 F   0  0  0  0  0  0  0  0  0  0  0  0
  -22.0688   -5.0735   23.6218 F   0  0  0  0  0  0  0  0  0  0  0  0
  1  2  1  0  0  0  0
  1  5  2  0  0  0  0
  2  6  2  0  0  0  0
  3  8  2  0  0  0  0
  3 17  1  0  0  0  0
  4  9  1  0  0  0  0
  4 17  2  0  0  0  0
  5 19  1  0  0  0  0
  6 21  1  0  0  0  0
  7 10  2  0  0  0  0
  7 20  1  0  0  0  0
  8 24  1  0  0  0  0
  9 24  2  0  0  0  0
 10 25  1  0  0  0  0
 11 12  2  0  0  0  0
 11 26  1  0  0  0  0
 12 27  1  0  0  0  0
 13 22  1  0  0  0  0
 13 25  2  0  0  0  0
 14 23  1  0  0  0  0
 14 30  2  0  0  0  0
 15 27  2  0  0  0  0
 15 28  1  0  0  0  0
 16 23  2  0  0  0  0
 16 70  1  0  0  0  0
 17 29  1  0  0  0  0
 18 29  1  0  0  0  0
 18 31  2  0  0  0  0
 18 32  1  0  0  0  0
 19 21  2  0  0  0  0
 19 37  1  0  0  0  0
 20 22  2  0  0  0  0
 20 38  1  0  0  0  0
 21 51  1  0  0  0  0
 22 39  1  0  0  0  0
 23 60  1  0  0  0  0
 24 85  1  0  0  0  0
 25 86  1  0  0  0  0
 26 28  2  0  0  0  0
 26 85  1  0  0  0  0
 27 87  1  0  0  0  0
 28 88  1  0  0  0  0
 29 69  2  0  0  0  0
 30 61  1  0  0  0  0
 30 70  1  0  0  0  0
 31 71  1  0  0  0  0
 31 74  1  0  0  0  0
 32 75  1  0  0  0  0
 32 80  2  0  0  0  0
 33 52  1  0  0  0  0
 33 76  1  0  0  0  0
 33 81  2  0  0  0  0
 34 66  1  0  0  0  0
 34 72  1  0  0  0  0
 34 82  2  0  0  0  0
 35 67  1  0  0  0  0
 35 77  1  0  0  0  0
 35 83  2  0  0  0  0
 36 73  1  0  0  0  0
 36 78  1  0  0  0  0
 36 84  2  0  0  0  0
 37 40  1  0  0  0  0
 38 52  1  0  0  0  0
 39 72  1  0  0  0  0
 40 45  1  0  0  0  0
 41 42  1  0  0  0  0
 41 43  1  0  0  0  0
 42 46  1  0  0  0  0
 43 47  1  0  0  0  0
 44 48  1  0  0  0  0
 44 49  1  0  0  0  0
 45 51  1  0  0  0  0
 46 53  1  0  0  0  0
 47 53  1  0  0  0  0
 48 54  1  0  0  0  0
 49 73  1  0  0  0  0
 50 54  1  0  0  0  0
 50 73  1  0  0  0  0
 51 76  1  0  0  0  0
 52 72  1  0  0  0  0
 53 62  1  0  0  0  0
 54 71  1  0  0  0  0
 55 67  1  0  0  0  0
 56 68  1  0  0  0  0
 57 68  1  0  0  0  0
 58 68  1  0  0  0  0
 59 79  1  0  0  0  0
 60 62  1  0  0  0  0
 61 78  1  0  0  0  0
 63 64  1  0  0  0  0
 63 65  1  0  0  0  0
 64 70  1  0  0  0  0
 65 86  1  0  0  0  0
 66 68  1  0  0  0  0
 66 77  1  0  0  0  0
 67 79  1  0  0  0  0
 69 71  1  0  0  0  0
M  CHG  1  79   1
M  ISO  4  36 100  65 101  78 100  86 101
M  END
> <Batch ID>
0090

> <Smiles>
CNC(C)C(=O)NC(C(=O)N1Cc2cc([101O:1][101CH2:1]CCn3cc(CCC4CCCCC4)cc3C[100NH:0][100C:0](=O)N3CCCC(n4nc(-c5ccc(Oc6ccc(F)cc6F)cc5)c(C(N)=O)c4N)C3)ccc2CC1C(=O)NC1CCCc2ccccc21)C(C)(C)C

> <Shape>
0.248

> <Color>
0.196

> <Negative vol penalty>
0.000

$$$$

  -OEChem-04052319093D

 93101  0     1  0  0  0  0  0999 V2000
  -32.4199  -23.5459   23.6204 C   0  0  0  0  0  0  0  0  0  0  0  0
  -31.8941  -22.5017   22.8663 C   0  0  0  0  0  0  0  0  0  0  0  0
  -27.6084  -25.6736   17.7709 C   0  0  0  0  0  0  0  0  0  0  0  0
  -27.5624  -25.5139   20.1812 C   0  0  0  0  0  0  0  0  0  0  0  0
  -32.1107  -23.6499   24.9759 C   0  0  0  0  0  0  0  0  0  0  0  0
  -31.0597  -21.5602   23.4677 C   0  0  0  0  0  0  0  0  0  0  0  0
  -26.2814  -18.7089   20.9096 C   0  0  0  0  0  0  0  0  0  0  0  0
  -26.4641  -26.4704   17.8018 C   0  0  0  0  0  0  0  0  0  0  0  0
  -26.4180  -26.3109   20.2121 C   0  0  0  0  0  0  0  0  0  0  0  0
  -26.1408  -17.4475   20.3326 C   0  0  0  0  0  0  0  0  0  0  0  0
  -25.6654  -29.5964   19.9685 C   0  0  0  0  0  0  0  0  0  0  0  0
  -25.6181  -30.6236   20.9110 C   0  0  0  0  0  0  0  0  0  0  0  0
  -25.2996  -16.5908   22.4249 C   0  0  0  0  0  0  0  0  0  0  0  0
  -28.7074  -13.3424   20.6085 C   0  0  0  0  0  0  0  0  0  0  0  0
  -23.6470  -29.6307   21.8941 C   0  0  0  0  0  0  0  0  0  0  0  0
  -28.1576  -25.1953   18.9606 C   0  0  0  0  0  0  0  0  0  0  0  0
  -30.6782  -24.8033   18.9836 C   0  0  0  0  0  0  0  0  0  0  0  0
  -31.2642  -22.7147   25.5920 C   0  0  0  0  0  0  0  0  0  0  0  0
  -25.9419  -18.9185   22.2539 C   0  0  0  0  0  0  0  0  0  0  0  0
  -30.7399  -21.6510   24.8330 C   0  0  0  0  0  0  0  0  0  0  0  0
  -25.4344  -17.8564   23.0159 C   0  0  0  0  0  0  0  0  0  0  0  0
  -27.4927  -13.0709   19.9319 C   0  0  0  0  0  0  0  0  0  0  0  0
  -25.8689  -26.7891   19.0223 C   0  0  0  0  0  0  0  0  0  0  0  0
  -25.6526  -16.3875   21.0911 C   0  0  0  0  0  0  0  0  0  0  0  0
  -24.7035  -28.5864   19.9888 C   0  0  0  0  0  0  0  0  0  0  0  0
  -24.6089  -30.6407   21.8738 C   0  0  0  0  0  0  0  0  0  0  0  0
  -23.6944  -28.6036   20.9516 C   0  0  0  0  0  0  0  0  0  0  0  0
  -29.3394  -24.3716   18.9293 C   0  0  0  0  0  0  0  0  0  0  0  0
  -29.6833  -13.5093   19.6508 C   0  0  0  0  0  0  0  0  0  0  0  0
  -27.7632  -13.0800   18.5813 C   0  0  0  0  0  0  0  0  0  0  0  0
  -31.4150  -23.6459   18.9219 C   0  0  0  0  0  0  0  0  0  0  0  0
  -31.2084  -26.1319   19.0813 C   0  0  0  0  0  0  0  0  0  0  0  0
  -27.5322  -19.8171   24.8552 C   0  0  0  0  0  0  0  0  0  0  0  0
  -24.5762  -19.8084   26.1910 C   0  0  0  0  0  0  0  0  0  0  0  0
  -21.3726  -18.6335   26.1297 C   0  0  0  0  0  0  0  0  0  0  0  0
  -30.1520  -18.0916   20.4744 C   0  0  0  0  0  0  0  0  0  0  0  0
  -30.9966  -22.8415   27.0708 C   0  0  0  0  0  0  0  0  0  0  0  0
  -26.0742  -20.2914   22.8539 C   0  0  0  0  0  0  0  0  0  0  0  0
  -25.0365  -18.0339   24.4576 C   0  0  0  0  0  0  0  0  0  0  0  0
  -29.8039  -22.0162   27.5469 C   0  0  0  0  0  0  0  0  0  0  0  0
  -31.2412  -19.1834   17.2004 C   0  0  0  0  0  0  0  0  0  0  0  0
  -29.8703  -20.6033   26.9759 C   0  0  0  0  0  0  0  0  0  0  0  0
  -30.9994  -20.6914   17.2866 C   0  0  0  0  0  0  0  0  0  0  0  0
  -30.1472  -18.4057   17.9261 C   0  0  0  0  0  0  0  0  0  0  0  0
  -29.7155  -20.3014   19.4405 C   0  0  0  0  0  0  0  0  0  0  0  0
  -29.8111  -20.6241   25.4437 C   0  0  1  0  0  0  0  0  0  0  0  0
  -26.1824  -20.2706   24.3755 C   0  0  1  0  0  0  0  0  0  0  0  0
  -30.7998  -21.1444   18.7451 C   0  0  2  0  0  0  0  0  0  0  0  0
  -26.1806  -11.5617   21.4591 C   0  0  0  0  0  0  0  0  0  0  0  0
  -19.1977  -18.7770   27.3732 C   0  0  0  0  0  0  0  0  0  0  0  0
  -24.2195  -15.1868   15.7083 C   0  0  0  0  0  0  0  0  0  0  0  0
  -25.8146  -13.5901   14.6283 C   0  0  0  0  0  0  0  0  0  0  0  0
  -31.2995  -12.3321   15.4336 C   0  0  0  0  0  0  0  0  0  0  0  0
  -29.6633  -10.9696   16.7498 C   0  0  0  0  0  0  0  0  0  0  0  0
  -25.6985  -17.9794   28.3601 C   0  0  0  0  0  0  0  0  0  0  0  0
  -23.3459  -17.4043   28.9947 C   0  0  0  0  0  0  0  0  0  0  0  0
  -24.1497  -19.7574   29.1933 C   0  0  0  0  0  0  0  0  0  0  0  0
  -31.6588  -13.7593   22.3110 C   0  0  0  0  0  0  0  0  0  0  0  0
  -32.9895  -15.2161   20.7942 C   0  0  0  0  0  0  0  0  0  0  0  0
  -19.9657  -19.7433   23.7742 C   0  0  0  0  0  0  0  0  0  0  0  0
  -31.1214  -13.8094   19.8072 C   0  0  0  0  0  0  0  0  0  0  0  0
  -26.8650  -12.8569   17.4282 C   0  0  0  0  0  0  0  0  0  0  0  0
  -25.9769  -14.0845   17.1259 C   0  0  0  0  0  0  0  0  0  0  0  0
  -29.7851  -13.4439   17.1515 C   0  0  0  0  0  0  0  0  0  0  0  0
  -30.6035  -15.8196   21.3639 C   0  0  0  0  0  0  0  0  0  0  0  0
  -25.6602  -14.0288   21.3946 C   0  0  0  0  0  0  0  0  0  1  0  0
  -26.1426  -12.8179   20.5843 C   0  0  1  0  0  0  0  0  0  0  0  0
  -23.7263  -18.7816   26.8997 C   0  0  1  0  0  0  0  0  0  0  0  0
  -20.0364  -19.3455   26.2391 C   0  0  2  0  0  0  0  0  0  0  0  0
  -25.0466  -13.9147   15.9104 C   0  0  0  0  0  0  0  0  0  0  0  0
  -30.5910  -12.1858   16.7821 C   0  0  0  0  0  0  0  0  0  0  0  0
  -24.2393  -18.4765   28.3353 C   0  0  0  0  0  0  0  0  0  0  0  0
  -31.5735  -14.6536   21.0572 C   0  0  0  0  0  0  0  0  0  0  0  0
  -29.2292  -23.0435   18.8397 N   0  0  0  0  0  0  0  0  0  0  0  0
  -29.0979  -13.3472   18.4222 N   0  0  0  0  0  0  0  0  0  0  0  0
  -30.5081  -22.6307   18.8372 N   0  0  0  0  0  0  0  0  0  0  0  0
  -25.1903  -19.3937   25.0008 N   0  0  0  0  0  0  0  0  0  0  0  0
  -30.0210  -18.8724   19.3140 N   0  0  0  0  0  0  0  0  0  0  0  0
  -32.7438  -23.4076   18.9322 N   0  0  0  0  0  0  0  0  0  0  0  0
  -30.3110  -27.2071   19.1346 N   0  0  0  0  0  0  0  0  0  0  0  0
  -28.4525  -20.8386   24.9934 N   0  0  0  0  0  0  0  0  0  0  0  0
  -22.3561  -19.2800   26.8481 N   0  0  0  0  0  0  0  0  0  0  0  0
  -30.4346  -16.7470   20.2674 N   0  0  0  0  0  0  0  0  0  0  0  0
  -19.2684  -19.2036   24.9698 N   0  3  0  0  0  0  0  0  0  0  0  0
  -32.4417  -26.3599   19.1036 O   0  0  0  0  0  0  0  0  0  0  0  0
  -27.7240  -18.6287   25.0846 O   0  0  0  0  0  0  0  0  0  0  0  0
  -24.6852  -20.9391   26.6719 O   0  0  0  0  0  0  0  0  0  0  0  0
  -21.5276  -17.6046   25.4755 O   0  0  0  0  0  0  0  0  0  0  0  0
  -30.0313  -18.5593   21.6118 O   0  0  0  0  0  0  0  0  0  0  0  0
  -24.7523  -27.5669   19.0529 O   0  0  0  0  0  0  0  0  0  0  0  0
  -25.5150  -15.1552   20.5306 O   0  0  0  0  0  0  0  0  0  1  0  0
  -24.5645  -31.6263   22.7798 F   0  0  0  0  0  0  0  0  0  0  0  0
  -22.7682  -27.6354   20.9767 F   0  0  0  0  0  0  0  0  0  0  0  0
  1  2  1  0  0  0  0
  1  5  2  0  0  0  0
  2  6  2  0  0  0  0
  3  8  2  0  0  0  0
  3 16  1  0  0  0  0
  4  9  1  0  0  0  0
  4 16  2  0  0  0  0
  5 18  1  0  0  0  0
  6 20  1  0  0  0  0
  7 10  2  0  0  0  0
  7 19  1  0  0  0  0
  8 23  1  0  0  0  0
  9 23  2  0  0  0  0
 10 24  1  0  0  0  0
 11 12  2  0  0  0  0
 11 25  1  0  0  0  0
 12 26  1  0  0  0  0
 13 21  1  0  0  0  0
 13 24  2  0  0  0  0
 14 22  1  0  0  0  0
 14 29  2  0  0  0  0
 15 26  2  0  0  0  0
 15 27  1  0  0  0  0
 16 28  1  0  0  0  0
 17 28  1  0  0  0  0
 17 31  2  0  0  0  0
 17 32  1  0  0  0  0
 18 20  2  0  0  0  0
 18 37  1  0  0  0  0
 19 21  2  0  0  0  0
 19 38  1  0  0  0  0
 20 46  1  0  0  0  0
 21 39  1  0  0  0  0
 22 30  2  0  0  0  0
 22 67  1  0  0  0  0
 23 90  1  0  0  0  0
 24 91  1  0  0  0  0
 25 27  2  0  0  0  0
 25 90  1  0  0  0  0
 26 92  1  0  0  0  0
 27 93  1  0  0  0  0
 28 74  2  0  0  0  0
 29 61  1  0  0  0  0
 29 75  1  0  0  0  0
 30 62  1  0  0  0  0
 30 75  1  0  0  0  0
 31 76  1  0  0  0  0
 31 79  1  0  0  0  0
 32 80  1  0  0  0  0
 32 85  2  0  0  0  0
 33 47  1  0  0  0  0
 33 81  1  0  0  0  0
 33 86  2  0  0  0  0
 34 68  1  0  0  0  0
 34 77  1  0  0  0  0
 34 87  2  0  0  0  0
 35 69  1  0  0  0  0
 35 82  1  0  0  0  0
 35 88  2  0  0  0  0
 36 78  1  0  0  0  0
 36 83  1  0  0  0  0
 36 89  2  0  0  0  0
 37 40  1  0  0  0  0
 38 47  1  0  0  0  0
 39 77  1  0  0  0  0
 40 42  1  0  0  0  0
 41 43  1  0  0  0  0
 41 44  1  0  0  0  0
 42 46  1  0  0  0  0
 43 48  1  0  0  0  0
 44 78  1  0  0  0  0
 45 48  1  0  0  0  0
 45 78  1  0  0  0  0
 46 81  1  0  0  0  0
 47 77  1  0  0  0  0
 48 76  1  0  0  0  0
 49 67  1  0  0  0  0
 50 69  1  0  0  0  0
 51 70  1  0  0  0  0
 52 70  1  0  0  0  0
 53 71  1  0  0  0  0
 54 71  1  0  0  0  0
 55 72  1  0  0  0  0
 56 72  1  0  0  0  0
 57 72  1  0  0  0  0
 58 73  1  0  0  0  0
 59 73  1  0  0  0  0
 60 84  1  0  0  0  0
 61 73  1  0  0  0  0
 62 63  1  0  0  0  0
 63 70  1  0  0  0  0
 64 71  1  0  0  0  0
 64 75  1  0  0  0  0
 65 73  1  0  0  0  0
 65 83  1  0  0  0  0
 66 67  1  0  0  0  0
 66 91  1  0  0  0  0
 68 72  1  0  0  0  0
 68 82  1  0  0  0  0
 69 84  1  0  0  0  0
 74 76  1  0  0  0  0
M  CHG  1  84   1
M  ISO  4  36 100  66 101  83 100  91 101
M  END
> <Batch ID>
0090

> <Smiles>
CNC(C)C(=O)NC(C(=O)N1Cc2cc([101O:1][101CH2:1]C(C)c3cc(CC(C)(C)C[100NH:0][100C:0](=O)N4CCCC(n5nc(-c6ccc(Oc7ccc(F)cc7F)cc6)c(C(N)=O)c5N)C4)n(CC(C)C)c3CCC(C)C)ccc2CC1C(=O)NC1CCCc2ccccc21)C(C)(C)C

> <Shape>
0.215

> <Color>
0.061

> <Negative vol penalty>
0.000

$$$$

  -OEChem-04052319093D

 87 95  0     1  0  0  0  0  0999 V2000
  -31.7158  -12.7533   22.0271 C   0  0  0  0  0  0  0  0  0  0  0  0
  -31.1626  -14.0024   22.2899 C   0  0  0  0  0  0  0  0  0  0  0  0
  -23.1095  -27.8908   19.1511 C   0  0  0  0  0  0  0  0  0  0  0  0
  -23.5272  -27.4585   21.4911 C   0  0  0  0  0  0  0  0  0  0  0  0
  -31.1038  -11.9002   21.1098 C   0  0  0  0  0  0  0  0  0  0  0  0
  -29.9976  -14.3996   21.6346 C   0  0  0  0  0  0  0  0  0  0  0  0
  -26.6425  -16.5427   24.7644 C   0  0  0  0  0  0  0  0  0  0  0  0
  -21.7753  -27.5211   19.3209 C   0  0  0  0  0  0  0  0  0  0  0  0
  -22.1929  -27.0889   21.6610 C   0  0  0  0  0  0  0  0  0  0  0  0
  -26.8749  -17.8657   25.1378 C   0  0  0  0  0  0  0  0  0  0  0  0
  -19.2084  -28.6333   22.0188 C   0  0  0  0  0  0  0  0  0  0  0  0
  -18.5355  -29.1344   23.1331 C   0  0  0  0  0  0  0  0  0  0  0  0
  -25.2639  -18.6043   23.5012 C   0  0  0  0  0  0  0  0  0  0  0  0
  -28.6280  -20.4172   21.9632 C   0  0  0  0  0  0  0  0  0  0  0  0
  -31.2958  -21.2330   21.9790 C   0  0  0  0  0  0  0  0  0  0  0  0
  -18.1381  -26.8804   23.9068 C   0  0  0  0  0  0  0  0  0  0  0  0
  -23.9855  -27.8594   20.2362 C   0  0  0  0  0  0  0  0  0  0  0  0
  -25.9141  -29.5288   20.2012 C   0  0  0  0  0  0  0  0  0  0  0  0
  -29.9254  -12.2832   20.4501 C   0  0  0  0  0  0  0  0  0  0  0  0
  -25.7255  -16.2408   23.7473 C   0  0  0  0  0  0  0  0  0  0  0  0
  -29.3700  -13.5513   20.7066 C   0  0  0  0  0  0  0  0  0  0  0  0
  -25.0198  -17.2765   23.1185 C   0  0  0  0  0  0  0  0  0  0  0  0
  -29.0143  -21.5243   22.7186 C   0  0  0  0  0  0  0  0  0  0  0  0
  -29.5757  -19.7179   21.2156 C   0  0  0  0  0  0  0  0  0  0  0  0
  -30.3481  -21.9322   22.7266 C   0  0  0  0  0  0  0  0  0  0  0  0
  -30.9095  -20.1259   21.2235 C   0  0  0  0  0  0  0  0  0  0  0  0
  -21.3170  -27.1202   20.5759 C   0  0  0  0  0  0  0  0  0  0  0  0
  -26.1877  -18.8969   24.5042 C   0  0  0  0  0  0  0  0  0  0  0  0
  -19.3461  -27.2557   21.8484 C   0  0  0  0  0  0  0  0  0  0  0  0
  -18.0004  -28.2580   24.0772 C   0  0  0  0  0  0  0  0  0  0  0  0
  -18.8110  -26.3792   22.7925 C   0  0  0  0  0  0  0  0  0  0  0  0
  -25.3639  -28.2405   20.0612 C   0  0  0  0  0  0  0  0  0  0  0  0
  -27.2507  -29.3624   19.9327 C   0  0  0  0  0  0  0  0  0  0  0  0
  -25.2741  -30.7653   20.5434 C   0  0  0  0  0  0  0  0  0  0  0  0
  -25.9167  -14.8521   20.8944 C   0  0  0  0  0  0  0  0  0  0  0  0
  -22.6864  -15.1377   20.9716 C   0  0  0  0  0  0  0  0  0  0  0  0
  -19.9497  -16.7555   22.2126 C   0  0  0  0  0  0  0  0  0  0  0  0
  -30.9314  -24.6553   20.3164 C   0  0  0  0  0  0  0  0  0  0  0  0
  -29.3262  -11.3460   19.4316 C   0  0  0  0  0  0  0  0  0  0  0  0
  -25.4665  -14.8067   23.3746 C   0  0  0  0  0  0  0  0  0  0  0  0
  -24.0100  -17.0040   22.0347 C   0  0  0  0  0  0  0  0  0  0  0  0
  -27.8869  -11.6915   19.0585 C   0  0  0  0  0  0  0  0  0  0  0  0
  -30.2509  -26.6102   17.4195 C   0  0  0  0  0  0  0  0  0  0  0  0
  -27.7501  -13.1862   18.7861 C   0  0  0  0  0  0  0  0  0  0  0  0
  -28.9709  -27.3660   17.7807 C   0  0  0  0  0  0  0  0  0  0  0  0
  -30.2531  -25.1962   17.9961 C   0  0  0  0  0  0  0  0  0  0  0  0
  -28.7287  -25.8749   19.8097 C   0  0  0  0  0  0  0  0  0  0  0  0
  -28.0935  -14.0081   20.0343 C   0  0  1  0  0  0  0  0  0  0  0  0
  -24.8889  -14.6490   21.9715 C   0  0  1  0  0  0  0  0  0  0  0  0
  -28.7047  -27.3252   19.2975 C   0  0  2  0  0  0  0  0  0  0  0  0
  -29.0234  -18.8540   18.9276 C   0  0  0  0  0  0  0  0  0  0  0  0
  -33.0340  -18.7731   21.3228 C   0  0  0  0  0  0  0  0  0  0  0  0
  -32.5875  -20.2756   19.3485 C   0  0  0  0  0  0  0  0  0  0  0  0
  -17.4451  -16.7902   22.0612 C   0  0  0  0  0  0  0  0  0  0  0  0
  -22.8716  -16.5460   18.2712 C   0  0  0  0  0  0  0  0  0  0  0  0
  -20.5367  -17.3782   18.6235 C   0  0  0  0  0  0  0  0  0  0  0  0
  -20.9763  -14.9272   18.4757 C   0  0  0  0  0  0  0  0  0  0  0  0
  -19.6513  -16.1154   25.0866 C   0  0  0  0  0  0  0  0  0  0  0  0
  -29.1389  -18.5352   20.4151 C   0  0  0  0  0  0  0  0  0  0  0  0
  -27.9721  -22.2647   23.5181 C   0  0  0  0  0  0  0  0  0  0  0  0
  -30.7849  -23.1148   23.5273 C   0  0  0  0  0  0  0  0  0  0  0  0
  -28.0189  -21.9654   25.0180 C   0  0  0  0  0  0  0  0  0  0  0  0
  -31.4800  -24.1962   22.6928 C   0  0  0  0  0  0  0  0  0  0  0  0
  -27.7157  -20.5096   25.3529 C   0  0  0  0  0  0  0  0  0  1  0  0
  -31.9418  -19.3924   20.4318 C   0  0  0  0  0  0  0  0  0  0  0  0
  -21.6959  -16.1930   20.5425 C   0  0  1  0  0  0  0  0  0  0  0  0
  -18.6514  -16.2331   22.8007 C   0  0  2  0  0  0  0  0  0  0  0  0
  -21.5405  -16.2667   18.9973 C   0  0  0  0  0  0  0  0  0  0  0  0
  -26.2765  -27.3234   19.7294 N   0  0  0  0  0  0  0  0  0  0  0  0
  -27.4136  -28.0363   19.6586 N   0  0  0  0  0  0  0  0  0  0  0  0
  -23.7965  -15.5860   21.7014 N   0  0  0  0  0  0  0  0  0  0  0  0
  -29.9966  -25.2277   19.4380 N   0  0  0  0  0  0  0  0  0  0  0  0
  -28.2909  -30.2225   19.9066 N   0  0  0  0  0  0  0  0  0  0  0  0
  -23.8940  -30.7581   20.7876 N   0  0  0  0  0  0  0  0  0  0  0  0
  -26.9915  -13.9872   20.9722 N   0  0  0  0  0  0  0  0  0  0  0  0
  -20.4561  -15.9028   21.2546 N   0  0  0  0  0  0  0  0  0  0  0  0
  -30.6144  -24.7339   21.6670 N   0  0  0  0  0  0  0  0  0  0  0  0
  -18.5414  -16.6176   24.2364 N   0  3  0  0  0  0  0  0  0  0  0  0
  -25.9044  -31.8475   20.6139 O   0  0  0  0  0  0  0  0  0  0  0  0
  -25.7464  -15.7277   20.0542 O   0  0  0  0  0  0  0  0  0  0  0  0
  -22.4791  -13.9580   20.6765 O   0  0  0  0  0  0  0  0  0  0  0  0
  -20.4614  -17.8160   22.5648 O   0  0  0  0  0  0  0  0  0  0  0  0
  -31.9741  -24.1190   19.9263 O   0  0  0  0  0  0  0  0  0  0  0  0
  -20.0151  -26.7597   20.7420 O   0  0  0  0  0  0  0  0  0  0  0  0
  -26.4131  -20.1892   24.8663 O   0  0  0  0  0  0  0  0  0  1  0  0
  -17.3556  -28.7394   25.1480 F   0  0  0  0  0  0  0  0  0  0  0  0
  -18.9411  -25.0548   22.6348 F   0  0  0  0  0  0  0  0  0  0  0  0
  1  2  1  0  0  0  0
  1  5  2  0  0  0  0
  2  6  2  0  0  0  0
  3  8  2  0  0  0  0
  3 17  1  0  0  0  0
  4  9  1  0  0  0  0
  4 17  2  0  0  0  0
  5 19  1  0  0  0  0
  6 21  1  0  0  0  0
  7 10  2  0  0  0  0
  7 20  1  0  0  0  0
  8 27  1  0  0  0  0
  9 27  2  0  0  0  0
 10 28  1  0  0  0  0
 11 12  2  0  0  0  0
 11 29  1  0  0  0  0
 12 30  1  0  0  0  0
 13 22  1  0  0  0  0
 13 28  2  0  0  0  0
 14 23  2  0  0  0  0
 14 24  1  0  0  0  0
 15 25  2  0  0  0  0
 15 26  1  0  0  0  0
 16 30  2  0  0  0  0
 16 31  1  0  0  0  0
 17 32  1  0  0  0  0
 18 32  1  0  0  0  0
 18 33  2  0  0  0  0
 18 34  1  0  0  0  0
 19 21  2  0  0  0  0
 19 39  1  0  0  0  0
 20 22  2  0  0  0  0
 20 40  1  0  0  0  0
 21 48  1  0  0  0  0
 22 41  1  0  0  0  0
 23 25  1  0  0  0  0
 23 60  1  0  0  0  0
 24 26  2  0  0  0  0
 24 59  1  0  0  0  0
 25 61  1  0  0  0  0
 26 65  1  0  0  0  0
 27 84  1  0  0  0  0
 28 85  1  0  0  0  0
 29 31  2  0  0  0  0
 29 84  1  0  0  0  0
 30 86  1  0  0  0  0
 31 87  1  0  0  0  0
 32 69  2  0  0  0  0
 33 70  1  0  0  0  0
 33 73  1  0  0  0  0
 34 74  1  0  0  0  0
 34 79  2  0  0  0  0
 35 49  1  0  0  0  0
 35 75  1  0  0  0  0
 35 80  2  0  0  0  0
 36 66  1  0  0  0  0
 36 71  1  0  0  0  0
 36 81  2  0  0  0  0
 37 67  1  0  0  0  0
 37 76  1  0  0  0  0
 37 82  2  0  0  0  0
 38 72  1  0  0  0  0
 38 77  1  0  0  0  0
 38 83  2  0  0  0  0
 39 42  1  0  0  0  0
 40 49  1  0  0  0  0
 41 71  1  0  0  0  0
 42 44  1  0  0  0  0
 43 45  1  0  0  0  0
 43 46  1  0  0  0  0
 44 48  1  0  0  0  0
 45 50  1  0  0  0  0
 46 72  1  0  0  0  0
 47 50  1  0  0  0  0
 47 72  1  0  0  0  0
 48 75  1  0  0  0  0
 49 71  1  0  0  0  0
 50 70  1  0  0  0  0
 51 59  1  0  0  0  0
 52 65  1  0  0  0  0
 53 65  1  0  0  0  0
 54 67  1  0  0  0  0
 55 68  1  0  0  0  0
 56 68  1  0  0  0  0
 57 68  1  0  0  0  0
 58 78  1  0  0  0  0
 60 62  1  0  0  0  0
 61 63  1  0  0  0  0
 62 64  1  0  0  0  0
 63 77  1  0  0  0  0
 64 85  1  0  0  0  0
 66 68  1  0  0  0  0
 66 76  1  0  0  0  0
 67 78  1  0  0  0  0
 69 70  1  0  0  0  0
M  CHG  1  78   1
M  ISO  4  38 100  64 101  77 100  85 101
M  END
> <Batch ID>
0090

> <Smiles>
CCc1cc(CC[101CH2:1][101O:1]c2ccc3c(c2)CN(C(=O)C(NC(=O)C(C)NC)C(C)(C)C)C(C(=O)NC2CCCc4ccccc42)C3)c(CC[100NH:0][100C:0](=O)N2CCCC(n3nc(-c4ccc(Oc5ccc(F)cc5F)cc4)c(C(N)=O)c3N)C2)cc1C(C)C

> <Shape>
0.228

> <Color>
0.068

> <Negative vol penalty>
0.000

$$$$

  -OEChem-04052319093D

 83 91  0     1  0  0  0  0  0999 V2000
  -22.2360  -10.9240   19.0792 C   0  0  0  0  0  0  0  0  0  0  0  0
  -21.8282  -12.2525   19.1434 C   0  0  0  0  0  0  0  0  0  0  0  0
  -27.4587  -23.9178   22.1968 C   0  0  0  0  0  0  0  0  0  0  0  0
  -28.2889  -25.6172   23.7001 C   0  0  0  0  0  0  0  0  0  0  0  0
  -23.4387  -10.5359   19.6682 C   0  0  0  0  0  0  0  0  0  0  0  0
  -22.6224  -13.1936   19.7976 C   0  0  0  0  0  0  0  0  0  0  0  0
  -23.3653  -19.0792   18.2763 C   0  0  0  0  0  0  0  0  0  0  0  0
  -27.7204  -22.9405   23.1569 C   0  0  0  0  0  0  0  0  0  0  0  0
  -28.5505  -24.6398   24.6603 C   0  0  0  0  0  0  0  0  0  0  0  0
  -22.7854  -20.2525   18.7566 C   0  0  0  0  0  0  0  0  0  0  0  0
  -27.8343  -20.0420   25.3480 C   0  0  0  0  0  0  0  0  0  0  0  0
  -26.8531  -19.0771   25.5755 C   0  0  0  0  0  0  0  0  0  0  0  0
  -24.6753  -20.5806   20.2194 C   0  0  0  0  0  0  0  0  0  0  0  0
  -25.2959  -20.8110   26.2128 C   0  0  0  0  0  0  0  0  0  0  0  0
  -18.8858  -26.5188   21.4653 C   0  0  0  0  0  0  0  0  0  0  0  0
  -27.7430  -25.2561   22.4683 C   0  0  0  0  0  0  0  0  0  0  0  0
  -28.0160  -26.3509   20.1804 C   0  0  0  0  0  0  0  0  0  0  0  0
  -24.2527  -11.4746   20.3216 C   0  0  0  0  0  0  0  0  0  0  0  0
  -24.6015  -18.6412   18.7726 C   0  0  0  0  0  0  0  0  0  0  0  0
  -23.8365  -12.8175   20.3971 C   0  0  0  0  0  0  0  0  0  0  0  0
  -25.2700  -19.4027   19.7419 C   0  0  0  0  0  0  0  0  0  0  0  0
  -19.4209  -25.6037   22.3386 C   0  0  0  0  0  0  0  0  0  0  0  0
  -28.2663  -23.3015   24.3887 C   0  0  0  0  0  0  0  0  0  0  0  0
  -23.4390  -21.0019   19.7304 C   0  0  0  0  0  0  0  0  0  0  0  0
  -27.5465  -21.3914   25.5530 C   0  0  0  0  0  0  0  0  0  0  0  0
  -25.5839  -19.4616   26.0078 C   0  0  0  0  0  0  0  0  0  0  0  0
  -26.2773  -21.7759   25.9854 C   0  0  0  0  0  0  0  0  0  0  0  0
  -27.4734  -26.2661   21.4766 C   0  0  0  0  0  0  0  0  0  0  0  0
  -20.4428  -26.3077   23.0035 C   0  0  0  0  0  0  0  0  0  0  0  0
  -27.4478  -27.4802   19.6435 C   0  0  0  0  0  0  0  0  0  0  0  0
  -28.9500  -25.4861   19.5205 C   0  0  0  0  0  0  0  0  0  0  0  0
  -25.6046  -16.0614   20.3354 C   0  0  0  0  0  0  0  0  0  0  0  0
  -28.5245  -17.3983   19.8784 C   0  0  0  0  0  0  0  0  0  0  0  0
  -30.3642  -20.2164   19.3120 C   0  0  0  0  0  0  0  0  0  0  0  0
  -22.3537  -30.4153   20.7779 C   0  0  0  0  0  0  0  0  0  0  0  0
  -25.5213  -10.9989   20.9842 C   0  0  0  0  0  0  0  0  0  0  0  0
  -25.2262  -17.3874   18.2248 C   0  0  0  0  0  0  0  0  0  0  0  0
  -26.6085  -18.9866   20.2928 C   0  0  0  0  0  0  0  0  0  0  0  0
  -26.4865  -12.1286   21.3340 C   0  0  0  0  0  0  0  0  0  0  0  0
  -25.6584  -31.7340   20.9062 C   0  0  0  0  0  0  0  0  0  0  0  0
  -25.7427  -13.2760   22.0101 C   0  0  0  0  0  0  0  0  0  0  0  0
  -26.5473  -30.4899   20.9499 C   0  0  0  0  0  0  0  0  0  0  0  0
  -24.3660  -31.5323   21.6941 C   0  0  0  0  0  0  0  0  0  0  0  0
  -24.4779  -29.0934   21.3580 C   0  0  0  0  0  0  0  0  0  0  0  0
  -24.6825  -13.8724   21.0763 C   0  0  1  0  0  0  0  0  0  0  0  0
  -26.2463  -16.7646   19.1729 C   0  0  1  0  0  0  0  0  0  0  0  0
  -25.7678  -29.2289   20.5309 C   0  0  2  0  0  0  0  0  0  0  0  0
  -21.3487  -25.8079   24.0526 C   0  0  0  0  0  0  0  0  0  0  0  0
  -32.7310  -20.9990   19.0238 C   0  0  0  0  0  0  0  0  0  0  0  0
  -28.9697  -17.1519   22.8869 C   0  0  0  0  0  0  0  0  0  0  0  0
  -30.8690  -18.7684   22.6678 C   0  0  0  0  0  0  0  0  0  0  0  0
  -30.9595  -16.5729   21.4870 C   0  0  0  0  0  0  0  0  0  0  0  0
  -29.8266  -21.2051   16.5747 C   0  0  0  0  0  0  0  0  0  0  0  0
  -18.9991  -24.1689   22.5319 C   0  0  0  0  0  0  0  0  0  0  0  0
  -19.4825  -23.2268   21.4237 C   0  0  0  0  0  0  0  0  0  0  0  0
  -21.0065  -23.1250   21.3471 C   0  0  0  0  0  0  0  0  0  0  0  0
  -19.3946  -28.9191   20.9566 C   0  0  0  0  0  0  0  0  0  0  0  0
  -20.4237  -29.1575   19.8547 C   0  0  0  0  0  0  0  0  0  0  0  0
  -21.4495  -22.2130   20.2111 C   0  0  0  0  0  0  0  0  0  1  0  0
  -29.3888  -18.3676   20.6481 C   0  0  1  0  0  0  0  0  0  0  0  0
  -31.4741  -20.5122   18.3195 C   0  0  2  0  0  0  0  0  0  0  0  0
  -30.0207  -17.7223   21.9137 C   0  0  0  0  0  0  0  0  0  0  0  0
  -26.6258  -27.2623   21.7470 N   0  0  0  0  0  0  0  0  0  0  0  0
  -20.5523  -27.5723   22.5879 N   0  0  0  0  0  0  0  0  0  0  0  0
  -19.5924  -27.6702   21.6525 N   0  0  0  0  0  0  0  0  0  0  0  0
  -26.6315  -27.9838   20.6132 N   0  0  0  0  0  0  0  0  0  0  0  0
  -27.1754  -17.7499   19.7300 N   0  0  0  0  0  0  0  0  0  0  0  0
  -23.6743  -30.3208   21.2471 N   0  0  0  0  0  0  0  0  0  0  0  0
  -27.5718  -28.0818   18.4414 N   0  0  0  0  0  0  0  0  0  0  0  0
  -28.4518  -24.4068   18.7780 N   0  0  0  0  0  0  0  0  0  0  0  0
  -25.3024  -14.7349   20.0934 N   0  0  0  0  0  0  0  0  0  0  0  0
  -30.3617  -18.8921   19.6957 N   0  0  0  0  0  0  0  0  0  0  0  0
  -21.7741  -29.2209   20.3677 N   0  0  0  0  0  0  0  0  0  0  0  0
  -31.0399  -21.5614   17.3543 N   0  3  0  0  0  0  0  0  0  0  0  0
  -30.1903  -25.6555   19.6008 O   0  0  0  0  0  0  0  0  0  0  0  0
  -25.4000  -16.6764   21.3754 O   0  0  0  0  0  0  0  0  0  0  0  0
  -29.0294  -16.3707   19.4195 O   0  0  0  0  0  0  0  0  0  0  0  0
  -29.5802  -21.0752   19.7100 O   0  0  0  0  0  0  0  0  0  0  0  0
  -21.7387  -31.4857   20.7231 O   0  0  0  0  0  0  0  0  0  0  0  0
  -28.5215  -22.3481   25.3260 O   0  0  0  0  0  0  0  0  0  0  0  0
  -22.8749  -22.1473   20.2015 O   0  0  0  0  0  0  0  0  0  1  0  0
  -24.6412  -18.5351   26.2247 F   0  0  0  0  0  0  0  0  0  0  0  0
  -25.9944  -23.0708   26.1829 F   0  0  0  0  0  0  0  0  0  0  0  0
  1  2  1  0  0  0  0
  1  5  2  0  0  0  0
  2  6  2  0  0  0  0
  3  8  2  0  0  0  0
  3 16  1  0  0  0  0
  4  9  1  0  0  0  0
  4 16  2  0  0  0  0
  5 18  1  0  0  0  0
  6 20  1  0  0  0  0
  7 10  2  0  0  0  0
  7 19  1  0  0  0  0
  8 23  1  0  0  0  0
  9 23  2  0  0  0  0
 10 24  1  0  0  0  0
 11 12  2  0  0  0  0
 11 25  1  0  0  0  0
 12 26  1  0  0  0  0
 13 21  1  0  0  0  0
 13 24  2  0  0  0  0
 14 26  2  0  0  0  0
 14 27  1  0  0  0  0
 15 22  2  0  0  0  0
 15 65  1  0  0  0  0
 16 28  1  0  0  0  0
 17 28  1  0  0  0  0
 17 30  2  0  0  0  0
 17 31  1  0  0  0  0
 18 20  2  0  0  0  0
 18 36  1  0  0  0  0
 19 21  2  0  0  0  0
 19 37  1  0  0  0  0
 20 45  1  0  0  0  0
 21 38  1  0  0  0  0
 22 29  1  0  0  0  0
 22 54  1  0  0  0  0
 23 80  1  0  0  0  0
 24 81  1  0  0  0  0
 25 27  2  0  0  0  0
 25 80  1  0  0  0  0
 26 82  1  0  0  0  0
 27 83  1  0  0  0  0
 28 63  2  0  0  0  0
 29 48  1  0  0  0  0
 29 64  2  0  0  0  0
 30 66  1  0  0  0  0
 30 69  1  0  0  0  0
 31 70  1  0  0  0  0
 31 75  2  0  0  0  0
 32 46  1  0  0  0  0
 32 71  1  0  0  0  0
 32 76  2  0  0  0  0
 33 60  1  0  0  0  0
 33 67  1  0  0  0  0
 33 77  2  0  0  0  0
 34 61  1  0  0  0  0
 34 72  1  0  0  0  0
 34 78  2  0  0  0  0
 35 68  1  0  0  0  0
 35 73  1  0  0  0  0
 35 79  2  0  0  0  0
 36 39  1  0  0  0  0
 37 46  1  0  0  0  0
 38 67  1  0  0  0  0
 39 41  1  0  0  0  0
 40 42  1  0  0  0  0
 40 43  1  0  0  0  0
 41 45  1  0  0  0  0
 42 47  1  0  0  0  0
 43 68  1  0  0  0  0
 44 47  1  0  0  0  0
 44 68  1  0  0  0  0
 45 71  1  0  0  0  0
 46 67  1  0  0  0  0
 47 66  1  0  0  0  0
 49 61  1  0  0  0  0
 50 62  1  0  0  0  0
 51 62  1  0  0  0  0
 52 62  1  0  0  0  0
 53 74  1  0  0  0  0
 54 55  1  0  0  0  0
 55 56  1  0  0  0  0
 56 59  1  0  0  0  0
 57 58  1  0  0  0  0
 57 65  1  0  0  0  0
 58 73  1  0  0  0  0
 59 81  1  0  0  0  0
 60 62  1  0  0  0  0
 60 72  1  0  0  0  0
 61 74  1  0  0  0  0
 63 66  1  0  0  0  0
 64 65  1  0  0  0  0
M  CHG  1  74   1
M  ISO  4  35 100  59 101  73 100  81 101
M  END
> <Batch ID>
0090

> <Smiles>
CNC(C)C(=O)NC(C(=O)N1Cc2cc([101O:1][101CH2:1]CCCc3cn(CC[100NH:0][100C:0](=O)N4CCCC(n5nc(-c6ccc(Oc7ccc(F)cc7F)cc6)c(C(N)=O)c5N)C4)nc3C)ccc2CC1C(=O)NC1CCCc2ccccc21)C(C)(C)C

> <Shape>
0.216

> <Color>
0.079

> <Negative vol penalty>
0.000

$$$$

  -OEChem-04052319093D

 86 94  0     1  0  0  0  0  0999 V2000
  -21.3983  -30.4754   20.0719 C   0  0  0  0  0  0  0  0  0  0  0  0
  -21.6081  -29.1927   19.5757 C   0  0  0  0  0  0  0  0  0  0  0  0
  -23.7587   -9.7583   21.6102 C   0  0  0  0  0  0  0  0  0  0  0  0
  -24.3386  -10.8833   23.6681 C   0  0  0  0  0  0  0  0  0  0  0  0
  -22.4304  -31.1454   20.7274 C   0  0  0  0  0  0  0  0  0  0  0  0
  -22.8505  -28.5797   19.7339 C   0  0  0  0  0  0  0  0  0  0  0  0
  -25.8101  -22.1282   20.7005 C   0  0  0  0  0  0  0  0  0  0  0  0
  -28.2089  -18.2507   22.5635 C   0  0  0  0  0  0  0  0  0  0  0  0
  -23.2185   -8.7001   22.3409 C   0  0  0  0  0  0  0  0  0  0  0  0
  -23.7983   -9.8251   24.3989 C   0  0  0  0  0  0  0  0  0  0  0  0
  -26.7952  -21.3031   20.1595 C   0  0  0  0  0  0  0  0  0  0  0  0
  -22.2476   -7.5860   26.8072 C   0  0  0  0  0  0  0  0  0  0  0  0
  -21.4295   -7.8977   27.8931 C   0  0  0  0  0  0  0  0  0  0  0  0
  -27.8563  -18.1041   23.9005 C   0  0  0  0  0  0  0  0  0  0  0  0
  -28.4800  -22.5254   21.3787 C   0  0  0  0  0  0  0  0  0  0  0  0
  -19.9124   -9.0614   26.4161 C   0  0  0  0  0  0  0  0  0  0  0  0
  -24.3188  -10.8499   22.2738 C   0  0  0  0  0  0  0  0  0  0  0  0
  -24.2084  -13.0996   21.0761 C   0  0  0  0  0  0  0  0  0  0  0  0
  -23.6831  -30.5366   20.9023 C   0  0  0  0  0  0  0  0  0  0  0  0
  -26.1543  -23.1667   21.5776 C   0  0  0  0  0  0  0  0  0  0  0  0
  -23.9007  -29.2428   20.3912 C   0  0  0  0  0  0  0  0  0  0  0  0
  -27.4972  -23.3606   21.9314 C   0  0  0  0  0  0  0  0  0  0  0  0
  -29.4502  -17.8037   22.1246 C   0  0  0  0  0  0  0  0  0  0  0  0
  -23.2382   -8.7335   23.7352 C   0  0  0  0  0  0  0  0  0  0  0  0
  -28.1307  -21.5035   20.4963 C   0  0  0  0  0  0  0  0  0  0  0  0
  -21.8981   -8.0121   25.5257 C   0  0  0  0  0  0  0  0  0  0  0  0
  -20.2619   -8.6354   27.6976 C   0  0  0  0  0  0  0  0  0  0  0  0
  -20.7305   -8.7497   25.3302 C   0  0  0  0  0  0  0  0  0  0  0  0
  -24.8775  -11.9431   21.5196 C   0  0  0  0  0  0  0  0  0  0  0  0
  -28.7734  -17.5087   24.7515 C   0  0  0  0  0  0  0  0  0  0  0  0
  -30.2960  -17.2219   23.0552 C   0  0  0  0  0  0  0  0  0  0  0  0
  -25.1711  -13.8199   20.4121 C   0  0  0  0  0  0  0  0  0  0  0  0
  -22.8392  -13.4880   21.2490 C   0  0  0  0  0  0  0  0  0  0  0  0
  -25.8755  -26.3327   21.5245 C   0  0  0  0  0  0  0  0  0  0  0  0
  -26.9920  -26.0920   24.5606 C   0  0  0  0  0  0  0  0  0  0  0  0
  -28.7490  -24.2923   26.8673 C   0  0  0  0  0  0  0  0  0  0  0  0
  -31.1431  -13.9825   20.8125 C   0  0  0  0  0  0  0  0  0  0  0  0
  -24.7827  -31.3187   21.5760 C   0  0  0  0  0  0  0  0  0  0  0  0
  -25.0771  -24.0310   22.1734 C   0  0  0  0  0  0  0  0  0  0  0  0
  -27.9170  -24.4487   22.8845 C   0  0  0  0  0  0  0  0  0  0  0  0
  -25.9544  -30.4531   22.0320 C   0  0  0  0  0  0  0  0  0  0  0  0
  -29.2109  -13.2556   17.9116 C   0  0  0  0  0  0  0  0  0  0  0  0
  -26.3707  -29.4911   20.9238 C   0  0  0  0  0  0  0  0  0  0  0  0
  -27.8209  -12.9411   18.4673 C   0  0  0  0  0  0  0  0  0  0  0  0
  -30.3161  -12.7440   18.8330 C   0  0  0  0  0  0  0  0  0  0  0  0
  -28.8232  -12.8807   20.7891 C   0  0  0  0  0  0  0  0  0  0  0  0
  -25.2269  -28.5348   20.5650 C   0  0  1  0  0  0  0  0  0  0  0  0
  -25.5940  -25.3833   22.6546 C   0  0  1  0  0  0  0  0  0  0  0  0
  -27.6756  -13.4265   19.9222 C   0  0  2  0  0  0  0  0  0  0  0  0
  -29.3752  -18.1125   27.1236 C   0  0  0  0  0  0  0  0  0  0  0  0
  -28.3829  -15.8524   26.6112 C   0  0  0  0  0  0  0  0  0  0  0  0
  -32.7802  -17.4837   23.3450 C   0  0  0  0  0  0  0  0  0  0  0  0
  -29.5230  -24.3704   29.2531 C   0  0  0  0  0  0  0  0  0  0  0  0
  -29.1591  -28.0968   23.7894 C   0  0  0  0  0  0  0  0  0  0  0  0
  -30.4197  -27.4187   25.8435 C   0  0  0  0  0  0  0  0  0  0  0  0
  -28.1619  -28.4582   26.0542 C   0  0  0  0  0  0  0  0  0  0  0  0
  -27.2376  -21.8437   27.5594 C   0  0  0  0  0  0  0  0  0  0  0  0
  -29.8388  -17.9611   20.6762 C   0  0  0  0  0  0  0  0  0  0  0  0
  -30.8259  -19.1028   20.4239 C   0  0  0  0  0  0  0  0  0  0  0  0
  -31.8249  -15.2009   22.8643 C   0  0  0  0  0  0  0  0  0  0  0  0
  -30.2593  -20.4768   20.7624 C   0  0  0  0  0  0  0  0  0  1  0  0
  -28.4271  -17.3339   26.1926 C   0  0  0  0  0  0  0  0  0  0  0  0
  -31.6403  -16.7206   22.6402 C   0  0  1  0  0  0  0  0  0  0  0  0
  -28.3598  -26.0871   25.1995 C   0  0  1  0  0  0  0  0  0  0  0  0
  -28.4304  -23.9090   28.3012 C   0  0  2  0  0  0  0  0  0  0  0  0
  -29.0177  -27.4958   25.2022 C   0  0  0  0  0  0  0  0  0  0  0  0
  -26.1657  -11.9254   21.1669 N   0  0  0  0  0  0  0  0  0  0  0  0
  -29.9885  -17.0622   24.3619 N   0  0  0  0  0  0  0  0  0  0  0  0
  -26.3137  -13.0797   20.4947 N   0  0  0  0  0  0  0  0  0  0  0  0
  -26.8276  -25.2715   23.4357 N   0  0  0  0  0  0  0  0  0  0  0  0
  -30.1208  -13.2417   20.1969 N   0  0  0  0  0  0  0  0  0  0  0  0
  -25.1432  -15.0078   19.7714 N   0  0  0  0  0  0  0  0  0  0  0  0
  -21.9858  -12.6309   21.9571 N   0  0  0  0  0  0  0  0  0  0  0  0
  -25.1153  -27.4861   21.5561 N   0  0  0  0  0  0  0  0  0  0  0  0
  -28.1885  -25.5051   26.5262 N   0  0  0  0  0  0  0  0  0  0  0  0
  -30.8740  -14.4219   22.1030 N   0  0  0  0  0  0  0  0  0  0  0  0
  -28.2938  -22.4301   28.4239 N   0  3  0  0  0  0  0  0  0  0  0  0
  -22.3819  -14.5556   20.7751 O   0  0  0  0  0  0  0  0  0  0  0  0
  -26.7210  -26.0410   20.6868 O   0  0  0  0  0  0  0  0  0  0  0  0
  -26.1003  -26.7925   25.0462 O   0  0  0  0  0  0  0  0  0  0  0  0
  -29.4303  -23.5882   26.1252 O   0  0  0  0  0  0  0  0  0  0  0  0
  -32.2140  -14.2384   20.2516 O   0  0  0  0  0  0  0  0  0  0  0  0
  -22.7109   -7.7012   24.4485 O   0  0  0  0  0  0  0  0  0  0  0  0
  -29.0942  -20.7000   19.9692 O   0  0  0  0  0  0  0  0  0  1  0  0
  -19.4756   -8.9333   28.7402 F   0  0  0  0  0  0  0  0  0  0  0  0
  -20.3890   -9.1608   24.1013 F   0  0  0  0  0  0  0  0  0  0  0  0
  1  2  1  0  0  0  0
  1  5  2  0  0  0  0
  2  6  2  0  0  0  0
  3  9  2  0  0  0  0
  3 17  1  0  0  0  0
  4 10  1  0  0  0  0
  4 17  2  0  0  0  0
  5 19  1  0  0  0  0
  6 21  1  0  0  0  0
  7 11  2  0  0  0  0
  7 20  1  0  0  0  0
  8 14  2  0  0  0  0
  8 23  1  0  0  0  0
  9 24  1  0  0  0  0
 10 24  2  0  0  0  0
 11 25  1  0  0  0  0
 12 13  2  0  0  0  0
 12 26  1  0  0  0  0
 13 27  1  0  0  0  0
 14 30  1  0  0  0  0
 15 22  1  0  0  0  0
 15 25  2  0  0  0  0
 16 27  2  0  0  0  0
 16 28  1  0  0  0  0
 17 29  1  0  0  0  0
 18 29  1  0  0  0  0
 18 32  2  0  0  0  0
 18 33  1  0  0  0  0
 19 21  2  0  0  0  0
 19 38  1  0  0  0  0
 20 22  2  0  0  0  0
 20 39  1  0  0  0  0
 21 47  1  0  0  0  0
 22 40  1  0  0  0  0
 23 31  2  0  0  0  0
 23 58  1  0  0  0  0
 24 83  1  0  0  0  0
 25 84  1  0  0  0  0
 26 28  2  0  0  0  0
 26 83  1  0  0  0  0
 27 85  1  0  0  0  0
 28 86  1  0  0  0  0
 29 67  2  0  0  0  0
 30 62  1  0  0  0  0
 30 68  2  0  0  0  0
 31 63  1  0  0  0  0
 31 68  1  0  0  0  0
 32 69  1  0  0  0  0
 32 72  1  0  0  0  0
 33 73  1  0  0  0  0
 33 78  2  0  0  0  0
 34 48  1  0  0  0  0
 34 74  1  0  0  0  0
 34 79  2  0  0  0  0
 35 64  1  0  0  0  0
 35 70  1  0  0  0  0
 35 80  2  0  0  0  0
 36 65  1  0  0  0  0
 36 75  1  0  0  0  0
 36 81  2  0  0  0  0
 37 71  1  0  0  0  0
 37 76  1  0  0  0  0
 37 82  2  0  0  0  0
 38 41  1  0  0  0  0
 39 48  1  0  0  0  0
 40 70  1  0  0  0  0
 41 43  1  0  0  0  0
 42 44  1  0  0  0  0
 42 45  1  0  0  0  0
 43 47  1  0  0  0  0
 44 49  1  0  0  0  0
 45 71  1  0  0  0  0
 46 49  1  0  0  0  0
 46 71  1  0  0  0  0
 47 74  1  0  0  0  0
 48 70  1  0  0  0  0
 49 69  1  0  0  0  0
 50 62  1  0  0  0  0
 51 62  1  0  0  0  0
 52 63  1  0  0  0  0
 53 65  1  0  0  0  0
 54 66  1  0  0  0  0
 55 66  1  0  0  0  0
 56 66  1  0  0  0  0
 57 77  1  0  0  0  0
 58 59  1  0  0  0  0
 59 61  1  0  0  0  0
 60 63  1  0  0  0  0
 60 76  1  0  0  0  0
 61 84  1  0  0  0  0
 64 66  1  0  0  0  0
 64 75  1  0  0  0  0
 65 77  1  0  0  0  0
 67 69  1  0  0  0  0
M  CHG  1  77   1
M  ISO  4  37 100  61 101  76 100  84 101
M  END
> <Batch ID>
0090

> <Smiles>
CNC(C)C(=O)NC(C(=O)N1Cc2cc([101O:1][101CH2:1]CCc3ccc(C(C)C)nc3C(C)C[100NH:0][100C:0](=O)N3CCCC(n4nc(-c5ccc(Oc6ccc(F)cc6F)cc5)c(C(N)=O)c4N)C3)ccc2CC1C(=O)NC1CCCc2ccccc21)C(C)(C)C

> <Shape>
0.227

> <Color>
0.164

> <Negative vol penalty>
0.000

$$$$

  -OEChem-04052319093D

 87 95  0     1  0  0  0  0  0999 V2000
  -22.3135  -11.4822   19.7926 C   0  0  0  0  0  0  0  0  0  0  0  0
  -21.8503  -12.7929   19.8468 C   0  0  0  0  0  0  0  0  0  0  0  0
  -31.1302  -25.2397   20.3628 C   0  0  0  0  0  0  0  0  0  0  0  0
  -31.2023  -26.9837   22.0333 C   0  0  0  0  0  0  0  0  0  0  0  0
  -23.6163  -11.1874   20.1923 C   0  0  0  0  0  0  0  0  0  0  0  0
  -22.6893  -13.8094   20.3019 C   0  0  0  0  0  0  0  0  0  0  0  0
  -22.8493  -19.6073   18.3359 C   0  0  0  0  0  0  0  0  0  0  0  0
  -32.5194  -25.2916   20.2487 C   0  0  0  0  0  0  0  0  0  0  0  0
  -32.5915  -27.0355   21.9192 C   0  0  0  0  0  0  0  0  0  0  0  0
  -22.2938  -20.7835   18.8377 C   0  0  0  0  0  0  0  0  0  0  0  0
  -35.2473  -25.2571   23.0168 C   0  0  0  0  0  0  0  0  0  0  0  0
  -35.9914  -25.3071   24.1955 C   0  0  0  0  0  0  0  0  0  0  0  0
  -24.3789  -21.2910   19.9396 C   0  0  0  0  0  0  0  0  0  0  0  0
  -36.9322  -27.4247   23.5117 C   0  0  0  0  0  0  0  0  0  0  0  0
  -20.5578  -26.7619   23.2394 C   0  0  0  0  0  0  0  0  0  0  0  0
  -30.4716  -26.0858   21.2551 C   0  0  0  0  0  0  0  0  0  0  0  0
  -28.2845  -25.2264   22.2479 C   0  0  0  0  0  0  0  0  0  0  0  0
  -24.4748  -12.2023   20.6434 C   0  0  0  0  0  0  0  0  0  0  0  0
  -24.1725  -19.2581   18.6418 C   0  0  0  0  0  0  0  0  0  0  0  0
  -24.0044  -13.5277   20.7093 C   0  0  0  0  0  0  0  0  0  0  0  0
  -24.9496  -20.1111   19.4384 C   0  0  0  0  0  0  0  0  0  0  0  0
  -33.2501  -26.1894   21.0269 C   0  0  0  0  0  0  0  0  0  0  0  0
  -23.0577  -21.6241   19.6420 C   0  0  0  0  0  0  0  0  0  0  0  0
  -35.3457  -26.2909   22.0854 C   0  0  0  0  0  0  0  0  0  0  0  0
  -36.8338  -26.3909   24.4430 C   0  0  0  0  0  0  0  0  0  0  0  0
  -36.1881  -27.3747   22.3330 C   0  0  0  0  0  0  0  0  0  0  0  0
  -29.0366  -26.0331   21.3730 C   0  0  0  0  0  0  0  0  0  0  0  0
  -20.6168  -28.0353   22.7476 C   0  0  0  0  0  0  0  0  0  0  0  0
  -26.9776  -25.5461   21.9718 C   0  0  0  0  0  0  0  0  0  0  0  0
  -18.8227  -27.0567   21.8967 C   0  0  0  0  0  0  0  0  0  0  0  0
  -28.7277  -24.2734   23.2231 C   0  0  0  0  0  0  0  0  0  0  0  0
  -25.5589  -16.8347   20.1613 C   0  0  0  0  0  0  0  0  0  0  0  0
  -28.2861  -18.2649   19.1419 C   0  0  0  0  0  0  0  0  0  0  0  0
  -29.8507  -21.1169   18.1101 C   0  0  0  0  0  0  0  0  0  0  0  0
  -23.0042  -29.3295   20.9506 C   0  0  0  0  0  0  0  0  0  0  0  0
  -25.8594  -11.8279   21.1096 C   0  0  0  0  0  0  0  0  0  0  0  0
  -24.7653  -17.9991   18.0708 C   0  0  0  0  0  0  0  0  0  0  0  0
  -26.3814  -19.7917   19.7795 C   0  0  0  0  0  0  0  0  0  0  0  0
  -26.8062  -13.0197   21.2252 C   0  0  0  0  0  0  0  0  0  0  0  0
  -24.9770  -28.2469   18.1916 C   0  0  0  0  0  0  0  0  0  0  0  0
  -26.1232  -14.1759   21.9487 C   0  0  0  0  0  0  0  0  0  0  0  0
  -26.1495  -27.5138   18.8456 C   0  0  0  0  0  0  0  0  0  0  0  0
  -24.5408  -29.4588   19.0120 C   0  0  0  0  0  0  0  0  0  0  0  0
  -25.4098  -28.4392   21.0806 C   0  0  0  0  0  0  0  0  0  0  0  0
  -24.8924  -14.6617   21.1736 C   0  0  1  0  0  0  0  0  0  0  0  0
  -25.9604  -17.4863   18.8683 C   0  0  1  0  0  0  0  0  0  0  0  0
  -25.8489  -27.1772   20.3186 C   0  0  2  0  0  0  0  0  0  0  0  0
  -13.5714  -29.7164   25.1500 C   0  0  0  0  0  0  0  0  0  0  0  0
  -32.0913  -21.9816   17.3823 C   0  0  0  0  0  0  0  0  0  0  0  0
  -29.2351  -18.2395   22.0416 C   0  0  0  0  0  0  0  0  0  0  0  0
  -30.9813  -19.9194   21.4118 C   0  0  0  0  0  0  0  0  0  0  0  0
  -30.9947  -17.6562   20.3629 C   0  0  0  0  0  0  0  0  0  0  0  0
  -28.8151  -21.8963   15.4494 C   0  0  0  0  0  0  0  0  0  0  0  0
  -21.5803  -29.1160   22.9721 C   0  0  0  0  0  0  0  0  0  0  0  0
  -17.5797  -26.8335   21.1170 C   0  0  0  0  0  0  0  0  0  0  0  0
  -14.6127  -28.6713   24.7820 C   0  0  0  0  0  0  0  0  0  0  0  0
  -16.4796  -27.8418   21.4774 C   0  0  0  0  0  0  0  0  0  0  0  0
  -14.9979  -28.7606   23.3056 C   0  0  0  0  0  0  0  0  0  0  0  0
  -16.0701  -27.7302   22.9470 C   0  0  0  0  0  0  0  0  0  0  0  0
  -19.3203  -23.7811   21.8450 C   0  0  0  0  0  0  0  0  0  0  0  0
  -20.8141  -23.7410   21.5190 C   0  0  0  0  0  0  0  0  0  0  0  0
  -18.9770  -24.7691   22.9655 C   0  0  0  0  0  0  0  0  0  0  0  0
  -21.1121  -22.7761   20.3793 C   0  0  0  0  0  0  0  0  0  1  0  0
  -29.2117  -19.3204   19.6970 C   0  0  1  0  0  0  0  0  0  0  0  0
  -30.7636  -21.3943   16.9293 C   0  0  2  0  0  0  0  0  0  0  0  0
  -30.0782  -18.7892   20.8737 C   0  0  0  0  0  0  0  0  0  0  0  0
  -28.2711  -26.8070   20.5989 N   0  0  0  0  0  0  0  0  0  0  0  0
  -19.4377  -26.1797   22.6968 N   0  0  0  0  0  0  0  0  0  0  0  0
  -27.0245  -26.4879   20.9864 N   0  0  0  0  0  0  0  0  0  0  0  0
  -19.5313  -28.1902   21.9195 N   0  3  0  0  0  0  0  0  0  0  0  0
  -26.9138  -18.5463   19.2024 N   0  0  0  0  0  0  0  0  0  0  0  0
  -24.2696  -29.0713   20.3984 N   0  0  0  0  0  0  0  0  0  0  0  0
  -25.8044  -25.1106   22.4781 N   0  0  0  0  0  0  0  0  0  0  0  0
  -30.1054  -24.0672   23.3779 N   0  0  0  0  0  0  0  0  0  0  0  0
  -25.2935  -15.4831   20.0515 N   0  0  0  0  0  0  0  0  0  0  0  0
  -29.9838  -19.8223   18.5655 N   0  0  0  0  0  0  0  0  0  0  0  0
  -22.8288  -28.9247   22.2683 N   0  0  0  0  0  0  0  0  0  0  0  0
  -30.1195  -22.3567   15.9914 N   0  3  0  0  0  0  0  0  0  0  0  0
  -27.9253  -23.6120   23.9247 O   0  0  0  0  0  0  0  0  0  0  0  0
  -25.4959  -17.5081   21.1832 O   0  0  0  0  0  0  0  0  0  0  0  0
  -28.7633  -17.2321   18.6653 O   0  0  0  0  0  0  0  0  0  0  0  0
  -29.0978  -21.9651   18.5836 O   0  0  0  0  0  0  0  0  0  0  0  0
  -22.0960  -29.8753   20.3147 O   0  0  0  0  0  0  0  0  0  0  0  0
  -34.6057  -26.2401   20.9160 O   0  0  0  0  0  0  0  0  0  0  0  0
  -22.5178  -22.7725   20.1336 O   0  0  0  0  0  0  0  0  0  1  0  0
  -37.5471  -26.4395   25.5757 F   0  0  0  0  0  0  0  0  0  0  0  0
  -36.2859  -28.3714   21.4426 F   0  0  0  0  0  0  0  0  0  0  0  0
  1  2  1  0  0  0  0
  1  5  2  0  0  0  0
  2  6  2  0  0  0  0
  3  8  2  0  0  0  0
  3 16  1  0  0  0  0
  4  9  1  0  0  0  0
  4 16  2  0  0  0  0
  5 18  1  0  0  0  0
  6 20  1  0  0  0  0
  7 10  2  0  0  0  0
  7 19  1  0  0  0  0
  8 22  1  0  0  0  0
  9 22  2  0  0  0  0
 10 23  1  0  0  0  0
 11 12  2  0  0  0  0
 11 24  1  0  0  0  0
 12 25  1  0  0  0  0
 13 21  1  0  0  0  0
 13 23  2  0  0  0  0
 14 25  2  0  0  0  0
 14 26  1  0  0  0  0
 15 28  2  0  0  0  0
 15 68  1  0  0  0  0
 16 27  1  0  0  0  0
 17 27  1  0  0  0  0
 17 29  2  0  0  0  0
 17 31  1  0  0  0  0
 18 20  2  0  0  0  0
 18 36  1  0  0  0  0
 19 21  2  0  0  0  0
 19 37  1  0  0  0  0
 20 45  1  0  0  0  0
 21 38  1  0  0  0  0
 22 84  1  0  0  0  0
 23 85  1  0  0  0  0
 24 26  2  0  0  0  0
 24 84  1  0  0  0  0
 25 86  1  0  0  0  0
 26 87  1  0  0  0  0
 27 67  2  0  0  0  0
 28 54  1  0  0  0  0
 28 70  1  0  0  0  0
 29 69  1  0  0  0  0
 29 73  1  0  0  0  0
 30 55  1  0  0  0  0
 30 68  1  0  0  0  0
 30 70  2  0  0  0  0
 31 74  1  0  0  0  0
 31 79  2  0  0  0  0
 32 46  1  0  0  0  0
 32 75  1  0  0  0  0
 32 80  2  0  0  0  0
 33 64  1  0  0  0  0
 33 71  1  0  0  0  0
 33 81  2  0  0  0  0
 34 65  1  0  0  0  0
 34 76  1  0  0  0  0
 34 82  2  0  0  0  0
 35 72  1  0  0  0  0
 35 77  1  0  0  0  0
 35 83  2  0  0  0  0
 36 39  1  0  0  0  0
 37 46  1  0  0  0  0
 38 71  1  0  0  0  0
 39 41  1  0  0  0  0
 40 42  1  0  0  0  0
 40 43  1  0  0  0  0
 41 45  1  0  0  0  0
 42 47  1  0  0  0  0
 43 72  1  0  0  0  0
 44 47  1  0  0  0  0
 44 72  1  0  0  0  0
 45 75  1  0  0  0  0
 46 71  1  0  0  0  0
 47 69  1  0  0  0  0
 48 56  1  0  0  0  0
 49 65  1  0  0  0  0
 50 66  1  0  0  0  0
 51 66  1  0  0  0  0
 52 66  1  0  0  0  0
 53 78  1  0  0  0  0
 54 77  1  0  0  0  0
 55 57  1  0  0  0  0
 56 58  1  0  0  0  0
 57 59  1  0  0  0  0
 58 59  1  0  0  0  0
 60 61  1  0  0  0  0
 60 62  1  0  0  0  0
 61 63  1  0  0  0  0
 62 68  1  0  0  0  0
 63 85  1  0  0  0  0
 64 66  1  0  0  0  0
 64 76  1  0  0  0  0
 65 78  1  0  0  0  0
 67 69  1  0  0  0  0
M  CHG  2  70   1  78   1
M  ISO  4  35 100  63 101  77 100  85 101
M  END
> <Batch ID>
0090

> <Smiles>
CCCCCCc1nc(C[100NH:0][100C:0](=O)N2CCCC(n3nc(-c4ccc(Oc5ccc(F)cc5F)cc4)c(C(N)=O)c3N)C2)cn1CCC[101CH2:1][101O:1]c1ccc2c(c1)CN(C(=O)C(NC(=O)C(C)NC)C(C)(C)C)C(C(=O)NC1CCCc3ccccc31)C2

> <Shape>
0.217

> <Color>
0.066

> <Negative vol penalty>
0.000

$$$$

  -OEChem-04052319093D

 82 90  0     1  0  0  0  0  0999 V2000
  -30.3564  -24.3962   19.1568 C   0  0  0  0  0  0  0  0  0  0  0  0
  -29.1686  -25.0297   18.8094 C   0  0  0  0  0  0  0  0  0  0  0  0
  -28.0331  -16.2341   22.0008 C   0  0  0  0  0  0  0  0  0  0  0  0
  -26.0874  -17.1170   20.8731 C   0  0  0  0  0  0  0  0  0  0  0  0
  -30.8441  -24.5028   20.4575 C   0  0  0  0  0  0  0  0  0  0  0  0
  -28.4743  -25.7798   19.7593 C   0  0  0  0  0  0  0  0  0  0  0  0
  -23.1038  -28.6353   19.3981 C   0  0  0  0  0  0  0  0  0  0  0  0
  -27.7394  -14.9615   21.5111 C   0  0  0  0  0  0  0  0  0  0  0  0
  -25.7937  -15.8444   20.3834 C   0  0  0  0  0  0  0  0  0  0  0  0
  -21.7651  -28.3466   19.6597 C   0  0  0  0  0  0  0  0  0  0  0  0
  -28.0966  -13.2661   18.6075 C   0  0  0  0  0  0  0  0  0  0  0  0
  -29.1470  -12.5174   18.0767 C   0  0  0  0  0  0  0  0  0  0  0  0
  -21.9697  -29.3891   21.8254 C   0  0  0  0  0  0  0  0  0  0  0  0
  -28.7563  -10.7982   19.7286 C   0  0  0  0  0  0  0  0  0  0  0  0
  -21.6240  -23.5037   24.2103 C   0  0  0  0  0  0  0  0  0  0  0  0
  -27.2071  -17.3119   21.6818 C   0  0  0  0  0  0  0  0  0  0  0  0
  -28.3102  -19.6096   21.5757 C   0  0  0  0  0  0  0  0  0  0  0  0
  -30.1484  -25.2444   21.4265 C   0  0  0  0  0  0  0  0  0  0  0  0
  -23.8897  -29.2946   20.3542 C   0  0  0  0  0  0  0  0  0  0  0  0
  -28.9628  -25.9191   21.0710 C   0  0  0  0  0  0  0  0  0  0  0  0
  -23.3174  -29.6873   21.5726 C   0  0  0  0  0  0  0  0  0  0  0  0
  -26.6198  -14.7666   20.7024 C   0  0  0  0  0  0  0  0  0  0  0  0
  -21.1986  -28.7209   20.8746 C   0  0  0  0  0  0  0  0  0  0  0  0
  -27.3761  -12.7809   19.6989 C   0  0  0  0  0  0  0  0  0  0  0  0
  -29.4769  -11.2834   18.6373 C   0  0  0  0  0  0  0  0  0  0  0  0
  -27.7059  -11.5469   20.2594 C   0  0  0  0  0  0  0  0  0  0  0  0
  -27.5096  -18.6266   22.1878 C   0  0  0  0  0  0  0  0  0  0  0  0
  -28.2827  -20.6683   22.4503 C   0  0  0  0  0  0  0  0  0  0  0  0
  -22.4109  -23.3838   25.3209 C   0  0  0  0  0  0  0  0  0  0  0  0
  -20.8007  -24.8326   25.7776 C   0  0  0  0  0  0  0  0  0  0  0  0
  -29.0156  -19.5693   20.3281 C   0  0  0  0  0  0  0  0  0  0  0  0
  -26.5058  -28.5571   22.0022 C   0  0  0  0  0  0  0  0  0  0  0  0
  -26.2883  -31.6425   22.9795 C   0  0  0  0  0  0  0  0  0  0  0  0
  -24.3265  -34.3874   23.4931 C   0  0  0  0  0  0  0  0  0  0  0  0
  -24.3626  -22.4345   26.5998 C   0  0  0  0  0  0  0  0  0  0  0  0
  -30.7257  -25.3329   22.8173 C   0  0  0  0  0  0  0  0  0  0  0  0
  -25.3249  -29.6225   20.0461 C   0  0  0  0  0  0  0  0  0  0  0  0
  -24.1127  -30.4152   22.6242 C   0  0  0  0  0  0  0  0  0  0  0  0
  -29.7021  -25.7733   23.8588 C   0  0  0  0  0  0  0  0  0  0  0  0
  -27.8014  -21.6651   27.1096 C   0  0  0  0  0  0  0  0  0  0  0  0
  -28.9680  -27.0144   23.3738 C   0  0  0  0  0  0  0  0  0  0  0  0
  -28.1913  -20.8933   25.8468 C   0  0  0  0  0  0  0  0  0  0  0  0
  -26.3775  -21.3390   27.5566 C   0  0  0  0  0  0  0  0  0  0  0  0
  -25.7394  -20.7265   25.2573 C   0  0  0  0  0  0  0  0  0  0  0  0
  -28.1747  -26.7151   22.0956 C   0  0  1  0  0  0  0  0  0  0  0  0
  -26.1699  -29.8408   21.2974 C   0  0  1  0  0  0  0  0  0  0  0  0
  -27.1425  -21.0709   24.7315 C   0  0  2  0  0  0  0  0  0  0  0  0
  -19.9543  -25.8102   26.5050 C   0  0  0  0  0  0  0  0  0  0  0  0
  -24.4247  -36.7489   24.3364 C   0  0  0  0  0  0  0  0  0  0  0  0
  -18.2132  -27.6957   19.5913 C   0  0  0  0  0  0  0  0  0  0  0  0
  -26.4008  -30.6106   25.8487 C   0  0  0  0  0  0  0  0  0  0  0  0
  -25.5531  -32.8400   26.6099 C   0  0  0  0  0  0  0  0  0  0  0  0
  -27.7449  -32.6776   25.4300 C   0  0  0  0  0  0  0  0  0  0  0  0
  -23.4635  -35.4789   20.8810 C   0  0  0  0  0  0  0  0  0  0  0  0
  -19.9950  -25.8446   22.5183 C   0  0  0  0  0  0  0  0  0  0  0  0
  -18.8577  -26.2932   21.5906 C   0  0  0  0  0  0  0  0  0  0  0  0
  -19.5365  -24.8452   23.5868 C   0  0  0  0  0  0  0  0  0  0  0  0
  -25.6058  -32.3568   24.1210 C   0  0  1  0  0  0  0  0  0  0  0  0
  -24.5160  -35.8457   23.1163 C   0  0  2  0  0  0  0  0  0  0  0  0
  -19.3453  -27.2738   20.5182 C   0  0  2  0  0  0  0  0  0  1  0  0
  -26.3114  -32.1058   25.4836 C   0  0  0  0  0  0  0  0  0  0  0  0
  -27.0101  -19.0253   23.3606 N   0  0  0  0  0  0  0  0  0  0  0  0
  -20.6354  -24.4060   24.5213 N   0  0  0  0  0  0  0  0  0  0  0  0
  -27.4982  -20.2705   23.4926 N   0  0  0  0  0  0  0  0  0  0  0  0
  -21.8784  -24.2173   26.2747 N   0  3  0  0  0  0  0  0  0  0  0  0
  -25.5136  -30.7075   22.2784 N   0  0  0  0  0  0  0  0  0  0  0  0
  -25.4385  -21.5341   26.4497 N   0  0  0  0  0  0  0  0  0  0  0  0
  -28.8534  -21.8914   22.4217 N   0  0  0  0  0  0  0  0  0  0  0  0
  -28.9367  -18.4041   19.5533 N   0  0  0  0  0  0  0  0  0  0  0  0
  -23.5555  -22.5620   25.4699 N   0  0  0  0  0  0  0  0  0  0  0  0
  -27.6665  -27.9561   21.5539 N   0  0  0  0  0  0  0  0  0  0  0  0
  -25.5311  -33.7622   23.7367 N   0  0  0  0  0  0  0  0  0  0  0  0
  -23.4727  -36.2682   22.1396 N   0  3  0  0  0  0  0  0  0  0  0  0
  -29.7089  -20.5319   19.9204 O   0  0  0  0  0  0  0  0  0  0  0  0
  -25.7674  -28.1432   22.8883 O   0  0  0  0  0  0  0  0  0  0  0  0
  -27.4631  -31.9097   22.7149 O   0  0  0  0  0  0  0  0  0  0  0  0
  -23.2203  -33.8571   23.5677 O   0  0  0  0  0  0  0  0  0  0  0  0
  -24.1873  -23.0678   27.6440 O   0  0  0  0  0  0  0  0  0  0  0  0
  -26.3330  -13.5250   20.2242 O   0  0  0  0  0  0  0  0  0  0  0  0
  -19.8924  -28.4397   21.1328 O   0  0  0  0  0  0  0  0  0  1  0  0
  -30.4846  -10.5639   18.1265 F   0  0  0  0  0  0  0  0  0  0  0  0
  -27.0166  -11.0750   21.3072 F   0  0  0  0  0  0  0  0  0  0  0  0
  1  2  1  0  0  0  0
  1  5  2  0  0  0  0
  2  6  2  0  0  0  0
  3  8  2  0  0  0  0
  3 16  1  0  0  0  0
  4  9  1  0  0  0  0
  4 16  2  0  0  0  0
  5 18  1  0  0  0  0
  6 20  1  0  0  0  0
  7 10  2  0  0  0  0
  7 19  1  0  0  0  0
  8 22  1  0  0  0  0
  9 22  2  0  0  0  0
 10 23  1  0  0  0  0
 11 12  2  0  0  0  0
 11 24  1  0  0  0  0
 12 25  1  0  0  0  0
 13 21  1  0  0  0  0
 13 23  2  0  0  0  0
 14 25  2  0  0  0  0
 14 26  1  0  0  0  0
 15 29  2  0  0  0  0
 15 63  1  0  0  0  0
 16 27  1  0  0  0  0
 17 27  1  0  0  0  0
 17 28  2  0  0  0  0
 17 31  1  0  0  0  0
 18 20  2  0  0  0  0
 18 36  1  0  0  0  0
 19 21  2  0  0  0  0
 19 37  1  0  0  0  0
 20 45  1  0  0  0  0
 21 38  1  0  0  0  0
 22 79  1  0  0  0  0
 23 80  1  0  0  0  0
 24 26  2  0  0  0  0
 24 79  1  0  0  0  0
 25 81  1  0  0  0  0
 26 82  1  0  0  0  0
 27 62  2  0  0  0  0
 28 64  1  0  0  0  0
 28 68  1  0  0  0  0
 29 65  1  0  0  0  0
 29 70  1  0  0  0  0
 30 48  1  0  0  0  0
 30 63  1  0  0  0  0
 30 65  2  0  0  0  0
 31 69  1  0  0  0  0
 31 74  2  0  0  0  0
 32 46  1  0  0  0  0
 32 71  1  0  0  0  0
 32 75  2  0  0  0  0
 33 58  1  0  0  0  0
 33 66  1  0  0  0  0
 33 76  2  0  0  0  0
 34 59  1  0  0  0  0
 34 72  1  0  0  0  0
 34 77  2  0  0  0  0
 35 67  1  0  0  0  0
 35 70  1  0  0  0  0
 35 78  2  0  0  0  0
 36 39  1  0  0  0  0
 37 46  1  0  0  0  0
 38 66  1  0  0  0  0
 39 41  1  0  0  0  0
 40 42  1  0  0  0  0
 40 43  1  0  0  0  0
 41 45  1  0  0  0  0
 42 47  1  0  0  0  0
 43 67  1  0  0  0  0
 44 47  1  0  0  0  0
 44 67  1  0  0  0  0
 45 71  1  0  0  0  0
 46 66  1  0  0  0  0
 47 64  1  0  0  0  0
 49 59  1  0  0  0  0
 50 60  1  0  0  0  0
 51 61  1  0  0  0  0
 52 61  1  0  0  0  0
 53 61  1  0  0  0  0
 54 73  1  0  0  0  0
 55 56  1  0  0  0  0
 55 57  1  0  0  0  0
 56 60  1  0  0  0  0
 57 63  1  0  0  0  0
 58 61  1  0  0  0  0
 58 72  1  0  0  0  0
 59 73  1  0  0  0  0
 60 80  1  0  0  0  0
 62 64  1  0  0  0  0
M  CHG  2  65   1  73   1
M  ISO  4  35 100  60 101  70 100  80 101
M  END
> <Batch ID>
0090

> <Smiles>
CNC(C)C(=O)NC(C(=O)N1Cc2cc([101O:1][101CH:1](C)CCCn3cc([100NH:0][100C:0](=O)N4CCCC(n5nc(-c6ccc(Oc7ccc(F)cc7F)cc6)c(C(N)=O)c5N)C4)nc3C)ccc2CC1C(=O)NC1CCCc2ccccc21)C(C)(C)C

> <Shape>
0.275

> <Color>
0.066

> <Negative vol penalty>
0.000

$$$$

  -OEChem-04052319093D

 89 97  0     1  0  0  0  0  0999 V2000
  -22.8250   -7.9249   21.7989 C   0  0  0  0  0  0  0  0  0  0  0  0
  -23.7388   -8.8004   22.3767 C   0  0  0  0  0  0  0  0  0  0  0  0
  -25.2931  -31.8202   19.6409 C   0  0  0  0  0  0  0  0  0  0  0  0
  -25.2729  -31.3696   22.0144 C   0  0  0  0  0  0  0  0  0  0  0  0
  -21.9543   -8.3805   20.8099 C   0  0  0  0  0  0  0  0  0  0  0  0
  -23.7831  -10.1319   21.9651 C   0  0  0  0  0  0  0  0  0  0  0  0
  -25.0201  -15.0205   25.4403 C   0  0  0  0  0  0  0  0  0  0  0  0
  -24.9162  -33.1402   19.8882 C   0  0  0  0  0  0  0  0  0  0  0  0
  -24.8960  -32.6896   22.2618 C   0  0  0  0  0  0  0  0  0  0  0  0
  -26.1846  -15.7617   25.6361 C   0  0  0  0  0  0  0  0  0  0  0  0
  -26.3856  -35.7200   22.3962 C   0  0  0  0  0  0  0  0  0  0  0  0
  -27.0457  -36.3998   23.4197 C   0  0  0  0  0  0  0  0  0  0  0  0
  -25.4430  -17.3526   23.9814 C   0  0  0  0  0  0  0  0  0  0  0  0
  -24.9423  -36.7170   24.5653 C   0  0  0  0  0  0  0  0  0  0  0  0
  -30.9104  -17.7183   21.0933 C   0  0  0  0  0  0  0  0  0  0  0  0
  -25.4714  -30.9349   20.7040 C   0  0  0  0  0  0  0  0  0  0  0  0
  -27.1700  -29.0622   20.3638 C   0  0  0  0  0  0  0  0  0  0  0  0
  -21.9814   -9.7206   20.3927 C   0  0  0  0  0  0  0  0  0  0  0  0
  -24.0618  -15.4346   24.5041 C   0  0  0  0  0  0  0  0  0  0  0  0
  -22.9128  -10.6056   20.9686 C   0  0  0  0  0  0  0  0  0  0  0  0
  -24.2660  -16.6163   23.7774 C   0  0  0  0  0  0  0  0  0  0  0  0
  -24.7177  -33.5749   21.1987 C   0  0  0  0  0  0  0  0  0  0  0  0
  -26.3976  -16.9264   24.9045 C   0  0  0  0  0  0  0  0  0  0  0  0
  -25.0039  -35.5388   22.4571 C   0  0  0  0  0  0  0  0  0  0  0  0
  -26.3240  -36.8983   24.5044 C   0  0  0  0  0  0  0  0  0  0  0  0
  -24.2823  -36.0372   23.5417 C   0  0  0  0  0  0  0  0  0  0  0  0
  -25.8602  -29.5711   20.4490 C   0  0  0  0  0  0  0  0  0  0  0  0
  -29.9958  -18.6262   21.5799 C   0  0  0  0  0  0  0  0  0  0  0  0
  -29.6735  -17.4961   19.1828 C   0  0  0  0  0  0  0  0  0  0  0  0
  -28.7584  -18.4035   19.6696 C   0  0  0  0  0  0  0  0  0  0  0  0
  -27.0022  -27.7231   20.1090 C   0  0  0  0  0  0  0  0  0  0  0  0
  -28.4260  -29.7395   20.5027 C   0  0  0  0  0  0  0  0  0  0  0  0
  -22.8439  -14.1951   21.8426 C   0  0  0  0  0  0  0  0  0  0  0  0
  -24.4028  -22.8941   21.2108 C   0  0  0  0  0  0  0  0  0  0  0  0
  -20.8808  -16.7724   22.0042 C   0  0  0  0  0  0  0  0  0  0  0  0
  -20.3581  -19.9498   23.1343 C   0  0  0  0  0  0  0  0  0  0  0  0
  -21.0527  -10.1556   19.2868 C   0  0  0  0  0  0  0  0  0  0  0  0
  -22.7985  -14.6383   24.3240 C   0  0  0  0  0  0  0  0  0  0  0  0
  -23.2586  -17.1149   22.7749 C   0  0  0  0  0  0  0  0  0  0  0  0
  -20.9093  -11.6711   19.1726 C   0  0  0  0  0  0  0  0  0  0  0  0
  -22.8822  -25.0972   18.8288 C   0  0  0  0  0  0  0  0  0  0  0  0
  -22.2778  -12.3425   19.2292 C   0  0  0  0  0  0  0  0  0  0  0  0
  -23.6080  -26.4233   19.0520 C   0  0  0  0  0  0  0  0  0  0  0  0
  -22.7024  -24.3322   20.1363 C   0  0  0  0  0  0  0  0  0  0  0  0
  -24.7036  -25.4179   21.1047 C   0  0  0  0  0  0  0  0  0  0  0  0
  -22.9746  -12.0632   20.5663 C   0  0  1  0  0  0  0  0  0  0  0  0
  -22.1288  -14.8774   22.9743 C   0  0  1  0  0  0  0  0  0  0  0  0
  -24.9332  -26.2084   19.8044 C   0  0  2  0  0  0  0  0  0  0  0  0
  -29.5015  -16.8600   17.8457 C   0  0  0  0  0  0  0  0  0  0  0  0
  -25.7055  -21.6641   22.9294 C   0  0  0  0  0  0  0  0  0  0  0  0
  -18.6752  -21.8103   23.0737 C   0  0  0  0  0  0  0  0  0  0  0  0
  -21.7142  -17.4298   19.1436 C   0  0  0  0  0  0  0  0  0  0  0  0
  -20.7861  -19.7311   19.4761 C   0  0  0  0  0  0  0  0  0  0  0  0
  -19.2799  -17.7479   19.6202 C   0  0  0  0  0  0  0  0  0  0  0  0
  -28.7513  -20.1373   17.0685 C   0  0  0  0  0  0  0  0  0  0  0  0
  -26.2808  -20.2966   17.3038 C   0  0  0  0  0  0  0  0  0  0  0  0
  -20.0282  -19.9032   26.0751 C   0  0  0  0  0  0  0  0  0  0  0  0
  -30.1912  -19.2574   22.9352 C   0  0  0  0  0  0  0  0  0  0  0  0
  -27.5540  -18.7913   18.8818 C   0  0  0  0  0  0  0  0  0  0  0  0
  -29.5478  -18.4710   24.0794 C   0  0  0  0  0  0  0  0  0  0  0  0
  -26.8698  -22.7125   20.9050 C   0  0  0  0  0  0  0  0  0  0  0  0
  -27.8082  -21.3764   19.0148 C   0  0  0  0  0  0  0  0  0  0  0  0
  -28.0297  -18.3845   23.9739 C   0  0  0  0  0  0  0  0  0  1  0  0
  -25.7310  -22.8048   21.9193 C   0  0  1  0  0  0  0  0  0  0  0  0
  -20.9306  -18.1885   21.4837 C   0  0  1  0  0  0  0  0  0  0  0  0
  -19.1704  -20.5884   23.8315 C   0  0  2  0  0  0  0  0  0  0  0  0
  -20.6978  -18.2642   19.9483 C   0  0  0  0  0  0  0  0  0  0  0  0
  -27.5999  -20.1496   18.0970 C   0  0  0  0  0  0  0  0  0  0  0  0
  -30.7656  -17.1370   19.8860 N   0  0  0  0  0  0  0  0  0  0  0  0
  -24.9290  -28.6317   20.2633 N   0  0  0  0  0  0  0  0  0  0  0  0
  -28.9034  -18.9851   20.8767 N   0  0  0  0  0  0  0  0  0  0  0  0
  -25.6546  -27.5192   20.0587 N   0  0  0  0  0  0  0  0  0  0  0  0
  -22.0423  -16.2980   22.6300 N   0  0  0  0  0  0  0  0  0  0  0  0
  -23.9802  -24.1683   20.8317 N   0  0  0  0  0  0  0  0  0  0  0  0
  -27.8774  -26.7118   19.9252 N   0  0  0  0  0  0  0  0  0  0  0  0
  -28.4173  -31.1166   20.7633 N   0  0  0  0  0  0  0  0  0  0  0  0
  -22.4213  -12.9003   21.6092 N   0  0  0  0  0  0  0  0  0  0  0  0
  -19.9661  -18.9475   22.2725 N   0  0  0  0  0  0  0  0  0  0  0  0
  -19.5450  -21.0107   25.2108 N   0  3  0  0  0  0  0  0  0  0  0  0
  -26.7525  -21.5004   20.0491 N   0  3  0  0  0  0  0  0  0  0  0  0
  -29.5237  -29.1444   20.3824 O   0  0  0  0  0  0  0  0  0  0  0  0
  -23.7136  -14.7991   21.2257 O   0  0  0  0  0  0  0  0  0  0  0  0
  -23.7629  -21.8607   20.9989 O   0  0  0  0  0  0  0  0  0  0  0  0
  -19.8468  -16.1137   21.8671 O   0  0  0  0  0  0  0  0  0  0  0  0
  -21.5174  -20.3072   23.3316 O   0  0  0  0  0  0  0  0  0  0  0  0
  -24.3502  -34.8629   21.4404 O   0  0  0  0  0  0  0  0  0  0  0  0
  -27.5336  -17.6514   25.0932 O   0  0  0  0  0  0  0  0  0  1  0  0
  -26.9582  -37.5498   25.4880 F   0  0  0  0  0  0  0  0  0  0  0  0
  -22.9548  -35.8652   23.6063 F   0  0  0  0  0  0  0  0  0  0  0  0
  1  2  1  0  0  0  0
  1  5  2  0  0  0  0
  2  6  2  0  0  0  0
  3  8  2  0  0  0  0
  3 16  1  0  0  0  0
  4  9  1  0  0  0  0
  4 16  2  0  0  0  0
  5 18  1  0  0  0  0
  6 20  1  0  0  0  0
  7 10  2  0  0  0  0
  7 19  1  0  0  0  0
  8 22  1  0  0  0  0
  9 22  2  0  0  0  0
 10 23  1  0  0  0  0
 11 12  2  0  0  0  0
 11 24  1  0  0  0  0
 12 25  1  0  0  0  0
 13 21  1  0  0  0  0
 13 23  2  0  0  0  0
 14 25  2  0  0  0  0
 14 26  1  0  0  0  0
 15 28  1  0  0  0  0
 15 69  2  0  0  0  0
 16 27  1  0  0  0  0
 17 27  1  0  0  0  0
 17 31  2  0  0  0  0
 17 32  1  0  0  0  0
 18 20  2  0  0  0  0
 18 37  1  0  0  0  0
 19 21  2  0  0  0  0
 19 38  1  0  0  0  0
 20 46  1  0  0  0  0
 21 39  1  0  0  0  0
 22 86  1  0  0  0  0
 23 87  1  0  0  0  0
 24 26  2  0  0  0  0
 24 86  1  0  0  0  0
 25 88  1  0  0  0  0
 26 89  1  0  0  0  0
 27 70  2  0  0  0  0
 28 58  1  0  0  0  0
 28 71  2  0  0  0  0
 29 30  2  0  0  0  0
 29 49  1  0  0  0  0
 29 69  1  0  0  0  0
 30 59  1  0  0  0  0
 30 71  1  0  0  0  0
 31 72  1  0  0  0  0
 31 75  1  0  0  0  0
 32 76  1  0  0  0  0
 32 81  2  0  0  0  0
 33 47  1  0  0  0  0
 33 77  1  0  0  0  0
 33 82  2  0  0  0  0
 34 64  1  0  0  0  0
 34 74  1  0  0  0  0
 34 83  2  0  0  0  0
 35 65  1  0  0  0  0
 35 73  1  0  0  0  0
 35 84  2  0  0  0  0
 36 66  1  0  0  0  0
 36 78  1  0  0  0  0
 36 85  2  0  0  0  0
 37 40  1  0  0  0  0
 38 47  1  0  0  0  0
 39 73  1  0  0  0  0
 40 42  1  0  0  0  0
 41 43  1  0  0  0  0
 41 44  1  0  0  0  0
 42 46  1  0  0  0  0
 43 48  1  0  0  0  0
 44 74  1  0  0  0  0
 45 48  1  0  0  0  0
 45 74  1  0  0  0  0
 46 77  1  0  0  0  0
 47 73  1  0  0  0  0
 48 72  1  0  0  0  0
 50 64  1  0  0  0  0
 51 66  1  0  0  0  0
 52 67  1  0  0  0  0
 53 67  1  0  0  0  0
 54 67  1  0  0  0  0
 55 68  1  0  0  0  0
 56 68  1  0  0  0  0
 57 79  1  0  0  0  0
 58 60  1  0  0  0  0
 59 68  1  0  0  0  0
 60 63  1  0  0  0  0
 61 64  1  0  0  0  0
 61 80  1  0  0  0  0
 62 68  1  0  0  0  0
 62 80  1  0  0  0  0
 63 87  1  0  0  0  0
 65 67  1  0  0  0  0
 65 78  1  0  0  0  0
 66 79  1  0  0  0  0
 70 72  1  0  0  0  0
M  CHG  2  79   1  80   1
M  ISO  4  34 100  63 101  64 100  87 101
M  END
> <Batch ID>
0090

> <Smiles>
CNC(C)C(=O)NC(C(=O)N1Cc2cc([101O:1][101CH2:1]CCc3cnc(C)c(CC(C)(C)CNC[100CH:0](C)[100C:0](=O)N4CCCC(n5nc(-c6ccc(Oc7ccc(F)cc7F)cc6)c(C(N)=O)c5N)C4)n3)ccc2CC1C(=O)NC1CCCc2ccccc21)C(C)(C)C

> <Shape>
0.209

> <Color>
0.075

> <Negative vol penalty>
0.000

$$$$

  -OEChem-04052319093D

 87 95  0     1  0  0  0  0  0999 V2000
  -29.1970  -32.9061   23.3555 C   0  0  0  0  0  0  0  0  0  0  0  0
  -28.9840  -31.5477   23.1440 C   0  0  0  0  0  0  0  0  0  0  0  0
  -24.1492  -13.0089   21.8799 C   0  0  0  0  0  0  0  0  0  0  0  0
  -25.2805  -12.1522   19.9246 C   0  0  0  0  0  0  0  0  0  0  0  0
  -28.1436  -33.7191   23.7718 C   0  0  0  0  0  0  0  0  0  0  0  0
  -27.7178  -31.0012   23.3498 C   0  0  0  0  0  0  0  0  0  0  0  0
  -26.3320  -27.8549   19.6315 C   0  0  0  0  0  0  0  0  0  0  0  0
  -23.2627  -11.9328   21.8384 C   0  0  0  0  0  0  0  0  0  0  0  0
  -24.3940  -11.0760   19.8832 C   0  0  0  0  0  0  0  0  0  0  0  0
  -26.8795  -26.5728   19.6452 C   0  0  0  0  0  0  0  0  0  0  0  0
  -22.6526   -7.9106   19.4760 C   0  0  0  0  0  0  0  0  0  0  0  0
  -23.1845   -6.6392   19.2612 C   0  0  0  0  0  0  0  0  0  0  0  0
  -24.8452  -25.7209   20.6224 C   0  0  0  0  0  0  0  0  0  0  0  0
  -32.3622  -21.8748   23.1950 C   0  0  0  0  0  0  0  0  0  0  0  0
  -24.5108   -6.8548   21.2690 C   0  0  0  0  0  0  0  0  0  0  0  0
  -34.4511  -20.9074   22.5975 C   0  0  0  0  0  0  0  0  0  0  0  0
  -25.1581  -13.1186   20.9229 C   0  0  0  0  0  0  0  0  0  0  0  0
  -27.3030  -14.2938   21.6480 C   0  0  0  0  0  0  0  0  0  0  0  0
  -26.8615  -33.1842   23.9735 C   0  0  0  0  0  0  0  0  0  0  0  0
  -25.0388  -28.0819   20.1241 C   0  0  0  0  0  0  0  0  0  0  0  0
  -26.6465  -31.8076   23.7705 C   0  0  0  0  0  0  0  0  0  0  0  0
  -24.2826  -27.0064   20.6116 C   0  0  0  0  0  0  0  0  0  0  0  0
  -33.7233  -21.7320   23.4403 C   0  0  0  0  0  0  0  0  0  0  0  0
  -31.7787  -21.1982   22.1296 C   0  0  0  0  0  0  0  0  0  0  0  0
  -23.3851  -10.9664   20.8402 C   0  0  0  0  0  0  0  0  0  0  0  0
  -26.1372  -25.5061   20.1433 C   0  0  0  0  0  0  0  0  0  0  0  0
  -23.0499   -8.6542   20.5873 C   0  0  0  0  0  0  0  0  0  0  0  0
  -24.1136   -6.1112   20.1577 C   0  0  0  0  0  0  0  0  0  0  0  0
  -23.9790   -8.1263   21.4838 C   0  0  0  0  0  0  0  0  0  0  0  0
  -26.0738  -14.2303   20.9648 C   0  0  0  0  0  0  0  0  0  0  0  0
  -32.5936  -20.3977   21.3454 C   0  0  0  0  0  0  0  0  0  0  0  0
  -27.7835  -15.5511   21.3741 C   0  0  0  0  0  0  0  0  0  0  0  0
  -27.9525  -13.3048   22.4577 C   0  0  0  0  0  0  0  0  0  0  0  0
  -23.8118  -29.8122   22.4914 C   0  0  0  0  0  0  0  0  0  0  0  0
  -20.9908  -28.8621   21.2025 C   0  0  0  0  0  0  0  0  0  0  0  0
  -19.2872  -26.5797   19.3223 C   0  0  0  0  0  0  0  0  0  0  0  0
  -28.7873  -19.7013   17.7806 C   0  0  0  0  0  0  0  0  0  0  0  0
  -25.7652  -34.0936   24.4693 C   0  0  0  0  0  0  0  0  0  0  0  0
  -24.4525  -29.4662   20.0778 C   0  0  0  0  0  0  0  0  0  0  0  0
  -22.8821  -27.1936   21.1331 C   0  0  0  0  0  0  0  0  0  0  0  0
  -24.3656  -33.5071   24.3033 C   0  0  0  0  0  0  0  0  0  0  0  0
  -25.5352  -19.5378   19.2206 C   0  0  0  0  0  0  0  0  0  0  0  0
  -24.3327  -32.0600   24.7846 C   0  0  0  0  0  0  0  0  0  0  0  0
  -25.4848  -18.1460   19.8532 C   0  0  0  0  0  0  0  0  0  0  0  0
  -26.3192  -19.5341   17.9101 C   0  0  0  0  0  0  0  0  0  0  0  0
  -27.6272  -17.5753   18.6354 C   0  0  0  0  0  0  0  0  0  0  0  0
  -25.2814  -31.1824   23.9591 C   0  0  1  0  0  0  0  0  0  0  0  0
  -23.3195  -29.6692   21.0790 C   0  0  1  0  0  0  0  0  0  0  0  0
  -26.8947  -17.5398   19.9876 C   0  0  2  0  0  0  0  0  0  0  0  0
  -33.8193  -22.0147   25.9432 C   0  0  0  0  0  0  0  0  0  0  0  0
  -34.2974  -23.9764   24.4338 C   0  0  0  0  0  0  0  0  0  0  0  0
  -16.9849  -26.0496   18.4763 C   0  0  0  0  0  0  0  0  0  0  0  0
  -20.2064  -27.8563   23.9743 C   0  0  0  0  0  0  0  0  0  0  0  0
  -18.3788  -26.5261   22.8980 C   0  0  0  0  0  0  0  0  0  0  0  0
  -18.3738  -29.0148   22.7277 C   0  0  0  0  0  0  0  0  0  0  0  0
  -20.1490  -26.7952   16.4992 C   0  0  0  0  0  0  0  0  0  0  0  0
  -30.3027  -21.3472   21.8590 C   0  0  0  0  0  0  0  0  0  0  0  0
  -32.0216  -19.6479   20.1869 C   0  0  0  0  0  0  0  0  0  0  0  0
  -29.9262  -22.6753   21.1931 C   0  0  0  0  0  0  0  0  0  0  0  0
  -31.8040  -20.5009   18.9227 C   0  0  0  0  0  0  0  0  0  0  0  0
  -28.4185  -22.8406   20.9971 C   0  0  0  0  0  0  0  0  0  0  0  0
  -31.2683  -19.7224   17.7229 C   0  0  0  0  0  0  0  0  0  0  0  0
  -28.0861  -24.1517   20.2979 C   0  0  0  0  0  0  0  0  0  1  0  0
  -34.3778  -22.4426   24.5710 C   0  0  0  0  0  0  0  0  0  0  0  0
  -20.0668  -27.6851   21.4019 C   0  0  1  0  0  0  0  0  0  0  0  0
  -18.3020  -26.7499   18.1800 C   0  0  2  0  0  0  0  0  0  0  0  0
  -19.2836  -27.7670   22.7425 C   0  0  0  0  0  0  0  0  0  0  0  0
  -33.9194  -20.2342   21.5527 N   0  0  0  0  0  0  0  0  0  0  0  0
  -25.7908  -15.3575   20.3065 N   0  0  0  0  0  0  0  0  0  0  0  0
  -26.8491  -16.1413   20.5749 N   0  0  0  0  0  0  0  0  0  0  0  0
  -22.3554  -28.5671   21.0725 N   0  0  0  0  0  0  0  0  0  0  0  0
  -27.6474  -18.9481   18.1065 N   0  0  0  0  0  0  0  0  0  0  0  0
  -28.9098  -16.1982   21.7413 N   0  0  0  0  0  0  0  0  0  0  0  0
  -27.3204  -12.0666   22.6354 N   0  0  0  0  0  0  0  0  0  0  0  0
  -24.6887  -30.8638   22.6778 N   0  0  0  0  0  0  0  0  0  0  0  0
  -19.2182  -27.6269   20.2166 N   0  0  0  0  0  0  0  0  0  0  0  0
  -30.0069  -19.0737   18.0032 N   0  0  0  0  0  0  0  0  0  0  0  0
  -18.8640  -26.1815   16.9222 N   0  3  0  0  0  0  0  0  0  0  0  0
  -29.0528  -13.5188   23.0208 O   0  0  0  0  0  0  0  0  0  0  0  0
  -23.4237  -29.0276   23.3490 O   0  0  0  0  0  0  0  0  0  0  0  0
  -20.5185  -30.0007   21.1563 O   0  0  0  0  0  0  0  0  0  0  0  0
  -20.0400  -25.6124   19.4142 O   0  0  0  0  0  0  0  0  0  0  0  0
  -28.7232  -20.8502   17.3301 O   0  0  0  0  0  0  0  0  0  0  0  0
  -22.5204   -9.9160   20.7996 O   0  0  0  0  0  0  0  0  0  0  0  0
  -26.6695  -24.2537   20.1584 O   0  0  0  0  0  0  0  0  0  1  0  0
  -24.6231   -4.8896   19.9521 F   0  0  0  0  0  0  0  0  0  0  0  0
  -24.3636   -8.8354   22.5538 F   0  0  0  0  0  0  0  0  0  0  0  0
  1  2  1  0  0  0  0
  1  5  2  0  0  0  0
  2  6  2  0  0  0  0
  3  8  2  0  0  0  0
  3 17  1  0  0  0  0
  4  9  1  0  0  0  0
  4 17  2  0  0  0  0
  5 19  1  0  0  0  0
  6 21  1  0  0  0  0
  7 10  2  0  0  0  0
  7 20  1  0  0  0  0
  8 25  1  0  0  0  0
  9 25  2  0  0  0  0
 10 26  1  0  0  0  0
 11 12  2  0  0  0  0
 11 27  1  0  0  0  0
 12 28  1  0  0  0  0
 13 22  1  0  0  0  0
 13 26  2  0  0  0  0
 14 23  2  0  0  0  0
 14 24  1  0  0  0  0
 15 28  2  0  0  0  0
 15 29  1  0  0  0  0
 16 23  1  0  0  0  0
 16 68  2  0  0  0  0
 17 30  1  0  0  0  0
 18 30  1  0  0  0  0
 18 32  2  0  0  0  0
 18 33  1  0  0  0  0
 19 21  2  0  0  0  0
 19 38  1  0  0  0  0
 20 22  2  0  0  0  0
 20 39  1  0  0  0  0
 21 47  1  0  0  0  0
 22 40  1  0  0  0  0
 23 64  1  0  0  0  0
 24 31  2  0  0  0  0
 24 57  1  0  0  0  0
 25 84  1  0  0  0  0
 26 85  1  0  0  0  0
 27 29  2  0  0  0  0
 27 84  1  0  0  0  0
 28 86  1  0  0  0  0
 29 87  1  0  0  0  0
 30 69  2  0  0  0  0
 31 58  1  0  0  0  0
 31 68  1  0  0  0  0
 32 70  1  0  0  0  0
 32 73  1  0  0  0  0
 33 74  1  0  0  0  0
 33 79  2  0  0  0  0
 34 48  1  0  0  0  0
 34 75  1  0  0  0  0
 34 80  2  0  0  0  0
 35 65  1  0  0  0  0
 35 71  1  0  0  0  0
 35 81  2  0  0  0  0
 36 66  1  0  0  0  0
 36 76  1  0  0  0  0
 36 82  2  0  0  0  0
 37 72  1  0  0  0  0
 37 77  1  0  0  0  0
 37 83  2  0  0  0  0
 38 41  1  0  0  0  0
 39 48  1  0  0  0  0
 40 71  1  0  0  0  0
 41 43  1  0  0  0  0
 42 44  1  0  0  0  0
 42 45  1  0  0  0  0
 43 47  1  0  0  0  0
 44 49  1  0  0  0  0
 45 72  1  0  0  0  0
 46 49  1  0  0  0  0
 46 72  1  0  0  0  0
 47 75  1  0  0  0  0
 48 71  1  0  0  0  0
 49 70  1  0  0  0  0
 50 64  1  0  0  0  0
 51 64  1  0  0  0  0
 52 66  1  0  0  0  0
 53 67  1  0  0  0  0
 54 67  1  0  0  0  0
 55 67  1  0  0  0  0
 56 78  1  0  0  0  0
 57 59  1  0  0  0  0
 58 60  1  0  0  0  0
 59 61  1  0  0  0  0
 60 62  1  0  0  0  0
 61 63  1  0  0  0  0
 62 77  1  0  0  0  0
 63 85  1  0  0  0  0
 65 67  1  0  0  0  0
 65 76  1  0  0  0  0
 66 78  1  0  0  0  0
 69 70  1  0  0  0  0
M  CHG  1  78   1
M  ISO  4  37 100  63 101  77 100  85 101
M  END
> <Batch ID>
0090

> <Smiles>
CNC(C)C(=O)NC(C(=O)N1Cc2cc([101O:1][101CH2:1]CCCc3cc(C(C)C)cnc3CCC[100NH:0][100C:0](=O)N3CCCC(n4nc(-c5ccc(Oc6ccc(F)cc6F)cc5)c(C(N)=O)c4N)C3)ccc2CC1C(=O)NC1CCCc2ccccc21)C(C)(C)C

> <Shape>
0.255

> <Color>
0.040

> <Negative vol penalty>
0.000

$$$$

  -OEChem-04052319093D

 84 92  0     1  0  0  0  0  0999 V2000
  -22.7116  -18.1672   23.4088 C   0  0  0  0  0  0  0  0  0  0  0  0
  -23.8467  -18.9693   23.3490 C   0  0  0  0  0  0  0  0  0  0  0  0
  -26.1463  -12.8863   20.6974 C   0  0  0  0  0  0  0  0  0  0  0  0
  -24.3619  -14.3500   19.9828 C   0  0  0  0  0  0  0  0  0  0  0  0
  -21.5330  -18.5819   22.7902 C   0  0  0  0  0  0  0  0  0  0  0  0
  -23.8041  -20.1862   22.6695 C   0  0  0  0  0  0  0  0  0  0  0  0
  -26.7816  -25.3313   24.1423 C   0  0  0  0  0  0  0  0  0  0  0  0
  -25.2102  -12.0223   21.2655 C   0  0  0  0  0  0  0  0  0  0  0  0
  -23.4257  -13.4859   20.5509 C   0  0  0  0  0  0  0  0  0  0  0  0
  -27.9657  -25.8972   23.6717 C   0  0  0  0  0  0  0  0  0  0  0  0
  -23.2672   -9.2495   22.5889 C   0  0  0  0  0  0  0  0  0  0  0  0
  -23.4223   -7.8827   22.3581 C   0  0  0  0  0  0  0  0  0  0  0  0
  -26.6958  -27.2810   22.1580 C   0  0  0  0  0  0  0  0  0  0  0  0
  -28.8586  -25.0828   19.3901 C   0  0  0  0  0  0  0  0  0  0  0  0
  -23.2216   -8.2614   19.9804 C   0  0  0  0  0  0  0  0  0  0  0  0
  -25.7222  -14.0502   20.0561 C   0  0  0  0  0  0  0  0  0  0  0  0
  -27.1883  -14.9102   18.1538 C   0  0  0  0  0  0  0  0  0  0  0  0
  -21.4732  -19.8090   22.1110 C   0  0  0  0  0  0  0  0  0  0  0  0
  -25.5443  -25.7288   23.6156 C   0  0  0  0  0  0  0  0  0  0  0  0
  -22.6240  -20.6171   22.0400 C   0  0  0  0  0  0  0  0  0  0  0  0
  -25.4972  -26.7205   22.6254 C   0  0  0  0  0  0  0  0  0  0  0  0
  -30.1748  -25.5069   19.3379 C   0  0  0  0  0  0  0  0  0  0  0  0
  -23.8499  -12.3221   21.1922 C   0  0  0  0  0  0  0  0  0  0  0  0
  -27.9231  -26.8701   22.6774 C   0  0  0  0  0  0  0  0  0  0  0  0
  -23.0892  -10.1223   21.5155 C   0  0  0  0  0  0  0  0  0  0  0  0
  -23.3995   -7.3886   21.0538 C   0  0  0  0  0  0  0  0  0  0  0  0
  -23.0664   -9.6283   20.2112 C   0  0  0  0  0  0  0  0  0  0  0  0
  -26.6888  -14.9434   19.4696 C   0  0  0  0  0  0  0  0  0  0  0  0
  -28.5847  -23.7802   19.0249 C   0  0  0  0  0  0  0  0  0  0  0  0
  -31.1299  -24.6001   18.9244 C   0  0  0  0  0  0  0  0  0  0  0  0
  -28.0718  -15.9602   18.0954 C   0  0  0  0  0  0  0  0  0  0  0  0
  -26.8810  -14.0107   17.0804 C   0  0  0  0  0  0  0  0  0  0  0  0
  -23.2032  -24.2665   22.0394 C   0  0  0  0  0  0  0  0  0  0  0  0
  -21.6990  -27.1161   22.4127 C   0  0  0  0  0  0  0  0  0  0  0  0
  -21.9526  -30.4819   22.9167 C   0  0  0  0  0  0  0  0  0  0  0  0
  -28.5326  -21.0773   21.1701 C   0  0  0  0  0  0  0  0  0  0  0  0
  -20.1902  -20.1931   21.4174 C   0  0  0  0  0  0  0  0  0  0  0  0
  -24.2744  -25.1279   24.1528 C   0  0  0  0  0  0  0  0  0  0  0  0
  -24.1932  -27.1967   22.0413 C   0  0  0  0  0  0  0  0  0  0  0  0
  -20.1219  -21.6698   21.0369 C   0  0  0  0  0  0  0  0  0  0  0  0
  -31.0098  -18.5396   20.8531 C   0  0  0  0  0  0  0  0  0  0  0  0
  -21.4234  -22.1113   20.3751 C   0  0  0  0  0  0  0  0  0  0  0  0
  -30.2284  -17.3272   20.3439 C   0  0  0  0  0  0  0  0  0  0  0  0
  -30.1902  -19.3640   21.8434 C   0  0  0  0  0  0  0  0  0  0  0  0
  -28.0824  -18.5699   20.8432 C   0  0  0  0  0  0  0  0  0  0  0  0
  -22.6102  -21.9554   21.3336 C   0  0  1  0  0  0  0  0  0  0  0  0
  -23.1034  -25.2382   23.1811 C   0  0  1  0  0  0  0  0  0  0  0  0
  -28.8474  -17.7387   19.7991 C   0  0  2  0  0  0  0  0  0  0  0  0
  -32.5683  -24.9860   18.8424 C   0  0  0  0  0  0  0  0  0  0  0  0
  -26.9146  -22.2352   17.9536 C   0  0  0  0  0  0  0  0  0  0  0  0
  -20.5510  -32.5516   23.1385 C   0  0  0  0  0  0  0  0  0  0  0  0
  -21.2501  -27.1326   19.3947 C   0  0  0  0  0  0  0  0  0  0  0  0
  -20.7290  -29.5761   19.5557 C   0  0  0  0  0  0  0  0  0  0  0  0
  -19.2959  -27.9161   20.7444 C   0  0  0  0  0  0  0  0  0  0  0  0
  -22.9326  -30.9914   25.6624 C   0  0  0  0  0  0  0  0  0  0  0  0
  -30.5288  -26.9201   19.7268 C   0  0  0  0  0  0  0  0  0  0  0  0
  -31.1713  -27.0355   21.1108 C   0  0  0  0  0  0  0  0  0  0  0  0
  -26.7812  -22.6734   20.4324 C   0  0  0  0  0  0  0  0  0  0  0  0
  -30.2464  -26.6057   22.2436 C   0  0  0  0  0  0  0  0  0  1  0  0
  -27.1835  -23.2739   19.0630 C   0  0  1  0  0  0  0  0  0  0  0  0
  -21.6202  -28.3958   21.6158 C   0  0  1  0  0  0  0  0  0  0  0  0
  -21.2364  -31.4132   23.8781 C   0  0  2  0  0  0  0  0  0  0  0  0
  -20.7487  -28.2450   20.3371 C   0  0  0  0  0  0  0  0  0  0  0  0
  -27.2117  -15.9357   20.1947 N   0  0  0  0  0  0  0  0  0  0  0  0
  -29.5395  -22.9143   18.6240 N   0  0  0  0  0  0  0  0  0  0  0  0
  -30.8331  -23.3311   18.5731 N   0  0  0  0  0  0  0  0  0  0  0  0
  -28.0490  -16.5358   19.3316 N   0  0  0  0  0  0  0  0  0  0  0  0
  -22.9793  -26.5743   22.5950 N   0  0  0  0  0  0  0  0  0  0  0  0
  -28.8932  -19.7230   21.2649 N   0  0  0  0  0  0  0  0  0  0  0  0
  -28.8583  -16.4379   17.1076 N   0  0  0  0  0  0  0  0  0  0  0  0
  -25.9508  -12.9881   17.3112 N   0  0  0  0  0  0  0  0  0  0  0  0
  -22.6283  -23.0363   22.2957 N   0  0  0  0  0  0  0  0  0  0  0  0
  -21.1529  -29.4238   22.5396 N   0  0  0  0  0  0  0  0  0  0  0  0
  -27.2893  -21.3305   20.6037 N   0  0  0  0  0  0  0  0  0  0  0  0
  -22.2034  -31.9985   24.8493 N   0  3  0  0  0  0  0  0  0  0  0  0
  -27.4277  -14.1008   15.9550 O   0  0  0  0  0  0  0  0  0  0  0  0
  -23.7592  -24.6080   21.0021 O   0  0  0  0  0  0  0  0  0  0  0  0
  -20.6636  -26.6194   22.8631 O   0  0  0  0  0  0  0  0  0  0  0  0
  -23.1047  -30.6758   22.5354 O   0  0  0  0  0  0  0  0  0  0  0  0
  -29.2667  -21.9931   21.5564 O   0  0  0  0  0  0  0  0  0  0  0  0
  -22.9361  -11.4792   21.7463 O   0  0  0  0  0  0  0  0  0  0  0  0
  -29.0774  -27.4237   22.2159 O   0  0  0  0  0  0  0  0  0  1  0  0
  -23.5501   -6.0762   20.8322 F   0  0  0  0  0  0  0  0  0  0  0  0
  -22.8969  -10.4621   19.1759 F   0  0  0  0  0  0  0  0  0  0  0  0
  1  2  1  0  0  0  0
  1  5  2  0  0  0  0
  2  6  2  0  0  0  0
  3  8  2  0  0  0  0
  3 16  1  0  0  0  0
  4  9  1  0  0  0  0
  4 16  2  0  0  0  0
  5 18  1  0  0  0  0
  6 20  1  0  0  0  0
  7 10  2  0  0  0  0
  7 19  1  0  0  0  0
  8 23  1  0  0  0  0
  9 23  2  0  0  0  0
 10 24  1  0  0  0  0
 11 12  2  0  0  0  0
 11 25  1  0  0  0  0
 12 26  1  0  0  0  0
 13 21  1  0  0  0  0
 13 24  2  0  0  0  0
 14 22  1  0  0  0  0
 14 29  2  0  0  0  0
 15 26  2  0  0  0  0
 15 27  1  0  0  0  0
 16 28  1  0  0  0  0
 17 28  1  0  0  0  0
 17 31  2  0  0  0  0
 17 32  1  0  0  0  0
 18 20  2  0  0  0  0
 18 37  1  0  0  0  0
 19 21  2  0  0  0  0
 19 38  1  0  0  0  0
 20 46  1  0  0  0  0
 21 39  1  0  0  0  0
 22 30  2  0  0  0  0
 22 56  1  0  0  0  0
 23 81  1  0  0  0  0
 24 82  1  0  0  0  0
 25 27  2  0  0  0  0
 25 81  1  0  0  0  0
 26 83  1  0  0  0  0
 27 84  1  0  0  0  0
 28 64  2  0  0  0  0
 29 60  1  0  0  0  0
 29 65  1  0  0  0  0
 30 49  1  0  0  0  0
 30 66  1  0  0  0  0
 31 67  1  0  0  0  0
 31 70  1  0  0  0  0
 32 71  1  0  0  0  0
 32 76  2  0  0  0  0
 33 47  1  0  0  0  0
 33 72  1  0  0  0  0
 33 77  2  0  0  0  0
 34 61  1  0  0  0  0
 34 68  1  0  0  0  0
 34 78  2  0  0  0  0
 35 62  1  0  0  0  0
 35 73  1  0  0  0  0
 35 79  2  0  0  0  0
 36 69  1  0  0  0  0
 36 74  1  0  0  0  0
 36 80  2  0  0  0  0
 37 40  1  0  0  0  0
 38 47  1  0  0  0  0
 39 68  1  0  0  0  0
 40 42  1  0  0  0  0
 41 43  1  0  0  0  0
 41 44  1  0  0  0  0
 42 46  1  0  0  0  0
 43 48  1  0  0  0  0
 44 69  1  0  0  0  0
 45 48  1  0  0  0  0
 45 69  1  0  0  0  0
 46 72  1  0  0  0  0
 47 68  1  0  0  0  0
 48 67  1  0  0  0  0
 50 60  1  0  0  0  0
 51 62  1  0  0  0  0
 52 63  1  0  0  0  0
 53 63  1  0  0  0  0
 54 63  1  0  0  0  0
 55 75  1  0  0  0  0
 56 57  1  0  0  0  0
 57 59  1  0  0  0  0
 58 60  1  0  0  0  0
 58 74  1  0  0  0  0
 59 82  1  0  0  0  0
 61 63  1  0  0  0  0
 61 73  1  0  0  0  0
 62 75  1  0  0  0  0
 64 67  1  0  0  0  0
 65 66  2  0  0  0  0
M  CHG  1  75   1
M  ISO  4  36 100  59 101  74 100  82 101
M  END
> <Batch ID>
0090

> <Smiles>
CNC(C)C(=O)NC(C(=O)N1Cc2cc([101O:1][101CH2:1]CCc3cc(C(C)C[100NH:0][100C:0](=O)N4CCCC(n5nc(-c6ccc(Oc7ccc(F)cc7F)cc6)c(C(N)=O)c5N)C4)nnc3C)ccc2CC1C(=O)NC1CCCc2ccccc21)C(C)(C)C

> <Shape>
0.222

> <Color>
0.057

> <Negative vol penalty>
0.000

$$$$

  -OEChem-04052319093D

 82 90  0     1  0  0  0  0  0999 V2000
  -19.5774  -23.4881   21.2247 C   0  0  0  0  0  0  0  0  0  0  0  0
  -20.8469  -23.9040   20.8364 C   0  0  0  0  0  0  0  0  0  0  0  0
  -26.5064  -13.1121   20.9859 C   0  0  0  0  0  0  0  0  0  0  0  0
  -25.9496  -13.7195   18.7147 C   0  0  0  0  0  0  0  0  0  0  0  0
  -18.7780  -24.3256   22.0016 C   0  0  0  0  0  0  0  0  0  0  0  0
  -21.3174  -25.1581   21.2239 C   0  0  0  0  0  0  0  0  0  0  0  0
  -26.0957  -25.0094   22.8944 C   0  0  0  0  0  0  0  0  0  0  0  0
  -25.9299  -11.8569   20.7915 C   0  0  0  0  0  0  0  0  0  0  0  0
  -25.3732  -12.4642   18.5203 C   0  0  0  0  0  0  0  0  0  0  0  0
  -27.1039  -24.9359   21.9342 C   0  0  0  0  0  0  0  0  0  0  0  0
  -22.8234  -10.5268   20.7223 C   0  0  0  0  0  0  0  0  0  0  0  0
  -21.9868  -10.0364   21.7249 C   0  0  0  0  0  0  0  0  0  0  0  0
  -27.4877  -27.3063   22.1644 C   0  0  0  0  0  0  0  0  0  0  0  0
  -23.4454   -8.1316   22.0104 C   0  0  0  0  0  0  0  0  0  0  0  0
  -25.1162  -24.3404   18.0312 C   0  0  0  0  0  0  0  0  0  0  0  0
  -26.5161  -14.0434   19.9475 C   0  0  0  0  0  0  0  0  0  0  0  0
  -28.4506  -15.7061   19.9169 C   0  0  0  0  0  0  0  0  0  0  0  0
  -19.2427  -25.5867   22.4070 C   0  0  0  0  0  0  0  0  0  0  0  0
  -25.7680  -26.2360   23.4899 C   0  0  0  0  0  0  0  0  0  0  0  0
  -20.5230  -26.0138   22.0059 C   0  0  0  0  0  0  0  0  0  0  0  0
  -26.4767  -27.3923   23.1337 C   0  0  0  0  0  0  0  0  0  0  0  0
  -25.3634  -11.5329   19.5588 C   0  0  0  0  0  0  0  0  0  0  0  0
  -27.7981  -26.0849   21.5670 C   0  0  0  0  0  0  0  0  0  0  0  0
  -23.9710   -9.8196   20.3637 C   0  0  0  0  0  0  0  0  0  0  0  0
  -22.2978   -8.8389   22.3689 C   0  0  0  0  0  0  0  0  0  0  0  0
  -24.2820   -8.6220   21.0078 C   0  0  0  0  0  0  0  0  0  0  0  0
  -27.1109  -15.3404   20.1478 C   0  0  0  0  0  0  0  0  0  0  0  0
  -24.8571  -23.0395   17.7035 C   0  0  0  0  0  0  0  0  0  0  0  0
  -28.5073  -17.0355   20.2577 C   0  0  0  0  0  0  0  0  0  0  0  0
  -26.6270  -23.6960   16.5471 C   0  0  0  0  0  0  0  0  0  0  0  0
  -29.5459  -14.9149   19.4373 C   0  0  0  0  0  0  0  0  0  0  0  0
  -23.1632  -28.0548   23.5921 C   0  0  0  0  0  0  0  0  0  0  0  0
  -24.9351  -29.7965   25.6776 C   0  0  0  0  0  0  0  0  0  0  0  0
  -28.0281  -30.6933   26.8072 C   0  0  0  0  0  0  0  0  0  0  0  0
  -24.3837  -21.3721   20.4601 C   0  0  0  0  0  0  0  0  0  0  0  0
  -18.3241  -26.4761   23.2067 C   0  0  0  0  0  0  0  0  0  0  0  0
  -24.6960  -26.2937   24.5434 C   0  0  0  0  0  0  0  0  0  0  0  0
  -26.1771  -28.7298   23.7580 C   0  0  0  0  0  0  0  0  0  0  0  0
  -19.0427  -27.6370   23.8897 C   0  0  0  0  0  0  0  0  0  0  0  0
  -26.4478  -20.2540   23.1370 C   0  0  0  0  0  0  0  0  0  0  0  0
  -19.9930  -28.3245   22.9145 C   0  0  0  0  0  0  0  0  0  0  0  0
  -26.9727  -18.9009   22.6536 C   0  0  0  0  0  0  0  0  0  0  0  0
  -25.0071  -20.4927   22.6905 C   0  0  0  0  0  0  0  0  0  0  0  0
  -25.3001  -18.9914   20.7581 C   0  0  0  0  0  0  0  0  0  0  0  0
  -21.0784  -27.3570   22.4271 C   0  0  1  0  0  0  0  0  0  0  0  0
  -24.0968  -27.6867   24.7104 C   0  0  1  0  0  0  0  0  0  0  0  0
  -26.7680  -18.7296   21.1364 C   0  0  2  0  0  0  0  0  0  0  0  0
  -27.7796  -23.6821   15.6122 C   0  0  0  0  0  0  0  0  0  0  0  0
  -29.1578  -32.1637   28.4980 C   0  0  0  0  0  0  0  0  0  0  0  0
  -29.6539  -25.5134   18.4508 C   0  0  0  0  0  0  0  0  0  0  0  0
  -24.3507  -32.2371   23.9420 C   0  0  0  0  0  0  0  0  0  0  0  0
  -26.2258  -33.4237   25.1013 C   0  0  0  0  0  0  0  0  0  0  0  0
  -24.2415  -32.6581   26.4048 C   0  0  0  0  0  0  0  0  0  0  0  0
  -29.2921  -28.3775   28.1482 C   0  0  0  0  0  0  0  0  0  0  0  0
  -23.8168  -22.1146   18.1609 C   0  0  0  0  0  0  0  0  0  0  0  0
  -27.3488  -26.4904   18.7453 C   0  0  0  0  0  0  0  0  0  0  0  0
  -26.8588  -26.0841   17.3479 C   0  0  0  0  0  0  0  0  0  0  0  0
  -25.9013  -30.9501   25.5562 C   0  0  1  0  0  0  0  0  0  0  0  0
  -28.6029  -30.7775   28.2097 C   0  0  2  0  0  0  0  0  0  0  0  0
  -28.4116  -25.5529   19.3317 C   0  0  2  0  0  0  0  0  0  1  0  0
  -25.1844  -32.2926   25.2377 C   0  0  0  0  0  0  0  0  0  0  0  0
  -26.3700  -16.3555   20.6003 N   0  0  0  0  0  0  0  0  0  0  0  0
  -26.2166  -24.7207   17.3015 N   0  0  0  0  0  0  0  0  0  0  0  0
  -27.2472  -17.3720   20.6567 N   0  0  0  0  0  0  0  0  0  0  0  0
  -25.8070  -22.6667   16.7833 N   0  3  0  0  0  0  0  0  0  0  0  0
  -25.1160  -28.7360   24.7786 N   0  0  0  0  0  0  0  0  0  0  0  0
  -24.8813  -20.3164   21.2417 N   0  0  0  0  0  0  0  0  0  0  0  0
  -29.5115  -17.9376   20.2520 N   0  0  0  0  0  0  0  0  0  0  0  0
  -29.3137  -13.5664   19.1344 N   0  0  0  0  0  0  0  0  0  0  0  0
  -22.0974  -27.1885   23.4408 N   0  0  0  0  0  0  0  0  0  0  0  0
  -26.6764  -30.9652   26.7920 N   0  0  0  0  0  0  0  0  0  0  0  0
  -24.3028  -21.1240   19.0953 N   0  0  0  0  0  0  0  0  0  0  0  0
  -29.7029  -29.7863   28.3790 N   0  3  0  0  0  0  0  0  0  0  0  0
  -30.7002  -15.3856   19.2976 O   0  0  0  0  0  0  0  0  0  0  0  0
  -23.3920  -29.0520   22.9175 O   0  0  0  0  0  0  0  0  0  0  0  0
  -24.0568  -29.8319   26.5431 O   0  0  0  0  0  0  0  0  0  0  0  0
  -28.7107  -30.4178   25.8230 O   0  0  0  0  0  0  0  0  0  0  0  0
  -24.0421  -22.4574   20.9422 O   0  0  0  0  0  0  0  0  0  0  0  0
  -24.8010  -10.3081   19.3687 O   0  0  0  0  0  0  0  0  0  0  0  0
  -28.7822  -26.0160   20.6296 O   0  0  0  0  0  0  0  0  0  1  0  0
  -21.4951   -8.3689   23.3328 F   0  0  0  0  0  0  0  0  0  0  0  0
  -25.3837   -7.9387   20.6684 F   0  0  0  0  0  0  0  0  0  0  0  0
  1  2  1  0  0  0  0
  1  5  2  0  0  0  0
  2  6  2  0  0  0  0
  3  8  2  0  0  0  0
  3 16  1  0  0  0  0
  4  9  1  0  0  0  0
  4 16  2  0  0  0  0
  5 18  1  0  0  0  0
  6 20  1  0  0  0  0
  7 10  2  0  0  0  0
  7 19  1  0  0  0  0
  8 22  1  0  0  0  0
  9 22  2  0  0  0  0
 10 23  1  0  0  0  0
 11 12  2  0  0  0  0
 11 24  1  0  0  0  0
 12 25  1  0  0  0  0
 13 21  1  0  0  0  0
 13 23  2  0  0  0  0
 14 25  2  0  0  0  0
 14 26  1  0  0  0  0
 15 28  2  0  0  0  0
 15 63  1  0  0  0  0
 16 27  1  0  0  0  0
 17 27  1  0  0  0  0
 17 29  2  0  0  0  0
 17 31  1  0  0  0  0
 18 20  2  0  0  0  0
 18 36  1  0  0  0  0
 19 21  2  0  0  0  0
 19 37  1  0  0  0  0
 20 45  1  0  0  0  0
 21 38  1  0  0  0  0
 22 79  1  0  0  0  0
 23 80  1  0  0  0  0
 24 26  2  0  0  0  0
 24 79  1  0  0  0  0
 25 81  1  0  0  0  0
 26 82  1  0  0  0  0
 27 62  2  0  0  0  0
 28 55  1  0  0  0  0
 28 65  1  0  0  0  0
 29 64  1  0  0  0  0
 29 68  1  0  0  0  0
 30 48  1  0  0  0  0
 30 63  1  0  0  0  0
 30 65  2  0  0  0  0
 31 69  1  0  0  0  0
 31 74  2  0  0  0  0
 32 46  1  0  0  0  0
 32 70  1  0  0  0  0
 32 75  2  0  0  0  0
 33 58  1  0  0  0  0
 33 66  1  0  0  0  0
 33 76  2  0  0  0  0
 34 59  1  0  0  0  0
 34 71  1  0  0  0  0
 34 77  2  0  0  0  0
 35 67  1  0  0  0  0
 35 72  1  0  0  0  0
 35 78  2  0  0  0  0
 36 39  1  0  0  0  0
 37 46  1  0  0  0  0
 38 66  1  0  0  0  0
 39 41  1  0  0  0  0
 40 42  1  0  0  0  0
 40 43  1  0  0  0  0
 41 45  1  0  0  0  0
 42 47  1  0  0  0  0
 43 67  1  0  0  0  0
 44 47  1  0  0  0  0
 44 67  1  0  0  0  0
 45 70  1  0  0  0  0
 46 66  1  0  0  0  0
 47 64  1  0  0  0  0
 49 59  1  0  0  0  0
 50 60  1  0  0  0  0
 51 61  1  0  0  0  0
 52 61  1  0  0  0  0
 53 61  1  0  0  0  0
 54 73  1  0  0  0  0
 55 72  1  0  0  0  0
 56 57  1  0  0  0  0
 56 60  1  0  0  0  0
 57 63  1  0  0  0  0
 58 61  1  0  0  0  0
 58 71  1  0  0  0  0
 59 73  1  0  0  0  0
 60 80  1  0  0  0  0
 62 64  1  0  0  0  0
M  CHG  2  65   1  73   1
M  ISO  4  35 100  60 101  72 100  80 101
M  END
> <Batch ID>
0090

> <Smiles>
CNC(C)C(=O)NC(C(=O)N1Cc2cc([101O:1][101CH:1](C)CCn3cc(C[100NH:0][100C:0](=O)N4CCCC(n5nc(-c6ccc(Oc7ccc(F)cc7F)cc6)c(C(N)=O)c5N)C4)nc3C)ccc2CC1C(=O)NC1CCCc2ccccc21)C(C)(C)C

> <Shape>
0.205

> <Color>
0.068

> <Negative vol penalty>
0.000

$$$$

  -OEChem-04052319093D

 89 97  0     1  0  0  0  0  0999 V2000
  -30.7417  -13.7278   24.8783 C   0  0  0  0  0  0  0  0  0  0  0  0
  -30.0072  -14.7194   24.2359 C   0  0  0  0  0  0  0  0  0  0  0  0
  -29.5505  -17.9869   20.3475 C   0  0  0  0  0  0  0  0  0  0  0  0
  -27.2030  -18.5303   20.5230 C   0  0  0  0  0  0  0  0  0  0  0  0
  -30.3624  -13.2927   26.1475 C   0  0  0  0  0  0  0  0  0  0  0  0
  -28.8922  -15.2756   24.8619 C   0  0  0  0  0  0  0  0  0  0  0  0
  -26.9620  -21.0746   24.4716 C   0  0  0  0  0  0  0  0  0  0  0  0
  -29.2672  -16.6593   20.6678 C   0  0  0  0  0  0  0  0  0  0  0  0
  -26.9196  -17.2026   20.8432 C   0  0  0  0  0  0  0  0  0  0  0  0
  -25.9738  -21.6843   23.7000 C   0  0  0  0  0  0  0  0  0  0  0  0
  -29.1180  -13.0512   21.0855 C   0  0  0  0  0  0  0  0  0  0  0  0
  -29.7305  -12.0555   20.3245 C   0  0  0  0  0  0  0  0  0  0  0  0
  -24.4236  -21.4833   25.5373 C   0  0  0  0  0  0  0  0  0  0  0  0
  -28.6703  -12.9241   18.3349 C   0  0  0  0  0  0  0  0  0  0  0  0
  -23.6786  -29.6402   21.1938 C   0  0  0  0  0  0  0  0  0  0  0  0
  -28.5184  -18.9225   20.2752 C   0  0  0  0  0  0  0  0  0  0  0  0
  -28.8477  -20.8701   18.6608 C   0  0  0  0  0  0  0  0  0  0  0  0
  -29.2479  -13.8507   26.7934 C   0  0  0  0  0  0  0  0  0  0  0  0
  -26.6848  -20.6541   25.7803 C   0  0  0  0  0  0  0  0  0  0  0  0
  -28.4969  -14.8466   26.1403 C   0  0  0  0  0  0  0  0  0  0  0  0
  -25.4108  -20.8708   26.3243 C   0  0  0  0  0  0  0  0  0  0  0  0
  -27.9517  -16.2671   20.9157 C   0  0  0  0  0  0  0  0  0  0  0  0
  -24.7035  -21.8861   24.2317 C   0  0  0  0  0  0  0  0  0  0  0  0
  -28.2815  -13.9832   20.4712 C   0  0  0  0  0  0  0  0  0  0  0  0
  -29.5067  -11.9920   18.9492 C   0  0  0  0  0  0  0  0  0  0  0  0
  -28.0577  -13.9197   19.0959 C   0  0  0  0  0  0  0  0  0  0  0  0
  -28.8106  -20.2942   19.9449 C   0  0  0  0  0  0  0  0  0  0  0  0
  -23.8893  -28.4892   20.4623 C   0  0  0  0  0  0  0  0  0  0  0  0
  -24.8118  -30.3585   21.5162 C   0  0  0  0  0  0  0  0  0  0  0  0
  -29.1683  -22.1868   18.8842 C   0  0  0  0  0  0  0  0  0  0  0  0
  -26.1336  -28.8500   20.4464 C   0  0  0  0  0  0  0  0  0  0  0  0
  -28.6133  -20.2686   17.3806 C   0  0  0  0  0  0  0  0  0  0  0  0
  -26.6760  -17.8523   27.2817 C   0  0  0  0  0  0  0  0  0  0  0  0
  -26.1211  -19.6942   29.8936 C   0  0  0  0  0  0  0  0  0  0  0  0
  -24.9473  -22.6338   31.1694 C   0  0  0  0  0  0  0  0  0  0  0  0
  -28.5192  -26.9367   21.7412 C   0  0  0  0  0  0  0  0  0  0  0  0
  -28.8487  -13.3146   28.1453 C   0  0  0  0  0  0  0  0  0  0  0  0
  -27.7695  -20.0221   26.6089 C   0  0  0  0  0  0  0  0  0  0  0  0
  -25.0681  -20.4560   27.7311 C   0  0  0  0  0  0  0  0  0  0  0  0
  -27.8756  -14.2198   28.8964 C   0  0  0  0  0  0  0  0  0  0  0  0
  -30.7667  -24.5204   23.0778 C   0  0  0  0  0  0  0  0  0  0  0  0
  -26.7492  -14.6747   27.9738 C   0  0  0  0  0  0  0  0  0  0  0  0
  -30.4569  -23.2522   22.2805 C   0  0  0  0  0  0  0  0  0  0  0  0
  -29.5054  -25.3358   23.3539 C   0  0  0  0  0  0  0  0  0  0  0  0
  -28.3986  -24.3996   21.3608 C   0  0  0  0  0  0  0  0  0  0  0  0
  -27.2959  -15.4919   26.7971 C   0  0  1  0  0  0  0  0  0  0  0  0
  -27.2278  -19.1685   27.7515 C   0  0  1  0  0  0  0  0  0  0  0  0
  -29.6472  -23.5726   21.0097 C   0  0  2  0  0  0  0  0  0  0  0  0
  -24.5897  -23.8342   33.3439 C   0  0  0  0  0  0  0  0  0  0  0  0
  -23.6891  -17.9405   30.4589 C   0  0  0  0  0  0  0  0  0  0  0  0
  -22.8624  -19.7119   32.0231 C   0  0  0  0  0  0  0  0  0  0  0  0
  -25.0246  -18.5556   32.4819 C   0  0  0  0  0  0  0  0  0  0  0  0
  -26.7607  -24.8373   30.3848 C   0  0  0  0  0  0  0  0  0  0  0  0
  -25.4178  -35.0137   25.0203 C   0  0  0  0  0  0  0  0  0  0  0  0
  -27.0093  -33.1920   24.4293 C   0  0  0  0  0  0  0  0  0  0  0  0
  -22.7113  -27.6373   20.0614 C   0  0  0  0  0  0  0  0  0  0  0  0
  -24.6836  -31.6190   22.3043 C   0  0  0  0  0  0  0  0  0  0  0  0
  -27.4970  -28.4136   20.0286 C   0  0  0  0  0  0  0  0  0  0  0  0
  -22.3531  -26.5541   21.0853 C   0  0  0  0  0  0  0  0  0  0  0  0
  -24.7556  -31.4257   23.8312 C   0  0  0  0  0  0  0  0  0  0  0  0
  -23.4682  -25.5220   21.2809 C   0  0  0  0  0  0  0  0  0  0  0  0
  -23.0810  -24.4813   22.3301 C   0  0  0  0  0  0  0  0  0  0  0  0
  -24.5793  -32.6974   24.6554 C   0  0  0  0  0  0  0  0  0  0  0  0
  -24.1650  -23.4267   22.5018 C   0  0  0  0  0  0  0  0  0  1  0  0
  -24.8886  -20.2232   30.5865 C   0  0  1  0  0  0  0  0  0  0  0  0
  -25.5387  -23.6013   32.1787 C   0  0  2  0  0  0  0  0  0  0  0  0
  -24.1217  -19.1140   31.3604 C   0  0  0  0  0  0  0  0  0  0  0  0
  -29.0858  -21.1731   20.9123 N   0  0  0  0  0  0  0  0  0  0  0  0
  -25.1078  -28.0627   20.0702 N   0  0  0  0  0  0  0  0  0  0  0  0
  -26.0596  -29.9911   21.1577 N   0  0  0  0  0  0  0  0  0  0  0  0
  -29.2990  -22.3146   20.2358 N   0  0  0  0  0  0  0  0  0  0  0  0
  -26.1607  -19.8365   28.4993 N   0  0  0  0  0  0  0  0  0  0  0  0
  -28.7847  -25.6070   22.1077 N   0  0  0  0  0  0  0  0  0  0  0  0
  -29.3485  -23.2363   18.0544 N   0  0  0  0  0  0  0  0  0  0  0  0
  -28.2946  -18.9046   17.3316 N   0  0  0  0  0  0  0  0  0  0  0  0
  -27.6132  -16.8387   27.2212 N   0  0  0  0  0  0  0  0  0  0  0  0
  -25.3343  -21.3344   31.4202 N   0  0  0  0  0  0  0  0  0  0  0  0
  -27.8372  -27.1056   20.5424 N   0  0  0  0  0  0  0  0  0  0  0  0
  -25.8215  -24.9145   31.5332 N   0  3  0  0  0  0  0  0  0  0  0  0
  -25.5975  -33.7075   24.2844 N   0  3  0  0  0  0  0  0  0  0  0  0
  -28.7003  -20.9176   16.3107 O   0  0  0  0  0  0  0  0  0  0  0  0
  -25.4875  -17.7627   26.9966 O   0  0  0  0  0  0  0  0  0  0  0  0
  -27.0190  -19.1804   30.5654 O   0  0  0  0  0  0  0  0  0  0  0  0
  -24.2124  -22.9943   30.2526 O   0  0  0  0  0  0  0  0  0  0  0  0
  -28.8689  -27.9022   22.4286 O   0  0  0  0  0  0  0  0  0  0  0  0
  -27.6748  -14.9716   21.2280 O   0  0  0  0  0  0  0  0  0  0  0  0
  -23.7370  -22.4805   23.4805 O   0  0  0  0  0  0  0  0  0  1  0  0
  -30.0961  -11.0368   18.2183 F   0  0  0  0  0  0  0  0  0  0  0  0
  -27.2561  -14.8131   18.5000 F   0  0  0  0  0  0  0  0  0  0  0  0
  1  2  1  0  0  0  0
  1  5  2  0  0  0  0
  2  6  2  0  0  0  0
  3  8  2  0  0  0  0
  3 16  1  0  0  0  0
  4  9  1  0  0  0  0
  4 16  2  0  0  0  0
  5 18  1  0  0  0  0
  6 20  1  0  0  0  0
  7 10  2  0  0  0  0
  7 19  1  0  0  0  0
  8 22  1  0  0  0  0
  9 22  2  0  0  0  0
 10 23  1  0  0  0  0
 11 12  2  0  0  0  0
 11 24  1  0  0  0  0
 12 25  1  0  0  0  0
 13 21  1  0  0  0  0
 13 23  2  0  0  0  0
 14 25  2  0  0  0  0
 14 26  1  0  0  0  0
 15 28  1  0  0  0  0
 15 29  2  0  0  0  0
 16 27  1  0  0  0  0
 17 27  1  0  0  0  0
 17 30  2  0  0  0  0
 17 32  1  0  0  0  0
 18 20  2  0  0  0  0
 18 37  1  0  0  0  0
 19 21  2  0  0  0  0
 19 38  1  0  0  0  0
 20 46  1  0  0  0  0
 21 39  1  0  0  0  0
 22 86  1  0  0  0  0
 23 87  1  0  0  0  0
 24 26  2  0  0  0  0
 24 86  1  0  0  0  0
 25 88  1  0  0  0  0
 26 89  1  0  0  0  0
 27 68  2  0  0  0  0
 28 56  1  0  0  0  0
 28 69  2  0  0  0  0
 29 57  1  0  0  0  0
 29 70  1  0  0  0  0
 30 71  1  0  0  0  0
 30 74  1  0  0  0  0
 31 58  1  0  0  0  0
 31 69  1  0  0  0  0
 31 70  2  0  0  0  0
 32 75  1  0  0  0  0
 32 81  2  0  0  0  0
 33 47  1  0  0  0  0
 33 76  1  0  0  0  0
 33 82  2  0  0  0  0
 34 65  1  0  0  0  0
 34 72  1  0  0  0  0
 34 83  2  0  0  0  0
 35 66  1  0  0  0  0
 35 77  1  0  0  0  0
 35 84  2  0  0  0  0
 36 73  1  0  0  0  0
 36 78  1  0  0  0  0
 36 85  2  0  0  0  0
 37 40  1  0  0  0  0
 38 47  1  0  0  0  0
 39 72  1  0  0  0  0
 40 42  1  0  0  0  0
 41 43  1  0  0  0  0
 41 44  1  0  0  0  0
 42 46  1  0  0  0  0
 43 48  1  0  0  0  0
 44 73  1  0  0  0  0
 45 48  1  0  0  0  0
 45 73  1  0  0  0  0
 46 76  1  0  0  0  0
 47 72  1  0  0  0  0
 48 71  1  0  0  0  0
 49 66  1  0  0  0  0
 50 67  1  0  0  0  0
 51 67  1  0  0  0  0
 52 67  1  0  0  0  0
 53 79  1  0  0  0  0
 54 80  1  0  0  0  0
 55 80  1  0  0  0  0
 56 59  1  0  0  0  0
 57 60  1  0  0  0  0
 58 78  1  0  0  0  0
 59 61  1  0  0  0  0
 60 63  1  0  0  0  0
 61 62  1  0  0  0  0
 62 64  1  0  0  0  0
 63 80  1  0  0  0  0
 64 87  1  0  0  0  0
 65 67  1  0  0  0  0
 65 77  1  0  0  0  0
 66 79  1  0  0  0  0
 68 71  1  0  0  0  0
M  CHG  2  79   1  80   1
M  ISO  4  36 100  64 101  78 100  87 101
M  END
> <Batch ID>
0090

> <Smiles>
CNC(C)C(=O)NC(C(=O)N1Cc2cc([101O:1][101CH2:1]CCCCc3cc(CCCN(C)C)nc(C[100NH:0][100C:0](=O)N4CCCC(n5nc(-c6ccc(Oc7ccc(F)cc7F)cc6)c(C(N)=O)c5N)C4)n3)ccc2CC1C(=O)NC1CCCc2ccccc21)C(C)(C)C

> <Shape>
0.199

> <Color>
0.054

> <Negative vol penalty>
0.000

$$$$

  -OEChem-04052319093D

 91 99  0     1  0  0  0  0  0999 V2000
  -34.3056  -26.0062   19.7674 C   0  0  0  0  0  0  0  0  0  0  0  0
  -33.2649  -25.8954   18.8509 C   0  0  0  0  0  0  0  0  0  0  0  0
  -26.5253  -12.7370   21.6451 C   0  0  0  0  0  0  0  0  0  0  0  0
  -26.0041  -13.8064   19.5423 C   0  0  0  0  0  0  0  0  0  0  0  0
  -34.0318  -26.0082   21.1345 C   0  0  0  0  0  0  0  0  0  0  0  0
  -31.9497  -25.7853   19.3011 C   0  0  0  0  0  0  0  0  0  0  0  0
  -25.2600  -27.6022   17.4946 C   0  0  0  0  0  0  0  0  0  0  0  0
  -25.2688  -12.1314   21.6485 C   0  0  0  0  0  0  0  0  0  0  0  0
  -24.7476  -13.2008   19.5457 C   0  0  0  0  0  0  0  0  0  0  0  0
  -23.9987  -27.0336   17.3227 C   0  0  0  0  0  0  0  0  0  0  0  0
  -23.7731   -9.4890   20.1606 C   0  0  0  0  0  0  0  0  0  0  0  0
  -23.7069   -8.1353   20.4902 C   0  0  0  0  0  0  0  0  0  0  0  0
  -23.6380  -27.1280   19.7060 C   0  0  0  0  0  0  0  0  0  0  0  0
  -22.1783  -21.3439   18.0974 C   0  0  0  0  0  0  0  0  0  0  0  0
  -23.5427  -23.1439   18.9237 C   0  0  0  0  0  0  0  0  0  0  0  0
  -22.2699   -8.6608   22.3600 C   0  0  0  0  0  0  0  0  0  0  0  0
  -26.8929  -13.5746   20.5919 C   0  0  0  0  0  0  0  0  0  0  0  0
  -29.3794  -13.6902   20.0335 C   0  0  0  0  0  0  0  0  0  0  0  0
  -32.7118  -25.9078   21.6014 C   0  0  0  0  0  0  0  0  0  0  0  0
  -25.7250  -27.9284   18.7767 C   0  0  0  0  0  0  0  0  0  0  0  0
  -31.6581  -25.7845   20.6757 C   0  0  0  0  0  0  0  0  0  0  0  0
  -24.9045  -27.7029   19.8912 C   0  0  0  0  0  0  0  0  0  0  0  0
  -22.2912  -22.6404   18.5869 C   0  0  0  0  0  0  0  0  0  0  0  0
  -24.3799  -12.3632   20.5988 C   0  0  0  0  0  0  0  0  0  0  0  0
  -23.1886  -26.7938   18.4287 C   0  0  0  0  0  0  0  0  0  0  0  0
  -23.0878  -10.4287   20.9307 C   0  0  0  0  0  0  0  0  0  0  0  0
  -22.9553   -7.7212   21.5899 C   0  0  0  0  0  0  0  0  0  0  0  0
  -22.3361  -10.0146   22.0304 C   0  0  0  0  0  0  0  0  0  0  0  0
  -28.1905  -14.2010   20.5881 C   0  0  0  0  0  0  0  0  0  0  0  0
  -23.3381  -20.5976   17.9644 C   0  0  0  0  0  0  0  0  0  0  0  0
  -24.6414  -22.3169   18.7539 C   0  0  0  0  0  0  0  0  0  0  0  0
  -30.3210  -14.6565   20.2905 C   0  0  0  0  0  0  0  0  0  0  0  0
  -29.6117  -12.4530   19.3472 C   0  0  0  0  0  0  0  0  0  0  0  0
  -28.1670  -26.9914   20.5829 C   0  0  0  0  0  0  0  0  0  0  0  0
  -27.1108  -29.3454   22.5489 C   0  0  0  0  0  0  0  0  0  0  0  0
  -24.5219  -31.3165   23.5781 C   0  0  0  0  0  0  0  0  0  0  0  0
  -29.9527  -20.5543   21.2556 C   0  0  0  0  0  0  0  0  0  0  0  0
  -32.4693  -25.8667   23.0894 C   0  0  0  0  0  0  0  0  0  0  0  0
  -27.0772  -28.5657   18.9427 C   0  0  0  0  0  0  0  0  0  0  0  0
  -25.3488  -28.0537   21.2869 C   0  0  0  0  0  0  0  0  0  0  0  0
  -31.0152  -26.1231   23.4769 C   0  0  0  0  0  0  0  0  0  0  0  0
  -31.3782  -18.1154   23.4226 C   0  0  0  0  0  0  0  0  0  0  0  0
  -30.0762  -25.2994   22.6013 C   0  0  0  0  0  0  0  0  0  0  0  0
  -30.8302  -16.7895   22.8918 C   0  0  0  0  0  0  0  0  0  0  0  0
  -30.3463  -19.2359   23.3155 C   0  0  0  0  0  0  0  0  0  0  0  0
  -29.2254  -18.0979   21.4387 C   0  0  0  0  0  0  0  0  0  0  0  0
  -30.2161  -25.6881   21.1246 C   0  0  1  0  0  0  0  0  0  0  0  0
  -27.6557  -28.3837   20.3426 C   0  0  1  0  0  0  0  0  0  0  0  0
  -30.2491  -16.9503   21.4741 C   0  0  2  0  0  0  0  0  0  0  0  0
  -25.9757  -15.9373   23.7468 C   0  0  0  0  0  0  0  0  0  0  0  0
  -23.9541  -33.1196   25.2285 C   0  0  0  0  0  0  0  0  0  0  0  0
  -27.0296  -27.2703   24.7843 C   0  0  0  0  0  0  0  0  0  0  0  0
  -25.5937  -28.8446   26.0989 C   0  0  0  0  0  0  0  0  0  0  0  0
  -27.9147  -29.5069   25.4688 C   0  0  0  0  0  0  0  0  0  0  0  0
  -23.8291  -33.2279   21.4274 C   0  0  0  0  0  0  0  0  0  0  0  0
  -21.0613  -23.4970   18.7518 C   0  0  0  0  0  0  0  0  0  0  0  0
  -23.2542  -19.2020   17.4419 C   0  0  0  0  0  0  0  0  0  0  0  0
  -24.8813  -15.9235   22.6915 C   0  0  0  0  0  0  0  0  0  0  0  0
  -20.7177  -24.3264   17.5126 C   0  0  0  0  0  0  0  0  0  0  0  0
  -23.0596  -18.1281   18.5272 C   0  0  0  0  0  0  0  0  0  0  0  0
  -25.0744  -17.0438   21.6699 C   0  0  0  0  0  0  0  0  0  0  0  0
  -24.1653  -18.1476   19.5873 C   0  0  0  0  0  0  0  0  0  0  0  0
  -23.9532  -17.0474   20.6295 C   0  0  0  0  0  0  0  0  0  0  0  0
  -28.2673  -22.6163   19.2762 C   0  0  0  0  0  0  0  0  0  0  0  0
  -29.5021  -21.7387   19.1217 C   0  0  0  0  0  0  0  0  0  0  0  0
  -21.7870  -25.3531   17.1576 C   0  0  0  0  0  0  0  0  0  1  0  0
  -26.9793  -21.9013   18.8862 C   0  0  0  0  0  0  0  0  0  0  0  0
  -26.1226  -29.4243   23.6874 C   0  0  1  0  0  0  0  0  0  0  0  0
  -24.4281  -32.8128   23.8165 C   0  0  2  0  0  0  0  0  0  0  0  0
  -26.6573  -28.7530   24.9839 C   0  0  0  0  0  0  0  0  0  0  0  0
  -28.3589  -15.3986   21.1549 N   0  0  0  0  0  0  0  0  0  0  0  0
  -24.5711  -21.0523   18.2812 N   0  0  0  0  0  0  0  0  0  0  0  0
  -29.6646  -15.6485   20.9578 N   0  0  0  0  0  0  0  0  0  0  0  0
  -26.6817  -28.6689   21.3982 N   0  0  0  0  0  0  0  0  0  0  0  0
  -29.8360  -19.3367   21.9460 N   0  0  0  0  0  0  0  0  0  0  0  0
  -31.6382  -14.7459   20.0087 N   0  0  0  0  0  0  0  0  0  0  0  0
  -28.5338  -11.5752   19.1688 N   0  0  0  0  0  0  0  0  0  0  0  0
  -29.5192  -26.9286   20.8603 N   0  0  0  0  0  0  0  0  0  0  0  0
  -25.7875  -30.8360   23.8400 N   0  0  0  0  0  0  0  0  0  0  0  0
  -29.4493  -20.5621   19.9605 N   0  0  0  0  0  0  0  0  0  0  0  0
  -23.4721  -33.4315   22.8550 N   0  3  0  0  0  0  0  0  0  0  0  0
  -30.7453  -12.1280   18.9197 O   0  0  0  0  0  0  0  0  0  0  0  0
  -27.3917  -26.0443   20.5226 O   0  0  0  0  0  0  0  0  0  0  0  0
  -28.2198  -29.8709   22.6732 O   0  0  0  0  0  0  0  0  0  0  0  0
  -23.5669  -30.6409   23.2012 O   0  0  0  0  0  0  0  0  0  0  0  0
  -30.4721  -21.5585   21.7543 O   0  0  0  0  0  0  0  0  0  0  0  0
  -23.1539  -11.7722   20.6017 O   0  0  0  0  0  0  0  0  0  0  0  0
  -21.9573  -26.2383   18.2638 O   0  0  0  0  0  0  0  0  0  1  0  0
  -25.8856  -22.7903   19.0793 O   0  0  0  0  0  0  0  0  0  0  0  0
  -22.8905   -6.4210   21.9053 F   0  0  0  0  0  0  0  0  0  0  0  0
  -21.6746  -10.9125   22.7732 F   0  0  0  0  0  0  0  0  0  0  0  0
  1  2  1  0  0  0  0
  1  5  2  0  0  0  0
  2  6  2  0  0  0  0
  3  8  2  0  0  0  0
  3 17  1  0  0  0  0
  4  9  1  0  0  0  0
  4 17  2  0  0  0  0
  5 19  1  0  0  0  0
  6 21  1  0  0  0  0
  7 10  2  0  0  0  0
  7 20  1  0  0  0  0
  8 24  1  0  0  0  0
  9 24  2  0  0  0  0
 10 25  1  0  0  0  0
 11 12  2  0  0  0  0
 11 26  1  0  0  0  0
 12 27  1  0  0  0  0
 13 22  1  0  0  0  0
 13 25  2  0  0  0  0
 14 23  2  0  0  0  0
 14 30  1  0  0  0  0
 15 23  1  0  0  0  0
 15 31  2  0  0  0  0
 16 27  2  0  0  0  0
 16 28  1  0  0  0  0
 17 29  1  0  0  0  0
 18 29  1  0  0  0  0
 18 32  2  0  0  0  0
 18 33  1  0  0  0  0
 19 21  2  0  0  0  0
 19 38  1  0  0  0  0
 20 22  2  0  0  0  0
 20 39  1  0  0  0  0
 21 47  1  0  0  0  0
 22 40  1  0  0  0  0
 23 56  1  0  0  0  0
 24 87  1  0  0  0  0
 25 88  1  0  0  0  0
 26 28  2  0  0  0  0
 26 87  1  0  0  0  0
 27 90  1  0  0  0  0
 28 91  1  0  0  0  0
 29 71  2  0  0  0  0
 30 57  1  0  0  0  0
 30 72  2  0  0  0  0
 31 72  1  0  0  0  0
 31 89  1  0  0  0  0
 32 73  1  0  0  0  0
 32 76  1  0  0  0  0
 33 77  1  0  0  0  0
 33 82  2  0  0  0  0
 34 48  1  0  0  0  0
 34 78  1  0  0  0  0
 34 83  2  0  0  0  0
 35 68  1  0  0  0  0
 35 74  1  0  0  0  0
 35 84  2  0  0  0  0
 36 69  1  0  0  0  0
 36 79  1  0  0  0  0
 36 85  2  0  0  0  0
 37 75  1  0  0  0  0
 37 80  1  0  0  0  0
 37 86  2  0  0  0  0
 38 41  1  0  0  0  0
 39 48  1  0  0  0  0
 40 74  1  0  0  0  0
 41 43  1  0  0  0  0
 42 44  1  0  0  0  0
 42 45  1  0  0  0  0
 43 47  1  0  0  0  0
 44 49  1  0  0  0  0
 45 75  1  0  0  0  0
 46 49  1  0  0  0  0
 46 75  1  0  0  0  0
 47 78  1  0  0  0  0
 48 74  1  0  0  0  0
 49 73  1  0  0  0  0
 50 58  1  0  0  0  0
 51 69  1  0  0  0  0
 52 70  1  0  0  0  0
 53 70  1  0  0  0  0
 54 70  1  0  0  0  0
 55 81  1  0  0  0  0
 56 59  1  0  0  0  0
 57 60  1  0  0  0  0
 58 61  1  0  0  0  0
 59 66  1  0  0  0  0
 60 62  1  0  0  0  0
 61 63  1  0  0  0  0
 62 63  1  0  0  0  0
 64 65  1  0  0  0  0
 64 67  1  0  0  0  0
 65 80  1  0  0  0  0
 66 88  1  0  0  0  0
 67 89  1  0  0  0  0
 68 70  1  0  0  0  0
 68 79  1  0  0  0  0
 69 81  1  0  0  0  0
 71 73  1  0  0  0  0
M  CHG  1  81   1
M  ISO  4  37 100  66 101  80 100  88 101
M  END
> <Batch ID>
0090

> <Smiles>
CCCCCCCc1cc(CC[101CH2:1][101O:1]c2ccc3c(c2)CN(C(=O)C(NC(=O)C(C)NC)C(C)(C)C)C(C(=O)NC2CCCc4ccccc42)C3)cc(OCCC[100NH:0][100C:0](=O)N2CCCC(n3nc(-c4ccc(Oc5ccc(F)cc5F)cc4)c(C(N)=O)c3N)C2)n1

> <Shape>
0.263

> <Color>
0.072

> <Negative vol penalty>
0.000

$$$$

  -OEChem-04052319093D

 85 93  0     1  0  0  0  0  0999 V2000
  -17.1006  -29.8378   24.6364 C   0  0  0  0  0  0  0  0  0  0  0  0
  -17.6448  -28.5593   24.5664 C   0  0  0  0  0  0  0  0  0  0  0  0
  -30.4044  -21.2333   17.6311 C   0  0  0  0  0  0  0  0  0  0  0  0
  -29.3536  -21.5544   19.7828 C   0  0  0  0  0  0  0  0  0  0  0  0
  -17.4589  -30.7992   23.6924 C   0  0  0  0  0  0  0  0  0  0  0  0
  -18.5468  -28.2413   23.5517 C   0  0  0  0  0  0  0  0  0  0  0  0
  -23.3488  -24.4609   23.9461 C   0  0  0  0  0  0  0  0  0  0  0  0
  -21.2200  -17.4858   19.8066 C   0  0  0  0  0  0  0  0  0  0  0  0
  -30.2464  -22.5906   17.3514 C   0  0  0  0  0  0  0  0  0  0  0  0
  -29.1957  -22.9118   19.5031 C   0  0  0  0  0  0  0  0  0  0  0  0
  -23.5261  -23.1282   23.5774 C   0  0  0  0  0  0  0  0  0  0  0  0
  -27.7681  -24.6519   16.3349 C   0  0  0  0  0  0  0  0  0  0  0  0
  -27.2933  -25.0014   15.0708 C   0  0  0  0  0  0  0  0  0  0  0  0
  -21.0350  -16.4714   18.8738 C   0  0  0  0  0  0  0  0  0  0  0  0
  -24.4908  -23.8418   21.4847 C   0  0  0  0  0  0  0  0  0  0  0  0
  -29.3180  -26.2528   14.6564 C   0  0  0  0  0  0  0  0  0  0  0  0
  -29.9579  -20.7152   18.8468 C   0  0  0  0  0  0  0  0  0  0  0  0
  -31.2186  -18.6963   19.7647 C   0  0  0  0  0  0  0  0  0  0  0  0
  -18.3732  -30.4957   22.6713 C   0  0  0  0  0  0  0  0  0  0  0  0
  -23.7318  -25.4959   23.0809 C   0  0  0  0  0  0  0  0  0  0  0  0
  -18.9167  -29.1993   22.5924 C   0  0  0  0  0  0  0  0  0  0  0  0
  -24.3197  -25.1869   21.8459 C   0  0  0  0  0  0  0  0  0  0  0  0
  -22.0026  -17.2533   20.9321 C   0  0  0  0  0  0  0  0  0  0  0  0
  -29.6421  -23.4299   18.2874 C   0  0  0  0  0  0  0  0  0  0  0  0
  -24.0945  -22.8184   22.3453 C   0  0  0  0  0  0  0  0  0  0  0  0
  -29.0178  -25.1030   16.7599 C   0  0  0  0  0  0  0  0  0  0  0  0
  -28.0683  -25.8018   14.2315 C   0  0  0  0  0  0  0  0  0  0  0  0
  -29.7928  -25.9034   15.9206 C   0  0  0  0  0  0  0  0  0  0  0  0
  -30.1203  -19.3130   19.1361 C   0  0  0  0  0  0  0  0  0  0  0  0
  -21.6493  -15.2523   19.1109 C   0  0  0  0  0  0  0  0  0  0  0  0
  -22.5735  -15.9991   21.0772 C   0  0  0  0  0  0  0  0  0  0  0  0
  -30.8884  -17.3637   19.8033 C   0  0  0  0  0  0  0  0  0  0  0  0
  -32.4291  -19.2762   20.2688 C   0  0  0  0  0  0  0  0  0  0  0  0
  -22.2065  -27.8507   21.5869 C   0  0  0  0  0  0  0  0  0  0  0  0
  -25.2110  -28.7406   20.7482 C   0  0  0  0  0  0  0  0  0  0  0  0
  -28.4619  -27.8394   20.2323 C   0  0  0  0  0  0  0  0  0  0  0  0
  -25.6538  -14.4571   19.7581 C   0  0  0  0  0  0  0  0  0  0  0  0
  -18.6938  -31.5541   21.6458 C   0  0  0  0  0  0  0  0  0  0  0  0
  -23.5584  -26.9286   23.5048 C   0  0  0  0  0  0  0  0  0  0  0  0
  -24.7665  -26.2611   20.8894 C   0  0  0  0  0  0  0  0  0  0  0  0
  -19.9428  -31.2470   20.8236 C   0  0  0  0  0  0  0  0  0  0  0  0
  -28.3383  -14.0683   17.4519 C   0  0  0  0  0  0  0  0  0  0  0  0
  -19.9209  -29.8006   20.3395 C   0  0  0  0  0  0  0  0  0  0  0  0
  -29.1985  -15.3128   17.6787 C   0  0  0  0  0  0  0  0  0  0  0  0
  -26.8495  -14.3786   17.5900 C   0  0  0  0  0  0  0  0  0  0  0  0
  -27.3291  -16.2820   19.0802 C   0  0  0  0  0  0  0  0  0  0  0  0
  -19.9173  -28.8233   21.5212 C   0  0  1  0  0  0  0  0  0  0  0  0
  -23.5127  -27.8985   22.3281 C   0  0  1  0  0  0  0  0  0  0  0  0
  -28.8408  -16.0073   19.0065 C   0  0  2  0  0  0  0  0  0  0  0  0
  -22.5473  -14.1510   17.0452 C   0  0  0  0  0  0  0  0  0  0  0  0
  -22.5879  -15.2046   23.4631 C   0  0  0  0  0  0  0  0  0  0  0  0
  -30.6759  -28.7773   19.5139 C   0  0  0  0  0  0  0  0  0  0  0  0
  -24.2657  -28.7439   17.8471 C   0  0  0  0  0  0  0  0  0  0  0  0
  -26.6667  -28.7418   17.1377 C   0  0  0  0  0  0  0  0  0  0  0  0
  -25.7602  -30.6533   18.4595 C   0  0  0  0  0  0  0  0  0  0  0  0
  -29.7182  -27.1707   22.8272 C   0  0  0  0  0  0  0  0  0  0  0  0
  -22.2059  -18.3490   21.9479 C   0  0  0  0  0  0  0  0  0  0  0  0
  -21.4734  -14.1419   18.1295 C   0  0  0  0  0  0  0  0  0  0  0  0
  -23.2014  -19.4231   21.5044 C   0  0  0  0  0  0  0  0  0  0  0  0
  -24.5455  -14.6669   21.9687 C   0  0  0  0  0  0  0  0  0  0  0  0
  -23.3358  -20.5697   22.4997 C   0  0  0  0  0  0  0  0  0  1  0  0
  -23.4263  -15.6934   22.2646 C   0  0  1  0  0  0  0  0  0  0  0  0
  -26.1369  -28.4274   19.5977 C   0  0  1  0  0  0  0  0  0  0  0  0
  -29.7660  -28.4658   20.6920 C   0  0  2  0  0  0  0  0  0  0  0  0
  -25.6973  -29.1211   18.2775 C   0  0  0  0  0  0  0  0  0  0  0  0
  -29.1639  -18.4435   18.7994 N   0  0  0  0  0  0  0  0  0  0  0  0
  -22.4165  -14.9891   20.1924 N   0  0  0  0  0  0  0  0  0  0  0  0
  -29.6603  -17.2669   19.2179 N   0  0  0  0  0  0  0  0  0  0  0  0
  -24.5700  -27.6467   21.3467 N   0  0  0  0  0  0  0  0  0  0  0  0
  -26.5771  -15.0348   18.8711 N   0  0  0  0  0  0  0  0  0  0  0  0
  -31.5316  -16.2769   20.2804 N   0  0  0  0  0  0  0  0  0  0  0  0
  -32.6072  -20.6612   20.1483 N   0  0  0  0  0  0  0  0  0  0  0  0
  -21.2448  -28.7083   22.0860 N   0  0  0  0  0  0  0  0  0  0  0  0
  -27.4785  -28.7873   20.0437 N   0  0  0  0  0  0  0  0  0  0  0  0
  -25.4590  -15.1398   20.9526 N   0  0  0  0  0  0  0  0  0  0  0  0
  -30.4881  -27.5425   21.6123 N   0  3  0  0  0  0  0  0  0  0  0  0
  -33.3334  -18.5845   20.7953 O   0  0  0  0  0  0  0  0  0  0  0  0
  -22.0811  -27.0930   20.6320 O   0  0  0  0  0  0  0  0  0  0  0  0
  -25.0676  -29.9120   21.1074 O   0  0  0  0  0  0  0  0  0  0  0  0
  -28.3300  -26.6304   20.0543 O   0  0  0  0  0  0  0  0  0  0  0  0
  -25.0519  -13.4076   19.5067 O   0  0  0  0  0  0  0  0  0  0  0  0
  -29.4880  -24.7545   18.0149 O   0  0  0  0  0  0  0  0  0  0  0  0
  -24.2681  -21.5183   21.9826 O   0  0  0  0  0  0  0  0  0  1  0  0
  -27.6130  -26.1360   13.0170 F   0  0  0  0  0  0  0  0  0  0  0  0
  -30.9946  -26.3387   16.3228 F   0  0  0  0  0  0  0  0  0  0  0  0
  1  2  1  0  0  0  0
  1  5  2  0  0  0  0
  2  6  2  0  0  0  0
  3  9  2  0  0  0  0
  3 17  1  0  0  0  0
  4 10  1  0  0  0  0
  4 17  2  0  0  0  0
  5 19  1  0  0  0  0
  6 21  1  0  0  0  0
  7 11  2  0  0  0  0
  7 20  1  0  0  0  0
  8 14  2  0  0  0  0
  8 23  1  0  0  0  0
  9 24  1  0  0  0  0
 10 24  2  0  0  0  0
 11 25  1  0  0  0  0
 12 13  2  0  0  0  0
 12 26  1  0  0  0  0
 13 27  1  0  0  0  0
 14 30  1  0  0  0  0
 15 22  1  0  0  0  0
 15 25  2  0  0  0  0
 16 27  2  0  0  0  0
 16 28  1  0  0  0  0
 17 29  1  0  0  0  0
 18 29  1  0  0  0  0
 18 32  2  0  0  0  0
 18 33  1  0  0  0  0
 19 21  2  0  0  0  0
 19 38  1  0  0  0  0
 20 22  2  0  0  0  0
 20 39  1  0  0  0  0
 21 47  1  0  0  0  0
 22 40  1  0  0  0  0
 23 31  2  0  0  0  0
 23 57  1  0  0  0  0
 24 82  1  0  0  0  0
 25 83  1  0  0  0  0
 26 28  2  0  0  0  0
 26 82  1  0  0  0  0
 27 84  1  0  0  0  0
 28 85  1  0  0  0  0
 29 66  2  0  0  0  0
 30 58  1  0  0  0  0
 30 67  2  0  0  0  0
 31 62  1  0  0  0  0
 31 67  1  0  0  0  0
 32 68  1  0  0  0  0
 32 71  1  0  0  0  0
 33 72  1  0  0  0  0
 33 77  2  0  0  0  0
 34 48  1  0  0  0  0
 34 73  1  0  0  0  0
 34 78  2  0  0  0  0
 35 63  1  0  0  0  0
 35 69  1  0  0  0  0
 35 79  2  0  0  0  0
 36 64  1  0  0  0  0
 36 74  1  0  0  0  0
 36 80  2  0  0  0  0
 37 70  1  0  0  0  0
 37 75  1  0  0  0  0
 37 81  2  0  0  0  0
 38 41  1  0  0  0  0
 39 48  1  0  0  0  0
 40 69  1  0  0  0  0
 41 43  1  0  0  0  0
 42 44  1  0  0  0  0
 42 45  1  0  0  0  0
 43 47  1  0  0  0  0
 44 49  1  0  0  0  0
 45 70  1  0  0  0  0
 46 49  1  0  0  0  0
 46 70  1  0  0  0  0
 47 73  1  0  0  0  0
 48 69  1  0  0  0  0
 49 68  1  0  0  0  0
 50 58  1  0  0  0  0
 51 62  1  0  0  0  0
 52 64  1  0  0  0  0
 53 65  1  0  0  0  0
 54 65  1  0  0  0  0
 55 65  1  0  0  0  0
 56 76  1  0  0  0  0
 57 59  1  0  0  0  0
 59 61  1  0  0  0  0
 60 62  1  0  0  0  0
 60 75  1  0  0  0  0
 61 83  1  0  0  0  0
 63 65  1  0  0  0  0
 63 74  1  0  0  0  0
 64 76  1  0  0  0  0
 66 68  1  0  0  0  0
M  CHG  1  76   1
M  ISO  4  37 100  61 101  75 100  83 101
M  END
> <Batch ID>
0090

> <Smiles>
CCc1ccc(CC[101CH2:1][101O:1]c2ccc3c(c2)CN(C(=O)C(NC(=O)C(C)NC)C(C)(C)C)C(C(=O)NC2CCCc4ccccc42)C3)c(C(C)C[100NH:0][100C:0](=O)N2CCCC(n3nc(-c4ccc(Oc5ccc(F)cc5F)cc4)c(C(N)=O)c3N)C2)n1

> <Shape>
0.187

> <Color>
0.078

> <Negative vol penalty>
0.000

$$$$

  -OEChem-04052319093D

 91 99  0     1  0  0  0  0  0999 V2000
  -31.4285  -25.1590   14.5767 C   0  0  0  0  0  0  0  0  0  0  0  0
  -30.0541  -25.1769   14.7912 C   0  0  0  0  0  0  0  0  0  0  0  0
  -22.4281  -10.7589   22.4403 C   0  0  0  0  0  0  0  0  0  0  0  0
  -21.9535  -10.6803   20.0727 C   0  0  0  0  0  0  0  0  0  0  0  0
  -32.3029  -25.2057   15.6616 C   0  0  0  0  0  0  0  0  0  0  0  0
  -29.5532  -25.2404   16.0910 C   0  0  0  0  0  0  0  0  0  0  0  0
  -24.4828  -28.1315   17.9454 C   0  0  0  0  0  0  0  0  0  0  0  0
  -21.8637   -9.4928   22.5955 C   0  0  0  0  0  0  0  0  0  0  0  0
  -21.3892   -9.4141   20.2278 C   0  0  0  0  0  0  0  0  0  0  0  0
  -23.1890  -27.6822   18.2058 C   0  0  0  0  0  0  0  0  0  0  0  0
  -22.7705   -6.2792   22.0633 C   0  0  0  0  0  0  0  0  0  0  0  0
  -23.4609   -5.3532   22.8453 C   0  0  0  0  0  0  0  0  0  0  0  0
  -23.7281  -27.5074   20.5506 C   0  0  0  0  0  0  0  0  0  0  0  0
  -22.9344  -23.5221   19.7568 C   0  0  0  0  0  0  0  0  0  0  0  0
  -21.5665   -5.2006   24.3369 C   0  0  0  0  0  0  0  0  0  0  0  0
  -22.4729  -11.3527   21.1789 C   0  0  0  0  0  0  0  0  0  0  0  0
  -24.4012  -12.9636   20.7380 C   0  0  0  0  0  0  0  0  0  0  0  0
  -31.8126  -25.2796   16.9749 C   0  0  0  0  0  0  0  0  0  0  0  0
  -25.4139  -28.2619   18.9858 C   0  0  0  0  0  0  0  0  0  0  0  0
  -30.4219  -25.2869   17.1947 C   0  0  0  0  0  0  0  0  0  0  0  0
  -25.0323  -27.9610   20.3011 C   0  0  0  0  0  0  0  0  0  0  0  0
  -23.8344  -22.6731   19.1223 C   0  0  0  0  0  0  0  0  0  0  0  0
  -21.5679  -23.3030   19.6231 C   0  0  0  0  0  0  0  0  0  0  0  0
  -21.3443   -8.8204   21.4893 C   0  0  0  0  0  0  0  0  0  0  0  0
  -22.8123  -27.3673   19.5081 C   0  0  0  0  0  0  0  0  0  0  0  0
  -21.4782   -6.6660   22.4181 C   0  0  0  0  0  0  0  0  0  0  0  0
  -22.8589   -4.8139   23.9821 C   0  0  0  0  0  0  0  0  0  0  0  0
  -20.8761   -6.1266   23.5549 C   0  0  0  0  0  0  0  0  0  0  0  0
  -23.0552  -12.6608   21.0180 C   0  0  0  0  0  0  0  0  0  0  0  0
  -23.3209  -21.6278   18.3716 C   0  0  0  0  0  0  0  0  0  0  0  0
  -21.1559  -22.2296   18.8498 C   0  0  0  0  0  0  0  0  0  0  0  0
  -24.4404  -14.3354   20.6837 C   0  0  0  0  0  0  0  0  0  0  0  0
  -25.5163  -12.0834   20.5442 C   0  0  0  0  0  0  0  0  0  0  0  0
  -28.2207  -26.9332   19.6639 C   0  0  0  0  0  0  0  0  0  0  0  0
  -28.2216  -29.0971   22.0805 C   0  0  0  0  0  0  0  0  0  0  0  0
  -26.4220  -31.1097   24.1679 C   0  0  0  0  0  0  0  0  0  0  0  0
  -20.2973  -18.3412   19.4016 C   0  0  0  0  0  0  0  0  0  0  0  0
  -32.7964  -25.2805   18.1181 C   0  0  0  0  0  0  0  0  0  0  0  0
  -26.7976  -28.7734   18.6922 C   0  0  0  0  0  0  0  0  0  0  0  0
  -25.9881  -28.1034   21.4563 C   0  0  0  0  0  0  0  0  0  0  0  0
  -32.1873  -25.7250   19.4454 C   0  0  0  0  0  0  0  0  0  0  0  0
  -22.2590  -18.2166   22.4403 C   0  0  0  0  0  0  0  0  0  0  0  0
  -30.8539  -25.0232   19.6825 C   0  0  0  0  0  0  0  0  0  0  0  0
  -22.8147  -16.7923   22.3854 C   0  0  0  0  0  0  0  0  0  0  0  0
  -20.8284  -18.2725   21.9128 C   0  0  0  0  0  0  0  0  0  0  0  0
  -21.2123  -16.3053   20.4788 C   0  0  0  0  0  0  0  0  0  0  0  0
  -29.8403  -25.3803   18.5886 C   0  0  1  0  0  0  0  0  0  0  0  0
  -27.8186  -28.3781   19.7545 C   0  0  1  0  0  0  0  0  0  0  0  0
  -22.6639  -16.1859   20.9777 C   0  0  2  0  0  0  0  0  0  0  0  0
  -24.4373  -18.8748   15.9058 C   0  0  0  0  0  0  0  0  0  0  0  0
  -29.5657  -21.6406   21.7140 C   0  0  0  0  0  0  0  0  0  0  0  0
  -26.6981  -32.7317   26.0627 C   0  0  0  0  0  0  0  0  0  0  0  0
  -17.8861  -20.2186   18.2957 C   0  0  0  0  0  0  0  0  0  0  0  0
  -28.7198  -26.7732   23.9939 C   0  0  0  0  0  0  0  0  0  0  0  0
  -28.0453  -28.2737   25.8812 C   0  0  0  0  0  0  0  0  0  0  0  0
  -30.0402  -28.8375   24.4937 C   0  0  0  0  0  0  0  0  0  0  0  0
  -25.2196  -33.3176   22.6063 C   0  0  0  0  0  0  0  0  0  0  0  0
  -25.2996  -22.9024   19.2617 C   0  0  0  0  0  0  0  0  0  0  0  0
  -20.5867  -24.2201   20.3083 C   0  0  0  0  0  0  0  0  0  0  0  0
  -24.2396  -20.6843   17.6666 C   0  0  0  0  0  0  0  0  0  0  0  0
  -19.7001  -21.9460   18.6726 C   0  0  0  0  0  0  0  0  0  0  0  0
  -23.4954  -19.8109   16.6463 C   0  0  0  0  0  0  0  0  0  0  0  0
  -28.0942  -21.3269   21.4950 C   0  0  0  0  0  0  0  0  0  0  0  0
  -25.9780  -21.9686   20.2739 C   0  0  0  0  0  0  0  0  0  0  0  0
  -19.9145  -25.2191   19.3640 C   0  0  0  0  0  0  0  0  0  0  0  0
  -27.4694  -22.2647   20.4613 C   0  0  0  0  0  0  0  0  0  0  0  0
  -20.8920  -26.2009   18.7284 C   0  0  0  0  0  0  0  0  0  1  0  0
  -27.7280  -29.1068   23.5071 C   0  0  1  0  0  0  0  0  0  0  0  0
  -26.5911  -32.5679   24.5546 C   0  0  2  0  0  0  0  0  0  0  0  0
  -19.3844  -20.4497   18.4646 C   0  0  1  0  0  0  0  0  0  0  0  0
  -28.6156  -28.2432   24.4472 C   0  0  0  0  0  0  0  0  0  0  0  0
  -22.2944  -13.7525   21.1338 N   0  0  0  0  0  0  0  0  0  0  0  0
  -22.0002  -21.3833   18.2184 N   0  0  0  0  0  0  0  0  0  0  0  0
  -23.1653  -14.7547   20.9255 N   0  0  0  0  0  0  0  0  0  0  0  0
  -27.3316  -28.6012   21.1173 N   0  0  0  0  0  0  0  0  0  0  0  0
  -20.7570  -17.6971   20.5623 N   0  0  0  0  0  0  0  0  0  0  0  0
  -25.4410  -15.2119   20.4534 N   0  0  0  0  0  0  0  0  0  0  0  0
  -25.3003  -10.7016   20.6341 N   0  0  0  0  0  0  0  0  0  0  0  0
  -29.2899  -26.6985   18.8205 N   0  0  0  0  0  0  0  0  0  0  0  0
  -27.6333  -30.5095   23.8968 N   0  0  0  0  0  0  0  0  0  0  0  0
  -19.8777  -19.6554   19.5677 N   0  0  0  0  0  0  0  0  0  0  0  0
  -25.4289  -33.3688   24.0762 N   0  3  0  0  0  0  0  0  0  0  0  0
  -26.6733  -12.5103   20.3148 O   0  0  0  0  0  0  0  0  0  0  0  0
  -27.6073  -26.0936   20.3124 O   0  0  0  0  0  0  0  0  0  0  0  0
  -29.3524  -29.5209   21.8290 O   0  0  0  0  0  0  0  0  0  0  0  0
  -25.3253  -30.5574   24.1155 O   0  0  0  0  0  0  0  0  0  0  0  0
  -20.2680  -17.7877   18.2971 O   0  0  0  0  0  0  0  0  0  0  0  0
  -20.7938   -7.5848   21.6403 O   0  0  0  0  0  0  0  0  0  0  0  0
  -21.5502  -26.9279   19.7650 O   0  0  0  0  0  0  0  0  0  1  0  0
  -23.5213   -3.9235   24.7321 F   0  0  0  0  0  0  0  0  0  0  0  0
  -19.6343   -6.4934   23.9002 F   0  0  0  0  0  0  0  0  0  0  0  0
  1  2  1  0  0  0  0
  1  5  2  0  0  0  0
  2  6  2  0  0  0  0
  3  8  2  0  0  0  0
  3 16  1  0  0  0  0
  4  9  1  0  0  0  0
  4 16  2  0  0  0  0
  5 18  1  0  0  0  0
  6 20  1  0  0  0  0
  7 10  2  0  0  0  0
  7 19  1  0  0  0  0
  8 24  1  0  0  0  0
  9 24  2  0  0  0  0
 10 25  1  0  0  0  0
 11 12  2  0  0  0  0
 11 26  1  0  0  0  0
 12 27  1  0  0  0  0
 13 21  1  0  0  0  0
 13 25  2  0  0  0  0
 14 22  1  0  0  0  0
 14 23  2  0  0  0  0
 15 27  2  0  0  0  0
 15 28  1  0  0  0  0
 16 29  1  0  0  0  0
 17 29  1  0  0  0  0
 17 32  2  0  0  0  0
 17 33  1  0  0  0  0
 18 20  2  0  0  0  0
 18 38  1  0  0  0  0
 19 21  2  0  0  0  0
 19 39  1  0  0  0  0
 20 47  1  0  0  0  0
 21 40  1  0  0  0  0
 22 30  2  0  0  0  0
 22 58  1  0  0  0  0
 23 31  1  0  0  0  0
 23 59  1  0  0  0  0
 24 88  1  0  0  0  0
 25 89  1  0  0  0  0
 26 28  2  0  0  0  0
 26 88  1  0  0  0  0
 27 90  1  0  0  0  0
 28 91  1  0  0  0  0
 29 72  2  0  0  0  0
 30 60  1  0  0  0  0
 30 73  1  0  0  0  0
 31 61  1  0  0  0  0
 31 73  2  0  0  0  0
 32 74  1  0  0  0  0
 32 77  1  0  0  0  0
 33 78  1  0  0  0  0
 33 83  2  0  0  0  0
 34 48  1  0  0  0  0
 34 79  1  0  0  0  0
 34 84  2  0  0  0  0
 35 68  1  0  0  0  0
 35 75  1  0  0  0  0
 35 85  2  0  0  0  0
 36 69  1  0  0  0  0
 36 80  1  0  0  0  0
 36 86  2  0  0  0  0
 37 76  1  0  0  0  0
 37 81  1  0  0  0  0
 37 87  2  0  0  0  0
 38 41  1  0  0  0  0
 39 48  1  0  0  0  0
 40 75  1  0  0  0  0
 41 43  1  0  0  0  0
 42 44  1  0  0  0  0
 42 45  1  0  0  0  0
 43 47  1  0  0  0  0
 44 49  1  0  0  0  0
 45 76  1  0  0  0  0
 46 49  1  0  0  0  0
 46 76  1  0  0  0  0
 47 79  1  0  0  0  0
 48 75  1  0  0  0  0
 49 74  1  0  0  0  0
 50 62  1  0  0  0  0
 51 63  1  0  0  0  0
 52 69  1  0  0  0  0
 53 70  1  0  0  0  0
 54 71  1  0  0  0  0
 55 71  1  0  0  0  0
 56 71  1  0  0  0  0
 57 82  1  0  0  0  0
 58 64  1  0  0  0  0
 59 65  1  0  0  0  0
 60 62  1  0  0  0  0
 61 70  1  0  0  0  0
 63 66  1  0  0  0  0
 64 66  1  0  0  0  0
 65 67  1  0  0  0  0
 67 89  1  0  0  0  0
 68 71  1  0  0  0  0
 68 80  1  0  0  0  0
 69 82  1  0  0  0  0
 70 81  1  0  0  0  0
 72 74  1  0  0  0  0
M  CHG  1  82   1
M  ISO  4  37 100  67 101  81 100  89 101
M  END
> <Batch ID>
0090

> <Smiles>
CCCCCc1cc(CC[101CH2:1][101O:1]c2ccc3c(c2)CN(C(=O)C(NC(=O)C(C)NC)C(C)(C)C)C(C(=O)NC2CCCc4ccccc42)C3)c(CC(C)[100NH:0][100C:0](=O)N2CCCC(n3nc(-c4ccc(Oc5ccc(F)cc5F)cc4)c(C(N)=O)c3N)C2)nc1CCC

> <Shape>
0.233

> <Color>
0.104

> <Negative vol penalty>
0.000

$$$$

  -OEChem-04052319093D

 84 92  0     1  0  0  0  0  0999 V2000
  -28.0875  -30.9376   22.3891 C   0  0  0  0  0  0  0  0  0  0  0  0
  -27.9609  -29.5598   22.5348 C   0  0  0  0  0  0  0  0  0  0  0  0
  -23.0058   -9.8873   19.9815 C   0  0  0  0  0  0  0  0  0  0  0  0
  -23.7304   -9.9455   22.2856 C   0  0  0  0  0  0  0  0  0  0  0  0
  -28.1142  -31.7572   23.5167 C   0  0  0  0  0  0  0  0  0  0  0  0
  -27.8621  -29.0008   23.8085 C   0  0  0  0  0  0  0  0  0  0  0  0
  -24.2361  -25.4783   24.1079 C   0  0  0  0  0  0  0  0  0  0  0  0
  -22.2426   -8.7511   20.2502 C   0  0  0  0  0  0  0  0  0  0  0  0
  -22.9671   -8.8093   22.5543 C   0  0  0  0  0  0  0  0  0  0  0  0
  -24.5272  -24.2189   23.5855 C   0  0  0  0  0  0  0  0  0  0  0  0
  -23.2213   -5.4701   22.0898 C   0  0  0  0  0  0  0  0  0  0  0  0
  -23.8116   -4.4563   22.8443 C   0  0  0  0  0  0  0  0  0  0  0  0
  -24.9841  -23.4081   25.8110 C   0  0  0  0  0  0  0  0  0  0  0  0
  -29.3118  -18.9294   22.2927 C   0  0  0  0  0  0  0  0  0  0  0  0
  -22.0867   -4.6978   24.5186 C   0  0  0  0  0  0  0  0  0  0  0  0
  -23.7498  -10.4844   20.9992 C   0  0  0  0  0  0  0  0  0  0  0  0
  -24.1277  -13.0008   20.8178 C   0  0  0  0  0  0  0  0  0  0  0  0
  -28.0060  -31.2087   24.8044 C   0  0  0  0  0  0  0  0  0  0  0  0
  -24.3275  -25.7154   25.4869 C   0  0  0  0  0  0  0  0  0  0  0  0
  -27.8887  -29.8137   24.9544 C   0  0  0  0  0  0  0  0  0  0  0  0
  -24.6911  -24.6707   26.3486 C   0  0  0  0  0  0  0  0  0  0  0  0
  -28.6191  -19.4193   23.4272 C   0  0  0  0  0  0  0  0  0  0  0  0
  -22.2232   -8.2122   21.5366 C   0  0  0  0  0  0  0  0  0  0  0  0
  -24.9040  -23.1843   24.4368 C   0  0  0  0  0  0  0  0  0  0  0  0
  -22.0637   -6.0979   22.5498 C   0  0  0  0  0  0  0  0  0  0  0  0
  -23.2444   -4.0701   24.0587 C   0  0  0  0  0  0  0  0  0  0  0  0
  -21.4964   -5.7117   23.7641 C   0  0  0  0  0  0  0  0  0  0  0  0
  -24.5389  -11.6578   20.7222 C   0  0  0  0  0  0  0  0  0  0  0  0
  -29.9503  -17.7687   22.6701 C   0  0  0  0  0  0  0  0  0  0  0  0
  -28.8554  -18.5431   24.4635 C   0  0  0  0  0  0  0  0  0  0  0  0
  -25.2355  -13.7258   20.4520 C   0  0  0  0  0  0  0  0  0  0  0  0
  -22.8581  -13.5443   21.2028 C   0  0  0  0  0  0  0  0  0  0  0  0
  -26.0807  -27.6285   27.3227 C   0  0  0  0  0  0  0  0  0  0  0  0
  -24.1636  -26.4828   29.6752 C   0  0  0  0  0  0  0  0  0  0  0  0
  -22.1216  -23.9860   30.7901 C   0  0  0  0  0  0  0  0  0  0  0  0
  -30.7290  -14.6771   20.6997 C   0  0  0  0  0  0  0  0  0  0  0  0
  -28.0873  -32.1306   25.9952 C   0  0  0  0  0  0  0  0  0  0  0  0
  -23.9843  -27.0724   26.0375 C   0  0  0  0  0  0  0  0  0  0  0  0
  -24.7846  -24.8681   27.8389 C   0  0  0  0  0  0  0  0  0  0  0  0
  -27.6003  -31.4927   27.2937 C   0  0  0  0  0  0  0  0  0  0  0  0
  -29.5959  -12.2449   18.3593 C   0  0  0  0  0  0  0  0  0  0  0  0
  -28.1944  -30.0975   27.4588 C   0  0  0  0  0  0  0  0  0  0  0  0
  -28.1481  -11.9818   18.7771 C   0  0  0  0  0  0  0  0  0  0  0  0
  -30.4974  -12.4856   19.5682 C   0  0  0  0  0  0  0  0  0  0  0  0
  -28.5847  -13.2785   20.9048 C   0  0  0  0  0  0  0  0  0  0  0  0
  -27.7540  -29.1719   26.3182 C   0  0  1  0  0  0  0  0  0  0  0  0
  -24.6087  -27.3383   27.4038 C   0  0  1  0  0  0  0  0  0  0  0  0
  -27.6265  -13.0854   19.7170 C   0  0  2  0  0  0  0  0  0  0  0  0
  -26.8405  -18.4773   25.9766 C   0  0  0  0  0  0  0  0  0  0  0  0
  -28.8733  -19.8117   26.6416 C   0  0  0  0  0  0  0  0  0  0  0  0
  -20.7295  -23.3148   32.7672 C   0  0  0  0  0  0  0  0  0  0  0  0
  -26.6965  -25.7238   31.1979 C   0  0  0  0  0  0  0  0  0  0  0  0
  -25.2945  -24.2475   32.6550 C   0  0  0  0  0  0  0  0  0  0  0  0
  -24.8841  -26.7077   32.6127 C   0  0  0  0  0  0  0  0  0  0  0  0
  -30.1485  -16.4221   24.7697 C   0  0  0  0  0  0  0  0  0  0  0  0
  -19.6393  -23.9559   29.1788 C   0  0  0  0  0  0  0  0  0  0  0  0
  -27.7791  -20.6703   23.4817 C   0  0  0  0  0  0  0  0  0  0  0  0
  -30.8051  -16.8588   21.8800 C   0  0  0  0  0  0  0  0  0  0  0  0
  -26.6171  -20.6758   22.4860 C   0  0  0  0  0  0  0  0  0  0  0  0
  -25.7239  -21.9050   22.6073 C   0  0  0  0  0  0  0  0  0  1  0  0
  -28.3789  -18.5719   25.8628 C   0  0  0  0  0  0  0  0  0  0  0  0
  -24.2156  -25.3051   30.6182 C   0  0  1  0  0  0  0  0  0  0  0  0
  -20.7407  -24.0197   31.4197 C   0  0  2  0  0  0  0  0  0  0  0  0
  -25.2729  -25.4925   31.7427 C   0  0  0  0  0  0  0  0  0  0  0  0
  -25.8086  -11.5341   20.3266 N   0  0  0  0  0  0  0  0  0  0  0  0
  -29.6660  -17.5438   23.9918 N   0  0  0  0  0  0  0  0  0  0  0  0
  -26.2049  -12.8087   20.1702 N   0  0  0  0  0  0  0  0  0  0  0  0
  -24.4453  -26.2145   28.3282 N   0  0  0  0  0  0  0  0  0  0  0  0
  -29.9473  -13.5446   20.4178 N   0  0  0  0  0  0  0  0  0  0  0  0
  -25.4651  -15.0519   20.3471 N   0  0  0  0  0  0  0  0  0  0  0  0
  -21.8288  -12.6579   21.5481 N   0  0  0  0  0  0  0  0  0  0  0  0
  -26.3969  -28.7168   26.5321 N   0  0  0  0  0  0  0  0  0  0  0  0
  -22.8539  -25.1112   31.1046 N   0  0  0  0  0  0  0  0  0  0  0  0
  -30.1297  -15.6359   21.5073 N   0  0  0  0  0  0  0  0  0  0  0  0
  -19.7496  -23.3500   30.5307 N   0  3  0  0  0  0  0  0  0  0  0  0
  -22.6378  -14.7790   21.2238 O   0  0  0  0  0  0  0  0  0  0  0  0
  -26.8710  -26.9185   27.9335 O   0  0  0  0  0  0  0  0  0  0  0  0
  -23.8764  -27.5985   30.1163 O   0  0  0  0  0  0  0  0  0  0  0  0
  -22.5129  -23.0530   30.0923 O   0  0  0  0  0  0  0  0  0  0  0  0
  -31.8741  -14.8254   20.2595 O   0  0  0  0  0  0  0  0  0  0  0  0
  -21.4783   -7.1037   21.7992 O   0  0  0  0  0  0  0  0  0  0  0  0
  -25.1893  -21.9542   23.9294 O   0  0  0  0  0  0  0  0  0  1  0  0
  -23.8105   -3.0955   24.7823 F   0  0  0  0  0  0  0  0  0  0  0  0
  -20.3836   -6.3103   24.2106 F   0  0  0  0  0  0  0  0  0  0  0  0
  1  2  1  0  0  0  0
  1  5  2  0  0  0  0
  2  6  2  0  0  0  0
  3  8  2  0  0  0  0
  3 16  1  0  0  0  0
  4  9  1  0  0  0  0
  4 16  2  0  0  0  0
  5 18  1  0  0  0  0
  6 20  1  0  0  0  0
  7 10  2  0  0  0  0
  7 19  1  0  0  0  0
  8 23  1  0  0  0  0
  9 23  2  0  0  0  0
 10 24  1  0  0  0  0
 11 12  2  0  0  0  0
 11 25  1  0  0  0  0
 12 26  1  0  0  0  0
 13 21  1  0  0  0  0
 13 24  2  0  0  0  0
 14 22  1  0  0  0  0
 14 29  2  0  0  0  0
 15 26  2  0  0  0  0
 15 27  1  0  0  0  0
 16 28  1  0  0  0  0
 17 28  1  0  0  0  0
 17 31  2  0  0  0  0
 17 32  1  0  0  0  0
 18 20  2  0  0  0  0
 18 37  1  0  0  0  0
 19 21  2  0  0  0  0
 19 38  1  0  0  0  0
 20 46  1  0  0  0  0
 21 39  1  0  0  0  0
 22 30  2  0  0  0  0
 22 57  1  0  0  0  0
 23 81  1  0  0  0  0
 24 82  1  0  0  0  0
 25 27  2  0  0  0  0
 25 81  1  0  0  0  0
 26 83  1  0  0  0  0
 27 84  1  0  0  0  0
 28 65  2  0  0  0  0
 29 58  1  0  0  0  0
 29 66  1  0  0  0  0
 30 61  1  0  0  0  0
 30 66  1  0  0  0  0
 31 67  1  0  0  0  0
 31 70  1  0  0  0  0
 32 71  1  0  0  0  0
 32 76  2  0  0  0  0
 33 47  1  0  0  0  0
 33 72  1  0  0  0  0
 33 77  2  0  0  0  0
 34 62  1  0  0  0  0
 34 68  1  0  0  0  0
 34 78  2  0  0  0  0
 35 63  1  0  0  0  0
 35 73  1  0  0  0  0
 35 79  2  0  0  0  0
 36 69  1  0  0  0  0
 36 74  1  0  0  0  0
 36 80  2  0  0  0  0
 37 40  1  0  0  0  0
 38 47  1  0  0  0  0
 39 68  1  0  0  0  0
 40 42  1  0  0  0  0
 41 43  1  0  0  0  0
 41 44  1  0  0  0  0
 42 46  1  0  0  0  0
 43 48  1  0  0  0  0
 44 69  1  0  0  0  0
 45 48  1  0  0  0  0
 45 69  1  0  0  0  0
 46 72  1  0  0  0  0
 47 68  1  0  0  0  0
 48 67  1  0  0  0  0
 49 61  1  0  0  0  0
 50 61  1  0  0  0  0
 51 63  1  0  0  0  0
 52 64  1  0  0  0  0
 53 64  1  0  0  0  0
 54 64  1  0  0  0  0
 55 66  1  0  0  0  0
 56 75  1  0  0  0  0
 57 59  1  0  0  0  0
 58 74  1  0  0  0  0
 59 60  1  0  0  0  0
 60 82  1  0  0  0  0
 62 64  1  0  0  0  0
 62 73  1  0  0  0  0
 63 75  1  0  0  0  0
 65 67  1  0  0  0  0
M  CHG  1  75   1
M  ISO  4  36 100  60 101  74 100  82 101
M  END
> <Batch ID>
0090

> <Smiles>
CNC(C)C(=O)NC(C(=O)N1Cc2cc([101O:1][101CH2:1]CCc3cc(C[100NH:0][100C:0](=O)N4CCCC(n5nc(-c6ccc(Oc7ccc(F)cc7F)cc6)c(C(N)=O)c5N)C4)n(C)c3C(C)C)ccc2CC1C(=O)NC1CCCc2ccccc21)C(C)(C)C

> <Shape>
0.215

> <Color>
0.202

> <Negative vol penalty>
0.000

$$$$

  -OEChem-04052319093D

 90 98  0     1  0  0  0  0  0999 V2000
  -27.5584  -11.4028   22.4795 C   0  0  0  0  0  0  0  0  0  0  0  0
  -27.9018  -12.6016   23.0963 C   0  0  0  0  0  0  0  0  0  0  0  0
  -19.5363  -20.8530   23.0938 C   0  0  0  0  0  0  0  0  0  0  0  0
  -21.4810  -20.9974   21.6674 C   0  0  0  0  0  0  0  0  0  0  0  0
  -27.8439  -11.2084   21.1287 C   0  0  0  0  0  0  0  0  0  0  0  0
  -28.5320  -13.6063   22.3629 C   0  0  0  0  0  0  0  0  0  0  0  0
  -25.5845  -20.1501   21.7442 C   0  0  0  0  0  0  0  0  0  0  0  0
  -19.2472  -19.5921   22.5721 C   0  0  0  0  0  0  0  0  0  0  0  0
  -21.1919  -19.7365   21.1457 C   0  0  0  0  0  0  0  0  0  0  0  0
  -25.1893  -21.4879   21.7541 C   0  0  0  0  0  0  0  0  0  0  0  0
  -21.5639  -16.5105   22.0811 C   0  0  0  0  0  0  0  0  0  0  0  0
  -22.6191  -15.6079   21.9492 C   0  0  0  0  0  0  0  0  0  0  0  0
  -27.0381  -22.0558   20.3024 C   0  0  0  0  0  0  0  0  0  0  0  0
  -25.7194  -30.5386   20.9702 C   0  0  0  0  0  0  0  0  0  0  0  0
  -22.2272  -15.4977   19.5677 C   0  0  0  0  0  0  0  0  0  0  0  0
  -20.6532  -21.5557   22.6414 C   0  0  0  0  0  0  0  0  0  0  0  0
  -21.7522  -23.1523   24.2999 C   0  0  0  0  0  0  0  0  0  0  0  0
  -28.4692  -12.2149   20.3760 C   0  0  0  0  0  0  0  0  0  0  0  0
  -26.7004  -19.7570   21.0001 C   0  0  0  0  0  0  0  0  0  0  0  0
  -28.8273  -13.4246   21.0011 C   0  0  0  0  0  0  0  0  0  0  0  0
  -27.4314  -20.7151   20.2787 C   0  0  0  0  0  0  0  0  0  0  0  0
  -25.1747  -29.3306   20.4691 C   0  0  0  0  0  0  0  0  0  0  0  0
  -20.0750  -19.0338   21.5980 C   0  0  0  0  0  0  0  0  0  0  0  0
  -25.9144  -22.4384   21.0351 C   0  0  0  0  0  0  0  0  0  0  0  0
  -20.8402  -16.9066   20.9564 C   0  0  0  0  0  0  0  0  0  0  0  0
  -22.9508  -15.1015   20.6925 C   0  0  0  0  0  0  0  0  0  0  0  0
  -21.1719  -16.4003   19.6997 C   0  0  0  0  0  0  0  0  0  0  0  0
  -20.9520  -22.8584   23.1796 C   0  0  0  0  0  0  0  0  0  0  0  0
  -24.7379  -31.1548   21.7147 C   0  0  0  0  0  0  0  0  0  0  0  0
  -23.8767  -29.2455   20.9225 C   0  0  0  0  0  0  0  0  0  0  0  0
  -21.7209  -24.5222   24.3944 C   0  0  0  0  0  0  0  0  0  0  0  0
  -22.4606  -22.2662   25.1767 C   0  0  0  0  0  0  0  0  0  0  0  0
  -28.9343  -16.9504   19.9009 C   0  0  0  0  0  0  0  0  0  0  0  0
  -28.5183  -18.7653   17.4629 C   0  0  0  0  0  0  0  0  0  0  0  0
  -27.4708  -20.7846   14.9208 C   0  0  0  0  0  0  0  0  0  0  0  0
  -20.4577  -28.6131   20.0118 C   0  0  0  0  0  0  0  0  0  0  0  0
  -28.8002  -11.9406   18.9304 C   0  0  0  0  0  0  0  0  0  0  0  0
  -27.1985  -18.3373   21.0100 C   0  0  0  0  0  0  0  0  0  0  0  0
  -28.6453  -20.2523   19.5204 C   0  0  0  0  0  0  0  0  0  0  0  0
  -29.1319  -13.1988   18.1321 C   0  0  0  0  0  0  0  0  0  0  0  0
  -18.9673  -28.2950   23.3851 C   0  0  0  0  0  0  0  0  0  0  0  0
  -30.1042  -14.0821   18.9075 C   0  0  0  0  0  0  0  0  0  0  0  0
  -19.3205  -26.8596   23.7713 C   0  0  0  0  0  0  0  0  0  0  0  0
  -18.8445  -28.4617   21.8736 C   0  0  0  0  0  0  0  0  0  0  0  0
  -20.3970  -26.5730   21.5043 C   0  0  0  0  0  0  0  0  0  0  0  0
  -29.4895  -14.5478   20.2330 C   0  0  1  0  0  0  0  0  0  0  0  0
  -27.7958  -17.8979   19.6612 C   0  0  1  0  0  0  0  0  0  0  0  0
  -20.5740  -26.3815   23.0181 C   0  0  2  0  0  0  0  0  0  0  0  0
  -28.5334  -31.2212   25.6527 C   0  0  0  0  0  0  0  0  0  0  0  0
  -27.7472  -21.1495   12.4535 C   0  0  0  0  0  0  0  0  0  0  0  0
  -28.4937  -26.7567   22.0784 C   0  0  0  0  0  0  0  0  0  0  0  0
  -31.2530  -20.0221   17.9588 C   0  0  0  0  0  0  0  0  0  0  0  0
  -31.0458  -21.1745   15.7459 C   0  0  0  0  0  0  0  0  0  0  0  0
  -31.0864  -18.6827   15.8535 C   0  0  0  0  0  0  0  0  0  0  0  0
  -22.3670  -30.6532   22.3380 C   0  0  0  0  0  0  0  0  0  0  0  0
  -22.3261  -29.2723   18.5441 C   0  0  0  0  0  0  0  0  0  0  0  0
  -24.5945  -20.3092   14.4108 C   0  0  0  0  0  0  0  0  0  0  0  0
  -25.8913  -28.3273   19.6000 C   0  0  0  0  0  0  0  0  0  0  0  0
  -24.7737  -32.4326   22.4554 C   0  0  0  0  0  0  0  0  0  0  0  0
  -22.8569  -28.1982   20.7006 C   0  0  0  0  0  0  0  0  0  0  0  0
  -27.0947  -31.6940   25.5168 C   0  0  0  0  0  0  0  0  0  0  0  0
  -27.2104  -27.8146   20.1946 C   0  0  0  0  0  0  0  0  0  0  0  0
  -25.2344  -32.3002   23.9191 C   0  0  0  0  0  0  0  0  0  0  0  0
  -26.6717  -31.7863   24.0502 C   0  0  0  0  0  0  0  0  0  0  0  0
  -26.1182  -25.9787   21.6645 C   0  0  0  0  0  0  0  0  0  0  0  0
  -26.5408  -24.7291   20.9005 C   0  0  0  0  0  0  0  0  0  1  0  0
  -29.0317  -19.9242   16.6464 C   0  0  1  0  0  0  0  0  0  0  0  0
  -26.9298  -20.4661   13.5387 C   0  0  2  0  0  0  0  0  0  0  0  0
  -27.0986  -27.1645   21.5902 C   0  0  1  0  0  0  0  0  0  0  0  0
  -30.5844  -19.9545   16.5713 C   0  0  0  0  0  0  0  0  0  0  0  0
  -20.4489  -23.9535   22.6038 N   0  0  0  0  0  0  0  0  0  0  0  0
  -23.6221  -30.3599   21.6784 N   0  0  0  0  0  0  0  0  0  0  0  0
  -20.9341  -24.9489   23.3653 N   0  0  0  0  0  0  0  0  0  0  0  0
  -28.3564  -18.9819   18.8367 N   0  0  0  0  0  0  0  0  0  0  0  0
  -20.0311  -27.9599   21.1798 N   0  0  0  0  0  0  0  0  0  0  0  0
  -22.2897  -25.3912   25.2567 N   0  0  0  0  0  0  0  0  0  0  0  0
  -22.3858  -20.8874   24.9363 N   0  0  0  0  0  0  0  0  0  0  0  0
  -28.5522  -15.6265   20.0041 N   0  0  0  0  0  0  0  0  0  0  0  0
  -28.3723  -19.8328   15.3483 N   0  0  0  0  0  0  0  0  0  0  0  0
  -21.8337  -28.5987   19.7373 N   0  0  0  0  0  0  0  0  0  0  0  0
  -25.5157  -20.9207   13.4185 N   0  3  0  0  0  0  0  0  0  0  0  0
  -23.1265  -22.6837   26.1544 O   0  0  0  0  0  0  0  0  0  0  0  0
  -30.0763  -17.3869   19.9846 O   0  0  0  0  0  0  0  0  0  0  0  0
  -28.2722  -17.6941   16.9014 O   0  0  0  0  0  0  0  0  0  0  0  0
  -27.1307  -21.7802   15.5561 O   0  0  0  0  0  0  0  0  0  0  0  0
  -19.6558  -29.1851   19.2625 O   0  0  0  0  0  0  0  0  0  0  0  0
  -19.7934  -17.8034   21.0889 O   0  0  0  0  0  0  0  0  0  0  0  0
  -25.5205  -23.7421   21.0454 O   0  0  0  0  0  0  0  0  0  1  0  0
  -23.9652  -14.2360   20.5658 F   0  0  0  0  0  0  0  0  0  0  0  0
  -20.4810  -16.7780   18.6153 F   0  0  0  0  0  0  0  0  0  0  0  0
  1  2  1  0  0  0  0
  1  5  2  0  0  0  0
  2  6  2  0  0  0  0
  3  8  2  0  0  0  0
  3 16  1  0  0  0  0
  4  9  1  0  0  0  0
  4 16  2  0  0  0  0
  5 18  1  0  0  0  0
  6 20  1  0  0  0  0
  7 10  2  0  0  0  0
  7 19  1  0  0  0  0
  8 23  1  0  0  0  0
  9 23  2  0  0  0  0
 10 24  1  0  0  0  0
 11 12  2  0  0  0  0
 11 25  1  0  0  0  0
 12 26  1  0  0  0  0
 13 21  1  0  0  0  0
 13 24  2  0  0  0  0
 14 22  1  0  0  0  0
 14 29  2  0  0  0  0
 15 26  2  0  0  0  0
 15 27  1  0  0  0  0
 16 28  1  0  0  0  0
 17 28  1  0  0  0  0
 17 31  2  0  0  0  0
 17 32  1  0  0  0  0
 18 20  2  0  0  0  0
 18 37  1  0  0  0  0
 19 21  2  0  0  0  0
 19 38  1  0  0  0  0
 20 46  1  0  0  0  0
 21 39  1  0  0  0  0
 22 30  2  0  0  0  0
 22 58  1  0  0  0  0
 23 87  1  0  0  0  0
 24 88  1  0  0  0  0
 25 27  2  0  0  0  0
 25 87  1  0  0  0  0
 26 89  1  0  0  0  0
 27 90  1  0  0  0  0
 28 71  2  0  0  0  0
 29 59  1  0  0  0  0
 29 72  1  0  0  0  0
 30 60  1  0  0  0  0
 30 72  1  0  0  0  0
 31 73  1  0  0  0  0
 31 76  1  0  0  0  0
 32 77  1  0  0  0  0
 32 82  2  0  0  0  0
 33 47  1  0  0  0  0
 33 78  1  0  0  0  0
 33 83  2  0  0  0  0
 34 67  1  0  0  0  0
 34 74  1  0  0  0  0
 34 84  2  0  0  0  0
 35 68  1  0  0  0  0
 35 79  1  0  0  0  0
 35 85  2  0  0  0  0
 36 75  1  0  0  0  0
 36 80  1  0  0  0  0
 36 86  2  0  0  0  0
 37 40  1  0  0  0  0
 38 47  1  0  0  0  0
 39 74  1  0  0  0  0
 40 42  1  0  0  0  0
 41 43  1  0  0  0  0
 41 44  1  0  0  0  0
 42 46  1  0  0  0  0
 43 48  1  0  0  0  0
 44 75  1  0  0  0  0
 45 48  1  0  0  0  0
 45 75  1  0  0  0  0
 46 78  1  0  0  0  0
 47 74  1  0  0  0  0
 48 73  1  0  0  0  0
 49 61  1  0  0  0  0
 50 68  1  0  0  0  0
 51 69  1  0  0  0  0
 52 70  1  0  0  0  0
 53 70  1  0  0  0  0
 54 70  1  0  0  0  0
 55 72  1  0  0  0  0
 56 80  1  0  0  0  0
 57 81  1  0  0  0  0
 58 62  1  0  0  0  0
 59 63  1  0  0  0  0
 60 80  1  0  0  0  0
 61 64  1  0  0  0  0
 62 69  1  0  0  0  0
 63 64  1  0  0  0  0
 65 66  1  0  0  0  0
 65 69  1  0  0  0  0
 66 88  1  0  0  0  0
 67 70  1  0  0  0  0
 67 79  1  0  0  0  0
 68 81  1  0  0  0  0
 71 73  1  0  0  0  0
M  CHG  1  81   1
M  ISO  4  36 100  66 101  80 100  88 101
M  END
> <Batch ID>
0090

> <Smiles>
CCCCCc1cc(CCC(C)C[101CH2:1][101O:1]c2ccc3c(c2)CN(C(=O)C(NC(=O)C(C)NC)C(C)(C)C)C(C(=O)NC2CCCc4ccccc42)C3)c(C[100N:0](C)[100C:0](=O)N2CCCC(n3nc(-c4ccc(Oc5ccc(F)cc5F)cc4)c(C(N)=O)c3N)C2)n1C

> <Shape>
0.219

> <Color>
0.066

> <Negative vol penalty>
0.000

$$$$

  -OEChem-04052319092D

  0  0  0     0  0  0  0  0  0999 V2000
M  END
$$$$

  -OEChem-04052319093D

 82 90  0     1  0  0  0  0  0999 V2000
  -24.4873  -29.4407   14.0678 C   0  0  0  0  0  0  0  0  0  0  0  0
  -25.4673  -28.6510   14.6604 C   0  0  0  0  0  0  0  0  0  0  0  0
  -22.9963   -9.9538   20.0226 C   0  0  0  0  0  0  0  0  0  0  0  0
  -23.8314   -9.8606   22.2878 C   0  0  0  0  0  0  0  0  0  0  0  0
  -23.1829  -29.4173   14.5598 C   0  0  0  0  0  0  0  0  0  0  0  0
  -25.1438  -27.8381   15.7462 C   0  0  0  0  0  0  0  0  0  0  0  0
  -27.4882  -22.3329   17.0510 C   0  0  0  0  0  0  0  0  0  0  0  0
  -22.2052   -8.8315   20.2680 C   0  0  0  0  0  0  0  0  0  0  0  0
  -23.0402   -8.7383   22.5332 C   0  0  0  0  0  0  0  0  0  0  0  0
  -28.4930  -21.9250   17.9272 C   0  0  0  0  0  0  0  0  0  0  0  0
  -19.2711   -8.1387   21.7990 C   0  0  0  0  0  0  0  0  0  0  0  0
  -17.9481   -8.1692   21.3581 C   0  0  0  0  0  0  0  0  0  0  0  0
  -26.8241  -21.4070   19.5902 C   0  0  0  0  0  0  0  0  0  0  0  0
  -18.3671   -6.2386   19.9673 C   0  0  0  0  0  0  0  0  0  0  0  0
  -31.0359  -15.3626   20.9994 C   0  0  0  0  0  0  0  0  0  0  0  0
  -23.8094  -10.4683   21.0325 C   0  0  0  0  0  0  0  0  0  0  0  0
  -24.2712  -12.9763   20.9664 C   0  0  0  0  0  0  0  0  0  0  0  0
  -22.8411  -28.5964   15.6461 C   0  0  0  0  0  0  0  0  0  0  0  0
  -26.1423  -22.2911   17.4424 C   0  0  0  0  0  0  0  0  0  0  0  0
  -23.8340  -27.8046   16.2541 C   0  0  0  0  0  0  0  0  0  0  0  0
  -25.8040  -21.8125   18.7162 C   0  0  0  0  0  0  0  0  0  0  0  0
  -22.2271   -8.2238   21.5233 C   0  0  0  0  0  0  0  0  0  0  0  0
  -28.1613  -21.4647   19.1981 C   0  0  0  0  0  0  0  0  0  0  0  0
  -20.1422   -7.1582   21.3240 C   0  0  0  0  0  0  0  0  0  0  0  0
  -17.4961   -7.2192   20.4423 C   0  0  0  0  0  0  0  0  0  0  0  0
  -19.6902   -6.2082   20.4082 C   0  0  0  0  0  0  0  0  0  0  0  0
  -24.6273  -11.6272   20.7794 C   0  0  0  0  0  0  0  0  0  0  0  0
  -30.9993  -14.5549   22.1719 C   0  0  0  0  0  0  0  0  0  0  0  0
  -31.6289  -16.5748   21.2781 C   0  0  0  0  0  0  0  0  0  0  0  0
  -25.3863  -13.6818   20.5852 C   0  0  0  0  0  0  0  0  0  0  0  0
  -23.0423  -13.5412   21.4422 C   0  0  0  0  0  0  0  0  0  0  0  0
  -23.8478  -24.4581   17.8205 C   0  0  0  0  0  0  0  0  0  0  0  0
  -21.9989  -21.8420   18.3302 C   0  0  0  0  0  0  0  0  0  0  0  0
  -21.8096  -18.5662   19.2681 C   0  0  0  0  0  0  0  0  0  0  0  0
  -31.1961  -11.7574   20.3005 C   0  0  0  0  0  0  0  0  0  0  0  0
  -21.4286  -28.6403   16.1729 C   0  0  0  0  0  0  0  0  0  0  0  0
  -25.0684  -22.7094   16.4758 C   0  0  0  0  0  0  0  0  0  0  0  0
  -24.3727  -21.7287   19.1775 C   0  0  0  0  0  0  0  0  0  0  0  0
  -21.0836  -27.4691   17.0893 C   0  0  0  0  0  0  0  0  0  0  0  0
  -29.1792  -13.4349   17.6891 C   0  0  0  0  0  0  0  0  0  0  0  0
  -22.1946  -27.2447   18.1101 C   0  0  0  0  0  0  0  0  0  0  0  0
  -27.7489  -13.2075   18.1755 C   0  0  0  0  0  0  0  0  0  0  0  0
  -30.1193  -12.3269   18.1539 C   0  0  0  0  0  0  0  0  0  0  0  0
  -28.6776  -11.8777   20.1119 C   0  0  0  0  0  0  0  0  0  0  0  0
  -23.5165  -26.8910   17.4180 C   0  0  1  0  0  0  0  0  0  0  0  0
  -23.7671  -23.1087   17.1646 C   0  0  1  0  0  0  0  0  0  0  0  0
  -27.7142  -13.0008   19.6997 C   0  0  2  0  0  0  0  0  0  0  0  0
  -20.1574  -16.7110   19.6229 C   0  0  0  0  0  0  0  0  0  0  0  0
  -21.1241  -23.1265   20.9560 C   0  0  0  0  0  0  0  0  0  0  0  0
  -20.2676  -20.8895   21.6843 C   0  0  0  0  0  0  0  0  0  0  0  0
  -19.2880  -22.0060   19.6802 C   0  0  0  0  0  0  0  0  0  0  0  0
  -32.4919  -11.8419   22.3965 C   0  0  0  0  0  0  0  0  0  0  0  0
  -23.0852  -16.8781   17.1988 C   0  0  0  0  0  0  0  0  0  0  0  0
  -30.4330  -13.1917   22.2404 C   0  0  0  0  0  0  0  0  0  0  0  0
  -31.8995  -17.7584   20.3837 C   0  0  0  0  0  0  0  0  0  0  0  0
  -30.6570  -18.6037   20.0825 C   0  0  0  0  0  0  0  0  0  0  0  0
  -30.0570  -19.2521   21.3309 C   0  0  0  0  0  0  0  0  0  0  0  0
  -28.8033  -20.0500   20.9987 C   0  0  0  0  0  0  0  0  0  1  0  0
  -21.6136  -21.0243   19.5393 C   0  0  1  0  0  0  0  0  0  0  0  0
  -21.1063  -17.3772   18.6387 C   0  0  2  0  0  0  0  0  0  0  0  0
  -20.6005  -21.7649   20.4573 C   0  0  0  0  0  0  0  0  0  0  0  0
  -25.8713  -11.4819   20.3153 N   0  0  0  0  0  0  0  0  0  0  0  0
  -31.5154  -15.0721   23.2843 N   0  0  0  0  0  0  0  0  0  0  0  0
  -26.3066  -12.7488   20.2075 N   0  0  0  0  0  0  0  0  0  0  0  0
  -23.3592  -22.1552   18.1984 N   0  0  0  0  0  0  0  0  0  0  0  0
  -30.0345  -12.1223   19.6004 N   0  0  0  0  0  0  0  0  0  0  0  0
  -25.6595  -15.0030   20.5396 N   0  0  0  0  0  0  0  0  0  0  0  0
  -21.9985  -12.6731   21.7904 N   0  0  0  0  0  0  0  0  0  0  0  0
  -23.5086  -25.5087   16.9895 N   0  0  0  0  0  0  0  0  0  0  0  0
  -21.1336  -19.7442   19.0302 N   0  0  0  0  0  0  0  0  0  0  0  0
  -31.3010  -12.1855   21.6326 N   0  0  0  0  0  0  0  0  0  0  0  0
  -22.1028  -16.3649   18.1880 N   0  3  0  0  0  0  0  0  0  0  0  0
  -22.8690  -14.7798   21.5396 O   0  0  0  0  0  0  0  0  0  0  0  0
  -24.1910  -24.5400   18.9941 O   0  0  0  0  0  0  0  0  0  0  0  0
  -21.1262  -22.1841   17.5284 O   0  0  0  0  0  0  0  0  0  0  0  0
  -22.8523  -18.4600   19.9101 O   0  0  0  0  0  0  0  0  0  0  0  0
  -32.0929  -11.0954   19.7625 O   0  0  0  0  0  0  0  0  0  0  0  0
  -21.4551   -7.1288   21.7633 O   0  0  0  0  0  0  0  0  0  0  0  0
  -29.1401  -21.0665   20.0556 O   0  0  0  0  0  0  0  0  0  1  0  0
  -16.2252   -7.2476   20.0202 F   0  0  0  0  0  0  0  0  0  0  0  0
  -20.5220   -5.2631   19.9492 F   0  0  0  0  0  0  0  0  0  0  0  0
  -32.0754  -16.5965   22.9315 S   0  0  0  0  0  0  0  0  0  0  0  0
  1  2  1  0  0  0  0
  1  5  2  0  0  0  0
  2  6  2  0  0  0  0
  3  8  2  0  0  0  0
  3 16  1  0  0  0  0
  4  9  1  0  0  0  0
  4 16  2  0  0  0  0
  5 18  1  0  0  0  0
  6 20  1  0  0  0  0
  7 10  2  0  0  0  0
  7 19  1  0  0  0  0
  8 22  1  0  0  0  0
  9 22  2  0  0  0  0
 10 23  1  0  0  0  0
 11 12  2  0  0  0  0
 11 24  1  0  0  0  0
 12 25  1  0  0  0  0
 13 21  1  0  0  0  0
 13 23  2  0  0  0  0
 14 25  2  0  0  0  0
 14 26  1  0  0  0  0
 15 28  1  0  0  0  0
 15 29  2  0  0  0  0
 16 27  1  0  0  0  0
 17 27  1  0  0  0  0
 17 30  2  0  0  0  0
 17 31  1  0  0  0  0
 18 20  2  0  0  0  0
 18 36  1  0  0  0  0
 19 21  2  0  0  0  0
 19 37  1  0  0  0  0
 20 45  1  0  0  0  0
 21 38  1  0  0  0  0
 22 78  1  0  0  0  0
 23 79  1  0  0  0  0
 24 26  2  0  0  0  0
 24 78  1  0  0  0  0
 25 80  1  0  0  0  0
 26 81  1  0  0  0  0
 27 62  2  0  0  0  0
 28 54  1  0  0  0  0
 28 63  2  0  0  0  0
 29 55  1  0  0  0  0
 29 82  1  0  0  0  0
 30 64  1  0  0  0  0
 30 67  1  0  0  0  0
 31 68  1  0  0  0  0
 31 73  2  0  0  0  0
 32 46  1  0  0  0  0
 32 69  1  0  0  0  0
 32 74  2  0  0  0  0
 33 59  1  0  0  0  0
 33 65  1  0  0  0  0
 33 75  2  0  0  0  0
 34 60  1  0  0  0  0
 34 70  1  0  0  0  0
 34 76  2  0  0  0  0
 35 66  1  0  0  0  0
 35 71  1  0  0  0  0
 35 77  2  0  0  0  0
 36 39  1  0  0  0  0
 37 46  1  0  0  0  0
 38 65  1  0  0  0  0
 39 41  1  0  0  0  0
 40 42  1  0  0  0  0
 40 43  1  0  0  0  0
 41 45  1  0  0  0  0
 42 47  1  0  0  0  0
 43 66  1  0  0  0  0
 44 47  1  0  0  0  0
 44 66  1  0  0  0  0
 45 69  1  0  0  0  0
 46 65  1  0  0  0  0
 47 64  1  0  0  0  0
 48 60  1  0  0  0  0
 49 61  1  0  0  0  0
 50 61  1  0  0  0  0
 51 61  1  0  0  0  0
 52 71  1  0  0  0  0
 53 72  1  0  0  0  0
 54 71  1  0  0  0  0
 55 56  1  0  0  0  0
 56 57  1  0  0  0  0
 57 58  1  0  0  0  0
 58 79  1  0  0  0  0
 59 61  1  0  0  0  0
 59 70  1  0  0  0  0
 60 72  1  0  0  0  0
 62 64  1  0  0  0  0
 63 82  1  0  0  0  0
M  CHG  1  72   1
M  ISO  4  35 100  58 101  71 100  79 101
M  END
> <Batch ID>
0090

> <Smiles>
CNC(C)C(=O)NC(C(=O)N1Cc2cc([101O:1][101CH2:1]CCCc3cc(C[100N:0](C)[100C:0](=O)N4CCCC(n5nc(-c6ccc(Oc7ccc(F)cc7F)cc6)c(C(N)=O)c5N)C4)ns3)ccc2CC1C(=O)NC1CCCc2ccccc21)C(C)(C)C

> <Shape>
0.175

> <Color>
0.173

> <Negative vol penalty>
0.000

$$$$

  -OEChem-04052319093D

 76 83  0     1  0  0  0  0  0999 V2000
  -24.3622  -34.9066   19.5190 C   0  0  0  0  0  0  0  0  0  0  0  0
  -25.1931  -33.8212   19.7776 C   0  0  0  0  0  0  0  0  0  0  0  0
  -26.7872  -13.0504   20.9885 C   0  0  0  0  0  0  0  0  0  0  0  0
  -26.3941  -13.5857   18.6656 C   0  0  0  0  0  0  0  0  0  0  0  0
  -23.1364  -35.0165   20.1742 C   0  0  0  0  0  0  0  0  0  0  0  0
  -24.7990  -32.8454   20.6925 C   0  0  0  0  0  0  0  0  0  0  0  0
  -25.6320  -28.1458   18.9999 C   0  0  0  0  0  0  0  0  0  0  0  0
  -26.2188  -11.7914   20.7946 C   0  0  0  0  0  0  0  0  0  0  0  0
  -25.8258  -12.3267   18.4716 C   0  0  0  0  0  0  0  0  0  0  0  0
  -26.9402  -27.6682   19.0649 C   0  0  0  0  0  0  0  0  0  0  0  0
  -24.5443   -8.5698   20.9960 C   0  0  0  0  0  0  0  0  0  0  0  0
  -23.6381   -8.1114   21.9521 C   0  0  0  0  0  0  0  0  0  0  0  0
  -26.3894  -26.4503   21.0730 C   0  0  0  0  0  0  0  0  0  0  0  0
  -22.2098  -10.0088   21.5081 C   0  0  0  0  0  0  0  0  0  0  0  0
  -26.8748  -13.9475   19.9240 C   0  0  0  0  0  0  0  0  0  0  0  0
  -28.8158  -15.6020   19.9760 C   0  0  0  0  0  0  0  0  0  0  0  0
  -22.7229  -34.0365   21.0904 C   0  0  0  0  0  0  0  0  0  0  0  0
  -24.6940  -27.7874   19.9787 C   0  0  0  0  0  0  0  0  0  0  0  0
  -23.5671  -32.9429   21.3616 C   0  0  0  0  0  0  0  0  0  0  0  0
  -25.0692  -26.9227   21.0167 C   0  0  0  0  0  0  0  0  0  0  0  0
  -25.7382  -11.4296   19.5361 C   0  0  0  0  0  0  0  0  0  0  0  0
  -27.3198  -26.8226   20.1031 C   0  0  0  0  0  0  0  0  0  0  0  0
  -24.2834   -9.7477   20.2959 C   0  0  0  0  0  0  0  0  0  0  0  0
  -22.4708   -8.8309   22.2081 C   0  0  0  0  0  0  0  0  0  0  0  0
  -23.1161  -10.4672   20.5520 C   0  0  0  0  0  0  0  0  0  0  0  0
  -27.4612  -15.2484   20.1239 C   0  0  0  0  0  0  0  0  0  0  0  0
  -28.8558  -16.9415   20.2771 C   0  0  0  0  0  0  0  0  0  0  0  0
  -29.9376  -14.7921   19.6000 C   0  0  0  0  0  0  0  0  0  0  0  0
  -22.9826  -29.3772   22.1345 C   0  0  0  0  0  0  0  0  0  0  0  0
  -21.6333  -26.4701   22.6348 C   0  0  0  0  0  0  0  0  0  0  0  0
  -21.7640  -22.8817   22.9862 C   0  0  0  0  0  0  0  0  0  0  0  0
  -26.7561  -22.0934   19.8367 C   0  0  0  0  0  0  0  0  0  0  0  0
  -21.4102  -34.2228   21.8094 C   0  0  0  0  0  0  0  0  0  0  0  0
  -23.2796  -28.2897   19.8795 C   0  0  0  0  0  0  0  0  0  0  0  0
  -24.0947  -26.4916   22.0811 C   0  0  0  0  0  0  0  0  0  0  0  0
  -20.9001  -32.9525   22.4848 C   0  0  0  0  0  0  0  0  0  0  0  0
  -25.3507  -19.9631   22.3193 C   0  0  0  0  0  0  0  0  0  0  0  0
  -22.0231  -32.2736   23.2626 C   0  0  0  0  0  0  0  0  0  0  0  0
  -25.8810  -18.5756   21.9535 C   0  0  0  0  0  0  0  0  0  0  0  0
  -25.0476  -20.7971   21.0765 C   0  0  0  0  0  0  0  0  0  0  0  0
  -26.6959  -19.5271   19.7559 C   0  0  0  0  0  0  0  0  0  0  0  0
  -23.1638  -31.8512   22.3288 C   0  0  1  0  0  0  0  0  0  0  0  0
  -22.5441  -28.2719   21.2159 C   0  0  1  0  0  0  0  0  0  0  0  0
  -27.0688  -18.6689   20.9768 C   0  0  2  0  0  0  0  0  0  0  0  0
  -20.4882  -20.7412   23.2822 C   0  0  0  0  0  0  0  0  0  0  0  0
  -30.7566  -22.6321   19.5928 C   0  0  0  0  0  0  0  0  0  0  0  0
  -22.2969  -26.8105   25.5935 C   0  0  0  0  0  0  0  0  0  0  0  0
  -21.9129  -24.3544   25.8906 C   0  0  0  0  0  0  0  0  0  0  0  0
  -20.0444  -25.8248   25.1363 C   0  0  0  0  0  0  0  0  0  0  0  0
  -21.8814  -22.2759   20.0917 C   0  0  0  0  0  0  0  0  0  0  0  0
  -30.2995  -25.0530   19.0945 C   0  0  0  0  0  0  0  0  0  0  0  0
  -28.5372  -23.2503   18.5528 C   0  0  0  0  0  0  0  0  0  0  0  0
  -29.2895  -26.1826   18.9340 C   0  0  0  0  0  0  0  0  0  1  0  0
  -21.9285  -25.2953   23.5357 C   0  0  1  0  0  0  0  0  0  0  0  0
  -20.8440  -21.8699   22.3272 C   0  0  2  0  0  0  0  0  0  0  0  0
  -29.6675  -23.7056   19.4882 C   0  0  1  0  0  0  0  0  0  0  0  0
  -21.5648  -25.5807   25.0202 C   0  0  0  0  0  0  0  0  0  0  0  0
  -26.6961  -16.2800   20.4906 N   0  0  0  0  0  0  0  0  0  0  0  0
  -27.5728  -17.2949   20.5757 N   0  0  0  0  0  0  0  0  0  0  0  0
  -22.7253  -27.0145   21.9441 N   0  0  0  0  0  0  0  0  0  0  0  0
  -26.2149  -20.8471   20.1928 N   0  0  0  0  0  0  0  0  0  0  0  0
  -29.8630  -17.8397   20.3129 N   0  0  0  0  0  0  0  0  0  0  0  0
  -29.7197  -13.4352   19.3250 N   0  0  0  0  0  0  0  0  0  0  0  0
  -22.8097  -30.6448   21.6120 N   0  0  0  0  0  0  0  0  0  0  0  0
  -21.2294  -24.1524   22.9584 N   0  0  0  0  0  0  0  0  0  0  0  0
  -27.8655  -22.0509   19.0011 N   0  0  0  0  0  0  0  0  0  0  0  0
  -21.4988  -21.2800   21.1255 N   0  3  0  0  0  0  0  0  0  0  0  0
  -31.1015  -15.2542   19.5266 O   0  0  0  0  0  0  0  0  0  0  0  0
  -23.4423  -29.1006   23.2362 O   0  0  0  0  0  0  0  0  0  0  0  0
  -20.4753  -26.8849   22.5417 O   0  0  0  0  0  0  0  0  0  0  0  0
  -22.8469  -22.5748   23.4799 O   0  0  0  0  0  0  0  0  0  0  0  0
  -26.2888  -23.1645   20.2384 O   0  0  0  0  0  0  0  0  0  0  0  0
  -25.1837  -10.2011   19.3465 O   0  0  0  0  0  0  0  0  0  0  0  0
  -28.5963  -26.3555   20.1693 O   0  0  0  0  0  0  0  0  0  1  0  0
  -21.5999   -8.3897   23.1252 F   0  0  0  0  0  0  0  0  0  0  0  0
  -22.8595  -11.5989   19.8818 F   0  0  0  0  0  0  0  0  0  0  0  0
  1  2  1  0  0  0  0
  1  5  2  0  0  0  0
  2  6  2  0  0  0  0
  3  8  2  0  0  0  0
  3 15  1  0  0  0  0
  4  9  1  0  0  0  0
  4 15  2  0  0  0  0
  5 17  1  0  0  0  0
  6 19  1  0  0  0  0
  7 10  2  0  0  0  0
  7 18  1  0  0  0  0
  8 21  1  0  0  0  0
  9 21  2  0  0  0  0
 10 22  1  0  0  0  0
 11 12  2  0  0  0  0
 11 23  1  0  0  0  0
 12 24  1  0  0  0  0
 13 20  1  0  0  0  0
 13 22  2  0  0  0  0
 14 24  2  0  0  0  0
 14 25  1  0  0  0  0
 15 26  1  0  0  0  0
 16 26  1  0  0  0  0
 16 27  2  0  0  0  0
 16 28  1  0  0  0  0
 17 19  2  0  0  0  0
 17 33  1  0  0  0  0
 18 20  2  0  0  0  0
 18 34  1  0  0  0  0
 19 42  1  0  0  0  0
 20 35  1  0  0  0  0
 21 73  1  0  0  0  0
 22 74  1  0  0  0  0
 23 25  2  0  0  0  0
 23 73  1  0  0  0  0
 24 75  1  0  0  0  0
 25 76  1  0  0  0  0
 26 58  2  0  0  0  0
 27 59  1  0  0  0  0
 27 62  1  0  0  0  0
 28 63  1  0  0  0  0
 28 68  2  0  0  0  0
 29 43  1  0  0  0  0
 29 64  1  0  0  0  0
 29 69  2  0  0  0  0
 30 54  1  0  0  0  0
 30 60  1  0  0  0  0
 30 70  2  0  0  0  0
 31 55  1  0  0  0  0
 31 65  1  0  0  0  0
 31 71  2  0  0  0  0
 32 61  1  0  0  0  0
 32 66  1  0  0  0  0
 32 72  2  0  0  0  0
 33 36  1  0  0  0  0
 34 43  1  0  0  0  0
 35 60  1  0  0  0  0
 36 38  1  0  0  0  0
 37 39  1  0  0  0  0
 37 40  1  0  0  0  0
 38 42  1  0  0  0  0
 39 44  1  0  0  0  0
 40 61  1  0  0  0  0
 41 44  1  0  0  0  0
 41 61  1  0  0  0  0
 42 64  1  0  0  0  0
 43 60  1  0  0  0  0
 44 59  1  0  0  0  0
 45 55  1  0  0  0  0
 46 56  1  0  0  0  0
 47 57  1  0  0  0  0
 48 57  1  0  0  0  0
 49 57  1  0  0  0  0
 50 67  1  0  0  0  0
 51 53  1  0  0  0  0
 51 56  1  0  0  0  0
 52 56  1  0  0  0  0
 52 66  1  0  0  0  0
 53 74  1  0  0  0  0
 54 57  1  0  0  0  0
 54 65  1  0  0  0  0
 55 67  1  0  0  0  0
 58 59  1  0  0  0  0
M  CHG  1  67   1
M  ISO  4  32 100  53 101  66 100  74 101
M  END
> <Batch ID>
0090

> <Smiles>
CNC(C)C(=O)NC(C(=O)N1Cc2cc([101O:1][101CH2:1]CC(C)C[100NH:0][100C:0](=O)N3CCCC(n4nc(-c5ccc(Oc6ccc(F)cc6F)cc5)c(C(N)=O)c4N)C3)ccc2CC1C(=O)NC1CCCc2ccccc21)C(C)(C)C

> <Shape>
0.213

> <Color>
0.087

> <Negative vol penalty>
0.000

$$$$

  -OEChem-04052319093D

 90 98  0     1  0  0  0  0  0999 V2000
  -23.0130  -17.7497   23.2156 C   0  0  0  0  0  0  0  0  0  0  0  0
  -24.0111  -18.7145   23.1231 C   0  0  0  0  0  0  0  0  0  0  0  0
  -26.4145  -12.4514   20.7022 C   0  0  0  0  0  0  0  0  0  0  0  0
  -24.7499  -14.2021   20.6698 C   0  0  0  0  0  0  0  0  0  0  0  0
  -21.7388  -18.0164   22.7163 C   0  0  0  0  0  0  0  0  0  0  0  0
  -23.7357  -19.9462   22.5303 C   0  0  0  0  0  0  0  0  0  0  0  0
  -26.0514  -25.3915   24.1091 C   0  0  0  0  0  0  0  0  0  0  0  0
  -25.4773  -11.5702   21.2415 C   0  0  0  0  0  0  0  0  0  0  0  0
  -23.8127  -13.3209   21.2090 C   0  0  0  0  0  0  0  0  0  0  0  0
  -27.0973  -26.1525   23.5888 C   0  0  0  0  0  0  0  0  0  0  0  0
  -23.4243   -8.7596   22.2904 C   0  0  0  0  0  0  0  0  0  0  0  0
  -23.3540   -7.4762   21.7487 C   0  0  0  0  0  0  0  0  0  0  0  0
  -25.5174  -27.4106   22.2696 C   0  0  0  0  0  0  0  0  0  0  0  0
  -22.8167   -8.4172   19.5893 C   0  0  0  0  0  0  0  0  0  0  0  0
  -29.0754  -26.5206   18.6451 C   0  0  0  0  0  0  0  0  0  0  0  0
  -26.0509  -13.7673   20.4164 C   0  0  0  0  0  0  0  0  0  0  0  0
  -27.2853  -14.9067   18.4966 C   0  0  0  0  0  0  0  0  0  0  0  0
  -21.4451  -19.2556   22.1258 C   0  0  0  0  0  0  0  0  0  0  0  0
  -24.7296  -25.6275   23.7047 C   0  0  0  0  0  0  0  0  0  0  0  0
  -22.4568  -20.2293   22.0214 C   0  0  0  0  0  0  0  0  0  0  0  0
  -24.4563  -26.6529   22.7882 C   0  0  0  0  0  0  0  0  0  0  0  0
  -29.6170  -27.3089   19.6309 C   0  0  0  0  0  0  0  0  0  0  0  0
  -24.1764  -12.0050   21.4949 C   0  0  0  0  0  0  0  0  0  0  0  0
  -26.8307  -27.1604   22.6667 C   0  0  0  0  0  0  0  0  0  0  0  0
  -23.1907   -9.8718   21.4817 C   0  0  0  0  0  0  0  0  0  0  0  0
  -23.0503   -7.3050   20.3981 C   0  0  0  0  0  0  0  0  0  0  0  0
  -22.8869   -9.7006   20.1311 C   0  0  0  0  0  0  0  0  0  0  0  0
  -27.0187  -14.6782   19.8599 C   0  0  0  0  0  0  0  0  0  0  0  0
  -30.7961  -26.6391   20.0090 C   0  0  0  0  0  0  0  0  0  0  0  0
  -28.2801  -15.8537   18.4953 C   0  0  0  0  0  0  0  0  0  0  0  0
  -26.6872  -14.3158   17.3353 C   0  0  0  0  0  0  0  0  0  0  0  0
  -22.5000  -23.9188   22.2170 C   0  0  0  0  0  0  0  0  0  0  0  0
  -20.6365  -26.4874   22.8895 C   0  0  0  0  0  0  0  0  0  0  0  0
  -20.4423  -29.8211   23.5932 C   0  0  0  0  0  0  0  0  0  0  0  0
  -29.9254  -20.0444   22.4428 C   0  0  0  0  0  0  0  0  0  0  0  0
  -20.0661  -19.4805   21.5578 C   0  0  0  0  0  0  0  0  0  0  0  0
  -23.6098  -24.8154   24.2956 C   0  0  0  0  0  0  0  0  0  0  0  0
  -23.0525  -26.9597   22.3369 C   0  0  0  0  0  0  0  0  0  0  0  0
  -19.7532  -20.9488   21.2815 C   0  0  0  0  0  0  0  0  0  0  0  0
  -31.9524  -17.4303   21.1259 C   0  0  0  0  0  0  0  0  0  0  0  0
  -20.9166  -21.6148   20.5538 C   0  0  0  0  0  0  0  0  0  0  0  0
  -30.9419  -16.4492   20.5291 C   0  0  0  0  0  0  0  0  0  0  0  0
  -31.4257  -18.0735   22.4068 C   0  0  0  0  0  0  0  0  0  0  0  0
  -29.0945  -17.7363   21.6819 C   0  0  0  0  0  0  0  0  0  0  0  0
  -22.1901  -21.5865   21.4076 C   0  0  1  0  0  0  0  0  0  0  0  0
  -22.3575  -24.8017   23.4244 C   0  0  1  0  0  0  0  0  0  0  0  0
  -29.5580  -17.1041   20.3584 C   0  0  2  0  0  0  0  0  0  0  0  0
  -33.2709  -28.4324   19.4839 C   0  0  0  0  0  0  0  0  0  0  0  0
  -28.9911  -29.6859   19.0929 C   0  0  0  0  0  0  0  0  0  0  0  0
  -31.8555  -26.0205   22.1966 C   0  0  0  0  0  0  0  0  0  0  0  0
  -18.7799  -31.6432   24.0559 C   0  0  0  0  0  0  0  0  0  0  0  0
  -19.9369  -26.5993   19.9216 C   0  0  0  0  0  0  0  0  0  0  0  0
  -19.0834  -28.9253   20.2819 C   0  0  0  0  0  0  0  0  0  0  0  0
  -18.0108  -27.0080   21.4636 C   0  0  0  0  0  0  0  0  0  0  0  0
  -21.5665  -30.3226   26.2846 C   0  0  0  0  0  0  0  0  0  0  0  0
  -26.8613  -23.1669   17.7959 C   0  0  0  0  0  0  0  0  0  0  0  0
  -33.2180  -27.2930   20.4945 C   0  0  0  0  0  0  0  0  0  0  0  0
  -28.5474  -22.7855   21.1741 C   0  0  0  0  0  0  0  0  0  0  0  0
  -29.7828  -24.3678   17.5754 C   0  0  0  0  0  0  0  0  0  0  0  0
  -28.3070  -21.9256   22.4102 C   0  0  0  0  0  0  0  0  0  0  0  0
  -27.7068  -22.3360   19.9858 C   0  0  0  0  0  0  0  0  0  0  0  0
  -29.3116  -23.0768   18.2318 C   0  0  0  0  0  0  0  0  0  0  0  0
  -27.6826  -28.4151   20.8348 C   0  0  0  0  0  0  0  0  0  1  0  0
  -29.0575  -28.6112   20.1816 C   0  0  1  0  0  0  0  0  0  0  0  0
  -31.7748  -27.0425   21.0338 C   0  0  1  0  0  0  0  0  0  0  0  0
  -20.3065  -27.7821   22.1867 C   0  0  1  0  0  0  0  0  0  0  0  0
  -19.6827  -30.5818   24.6651 C   0  0  2  0  0  0  0  0  0  0  0  0
  -19.3611  -27.5718   20.9703 C   0  0  0  0  0  0  0  0  0  0  0  0
  -27.7826  -15.4201   20.6661 N   0  0  0  0  0  0  0  0  0  0  0  0
  -30.9926  -25.5121   19.3197 N   0  0  0  0  0  0  0  0  0  0  0  0
  -29.9296  -25.4674   18.4986 N   0  0  0  0  0  0  0  0  0  0  0  0
  -28.5391  -16.1241   19.8069 N   0  0  0  0  0  0  0  0  0  0  0  0
  -21.9924  -26.1340   22.9385 N   0  0  0  0  0  0  0  0  0  0  0  0
  -30.1112  -18.6778   22.1766 N   0  0  0  0  0  0  0  0  0  0  0  0
  -28.9500  -16.4731   17.5003 N   0  0  0  0  0  0  0  0  0  0  0  0
  -25.6788  -13.3594   17.5164 N   0  0  0  0  0  0  0  0  0  0  0  0
  -22.1327  -22.6046   22.4346 N   0  0  0  0  0  0  0  0  0  0  0  0
  -19.7751  -28.6773   23.2087 N   0  0  0  0  0  0  0  0  0  0  0  0
  -28.6512  -20.5383   22.1914 N   0  0  0  0  0  0  0  0  0  0  0  0
  -20.6334  -31.2518   25.5969 N   0  3  0  0  0  0  0  0  0  0  0  0
  -27.9634  -23.2625   18.8224 N   0  3  1  0  0  0  0  0  0  0  0  0
  -27.0479  -14.6147   16.1716 O   0  0  0  0  0  0  0  0  0  0  0  0
  -22.9113  -24.3950   21.1655 O   0  0  0  0  0  0  0  0  0  0  0  0
  -19.7255  -25.8180   23.3831 O   0  0  0  0  0  0  0  0  0  0  0  0
  -21.5180  -30.2053   23.1395 O   0  0  0  0  0  0  0  0  0  0  0  0
  -30.8295  -20.7717   22.8677 O   0  0  0  0  0  0  0  0  0  0  0  0
  -23.2615  -11.1454   22.0208 O   0  0  0  0  0  0  0  0  0  0  0  0
  -27.8497  -27.9043   22.1567 O   0  0  0  0  0  0  0  0  0  1  0  0
  -22.9843   -6.0725   19.8777 F   0  0  0  0  0  0  0  0  0  0  0  0
  -22.6627  -10.7653   19.3488 F   0  0  0  0  0  0  0  0  0  0  0  0
  1  2  1  0  0  0  0
  1  5  2  0  0  0  0
  2  6  2  0  0  0  0
  3  8  2  0  0  0  0
  3 16  1  0  0  0  0
  4  9  1  0  0  0  0
  4 16  2  0  0  0  0
  5 18  1  0  0  0  0
  6 20  1  0  0  0  0
  7 10  2  0  0  0  0
  7 19  1  0  0  0  0
  8 23  1  0  0  0  0
  9 23  2  0  0  0  0
 10 24  1  0  0  0  0
 11 12  2  0  0  0  0
 11 25  1  0  0  0  0
 12 26  1  0  0  0  0
 13 21  1  0  0  0  0
 13 24  2  0  0  0  0
 14 26  2  0  0  0  0
 14 27  1  0  0  0  0
 15 22  2  0  0  0  0
 15 71  1  0  0  0  0
 16 28  1  0  0  0  0
 17 28  1  0  0  0  0
 17 30  2  0  0  0  0
 17 31  1  0  0  0  0
 18 20  2  0  0  0  0
 18 36  1  0  0  0  0
 19 21  2  0  0  0  0
 19 37  1  0  0  0  0
 20 45  1  0  0  0  0
 21 38  1  0  0  0  0
 22 29  1  0  0  0  0
 22 64  1  0  0  0  0
 23 87  1  0  0  0  0
 24 88  1  0  0  0  0
 25 27  2  0  0  0  0
 25 87  1  0  0  0  0
 26 89  1  0  0  0  0
 27 90  1  0  0  0  0
 28 69  2  0  0  0  0
 29 65  1  0  0  0  0
 29 70  2  0  0  0  0
 30 72  1  0  0  0  0
 30 75  1  0  0  0  0
 31 76  1  0  0  0  0
 31 82  2  0  0  0  0
 32 46  1  0  0  0  0
 32 77  1  0  0  0  0
 32 83  2  0  0  0  0
 33 66  1  0  0  0  0
 33 73  1  0  0  0  0
 33 84  2  0  0  0  0
 34 67  1  0  0  0  0
 34 78  1  0  0  0  0
 34 85  2  0  0  0  0
 35 74  1  0  0  0  0
 35 79  1  0  0  0  0
 35 86  2  0  0  0  0
 36 39  1  0  0  0  0
 37 46  1  0  0  0  0
 38 73  1  0  0  0  0
 39 41  1  0  0  0  0
 40 42  1  0  0  0  0
 40 43  1  0  0  0  0
 41 45  1  0  0  0  0
 42 47  1  0  0  0  0
 43 74  1  0  0  0  0
 44 47  1  0  0  0  0
 44 74  1  0  0  0  0
 45 77  1  0  0  0  0
 46 73  1  0  0  0  0
 47 72  1  0  0  0  0
 48 57  1  0  0  0  0
 49 64  1  0  0  0  0
 50 65  1  0  0  0  0
 51 67  1  0  0  0  0
 52 68  1  0  0  0  0
 53 68  1  0  0  0  0
 54 68  1  0  0  0  0
 55 80  1  0  0  0  0
 56 81  1  0  0  0  0
 57 65  1  0  0  0  0
 58 60  1  0  0  0  0
 58 61  1  0  0  0  0
 59 62  1  0  0  0  0
 59 71  1  0  0  0  0
 60 79  1  0  0  0  0
 61 81  1  0  0  0  0
 62 81  1  0  0  0  0
 63 64  1  0  0  0  0
 63 88  1  0  0  0  0
 66 68  1  0  0  0  0
 66 78  1  0  0  0  0
 67 80  1  0  0  0  0
 69 72  1  0  0  0  0
 70 71  1  0  0  0  0
M  CHG  2  80   1  81   1
M  ISO  4  35 100  63 101  79 100  88 101
M  END
> <Batch ID>
0090

> <Smiles>
CCC(C)c1nn(CCN(C)CCC[100NH:0][100C:0](=O)N2CCCC(n3nc(-c4ccc(Oc5ccc(F)cc5F)cc4)c(C(N)=O)c3N)C2)cc1C(C)[101CH2:1][101O:1]c1ccc2c(c1)CN(C(=O)C(NC(=O)C(C)NC)C(C)(C)C)C(C(=O)NC1CCCc3ccccc31)C2

> <Shape>
0.247

> <Color>
0.042

> <Negative vol penalty>
0.000

$$$$

  -OEChem-04052319093D

 81 89  0     1  0  0  0  0  0999 V2000
  -22.2432   -7.8438   21.2206 C   0  0  0  0  0  0  0  0  0  0  0  0
  -23.2620   -8.2836   20.3816 C   0  0  0  0  0  0  0  0  0  0  0  0
  -24.0208  -24.3576   19.1896 C   0  0  0  0  0  0  0  0  0  0  0  0
  -24.2275  -24.4209   21.5959 C   0  0  0  0  0  0  0  0  0  0  0  0
  -21.6361   -8.7350   22.1044 C   0  0  0  0  0  0  0  0  0  0  0  0
  -23.6736   -9.6152   20.4252 C   0  0  0  0  0  0  0  0  0  0  0  0
  -29.3575  -11.7407   19.5994 C   0  0  0  0  0  0  0  0  0  0  0  0
  -22.6590  -24.6388   19.2992 C   0  0  0  0  0  0  0  0  0  0  0  0
  -22.8657  -24.7022   21.7055 C   0  0  0  0  0  0  0  0  0  0  0  0
  -29.9992  -12.2980   18.4943 C   0  0  0  0  0  0  0  0  0  0  0  0
  -19.5160  -25.7935   22.6037 C   0  0  0  0  0  0  0  0  0  0  0  0
  -19.1302  -26.8011   23.4876 C   0  0  0  0  0  0  0  0  0  0  0  0
  -29.4882  -14.5067   19.3188 C   0  0  0  0  0  0  0  0  0  0  0  0
  -20.4547  -28.3962   22.2472 C   0  0  0  0  0  0  0  0  0  0  0  0
  -33.6055  -18.2916   18.7797 C   0  0  0  0  0  0  0  0  0  0  0  0
  -34.7405  -16.4086   18.6296 C   0  0  0  0  0  0  0  0  0  0  0  0
  -24.8051  -24.2486   20.3380 C   0  0  0  0  0  0  0  0  0  0  0  0
  -27.2651  -24.8844   20.1108 C   0  0  0  0  0  0  0  0  0  0  0  0
  -22.0470  -10.0759   22.1657 C   0  0  0  0  0  0  0  0  0  0  0  0
  -28.7658  -12.5635   20.5687 C   0  0  0  0  0  0  0  0  0  0  0  0
  -23.0705  -10.5255   21.3097 C   0  0  0  0  0  0  0  0  0  0  0  0
  -28.8418  -13.9574   20.4366 C   0  0  0  0  0  0  0  0  0  0  0  0
  -22.0815  -24.8111   20.5571 C   0  0  0  0  0  0  0  0  0  0  0  0
  -30.0621  -13.6811   18.3523 C   0  0  0  0  0  0  0  0  0  0  0  0
  -20.3712  -26.0871   21.5415 C   0  0  0  0  0  0  0  0  0  0  0  0
  -19.5995  -28.1025   23.3093 C   0  0  0  0  0  0  0  0  0  0  0  0
  -20.8405  -27.3885   21.3633 C   0  0  0  0  0  0  0  0  0  0  0  0
  -26.2118  -23.9576   20.2255 C   0  0  0  0  0  0  0  0  0  0  0  0
  -34.3821  -18.0822   19.8949 C   0  0  0  0  0  0  0  0  0  0  0  0
  -28.3970  -24.1102   20.0348 C   0  0  0  0  0  0  0  0  0  0  0  0
  -27.2241  -26.3172   20.0762 C   0  0  0  0  0  0  0  0  0  0  0  0
  -25.8064  -12.9856   21.6492 C   0  0  0  0  0  0  0  0  0  0  0  0
  -27.2824  -14.9211   23.7934 C   0  0  0  0  0  0  0  0  0  0  0  0
  -29.9733  -16.8749   24.5604 C   0  0  0  0  0  0  0  0  0  0  0  0
  -31.4496  -19.9549   21.8683 C   0  0  0  0  0  0  0  0  0  0  0  0
  -21.3286  -11.0131   23.1038 C   0  0  0  0  0  0  0  0  0  0  0  0
  -28.1006  -11.9472   21.7687 C   0  0  0  0  0  0  0  0  0  0  0  0
  -28.2402  -14.8848   21.4596 C   0  0  0  0  0  0  0  0  0  0  0  0
  -22.0788  -12.3191   23.3528 C   0  0  0  0  0  0  0  0  0  0  0  0
  -28.9392  -19.1210   19.3985 C   0  0  0  0  0  0  0  0  0  0  0  0
  -22.5775  -12.9075   22.0368 C   0  0  0  0  0  0  0  0  0  0  0  0
  -28.0894  -20.3929   19.3871 C   0  0  0  0  0  0  0  0  0  0  0  0
  -29.4214  -18.7909   20.8080 C   0  0  0  0  0  0  0  0  0  0  0  0
  -29.3239  -21.1639   21.4660 C   0  0  0  0  0  0  0  0  0  0  0  0
  -23.5616  -11.9564   21.3451 C   0  0  1  0  0  0  0  0  0  0  0  0
  -27.0850  -12.8735   22.4304 C   0  0  1  0  0  0  0  0  0  0  0  0
  -28.8245  -21.5640   20.0658 C   0  0  2  0  0  0  0  0  0  0  0  0
  -30.8780  -18.3592   26.3704 C   0  0  0  0  0  0  0  0  0  0  0  0
  -25.3371  -17.1191   22.9598 C   0  0  0  0  0  0  0  0  0  0  0  0
  -26.8552  -18.7817   24.0551 C   0  0  0  0  0  0  0  0  0  0  0  0
  -25.7768  -16.9925   25.4185 C   0  0  0  0  0  0  0  0  0  0  0  0
  -32.3555  -15.1596   24.9367 C   0  0  0  0  0  0  0  0  0  0  0  0
  -34.5142  -18.9356   21.0855 C   0  0  0  0  0  0  0  0  0  0  0  0
  -32.5054  -15.6052   16.5305 C   0  0  0  0  0  0  0  0  0  0  0  0
  -33.2323  -16.9484   16.6261 C   0  0  0  0  0  0  0  0  0  0  0  0
  -33.5100  -18.6152   22.2107 C   0  0  0  0  0  0  0  0  0  0  0  0
  -31.2985  -15.5042   17.4559 C   0  0  0  0  0  0  0  0  0  1  0  0
  -27.6520  -16.3842   23.8356 C   0  0  1  0  0  0  0  0  0  0  0  0
  -30.8430  -16.9489   25.8024 C   0  0  2  0  0  0  0  0  0  0  0  0
  -26.4150  -17.3021   24.0468 C   0  0  0  0  0  0  0  0  0  0  0  0
  -35.0864  -16.9084   19.7951 N   0  0  0  0  0  0  0  0  0  0  0  0
  -26.6366  -22.6913   20.2229 N   0  0  0  0  0  0  0  0  0  0  0  0
  -33.8460  -17.2115   17.9780 N   0  0  0  0  0  0  0  0  0  0  0  0
  -27.9695  -22.8170   20.1055 N   0  0  0  0  0  0  0  0  0  0  0  0
  -27.5951  -14.2340   22.6119 N   0  0  0  0  0  0  0  0  0  0  0  0
  -30.1288  -19.9401   21.3902 N   0  0  0  0  0  0  0  0  0  0  0  0
  -29.7064  -24.4162   19.9150 N   0  0  0  0  0  0  0  0  0  0  0  0
  -25.9779  -26.9523   20.1658 N   0  0  0  0  0  0  0  0  0  0  0  0
  -24.8627  -12.0300   21.9744 N   0  0  0  0  0  0  0  0  0  0  0  0
  -28.6771  -16.5166   24.8652 N   0  0  0  0  0  0  0  0  0  0  0  0
  -32.1409  -18.7538   21.7665 N   0  0  0  0  0  0  0  0  0  0  0  0
  -32.2389  -16.5363   25.4826 N   0  3  0  0  0  0  0  0  0  0  0  0
  -28.2603  -27.0132   19.9524 O   0  0  0  0  0  0  0  0  0  0  0  0
  -25.6845  -13.8743   20.8142 O   0  0  0  0  0  0  0  0  0  0  0  0
  -26.7426  -14.4052   24.7753 O   0  0  0  0  0  0  0  0  0  0  0  0
  -30.4001  -17.1149   23.4331 O   0  0  0  0  0  0  0  0  0  0  0  0
  -31.9762  -20.9656   22.3460 O   0  0  0  0  0  0  0  0  0  0  0  0
  -20.7527  -25.0857   20.6644 O   0  0  0  0  0  0  0  0  0  0  0  0
  -30.6873  -14.2276   17.2742 O   0  0  0  0  0  0  0  0  0  1  0  0
  -19.2277  -29.0704   24.1573 F   0  0  0  0  0  0  0  0  0  0  0  0
  -21.6614  -27.6769   20.3441 F   0  0  0  0  0  0  0  0  0  0  0  0
  1  2  1  0  0  0  0
  1  5  2  0  0  0  0
  2  6  2  0  0  0  0
  3  8  2  0  0  0  0
  3 17  1  0  0  0  0
  4  9  1  0  0  0  0
  4 17  2  0  0  0  0
  5 19  1  0  0  0  0
  6 21  1  0  0  0  0
  7 10  2  0  0  0  0
  7 20  1  0  0  0  0
  8 23  1  0  0  0  0
  9 23  2  0  0  0  0
 10 24  1  0  0  0  0
 11 12  2  0  0  0  0
 11 25  1  0  0  0  0
 12 26  1  0  0  0  0
 13 22  1  0  0  0  0
 13 24  2  0  0  0  0
 14 26  2  0  0  0  0
 14 27  1  0  0  0  0
 15 29  2  0  0  0  0
 15 63  1  0  0  0  0
 16 61  2  0  0  0  0
 16 63  1  0  0  0  0
 17 28  1  0  0  0  0
 18 28  1  0  0  0  0
 18 30  2  0  0  0  0
 18 31  1  0  0  0  0
 19 21  2  0  0  0  0
 19 36  1  0  0  0  0
 20 22  2  0  0  0  0
 20 37  1  0  0  0  0
 21 45  1  0  0  0  0
 22 38  1  0  0  0  0
 23 78  1  0  0  0  0
 24 79  1  0  0  0  0
 25 27  2  0  0  0  0
 25 78  1  0  0  0  0
 26 80  1  0  0  0  0
 27 81  1  0  0  0  0
 28 62  2  0  0  0  0
 29 53  1  0  0  0  0
 29 61  1  0  0  0  0
 30 64  1  0  0  0  0
 30 67  1  0  0  0  0
 31 68  1  0  0  0  0
 31 73  2  0  0  0  0
 32 46  1  0  0  0  0
 32 69  1  0  0  0  0
 32 74  2  0  0  0  0
 33 58  1  0  0  0  0
 33 65  1  0  0  0  0
 33 75  2  0  0  0  0
 34 59  1  0  0  0  0
 34 70  1  0  0  0  0
 34 76  2  0  0  0  0
 35 66  1  0  0  0  0
 35 71  1  0  0  0  0
 35 77  2  0  0  0  0
 36 39  1  0  0  0  0
 37 46  1  0  0  0  0
 38 65  1  0  0  0  0
 39 41  1  0  0  0  0
 40 42  1  0  0  0  0
 40 43  1  0  0  0  0
 41 45  1  0  0  0  0
 42 47  1  0  0  0  0
 43 66  1  0  0  0  0
 44 47  1  0  0  0  0
 44 66  1  0  0  0  0
 45 69  1  0  0  0  0
 46 65  1  0  0  0  0
 47 64  1  0  0  0  0
 48 59  1  0  0  0  0
 49 60  1  0  0  0  0
 50 60  1  0  0  0  0
 51 60  1  0  0  0  0
 52 72  1  0  0  0  0
 53 56  1  0  0  0  0
 54 55  1  0  0  0  0
 54 57  1  0  0  0  0
 55 63  1  0  0  0  0
 56 71  1  0  0  0  0
 57 79  1  0  0  0  0
 58 60  1  0  0  0  0
 58 70  1  0  0  0  0
 59 72  1  0  0  0  0
 62 64  1  0  0  0  0
M  CHG  1  72   1
M  ISO  4  35 100  57 101  71 100  79 101
M  END
> <Batch ID>
0090

> <Smiles>
CNC(C)C(=O)NC(C(=O)N1Cc2cc([101O:1][101CH2:1]CCn3cnc(CC[100NH:0][100C:0](=O)N4CCCC(n5nc(-c6ccc(Oc7ccc(F)cc7F)cc6)c(C(N)=O)c5N)C4)c3)ccc2CC1C(=O)NC1CCCc2ccccc21)C(C)(C)C

> <Shape>
0.208

> <Color>
0.061

> <Negative vol penalty>
0.000

$$$$

  -OEChem-04052319093D

 83 91  0     1  0  0  0  0  0999 V2000
  -21.5350  -23.3663   10.3631 C   0  0  0  0  0  0  0  0  0  0  0  0
  -21.8993  -23.6934   11.6653 C   0  0  0  0  0  0  0  0  0  0  0  0
  -29.0907  -17.6921   19.5474 C   0  0  0  0  0  0  0  0  0  0  0  0
  -30.7365  -18.1479   21.2564 C   0  0  0  0  0  0  0  0  0  0  0  0
  -20.6490  -22.3150   10.1314 C   0  0  0  0  0  0  0  0  0  0  0  0
  -21.3768  -22.9699   12.7368 C   0  0  0  0  0  0  0  0  0  0  0  0
  -24.9005  -21.7614   16.1673 C   0  0  0  0  0  0  0  0  0  0  0  0
  -29.6474  -16.4288   19.3482 C   0  0  0  0  0  0  0  0  0  0  0  0
  -31.2932  -16.8845   21.0573 C   0  0  0  0  0  0  0  0  0  0  0  0
  -25.3010  -22.7643   17.0491 C   0  0  0  0  0  0  0  0  0  0  0  0
  -29.5707  -13.4061   20.8617 C   0  0  0  0  0  0  0  0  0  0  0  0
  -28.6986  -12.3224   20.7580 C   0  0  0  0  0  0  0  0  0  0  0  0
  -23.8595  -21.8383   18.7473 C   0  0  0  0  0  0  0  0  0  0  0  0
  -29.5376  -11.8594   18.5402 C   0  0  0  0  0  0  0  0  0  0  0  0
  -24.0345  -29.3691   20.2198 C   0  0  0  0  0  0  0  0  0  0  0  0
  -29.6353  -18.5517   20.5015 C   0  0  0  0  0  0  0  0  0  0  0  0
  -28.0332  -20.2016   21.6055 C   0  0  0  0  0  0  0  0  0  0  0  0
  -20.1229  -21.5721   11.2000 C   0  0  0  0  0  0  0  0  0  0  0  0
  -23.9667  -20.7942   16.5660 C   0  0  0  0  0  0  0  0  0  0  0  0
  -20.4819  -21.9085   12.5193 C   0  0  0  0  0  0  0  0  0  0  0  0
  -23.4508  -20.8227   17.8695 C   0  0  0  0  0  0  0  0  0  0  0  0
  -30.7486  -16.0250   20.1032 C   0  0  0  0  0  0  0  0  0  0  0  0
  -24.7783  -22.8046   18.3384 C   0  0  0  0  0  0  0  0  0  0  0  0
  -30.4262  -13.7165   19.8045 C   0  0  0  0  0  0  0  0  0  0  0  0
  -28.6821  -11.5490   19.5973 C   0  0  0  0  0  0  0  0  0  0  0  0
  -30.4096  -12.9431   18.6438 C   0  0  0  0  0  0  0  0  0  0  0  0
  -29.0610  -19.8570   20.7073 C   0  0  0  0  0  0  0  0  0  0  0  0
  -24.2882  -30.2502   21.2880 C   0  0  0  0  0  0  0  0  0  0  0  0
  -25.1939  -28.6444   20.0897 C   0  0  0  0  0  0  0  0  0  0  0  0
  -27.8532  -21.5506   21.4202 C   0  0  0  0  0  0  0  0  0  0  0  0
  -27.3062  -19.3761   22.5251 C   0  0  0  0  0  0  0  0  0  0  0  0
  -21.0565  -19.9542   15.6020 C   0  0  0  0  0  0  0  0  0  0  0  0
  -21.4596  -17.5593   17.7524 C   0  0  0  0  0  0  0  0  0  0  0  0
  -23.0240  -16.4238   20.5649 C   0  0  0  0  0  0  0  0  0  0  0  0
  -29.9074  -26.5954   20.8932 C   0  0  0  0  0  0  0  0  0  0  0  0
  -19.1318  -20.4748   10.9029 C   0  0  0  0  0  0  0  0  0  0  0  0
  -23.5651  -19.7033   15.6116 C   0  0  0  0  0  0  0  0  0  0  0  0
  -22.4608  -19.7958   18.3532 C   0  0  0  0  0  0  0  0  0  0  0  0
  -18.9147  -19.5172   12.0717 C   0  0  0  0  0  0  0  0  0  0  0  0
  -29.6465  -24.6539   17.8502 C   0  0  0  0  0  0  0  0  0  0  0  0
  -18.7157  -20.2946   13.3689 C   0  0  0  0  0  0  0  0  0  0  0  0
  -29.3841  -23.2526   18.4050 C   0  0  0  0  0  0  0  0  0  0  0  0
  -30.6314  -25.4205   18.7280 C   0  0  0  0  0  0  0  0  0  0  0  0
  -29.9674  -24.1240   20.7159 C   0  0  0  0  0  0  0  0  0  0  0  0
  -19.9557  -21.1313   13.7064 C   0  0  1  0  0  0  0  0  0  0  0  0
  -22.2199  -19.0722   15.9573 C   0  0  1  0  0  0  0  0  0  0  0  0
  -28.9619  -23.3060   19.8852 C   0  0  2  0  0  0  0  0  0  0  0  0
  -23.3786  -31.2612   21.8527 C   0  0  0  0  0  0  0  0  0  0  0  0
  -23.6996  -14.8080   22.3622 C   0  0  0  0  0  0  0  0  0  0  0  0
  -18.8112  -18.4091   19.0071 C   0  0  0  0  0  0  0  0  0  0  0  0
  -19.4220  -17.0715   21.0334 C   0  0  0  0  0  0  0  0  0  0  0  0
  -19.1361  -15.9356   18.8310 C   0  0  0  0  0  0  0  0  0  0  0  0
  -25.2964  -15.4113   18.9619 C   0  0  0  0  0  0  0  0  0  0  0  0
  -25.5706  -27.5419   19.1325 C   0  0  0  0  0  0  0  0  0  0  0  0
  -25.2309  -26.1400   19.6433 C   0  0  0  0  0  0  0  0  0  0  0  0
  -28.4713  -29.5877   20.7383 C   0  0  0  0  0  0  0  0  0  0  0  0
  -27.3861  -28.6702   21.3176 C   0  0  0  0  0  0  0  0  0  0  0  0
  -29.8987  -29.0765   20.9216 C   0  0  0  0  0  0  0  0  0  0  0  0
  -25.5365  -25.0392   18.6342 C   0  0  0  0  0  0  0  0  0  1  0  0
  -21.1709  -17.3839   19.2238 C   0  0  1  0  0  0  0  0  0  0  0  0
  -23.7151  -15.1074   20.8712 C   0  0  2  0  0  0  0  0  0  0  0  0
  -19.6522  -17.2206   19.5144 C   0  0  0  0  0  0  0  0  0  0  0  0
  -29.5029  -20.9028   20.0036 N   0  0  0  0  0  0  0  0  0  0  0  0
  -25.5127  -30.1005   21.8001 N   0  0  0  0  0  0  0  0  0  0  0  0
  -26.0387  -29.1168   21.0506 N   0  0  0  0  0  0  0  0  0  0  0  0
  -28.7490  -21.9177   20.4595 N   0  0  0  0  0  0  0  0  0  0  0  0
  -22.0946  -18.7528   17.3808 N   0  0  0  0  0  0  0  0  0  0  0  0
  -30.1616  -25.4502   20.1203 N   0  0  0  0  0  0  0  0  0  0  0  0
  -27.0176  -22.4467   21.9869 N   0  0  0  0  0  0  0  0  0  0  0  0
  -27.6179  -18.0111   22.5879 N   0  0  0  0  0  0  0  0  0  0  0  0
  -20.9951  -20.2925   14.2636 N   0  0  0  0  0  0  0  0  0  0  0  0
  -21.9885  -16.2607   19.6691 N   0  0  0  0  0  0  0  0  0  0  0  0
  -30.1227  -27.8118   20.2572 N   0  0  0  0  0  0  0  0  0  0  0  0
  -25.1332  -15.1483   20.4149 N   0  3  0  0  0  0  0  0  0  0  0  0
  -26.3955  -19.8322   23.2574 O   0  0  0  0  0  0  0  0  0  0  0  0
  -20.2719  -20.3010   16.4771 O   0  0  0  0  0  0  0  0  0  0  0  0
  -21.1401  -16.6671   16.9629 O   0  0  0  0  0  0  0  0  0  0  0  0
  -23.3659  -17.4896   21.0726 O   0  0  0  0  0  0  0  0  0  0  0  0
  -29.5124  -26.5381   22.0628 O   0  0  0  0  0  0  0  0  0  0  0  0
  -31.2919  -14.7922   19.9092 O   0  0  0  0  0  0  0  0  0  0  0  0
  -25.1671  -23.7827   19.2009 O   0  0  0  0  0  0  0  0  0  1  0  0
  -27.8456  -10.5075   19.4986 F   0  0  0  0  0  0  0  0  0  0  0  0
  -31.2300  -13.2357   17.6254 F   0  0  0  0  0  0  0  0  0  0  0  0
  1  2  1  0  0  0  0
  1  5  2  0  0  0  0
  2  6  2  0  0  0  0
  3  8  2  0  0  0  0
  3 16  1  0  0  0  0
  4  9  1  0  0  0  0
  4 16  2  0  0  0  0
  5 18  1  0  0  0  0
  6 20  1  0  0  0  0
  7 10  2  0  0  0  0
  7 19  1  0  0  0  0
  8 22  1  0  0  0  0
  9 22  2  0  0  0  0
 10 23  1  0  0  0  0
 11 12  2  0  0  0  0
 11 24  1  0  0  0  0
 12 25  1  0  0  0  0
 13 21  1  0  0  0  0
 13 23  2  0  0  0  0
 14 25  2  0  0  0  0
 14 26  1  0  0  0  0
 15 28  1  0  0  0  0
 15 29  2  0  0  0  0
 16 27  1  0  0  0  0
 17 27  1  0  0  0  0
 17 30  2  0  0  0  0
 17 31  1  0  0  0  0
 18 20  2  0  0  0  0
 18 36  1  0  0  0  0
 19 21  2  0  0  0  0
 19 37  1  0  0  0  0
 20 45  1  0  0  0  0
 21 38  1  0  0  0  0
 22 80  1  0  0  0  0
 23 81  1  0  0  0  0
 24 26  2  0  0  0  0
 24 80  1  0  0  0  0
 25 82  1  0  0  0  0
 26 83  1  0  0  0  0
 27 63  2  0  0  0  0
 28 48  1  0  0  0  0
 28 64  2  0  0  0  0
 29 54  1  0  0  0  0
 29 65  1  0  0  0  0
 30 66  1  0  0  0  0
 30 69  1  0  0  0  0
 31 70  1  0  0  0  0
 31 75  2  0  0  0  0
 32 46  1  0  0  0  0
 32 71  1  0  0  0  0
 32 76  2  0  0  0  0
 33 60  1  0  0  0  0
 33 67  1  0  0  0  0
 33 77  2  0  0  0  0
 34 61  1  0  0  0  0
 34 72  1  0  0  0  0
 34 78  2  0  0  0  0
 35 68  1  0  0  0  0
 35 73  1  0  0  0  0
 35 79  2  0  0  0  0
 36 39  1  0  0  0  0
 37 46  1  0  0  0  0
 38 67  1  0  0  0  0
 39 41  1  0  0  0  0
 40 42  1  0  0  0  0
 40 43  1  0  0  0  0
 41 45  1  0  0  0  0
 42 47  1  0  0  0  0
 43 68  1  0  0  0  0
 44 47  1  0  0  0  0
 44 68  1  0  0  0  0
 45 71  1  0  0  0  0
 46 67  1  0  0  0  0
 47 66  1  0  0  0  0
 49 61  1  0  0  0  0
 50 62  1  0  0  0  0
 51 62  1  0  0  0  0
 52 62  1  0  0  0  0
 53 74  1  0  0  0  0
 54 55  1  0  0  0  0
 55 59  1  0  0  0  0
 56 57  1  0  0  0  0
 56 58  1  0  0  0  0
 57 65  1  0  0  0  0
 58 73  1  0  0  0  0
 59 81  1  0  0  0  0
 60 62  1  0  0  0  0
 60 72  1  0  0  0  0
 61 74  1  0  0  0  0
 63 66  1  0  0  0  0
 64 65  1  0  0  0  0
M  CHG  1  74   1
M  ISO  4  35 100  59 101  73 100  81 101
M  END
> <Batch ID>
0090

> <Smiles>
CNC(C)C(=O)NC(C(=O)N1Cc2cc([101O:1][101CH2:1]CCc3cc(C)nn3CCC[100NH:0][100C:0](=O)N3CCCC(n4nc(-c5ccc(Oc6ccc(F)cc6F)cc5)c(C(N)=O)c4N)C3)ccc2CC1C(=O)NC1CCCc2ccccc21)C(C)(C)C

> <Shape>
0.223

> <Color>
0.076

> <Negative vol penalty>
0.000

$$$$

  -OEChem-04052319092D

  0  0  0     0  0  0  0  0  0999 V2000
M  END
$$$$
