
  -OEChem-04052319113D

 88 96  0     1  0  0  0  0  0999 V2000
  -35.5263  -14.5268   31.4035 C   0  0  0  0  0  0  0  0  0  0  0  0
  -34.6284  -14.8666   30.3967 C   0  0  0  0  0  0  0  0  0  0  0  0
  -23.0749   -9.8681   19.9424 C   0  0  0  0  0  0  0  0  0  0  0  0
  -23.8379   -9.8760   22.2348 C   0  0  0  0  0  0  0  0  0  0  0  0
  -35.7577  -13.1855   31.7060 C   0  0  0  0  0  0  0  0  0  0  0  0
  -33.9622  -13.8654   29.6909 C   0  0  0  0  0  0  0  0  0  0  0  0
  -29.0306  -14.8549   29.1037 C   0  0  0  0  0  0  0  0  0  0  0  0
  -22.3322   -8.7145   20.1936 C   0  0  0  0  0  0  0  0  0  0  0  0
  -23.0952   -8.7224   22.4860 C   0  0  0  0  0  0  0  0  0  0  0  0
  -28.6789  -15.7746   28.1167 C   0  0  0  0  0  0  0  0  0  0  0  0
  -19.8685   -7.9223   23.0930 C   0  0  0  0  0  0  0  0  0  0  0  0
  -19.1132   -7.8819   24.2650 C   0  0  0  0  0  0  0  0  0  0  0  0
  -28.1125  -13.9579   26.6341 C   0  0  0  0  0  0  0  0  0  0  0  0
  -27.0420  -19.3724   24.4439 C   0  0  0  0  0  0  0  0  0  0  0  0
  -27.5562  -17.7928   22.6897 C   0  0  0  0  0  0  0  0  0  0  0  0
  -20.3570   -5.9455   25.0000 C   0  0  0  0  0  0  0  0  0  0  0  0
  -23.8278  -10.4489   20.9630 C   0  0  0  0  0  0  0  0  0  0  0  0
  -24.1676  -12.9743   20.8422 C   0  0  0  0  0  0  0  0  0  0  0  0
  -35.0868  -12.1675   31.0101 C   0  0  0  0  0  0  0  0  0  0  0  0
  -28.9361  -13.4773   28.8591 C   0  0  0  0  0  0  0  0  0  0  0  0
  -34.1859  -12.5092   29.9834 C   0  0  0  0  0  0  0  0  0  0  0  0
  -28.4613  -13.0228   27.6206 C   0  0  0  0  0  0  0  0  0  0  0  0
  -26.9048  -18.1024   23.8836 C   0  0  0  0  0  0  0  0  0  0  0  0
  -27.8305  -20.3328   23.8102 C   0  0  0  0  0  0  0  0  0  0  0  0
  -28.3448  -18.7532   22.0560 C   0  0  0  0  0  0  0  0  0  0  0  0
  -28.4819  -20.0232   22.6163 C   0  0  0  0  0  0  0  0  0  0  0  0
  -22.3424   -8.1416   21.4653 C   0  0  0  0  0  0  0  0  0  0  0  0
  -28.2225  -15.3262   26.8807 C   0  0  0  0  0  0  0  0  0  0  0  0
  -20.8680   -6.9742   22.8745 C   0  0  0  0  0  0  0  0  0  0  0  0
  -19.3575   -6.8936   25.2185 C   0  0  0  0  0  0  0  0  0  0  0  0
  -21.1123   -5.9858   23.8280 C   0  0  0  0  0  0  0  0  0  0  0  0
  -24.5957  -11.6403   20.7041 C   0  0  0  0  0  0  0  0  0  0  0  0
  -25.2587  -13.7245   20.4773 C   0  0  0  0  0  0  0  0  0  0  0  0
  -22.8974  -13.4892   21.2628 C   0  0  0  0  0  0  0  0  0  0  0  0
  -31.0071  -11.0675   28.7712 C   0  0  0  0  0  0  0  0  0  0  0  0
  -28.3209   -9.2842   28.4154 C   0  0  0  0  0  0  0  0  0  0  0  0
  -25.0534   -9.1301   27.4425 C   0  0  0  0  0  0  0  0  0  0  0  0
  -30.7420  -14.7476   20.6579 C   0  0  0  0  0  0  0  0  0  0  0  0
  -35.4052  -10.7308   31.3405 C   0  0  0  0  0  0  0  0  0  0  0  0
  -29.2941  -12.4984   29.9435 C   0  0  0  0  0  0  0  0  0  0  0  0
  -28.3222  -11.5545   27.3149 C   0  0  0  0  0  0  0  0  0  0  0  0
  -34.3781   -9.7395   30.7996 C   0  0  0  0  0  0  0  0  0  0  0  0
  -29.6028  -12.3619   18.2731 C   0  0  0  0  0  0  0  0  0  0  0  0
  -34.0451  -10.0560   29.3451 C   0  0  0  0  0  0  0  0  0  0  0  0
  -28.1662  -12.0672   18.7080 C   0  0  0  0  0  0  0  0  0  0  0  0
  -30.5215  -12.5836   19.4726 C   0  0  0  0  0  0  0  0  0  0  0  0
  -28.6211  -13.3135   20.8618 C   0  0  0  0  0  0  0  0  0  0  0  0
  -33.4254  -11.4524   29.2123 C   0  0  1  0  0  0  0  0  0  0  0  0
  -29.6464  -11.1145   29.4067 C   0  0  1  0  0  0  0  0  0  0  0  0
  -27.6454  -13.1380   19.6855 C   0  0  2  0  0  0  0  0  0  0  0  0
  -28.4900  -22.0898   21.1966 C   0  0  0  0  0  0  0  0  0  0  0  0
  -28.6912  -22.9898   26.4757 C   0  0  0  0  0  0  0  0  0  0  0  0
  -24.8641  -16.6430   23.6904 C   0  0  0  0  0  0  0  0  0  0  0  0
  -23.1337   -7.5274   27.2337 C   0  0  0  0  0  0  0  0  0  0  0  0
  -29.6031   -8.0768   25.9237 C   0  0  0  0  0  0  0  0  0  0  0  0
  -27.3416   -7.2398   25.2506 C   0  0  0  0  0  0  0  0  0  0  0  0
  -28.3865   -6.4383   27.3692 C   0  0  0  0  0  0  0  0  0  0  0  0
  -23.3932  -10.6918   29.3303 C   0  0  0  0  0  0  0  0  0  0  0  0
  -27.9619  -21.6850   24.4316 C   0  0  0  0  0  0  0  0  0  0  0  0
  -29.0320  -18.3965   20.7784 C   0  0  0  0  0  0  0  0  0  0  0  0
  -29.3276  -21.0530   21.9374 C   0  0  0  0  0  0  0  0  0  0  0  0
  -28.5267  -21.6105   25.8574 C   0  0  0  0  0  0  0  0  0  0  0  0
  -30.5253  -18.0522   20.9346 C   0  0  0  0  0  0  0  0  0  0  0  0
  -30.8080  -16.8984   21.8944 C   0  0  0  0  0  0  0  0  0  0  0  0
  -26.8623  -15.8269   24.9952 C   0  0  0  0  0  0  0  0  0  1  0  0
  -26.0446  -17.0556   24.5740 C   0  0  1  0  0  0  0  0  0  0  0  0
  -27.5044   -8.8041   27.2399 C   0  0  1  0  0  0  0  0  0  0  0  0
  -23.8265   -8.5492   28.1219 C   0  0  2  0  0  0  0  0  0  0  0  0
  -28.2132   -7.6675   26.4506 C   0  0  0  0  0  0  0  0  0  0  0  0
  -25.8600  -11.5453   20.2840 N   0  0  0  0  0  0  0  0  0  0  0  0
  -26.2358  -12.8292   20.1550 N   0  0  0  0  0  0  0  0  0  0  0  0
  -28.6907  -10.6366   28.4054 N   0  0  0  0  0  0  0  0  0  0  0  0
  -29.9714  -13.6118   20.3592 N   0  0  0  0  0  0  0  0  0  0  0  0
  -25.4681  -15.0561   20.4038 N   0  0  0  0  0  0  0  0  0  0  0  0
  -21.8866  -12.5794   21.6016 N   0  0  0  0  0  0  0  0  0  0  0  0
  -32.0366  -11.4297   29.6188 N   0  0  0  0  0  0  0  0  0  0  0  0
  -26.1976   -8.4357   27.7739 N   0  0  0  0  0  0  0  0  0  0  0  0
  -30.1433  -15.6761   21.5006 N   0  0  0  0  0  0  0  0  0  0  0  0
  -22.8520   -9.6298   28.4435 N   0  3  0  0  0  0  0  0  0  0  0  0
  -22.6603  -14.7197   21.3202 O   0  0  0  0  0  0  0  0  0  0  0  0
  -31.1151  -10.7265   27.5992 O   0  0  0  0  0  0  0  0  0  0  0  0
  -28.6136   -8.4903   29.3130 O   0  0  0  0  0  0  0  0  0  0  0  0
  -25.0014  -10.1004   26.6900 O   0  0  0  0  0  0  0  0  0  0  0  0
  -31.8772  -14.9238   20.2027 O   0  0  0  0  0  0  0  0  0  0  0  0
  -21.6176   -7.0160   21.7108 O   0  0  0  0  0  0  0  0  0  0  0  0
  -27.8791  -16.2217   25.9153 O   0  0  0  0  0  0  0  0  0  1  0  0
  -18.6331   -6.8560   26.3446 F   0  0  0  0  0  0  0  0  0  0  0  0
  -22.0720   -5.0730   23.6242 F   0  0  0  0  0  0  0  0  0  0  0  0
  1  2  1  0  0  0  0
  1  5  2  0  0  0  0
  2  6  2  0  0  0  0
  3  8  2  0  0  0  0
  3 17  1  0  0  0  0
  4  9  1  0  0  0  0
  4 17  2  0  0  0  0
  5 19  1  0  0  0  0
  6 21  1  0  0  0  0
  7 10  2  0  0  0  0
  7 20  1  0  0  0  0
  8 27  1  0  0  0  0
  9 27  2  0  0  0  0
 10 28  1  0  0  0  0
 11 12  2  0  0  0  0
 11 29  1  0  0  0  0
 12 30  1  0  0  0  0
 13 22  1  0  0  0  0
 13 28  2  0  0  0  0
 14 23  2  0  0  0  0
 14 24  1  0  0  0  0
 15 23  1  0  0  0  0
 15 25  2  0  0  0  0
 16 30  2  0  0  0  0
 16 31  1  0  0  0  0
 17 32  1  0  0  0  0
 18 32  1  0  0  0  0
 18 33  2  0  0  0  0
 18 34  1  0  0  0  0
 19 21  2  0  0  0  0
 19 39  1  0  0  0  0
 20 22  2  0  0  0  0
 20 40  1  0  0  0  0
 21 48  1  0  0  0  0
 22 41  1  0  0  0  0
 23 66  1  0  0  0  0
 24 26  2  0  0  0  0
 24 59  1  0  0  0  0
 25 26  1  0  0  0  0
 25 60  1  0  0  0  0
 26 61  1  0  0  0  0
 27 85  1  0  0  0  0
 28 86  1  0  0  0  0
 29 31  2  0  0  0  0
 29 85  1  0  0  0  0
 30 87  1  0  0  0  0
 31 88  1  0  0  0  0
 32 70  2  0  0  0  0
 33 71  1  0  0  0  0
 33 74  1  0  0  0  0
 34 75  1  0  0  0  0
 34 80  2  0  0  0  0
 35 49  1  0  0  0  0
 35 76  1  0  0  0  0
 35 81  2  0  0  0  0
 36 67  1  0  0  0  0
 36 72  1  0  0  0  0
 36 82  2  0  0  0  0
 37 68  1  0  0  0  0
 37 77  1  0  0  0  0
 37 83  2  0  0  0  0
 38 73  1  0  0  0  0
 38 78  1  0  0  0  0
 38 84  2  0  0  0  0
 39 42  1  0  0  0  0
 40 49  1  0  0  0  0
 41 72  1  0  0  0  0
 42 44  1  0  0  0  0
 43 45  1  0  0  0  0
 43 46  1  0  0  0  0
 44 48  1  0  0  0  0
 45 50  1  0  0  0  0
 46 73  1  0  0  0  0
 47 50  1  0  0  0  0
 47 73  1  0  0  0  0
 48 76  1  0  0  0  0
 49 72  1  0  0  0  0
 50 71  1  0  0  0  0
 51 61  1  0  0  0  0
 52 62  1  0  0  0  0
 53 66  1  0  0  0  0
 54 68  1  0  0  0  0
 55 69  1  0  0  0  0
 56 69  1  0  0  0  0
 57 69  1  0  0  0  0
 58 79  1  0  0  0  0
 59 62  1  0  0  0  0
 60 63  1  0  0  0  0
 63 64  1  0  0  0  0
 64 78  1  0  0  0  0
 65 66  1  0  0  0  0
 65 86  1  0  0  0  0
 67 69  1  0  0  0  0
 67 77  1  0  0  0  0
 68 79  1  0  0  0  0
 70 71  1  0  0  0  0
M  CHG  1  79   1
M  ISO  4  38 100  65 101  78 100  86 101
M  END
> <Batch ID>
0091

> <Smiles>
CCCc1cc(C(C)[101CH2:1][101O:1]c2ccc3c(c2)CN(C(=O)C(NC(=O)C(C)NC)C(C)(C)C)C(C(=O)NC2CCCc4ccccc42)C3)cc(CCC[100NH:0][100C:0](=O)N2CCCC(n3nc(-c4ccc(Oc5ccc(F)cc5F)cc4)c(C(N)=O)c3N)C2)c1CC

> <Shape>
0.183

> <Color>
0.187

> <Negative vol penalty>
0.000

$$$$

  -OEChem-04052319113D

 87 95  0     1  0  0  0  0  0999 V2000
  -27.7458  -10.8692   19.1967 C   0  0  0  0  0  0  0  0  0  0  0  0
  -28.0369  -12.0939   18.6042 C   0  0  0  0  0  0  0  0  0  0  0  0
  -20.0986  -27.4373   24.1255 C   0  0  0  0  0  0  0  0  0  0  0  0
  -21.5317  -25.6078   23.4649 C   0  0  0  0  0  0  0  0  0  0  0  0
  -26.6295  -10.7435   20.0225 C   0  0  0  0  0  0  0  0  0  0  0  0
  -27.2111  -13.1932   18.8364 C   0  0  0  0  0  0  0  0  0  0  0  0
  -28.9239  -19.0566   19.2758 C   0  0  0  0  0  0  0  0  0  0  0  0
  -18.9765  -26.6408   23.8972 C   0  0  0  0  0  0  0  0  0  0  0  0
  -20.4096  -24.8113   23.2366 C   0  0  0  0  0  0  0  0  0  0  0  0
  -28.9084  -20.1093   18.3618 C   0  0  0  0  0  0  0  0  0  0  0  0
  -18.0681  -24.4379   20.8264 C   0  0  0  0  0  0  0  0  0  0  0  0
  -18.0360  -23.6848   19.6528 C   0  0  0  0  0  0  0  0  0  0  0  0
  -26.7946  -20.8488   19.2586 C   0  0  0  0  0  0  0  0  0  0  0  0
  -17.8796  -21.6577   20.9581 C   0  0  0  0  0  0  0  0  0  0  0  0
  -31.5020  -24.2349   17.1177 C   0  0  0  0  0  0  0  0  0  0  0  0
  -21.3762  -26.9208   23.9093 C   0  0  0  0  0  0  0  0  0  0  0  0
  -23.2561  -27.8732   25.3469 C   0  0  0  0  0  0  0  0  0  0  0  0
  -25.7950  -11.8443   20.2726 C   0  0  0  0  0  0  0  0  0  0  0  0
  -27.8678  -18.8854   20.1823 C   0  0  0  0  0  0  0  0  0  0  0  0
  -26.0818  -13.0817   19.6652 C   0  0  0  0  0  0  0  0  0  0  0  0
  -26.8003  -19.7946   20.1847 C   0  0  0  0  0  0  0  0  0  0  0  0
  -19.1320  -25.3278   23.4527 C   0  0  0  0  0  0  0  0  0  0  0  0
  -27.8423  -21.0039   18.3512 C   0  0  0  0  0  0  0  0  0  0  0  0
  -18.0061  -23.8010   22.0658 C   0  0  0  0  0  0  0  0  0  0  0  0
  -17.9417  -22.2946   19.7186 C   0  0  0  0  0  0  0  0  0  0  0  0
  -17.9118  -22.4109   22.1316 C   0  0  0  0  0  0  0  0  0  0  0  0
  -22.5356  -27.7433   24.1445 C   0  0  0  0  0  0  0  0  0  0  0  0
  -31.8681  -24.7051   18.3596 C   0  0  0  0  0  0  0  0  0  0  0  0
  -29.2992  -24.5363   17.6528 C   0  0  0  0  0  0  0  0  0  0  0  0
  -29.6652  -25.0059   18.8950 C   0  0  0  0  0  0  0  0  0  0  0  0
  -24.2589  -28.7642   25.0519 C   0  0  0  0  0  0  0  0  0  0  0  0
  -23.0383  -27.2446   26.6170 C   0  0  0  0  0  0  0  0  0  0  0  0
  -25.7197  -16.6047   20.7189 C   0  0  0  0  0  0  0  0  0  0  0  0
  -24.9475  -18.4705   23.2575 C   0  0  0  0  0  0  0  0  0  0  0  0
  -24.9456  -21.5734   24.6785 C   0  0  0  0  0  0  0  0  0  0  0  0
  -26.9788  -30.2965   19.9426 C   0  0  0  0  0  0  0  0  0  0  0  0
  -24.5731  -11.6479   21.1345 C   0  0  0  0  0  0  0  0  0  0  0  0
  -27.9125  -17.7604   21.1796 C   0  0  0  0  0  0  0  0  0  0  0  0
  -25.6519  -19.6667   21.1508 C   0  0  0  0  0  0  0  0  0  0  0  0
  -23.9601  -12.9555   21.6292 C   0  0  0  0  0  0  0  0  0  0  0  0
  -25.2586  -32.4619   22.1851 C   0  0  0  0  0  0  0  0  0  0  0  0
  -23.8440  -13.9573   20.4847 C   0  0  0  0  0  0  0  0  0  0  0  0
  -24.4307  -31.5098   23.0500 C   0  0  0  0  0  0  0  0  0  0  0  0
  -25.3448  -31.9796   20.7387 C   0  0  0  0  0  0  0  0  0  0  0  0
  -24.9973  -29.6427   21.4402 C   0  0  0  0  0  0  0  0  0  0  0  0
  -25.2240  -14.3036   19.9126 C   0  0  1  0  0  0  0  0  0  0  0  0
  -26.5350  -17.3808   21.7142 C   0  0  1  0  0  0  0  0  0  0  0  0
  -24.9284  -30.0577   22.9198 C   0  0  2  0  0  0  0  0  0  0  0  0
  -33.6553  -23.8959   19.9422 C   0  0  0  0  0  0  0  0  0  0  0  0
  -33.7520  -26.2421   19.0251 C   0  0  0  0  0  0  0  0  0  0  0  0
  -24.2107  -22.7934   26.7446 C   0  0  0  0  0  0  0  0  0  0  0  0
  -30.0905  -28.8498   21.2001 C   0  0  0  0  0  0  0  0  0  0  0  0
  -22.0640  -18.4160   22.2612 C   0  0  0  0  0  0  0  0  0  0  0  0
  -21.5833  -20.3642   23.7584 C   0  0  0  0  0  0  0  0  0  0  0  0
  -22.3160  -18.1908   24.7392 C   0  0  0  0  0  0  0  0  0  0  0  0
  -27.7223  -22.3464   25.3500 C   0  0  0  0  0  0  0  0  0  0  0  0
  -27.8495  -24.4372   17.2445 C   0  0  0  0  0  0  0  0  0  0  0  0
  -28.6464  -25.4378   19.8936 C   0  0  0  0  0  0  0  0  0  0  0  0
  -29.1136  -26.5594   20.8435 C   0  0  0  0  0  0  0  0  0  0  0  0
  -28.5389  -28.4998   19.2376 C   0  0  0  0  0  0  0  0  0  0  0  0
  -27.1552  -23.2271   17.8600 C   0  0  0  0  0  0  0  0  0  1  0  0
  -33.3044  -24.7948   18.7400 C   0  0  0  0  0  0  0  0  0  0  0  0
  -23.9913  -19.6151   23.4915 C   0  0  1  0  0  0  0  0  0  0  0  0
  -25.3474  -22.0472   26.0635 C   0  0  2  0  0  0  0  0  0  0  0  0
  -29.5941  -27.8514   20.1467 C   0  0  1  0  0  0  0  0  0  0  0  0
  -22.5092  -19.1481   23.5429 C   0  0  0  0  0  0  0  0  0  0  0  0
  -30.2110  -24.1421   16.7419 N   0  0  0  0  0  0  0  0  0  0  0  0
  -23.0380  -28.4920   23.1590 N   0  0  0  0  0  0  0  0  0  0  0  0
  -30.9562  -25.0990   19.2706 N   0  0  0  0  0  0  0  0  0  0  0  0
  -24.0847  -29.1009   23.7418 N   0  0  0  0  0  0  0  0  0  0  0  0
  -25.7384  -18.5466   22.1023 N   0  0  0  0  0  0  0  0  0  0  0  0
  -25.8247  -30.5966   20.6849 N   0  0  0  0  0  0  0  0  0  0  0  0
  -25.2637  -29.2846   25.7879 N   0  0  0  0  0  0  0  0  0  0  0  0
  -21.9624  -26.3558   26.7469 N   0  0  0  0  0  0  0  0  0  0  0  0
  -25.9105  -15.2375   20.7793 N   0  0  0  0  0  0  0  0  0  0  0  0
  -24.4483  -20.2876   24.7029 N   0  0  0  0  0  0  0  0  0  0  0  0
  -27.3686  -28.9628   19.9495 N   0  0  0  0  0  0  0  0  0  0  0  0
  -26.5234  -22.9587   25.9782 N   0  3  0  0  0  0  0  0  0  0  0  0
  -23.7662  -27.4770   27.6119 O   0  0  0  0  0  0  0  0  0  0  0  0
  -24.9717  -17.2021   19.9537 O   0  0  0  0  0  0  0  0  0  0  0  0
  -24.9960  -17.5467   24.0735 O   0  0  0  0  0  0  0  0  0  0  0  0
  -25.0579  -22.2752   23.6757 O   0  0  0  0  0  0  0  0  0  0  0  0
  -27.6177  -31.1546   19.3241 O   0  0  0  0  0  0  0  0  0  0  0  0
  -18.0373  -24.5502   23.2300 O   0  0  0  0  0  0  0  0  0  0  0  0
  -27.8244  -22.0320   17.4597 O   0  0  0  0  0  0  0  0  0  1  0  0
  -17.9093  -21.5716   18.5915 F   0  0  0  0  0  0  0  0  0  0  0  0
  -17.8507  -21.7934   23.3194 F   0  0  0  0  0  0  0  0  0  0  0  0
  1  2  1  0  0  0  0
  1  5  2  0  0  0  0
  2  6  2  0  0  0  0
  3  8  2  0  0  0  0
  3 16  1  0  0  0  0
  4  9  1  0  0  0  0
  4 16  2  0  0  0  0
  5 18  1  0  0  0  0
  6 20  1  0  0  0  0
  7 10  2  0  0  0  0
  7 19  1  0  0  0  0
  8 22  1  0  0  0  0
  9 22  2  0  0  0  0
 10 23  1  0  0  0  0
 11 12  2  0  0  0  0
 11 24  1  0  0  0  0
 12 25  1  0  0  0  0
 13 21  1  0  0  0  0
 13 23  2  0  0  0  0
 14 25  2  0  0  0  0
 14 26  1  0  0  0  0
 15 28  1  0  0  0  0
 15 67  2  0  0  0  0
 16 27  1  0  0  0  0
 17 27  1  0  0  0  0
 17 31  2  0  0  0  0
 17 32  1  0  0  0  0
 18 20  2  0  0  0  0
 18 37  1  0  0  0  0
 19 21  2  0  0  0  0
 19 38  1  0  0  0  0
 20 46  1  0  0  0  0
 21 39  1  0  0  0  0
 22 84  1  0  0  0  0
 23 85  1  0  0  0  0
 24 26  2  0  0  0  0
 24 84  1  0  0  0  0
 25 86  1  0  0  0  0
 26 87  1  0  0  0  0
 27 68  2  0  0  0  0
 28 62  1  0  0  0  0
 28 69  2  0  0  0  0
 29 30  2  0  0  0  0
 29 57  1  0  0  0  0
 29 67  1  0  0  0  0
 30 58  1  0  0  0  0
 30 69  1  0  0  0  0
 31 70  1  0  0  0  0
 31 73  1  0  0  0  0
 32 74  1  0  0  0  0
 32 79  2  0  0  0  0
 33 47  1  0  0  0  0
 33 75  1  0  0  0  0
 33 80  2  0  0  0  0
 34 63  1  0  0  0  0
 34 71  1  0  0  0  0
 34 81  2  0  0  0  0
 35 64  1  0  0  0  0
 35 76  1  0  0  0  0
 35 82  2  0  0  0  0
 36 72  1  0  0  0  0
 36 77  1  0  0  0  0
 36 83  2  0  0  0  0
 37 40  1  0  0  0  0
 38 47  1  0  0  0  0
 39 71  1  0  0  0  0
 40 42  1  0  0  0  0
 41 43  1  0  0  0  0
 41 44  1  0  0  0  0
 42 46  1  0  0  0  0
 43 48  1  0  0  0  0
 44 72  1  0  0  0  0
 45 48  1  0  0  0  0
 45 72  1  0  0  0  0
 46 75  1  0  0  0  0
 47 71  1  0  0  0  0
 48 70  1  0  0  0  0
 49 62  1  0  0  0  0
 50 62  1  0  0  0  0
 51 64  1  0  0  0  0
 52 65  1  0  0  0  0
 53 66  1  0  0  0  0
 54 66  1  0  0  0  0
 55 66  1  0  0  0  0
 56 78  1  0  0  0  0
 57 61  1  0  0  0  0
 58 59  1  0  0  0  0
 59 65  1  0  0  0  0
 60 65  1  0  0  0  0
 60 77  1  0  0  0  0
 61 85  1  0  0  0  0
 63 66  1  0  0  0  0
 63 76  1  0  0  0  0
 64 78  1  0  0  0  0
 68 70  1  0  0  0  0
M  CHG  1  78   1
M  ISO  4  36 100  61 101  77 100  85 101
M  END
> <Batch ID>
0091

> <Smiles>
CNC(C)C(=O)NC(C(=O)N1Cc2cc([101O:1][101CH2:1]Cc3ncc(C(C)C)nc3CCC(C)C[100NH:0][100C:0](=O)N3CCCC(n4nc(-c5ccc(Oc6ccc(F)cc6F)cc5)c(C(N)=O)c4N)C3)ccc2CC1C(=O)NC1CCCc2ccccc21)C(C)(C)C

> <Shape>
0.199

> <Color>
0.061

> <Negative vol penalty>
0.000

$$$$

  -OEChem-04052319113D

 86 94  0     1  0  0  0  0  0999 V2000
  -22.8776  -17.6962   22.3287 C   0  0  0  0  0  0  0  0  0  0  0  0
  -23.9791  -18.4914   22.0290 C   0  0  0  0  0  0  0  0  0  0  0  0
  -25.9709  -13.5199   21.1833 C   0  0  0  0  0  0  0  0  0  0  0  0
  -25.7016  -13.8598   18.8066 C   0  0  0  0  0  0  0  0  0  0  0  0
  -21.5923  -18.1463   22.0297 C   0  0  0  0  0  0  0  0  0  0  0  0
  -23.7959  -19.7368   21.4291 C   0  0  0  0  0  0  0  0  0  0  0  0
  -27.1316  -24.7906   22.3446 C   0  0  0  0  0  0  0  0  0  0  0  0
  -24.8466  -12.6944   21.1926 C   0  0  0  0  0  0  0  0  0  0  0  0
  -24.5774  -13.0343   18.8159 C   0  0  0  0  0  0  0  0  0  0  0  0
  -28.1776  -25.3671   21.6254 C   0  0  0  0  0  0  0  0  0  0  0  0
  -24.0922   -9.5036   20.3663 C   0  0  0  0  0  0  0  0  0  0  0  0
  -24.1754   -8.3029   21.0713 C   0  0  0  0  0  0  0  0  0  0  0  0
  -26.6056  -26.8246   20.5192 C   0  0  0  0  0  0  0  0  0  0  0  0
  -30.6322  -23.8703   16.9639 C   0  0  0  0  0  0  0  0  0  0  0  0
  -22.3435   -9.0042   22.4818 C   0  0  0  0  0  0  0  0  0  0  0  0
  -26.3984  -14.1027   19.9903 C   0  0  0  0  0  0  0  0  0  0  0  0
  -28.8970  -14.5691   19.7731 C   0  0  0  0  0  0  0  0  0  0  0  0
  -21.3927  -19.4019   21.4346 C   0  0  0  0  0  0  0  0  0  0  0  0
  -25.8112  -25.2199   22.1483 C   0  0  0  0  0  0  0  0  0  0  0  0
  -22.5068  -20.2035   21.1206 C   0  0  0  0  0  0  0  0  0  0  0  0
  -25.5450  -26.2537   21.2391 C   0  0  0  0  0  0  0  0  0  0  0  0
  -31.6134  -24.2848   17.8576 C   0  0  0  0  0  0  0  0  0  0  0  0
  -32.3044  -23.3412   18.6095 C   0  0  0  0  0  0  0  0  0  0  0  0
  -24.1498  -12.4515   20.0089 C   0  0  0  0  0  0  0  0  0  0  0  0
  -27.9143  -26.3823   20.7104 C   0  0  0  0  0  0  0  0  0  0  0  0
  -23.1347  -10.4546   20.7190 C   0  0  0  0  0  0  0  0  0  0  0  0
  -23.3011   -8.0532   22.1290 C   0  0  0  0  0  0  0  0  0  0  0  0
  -22.2603  -10.2049   21.7767 C   0  0  0  0  0  0  0  0  0  0  0  0
  -27.5593  -14.9560   19.9802 C   0  0  0  0  0  0  0  0  0  0  0  0
  -30.3817  -22.5115   16.8601 C   0  0  0  0  0  0  0  0  0  0  0  0
  -31.9790  -22.0061   18.4322 C   0  0  0  0  0  0  0  0  0  0  0  0
  -29.6102  -15.7397   19.8589 C   0  0  0  0  0  0  0  0  0  0  0  0
  -29.4457  -13.2678   19.5253 C   0  0  0  0  0  0  0  0  0  0  0  0
  -23.1339  -23.8449   21.1261 C   0  0  0  0  0  0  0  0  0  0  0  0
  -21.8148  -26.6872   21.9648 C   0  0  0  0  0  0  0  0  0  0  0  0
  -22.2422  -30.0261   22.5269 C   0  0  0  0  0  0  0  0  0  0  0  0
  -28.1521  -21.4777   18.9641 C   0  0  0  0  0  0  0  0  0  0  0  0
  -19.9876  -19.8253   21.0869 C   0  0  0  0  0  0  0  0  0  0  0  0
  -24.6974  -24.6062   22.9514 C   0  0  0  0  0  0  0  0  0  0  0  0
  -24.1474  -26.7646   21.0063 C   0  0  0  0  0  0  0  0  0  0  0  0
  -19.8561  -21.3176   20.7934 C   0  0  0  0  0  0  0  0  0  0  0  0
  -29.4984  -20.0490   21.9345 C   0  0  0  0  0  0  0  0  0  0  0  0
  -20.9678  -21.7771   19.8554 C   0  0  0  0  0  0  0  0  0  0  0  0
  -29.2748  -18.5468   21.7518 C   0  0  0  0  0  0  0  0  0  0  0  0
  -28.3446  -20.8657   21.3568 C   0  0  0  0  0  0  0  0  0  0  0  0
  -27.7940  -19.0646   19.7673 C   0  0  0  0  0  0  0  0  0  0  0  0
  -22.3474  -21.5710   20.4924 C   0  0  1  0  0  0  0  0  0  0  0  0
  -23.3292  -24.7672   22.2961 C   0  0  1  0  0  0  0  0  0  0  0  0
  -28.9577  -18.2015   20.2843 C   0  0  2  0  0  0  0  0  0  0  0  0
  -32.6878  -20.9462   19.2105 C   0  0  0  0  0  0  0  0  0  0  0  0
  -35.7444  -24.5804   19.8489 C   0  0  0  0  0  0  0  0  0  0  0  0
  -20.9724  -32.0951   23.1628 C   0  0  0  0  0  0  0  0  0  0  0  0
  -20.6532  -26.8372   19.1473 C   0  0  0  0  0  0  0  0  0  0  0  0
  -20.2299  -29.2755   19.5268 C   0  0  0  0  0  0  0  0  0  0  0  0
  -19.0955  -27.5768   20.9587 C   0  0  0  0  0  0  0  0  0  0  0  0
  -23.8632  -30.4094   24.9733 C   0  0  0  0  0  0  0  0  0  0  0  0
  -31.9057  -25.7578   17.9939 C   0  0  0  0  0  0  0  0  0  0  0  0
  -33.3638  -23.7563   19.5742 C   0  0  0  0  0  0  0  0  0  0  0  0
  -29.3364  -22.0302   15.9101 C   0  0  0  0  0  0  0  0  0  0  0  0
  -34.6766  -24.1250   18.8669 C   0  0  0  0  0  0  0  0  0  0  0  0
  -30.6925  -26.5901   18.4145 C   0  0  0  0  0  0  0  0  0  0  0  0
  -27.9393  -21.9320   16.5336 C   0  0  0  0  0  0  0  0  0  0  0  0
  -30.0599  -26.1190   19.7188 C   0  0  0  0  0  0  0  0  0  1  0  0
  -21.5694  -28.0007   21.2623 C   0  0  1  0  0  0  0  0  0  0  0  0
  -21.7952  -30.9206   23.6691 C   0  0  2  0  0  0  0  0  0  0  0  0
  -20.4132  -27.9118   20.2265 C   0  0  0  0  0  0  0  0  0  0  0  0
  -27.4280  -16.2697   20.1824 N   0  0  0  0  0  0  0  0  0  0  0  0
  -31.0322  -21.5654   17.5737 N   0  0  0  0  0  0  0  0  0  0  0  0
  -28.6923  -16.7185   20.1030 N   0  0  0  0  0  0  0  0  0  0  0  0
  -23.0915  -26.1283   21.8111 N   0  0  0  0  0  0  0  0  0  0  0  0
  -28.0962  -20.4912   19.9625 N   0  0  0  0  0  0  0  0  0  0  0  0
  -30.9268  -16.0170   19.7487 N   0  0  0  0  0  0  0  0  0  0  0  0
  -28.5715  -12.1738   19.4686 N   0  0  0  0  0  0  0  0  0  0  0  0
  -22.6157  -22.6093   21.4641 N   0  0  0  0  0  0  0  0  0  0  0  0
  -21.3566  -28.9915   22.3118 N   0  0  0  0  0  0  0  0  0  0  0  0
  -27.9107  -21.0368   17.6687 N   0  0  0  0  0  0  0  0  0  0  0  0
  -22.9778  -31.4561   24.4010 N   0  3  0  0  0  0  0  0  0  0  0  0
  -30.6766  -13.0785   19.3754 O   0  0  0  0  0  0  0  0  0  0  0  0
  -23.4300  -24.2265   19.9999 O   0  0  0  0  0  0  0  0  0  0  0  0
  -20.9096  -26.1796   22.6314 O   0  0  0  0  0  0  0  0  0  0  0  0
  -23.2720  -30.2274   21.8870 O   0  0  0  0  0  0  0  0  0  0  0  0
  -28.4041  -22.6625   19.2083 O   0  0  0  0  0  0  0  0  0  0  0  0
  -23.0529  -11.6458   20.0176 O   0  0  0  0  0  0  0  0  0  0  0  0
  -28.9333  -26.9464   20.0066 O   0  0  0  0  0  0  0  0  0  1  0  0
  -23.3801   -6.8995   22.8050 F   0  0  0  0  0  0  0  0  0  0  0  0
  -21.3376  -11.1143   22.1195 F   0  0  0  0  0  0  0  0  0  0  0  0
  1  2  1  0  0  0  0
  1  5  2  0  0  0  0
  2  6  2  0  0  0  0
  3  8  2  0  0  0  0
  3 16  1  0  0  0  0
  4  9  1  0  0  0  0
  4 16  2  0  0  0  0
  5 18  1  0  0  0  0
  6 20  1  0  0  0  0
  7 10  2  0  0  0  0
  7 19  1  0  0  0  0
  8 24  1  0  0  0  0
  9 24  2  0  0  0  0
 10 25  1  0  0  0  0
 11 12  2  0  0  0  0
 11 26  1  0  0  0  0
 12 27  1  0  0  0  0
 13 21  1  0  0  0  0
 13 25  2  0  0  0  0
 14 22  2  0  0  0  0
 14 30  1  0  0  0  0
 15 27  2  0  0  0  0
 15 28  1  0  0  0  0
 16 29  1  0  0  0  0
 17 29  1  0  0  0  0
 17 32  2  0  0  0  0
 17 33  1  0  0  0  0
 18 20  2  0  0  0  0
 18 38  1  0  0  0  0
 19 21  2  0  0  0  0
 19 39  1  0  0  0  0
 20 47  1  0  0  0  0
 21 40  1  0  0  0  0
 22 23  1  0  0  0  0
 22 57  1  0  0  0  0
 23 31  2  0  0  0  0
 23 58  1  0  0  0  0
 24 83  1  0  0  0  0
 25 84  1  0  0  0  0
 26 28  2  0  0  0  0
 26 83  1  0  0  0  0
 27 85  1  0  0  0  0
 28 86  1  0  0  0  0
 29 67  2  0  0  0  0
 30 59  1  0  0  0  0
 30 68  2  0  0  0  0
 31 50  1  0  0  0  0
 31 68  1  0  0  0  0
 32 69  1  0  0  0  0
 32 72  1  0  0  0  0
 33 73  1  0  0  0  0
 33 78  2  0  0  0  0
 34 48  1  0  0  0  0
 34 74  1  0  0  0  0
 34 79  2  0  0  0  0
 35 64  1  0  0  0  0
 35 70  1  0  0  0  0
 35 80  2  0  0  0  0
 36 65  1  0  0  0  0
 36 75  1  0  0  0  0
 36 81  2  0  0  0  0
 37 71  1  0  0  0  0
 37 76  1  0  0  0  0
 37 82  2  0  0  0  0
 38 41  1  0  0  0  0
 39 48  1  0  0  0  0
 40 70  1  0  0  0  0
 41 43  1  0  0  0  0
 42 44  1  0  0  0  0
 42 45  1  0  0  0  0
 43 47  1  0  0  0  0
 44 49  1  0  0  0  0
 45 71  1  0  0  0  0
 46 49  1  0  0  0  0
 46 71  1  0  0  0  0
 47 74  1  0  0  0  0
 48 70  1  0  0  0  0
 49 69  1  0  0  0  0
 51 60  1  0  0  0  0
 52 65  1  0  0  0  0
 53 66  1  0  0  0  0
 54 66  1  0  0  0  0
 55 66  1  0  0  0  0
 56 77  1  0  0  0  0
 57 61  1  0  0  0  0
 58 60  1  0  0  0  0
 59 62  1  0  0  0  0
 61 63  1  0  0  0  0
 62 76  1  0  0  0  0
 63 84  1  0  0  0  0
 64 66  1  0  0  0  0
 64 75  1  0  0  0  0
 65 77  1  0  0  0  0
 67 69  1  0  0  0  0
M  CHG  1  77   1
M  ISO  4  37 100  63 101  76 100  84 101
M  END
> <Batch ID>
0091

> <Smiles>
CCCc1c(CC[101CH2:1][101O:1]c2ccc3c(c2)CN(C(=O)C(NC(=O)C(C)NC)C(C)(C)C)C(C(=O)NC2CCCc4ccccc42)C3)cc(CC[100NH:0][100C:0](=O)N2CCCC(n3nc(-c4ccc(Oc5ccc(F)cc5F)cc4)c(C(N)=O)c3N)C2)nc1C

> <Shape>
0.237

> <Color>
0.071

> <Negative vol penalty>
0.000

$$$$

  -OEChem-04052319113D

 83 91  0     1  0  0  0  0  0999 V2000
  -27.5949  -12.4645   23.6476 C   0  0  0  0  0  0  0  0  0  0  0  0
  -28.1734  -13.5186   22.9478 C   0  0  0  0  0  0  0  0  0  0  0  0
  -22.4467  -27.9423   20.8445 C   0  0  0  0  0  0  0  0  0  0  0  0
  -23.5534  -26.9259   22.7364 C   0  0  0  0  0  0  0  0  0  0  0  0
  -26.4031  -11.8998   23.1953 C   0  0  0  0  0  0  0  0  0  0  0  0
  -27.5609  -14.0078   21.7946 C   0  0  0  0  0  0  0  0  0  0  0  0
  -27.4343  -19.0685   21.6594 C   0  0  0  0  0  0  0  0  0  0  0  0
  -34.2459  -23.1761   19.0667 C   0  0  0  0  0  0  0  0  0  0  0  0
  -34.0676  -21.8366   18.7207 C   0  0  0  0  0  0  0  0  0  0  0  0
  -21.2094  -27.7202   21.4490 C   0  0  0  0  0  0  0  0  0  0  0  0
  -22.3162  -26.7038   23.3409 C   0  0  0  0  0  0  0  0  0  0  0  0
  -28.6116  -19.7256   21.3043 C   0  0  0  0  0  0  0  0  0  0  0  0
  -17.7806  -27.7464   22.6565 C   0  0  0  0  0  0  0  0  0  0  0  0
  -16.8551  -28.7898   22.6420 C   0  0  0  0  0  0  0  0  0  0  0  0
  -27.7676  -20.0133   19.0628 C   0  0  0  0  0  0  0  0  0  0  0  0
  -32.2657  -23.0829   20.4477 C   0  0  0  0  0  0  0  0  0  0  0  0
  -18.4061  -30.1825   23.8634 C   0  0  0  0  0  0  0  0  0  0  0  0
  -23.6187  -27.5451   21.4882 C   0  0  0  0  0  0  0  0  0  0  0  0
  -25.7163  -28.9110   20.9960 C   0  0  0  0  0  0  0  0  0  0  0  0
  -25.7706  -12.3886   22.0413 C   0  0  0  0  0  0  0  0  0  0  0  0
  -26.4177  -18.8689   20.7144 C   0  0  0  0  0  0  0  0  0  0  0  0
  -26.3602  -13.4481   21.3256 C   0  0  0  0  0  0  0  0  0  0  0  0
  -26.5774  -19.3556   19.4092 C   0  0  0  0  0  0  0  0  0  0  0  0
  -33.3449  -23.7992   19.9303 C   0  0  0  0  0  0  0  0  0  0  0  0
  -32.9884  -21.1203   19.2381 C   0  0  0  0  0  0  0  0  0  0  0  0
  -32.0874  -21.7435   20.1016 C   0  0  0  0  0  0  0  0  0  0  0  0
  -21.1441  -27.1010   22.6972 C   0  0  0  0  0  0  0  0  0  0  0  0
  -28.7796  -20.1955   20.0050 C   0  0  0  0  0  0  0  0  0  0  0  0
  -19.0189  -27.9209   23.2746 C   0  0  0  0  0  0  0  0  0  0  0  0
  -17.1679  -30.0079   23.2454 C   0  0  0  0  0  0  0  0  0  0  0  0
  -19.3316  -29.1390   23.8780 C   0  0  0  0  0  0  0  0  0  0  0  0
  -24.8971  -27.7738   20.8640 C   0  0  0  0  0  0  0  0  0  0  0  0
  -26.8101  -28.6392   20.2111 C   0  0  0  0  0  0  0  0  0  0  0  0
  -25.5072  -30.1062   21.7599 C   0  0  0  0  0  0  0  0  0  0  0  0
  -25.0232  -16.3204   19.4243 C   0  0  0  0  0  0  0  0  0  0  0  0
  -23.0832  -18.5463   18.0810 C   0  0  0  0  0  0  0  0  0  0  0  0
  -22.6463  -21.7752   17.0660 C   0  0  0  0  0  0  0  0  0  0  0  0
  -30.7827  -25.1412   18.4425 C   0  0  0  0  0  0  0  0  0  0  0  0
  -24.5083  -11.7148   21.5646 C   0  0  0  0  0  0  0  0  0  0  0  0
  -25.1428  -18.1818   21.1205 C   0  0  0  0  0  0  0  0  0  0  0  0
  -25.5078  -19.1848   18.3627 C   0  0  0  0  0  0  0  0  0  0  0  0
  -23.7268  -12.5378   20.5437 C   0  0  0  0  0  0  0  0  0  0  0  0
  -27.6090  -24.9540   16.8395 C   0  0  0  0  0  0  0  0  0  0  0  0
  -24.6629  -13.0878   19.4722 C   0  0  0  0  0  0  0  0  0  0  0  0
  -26.6875  -25.7591   17.7575 C   0  0  0  0  0  0  0  0  0  0  0  0
  -28.6521  -24.1705   17.6333 C   0  0  0  0  0  0  0  0  0  0  0  0
  -28.5284  -25.7839   19.4922 C   0  0  0  0  0  0  0  0  0  0  0  0
  -25.7131  -14.0227   20.0842 C   0  0  1  0  0  0  0  0  0  0  0  0
  -24.3864  -17.5798   19.9403 C   0  0  1  0  0  0  0  0  0  0  0  0
  -27.4950  -26.6348   18.7344 C   0  0  2  0  0  0  0  0  0  0  0  0
  -32.1005  -18.0782   17.0331 C   0  0  0  0  0  0  0  0  0  0  0  0
  -20.9690  -23.2855   15.9693 C   0  0  0  0  0  0  0  0  0  0  0  0
  -23.7285  -17.2937   15.3746 C   0  0  0  0  0  0  0  0  0  0  0  0
  -22.8317  -19.3604   14.2825 C   0  0  0  0  0  0  0  0  0  0  0  0
  -21.3319  -17.9394   15.6804 C   0  0  0  0  0  0  0  0  0  0  0  0
  -22.5107  -23.5393   19.4384 C   0  0  0  0  0  0  0  0  0  0  0  0
  -33.5355  -25.2314   20.2997 C   0  0  0  0  0  0  0  0  0  0  0  0
  -32.8174  -19.6877   18.8524 C   0  0  0  0  0  0  0  0  0  0  0  0
  -30.9190  -20.9933   20.6703 C   0  0  0  0  0  0  0  0  0  1  0  0
  -32.2422  -19.5373   17.4367 C   0  0  0  0  0  0  0  0  0  0  0  0
  -32.8296  -26.2093   19.3526 C   0  0  0  0  0  0  0  0  0  0  0  0
  -23.1032  -19.3509   16.8038 C   0  0  1  0  0  0  0  0  0  0  0  0
  -21.5092  -22.7559   17.2886 C   0  0  2  0  0  0  0  0  0  0  0  0
  -22.7700  -18.4878   15.5543 C   0  0  0  0  0  0  0  0  0  0  0  0
  -25.4253  -26.8485   20.0585 N   0  0  0  0  0  0  0  0  0  0  0  0
  -26.5881  -27.4040   19.6772 N   0  0  0  0  0  0  0  0  0  0  0  0
  -24.2820  -18.5008   18.8068 N   0  0  0  0  0  0  0  0  0  0  0  0
  -29.3838  -25.0591   18.5393 N   0  0  0  0  0  0  0  0  0  0  0  0
  -27.9305  -29.3388   19.9324 N   0  0  0  0  0  0  0  0  0  0  0  0
  -24.3291  -30.2220   22.5103 N   0  0  0  0  0  0  0  0  0  0  0  0
  -25.1326  -15.3176   20.3686 N   0  0  0  0  0  0  0  0  0  0  0  0
  -22.1952  -20.4732   17.0142 N   0  0  0  0  0  0  0  0  0  0  0  0
  -31.3973  -26.0117   19.3341 N   0  0  0  0  0  0  0  0  0  0  0  0
  -21.9752  -23.9130   18.1040 N   0  3  0  0  0  0  0  0  0  0  0  0
  -26.3327  -31.0507   21.7635 O   0  0  0  0  0  0  0  0  0  0  0  0
  -25.3869  -16.2624   18.2555 O   0  0  0  0  0  0  0  0  0  0  0  0
  -22.0404  -17.9848   18.4257 O   0  0  0  0  0  0  0  0  0  0  0  0
  -23.8172  -22.1290   16.9461 O   0  0  0  0  0  0  0  0  0  0  0  0
  -31.4350  -24.4911   17.6186 O   0  0  0  0  0  0  0  0  0  0  0  0
  -19.9370  -26.8843   23.2875 O   0  0  0  0  0  0  0  0  0  0  0  0
  -29.9279  -20.8367   19.6556 O   0  0  0  0  0  0  0  0  0  1  0  0
  -16.2796  -31.0104   23.2300 F   0  0  0  0  0  0  0  0  0  0  0  0
  -20.5201  -29.3131   24.4722 F   0  0  0  0  0  0  0  0  0  0  0  0
  1  2  1  0  0  0  0
  1  5  2  0  0  0  0
  2  6  2  0  0  0  0
  3 10  2  0  0  0  0
  3 18  1  0  0  0  0
  4 11  1  0  0  0  0
  4 18  2  0  0  0  0
  5 20  1  0  0  0  0
  6 22  1  0  0  0  0
  7 12  2  0  0  0  0
  7 21  1  0  0  0  0
  8  9  2  0  0  0  0
  8 24  1  0  0  0  0
  9 25  1  0  0  0  0
 10 27  1  0  0  0  0
 11 27  2  0  0  0  0
 12 28  1  0  0  0  0
 13 14  2  0  0  0  0
 13 29  1  0  0  0  0
 14 30  1  0  0  0  0
 15 23  1  0  0  0  0
 15 28  2  0  0  0  0
 16 24  2  0  0  0  0
 16 26  1  0  0  0  0
 17 30  2  0  0  0  0
 17 31  1  0  0  0  0
 18 32  1  0  0  0  0
 19 32  1  0  0  0  0
 19 33  2  0  0  0  0
 19 34  1  0  0  0  0
 20 22  2  0  0  0  0
 20 39  1  0  0  0  0
 21 23  2  0  0  0  0
 21 40  1  0  0  0  0
 22 48  1  0  0  0  0
 23 41  1  0  0  0  0
 24 57  1  0  0  0  0
 25 26  2  0  0  0  0
 25 58  1  0  0  0  0
 26 59  1  0  0  0  0
 27 80  1  0  0  0  0
 28 81  1  0  0  0  0
 29 31  2  0  0  0  0
 29 80  1  0  0  0  0
 30 82  1  0  0  0  0
 31 83  1  0  0  0  0
 32 65  2  0  0  0  0
 33 66  1  0  0  0  0
 33 69  1  0  0  0  0
 34 70  1  0  0  0  0
 34 75  2  0  0  0  0
 35 49  1  0  0  0  0
 35 71  1  0  0  0  0
 35 76  2  0  0  0  0
 36 62  1  0  0  0  0
 36 67  1  0  0  0  0
 36 77  2  0  0  0  0
 37 63  1  0  0  0  0
 37 72  1  0  0  0  0
 37 78  2  0  0  0  0
 38 68  1  0  0  0  0
 38 73  1  0  0  0  0
 38 79  2  0  0  0  0
 39 42  1  0  0  0  0
 40 49  1  0  0  0  0
 41 67  1  0  0  0  0
 42 44  1  0  0  0  0
 43 45  1  0  0  0  0
 43 46  1  0  0  0  0
 44 48  1  0  0  0  0
 45 50  1  0  0  0  0
 46 68  1  0  0  0  0
 47 50  1  0  0  0  0
 47 68  1  0  0  0  0
 48 71  1  0  0  0  0
 49 67  1  0  0  0  0
 50 66  1  0  0  0  0
 51 60  1  0  0  0  0
 52 63  1  0  0  0  0
 53 64  1  0  0  0  0
 54 64  1  0  0  0  0
 55 64  1  0  0  0  0
 56 74  1  0  0  0  0
 57 61  1  0  0  0  0
 58 60  1  0  0  0  0
 59 81  1  0  0  0  0
 61 73  1  0  0  0  0
 62 64  1  0  0  0  0
 62 72  1  0  0  0  0
 63 74  1  0  0  0  0
 65 66  1  0  0  0  0
M  CHG  1  74   1
M  ISO  4  38 100  59 101  73 100  81 101
M  END
> <Batch ID>
0091

> <Smiles>
CCCc1ccc(CC[100NH:0][100C:0](=O)N2CCCC(n3nc(-c4ccc(Oc5ccc(F)cc5F)cc4)c(C(N)=O)c3N)C2)cc1[101CH2:1][101O:1]c1ccc2c(c1)CN(C(=O)C(NC(=O)C(C)NC)C(C)(C)C)C(C(=O)NC1CCCc3ccccc31)C2

> <Shape>
0.215

> <Color>
0.078

> <Negative vol penalty>
0.000

$$$$

  -OEChem-04052319113D

 88 96  0     1  0  0  0  0  0999 V2000
  -30.8448  -24.6119   16.5963 C   0  0  0  0  0  0  0  0  0  0  0  0
  -30.3240  -24.2176   17.8246 C   0  0  0  0  0  0  0  0  0  0  0  0
  -23.9924  -12.4967   19.2699 C   0  0  0  0  0  0  0  0  0  0  0  0
  -25.4807  -12.2117   21.1516 C   0  0  0  0  0  0  0  0  0  0  0  0
  -30.6941  -25.9299   16.1673 C   0  0  0  0  0  0  0  0  0  0  0  0
  -29.6531  -25.1413   18.6251 C   0  0  0  0  0  0  0  0  0  0  0  0
  -25.3649  -23.2756   20.5681 C   0  0  0  0  0  0  0  0  0  0  0  0
  -24.1685  -11.1561   18.9275 C   0  0  0  0  0  0  0  0  0  0  0  0
  -25.6568  -10.8710   20.8092 C   0  0  0  0  0  0  0  0  0  0  0  0
  -25.4811  -22.4213   21.6638 C   0  0  0  0  0  0  0  0  0  0  0  0
  -23.9535   -7.9716   21.1451 C   0  0  0  0  0  0  0  0  0  0  0  0
  -23.8931   -7.0289   22.1713 C   0  0  0  0  0  0  0  0  0  0  0  0
  -24.9202  -24.2462   23.1384 C   0  0  0  0  0  0  0  0  0  0  0  0
  -26.5576  -21.3452   27.0462 C   0  0  0  0  0  0  0  0  0  0  0  0
  -26.1537   -6.3389   21.6705 C   0  0  0  0  0  0  0  0  0  0  0  0
  -24.6485  -13.0245   20.3820 C   0  0  0  0  0  0  0  0  0  0  0  0
  -23.4878  -14.9469   21.5923 C   0  0  0  0  0  0  0  0  0  0  0  0
  -30.0125  -26.8680   16.9587 C   0  0  0  0  0  0  0  0  0  0  0  0
  -25.0356  -24.6264   20.7506 C   0  0  0  0  0  0  0  0  0  0  0  0
  -29.4943  -26.4735   18.2069 C   0  0  0  0  0  0  0  0  0  0  0  0
  -24.7979  -25.1149   22.0432 C   0  0  0  0  0  0  0  0  0  0  0  0
  -27.5360  -21.8969   27.8657 C   0  0  0  0  0  0  0  0  0  0  0  0
  -26.9294  -20.5587   25.9616 C   0  0  0  0  0  0  0  0  0  0  0  0
  -25.0007  -10.3432   19.6972 C   0  0  0  0  0  0  0  0  0  0  0  0
  -25.2616  -22.9072   22.9494 C   0  0  0  0  0  0  0  0  0  0  0  0
  -25.1140   -8.0979   20.3815 C   0  0  0  0  0  0  0  0  0  0  0  0
  -24.9932   -6.2125   22.4341 C   0  0  0  0  0  0  0  0  0  0  0  0
  -26.2140   -7.2816   20.6442 C   0  0  0  0  0  0  0  0  0  0  0  0
  -24.4674  -14.4095   20.7359 C   0  0  0  0  0  0  0  0  0  0  0  0
  -28.8617  -21.6341   27.5602 C   0  0  0  0  0  0  0  0  0  0  0  0
  -28.2822  -20.3560   25.7412 C   0  0  0  0  0  0  0  0  0  0  0  0
  -23.7403  -16.2970   21.5982 C   0  0  0  0  0  0  0  0  0  0  0  0
  -22.4432  -14.2850   22.3177 C   0  0  0  0  0  0  0  0  0  0  0  0
  -26.4837  -27.3901   20.1432 C   0  0  0  0  0  0  0  0  0  0  0  0
  -23.6489  -28.6401   21.1044 C   0  0  0  0  0  0  0  0  0  0  0  0
  -20.7765  -28.2581   22.9073 C   0  0  0  0  0  0  0  0  0  0  0  0
  -28.6740  -19.5270   20.5606 C   0  0  0  0  0  0  0  0  0  0  0  0
  -29.9159  -28.2929   16.4741 C   0  0  0  0  0  0  0  0  0  0  0  0
  -24.8879  -25.5286   19.5562 C   0  0  0  0  0  0  0  0  0  0  0  0
  -24.4220  -26.5521   22.2912 C   0  0  0  0  0  0  0  0  0  0  0  0
  -28.8655  -29.1178   17.2134 C   0  0  0  0  0  0  0  0  0  0  0  0
  -25.5540  -19.7791   18.8639 C   0  0  0  0  0  0  0  0  0  0  0  0
  -28.9844  -28.9072   18.7195 C   0  0  0  0  0  0  0  0  0  0  0  0
  -24.8334  -18.4800   19.2285 C   0  0  0  0  0  0  0  0  0  0  0  0
  -27.0550  -19.5611   18.6860 C   0  0  0  0  0  0  0  0  0  0  0  0
  -27.0049  -17.6103   20.1912 C   0  0  0  0  0  0  0  0  0  0  0  0
  -28.7385  -27.4403   19.0926 C   0  0  1  0  0  0  0  0  0  0  0  0
  -25.0516  -27.0060   19.8995 C   0  0  1  0  0  0  0  0  0  0  0  0
  -25.4969  -17.7905   20.4358 C   0  0  2  0  0  0  0  0  0  0  0  0
  -29.9560  -22.2007   28.4043 C   0  0  0  0  0  0  0  0  0  0  0  0
  -18.6675  -29.4661   23.5319 C   0  0  0  0  0  0  0  0  0  0  0  0
  -27.1635  -26.6229   29.5321 C   0  0  0  0  0  0  0  0  0  0  0  0
  -25.4592  -24.9638   30.3088 C   0  0  0  0  0  0  0  0  0  0  0  0
  -25.2171  -30.3472   23.0885 C   0  0  0  0  0  0  0  0  0  0  0  0
  -23.0693  -30.7943   24.2947 C   0  0  0  0  0  0  0  0  0  0  0  0
  -23.3497  -31.5426   21.9317 C   0  0  0  0  0  0  0  0  0  0  0  0
  -19.0803  -26.1994   21.6254 C   0  0  0  0  0  0  0  0  0  0  0  0
  -27.1442  -22.7403   29.0294 C   0  0  0  0  0  0  0  0  0  0  0  0
  -25.8722  -19.9571   25.0679 C   0  0  0  0  0  0  0  0  0  0  0  0
  -28.7391  -19.5187   24.5916 C   0  0  0  0  0  0  0  0  0  0  0  0
  -27.3454  -24.2421   28.7499 C   0  0  0  0  0  0  0  0  0  0  0  0
  -29.7171  -20.2292   23.6367 C   0  0  0  0  0  0  0  0  0  0  0  0
  -30.2242  -19.3559   22.4911 C   0  0  0  0  0  0  0  0  0  0  0  0
  -25.7219  -20.7173   23.7546 C   0  0  0  0  0  0  0  0  0  1  0  0
  -23.0676  -29.0793   22.4266 C   0  0  1  0  0  0  0  0  0  0  0  0
  -19.3223  -28.5071   22.5499 C   0  0  2  0  0  0  0  0  0  0  0  0
  -26.9233  -25.1597   29.9124 C   0  0  0  0  0  0  0  0  0  0  0  0
  -23.6849  -30.4142   22.9312 C   0  0  0  0  0  0  0  0  0  0  0  0
  -25.2813  -15.3420   20.2340 N   0  0  0  0  0  0  0  0  0  0  0  0
  -29.2614  -20.8751   26.5153 N   0  0  0  0  0  0  0  0  0  0  0  0
  -24.8137  -16.4791   20.7766 N   0  0  0  0  0  0  0  0  0  0  0  0
  -24.2961  -27.3964   21.0916 N   0  0  0  0  0  0  0  0  0  0  0  0
  -27.6233  -18.9051   19.8661 N   0  0  0  0  0  0  0  0  0  0  0  0
  -23.1466  -17.3343   22.2258 N   0  0  0  0  0  0  0  0  0  0  0  0
  -22.3255  -12.8935   22.1991 N   0  0  0  0  0  0  0  0  0  0  0  0
  -27.3221  -27.1442   19.0726 N   0  0  0  0  0  0  0  0  0  0  0  0
  -21.6210  -29.1219   22.2425 N   0  0  0  0  0  0  0  0  0  0  0  0
  -29.1502  -18.8410   21.6711 N   0  0  0  0  0  0  0  0  0  0  0  0
  -18.5592  -27.2271   22.5632 N   0  3  0  0  0  0  0  0  0  0  0  0
  -21.6277  -14.9110   23.0366 O   0  0  0  0  0  0  0  0  0  0  0  0
  -26.8040  -27.8749   21.2221 O   0  0  0  0  0  0  0  0  0  0  0  0
  -23.5269  -29.3702   20.1177 O   0  0  0  0  0  0  0  0  0  0  0  0
  -21.1279  -27.3871   23.7000 O   0  0  0  0  0  0  0  0  0  0  0  0
  -29.1487  -20.6157   20.2195 O   0  0  0  0  0  0  0  0  0  0  0  0
  -25.1727   -9.0349   19.3635 O   0  0  0  0  0  0  0  0  0  0  0  0
  -25.3750  -22.0757   24.0207 O   0  0  0  0  0  0  0  0  0  1  0  0
  -24.9355   -5.3083   23.4206 F   0  0  0  0  0  0  0  0  0  0  0  0
  -27.3321   -7.3991   19.9148 F   0  0  0  0  0  0  0  0  0  0  0  0
  1  2  1  0  0  0  0
  1  5  2  0  0  0  0
  2  6  2  0  0  0  0
  3  8  2  0  0  0  0
  3 16  1  0  0  0  0
  4  9  1  0  0  0  0
  4 16  2  0  0  0  0
  5 18  1  0  0  0  0
  6 20  1  0  0  0  0
  7 10  2  0  0  0  0
  7 19  1  0  0  0  0
  8 24  1  0  0  0  0
  9 24  2  0  0  0  0
 10 25  1  0  0  0  0
 11 12  2  0  0  0  0
 11 26  1  0  0  0  0
 12 27  1  0  0  0  0
 13 21  1  0  0  0  0
 13 25  2  0  0  0  0
 14 22  2  0  0  0  0
 14 23  1  0  0  0  0
 15 27  2  0  0  0  0
 15 28  1  0  0  0  0
 16 29  1  0  0  0  0
 17 29  1  0  0  0  0
 17 32  2  0  0  0  0
 17 33  1  0  0  0  0
 18 20  2  0  0  0  0
 18 38  1  0  0  0  0
 19 21  2  0  0  0  0
 19 39  1  0  0  0  0
 20 47  1  0  0  0  0
 21 40  1  0  0  0  0
 22 30  1  0  0  0  0
 22 58  1  0  0  0  0
 23 31  2  0  0  0  0
 23 59  1  0  0  0  0
 24 85  1  0  0  0  0
 25 86  1  0  0  0  0
 26 28  2  0  0  0  0
 26 85  1  0  0  0  0
 27 87  1  0  0  0  0
 28 88  1  0  0  0  0
 29 69  2  0  0  0  0
 30 50  1  0  0  0  0
 30 70  2  0  0  0  0
 31 60  1  0  0  0  0
 31 70  1  0  0  0  0
 32 71  1  0  0  0  0
 32 74  1  0  0  0  0
 33 75  1  0  0  0  0
 33 80  2  0  0  0  0
 34 48  1  0  0  0  0
 34 76  1  0  0  0  0
 34 81  2  0  0  0  0
 35 65  1  0  0  0  0
 35 72  1  0  0  0  0
 35 82  2  0  0  0  0
 36 66  1  0  0  0  0
 36 77  1  0  0  0  0
 36 83  2  0  0  0  0
 37 73  1  0  0  0  0
 37 78  1  0  0  0  0
 37 84  2  0  0  0  0
 38 41  1  0  0  0  0
 39 48  1  0  0  0  0
 40 72  1  0  0  0  0
 41 43  1  0  0  0  0
 42 44  1  0  0  0  0
 42 45  1  0  0  0  0
 43 47  1  0  0  0  0
 44 49  1  0  0  0  0
 45 73  1  0  0  0  0
 46 49  1  0  0  0  0
 46 73  1  0  0  0  0
 47 76  1  0  0  0  0
 48 72  1  0  0  0  0
 49 71  1  0  0  0  0
 51 66  1  0  0  0  0
 52 67  1  0  0  0  0
 53 67  1  0  0  0  0
 54 68  1  0  0  0  0
 55 68  1  0  0  0  0
 56 68  1  0  0  0  0
 57 79  1  0  0  0  0
 58 61  1  0  0  0  0
 59 64  1  0  0  0  0
 60 62  1  0  0  0  0
 61 67  1  0  0  0  0
 62 63  1  0  0  0  0
 63 78  1  0  0  0  0
 64 86  1  0  0  0  0
 65 68  1  0  0  0  0
 65 77  1  0  0  0  0
 66 79  1  0  0  0  0
 69 71  1  0  0  0  0
M  CHG  1  79   1
M  ISO  4  37 100  64 101  78 100  86 101
M  END
> <Batch ID>
0091

> <Smiles>
CNC(C)C(=O)NC(C(=O)N1Cc2cc([101O:1][101CH2:1]Cc3cc(CCC(C)C)c(C)nc3CCC[100NH:0][100C:0](=O)N3CCCC(n4nc(-c5ccc(Oc6ccc(F)cc6F)cc5)c(C(N)=O)c4N)C3)ccc2CC1C(=O)NC1CCCc2ccccc21)C(C)(C)C

> <Shape>
0.208

> <Color>
0.073

> <Negative vol penalty>
0.000

$$$$

  -OEChem-04052319113D

 88 96  0     1  0  0  0  0  0999 V2000
  -28.8387  -14.6096   17.3238 C   0  0  0  0  0  0  0  0  0  0  0  0
  -28.0435  -15.7207   17.0669 C   0  0  0  0  0  0  0  0  0  0  0  0
  -20.0550  -28.4965   23.0496 C   0  0  0  0  0  0  0  0  0  0  0  0
  -24.6866  -14.4484   23.4423 C   0  0  0  0  0  0  0  0  0  0  0  0
  -22.6211  -14.1211   22.2325 C   0  0  0  0  0  0  0  0  0  0  0  0
  -29.7498  -14.6378   18.3775 C   0  0  0  0  0  0  0  0  0  0  0  0
  -28.1675  -16.8647   17.8562 C   0  0  0  0  0  0  0  0  0  0  0  0
  -25.0016  -22.0706   17.8111 C   0  0  0  0  0  0  0  0  0  0  0  0
  -20.6597  -27.3815   22.4694 C   0  0  0  0  0  0  0  0  0  0  0  0
  -18.6678  -28.5449   23.1876 C   0  0  0  0  0  0  0  0  0  0  0  0
  -24.7580  -13.0779   23.6912 C   0  0  0  0  0  0  0  0  0  0  0  0
  -22.6925  -12.7505   22.4814 C   0  0  0  0  0  0  0  0  0  0  0  0
  -23.8760  -22.5961   18.4442 C   0  0  0  0  0  0  0  0  0  0  0  0
  -24.3582  -10.0804   21.2499 C   0  0  0  0  0  0  0  0  0  0  0  0
  -24.0962   -9.2158   20.1873 C   0  0  0  0  0  0  0  0  0  0  0  0
  -25.3000  -23.6866   20.0574 C   0  0  0  0  0  0  0  0  0  0  0  0
  -22.2568   -8.2538   21.4235 C   0  0  0  0  0  0  0  0  0  0  0  0
  -23.6181  -14.9701   22.7130 C   0  0  0  0  0  0  0  0  0  0  0  0
  -24.0788  -17.0792   21.3539 C   0  0  0  0  0  0  0  0  0  0  0  0
  -29.8755  -15.7786   19.1874 C   0  0  0  0  0  0  0  0  0  0  0  0
  -26.2864  -22.3408   18.3036 C   0  0  0  0  0  0  0  0  0  0  0  0
  -29.0982  -16.9213   18.9094 C   0  0  0  0  0  0  0  0  0  0  0  0
  -26.4403  -23.1655   19.4272 C   0  0  0  0  0  0  0  0  0  0  0  0
  -19.8772  -26.3148   22.0271 C   0  0  0  0  0  0  0  0  0  0  0  0
  -17.8853  -27.4782   22.7454 C   0  0  0  0  0  0  0  0  0  0  0  0
  -18.4900  -26.3632   22.1651 C   0  0  0  0  0  0  0  0  0  0  0  0
  -23.7610  -12.2289   23.2108 C   0  0  0  0  0  0  0  0  0  0  0  0
  -24.0250  -23.4019   19.5692 C   0  0  0  0  0  0  0  0  0  0  0  0
  -23.5696  -10.0318   22.3995 C   0  0  0  0  0  0  0  0  0  0  0  0
  -23.0455   -8.3025   20.2740 C   0  0  0  0  0  0  0  0  0  0  0  0
  -22.5188   -9.1185   22.4862 C   0  0  0  0  0  0  0  0  0  0  0  0
  -23.5434  -16.3859   22.4560 C   0  0  0  0  0  0  0  0  0  0  0  0
  -23.7397  -18.3915   21.5762 C   0  0  0  0  0  0  0  0  0  0  0  0
  -24.8166  -16.5815   20.2298 C   0  0  0  0  0  0  0  0  0  0  0  0
  -28.6582  -20.5756   19.4709 C   0  0  0  0  0  0  0  0  0  0  0  0
  -19.2849  -20.7877   24.6888 C   0  0  0  0  0  0  0  0  0  0  0  0
  -30.2580  -23.3972   19.4298 C   0  0  0  0  0  0  0  0  0  0  0  0
  -30.1195  -26.8070   19.4617 C   0  0  0  0  0  0  0  0  0  0  0  0
  -30.8831  -15.7576   20.3097 C   0  0  0  0  0  0  0  0  0  0  0  0
  -27.4917  -21.7882   17.5935 C   0  0  0  0  0  0  0  0  0  0  0  0
  -27.7988  -23.5022   19.9836 C   0  0  0  0  0  0  0  0  0  0  0  0
  -30.6297  -16.8377   21.3563 C   0  0  0  0  0  0  0  0  0  0  0  0
  -22.8302  -21.4871   25.0995 C   0  0  0  0  0  0  0  0  0  0  0  0
  -30.4340  -18.1846   20.6764 C   0  0  0  0  0  0  0  0  0  0  0  0
  -23.4620  -20.2937   24.3842 C   0  0  0  0  0  0  0  0  0  0  0  0
  -21.5419  -21.0934   25.8175 C   0  0  0  0  0  0  0  0  0  0  0  0
  -21.1621  -19.2477   24.2132 C   0  0  0  0  0  0  0  0  0  0  0  0
  -29.1940  -18.1656   19.7736 C   0  0  1  0  0  0  0  0  0  0  0  0
  -28.7264  -21.7081   18.4858 C   0  0  1  0  0  0  0  0  0  0  0  0
  -22.4478  -19.6094   23.4510 C   0  0  2  0  0  0  0  0  0  0  0  0
  -15.7862  -28.7216   22.1116 C   0  0  0  0  0  0  0  0  0  0  0  0
  -15.9748  -27.6416   24.3817 C   0  0  0  0  0  0  0  0  0  0  0  0
  -18.2570  -21.4716   26.8100 C   0  0  0  0  0  0  0  0  0  0  0  0
  -31.5927  -28.8384   19.4587 C   0  0  0  0  0  0  0  0  0  0  0  0
  -30.9007  -22.9324   22.3761 C   0  0  0  0  0  0  0  0  0  0  0  0
  -31.5163  -25.3529   22.5517 C   0  0  0  0  0  0  0  0  0  0  0  0
  -32.7962  -23.8496   21.0270 C   0  0  0  0  0  0  0  0  0  0  0  0
  -28.9877  -27.7668   16.9011 C   0  0  0  0  0  0  0  0  0  0  0  0
  -20.5559  -25.1213   21.4038 C   0  0  0  0  0  0  0  0  0  0  0  0
  -17.6510  -25.2195   21.6908 C   0  0  0  0  0  0  0  0  0  0  0  0
  -21.0257  -25.3605   19.9673 C   0  0  0  0  0  0  0  0  0  0  0  0
  -17.1252  -24.3126   22.8160 C   0  0  0  0  0  0  0  0  0  0  0  0
  -18.2473  -23.6158   23.5929 C   0  0  0  0  0  0  0  0  0  0  0  0
  -17.6793  -22.7064   24.6893 C   0  0  0  0  0  0  0  0  0  0  0  0
  -21.7856  -24.1789   19.3759 C   0  0  0  0  0  0  0  0  0  1  0  0
  -16.4019  -27.5549   22.9051 C   0  0  0  0  0  0  0  0  0  0  0  0
  -18.7788  -21.9751   25.4684 C   0  0  2  0  0  0  0  0  0  0  0  0
  -30.4437  -24.5352   20.4042 C   0  0  1  0  0  0  0  0  0  0  0  0
  -30.8121  -27.8513   18.6049 C   0  0  2  0  0  0  0  0  0  0  0  0
  -31.3884  -24.1598   21.5807 C   0  0  0  0  0  0  0  0  0  0  0  0
  -22.9123  -17.1911   23.3146 N   0  0  0  0  0  0  0  0  0  0  0  0
  -23.0490  -18.4040   22.7522 N   0  0  0  0  0  0  0  0  0  0  0  0
  -28.9463  -22.9329   19.2578 N   0  0  0  0  0  0  0  0  0  0  0  0
  -20.6138  -20.4202   24.9011 N   0  0  0  0  0  0  0  0  0  0  0  0
  -23.9680  -19.5244   20.8785 N   0  0  0  0  0  0  0  0  0  0  0  0
  -25.0776  -15.2064   20.1577 N   0  0  0  0  0  0  0  0  0  0  0  0
  -29.1612  -19.3814   18.9910 N   0  0  0  0  0  0  0  0  0  0  0  0
  -30.8949  -25.6774   19.6167 N   0  0  0  0  0  0  0  0  0  0  0  0
  -29.8110  -28.6114   17.8043 N   0  3  0  0  0  0  0  0  0  0  0  0
  -25.2462  -17.3362   19.3246 O   0  0  0  0  0  0  0  0  0  0  0  0
  -28.1856  -20.7711   20.5845 O   0  0  0  0  0  0  0  0  0  0  0  0
  -18.5213  -20.2072   23.9129 O   0  0  0  0  0  0  0  0  0  0  0  0
  -31.2396  -22.9419   18.8375 O   0  0  0  0  0  0  0  0  0  0  0  0
  -29.0038  -26.9778   19.9482 O   0  0  0  0  0  0  0  0  0  0  0  0
  -23.8305  -10.8914   23.4533 O   0  0  0  0  0  0  0  0  0  0  0  0
  -22.9280  -23.9155   20.1895 O   0  0  0  0  0  0  0  0  0  1  0  0
  -22.7930   -7.4733   19.2528 F   0  0  0  0  0  0  0  0  0  0  0  0
  -21.7570   -9.0679   23.5875 F   0  0  0  0  0  0  0  0  0  0  0  0
  1  2  1  0  0  0  0
  1  6  2  0  0  0  0
  2  7  2  0  0  0  0
  3  9  2  0  0  0  0
  3 10  1  0  0  0  0
  4 11  2  0  0  0  0
  4 18  1  0  0  0  0
  5 12  1  0  0  0  0
  5 18  2  0  0  0  0
  6 20  1  0  0  0  0
  7 22  1  0  0  0  0
  8 13  2  0  0  0  0
  8 21  1  0  0  0  0
  9 24  1  0  0  0  0
 10 25  2  0  0  0  0
 11 27  1  0  0  0  0
 12 27  2  0  0  0  0
 13 28  1  0  0  0  0
 14 15  2  0  0  0  0
 14 29  1  0  0  0  0
 15 30  1  0  0  0  0
 16 23  1  0  0  0  0
 16 28  2  0  0  0  0
 17 30  2  0  0  0  0
 17 31  1  0  0  0  0
 18 32  1  0  0  0  0
 19 32  1  0  0  0  0
 19 33  2  0  0  0  0
 19 34  1  0  0  0  0
 20 22  2  0  0  0  0
 20 39  1  0  0  0  0
 21 23  2  0  0  0  0
 21 40  1  0  0  0  0
 22 48  1  0  0  0  0
 23 41  1  0  0  0  0
 24 26  2  0  0  0  0
 24 59  1  0  0  0  0
 25 26  1  0  0  0  0
 25 66  1  0  0  0  0
 26 60  1  0  0  0  0
 27 85  1  0  0  0  0
 28 86  1  0  0  0  0
 29 31  2  0  0  0  0
 29 85  1  0  0  0  0
 30 87  1  0  0  0  0
 31 88  1  0  0  0  0
 32 71  2  0  0  0  0
 33 72  1  0  0  0  0
 33 75  1  0  0  0  0
 34 76  1  0  0  0  0
 34 80  2  0  0  0  0
 35 49  1  0  0  0  0
 35 77  1  0  0  0  0
 35 81  2  0  0  0  0
 36 67  1  0  0  0  0
 36 74  1  0  0  0  0
 36 82  2  0  0  0  0
 37 68  1  0  0  0  0
 37 73  1  0  0  0  0
 37 83  2  0  0  0  0
 38 69  1  0  0  0  0
 38 78  1  0  0  0  0
 38 84  2  0  0  0  0
 39 42  1  0  0  0  0
 40 49  1  0  0  0  0
 41 73  1  0  0  0  0
 42 44  1  0  0  0  0
 43 45  1  0  0  0  0
 43 46  1  0  0  0  0
 44 48  1  0  0  0  0
 45 50  1  0  0  0  0
 46 74  1  0  0  0  0
 47 50  1  0  0  0  0
 47 74  1  0  0  0  0
 48 77  1  0  0  0  0
 49 73  1  0  0  0  0
 50 72  1  0  0  0  0
 51 66  1  0  0  0  0
 52 66  1  0  0  0  0
 53 67  1  0  0  0  0
 54 69  1  0  0  0  0
 55 70  1  0  0  0  0
 56 70  1  0  0  0  0
 57 70  1  0  0  0  0
 58 79  1  0  0  0  0
 59 61  1  0  0  0  0
 60 62  1  0  0  0  0
 61 65  1  0  0  0  0
 62 63  1  0  0  0  0
 63 64  1  0  0  0  0
 64 67  1  0  0  0  0
 65 86  1  0  0  0  0
 68 70  1  0  0  0  0
 68 78  1  0  0  0  0
 69 79  1  0  0  0  0
 71 72  1  0  0  0  0
M  CHG  1  79   1
M  ISO  4  36 100  65 101  67 100  86 101
M  END
> <Batch ID>
0091

> <Smiles>
CNC(C)C(=O)NC(C(=O)N1Cc2cc([101O:1][101CH2:1]CCc3cccc(C(C)C)c3CCCC[100CH:0](C)[100C:0](=O)N3CCCC(n4nc(-c5ccc(Oc6ccc(F)cc6F)cc5)c(C(N)=O)c4N)C3)ccc2CC1C(=O)NC1CCCc2ccccc21)C(C)(C)C

> <Shape>
0.204

> <Color>
0.068

> <Negative vol penalty>
0.000

$$$$

  -OEChem-04052319113D

 92100  0     1  0  0  0  0  0999 V2000
  -16.2154  -26.2384   25.0357 C   0  0  0  0  0  0  0  0  0  0  0  0
  -16.8340  -25.2632   24.2600 C   0  0  0  0  0  0  0  0  0  0  0  0
  -29.3090  -23.8123   15.4965 C   0  0  0  0  0  0  0  0  0  0  0  0
  -27.4509  -24.9182   16.5742 C   0  0  0  0  0  0  0  0  0  0  0  0
  -16.5625  -27.5791   24.8752 C   0  0  0  0  0  0  0  0  0  0  0  0
  -17.7994  -25.6285   23.3224 C   0  0  0  0  0  0  0  0  0  0  0  0
  -22.7844  -22.4428   21.7390 C   0  0  0  0  0  0  0  0  0  0  0  0
  -28.9175  -24.3495   14.2702 C   0  0  0  0  0  0  0  0  0  0  0  0
  -27.0594  -25.4554   15.3479 C   0  0  0  0  0  0  0  0  0  0  0  0
  -23.0542  -21.5956   20.6651 C   0  0  0  0  0  0  0  0  0  0  0  0
  -25.4169  -24.4140   12.5824 C   0  0  0  0  0  0  0  0  0  0  0  0
  -24.0620  -24.3620   12.2550 C   0  0  0  0  0  0  0  0  0  0  0  0
  -24.0743  -23.4326   19.4801 C   0  0  0  0  0  0  0  0  0  0  0  0
  -25.4316  -16.2455   18.1866 C   0  0  0  0  0  0  0  0  0  0  0  0
  -23.6275  -16.7581   19.6922 C   0  0  0  0  0  0  0  0  0  0  0  0
  -24.0037  -26.7731   12.1132 C   0  0  0  0  0  0  0  0  0  0  0  0
  -28.5757  -24.0966   16.6485 C   0  0  0  0  0  0  0  0  0  0  0  0
  -29.8621  -24.1130   18.8514 C   0  0  0  0  0  0  0  0  0  0  0  0
  -17.5396  -27.9600   23.9420 C   0  0  0  0  0  0  0  0  0  0  0  0
  -23.1483  -23.7960   21.6870 C   0  0  0  0  0  0  0  0  0  0  0  0
  -18.1590  -26.9757   23.1483 C   0  0  0  0  0  0  0  0  0  0  0  0
  -23.8102  -24.2942   20.5557 C   0  0  0  0  0  0  0  0  0  0  0  0
  -24.2176  -16.8747   18.4386 C   0  0  0  0  0  0  0  0  0  0  0  0
  -27.7927  -25.1710   14.1959 C   0  0  0  0  0  0  0  0  0  0  0  0
  -23.6967  -22.0911   19.5343 C   0  0  0  0  0  0  0  0  0  0  0  0
  -26.0652  -25.6456   12.6752 C   0  0  0  0  0  0  0  0  0  0  0  0
  -23.3554  -25.5415   12.0204 C   0  0  0  0  0  0  0  0  0  0  0  0
  -25.3586  -26.8252   12.4406 C   0  0  0  0  0  0  0  0  0  0  0  0
  -28.9793  -23.5415   17.9154 C   0  0  0  0  0  0  0  0  0  0  0  0
  -26.0101  -15.5172   19.2136 C   0  0  0  0  0  0  0  0  0  0  0  0
  -24.2866  -16.0067   20.6517 C   0  0  0  0  0  0  0  0  0  0  0  0
  -29.9129  -23.2007   19.8769 C   0  0  0  0  0  0  0  0  0  0  0  0
  -30.5726  -25.3572   18.7985 C   0  0  0  0  0  0  0  0  0  0  0  0
  -21.5638  -26.5501   21.7776 C   0  0  0  0  0  0  0  0  0  0  0  0
  -24.5491  -27.8172   21.8486 C   0  0  0  0  0  0  0  0  0  0  0  0
  -27.8666  -27.4582   21.1330 C   0  0  0  0  0  0  0  0  0  0  0  0
  -26.0456  -19.1404   21.7245 C   0  0  0  0  0  0  0  0  0  0  0  0
  -17.8476  -29.4265   23.7709 C   0  0  0  0  0  0  0  0  0  0  0  0
  -22.8741  -24.6906   22.8646 C   0  0  0  0  0  0  0  0  0  0  0  0
  -24.2398  -25.7345   20.4585 C   0  0  0  0  0  0  0  0  0  0  0  0
  -19.1493  -29.6918   23.0190 C   0  0  0  0  0  0  0  0  0  0  0  0
  -29.4731  -18.5146   20.7456 C   0  0  0  0  0  0  0  0  0  0  0  0
  -19.2324  -28.8187   21.7710 C   0  0  0  0  0  0  0  0  0  0  0  0
  -29.8142  -19.8019   19.9927 C   0  0  0  0  0  0  0  0  0  0  0  0
  -28.0318  -18.0869   20.4845 C   0  0  0  0  0  0  0  0  0  0  0  0
  -27.3524  -20.4154   20.0485 C   0  0  0  0  0  0  0  0  0  0  0  0
  -19.2287  -27.3298   22.1381 C   0  0  1  0  0  0  0  0  0  0  0  0
  -22.8288  -26.1697   22.4937 C   0  0  1  0  0  0  0  0  0  0  0  0
  -28.7894  -20.9127   20.2891 C   0  0  2  0  0  0  0  0  0  0  0  0
  -30.0551  -28.6782   21.2723 C   0  0  0  0  0  0  0  0  0  0  0  0
  -26.2251  -11.0749   18.8046 C   0  0  0  0  0  0  0  0  0  0  0  0
  -27.0381  -12.3671   20.7869 C   0  0  0  0  0  0  0  0  0  0  0  0
  -23.1917  -12.7698   22.0795 C   0  0  0  0  0  0  0  0  0  0  0  0
  -20.8420  -13.2028   21.3411 C   0  0  0  0  0  0  0  0  0  0  0  0
  -23.7426  -29.5320   19.4571 C   0  0  0  0  0  0  0  0  0  0  0  0
  -26.1706  -29.9953   19.0591 C   0  0  0  0  0  0  0  0  0  0  0  0
  -25.0958  -30.7263   21.1882 C   0  0  0  0  0  0  0  0  0  0  0  0
  -29.0352  -25.3971   22.9064 C   0  0  0  0  0  0  0  0  0  0  0  0
  -23.5443  -17.6812   17.3570 C   0  0  0  0  0  0  0  0  0  0  0  0
  -27.3137  -14.8298   18.9798 C   0  0  0  0  0  0  0  0  0  0  0  0
  -23.9528  -19.1558   17.3436 C   0  0  0  0  0  0  0  0  0  0  0  0
  -27.1228  -13.3953   18.4535 C   0  0  0  0  0  0  0  0  0  0  0  0
  -23.5319  -17.2202   22.7571 C   0  0  0  0  0  0  0  0  0  0  0  0
  -22.2866  -15.1574   21.9826 C   0  0  0  0  0  0  0  0  0  0  0  0
  -24.8312  -17.7402   23.3743 C   0  0  0  0  0  0  0  0  0  0  0  0
  -23.5517  -19.9050   18.6090 C   0  0  0  0  0  0  0  0  0  1  0  0
  -23.6811  -15.8587   22.0075 C   0  0  1  0  0  0  0  0  0  0  0  0
  -25.5443  -28.2676   20.8067 C   0  0  1  0  0  0  0  0  0  0  0  0
  -29.1099  -27.7102   21.9667 C   0  0  2  0  0  0  0  0  0  0  0  0
  -26.3601  -12.4700   19.4199 C   0  0  0  0  0  0  0  0  0  0  0  0
  -22.2729  -13.7494   21.3479 C   0  0  0  0  0  0  0  0  0  0  0  0
  -25.1287  -29.6036   20.1285 C   0  0  0  0  0  0  0  0  0  0  0  0
  -28.5037  -22.3578   18.3112 N   0  0  0  0  0  0  0  0  0  0  0  0
  -25.4669  -15.3811   20.4441 N   0  0  0  0  0  0  0  0  0  0  0  0
  -29.0898  -22.1780   19.5071 N   0  0  0  0  0  0  0  0  0  0  0  0
  -23.9437  -26.5710   21.6333 N   0  0  0  0  0  0  0  0  0  0  0  0
  -27.1060  -19.1827   20.8041 N   0  0  0  0  0  0  0  0  0  0  0  0
  -30.5809  -23.1816   21.0498 N   0  0  0  0  0  0  0  0  0  0  0  0
  -30.4063  -26.1742   17.6719 N   0  0  0  0  0  0  0  0  0  0  0  0
  -20.5325  -26.9243   22.6177 N   0  0  0  0  0  0  0  0  0  0  0  0
  -26.8409  -28.3143   21.4739 N   0  0  0  0  0  0  0  0  0  0  0  0
  -25.8756  -17.9343   22.3932 N   0  0  0  0  0  0  0  0  0  0  0  0
  -29.8391  -26.4331   22.2083 N   0  3  0  0  0  0  0  0  0  0  0  0
  -31.3450  -25.7257   19.7156 O   0  0  0  0  0  0  0  0  0  0  0  0
  -21.5266  -26.5086   20.5534 O   0  0  0  0  0  0  0  0  0  0  0  0
  -24.3226  -28.5410   22.8214 O   0  0  0  0  0  0  0  0  0  0  0  0
  -27.8120  -26.5914   20.2634 O   0  0  0  0  0  0  0  0  0  0  0  0
  -25.3077  -20.1082   21.9388 O   0  0  0  0  0  0  0  0  0  0  0  0
  -27.4105  -25.6956   12.9995 O   0  0  0  0  0  0  0  0  0  0  0  0
  -23.9607  -21.2665   18.4844 O   0  0  0  0  0  0  0  0  0  1  0  0
  -22.0547  -25.4913   11.7045 F   0  0  0  0  0  0  0  0  0  0  0  0
  -25.9762  -28.0112   12.5271 F   0  0  0  0  0  0  0  0  0  0  0  0
  1  2  1  0  0  0  0
  1  5  2  0  0  0  0
  2  6  2  0  0  0  0
  3  8  2  0  0  0  0
  3 17  1  0  0  0  0
  4  9  1  0  0  0  0
  4 17  2  0  0  0  0
  5 19  1  0  0  0  0
  6 21  1  0  0  0  0
  7 10  2  0  0  0  0
  7 20  1  0  0  0  0
  8 24  1  0  0  0  0
  9 24  2  0  0  0  0
 10 25  1  0  0  0  0
 11 12  2  0  0  0  0
 11 26  1  0  0  0  0
 12 27  1  0  0  0  0
 13 22  1  0  0  0  0
 13 25  2  0  0  0  0
 14 23  1  0  0  0  0
 14 30  2  0  0  0  0
 15 23  2  0  0  0  0
 15 31  1  0  0  0  0
 16 27  2  0  0  0  0
 16 28  1  0  0  0  0
 17 29  1  0  0  0  0
 18 29  1  0  0  0  0
 18 32  2  0  0  0  0
 18 33  1  0  0  0  0
 19 21  2  0  0  0  0
 19 38  1  0  0  0  0
 20 22  2  0  0  0  0
 20 39  1  0  0  0  0
 21 47  1  0  0  0  0
 22 40  1  0  0  0  0
 23 59  1  0  0  0  0
 24 89  1  0  0  0  0
 25 90  1  0  0  0  0
 26 28  2  0  0  0  0
 26 89  1  0  0  0  0
 27 91  1  0  0  0  0
 28 92  1  0  0  0  0
 29 73  2  0  0  0  0
 30 60  1  0  0  0  0
 30 74  1  0  0  0  0
 31 67  1  0  0  0  0
 31 74  2  0  0  0  0
 32 75  1  0  0  0  0
 32 78  1  0  0  0  0
 33 79  1  0  0  0  0
 33 84  2  0  0  0  0
 34 48  1  0  0  0  0
 34 80  1  0  0  0  0
 34 85  2  0  0  0  0
 35 68  1  0  0  0  0
 35 76  1  0  0  0  0
 35 86  2  0  0  0  0
 36 69  1  0  0  0  0
 36 81  1  0  0  0  0
 36 87  2  0  0  0  0
 37 77  1  0  0  0  0
 37 82  1  0  0  0  0
 37 88  2  0  0  0  0
 38 41  1  0  0  0  0
 39 48  1  0  0  0  0
 40 76  1  0  0  0  0
 41 43  1  0  0  0  0
 42 44  1  0  0  0  0
 42 45  1  0  0  0  0
 43 47  1  0  0  0  0
 44 49  1  0  0  0  0
 45 77  1  0  0  0  0
 46 49  1  0  0  0  0
 46 77  1  0  0  0  0
 47 80  1  0  0  0  0
 48 76  1  0  0  0  0
 49 75  1  0  0  0  0
 50 69  1  0  0  0  0
 51 70  1  0  0  0  0
 52 70  1  0  0  0  0
 53 71  1  0  0  0  0
 54 71  1  0  0  0  0
 55 72  1  0  0  0  0
 56 72  1  0  0  0  0
 57 72  1  0  0  0  0
 58 83  1  0  0  0  0
 59 61  1  0  0  0  0
 60 62  1  0  0  0  0
 61 66  1  0  0  0  0
 62 70  1  0  0  0  0
 63 65  1  0  0  0  0
 63 67  1  0  0  0  0
 64 67  1  0  0  0  0
 64 71  1  0  0  0  0
 65 82  1  0  0  0  0
 66 90  1  0  0  0  0
 68 72  1  0  0  0  0
 68 81  1  0  0  0  0
 69 83  1  0  0  0  0
 73 75  1  0  0  0  0
M  CHG  1  83   1
M  ISO  4  37 100  66 101  82 100  90 101
M  END
> <Batch ID>
0091

> <Smiles>
CNC(C)C(=O)NC(C(=O)N1Cc2cc([101O:1][101CH2:1]CCc3cc(CCC(C)C)nc(C(CC[100NH:0][100C:0](=O)N4CCCC(n5nc(-c6ccc(Oc7ccc(F)cc7F)cc6)c(C(N)=O)c5N)C4)CC(C)C)c3)ccc2CC1C(=O)NC1CCCc2ccccc21)C(C)(C)C

> <Shape>
0.226

> <Color>
0.061

> <Negative vol penalty>
0.000

$$$$

  -OEChem-04052319113D

 80 87  0     1  0  0  0  0  0999 V2000
  -31.7697  -26.0248   20.3308 C   0  0  0  0  0  0  0  0  0  0  0  0
  -31.0042  -25.2927   21.2313 C   0  0  0  0  0  0  0  0  0  0  0  0
  -25.3521  -29.3008   20.4053 C   0  0  0  0  0  0  0  0  0  0  0  0
  -25.3699  -26.9481   19.8562 C   0  0  0  0  0  0  0  0  0  0  0  0
  -31.6830  -25.7543   18.9668 C   0  0  0  0  0  0  0  0  0  0  0  0
  -30.1607  -24.2817   20.7692 C   0  0  0  0  0  0  0  0  0  0  0  0
  -26.1949  -20.7550   23.7628 C   0  0  0  0  0  0  0  0  0  0  0  0
  -26.7347  -29.2689   20.5871 C   0  0  0  0  0  0  0  0  0  0  0  0
  -26.7525  -26.9161   20.0379 C   0  0  0  0  0  0  0  0  0  0  0  0
  -24.8413  -20.7816   24.0955 C   0  0  0  0  0  0  0  0  0  0  0  0
  -29.5032  -29.2828   18.6460 C   0  0  0  0  0  0  0  0  0  0  0  0
  -30.2549  -30.3148   18.0843 C   0  0  0  0  0  0  0  0  0  0  0  0
  -24.3499  -19.3983   22.1812 C   0  0  0  0  0  0  0  0  0  0  0  0
  -31.0608  -30.9225   20.2794 C   0  0  0  0  0  0  0  0  0  0  0  0
  -24.6697  -28.1404   20.0399 C   0  0  0  0  0  0  0  0  0  0  0  0
  -22.5466  -28.4457   18.6591 C   0  0  0  0  0  0  0  0  0  0  0  0
  -30.8284  -24.7478   18.4876 C   0  0  0  0  0  0  0  0  0  0  0  0
  -26.6357  -20.0577   22.6288 C   0  0  0  0  0  0  0  0  0  0  0  0
  -30.0772  -23.9775   19.3984 C   0  0  0  0  0  0  0  0  0  0  0  0
  -25.7100  -19.3623   21.8378 C   0  0  0  0  0  0  0  0  0  0  0  0
  -27.4349  -28.0766   20.4033 C   0  0  0  0  0  0  0  0  0  0  0  0
  -23.9182  -20.1056   23.3030 C   0  0  0  0  0  0  0  0  0  0  0  0
  -29.5303  -29.0706   20.0244 C   0  0  0  0  0  0  0  0  0  0  0  0
  -31.0337  -31.1347   18.9010 C   0  0  0  0  0  0  0  0  0  0  0  0
  -30.3091  -29.8904   20.8411 C   0  0  0  0  0  0  0  0  0  0  0  0
  -23.2414  -28.1726   19.8525 C   0  0  0  0  0  0  0  0  0  0  0  0
  -21.2205  -28.3540   19.0051 C   0  0  0  0  0  0  0  0  0  0  0  0
  -23.0543  -28.7545   17.3543 C   0  0  0  0  0  0  0  0  0  0  0  0
  -28.0987  -20.8677   19.9256 C   0  0  0  0  0  0  0  0  0  0  0  0
  -28.1760  -17.6581   19.4623 C   0  0  0  0  0  0  0  0  0  0  0  0
  -26.8317  -14.5981   20.1521 C   0  0  0  0  0  0  0  0  0  0  0  0
  -18.3348  -25.4175   23.3526 C   0  0  0  0  0  0  0  0  0  0  0  0
  -30.7793  -24.4916   17.0019 C   0  0  0  0  0  0  0  0  0  0  0  0
  -28.1025  -20.0166   22.2987 C   0  0  0  0  0  0  0  0  0  0  0  0
  -26.1344  -18.5821   20.6214 C   0  0  0  0  0  0  0  0  0  0  0  0
  -29.5393  -23.7138   16.5734 C   0  0  0  0  0  0  0  0  0  0  0  0
  -18.2755  -28.9231   22.7326 C   0  0  0  0  0  0  0  0  0  0  0  0
  -29.3645  -22.4870   17.4559 C   0  0  0  0  0  0  0  0  0  0  0  0
  -19.4788  -29.1529   21.8165 C   0  0  0  0  0  0  0  0  0  0  0  0
  -18.5599  -27.8474   23.7786 C   0  0  0  0  0  0  0  0  0  0  0  0
  -20.2402  -26.7930   22.3163 C   0  0  0  0  0  0  0  0  0  0  0  0
  -29.1299  -22.8937   18.9163 C   0  0  1  0  0  0  0  0  0  0  0  0
  -28.3762  -19.7014   20.8314 C   0  0  1  0  0  0  0  0  0  0  0  0
  -19.9821  -27.8295   21.2093 C   0  0  2  0  0  0  0  0  0  0  0  0
  -27.0848  -12.1644   19.5950 C   0  0  0  0  0  0  0  0  0  0  0  0
  -26.8568  -18.1433   16.7541 C   0  0  0  0  0  0  0  0  0  0  0  0
  -26.2803  -15.7082   16.6769 C   0  0  0  0  0  0  0  0  0  0  0  0
  -28.6700  -16.4209   16.7376 C   0  0  0  0  0  0  0  0  0  0  0  0
  -17.2230  -21.9699   20.1266 C   0  0  0  0  0  0  0  0  0  0  0  0
  -19.3508  -20.7414   19.7079 C   0  0  0  0  0  0  0  0  0  0  0  0
  -19.3457  -23.2324   19.8765 C   0  0  0  0  0  0  0  0  0  0  0  0
  -27.3944  -13.8922   22.9706 C   0  0  0  0  0  0  0  0  0  0  0  0
  -20.6450  -21.5276   23.9486 C   0  0  0  0  0  0  0  0  0  0  0  0
  -20.4335  -21.7166   22.4385 C   0  0  0  0  0  0  0  0  0  0  0  0
  -18.2341  -22.9954   22.8211 C   0  0  0  0  0  0  0  0  0  0  0  0
  -22.1108  -21.2894   24.2971 C   0  0  0  0  0  0  0  0  0  1  0  0
  -27.2555  -16.6481   18.8208 C   0  0  1  0  0  0  0  0  0  0  0  0
  -27.4749  -13.2818   20.5499 C   0  0  2  0  0  0  0  0  0  0  0  0
  -18.9427  -21.8727   22.0257 C   0  0  1  0  0  0  0  0  0  0  0  0
  -27.2571  -16.7463   17.2691 C   0  0  0  0  0  0  0  0  0  0  0  0
  -18.7347  -21.9375   20.4570 C   0  0  0  0  0  0  0  0  0  0  0  0
  -22.4244  -27.9261   20.8800 N   0  0  0  0  0  0  0  0  0  0  0  0
  -21.2025  -28.0440   20.3332 N   0  0  0  0  0  0  0  0  0  0  0  0
  -27.5788  -18.5773   20.3365 N   0  0  0  0  0  0  0  0  0  0  0  0
  -19.0319  -26.6178   23.1374 N   0  0  0  0  0  0  0  0  0  0  0  0
  -20.0799  -28.5092   18.3000 N   0  0  0  0  0  0  0  0  0  0  0  0
  -24.4431  -28.8081   17.1732 N   0  0  0  0  0  0  0  0  0  0  0  0
  -29.1781  -21.7121   19.7490 N   0  0  0  0  0  0  0  0  0  0  0  0
  -27.6569  -15.3441   19.3374 N   0  0  0  0  0  0  0  0  0  0  0  0
  -18.8453  -24.3005   22.7027 N   0  0  0  0  0  0  0  0  0  0  0  0
  -27.0522  -12.8936   21.9253 N   0  3  0  0  0  0  0  0  0  0  0  0
  -22.2988  -28.9926   16.3817 O   0  0  0  0  0  0  0  0  0  0  0  0
  -26.9879  -20.9915   19.4231 O   0  0  0  0  0  0  0  0  0  0  0  0
  -29.3816  -17.6279   19.2029 O   0  0  0  0  0  0  0  0  0  0  0  0
  -25.7080  -14.9295   20.5236 O   0  0  0  0  0  0  0  0  0  0  0  0
  -17.3286  -25.3477   24.0665 O   0  0  0  0  0  0  0  0  0  0  0  0
  -28.7841  -28.0451   20.5804 O   0  0  0  0  0  0  0  0  0  0  0  0
  -22.5862  -20.1306   23.6274 O   0  0  0  0  0  0  0  0  0  1  0  0
  -31.7567  -32.1247   18.3613 F   0  0  0  0  0  0  0  0  0  0  0  0
  -30.3400  -29.6907   22.1658 F   0  0  0  0  0  0  0  0  0  0  0  0
  1  2  1  0  0  0  0
  1  5  2  0  0  0  0
  2  6  2  0  0  0  0
  3  8  2  0  0  0  0
  3 15  1  0  0  0  0
  4  9  1  0  0  0  0
  4 15  2  0  0  0  0
  5 17  1  0  0  0  0
  6 19  1  0  0  0  0
  7 10  2  0  0  0  0
  7 18  1  0  0  0  0
  8 21  1  0  0  0  0
  9 21  2  0  0  0  0
 10 22  1  0  0  0  0
 11 12  2  0  0  0  0
 11 23  1  0  0  0  0
 12 24  1  0  0  0  0
 13 20  1  0  0  0  0
 13 22  2  0  0  0  0
 14 24  2  0  0  0  0
 14 25  1  0  0  0  0
 15 26  1  0  0  0  0
 16 26  1  0  0  0  0
 16 27  2  0  0  0  0
 16 28  1  0  0  0  0
 17 19  2  0  0  0  0
 17 33  1  0  0  0  0
 18 20  2  0  0  0  0
 18 34  1  0  0  0  0
 19 42  1  0  0  0  0
 20 35  1  0  0  0  0
 21 77  1  0  0  0  0
 22 78  1  0  0  0  0
 23 25  2  0  0  0  0
 23 77  1  0  0  0  0
 24 79  1  0  0  0  0
 25 80  1  0  0  0  0
 26 62  2  0  0  0  0
 27 63  1  0  0  0  0
 27 66  1  0  0  0  0
 28 67  1  0  0  0  0
 28 72  2  0  0  0  0
 29 43  1  0  0  0  0
 29 68  1  0  0  0  0
 29 73  2  0  0  0  0
 30 57  1  0  0  0  0
 30 64  1  0  0  0  0
 30 74  2  0  0  0  0
 31 58  1  0  0  0  0
 31 69  1  0  0  0  0
 31 75  2  0  0  0  0
 32 65  1  0  0  0  0
 32 70  1  0  0  0  0
 32 76  2  0  0  0  0
 33 36  1  0  0  0  0
 34 43  1  0  0  0  0
 35 64  1  0  0  0  0
 36 38  1  0  0  0  0
 37 39  1  0  0  0  0
 37 40  1  0  0  0  0
 38 42  1  0  0  0  0
 39 44  1  0  0  0  0
 40 65  1  0  0  0  0
 41 44  1  0  0  0  0
 41 65  1  0  0  0  0
 42 68  1  0  0  0  0
 43 64  1  0  0  0  0
 44 63  1  0  0  0  0
 45 58  1  0  0  0  0
 46 60  1  0  0  0  0
 47 60  1  0  0  0  0
 48 60  1  0  0  0  0
 49 61  1  0  0  0  0
 50 61  1  0  0  0  0
 51 61  1  0  0  0  0
 52 71  1  0  0  0  0
 53 54  1  0  0  0  0
 53 56  1  0  0  0  0
 54 59  1  0  0  0  0
 55 59  1  0  0  0  0
 55 70  1  0  0  0  0
 56 78  1  0  0  0  0
 57 60  1  0  0  0  0
 57 69  1  0  0  0  0
 58 71  1  0  0  0  0
 59 61  1  0  0  0  0
 62 63  1  0  0  0  0
M  CHG  1  71   1
M  ISO  4  32 100  56 101  70 100  78 101
M  END
> <Batch ID>
0091

> <Smiles>
CNC(C)C(=O)NC(C(=O)N1Cc2cc([101O:1][101CH2:1]CCC(C[100NH:0][100C:0](=O)N3CCCC(n4nc(-c5ccc(Oc6ccc(F)cc6F)cc5)c(C(N)=O)c4N)C3)C(C)(C)C)ccc2CC1C(=O)NC1CCCc2ccccc21)C(C)(C)C

> <Shape>
0.202

> <Color>
0.060

> <Negative vol penalty>
0.000

$$$$

  -OEChem-04052319113D

 90 98  0     1  0  0  0  0  0999 V2000
  -22.8974  -21.0323   12.9918 C   0  0  0  0  0  0  0  0  0  0  0  0
  -23.5651  -21.1123   14.2097 C   0  0  0  0  0  0  0  0  0  0  0  0
  -23.0710   -9.8757   19.9369 C   0  0  0  0  0  0  0  0  0  0  0  0
  -23.8411   -9.8680   22.2268 C   0  0  0  0  0  0  0  0  0  0  0  0
  -22.9492  -22.1012   12.0982 C   0  0  0  0  0  0  0  0  0  0  0  0
  -24.2859  -22.2610   14.5341 C   0  0  0  0  0  0  0  0  0  0  0  0
  -23.4538  -23.7992   19.2867 C   0  0  0  0  0  0  0  0  0  0  0  0
  -22.3276   -8.7214   20.1830 C   0  0  0  0  0  0  0  0  0  0  0  0
  -23.0976   -8.7137   22.4730 C   0  0  0  0  0  0  0  0  0  0  0  0
  -24.1110  -23.1083   20.3038 C   0  0  0  0  0  0  0  0  0  0  0  0
  -21.1172   -5.9694   23.8014 C   0  0  0  0  0  0  0  0  0  0  0  0
  -20.3661   -5.9190   24.9757 C   0  0  0  0  0  0  0  0  0  0  0  0
  -25.7640  -24.8614   20.4184 C   0  0  0  0  0  0  0  0  0  0  0  0
  -19.1194   -7.8614   24.2617 C   0  0  0  0  0  0  0  0  0  0  0  0
  -28.2349  -21.6038   19.1976 C   0  0  0  0  0  0  0  0  0  0  0  0
  -23.8278  -10.4490   20.9588 C   0  0  0  0  0  0  0  0  0  0  0  0
  -24.1705  -12.9746   20.8529 C   0  0  0  0  0  0  0  0  0  0  0  0
  -23.6630  -23.2674   12.4159 C   0  0  0  0  0  0  0  0  0  0  0  0
  -23.9537  -25.0232   18.8195 C   0  0  0  0  0  0  0  0  0  0  0  0
  -24.3484  -23.3460   13.6433 C   0  0  0  0  0  0  0  0  0  0  0  0
  -25.1099  -25.5671   19.3970 C   0  0  0  0  0  0  0  0  0  0  0  0
  -28.4406  -20.8573   20.3368 C   0  0  0  0  0  0  0  0  0  0  0  0
  -28.7407  -19.5346   19.9274 C   0  0  0  0  0  0  0  0  0  0  0  0
  -22.3409   -8.1404   21.4510 C   0  0  0  0  0  0  0  0  0  0  0  0
  -25.2679  -23.6379   20.8679 C   0  0  0  0  0  0  0  0  0  0  0  0
  -20.8694   -6.9659   22.8573 C   0  0  0  0  0  0  0  0  0  0  0  0
  -19.3672   -6.8649   25.2058 C   0  0  0  0  0  0  0  0  0  0  0  0
  -19.8705   -7.9119   23.0874 C   0  0  0  0  0  0  0  0  0  0  0  0
  -24.5964  -11.6410   20.7050 C   0  0  0  0  0  0  0  0  0  0  0  0
  -28.7094  -19.5131   18.5505 C   0  0  0  0  0  0  0  0  0  0  0  0
  -25.2614  -13.7258   20.4894 C   0  0  0  0  0  0  0  0  0  0  0  0
  -22.9021  -13.4885   21.2806 C   0  0  0  0  0  0  0  0  0  0  0  0
  -25.0411  -26.0830   16.0270 C   0  0  0  0  0  0  0  0  0  0  0  0
  -25.1121  -28.9314   17.5776 C   0  0  0  0  0  0  0  0  0  0  0  0
  -25.2850  -30.6124   20.5425 C   0  0  0  0  0  0  0  0  0  0  0  0
  -30.7465  -14.7408   20.6597 C   0  0  0  0  0  0  0  0  0  0  0  0
  -23.7293  -24.3781   11.3977 C   0  0  0  0  0  0  0  0  0  0  0  0
  -23.2183  -25.7691   17.7401 C   0  0  0  0  0  0  0  0  0  0  0  0
  -25.6762  -26.8876   18.9452 C   0  0  0  0  0  0  0  0  0  0  0  0
  -24.2054  -25.7077   11.9770 C   0  0  0  0  0  0  0  0  0  0  0  0
  -29.5970  -12.3717   18.2633 C   0  0  0  0  0  0  0  0  0  0  0  0
  -25.4375  -25.4984   12.8516 C   0  0  0  0  0  0  0  0  0  0  0  0
  -28.1613  -12.0761   18.7008 C   0  0  0  0  0  0  0  0  0  0  0  0
  -30.5196  -12.5846   19.4614 C   0  0  0  0  0  0  0  0  0  0  0  0
  -28.6244  -13.3081   20.8610 C   0  0  0  0  0  0  0  0  0  0  0  0
  -25.1204  -24.5851   14.0419 C   0  0  1  0  0  0  0  0  0  0  0  0
  -24.1034  -26.7579   16.9876 C   0  0  1  0  0  0  0  0  0  0  0  0
  -27.6449  -13.1413   19.6866 C   0  0  2  0  0  0  0  0  0  0  0  0
  -27.8873  -16.7145   16.0213 C   0  0  0  0  0  0  0  0  0  0  0  0
  -25.3619  -32.9356   21.4883 C   0  0  0  0  0  0  0  0  0  0  0  0
  -29.2269  -21.2386   13.8236 C   0  0  0  0  0  0  0  0  0  0  0  0
  -30.6250  -23.2317   14.4014 C   0  0  0  0  0  0  0  0  0  0  0  0
  -28.0351  -29.1742   16.7368 C   0  0  0  0  0  0  0  0  0  0  0  0
  -28.3088  -30.9708   18.4588 C   0  0  0  0  0  0  0  0  0  0  0  0
  -26.7200  -31.2943   16.5631 C   0  0  0  0  0  0  0  0  0  0  0  0
  -22.7690  -30.2079   22.0476 C   0  0  0  0  0  0  0  0  0  0  0  0
  -28.3582  -21.3657   21.7539 C   0  0  0  0  0  0  0  0  0  0  0  0
  -29.0334  -18.3879   20.8120 C   0  0  0  0  0  0  0  0  0  0  0  0
  -28.9467  -18.3991   17.6082 C   0  0  0  0  0  0  0  0  0  0  0  0
  -27.6391  -17.8352   17.0185 C   0  0  0  0  0  0  0  0  0  0  0  0
  -27.0738  -20.9599   22.4801 C   0  0  0  0  0  0  0  0  0  0  0  0
  -30.5349  -18.0438   20.9580 C   0  0  0  0  0  0  0  0  0  0  0  0
  -29.4949  -21.9648   16.2530 C   0  0  0  0  0  0  0  0  0  0  0  0
  -28.2672  -21.1914   16.7386 C   0  0  0  0  0  0  0  0  0  0  0  0
  -30.8190  -16.8836   21.9096 C   0  0  0  0  0  0  0  0  0  0  0  0
  -25.8140  -21.5417   21.8493 C   0  0  0  0  0  0  0  0  0  1  0  0
  -26.1321  -29.6705   18.4096 C   0  0  1  0  0  0  0  0  0  0  0  0
  -24.4702  -31.7685   21.0940 C   0  0  2  0  0  0  0  0  0  0  0  0
  -29.3878  -22.4166   14.7855 C   0  0  0  0  0  0  0  0  0  0  0  0
  -27.2897  -30.2516   17.5495 C   0  0  0  0  0  0  0  0  0  0  0  0
  -25.8593  -11.5471   20.2805 N   0  0  0  0  0  0  0  0  0  0  0  0
  -28.4012  -20.7764   18.1178 N   0  0  0  0  0  0  0  0  0  0  0  0
  -26.2363  -12.8313   20.1585 N   0  0  0  0  0  0  0  0  0  0  0  0
  -24.9246  -27.5758   17.8826 N   0  0  0  0  0  0  0  0  0  0  0  0
  -29.9735  -13.6079   20.3562 N   0  0  0  0  0  0  0  0  0  0  0  0
  -25.4722  -15.0576   20.4237 N   0  0  0  0  0  0  0  0  0  0  0  0
  -21.8912  -12.5778   21.6168 N   0  0  0  0  0  0  0  0  0  0  0  0
  -24.4077  -25.3185   15.0659 N   0  0  0  0  0  0  0  0  0  0  0  0
  -25.3912  -30.6718   19.1691 N   0  0  0  0  0  0  0  0  0  0  0  0
  -30.1516  -15.6647   21.5101 N   0  0  0  0  0  0  0  0  0  0  0  0
  -23.7042  -31.3351   22.2966 N   0  3  0  0  0  0  0  0  0  0  0  0
  -22.6668  -14.7189   21.3467 O   0  0  0  0  0  0  0  0  0  0  0  0
  -26.2497  -26.2452   16.1478 O   0  0  0  0  0  0  0  0  0  0  0  0
  -24.4990  -29.5363   16.6945 O   0  0  0  0  0  0  0  0  0  0  0  0
  -25.7810  -29.7456   21.2589 O   0  0  0  0  0  0  0  0  0  0  0  0
  -31.8805  -14.9185   20.2021 O   0  0  0  0  0  0  0  0  0  0  0  0
  -21.6154   -7.0142   21.6916 O   0  0  0  0  0  0  0  0  0  0  0  0
  -25.9116  -22.9653   21.8603 O   0  0  0  0  0  0  0  0  0  1  0  0
  -18.6449   -6.8154   26.3328 F   0  0  0  0  0  0  0  0  0  0  0  0
  -19.6271   -8.8708   22.1836 F   0  0  0  0  0  0  0  0  0  0  0  0
  1  2  1  0  0  0  0
  1  5  2  0  0  0  0
  2  6  2  0  0  0  0
  3  8  2  0  0  0  0
  3 16  1  0  0  0  0
  4  9  1  0  0  0  0
  4 16  2  0  0  0  0
  5 18  1  0  0  0  0
  6 20  1  0  0  0  0
  7 10  2  0  0  0  0
  7 19  1  0  0  0  0
  8 24  1  0  0  0  0
  9 24  2  0  0  0  0
 10 25  1  0  0  0  0
 11 12  2  0  0  0  0
 11 26  1  0  0  0  0
 12 27  1  0  0  0  0
 13 21  1  0  0  0  0
 13 25  2  0  0  0  0
 14 27  2  0  0  0  0
 14 28  1  0  0  0  0
 15 22  2  0  0  0  0
 15 72  1  0  0  0  0
 16 29  1  0  0  0  0
 17 29  1  0  0  0  0
 17 31  2  0  0  0  0
 17 32  1  0  0  0  0
 18 20  2  0  0  0  0
 18 37  1  0  0  0  0
 19 21  2  0  0  0  0
 19 38  1  0  0  0  0
 20 46  1  0  0  0  0
 21 39  1  0  0  0  0
 22 23  1  0  0  0  0
 22 57  1  0  0  0  0
 23 30  2  0  0  0  0
 23 58  1  0  0  0  0
 24 87  1  0  0  0  0
 25 88  1  0  0  0  0
 26 28  2  0  0  0  0
 26 87  1  0  0  0  0
 27 89  1  0  0  0  0
 28 90  1  0  0  0  0
 29 71  2  0  0  0  0
 30 59  1  0  0  0  0
 30 72  1  0  0  0  0
 31 73  1  0  0  0  0
 31 76  1  0  0  0  0
 32 77  1  0  0  0  0
 32 82  2  0  0  0  0
 33 47  1  0  0  0  0
 33 78  1  0  0  0  0
 33 83  2  0  0  0  0
 34 67  1  0  0  0  0
 34 74  1  0  0  0  0
 34 84  2  0  0  0  0
 35 68  1  0  0  0  0
 35 79  1  0  0  0  0
 35 85  2  0  0  0  0
 36 75  1  0  0  0  0
 36 80  1  0  0  0  0
 36 86  2  0  0  0  0
 37 40  1  0  0  0  0
 38 47  1  0  0  0  0
 39 74  1  0  0  0  0
 40 42  1  0  0  0  0
 41 43  1  0  0  0  0
 41 44  1  0  0  0  0
 42 46  1  0  0  0  0
 43 48  1  0  0  0  0
 44 75  1  0  0  0  0
 45 48  1  0  0  0  0
 45 75  1  0  0  0  0
 46 78  1  0  0  0  0
 47 74  1  0  0  0  0
 48 73  1  0  0  0  0
 49 60  1  0  0  0  0
 50 68  1  0  0  0  0
 51 69  1  0  0  0  0
 52 69  1  0  0  0  0
 53 70  1  0  0  0  0
 54 70  1  0  0  0  0
 55 70  1  0  0  0  0
 56 81  1  0  0  0  0
 57 61  1  0  0  0  0
 58 62  1  0  0  0  0
 59 60  1  0  0  0  0
 61 66  1  0  0  0  0
 62 65  1  0  0  0  0
 63 64  1  0  0  0  0
 63 69  1  0  0  0  0
 64 72  1  0  0  0  0
 65 80  1  0  0  0  0
 66 88  1  0  0  0  0
 67 70  1  0  0  0  0
 67 79  1  0  0  0  0
 68 81  1  0  0  0  0
 71 73  1  0  0  0  0
M  CHG  1  81   1
M  ISO  4  36 100  66 101  80 100  88 101
M  END
> <Batch ID>
0091

> <Smiles>
CCCc1c(CCC[100NH:0][100C:0](=O)N2CCCC(n3nc(-c4ccc(Oc5ccc(F)cc5F)cc4)c(C(N)=O)c3N)C2)c(CC[101CH2:1][101O:1]c2ccc3c(c2)CN(C(=O)C(NC(=O)C(C)NC)C(C)(C)C)C(C(=O)NC2CCCc4ccccc42)C3)cn1CCC(C)C

> <Shape>
0.259

> <Color>
0.191

> <Negative vol penalty>
0.000

$$$$

  -OEChem-04052319113D

 88 96  0     1  0  0  0  0  0999 V2000
  -19.4182  -23.8258   22.8145 C   0  0  0  0  0  0  0  0  0  0  0  0
  -19.8885  -22.6427   22.2537 C   0  0  0  0  0  0  0  0  0  0  0  0
  -28.5139  -26.7876   19.2142 C   0  0  0  0  0  0  0  0  0  0  0  0
  -28.9678  -25.7416   21.3442 C   0  0  0  0  0  0  0  0  0  0  0  0
  -18.6675  -24.7116   22.0426 C   0  0  0  0  0  0  0  0  0  0  0  0
  -19.6074  -22.3441   20.9209 C   0  0  0  0  0  0  0  0  0  0  0  0
  -23.6569  -20.6116   18.4221 C   0  0  0  0  0  0  0  0  0  0  0  0
  -27.9298  -27.8709   19.8706 C   0  0  0  0  0  0  0  0  0  0  0  0
  -28.3837  -26.8249   22.0007 C   0  0  0  0  0  0  0  0  0  0  0  0
  -24.0166  -19.2818   18.6365 C   0  0  0  0  0  0  0  0  0  0  0  0
  -24.9796  -28.5861   21.3570 C   0  0  0  0  0  0  0  0  0  0  0  0
  -23.7678  -29.0666   20.8611 C   0  0  0  0  0  0  0  0  0  0  0  0
  -22.9372  -18.6629   16.5698 C   0  0  0  0  0  0  0  0  0  0  0  0
  -24.7813  -31.2258   20.4767 C   0  0  0  0  0  0  0  0  0  0  0  0
  -25.3082  -13.6222   21.2312 C   0  0  0  0  0  0  0  0  0  0  0  0
  -29.0329  -25.7229   19.9510 C   0  0  0  0  0  0  0  0  0  0  0  0
  -30.9887  -24.4560   18.9130 C   0  0  0  0  0  0  0  0  0  0  0  0
  -18.3852  -24.4283   20.6970 C   0  0  0  0  0  0  0  0  0  0  0  0
  -22.9241  -20.9760   17.2834 C   0  0  0  0  0  0  0  0  0  0  0  0
  -18.8510  -23.2263   20.1307 C   0  0  0  0  0  0  0  0  0  0  0  0
  -22.5717  -19.9984   16.3420 C   0  0  0  0  0  0  0  0  0  0  0  0
  -24.1840  -13.0649   20.6725 C   0  0  0  0  0  0  0  0  0  0  0  0
  -27.8647  -27.8895   21.2638 C   0  0  0  0  0  0  0  0  0  0  0  0
  -23.6542  -18.3067   17.7118 C   0  0  0  0  0  0  0  0  0  0  0  0
  -26.0924  -29.4254   21.4129 C   0  0  0  0  0  0  0  0  0  0  0  0
  -23.6686  -30.3865   20.4209 C   0  0  0  0  0  0  0  0  0  0  0  0
  -25.9932  -30.7453   20.9727 C   0  0  0  0  0  0  0  0  0  0  0  0
  -29.6359  -24.6033   19.2734 C   0  0  0  0  0  0  0  0  0  0  0  0
  -24.5964  -11.7857   20.2537 C   0  0  0  0  0  0  0  0  0  0  0  0
  -31.0487  -23.2290   18.2987 C   0  0  0  0  0  0  0  0  0  0  0  0
  -32.0925  -25.3484   19.1156 C   0  0  0  0  0  0  0  0  0  0  0  0
  -20.0657  -22.2701   16.7747 C   0  0  0  0  0  0  0  0  0  0  0  0
  -21.0604  -22.2999   13.6873 C   0  0  0  0  0  0  0  0  0  0  0  0
  -23.0995  -20.9845   11.2876 C   0  0  0  0  0  0  0  0  0  0  0  0
  -27.7051  -18.3931   18.8364 C   0  0  0  0  0  0  0  0  0  0  0  0
  -17.5297  -25.3940   19.9159 C   0  0  0  0  0  0  0  0  0  0  0  0
  -22.5670  -22.4189   17.0532 C   0  0  0  0  0  0  0  0  0  0  0  0
  -21.8025  -20.3407   15.0932 C   0  0  0  0  0  0  0  0  0  0  0  0
  -17.5933  -25.1802   18.4058 C   0  0  0  0  0  0  0  0  0  0  0  0
  -28.3747  -20.1775   15.7599 C   0  0  0  0  0  0  0  0  0  0  0  0
  -17.4462  -23.6996   18.0696 C   0  0  0  0  0  0  0  0  0  0  0  0
  -28.9067  -21.5099   16.2907 C   0  0  0  0  0  0  0  0  0  0  0  0
  -27.2491  -19.6417   16.6397 C   0  0  0  0  0  0  0  0  0  0  0  0
  -28.1412  -20.8223   18.6105 C   0  0  0  0  0  0  0  0  0  0  0  0
  -18.5878  -22.8788   18.6816 C   0  0  1  0  0  0  0  0  0  0  0  0
  -21.3762  -22.5976   16.1165 C   0  0  1  0  0  0  0  0  0  0  0  0
  -29.2968  -21.4054   17.7770 C   0  0  2  0  0  0  0  0  0  0  0  0
  -23.7889  -10.7503   19.5852 C   0  0  0  0  0  0  0  0  0  0  0  0
  -22.2129  -13.9745   21.9273 C   0  0  0  0  0  0  0  0  0  0  0  0
  -23.6589  -21.1883    8.8498 C   0  0  0  0  0  0  0  0  0  0  0  0
  -18.4913  -20.8153   12.9762 C   0  0  0  0  0  0  0  0  0  0  0  0
  -19.5262  -20.2213   10.7752 C   0  0  0  0  0  0  0  0  0  0  0  0
  -19.1372  -22.6141   11.3633 C   0  0  0  0  0  0  0  0  0  0  0  0
  -25.9056  -21.7199   11.8739 C   0  0  0  0  0  0  0  0  0  0  0  0
  -29.4240  -12.8725   18.9460 C   0  0  0  0  0  0  0  0  0  0  0  0
  -23.2230  -14.7418   18.2337 C   0  0  0  0  0  0  0  0  0  0  0  0
  -22.8130  -14.9881   19.6929 C   0  0  0  0  0  0  0  0  0  0  0  0
  -27.6539  -12.8064   21.5644 C   0  0  0  0  0  0  0  0  0  0  0  0
  -27.2182  -15.9612   18.9130 C   0  0  0  0  0  0  0  0  0  0  0  0
  -28.3993  -13.9736   20.9305 C   0  0  0  0  0  0  0  0  0  0  0  0
  -28.5102  -15.1813   18.7557 C   0  0  0  0  0  0  0  0  0  0  0  0
  -23.1321  -16.0088   17.3908 C   0  0  0  0  0  0  0  0  0  1  0  0
  -22.8096  -13.6983   20.5417 C   0  0  1  0  0  0  0  0  0  0  0  0
  -20.9804  -21.3351   12.5290 C   0  0  1  0  0  0  0  0  0  0  0  0
  -24.0011  -21.6441   10.2597 C   0  0  2  0  0  0  0  0  0  0  0  0
  -19.5466  -21.2393   11.9353 C   0  0  0  0  0  0  0  0  0  0  0  0
  -28.8902  -23.5539   18.9175 N   0  0  0  0  0  0  0  0  0  0  0  0
  -25.8822  -11.5445   20.5232 N   0  0  0  0  0  0  0  0  0  0  0  0
  -26.2875  -12.6798   21.1172 N   0  0  0  0  0  0  0  0  0  0  0  0
  -29.7776  -22.7354   18.3270 N   0  0  0  0  0  0  0  0  0  0  0  0
  -21.4711  -21.7643   14.9162 N   0  0  0  0  0  0  0  0  0  0  0  0
  -27.6913  -19.5490   18.0383 N   0  0  0  0  0  0  0  0  0  0  0  0
  -32.0642  -22.5351   17.7423 N   0  0  0  0  0  0  0  0  0  0  0  0
  -31.8553  -26.5680   19.7643 N   0  0  0  0  0  0  0  0  0  0  0  0
  -19.7949  -23.0288   17.8974 N   0  0  0  0  0  0  0  0  0  0  0  0
  -21.9961  -21.7609   11.5722 N   0  0  0  0  0  0  0  0  0  0  0  0
  -27.2569  -17.2305   18.2214 N   0  0  0  0  0  0  0  0  0  0  0  0
  -25.4275  -21.3069   10.5294 N   0  3  0  0  0  0  0  0  0  0  0  0
  -28.3898  -13.8480   19.4523 N   0  3  1  0  0  0  0  0  0  0  0  0
  -33.2515  -25.0796   18.7182 O   0  0  0  0  0  0  0  0  0  0  0  0
  -19.3524  -21.3949   16.2983 O   0  0  0  0  0  0  0  0  0  0  0  0
  -20.7760  -23.4865   13.5067 O   0  0  0  0  0  0  0  0  0  0  0  0
  -23.3472  -19.8884   11.7853 O   0  0  0  0  0  0  0  0  0  0  0  0
  -28.0934  -18.3956   20.0096 O   0  0  0  0  0  0  0  0  0  0  0  0
  -27.2950  -28.9466   21.9047 O   0  0  0  0  0  0  0  0  0  0  0  0
  -24.0034  -17.0079   17.9191 O   0  0  0  0  0  0  0  0  0  1  0  0
  -22.5051  -30.8474   19.9433 F   0  0  0  0  0  0  0  0  0  0  0  0
  -27.0590  -31.5560   21.0228 F   0  0  0  0  0  0  0  0  0  0  0  0
  1  2  1  0  0  0  0
  1  5  2  0  0  0  0
  2  6  2  0  0  0  0
  3  8  2  0  0  0  0
  3 16  1  0  0  0  0
  4  9  1  0  0  0  0
  4 16  2  0  0  0  0
  5 18  1  0  0  0  0
  6 20  1  0  0  0  0
  7 10  2  0  0  0  0
  7 19  1  0  0  0  0
  8 23  1  0  0  0  0
  9 23  2  0  0  0  0
 10 24  1  0  0  0  0
 11 12  2  0  0  0  0
 11 25  1  0  0  0  0
 12 26  1  0  0  0  0
 13 21  1  0  0  0  0
 13 24  2  0  0  0  0
 14 26  2  0  0  0  0
 14 27  1  0  0  0  0
 15 22  2  0  0  0  0
 15 69  1  0  0  0  0
 16 28  1  0  0  0  0
 17 28  1  0  0  0  0
 17 30  2  0  0  0  0
 17 31  1  0  0  0  0
 18 20  2  0  0  0  0
 18 36  1  0  0  0  0
 19 21  2  0  0  0  0
 19 37  1  0  0  0  0
 20 45  1  0  0  0  0
 21 38  1  0  0  0  0
 22 29  1  0  0  0  0
 22 63  1  0  0  0  0
 23 85  1  0  0  0  0
 24 86  1  0  0  0  0
 25 27  2  0  0  0  0
 25 85  1  0  0  0  0
 26 87  1  0  0  0  0
 27 88  1  0  0  0  0
 28 67  2  0  0  0  0
 29 48  1  0  0  0  0
 29 68  2  0  0  0  0
 30 70  1  0  0  0  0
 30 73  1  0  0  0  0
 31 74  1  0  0  0  0
 31 80  2  0  0  0  0
 32 46  1  0  0  0  0
 32 75  1  0  0  0  0
 32 81  2  0  0  0  0
 33 64  1  0  0  0  0
 33 71  1  0  0  0  0
 33 82  2  0  0  0  0
 34 65  1  0  0  0  0
 34 76  1  0  0  0  0
 34 83  2  0  0  0  0
 35 72  1  0  0  0  0
 35 77  1  0  0  0  0
 35 84  2  0  0  0  0
 36 39  1  0  0  0  0
 37 46  1  0  0  0  0
 38 71  1  0  0  0  0
 39 41  1  0  0  0  0
 40 42  1  0  0  0  0
 40 43  1  0  0  0  0
 41 45  1  0  0  0  0
 42 47  1  0  0  0  0
 43 72  1  0  0  0  0
 44 47  1  0  0  0  0
 44 72  1  0  0  0  0
 45 75  1  0  0  0  0
 46 71  1  0  0  0  0
 47 70  1  0  0  0  0
 49 63  1  0  0  0  0
 50 65  1  0  0  0  0
 51 66  1  0  0  0  0
 52 66  1  0  0  0  0
 53 66  1  0  0  0  0
 54 78  1  0  0  0  0
 55 79  1  0  0  0  0
 56 57  1  0  0  0  0
 56 62  1  0  0  0  0
 57 63  1  0  0  0  0
 58 60  1  0  0  0  0
 58 69  1  0  0  0  0
 59 61  1  0  0  0  0
 59 77  1  0  0  0  0
 60 79  1  0  0  0  0
 61 79  1  0  0  0  0
 62 86  1  0  0  0  0
 64 66  1  0  0  0  0
 64 76  1  0  0  0  0
 65 78  1  0  0  0  0
 67 70  1  0  0  0  0
 68 69  1  0  0  0  0
M  CHG  2  78   1  79   1
M  ISO  4  35 100  62 101  77 100  86 101
M  END
> <Batch ID>
0091

> <Smiles>
CNC(C)C(=O)NC(C(=O)N1Cc2cc([101O:1][101CH2:1]CCC(C)c3cn(CCN(C)CC[100NH:0][100C:0](=O)N4CCCC(n5nc(-c6ccc(Oc7ccc(F)cc7F)cc6)c(C(N)=O)c5N)C4)nc3C)ccc2CC1C(=O)NC1CCCc2ccccc21)C(C)(C)C

> <Shape>
0.185

> <Color>
0.067

> <Negative vol penalty>
0.000

$$$$

  -OEChem-04052319113D

 92100  0     1  0  0  0  0  0999 V2000
  -21.6341  -33.9166   14.4517 C   0  0  0  0  0  0  0  0  0  0  0  0
  -22.3102  -32.7300   14.7165 C   0  0  0  0  0  0  0  0  0  0  0  0
  -22.3443  -12.6227   22.2117 C   0  0  0  0  0  0  0  0  0  0  0  0
  -22.1059  -13.4459   19.9528 C   0  0  0  0  0  0  0  0  0  0  0  0
  -21.9841  -35.0833   15.1300 C   0  0  0  0  0  0  0  0  0  0  0  0
  -23.3376  -32.7096   15.6592 C   0  0  0  0  0  0  0  0  0  0  0  0
  -24.7640  -28.1170   19.4512 C   0  0  0  0  0  0  0  0  0  0  0  0
  -20.9776  -12.8050   22.4224 C   0  0  0  0  0  0  0  0  0  0  0  0
  -20.7392  -13.6282   20.1635 C   0  0  0  0  0  0  0  0  0  0  0  0
  -25.7330  -27.1165   19.3898 C   0  0  0  0  0  0  0  0  0  0  0  0
  -18.1032  -11.1957   21.6601 C   0  0  0  0  0  0  0  0  0  0  0  0
  -17.4022  -10.1689   22.2923 C   0  0  0  0  0  0  0  0  0  0  0  0
  -27.1975  -28.4593   20.7577 C   0  0  0  0  0  0  0  0  0  0  0  0
  -28.8072  -23.2242   17.9159 C   0  0  0  0  0  0  0  0  0  0  0  0
  -16.7854  -11.6845   24.0699 C   0  0  0  0  0  0  0  0  0  0  0  0
  -22.9085  -12.9432   20.9769 C   0  0  0  0  0  0  0  0  0  0  0  0
  -24.9590  -11.6001   20.2702 C   0  0  0  0  0  0  0  0  0  0  0  0
  -23.0098  -35.0751   16.0885 C   0  0  0  0  0  0  0  0  0  0  0  0
  -25.0091  -29.3028   20.1584 C   0  0  0  0  0  0  0  0  0  0  0  0
  -23.7025  -33.8776   16.3501 C   0  0  0  0  0  0  0  0  0  0  0  0
  -26.2290  -29.4722   20.8287 C   0  0  0  0  0  0  0  0  0  0  0  0
  -28.0304  -22.9397   16.7658 C   0  0  0  0  0  0  0  0  0  0  0  0
  -20.1750  -13.3077   21.3983 C   0  0  0  0  0  0  0  0  0  0  0  0
  -26.9511  -27.2888   20.0407 C   0  0  0  0  0  0  0  0  0  0  0  0
  -18.1455  -12.4669   22.2328 C   0  0  0  0  0  0  0  0  0  0  0  0
  -16.7432  -10.4133   23.4972 C   0  0  0  0  0  0  0  0  0  0  0  0
  -17.4865  -12.7113   23.4376 C   0  0  0  0  0  0  0  0  0  0  0  0
  -24.3204  -12.7556   20.7589 C   0  0  0  0  0  0  0  0  0  0  0  0
  -28.7858  -22.1022   18.7146 C   0  0  0  0  0  0  0  0  0  0  0  0
  -27.5576  -21.6526   16.8968 C   0  0  0  0  0  0  0  0  0  0  0  0
  -26.2925  -11.9281   20.2481 C   0  0  0  0  0  0  0  0  0  0  0  0
  -24.3969  -10.3427   19.8717 C   0  0  0  0  0  0  0  0  0  0  0  0
  -25.1882  -32.3804   19.3839 C   0  0  0  0  0  0  0  0  0  0  0  0
  -29.1177  -17.2208   19.9058 C   0  0  0  0  0  0  0  0  0  0  0  0
  -25.4414  -32.7726   22.5939 C   0  0  0  0  0  0  0  0  0  0  0  0
  -26.2824  -31.4346   25.6187 C   0  0  0  0  0  0  0  0  0  0  0  0
  -23.3843  -36.3716   16.7620 C   0  0  0  0  0  0  0  0  0  0  0  0
  -23.9432  -30.3611   20.2373 C   0  0  0  0  0  0  0  0  0  0  0  0
  -26.5336  -30.7181   21.6184 C   0  0  0  0  0  0  0  0  0  0  0  0
  -24.2330  -36.1831   18.0168 C   0  0  0  0  0  0  0  0  0  0  0  0
  -29.5100  -14.7057   22.4277 C   0  0  0  0  0  0  0  0  0  0  0  0
  -25.3610  -35.1905   17.7541 C   0  0  0  0  0  0  0  0  0  0  0  0
  -28.2675  -13.8322   22.2599 C   0  0  0  0  0  0  0  0  0  0  0  0
  -29.2036  -16.1729   22.1438 C   0  0  0  0  0  0  0  0  0  0  0  0
  -27.3478  -15.5446   20.6330 C   0  0  0  0  0  0  0  0  0  0  0  0
  -24.8059  -33.8099   17.3835 C   0  0  1  0  0  0  0  0  0  0  0  0
  -24.4983  -31.7455   20.5580 C   0  0  1  0  0  0  0  0  0  0  0  0
  -27.6206  -14.0504   20.8806 C   0  0  2  0  0  0  0  0  0  0  0  0
  -29.0700  -24.2617   14.8882 C   0  0  0  0  0  0  0  0  0  0  0  0
  -27.0159  -25.1364   16.0589 C   0  0  0  0  0  0  0  0  0  0  0  0
  -27.3560  -20.6014   14.6147 C   0  0  0  0  0  0  0  0  0  0  0  0
  -25.3018  -21.4747   15.7862 C   0  0  0  0  0  0  0  0  0  0  0  0
  -28.9632  -16.2477   17.6568 C   0  0  0  0  0  0  0  0  0  0  0  0
  -26.4189  -32.0096   28.0576 C   0  0  0  0  0  0  0  0  0  0  0  0
  -27.1652  -23.9694   22.4775 C   0  0  0  0  0  0  0  0  0  0  0  0
  -30.1732  -24.5860   22.4531 C   0  0  0  0  0  0  0  0  0  0  0  0
  -27.9866  -34.3723   22.0717 C   0  0  0  0  0  0  0  0  0  0  0  0
  -28.5709  -34.1000   24.4910 C   0  0  0  0  0  0  0  0  0  0  0  0
  -26.4988  -35.3272   23.8406 C   0  0  0  0  0  0  0  0  0  0  0  0
  -24.3241  -29.3367   26.3419 C   0  0  0  0  0  0  0  0  0  0  0  0
  -29.4424  -21.8538   20.0495 C   0  0  0  0  0  0  0  0  0  0  0  0
  -28.5707  -22.2372   21.2558 C   0  0  0  0  0  0  0  0  0  0  0  0
  -28.6160  -18.7254   17.9675 C   0  0  0  0  0  0  0  0  0  0  0  0
  -27.7509  -19.8270   18.5982 C   0  0  0  0  0  0  0  0  0  0  0  0
  -28.7786  -26.1952   21.0991 C   0  0  0  0  0  0  0  0  0  1  0  0
  -27.7791  -23.8592   15.6382 C   0  0  0  0  0  0  0  0  0  0  0  0
  -26.7025  -20.8551   15.9920 C   0  0  0  0  0  0  0  0  0  0  0  0
  -28.4114  -17.3315   18.5781 C   0  0  2  0  0  0  0  0  0  0  0  0
  -26.5846  -32.8140   23.5790 C   0  0  1  0  0  0  0  0  0  0  0  0
  -25.5560  -31.4222   26.9516 C   0  0  2  0  0  0  0  0  0  0  0  0
  -28.0819  -23.7050   21.2746 C   0  0  2  0  0  0  0  0  0  0  0  0
  -29.2467  -24.7392   21.2369 C   0  0  2  0  0  0  0  0  0  0  0  0
  -27.4056  -34.1306   23.4792 C   0  0  0  0  0  0  0  0  0  0  0  0
  -25.1778  -13.7438   21.0280 N   0  0  0  0  0  0  0  0  0  0  0  0
  -28.0229  -21.1534   18.0853 N   0  0  0  0  0  0  0  0  0  0  0  0
  -26.3687  -13.2101   20.7073 N   0  0  0  0  0  0  0  0  0  0  0  0
  -25.4619  -31.7266   21.6604 N   0  0  0  0  0  0  0  0  0  0  0  0
  -28.5697  -16.3356   20.8343 N   0  0  0  0  0  0  0  0  0  0  0  0
  -27.3957  -11.2421   19.8809 N   0  0  0  0  0  0  0  0  0  0  0  0
  -23.0082  -10.1744   19.9577 N   0  0  0  0  0  0  0  0  0  0  0  0
  -24.3489  -33.1144   18.5676 N   0  0  0  0  0  0  0  0  0  0  0  0
  -25.9996  -32.5728   24.8935 N   0  0  0  0  0  0  0  0  0  0  0  0
  -25.1919  -30.0276   27.3302 N   0  3  0  0  0  0  0  0  0  0  0  0
  -25.1068   -9.3908   19.4674 O   0  0  0  0  0  0  0  0  0  0  0  0
  -26.3931  -32.2177   19.2307 O   0  0  0  0  0  0  0  0  0  0  0  0
  -30.1279  -17.8995   20.1087 O   0  0  0  0  0  0  0  0  0  0  0  0
  -24.5590  -33.6323   22.6551 O   0  0  0  0  0  0  0  0  0  0  0  0
  -27.0290  -30.5272   25.2586 O   0  0  0  0  0  0  0  0  0  0  0  0
  -18.8413  -13.4855   21.6035 O   0  0  0  0  0  0  0  0  0  0  0  0
  -27.8989  -26.3141   19.9818 O   0  0  0  0  0  0  0  0  0  1  0  0
  -16.0687   -9.4275   24.1034 F   0  0  0  0  0  0  0  0  0  0  0  0
  -17.5225  -13.9308   23.9920 F   0  0  0  0  0  0  0  0  0  0  0  0
  1  2  1  0  0  0  0
  1  5  2  0  0  0  0
  2  6  2  0  0  0  0
  3  8  2  0  0  0  0
  3 16  1  0  0  0  0
  4  9  1  0  0  0  0
  4 16  2  0  0  0  0
  5 18  1  0  0  0  0
  6 20  1  0  0  0  0
  7 10  2  0  0  0  0
  7 19  1  0  0  0  0
  8 23  1  0  0  0  0
  9 23  2  0  0  0  0
 10 24  1  0  0  0  0
 11 12  2  0  0  0  0
 11 25  1  0  0  0  0
 12 26  1  0  0  0  0
 13 21  1  0  0  0  0
 13 24  2  0  0  0  0
 14 22  1  0  0  0  0
 14 29  2  0  0  0  0
 15 26  2  0  0  0  0
 15 27  1  0  0  0  0
 16 28  1  0  0  0  0
 17 28  1  0  0  0  0
 17 31  2  0  0  0  0
 17 32  1  0  0  0  0
 18 20  2  0  0  0  0
 18 37  1  0  0  0  0
 19 21  2  0  0  0  0
 19 38  1  0  0  0  0
 20 46  1  0  0  0  0
 21 39  1  0  0  0  0
 22 30  2  0  0  0  0
 22 66  1  0  0  0  0
 23 89  1  0  0  0  0
 24 90  1  0  0  0  0
 25 27  2  0  0  0  0
 25 89  1  0  0  0  0
 26 91  1  0  0  0  0
 27 92  1  0  0  0  0
 28 74  2  0  0  0  0
 29 61  1  0  0  0  0
 29 75  1  0  0  0  0
 30 67  1  0  0  0  0
 30 75  1  0  0  0  0
 31 76  1  0  0  0  0
 31 79  1  0  0  0  0
 32 80  1  0  0  0  0
 32 84  2  0  0  0  0
 33 47  1  0  0  0  0
 33 81  1  0  0  0  0
 33 85  2  0  0  0  0
 34 68  1  0  0  0  0
 34 78  1  0  0  0  0
 34 86  2  0  0  0  0
 35 69  1  0  0  0  0
 35 77  1  0  0  0  0
 35 87  2  0  0  0  0
 36 70  1  0  0  0  0
 36 82  1  0  0  0  0
 36 88  2  0  0  0  0
 37 40  1  0  0  0  0
 38 47  1  0  0  0  0
 39 77  1  0  0  0  0
 40 42  1  0  0  0  0
 41 43  1  0  0  0  0
 41 44  1  0  0  0  0
 42 46  1  0  0  0  0
 43 48  1  0  0  0  0
 44 78  1  0  0  0  0
 45 48  1  0  0  0  0
 45 78  1  0  0  0  0
 46 81  1  0  0  0  0
 47 77  1  0  0  0  0
 48 76  1  0  0  0  0
 49 66  1  0  0  0  0
 50 66  1  0  0  0  0
 51 67  1  0  0  0  0
 52 67  1  0  0  0  0
 53 68  1  0  0  0  0
 54 70  1  0  0  0  0
 55 71  1  0  0  0  0
 56 72  1  0  0  0  0
 57 73  1  0  0  0  0
 58 73  1  0  0  0  0
 59 73  1  0  0  0  0
 60 83  1  0  0  0  0
 61 62  1  0  0  0  0
 62 71  1  0  0  0  0
 63 64  1  0  0  0  0
 63 68  1  0  0  0  0
 64 75  1  0  0  0  0
 65 72  1  0  0  0  0
 65 90  1  0  0  0  0
 69 73  1  0  0  0  0
 69 82  1  0  0  0  0
 70 83  1  0  0  0  0
 71 72  1  0  0  0  0
 74 76  1  0  0  0  0
M  CHG  1  83   1
M  ISO  4  34 100  65 101  68 100  90 101
M  END
> <Batch ID>
0091

> <Smiles>
CNC(C)C(=O)NC(C(=O)N1Cc2cc([101O:1][101CH2:1]C(C)C(C)CCc3cc(C(C)C)c(C(C)C)n3CC[100CH:0](C)[100C:0](=O)N3CCCC(n4nc(-c5ccc(Oc6ccc(F)cc6F)cc5)c(C(N)=O)c4N)C3)ccc2CC1C(=O)NC1CCCc2ccccc21)C(C)(C)C

> <Shape>
0.261

> <Color>
0.080

> <Negative vol penalty>
0.000

$$$$

  -OEChem-04052319113D

 87 95  0     1  0  0  0  0  0999 V2000
  -21.8542  -25.1593   28.9333 C   0  0  0  0  0  0  0  0  0  0  0  0
  -22.3852  -24.7869   27.7026 C   0  0  0  0  0  0  0  0  0  0  0  0
  -23.0284   -9.9588   19.9496 C   0  0  0  0  0  0  0  0  0  0  0  0
  -23.8674   -9.8846   22.2140 C   0  0  0  0  0  0  0  0  0  0  0  0
  -21.3877  -26.4591   29.1254 C   0  0  0  0  0  0  0  0  0  0  0  0
  -22.4492  -25.7138   26.6628 C   0  0  0  0  0  0  0  0  0  0  0  0
  -26.9056  -25.6324   24.2589 C   0  0  0  0  0  0  0  0  0  0  0  0
  -22.2870   -8.8012   20.1863 C   0  0  0  0  0  0  0  0  0  0  0  0
  -23.1260   -8.7270   22.4508 C   0  0  0  0  0  0  0  0  0  0  0  0
  -27.1166  -24.6021   23.3436 C   0  0  0  0  0  0  0  0  0  0  0  0
  -23.3783   -5.4245   21.7720 C   0  0  0  0  0  0  0  0  0  0  0  0
  -24.0125   -4.3727   22.4331 C   0  0  0  0  0  0  0  0  0  0  0  0
  -26.5872  -26.1082   21.5352 C   0  0  0  0  0  0  0  0  0  0  0  0
  -22.3723   -4.4962   24.2028 C   0  0  0  0  0  0  0  0  0  0  0  0
  -27.3401  -18.9751   20.3910 C   0  0  0  0  0  0  0  0  0  0  0  0
  -23.8187  -10.5004   20.9634 C   0  0  0  0  0  0  0  0  0  0  0  0
  -24.1706  -13.0266   20.9167 C   0  0  0  0  0  0  0  0  0  0  0  0
  -21.4548  -27.4051   28.0905 C   0  0  0  0  0  0  0  0  0  0  0  0
  -26.5225  -26.9077   23.8191 C   0  0  0  0  0  0  0  0  0  0  0  0
  -21.9820  -27.0271   26.8408 C   0  0  0  0  0  0  0  0  0  0  0  0
  -26.3744  -27.1537   22.4467 C   0  0  0  0  0  0  0  0  0  0  0  0
  -26.3728  -19.3615   19.4958 C   0  0  0  0  0  0  0  0  0  0  0  0
  -22.3358   -8.1853   21.4369 C   0  0  0  0  0  0  0  0  0  0  0  0
  -26.9546  -24.8391   21.9818 C   0  0  0  0  0  0  0  0  0  0  0  0
  -22.2412   -6.0123   22.3263 C   0  0  0  0  0  0  0  0  0  0  0  0
  -23.5095   -3.9085   23.6485 C   0  0  0  0  0  0  0  0  0  0  0  0
  -21.7382   -5.5481   23.5417 C   0  0  0  0  0  0  0  0  0  0  0  0
  -24.5852  -11.6958   20.7193 C   0  0  0  0  0  0  0  0  0  0  0  0
  -26.8049  -18.8376   18.2627 C   0  0  0  0  0  0  0  0  0  0  0  0
  -25.2538  -13.7829   20.5410 C   0  0  0  0  0  0  0  0  0  0  0  0
  -22.9184  -13.5337   21.3968 C   0  0  0  0  0  0  0  0  0  0  0  0
  -23.9818  -28.7649   24.2653 C   0  0  0  0  0  0  0  0  0  0  0  0
  -25.7570  -30.9243   22.6196 C   0  0  0  0  0  0  0  0  0  0  0  0
  -28.2764  -31.5083   20.3929 C   0  0  0  0  0  0  0  0  0  0  0  0
  -30.8819  -14.4488   20.9868 C   0  0  0  0  0  0  0  0  0  0  0  0
  -20.8947  -28.7847   28.3307 C   0  0  0  0  0  0  0  0  0  0  0  0
  -26.3248  -28.0155   24.8172 C   0  0  0  0  0  0  0  0  0  0  0  0
  -25.9842  -28.5104   21.9218 C   0  0  0  0  0  0  0  0  0  0  0  0
  -21.3425  -29.8127   27.2948 C   0  0  0  0  0  0  0  0  0  0  0  0
  -29.5131  -12.5059   18.1490 C   0  0  0  0  0  0  0  0  0  0  0  0
  -21.2023  -29.2463   25.8854 C   0  0  0  0  0  0  0  0  0  0  0  0
  -28.0986  -12.1760   18.6226 C   0  0  0  0  0  0  0  0  0  0  0  0
  -30.4779  -12.6752   19.3187 C   0  0  0  0  0  0  0  0  0  0  0  0
  -28.6160  -13.3420   20.8028 C   0  0  0  0  0  0  0  0  0  0  0  0
  -22.0911  -28.0111   25.6963 C   0  0  1  0  0  0  0  0  0  0  0  0
  -25.4365  -29.1399   24.2937 C   0  0  1  0  0  0  0  0  0  0  0  0
  -27.6089  -13.2109   19.6504 C   0  0  2  0  0  0  0  0  0  0  0  0
  -24.1974  -19.4099   20.7418 C   0  0  0  0  0  0  0  0  0  0  0  0
  -25.7214  -17.5838   16.3633 C   0  0  0  0  0  0  0  0  0  0  0  0
  -26.9944  -19.7111   15.9058 C   0  0  0  0  0  0  0  0  0  0  0  0
  -29.4712  -33.3745   19.2150 C   0  0  0  0  0  0  0  0  0  0  0  0
  -23.3841  -31.2466   20.7286 C   0  0  0  0  0  0  0  0  0  0  0  0
  -24.9270  -32.3465   19.0921 C   0  0  0  0  0  0  0  0  0  0  0  0
  -24.5384  -33.3828   21.3277 C   0  0  0  0  0  0  0  0  0  0  0  0
  -31.3489  -16.6071   22.0838 C   0  0  0  0  0  0  0  0  0  0  0  0
  -30.8662  -30.7869   21.6306 C   0  0  0  0  0  0  0  0  0  0  0  0
  -26.1911  -22.4644   19.3465 C   0  0  0  0  0  0  0  0  0  0  0  0
  -25.4253  -21.5807   20.3418 C   0  0  0  0  0  0  0  0  0  0  0  0
  -29.4621  -17.6597   20.1759 C   0  0  0  0  0  0  0  0  0  0  0  0
  -29.2027  -16.3396   20.8971 C   0  0  0  0  0  0  0  0  0  0  0  0
  -26.4012  -23.8777   19.8781 C   0  0  0  0  0  0  0  0  0  1  0  0
  -25.1216  -20.1729   19.7849 C   0  0  1  0  0  0  0  0  0  0  0  0
  -26.1431  -18.9517   16.9513 C   0  0  0  0  0  0  0  0  0  0  0  0
  -25.9292  -31.2780   21.1621 C   0  0  1  0  0  0  0  0  0  0  0  0
  -29.4549  -32.4643   20.4333 C   0  0  2  0  0  0  0  0  0  0  0  0
  -24.7001  -32.0373   20.5874 C   0  0  0  0  0  0  0  0  0  0  0  0
  -25.8342  -11.6084   20.2542 N   0  0  0  0  0  0  0  0  0  0  0  0
  -27.9572  -18.1694   18.3618 N   0  0  0  0  0  0  0  0  0  0  0  0
  -28.2573  -18.2710   19.6678 N   0  0  0  0  0  0  0  0  0  0  0  0
  -26.2138  -12.8939   20.1561 N   0  0  0  0  0  0  0  0  0  0  0  0
  -25.7960  -29.5593   22.9376 N   0  0  0  0  0  0  0  0  0  0  0  0
  -29.9677  -13.6318   20.3014 N   0  0  0  0  0  0  0  0  0  0  0  0
  -25.4692  -15.1152   20.5056 N   0  0  0  0  0  0  0  0  0  0  0  0
  -21.9136  -12.6183   21.7384 N   0  0  0  0  0  0  0  0  0  0  0  0
  -23.4692  -28.4057   25.4972 N   0  0  0  0  0  0  0  0  0  0  0  0
  -27.1849  -32.0145   21.0664 N   0  0  0  0  0  0  0  0  0  0  0  0
  -30.4342  -15.7190   21.3805 N   0  0  0  0  0  0  0  0  0  0  0  0
  -30.7368  -31.7051   20.4699 N   0  3  0  0  0  0  0  0  0  0  0  0
  -22.6914  -14.7628   21.5038 O   0  0  0  0  0  0  0  0  0  0  0  0
  -23.3694  -28.8004   23.2044 O   0  0  0  0  0  0  0  0  0  0  0  0
  -25.6010  -31.8263   23.4464 O   0  0  0  0  0  0  0  0  0  0  0  0
  -28.3187  -30.4228   19.8181 O   0  0  0  0  0  0  0  0  0  0  0  0
  -32.0354  -14.0684   21.2245 O   0  0  0  0  0  0  0  0  0  0  0  0
  -21.6123   -7.0559   21.6684 O   0  0  0  0  0  0  0  0  0  0  0  0
  -27.1593  -23.8350   21.0864 O   0  0  0  0  0  0  0  0  0  1  0  0
  -24.1176   -2.8973   24.2825 F   0  0  0  0  0  0  0  0  0  0  0  0
  -20.6455   -6.1079   24.0786 F   0  0  0  0  0  0  0  0  0  0  0  0
  1  2  1  0  0  0  0
  1  5  2  0  0  0  0
  2  6  2  0  0  0  0
  3  8  2  0  0  0  0
  3 16  1  0  0  0  0
  4  9  1  0  0  0  0
  4 16  2  0  0  0  0
  5 18  1  0  0  0  0
  6 20  1  0  0  0  0
  7 10  2  0  0  0  0
  7 19  1  0  0  0  0
  8 23  1  0  0  0  0
  9 23  2  0  0  0  0
 10 24  1  0  0  0  0
 11 12  2  0  0  0  0
 11 25  1  0  0  0  0
 12 26  1  0  0  0  0
 13 21  1  0  0  0  0
 13 24  2  0  0  0  0
 14 26  2  0  0  0  0
 14 27  1  0  0  0  0
 15 22  2  0  0  0  0
 15 69  1  0  0  0  0
 16 28  1  0  0  0  0
 17 28  1  0  0  0  0
 17 30  2  0  0  0  0
 17 31  1  0  0  0  0
 18 20  2  0  0  0  0
 18 36  1  0  0  0  0
 19 21  2  0  0  0  0
 19 37  1  0  0  0  0
 20 45  1  0  0  0  0
 21 38  1  0  0  0  0
 22 29  1  0  0  0  0
 22 62  1  0  0  0  0
 23 84  1  0  0  0  0
 24 85  1  0  0  0  0
 25 27  2  0  0  0  0
 25 84  1  0  0  0  0
 26 86  1  0  0  0  0
 27 87  1  0  0  0  0
 28 67  2  0  0  0  0
 29 63  1  0  0  0  0
 29 68  2  0  0  0  0
 30 70  1  0  0  0  0
 30 73  1  0  0  0  0
 31 74  1  0  0  0  0
 31 79  2  0  0  0  0
 32 46  1  0  0  0  0
 32 75  1  0  0  0  0
 32 80  2  0  0  0  0
 33 64  1  0  0  0  0
 33 71  1  0  0  0  0
 33 81  2  0  0  0  0
 34 65  1  0  0  0  0
 34 76  1  0  0  0  0
 34 82  2  0  0  0  0
 35 72  1  0  0  0  0
 35 77  1  0  0  0  0
 35 83  2  0  0  0  0
 36 39  1  0  0  0  0
 37 46  1  0  0  0  0
 38 71  1  0  0  0  0
 39 41  1  0  0  0  0
 40 42  1  0  0  0  0
 40 43  1  0  0  0  0
 41 45  1  0  0  0  0
 42 47  1  0  0  0  0
 43 72  1  0  0  0  0
 44 47  1  0  0  0  0
 44 72  1  0  0  0  0
 45 75  1  0  0  0  0
 46 71  1  0  0  0  0
 47 70  1  0  0  0  0
 48 62  1  0  0  0  0
 49 63  1  0  0  0  0
 50 63  1  0  0  0  0
 51 65  1  0  0  0  0
 52 66  1  0  0  0  0
 53 66  1  0  0  0  0
 54 66  1  0  0  0  0
 55 77  1  0  0  0  0
 56 78  1  0  0  0  0
 57 58  1  0  0  0  0
 57 61  1  0  0  0  0
 58 62  1  0  0  0  0
 59 60  1  0  0  0  0
 59 69  1  0  0  0  0
 60 77  1  0  0  0  0
 61 85  1  0  0  0  0
 64 66  1  0  0  0  0
 64 76  1  0  0  0  0
 65 78  1  0  0  0  0
 67 70  1  0  0  0  0
 68 69  1  0  0  0  0
M  CHG  1  78   1
M  ISO  4  35 100  61 101  77 100  85 101
M  END
> <Batch ID>
0091

> <Smiles>
CNC(C)C(=O)NC(C(=O)N1Cc2cc([101O:1][101CH2:1]CCC(C)c3cn(CC[100N:0](C)[100C:0](=O)N4CCCC(n5nc(-c6ccc(Oc7ccc(F)cc7F)cc6)c(C(N)=O)c5N)C4)nc3C(C)C)ccc2CC1C(=O)NC1CCCc2ccccc21)C(C)(C)C

> <Shape>
0.257

> <Color>
0.199

> <Negative vol penalty>
0.000

$$$$

  -OEChem-04052319113D

 93102  0     1  0  0  0  0  0999 V2000
  -28.6603  -35.6606   23.3999 C   0  0  0  0  0  0  0  0  0  0  0  0
  -28.7084  -34.2721   23.3271 C   0  0  0  0  0  0  0  0  0  0  0  0
  -23.9218  -11.5161   19.7251 C   0  0  0  0  0  0  0  0  0  0  0  0
  -25.4861  -12.6429   21.1812 C   0  0  0  0  0  0  0  0  0  0  0  0
  -27.4415  -36.3047   23.6089 C   0  0  0  0  0  0  0  0  0  0  0  0
  -27.5379  -33.5269   23.4643 C   0  0  0  0  0  0  0  0  0  0  0  0
  -27.1680  -29.8377   20.0149 C   0  0  0  0  0  0  0  0  0  0  0  0
  -24.3457  -10.2841   20.2231 C   0  0  0  0  0  0  0  0  0  0  0  0
  -25.9100  -11.4109   21.6793 C   0  0  0  0  0  0  0  0  0  0  0  0
  -27.9195  -28.6840   20.2335 C   0  0  0  0  0  0  0  0  0  0  0  0
  -23.8258   -8.4005   22.9826 C   0  0  0  0  0  0  0  0  0  0  0  0
  -22.8469   -7.4634   23.3129 C   0  0  0  0  0  0  0  0  0  0  0  0
  -25.9562  -27.5744   21.0898 C   0  0  0  0  0  0  0  0  0  0  0  0
  -28.6691  -19.3199   21.6515 C   0  0  0  0  0  0  0  0  0  0  0  0
  -28.8894  -18.0572   19.6164 C   0  0  0  0  0  0  0  0  0  0  0  0
  -26.4787  -22.2791   19.6663 C   0  0  0  0  0  0  0  0  0  0  0  0
  -23.7800   -5.9216   21.7038 C   0  0  0  0  0  0  0  0  0  0  0  0
  -27.7665  -24.1801   18.1920 C   0  0  0  0  0  0  0  0  0  0  0  0
  -24.4921  -12.6956   20.2041 C   0  0  0  0  0  0  0  0  0  0  0  0
  -23.0128  -14.7738   20.1867 C   0  0  0  0  0  0  0  0  0  0  0  0
  -26.2541  -35.5674   23.7391 C   0  0  0  0  0  0  0  0  0  0  0  0
  -25.8050  -29.8720   20.3429 C   0  0  0  0  0  0  0  0  0  0  0  0
  -26.3023  -34.1616   23.6766 C   0  0  0  0  0  0  0  0  0  0  0  0
  -25.1889  -28.7290   20.8721 C   0  0  0  0  0  0  0  0  0  0  0  0
  -28.5493  -18.1177   20.9633 C   0  0  0  0  0  0  0  0  0  0  0  0
  -27.5654  -22.9493   20.2171 C   0  0  0  0  0  0  0  0  0  0  0  0
  -28.2270  -23.9193   19.4725 C   0  0  0  0  0  0  0  0  0  0  0  0
  -25.3397  -10.2315   21.2002 C   0  0  0  0  0  0  0  0  0  0  0  0
  -27.3144  -27.5530   20.7737 C   0  0  0  0  0  0  0  0  0  0  0  0
  -24.7818   -8.0983   22.0128 C   0  0  0  0  0  0  0  0  0  0  0  0
  -22.8240   -6.2239   22.6736 C   0  0  0  0  0  0  0  0  0  0  0  0
  -24.7589   -6.8588   21.3735 C   0  0  0  0  0  0  0  0  0  0  0  0
  -24.0551  -13.9685   19.6897 C   0  0  0  0  0  0  0  0  0  0  0  0
  -29.1302  -20.4240   20.9528 C   0  0  0  0  0  0  0  0  0  0  0  0
  -29.3404  -19.2178   19.0088 C   0  0  0  0  0  0  0  0  0  0  0  0
  -26.0963  -22.6135   18.3772 C   0  0  0  0  0  0  0  0  0  0  0  0
  -22.9986  -15.8680   19.3566 C   0  0  0  0  0  0  0  0  0  0  0  0
  -22.1359  -14.5525   21.2992 C   0  0  0  0  0  0  0  0  0  0  0  0
  -24.0240  -31.5702   22.3549 C   0  0  0  0  0  0  0  0  0  0  0  0
  -21.5828  -30.0032   20.9033 C   0  0  0  0  0  0  0  0  0  0  0  0
  -20.5324  -27.2786   19.1368 C   0  0  0  0  0  0  0  0  0  0  0  0
  -25.6734  -19.8776   16.5435 C   0  0  0  0  0  0  0  0  0  0  0  0
  -24.9673  -36.3057   24.0111 C   0  0  0  0  0  0  0  0  0  0  0  0
  -25.0021  -31.1157   20.0761 C   0  0  0  0  0  0  0  0  0  0  0  0
  -23.7242  -28.7078   21.2223 C   0  0  0  0  0  0  0  0  0  0  0  0
  -23.7183  -35.4612   23.7721 C   0  0  0  0  0  0  0  0  0  0  0  0
  -25.3681  -16.7005   14.9658 C   0  0  0  0  0  0  0  0  0  0  0  0
  -23.8736  -34.0854   24.4123 C   0  0  0  0  0  0  0  0  0  0  0  0
  -24.9196  -15.7724   16.0961 C   0  0  0  0  0  0  0  0  0  0  0  0
  -26.3542  -17.7564   15.4604 C   0  0  0  0  0  0  0  0  0  0  0  0
  -25.4390  -17.6195   17.7445 C   0  0  0  0  0  0  0  0  0  0  0  0
  -25.0505  -33.3197   23.7959 C   0  0  1  0  0  0  0  0  0  0  0  0
  -23.7382  -31.2046   20.9258 C   0  0  1  0  0  0  0  0  0  0  0  0
  -24.4008  -16.5725   17.3061 C   0  0  2  0  0  0  0  0  0  0  0  0
  -28.0589  -16.8980   21.6671 C   0  0  0  0  0  0  0  0  0  0  0  0
  -29.8850  -20.5232   15.4165 C   0  0  0  0  0  0  0  0  0  0  0  0
  -30.6800  -24.4080   19.1978 C   0  0  0  0  0  0  0  0  0  0  0  0
  -18.4734  -26.2597   18.1270 C   0  0  0  0  0  0  0  0  0  0  0  0
  -20.6503  -29.1432   23.6783 C   0  0  0  0  0  0  0  0  0  0  0  0
  -19.2194  -27.4053   22.5826 C   0  0  0  0  0  0  0  0  0  0  0  0
  -18.8125  -29.8235   22.1245 C   0  0  0  0  0  0  0  0  0  0  0  0
  -21.6810  -27.3744   16.4109 C   0  0  0  0  0  0  0  0  0  0  0  0
  -28.0024  -22.6125   21.6042 C   0  0  0  0  0  0  0  0  0  0  0  0
  -29.2747  -21.7454   21.6675 C   0  0  0  0  0  0  0  0  0  0  0  0
  -29.7125  -19.1896   17.5640 C   0  0  0  0  0  0  0  0  0  0  0  0
  -24.9345  -21.9144   17.7539 C   0  0  0  0  0  0  0  0  0  0  0  0
  -29.4735  -20.5440   16.8801 C   0  0  0  0  0  0  0  0  0  0  0  0
  -29.1480  -26.1900   20.1135 C   0  0  0  0  0  0  0  0  0  1  0  0
  -29.4208  -24.6823   20.0248 C   0  0  1  0  0  0  0  0  0  0  0  0
  -20.8549  -28.7025   21.1426 C   0  0  1  0  0  0  0  0  0  0  0  0
  -19.6785  -27.1560   17.8877 C   0  0  2  0  0  0  0  0  0  0  0  0
  -19.9123  -28.7693   22.3773 C   0  0  0  0  0  0  0  0  0  0  0  0
  -26.7144  -23.5499   17.6231 N   0  0  0  0  0  0  0  0  0  0  0  0
  -24.6591  -14.5053   18.6262 N   0  0  0  0  0  0  0  0  0  0  0  0
  -29.4702  -20.4039   19.6445 N   0  0  0  0  0  0  0  0  0  0  0  0
  -23.9942  -15.6596   18.4481 N   0  0  0  0  0  0  0  0  0  0  0  0
  -22.9832  -29.9502   20.9488 N   0  0  0  0  0  0  0  0  0  0  0  0
  -25.8011  -18.4803   16.6075 N   0  0  0  0  0  0  0  0  0  0  0  0
  -22.2316  -16.9784   19.3225 N   0  0  0  0  0  0  0  0  0  0  0  0
  -22.2873  -13.3760   22.0457 N   0  0  0  0  0  0  0  0  0  0  0  0
  -24.6804  -32.7767   22.5065 N   0  0  0  0  0  0  0  0  0  0  0  0
  -20.1786  -28.3770   19.8915 N   0  0  0  0  0  0  0  0  0  0  0  0
  -25.1341  -20.4847   17.6711 N   0  0  0  0  0  0  0  0  0  0  0  0
  -20.4772  -26.5808   16.7687 N   0  3  0  0  0  0  0  0  0  0  0  0
  -21.2336  -15.3660   21.6118 O   0  0  0  0  0  0  0  0  0  0  0  0
  -23.6737  -30.8144   23.2536 O   0  0  0  0  0  0  0  0  0  0  0  0
  -20.9331  -31.0270   20.6769 O   0  0  0  0  0  0  0  0  0  0  0  0
  -21.4217  -26.4779   19.4170 O   0  0  0  0  0  0  0  0  0  0  0  0
  -26.0097  -20.5350   15.5527 O   0  0  0  0  0  0  0  0  0  0  0  0
  -25.7534   -9.0294   21.6866 O   0  0  0  0  0  0  0  0  0  0  0  0
  -28.0458  -26.4258   20.9887 O   0  0  0  0  0  0  0  0  0  1  0  0
  -21.8848   -5.3235   22.9920 F   0  0  0  0  0  0  0  0  0  0  0  0
  -25.6754   -6.5622   20.4419 F   0  0  0  0  0  0  0  0  0  0  0  0
  1  2  1  0  0  0  0
  1  5  2  0  0  0  0
  2  6  2  0  0  0  0
  3  8  2  0  0  0  0
  3 19  1  0  0  0  0
  4  9  1  0  0  0  0
  4 19  2  0  0  0  0
  5 21  1  0  0  0  0
  6 23  1  0  0  0  0
  7 10  2  0  0  0  0
  7 22  1  0  0  0  0
  8 28  1  0  0  0  0
  9 28  2  0  0  0  0
 10 29  1  0  0  0  0
 11 12  2  0  0  0  0
 11 30  1  0  0  0  0
 12 31  1  0  0  0  0
 13 24  1  0  0  0  0
 13 29  2  0  0  0  0
 14 25  1  0  0  0  0
 14 34  2  0  0  0  0
 15 25  2  0  0  0  0
 15 35  1  0  0  0  0
 16 26  1  0  0  0  0
 16 36  2  0  0  0  0
 17 31  2  0  0  0  0
 17 32  1  0  0  0  0
 18 27  1  0  0  0  0
 18 73  2  0  0  0  0
 19 33  1  0  0  0  0
 20 33  1  0  0  0  0
 20 37  2  0  0  0  0
 20 38  1  0  0  0  0
 21 23  2  0  0  0  0
 21 43  1  0  0  0  0
 22 24  2  0  0  0  0
 22 44  1  0  0  0  0
 23 52  1  0  0  0  0
 24 45  1  0  0  0  0
 25 55  1  0  0  0  0
 26 27  2  0  0  0  0
 26 63  1  0  0  0  0
 27 69  1  0  0  0  0
 28 90  1  0  0  0  0
 29 91  1  0  0  0  0
 30 32  2  0  0  0  0
 30 90  1  0  0  0  0
 31 92  1  0  0  0  0
 32 93  1  0  0  0  0
 33 74  2  0  0  0  0
 34 64  1  0  0  0  0
 34 75  1  0  0  0  0
 35 65  1  0  0  0  0
 35 75  2  0  0  0  0
 36 66  1  0  0  0  0
 36 73  1  0  0  0  0
 37 76  1  0  0  0  0
 37 79  1  0  0  0  0
 38 80  1  0  0  0  0
 38 85  2  0  0  0  0
 39 53  1  0  0  0  0
 39 81  1  0  0  0  0
 39 86  2  0  0  0  0
 40 70  1  0  0  0  0
 40 77  1  0  0  0  0
 40 87  2  0  0  0  0
 41 71  1  0  0  0  0
 41 82  1  0  0  0  0
 41 88  2  0  0  0  0
 42 78  1  0  0  0  0
 42 83  1  0  0  0  0
 42 89  2  0  0  0  0
 43 46  1  0  0  0  0
 44 53  1  0  0  0  0
 45 77  1  0  0  0  0
 46 48  1  0  0  0  0
 47 49  1  0  0  0  0
 47 50  1  0  0  0  0
 48 52  1  0  0  0  0
 49 54  1  0  0  0  0
 50 78  1  0  0  0  0
 51 54  1  0  0  0  0
 51 78  1  0  0  0  0
 52 81  1  0  0  0  0
 53 77  1  0  0  0  0
 54 76  1  0  0  0  0
 56 67  1  0  0  0  0
 57 69  1  0  0  0  0
 58 71  1  0  0  0  0
 59 72  1  0  0  0  0
 60 72  1  0  0  0  0
 61 72  1  0  0  0  0
 62 84  1  0  0  0  0
 63 64  1  0  0  0  0
 65 67  1  0  0  0  0
 66 83  1  0  0  0  0
 68 69  1  0  0  0  0
 68 91  1  0  0  0  0
 70 72  1  0  0  0  0
 70 82  1  0  0  0  0
 71 84  1  0  0  0  0
 74 76  1  0  0  0  0
M  CHG  1  84   1
M  ISO  4  42 100  68 101  83 100  91 101
M  END
> <Batch ID>
0091

> <Smiles>
CCCc1cc(C)cc(CCc2cc(C[100NH:0][100C:0](=O)N3CCCC(n4nc(-c5ccc(Oc6ccc(F)cc6F)cc5)c(C(N)=O)c4N)C3)ncc2C(C)[101CH2:1][101O:1]c2ccc3c(c2)CN(C(=O)C(NC(=O)C(C)NC)C(C)(C)C)C(C(=O)NC2CCCc4ccccc42)C3)n1

> <Shape>
0.287

> <Color>
0.066

> <Negative vol penalty>
0.000

$$$$

  -OEChem-04052319113D

 84 92  0     1  0  0  0  0  0999 V2000
  -27.8218  -23.3803   18.8722 C   0  0  0  0  0  0  0  0  0  0  0  0
  -26.6058  -23.8284   19.3779 C   0  0  0  0  0  0  0  0  0  0  0  0
  -28.0862  -14.6635   21.1969 C   0  0  0  0  0  0  0  0  0  0  0  0
  -26.1643  -15.4751   19.9784 C   0  0  0  0  0  0  0  0  0  0  0  0
  -29.0168  -23.8763   19.3917 C   0  0  0  0  0  0  0  0  0  0  0  0
  -26.5840  -24.7721   20.4043 C   0  0  0  0  0  0  0  0  0  0  0  0
  -23.1968  -28.4480   19.5923 C   0  0  0  0  0  0  0  0  0  0  0  0
  -27.5526  -13.3749   21.1803 C   0  0  0  0  0  0  0  0  0  0  0  0
  -25.6307  -14.1864   19.9617 C   0  0  0  0  0  0  0  0  0  0  0  0
  -21.8593  -28.1493   19.8484 C   0  0  0  0  0  0  0  0  0  0  0  0
  -26.0866  -11.3259   18.2211 C   0  0  0  0  0  0  0  0  0  0  0  0
  -25.5556  -10.8615   17.0178 C   0  0  0  0  0  0  0  0  0  0  0  0
  -22.0212  -29.2759   21.9753 C   0  0  0  0  0  0  0  0  0  0  0  0
  -20.8450  -24.6861   22.6279 C   0  0  0  0  0  0  0  0  0  0  0  0
  -23.4025  -10.5794   18.0768 C   0  0  0  0  0  0  0  0  0  0  0  0
  -20.2843  -26.5925   23.9348 C   0  0  0  0  0  0  0  0  0  0  0  0
  -27.3920  -15.7136   20.5960 C   0  0  0  0  0  0  0  0  0  0  0  0
  -28.7949  -17.6252   19.6549 C   0  0  0  0  0  0  0  0  0  0  0  0
  -29.0096  -24.8337   20.4183 C   0  0  0  0  0  0  0  0  0  0  0  0
  -23.9609  -29.1546   20.5322 C   0  0  0  0  0  0  0  0  0  0  0  0
  -27.7801  -25.2804   20.9390 C   0  0  0  0  0  0  0  0  0  0  0  0
  -23.3675  -29.5845   21.7277 C   0  0  0  0  0  0  0  0  0  0  0  0
  -20.0444  -25.8067   22.8191 C   0  0  0  0  0  0  0  0  0  0  0  0
  -21.8470  -24.3897   23.5452 C   0  0  0  0  0  0  0  0  0  0  0  0
  -26.3249  -13.1363   20.5627 C   0  0  0  0  0  0  0  0  0  0  0  0
  -21.2721  -28.5607   21.0413 C   0  0  0  0  0  0  0  0  0  0  0  0
  -25.2756  -11.4170   19.3523 C   0  0  0  0  0  0  0  0  0  0  0  0
  -24.2136  -10.4883   16.9456 C   0  0  0  0  0  0  0  0  0  0  0  0
  -23.9335  -11.0438   19.2801 C   0  0  0  0  0  0  0  0  0  0  0  0
  -27.9425  -17.0451   20.6134 C   0  0  0  0  0  0  0  0  0  0  0  0
  -22.0064  -25.2391   24.6283 C   0  0  0  0  0  0  0  0  0  0  0  0
  -29.0300  -18.8933   20.1271 C   0  0  0  0  0  0  0  0  0  0  0  0
  -29.3266  -17.0676   18.4457 C   0  0  0  0  0  0  0  0  0  0  0  0
  -26.5663  -28.5193   22.2385 C   0  0  0  0  0  0  0  0  0  0  0  0
  -26.2915  -31.6359   23.0952 C   0  0  0  0  0  0  0  0  0  0  0  0
  -24.2837  -34.3685   23.4804 C   0  0  0  0  0  0  0  0  0  0  0  0
  -25.9469  -22.5334   23.7460 C   0  0  0  0  0  0  0  0  0  0  0  0
  -30.3273  -25.3054   20.9803 C   0  0  0  0  0  0  0  0  0  0  0  0
  -25.3950  -29.4922   20.2292 C   0  0  0  0  0  0  0  0  0  0  0  0
  -24.1388  -30.3635   22.7605 C   0  0  0  0  0  0  0  0  0  0  0  0
  -30.2137  -26.5815   21.8103 C   0  0  0  0  0  0  0  0  0  0  0  0
  -29.2850  -21.3831   24.2047 C   0  0  0  0  0  0  0  0  0  0  0  0
  -29.0436  -26.4827   22.7839 C   0  0  0  0  0  0  0  0  0  0  0  0
  -29.3964  -20.1932   23.2498 C   0  0  0  0  0  0  0  0  0  0  0  0
  -27.8987  -21.4697   24.8393 C   0  0  0  0  0  0  0  0  0  0  0  0
  -26.8896  -20.2896   22.9255 C   0  0  0  0  0  0  0  0  0  0  0  0
  -27.7150  -26.3216   22.0352 C   0  0  1  0  0  0  0  0  0  0  0  0
  -26.2208  -29.7703   21.4815 C   0  0  1  0  0  0  0  0  0  0  0  0
  -28.2522  -20.1931   22.2183 C   0  0  2  0  0  0  0  0  0  0  0  0
  -23.0672  -24.9707   25.6453 C   0  0  0  0  0  0  0  0  0  0  0  0
  -21.9377  -22.0311   22.6778 C   0  0  0  0  0  0  0  0  0  0  0  0
  -24.3368  -36.7613   24.2346 C   0  0  0  0  0  0  0  0  0  0  0  0
  -18.3077  -27.4480   19.7754 C   0  0  0  0  0  0  0  0  0  0  0  0
  -26.3827  -30.7150   26.0027 C   0  0  0  0  0  0  0  0  0  0  0  0
  -25.4931  -32.9586   26.6684 C   0  0  0  0  0  0  0  0  0  0  0  0
  -27.7018  -32.7846   25.5221 C   0  0  0  0  0  0  0  0  0  0  0  0
  -23.4381  -35.3474   20.8186 C   0  0  0  0  0  0  0  0  0  0  0  0
  -18.9480  -26.1571   21.8410 C   0  0  0  0  0  0  0  0  0  0  0  0
  -23.9959  -23.4798   22.5389 C   0  0  0  0  0  0  0  0  0  0  0  0
  -22.7072  -23.1897   23.3473 C   0  0  1  0  0  0  0  0  0  0  0  0
  -25.5844  -32.3825   24.2004 C   0  0  1  0  0  0  0  0  0  0  0  0
  -24.4568  -35.8142   23.0508 C   0  0  2  0  0  0  0  0  0  0  0  0
  -19.4447  -27.0735   20.7176 C   0  0  2  0  0  0  0  0  0  1  0  0
  -26.2762  -32.1938   25.5800 C   0  0  0  0  0  0  0  0  0  0  0  0
  -21.2482  -26.3367   24.8476 N   0  0  0  0  0  0  0  0  0  0  0  0
  -27.6556  -17.8765   21.6187 N   0  0  0  0  0  0  0  0  0  0  0  0
  -28.3316  -18.9918   21.2945 N   0  0  0  0  0  0  0  0  0  0  0  0
  -25.5395  -30.6635   22.4208 N   0  0  0  0  0  0  0  0  0  0  0  0
  -26.8591  -21.4670   23.8073 N   0  0  0  0  0  0  0  0  0  0  0  0
  -29.7639  -19.9226   19.6536 N   0  0  0  0  0  0  0  0  0  0  0  0
  -28.9841  -15.7506   18.1102 N   0  0  0  0  0  0  0  0  0  0  0  0
  -27.2789  -27.5937   21.5003 N   0  0  0  0  0  0  0  0  0  0  0  0
  -25.4941  -33.7711   23.7622 N   0  0  0  0  0  0  0  0  0  0  0  0
  -24.9979  -22.4557   22.7340 N   0  0  0  0  0  0  0  0  0  0  0  0
  -23.4198  -36.1837   22.0463 N   0  3  0  0  0  0  0  0  0  0  0  0
  -30.0962  -17.7123   17.6937 O   0  0  0  0  0  0  0  0  0  0  0  0
  -26.2139  -28.4031   23.4065 O   0  0  0  0  0  0  0  0  0  0  0  0
  -27.4656  -31.9105   22.8349 O   0  0  0  0  0  0  0  0  0  0  0  0
  -23.1845  -33.8247   23.5617 O   0  0  0  0  0  0  0  0  0  0  0  0
  -25.9794  -23.4869   24.5313 O   0  0  0  0  0  0  0  0  0  0  0  0
  -25.8040  -11.8789   20.5460 O   0  0  0  0  0  0  0  0  0  0  0  0
  -19.9669  -28.2699   21.2941 O   0  0  0  0  0  0  0  0  0  1  0  0
  -23.7034  -10.0438   15.7896 F   0  0  0  0  0  0  0  0  0  0  0  0
  -23.1491  -11.1302   20.3632 F   0  0  0  0  0  0  0  0  0  0  0  0
  1  2  1  0  0  0  0
  1  5  2  0  0  0  0
  2  6  2  0  0  0  0
  3  8  2  0  0  0  0
  3 17  1  0  0  0  0
  4  9  1  0  0  0  0
  4 17  2  0  0  0  0
  5 19  1  0  0  0  0
  6 21  1  0  0  0  0
  7 10  2  0  0  0  0
  7 20  1  0  0  0  0
  8 25  1  0  0  0  0
  9 25  2  0  0  0  0
 10 26  1  0  0  0  0
 11 12  2  0  0  0  0
 11 27  1  0  0  0  0
 12 28  1  0  0  0  0
 13 22  1  0  0  0  0
 13 26  2  0  0  0  0
 14 23  2  0  0  0  0
 14 24  1  0  0  0  0
 15 28  2  0  0  0  0
 15 29  1  0  0  0  0
 16 23  1  0  0  0  0
 16 65  2  0  0  0  0
 17 30  1  0  0  0  0
 18 30  1  0  0  0  0
 18 32  2  0  0  0  0
 18 33  1  0  0  0  0
 19 21  2  0  0  0  0
 19 38  1  0  0  0  0
 20 22  2  0  0  0  0
 20 39  1  0  0  0  0
 21 47  1  0  0  0  0
 22 40  1  0  0  0  0
 23 58  1  0  0  0  0
 24 31  2  0  0  0  0
 24 60  1  0  0  0  0
 25 81  1  0  0  0  0
 26 82  1  0  0  0  0
 27 29  2  0  0  0  0
 27 81  1  0  0  0  0
 28 83  1  0  0  0  0
 29 84  1  0  0  0  0
 30 66  2  0  0  0  0
 31 50  1  0  0  0  0
 31 65  1  0  0  0  0
 32 67  1  0  0  0  0
 32 70  1  0  0  0  0
 33 71  1  0  0  0  0
 33 76  2  0  0  0  0
 34 48  1  0  0  0  0
 34 72  1  0  0  0  0
 34 77  2  0  0  0  0
 35 61  1  0  0  0  0
 35 68  1  0  0  0  0
 35 78  2  0  0  0  0
 36 62  1  0  0  0  0
 36 73  1  0  0  0  0
 36 79  2  0  0  0  0
 37 69  1  0  0  0  0
 37 74  1  0  0  0  0
 37 80  2  0  0  0  0
 38 41  1  0  0  0  0
 39 48  1  0  0  0  0
 40 68  1  0  0  0  0
 41 43  1  0  0  0  0
 42 44  1  0  0  0  0
 42 45  1  0  0  0  0
 43 47  1  0  0  0  0
 44 49  1  0  0  0  0
 45 69  1  0  0  0  0
 46 49  1  0  0  0  0
 46 69  1  0  0  0  0
 47 72  1  0  0  0  0
 48 68  1  0  0  0  0
 49 67  1  0  0  0  0
 51 60  1  0  0  0  0
 52 62  1  0  0  0  0
 53 63  1  0  0  0  0
 54 64  1  0  0  0  0
 55 64  1  0  0  0  0
 56 64  1  0  0  0  0
 57 75  1  0  0  0  0
 58 63  1  0  0  0  0
 59 60  1  0  0  0  0
 59 74  1  0  0  0  0
 61 64  1  0  0  0  0
 61 73  1  0  0  0  0
 62 75  1  0  0  0  0
 63 82  1  0  0  0  0
 66 67  1  0  0  0  0
M  CHG  1  75   1
M  ISO  4  37 100  63 101  74 100  82 101
M  END
> <Batch ID>
0091

> <Smiles>
CNC(C)C(=O)NC(C(=O)N1Cc2cc([101O:1][101CH:1](C)Cc3cnc(C)c(C(C)C[100NH:0][100C:0](=O)N4CCCC(n5nc(-c6ccc(Oc7ccc(F)cc7F)cc6)c(C(N)=O)c5N)C4)c3)ccc2CC1C(=O)NC1CCCc2ccccc21)C(C)(C)C

> <Shape>
0.270

> <Color>
0.067

> <Negative vol penalty>
0.000

$$$$

  -OEChem-04052319113D

 87 95  0     1  0  0  0  0  0999 V2000
  -29.9067  -28.8847   21.7716 C   0  0  0  0  0  0  0  0  0  0  0  0
  -29.4534  -27.9293   22.6756 C   0  0  0  0  0  0  0  0  0  0  0  0
  -23.2883   -9.7934   19.9125 C   0  0  0  0  0  0  0  0  0  0  0  0
  -23.7239   -9.9402   22.2844 C   0  0  0  0  0  0  0  0  0  0  0  0
  -30.9377  -28.5716   20.8867 C   0  0  0  0  0  0  0  0  0  0  0  0
  -30.0301  -26.6599   22.6945 C   0  0  0  0  0  0  0  0  0  0  0  0
  -31.6674  -21.3383   27.2019 C   0  0  0  0  0  0  0  0  0  0  0  0
  -22.5575   -8.6235   20.1190 C   0  0  0  0  0  0  0  0  0  0  0  0
  -22.9930   -8.7703   22.4910 C   0  0  0  0  0  0  0  0  0  0  0  0
  -31.4887  -19.9643   27.3563 C   0  0  0  0  0  0  0  0  0  0  0  0
  -19.7421   -7.8686   22.6897 C   0  0  0  0  0  0  0  0  0  0  0  0
  -18.8327   -7.8526   23.7472 C   0  0  0  0  0  0  0  0  0  0  0  0
  -33.3169  -19.5615   25.8349 C   0  0  0  0  0  0  0  0  0  0  0  0
  -31.9798  -15.4347   24.4323 C   0  0  0  0  0  0  0  0  0  0  0  0
  -20.0270   -6.0053   24.7463 C   0  0  0  0  0  0  0  0  0  0  0  0
  -23.8716  -10.4518   20.9951 C   0  0  0  0  0  0  0  0  0  0  0  0
  -24.1391  -12.9805   20.7904 C   0  0  0  0  0  0  0  0  0  0  0  0
  -31.5339  -27.3008   20.9013 C   0  0  0  0  0  0  0  0  0  0  0  0
  -32.6669  -21.8351   26.3529 C   0  0  0  0  0  0  0  0  0  0  0  0
  -31.0691  -26.3291   21.8081 C   0  0  0  0  0  0  0  0  0  0  0  0
  -33.5079  -20.9423   25.6734 C   0  0  0  0  0  0  0  0  0  0  0  0
  -30.7960  -15.9309   24.9669 C   0  0  0  0  0  0  0  0  0  0  0  0
  -29.8176  -16.4409   24.1208 C   0  0  0  0  0  0  0  0  0  0  0  0
  -22.4098   -8.1119   21.4083 C   0  0  0  0  0  0  0  0  0  0  0  0
  -32.3116  -19.0756   26.6706 C   0  0  0  0  0  0  0  0  0  0  0  0
  -20.7939   -6.9528   22.6604 C   0  0  0  0  0  0  0  0  0  0  0  0
  -18.9751   -6.9210   24.7755 C   0  0  0  0  0  0  0  0  0  0  0  0
  -20.9364   -6.0212   23.6888 C   0  0  0  0  0  0  0  0  0  0  0  0
  -24.6272  -11.6600   20.7823 C   0  0  0  0  0  0  0  0  0  0  0  0
  -32.1351  -15.4709   23.0560 C   0  0  0  0  0  0  0  0  0  0  0  0
  -30.0698  -16.4322   22.7584 C   0  0  0  0  0  0  0  0  0  0  0  0
  -25.2443  -13.7566   20.5403 C   0  0  0  0  0  0  0  0  0  0  0  0
  -22.8059  -13.4623   21.0049 C   0  0  0  0  0  0  0  0  0  0  0  0
  -32.6925  -23.6158   23.7200 C   0  0  0  0  0  0  0  0  0  0  0  0
  -35.9070  -23.4951   24.1384 C   0  0  0  0  0  0  0  0  0  0  0  0
  -38.5978  -21.8610   25.4560 C   0  0  0  0  0  0  0  0  0  0  0  0
  -30.9947  -12.8434   21.5169 C   0  0  0  0  0  0  0  0  0  0  0  0
  -32.6132  -26.9937   19.8936 C   0  0  0  0  0  0  0  0  0  0  0  0
  -32.8642  -23.3201   26.2178 C   0  0  0  0  0  0  0  0  0  0  0  0
  -34.6088  -21.4247   24.7657 C   0  0  0  0  0  0  0  0  0  0  0  0
  -33.4249  -25.7458   20.2317 C   0  0  0  0  0  0  0  0  0  0  0  0
  -29.4845  -13.6313   18.3238 C   0  0  0  0  0  0  0  0  0  0  0  0
  -32.5004  -24.5979   20.6247 C   0  0  0  0  0  0  0  0  0  0  0  0
  -28.0098  -13.3360   18.6037 C   0  0  0  0  0  0  0  0  0  0  0  0
  -30.3927  -12.6291   19.0301 C   0  0  0  0  0  0  0  0  0  0  0  0
  -28.7057  -12.2391   20.7838 C   0  0  0  0  0  0  0  0  0  0  0  0
  -31.6862  -24.9490   21.8759 C   0  0  1  0  0  0  0  0  0  0  0  0
  -33.5795  -23.7130   24.9289 C   0  0  1  0  0  0  0  0  0  0  0  0
  -27.7365  -13.2314   20.1158 C   0  0  2  0  0  0  0  0  0  0  0  0
  -29.0561  -16.9653   21.7993 C   0  0  0  0  0  0  0  0  0  0  0  0
  -41.1002  -21.9828   25.5989 C   0  0  0  0  0  0  0  0  0  0  0  0
  -24.9415  -15.4379   24.8055 C   0  0  0  0  0  0  0  0  0  0  0  0
  -26.1172  -16.8020   26.5426 C   0  0  0  0  0  0  0  0  0  0  0  0
  -36.1175  -22.4912   21.2647 C   0  0  0  0  0  0  0  0  0  0  0  0
  -38.4522  -21.7422   21.7712 C   0  0  0  0  0  0  0  0  0  0  0  0
  -37.8611  -24.1613   21.9167 C   0  0  0  0  0  0  0  0  0  0  0  0
  -38.5342  -22.0866   28.4063 C   0  0  0  0  0  0  0  0  0  0  0  0
  -30.6000  -15.9071   26.4633 C   0  0  0  0  0  0  0  0  0  0  0  0
  -28.5369  -16.9777   24.6657 C   0  0  0  0  0  0  0  0  0  0  0  0
  -33.3921  -14.9456   22.4469 C   0  0  0  0  0  0  0  0  0  0  0  0
  -27.3697  -15.9917   24.4729 C   0  0  0  0  0  0  0  0  0  0  0  0
  -33.3283  -13.4540   22.0987 C   0  0  0  0  0  0  0  0  0  0  0  0
  -30.8164  -17.2764   27.0984 C   0  0  0  0  0  0  0  0  0  1  0  0
  -37.0099  -22.5687   23.6862 C   0  0  1  0  0  0  0  0  0  0  0  0
  -39.7841  -22.3599   26.2611 C   0  0  2  0  0  0  0  0  0  0  0  0
  -26.0298  -16.4866   25.0487 C   0  0  0  0  0  0  0  0  0  0  0  0
  -37.3383  -22.7314   22.1752 C   0  0  0  0  0  0  0  0  0  0  0  0
  -25.9402  -11.5971   20.5456 N   0  0  0  0  0  0  0  0  0  0  0  0
  -31.2073  -15.9585   22.2022 N   0  0  0  0  0  0  0  0  0  0  0  0
  -26.2865  -12.8877   20.4026 N   0  0  0  0  0  0  0  0  0  0  0  0
  -34.7578  -22.8857   24.6616 N   0  0  0  0  0  0  0  0  0  0  0  0
  -30.0941  -12.5916   20.4686 N   0  0  0  0  0  0  0  0  0  0  0  0
  -25.4165  -15.0907   20.4268 N   0  0  0  0  0  0  0  0  0  0  0  0
  -21.7892  -12.5289   21.2486 N   0  0  0  0  0  0  0  0  0  0  0  0
  -32.5025  -24.8168   23.0636 N   0  0  0  0  0  0  0  0  0  0  0  0
  -38.1409  -22.8170   24.5737 N   0  0  0  0  0  0  0  0  0  0  0  0
  -32.2914  -13.1635   21.1336 N   0  0  0  0  0  0  0  0  0  0  0  0
  -39.7629  -21.7749   27.6316 N   0  3  0  0  0  0  0  0  0  0  0  0
  -22.5215  -14.6834   20.9649 O   0  0  0  0  0  0  0  0  0  0  0  0
  -32.2170  -22.5311   23.4051 O   0  0  0  0  0  0  0  0  0  0  0  0
  -36.0624  -24.7146   24.0379 O   0  0  0  0  0  0  0  0  0  0  0  0
  -38.1260  -20.7344   25.5934 O   0  0  0  0  0  0  0  0  0  0  0  0
  -30.6663  -12.7921   22.7071 O   0  0  0  0  0  0  0  0  0  0  0  0
  -21.6964   -6.9705   21.6103 O   0  0  0  0  0  0  0  0  0  0  0  0
  -32.1388  -17.7340   26.8190 O   0  0  0  0  0  0  0  0  0  1  0  0
  -18.1027   -6.9068   25.7917 F   0  0  0  0  0  0  0  0  0  0  0  0
  -21.9455   -5.1398   23.6667 F   0  0  0  0  0  0  0  0  0  0  0  0
  1  2  1  0  0  0  0
  1  5  2  0  0  0  0
  2  6  2  0  0  0  0
  3  8  2  0  0  0  0
  3 16  1  0  0  0  0
  4  9  1  0  0  0  0
  4 16  2  0  0  0  0
  5 18  1  0  0  0  0
  6 20  1  0  0  0  0
  7 10  2  0  0  0  0
  7 19  1  0  0  0  0
  8 24  1  0  0  0  0
  9 24  2  0  0  0  0
 10 25  1  0  0  0  0
 11 12  2  0  0  0  0
 11 26  1  0  0  0  0
 12 27  1  0  0  0  0
 13 21  1  0  0  0  0
 13 25  2  0  0  0  0
 14 22  1  0  0  0  0
 14 30  2  0  0  0  0
 15 27  2  0  0  0  0
 15 28  1  0  0  0  0
 16 29  1  0  0  0  0
 17 29  1  0  0  0  0
 17 32  2  0  0  0  0
 17 33  1  0  0  0  0
 18 20  2  0  0  0  0
 18 38  1  0  0  0  0
 19 21  2  0  0  0  0
 19 39  1  0  0  0  0
 20 47  1  0  0  0  0
 21 40  1  0  0  0  0
 22 23  2  0  0  0  0
 22 58  1  0  0  0  0
 23 31  1  0  0  0  0
 23 59  1  0  0  0  0
 24 84  1  0  0  0  0
 25 85  1  0  0  0  0
 26 28  2  0  0  0  0
 26 84  1  0  0  0  0
 27 86  1  0  0  0  0
 28 87  1  0  0  0  0
 29 68  2  0  0  0  0
 30 60  1  0  0  0  0
 30 69  1  0  0  0  0
 31 50  1  0  0  0  0
 31 69  2  0  0  0  0
 32 70  1  0  0  0  0
 32 73  1  0  0  0  0
 33 74  1  0  0  0  0
 33 79  2  0  0  0  0
 34 48  1  0  0  0  0
 34 75  1  0  0  0  0
 34 80  2  0  0  0  0
 35 64  1  0  0  0  0
 35 71  1  0  0  0  0
 35 81  2  0  0  0  0
 36 65  1  0  0  0  0
 36 76  1  0  0  0  0
 36 82  2  0  0  0  0
 37 72  1  0  0  0  0
 37 77  1  0  0  0  0
 37 83  2  0  0  0  0
 38 41  1  0  0  0  0
 39 48  1  0  0  0  0
 40 71  1  0  0  0  0
 41 43  1  0  0  0  0
 42 44  1  0  0  0  0
 42 45  1  0  0  0  0
 43 47  1  0  0  0  0
 44 49  1  0  0  0  0
 45 72  1  0  0  0  0
 46 49  1  0  0  0  0
 46 72  1  0  0  0  0
 47 75  1  0  0  0  0
 48 71  1  0  0  0  0
 49 70  1  0  0  0  0
 51 65  1  0  0  0  0
 52 66  1  0  0  0  0
 53 66  1  0  0  0  0
 54 67  1  0  0  0  0
 55 67  1  0  0  0  0
 56 67  1  0  0  0  0
 57 78  1  0  0  0  0
 58 63  1  0  0  0  0
 59 61  1  0  0  0  0
 60 62  1  0  0  0  0
 61 66  1  0  0  0  0
 62 77  1  0  0  0  0
 63 85  1  0  0  0  0
 64 67  1  0  0  0  0
 64 76  1  0  0  0  0
 65 78  1  0  0  0  0
 68 70  1  0  0  0  0
M  CHG  1  78   1
M  ISO  4  37 100  63 101  77 100  85 101
M  END
> <Batch ID>
0091

> <Smiles>
CNC(C)C(=O)NC(C(=O)N1Cc2cc([101O:1][101CH2:1]Cc3cc(CC[100NH:0][100C:0](=O)N4CCCC(n5nc(-c6ccc(Oc7ccc(F)cc7F)cc6)c(C(N)=O)c5N)C4)nc(C)c3CCC(C)C)ccc2CC1C(=O)NC1CCCc2ccccc21)C(C)(C)C

> <Shape>
0.171

> <Color>
0.173

> <Negative vol penalty>
0.000

$$$$

  -OEChem-04052319113D

 88 96  0     1  0  0  0  0  0999 V2000
  -17.1761  -16.2079   24.7391 C   0  0  0  0  0  0  0  0  0  0  0  0
  -18.3155  -15.7511   24.0846 C   0  0  0  0  0  0  0  0  0  0  0  0
  -23.5049  -29.8343   21.2614 C   0  0  0  0  0  0  0  0  0  0  0  0
  -25.7917  -30.1062   21.9919 C   0  0  0  0  0  0  0  0  0  0  0  0
  -16.2034  -16.9138   24.0323 C   0  0  0  0  0  0  0  0  0  0  0  0
  -18.4825  -15.9990   22.7226 C   0  0  0  0  0  0  0  0  0  0  0  0
  -23.1629  -17.5682   21.5930 C   0  0  0  0  0  0  0  0  0  0  0  0
  -23.1175  -30.8958   22.0790 C   0  0  0  0  0  0  0  0  0  0  0  0
  -25.4043  -31.1678   22.8095 C   0  0  0  0  0  0  0  0  0  0  0  0
  -24.1623  -16.5980   21.5315 C   0  0  0  0  0  0  0  0  0  0  0  0
  -24.6590  -34.4442   22.4488 C   0  0  0  0  0  0  0  0  0  0  0  0
  -25.4495  -35.5933   22.4345 C   0  0  0  0  0  0  0  0  0  0  0  0
  -23.9868  -16.5783   19.1257 C   0  0  0  0  0  0  0  0  0  0  0  0
  -25.8701  -35.3334   24.7994 C   0  0  0  0  0  0  0  0  0  0  0  0
  -28.8062  -18.0989   20.9825 C   0  0  0  0  0  0  0  0  0  0  0  0
  -24.8421  -29.4394   21.2178 C   0  0  0  0  0  0  0  0  0  0  0  0
  -25.6634  -28.4119   19.0321 C   0  0  0  0  0  0  0  0  0  0  0  0
  -16.3631  -17.1788   22.6630 C   0  0  0  0  0  0  0  0  0  0  0  0
  -22.5593  -18.0436   20.4199 C   0  0  0  0  0  0  0  0  0  0  0  0
  -17.5104  -16.7079   21.9965 C   0  0  0  0  0  0  0  0  0  0  0  0
  -22.9818  -17.5564   19.1748 C   0  0  0  0  0  0  0  0  0  0  0  0
  -24.0671  -31.5626   22.8531 C   0  0  0  0  0  0  0  0  0  0  0  0
  -24.5724  -16.1008   20.2980 C   0  0  0  0  0  0  0  0  0  0  0  0
  -24.4739  -33.7398   23.6385 C   0  0  0  0  0  0  0  0  0  0  0  0
  -26.0551  -36.0379   23.6098 C   0  0  0  0  0  0  0  0  0  0  0  0
  -25.0795  -34.1843   24.8137 C   0  0  0  0  0  0  0  0  0  0  0  0
  -25.2428  -28.3426   20.3738 C   0  0  0  0  0  0  0  0  0  0  0  0
  -29.5305  -18.8451   20.0962 C   0  0  0  0  0  0  0  0  0  0  0  0
  -25.9292  -27.1091   18.6878 C   0  0  0  0  0  0  0  0  0  0  0  0
  -30.8346  -17.2223   20.8490 C   0  0  0  0  0  0  0  0  0  0  0  0
  -25.8015  -29.5520   18.1738 C   0  0  0  0  0  0  0  0  0  0  0  0
  -19.6042  -18.0196   19.2491 C   0  0  0  0  0  0  0  0  0  0  0  0
  -20.9218  -19.8777   16.9396 C   0  0  0  0  0  0  0  0  0  0  0  0
  -23.7216  -20.8409   15.2425 C   0  0  0  0  0  0  0  0  0  0  0  0
  -28.2411  -22.2739   19.7934 C   0  0  0  0  0  0  0  0  0  0  0  0
  -15.2623  -17.9048   21.9310 C   0  0  0  0  0  0  0  0  0  0  0  0
  -21.5014  -19.1097   20.5015 C   0  0  0  0  0  0  0  0  0  0  0  0
  -22.3799  -18.0486   17.8849 C   0  0  0  0  0  0  0  0  0  0  0  0
  -15.6918  -18.4504   20.5715 C   0  0  0  0  0  0  0  0  0  0  0  0
  -24.9101  -22.7873   21.1116 C   0  0  0  0  0  0  0  0  0  0  0  0
  -16.4588  -17.3895   19.7885 C   0  0  0  0  0  0  0  0  0  0  0  0
  -24.7374  -24.2955   20.9230 C   0  0  0  0  0  0  0  0  0  0  0  0
  -26.3410  -22.4405   21.5122 C   0  0  0  0  0  0  0  0  0  0  0  0
  -27.2121  -24.4502   20.3827 C   0  0  0  0  0  0  0  0  0  0  0  0
  -17.7393  -16.9784   20.5253 C   0  0  1  0  0  0  0  0  0  0  0  0
  -20.5959  -19.1482   19.2743 C   0  0  1  0  0  0  0  0  0  0  0  0
  -25.7922  -24.8635   19.9549 C   0  0  2  0  0  0  0  0  0  0  0  0
  -33.0129  -17.6985   22.9948 C   0  0  0  0  0  0  0  0  0  0  0  0
  -32.4193  -15.6146   19.7560 C   0  0  0  0  0  0  0  0  0  0  0  0
  -24.4778  -22.3483   13.3842 C   0  0  0  0  0  0  0  0  0  0  0  0
  -27.6890  -13.1644   20.2747 C   0  0  0  0  0  0  0  0  0  0  0  0
  -19.7914  -17.9174   14.8927 C   0  0  0  0  0  0  0  0  0  0  0  0
  -21.3392  -18.9082   13.1925 C   0  0  0  0  0  0  0  0  0  0  0  0
  -19.5838  -20.3267   14.2551 C   0  0  0  0  0  0  0  0  0  0  0  0
  -25.4849  -22.3808   17.0531 C   0  0  0  0  0  0  0  0  0  0  0  0
  -33.2667  -17.0898   21.6210 C   0  0  0  0  0  0  0  0  0  0  0  0
  -28.9986  -14.6589   21.8038 C   0  0  0  0  0  0  0  0  0  0  0  0
  -29.2544  -16.0370   22.4296 C   0  0  0  0  0  0  0  0  0  0  0  0
  -28.5893  -19.6738   17.9157 C   0  0  0  0  0  0  0  0  0  0  0  0
  -26.5346  -15.1681   21.2654 C   0  0  0  0  0  0  0  0  0  1  0  0
  -29.1733  -20.0264   19.3066 C   0  0  1  0  0  0  0  0  0  0  0  0
  -32.0189  -16.3518   21.0548 C   0  0  1  0  0  0  0  0  0  0  0  0
  -21.5950  -19.6184   15.6135 C   0  0  1  0  0  0  0  0  0  0  0  0
  -24.2591  -22.2143   14.8832 C   0  0  2  0  0  0  0  0  0  0  0  0
  -27.8690  -14.6113   20.7514 C   0  0  2  0  0  0  0  0  0  0  0  0
  -20.5875  -19.1818   14.5127 C   0  0  0  0  0  0  0  0  0  0  0  0
  -25.2399  -27.0944   20.8494 N   0  0  0  0  0  0  0  0  0  0  0  0
  -29.6376  -17.1016   21.4322 N   0  0  0  0  0  0  0  0  0  0  0  0
  -25.6618  -26.3675   19.8008 N   0  0  0  0  0  0  0  0  0  0  0  0
  -30.7816  -18.2803   20.0334 N   0  3  0  0  0  0  0  0  0  0  0  0
  -21.3446  -19.0869   18.0174 N   0  0  0  0  0  0  0  0  0  0  0  0
  -27.2940  -22.9942   20.5400 N   0  0  0  0  0  0  0  0  0  0  0  0
  -26.3631  -26.5370   17.5447 N   0  0  0  0  0  0  0  0  0  0  0  0
  -25.4861  -30.8173   18.6877 N   0  0  0  0  0  0  0  0  0  0  0  0
  -18.7680  -17.9808   20.3485 N   0  0  0  0  0  0  0  0  0  0  0  0
  -22.3437  -20.8286   15.2923 N   0  0  0  0  0  0  0  0  0  0  0  0
  -28.2585  -20.9008   20.0061 N   0  0  0  0  0  0  0  0  0  0  0  0
  -27.3331  -18.8908   18.0405 N   0  3  0  0  0  0  0  0  0  0  0  0
  -25.5583  -22.4584   15.5713 N   0  3  0  0  0  0  0  0  0  0  0  0
  -26.1773  -29.4499   16.9814 O   0  0  0  0  0  0  0  0  0  0  0  0
  -19.5972  -17.2425   18.3016 O   0  0  0  0  0  0  0  0  0  0  0  0
  -20.0578  -20.7546   17.0179 O   0  0  0  0  0  0  0  0  0  0  0  0
  -24.4510  -19.8745   15.4540 O   0  0  0  0  0  0  0  0  0  0  0  0
  -29.0113  -22.8138   18.9919 O   0  0  0  0  0  0  0  0  0  0  0  0
  -23.6894  -32.5987   23.6509 O   0  0  0  0  0  0  0  0  0  0  0  0
  -25.5472  -15.1533   20.2352 O   0  0  0  0  0  0  0  0  0  1  0  0
  -26.8155  -37.1405   23.5955 F   0  0  0  0  0  0  0  0  0  0  0  0
  -24.9064  -33.5111   25.9594 F   0  0  0  0  0  0  0  0  0  0  0  0
  1  2  1  0  0  0  0
  1  5  2  0  0  0  0
  2  6  2  0  0  0  0
  3  8  2  0  0  0  0
  3 16  1  0  0  0  0
  4  9  1  0  0  0  0
  4 16  2  0  0  0  0
  5 18  1  0  0  0  0
  6 20  1  0  0  0  0
  7 10  2  0  0  0  0
  7 19  1  0  0  0  0
  8 22  1  0  0  0  0
  9 22  2  0  0  0  0
 10 23  1  0  0  0  0
 11 12  2  0  0  0  0
 11 24  1  0  0  0  0
 12 25  1  0  0  0  0
 13 21  1  0  0  0  0
 13 23  2  0  0  0  0
 14 25  2  0  0  0  0
 14 26  1  0  0  0  0
 15 28  2  0  0  0  0
 15 68  1  0  0  0  0
 16 27  1  0  0  0  0
 17 27  1  0  0  0  0
 17 29  2  0  0  0  0
 17 31  1  0  0  0  0
 18 20  2  0  0  0  0
 18 36  1  0  0  0  0
 19 21  2  0  0  0  0
 19 37  1  0  0  0  0
 20 45  1  0  0  0  0
 21 38  1  0  0  0  0
 22 85  1  0  0  0  0
 23 86  1  0  0  0  0
 24 26  2  0  0  0  0
 24 85  1  0  0  0  0
 25 87  1  0  0  0  0
 26 88  1  0  0  0  0
 27 67  2  0  0  0  0
 28 61  1  0  0  0  0
 28 70  1  0  0  0  0
 29 69  1  0  0  0  0
 29 73  1  0  0  0  0
 30 62  1  0  0  0  0
 30 68  1  0  0  0  0
 30 70  2  0  0  0  0
 31 74  1  0  0  0  0
 31 80  2  0  0  0  0
 32 46  1  0  0  0  0
 32 75  1  0  0  0  0
 32 81  2  0  0  0  0
 33 63  1  0  0  0  0
 33 71  1  0  0  0  0
 33 82  2  0  0  0  0
 34 64  1  0  0  0  0
 34 76  1  0  0  0  0
 34 83  2  0  0  0  0
 35 72  1  0  0  0  0
 35 77  1  0  0  0  0
 35 84  2  0  0  0  0
 36 39  1  0  0  0  0
 37 46  1  0  0  0  0
 38 71  1  0  0  0  0
 39 41  1  0  0  0  0
 40 42  1  0  0  0  0
 40 43  1  0  0  0  0
 41 45  1  0  0  0  0
 42 47  1  0  0  0  0
 43 72  1  0  0  0  0
 44 47  1  0  0  0  0
 44 72  1  0  0  0  0
 45 75  1  0  0  0  0
 46 71  1  0  0  0  0
 47 69  1  0  0  0  0
 48 56  1  0  0  0  0
 49 62  1  0  0  0  0
 50 64  1  0  0  0  0
 51 65  1  0  0  0  0
 52 66  1  0  0  0  0
 53 66  1  0  0  0  0
 54 66  1  0  0  0  0
 55 79  1  0  0  0  0
 56 62  1  0  0  0  0
 57 58  1  0  0  0  0
 57 65  1  0  0  0  0
 58 68  1  0  0  0  0
 59 61  1  0  0  0  0
 59 78  1  0  0  0  0
 60 65  1  0  0  0  0
 60 86  1  0  0  0  0
 61 77  1  0  0  0  0
 63 66  1  0  0  0  0
 63 76  1  0  0  0  0
 64 79  1  0  0  0  0
 67 69  1  0  0  0  0
M  CHG  3  70   1  78   1  79   1
M  ISO  4  35 100  60 101  77 100  86 101
M  END
> <Batch ID>
0091

> <Smiles>
CCC(C)c1nc(C(CN)[100NH:0][100C:0](=O)N2CCCC(n3nc(-c4ccc(Oc5ccc(F)cc5F)cc4)c(C(N)=O)c3N)C2)cn1CCC(C)[101CH2:1][101O:1]c1ccc2c(c1)CN(C(=O)C(NC(=O)C(C)NC)C(C)(C)C)C(C(=O)NC1CCCc3ccccc31)C2

> <Shape>
0.194

> <Color>
0.058

> <Negative vol penalty>
0.000

$$$$

  -OEChem-04052319113D

 85 93  0     1  0  0  0  0  0999 V2000
  -34.8065  -13.8265   20.3274 C   0  0  0  0  0  0  0  0  0  0  0  0
  -33.8111  -14.7227   19.9513 C   0  0  0  0  0  0  0  0  0  0  0  0
  -24.6828  -30.5466   20.4809 C   0  0  0  0  0  0  0  0  0  0  0  0
  -24.2771  -28.9621   22.2590 C   0  0  0  0  0  0  0  0  0  0  0  0
  -34.5796  -12.4542   20.2324 C   0  0  0  0  0  0  0  0  0  0  0  0
  -32.5885  -14.2469   19.4788 C   0  0  0  0  0  0  0  0  0  0  0  0
  -28.6404  -16.6876   21.5037 C   0  0  0  0  0  0  0  0  0  0  0  0
  -24.4072  -31.5981   21.3550 C   0  0  0  0  0  0  0  0  0  0  0  0
  -24.0016  -30.0136   23.1331 C   0  0  0  0  0  0  0  0  0  0  0  0
  -28.3400  -17.9486   20.9903 C   0  0  0  0  0  0  0  0  0  0  0  0
  -26.0053  -33.2721   23.8200 C   0  0  0  0  0  0  0  0  0  0  0  0
  -26.8685  -34.3677   23.8087 C   0  0  0  0  0  0  0  0  0  0  0  0
  -26.5819  -16.9786   19.6532 C   0  0  0  0  0  0  0  0  0  0  0  0
  -24.2207  -20.8337   21.4041 C   0  0  0  0  0  0  0  0  0  0  0  0
  -25.0287  -35.8110   23.2014 C   0  0  0  0  0  0  0  0  0  0  0  0
  -23.9069  -21.1500   19.1970 C   0  0  0  0  0  0  0  0  0  0  0  0
  -24.6177  -29.2286   20.9329 C   0  0  0  0  0  0  0  0  0  0  0  0
  -26.1531  -27.5458   19.7847 C   0  0  0  0  0  0  0  0  0  0  0  0
  -33.3501  -11.9613   19.7676 C   0  0  0  0  0  0  0  0  0  0  0  0
  -27.9199  -15.5592   21.0868 C   0  0  0  0  0  0  0  0  0  0  0  0
  -32.3454  -12.8666   19.3761 C   0  0  0  0  0  0  0  0  0  0  0  0
  -26.8736  -15.7049   20.1648 C   0  0  0  0  0  0  0  0  0  0  0  0
  -24.8562  -21.2050   20.1936 C   0  0  0  0  0  0  0  0  0  0  0  0
  -24.0666  -31.3316   22.6811 C   0  0  0  0  0  0  0  0  0  0  0  0
  -27.3125  -18.0938   20.0628 C   0  0  0  0  0  0  0  0  0  0  0  0
  -24.6538  -33.4459   23.5220 C   0  0  0  0  0  0  0  0  0  0  0  0
  -26.3802  -35.6371   23.4994 C   0  0  0  0  0  0  0  0  0  0  0  0
  -24.1655  -34.7154   23.2127 C   0  0  0  0  0  0  0  0  0  0  0  0
  -24.9017  -28.1420   20.0303 C   0  0  0  0  0  0  0  0  0  0  0  0
  -22.9025  -20.5630   21.1105 C   0  0  0  0  0  0  0  0  0  0  0  0
  -25.8915  -26.5687   18.8555 C   0  0  0  0  0  0  0  0  0  0  0  0
  -27.4372  -27.8481   20.3464 C   0  0  0  0  0  0  0  0  0  0  0  0
  -28.6563  -12.8565   19.5846 C   0  0  0  0  0  0  0  0  0  0  0  0
  -25.5665  -12.1111   20.2324 C   0  0  0  0  0  0  0  0  0  0  0  0
  -22.4071  -13.2004   20.9241 C   0  0  0  0  0  0  0  0  0  0  0  0
  -20.9588  -23.4662   17.4793 C   0  0  0  0  0  0  0  0  0  0  0  0
  -33.1683  -10.4697   19.6377 C   0  0  0  0  0  0  0  0  0  0  0  0
  -28.2387  -14.2100   21.6702 C   0  0  0  0  0  0  0  0  0  0  0  0
  -26.0565  -14.5280   19.7000 C   0  0  0  0  0  0  0  0  0  0  0  0
  -31.7104  -10.0452   19.4807 C   0  0  0  0  0  0  0  0  0  0  0  0
  -22.8882  -25.5028   15.2870 C   0  0  0  0  0  0  0  0  0  0  0  0
  -31.0084  -10.9190   18.4461 C   0  0  0  0  0  0  0  0  0  0  0  0
  -23.7359  -26.3563   16.2318 C   0  0  0  0  0  0  0  0  0  0  0  0
  -21.4907  -25.2553   15.8507 C   0  0  0  0  0  0  0  0  0  0  0  0
  -22.3112  -25.5419   18.1568 C   0  0  0  0  0  0  0  0  0  0  0  0
  -30.9970  -12.3891   18.8821 C   0  0  1  0  0  0  0  0  0  0  0  0
  -27.7784  -13.0536   20.7879 C   0  0  1  0  0  0  0  0  0  0  0  0
  -23.7478  -25.7717   17.6571 C   0  0  2  0  0  0  0  0  0  0  0  0
  -21.8638  -22.1833   23.5388 C   0  0  0  0  0  0  0  0  0  0  0  0
  -26.6471  -22.8561   20.8246 C   0  0  0  0  0  0  0  0  0  0  0  0
  -21.6547  -18.5942   22.0366 C   0  0  0  0  0  0  0  0  0  0  0  0
  -20.0853  -12.3572   21.3663 C   0  0  0  0  0  0  0  0  0  0  0  0
  -25.2143  -11.5283   17.2582 C   0  0  0  0  0  0  0  0  0  0  0  0
  -22.7366  -11.6257   17.6037 C   0  0  0  0  0  0  0  0  0  0  0  0
  -24.0911   -9.8937   18.7817 C   0  0  0  0  0  0  0  0  0  0  0  0
  -22.3563  -14.4120   23.6238 C   0  0  0  0  0  0  0  0  0  0  0  0
  -21.9086  -20.6620   23.4623 C   0  0  0  0  0  0  0  0  0  0  0  0
  -21.4831  -20.5834   19.0420 C   0  0  0  0  0  0  0  0  0  0  0  0
  -20.5185  -21.7530   19.2200 C   0  0  0  0  0  0  0  0  0  0  0  0
  -27.2637  -20.4469   20.4043 C   0  0  0  0  0  0  0  0  0  1  0  0
  -26.3166  -21.5933   20.0242 C   0  0  1  0  0  0  0  0  0  0  0  0
  -21.8019  -20.1354   21.9987 C   0  0  1  0  0  0  0  0  0  0  0  0
  -24.2484  -12.3057   19.5228 C   0  0  1  0  0  0  0  0  0  0  0  0
  -21.4073  -12.7816   21.9868 C   0  0  2  0  0  0  0  0  0  0  0  0
  -24.0891  -11.3604   18.2987 C   0  0  0  0  0  0  0  0  0  0  0  0
  -23.9182  -27.5899   19.3147 N   0  0  0  0  0  0  0  0  0  0  0  0
  -22.7232  -20.7583   19.7659 N   0  0  0  0  0  0  0  0  0  0  0  0
  -24.5516  -26.6367   18.6103 N   0  0  0  0  0  0  0  0  0  0  0  0
  -26.4108  -13.2287   20.2947 N   0  0  0  0  0  0  0  0  0  0  0  0
  -21.5723  -24.6993   17.2035 N   0  0  0  0  0  0  0  0  0  0  0  0
  -26.6793  -25.6667   18.2324 N   0  0  0  0  0  0  0  0  0  0  0  0
  -27.5279  -28.8824   21.2878 N   0  0  0  0  0  0  0  0  0  0  0  0
  -29.9814  -12.6098   19.8892 N   0  0  0  0  0  0  0  0  0  0  0  0
  -23.2116  -12.1495   20.5373 N   0  0  0  0  0  0  0  0  0  0  0  0
  -21.0893  -23.0081   18.7846 N   0  0  0  0  0  0  0  0  0  0  0  0
  -21.1455  -13.9095   22.9250 N   0  3  0  0  0  0  0  0  0  0  0  0
  -28.4761  -27.2305   20.0109 O   0  0  0  0  0  0  0  0  0  0  0  0
  -28.1674  -12.9218   18.4628 O   0  0  0  0  0  0  0  0  0  0  0  0
  -25.8340  -11.0100   20.7200 O   0  0  0  0  0  0  0  0  0  0  0  0
  -22.4659  -14.3445   20.4788 O   0  0  0  0  0  0  0  0  0  0  0  0
  -20.3452  -22.8187   16.6242 O   0  0  0  0  0  0  0  0  0  0  0  0
  -23.7979  -32.3574   23.5344 O   0  0  0  0  0  0  0  0  0  0  0  0
  -27.0176  -19.3233   19.5596 O   0  0  0  0  0  0  0  0  0  1  0  0
  -27.2090  -36.6894   23.4901 F   0  0  0  0  0  0  0  0  0  0  0  0
  -22.8678  -34.8888   22.9266 F   0  0  0  0  0  0  0  0  0  0  0  0
  1  2  1  0  0  0  0
  1  5  2  0  0  0  0
  2  6  2  0  0  0  0
  3  8  2  0  0  0  0
  3 17  1  0  0  0  0
  4  9  1  0  0  0  0
  4 17  2  0  0  0  0
  5 19  1  0  0  0  0
  6 21  1  0  0  0  0
  7 10  2  0  0  0  0
  7 20  1  0  0  0  0
  8 24  1  0  0  0  0
  9 24  2  0  0  0  0
 10 25  1  0  0  0  0
 11 12  2  0  0  0  0
 11 26  1  0  0  0  0
 12 27  1  0  0  0  0
 13 22  1  0  0  0  0
 13 25  2  0  0  0  0
 14 23  1  0  0  0  0
 14 30  2  0  0  0  0
 15 27  2  0  0  0  0
 15 28  1  0  0  0  0
 16 23  2  0  0  0  0
 16 67  1  0  0  0  0
 17 29  1  0  0  0  0
 18 29  1  0  0  0  0
 18 31  2  0  0  0  0
 18 32  1  0  0  0  0
 19 21  2  0  0  0  0
 19 37  1  0  0  0  0
 20 22  2  0  0  0  0
 20 38  1  0  0  0  0
 21 46  1  0  0  0  0
 22 39  1  0  0  0  0
 23 61  1  0  0  0  0
 24 82  1  0  0  0  0
 25 83  1  0  0  0  0
 26 28  2  0  0  0  0
 26 82  1  0  0  0  0
 27 84  1  0  0  0  0
 28 85  1  0  0  0  0
 29 66  2  0  0  0  0
 30 62  1  0  0  0  0
 30 67  1  0  0  0  0
 31 68  1  0  0  0  0
 31 71  1  0  0  0  0
 32 72  1  0  0  0  0
 32 77  2  0  0  0  0
 33 47  1  0  0  0  0
 33 73  1  0  0  0  0
 33 78  2  0  0  0  0
 34 63  1  0  0  0  0
 34 69  1  0  0  0  0
 34 79  2  0  0  0  0
 35 64  1  0  0  0  0
 35 74  1  0  0  0  0
 35 80  2  0  0  0  0
 36 70  1  0  0  0  0
 36 75  1  0  0  0  0
 36 81  2  0  0  0  0
 37 40  1  0  0  0  0
 38 47  1  0  0  0  0
 39 69  1  0  0  0  0
 40 42  1  0  0  0  0
 41 43  1  0  0  0  0
 41 44  1  0  0  0  0
 42 46  1  0  0  0  0
 43 48  1  0  0  0  0
 44 70  1  0  0  0  0
 45 48  1  0  0  0  0
 45 70  1  0  0  0  0
 46 73  1  0  0  0  0
 47 69  1  0  0  0  0
 48 68  1  0  0  0  0
 49 57  1  0  0  0  0
 50 61  1  0  0  0  0
 51 62  1  0  0  0  0
 52 64  1  0  0  0  0
 53 65  1  0  0  0  0
 54 65  1  0  0  0  0
 55 65  1  0  0  0  0
 56 76  1  0  0  0  0
 57 62  1  0  0  0  0
 58 59  1  0  0  0  0
 58 67  1  0  0  0  0
 59 75  1  0  0  0  0
 60 61  1  0  0  0  0
 60 83  1  0  0  0  0
 63 65  1  0  0  0  0
 63 74  1  0  0  0  0
 64 76  1  0  0  0  0
 66 68  1  0  0  0  0
M  CHG  1  76   1
M  ISO  4  36 100  60 101  75 100  83 101
M  END
> <Batch ID>
0091

> <Smiles>
CCC(C)c1cc(C(C)[101CH2:1][101O:1]c2ccc3c(c2)CN(C(=O)C(NC(=O)C(C)NC)C(C)(C)C)C(C(=O)NC2CCCc4ccccc42)C3)cn1CC[100NH:0][100C:0](=O)N1CCCC(n2nc(-c3ccc(Oc4ccc(F)cc4F)cc3)c(C(N)=O)c2N)C1

> <Shape>
0.237

> <Color>
0.071

> <Negative vol penalty>
0.000

$$$$

  -OEChem-04052319113D

 89 97  0     1  0  0  0  0  0999 V2000
  -28.6329  -15.2702   26.8315 C   0  0  0  0  0  0  0  0  0  0  0  0
  -27.9584  -16.4420   26.5036 C   0  0  0  0  0  0  0  0  0  0  0  0
  -28.8826  -17.6853   19.0937 C   0  0  0  0  0  0  0  0  0  0  0  0
  -30.3565  -18.3464   20.8903 C   0  0  0  0  0  0  0  0  0  0  0  0
  -29.7917  -15.3273   27.6047 C   0  0  0  0  0  0  0  0  0  0  0  0
  -28.4418  -17.6715   26.9498 C   0  0  0  0  0  0  0  0  0  0  0  0
  -28.1829  -23.0243   23.9856 C   0  0  0  0  0  0  0  0  0  0  0  0
  -29.4690  -16.4199   19.0782 C   0  0  0  0  0  0  0  0  0  0  0  0
  -30.9429  -17.0808   20.8748 C   0  0  0  0  0  0  0  0  0  0  0  0
  -27.3134  -24.1097   24.0836 C   0  0  0  0  0  0  0  0  0  0  0  0
  -30.3331  -12.8991   18.8091 C   0  0  0  0  0  0  0  0  0  0  0  0
  -29.4866  -11.7929   18.7347 C   0  0  0  0  0  0  0  0  0  0  0  0
  -28.8661  -25.2121   25.5644 C   0  0  0  0  0  0  0  0  0  0  0  0
  -26.4150  -29.0159   20.7797 C   0  0  0  0  0  0  0  0  0  0  0  0
  -28.4357  -12.4579   20.8061 C   0  0  0  0  0  0  0  0  0  0  0  0
  -29.3263  -18.6486   19.9997 C   0  0  0  0  0  0  0  0  0  0  0  0
  -27.6105  -20.3696   20.7754 C   0  0  0  0  0  0  0  0  0  0  0  0
  -30.2949  -16.5589   28.0525 C   0  0  0  0  0  0  0  0  0  0  0  0
  -29.3977  -23.0199   24.6860 C   0  0  0  0  0  0  0  0  0  0  0  0
  -29.6077  -17.7450   27.7309 C   0  0  0  0  0  0  0  0  0  0  0  0
  -29.7505  -24.1265   25.4716 C   0  0  0  0  0  0  0  0  0  0  0  0
  -25.4179  -28.1757   21.2627 C   0  0  0  0  0  0  0  0  0  0  0  0
  -24.9894  -27.1002   20.4926 C   0  0  0  0  0  0  0  0  0  0  0  0
  -30.4992  -16.1176   19.9687 C   0  0  0  0  0  0  0  0  0  0  0  0
  -27.6536  -25.2025   24.8754 C   0  0  0  0  0  0  0  0  0  0  0  0
  -30.2309  -13.7846   19.8820 C   0  0  0  0  0  0  0  0  0  0  0  0
  -28.5379  -11.5723   19.7332 C   0  0  0  0  0  0  0  0  0  0  0  0
  -29.2822  -13.5640   20.8804 C   0  0  0  0  0  0  0  0  0  0  0  0
  -28.7213  -19.9562   20.0159 C   0  0  0  0  0  0  0  0  0  0  0  0
  -26.9470  -28.7397   19.5305 C   0  0  0  0  0  0  0  0  0  0  0  0
  -25.5851  -26.9099   19.2562 C   0  0  0  0  0  0  0  0  0  0  0  0
  -27.4341  -21.6887   20.4359 C   0  0  0  0  0  0  0  0  0  0  0  0
  -26.8097  -19.6276   21.7048 C   0  0  0  0  0  0  0  0  0  0  0  0
  -30.6688  -21.1995   26.9608 C   0  0  0  0  0  0  0  0  0  0  0  0
  -33.2904  -23.0316   26.4194 C   0  0  0  0  0  0  0  0  0  0  0  0
  -34.5802  -25.9803   25.2844 C   0  0  0  0  0  0  0  0  0  0  0  0
  -29.4741  -26.6942   19.5811 C   0  0  0  0  0  0  0  0  0  0  0  0
  -31.5247  -16.5665   28.9255 C   0  0  0  0  0  0  0  0  0  0  0  0
  -30.3367  -21.8530   24.5485 C   0  0  0  0  0  0  0  0  0  0  0  0
  -31.0520  -24.1798   26.2275 C   0  0  0  0  0  0  0  0  0  0  0  0
  -32.1791  -17.9405   29.0439 C   0  0  0  0  0  0  0  0  0  0  0  0
  -29.5196  -24.4478   16.7440 C   0  0  0  0  0  0  0  0  0  0  0  0
  -31.1280  -19.0102   29.3226 C   0  0  0  0  0  0  0  0  0  0  0  0
  -29.2216  -23.1053   17.4143 C   0  0  0  0  0  0  0  0  0  0  0  0
  -30.4098  -25.3197   17.6246 C   0  0  0  0  0  0  0  0  0  0  0  0
  -29.5770  -24.2194   19.6665 C   0  0  0  0  0  0  0  0  0  0  0  0
  -30.1145  -19.0999   28.1753 C   0  0  1  0  0  0  0  0  0  0  0  0
  -31.3147  -21.7326   25.7132 C   0  0  1  0  0  0  0  0  0  0  0  0
  -28.6624  -23.3007   18.8360 C   0  0  2  0  0  0  0  0  0  0  0  0
  -25.1679  -25.7709   18.3843 C   0  0  0  0  0  0  0  0  0  0  0  0
  -36.7546  -27.2015   25.0048 C   0  0  0  0  0  0  0  0  0  0  0  0
  -19.0447  -24.7984   20.9932 C   0  0  0  0  0  0  0  0  0  0  0  0
  -20.0473  -25.5739   18.8359 C   0  0  0  0  0  0  0  0  0  0  0  0
  -33.3382  -23.6267   29.4116 C   0  0  0  0  0  0  0  0  0  0  0  0
  -34.8802  -25.5408   28.9355 C   0  0  0  0  0  0  0  0  0  0  0  0
  -35.5847  -23.2097   28.3949 C   0  0  0  0  0  0  0  0  0  0  0  0
  -34.2528  -26.1281   22.3467 C   0  0  0  0  0  0  0  0  0  0  0  0
  -24.8183  -28.4534   22.6180 C   0  0  0  0  0  0  0  0  0  0  0  0
  -23.9233  -26.1808   20.9860 C   0  0  0  0  0  0  0  0  0  0  0  0
  -28.0198  -29.6193   18.9807 C   0  0  0  0  0  0  0  0  0  0  0  0
  -25.7170  -28.0402   23.7855 C   0  0  0  0  0  0  0  0  0  0  0  0
  -22.5306  -26.4422   20.3818 C   0  0  0  0  0  0  0  0  0  0  0  0
  -21.4504  -25.5229   20.9661 C   0  0  0  0  0  0  0  0  0  0  0  0
  -29.4360  -29.1646   19.3518 C   0  0  0  0  0  0  0  0  0  0  0  0
  -25.9790  -26.5398   23.8442 C   0  0  0  0  0  0  0  0  0  1  0  0
  -33.8193  -24.3318   26.9749 C   0  0  1  0  0  0  0  0  0  0  0  0
  -35.7379  -26.2798   24.3493 C   0  0  2  0  0  0  0  0  0  0  0  0
  -20.0556  -25.7541   20.3546 C   0  0  0  0  0  0  0  0  0  0  0  0
  -34.3801  -24.1757   28.4166 C   0  0  0  0  0  0  0  0  0  0  0  0
  -29.2157  -20.9335   19.2514 N   0  0  0  0  0  0  0  0  0  0  0  0
  -26.5564  -27.7046   18.7535 N   0  0  0  0  0  0  0  0  0  0  0  0
  -28.4117  -21.9741   19.5287 N   0  0  0  0  0  0  0  0  0  0  0  0
  -31.9337  -23.0118   26.0660 N   0  0  0  0  0  0  0  0  0  0  0  0
  -29.8117  -25.4816   18.9573 N   0  0  0  0  0  0  0  0  0  0  0  0
  -26.5396  -22.6208   20.8278 N   0  0  0  0  0  0  0  0  0  0  0  0
  -27.1289  -18.2827   21.9368 N   0  0  0  0  0  0  0  0  0  0  0  0
  -30.6810  -19.8210   27.0557 N   0  0  0  0  0  0  0  0  0  0  0  0
  -34.7920  -24.8243   26.0055 N   0  0  0  0  0  0  0  0  0  0  0  0
  -29.7347  -27.8436   18.8452 N   0  0  0  0  0  0  0  0  0  0  0  0
  -35.2430  -26.9348   23.1055 N   0  3  0  0  0  0  0  0  0  0  0  0
  -25.8297  -20.1373   22.2993 O   0  0  0  0  0  0  0  0  0  0  0  0
  -30.1958  -21.9811   27.7775 O   0  0  0  0  0  0  0  0  0  0  0  0
  -34.0546  -22.0711   26.2965 O   0  0  0  0  0  0  0  0  0  0  0  0
  -33.5889  -26.7019   25.3696 O   0  0  0  0  0  0  0  0  0  0  0  0
  -28.9722  -26.7485   20.7090 O   0  0  0  0  0  0  0  0  0  0  0  0
  -31.0715  -14.8828   19.9540 O   0  0  0  0  0  0  0  0  0  0  0  0
  -26.8064  -26.2630   24.9734 O   0  0  0  0  0  0  0  0  0  1  0  0
  -27.7241  -10.5109   19.6608 F   0  0  0  0  0  0  0  0  0  0  0  0
  -29.1785  -14.4119   21.9130 F   0  0  0  0  0  0  0  0  0  0  0  0
  1  2  1  0  0  0  0
  1  5  2  0  0  0  0
  2  6  2  0  0  0  0
  3  8  2  0  0  0  0
  3 16  1  0  0  0  0
  4  9  1  0  0  0  0
  4 16  2  0  0  0  0
  5 18  1  0  0  0  0
  6 20  1  0  0  0  0
  7 10  2  0  0  0  0
  7 19  1  0  0  0  0
  8 24  1  0  0  0  0
  9 24  2  0  0  0  0
 10 25  1  0  0  0  0
 11 12  2  0  0  0  0
 11 26  1  0  0  0  0
 12 27  1  0  0  0  0
 13 21  1  0  0  0  0
 13 25  2  0  0  0  0
 14 22  1  0  0  0  0
 14 30  2  0  0  0  0
 15 27  2  0  0  0  0
 15 28  1  0  0  0  0
 16 29  1  0  0  0  0
 17 29  1  0  0  0  0
 17 32  2  0  0  0  0
 17 33  1  0  0  0  0
 18 20  2  0  0  0  0
 18 38  1  0  0  0  0
 19 21  2  0  0  0  0
 19 39  1  0  0  0  0
 20 47  1  0  0  0  0
 21 40  1  0  0  0  0
 22 23  2  0  0  0  0
 22 58  1  0  0  0  0
 23 31  1  0  0  0  0
 23 59  1  0  0  0  0
 24 86  1  0  0  0  0
 25 87  1  0  0  0  0
 26 28  2  0  0  0  0
 26 86  1  0  0  0  0
 27 88  1  0  0  0  0
 28 89  1  0  0  0  0
 29 70  2  0  0  0  0
 30 60  1  0  0  0  0
 30 71  1  0  0  0  0
 31 50  1  0  0  0  0
 31 71  2  0  0  0  0
 32 72  1  0  0  0  0
 32 75  1  0  0  0  0
 33 76  1  0  0  0  0
 33 81  2  0  0  0  0
 34 48  1  0  0  0  0
 34 77  1  0  0  0  0
 34 82  2  0  0  0  0
 35 66  1  0  0  0  0
 35 73  1  0  0  0  0
 35 83  2  0  0  0  0
 36 67  1  0  0  0  0
 36 78  1  0  0  0  0
 36 84  2  0  0  0  0
 37 74  1  0  0  0  0
 37 79  1  0  0  0  0
 37 85  2  0  0  0  0
 38 41  1  0  0  0  0
 39 48  1  0  0  0  0
 40 73  1  0  0  0  0
 41 43  1  0  0  0  0
 42 44  1  0  0  0  0
 42 45  1  0  0  0  0
 43 47  1  0  0  0  0
 44 49  1  0  0  0  0
 45 74  1  0  0  0  0
 46 49  1  0  0  0  0
 46 74  1  0  0  0  0
 47 77  1  0  0  0  0
 48 73  1  0  0  0  0
 49 72  1  0  0  0  0
 51 67  1  0  0  0  0
 52 68  1  0  0  0  0
 53 68  1  0  0  0  0
 54 69  1  0  0  0  0
 55 69  1  0  0  0  0
 56 69  1  0  0  0  0
 57 80  1  0  0  0  0
 58 61  1  0  0  0  0
 59 62  1  0  0  0  0
 60 64  1  0  0  0  0
 61 65  1  0  0  0  0
 62 63  1  0  0  0  0
 63 68  1  0  0  0  0
 64 79  1  0  0  0  0
 65 87  1  0  0  0  0
 66 69  1  0  0  0  0
 66 78  1  0  0  0  0
 67 80  1  0  0  0  0
 70 72  1  0  0  0  0
M  CHG  1  80   1
M  ISO  4  37 100  65 101  79 100  87 101
M  END
> <Batch ID>
0091

> <Smiles>
CNC(C)C(=O)NC(C(=O)N1Cc2cc([101O:1][101CH2:1]CCc3cc(CC[100NH:0][100C:0](=O)N4CCCC(n5nc(-c6ccc(Oc7ccc(F)cc7F)cc6)c(C(N)=O)c5N)C4)nc(C)c3CCCC(C)C)ccc2CC1C(=O)NC1CCCc2ccccc21)C(C)(C)C

> <Shape>
0.183

> <Color>
0.060

> <Negative vol penalty>
0.000

$$$$

  -OEChem-04052319113D

 87 95  0     1  0  0  0  0  0999 V2000
  -35.4697  -27.2953   22.7947 C   0  0  0  0  0  0  0  0  0  0  0  0
  -34.8272  -26.1972   22.2318 C   0  0  0  0  0  0  0  0  0  0  0  0
  -23.0721   -9.8742   19.9430 C   0  0  0  0  0  0  0  0  0  0  0  0
  -23.8368   -9.8788   22.2348 C   0  0  0  0  0  0  0  0  0  0  0  0
  -34.8115  -28.0749   23.7449 C   0  0  0  0  0  0  0  0  0  0  0  0
  -33.5265  -25.8775   22.6196 C   0  0  0  0  0  0  0  0  0  0  0  0
  -29.1113  -23.5107   19.0969 C   0  0  0  0  0  0  0  0  0  0  0  0
  -22.3273   -8.7218   20.1938 C   0  0  0  0  0  0  0  0  0  0  0  0
  -23.0920   -8.7264   22.4856 C   0  0  0  0  0  0  0  0  0  0  0  0
  -28.6442  -22.2081   18.9268 C   0  0  0  0  0  0  0  0  0  0  0  0
  -19.8641   -7.9324   23.0945 C   0  0  0  0  0  0  0  0  0  0  0  0
  -19.1096   -7.8927   24.2670 C   0  0  0  0  0  0  0  0  0  0  0  0
  -26.8887  -22.6352   20.5252 C   0  0  0  0  0  0  0  0  0  0  0  0
  -28.5444  -18.2958   23.4508 C   0  0  0  0  0  0  0  0  0  0  0  0
  -26.2636  -18.3155   21.8445 C   0  0  0  0  0  0  0  0  0  0  0  0
  -20.3501   -5.9532   24.9996 C   0  0  0  0  0  0  0  0  0  0  0  0
  -23.8269  -10.4527   20.9635 C   0  0  0  0  0  0  0  0  0  0  0  0
  -24.1717  -12.9774   20.8442 C   0  0  0  0  0  0  0  0  0  0  0  0
  -33.4986  -27.7703   24.1374 C   0  0  0  0  0  0  0  0  0  0  0  0
  -28.4761  -24.3833   19.9921 C   0  0  0  0  0  0  0  0  0  0  0  0
  -32.8507  -26.6530   23.5769 C   0  0  0  0  0  0  0  0  0  0  0  0
  -27.3481  -23.9492   20.7030 C   0  0  0  0  0  0  0  0  0  0  0  0
  -27.2804  -18.3739   24.0354 C   0  0  0  0  0  0  0  0  0  0  0  0
  -27.5277  -18.2374   21.2599 C   0  0  0  0  0  0  0  0  0  0  0  0
  -28.6681  -18.2276   22.0631 C   0  0  0  0  0  0  0  0  0  0  0  0
  -26.1400  -18.3837   23.2322 C   0  0  0  0  0  0  0  0  0  0  0  0
  -22.3372   -8.1480   21.4651 C   0  0  0  0  0  0  0  0  0  0  0  0
  -27.5345  -21.7693   19.6431 C   0  0  0  0  0  0  0  0  0  0  0  0
  -20.8616   -6.9824   22.8745 C   0  0  0  0  0  0  0  0  0  0  0  0
  -19.3526   -6.9032   25.2195 C   0  0  0  0  0  0  0  0  0  0  0  0
  -21.1046   -5.9929   23.8271 C   0  0  0  0  0  0  0  0  0  0  0  0
  -24.5970  -11.6427   20.7048 C   0  0  0  0  0  0  0  0  0  0  0  0
  -25.2641  -13.7258   20.4791 C   0  0  0  0  0  0  0  0  0  0  0  0
  -22.9028  -13.4946   21.2662 C   0  0  0  0  0  0  0  0  0  0  0  0
  -29.3546  -25.9175   22.6337 C   0  0  0  0  0  0  0  0  0  0  0  0
  -26.4193  -27.2702   22.3572 C   0  0  0  0  0  0  0  0  0  0  0  0
  -23.2341  -27.0592   21.1504 C   0  0  0  0  0  0  0  0  0  0  0  0
  -30.7495  -14.7377   20.6565 C   0  0  0  0  0  0  0  0  0  0  0  0
  -32.8451  -28.6144   25.2029 C   0  0  0  0  0  0  0  0  0  0  0  0
  -28.9760  -25.7938   20.1443 C   0  0  0  0  0  0  0  0  0  0  0  0
  -26.6182  -24.8533   21.6612 C   0  0  0  0  0  0  0  0  0  0  0  0
  -31.3320  -28.4294   25.2836 C   0  0  0  0  0  0  0  0  0  0  0  0
  -29.6038  -12.3561   18.2707 C   0  0  0  0  0  0  0  0  0  0  0  0
  -30.9735  -26.9469   25.2608 C   0  0  0  0  0  0  0  0  0  0  0  0
  -28.1669  -12.0639   18.7064 C   0  0  0  0  0  0  0  0  0  0  0  0
  -30.5237  -12.5750   19.4697 C   0  0  0  0  0  0  0  0  0  0  0  0
  -28.6259  -13.3077   20.8608 C   0  0  0  0  0  0  0  0  0  0  0  0
  -31.4310  -26.2887   23.9535 C   0  0  1  0  0  0  0  0  0  0  0  0
  -28.5633  -26.4346   21.4658 C   0  0  1  0  0  0  0  0  0  0  0  0
  -27.6490  -13.1350   19.6851 C   0  0  2  0  0  0  0  0  0  0  0  0
  -27.1727  -18.4454   25.5232 C   0  0  0  0  0  0  0  0  0  0  0  0
  -24.4400  -15.9356   24.0438 C   0  0  0  0  0  0  0  0  0  0  0  0
  -24.0529  -19.7626   23.4159 C   0  0  0  0  0  0  0  0  0  0  0  0
  -30.8700  -19.4042   21.7616 C   0  0  0  0  0  0  0  0  0  0  0  0
  -21.0532  -28.3003   21.1189 C   0  0  0  0  0  0  0  0  0  0  0  0
  -25.8841  -26.3975   25.2315 C   0  0  0  0  0  0  0  0  0  0  0  0
  -23.4459  -26.7951   24.8245 C   0  0  0  0  0  0  0  0  0  0  0  0
  -25.0603  -28.6903   24.6668 C   0  0  0  0  0  0  0  0  0  0  0  0
  -23.2839  -27.3059   18.2016 C   0  0  0  0  0  0  0  0  0  0  0  0
  -27.6365  -18.1652   19.7562 C   0  0  0  0  0  0  0  0  0  0  0  0
  -23.8695  -17.2469   23.5171 C   0  0  0  0  0  0  0  0  0  0  0  0
  -30.8207  -16.8874   21.8945 C   0  0  0  0  0  0  0  0  0  0  0  0
  -28.0388  -19.5004   19.1393 C   0  0  0  0  0  0  0  0  0  1  0  0
  -24.7763  -18.4662   23.8356 C   0  0  1  0  0  0  0  0  0  0  0  0
  -30.0318  -18.1454   21.4598 C   0  0  1  0  0  0  0  0  0  0  0  0
  -25.0344  -26.9299   22.8523 C   0  0  1  0  0  0  0  0  0  0  0  0
  -22.3723  -28.0597   20.4014 C   0  0  2  0  0  0  0  0  0  0  0  0
  -24.8709  -27.1853   24.3772 C   0  0  0  0  0  0  0  0  0  0  0  0
  -25.8608  -11.5455   20.2838 N   0  0  0  0  0  0  0  0  0  0  0  0
  -26.2391  -12.8287   20.1554 N   0  0  0  0  0  0  0  0  0  0  0  0
  -27.1492  -26.2213   21.7801 N   0  0  0  0  0  0  0  0  0  0  0  0
  -29.9764  -13.6037   20.3575 N   0  0  0  0  0  0  0  0  0  0  0  0
  -25.4760  -15.0570   20.4065 N   0  0  0  0  0  0  0  0  0  0  0  0
  -21.8904  -12.5865   21.6050 N   0  0  0  0  0  0  0  0  0  0  0  0
  -30.5212  -26.6171   22.8770 N   0  0  0  0  0  0  0  0  0  0  0  0
  -24.1057  -27.6839   22.0172 N   0  0  0  0  0  0  0  0  0  0  0  0
  -30.1533  -15.6668   21.5003 N   0  0  0  0  0  0  0  0  0  0  0  0
  -22.0764  -27.5626   19.0280 N   0  3  0  0  0  0  0  0  0  0  0  0
  -22.6682  -14.7255   21.3248 O   0  0  0  0  0  0  0  0  0  0  0  0
  -28.9370  -24.9558   23.2682 O   0  0  0  0  0  0  0  0  0  0  0  0
  -26.8355  -28.4258   22.4715 O   0  0  0  0  0  0  0  0  0  0  0  0
  -23.1406  -25.8448   20.9859 O   0  0  0  0  0  0  0  0  0  0  0  0
  -31.8847  -14.9120   20.2005 O   0  0  0  0  0  0  0  0  0  0  0  0
  -21.6103   -7.0237   21.7103 O   0  0  0  0  0  0  0  0  0  0  0  0
  -27.0770  -20.4982   19.4794 O   0  0  0  0  0  0  0  0  0  1  0  0
  -18.6290   -6.8661   26.3461 F   0  0  0  0  0  0  0  0  0  0  0  0
  -22.0623   -5.0783   23.6219 F   0  0  0  0  0  0  0  0  0  0  0  0
  1  2  1  0  0  0  0
  1  5  2  0  0  0  0
  2  6  2  0  0  0  0
  3  8  2  0  0  0  0
  3 17  1  0  0  0  0
  4  9  1  0  0  0  0
  4 17  2  0  0  0  0
  5 19  1  0  0  0  0
  6 21  1  0  0  0  0
  7 10  2  0  0  0  0
  7 20  1  0  0  0  0
  8 27  1  0  0  0  0
  9 27  2  0  0  0  0
 10 28  1  0  0  0  0
 11 12  2  0  0  0  0
 11 29  1  0  0  0  0
 12 30  1  0  0  0  0
 13 22  1  0  0  0  0
 13 28  2  0  0  0  0
 14 23  1  0  0  0  0
 14 25  2  0  0  0  0
 15 24  2  0  0  0  0
 15 26  1  0  0  0  0
 16 30  2  0  0  0  0
 16 31  1  0  0  0  0
 17 32  1  0  0  0  0
 18 32  1  0  0  0  0
 18 33  2  0  0  0  0
 18 34  1  0  0  0  0
 19 21  2  0  0  0  0
 19 39  1  0  0  0  0
 20 22  2  0  0  0  0
 20 40  1  0  0  0  0
 21 48  1  0  0  0  0
 22 41  1  0  0  0  0
 23 26  2  0  0  0  0
 23 51  1  0  0  0  0
 24 25  1  0  0  0  0
 24 60  1  0  0  0  0
 25 65  1  0  0  0  0
 26 64  1  0  0  0  0
 27 84  1  0  0  0  0
 28 85  1  0  0  0  0
 29 31  2  0  0  0  0
 29 84  1  0  0  0  0
 30 86  1  0  0  0  0
 31 87  1  0  0  0  0
 32 69  2  0  0  0  0
 33 70  1  0  0  0  0
 33 73  1  0  0  0  0
 34 74  1  0  0  0  0
 34 79  2  0  0  0  0
 35 49  1  0  0  0  0
 35 75  1  0  0  0  0
 35 80  2  0  0  0  0
 36 66  1  0  0  0  0
 36 71  1  0  0  0  0
 36 81  2  0  0  0  0
 37 67  1  0  0  0  0
 37 76  1  0  0  0  0
 37 82  2  0  0  0  0
 38 72  1  0  0  0  0
 38 77  1  0  0  0  0
 38 83  2  0  0  0  0
 39 42  1  0  0  0  0
 40 49  1  0  0  0  0
 41 71  1  0  0  0  0
 42 44  1  0  0  0  0
 43 45  1  0  0  0  0
 43 46  1  0  0  0  0
 44 48  1  0  0  0  0
 45 50  1  0  0  0  0
 46 72  1  0  0  0  0
 47 50  1  0  0  0  0
 47 72  1  0  0  0  0
 48 75  1  0  0  0  0
 49 71  1  0  0  0  0
 50 70  1  0  0  0  0
 52 61  1  0  0  0  0
 53 64  1  0  0  0  0
 54 65  1  0  0  0  0
 55 67  1  0  0  0  0
 56 68  1  0  0  0  0
 57 68  1  0  0  0  0
 58 68  1  0  0  0  0
 59 78  1  0  0  0  0
 60 63  1  0  0  0  0
 61 64  1  0  0  0  0
 62 65  1  0  0  0  0
 62 77  1  0  0  0  0
 63 85  1  0  0  0  0
 66 68  1  0  0  0  0
 66 76  1  0  0  0  0
 67 78  1  0  0  0  0
 69 70  1  0  0  0  0
M  CHG  1  78   1
M  ISO  4  38 100  63 101  77 100  85 101
M  END
> <Batch ID>
0091

> <Smiles>
CCC(C)c1cc(C[101CH2:1][101O:1]c2ccc3c(c2)CN(C(=O)C(NC(=O)C(C)NC)C(C)(C)C)C(C(=O)NC2CCCc4ccccc42)C3)c(C(C)C[100NH:0][100C:0](=O)N2CCCC(n3nc(-c4ccc(Oc5ccc(F)cc5F)cc4)c(C(N)=O)c3N)C2)cc1C

> <Shape>
0.247

> <Color>
0.188

> <Negative vol penalty>
0.000

$$$$

  -OEChem-04052319113D

 87 95  0     1  0  0  0  0  0999 V2000
  -31.6467  -23.5467   18.1823 C   0  0  0  0  0  0  0  0  0  0  0  0
  -30.4537  -23.3453   18.8691 C   0  0  0  0  0  0  0  0  0  0  0  0
  -24.1033  -14.2926   19.5016 C   0  0  0  0  0  0  0  0  0  0  0  0
  -23.3574  -15.4258   21.5006 C   0  0  0  0  0  0  0  0  0  0  0  0
  -32.4369  -24.6585   18.4712 C   0  0  0  0  0  0  0  0  0  0  0  0
  -30.0509  -24.2550   19.8461 C   0  0  0  0  0  0  0  0  0  0  0  0
  -25.1456  -25.4576   19.4762 C   0  0  0  0  0  0  0  0  0  0  0  0
  -23.3871  -13.1565   19.8783 C   0  0  0  0  0  0  0  0  0  0  0  0
  -22.6411  -14.2898   21.8774 C   0  0  0  0  0  0  0  0  0  0  0  0
  -24.2246  -24.5333   19.9674 C   0  0  0  0  0  0  0  0  0  0  0  0
  -23.7646  -10.5723   22.0238 C   0  0  0  0  0  0  0  0  0  0  0  0
  -24.4018   -9.3370   21.9069 C   0  0  0  0  0  0  0  0  0  0  0  0
  -24.0099  -25.8309   21.9896 C   0  0  0  0  0  0  0  0  0  0  0  0
  -25.1088  -20.7289   24.5266 C   0  0  0  0  0  0  0  0  0  0  0  0
  -22.6850   -8.5964   20.3768 C   0  0  0  0  0  0  0  0  0  0  0  0
  -26.7630  -22.3184   23.0492 C   0  0  0  0  0  0  0  0  0  0  0  0
  -24.0885  -15.4272   20.3128 C   0  0  0  0  0  0  0  0  0  0  0  0
  -24.3673  -17.6768   19.1426 C   0  0  0  0  0  0  0  0  0  0  0  0
  -32.0388  -25.5874   19.4455 C   0  0  0  0  0  0  0  0  0  0  0  0
  -25.5144  -26.5716   20.2439 C   0  0  0  0  0  0  0  0  0  0  0  0
  -30.8372  -25.3795   20.1493 C   0  0  0  0  0  0  0  0  0  0  0  0
  -24.9338  -26.7692   21.5048 C   0  0  0  0  0  0  0  0  0  0  0  0
  -26.4203  -20.9240   24.9452 C   0  0  0  0  0  0  0  0  0  0  0  0
  -27.2696  -21.7325   24.1981 C   0  0  0  0  0  0  0  0  0  0  0  0
  -22.6559  -13.1551   21.0661 C   0  0  0  0  0  0  0  0  0  0  0  0
  -23.6588  -24.7183   21.2254 C   0  0  0  0  0  0  0  0  0  0  0  0
  -22.5876  -10.8196   21.3174 C   0  0  0  0  0  0  0  0  0  0  0  0
  -23.8620   -8.3490   21.0833 C   0  0  0  0  0  0  0  0  0  0  0  0
  -22.0478   -9.8317   20.4938 C   0  0  0  0  0  0  0  0  0  0  0  0
  -24.8287  -16.6009   19.9244 C   0  0  0  0  0  0  0  0  0  0  0  0
  -24.6988  -21.3599   23.3632 C   0  0  0  0  0  0  0  0  0  0  0  0
  -25.4420  -18.5283   19.0619 C   0  0  0  0  0  0  0  0  0  0  0  0
  -23.0821  -17.8877   18.5429 C   0  0  0  0  0  0  0  0  0  0  0  0
  -28.2349  -27.6241   21.5068 C   0  0  0  0  0  0  0  0  0  0  0  0
  -26.4265  -30.2056   22.2736 C   0  0  0  0  0  0  0  0  0  0  0  0
  -23.3253  -31.4919   22.8857 C   0  0  0  0  0  0  0  0  0  0  0  0
  -30.2103  -19.4197   22.5718 C   0  0  0  0  0  0  0  0  0  0  0  0
  -32.9495  -26.7487   19.7563 C   0  0  0  0  0  0  0  0  0  0  0  0
  -26.4891  -27.5736   19.6887 C   0  0  0  0  0  0  0  0  0  0  0  0
  -25.2809  -27.9594   22.3600 C   0  0  0  0  0  0  0  0  0  0  0  0
  -32.2665  -27.8649   20.5424 C   0  0  0  0  0  0  0  0  0  0  0  0
  -30.2260  -18.5360   19.1229 C   0  0  0  0  0  0  0  0  0  0  0  0
  -31.4643  -27.2864   21.7037 C   0  0  0  0  0  0  0  0  0  0  0  0
  -28.8029  -18.0369   18.8667 C   0  0  0  0  0  0  0  0  0  0  0  0
  -30.7209  -18.1411   20.5125 C   0  0  0  0  0  0  0  0  0  0  0  0
  -28.4111  -18.0397   21.3657 C   0  0  0  0  0  0  0  0  0  0  0  0
  -30.3540  -26.3572   21.1985 C   0  0  1  0  0  0  0  0  0  0  0  0
  -27.1790  -28.3990   20.7705 C   0  0  1  0  0  0  0  0  0  0  0  0
  -27.8475  -18.4618   19.9980 C   0  0  2  0  0  0  0  0  0  0  0  0
  -27.2578  -18.0529   27.3866 C   0  0  0  0  0  0  0  0  0  0  0  0
  -22.1684  -33.6252   23.5245 C   0  0  0  0  0  0  0  0  0  0  0  0
  -28.8809  -22.6476   26.0045 C   0  0  0  0  0  0  0  0  0  0  0  0
  -29.3802  -22.9478   23.5928 C   0  0  0  0  0  0  0  0  0  0  0  0
  -27.3544  -29.8423   25.1576 C   0  0  0  0  0  0  0  0  0  0  0  0
  -25.4825  -31.3421   25.8753 C   0  0  0  0  0  0  0  0  0  0  0  0
  -27.2758  -32.2174   24.3783 C   0  0  0  0  0  0  0  0  0  0  0  0
  -21.7679  -31.5368   20.3695 C   0  0  0  0  0  0  0  0  0  0  0  0
  -26.8930  -20.2584   26.1950 C   0  0  0  0  0  0  0  0  0  0  0  0
  -23.2835  -21.1709   22.8787 C   0  0  0  0  0  0  0  0  0  0  0  0
  -26.7445  -18.7314   26.1265 C   0  0  0  0  0  0  0  0  0  0  0  0
  -22.3011  -22.2081   23.4269 C   0  0  0  0  0  0  0  0  0  0  0  0
  -29.5420  -20.6584   24.6159 C   0  0  0  0  0  0  0  0  0  0  0  0
  -22.7085  -23.6452   23.1231 C   0  0  0  0  0  0  0  0  0  1  0  0
  -25.5691  -30.5982   23.4524 C   0  0  1  0  0  0  0  0  0  0  0  0
  -22.6359  -32.7447   22.3761 C   0  0  2  0  0  0  0  0  0  0  0  0
  -28.6830  -21.9747   24.6003 C   0  0  0  0  0  0  0  0  0  0  0  0
  -26.4151  -30.9764   24.7008 C   0  0  0  0  0  0  0  0  0  0  0  0
  -25.4950  -22.1523   22.6110 N   0  0  0  0  0  0  0  0  0  0  0  0
  -26.0977  -16.7525   20.3126 N   0  0  0  0  0  0  0  0  0  0  0  0
  -26.4429  -17.9336   19.7724 N   0  0  0  0  0  0  0  0  0  0  0  0
  -26.2437  -28.9077   21.7758 N   0  0  0  0  0  0  0  0  0  0  0  0
  -29.7707  -18.5743   21.5398 N   0  0  0  0  0  0  0  0  0  0  0  0
  -25.6190  -19.7202   18.4532 N   0  0  0  0  0  0  0  0  0  0  0  0
  -22.0917  -16.9129   18.7251 N   0  0  0  0  0  0  0  0  0  0  0  0
  -29.2383  -27.1297   20.6956 N   0  0  0  0  0  0  0  0  0  0  0  0
  -24.6902  -31.6630   22.9813 N   0  0  0  0  0  0  0  0  0  0  0  0
  -29.2444  -19.7879   23.5003 N   0  0  0  0  0  0  0  0  0  0  0  0
  -21.4504  -32.3833   21.5484 N   0  3  0  0  0  0  0  0  0  0  0  0
  -22.8249  -18.9026   17.8519 O   0  0  0  0  0  0  0  0  0  0  0  0
  -28.1466  -27.4863   22.7213 O   0  0  0  0  0  0  0  0  0  0  0  0
  -27.2240  -31.0230   21.8071 O   0  0  0  0  0  0  0  0  0  0  0  0
  -22.7138  -30.4655   23.1740 O   0  0  0  0  0  0  0  0  0  0  0  0
  -31.3759  -19.8211   22.6564 O   0  0  0  0  0  0  0  0  0  0  0  0
  -21.9567  -12.0468   21.4339 O   0  0  0  0  0  0  0  0  0  0  0  0
  -22.7601  -23.8173   21.7075 O   0  0  0  0  0  0  0  0  0  1  0  0
  -24.4748   -7.1634   20.9699 F   0  0  0  0  0  0  0  0  0  0  0  0
  -20.9179  -10.0639   19.8117 F   0  0  0  0  0  0  0  0  0  0  0  0
  1  2  1  0  0  0  0
  1  5  2  0  0  0  0
  2  6  2  0  0  0  0
  3  8  2  0  0  0  0
  3 17  1  0  0  0  0
  4  9  1  0  0  0  0
  4 17  2  0  0  0  0
  5 19  1  0  0  0  0
  6 21  1  0  0  0  0
  7 10  2  0  0  0  0
  7 20  1  0  0  0  0
  8 25  1  0  0  0  0
  9 25  2  0  0  0  0
 10 26  1  0  0  0  0
 11 12  2  0  0  0  0
 11 27  1  0  0  0  0
 12 28  1  0  0  0  0
 13 22  1  0  0  0  0
 13 26  2  0  0  0  0
 14 23  1  0  0  0  0
 14 31  2  0  0  0  0
 15 28  2  0  0  0  0
 15 29  1  0  0  0  0
 16 24  1  0  0  0  0
 16 68  2  0  0  0  0
 17 30  1  0  0  0  0
 18 30  1  0  0  0  0
 18 32  2  0  0  0  0
 18 33  1  0  0  0  0
 19 21  2  0  0  0  0
 19 38  1  0  0  0  0
 20 22  2  0  0  0  0
 20 39  1  0  0  0  0
 21 47  1  0  0  0  0
 22 40  1  0  0  0  0
 23 24  2  0  0  0  0
 23 58  1  0  0  0  0
 24 66  1  0  0  0  0
 25 84  1  0  0  0  0
 26 85  1  0  0  0  0
 27 29  2  0  0  0  0
 27 84  1  0  0  0  0
 28 86  1  0  0  0  0
 29 87  1  0  0  0  0
 30 69  2  0  0  0  0
 31 59  1  0  0  0  0
 31 68  1  0  0  0  0
 32 70  1  0  0  0  0
 32 73  1  0  0  0  0
 33 74  1  0  0  0  0
 33 79  2  0  0  0  0
 34 48  1  0  0  0  0
 34 75  1  0  0  0  0
 34 80  2  0  0  0  0
 35 64  1  0  0  0  0
 35 71  1  0  0  0  0
 35 81  2  0  0  0  0
 36 65  1  0  0  0  0
 36 76  1  0  0  0  0
 36 82  2  0  0  0  0
 37 72  1  0  0  0  0
 37 77  1  0  0  0  0
 37 83  2  0  0  0  0
 38 41  1  0  0  0  0
 39 48  1  0  0  0  0
 40 71  1  0  0  0  0
 41 43  1  0  0  0  0
 42 44  1  0  0  0  0
 42 45  1  0  0  0  0
 43 47  1  0  0  0  0
 44 49  1  0  0  0  0
 45 72  1  0  0  0  0
 46 49  1  0  0  0  0
 46 72  1  0  0  0  0
 47 75  1  0  0  0  0
 48 71  1  0  0  0  0
 49 70  1  0  0  0  0
 50 60  1  0  0  0  0
 51 65  1  0  0  0  0
 52 66  1  0  0  0  0
 53 66  1  0  0  0  0
 54 67  1  0  0  0  0
 55 67  1  0  0  0  0
 56 67  1  0  0  0  0
 57 78  1  0  0  0  0
 58 60  1  0  0  0  0
 59 61  1  0  0  0  0
 61 63  1  0  0  0  0
 62 66  1  0  0  0  0
 62 77  1  0  0  0  0
 63 85  1  0  0  0  0
 64 67  1  0  0  0  0
 64 76  1  0  0  0  0
 65 78  1  0  0  0  0
 69 70  1  0  0  0  0
M  CHG  1  78   1
M  ISO  4  37 100  63 101  77 100  85 101
M  END
> <Batch ID>
0091

> <Smiles>
CCCc1cc(CC[101CH2:1][101O:1]c2ccc3c(c2)CN(C(=O)C(NC(=O)C(C)NC)C(C)(C)C)C(C(=O)NC2CCCc4ccccc42)C3)ncc1C(C)(C)C[100NH:0][100C:0](=O)N1CCCC(n2nc(-c3ccc(Oc4ccc(F)cc4F)cc3)c(C(N)=O)c2N)C1

> <Shape>
0.229

> <Color>
0.038

> <Negative vol penalty>
0.000

$$$$

  -OEChem-04052319112D

  0  0  0     0  0  0  0  0  0999 V2000
M  END
$$$$

  -OEChem-04052319113D

 84 92  0     1  0  0  0  0  0999 V2000
  -27.0057  -23.4398   18.3916 C   0  0  0  0  0  0  0  0  0  0  0  0
  -25.8305  -24.0062   18.8748 C   0  0  0  0  0  0  0  0  0  0  0  0
  -27.3893  -15.9480   21.8413 C   0  0  0  0  0  0  0  0  0  0  0  0
  -25.7147  -16.7455   20.2932 C   0  0  0  0  0  0  0  0  0  0  0  0
  -28.2268  -23.7585   18.9842 C   0  0  0  0  0  0  0  0  0  0  0  0
  -25.8756  -24.8909   19.9517 C   0  0  0  0  0  0  0  0  0  0  0  0
  -22.9936  -28.9902   19.2206 C   0  0  0  0  0  0  0  0  0  0  0  0
  -27.1721  -14.6416   21.4033 C   0  0  0  0  0  0  0  0  0  0  0  0
  -25.4975  -15.4391   19.8552 C   0  0  0  0  0  0  0  0  0  0  0  0
  -21.6197  -28.8442   19.4075 C   0  0  0  0  0  0  0  0  0  0  0  0
  -24.2455  -12.2730   18.5833 C   0  0  0  0  0  0  0  0  0  0  0  0
  -22.9246  -11.8517   18.4300 C   0  0  0  0  0  0  0  0  0  0  0  0
  -21.8192  -29.8306   21.5999 C   0  0  0  0  0  0  0  0  0  0  0  0
  -20.4640  -26.0904   22.6891 C   0  0  0  0  0  0  0  0  0  0  0  0
  -22.5184  -12.2724   20.7742 C   0  0  0  0  0  0  0  0  0  0  0  0
  -19.4744  -23.5865   22.2455 C   0  0  0  0  0  0  0  0  0  0  0  0
  -26.6605  -16.9999   21.2863 C   0  0  0  0  0  0  0  0  0  0  0  0
  -27.8058  -19.2784   21.2199 C   0  0  0  0  0  0  0  0  0  0  0  0
  -28.2880  -24.6549   20.0627 C   0  0  0  0  0  0  0  0  0  0  0  0
  -23.7936  -29.5484   20.2280 C   0  0  0  0  0  0  0  0  0  0  0  0
  -27.0986  -25.2208   20.5602 C   0  0  0  0  0  0  0  0  0  0  0  0
  -23.2026  -29.9849   21.4223 C   0  0  0  0  0  0  0  0  0  0  0  0
  -19.1107  -25.9309   22.4128 C   0  0  0  0  0  0  0  0  0  0  0  0
  -18.5985  -24.6584   22.1856 C   0  0  0  0  0  0  0  0  0  0  0  0
  -26.2263  -14.3872   20.4102 C   0  0  0  0  0  0  0  0  0  0  0  0
  -21.0328  -29.2617   20.5984 C   0  0  0  0  0  0  0  0  0  0  0  0
  -24.7029  -12.6939   19.8320 C   0  0  0  0  0  0  0  0  0  0  0  0
  -22.0611  -11.8514   19.5255 C   0  0  0  0  0  0  0  0  0  0  0  0
  -23.8393  -12.6937   20.9275 C   0  0  0  0  0  0  0  0  0  0  0  0
  -26.8840  -18.3495   21.7388 C   0  0  0  0  0  0  0  0  0  0  0  0
  -21.2564  -24.9544   22.7267 C   0  0  0  0  0  0  0  0  0  0  0  0
  -27.6296  -20.4030   21.9885 C   0  0  0  0  0  0  0  0  0  0  0  0
  -28.7379  -19.1374   20.1396 C   0  0  0  0  0  0  0  0  0  0  0  0
  -26.2243  -28.5119   21.9946 C   0  0  0  0  0  0  0  0  0  0  0  0
  -26.2866  -31.5899   23.0163 C   0  0  0  0  0  0  0  0  0  0  0  0
  -24.6055  -34.5236   23.4790 C   0  0  0  0  0  0  0  0  0  0  0  0
  -23.4451  -23.3779   24.6633 C   0  0  0  0  0  0  0  0  0  0  0  0
  -29.6260  -24.9323   20.7011 C   0  0  0  0  0  0  0  0  0  0  0  0
  -25.2700  -29.7235   20.0003 C   0  0  0  0  0  0  0  0  0  0  0  0
  -24.0142  -30.6091   22.5268 C   0  0  0  0  0  0  0  0  0  0  0  0
  -29.6287  -26.1679   21.5975 C   0  0  0  0  0  0  0  0  0  0  0  0
  -25.7164  -21.3044   26.4572 C   0  0  0  0  0  0  0  0  0  0  0  0
  -28.4124  -26.1623   22.5180 C   0  0  0  0  0  0  0  0  0  0  0  0
  -26.3347  -20.4174   25.3751 C   0  0  0  0  0  0  0  0  0  0  0  0
  -24.2419  -21.5884   26.1796 C   0  0  0  0  0  0  0  0  0  0  0  0
  -24.5774  -21.2566   23.7607 C   0  0  0  0  0  0  0  0  0  0  0  0
  -27.1094  -26.2039   21.7107 C   0  0  1  0  0  0  0  0  0  0  0  0
  -26.0658  -29.8333   21.2973 C   0  0  1  0  0  0  0  0  0  0  0  0
  -26.0780  -20.9885   23.9676 C   0  0  2  0  0  0  0  0  0  0  0  0
  -16.4607  -23.5653   22.9528 C   0  0  0  0  0  0  0  0  0  0  0  0
  -16.9350  -23.8155   20.4896 C   0  0  0  0  0  0  0  0  0  0  0  0
  -24.9108  -36.8497   24.3699 C   0  0  0  0  0  0  0  0  0  0  0  0
  -26.1353  -30.5150   25.8679 C   0  0  0  0  0  0  0  0  0  0  0  0
  -25.4918  -32.8129   26.6257 C   0  0  0  0  0  0  0  0  0  0  0  0
  -27.7133  -32.4302   25.5574 C   0  0  0  0  0  0  0  0  0  0  0  0
  -24.0044  -35.7354   20.8467 C   0  0  0  0  0  0  0  0  0  0  0  0
  -18.2209  -27.1473   22.3650 C   0  0  0  0  0  0  0  0  0  0  0  0
  -22.7135  -25.0877   23.0200 C   0  0  0  0  0  0  0  0  0  0  0  0
  -17.8538  -27.5865   20.9459 C   0  0  0  0  0  0  0  0  0  0  0  0
  -19.0568  -28.0277   20.1202 C   0  0  0  0  0  0  0  0  0  1  0  0
  -17.1577  -24.4310   21.8850 C   0  0  0  0  0  0  0  0  0  0  0  0
  -25.6249  -32.3589   24.1342 C   0  0  1  0  0  0  0  0  0  0  0  0
  -24.9698  -35.9577   23.1396 C   0  0  2  0  0  0  0  0  0  0  0  0
  -26.2260  -32.0158   25.5264 C   0  0  0  0  0  0  0  0  0  0  0  0
  -20.7949  -23.7021   22.5112 N   0  0  0  0  0  0  0  0  0  0  0  0
  -26.1750  -18.8413   22.7583 N   0  0  0  0  0  0  0  0  0  0  0  0
  -26.6514  -20.0914   22.8863 N   0  0  0  0  0  0  0  0  0  0  0  0
  -25.4548  -30.7530   22.2591 N   0  0  0  0  0  0  0  0  0  0  0  0
  -24.0671  -22.1295   24.8296 N   0  0  0  0  0  0  0  0  0  0  0  0
  -28.2176  -21.6181   21.9772 N   0  0  0  0  0  0  0  0  0  0  0  0
  -28.7886  -17.9149   19.4561 N   0  0  0  0  0  0  0  0  0  0  0  0
  -26.8534  -27.5457   21.2328 N   0  0  0  0  0  0  0  0  0  0  0  0
  -25.7215  -33.7690   23.7727 N   0  0  0  0  0  0  0  0  0  0  0  0
  -23.3250  -23.8201   23.3515 N   0  0  0  0  0  0  0  0  0  0  0  0
  -24.0310  -36.5027   22.1185 N   0  3  0  0  0  0  0  0  0  0  0  0
  -29.5147  -20.0625   19.8014 O   0  0  0  0  0  0  0  0  0  0  0  0
  -25.8082  -28.3791   23.1395 O   0  0  0  0  0  0  0  0  0  0  0  0
  -27.4957  -31.7322   22.8176 O   0  0  0  0  0  0  0  0  0  0  0  0
  -23.4465  -34.1147   23.4867 O   0  0  0  0  0  0  0  0  0  0  0  0
  -23.0325  -24.0511   25.6138 O   0  0  0  0  0  0  0  0  0  0  0  0
  -26.0142  -13.1126   19.9824 O   0  0  0  0  0  0  0  0  0  0  0  0
  -19.6921  -29.1198   20.7836 O   0  0  0  0  0  0  0  0  0  1  0  0
  -20.7923  -11.4483   19.3778 F   0  0  0  0  0  0  0  0  0  0  0  0
  -24.2727  -13.0981   22.1293 F   0  0  0  0  0  0  0  0  0  0  0  0
  1  2  1  0  0  0  0
  1  5  2  0  0  0  0
  2  6  2  0  0  0  0
  3  8  2  0  0  0  0
  3 17  1  0  0  0  0
  4  9  1  0  0  0  0
  4 17  2  0  0  0  0
  5 19  1  0  0  0  0
  6 21  1  0  0  0  0
  7 10  2  0  0  0  0
  7 20  1  0  0  0  0
  8 25  1  0  0  0  0
  9 25  2  0  0  0  0
 10 26  1  0  0  0  0
 11 12  2  0  0  0  0
 11 27  1  0  0  0  0
 12 28  1  0  0  0  0
 13 22  1  0  0  0  0
 13 26  2  0  0  0  0
 14 23  1  0  0  0  0
 14 31  2  0  0  0  0
 15 28  2  0  0  0  0
 15 29  1  0  0  0  0
 16 24  1  0  0  0  0
 16 65  2  0  0  0  0
 17 30  1  0  0  0  0
 18 30  1  0  0  0  0
 18 32  2  0  0  0  0
 18 33  1  0  0  0  0
 19 21  2  0  0  0  0
 19 38  1  0  0  0  0
 20 22  2  0  0  0  0
 20 39  1  0  0  0  0
 21 47  1  0  0  0  0
 22 40  1  0  0  0  0
 23 24  2  0  0  0  0
 23 57  1  0  0  0  0
 24 61  1  0  0  0  0
 25 81  1  0  0  0  0
 26 82  1  0  0  0  0
 27 29  2  0  0  0  0
 27 81  1  0  0  0  0
 28 83  1  0  0  0  0
 29 84  1  0  0  0  0
 30 66  2  0  0  0  0
 31 58  1  0  0  0  0
 31 65  1  0  0  0  0
 32 67  1  0  0  0  0
 32 70  1  0  0  0  0
 33 71  1  0  0  0  0
 33 76  2  0  0  0  0
 34 48  1  0  0  0  0
 34 72  1  0  0  0  0
 34 77  2  0  0  0  0
 35 62  1  0  0  0  0
 35 68  1  0  0  0  0
 35 78  2  0  0  0  0
 36 63  1  0  0  0  0
 36 73  1  0  0  0  0
 36 79  2  0  0  0  0
 37 69  1  0  0  0  0
 37 74  1  0  0  0  0
 37 80  2  0  0  0  0
 38 41  1  0  0  0  0
 39 48  1  0  0  0  0
 40 68  1  0  0  0  0
 41 43  1  0  0  0  0
 42 44  1  0  0  0  0
 42 45  1  0  0  0  0
 43 47  1  0  0  0  0
 44 49  1  0  0  0  0
 45 69  1  0  0  0  0
 46 49  1  0  0  0  0
 46 69  1  0  0  0  0
 47 72  1  0  0  0  0
 48 68  1  0  0  0  0
 49 67  1  0  0  0  0
 50 61  1  0  0  0  0
 51 61  1  0  0  0  0
 52 63  1  0  0  0  0
 53 64  1  0  0  0  0
 54 64  1  0  0  0  0
 55 64  1  0  0  0  0
 56 75  1  0  0  0  0
 57 59  1  0  0  0  0
 58 74  1  0  0  0  0
 59 60  1  0  0  0  0
 60 82  1  0  0  0  0
 62 64  1  0  0  0  0
 62 73  1  0  0  0  0
 63 75  1  0  0  0  0
 66 67  1  0  0  0  0
M  CHG  1  75   1
M  ISO  4  37 100  60 101  74 100  82 101
M  END
> <Batch ID>
0091

> <Smiles>
CNC(C)C(=O)NC(C(=O)N1Cc2cc([101O:1][101CH2:1]CCc3cc(C[100NH:0][100C:0](=O)N4CCCC(n5nc(-c6ccc(Oc7ccc(F)cc7F)cc6)c(C(N)=O)c5N)C4)ncc3C(C)C)ccc2CC1C(=O)NC1CCCc2ccccc21)C(C)(C)C

> <Shape>
0.265

> <Color>
0.061

> <Negative vol penalty>
0.000

$$$$

  -OEChem-04052319113D

 92100  0     1  0  0  0  0  0999 V2000
  -24.9434  -26.9257   12.2214 C   0  0  0  0  0  0  0  0  0  0  0  0
  -24.5747  -27.3259   13.5017 C   0  0  0  0  0  0  0  0  0  0  0  0
  -23.4247  -13.5201   19.5559 C   0  0  0  0  0  0  0  0  0  0  0  0
  -24.8913  -14.4355   21.2436 C   0  0  0  0  0  0  0  0  0  0  0  0
  -25.4600  -25.6475   12.0135 C   0  0  0  0  0  0  0  0  0  0  0  0
  -24.7216  -26.4477   14.5749 C   0  0  0  0  0  0  0  0  0  0  0  0
  -26.7497  -28.6759   18.6451 C   0  0  0  0  0  0  0  0  0  0  0  0
  -24.3821  -12.5536   19.2482 C   0  0  0  0  0  0  0  0  0  0  0  0
  -25.8487  -13.4689   20.9359 C   0  0  0  0  0  0  0  0  0  0  0  0
  -25.9081  -29.4718   19.4210 C   0  0  0  0  0  0  0  0  0  0  0  0
  -28.1849  -12.9479   18.5481 C   0  0  0  0  0  0  0  0  0  0  0  0
  -29.5094  -13.3657   18.4190 C   0  0  0  0  0  0  0  0  0  0  0  0
  -25.6573  -27.6614   20.9954 C   0  0  0  0  0  0  0  0  0  0  0  0
  -30.1516  -11.8856   20.2174 C   0  0  0  0  0  0  0  0  0  0  0  0
  -23.6793  -14.4612   20.5536 C   0  0  0  0  0  0  0  0  0  0  0  0
  -21.6581  -15.3617   21.8229 C   0  0  0  0  0  0  0  0  0  0  0  0
  -25.6223  -24.7566   13.0861 C   0  0  0  0  0  0  0  0  0  0  0  0
  -27.0432  -27.3608   19.0336 C   0  0  0  0  0  0  0  0  0  0  0  0
  -25.2397  -25.1560   14.3809 C   0  0  0  0  0  0  0  0  0  0  0  0
  -26.5050  -26.8517   20.2240 C   0  0  0  0  0  0  0  0  0  0  0  0
  -19.1255  -28.0330   23.7479 C   0  0  0  0  0  0  0  0  0  0  0  0
  -25.5940  -12.5279   19.9382 C   0  0  0  0  0  0  0  0  0  0  0  0
  -25.3594  -28.9636   20.5948 C   0  0  0  0  0  0  0  0  0  0  0  0
  -27.8437  -11.9990   19.5119 C   0  0  0  0  0  0  0  0  0  0  0  0
  -30.4928  -12.8345   19.2536 C   0  0  0  0  0  0  0  0  0  0  0  0
  -28.8270  -11.4679   20.3465 C   0  0  0  0  0  0  0  0  0  0  0  0
  -22.6910  -15.4603   20.8715 C   0  0  0  0  0  0  0  0  0  0  0  0
  -19.5447  -28.6004   22.5296 C   0  0  0  0  0  0  0  0  0  0  0  0
  -18.4551  -26.8914   23.3822 C   0  0  0  0  0  0  0  0  0  0  0  0
  -21.0010  -16.5652   21.7423 C   0  0  0  0  0  0  0  0  0  0  0  0
  -21.3225  -14.2791   22.7010 C   0  0  0  0  0  0  0  0  0  0  0  0
  -26.5543  -24.4861   17.7685 C   0  0  0  0  0  0  0  0  0  0  0  0
  -28.3518  -23.5029   20.2835 C   0  0  0  0  0  0  0  0  0  0  0  0
  -29.5002  -24.1142   23.4385 C   0  0  0  0  0  0  0  0  0  0  0  0
  -20.8980  -21.9384   21.4608 C   0  0  0  0  0  0  0  0  0  0  0  0
  -26.1409  -23.3686   12.8049 C   0  0  0  0  0  0  0  0  0  0  0  0
  -27.9743  -26.5242   18.1995 C   0  0  0  0  0  0  0  0  0  0  0  0
  -26.8051  -25.4532   20.6957 C   0  0  0  0  0  0  0  0  0  0  0  0
  -26.6146  -22.6305   14.0543 C   0  0  0  0  0  0  0  0  0  0  0  0
  -21.3512  -20.3014   18.3645 C   0  0  0  0  0  0  0  0  0  0  0  0
  -25.5918  -22.7711   15.1773 C   0  0  0  0  0  0  0  0  0  0  0  0
  -21.6675  -18.8771   18.8187 C   0  0  0  0  0  0  0  0  0  0  0  0
  -22.0147  -21.3504   19.2588 C   0  0  0  0  0  0  0  0  0  0  0  0
  -22.0328  -19.7589   21.1533 C   0  0  0  0  0  0  0  0  0  0  0  0
  -25.4070  -24.2407   15.5744 C   0  0  1  0  0  0  0  0  0  0  0  0
  -27.7940  -25.0260   18.4237 C   0  0  1  0  0  0  0  0  0  0  0  0
  -21.3293  -18.6865   20.3074 C   0  0  2  0  0  0  0  0  0  0  0  0
  -17.7776  -25.8590   24.1892 C   0  0  0  0  0  0  0  0  0  0  0  0
  -30.9213  -23.1099   25.2466 C   0  0  0  0  0  0  0  0  0  0  0  0
  -22.7599  -24.9760   26.2864 C   0  0  0  0  0  0  0  0  0  0  0  0
  -22.6585  -27.0229   27.7218 C   0  0  0  0  0  0  0  0  0  0  0  0
  -18.2842  -23.8015   19.7123 C   0  0  0  0  0  0  0  0  0  0  0  0
  -26.0966  -21.5688   20.9784 C   0  0  0  0  0  0  0  0  0  0  0  0
  -27.1181  -21.3029   23.2487 C   0  0  0  0  0  0  0  0  0  0  0  0
  -28.3973  -20.6185   21.2195 C   0  0  0  0  0  0  0  0  0  0  0  0
  -22.0231  -24.0170   20.5561 C   0  0  0  0  0  0  0  0  0  0  0  0
  -31.3971  -26.3849   23.3692 C   0  0  0  0  0  0  0  0  0  0  0  0
  -19.3523  -28.5459   25.1101 C   0  0  0  0  0  0  0  0  0  0  0  0
  -20.3289  -29.8717   22.3229 C   0  0  0  0  0  0  0  0  0  0  0  0
  -20.7650  -28.2751   25.6830 C   0  0  0  0  0  0  0  0  0  0  0  0
  -21.6542  -29.6679   21.5805 C   0  0  0  0  0  0  0  0  0  0  0  0
  -22.4705  -30.9544   21.4484 C   0  0  0  0  0  0  0  0  0  0  0  0
  -21.1092  -26.7804   25.7094 C   0  0  0  0  0  0  0  0  0  0  0  0
  -17.9471  -25.8310   21.1612 C   0  0  0  0  0  0  0  0  0  0  0  0
  -19.8321  -24.1504   21.6820 C   0  0  0  0  0  0  0  0  0  0  0  0
  -23.7594  -30.7215   20.6719 C   0  0  0  0  0  0  0  0  0  1  0  0
  -28.0626  -23.0774   21.7027 C   0  0  1  0  0  0  0  0  0  0  0  0
  -30.8927  -24.0316   24.0372 C   0  0  2  0  0  0  0  0  0  0  0  0
  -22.5014  -26.4847   26.2990 C   0  0  0  0  0  0  0  0  0  0  0  0
  -18.9860  -24.8379   20.5972 C   0  0  1  0  0  0  0  0  0  0  0  0
  -27.4112  -21.6677   21.7777 C   0  0  0  0  0  0  0  0  0  0  0  0
  -22.6939  -16.6336   20.2333 N   0  0  0  0  0  0  0  0  0  0  0  0
  -19.1720  -27.8786   21.4694 N   0  0  0  0  0  0  0  0  0  0  0  0
  -18.5116  -26.8459   22.0203 N   0  0  0  0  0  0  0  0  0  0  0  0
  -21.6547  -17.2833   20.7846 N   0  0  0  0  0  0  0  0  0  0  0  0
  -27.7159  -24.6721   19.8424 N   0  0  0  0  0  0  0  0  0  0  0  0
  -21.7050  -21.1037   20.6737 N   0  0  0  0  0  0  0  0  0  0  0  0
  -19.9337  -17.0685   22.3979 N   0  0  0  0  0  0  0  0  0  0  0  0
  -22.1016  -13.1150   22.6544 N   0  0  0  0  0  0  0  0  0  0  0  0
  -26.5090  -24.6831   16.4016 N   0  0  0  0  0  0  0  0  0  0  0  0
  -29.3231  -23.1926   22.4283 N   0  0  0  0  0  0  0  0  0  0  0  0
  -20.8917  -23.3061   21.1484 N   0  0  0  0  0  0  0  0  0  0  0  0
  -31.3537  -25.3827   24.4650 N   0  3  0  0  0  0  0  0  0  0  0  0
  -20.3503  -14.3360   23.4917 O   0  0  0  0  0  0  0  0  0  0  0  0
  -25.7026  -23.9304   18.4524 O   0  0  0  0  0  0  0  0  0  0  0  0
  -29.1193  -22.8269   19.5939 O   0  0  0  0  0  0  0  0  0  0  0  0
  -28.6529  -24.9136   23.8305 O   0  0  0  0  0  0  0  0  0  0  0  0
  -20.2252  -21.4885   22.3974 O   0  0  0  0  0  0  0  0  0  0  0  0
  -26.5284  -11.5847   19.6383 O   0  0  0  0  0  0  0  0  0  0  0  0
  -24.5371  -29.7381   21.3536 O   0  0  0  0  0  0  0  0  0  1  0  0
  -31.7649  -13.2347   19.1285 F   0  0  0  0  0  0  0  0  0  0  0  0
  -28.5055  -10.5551   21.2735 F   0  0  0  0  0  0  0  0  0  0  0  0
  1  2  1  0  0  0  0
  1  5  2  0  0  0  0
  2  6  2  0  0  0  0
  3  8  2  0  0  0  0
  3 15  1  0  0  0  0
  4  9  1  0  0  0  0
  4 15  2  0  0  0  0
  5 17  1  0  0  0  0
  6 19  1  0  0  0  0
  7 10  2  0  0  0  0
  7 18  1  0  0  0  0
  8 22  1  0  0  0  0
  9 22  2  0  0  0  0
 10 23  1  0  0  0  0
 11 12  2  0  0  0  0
 11 24  1  0  0  0  0
 12 25  1  0  0  0  0
 13 20  1  0  0  0  0
 13 23  2  0  0  0  0
 14 25  2  0  0  0  0
 14 26  1  0  0  0  0
 15 27  1  0  0  0  0
 16 27  1  0  0  0  0
 16 30  2  0  0  0  0
 16 31  1  0  0  0  0
 17 19  2  0  0  0  0
 17 36  1  0  0  0  0
 18 20  2  0  0  0  0
 18 37  1  0  0  0  0
 19 45  1  0  0  0  0
 20 38  1  0  0  0  0
 21 28  1  0  0  0  0
 21 29  2  0  0  0  0
 21 58  1  0  0  0  0
 22 89  1  0  0  0  0
 23 90  1  0  0  0  0
 24 26  2  0  0  0  0
 24 89  1  0  0  0  0
 25 91  1  0  0  0  0
 26 92  1  0  0  0  0
 27 72  2  0  0  0  0
 28 59  1  0  0  0  0
 28 73  2  0  0  0  0
 29 48  1  0  0  0  0
 29 74  1  0  0  0  0
 30 75  1  0  0  0  0
 30 78  1  0  0  0  0
 31 79  1  0  0  0  0
 31 84  2  0  0  0  0
 32 46  1  0  0  0  0
 32 80  1  0  0  0  0
 32 85  2  0  0  0  0
 33 67  1  0  0  0  0
 33 76  1  0  0  0  0
 33 86  2  0  0  0  0
 34 68  1  0  0  0  0
 34 81  1  0  0  0  0
 34 87  2  0  0  0  0
 35 77  1  0  0  0  0
 35 82  1  0  0  0  0
 35 88  2  0  0  0  0
 36 39  1  0  0  0  0
 37 46  1  0  0  0  0
 38 76  1  0  0  0  0
 39 41  1  0  0  0  0
 40 42  1  0  0  0  0
 40 43  1  0  0  0  0
 41 45  1  0  0  0  0
 42 47  1  0  0  0  0
 43 77  1  0  0  0  0
 44 47  1  0  0  0  0
 44 77  1  0  0  0  0
 45 80  1  0  0  0  0
 46 76  1  0  0  0  0
 47 75  1  0  0  0  0
 49 68  1  0  0  0  0
 50 69  1  0  0  0  0
 51 69  1  0  0  0  0
 52 70  1  0  0  0  0
 53 71  1  0  0  0  0
 54 71  1  0  0  0  0
 55 71  1  0  0  0  0
 56 82  1  0  0  0  0
 57 83  1  0  0  0  0
 58 60  1  0  0  0  0
 59 61  1  0  0  0  0
 60 63  1  0  0  0  0
 61 62  1  0  0  0  0
 62 66  1  0  0  0  0
 63 69  1  0  0  0  0
 64 70  1  0  0  0  0
 64 74  1  0  0  0  0
 65 70  1  0  0  0  0
 65 82  1  0  0  0  0
 66 90  1  0  0  0  0
 67 71  1  0  0  0  0
 67 81  1  0  0  0  0
 68 83  1  0  0  0  0
 72 75  1  0  0  0  0
 73 74  1  0  0  0  0
M  CHG  1  83   1
M  ISO  4  35 100  66 101  82 100  90 101
M  END
> <Batch ID>
0091

> <Smiles>
CNC(C)C(=O)NC(C(=O)N1Cc2cc([101O:1][101CH2:1]CCCc3nn(CC(C)C[100N:0](C)[100C:0](=O)N4CCCC(n5nc(-c6ccc(Oc7ccc(F)cc7F)cc6)c(C(N)=O)c5N)C4)c(C)c3CCCC(C)C)ccc2CC1C(=O)NC1CCCc2ccccc21)C(C)(C)C

> <Shape>
0.194

> <Color>
0.081

> <Negative vol penalty>
0.000

$$$$

  -OEChem-04052319113D

 93101  0     1  0  0  0  0  0999 V2000
  -34.3180  -22.7823   16.6600 C   0  0  0  0  0  0  0  0  0  0  0  0
  -33.0574  -23.0091   17.2006 C   0  0  0  0  0  0  0  0  0  0  0  0
  -23.0044   -9.8897   19.9832 C   0  0  0  0  0  0  0  0  0  0  0  0
  -23.7297   -9.9477   22.2870 C   0  0  0  0  0  0  0  0  0  0  0  0
  -35.4471  -23.2953   17.2949 C   0  0  0  0  0  0  0  0  0  0  0  0
  -32.9244  -23.7589   18.3698 C   0  0  0  0  0  0  0  0  0  0  0  0
  -28.3516  -24.8722   19.8028 C   0  0  0  0  0  0  0  0  0  0  0  0
  -22.2405   -8.7541   20.2522 C   0  0  0  0  0  0  0  0  0  0  0  0
  -22.9657   -8.8121   22.5561 C   0  0  0  0  0  0  0  0  0  0  0  0
  -27.4770  -23.9257   20.3347 C   0  0  0  0  0  0  0  0  0  0  0  0
  -23.2177   -5.4726   22.0919 C   0  0  0  0  0  0  0  0  0  0  0  0
  -23.8077   -4.4586   22.8463 C   0  0  0  0  0  0  0  0  0  0  0  0
  -27.8820  -24.8025   22.5452 C   0  0  0  0  0  0  0  0  0  0  0  0
  -22.0834   -4.7014   24.5211 C   0  0  0  0  0  0  0  0  0  0  0  0
  -28.3060  -18.6736   21.7086 C   0  0  0  0  0  0  0  0  0  0  0  0
  -23.7491  -10.4865   21.0006 C   0  0  0  0  0  0  0  0  0  0  0  0
  -24.1286  -13.0026   20.8187 C   0  0  0  0  0  0  0  0  0  0  0  0
  -35.3280  -24.0412   18.4792 C   0  0  0  0  0  0  0  0  0  0  0  0
  -29.0075  -25.7855   20.6408 C   0  0  0  0  0  0  0  0  0  0  0  0
  -34.0500  -24.3055   19.0124 C   0  0  0  0  0  0  0  0  0  0  0  0
  -28.7625  -25.7613   22.0212 C   0  0  0  0  0  0  0  0  0  0  0  0
  -27.0421  -18.7998   21.1759 C   0  0  0  0  0  0  0  0  0  0  0  0
  -27.1215  -18.4391   19.8082 C   0  0  0  0  0  0  0  0  0  0  0  0
  -22.2212   -8.2153   21.5387 C   0  0  0  0  0  0  0  0  0  0  0  0
  -27.2443  -23.8889   21.7064 C   0  0  0  0  0  0  0  0  0  0  0  0
  -22.0606   -6.1012   22.5521 C   0  0  0  0  0  0  0  0  0  0  0  0
  -23.2405   -4.0729   24.0609 C   0  0  0  0  0  0  0  0  0  0  0  0
  -21.4935   -5.7155   23.7667 C   0  0  0  0  0  0  0  0  0  0  0  0
  -24.5388  -11.6593   20.7232 C   0  0  0  0  0  0  0  0  0  0  0  0
  -28.4315  -18.1033   19.5468 C   0  0  0  0  0  0  0  0  0  0  0  0
  -25.2366  -13.7269   20.4525 C   0  0  0  0  0  0  0  0  0  0  0  0
  -22.8594  -13.5470   21.2041 C   0  0  0  0  0  0  0  0  0  0  0  0
  -32.0449  -26.3971   21.3506 C   0  0  0  0  0  0  0  0  0  0  0  0
  -30.7547  -28.8773   22.9957 C   0  0  0  0  0  0  0  0  0  0  0  0
  -28.0396  -30.2001   24.5847 C   0  0  0  0  0  0  0  0  0  0  0  0
  -30.7308  -14.6747   20.6984 C   0  0  0  0  0  0  0  0  0  0  0  0
  -36.5826  -24.5795   19.1207 C   0  0  0  0  0  0  0  0  0  0  0  0
  -29.9275  -26.8176   20.0485 C   0  0  0  0  0  0  0  0  0  0  0  0
  -29.4260  -26.7328   22.9616 C   0  0  0  0  0  0  0  0  0  0  0  0
  -36.3810  -24.9769   20.5793 C   0  0  0  0  0  0  0  0  0  0  0  0
  -29.5955  -12.2430   18.3586 C   0  0  0  0  0  0  0  0  0  0  0  0
  -35.1473  -25.8573   20.7125 C   0  0  0  0  0  0  0  0  0  0  0  0
  -28.1477  -11.9809   18.7770 C   0  0  0  0  0  0  0  0  0  0  0  0
  -30.4975  -12.4832   19.5672 C   0  0  0  0  0  0  0  0  0  0  0  0
  -28.5857  -13.2775   20.9043 C   0  0  0  0  0  0  0  0  0  0  0  0
  -33.8834  -25.0923   20.2998 C   0  0  1  0  0  0  0  0  0  0  0  0
  -30.9358  -27.3662   21.0532 C   0  0  1  0  0  0  0  0  0  0  0  0
  -27.6270  -13.0848   19.7169 C   0  0  2  0  0  0  0  0  0  0  0  0
  -26.0265  -19.6289   17.8919 C   0  0  0  0  0  0  0  0  0  0  0  0
  -27.3008  -32.2282   25.8647 C   0  0  0  0  0  0  0  0  0  0  0  0
  -33.5704  -20.3984   21.8135 C   0  0  0  0  0  0  0  0  0  0  0  0
  -33.3929  -18.6980   19.9881 C   0  0  0  0  0  0  0  0  0  0  0  0
  -32.2864  -27.8882   25.4423 C   0  0  0  0  0  0  0  0  0  0  0  0
  -30.8069  -29.3243   26.8625 C   0  0  0  0  0  0  0  0  0  0  0  0
  -32.2840  -30.3715   25.1467 C   0  0  0  0  0  0  0  0  0  0  0  0
  -31.4567  -19.5033   15.7862 C   0  0  0  0  0  0  0  0  0  0  0  0
  -29.7185  -17.7807   15.2508 C   0  0  0  0  0  0  0  0  0  0  0  0
  -25.9512  -30.8423   22.5884 C   0  0  0  0  0  0  0  0  0  0  0  0
  -25.8084  -19.2421   21.9216 C   0  0  0  0  0  0  0  0  0  0  0  0
  -26.0064  -18.4250   18.8388 C   0  0  0  0  0  0  0  0  0  0  0  0
  -29.0689  -17.6553   18.2905 C   0  0  0  0  0  0  0  0  0  0  0  0
  -25.9330  -20.6325   22.5484 C   0  0  0  0  0  0  0  0  0  0  0  0
  -29.8749  -18.7779   17.6005 C   0  0  0  0  0  0  0  0  0  0  0  0
  -31.3362  -19.2618   21.3186 C   0  0  0  0  0  0  0  0  0  0  0  0
  -30.8087  -16.8566   21.8785 C   0  0  0  0  0  0  0  0  0  0  0  0
  -26.2816  -21.7206   21.5396 C   0  0  0  0  0  0  0  0  0  1  0  0
  -30.2440  -29.0769   24.4023 C   0  0  1  0  0  0  0  0  0  0  0  0
  -27.3891  -31.5690   24.4971 C   0  0  2  0  0  0  0  0  0  0  0  0
  -32.8725  -19.1127   21.3678 C   0  0  0  0  0  0  0  0  0  0  0  0
  -30.5574  -17.9996   20.8751 C   0  0  1  0  0  0  0  0  0  0  0  0
  -31.3941  -29.1455   25.4462 C   0  0  0  0  0  0  0  0  0  0  0  0
  -30.6319  -18.3416   16.3360 C   0  0  0  0  0  0  0  0  0  0  0  0
  -25.8083  -11.5348   20.3272 N   0  0  0  0  0  0  0  0  0  0  0  0
  -29.1424  -18.2493   20.7093 N   0  0  0  0  0  0  0  0  0  0  0  0
  -26.2054  -12.8092   20.1706 N   0  0  0  0  0  0  0  0  0  0  0  0
  -30.3219  -27.7189   22.3350 N   0  0  0  0  0  0  0  0  0  0  0  0
  -29.9483  -13.5427   20.4169 N   0  0  0  0  0  0  0  0  0  0  0  0
  -25.4670  -15.0529   20.3474 N   0  0  0  0  0  0  0  0  0  0  0  0
  -21.8297  -12.6613   21.5498 N   0  0  0  0  0  0  0  0  0  0  0  0
  -32.7716  -26.0154   20.2390 N   0  0  0  0  0  0  0  0  0  0  0  0
  -29.3992  -30.2658   24.3649 N   0  0  0  0  0  0  0  0  0  0  0  0
  -30.1324  -15.6340   21.5060 N   0  0  0  0  0  0  0  0  0  0  0  0
  -26.0112  -31.4531   23.9413 N   0  3  0  0  0  0  0  0  0  0  0  0
  -22.6398  -14.7818   21.2250 O   0  0  0  0  0  0  0  0  0  0  0  0
  -32.2287  -26.0244   22.5035 O   0  0  0  0  0  0  0  0  0  0  0  0
  -31.5042  -29.7217   22.4990 O   0  0  0  0  0  0  0  0  0  0  0  0
  -27.4056  -29.1757   24.8278 O   0  0  0  0  0  0  0  0  0  0  0  0
  -31.8759  -14.8222   20.2578 O   0  0  0  0  0  0  0  0  0  0  0  0
  -21.4757   -7.1073   21.8016 O   0  0  0  0  0  0  0  0  0  0  0  0
  -26.3915  -22.9656   22.2282 O   0  0  0  0  0  0  0  0  0  1  0  0
  -23.8063   -3.0980   24.7845 F   0  0  0  0  0  0  0  0  0  0  0  0
  -20.3812   -6.3149   24.2135 F   0  0  0  0  0  0  0  0  0  0  0  0
  -31.5097  -17.3555   16.6887 F   0  0  0  0  0  0  0  0  0  0  0  0
  1  2  1  0  0  0  0
  1  5  2  0  0  0  0
  2  6  2  0  0  0  0
  3  8  2  0  0  0  0
  3 16  1  0  0  0  0
  4  9  1  0  0  0  0
  4 16  2  0  0  0  0
  5 18  1  0  0  0  0
  6 20  1  0  0  0  0
  7 10  2  0  0  0  0
  7 19  1  0  0  0  0
  8 24  1  0  0  0  0
  9 24  2  0  0  0  0
 10 25  1  0  0  0  0
 11 12  2  0  0  0  0
 11 26  1  0  0  0  0
 12 27  1  0  0  0  0
 13 21  1  0  0  0  0
 13 25  2  0  0  0  0
 14 27  2  0  0  0  0
 14 28  1  0  0  0  0
 15 22  2  0  0  0  0
 15 74  1  0  0  0  0
 16 29  1  0  0  0  0
 17 29  1  0  0  0  0
 17 31  2  0  0  0  0
 17 32  1  0  0  0  0
 18 20  2  0  0  0  0
 18 37  1  0  0  0  0
 19 21  2  0  0  0  0
 19 38  1  0  0  0  0
 20 46  1  0  0  0  0
 21 39  1  0  0  0  0
 22 23  1  0  0  0  0
 22 59  1  0  0  0  0
 23 30  2  0  0  0  0
 23 60  1  0  0  0  0
 24 89  1  0  0  0  0
 25 90  1  0  0  0  0
 26 28  2  0  0  0  0
 26 89  1  0  0  0  0
 27 91  1  0  0  0  0
 28 92  1  0  0  0  0
 29 73  2  0  0  0  0
 30 61  1  0  0  0  0
 30 74  1  0  0  0  0
 31 75  1  0  0  0  0
 31 78  1  0  0  0  0
 32 79  1  0  0  0  0
 32 84  2  0  0  0  0
 33 47  1  0  0  0  0
 33 80  1  0  0  0  0
 33 85  2  0  0  0  0
 34 67  1  0  0  0  0
 34 76  1  0  0  0  0
 34 86  2  0  0  0  0
 35 68  1  0  0  0  0
 35 81  1  0  0  0  0
 35 87  2  0  0  0  0
 36 77  1  0  0  0  0
 36 82  1  0  0  0  0
 36 88  2  0  0  0  0
 37 40  1  0  0  0  0
 38 47  1  0  0  0  0
 39 76  1  0  0  0  0
 40 42  1  0  0  0  0
 41 43  1  0  0  0  0
 41 44  1  0  0  0  0
 42 46  1  0  0  0  0
 43 48  1  0  0  0  0
 44 77  1  0  0  0  0
 45 48  1  0  0  0  0
 45 77  1  0  0  0  0
 46 80  1  0  0  0  0
 47 76  1  0  0  0  0
 48 75  1  0  0  0  0
 49 60  1  0  0  0  0
 50 68  1  0  0  0  0
 51 69  1  0  0  0  0
 52 69  1  0  0  0  0
 53 71  1  0  0  0  0
 54 71  1  0  0  0  0
 55 71  1  0  0  0  0
 56 72  1  0  0  0  0
 57 72  1  0  0  0  0
 58 83  1  0  0  0  0
 59 62  1  0  0  0  0
 61 63  1  0  0  0  0
 62 66  1  0  0  0  0
 63 72  1  0  0  0  0
 64 69  1  0  0  0  0
 64 70  1  0  0  0  0
 65 70  1  0  0  0  0
 65 82  1  0  0  0  0
 66 90  1  0  0  0  0
 67 71  1  0  0  0  0
 67 81  1  0  0  0  0
 68 83  1  0  0  0  0
 70 74  1  0  0  0  0
 72 93  1  0  0  0  0
 73 75  1  0  0  0  0
M  CHG  1  83   1
M  ISO  4  36 100  66 101  82 100  90 101
M  END
> <Batch ID>
0091

> <Smiles>
CCc1c(CC[101CH2:1][101O:1]c2ccc3c(c2)CN(C(=O)C(NC(=O)C(C)NC)C(C)(C)C)C(C(=O)NC2CCCc4ccccc42)C3)cn(C(C[100NH:0][100C:0](=O)N2CCCC(n3nc(-c4ccc(Oc5ccc(F)cc5F)cc4)c(C(N)=O)c3N)C2)CC(C)C)c1CCC(C)(C)F

> <Shape>
0.283

> <Color>
0.193

> <Negative vol penalty>
0.000

$$$$

  -OEChem-04052319113D

 85 93  0     1  0  0  0  0  0999 V2000
  -26.9365  -34.3508   23.3953 C   0  0  0  0  0  0  0  0  0  0  0  0
  -27.2734  -33.0191   23.1752 C   0  0  0  0  0  0  0  0  0  0  0  0
  -25.7394  -21.8594   16.3909 C   0  0  0  0  0  0  0  0  0  0  0  0
  -24.0582   -9.9376   21.9640 C   0  0  0  0  0  0  0  0  0  0  0  0
  -22.3045  -10.6040   20.4417 C   0  0  0  0  0  0  0  0  0  0  0  0
  -25.6582  -34.6803   23.8438 C   0  0  0  0  0  0  0  0  0  0  0  0
  -26.3324  -32.0160   23.4044 C   0  0  0  0  0  0  0  0  0  0  0  0
  -26.2125  -28.5786   19.6875 C   0  0  0  0  0  0  0  0  0  0  0  0
  -24.6927  -21.1321   16.9574 C   0  0  0  0  0  0  0  0  0  0  0  0
  -26.9158  -22.0654   17.1116 C   0  0  0  0  0  0  0  0  0  0  0  0
  -23.5029   -8.6607   22.0448 C   0  0  0  0  0  0  0  0  0  0  0  0
  -21.7492   -9.3270   20.5223 C   0  0  0  0  0  0  0  0  0  0  0  0
  -27.2229  -27.6180   19.6758 C   0  0  0  0  0  0  0  0  0  0  0  0
  -20.9301   -7.1602   23.6429 C   0  0  0  0  0  0  0  0  0  0  0  0
  -20.8156   -6.5829   24.9075 C   0  0  0  0  0  0  0  0  0  0  0  0
  -25.7170  -26.0302   20.6908 C   0  0  0  0  0  0  0  0  0  0  0  0
  -22.2270   -4.7540   24.2003 C   0  0  0  0  0  0  0  0  0  0  0  0
  -23.4590  -10.9094   21.1625 C   0  0  0  0  0  0  0  0  0  0  0  0
  -24.9995  -12.6791   20.1612 C   0  0  0  0  0  0  0  0  0  0  0  0
  -24.6979  -33.6815   24.0694 C   0  0  0  0  0  0  0  0  0  0  0  0
  -24.9479  -28.2750   20.2119 C   0  0  0  0  0  0  0  0  0  0  0  0
  -25.0404  -32.3323   23.8576 C   0  0  0  0  0  0  0  0  0  0  0  0
  -24.6915  -26.9879   20.7057 C   0  0  0  0  0  0  0  0  0  0  0  0
  -24.8222  -20.6109   18.2447 C   0  0  0  0  0  0  0  0  0  0  0  0
  -27.0453  -21.5441   18.3989 C   0  0  0  0  0  0  0  0  0  0  0  0
  -25.9985  -20.8169   18.9655 C   0  0  0  0  0  0  0  0  0  0  0  0
  -22.3485   -8.3553   21.3239 C   0  0  0  0  0  0  0  0  0  0  0  0
  -26.9761  -26.3445   20.1801 C   0  0  0  0  0  0  0  0  0  0  0  0
  -21.6931   -6.5344   22.6570 C   0  0  0  0  0  0  0  0  0  0  0  0
  -21.4640   -5.3798   25.1862 C   0  0  0  0  0  0  0  0  0  0  0  0
  -22.3415   -5.3313   22.9357 C   0  0  0  0  0  0  0  0  0  0  0  0
  -24.0318  -12.2289   21.0792 C   0  0  0  0  0  0  0  0  0  0  0  0
  -25.2062  -13.9946   20.4977 C   0  0  0  0  0  0  0  0  0  0  0  0
  -25.6531  -11.9714   19.0993 C   0  0  0  0  0  0  0  0  0  0  0  0
  -23.1958  -29.3779   22.6239 C   0  0  0  0  0  0  0  0  0  0  0  0
  -20.9499  -27.3887   21.3904 C   0  0  0  0  0  0  0  0  0  0  0  0
  -20.2423  -24.6186   19.5270 C   0  0  0  0  0  0  0  0  0  0  0  0
  -22.3100  -18.6245   22.4189 C   0  0  0  0  0  0  0  0  0  0  0  0
  -23.3440  -34.0825   24.5993 C   0  0  0  0  0  0  0  0  0  0  0  0
  -23.8606  -29.3141   20.1928 C   0  0  0  0  0  0  0  0  0  0  0  0
  -23.3447  -26.6054   21.2611 C   0  0  0  0  0  0  0  0  0  0  0  0
  -22.2872  -32.9899   24.4595 C   0  0  0  0  0  0  0  0  0  0  0  0
  -24.4305  -16.7176   24.5506 C   0  0  0  0  0  0  0  0  0  0  0  0
  -22.8417  -31.6479   24.9269 C   0  0  0  0  0  0  0  0  0  0  0  0
  -24.6338  -15.4075   23.7874 C   0  0  0  0  0  0  0  0  0  0  0  0
  -23.0170  -17.2651   24.3654 C   0  0  0  0  0  0  0  0  0  0  0  0
  -22.7960  -16.1122   22.1984 C   0  0  0  0  0  0  0  0  0  0  0  0
  -24.0393  -31.2177   24.0711 C   0  0  1  0  0  0  0  0  0  0  0  0
  -22.7652  -29.0518   21.2218 C   0  0  1  0  0  0  0  0  0  0  0  0
  -24.2237  -15.5502   22.3093 C   0  0  2  0  0  0  0  0  0  0  0  0
  -27.0066  -19.0055   20.3759 C   0  0  0  0  0  0  0  0  0  0  0  0
  -18.3174  -23.2205   18.7286 C   0  0  0  0  0  0  0  0  0  0  0  0
  -20.6972  -26.1542   24.1692 C   0  0  0  0  0  0  0  0  0  0  0  0
  -19.5190  -24.2092   23.1218 C   0  0  0  0  0  0  0  0  0  0  0  0
  -18.5252  -26.4927   22.9766 C   0  0  0  0  0  0  0  0  0  0  0  0
  -20.8776  -25.1581   16.6872 C   0  0  0  0  0  0  0  0  0  0  0  0
  -23.6865  -19.8354   18.8283 C   0  0  0  0  0  0  0  0  0  0  0  0
  -28.3274  -21.7809   19.1564 C   0  0  0  0  0  0  0  0  0  0  0  0
  -26.1374  -20.2580   20.3459 C   0  0  0  0  0  0  0  0  0  0  0  0
  -22.8159  -20.6315   19.8190 C   0  0  0  0  0  0  0  0  0  0  0  0
  -28.6619  -23.2611   19.3536 C   0  0  0  0  0  0  0  0  0  0  0  0
  -21.6247  -19.8544   20.3752 C   0  0  0  0  0  0  0  0  0  0  0  0
  -27.5565  -24.0416   20.0552 C   0  0  0  0  0  0  0  0  0  1  0  0
  -20.5725  -25.9420   21.5991 C   0  0  1  0  0  0  0  0  0  0  0  0
  -19.2420  -24.3850   18.4093 C   0  0  2  0  0  0  0  0  0  0  0  0
  -19.8545  -25.7070   22.9581 C   0  0  0  0  0  0  0  0  0  0  0  0
  -23.6503  -13.1810   21.9347 N   0  0  0  0  0  0  0  0  0  0  0  0
  -24.3820  -14.2426   21.5557 N   0  0  0  0  0  0  0  0  0  0  0  0
  -22.3161  -27.6581   21.2263 N   0  0  0  0  0  0  0  0  0  0  0  0
  -22.6910  -17.3776   22.9416 N   0  0  0  0  0  0  0  0  0  0  0  0
  -26.0107  -14.9518   19.9888 N   0  0  0  0  0  0  0  0  0  0  0  0
  -25.3232  -10.6253   18.8912 N   0  0  0  0  0  0  0  0  0  0  0  0
  -23.5893  -30.6907   22.8006 N   0  0  0  0  0  0  0  0  0  0  0  0
  -19.7869  -25.5528   20.4331 N   0  0  0  0  0  0  0  0  0  0  0  0
  -22.0243  -18.6448   21.0592 N   0  0  0  0  0  0  0  0  0  0  0  0
  -19.9514  -24.0857   17.1334 N   0  3  0  0  0  0  0  0  0  0  0  0
  -26.5165  -12.5122   18.3673 O   0  0  0  0  0  0  0  0  0  0  0  0
  -23.1715  -28.5036   23.4822 O   0  0  0  0  0  0  0  0  0  0  0  0
  -20.0645  -28.2473   21.3664 O   0  0  0  0  0  0  0  0  0  0  0  0
  -21.3184  -24.0284   19.5919 O   0  0  0  0  0  0  0  0  0  0  0  0
  -22.2356  -19.6452   23.1114 O   0  0  0  0  0  0  0  0  0  0  0  0
  -21.8065   -7.1093   21.4022 O   0  0  0  0  0  0  0  0  0  0  0  0
  -27.9608  -25.4052   20.1705 O   0  0  0  0  0  0  0  0  0  1  0  0
  -21.3552   -4.8263   26.4011 F   0  0  0  0  0  0  0  0  0  0  0  0
  -23.0768   -4.7260   21.9930 F   0  0  0  0  0  0  0  0  0  0  0  0
  1  2  1  0  0  0  0
  1  6  2  0  0  0  0
  2  7  2  0  0  0  0
  3  9  1  0  0  0  0
  3 10  2  0  0  0  0
  4 11  2  0  0  0  0
  4 18  1  0  0  0  0
  5 12  1  0  0  0  0
  5 18  2  0  0  0  0
  6 20  1  0  0  0  0
  7 22  1  0  0  0  0
  8 13  2  0  0  0  0
  8 21  1  0  0  0  0
  9 24  2  0  0  0  0
 10 25  1  0  0  0  0
 11 27  1  0  0  0  0
 12 27  2  0  0  0  0
 13 28  1  0  0  0  0
 14 15  2  0  0  0  0
 14 29  1  0  0  0  0
 15 30  1  0  0  0  0
 16 23  1  0  0  0  0
 16 28  2  0  0  0  0
 17 30  2  0  0  0  0
 17 31  1  0  0  0  0
 18 32  1  0  0  0  0
 19 32  1  0  0  0  0
 19 33  2  0  0  0  0
 19 34  1  0  0  0  0
 20 22  2  0  0  0  0
 20 39  1  0  0  0  0
 21 23  2  0  0  0  0
 21 40  1  0  0  0  0
 22 48  1  0  0  0  0
 23 41  1  0  0  0  0
 24 26  1  0  0  0  0
 24 57  1  0  0  0  0
 25 26  2  0  0  0  0
 25 58  1  0  0  0  0
 26 59  1  0  0  0  0
 27 82  1  0  0  0  0
 28 83  1  0  0  0  0
 29 31  2  0  0  0  0
 29 82  1  0  0  0  0
 30 84  1  0  0  0  0
 31 85  1  0  0  0  0
 32 67  2  0  0  0  0
 33 68  1  0  0  0  0
 33 71  1  0  0  0  0
 34 72  1  0  0  0  0
 34 77  2  0  0  0  0
 35 49  1  0  0  0  0
 35 73  1  0  0  0  0
 35 78  2  0  0  0  0
 36 64  1  0  0  0  0
 36 69  1  0  0  0  0
 36 79  2  0  0  0  0
 37 65  1  0  0  0  0
 37 74  1  0  0  0  0
 37 80  2  0  0  0  0
 38 70  1  0  0  0  0
 38 75  1  0  0  0  0
 38 81  2  0  0  0  0
 39 42  1  0  0  0  0
 40 49  1  0  0  0  0
 41 69  1  0  0  0  0
 42 44  1  0  0  0  0
 43 45  1  0  0  0  0
 43 46  1  0  0  0  0
 44 48  1  0  0  0  0
 45 50  1  0  0  0  0
 46 70  1  0  0  0  0
 47 50  1  0  0  0  0
 47 70  1  0  0  0  0
 48 73  1  0  0  0  0
 49 69  1  0  0  0  0
 50 68  1  0  0  0  0
 51 59  1  0  0  0  0
 52 65  1  0  0  0  0
 53 66  1  0  0  0  0
 54 66  1  0  0  0  0
 55 66  1  0  0  0  0
 56 76  1  0  0  0  0
 57 60  1  0  0  0  0
 58 61  1  0  0  0  0
 60 62  1  0  0  0  0
 61 63  1  0  0  0  0
 62 75  1  0  0  0  0
 63 83  1  0  0  0  0
 64 66  1  0  0  0  0
 64 74  1  0  0  0  0
 65 76  1  0  0  0  0
 67 68  1  0  0  0  0
M  CHG  1  76   1
M  ISO  4  38 100  63 101  75 100  83 101
M  END
> <Batch ID>
0091

> <Smiles>
CCc1c(CCC[100NH:0][100C:0](=O)N2CCCC(n3nc(-c4ccc(Oc5ccc(F)cc5F)cc4)c(C(N)=O)c3N)C2)cccc1CC[101CH2:1][101O:1]c1ccc2c(c1)CN(C(=O)C(NC(=O)C(C)NC)C(C)(C)C)C(C(=O)NC1CCCc3ccccc31)C2

> <Shape>
0.264

> <Color>
0.101

> <Negative vol penalty>
0.000

$$$$

  -OEChem-04052319113D

 88 96  0     1  0  0  0  0  0999 V2000
  -20.8399  -20.7709   20.5751 C   0  0  0  0  0  0  0  0  0  0  0  0
  -21.9750  -21.4667   20.1717 C   0  0  0  0  0  0  0  0  0  0  0  0
  -26.9370  -14.1814   21.7886 C   0  0  0  0  0  0  0  0  0  0  0  0
  -26.6164  -14.2783   19.3960 C   0  0  0  0  0  0  0  0  0  0  0  0
  -19.6160  -21.4318   20.6712 C   0  0  0  0  0  0  0  0  0  0  0  0
  -21.8867  -22.8237   19.8631 C   0  0  0  0  0  0  0  0  0  0  0  0
  -25.6657  -25.5248   21.8800 C   0  0  0  0  0  0  0  0  0  0  0  0
  -26.1739  -13.0151   21.8437 C   0  0  0  0  0  0  0  0  0  0  0  0
  -25.8534  -13.1119   19.4509 C   0  0  0  0  0  0  0  0  0  0  0  0
  -26.9024  -25.4669   21.2389 C   0  0  0  0  0  0  0  0  0  0  0  0
  -26.6049   -9.7237   21.2002 C   0  0  0  0  0  0  0  0  0  0  0  0
  -27.0891   -8.6682   21.9729 C   0  0  0  0  0  0  0  0  0  0  0  0
  -26.4463  -27.5861   20.1806 C   0  0  0  0  0  0  0  0  0  0  0  0
  -25.0978   -8.7546   23.3385 C   0  0  0  0  0  0  0  0  0  0  0  0
  -28.4792  -24.2053   16.7035 C   0  0  0  0  0  0  0  0  0  0  0  0
  -27.1582  -14.8131   20.5648 C   0  0  0  0  0  0  0  0  0  0  0  0
  -29.3383  -16.1158   20.3246 C   0  0  0  0  0  0  0  0  0  0  0  0
  -19.5145  -22.7998   20.3729 C   0  0  0  0  0  0  0  0  0  0  0  0
  -24.8039  -26.6104   21.6673 C   0  0  0  0  0  0  0  0  0  0  0  0
  -20.6600  -23.5032   19.9540 C   0  0  0  0  0  0  0  0  0  0  0  0
  -25.2002  -27.6566   20.8221 C   0  0  0  0  0  0  0  0  0  0  0  0
  -29.7904  -24.3328   17.1057 C   0  0  0  0  0  0  0  0  0  0  0  0
  -30.4400  -23.1052   16.8261 C   0  0  0  0  0  0  0  0  0  0  0  0
  -25.6321  -12.4803   20.6748 C   0  0  0  0  0  0  0  0  0  0  0  0
  -27.2917  -26.4963   20.3869 C   0  0  0  0  0  0  0  0  0  0  0  0
  -25.3673  -10.2948   21.4967 C   0  0  0  0  0  0  0  0  0  0  0  0
  -26.3355   -8.1836   23.0420 C   0  0  0  0  0  0  0  0  0  0  0  0
  -24.6137   -9.8102   22.5658 C   0  0  0  0  0  0  0  0  0  0  0  0
  -27.9459  -16.0182   20.5074 C   0  0  0  0  0  0  0  0  0  0  0  0
  -29.5060  -22.2650   16.2612 C   0  0  0  0  0  0  0  0  0  0  0  0
  -29.5934  -17.4652   20.3442 C   0  0  0  0  0  0  0  0  0  0  0  0
  -30.3139  -15.0793   20.1524 C   0  0  0  0  0  0  0  0  0  0  0  0
  -21.8833  -26.9528   20.4603 C   0  0  0  0  0  0  0  0  0  0  0  0
  -22.2589  -30.0208   21.4446 C   0  0  0  0  0  0  0  0  0  0  0  0
  -24.3857  -32.5659   22.2483 C   0  0  0  0  0  0  0  0  0  0  0  0
  -26.2342  -22.2682   19.1205 C   0  0  0  0  0  0  0  0  0  0  0  0
  -18.1606  -23.4602   20.4458 C   0  0  0  0  0  0  0  0  0  0  0  0
  -23.4845  -26.6708   22.3871 C   0  0  0  0  0  0  0  0  0  0  0  0
  -24.3203  -28.8539   20.5760 C   0  0  0  0  0  0  0  0  0  0  0  0
  -18.2268  -24.9852   20.4619 C   0  0  0  0  0  0  0  0  0  0  0  0
  -27.9323  -21.5639   22.1696 C   0  0  0  0  0  0  0  0  0  0  0  0
  -19.1839  -25.4893   19.3864 C   0  0  0  0  0  0  0  0  0  0  0  0
  -28.2540  -20.0716   22.0729 C   0  0  0  0  0  0  0  0  0  0  0  0
  -26.5779  -21.8910   21.5446 C   0  0  0  0  0  0  0  0  0  0  0  0
  -26.7285  -19.9295   20.0600 C   0  0  0  0  0  0  0  0  0  0  0  0
  -20.6094  -24.9815   19.6345 C   0  0  1  0  0  0  0  0  0  0  0  0
  -22.4681  -27.5750   21.6967 C   0  0  1  0  0  0  0  0  0  0  0  0
  -28.1097  -19.5594   20.6271 C   0  0  2  0  0  0  0  0  0  0  0  0
  -32.7605  -23.5830   14.8290 C   0  0  0  0  0  0  0  0  0  0  0  0
  -32.0076  -21.6339   18.1178 C   0  0  0  0  0  0  0  0  0  0  0  0
  -29.3682  -20.7299   14.2667 C   0  0  0  0  0  0  0  0  0  0  0  0
  -28.7486  -19.8790   16.5574 C   0  0  0  0  0  0  0  0  0  0  0  0
  -24.3977  -34.9665   22.9792 C   0  0  0  0  0  0  0  0  0  0  0  0
  -21.5535  -30.8863   18.6050 C   0  0  0  0  0  0  0  0  0  0  0  0
  -22.4921  -33.1460   19.1352 C   0  0  0  0  0  0  0  0  0  0  0  0
  -20.5268  -32.2839   20.4070 C   0  0  0  0  0  0  0  0  0  0  0  0
  -25.7893  -31.9118   24.7704 C   0  0  0  0  0  0  0  0  0  0  0  0
  -30.4089  -25.5588   17.7286 C   0  0  0  0  0  0  0  0  0  0  0  0
  -32.6891  -22.4278   15.8204 C   0  0  0  0  0  0  0  0  0  0  0  0
  -30.6169  -25.4433   19.2402 C   0  0  0  0  0  0  0  0  0  0  0  0
  -27.0749  -22.4269   15.6628 C   0  0  0  0  0  0  0  0  0  0  0  0
  -25.9275  -22.4890   16.6677 C   0  0  0  0  0  0  0  0  0  0  0  0
  -29.3147  -25.3011   20.0197 C   0  0  0  0  0  0  0  0  0  1  0  0
  -31.8575  -22.7830   17.0905 C   0  0  1  0  0  0  0  0  0  0  0  0
  -29.6415  -20.8735   15.7811 C   0  0  0  0  0  0  0  0  0  0  0  0
  -22.8102  -31.2823   20.8253 C   0  0  1  0  0  0  0  0  0  0  0  0
  -24.4187  -33.5150   23.4325 C   0  0  2  0  0  0  0  0  0  0  0  0
  -21.8616  -31.8763   19.7461 C   0  0  0  0  0  0  0  0  0  0  0  0
  -27.3576  -17.2106   20.6340 N   0  0  0  0  0  0  0  0  0  0  0  0
  -28.3179  -22.9444   16.1914 N   0  0  0  0  0  0  0  0  0  0  0  0
  -28.3854  -18.0703   20.5307 N   0  0  0  0  0  0  0  0  0  0  0  0
  -23.0372  -28.8639   21.2979 N   0  0  0  0  0  0  0  0  0  0  0  0
  -26.5066  -21.3796   20.1737 N   0  0  0  0  0  0  0  0  0  0  0  0
  -30.7310  -18.1814   20.2201 N   0  0  0  0  0  0  0  0  0  0  0  0
  -29.8806  -13.7464   20.1572 N   0  0  0  0  0  0  0  0  0  0  0  0
  -21.2435  -25.7488   20.6850 N   0  0  0  0  0  0  0  0  0  0  0  0
  -23.0978  -32.1884   21.9320 N   0  0  0  0  0  0  0  0  0  0  0  0
  -26.1906  -21.7025   17.8522 N   0  0  0  0  0  0  0  0  0  0  0  0
  -25.6512  -33.2927   24.2403 N   0  3  0  0  0  0  0  0  0  0  0  0
  -31.5359  -15.3271   20.0152 O   0  0  0  0  0  0  0  0  0  0  0  0
  -22.0024  -27.5237   19.3825 O   0  0  0  0  0  0  0  0  0  0  0  0
  -21.1809  -30.0619   22.0428 O   0  0  0  0  0  0  0  0  0  0  0  0
  -25.4006  -32.1991   21.6601 O   0  0  0  0  0  0  0  0  0  0  0  0
  -26.0491  -23.4772   19.2969 O   0  0  0  0  0  0  0  0  0  0  0  0
  -24.8877  -11.3421   20.7281 O   0  0  0  0  0  0  0  0  0  0  0  0
  -28.4980  -26.4419   19.7594 O   0  0  0  0  0  0  0  0  0  1  0  0
  -26.7998   -7.1690   23.7830 F   0  0  0  0  0  0  0  0  0  0  0  0
  -23.4235  -10.3539   22.8546 F   0  0  0  0  0  0  0  0  0  0  0  0
  1  2  1  0  0  0  0
  1  5  2  0  0  0  0
  2  6  2  0  0  0  0
  3  8  2  0  0  0  0
  3 16  1  0  0  0  0
  4  9  1  0  0  0  0
  4 16  2  0  0  0  0
  5 18  1  0  0  0  0
  6 20  1  0  0  0  0
  7 10  2  0  0  0  0
  7 19  1  0  0  0  0
  8 24  1  0  0  0  0
  9 24  2  0  0  0  0
 10 25  1  0  0  0  0
 11 12  2  0  0  0  0
 11 26  1  0  0  0  0
 12 27  1  0  0  0  0
 13 21  1  0  0  0  0
 13 25  2  0  0  0  0
 14 27  2  0  0  0  0
 14 28  1  0  0  0  0
 15 22  2  0  0  0  0
 15 70  1  0  0  0  0
 16 29  1  0  0  0  0
 17 29  1  0  0  0  0
 17 31  2  0  0  0  0
 17 32  1  0  0  0  0
 18 20  2  0  0  0  0
 18 37  1  0  0  0  0
 19 21  2  0  0  0  0
 19 38  1  0  0  0  0
 20 46  1  0  0  0  0
 21 39  1  0  0  0  0
 22 23  1  0  0  0  0
 22 58  1  0  0  0  0
 23 30  2  0  0  0  0
 23 64  1  0  0  0  0
 24 85  1  0  0  0  0
 25 86  1  0  0  0  0
 26 28  2  0  0  0  0
 26 85  1  0  0  0  0
 27 87  1  0  0  0  0
 28 88  1  0  0  0  0
 29 69  2  0  0  0  0
 30 65  1  0  0  0  0
 30 70  1  0  0  0  0
 31 71  1  0  0  0  0
 31 74  1  0  0  0  0
 32 75  1  0  0  0  0
 32 80  2  0  0  0  0
 33 47  1  0  0  0  0
 33 76  1  0  0  0  0
 33 81  2  0  0  0  0
 34 66  1  0  0  0  0
 34 72  1  0  0  0  0
 34 82  2  0  0  0  0
 35 67  1  0  0  0  0
 35 77  1  0  0  0  0
 35 83  2  0  0  0  0
 36 73  1  0  0  0  0
 36 78  1  0  0  0  0
 36 84  2  0  0  0  0
 37 40  1  0  0  0  0
 38 47  1  0  0  0  0
 39 72  1  0  0  0  0
 40 42  1  0  0  0  0
 41 43  1  0  0  0  0
 41 44  1  0  0  0  0
 42 46  1  0  0  0  0
 43 48  1  0  0  0  0
 44 73  1  0  0  0  0
 45 48  1  0  0  0  0
 45 73  1  0  0  0  0
 46 76  1  0  0  0  0
 47 72  1  0  0  0  0
 48 71  1  0  0  0  0
 49 59  1  0  0  0  0
 50 64  1  0  0  0  0
 51 65  1  0  0  0  0
 52 65  1  0  0  0  0
 53 67  1  0  0  0  0
 54 68  1  0  0  0  0
 55 68  1  0  0  0  0
 56 68  1  0  0  0  0
 57 79  1  0  0  0  0
 58 60  1  0  0  0  0
 59 64  1  0  0  0  0
 60 63  1  0  0  0  0
 61 62  1  0  0  0  0
 61 70  1  0  0  0  0
 62 78  1  0  0  0  0
 63 86  1  0  0  0  0
 66 68  1  0  0  0  0
 66 77  1  0  0  0  0
 67 79  1  0  0  0  0
 69 71  1  0  0  0  0
M  CHG  1  79   1
M  ISO  4  36 100  63 101  78 100  86 101
M  END
> <Batch ID>
0091

> <Smiles>
CCC(C)c1c(CC[101CH2:1][101O:1]c2ccc3c(c2)CN(C(=O)C(NC(=O)C(C)NC)C(C)(C)C)C(C(=O)NC2CCCc4ccccc42)C3)cn(CC[100NH:0][100C:0](=O)N2CCCC(n3nc(-c4ccc(Oc5ccc(F)cc5F)cc4)c(C(N)=O)c3N)C2)c1C(C)C

> <Shape>
0.221

> <Color>
0.060

> <Negative vol penalty>
0.000

$$$$

  -OEChem-04052319113D

 84 92  0     1  0  0  0  0  0999 V2000
  -32.1477  -14.9366   18.9515 C   0  0  0  0  0  0  0  0  0  0  0  0
  -31.1713  -15.9014   18.7254 C   0  0  0  0  0  0  0  0  0  0  0  0
  -29.2246  -25.7427   20.8647 C   0  0  0  0  0  0  0  0  0  0  0  0
  -27.3426  -24.3300   21.4123 C   0  0  0  0  0  0  0  0  0  0  0  0
  -31.7808  -13.6634   19.3855 C   0  0  0  0  0  0  0  0  0  0  0  0
  -29.8271  -15.5932   18.9323 C   0  0  0  0  0  0  0  0  0  0  0  0
  -25.4655  -19.3554   21.0127 C   0  0  0  0  0  0  0  0  0  0  0  0
  -30.0781  -24.8645   21.5324 C   0  0  0  0  0  0  0  0  0  0  0  0
  -28.1962  -23.4518   22.0801 C   0  0  0  0  0  0  0  0  0  0  0  0
  -24.4821  -20.1009   20.3639 C   0  0  0  0  0  0  0  0  0  0  0  0
  -29.9293  -20.6513   23.6201 C   0  0  0  0  0  0  0  0  0  0  0  0
  -29.7656  -19.2855   23.3893 C   0  0  0  0  0  0  0  0  0  0  0  0
  -22.8899  -18.3320   20.7579 C   0  0  0  0  0  0  0  0  0  0  0  0
  -19.7919  -28.1673   19.4005 C   0  0  0  0  0  0  0  0  0  0  0  0
  -30.2107  -19.6293   21.0396 C   0  0  0  0  0  0  0  0  0  0  0  0
  -19.3380  -26.6653   21.0153 C   0  0  0  0  0  0  0  0  0  0  0  0
  -27.8568  -25.4755   20.8047 C   0  0  0  0  0  0  0  0  0  0  0  0
  -26.6078  -26.3440   18.7569 C   0  0  0  0  0  0  0  0  0  0  0  0
  -30.4323  -13.3424   19.6071 C   0  0  0  0  0  0  0  0  0  0  0  0
  -25.1708  -18.0859   21.5302 C   0  0  0  0  0  0  0  0  0  0  0  0
  -29.4417  -14.3142   19.3684 C   0  0  0  0  0  0  0  0  0  0  0  0
  -23.8707  -17.5735   21.4150 C   0  0  0  0  0  0  0  0  0  0  0  0
  -19.4485  -28.0155   20.7665 C   0  0  0  0  0  0  0  0  0  0  0  0
  -29.5639  -23.7191   22.1401 C   0  0  0  0  0  0  0  0  0  0  0  0
  -23.1948  -19.5880   20.2339 C   0  0  0  0  0  0  0  0  0  0  0  0
  -30.2336  -21.5062   22.5607 C   0  0  0  0  0  0  0  0  0  0  0  0
  -29.9063  -18.7744   22.0991 C   0  0  0  0  0  0  0  0  0  0  0  0
  -30.3743  -20.9951   21.2705 C   0  0  0  0  0  0  0  0  0  0  0  0
  -26.9745  -26.3825   20.1155 C   0  0  0  0  0  0  0  0  0  0  0  0
  -19.8807  -26.9052   18.8560 C   0  0  0  0  0  0  0  0  0  0  0  0
  -25.7591  -27.4124   18.5999 C   0  0  0  0  0  0  0  0  0  0  0  0
  -26.9994  -25.4246   17.7287 C   0  0  0  0  0  0  0  0  0  0  0  0
  -26.2132  -15.1364   20.9664 C   0  0  0  0  0  0  0  0  0  0  0  0
  -24.3329  -14.4048   23.5064 C   0  0  0  0  0  0  0  0  0  0  0  0
  -21.6619  -15.2257   25.4655 C   0  0  0  0  0  0  0  0  0  0  0  0
  -22.2364  -30.4139   22.3988 C   0  0  0  0  0  0  0  0  0  0  0  0
  -30.0804  -11.9384   20.0309 C   0  0  0  0  0  0  0  0  0  0  0  0
  -26.2360  -17.3057   22.2508 C   0  0  0  0  0  0  0  0  0  0  0  0
  -23.4978  -16.2244   21.9711 C   0  0  0  0  0  0  0  0  0  0  0  0
  -28.6646  -11.8065   20.5861 C   0  0  0  0  0  0  0  0  0  0  0  0
  -24.8413  -31.7583   20.3780 C   0  0  0  0  0  0  0  0  0  0  0  0
  -27.6677  -12.5253   19.6824 C   0  0  0  0  0  0  0  0  0  0  0  0
  -25.6503  -30.5295   19.9590 C   0  0  0  0  0  0  0  0  0  0  0  0
  -24.3132  -31.6266   21.8048 C   0  0  0  0  0  0  0  0  0  0  0  0
  -24.3535  -29.1672   21.6505 C   0  0  0  0  0  0  0  0  0  0  0  0
  -27.9752  -14.0256   19.6053 C   0  0  1  0  0  0  0  0  0  0  0  0
  -25.9571  -15.8063   22.2867 C   0  0  1  0  0  0  0  0  0  0  0  0
  -24.8600  -29.2292   20.1993 C   0  0  2  0  0  0  0  0  0  0  0  0
  -20.2070  -26.4887   17.4764 C   0  0  0  0  0  0  0  0  0  0  0  0
  -17.7975  -29.1464   22.2895 C   0  0  0  0  0  0  0  0  0  0  0  0
  -20.3458  -14.4149   27.4424 C   0  0  0  0  0  0  0  0  0  0  0  0
  -22.9888  -12.3050   21.7473 C   0  0  0  0  0  0  0  0  0  0  0  0
  -21.1189  -12.2104   23.4095 C   0  0  0  0  0  0  0  0  0  0  0  0
  -23.4299  -11.5703   24.0968 C   0  0  0  0  0  0  0  0  0  0  0  0
  -22.3051  -17.6509   27.0351 C   0  0  0  0  0  0  0  0  0  0  0  0
  -20.9796  -23.8615   19.6947 C   0  0  0  0  0  0  0  0  0  0  0  0
  -20.9383  -22.3337   19.6354 C   0  0  0  0  0  0  0  0  0  0  0  0
  -19.5860  -24.4999   19.6936 C   0  0  0  0  0  0  0  0  0  0  0  0
  -20.2295  -29.0609   22.9473 C   0  0  0  0  0  0  0  0  0  0  0  0
  -22.3377  -21.7345   19.6737 C   0  0  0  0  0  0  0  0  0  1  0  0
  -19.2466  -29.1022   21.7437 C   0  0  1  0  0  0  0  0  0  0  0  0
  -22.8883  -14.0057   23.6873 C   0  0  1  0  0  0  0  0  0  0  0  0
  -21.5000  -15.2872   26.9737 C   0  0  2  0  0  0  0  0  0  0  0  0
  -22.6137  -12.5475   23.2230 C   0  0  0  0  0  0  0  0  0  0  0  0
  -26.4055  -27.3953   20.7747 N   0  0  0  0  0  0  0  0  0  0  0  0
  -19.6025  -26.0000   19.8466 N   0  0  0  0  0  0  0  0  0  0  0  0
  -25.6727  -28.0031   19.8262 N   0  0  0  0  0  0  0  0  0  0  0  0
  -24.5757  -15.4971   22.6615 N   0  0  0  0  0  0  0  0  0  0  0  0
  -23.5720  -30.3733   21.9658 N   0  0  0  0  0  0  0  0  0  0  0  0
  -25.0859  -27.8948   17.5339 N   0  0  0  0  0  0  0  0  0  0  0  0
  -27.8779  -24.3845   18.0616 N   0  0  0  0  0  0  0  0  0  0  0  0
  -27.5132  -14.6983   20.8006 N   0  0  0  0  0  0  0  0  0  0  0  0
  -22.5678  -14.2571   25.0882 N   0  0  0  0  0  0  0  0  0  0  0  0
  -21.6052  -29.1819   22.5188 N   0  0  0  0  0  0  0  0  0  0  0  0
  -21.2376  -16.6879   27.4097 N   0  3  0  0  0  0  0  0  0  0  0  0
  -26.5954  -25.5322   16.5460 O   0  0  0  0  0  0  0  0  0  0  0  0
  -25.2987  -15.0240   20.1585 O   0  0  0  0  0  0  0  0  0  0  0  0
  -25.2130  -13.7752   24.0986 O   0  0  0  0  0  0  0  0  0  0  0  0
  -21.0435  -15.9606   24.6987 O   0  0  0  0  0  0  0  0  0  0  0  0
  -21.6482  -31.4703   22.6542 O   0  0  0  0  0  0  0  0  0  0  0  0
  -30.3965  -22.8618   22.7916 O   0  0  0  0  0  0  0  0  0  0  0  0
  -22.2331  -20.3133   19.6006 O   0  0  0  0  0  0  0  0  0  1  0  0
  -29.7506  -17.4626   21.8778 F   0  0  0  0  0  0  0  0  0  0  0  0
  -30.6677  -21.8113   20.2489 F   0  0  0  0  0  0  0  0  0  0  0  0
  1  2  1  0  0  0  0
  1  5  2  0  0  0  0
  2  6  2  0  0  0  0
  3  8  2  0  0  0  0
  3 17  1  0  0  0  0
  4  9  1  0  0  0  0
  4 17  2  0  0  0  0
  5 19  1  0  0  0  0
  6 21  1  0  0  0  0
  7 10  2  0  0  0  0
  7 20  1  0  0  0  0
  8 24  1  0  0  0  0
  9 24  2  0  0  0  0
 10 25  1  0  0  0  0
 11 12  2  0  0  0  0
 11 26  1  0  0  0  0
 12 27  1  0  0  0  0
 13 22  1  0  0  0  0
 13 25  2  0  0  0  0
 14 23  1  0  0  0  0
 14 30  2  0  0  0  0
 15 27  2  0  0  0  0
 15 28  1  0  0  0  0
 16 23  2  0  0  0  0
 16 66  1  0  0  0  0
 17 29  1  0  0  0  0
 18 29  1  0  0  0  0
 18 31  2  0  0  0  0
 18 32  1  0  0  0  0
 19 21  2  0  0  0  0
 19 37  1  0  0  0  0
 20 22  2  0  0  0  0
 20 38  1  0  0  0  0
 21 46  1  0  0  0  0
 22 39  1  0  0  0  0
 23 61  1  0  0  0  0
 24 81  1  0  0  0  0
 25 82  1  0  0  0  0
 26 28  2  0  0  0  0
 26 81  1  0  0  0  0
 27 83  1  0  0  0  0
 28 84  1  0  0  0  0
 29 65  2  0  0  0  0
 30 49  1  0  0  0  0
 30 66  1  0  0  0  0
 31 67  1  0  0  0  0
 31 70  1  0  0  0  0
 32 71  1  0  0  0  0
 32 76  2  0  0  0  0
 33 47  1  0  0  0  0
 33 72  1  0  0  0  0
 33 77  2  0  0  0  0
 34 62  1  0  0  0  0
 34 68  1  0  0  0  0
 34 78  2  0  0  0  0
 35 63  1  0  0  0  0
 35 73  1  0  0  0  0
 35 79  2  0  0  0  0
 36 69  1  0  0  0  0
 36 74  1  0  0  0  0
 36 80  2  0  0  0  0
 37 40  1  0  0  0  0
 38 47  1  0  0  0  0
 39 68  1  0  0  0  0
 40 42  1  0  0  0  0
 41 43  1  0  0  0  0
 41 44  1  0  0  0  0
 42 46  1  0  0  0  0
 43 48  1  0  0  0  0
 44 69  1  0  0  0  0
 45 48  1  0  0  0  0
 45 69  1  0  0  0  0
 46 72  1  0  0  0  0
 47 68  1  0  0  0  0
 48 67  1  0  0  0  0
 50 61  1  0  0  0  0
 51 63  1  0  0  0  0
 52 64  1  0  0  0  0
 53 64  1  0  0  0  0
 54 64  1  0  0  0  0
 55 75  1  0  0  0  0
 56 57  1  0  0  0  0
 56 58  1  0  0  0  0
 57 60  1  0  0  0  0
 58 66  1  0  0  0  0
 59 61  1  0  0  0  0
 59 74  1  0  0  0  0
 60 82  1  0  0  0  0
 62 64  1  0  0  0  0
 62 73  1  0  0  0  0
 63 75  1  0  0  0  0
 65 67  1  0  0  0  0
M  CHG  1  75   1
M  ISO  4  36 100  60 101  74 100  82 101
M  END
> <Batch ID>
0091

> <Smiles>
CNC(C)C(=O)NC(C(=O)N1Cc2cc([101O:1][101CH2:1]CCCn3cc(C(C)C[100NH:0][100C:0](=O)N4CCCC(n5nc(-c6ccc(Oc7ccc(F)cc7F)cc6)c(C(N)=O)c5N)C4)cc3C)ccc2CC1C(=O)NC1CCCc2ccccc21)C(C)(C)C

> <Shape>
0.201

> <Color>
0.075

> <Negative vol penalty>
0.000

$$$$

  -OEChem-04052319113D

 85 93  0     1  0  0  0  0  0999 V2000
  -19.0340  -24.2329   30.9245 C   0  0  0  0  0  0  0  0  0  0  0  0
  -19.5803  -23.4539   29.9096 C   0  0  0  0  0  0  0  0  0  0  0  0
  -22.9552   -9.9034   20.1016 C   0  0  0  0  0  0  0  0  0  0  0  0
  -23.5928  -10.1701   22.4167 C   0  0  0  0  0  0  0  0  0  0  0  0
  -18.6111  -25.5334   30.6527 C   0  0  0  0  0  0  0  0  0  0  0  0
  -19.7029  -23.9745   28.6218 C   0  0  0  0  0  0  0  0  0  0  0  0
  -24.2093  -22.9703   26.5412 C   0  0  0  0  0  0  0  0  0  0  0  0
  -22.1526   -8.8164   20.4479 C   0  0  0  0  0  0  0  0  0  0  0  0
  -22.7902   -9.0831   22.7629 C   0  0  0  0  0  0  0  0  0  0  0  0
  -24.4041  -21.6867   26.0330 C   0  0  0  0  0  0  0  0  0  0  0  0
  -22.9739   -5.7096   22.6342 C   0  0  0  0  0  0  0  0  0  0  0  0
  -23.5082   -4.7613   23.5065 C   0  0  0  0  0  0  0  0  0  0  0  0
  -23.9736  -22.5094   23.8066 C   0  0  0  0  0  0  0  0  0  0  0  0
  -21.7278   -5.2040   25.0785 C   0  0  0  0  0  0  0  0  0  0  0  0
  -28.4011  -14.2539   24.7348 C   0  0  0  0  0  0  0  0  0  0  0  0
  -23.6754  -10.5803   21.0860 C   0  0  0  0  0  0  0  0  0  0  0  0
  -24.1261  -13.0577   20.6775 C   0  0  0  0  0  0  0  0  0  0  0  0
  -18.7375  -26.0736   29.3632 C   0  0  0  0  0  0  0  0  0  0  0  0
  -23.8838  -24.0327   25.6858 C   0  0  0  0  0  0  0  0  0  0  0  0
  -19.2800  -25.2830   28.3321 C   0  0  0  0  0  0  0  0  0  0  0  0
  -23.7776  -23.8060   24.3061 C   0  0  0  0  0  0  0  0  0  0  0  0
  -22.0701   -8.4063   21.7785 C   0  0  0  0  0  0  0  0  0  0  0  0
  -24.2834  -21.4555   24.6659 C   0  0  0  0  0  0  0  0  0  0  0  0
  -21.8165   -6.4052   22.9841 C   0  0  0  0  0  0  0  0  0  0  0  0
  -22.8852   -4.5085   24.7286 C   0  0  0  0  0  0  0  0  0  0  0  0
  -21.1935   -6.1523   24.2062 C   0  0  0  0  0  0  0  0  0  0  0  0
  -24.5050  -11.7028   20.7289 C   0  0  0  0  0  0  0  0  0  0  0  0
  -29.6398  -13.8298   25.2522 C   0  0  0  0  0  0  0  0  0  0  0  0
  -28.6422  -15.5206   24.2619 C   0  0  0  0  0  0  0  0  0  0  0  0
  -25.2656  -13.7184   20.2884 C   0  0  0  0  0  0  0  0  0  0  0  0
  -22.8575  -13.6646   20.9565 C   0  0  0  0  0  0  0  0  0  0  0  0
  -21.4030  -25.9984   25.3938 C   0  0  0  0  0  0  0  0  0  0  0  0
  -23.2949  -27.4296   23.1813 C   0  0  0  0  0  0  0  0  0  0  0  0
  -25.8864  -27.1626   20.9769 C   0  0  0  0  0  0  0  0  0  0  0  0
  -30.7689  -14.5654   20.6647 C   0  0  0  0  0  0  0  0  0  0  0  0
  -18.2228  -27.4678   29.1065 C   0  0  0  0  0  0  0  0  0  0  0  0
  -23.7031  -25.4167   26.2465 C   0  0  0  0  0  0  0  0  0  0  0  0
  -23.4499  -24.9166   23.3429 C   0  0  0  0  0  0  0  0  0  0  0  0
  -18.7325  -28.0747   27.8019 C   0  0  0  0  0  0  0  0  0  0  0  0
  -29.6621  -11.9424   18.5267 C   0  0  0  0  0  0  0  0  0  0  0  0
  -18.6052  -27.0707   26.6605 C   0  0  0  0  0  0  0  0  0  0  0  0
  -28.1930  -11.7540   18.9092 C   0  0  0  0  0  0  0  0  0  0  0  0
  -30.5229  -12.2797   19.7421 C   0  0  0  0  0  0  0  0  0  0  0  0
  -28.5822  -13.2421   20.9173 C   0  0  0  0  0  0  0  0  0  0  0  0
  -19.4524  -25.8209   26.9282 C   0  0  1  0  0  0  0  0  0  0  0  0
  -22.8694  -26.3223   25.3452 C   0  0  1  0  0  0  0  0  0  0  0  0
  -27.6652  -12.9556   19.7160 C   0  0  2  0  0  0  0  0  0  0  0  0
  -29.9518  -12.5390   25.8886 C   0  0  0  0  0  0  0  0  0  0  0  0
  -27.1764  -28.4908   19.2830 C   0  0  0  0  0  0  0  0  0  0  0  0
  -32.6776  -17.9477   23.0015 C   0  0  0  0  0  0  0  0  0  0  0  0
  -20.9812  -27.1591   21.2107 C   0  0  0  0  0  0  0  0  0  0  0  0
  -22.6018  -27.6024   19.3545 C   0  0  0  0  0  0  0  0  0  0  0  0
  -22.1983  -29.3409   21.0974 C   0  0  0  0  0  0  0  0  0  0  0  0
  -28.4177  -26.8318   22.4741 C   0  0  0  0  0  0  0  0  0  0  0  0
  -27.7312  -16.5173   23.5906 C   0  0  0  0  0  0  0  0  0  0  0  0
  -27.0168  -17.4586   24.5667 C   0  0  0  0  0  0  0  0  0  0  0  0
  -26.0399  -18.4101   23.8744 C   0  0  0  0  0  0  0  0  0  0  0  0
  -30.6915  -16.9735   24.2009 C   0  0  0  0  0  0  0  0  0  0  0  0
  -30.8574  -16.8498   21.6307 C   0  0  0  0  0  0  0  0  0  0  0  0
  -25.3799  -19.3550   24.8694 C   0  0  0  0  0  0  0  0  0  1  0  0
  -23.5146  -27.2671   21.6966 C   0  0  1  0  0  0  0  0  0  0  0  0
  -27.0978  -28.0448   20.7348 C   0  0  2  0  0  0  0  0  0  0  0  0
  -31.6140  -16.8442   22.9697 C   0  0  1  0  0  0  0  0  0  0  0  0
  -22.3282  -27.8208   20.8579 C   0  0  0  0  0  0  0  0  0  0  0  0
  -25.7852  -11.5126   20.3988 N   0  0  0  0  0  0  0  0  0  0  0  0
  -30.5967  -14.7522   25.1203 N   0  0  0  0  0  0  0  0  0  0  0  0
  -29.9593  -15.7685   24.5146 N   0  0  0  0  0  0  0  0  0  0  0  0
  -26.2206  -12.7566   20.1360 N   0  0  0  0  0  0  0  0  0  0  0  0
  -23.2762  -26.2509   23.9404 N   0  0  0  0  0  0  0  0  0  0  0  0
  -29.9690  -13.4287   20.4624 N   0  0  0  0  0  0  0  0  0  0  0  0
  -25.5339  -15.0224   20.0650 N   0  0  0  0  0  0  0  0  0  0  0  0
  -21.7928  -12.8396   21.3440 N   0  0  0  0  0  0  0  0  0  0  0  0
  -20.8483  -26.0887   26.6562 N   0  0  0  0  0  0  0  0  0  0  0  0
  -24.7984  -27.8948   21.4029 N   0  0  0  0  0  0  0  0  0  0  0  0
  -30.1647  -15.6118   21.3509 N   0  0  0  0  0  0  0  0  0  0  0  0
  -28.3498  -27.3086   21.0688 N   0  3  0  0  0  0  0  0  0  0  0  0
  -22.6691  -14.9002   20.8490 O   0  0  0  0  0  0  0  0  0  0  0  0
  -20.8177  -25.6908   24.3620 O   0  0  0  0  0  0  0  0  0  0  0  0
  -23.1524  -28.5611   23.6513 O   0  0  0  0  0  0  0  0  0  0  0  0
  -25.9025  -25.9463   20.8017 O   0  0  0  0  0  0  0  0  0  0  0  0
  -31.9334  -14.6442   20.2590 O   0  0  0  0  0  0  0  0  0  0  0  0
  -21.2868   -7.3458   22.1167 O   0  0  0  0  0  0  0  0  0  0  0  0
  -24.4725  -20.2035   24.1673 O   0  0  0  0  0  0  0  0  0  1  0  0
  -23.3975   -3.5967   25.5654 F   0  0  0  0  0  0  0  0  0  0  0  0
  -20.0807   -6.8166   24.5473 F   0  0  0  0  0  0  0  0  0  0  0  0
  1  2  1  0  0  0  0
  1  5  2  0  0  0  0
  2  6  2  0  0  0  0
  3  8  2  0  0  0  0
  3 16  1  0  0  0  0
  4  9  1  0  0  0  0
  4 16  2  0  0  0  0
  5 18  1  0  0  0  0
  6 20  1  0  0  0  0
  7 10  2  0  0  0  0
  7 19  1  0  0  0  0
  8 22  1  0  0  0  0
  9 22  2  0  0  0  0
 10 23  1  0  0  0  0
 11 12  2  0  0  0  0
 11 24  1  0  0  0  0
 12 25  1  0  0  0  0
 13 21  1  0  0  0  0
 13 23  2  0  0  0  0
 14 25  2  0  0  0  0
 14 26  1  0  0  0  0
 15 28  1  0  0  0  0
 15 29  2  0  0  0  0
 16 27  1  0  0  0  0
 17 27  1  0  0  0  0
 17 30  2  0  0  0  0
 17 31  1  0  0  0  0
 18 20  2  0  0  0  0
 18 36  1  0  0  0  0
 19 21  2  0  0  0  0
 19 37  1  0  0  0  0
 20 45  1  0  0  0  0
 21 38  1  0  0  0  0
 22 82  1  0  0  0  0
 23 83  1  0  0  0  0
 24 26  2  0  0  0  0
 24 82  1  0  0  0  0
 25 84  1  0  0  0  0
 26 85  1  0  0  0  0
 27 65  2  0  0  0  0
 28 48  1  0  0  0  0
 28 66  2  0  0  0  0
 29 55  1  0  0  0  0
 29 67  1  0  0  0  0
 30 68  1  0  0  0  0
 30 71  1  0  0  0  0
 31 72  1  0  0  0  0
 31 77  2  0  0  0  0
 32 46  1  0  0  0  0
 32 73  1  0  0  0  0
 32 78  2  0  0  0  0
 33 61  1  0  0  0  0
 33 69  1  0  0  0  0
 33 79  2  0  0  0  0
 34 62  1  0  0  0  0
 34 74  1  0  0  0  0
 34 80  2  0  0  0  0
 35 70  1  0  0  0  0
 35 75  1  0  0  0  0
 35 81  2  0  0  0  0
 36 39  1  0  0  0  0
 37 46  1  0  0  0  0
 38 69  1  0  0  0  0
 39 41  1  0  0  0  0
 40 42  1  0  0  0  0
 40 43  1  0  0  0  0
 41 45  1  0  0  0  0
 42 47  1  0  0  0  0
 43 70  1  0  0  0  0
 44 47  1  0  0  0  0
 44 70  1  0  0  0  0
 45 73  1  0  0  0  0
 46 69  1  0  0  0  0
 47 68  1  0  0  0  0
 49 62  1  0  0  0  0
 50 63  1  0  0  0  0
 51 64  1  0  0  0  0
 52 64  1  0  0  0  0
 53 64  1  0  0  0  0
 54 76  1  0  0  0  0
 55 56  1  0  0  0  0
 56 57  1  0  0  0  0
 57 60  1  0  0  0  0
 58 63  1  0  0  0  0
 58 67  1  0  0  0  0
 59 63  1  0  0  0  0
 59 75  1  0  0  0  0
 60 83  1  0  0  0  0
 61 64  1  0  0  0  0
 61 74  1  0  0  0  0
 62 76  1  0  0  0  0
 65 68  1  0  0  0  0
 66 67  1  0  0  0  0
M  CHG  1  76   1
M  ISO  4  35 100  60 101  75 100  83 101
M  END
> <Batch ID>
0091

> <Smiles>
CNC(C)C(=O)NC(C(=O)N1Cc2cc([101O:1][101CH2:1]CCCc3cc(C)nn3CC(C)C[100NH:0][100C:0](=O)N3CCCC(n4nc(-c5ccc(Oc6ccc(F)cc6F)cc5)c(C(N)=O)c4N)C3)ccc2CC1C(=O)NC1CCCc2ccccc21)C(C)(C)C

> <Shape>
0.220

> <Color>
0.202

> <Negative vol penalty>
0.000

$$$$

  -OEChem-04052319113D

 86 94  0     1  0  0  0  0  0999 V2000
  -23.0860  -21.5545   10.4999 C   0  0  0  0  0  0  0  0  0  0  0  0
  -24.1194  -21.2157   11.3674 C   0  0  0  0  0  0  0  0  0  0  0  0
  -23.0709   -9.8725   19.9438 C   0  0  0  0  0  0  0  0  0  0  0  0
  -23.8352   -9.8775   22.2357 C   0  0  0  0  0  0  0  0  0  0  0  0
  -23.3658  -22.2381    9.3174 C   0  0  0  0  0  0  0  0  0  0  0  0
  -25.4336  -21.5593   11.0523 C   0  0  0  0  0  0  0  0  0  0  0  0
  -27.9349  -23.5008   15.0044 C   0  0  0  0  0  0  0  0  0  0  0  0
  -22.3272   -8.7193   20.1943 C   0  0  0  0  0  0  0  0  0  0  0  0
  -23.0914   -8.7243   22.4862 C   0  0  0  0  0  0  0  0  0  0  0  0
  -28.4066  -22.6042   15.9622 C   0  0  0  0  0  0  0  0  0  0  0  0
  -19.9416   -5.9795   20.3251 C   0  0  0  0  0  0  0  0  0  0  0  0
  -18.6349   -5.9322   19.8393 C   0  0  0  0  0  0  0  0  0  0  0  0
  -30.6076  -22.7247   14.9821 C   0  0  0  0  0  0  0  0  0  0  0  0
  -27.0797  -18.7260   19.5916 C   0  0  0  0  0  0  0  0  0  0  0  0
  -18.0728   -7.8742   21.1621 C   0  0  0  0  0  0  0  0  0  0  0  0
  -23.8249  -10.4516   20.9645 C   0  0  0  0  0  0  0  0  0  0  0  0
  -24.1672  -12.9767   20.8458 C   0  0  0  0  0  0  0  0  0  0  0  0
  -24.6830  -22.5988    8.9923 C   0  0  0  0  0  0  0  0  0  0  0  0
  -28.7949  -24.0085   14.0200 C   0  0  0  0  0  0  0  0  0  0  0  0
  -25.7315  -22.2472    9.8636 C   0  0  0  0  0  0  0  0  0  0  0  0
  -30.1449  -23.6296   14.0145 C   0  0  0  0  0  0  0  0  0  0  0  0
  -26.4304  -19.0666   20.7731 C   0  0  0  0  0  0  0  0  0  0  0  0
  -28.4278  -18.3868   19.6186 C   0  0  0  0  0  0  0  0  0  0  0  0
  -22.3374   -8.1453   21.4655 C   0  0  0  0  0  0  0  0  0  0  0  0
  -29.7425  -22.2138   15.9494 C   0  0  0  0  0  0  0  0  0  0  0  0
  -20.3138   -6.9741   21.2295 C   0  0  0  0  0  0  0  0  0  0  0  0
  -17.7006   -6.8796   20.2577 C   0  0  0  0  0  0  0  0  0  0  0  0
  -19.3795   -7.9215   21.6480 C   0  0  0  0  0  0  0  0  0  0  0  0
  -24.5938  -11.6424   20.7062 C   0  0  0  0  0  0  0  0  0  0  0  0
  -27.1683  -19.0529   21.9458 C   0  0  0  0  0  0  0  0  0  0  0  0
  -29.0763  -18.4037   20.8430 C   0  0  0  0  0  0  0  0  0  0  0  0
  -25.2589  -13.7262   20.4810 C   0  0  0  0  0  0  0  0  0  0  0  0
  -22.8977  -13.4925   21.2675 C   0  0  0  0  0  0  0  0  0  0  0  0
  -28.9052  -23.8642   10.8465 C   0  0  0  0  0  0  0  0  0  0  0  0
  -31.3631  -25.9467   11.2261 C   0  0  0  0  0  0  0  0  0  0  0  0
  -33.8160  -27.1968   13.2429 C   0  0  0  0  0  0  0  0  0  0  0  0
  -30.7432  -14.7436   20.6597 C   0  0  0  0  0  0  0  0  0  0  0  0
  -24.9419  -23.2956    7.6800 C   0  0  0  0  0  0  0  0  0  0  0  0
  -28.2767  -24.9955   13.0101 C   0  0  0  0  0  0  0  0  0  0  0  0
  -31.1138  -24.1614   12.9914 C   0  0  0  0  0  0  0  0  0  0  0  0
  -26.3174  -23.9528    7.6004 C   0  0  0  0  0  0  0  0  0  0  0  0
  -29.6004  -12.3613   18.2732 C   0  0  0  0  0  0  0  0  0  0  0  0
  -27.3959  -22.9960    8.0987 C   0  0  0  0  0  0  0  0  0  0  0  0
  -28.1637  -12.0676   18.7087 C   0  0  0  0  0  0  0  0  0  0  0  0
  -30.5199  -12.5809   19.4725 C   0  0  0  0  0  0  0  0  0  0  0  0
  -28.6210  -13.3114   20.8633 C   0  0  0  0  0  0  0  0  0  0  0  0
  -27.1671  -22.6243    9.5688 C   0  0  1  0  0  0  0  0  0  0  0  0
  -29.1219  -25.0517   11.7413 C   0  0  1  0  0  0  0  0  0  0  0  0
  -27.6446  -13.1380   19.6874 C   0  0  2  0  0  0  0  0  0  0  0  0
  -26.5244  -19.4108   23.2451 C   0  0  0  0  0  0  0  0  0  0  0  0
  -23.2791  -21.2140   20.1706 C   0  0  0  0  0  0  0  0  0  0  0  0
  -35.6908  -28.8648   13.2622 C   0  0  0  0  0  0  0  0  0  0  0  0
  -33.0652  -24.0493    9.5490 C   0  0  0  0  0  0  0  0  0  0  0  0
  -35.0991  -25.2448   10.3869 C   0  0  0  0  0  0  0  0  0  0  0  0
  -33.3977  -26.4751    9.0400 C   0  0  0  0  0  0  0  0  0  0  0  0
  -32.5821  -28.7321   15.4518 C   0  0  0  0  0  0  0  0  0  0  0  0
  -24.9862  -19.4308   20.7509 C   0  0  0  0  0  0  0  0  0  0  0  0
  -29.1379  -18.0167   18.3410 C   0  0  0  0  0  0  0  0  0  0  0  0
  -30.5241  -18.0470   20.9315 C   0  0  0  0  0  0  0  0  0  0  0  0
  -24.7560  -20.8565   20.2252 C   0  0  0  0  0  0  0  0  0  0  0  0
  -30.0403  -19.1252   17.7945 C   0  0  0  0  0  0  0  0  0  0  0  0
  -30.8120  -16.8932   21.8981 C   0  0  0  0  0  0  0  0  0  0  0  0
  -29.2771  -20.3821   17.3931 C   0  0  0  0  0  0  0  0  0  1  0  0
  -32.8546  -25.8163   11.4197 C   0  0  1  0  0  0  0  0  0  0  0  0
  -34.2214  -28.6226   13.5705 C   0  0  2  0  0  0  0  0  0  0  0  0
  -33.5857  -25.3847   10.1171 C   0  0  0  0  0  0  0  0  0  0  0  0
  -25.8579  -11.5466   20.2854 N   0  0  0  0  0  0  0  0  0  0  0  0
  -28.4792  -18.7291   22.0114 N   0  0  0  0  0  0  0  0  0  0  0  0
  -26.2349  -12.8301   20.1574 N   0  0  0  0  0  0  0  0  0  0  0  0
  -30.5577  -25.1190   12.0211 N   0  0  0  0  0  0  0  0  0  0  0  0
  -29.9713  -13.6089   20.3603 N   0  0  0  0  0  0  0  0  0  0  0  0
  -25.4695  -15.0576   20.4086 N   0  0  0  0  0  0  0  0  0  0  0  0
  -21.8862  -12.5834   21.6060 N   0  0  0  0  0  0  0  0  0  0  0  0
  -27.5961  -23.7013   10.4351 N   0  0  0  0  0  0  0  0  0  0  0  0
  -33.3084  -27.0910   11.9653 N   0  0  0  0  0  0  0  0  0  0  0  0
  -30.1459  -15.6719   21.5036 N   0  0  0  0  0  0  0  0  0  0  0  0
  -33.9911  -28.9077   15.0151 N   0  3  0  0  0  0  0  0  0  0  0  0
  -22.6619  -14.7232   21.3263 O   0  0  0  0  0  0  0  0  0  0  0  0
  -29.8555  -23.1496   10.5501 O   0  0  0  0  0  0  0  0  0  0  0  0
  -30.9285  -26.7583   10.4051 O   0  0  0  0  0  0  0  0  0  0  0  0
  -33.9408  -26.2691   14.0394 O   0  0  0  0  0  0  0  0  0  0  0  0
  -31.8784  -14.9191   20.2040 O   0  0  0  0  0  0  0  0  0  0  0  0
  -21.6117   -7.0202   21.7104 O   0  0  0  0  0  0  0  0  0  0  0  0
  -30.2054  -21.3382   16.8827 O   0  0  0  0  0  0  0  0  0  1  0  0
  -16.4462   -6.8350   19.7899 F   0  0  0  0  0  0  0  0  0  0  0  0
  -19.7315   -8.8801   22.5157 F   0  0  0  0  0  0  0  0  0  0  0  0
  1  2  1  0  0  0  0
  1  5  2  0  0  0  0
  2  6  2  0  0  0  0
  3  8  2  0  0  0  0
  3 16  1  0  0  0  0
  4  9  1  0  0  0  0
  4 16  2  0  0  0  0
  5 18  1  0  0  0  0
  6 20  1  0  0  0  0
  7 10  2  0  0  0  0
  7 19  1  0  0  0  0
  8 24  1  0  0  0  0
  9 24  2  0  0  0  0
 10 25  1  0  0  0  0
 11 12  2  0  0  0  0
 11 26  1  0  0  0  0
 12 27  1  0  0  0  0
 13 21  1  0  0  0  0
 13 25  2  0  0  0  0
 14 22  1  0  0  0  0
 14 23  2  0  0  0  0
 15 27  2  0  0  0  0
 15 28  1  0  0  0  0
 16 29  1  0  0  0  0
 17 29  1  0  0  0  0
 17 32  2  0  0  0  0
 17 33  1  0  0  0  0
 18 20  2  0  0  0  0
 18 38  1  0  0  0  0
 19 21  2  0  0  0  0
 19 39  1  0  0  0  0
 20 47  1  0  0  0  0
 21 40  1  0  0  0  0
 22 30  2  0  0  0  0
 22 57  1  0  0  0  0
 23 31  1  0  0  0  0
 23 58  1  0  0  0  0
 24 83  1  0  0  0  0
 25 84  1  0  0  0  0
 26 28  2  0  0  0  0
 26 83  1  0  0  0  0
 27 85  1  0  0  0  0
 28 86  1  0  0  0  0
 29 67  2  0  0  0  0
 30 50  1  0  0  0  0
 30 68  1  0  0  0  0
 31 59  1  0  0  0  0
 31 68  2  0  0  0  0
 32 69  1  0  0  0  0
 32 72  1  0  0  0  0
 33 73  1  0  0  0  0
 33 78  2  0  0  0  0
 34 48  1  0  0  0  0
 34 74  1  0  0  0  0
 34 79  2  0  0  0  0
 35 64  1  0  0  0  0
 35 70  1  0  0  0  0
 35 80  2  0  0  0  0
 36 65  1  0  0  0  0
 36 75  1  0  0  0  0
 36 81  2  0  0  0  0
 37 71  1  0  0  0  0
 37 76  1  0  0  0  0
 37 82  2  0  0  0  0
 38 41  1  0  0  0  0
 39 48  1  0  0  0  0
 40 70  1  0  0  0  0
 41 43  1  0  0  0  0
 42 44  1  0  0  0  0
 42 45  1  0  0  0  0
 43 47  1  0  0  0  0
 44 49  1  0  0  0  0
 45 71  1  0  0  0  0
 46 49  1  0  0  0  0
 46 71  1  0  0  0  0
 47 74  1  0  0  0  0
 48 70  1  0  0  0  0
 49 69  1  0  0  0  0
 51 60  1  0  0  0  0
 52 65  1  0  0  0  0
 53 66  1  0  0  0  0
 54 66  1  0  0  0  0
 55 66  1  0  0  0  0
 56 77  1  0  0  0  0
 57 60  1  0  0  0  0
 58 61  1  0  0  0  0
 59 62  1  0  0  0  0
 61 63  1  0  0  0  0
 62 76  1  0  0  0  0
 63 84  1  0  0  0  0
 64 66  1  0  0  0  0
 64 75  1  0  0  0  0
 65 77  1  0  0  0  0
 67 69  1  0  0  0  0
M  CHG  1  77   1
M  ISO  4  37 100  63 101  76 100  84 101
M  END
> <Batch ID>
0091

> <Smiles>
CCCc1cc(CC[101CH2:1][101O:1]c2ccc3c(c2)CN(C(=O)C(NC(=O)C(C)NC)C(C)(C)C)C(C(=O)NC2CCCc4ccccc42)C3)c(CC[100NH:0][100C:0](=O)N2CCCC(n3nc(-c4ccc(Oc5ccc(F)cc5F)cc4)c(C(N)=O)c3N)C2)nc1C

> <Shape>
0.179

> <Color>
0.191

> <Negative vol penalty>
0.000

$$$$

  -OEChem-04052319113D

 87 95  0     1  0  0  0  0  0999 V2000
  -41.3601  -23.5831   21.2948 C   0  0  0  0  0  0  0  0  0  0  0  0
  -40.3640  -22.7936   21.8605 C   0  0  0  0  0  0  0  0  0  0  0  0
  -23.2873   -9.7999   19.9141 C   0  0  0  0  0  0  0  0  0  0  0  0
  -23.7406   -9.9405   22.2830 C   0  0  0  0  0  0  0  0  0  0  0  0
  -42.4152  -24.0424   22.0821 C   0  0  0  0  0  0  0  0  0  0  0  0
  -40.4230  -22.4620   23.2136 C   0  0  0  0  0  0  0  0  0  0  0  0
  -35.9540  -22.9822   25.5379 C   0  0  0  0  0  0  0  0  0  0  0  0
  -22.5610   -8.6275   20.1226 C   0  0  0  0  0  0  0  0  0  0  0  0
  -23.0142   -8.7681   22.4916 C   0  0  0  0  0  0  0  0  0  0  0  0
  -35.0119  -21.9739   25.3393 C   0  0  0  0  0  0  0  0  0  0  0  0
  -19.7673   -7.8576   22.7124 C   0  0  0  0  0  0  0  0  0  0  0  0
  -18.8660   -7.8362   23.7767 C   0  0  0  0  0  0  0  0  0  0  0  0
  -35.5942  -21.0172   27.4758 C   0  0  0  0  0  0  0  0  0  0  0  0
  -31.2754  -17.5347   22.8018 C   0  0  0  0  0  0  0  0  0  0  0  0
  -20.0725   -5.9888   24.7610 C   0  0  0  0  0  0  0  0  0  0  0  0
  -23.8772  -10.4563   20.9943 C   0  0  0  0  0  0  0  0  0  0  0  0
  -24.1369  -12.9863   20.7953 C   0  0  0  0  0  0  0  0  0  0  0  0
  -42.4820  -23.7242   23.4478 C   0  0  0  0  0  0  0  0  0  0  0  0
  -36.7324  -23.0094   26.7041 C   0  0  0  0  0  0  0  0  0  0  0  0
  -41.4807  -22.9163   24.0196 C   0  0  0  0  0  0  0  0  0  0  0  0
  -36.5438  -22.0284   27.6880 C   0  0  0  0  0  0  0  0  0  0  0  0
  -31.9727  -16.4918   23.4599 C   0  0  0  0  0  0  0  0  0  0  0  0
  -22.4244   -8.1116   21.4114 C   0  0  0  0  0  0  0  0  0  0  0  0
  -34.8339  -20.9896   26.3070 C   0  0  0  0  0  0  0  0  0  0  0  0
  -20.8211   -6.9446   22.6722 C   0  0  0  0  0  0  0  0  0  0  0  0
  -19.0186   -6.9018   24.8011 C   0  0  0  0  0  0  0  0  0  0  0  0
  -20.9737   -6.0102   23.6966 C   0  0  0  0  0  0  0  0  0  0  0  0
  -24.6282  -11.6671   20.7794 C   0  0  0  0  0  0  0  0  0  0  0  0
  -29.9332  -17.2299   22.8555 C   0  0  0  0  0  0  0  0  0  0  0  0
  -31.0354  -15.5812   23.8954 C   0  0  0  0  0  0  0  0  0  0  0  0
  -25.2382  -13.7660   20.5391 C   0  0  0  0  0  0  0  0  0  0  0  0
  -22.8042  -13.4642   21.0215 C   0  0  0  0  0  0  0  0  0  0  0  0
  -39.8426  -22.8143   27.3301 C   0  0  0  0  0  0  0  0  0  0  0  0
  -38.8769  -23.4615   30.3584 C   0  0  0  0  0  0  0  0  0  0  0  0
  -36.3763  -23.3891   32.6798 C   0  0  0  0  0  0  0  0  0  0  0  0
  -31.1099  -12.9219   21.3526 C   0  0  0  0  0  0  0  0  0  0  0  0
  -43.6669  -24.2044   24.2479 C   0  0  0  0  0  0  0  0  0  0  0  0
  -37.7256  -24.1190   26.9153 C   0  0  0  0  0  0  0  0  0  0  0  0
  -37.3398  -22.0243   28.9666 C   0  0  0  0  0  0  0  0  0  0  0  0
  -43.4572  -24.1195   25.7575 C   0  0  0  0  0  0  0  0  0  0  0  0
  -29.4579  -13.6615   18.2865 C   0  0  0  0  0  0  0  0  0  0  0  0
  -42.8695  -22.7647   26.1395 C   0  0  0  0  0  0  0  0  0  0  0  0
  -27.9885  -13.3533   18.5792 C   0  0  0  0  0  0  0  0  0  0  0  0
  -30.3918  -12.6819   18.9939 C   0  0  0  0  0  0  0  0  0  0  0  0
  -28.7069  -12.2529   20.7406 C   0  0  0  0  0  0  0  0  0  0  0  0
  -41.4965  -22.5558   25.4893 C   0  0  1  0  0  0  0  0  0  0  0  0
  -38.8248  -23.7559   27.9089 C   0  0  1  0  0  0  0  0  0  0  0  0
  -27.7285  -13.2483   20.0940 C   0  0  2  0  0  0  0  0  0  0  0  0
  -34.1808  -16.2949   22.2883 C   0  0  0  0  0  0  0  0  0  0  0  0
  -28.8010  -18.1247   20.7888 C   0  0  0  0  0  0  0  0  0  0  0  0
  -28.6052  -19.3693   22.9723 C   0  0  0  0  0  0  0  0  0  0  0  0
  -35.8982  -23.9511   35.0783 C   0  0  0  0  0  0  0  0  0  0  0  0
  -40.4022  -20.9714   31.2434 C   0  0  0  0  0  0  0  0  0  0  0  0
  -39.1344  -21.0467   33.4010 C   0  0  0  0  0  0  0  0  0  0  0  0
  -40.6363  -22.9366   32.7724 C   0  0  0  0  0  0  0  0  0  0  0  0
  -28.5435  -15.3711   23.7909 C   0  0  0  0  0  0  0  0  0  0  0  0
  -34.2816  -25.3392   31.9262 C   0  0  0  0  0  0  0  0  0  0  0  0
  -31.2111  -14.3131   24.6351 C   0  0  0  0  0  0  0  0  0  0  0  0
  -33.5322  -17.6268   25.9018 C   0  0  0  0  0  0  0  0  0  0  0  0
  -34.0599  -17.5783   24.4605 C   0  0  0  0  0  0  0  0  0  0  0  0
  -31.6744  -13.1356   23.7598 C   0  0  0  0  0  0  0  0  0  0  0  0
  -34.1867  -18.7377   26.7151 C   0  0  0  0  0  0  0  0  0  1  0  0
  -33.4775  -16.4022   23.6469 C   0  0  1  0  0  0  0  0  0  0  0  0
  -28.7717  -17.9744   22.3270 C   0  0  0  0  0  0  0  0  0  0  0  0
  -38.4477  -22.6314   31.5441 C   0  0  1  0  0  0  0  0  0  0  0  0
  -35.8632  -24.4462   33.6408 C   0  0  2  0  0  0  0  0  0  0  0  0
  -39.6413  -21.8952   32.2154 C   0  0  0  0  0  0  0  0  0  0  0  0
  -25.9395  -11.6082   20.5325 N   0  0  0  0  0  0  0  0  0  0  0  0
  -29.7992  -16.0400   23.5222 N   0  0  0  0  0  0  0  0  0  0  0  0
  -26.2815  -12.9001   20.3908 N   0  0  0  0  0  0  0  0  0  0  0  0
  -38.3031  -23.1265   29.1238 N   0  0  0  0  0  0  0  0  0  0  0  0
  -30.0940  -12.6306   20.4273 N   0  0  0  0  0  0  0  0  0  0  0  0
  -25.4063  -15.1008   20.4285 N   0  0  0  0  0  0  0  0  0  0  0  0
  -21.7917  -12.5274   21.2701 N   0  0  0  0  0  0  0  0  0  0  0  0
  -40.4806  -23.2985   26.2040 N   0  0  0  0  0  0  0  0  0  0  0  0
  -37.7254  -23.5339   32.4342 N   0  0  0  0  0  0  0  0  0  0  0  0
  -30.7417  -12.8564   22.6908 N   0  0  0  0  0  0  0  0  0  0  0  0
  -34.4587  -24.8140   33.3046 N   0  3  0  0  0  0  0  0  0  0  0  0
  -22.5165  -14.6846   20.9875 O   0  0  0  0  0  0  0  0  0  0  0  0
  -40.0360  -21.7295   27.8663 O   0  0  0  0  0  0  0  0  0  0  0  0
  -39.6859  -24.3780   30.5230 O   0  0  0  0  0  0  0  0  0  0  0  0
  -35.6536  -22.5194   32.1983 O   0  0  0  0  0  0  0  0  0  0  0  0
  -32.2586  -13.2234   21.0112 O   0  0  0  0  0  0  0  0  0  0  0  0
  -21.7155   -6.9677   21.6153 O   0  0  0  0  0  0  0  0  0  0  0  0
  -33.9154  -20.0039   26.1154 O   0  0  0  0  0  0  0  0  0  1  0  0
  -18.1540   -6.8822   25.8239 F   0  0  0  0  0  0  0  0  0  0  0  0
  -21.9848   -5.1314   23.6641 F   0  0  0  0  0  0  0  0  0  0  0  0
  1  2  1  0  0  0  0
  1  5  2  0  0  0  0
  2  6  2  0  0  0  0
  3  8  2  0  0  0  0
  3 16  1  0  0  0  0
  4  9  1  0  0  0  0
  4 16  2  0  0  0  0
  5 18  1  0  0  0  0
  6 20  1  0  0  0  0
  7 10  2  0  0  0  0
  7 19  1  0  0  0  0
  8 23  1  0  0  0  0
  9 23  2  0  0  0  0
 10 24  1  0  0  0  0
 11 12  2  0  0  0  0
 11 25  1  0  0  0  0
 12 26  1  0  0  0  0
 13 21  1  0  0  0  0
 13 24  2  0  0  0  0
 14 22  1  0  0  0  0
 14 29  2  0  0  0  0
 15 26  2  0  0  0  0
 15 27  1  0  0  0  0
 16 28  1  0  0  0  0
 17 28  1  0  0  0  0
 17 31  2  0  0  0  0
 17 32  1  0  0  0  0
 18 20  2  0  0  0  0
 18 37  1  0  0  0  0
 19 21  2  0  0  0  0
 19 38  1  0  0  0  0
 20 46  1  0  0  0  0
 21 39  1  0  0  0  0
 22 30  2  0  0  0  0
 22 63  1  0  0  0  0
 23 84  1  0  0  0  0
 24 85  1  0  0  0  0
 25 27  2  0  0  0  0
 25 84  1  0  0  0  0
 26 86  1  0  0  0  0
 27 87  1  0  0  0  0
 28 68  2  0  0  0  0
 29 64  1  0  0  0  0
 29 69  1  0  0  0  0
 30 58  1  0  0  0  0
 30 69  1  0  0  0  0
 31 70  1  0  0  0  0
 31 73  1  0  0  0  0
 32 74  1  0  0  0  0
 32 79  2  0  0  0  0
 33 47  1  0  0  0  0
 33 75  1  0  0  0  0
 33 80  2  0  0  0  0
 34 65  1  0  0  0  0
 34 71  1  0  0  0  0
 34 81  2  0  0  0  0
 35 66  1  0  0  0  0
 35 76  1  0  0  0  0
 35 82  2  0  0  0  0
 36 72  1  0  0  0  0
 36 77  1  0  0  0  0
 36 83  2  0  0  0  0
 37 40  1  0  0  0  0
 38 47  1  0  0  0  0
 39 71  1  0  0  0  0
 40 42  1  0  0  0  0
 41 43  1  0  0  0  0
 41 44  1  0  0  0  0
 42 46  1  0  0  0  0
 43 48  1  0  0  0  0
 44 72  1  0  0  0  0
 45 48  1  0  0  0  0
 45 72  1  0  0  0  0
 46 75  1  0  0  0  0
 47 71  1  0  0  0  0
 48 70  1  0  0  0  0
 49 63  1  0  0  0  0
 50 64  1  0  0  0  0
 51 64  1  0  0  0  0
 52 66  1  0  0  0  0
 53 67  1  0  0  0  0
 54 67  1  0  0  0  0
 55 67  1  0  0  0  0
 56 69  1  0  0  0  0
 57 78  1  0  0  0  0
 58 61  1  0  0  0  0
 59 60  1  0  0  0  0
 59 62  1  0  0  0  0
 60 63  1  0  0  0  0
 61 77  1  0  0  0  0
 62 85  1  0  0  0  0
 65 67  1  0  0  0  0
 65 76  1  0  0  0  0
 66 78  1  0  0  0  0
 68 70  1  0  0  0  0
M  CHG  1  78   1
M  ISO  4  36 100  62 101  77 100  85 101
M  END
> <Batch ID>
0091

> <Smiles>
CNC(C)C(=O)NC(C(=O)N1Cc2cc([101O:1][101CH2:1]CCC(C)c3cc(C(C)C)n(C)c3CC[100NH:0][100C:0](=O)N3CCCC(n4nc(-c5ccc(Oc6ccc(F)cc6F)cc5)c(C(N)=O)c4N)C3)ccc2CC1C(=O)NC1CCCc2ccccc21)C(C)(C)C

> <Shape>
0.158

> <Color>
0.174

> <Negative vol penalty>
0.000

$$$$

  -OEChem-04052319113D

 85 93  0     1  0  0  0  0  0999 V2000
  -29.8378  -12.1828   19.5471 C   0  0  0  0  0  0  0  0  0  0  0  0
  -29.7605  -13.0700   20.6159 C   0  0  0  0  0  0  0  0  0  0  0  0
  -26.6663  -27.2901   18.6805 C   0  0  0  0  0  0  0  0  0  0  0  0
  -26.6375  -26.8681   21.0591 C   0  0  0  0  0  0  0  0  0  0  0  0
  -28.9988  -12.3454   18.4456 C   0  0  0  0  0  0  0  0  0  0  0  0
  -28.8447  -14.1211   20.5833 C   0  0  0  0  0  0  0  0  0  0  0  0
  -26.3575  -14.6676   24.9605 C   0  0  0  0  0  0  0  0  0  0  0  0
  -25.7245  -28.3050   18.8491 C   0  0  0  0  0  0  0  0  0  0  0  0
  -25.6956  -27.8831   21.2278 C   0  0  0  0  0  0  0  0  0  0  0  0
  -27.0344  -15.2993   26.0029 C   0  0  0  0  0  0  0  0  0  0  0  0
  -25.6736  -31.2593   21.3738 C   0  0  0  0  0  0  0  0  0  0  0  0
  -25.8716  -32.1574   22.4225 C   0  0  0  0  0  0  0  0  0  0  0  0
  -25.8667  -17.3516   25.5094 C   0  0  0  0  0  0  0  0  0  0  0  0
  -23.7526  -31.5043   23.3819 C   0  0  0  0  0  0  0  0  0  0  0  0
  -30.2296  -19.3721   24.5352 C   0  0  0  0  0  0  0  0  0  0  0  0
  -27.1228  -26.5716   19.7855 C   0  0  0  0  0  0  0  0  0  0  0  0
  -29.4969  -25.6480   19.6513 C   0  0  0  0  0  0  0  0  0  0  0  0
  -28.0656  -13.3933   18.4036 C   0  0  0  0  0  0  0  0  0  0  0  0
  -25.4366  -15.3772   24.1765 C   0  0  0  0  0  0  0  0  0  0  0  0
  -27.9933  -14.2987   19.4795 C   0  0  0  0  0  0  0  0  0  0  0  0
  -25.1775  -16.7259   24.4593 C   0  0  0  0  0  0  0  0  0  0  0  0
  -31.4320  -18.9458   24.0158 C   0  0  0  0  0  0  0  0  0  0  0  0
  -32.4571  -19.6716   24.6712 C   0  0  0  0  0  0  0  0  0  0  0  0
  -25.2391  -28.6015   20.1227 C   0  0  0  0  0  0  0  0  0  0  0  0
  -26.7912  -16.6422   26.2756 C   0  0  0  0  0  0  0  0  0  0  0  0
  -24.5150  -30.4837   21.3291 C   0  0  0  0  0  0  0  0  0  0  0  0
  -24.9112  -32.2799   23.4266 C   0  0  0  0  0  0  0  0  0  0  0  0
  -23.5546  -30.6062   22.3331 C   0  0  0  0  0  0  0  0  0  0  0  0
  -28.0953  -25.5227   19.6119 C   0  0  0  0  0  0  0  0  0  0  0  0
  -31.8499  -20.5193   25.5713 C   0  0  0  0  0  0  0  0  0  0  0  0
  -29.9618  -24.3743   19.4318 C   0  0  0  0  0  0  0  0  0  0  0  0
  -30.3064  -26.8116   19.8671 C   0  0  0  0  0  0  0  0  0  0  0  0
  -25.2344  -16.1474   21.0992 C   0  0  0  0  0  0  0  0  0  0  0  0
  -22.3228  -17.2781   21.9746 C   0  0  0  0  0  0  0  0  0  0  0  0
  -20.3019  -18.4655   24.4551 C   0  0  0  0  0  0  0  0  0  0  0  0
  -29.7427  -18.8809   20.3910 C   0  0  0  0  0  0  0  0  0  0  0  0
  -27.2125  -13.5567   17.1707 C   0  0  0  0  0  0  0  0  0  0  0  0
  -24.6950  -14.6742   23.0727 C   0  0  0  0  0  0  0  0  0  0  0  0
  -24.1835  -17.5270   23.6602 C   0  0  0  0  0  0  0  0  0  0  0  0
  -26.0107  -14.4746   17.3788 C   0  0  0  0  0  0  0  0  0  0  0  0
  -27.5366  -20.1983   17.9264 C   0  0  0  0  0  0  0  0  0  0  0  0
  -26.4321  -15.7505   18.1009 C   0  0  0  0  0  0  0  0  0  0  0  0
  -27.5963  -21.7100   18.1526 C   0  0  0  0  0  0  0  0  0  0  0  0
  -27.6172  -19.4272   19.2420 C   0  0  0  0  0  0  0  0  0  0  0  0
  -28.8331  -21.2817   20.3172 C   0  0  0  0  0  0  0  0  0  0  0  0
  -26.9958  -15.4366   19.4920 C   0  0  1  0  0  0  0  0  0  0  0  0
  -24.1583  -15.6292   22.0109 C   0  0  1  0  0  0  0  0  0  0  0  0
  -28.8116  -22.1004   19.0151 C   0  0  2  0  0  0  0  0  0  0  0  0
  -33.9101  -19.5449   24.4347 C   0  0  0  0  0  0  0  0  0  0  0  0
  -32.4413  -21.4949   26.5113 C   0  0  0  0  0  0  0  0  0  0  0  0
  -17.9860  -19.3439   24.8581 C   0  0  0  0  0  0  0  0  0  0  0  0
  -28.8207  -18.7549   29.3989 C   0  0  0  0  0  0  0  0  0  0  0  0
  -23.1146  -19.9392   20.7090 C   0  0  0  0  0  0  0  0  0  0  0  0
  -21.2228  -21.0123   21.9492 C   0  0  0  0  0  0  0  0  0  0  0  0
  -20.7571  -19.2329   20.2641 C   0  0  0  0  0  0  0  0  0  0  0  0
  -19.6736  -16.2737   26.3420 C   0  0  0  0  0  0  0  0  0  0  0  0
  -31.6077  -17.9203   22.9681 C   0  0  0  0  0  0  0  0  0  0  0  0
  -29.3276  -20.5626   27.7370 C   0  0  0  0  0  0  0  0  0  0  0  0
  -29.4448  -21.0499   26.2861 C   0  0  0  0  0  0  0  0  0  0  0  0
  -31.8929  -18.4936   21.5682 C   0  0  0  0  0  0  0  0  0  0  0  0
  -27.6987  -18.6595   27.1492 C   0  0  0  0  0  0  0  0  0  1  0  0
  -21.7969  -18.5999   22.4799 C   0  0  1  0  0  0  0  0  0  0  0  0
  -18.8793  -18.1132   24.8506 C   0  0  2  0  0  0  0  0  0  0  0  0
  -28.9699  -19.0694   27.9048 C   0  0  2  0  0  0  0  0  0  0  0  0
  -21.7431  -19.6817   21.3646 C   0  0  0  0  0  0  0  0  0  0  0  0
  -27.6959  -24.2685   19.3850 N   0  0  0  0  0  0  0  0  0  0  0  0
  -30.4958  -20.3284   25.4801 N   0  0  0  0  0  0  0  0  0  0  0  0
  -28.8535  -23.5940   19.2798 N   0  0  0  0  0  0  0  0  0  0  0  0
  -23.4883  -16.7966   22.5874 N   0  0  0  0  0  0  0  0  0  0  0  0
  -28.7923  -19.8431   20.0113 N   0  0  0  0  0  0  0  0  0  0  0  0
  -31.2063  -23.8569   19.3558 N   0  0  0  0  0  0  0  0  0  0  0  0
  -29.6667  -28.0409   20.0767 N   0  0  0  0  0  0  0  0  0  0  0  0
  -25.9219  -15.1587   20.4215 N   0  0  0  0  0  0  0  0  0  0  0  0
  -20.5072  -18.3160   23.0998 N   0  0  0  0  0  0  0  0  0  0  0  0
  -30.8291  -19.3605   21.1124 N   0  0  0  0  0  0  0  0  0  0  0  0
  -18.8551  -17.5067   26.2117 N   0  3  0  0  0  0  0  0  0  0  0  0
  -31.5599  -26.7655   19.8575 O   0  0  0  0  0  0  0  0  0  0  0  0
  -25.4257  -17.3549   21.0156 O   0  0  0  0  0  0  0  0  0  0  0  0
  -21.7175  -16.6908   21.0743 O   0  0  0  0  0  0  0  0  0  0  0  0
  -21.1456  -18.8398   25.2667 O   0  0  0  0  0  0  0  0  0  0  0  0
  -29.6339  -17.6841   20.1033 O   0  0  0  0  0  0  0  0  0  0  0  0
  -24.3203  -29.5920   20.2877 O   0  0  0  0  0  0  0  0  0  0  0  0
  -27.4510  -17.2614   27.2920 O   0  0  0  0  0  0  0  0  0  1  0  0
  -25.1022  -33.1412   24.4344 F   0  0  0  0  0  0  0  0  0  0  0  0
  -22.4401  -29.8630   22.2962 F   0  0  0  0  0  0  0  0  0  0  0  0
  1  2  1  0  0  0  0
  1  5  2  0  0  0  0
  2  6  2  0  0  0  0
  3  8  2  0  0  0  0
  3 16  1  0  0  0  0
  4  9  1  0  0  0  0
  4 16  2  0  0  0  0
  5 18  1  0  0  0  0
  6 20  1  0  0  0  0
  7 10  2  0  0  0  0
  7 19  1  0  0  0  0
  8 24  1  0  0  0  0
  9 24  2  0  0  0  0
 10 25  1  0  0  0  0
 11 12  2  0  0  0  0
 11 26  1  0  0  0  0
 12 27  1  0  0  0  0
 13 21  1  0  0  0  0
 13 25  2  0  0  0  0
 14 27  2  0  0  0  0
 14 28  1  0  0  0  0
 15 22  2  0  0  0  0
 15 67  1  0  0  0  0
 16 29  1  0  0  0  0
 17 29  1  0  0  0  0
 17 31  2  0  0  0  0
 17 32  1  0  0  0  0
 18 20  2  0  0  0  0
 18 37  1  0  0  0  0
 19 21  2  0  0  0  0
 19 38  1  0  0  0  0
 20 46  1  0  0  0  0
 21 39  1  0  0  0  0
 22 23  1  0  0  0  0
 22 57  1  0  0  0  0
 23 30  2  0  0  0  0
 23 49  1  0  0  0  0
 24 82  1  0  0  0  0
 25 83  1  0  0  0  0
 26 28  2  0  0  0  0
 26 82  1  0  0  0  0
 27 84  1  0  0  0  0
 28 85  1  0  0  0  0
 29 66  2  0  0  0  0
 30 50  1  0  0  0  0
 30 67  1  0  0  0  0
 31 68  1  0  0  0  0
 31 71  1  0  0  0  0
 32 72  1  0  0  0  0
 32 77  2  0  0  0  0
 33 47  1  0  0  0  0
 33 73  1  0  0  0  0
 33 78  2  0  0  0  0
 34 62  1  0  0  0  0
 34 69  1  0  0  0  0
 34 79  2  0  0  0  0
 35 63  1  0  0  0  0
 35 74  1  0  0  0  0
 35 80  2  0  0  0  0
 36 70  1  0  0  0  0
 36 75  1  0  0  0  0
 36 81  2  0  0  0  0
 37 40  1  0  0  0  0
 38 47  1  0  0  0  0
 39 69  1  0  0  0  0
 40 42  1  0  0  0  0
 41 43  1  0  0  0  0
 41 44  1  0  0  0  0
 42 46  1  0  0  0  0
 43 48  1  0  0  0  0
 44 70  1  0  0  0  0
 45 48  1  0  0  0  0
 45 70  1  0  0  0  0
 46 73  1  0  0  0  0
 47 69  1  0  0  0  0
 48 68  1  0  0  0  0
 51 63  1  0  0  0  0
 52 64  1  0  0  0  0
 53 65  1  0  0  0  0
 54 65  1  0  0  0  0
 55 65  1  0  0  0  0
 56 76  1  0  0  0  0
 57 60  1  0  0  0  0
 58 59  1  0  0  0  0
 58 64  1  0  0  0  0
 59 67  1  0  0  0  0
 60 75  1  0  0  0  0
 61 64  1  0  0  0  0
 61 83  1  0  0  0  0
 62 65  1  0  0  0  0
 62 74  1  0  0  0  0
 63 76  1  0  0  0  0
 66 68  1  0  0  0  0
M  CHG  1  76   1
M  ISO  4  36 100  61 101  75 100  83 101
M  END
> <Batch ID>
0091

> <Smiles>
CNC(C)C(=O)NC(C(=O)N1Cc2cc([101O:1][101CH2:1]C(C)CCn3cc(CC[100NH:0][100C:0](=O)N4CCCC(n5nc(-c6ccc(Oc7ccc(F)cc7F)cc6)c(C(N)=O)c5N)C4)c(C)c3C)ccc2CC1C(=O)NC1CCCc2ccccc21)C(C)(C)C

> <Shape>
0.217

> <Color>
0.057

> <Negative vol penalty>
0.000

$$$$

  -OEChem-04052319113D

 87 95  0     1  0  0  0  0  0999 V2000
  -43.6942  -22.9838   20.7133 C   0  0  0  0  0  0  0  0  0  0  0  0
  -42.3424  -23.2476   20.9089 C   0  0  0  0  0  0  0  0  0  0  0  0
  -23.0886   -9.8685   19.9410 C   0  0  0  0  0  0  0  0  0  0  0  0
  -23.7035   -9.9574   22.2757 C   0  0  0  0  0  0  0  0  0  0  0  0
  -44.1093  -21.6990   20.3655 C   0  0  0  0  0  0  0  0  0  0  0  0
  -41.4047  -22.2270   20.7557 C   0  0  0  0  0  0  0  0  0  0  0  0
  -36.2311  -21.4719   23.9447 C   0  0  0  0  0  0  0  0  0  0  0  0
  -22.3318   -8.7223   20.1839 C   0  0  0  0  0  0  0  0  0  0  0  0
  -22.9467   -8.8112   22.5187 C   0  0  0  0  0  0  0  0  0  0  0  0
  -34.9032  -21.7947   23.6683 C   0  0  0  0  0  0  0  0  0  0  0  0
  -23.2755   -5.4729   22.0966 C   0  0  0  0  0  0  0  0  0  0  0  0
  -23.8459   -4.4751   22.8869 C   0  0  0  0  0  0  0  0  0  0  0  0
  -34.5282  -19.5474   22.8756 C   0  0  0  0  0  0  0  0  0  0  0  0
  -22.0409   -4.7022   24.4766 C   0  0  0  0  0  0  0  0  0  0  0  0
  -32.2009  -19.1659   18.1716 C   0  0  0  0  0  0  0  0  0  0  0  0
  -23.7745  -10.4860   20.9868 C   0  0  0  0  0  0  0  0  0  0  0  0
  -24.1205  -13.0066   20.8006 C   0  0  0  0  0  0  0  0  0  0  0  0
  -43.1772  -20.6598   20.2175 C   0  0  0  0  0  0  0  0  0  0  0  0
  -36.7211  -20.1854   23.6780 C   0  0  0  0  0  0  0  0  0  0  0  0
  -41.8076  -20.9274   20.4043 C   0  0  0  0  0  0  0  0  0  0  0  0
  -35.8620  -19.2101   23.1520 C   0  0  0  0  0  0  0  0  0  0  0  0
  -22.2608   -8.1936   21.4728 C   0  0  0  0  0  0  0  0  0  0  0  0
  -34.0523  -20.8333   23.1310 C   0  0  0  0  0  0  0  0  0  0  0  0
  -22.0877   -6.0854   22.4964 C   0  0  0  0  0  0  0  0  0  0  0  0
  -23.2287   -4.0897   24.0769 C   0  0  0  0  0  0  0  0  0  0  0  0
  -21.4705   -5.7001   23.6864 C   0  0  0  0  0  0  0  0  0  0  0  0
  -24.5569  -11.6697   20.7364 C   0  0  0  0  0  0  0  0  0  0  0  0
  -32.0696  -17.8299   18.4262 C   0  0  0  0  0  0  0  0  0  0  0  0
  -25.2324  -13.7466   20.4804 C   0  0  0  0  0  0  0  0  0  0  0  0
  -30.0532  -18.7405   18.4982 C   0  0  0  0  0  0  0  0  0  0  0  0
  -22.8257  -13.5325   21.1211 C   0  0  0  0  0  0  0  0  0  0  0  0
  -38.9779  -18.9927   21.7838 C   0  0  0  0  0  0  0  0  0  0  0  0
  -38.2467  -16.2240   23.3075 C   0  0  0  0  0  0  0  0  0  0  0  0
  -35.9563  -14.3985   25.0592 C   0  0  0  0  0  0  0  0  0  0  0  0
  -30.5636  -14.8252   21.0824 C   0  0  0  0  0  0  0  0  0  0  0  0
  -43.6690  -19.2983   19.7943 C   0  0  0  0  0  0  0  0  0  0  0  0
  -38.1490  -19.8454   24.0068 C   0  0  0  0  0  0  0  0  0  0  0  0
  -36.3336  -17.8085   22.8664 C   0  0  0  0  0  0  0  0  0  0  0  0
  -42.6484  -18.1854   20.0182 C   0  0  0  0  0  0  0  0  0  0  0  0
  -29.7122  -12.3216   18.6116 C   0  0  0  0  0  0  0  0  0  0  0  0
  -41.2742  -18.6114   19.5114 C   0  0  0  0  0  0  0  0  0  0  0  0
  -28.2483  -12.0404   18.9554 C   0  0  0  0  0  0  0  0  0  0  0  0
  -30.5396  -12.5614   19.8710 C   0  0  0  0  0  0  0  0  0  0  0  0
  -28.5589  -13.3678   21.0959 C   0  0  0  0  0  0  0  0  0  0  0  0
  -40.7626  -19.8409   20.2717 C   0  0  1  0  0  0  0  0  0  0  0  0
  -38.6764  -18.6522   23.2159 C   0  0  1  0  0  0  0  0  0  0  0  0
  -27.6650  -13.1392   19.8635 C   0  0  2  0  0  0  0  0  0  0  0  0
  -28.0821  -18.5280   20.0549 C   0  0  0  0  0  0  0  0  0  0  0  0
  -27.7948  -18.0855   17.5899 C   0  0  0  0  0  0  0  0  0  0  0  0
  -35.6329  -12.1553   26.1367 C   0  0  0  0  0  0  0  0  0  0  0  0
  -37.8369  -14.9653   20.5584 C   0  0  0  0  0  0  0  0  0  0  0  0
  -36.6261  -13.0817   21.6783 C   0  0  0  0  0  0  0  0  0  0  0  0
  -39.0266  -13.5079   22.2061 C   0  0  0  0  0  0  0  0  0  0  0  0
  -35.5755  -15.6084   27.7332 C   0  0  0  0  0  0  0  0  0  0  0  0
  -33.0641  -16.7566   18.5023 C   0  0  0  0  0  0  0  0  0  0  0  0
  -33.6752  -16.5159   19.9091 C   0  0  0  0  0  0  0  0  0  0  0  0
  -31.5363  -21.7927   20.2599 C   0  0  0  0  0  0  0  0  0  0  0  0
  -30.3337  -21.8840   19.3183 C   0  0  0  0  0  0  0  0  0  0  0  0
  -31.2796  -22.5543   21.5636 C   0  0  0  0  0  0  0  0  0  0  0  0
  -30.6055  -21.1575   17.9991 C   0  0  0  0  0  0  0  0  0  0  0  0
  -32.6436  -16.1744   20.9821 C   0  0  0  0  0  0  0  0  0  0  0  0
  -32.4743  -22.4999   22.5079 C   0  0  0  0  0  0  0  0  0  1  0  0
  -28.5838  -18.8930   18.6419 C   0  0  0  0  0  0  0  0  0  0  0  0
  -37.2652  -15.1013   23.0725 C   0  0  1  0  0  0  0  0  0  0  0  0
  -36.0764  -13.5955   26.3419 C   0  0  2  0  0  0  0  0  0  0  0  0
  -37.6800  -14.1909   21.8823 C   0  0  0  0  0  0  0  0  0  0  0  0
  -25.8456  -11.5636   20.4015 N   0  0  0  0  0  0  0  0  0  0  0  0
  -30.9377  -19.7043   18.2220 N   0  0  0  0  0  0  0  0  0  0  0  0
  -26.2284  -12.8432   20.2524 N   0  0  0  0  0  0  0  0  0  0  0  0
  -30.7304  -17.5948   18.6247 N   0  3  0  0  0  0  0  0  0  0  0  0
  -37.7398  -17.5267   23.1991 N   0  0  0  0  0  0  0  0  0  0  0  0
  -29.9411  -13.6313   20.6817 N   0  0  0  0  0  0  0  0  0  0  0  0
  -25.4455  -15.0754   20.3744 N   0  0  0  0  0  0  0  0  0  0  0  0
  -21.7957  -12.6323   21.4259 N   0  0  0  0  0  0  0  0  0  0  0  0
  -40.2623  -19.4575   21.5745 N   0  0  0  0  0  0  0  0  0  0  0  0
  -37.1356  -14.3993   24.3448 N   0  0  0  0  0  0  0  0  0  0  0  0
  -31.8746  -14.9945   20.6543 N   0  0  0  0  0  0  0  0  0  0  0  0
  -35.2328  -14.1991   27.4118 N   0  3  0  0  0  0  0  0  0  0  0  0
  -22.5850  -14.7636   21.1207 O   0  0  0  0  0  0  0  0  0  0  0  0
  -38.1101  -18.8433   20.9317 O   0  0  0  0  0  0  0  0  0  0  0  0
  -39.4183  -15.9549   23.5844 O   0  0  0  0  0  0  0  0  0  0  0  0
  -34.9188  -14.9651   24.7228 O   0  0  0  0  0  0  0  0  0  0  0  0
  -29.9913  -15.6802   21.7670 O   0  0  0  0  0  0  0  0  0  0  0  0
  -21.5222   -7.0753   21.7103 O   0  0  0  0  0  0  0  0  0  0  0  0
  -32.7560  -21.1459   22.8596 O   0  0  0  0  0  0  0  0  0  1  0  0
  -23.7758   -3.1304   24.8349 F   0  0  0  0  0  0  0  0  0  0  0  0
  -20.3287   -6.2841   24.0750 F   0  0  0  0  0  0  0  0  0  0  0  0
  1  2  1  0  0  0  0
  1  5  2  0  0  0  0
  2  6  2  0  0  0  0
  3  8  2  0  0  0  0
  3 16  1  0  0  0  0
  4  9  1  0  0  0  0
  4 16  2  0  0  0  0
  5 18  1  0  0  0  0
  6 20  1  0  0  0  0
  7 10  2  0  0  0  0
  7 19  1  0  0  0  0
  8 22  1  0  0  0  0
  9 22  2  0  0  0  0
 10 23  1  0  0  0  0
 11 12  2  0  0  0  0
 11 24  1  0  0  0  0
 12 25  1  0  0  0  0
 13 21  1  0  0  0  0
 13 23  2  0  0  0  0
 14 25  2  0  0  0  0
 14 26  1  0  0  0  0
 15 28  2  0  0  0  0
 15 68  1  0  0  0  0
 16 27  1  0  0  0  0
 17 27  1  0  0  0  0
 17 29  2  0  0  0  0
 17 31  1  0  0  0  0
 18 20  2  0  0  0  0
 18 36  1  0  0  0  0
 19 21  2  0  0  0  0
 19 37  1  0  0  0  0
 20 45  1  0  0  0  0
 21 38  1  0  0  0  0
 22 84  1  0  0  0  0
 23 85  1  0  0  0  0
 24 26  2  0  0  0  0
 24 84  1  0  0  0  0
 25 86  1  0  0  0  0
 26 87  1  0  0  0  0
 27 67  2  0  0  0  0
 28 55  1  0  0  0  0
 28 70  1  0  0  0  0
 29 69  1  0  0  0  0
 29 73  1  0  0  0  0
 30 63  1  0  0  0  0
 30 68  1  0  0  0  0
 30 70  2  0  0  0  0
 31 74  1  0  0  0  0
 31 79  2  0  0  0  0
 32 46  1  0  0  0  0
 32 75  1  0  0  0  0
 32 80  2  0  0  0  0
 33 64  1  0  0  0  0
 33 71  1  0  0  0  0
 33 81  2  0  0  0  0
 34 65  1  0  0  0  0
 34 76  1  0  0  0  0
 34 82  2  0  0  0  0
 35 72  1  0  0  0  0
 35 77  1  0  0  0  0
 35 83  2  0  0  0  0
 36 39  1  0  0  0  0
 37 46  1  0  0  0  0
 38 71  1  0  0  0  0
 39 41  1  0  0  0  0
 40 42  1  0  0  0  0
 40 43  1  0  0  0  0
 41 45  1  0  0  0  0
 42 47  1  0  0  0  0
 43 72  1  0  0  0  0
 44 47  1  0  0  0  0
 44 72  1  0  0  0  0
 45 75  1  0  0  0  0
 46 71  1  0  0  0  0
 47 69  1  0  0  0  0
 48 63  1  0  0  0  0
 49 63  1  0  0  0  0
 50 65  1  0  0  0  0
 51 66  1  0  0  0  0
 52 66  1  0  0  0  0
 53 66  1  0  0  0  0
 54 78  1  0  0  0  0
 55 56  1  0  0  0  0
 56 61  1  0  0  0  0
 57 58  1  0  0  0  0
 57 59  1  0  0  0  0
 58 60  1  0  0  0  0
 59 62  1  0  0  0  0
 60 68  1  0  0  0  0
 61 77  1  0  0  0  0
 62 85  1  0  0  0  0
 64 66  1  0  0  0  0
 64 76  1  0  0  0  0
 65 78  1  0  0  0  0
 67 69  1  0  0  0  0
M  CHG  2  70   1  78   1
M  ISO  4  35 100  62 101  77 100  85 101
M  END
> <Batch ID>
0091

> <Smiles>
CNC(C)C(=O)NC(C(=O)N1Cc2cc([101O:1][101CH2:1]CCCCn3cc(CCC[100NH:0][100C:0](=O)N4CCCC(n5nc(-c6ccc(Oc7ccc(F)cc7F)cc6)c(C(N)=O)c5N)C4)nc3C(C)C)ccc2CC1C(=O)NC1CCCc2ccccc21)C(C)(C)C

> <Shape>
0.189

> <Color>
0.172

> <Negative vol penalty>
0.000

$$$$

  -OEChem-04052319113D

 95103  0     1  0  0  0  0  0999 V2000
  -34.7803  -27.7994   28.1391 C   0  0  0  0  0  0  0  0  0  0  0  0
  -34.2486  -26.5465   27.8512 C   0  0  0  0  0  0  0  0  0  0  0  0
  -23.0748   -9.8681   19.9397 C   0  0  0  0  0  0  0  0  0  0  0  0
  -23.8373   -9.8746   22.2322 C   0  0  0  0  0  0  0  0  0  0  0  0
  -33.9320  -28.8587   28.4587 C   0  0  0  0  0  0  0  0  0  0  0  0
  -32.8682  -26.3519   27.8838 C   0  0  0  0  0  0  0  0  0  0  0  0
  -29.5851  -22.6545   24.2703 C   0  0  0  0  0  0  0  0  0  0  0  0
  -22.3323   -8.7141   20.1900 C   0  0  0  0  0  0  0  0  0  0  0  0
  -23.0948   -8.7206   22.4825 C   0  0  0  0  0  0  0  0  0  0  0  0
  -29.0767  -21.3698   24.4571 C   0  0  0  0  0  0  0  0  0  0  0  0
  -19.8681   -7.9194   23.0884 C   0  0  0  0  0  0  0  0  0  0  0  0
  -19.1126   -7.8782   24.2601 C   0  0  0  0  0  0  0  0  0  0  0  0
  -26.9552  -22.3116   25.1140 C   0  0  0  0  0  0  0  0  0  0  0  0
  -30.0690  -17.4053   28.4350 C   0  0  0  0  0  0  0  0  0  0  0  0
  -28.0600  -18.7452   28.3630 C   0  0  0  0  0  0  0  0  0  0  0  0
  -28.3998  -16.9893   26.7386 C   0  0  0  0  0  0  0  0  0  0  0  0
  -20.3567   -5.9415   24.9941 C   0  0  0  0  0  0  0  0  0  0  0  0
  -23.8274  -10.4484   20.9609 C   0  0  0  0  0  0  0  0  0  0  0  0
  -24.1666  -12.9739   20.8418 C   0  0  0  0  0  0  0  0  0  0  0  0
  -32.5399  -28.6794   28.4858 C   0  0  0  0  0  0  0  0  0  0  0  0
  -28.7844  -23.7794   24.5149 C   0  0  0  0  0  0  0  0  0  0  0  0
  -32.0005  -27.4095   28.2053 C   0  0  0  0  0  0  0  0  0  0  0  0
  -27.4550  -23.6094   24.9271 C   0  0  0  0  0  0  0  0  0  0  0  0
  -29.2861  -18.4372   28.9524 C   0  0  0  0  0  0  0  0  0  0  0  0
  -29.6259  -16.6813   27.3281 C   0  0  0  0  0  0  0  0  0  0  0  0
  -27.6168  -18.0213   27.2561 C   0  0  0  0  0  0  0  0  0  0  0  0
  -22.3423   -8.1404   21.4613 C   0  0  0  0  0  0  0  0  0  0  0  0
  -27.7624  -21.1983   24.8818 C   0  0  0  0  0  0  0  0  0  0  0  0
  -20.8679   -6.9717   22.8694 C   0  0  0  0  0  0  0  0  0  0  0  0
  -19.3569   -6.8892   25.2130 C   0  0  0  0  0  0  0  0  0  0  0  0
  -21.1122   -5.9828   23.8223 C   0  0  0  0  0  0  0  0  0  0  0  0
  -24.5950  -11.6401   20.7029 C   0  0  0  0  0  0  0  0  0  0  0  0
  -25.2576  -13.7246   20.4776 C   0  0  0  0  0  0  0  0  0  0  0  0
  -22.8961  -13.4883   21.2625 C   0  0  0  0  0  0  0  0  0  0  0  0
  -28.9260  -26.2400   26.5223 C   0  0  0  0  0  0  0  0  0  0  0  0
  -26.3653  -27.2740   24.8206 C   0  0  0  0  0  0  0  0  0  0  0  0
  -23.7159  -26.4991   22.8139 C   0  0  0  0  0  0  0  0  0  0  0  0
  -30.7406  -14.7488   20.6601 C   0  0  0  0  0  0  0  0  0  0  0  0
  -31.6658  -29.8426   28.8829 C   0  0  0  0  0  0  0  0  0  0  0  0
  -29.3396  -25.1580   24.2830 C   0  0  0  0  0  0  0  0  0  0  0  0
  -26.5480  -24.7840   25.1839 C   0  0  0  0  0  0  0  0  0  0  0  0
  -30.1938  -29.6468   28.5293 C   0  0  0  0  0  0  0  0  0  0  0  0
  -29.6025  -12.3645   18.2734 C   0  0  0  0  0  0  0  0  0  0  0  0
  -29.7248  -28.2565   28.9466 C   0  0  0  0  0  0  0  0  0  0  0  0
  -28.1658  -12.0691   18.7078 C   0  0  0  0  0  0  0  0  0  0  0  0
  -30.5208  -12.5855   19.4733 C   0  0  0  0  0  0  0  0  0  0  0  0
  -28.6200  -13.3141   20.8625 C   0  0  0  0  0  0  0  0  0  0  0  0
  -30.5071  -27.1651   28.2061 C   0  0  1  0  0  0  0  0  0  0  0  0
  -28.5936  -26.2405   25.0569 C   0  0  1  0  0  0  0  0  0  0  0  0
  -27.6446  -13.1392   19.6859 C   0  0  2  0  0  0  0  0  0  0  0  0
  -25.1260  -18.1343   27.5951 C   0  0  0  0  0  0  0  0  0  0  0  0
  -21.7804  -27.5519   21.6126 C   0  0  0  0  0  0  0  0  0  0  0  0
  -32.2754  -13.6176   25.1029 C   0  0  0  0  0  0  0  0  0  0  0  0
  -33.5343  -14.9701   26.7948 C   0  0  0  0  0  0  0  0  0  0  0  0
  -33.1934  -22.1874   29.8788 C   0  0  0  0  0  0  0  0  0  0  0  0
  -31.0240  -23.4250   29.8232 C   0  0  0  0  0  0  0  0  0  0  0  0
  -32.2824  -23.2239   31.9720 C   0  0  0  0  0  0  0  0  0  0  0  0
  -24.8749  -27.5500   27.4688 C   0  0  0  0  0  0  0  0  0  0  0  0
  -22.7363  -27.6709   26.1726 C   0  0  0  0  0  0  0  0  0  0  0  0
  -24.4867  -29.4193   25.8534 C   0  0  0  0  0  0  0  0  0  0  0  0
  -24.7131  -25.5988   20.1768 C   0  0  0  0  0  0  0  0  0  0  0  0
  -29.7603  -19.2107   30.1362 C   0  0  0  0  0  0  0  0  0  0  0  0
  -30.4738  -15.5625   26.7671 C   0  0  0  0  0  0  0  0  0  0  0  0
  -30.5941  -20.4392   29.7334 C   0  0  0  0  0  0  0  0  0  0  0  0
  -31.6155  -16.7028   23.1754 C   0  0  0  0  0  0  0  0  0  0  0  0
  -30.7201  -16.2588   24.3357 C   0  0  0  0  0  0  0  0  0  0  0  0
  -31.1093  -21.1967   30.9637 C   0  0  0  0  0  0  0  0  0  0  0  0
  -30.8059  -16.8988   21.8980 C   0  0  0  0  0  0  0  0  0  0  0  0
  -26.2524  -19.7886   26.0603 C   0  0  0  0  0  0  0  0  0  1  0  0
  -26.3057  -18.3510   26.6260 C   0  0  1  0  0  0  0  0  0  0  0  0
  -24.8696  -27.0984   24.9267 C   0  0  1  0  0  0  0  0  0  0  0  0
  -23.2300  -27.1037   21.5089 C   0  0  2  0  0  0  0  0  0  0  0  0
  -32.6793  -15.0332   25.5226 C   0  0  0  0  0  0  0  0  0  0  0  0
  -31.4751  -16.0146   25.6702 C   0  0  2  0  0  0  0  0  0  0  0  0
  -31.9116  -22.4928   30.6712 C   0  0  0  0  0  0  0  0  0  0  0  0
  -24.2593  -27.9124   26.1025 C   0  0  0  0  0  0  0  0  0  0  0  0
  -25.8594  -11.5457   20.2830 N   0  0  0  0  0  0  0  0  0  0  0  0
  -26.2350  -12.8297   20.1549 N   0  0  0  0  0  0  0  0  0  0  0  0
  -27.1390  -26.1118   24.9490 N   0  0  0  0  0  0  0  0  0  0  0  0
  -29.9703  -13.6131   20.3605 N   0  0  0  0  0  0  0  0  0  0  0  0
  -25.4667  -15.0563   20.4051 N   0  0  0  0  0  0  0  0  0  0  0  0
  -21.8855  -12.5780   21.6004 N   0  0  0  0  0  0  0  0  0  0  0  0
  -30.0165  -27.0220   26.8521 N   0  0  0  0  0  0  0  0  0  0  0  0
  -24.3247  -27.4400   23.6172 N   0  0  0  0  0  0  0  0  0  0  0  0
  -30.1416  -15.6766   21.5033 N   0  0  0  0  0  0  0  0  0  0  0  0
  -23.3362  -26.1078   20.4054 N   0  3  0  0  0  0  0  0  0  0  0  0
  -22.6588  -14.7186   21.3207 O   0  0  0  0  0  0  0  0  0  0  0  0
  -28.2428  -25.5801   27.2965 O   0  0  0  0  0  0  0  0  0  0  0  0
  -26.8296  -28.3997   24.6237 O   0  0  0  0  0  0  0  0  0  0  0  0
  -23.5668  -25.3118   23.0942 O   0  0  0  0  0  0  0  0  0  0  0  0
  -31.8759  -14.9256   20.2052 O   0  0  0  0  0  0  0  0  0  0  0  0
  -21.6177   -7.0145   21.7059 O   0  0  0  0  0  0  0  0  0  0  0  0
  -27.2605  -19.9372   25.0667 O   0  0  0  0  0  0  0  0  0  1  0  0
  -18.6323   -6.8507   26.3389 F   0  0  0  0  0  0  0  0  0  0  0  0
  -22.0722   -5.0703   23.6180 F   0  0  0  0  0  0  0  0  0  0  0  0
  1  2  1  0  0  0  0
  1  5  2  0  0  0  0
  2  6  2  0  0  0  0
  3  8  2  0  0  0  0
  3 18  1  0  0  0  0
  4  9  1  0  0  0  0
  4 18  2  0  0  0  0
  5 20  1  0  0  0  0
  6 22  1  0  0  0  0
  7 10  2  0  0  0  0
  7 21  1  0  0  0  0
  8 27  1  0  0  0  0
  9 27  2  0  0  0  0
 10 28  1  0  0  0  0
 11 12  2  0  0  0  0
 11 29  1  0  0  0  0
 12 30  1  0  0  0  0
 13 23  1  0  0  0  0
 13 28  2  0  0  0  0
 14 24  1  0  0  0  0
 14 25  2  0  0  0  0
 15 24  2  0  0  0  0
 15 26  1  0  0  0  0
 16 25  1  0  0  0  0
 16 26  2  0  0  0  0
 17 30  2  0  0  0  0
 17 31  1  0  0  0  0
 18 32  1  0  0  0  0
 19 32  1  0  0  0  0
 19 33  2  0  0  0  0
 19 34  1  0  0  0  0
 20 22  2  0  0  0  0
 20 39  1  0  0  0  0
 21 23  2  0  0  0  0
 21 40  1  0  0  0  0
 22 48  1  0  0  0  0
 23 41  1  0  0  0  0
 24 62  1  0  0  0  0
 25 63  1  0  0  0  0
 26 70  1  0  0  0  0
 27 92  1  0  0  0  0
 28 93  1  0  0  0  0
 29 31  2  0  0  0  0
 29 92  1  0  0  0  0
 30 94  1  0  0  0  0
 31 95  1  0  0  0  0
 32 77  2  0  0  0  0
 33 78  1  0  0  0  0
 33 81  1  0  0  0  0
 34 82  1  0  0  0  0
 34 87  2  0  0  0  0
 35 49  1  0  0  0  0
 35 83  1  0  0  0  0
 35 88  2  0  0  0  0
 36 71  1  0  0  0  0
 36 79  1  0  0  0  0
 36 89  2  0  0  0  0
 37 72  1  0  0  0  0
 37 84  1  0  0  0  0
 37 90  2  0  0  0  0
 38 80  1  0  0  0  0
 38 85  1  0  0  0  0
 38 91  2  0  0  0  0
 39 42  1  0  0  0  0
 40 49  1  0  0  0  0
 41 79  1  0  0  0  0
 42 44  1  0  0  0  0
 43 45  1  0  0  0  0
 43 46  1  0  0  0  0
 44 48  1  0  0  0  0
 45 50  1  0  0  0  0
 46 80  1  0  0  0  0
 47 50  1  0  0  0  0
 47 80  1  0  0  0  0
 48 83  1  0  0  0  0
 49 79  1  0  0  0  0
 50 78  1  0  0  0  0
 51 70  1  0  0  0  0
 52 72  1  0  0  0  0
 53 73  1  0  0  0  0
 54 73  1  0  0  0  0
 55 75  1  0  0  0  0
 56 75  1  0  0  0  0
 57 75  1  0  0  0  0
 58 76  1  0  0  0  0
 59 76  1  0  0  0  0
 60 76  1  0  0  0  0
 61 86  1  0  0  0  0
 62 64  1  0  0  0  0
 63 74  1  0  0  0  0
 64 67  1  0  0  0  0
 65 66  1  0  0  0  0
 65 68  1  0  0  0  0
 66 74  1  0  0  0  0
 67 75  1  0  0  0  0
 68 85  1  0  0  0  0
 69 70  1  0  0  0  0
 69 93  1  0  0  0  0
 71 76  1  0  0  0  0
 71 84  1  0  0  0  0
 72 86  1  0  0  0  0
 73 74  1  0  0  0  0
 77 78  1  0  0  0  0
M  CHG  1  86   1
M  ISO  4  38 100  69 101  85 100  93 101
M  END
> <Batch ID>
0091

> <Smiles>
CNC(C)C(=O)NC(C(=O)N1Cc2cc([101O:1][101CH2:1]C(C)c3cc(CCCC(C)(C)C)cc(CC(CCC[100NH:0][100C:0](=O)N4CCCC(n5nc(-c6ccc(Oc7ccc(F)cc7F)cc6)c(C(N)=O)c5N)C4)C(C)C)c3)ccc2CC1C(=O)NC1CCCc2ccccc21)C(C)(C)C

> <Shape>
0.172

> <Color>
0.166

> <Negative vol penalty>
0.000

$$$$

  -OEChem-04052319113D

 81 88  0     1  0  0  0  0  0999 V2000
  -16.9998  -28.9506   24.4600 C   0  0  0  0  0  0  0  0  0  0  0  0
  -17.5317  -28.0563   23.5366 C   0  0  0  0  0  0  0  0  0  0  0  0
  -26.5130  -12.6177   21.1639 C   0  0  0  0  0  0  0  0  0  0  0  0
  -24.9225  -14.3239   20.5342 C   0  0  0  0  0  0  0  0  0  0  0  0
  -17.5079  -30.2461   24.5465 C   0  0  0  0  0  0  0  0  0  0  0  0
  -18.5714  -28.4573   22.6984 C   0  0  0  0  0  0  0  0  0  0  0  0
  -22.2510  -24.9932   22.3734 C   0  0  0  0  0  0  0  0  0  0  0  0
  -25.4673  -11.8035   21.5989 C   0  0  0  0  0  0  0  0  0  0  0  0
  -23.8768  -13.5096   20.9692 C   0  0  0  0  0  0  0  0  0  0  0  0
  -22.0193  -23.8937   21.5480 C   0  0  0  0  0  0  0  0  0  0  0  0
  -23.1921   -9.1298   22.5423 C   0  0  0  0  0  0  0  0  0  0  0  0
  -23.2220   -7.7844   22.1756 C   0  0  0  0  0  0  0  0  0  0  0  0
  -23.3430  -24.9239   19.8143 C   0  0  0  0  0  0  0  0  0  0  0  0
  -23.1832   -8.4188   19.8447 C   0  0  0  0  0  0  0  0  0  0  0  0
  -26.2406  -13.8779   20.6316 C   0  0  0  0  0  0  0  0  0  0  0  0
  -27.8814  -14.7668   18.8922 C   0  0  0  0  0  0  0  0  0  0  0  0
  -18.5608  -30.6602   23.7156 C   0  0  0  0  0  0  0  0  0  0  0  0
  -23.0227  -26.0730   21.9206 C   0  0  0  0  0  0  0  0  0  0  0  0
  -19.0932  -29.7600   22.7729 C   0  0  0  0  0  0  0  0  0  0  0  0
  -23.5851  -26.0347   20.6368 C   0  0  0  0  0  0  0  0  0  0  0  0
  -24.1493  -12.2494   21.5016 C   0  0  0  0  0  0  0  0  0  0  0  0
  -22.5629  -23.8602   20.2672 C   0  0  0  0  0  0  0  0  0  0  0  0
  -23.1576  -10.1198   21.5602 C   0  0  0  0  0  0  0  0  0  0  0  0
  -23.2177   -7.4288   20.8268 C   0  0  0  0  0  0  0  0  0  0  0  0
  -23.1532   -9.7643   20.2114 C   0  0  0  0  0  0  0  0  0  0  0  0
  -27.3204  -14.7197   20.1825 C   0  0  0  0  0  0  0  0  0  0  0  0
  -28.8669  -15.7193   18.9809 C   0  0  0  0  0  0  0  0  0  0  0  0
  -27.5421  -14.0166   17.7185 C   0  0  0  0  0  0  0  0  0  0  0  0
  -22.4789  -29.1642   21.4183 C   0  0  0  0  0  0  0  0  0  0  0  0
  -25.6711  -29.2336   20.8465 C   0  0  0  0  0  0  0  0  0  0  0  0
  -29.8753  -20.7863   21.6373 C   0  0  0  0  0  0  0  0  0  0  0  0
  -28.4877  -27.5388   19.9292 C   0  0  0  0  0  0  0  0  0  0  0  0
  -19.0452  -32.0852   23.8131 C   0  0  0  0  0  0  0  0  0  0  0  0
  -23.2855  -27.2396   22.8330 C   0  0  0  0  0  0  0  0  0  0  0  0
  -24.4377  -27.1593   20.1107 C   0  0  0  0  0  0  0  0  0  0  0  0
  -20.3992  -32.3152   23.1467 C   0  0  0  0  0  0  0  0  0  0  0  0
  -31.4524  -17.7385   22.6685 C   0  0  0  0  0  0  0  0  0  0  0  0
  -20.4314  -31.6680   21.7658 C   0  0  0  0  0  0  0  0  0  0  0  0
  -30.5844  -16.6526   22.0341 C   0  0  0  0  0  0  0  0  0  0  0  0
  -30.6166  -18.9383   23.1034 C   0  0  0  0  0  0  0  0  0  0  0  0
  -28.9173  -18.4444   21.3742 C   0  0  0  0  0  0  0  0  0  0  0  0
  -20.2381  -30.1499   21.8634 C   0  0  1  0  0  0  0  0  0  0  0  0
  -23.6597  -28.5134   22.0814 C   0  0  1  0  0  0  0  0  0  0  0  0
  -29.7266  -17.2272   20.8928 C   0  0  2  0  0  0  0  0  0  0  0  0
  -30.9263  -27.1394   19.4920 C   0  0  0  0  0  0  0  0  0  0  0  0
  -29.2680  -22.7278   20.2831 C   0  0  0  0  0  0  0  0  0  0  0  0
  -29.4224  -20.4625   19.2262 C   0  0  0  0  0  0  0  0  0  0  0  0
  -25.0366  -30.5584   18.1721 C   0  0  0  0  0  0  0  0  0  0  0  0
  -27.3604  -30.0023   17.4245 C   0  0  0  0  0  0  0  0  0  0  0  0
  -27.0085  -31.5215   19.3715 C   0  0  0  0  0  0  0  0  0  0  0  0
  -22.4528  -19.0229   19.9282 C   0  0  0  0  0  0  0  0  0  0  0  0
  -21.8996  -20.3392   17.8830 C   0  0  0  0  0  0  0  0  0  0  0  0
  -28.9739  -26.7152   22.7300 C   0  0  0  0  0  0  0  0  0  0  0  0
  -26.5730  -20.9109   19.6370 C   0  0  0  0  0  0  0  0  0  0  0  0
  -25.1318  -20.6416   20.0868 C   0  0  0  0  0  0  0  0  0  0  0  0
  -27.5179  -21.0150   20.8423 C   0  0  0  0  0  0  0  0  0  0  0  0
  -24.1830  -20.5751   18.8832 C   0  0  0  0  0  0  0  0  0  0  0  0
  -22.1498  -21.5245   20.0949 C   0  0  0  0  0  0  0  0  0  1  0  0
  -26.5432  -29.0497   19.6280 C   0  0  1  0  0  0  0  0  0  0  0  0
  -29.8785  -27.4937   20.5358 C   0  0  2  0  0  0  0  0  0  0  0  0
  -29.0069  -21.2285   20.4864 C   0  0  0  0  0  0  0  0  0  0  0  0
  -26.4695  -30.2625   18.6579 C   0  0  0  0  0  0  0  0  0  0  0  0
  -22.6789  -20.3698   19.2160 C   0  0  0  0  0  0  0  0  0  0  0  0
  -27.9012  -15.5742   21.0289 N   0  0  0  0  0  0  0  0  0  0  0  0
  -28.8376  -16.1672   20.2689 N   0  0  0  0  0  0  0  0  0  0  0  0
  -24.6606  -28.2808   21.0382 N   0  0  0  0  0  0  0  0  0  0  0  0
  -29.7996  -19.4407   21.9974 N   0  0  0  0  0  0  0  0  0  0  0  0
  -29.7471  -16.2091   18.0821 N   0  0  0  0  0  0  0  0  0  0  0  0
  -26.5040  -13.0787   17.8019 N   0  0  0  0  0  0  0  0  0  0  0  0
  -21.4644  -29.5107   22.2902 N   0  0  0  0  0  0  0  0  0  0  0  0
  -27.8844  -28.7630   20.1255 N   0  0  0  0  0  0  0  0  0  0  0  0
  -29.9364  -26.4768   21.6238 N   0  3  0  0  0  0  0  0  0  0  0  0
  -28.1525  -14.1617   16.6323 O   0  0  0  0  0  0  0  0  0  0  0  0
  -22.4881  -29.3403   20.2056 O   0  0  0  0  0  0  0  0  0  0  0  0
  -25.8833  -30.1836   21.6042 O   0  0  0  0  0  0  0  0  0  0  0  0
  -30.6008  -21.6130   22.1963 O   0  0  0  0  0  0  0  0  0  0  0  0
  -27.9880  -26.5848   19.3371 O   0  0  0  0  0  0  0  0  0  0  0  0
  -23.1286  -11.4551   21.9258 O   0  0  0  0  0  0  0  0  0  0  0  0
  -22.3362  -22.7815   19.4540 O   0  0  0  0  0  0  0  0  0  1  0  0
  -23.2480   -6.1368   20.4748 F   0  0  0  0  0  0  0  0  0  0  0  0
  -23.1214  -10.7109   19.2634 F   0  0  0  0  0  0  0  0  0  0  0  0
  1  2  1  0  0  0  0
  1  5  2  0  0  0  0
  2  6  2  0  0  0  0
  3  8  2  0  0  0  0
  3 15  1  0  0  0  0
  4  9  1  0  0  0  0
  4 15  2  0  0  0  0
  5 17  1  0  0  0  0
  6 19  1  0  0  0  0
  7 10  2  0  0  0  0
  7 18  1  0  0  0  0
  8 21  1  0  0  0  0
  9 21  2  0  0  0  0
 10 22  1  0  0  0  0
 11 12  2  0  0  0  0
 11 23  1  0  0  0  0
 12 24  1  0  0  0  0
 13 20  1  0  0  0  0
 13 22  2  0  0  0  0
 14 24  2  0  0  0  0
 14 25  1  0  0  0  0
 15 26  1  0  0  0  0
 16 26  1  0  0  0  0
 16 27  2  0  0  0  0
 16 28  1  0  0  0  0
 17 19  2  0  0  0  0
 17 33  1  0  0  0  0
 18 20  2  0  0  0  0
 18 34  1  0  0  0  0
 19 42  1  0  0  0  0
 20 35  1  0  0  0  0
 21 78  1  0  0  0  0
 22 79  1  0  0  0  0
 23 25  2  0  0  0  0
 23 78  1  0  0  0  0
 24 80  1  0  0  0  0
 25 81  1  0  0  0  0
 26 64  2  0  0  0  0
 27 65  1  0  0  0  0
 27 68  1  0  0  0  0
 28 69  1  0  0  0  0
 28 73  2  0  0  0  0
 29 43  1  0  0  0  0
 29 70  1  0  0  0  0
 29 74  2  0  0  0  0
 30 59  1  0  0  0  0
 30 66  1  0  0  0  0
 30 75  2  0  0  0  0
 31 61  1  0  0  0  0
 31 67  1  0  0  0  0
 31 76  2  0  0  0  0
 32 60  1  0  0  0  0
 32 71  1  0  0  0  0
 32 77  2  0  0  0  0
 33 36  1  0  0  0  0
 34 43  1  0  0  0  0
 35 66  1  0  0  0  0
 36 38  1  0  0  0  0
 37 39  1  0  0  0  0
 37 40  1  0  0  0  0
 38 42  1  0  0  0  0
 39 44  1  0  0  0  0
 40 67  1  0  0  0  0
 41 44  1  0  0  0  0
 41 67  1  0  0  0  0
 42 70  1  0  0  0  0
 43 66  1  0  0  0  0
 44 65  1  0  0  0  0
 45 60  1  0  0  0  0
 46 61  1  0  0  0  0
 47 61  1  0  0  0  0
 48 62  1  0  0  0  0
 49 62  1  0  0  0  0
 50 62  1  0  0  0  0
 51 63  1  0  0  0  0
 52 63  1  0  0  0  0
 53 72  1  0  0  0  0
 54 55  1  0  0  0  0
 54 56  1  0  0  0  0
 55 57  1  0  0  0  0
 56 61  1  0  0  0  0
 57 63  1  0  0  0  0
 58 63  1  0  0  0  0
 58 79  1  0  0  0  0
 59 62  1  0  0  0  0
 59 71  1  0  0  0  0
 60 72  1  0  0  0  0
 64 65  1  0  0  0  0
M  CHG  1  72   1
M  ISO  4  31 100  58 101  61 100  79 101
M  END
> <Batch ID>
0091

> <Smiles>
CNC(C)C(=O)NC(C(=O)N1Cc2cc([101O:1][101CH2:1]C(C)(C)CCCC[100C:0](C)(C)[100C:0](=O)N3CCCC(n4nc(-c5ccc(Oc6ccc(F)cc6F)cc5)c(C(N)=O)c4N)C3)ccc2CC1C(=O)NC1CCCc2ccccc21)C(C)(C)C

> <Shape>
0.276

> <Color>
0.076

> <Negative vol penalty>
0.000

$$$$

  -OEChem-04052319113D

 93101  0     1  0  0  0  0  0999 V2000
  -29.6087  -27.5912   14.6032 C   0  0  0  0  0  0  0  0  0  0  0  0
  -28.4878  -26.8245   14.9010 C   0  0  0  0  0  0  0  0  0  0  0  0
  -24.0415  -10.9504   23.6354 C   0  0  0  0  0  0  0  0  0  0  0  0
  -24.1552  -13.3029   24.1740 C   0  0  0  0  0  0  0  0  0  0  0  0
  -30.1651  -28.4142   15.5801 C   0  0  0  0  0  0  0  0  0  0  0  0
  -27.9158  -26.8895   16.1721 C   0  0  0  0  0  0  0  0  0  0  0  0
  -23.2823  -23.7615   18.5955 C   0  0  0  0  0  0  0  0  0  0  0  0
  -23.5264  -10.6848   24.9041 C   0  0  0  0  0  0  0  0  0  0  0  0
  -23.6401  -13.0373   25.4427 C   0  0  0  0  0  0  0  0  0  0  0  0
  -23.1043  -22.5909   19.3315 C   0  0  0  0  0  0  0  0  0  0  0  0
  -20.5465  -10.9274   26.4835 C   0  0  0  0  0  0  0  0  0  0  0  0
  -19.4542  -10.0646   26.5721 C   0  0  0  0  0  0  0  0  0  0  0  0
  -23.0589  -23.8847   21.3670 C   0  0  0  0  0  0  0  0  0  0  0  0
  -26.6601  -21.6031   22.2031 C   0  0  0  0  0  0  0  0  0  0  0  0
  -26.8965  -19.2531   21.7488 C   0  0  0  0  0  0  0  0  0  0  0  0
  -20.7473   -8.5699   27.9616 C   0  0  0  0  0  0  0  0  0  0  0  0
  -24.3560  -12.2595   23.2703 C   0  0  0  0  0  0  0  0  0  0  0  0
  -24.1617  -12.8369   20.7931 C   0  0  0  0  0  0  0  0  0  0  0  0
  -29.6065  -28.4793   16.8672 C   0  0  0  0  0  0  0  0  0  0  0  0
  -23.3610  -25.0035   19.2418 C   0  0  0  0  0  0  0  0  0  0  0  0
  -28.4485  -27.7323   17.1644 C   0  0  0  0  0  0  0  0  0  0  0  0
  -23.2354  -25.0699   20.6367 C   0  0  0  0  0  0  0  0  0  0  0  0
  -26.1701  -20.3051   22.2957 C   0  0  0  0  0  0  0  0  0  0  0  0
  -23.3256  -11.7282   25.8078 C   0  0  0  0  0  0  0  0  0  0  0  0
  -22.9954  -22.6520   20.7177 C   0  0  0  0  0  0  0  0  0  0  0  0
  -21.7394  -10.6115   27.1340 C   0  0  0  0  0  0  0  0  0  0  0  0
  -19.5545   -8.8859   27.3111 C   0  0  0  0  0  0  0  0  0  0  0  0
  -21.8397   -9.4327   27.8730 C   0  0  0  0  0  0  0  0  0  0  0  0
  -24.8887  -12.5344   21.9601 C   0  0  0  0  0  0  0  0  0  0  0  0
  -27.8716  -21.7945   21.5587 C   0  0  0  0  0  0  0  0  0  0  0  0
  -28.0974  -19.5498   21.1246 C   0  0  0  0  0  0  0  0  0  0  0  0
  -25.1215  -13.0127   19.8265 C   0  0  0  0  0  0  0  0  0  0  0  0
  -22.7454  -12.9491   20.6002 C   0  0  0  0  0  0  0  0  0  0  0  0
  -25.5806  -27.2650   19.4924 C   0  0  0  0  0  0  0  0  0  0  0  0
  -23.2115  -28.8758   21.0139 C   0  0  0  0  0  0  0  0  0  0  0  0
  -20.2961  -28.7508   22.7836 C   0  0  0  0  0  0  0  0  0  0  0  0
  -30.8953  -14.5822   20.0515 C   0  0  0  0  0  0  0  0  0  0  0  0
  -30.2446  -29.3927   17.8840 C   0  0  0  0  0  0  0  0  0  0  0  0
  -23.5265  -26.2598   18.4312 C   0  0  0  0  0  0  0  0  0  0  0  0
  -23.2929  -26.3804   21.3767 C   0  0  0  0  0  0  0  0  0  0  0  0
  -29.8419  -29.0604   19.3171 C   0  0  0  0  0  0  0  0  0  0  0  0
  -29.5383  -11.6101   18.6366 C   0  0  0  0  0  0  0  0  0  0  0  0
  -28.3296  -28.9266   19.4143 C   0  0  0  0  0  0  0  0  0  0  0  0
  -28.1272  -11.5373   19.2226 C   0  0  0  0  0  0  0  0  0  0  0  0
  -30.5409  -12.1642   19.6465 C   0  0  0  0  0  0  0  0  0  0  0  0
  -28.7574  -13.3888   20.8269 C   0  0  0  0  0  0  0  0  0  0  0  0
  -27.8275  -27.7636   18.5492 C   0  0  1  0  0  0  0  0  0  0  0  0
  -24.1080  -27.4179   19.2362 C   0  0  1  0  0  0  0  0  0  0  0  0
  -27.7006  -12.8885   19.8272 C   0  0  2  0  0  0  0  0  0  0  0  0
  -28.5237  -23.3557   16.3573 C   0  0  0  0  0  0  0  0  0  0  0  0
  -25.0608  -19.1587   24.2310 C   0  0  0  0  0  0  0  0  0  0  0  0
  -29.2620  -23.5510   22.6849 C   0  0  0  0  0  0  0  0  0  0  0  0
  -28.9485  -18.5428   18.9752 C   0  0  0  0  0  0  0  0  0  0  0  0
  -18.6186  -30.2288   23.9234 C   0  0  0  0  0  0  0  0  0  0  0  0
  -25.1471  -29.2760   23.3384 C   0  0  0  0  0  0  0  0  0  0  0  0
  -23.1884  -29.8865   24.7732 C   0  0  0  0  0  0  0  0  0  0  0  0
  -23.7560  -31.2786   22.7826 C   0  0  0  0  0  0  0  0  0  0  0  0
  -31.2585  -19.4440   21.0098 C   0  0  0  0  0  0  0  0  0  0  0  0
  -30.2032  -17.9236   22.6814 C   0  0  0  0  0  0  0  0  0  0  0  0
  -18.1109  -27.8343   21.0105 C   0  0  0  0  0  0  0  0  0  0  0  0
  -29.3165  -23.5477   17.6403 C   0  0  0  0  0  0  0  0  0  0  0  0
  -28.4674  -23.2411   18.8746 C   0  0  0  0  0  0  0  0  0  0  0  0
  -29.2816  -23.4081   20.1634 C   0  0  0  0  0  0  0  0  0  0  0  0
  -23.7920  -19.4061   22.0638 C   0  0  0  0  0  0  0  0  0  0  0  0
  -31.0988  -17.0113   20.5177 C   0  0  0  0  0  0  0  0  0  0  0  0
  -23.3881  -20.3140   20.9059 C   0  0  0  0  0  0  0  0  0  1  0  0
  -24.8473  -20.0373   22.9925 C   0  0  2  0  0  0  0  0  0  0  0  0
  -28.4289  -23.1738   21.4419 C   0  0  1  0  0  0  0  0  0  0  0  0
  -28.9021  -18.4455   20.5250 C   0  0  1  0  0  0  0  0  0  0  0  0
  -22.7422  -28.9874   22.4444 C   0  0  1  0  0  0  0  0  0  0  0  0
  -18.9932  -29.5153   22.6336 C   0  0  2  0  0  0  0  0  0  0  0  0
  -23.7092  -29.8321   23.3212 C   0  0  0  0  0  0  0  0  0  0  0  0
  -30.3450  -18.2082   21.1663 C   0  0  0  0  0  0  0  0  0  0  0  0
  -26.2085  -12.5179   21.7556 N   0  0  0  0  0  0  0  0  0  0  0  0
  -28.6055  -20.7978   21.0151 N   0  0  0  0  0  0  0  0  0  0  0  0
  -26.3184  -12.8122   20.4489 N   0  0  0  0  0  0  0  0  0  0  0  0
  -23.4622  -27.5802   20.5404 N   0  0  0  0  0  0  0  0  0  0  0  0
  -30.0779  -13.4473   20.1806 N   0  0  0  0  0  0  0  0  0  0  0  0
  -25.0500  -13.3175   18.5134 N   0  0  0  0  0  0  0  0  0  0  0  0
  -21.9025  -12.7374   21.6997 N   0  0  0  0  0  0  0  0  0  0  0  0
  -26.3824  -27.7998   18.5022 N   0  0  0  0  0  0  0  0  0  0  0  0
  -21.3798  -29.5060   22.3878 N   0  0  0  0  0  0  0  0  0  0  0  0
  -30.3784  -15.7591   20.5792 N   0  0  0  0  0  0  0  0  0  0  0  0
  -17.8859  -28.5857   22.2722 N   0  3  0  0  0  0  0  0  0  0  0  0
  -22.2415  -13.2127   19.4821 O   0  0  0  0  0  0  0  0  0  0  0  0
  -25.9612  -26.7048   20.5137 O   0  0  0  0  0  0  0  0  0  0  0  0
  -23.3436  -29.9000   20.3392 O   0  0  0  0  0  0  0  0  0  0  0  0
  -20.3478  -27.6003   23.2126 O   0  0  0  0  0  0  0  0  0  0  0  0
  -32.0014  -14.5503   19.5014 O   0  0  0  0  0  0  0  0  0  0  0  0
  -22.8227  -11.4695   27.0458 O   0  0  0  0  0  0  0  0  0  0  0  0
  -22.8223  -21.5109   21.4386 O   0  0  0  0  0  0  0  0  0  1  0  0
  -18.5049   -8.0582   27.3973 F   0  0  0  0  0  0  0  0  0  0  0  0
  -22.9827   -9.1244   28.5011 F   0  0  0  0  0  0  0  0  0  0  0  0
  1  2  1  0  0  0  0
  1  5  2  0  0  0  0
  2  6  2  0  0  0  0
  3  8  2  0  0  0  0
  3 17  1  0  0  0  0
  4  9  1  0  0  0  0
  4 17  2  0  0  0  0
  5 19  1  0  0  0  0
  6 21  1  0  0  0  0
  7 10  2  0  0  0  0
  7 20  1  0  0  0  0
  8 24  1  0  0  0  0
  9 24  2  0  0  0  0
 10 25  1  0  0  0  0
 11 12  2  0  0  0  0
 11 26  1  0  0  0  0
 12 27  1  0  0  0  0
 13 22  1  0  0  0  0
 13 25  2  0  0  0  0
 14 23  2  0  0  0  0
 14 30  1  0  0  0  0
 15 23  1  0  0  0  0
 15 31  2  0  0  0  0
 16 27  2  0  0  0  0
 16 28  1  0  0  0  0
 17 29  1  0  0  0  0
 18 29  1  0  0  0  0
 18 32  2  0  0  0  0
 18 33  1  0  0  0  0
 19 21  2  0  0  0  0
 19 38  1  0  0  0  0
 20 22  2  0  0  0  0
 20 39  1  0  0  0  0
 21 47  1  0  0  0  0
 22 40  1  0  0  0  0
 23 67  1  0  0  0  0
 24 90  1  0  0  0  0
 25 91  1  0  0  0  0
 26 28  2  0  0  0  0
 26 90  1  0  0  0  0
 27 92  1  0  0  0  0
 28 93  1  0  0  0  0
 29 74  2  0  0  0  0
 30 68  1  0  0  0  0
 30 75  2  0  0  0  0
 31 69  1  0  0  0  0
 31 75  1  0  0  0  0
 32 76  1  0  0  0  0
 32 79  1  0  0  0  0
 33 80  1  0  0  0  0
 33 85  2  0  0  0  0
 34 48  1  0  0  0  0
 34 81  1  0  0  0  0
 34 86  2  0  0  0  0
 35 70  1  0  0  0  0
 35 77  1  0  0  0  0
 35 87  2  0  0  0  0
 36 71  1  0  0  0  0
 36 82  1  0  0  0  0
 36 88  2  0  0  0  0
 37 78  1  0  0  0  0
 37 83  1  0  0  0  0
 37 89  2  0  0  0  0
 38 41  1  0  0  0  0
 39 48  1  0  0  0  0
 40 77  1  0  0  0  0
 41 43  1  0  0  0  0
 42 44  1  0  0  0  0
 42 45  1  0  0  0  0
 43 47  1  0  0  0  0
 44 49  1  0  0  0  0
 45 78  1  0  0  0  0
 46 49  1  0  0  0  0
 46 78  1  0  0  0  0
 47 81  1  0  0  0  0
 48 77  1  0  0  0  0
 49 76  1  0  0  0  0
 50 61  1  0  0  0  0
 51 67  1  0  0  0  0
 52 68  1  0  0  0  0
 53 69  1  0  0  0  0
 54 71  1  0  0  0  0
 55 72  1  0  0  0  0
 56 72  1  0  0  0  0
 57 72  1  0  0  0  0
 58 73  1  0  0  0  0
 59 73  1  0  0  0  0
 60 84  1  0  0  0  0
 61 62  1  0  0  0  0
 62 63  1  0  0  0  0
 63 68  1  0  0  0  0
 64 66  1  0  0  0  0
 64 67  1  0  0  0  0
 65 73  1  0  0  0  0
 65 83  1  0  0  0  0
 66 91  1  0  0  0  0
 69 73  1  0  0  0  0
 70 72  1  0  0  0  0
 70 82  1  0  0  0  0
 71 84  1  0  0  0  0
 74 76  1  0  0  0  0
M  CHG  1  84   1
M  ISO  4  37 100  66 101  83 100  91 101
M  END
> <Batch ID>
0091

> <Smiles>
CCCCC(C)c1cc(C(C)C[101CH2:1][101O:1]c2ccc3c(c2)CN(C(=O)C(NC(=O)C(C)NC)C(C)(C)C)C(C(=O)NC2CCCc4ccccc42)C3)cc(C(C)C(C)(C)C[100NH:0][100C:0](=O)N2CCCC(n3nc(-c4ccc(Oc5ccc(F)cc5F)cc4)c(C(N)=O)c3N)C2)n1

> <Shape>
0.251

> <Color>
0.083

> <Negative vol penalty>
0.000

$$$$

  -OEChem-04052319113D

 86 94  0     1  0  0  0  0  0999 V2000
  -31.5020  -24.3497   18.1828 C   0  0  0  0  0  0  0  0  0  0  0  0
  -30.1826  -23.9530   18.3698 C   0  0  0  0  0  0  0  0  0  0  0  0
  -28.0578  -15.7081   19.0442 C   0  0  0  0  0  0  0  0  0  0  0  0
  -28.0867  -16.0043   21.4418 C   0  0  0  0  0  0  0  0  0  0  0  0
  -31.9971  -25.4563   18.8694 C   0  0  0  0  0  0  0  0  0  0  0  0
  -29.3546  -24.6699   19.2343 C   0  0  0  0  0  0  0  0  0  0  0  0
  -24.6012  -23.4059   19.3367 C   0  0  0  0  0  0  0  0  0  0  0  0
  -29.0721  -16.6566   18.9147 C   0  0  0  0  0  0  0  0  0  0  0  0
  -29.1011  -16.9529   21.3123 C   0  0  0  0  0  0  0  0  0  0  0  0
  -24.1484  -22.2221   19.9175 C   0  0  0  0  0  0  0  0  0  0  0  0
  -29.3694  -20.2125   20.4558 C   0  0  0  0  0  0  0  0  0  0  0  0
  -29.2509  -21.3924   21.1902 C   0  0  0  0  0  0  0  0  0  0  0  0
  -23.3769  -23.4653   21.8355 C   0  0  0  0  0  0  0  0  0  0  0  0
  -31.3285  -20.8977   22.3199 C   0  0  0  0  0  0  0  0  0  0  0  0
  -20.8811  -19.4790   26.9550 C   0  0  0  0  0  0  0  0  0  0  0  0
  -27.5650  -15.3819   20.3077 C   0  0  0  0  0  0  0  0  0  0  0  0
  -26.6680  -13.0133   20.6121 C   0  0  0  0  0  0  0  0  0  0  0  0
  -31.1776  -26.1791   19.7520 C   0  0  0  0  0  0  0  0  0  0  0  0
  -24.4548  -24.6290   20.0068 C   0  0  0  0  0  0  0  0  0  0  0  0
  -29.8289  -25.8039   19.9181 C   0  0  0  0  0  0  0  0  0  0  0  0
  -23.8264  -24.6636   21.2598 C   0  0  0  0  0  0  0  0  0  0  0  0
  -29.5939  -17.2790   20.0488 C   0  0  0  0  0  0  0  0  0  0  0  0
  -23.5388  -22.2513   21.1684 C   0  0  0  0  0  0  0  0  0  0  0  0
  -30.4673  -19.3752   20.6534 C   0  0  0  0  0  0  0  0  0  0  0  0
  -30.2305  -21.7350   22.1223 C   0  0  0  0  0  0  0  0  0  0  0  0
  -31.4469  -19.7178   21.5854 C   0  0  0  0  0  0  0  0  0  0  0  0
  -26.5167  -14.4025   20.4421 C   0  0  0  0  0  0  0  0  0  0  0  0
  -20.1311  -21.0826   25.7733 C   0  0  0  0  0  0  0  0  0  0  0  0
  -20.2496  -20.0165   24.9132 C   0  0  0  0  0  0  0  0  0  0  0  0
  -25.3828  -12.5346   20.6876 C   0  0  0  0  0  0  0  0  0  0  0  0
  -27.8633  -12.2259   20.6945 C   0  0  0  0  0  0  0  0  0  0  0  0
  -26.4593  -26.8266   21.1277 C   0  0  0  0  0  0  0  0  0  0  0  0
  -23.7203  -28.4583   21.7258 C   0  0  0  0  0  0  0  0  0  0  0  0
  -20.3572  -28.3629   22.2977 C   0  0  0  0  0  0  0  0  0  0  0  0
  -20.1888  -15.0357   22.3056 C   0  0  0  0  0  0  0  0  0  0  0  0
  -31.7627  -27.3735   20.4635 C   0  0  0  0  0  0  0  0  0  0  0  0
  -24.9245  -25.9005   19.3549 C   0  0  0  0  0  0  0  0  0  0  0  0
  -23.6269  -25.9533   22.0117 C   0  0  0  0  0  0  0  0  0  0  0  0
  -30.9498  -27.7962   21.6828 C   0  0  0  0  0  0  0  0  0  0  0  0
  -20.9393  -13.4847   19.1899 C   0  0  0  0  0  0  0  0  0  0  0  0
  -29.4785  -27.9099   21.3127 C   0  0  0  0  0  0  0  0  0  0  0  0
  -22.4674  -13.4187   19.1728 C   0  0  0  0  0  0  0  0  0  0  0  0
  -20.4370  -14.7638   19.8559 C   0  0  0  0  0  0  0  0  0  0  0  0
  -22.5008  -14.9435   21.1909 C   0  0  0  0  0  0  0  0  0  0  0  0
  -28.9184  -26.5501   20.8766 C   0  0  1  0  0  0  0  0  0  0  0  0
  -25.1861  -27.0231   20.3543 C   0  0  1  0  0  0  0  0  0  0  0  0
  -23.0542  -13.6451   20.5791 C   0  0  2  0  0  0  0  0  0  0  0  0
  -21.8129  -23.6612   26.1544 C   0  0  0  0  0  0  0  0  0  0  0  0
  -18.1160  -22.5656   25.5970 C   0  0  0  0  0  0  0  0  0  0  0  0
  -18.3997  -29.8539   22.7902 C   0  0  0  0  0  0  0  0  0  0  0  0
  -24.6721  -28.7510   24.6100 C   0  0  0  0  0  0  0  0  0  0  0  0
  -22.3321  -29.3748   25.2454 C   0  0  0  0  0  0  0  0  0  0  0  0
  -23.6114  -30.8015   23.6483 C   0  0  0  0  0  0  0  0  0  0  0  0
  -18.9632  -27.5467   19.8178 C   0  0  0  0  0  0  0  0  0  0  0  0
  -19.9510  -19.8727   23.4422 C   0  0  0  0  0  0  0  0  0  0  0  0
  -20.3060  -23.5635   26.3592 C   0  0  0  0  0  0  0  0  0  0  0  0
  -21.1991  -19.8785   22.5570 C   0  0  0  0  0  0  0  0  0  0  0  0
  -19.7947  -16.7510   25.1245 C   0  0  0  0  0  0  0  0  0  0  0  0
  -21.0309  -17.6511   25.2550 C   0  0  0  0  0  0  0  0  0  0  0  0
  -20.1027  -15.2973   24.7720 C   0  0  0  0  0  0  0  0  0  0  0  0
  -21.9696  -21.1927   22.6081 C   0  0  0  0  0  0  0  0  0  1  0  0
  -19.6580  -22.4453   25.4826 C   0  0  1  0  0  0  0  0  0  0  0  0
  -22.7599  -28.5458   22.8873 C   0  0  1  0  0  0  0  0  0  0  0  0
  -19.2116  -29.1636   21.7053 C   0  0  2  0  0  0  0  0  0  0  0  0
  -23.3492  -29.3435   24.0847 C   0  0  0  0  0  0  0  0  0  0  0  0
  -20.5261  -20.7416   27.0427 N   0  0  0  0  0  0  0  0  0  0  0  0
  -25.2364  -14.7818   20.4112 N   0  0  0  0  0  0  0  0  0  0  0  0
  -20.7316  -18.9967   25.6844 N   0  0  0  0  0  0  0  0  0  0  0  0
  -24.5715  -13.6238   20.5627 N   0  0  0  0  0  0  0  0  0  0  0  0
  -24.1088  -27.1690   21.3353 N   0  0  0  0  0  0  0  0  0  0  0  0
  -21.0297  -14.9182   21.1866 N   0  0  0  0  0  0  0  0  0  0  0  0
  -24.8789  -11.2926   20.8479 N   0  0  0  0  0  0  0  0  0  0  0  0
  -29.1005  -12.8774   20.5983 N   0  0  0  0  0  0  0  0  0  0  0  0
  -27.5895  -26.7378   20.3376 N   0  0  0  0  0  0  0  0  0  0  0  0
  -21.5212  -29.1000   22.3518 N   0  0  0  0  0  0  0  0  0  0  0  0
  -20.8319  -15.1721   23.5297 N   0  0  0  0  0  0  0  0  0  0  0  0
  -18.3013  -28.2717   20.9327 N   0  3  0  0  0  0  0  0  0  0  0  0
  -27.8350  -10.9794   20.8324 O   0  0  0  0  0  0  0  0  0  0  0  0
  -26.4194  -26.7618   22.3508 O   0  0  0  0  0  0  0  0  0  0  0  0
  -24.1058  -29.4954   21.1804 O   0  0  0  0  0  0  0  0  0  0  0  0
  -20.2310  -27.2010   22.6780 O   0  0  0  0  0  0  0  0  0  0  0  0
  -18.9562  -15.0149   22.2206 O   0  0  0  0  0  0  0  0  0  0  0  0
  -30.5839  -18.2045   19.9228 O   0  0  0  0  0  0  0  0  0  0  0  0
  -23.0965  -21.0972   21.7379 O   0  0  0  0  0  0  0  0  0  1  0  0
  -30.1174  -22.8688   22.8264 F   0  0  0  0  0  0  0  0  0  0  0  0
  -32.5046  -18.9179   21.7788 F   0  0  0  0  0  0  0  0  0  0  0  0
  1  2  1  0  0  0  0
  1  5  2  0  0  0  0
  2  6  2  0  0  0  0
  3  8  2  0  0  0  0
  3 16  1  0  0  0  0
  4  9  1  0  0  0  0
  4 16  2  0  0  0  0
  5 18  1  0  0  0  0
  6 20  1  0  0  0  0
  7 10  2  0  0  0  0
  7 19  1  0  0  0  0
  8 22  1  0  0  0  0
  9 22  2  0  0  0  0
 10 23  1  0  0  0  0
 11 12  2  0  0  0  0
 11 24  1  0  0  0  0
 12 25  1  0  0  0  0
 13 21  1  0  0  0  0
 13 23  2  0  0  0  0
 14 25  2  0  0  0  0
 14 26  1  0  0  0  0
 15 66  2  0  0  0  0
 15 68  1  0  0  0  0
 16 27  1  0  0  0  0
 17 27  1  0  0  0  0
 17 30  2  0  0  0  0
 17 31  1  0  0  0  0
 18 20  2  0  0  0  0
 18 36  1  0  0  0  0
 19 21  2  0  0  0  0
 19 37  1  0  0  0  0
 20 45  1  0  0  0  0
 21 38  1  0  0  0  0
 22 83  1  0  0  0  0
 23 84  1  0  0  0  0
 24 26  2  0  0  0  0
 24 83  1  0  0  0  0
 25 85  1  0  0  0  0
 26 86  1  0  0  0  0
 27 67  2  0  0  0  0
 28 29  2  0  0  0  0
 28 62  1  0  0  0  0
 28 66  1  0  0  0  0
 29 55  1  0  0  0  0
 29 68  1  0  0  0  0
 30 69  1  0  0  0  0
 30 72  1  0  0  0  0
 31 73  1  0  0  0  0
 31 78  2  0  0  0  0
 32 46  1  0  0  0  0
 32 74  1  0  0  0  0
 32 79  2  0  0  0  0
 33 63  1  0  0  0  0
 33 70  1  0  0  0  0
 33 80  2  0  0  0  0
 34 64  1  0  0  0  0
 34 75  1  0  0  0  0
 34 81  2  0  0  0  0
 35 71  1  0  0  0  0
 35 76  1  0  0  0  0
 35 82  2  0  0  0  0
 36 39  1  0  0  0  0
 37 46  1  0  0  0  0
 38 70  1  0  0  0  0
 39 41  1  0  0  0  0
 40 42  1  0  0  0  0
 40 43  1  0  0  0  0
 41 45  1  0  0  0  0
 42 47  1  0  0  0  0
 43 71  1  0  0  0  0
 44 47  1  0  0  0  0
 44 71  1  0  0  0  0
 45 74  1  0  0  0  0
 46 70  1  0  0  0  0
 47 69  1  0  0  0  0
 48 56  1  0  0  0  0
 49 62  1  0  0  0  0
 50 64  1  0  0  0  0
 51 65  1  0  0  0  0
 52 65  1  0  0  0  0
 53 65  1  0  0  0  0
 54 77  1  0  0  0  0
 55 57  1  0  0  0  0
 56 62  1  0  0  0  0
 57 61  1  0  0  0  0
 58 59  1  0  0  0  0
 58 60  1  0  0  0  0
 59 68  1  0  0  0  0
 60 76  1  0  0  0  0
 61 84  1  0  0  0  0
 63 65  1  0  0  0  0
 63 75  1  0  0  0  0
 64 77  1  0  0  0  0
 67 69  1  0  0  0  0
M  CHG  1  77   1
M  ISO  4  35 100  61 101  76 100  84 101
M  END
> <Batch ID>
0091

> <Smiles>
CCC(C)c1ncn(CCC[100NH:0][100C:0](=O)N2CCCC(n3nc(-c4ccc(Oc5ccc(F)cc5F)cc4)c(C(N)=O)c3N)C2)c1CC[101CH2:1][101O:1]c1ccc2c(c1)CN(C(=O)C(NC(=O)C(C)NC)C(C)(C)C)C(C(=O)NC1CCCc3ccccc31)C2

> <Shape>
0.223

> <Color>
0.056

> <Negative vol penalty>
0.000

$$$$

  -OEChem-04052319113D

 90 98  0     1  0  0  0  0  0999 V2000
  -30.2373  -25.2488   17.5230 C   0  0  0  0  0  0  0  0  0  0  0  0
  -28.8489  -25.2883   17.6010 C   0  0  0  0  0  0  0  0  0  0  0  0
  -26.6315  -16.5996   19.7287 C   0  0  0  0  0  0  0  0  0  0  0  0
  -24.6649  -16.4069   21.1189 C   0  0  0  0  0  0  0  0  0  0  0  0
  -31.0077  -25.7218   18.5844 C   0  0  0  0  0  0  0  0  0  0  0  0
  -28.2300  -25.7998   18.7411 C   0  0  0  0  0  0  0  0  0  0  0  0
  -22.9903  -28.9612   18.9813 C   0  0  0  0  0  0  0  0  0  0  0  0
  -26.7441  -15.2098   19.6953 C   0  0  0  0  0  0  0  0  0  0  0  0
  -24.7775  -15.0169   21.0854 C   0  0  0  0  0  0  0  0  0  0  0  0
  -21.6812  -28.5857   19.2794 C   0  0  0  0  0  0  0  0  0  0  0  0
  -26.6321  -12.6306   22.6009 C   0  0  0  0  0  0  0  0  0  0  0  0
  -26.4777  -11.9388   23.8022 C   0  0  0  0  0  0  0  0  0  0  0  0
  -22.0032  -29.2970   21.5619 C   0  0  0  0  0  0  0  0  0  0  0  0
  -19.8927  -26.0221   23.0111 C   0  0  0  0  0  0  0  0  0  0  0  0
  -24.6021  -10.7358   22.8683 C   0  0  0  0  0  0  0  0  0  0  0  0
  -25.5919  -17.1982   20.4406 C   0  0  0  0  0  0  0  0  0  0  0  0
  -24.7612  -19.4512   19.5794 C   0  0  0  0  0  0  0  0  0  0  0  0
  -30.3980  -26.2483   19.7341 C   0  0  0  0  0  0  0  0  0  0  0  0
  -23.8207  -29.4981   19.9756 C   0  0  0  0  0  0  0  0  0  0  0  0
  -28.9930  -26.2790   19.8195 C   0  0  0  0  0  0  0  0  0  0  0  0
  -23.3217  -29.6808   21.2732 C   0  0  0  0  0  0  0  0  0  0  0  0
  -19.0243  -25.6236   21.9650 C   0  0  0  0  0  0  0  0  0  0  0  0
  -25.8172  -14.4184   20.3736 C   0  0  0  0  0  0  0  0  0  0  0  0
  -21.1883  -28.7509   20.5705 C   0  0  0  0  0  0  0  0  0  0  0  0
  -25.7715  -12.3750   21.5333 C   0  0  0  0  0  0  0  0  0  0  0  0
  -25.4627  -10.9914   23.9359 C   0  0  0  0  0  0  0  0  0  0  0  0
  -24.7565  -11.4276   21.6670 C   0  0  0  0  0  0  0  0  0  0  0  0
  -25.4753  -18.6339   20.4760 C   0  0  0  0  0  0  0  0  0  0  0  0
  -20.3006  -24.8802   23.6646 C   0  0  0  0  0  0  0  0  0  0  0  0
  -18.9278  -24.2503   22.0113 C   0  0  0  0  0  0  0  0  0  0  0  0
  -24.9630  -20.7281   20.0434 C   0  0  0  0  0  0  0  0  0  0  0  0
  -23.9847  -19.0886   18.4299 C   0  0  0  0  0  0  0  0  0  0  0  0
  -26.5623  -28.6205   21.3236 C   0  0  0  0  0  0  0  0  0  0  0  0
  -26.3256  -31.5129   22.7728 C   0  0  0  0  0  0  0  0  0  0  0  0
  -24.3274  -34.0727   23.8224 C   0  0  0  0  0  0  0  0  0  0  0  0
  -25.2292  -24.3952   24.2418 C   0  0  0  0  0  0  0  0  0  0  0  0
  -31.2723  -26.7041   20.8754 C   0  0  0  0  0  0  0  0  0  0  0  0
  -25.2220  -29.9230   19.6315 C   0  0  0  0  0  0  0  0  0  0  0  0
  -24.1661  -30.2715   22.3717 C   0  0  0  0  0  0  0  0  0  0  0  0
  -30.5405  -27.5757   21.8928 C   0  0  0  0  0  0  0  0  0  0  0  0
  -28.1565  -22.4912   23.5476 C   0  0  0  0  0  0  0  0  0  0  0  0
  -29.1958  -26.9552   22.2582 C   0  0  0  0  0  0  0  0  0  0  0  0
  -27.6598  -21.3824   22.6182 C   0  0  0  0  0  0  0  0  0  0  0  0
  -27.1208  -22.8397   24.6143 C   0  0  0  0  0  0  0  0  0  0  0  0
  -25.2858  -22.0652   23.1627 C   0  0  0  0  0  0  0  0  0  0  0  0
  -28.2849  -26.8494   21.0292 C   0  0  1  0  0  0  0  0  0  0  0  0
  -26.1436  -29.9822   20.8458 C   0  0  1  0  0  0  0  0  0  0  0  0
  -26.2736  -21.7179   22.0358 C   0  0  2  0  0  0  0  0  0  0  0  0
  -20.6875  -22.8330   18.2274 C   0  0  0  0  0  0  0  0  0  0  0  0
  -16.2776  -26.8679   22.4729 C   0  0  0  0  0  0  0  0  0  0  0  0
  -24.4165  -36.2821   25.0089 C   0  0  0  0  0  0  0  0  0  0  0  0
  -19.3516  -22.1539   24.8449 C   0  0  0  0  0  0  0  0  0  0  0  0
  -21.3287  -21.9616   23.2764 C   0  0  0  0  0  0  0  0  0  0  0  0
  -26.6616  -30.0655   25.4377 C   0  0  0  0  0  0  0  0  0  0  0  0
  -25.8057  -32.1209   26.5826 C   0  0  0  0  0  0  0  0  0  0  0  0
  -27.9159  -32.2214   25.2561 C   0  0  0  0  0  0  0  0  0  0  0  0
  -23.2586  -35.5118   21.4675 C   0  0  0  0  0  0  0  0  0  0  0  0
  -21.2049  -24.7242   24.8224 C   0  0  0  0  0  0  0  0  0  0  0  0
  -18.1596  -23.3200   21.1565 C   0  0  0  0  0  0  0  0  0  0  0  0
  -19.7868  -23.5665   19.2083 C   0  0  0  0  0  0  0  0  0  0  0  0
  -17.3777  -27.5479   21.6665 C   0  0  0  0  0  0  0  0  0  0  0  0
  -22.3035  -25.8072   24.9423 C   0  0  0  0  0  0  0  0  0  0  0  0
  -19.0482  -22.5929   20.1268 C   0  0  0  0  0  0  0  0  0  0  0  0
  -23.2729  -25.8452   23.7628 C   0  0  0  0  0  0  0  0  0  0  0  0
  -19.3562  -27.3048   20.1143 C   0  0  0  0  0  0  0  0  0  1  0  0
  -18.3301  -26.5495   20.9757 C   0  0  1  0  0  0  0  0  0  0  0  0
  -25.7026  -32.0206   24.0507 C   0  0  1  0  0  0  0  0  0  0  0  0
  -24.4500  -35.5772   23.6618 C   0  0  2  0  0  0  0  0  0  0  0  0
  -19.8792  -22.4245   23.4345 C   0  0  0  0  0  0  0  0  0  0  0  0
  -26.5059  -31.5941   25.3118 C   0  0  0  0  0  0  0  0  0  0  0  0
  -26.0854  -19.3329   21.4368 N   0  0  0  0  0  0  0  0  0  0  0  0
  -19.7075  -23.8093   23.0484 N   0  0  0  0  0  0  0  0  0  0  0  0
  -25.7552  -20.6029   21.1465 N   0  0  0  0  0  0  0  0  0  0  0  0
  -25.5315  -30.6655   21.9871 N   0  0  0  0  0  0  0  0  0  0  0  0
  -25.8293  -23.1492   23.9960 N   0  0  0  0  0  0  0  0  0  0  0  0
  -24.5384  -21.9345   19.6113 N   0  0  0  0  0  0  0  0  0  0  0  0
  -23.8814  -17.7317   18.0943 N   0  0  0  0  0  0  0  0  0  0  0  0
  -27.7062  -28.1385   20.7165 N   0  0  0  0  0  0  0  0  0  0  0  0
  -25.5627  -33.4640   23.8913 N   0  0  0  0  0  0  0  0  0  0  0  0
  -24.0093  -24.6100   23.6122 N   0  0  0  0  0  0  0  0  0  0  0  0
  -23.3313  -36.1021   22.8288 N   0  3  0  0  0  0  0  0  0  0  0  0
  -23.4133  -19.9438   17.7118 O   0  0  0  0  0  0  0  0  0  0  0  0
  -25.8977  -28.0501   22.1807 O   0  0  0  0  0  0  0  0  0  0  0  0
  -27.4718  -31.8613   22.4787 O   0  0  0  0  0  0  0  0  0  0  0  0
  -23.2440  -33.4955   23.8845 O   0  0  0  0  0  0  0  0  0  0  0  0
  -25.7451  -25.2548   24.9643 O   0  0  0  0  0  0  0  0  0  0  0  0
  -25.9266  -13.0621   20.3410 O   0  0  0  0  0  0  0  0  0  0  0  0
  -19.9110  -28.3847   20.8643 O   0  0  0  0  0  0  0  0  0  1  0  0
  -25.3155  -10.3260   25.0891 F   0  0  0  0  0  0  0  0  0  0  0  0
  -23.9274  -11.1770   20.6444 F   0  0  0  0  0  0  0  0  0  0  0  0
  1  2  1  0  0  0  0
  1  5  2  0  0  0  0
  2  6  2  0  0  0  0
  3  8  2  0  0  0  0
  3 16  1  0  0  0  0
  4  9  1  0  0  0  0
  4 16  2  0  0  0  0
  5 18  1  0  0  0  0
  6 20  1  0  0  0  0
  7 10  2  0  0  0  0
  7 19  1  0  0  0  0
  8 23  1  0  0  0  0
  9 23  2  0  0  0  0
 10 24  1  0  0  0  0
 11 12  2  0  0  0  0
 11 25  1  0  0  0  0
 12 26  1  0  0  0  0
 13 21  1  0  0  0  0
 13 24  2  0  0  0  0
 14 22  1  0  0  0  0
 14 29  2  0  0  0  0
 15 26  2  0  0  0  0
 15 27  1  0  0  0  0
 16 28  1  0  0  0  0
 17 28  1  0  0  0  0
 17 31  2  0  0  0  0
 17 32  1  0  0  0  0
 18 20  2  0  0  0  0
 18 37  1  0  0  0  0
 19 21  2  0  0  0  0
 19 38  1  0  0  0  0
 20 46  1  0  0  0  0
 21 39  1  0  0  0  0
 22 30  2  0  0  0  0
 22 66  1  0  0  0  0
 23 87  1  0  0  0  0
 24 88  1  0  0  0  0
 25 27  2  0  0  0  0
 25 87  1  0  0  0  0
 26 89  1  0  0  0  0
 27 90  1  0  0  0  0
 28 71  2  0  0  0  0
 29 58  1  0  0  0  0
 29 72  1  0  0  0  0
 30 59  1  0  0  0  0
 30 72  1  0  0  0  0
 31 73  1  0  0  0  0
 31 76  1  0  0  0  0
 32 77  1  0  0  0  0
 32 82  2  0  0  0  0
 33 47  1  0  0  0  0
 33 78  1  0  0  0  0
 33 83  2  0  0  0  0
 34 67  1  0  0  0  0
 34 74  1  0  0  0  0
 34 84  2  0  0  0  0
 35 68  1  0  0  0  0
 35 79  1  0  0  0  0
 35 85  2  0  0  0  0
 36 75  1  0  0  0  0
 36 80  1  0  0  0  0
 36 86  2  0  0  0  0
 37 40  1  0  0  0  0
 38 47  1  0  0  0  0
 39 74  1  0  0  0  0
 40 42  1  0  0  0  0
 41 43  1  0  0  0  0
 41 44  1  0  0  0  0
 42 46  1  0  0  0  0
 43 48  1  0  0  0  0
 44 75  1  0  0  0  0
 45 48  1  0  0  0  0
 45 75  1  0  0  0  0
 46 78  1  0  0  0  0
 47 74  1  0  0  0  0
 48 73  1  0  0  0  0
 49 60  1  0  0  0  0
 50 61  1  0  0  0  0
 51 68  1  0  0  0  0
 52 69  1  0  0  0  0
 53 69  1  0  0  0  0
 54 70  1  0  0  0  0
 55 70  1  0  0  0  0
 56 70  1  0  0  0  0
 57 81  1  0  0  0  0
 58 62  1  0  0  0  0
 59 63  1  0  0  0  0
 60 63  1  0  0  0  0
 61 66  1  0  0  0  0
 62 64  1  0  0  0  0
 64 80  1  0  0  0  0
 65 66  1  0  0  0  0
 65 88  1  0  0  0  0
 67 70  1  0  0  0  0
 67 79  1  0  0  0  0
 68 81  1  0  0  0  0
 69 72  1  0  0  0  0
 71 73  1  0  0  0  0
M  CHG  1  81   1
M  ISO  4  36 100  65 101  80 100  88 101
M  END
> <Batch ID>
0091

> <Smiles>
CCCCc1c(C(CC)[101CH2:1][101O:1]c2ccc3c(c2)CN(C(=O)C(NC(=O)C(C)NC)C(C)(C)C)C(C(=O)NC2CCCc4ccccc42)C3)cc(CCC[100NH:0][100C:0](=O)N2CCCC(n3nc(-c4ccc(Oc5ccc(F)cc5F)cc4)c(C(N)=O)c3N)C2)n1C(C)C

> <Shape>
0.259

> <Color>
0.055

> <Negative vol penalty>
0.000

$$$$

  -OEChem-04052319113D

 85 93  0     1  0  0  0  0  0999 V2000
  -28.9272  -31.9907   20.8474 C   0  0  0  0  0  0  0  0  0  0  0  0
  -28.3863  -30.7463   20.5403 C   0  0  0  0  0  0  0  0  0  0  0  0
  -26.8314  -12.9475   20.6214 C   0  0  0  0  0  0  0  0  0  0  0  0
  -25.5217  -14.3935   19.1964 C   0  0  0  0  0  0  0  0  0  0  0  0
  -28.4177  -32.7263   21.9166 C   0  0  0  0  0  0  0  0  0  0  0  0
  -27.3364  -30.2362   21.3031 C   0  0  0  0  0  0  0  0  0  0  0  0
  -23.6597  -28.2334   18.4543 C   0  0  0  0  0  0  0  0  0  0  0  0
  -25.9537  -11.8953   20.3605 C   0  0  0  0  0  0  0  0  0  0  0  0
  -24.6440  -13.3413   18.9354 C   0  0  0  0  0  0  0  0  0  0  0  0
  -23.8840  -26.9627   17.9264 C   0  0  0  0  0  0  0  0  0  0  0  0
  -23.8544   -8.9261   20.3540 C   0  0  0  0  0  0  0  0  0  0  0  0
  -23.4333   -8.1482   21.4324 C   0  0  0  0  0  0  0  0  0  0  0  0
  -22.5386  -26.0020   19.6832 C   0  0  0  0  0  0  0  0  0  0  0  0
  -26.5490  -22.9663   17.0762 C   0  0  0  0  0  0  0  0  0  0  0  0
  -26.6073  -23.3314   19.4637 C   0  0  0  0  0  0  0  0  0  0  0  0
  -22.4743  -10.1074   22.4712 C   0  0  0  0  0  0  0  0  0  0  0  0
  -26.6154  -14.1967   20.0394 C   0  0  0  0  0  0  0  0  0  0  0  0
  -28.6812  -15.6233   19.5869 C   0  0  0  0  0  0  0  0  0  0  0  0
  -27.3546  -32.2293   22.6869 C   0  0  0  0  0  0  0  0  0  0  0  0
  -22.8809  -28.3972   19.6089 C   0  0  0  0  0  0  0  0  0  0  0  0
  -26.8131  -30.9652   22.3845 C   0  0  0  0  0  0  0  0  0  0  0  0
  -22.3039  -27.2761   20.2223 C   0  0  0  0  0  0  0  0  0  0  0  0
  -25.9225  -22.9169   18.3214 C   0  0  0  0  0  0  0  0  0  0  0  0
  -27.8605  -23.4302   16.9732 C   0  0  0  0  0  0  0  0  0  0  0  0
  -27.9188  -23.7953   19.3607 C   0  0  0  0  0  0  0  0  0  0  0  0
  -28.5453  -23.8448   18.1155 C   0  0  0  0  0  0  0  0  0  0  0  0
  -24.8601  -12.0921   19.5174 C   0  0  0  0  0  0  0  0  0  0  0  0
  -23.3258  -25.8464   18.5425 C   0  0  0  0  0  0  0  0  0  0  0  0
  -23.5855  -10.2947   20.3342 C   0  0  0  0  0  0  0  0  0  0  0  0
  -22.7432   -8.7388   22.4910 C   0  0  0  0  0  0  0  0  0  0  0  0
  -22.8954  -10.8853   21.3928 C   0  0  0  0  0  0  0  0  0  0  0  0
  -27.5213  -15.2841   20.3091 C   0  0  0  0  0  0  0  0  0  0  0  0
  -29.1829  -16.7226   20.2397 C   0  0  0  0  0  0  0  0  0  0  0  0
  -29.2537  -15.0004   18.4294 C   0  0  0  0  0  0  0  0  0  0  0  0
  -23.4133  -29.5258   22.5323 C   0  0  0  0  0  0  0  0  0  0  0  0
  -20.2146  -29.0965   22.8584 C   0  0  0  0  0  0  0  0  0  0  0  0
  -17.3908  -27.4721   21.8414 C   0  0  0  0  0  0  0  0  0  0  0  0
  -28.4466  -21.6735   22.7078 C   0  0  0  0  0  0  0  0  0  0  0  0
  -26.8688  -33.0398   23.8623 C   0  0  0  0  0  0  0  0  0  0  0  0
  -22.6263  -29.7772   20.1504 C   0  0  0  0  0  0  0  0  0  0  0  0
  -21.4433  -27.4001   21.4521 C   0  0  0  0  0  0  0  0  0  0  0  0
  -25.5068  -32.5940   24.3883 C   0  0  0  0  0  0  0  0  0  0  0  0
  -27.9263  -18.7645   24.6937 C   0  0  0  0  0  0  0  0  0  0  0  0
  -25.4600  -31.0759   24.5298 C   0  0  0  0  0  0  0  0  0  0  0  0
  -27.8640  -17.6293   23.6703 C   0  0  0  0  0  0  0  0  0  0  0  0
  -27.2797  -20.0411   24.1605 C   0  0  0  0  0  0  0  0  0  0  0  0
  -27.7355  -19.3652   21.8348 C   0  0  0  0  0  0  0  0  0  0  0  0
  -25.6572  -30.3890   23.1731 C   0  0  1  0  0  0  0  0  0  0  0  0
  -22.2413  -29.7781   21.6266 C   0  0  1  0  0  0  0  0  0  0  0  0
  -28.4248  -18.0731   22.3058 C   0  0  2  0  0  0  0  0  0  0  0  0
  -28.5083  -23.4742   15.6278 C   0  0  0  0  0  0  0  0  0  0  0  0
  -29.9513  -24.3426   18.0047 C   0  0  0  0  0  0  0  0  0  0  0  0
  -25.2144  -19.9849   18.8239 C   0  0  0  0  0  0  0  0  0  0  0  0
  -14.9332  -27.3056   22.3207 C   0  0  0  0  0  0  0  0  0  0  0  0
  -20.8161  -27.4568   25.3603 C   0  0  0  0  0  0  0  0  0  0  0  0
  -18.4850  -26.5512   25.2426 C   0  0  0  0  0  0  0  0  0  0  0  0
  -18.8563  -28.9963   25.5683 C   0  0  0  0  0  0  0  0  0  0  0  0
  -16.6797  -28.3584   19.1086 C   0  0  0  0  0  0  0  0  0  0  0  0
  -28.6302  -24.2335   20.5991 C   0  0  0  0  0  0  0  0  0  0  0  0
  -24.3755  -21.1548   19.3241 C   0  0  0  0  0  0  0  0  0  0  0  0
  -29.6199  -23.1942   21.1362 C   0  0  0  0  0  0  0  0  0  0  0  0
  -23.5541  -23.5146   18.9502 C   0  0  0  0  0  0  0  0  0  1  0  0
  -24.4913  -22.4098   18.4338 C   0  0  1  0  0  0  0  0  0  0  0  0
  -19.3290  -27.9608   23.3108 C   0  0  1  0  0  0  0  0  0  0  0  0
  -16.0071  -27.9846   21.4849 C   0  0  2  0  0  0  0  0  0  0  0  0
  -19.3893  -27.7384   24.8485 C   0  0  0  0  0  0  0  0  0  0  0  0
  -27.2994  -16.1017   21.3417 N   0  0  0  0  0  0  0  0  0  0  0  0
  -28.3267  -16.9654   21.2732 N   0  0  0  0  0  0  0  0  0  0  0  0
  -21.2289  -28.7699   21.9473 N   0  0  0  0  0  0  0  0  0  0  0  0
  -27.8571  -20.4083   22.8652 N   0  0  0  0  0  0  0  0  0  0  0  0
  -30.2687  -17.4955   20.0249 N   0  0  0  0  0  0  0  0  0  0  0  0
  -28.6098  -13.8804   17.8860 N   0  0  0  0  0  0  0  0  0  0  0  0
  -24.4370  -30.4439   22.3967 N   0  0  0  0  0  0  0  0  0  0  0  0
  -17.9941  -28.2563   22.8018 N   0  0  0  0  0  0  0  0  0  0  0  0
  -28.9754  -21.9386   21.4505 N   0  0  0  0  0  0  0  0  0  0  0  0
  -15.7147  -27.7285   20.0462 N   0  3  0  0  0  0  0  0  0  0  0  0
  -30.3142  -15.4145   17.9026 O   0  0  0  0  0  0  0  0  0  0  0  0
  -23.3899  -28.5697   23.2986 O   0  0  0  0  0  0  0  0  0  0  0  0
  -20.0093  -30.2330   23.2919 O   0  0  0  0  0  0  0  0  0  0  0  0
  -17.8855  -26.4737   21.3227 O   0  0  0  0  0  0  0  0  0  0  0  0
  -28.5025  -22.5033   23.6218 O   0  0  0  0  0  0  0  0  0  0  0  0
  -24.0035  -11.0655   19.2624 O   0  0  0  0  0  0  0  0  0  0  0  0
  -23.5436  -24.6049   18.0297 O   0  0  0  0  0  0  0  0  0  1  0  0
  -22.3375   -7.9913   23.5259 F   0  0  0  0  0  0  0  0  0  0  0  0
  -22.6332  -12.1994   21.3788 F   0  0  0  0  0  0  0  0  0  0  0  0
  1  2  1  0  0  0  0
  1  5  2  0  0  0  0
  2  6  2  0  0  0  0
  3  8  2  0  0  0  0
  3 17  1  0  0  0  0
  4  9  1  0  0  0  0
  4 17  2  0  0  0  0
  5 19  1  0  0  0  0
  6 21  1  0  0  0  0
  7 10  2  0  0  0  0
  7 20  1  0  0  0  0
  8 27  1  0  0  0  0
  9 27  2  0  0  0  0
 10 28  1  0  0  0  0
 11 12  2  0  0  0  0
 11 29  1  0  0  0  0
 12 30  1  0  0  0  0
 13 22  1  0  0  0  0
 13 28  2  0  0  0  0
 14 23  1  0  0  0  0
 14 24  2  0  0  0  0
 15 23  2  0  0  0  0
 15 25  1  0  0  0  0
 16 30  2  0  0  0  0
 16 31  1  0  0  0  0
 17 32  1  0  0  0  0
 18 32  1  0  0  0  0
 18 33  2  0  0  0  0
 18 34  1  0  0  0  0
 19 21  2  0  0  0  0
 19 39  1  0  0  0  0
 20 22  2  0  0  0  0
 20 40  1  0  0  0  0
 21 48  1  0  0  0  0
 22 41  1  0  0  0  0
 23 63  1  0  0  0  0
 24 26  1  0  0  0  0
 24 51  1  0  0  0  0
 25 26  2  0  0  0  0
 25 59  1  0  0  0  0
 26 52  1  0  0  0  0
 27 82  1  0  0  0  0
 28 83  1  0  0  0  0
 29 31  2  0  0  0  0
 29 82  1  0  0  0  0
 30 84  1  0  0  0  0
 31 85  1  0  0  0  0
 32 67  2  0  0  0  0
 33 68  1  0  0  0  0
 33 71  1  0  0  0  0
 34 72  1  0  0  0  0
 34 77  2  0  0  0  0
 35 49  1  0  0  0  0
 35 73  1  0  0  0  0
 35 78  2  0  0  0  0
 36 64  1  0  0  0  0
 36 69  1  0  0  0  0
 36 79  2  0  0  0  0
 37 65  1  0  0  0  0
 37 74  1  0  0  0  0
 37 80  2  0  0  0  0
 38 70  1  0  0  0  0
 38 75  1  0  0  0  0
 38 81  2  0  0  0  0
 39 42  1  0  0  0  0
 40 49  1  0  0  0  0
 41 69  1  0  0  0  0
 42 44  1  0  0  0  0
 43 45  1  0  0  0  0
 43 46  1  0  0  0  0
 44 48  1  0  0  0  0
 45 50  1  0  0  0  0
 46 70  1  0  0  0  0
 47 50  1  0  0  0  0
 47 70  1  0  0  0  0
 48 73  1  0  0  0  0
 49 69  1  0  0  0  0
 50 68  1  0  0  0  0
 53 60  1  0  0  0  0
 54 65  1  0  0  0  0
 55 66  1  0  0  0  0
 56 66  1  0  0  0  0
 57 66  1  0  0  0  0
 58 76  1  0  0  0  0
 59 61  1  0  0  0  0
 60 63  1  0  0  0  0
 61 75  1  0  0  0  0
 62 63  1  0  0  0  0
 62 83  1  0  0  0  0
 64 66  1  0  0  0  0
 64 74  1  0  0  0  0
 65 76  1  0  0  0  0
 67 68  1  0  0  0  0
M  CHG  1  76   1
M  ISO  4  38 100  62 101  75 100  83 101
M  END
> <Batch ID>
0091

> <Smiles>
CCC(c1cc(C)c(C)c(CC[100NH:0][100C:0](=O)N2CCCC(n3nc(-c4ccc(Oc5ccc(F)cc5F)cc4)c(C(N)=O)c3N)C2)c1)[101CH2:1][101O:1]c1ccc2c(c1)CN(C(=O)C(NC(=O)C(C)NC)C(C)(C)C)C(C(=O)NC1CCCc3ccccc31)C2

> <Shape>
0.260

> <Color>
0.059

> <Negative vol penalty>
0.000

$$$$

  -OEChem-04052319113D

 90 98  0     1  0  0  0  0  0999 V2000
  -17.9660  -27.8078   25.9573 C   0  0  0  0  0  0  0  0  0  0  0  0
  -19.2714  -27.3278   25.9882 C   0  0  0  0  0  0  0  0  0  0  0  0
  -27.6194  -12.7144   23.1402 C   0  0  0  0  0  0  0  0  0  0  0  0
  -26.4682  -13.3305   21.1074 C   0  0  0  0  0  0  0  0  0  0  0  0
  -17.4161  -28.2519   24.7555 C   0  0  0  0  0  0  0  0  0  0  0  0
  -20.0272  -27.2905   24.8169 C   0  0  0  0  0  0  0  0  0  0  0  0
  -26.7741  -27.9555   22.5030 C   0  0  0  0  0  0  0  0  0  0  0  0
  -26.4979  -11.9981   23.5583 C   0  0  0  0  0  0  0  0  0  0  0  0
  -25.3467  -12.6141   21.5254 C   0  0  0  0  0  0  0  0  0  0  0  0
  -27.7192  -27.2817   21.7306 C   0  0  0  0  0  0  0  0  0  0  0  0
  -24.3552   -9.3853   21.6382 C   0  0  0  0  0  0  0  0  0  0  0  0
  -23.7304   -8.5594   20.7038 C   0  0  0  0  0  0  0  0  0  0  0  0
  -26.6917  -28.1488   19.7277 C   0  0  0  0  0  0  0  0  0  0  0  0
  -26.0641  -24.1223   19.0912 C   0  0  0  0  0  0  0  0  0  0  0  0
  -21.6855   -9.8212   20.9560 C   0  0  0  0  0  0  0  0  0  0  0  0
  -26.3326  -21.4584   19.6174 C   0  0  0  0  0  0  0  0  0  0  0  0
  -27.6045  -13.3807   21.9148 C   0  0  0  0  0  0  0  0  0  0  0  0
  -29.8453  -13.6391   20.7232 C   0  0  0  0  0  0  0  0  0  0  0  0
  -18.1688  -28.2290   23.5708 C   0  0  0  0  0  0  0  0  0  0  0  0
  -25.7724  -28.7235   21.8921 C   0  0  0  0  0  0  0  0  0  0  0  0
  -19.4864  -27.7334   23.5979 C   0  0  0  0  0  0  0  0  0  0  0  0
  -25.7366  -28.8335   20.4947 C   0  0  0  0  0  0  0  0  0  0  0  0
  -27.2351  -23.4691   18.7234 C   0  0  0  0  0  0  0  0  0  0  0  0
  -27.3799  -22.1117   18.9880 C   0  0  0  0  0  0  0  0  0  0  0  0
  -25.3616  -11.9479   22.7509 C   0  0  0  0  0  0  0  0  0  0  0  0
  -27.6764  -27.3760   20.3427 C   0  0  0  0  0  0  0  0  0  0  0  0
  -23.6452  -10.4292   22.2315 C   0  0  0  0  0  0  0  0  0  0  0  0
  -22.3956   -8.7773   20.3627 C   0  0  0  0  0  0  0  0  0  0  0  0
  -22.3104  -10.6471   21.8904 C   0  0  0  0  0  0  0  0  0  0  0  0
  -28.7625  -14.1213   21.4827 C   0  0  0  0  0  0  0  0  0  0  0  0
  -25.0756  -23.3789   19.7158 C   0  0  0  0  0  0  0  0  0  0  0  0
  -30.6752  -14.7242   20.5810 C   0  0  0  0  0  0  0  0  0  0  0  0
  -30.0798  -12.3276   20.1934 C   0  0  0  0  0  0  0  0  0  0  0  0
  -22.5970  -28.6094   21.8064 C   0  0  0  0  0  0  0  0  0  0  0  0
  -22.9279  -31.4139   20.2102 C   0  0  0  0  0  0  0  0  0  0  0  0
  -24.8937  -33.4440   18.2968 C   0  0  0  0  0  0  0  0  0  0  0  0
  -29.7196  -20.6335   20.7140 C   0  0  0  0  0  0  0  0  0  0  0  0
  -17.5154  -28.6753   22.2869 C   0  0  0  0  0  0  0  0  0  0  0  0
  -24.7765  -29.4658   22.7403 C   0  0  0  0  0  0  0  0  0  0  0  0
  -24.6938  -29.6615   19.7908 C   0  0  0  0  0  0  0  0  0  0  0  0
  -18.5093  -28.9522   21.1618 C   0  0  0  0  0  0  0  0  0  0  0  0
  -31.9481  -18.7782   22.7800 C   0  0  0  0  0  0  0  0  0  0  0  0
  -19.5297  -27.8229   21.0610 C   0  0  0  0  0  0  0  0  0  0  0  0
  -31.4821  -17.3308   22.6132 C   0  0  0  0  0  0  0  0  0  0  0  0
  -30.7730  -19.7535   22.7761 C   0  0  0  0  0  0  0  0  0  0  0  0
  -29.4102  -18.1906   21.4442 C   0  0  0  0  0  0  0  0  0  0  0  0
  -20.3463  -27.7002   22.3531 C   0  0  1  0  0  0  0  0  0  0  0  0
  -23.4897  -29.8034   21.9936 C   0  0  1  0  0  0  0  0  0  0  0  0
  -30.5642  -17.1751   21.3858 C   0  0  2  0  0  0  0  0  0  0  0  0
  -24.8761  -35.6563   17.1126 C   0  0  0  0  0  0  0  0  0  0  0  0
  -20.4194  -24.5421   18.2266 C   0  0  0  0  0  0  0  0  0  0  0  0
  -20.7833  -24.0128   20.6448 C   0  0  0  0  0  0  0  0  0  0  0  0
  -31.0532  -20.7693   16.8611 C   0  0  0  0  0  0  0  0  0  0  0  0
  -29.6863  -19.1945   15.4803 C   0  0  0  0  0  0  0  0  0  0  0  0
  -21.2095  -30.2112   17.9942 C   0  0  0  0  0  0  0  0  0  0  0  0
  -22.0057  -32.0394   16.4802 C   0  0  0  0  0  0  0  0  0  0  0  0
  -20.6992  -32.6002   18.5298 C   0  0  0  0  0  0  0  0  0  0  0  0
  -27.1327  -34.4711   19.9373 C   0  0  0  0  0  0  0  0  0  0  0  0
  -28.3303  -24.2495   18.0414 C   0  0  0  0  0  0  0  0  0  0  0  0
  -23.8056  -24.0472   20.1248 C   0  0  0  0  0  0  0  0  0  0  0  0
  -29.5071  -24.5894   18.9585 C   0  0  0  0  0  0  0  0  0  0  0  0
  -22.7431  -23.9964   19.0115 C   0  0  0  0  0  0  0  0  0  0  0  0
  -28.5660  -20.6968   17.2150 C   0  0  0  0  0  0  0  0  0  0  0  0
  -29.1255  -25.5038   20.1167 C   0  0  0  0  0  0  0  0  0  1  0  0
  -28.6127  -21.3635   18.6162 C   0  0  2  0  0  0  0  0  0  0  0  0
  -23.0885  -31.8070   18.7615 C   0  0  1  0  0  0  0  0  0  0  0  0
  -25.2158  -34.9238   18.4013 C   0  0  2  0  0  0  0  0  0  0  0  0
  -21.4007  -24.6455   19.3969 C   0  0  0  0  0  0  0  0  0  0  0  0
  -29.8148  -19.8683   16.8470 C   0  0  0  0  0  0  0  0  0  0  0  0
  -21.7693  -31.6472   17.9543 C   0  0  0  0  0  0  0  0  0  0  0  0
  -25.1801  -22.0591   19.9895 N   0  0  0  0  0  0  0  0  0  0  0  0
  -28.8902  -15.4122   21.8010 N   0  0  0  0  0  0  0  0  0  0  0  0
  -30.0631  -15.7503   21.2387 N   0  0  0  0  0  0  0  0  0  0  0  0
  -23.7383  -30.3634   20.6636 N   0  0  0  0  0  0  0  0  0  0  0  0
  -29.9431  -19.5548   21.5855 N   0  0  0  0  0  0  0  0  0  0  0  0
  -31.8616  -14.8911   19.9589 N   0  0  0  0  0  0  0  0  0  0  0  0
  -29.1251  -11.3298   20.4326 N   0  0  0  0  0  0  0  0  0  0  0  0
  -21.3600  -28.7315   22.4102 N   0  0  0  0  0  0  0  0  0  0  0  0
  -23.6272  -33.1628   18.7638 N   0  0  0  0  0  0  0  0  0  0  0  0
  -28.9270  -20.3579   19.6065 N   0  0  0  0  0  0  0  0  0  0  0  0
  -26.6657  -35.1195   18.6850 N   0  3  0  0  0  0  0  0  0  0  0  0
  -31.1135  -12.0445   19.5417 O   0  0  0  0  0  0  0  0  0  0  0  0
  -22.9999  -27.6490   21.1606 O   0  0  0  0  0  0  0  0  0  0  0  0
  -22.1185  -32.0214   20.9155 O   0  0  0  0  0  0  0  0  0  0  0  0
  -25.6850  -32.6205   17.8428 O   0  0  0  0  0  0  0  0  0  0  0  0
  -30.1958  -21.7575   20.9058 O   0  0  0  0  0  0  0  0  0  0  0  0
  -24.2672  -11.2488   23.1583 O   0  0  0  0  0  0  0  0  0  0  0  0
  -28.5973  -26.7188   19.5864 O   0  0  0  0  0  0  0  0  0  1  0  0
  -21.7961   -7.9851   19.4643 F   0  0  0  0  0  0  0  0  0  0  0  0
  -21.6235  -11.6490   22.4561 F   0  0  0  0  0  0  0  0  0  0  0  0
  1  2  1  0  0  0  0
  1  5  2  0  0  0  0
  2  6  2  0  0  0  0
  3  8  2  0  0  0  0
  3 17  1  0  0  0  0
  4  9  1  0  0  0  0
  4 17  2  0  0  0  0
  5 19  1  0  0  0  0
  6 21  1  0  0  0  0
  7 10  2  0  0  0  0
  7 20  1  0  0  0  0
  8 25  1  0  0  0  0
  9 25  2  0  0  0  0
 10 26  1  0  0  0  0
 11 12  2  0  0  0  0
 11 27  1  0  0  0  0
 12 28  1  0  0  0  0
 13 22  1  0  0  0  0
 13 26  2  0  0  0  0
 14 23  1  0  0  0  0
 14 31  2  0  0  0  0
 15 28  2  0  0  0  0
 15 29  1  0  0  0  0
 16 24  1  0  0  0  0
 16 71  2  0  0  0  0
 17 30  1  0  0  0  0
 18 30  1  0  0  0  0
 18 32  2  0  0  0  0
 18 33  1  0  0  0  0
 19 21  2  0  0  0  0
 19 38  1  0  0  0  0
 20 22  2  0  0  0  0
 20 39  1  0  0  0  0
 21 47  1  0  0  0  0
 22 40  1  0  0  0  0
 23 24  2  0  0  0  0
 23 59  1  0  0  0  0
 24 65  1  0  0  0  0
 25 87  1  0  0  0  0
 26 88  1  0  0  0  0
 27 29  2  0  0  0  0
 27 87  1  0  0  0  0
 28 89  1  0  0  0  0
 29 90  1  0  0  0  0
 30 72  2  0  0  0  0
 31 60  1  0  0  0  0
 31 71  1  0  0  0  0
 32 73  1  0  0  0  0
 32 76  1  0  0  0  0
 33 77  1  0  0  0  0
 33 82  2  0  0  0  0
 34 48  1  0  0  0  0
 34 78  1  0  0  0  0
 34 83  2  0  0  0  0
 35 66  1  0  0  0  0
 35 74  1  0  0  0  0
 35 84  2  0  0  0  0
 36 67  1  0  0  0  0
 36 79  1  0  0  0  0
 36 85  2  0  0  0  0
 37 75  1  0  0  0  0
 37 80  1  0  0  0  0
 37 86  2  0  0  0  0
 38 41  1  0  0  0  0
 39 48  1  0  0  0  0
 40 74  1  0  0  0  0
 41 43  1  0  0  0  0
 42 44  1  0  0  0  0
 42 45  1  0  0  0  0
 43 47  1  0  0  0  0
 44 49  1  0  0  0  0
 45 75  1  0  0  0  0
 46 49  1  0  0  0  0
 46 75  1  0  0  0  0
 47 78  1  0  0  0  0
 48 74  1  0  0  0  0
 49 73  1  0  0  0  0
 50 67  1  0  0  0  0
 51 68  1  0  0  0  0
 52 68  1  0  0  0  0
 53 69  1  0  0  0  0
 54 69  1  0  0  0  0
 55 70  1  0  0  0  0
 56 70  1  0  0  0  0
 57 70  1  0  0  0  0
 58 81  1  0  0  0  0
 59 61  1  0  0  0  0
 60 62  1  0  0  0  0
 61 64  1  0  0  0  0
 62 68  1  0  0  0  0
 63 65  1  0  0  0  0
 63 69  1  0  0  0  0
 64 88  1  0  0  0  0
 65 80  1  0  0  0  0
 66 70  1  0  0  0  0
 66 79  1  0  0  0  0
 67 81  1  0  0  0  0
 72 73  1  0  0  0  0
M  CHG  1  81   1
M  ISO  4  37 100  64 101  80 100  88 101
M  END
> <Batch ID>
0091

> <Smiles>
CNC(C)C(=O)NC(C(=O)N1Cc2cc([101O:1][101CH2:1]CCc3cc(CCC(C)C)ncc3C(CC(C)C)[100NH:0][100C:0](=O)N3CCCC(n4nc(-c5ccc(Oc6ccc(F)cc6F)cc5)c(C(N)=O)c4N)C3)ccc2CC1C(=O)NC1CCCc2ccccc21)C(C)(C)C

> <Shape>
0.260

> <Color>
0.092

> <Negative vol penalty>
0.000

$$$$

  -OEChem-04052319113D

 90 98  0     1  0  0  0  0  0999 V2000
  -26.5987  -32.9384   21.0154 C   0  0  0  0  0  0  0  0  0  0  0  0
  -25.9863  -31.8909   20.3350 C   0  0  0  0  0  0  0  0  0  0  0  0
  -23.1129   -9.8630   19.9777 C   0  0  0  0  0  0  0  0  0  0  0  0
  -23.8460   -9.9463   22.2783 C   0  0  0  0  0  0  0  0  0  0  0  0
  -27.8716  -32.7663   21.5576 C   0  0  0  0  0  0  0  0  0  0  0  0
  -26.6470  -30.6709   20.1954 C   0  0  0  0  0  0  0  0  0  0  0  0
  -25.3573  -23.6344   19.8199 C   0  0  0  0  0  0  0  0  0  0  0  0
  -22.3797   -8.7088   20.2531 C   0  0  0  0  0  0  0  0  0  0  0  0
  -23.1128   -8.7921   22.5537 C   0  0  0  0  0  0  0  0  0  0  0  0
  -25.6360  -22.5297   19.0163 C   0  0  0  0  0  0  0  0  0  0  0  0
  -19.8874   -7.9734   23.1431 C   0  0  0  0  0  0  0  0  0  0  0  0
  -19.1175   -7.9586   24.3061 C   0  0  0  0  0  0  0  0  0  0  0  0
  -27.7995  -22.3219   20.0629 C   0  0  0  0  0  0  0  0  0  0  0  0
  -30.3724  -17.1294   17.1735 C   0  0  0  0  0  0  0  0  0  0  0  0
  -32.6540  -17.6443   17.7783 C   0  0  0  0  0  0  0  0  0  0  0  0
  -20.3729   -6.0587   25.1131 C   0  0  0  0  0  0  0  0  0  0  0  0
  -23.8461  -10.4817   20.9903 C   0  0  0  0  0  0  0  0  0  0  0  0
  -24.1596  -13.0062   20.7998 C   0  0  0  0  0  0  0  0  0  0  0  0
  -28.5443  -31.5405   21.4330 C   0  0  0  0  0  0  0  0  0  0  0  0
  -26.3035  -24.0986   20.7449 C   0  0  0  0  0  0  0  0  0  0  0  0
  -27.9307  -30.4827   20.7353 C   0  0  0  0  0  0  0  0  0  0  0  0
  -27.5294  -23.4311   20.8788 C   0  0  0  0  0  0  0  0  0  0  0  0
  -31.7190  -17.2375   16.8265 C   0  0  0  0  0  0  0  0  0  0  0  0
  -29.9607  -17.4283   18.4724 C   0  0  0  0  0  0  0  0  0  0  0  0
  -32.2424  -17.9431   19.0771 C   0  0  0  0  0  0  0  0  0  0  0  0
  -30.8957  -17.8351   19.4241 C   0  0  0  0  0  0  0  0  0  0  0  0
  -22.3797   -8.1733   21.5411 C   0  0  0  0  0  0  0  0  0  0  0  0
  -26.8584  -21.8750   19.1357 C   0  0  0  0  0  0  0  0  0  0  0  0
  -20.9001   -7.0307   22.9651 C   0  0  0  0  0  0  0  0  0  0  0  0
  -19.3602   -7.0014   25.2911 C   0  0  0  0  0  0  0  0  0  0  0  0
  -21.1428   -6.0734   23.9501 C   0  0  0  0  0  0  0  0  0  0  0  0
  -24.6041  -11.6737   20.7063 C   0  0  0  0  0  0  0  0  0  0  0  0
  -25.2471  -13.7579   20.4270 C   0  0  0  0  0  0  0  0  0  0  0  0
  -22.8784  -13.5187   21.1891 C   0  0  0  0  0  0  0  0  0  0  0  0
  -27.9171  -26.8093   21.1346 C   0  0  0  0  0  0  0  0  0  0  0  0
  -28.8987  -25.3759   23.8739 C   0  0  0  0  0  0  0  0  0  0  0  0
  -29.4392  -22.4790   25.5951 C   0  0  0  0  0  0  0  0  0  0  0  0
  -30.7159  -14.8480   20.6469 C   0  0  0  0  0  0  0  0  0  0  0  0
  -29.9384  -31.4171   21.9949 C   0  0  0  0  0  0  0  0  0  0  0  0
  -25.9770  -25.2752   21.6231 C   0  0  0  0  0  0  0  0  0  0  0  0
  -28.5711  -23.8773   21.8709 C   0  0  0  0  0  0  0  0  0  0  0  0
  -30.4161  -29.9733   22.1273 C   0  0  0  0  0  0  0  0  0  0  0  0
  -29.6341  -12.3811   18.3187 C   0  0  0  0  0  0  0  0  0  0  0  0
  -30.1138  -29.1920   20.8526 C   0  0  0  0  0  0  0  0  0  0  0  0
  -28.1953  -12.0829   18.7439 C   0  0  0  0  0  0  0  0  0  0  0  0
  -30.5346  -12.6480   19.5228 C   0  0  0  0  0  0  0  0  0  0  0  0
  -28.6085  -13.3964   20.8658 C   0  0  0  0  0  0  0  0  0  0  0  0
  -28.6050  -29.1363   20.5844 C   0  0  1  0  0  0  0  0  0  0  0  0
  -27.2173  -25.9751   22.1700 C   0  0  1  0  0  0  0  0  0  0  0  0
  -27.6501  -13.1757   19.6830 C   0  0  2  0  0  0  0  0  0  0  0  0
  -32.9517  -15.1075   13.8518 C   0  0  0  0  0  0  0  0  0  0  0  0
  -30.2825  -21.6251   27.7990 C   0  0  0  0  0  0  0  0  0  0  0  0
  -35.0217  -19.8987   19.1122 C   0  0  0  0  0  0  0  0  0  0  0  0
  -32.6874  -20.7555   19.3136 C   0  0  0  0  0  0  0  0  0  0  0  0
  -34.0927  -20.4334   21.3650 C   0  0  0  0  0  0  0  0  0  0  0  0
  -31.7657  -25.9303   22.9889 C   0  0  0  0  0  0  0  0  0  0  0  0
  -32.5391  -24.2636   24.6897 C   0  0  0  0  0  0  0  0  0  0  0  0
  -31.3308  -26.3199   25.4207 C   0  0  0  0  0  0  0  0  0  0  0  0
  -26.8392  -21.2171   26.2327 C   0  0  0  0  0  0  0  0  0  0  0  0
  -32.1590  -16.9186   15.4377 C   0  0  0  0  0  0  0  0  0  0  0  0
  -28.4993  -17.3023   18.8219 C   0  0  0  0  0  0  0  0  0  0  0  0
  -33.2635  -18.3765   20.0778 C   0  0  0  0  0  0  0  0  0  0  0  0
  -30.4541  -18.1550   20.8168 C   0  0  0  0  0  0  0  0  0  0  0  0
  -32.5362  -15.4381   15.2765 C   0  0  0  0  0  0  0  0  0  0  0  0
  -27.6385  -18.4521   18.2942 C   0  0  0  0  0  0  0  0  0  0  0  0
  -30.7422  -17.0346   21.8206 C   0  0  0  0  0  0  0  0  0  0  0  0
  -28.0037  -19.8047   18.8947 C   0  0  0  0  0  0  0  0  0  1  0  0
  -30.0494  -24.4770   24.2571 C   0  0  1  0  0  0  0  0  0  0  0  0
  -29.0608  -22.0588   27.0039 C   0  0  2  0  0  0  0  0  0  0  0  0
  -33.7460  -19.8598   19.9801 C   0  0  0  0  0  0  0  0  0  0  0  0
  -31.4026  -25.2402   24.3190 C   0  0  0  0  0  0  0  0  0  0  0  0
  -25.8747  -11.5809   20.3052 N   0  0  0  0  0  0  0  0  0  0  0  0
  -26.2380  -12.8647   20.1434 N   0  0  0  0  0  0  0  0  0  0  0  0
  -28.2073  -25.0366   22.7024 N   0  0  0  0  0  0  0  0  0  0  0  0
  -29.9618  -13.6954   20.3719 N   0  0  0  0  0  0  0  0  0  0  0  0
  -25.4427  -15.0890   20.3172 N   0  0  0  0  0  0  0  0  0  0  0  0
  -21.8734  -12.6077   21.5415 N   0  0  0  0  0  0  0  0  0  0  0  0
  -27.9751  -28.1553   21.4419 N   0  0  0  0  0  0  0  0  0  0  0  0
  -29.6669  -23.8363   25.5108 N   0  0  0  0  0  0  0  0  0  0  0  0
  -30.0962  -15.7938   21.4545 N   0  0  0  0  0  0  0  0  0  0  0  0
  -28.0980  -20.9220   26.9644 N   0  3  0  0  0  0  0  0  0  0  0  0
  -22.6271  -14.7476   21.2075 O   0  0  0  0  0  0  0  0  0  0  0  0
  -28.3720  -26.2715   20.1319 O   0  0  0  0  0  0  0  0  0  0  0  0
  -28.6191  -26.3395   24.5916 O   0  0  0  0  0  0  0  0  0  0  0  0
  -29.5279  -21.6823   24.6635 O   0  0  0  0  0  0  0  0  0  0  0  0
  -31.8549  -15.0238   20.2011 O   0  0  0  0  0  0  0  0  0  0  0  0
  -21.6642   -7.0472   21.8103 O   0  0  0  0  0  0  0  0  0  0  0  0
  -27.1333  -20.7969   18.3522 O   0  0  0  0  0  0  0  0  0  1  0  0
  -18.6218   -6.9883   26.4086 F   0  0  0  0  0  0  0  0  0  0  0  0
  -22.1151   -5.1661   23.7853 F   0  0  0  0  0  0  0  0  0  0  0  0
  1  2  1  0  0  0  0
  1  5  2  0  0  0  0
  2  6  2  0  0  0  0
  3  8  2  0  0  0  0
  3 17  1  0  0  0  0
  4  9  1  0  0  0  0
  4 17  2  0  0  0  0
  5 19  1  0  0  0  0
  6 21  1  0  0  0  0
  7 10  2  0  0  0  0
  7 20  1  0  0  0  0
  8 27  1  0  0  0  0
  9 27  2  0  0  0  0
 10 28  1  0  0  0  0
 11 12  2  0  0  0  0
 11 29  1  0  0  0  0
 12 30  1  0  0  0  0
 13 22  1  0  0  0  0
 13 28  2  0  0  0  0
 14 23  1  0  0  0  0
 14 24  2  0  0  0  0
 15 23  2  0  0  0  0
 15 25  1  0  0  0  0
 16 30  2  0  0  0  0
 16 31  1  0  0  0  0
 17 32  1  0  0  0  0
 18 32  1  0  0  0  0
 18 33  2  0  0  0  0
 18 34  1  0  0  0  0
 19 21  2  0  0  0  0
 19 39  1  0  0  0  0
 20 22  2  0  0  0  0
 20 40  1  0  0  0  0
 21 48  1  0  0  0  0
 22 41  1  0  0  0  0
 23 60  1  0  0  0  0
 24 26  1  0  0  0  0
 24 61  1  0  0  0  0
 25 26  2  0  0  0  0
 25 62  1  0  0  0  0
 26 63  1  0  0  0  0
 27 87  1  0  0  0  0
 28 88  1  0  0  0  0
 29 31  2  0  0  0  0
 29 87  1  0  0  0  0
 30 89  1  0  0  0  0
 31 90  1  0  0  0  0
 32 72  2  0  0  0  0
 33 73  1  0  0  0  0
 33 76  1  0  0  0  0
 34 77  1  0  0  0  0
 34 82  2  0  0  0  0
 35 49  1  0  0  0  0
 35 78  1  0  0  0  0
 35 83  2  0  0  0  0
 36 68  1  0  0  0  0
 36 74  1  0  0  0  0
 36 84  2  0  0  0  0
 37 69  1  0  0  0  0
 37 79  1  0  0  0  0
 37 85  2  0  0  0  0
 38 75  1  0  0  0  0
 38 80  1  0  0  0  0
 38 86  2  0  0  0  0
 39 42  1  0  0  0  0
 40 49  1  0  0  0  0
 41 74  1  0  0  0  0
 42 44  1  0  0  0  0
 43 45  1  0  0  0  0
 43 46  1  0  0  0  0
 44 48  1  0  0  0  0
 45 50  1  0  0  0  0
 46 75  1  0  0  0  0
 47 50  1  0  0  0  0
 47 75  1  0  0  0  0
 48 78  1  0  0  0  0
 49 74  1  0  0  0  0
 50 73  1  0  0  0  0
 51 64  1  0  0  0  0
 52 69  1  0  0  0  0
 53 70  1  0  0  0  0
 54 70  1  0  0  0  0
 55 70  1  0  0  0  0
 56 71  1  0  0  0  0
 57 71  1  0  0  0  0
 58 71  1  0  0  0  0
 59 81  1  0  0  0  0
 60 64  1  0  0  0  0
 61 65  1  0  0  0  0
 62 70  1  0  0  0  0
 63 66  1  0  0  0  0
 65 67  1  0  0  0  0
 66 80  1  0  0  0  0
 67 88  1  0  0  0  0
 68 71  1  0  0  0  0
 68 79  1  0  0  0  0
 69 81  1  0  0  0  0
 72 73  1  0  0  0  0
M  CHG  1  81   1
M  ISO  4  38 100  67 101  80 100  88 101
M  END
> <Batch ID>
0091

> <Smiles>
CCCc1cc(CC[101CH2:1][101O:1]c2ccc3c(c2)CN(C(=O)C(NC(=O)C(C)NC)C(C)(C)C)C(C(=O)NC2CCCc4ccccc42)C3)c(CC[100NH:0][100C:0](=O)N2CCCC(n3nc(-c4ccc(Oc5ccc(F)cc5F)cc4)c(C(N)=O)c3N)C2)c(CC(C)(C)C)c1

> <Shape>
0.240

> <Color>
0.211

> <Negative vol penalty>
0.000

$$$$

  -OEChem-04052319113D

 88 96  0     1  0  0  0  0  0999 V2000
  -21.0799  -29.4349   15.3451 C   0  0  0  0  0  0  0  0  0  0  0  0
  -21.2103  -28.4990   16.3662 C   0  0  0  0  0  0  0  0  0  0  0  0
  -26.2368  -11.9779   19.9575 C   0  0  0  0  0  0  0  0  0  0  0  0
  -24.3625  -13.3808   20.5541 C   0  0  0  0  0  0  0  0  0  0  0  0
  -21.8100  -30.6218   15.3915 C   0  0  0  0  0  0  0  0  0  0  0  0
  -22.0718  -28.7491   17.4338 C   0  0  0  0  0  0  0  0  0  0  0  0
  -19.9934  -27.6232   21.9123 C   0  0  0  0  0  0  0  0  0  0  0  0
  -25.7785  -10.9933   20.8329 C   0  0  0  0  0  0  0  0  0  0  0  0
  -23.9041  -12.3962   21.4294 C   0  0  0  0  0  0  0  0  0  0  0  0
  -19.9487  -26.2773   22.2731 C   0  0  0  0  0  0  0  0  0  0  0  0
  -23.4046   -8.5856   20.8512 C   0  0  0  0  0  0  0  0  0  0  0  0
  -23.3967   -7.2669   20.3967 C   0  0  0  0  0  0  0  0  0  0  0  0
  -21.8898  -26.5934   23.6700 C   0  0  0  0  0  0  0  0  0  0  0  0
  -25.0800  -21.6001   20.7306 C   0  0  0  0  0  0  0  0  0  0  0  0
  -24.8961   -6.6416   22.1850 C   0  0  0  0  0  0  0  0  0  0  0  0
  -25.5288  -13.1716   19.8182 C   0  0  0  0  0  0  0  0  0  0  0  0
  -25.6770  -14.3346   17.5525 C   0  0  0  0  0  0  0  0  0  0  0  0
  -22.6736  -30.8908   16.4650 C   0  0  0  0  0  0  0  0  0  0  0  0
  -20.9949  -28.4633   22.4200 C   0  0  0  0  0  0  0  0  0  0  0  0
  -22.8152  -29.9401   17.4938 C   0  0  0  0  0  0  0  0  0  0  0  0
  -21.9435  -27.9502   23.3161 C   0  0  0  0  0  0  0  0  0  0  0  0
  -24.4218  -22.7958   20.9963 C   0  0  0  0  0  0  0  0  0  0  0  0
  -25.1457  -23.9809   21.0654 C   0  0  0  0  0  0  0  0  0  0  0  0
  -24.6122  -11.2025   21.5688 C   0  0  0  0  0  0  0  0  0  0  0  0
  -20.8986  -25.7615   23.1498 C   0  0  0  0  0  0  0  0  0  0  0  0
  -24.1584   -8.9324   21.9725 C   0  0  0  0  0  0  0  0  0  0  0  0
  -24.1424   -6.2949   21.0637 C   0  0  0  0  0  0  0  0  0  0  0  0
  -24.9041   -7.9604   22.6394 C   0  0  0  0  0  0  0  0  0  0  0  0
  -26.0020  -14.1893   18.9145 C   0  0  0  0  0  0  0  0  0  0  0  0
  -26.5149  -23.9172   20.8629 C   0  0  0  0  0  0  0  0  0  0  0  0
  -26.4521  -21.6431   20.5429 C   0  0  0  0  0  0  0  0  0  0  0  0
  -26.3781  -15.4445   17.1488 C   0  0  0  0  0  0  0  0  0  0  0  0
  -24.8181  -13.5377   16.7262 C   0  0  0  0  0  0  0  0  0  0  0  0
  -23.3556  -30.1656   21.1421 C   0  0  0  0  0  0  0  0  0  0  0  0
  -23.7166  -31.2254   24.1866 C   0  0  0  0  0  0  0  0  0  0  0  0
  -23.2472  -30.6730   27.5215 C   0  0  0  0  0  0  0  0  0  0  0  0
  -28.4768  -20.2267   20.0524 C   0  0  0  0  0  0  0  0  0  0  0  0
  -23.4778  -32.1666   16.4476 C   0  0  0  0  0  0  0  0  0  0  0  0
  -21.0134  -29.9190   22.0419 C   0  0  0  0  0  0  0  0  0  0  0  0
  -23.0270  -28.8149   23.9051 C   0  0  0  0  0  0  0  0  0  0  0  0
  -24.0858  -32.5219   17.8020 C   0  0  0  0  0  0  0  0  0  0  0  0
  -30.3670  -17.9113   18.1176 C   0  0  0  0  0  0  0  0  0  0  0  0
  -24.7464  -31.2978   18.4281 C   0  0  0  0  0  0  0  0  0  0  0  0
  -29.4302  -16.7097   17.9733 C   0  0  0  0  0  0  0  0  0  0  0  0
  -30.2398  -18.5678   19.4911 C   0  0  0  0  0  0  0  0  0  0  0  0
  -27.9351  -17.7323   19.7357 C   0  0  0  0  0  0  0  0  0  0  0  0
  -23.7208  -30.1862   18.6810 C   0  0  1  0  0  0  0  0  0  0  0  0
  -22.3846  -30.5644   22.2172 C   0  0  1  0  0  0  0  0  0  0  0  0
  -27.9804  -17.0775   18.3454 C   0  0  2  0  0  0  0  0  0  0  0  0
  -24.4669  -25.2789   21.3478 C   0  0  0  0  0  0  0  0  0  0  0  0
  -23.6819  -31.7013   29.7689 C   0  0  0  0  0  0  0  0  0  0  0  0
  -31.8292  -27.4166   20.2210 C   0  0  0  0  0  0  0  0  0  0  0  0
  -31.1060  -25.6867   18.5641 C   0  0  0  0  0  0  0  0  0  0  0  0
  -26.6498  -30.4082   23.9905 C   0  0  0  0  0  0  0  0  0  0  0  0
  -26.7867  -30.5599   26.4858 C   0  0  0  0  0  0  0  0  0  0  0  0
  -26.2500  -32.5919   25.1421 C   0  0  0  0  0  0  0  0  0  0  0  0
  -20.3572  -30.8190   28.1427 C   0  0  0  0  0  0  0  0  0  0  0  0
  -22.9286  -22.7813   21.2058 C   0  0  0  0  0  0  0  0  0  0  0  0
  -27.3447  -25.1581   20.9264 C   0  0  0  0  0  0  0  0  0  0  0  0
  -22.5012  -22.2539   22.5800 C   0  0  0  0  0  0  0  0  0  0  0  0
  -28.7866  -24.9810   20.4169 C   0  0  0  0  0  0  0  0  0  0  0  0
  -20.9829  -22.1744   22.7451 C   0  0  0  0  0  0  0  0  0  0  0  0
  -29.6273  -26.2558   20.5637 C   0  0  0  0  0  0  0  0  0  0  0  0
  -20.3268  -23.5338   22.5445 C   0  0  0  0  0  0  0  0  0  1  0  0
  -24.5103  -30.7739   25.3887 C   0  0  1  0  0  0  0  0  0  0  0  0
  -22.6937  -31.5608   28.6215 C   0  0  2  0  0  0  0  0  0  0  0  0
  -31.0662  -26.1026   20.0353 C   0  0  0  0  0  0  0  0  0  0  0  0
  -26.0300  -31.0665   25.2393 C   0  0  0  0  0  0  0  0  0  0  0  0
  -26.8442  -15.1314   19.3470 N   0  0  0  0  0  0  0  0  0  0  0  0
  -27.1892  -22.7748   20.6025 N   0  0  0  0  0  0  0  0  0  0  0  0
  -27.0544  -15.8794   18.2505 N   0  0  0  0  0  0  0  0  0  0  0  0
  -23.0068  -30.2301   23.4999 N   0  0  0  0  0  0  0  0  0  0  0  0
  -28.8398  -18.8921   19.7734 N   0  0  0  0  0  0  0  0  0  0  0  0
  -26.4761  -16.0811   15.9623 N   0  0  0  0  0  0  0  0  0  0  0  0
  -24.1750  -12.4329   17.3009 N   0  0  0  0  0  0  0  0  0  0  0  0
  -27.1134  -20.4194   20.2729 N   0  0  0  0  0  0  0  0  0  0  0  0
  -22.9385  -30.4796   19.8627 N   0  0  0  0  0  0  0  0  0  0  0  0
  -23.8911  -31.4071   26.5480 N   0  0  0  0  0  0  0  0  0  0  0  0
  -21.4267  -30.9899   29.1596 N   0  3  0  0  0  0  0  0  0  0  0  0
  -24.6393  -13.7879   15.5101 O   0  0  0  0  0  0  0  0  0  0  0  0
  -24.4061  -29.6152   21.4506 O   0  0  0  0  0  0  0  0  0  0  0  0
  -23.7202  -32.4184   23.8728 O   0  0  0  0  0  0  0  0  0  0  0  0
  -23.1240  -29.4501   27.5272 O   0  0  0  0  0  0  0  0  0  0  0  0
  -29.3099  -21.1365   20.0659 O   0  0  0  0  0  0  0  0  0  0  0  0
  -24.1646  -10.2419   22.4229 O   0  0  0  0  0  0  0  0  0  0  0  0
  -20.8576  -24.4479   23.5031 O   0  0  0  0  0  0  0  0  0  1  0  0
  -24.1335   -5.0282   20.6281 F   0  0  0  0  0  0  0  0  0  0  0  0
  -25.6292   -8.2873   23.7179 F   0  0  0  0  0  0  0  0  0  0  0  0
  1  2  1  0  0  0  0
  1  5  2  0  0  0  0
  2  6  2  0  0  0  0
  3  8  2  0  0  0  0
  3 16  1  0  0  0  0
  4  9  1  0  0  0  0
  4 16  2  0  0  0  0
  5 18  1  0  0  0  0
  6 20  1  0  0  0  0
  7 10  2  0  0  0  0
  7 19  1  0  0  0  0
  8 24  1  0  0  0  0
  9 24  2  0  0  0  0
 10 25  1  0  0  0  0
 11 12  2  0  0  0  0
 11 26  1  0  0  0  0
 12 27  1  0  0  0  0
 13 21  1  0  0  0  0
 13 25  2  0  0  0  0
 14 22  1  0  0  0  0
 14 31  2  0  0  0  0
 15 27  2  0  0  0  0
 15 28  1  0  0  0  0
 16 29  1  0  0  0  0
 17 29  1  0  0  0  0
 17 32  2  0  0  0  0
 17 33  1  0  0  0  0
 18 20  2  0  0  0  0
 18 38  1  0  0  0  0
 19 21  2  0  0  0  0
 19 39  1  0  0  0  0
 20 47  1  0  0  0  0
 21 40  1  0  0  0  0
 22 23  2  0  0  0  0
 22 58  1  0  0  0  0
 23 30  1  0  0  0  0
 23 50  1  0  0  0  0
 24 85  1  0  0  0  0
 25 86  1  0  0  0  0
 26 28  2  0  0  0  0
 26 85  1  0  0  0  0
 27 87  1  0  0  0  0
 28 88  1  0  0  0  0
 29 69  2  0  0  0  0
 30 59  1  0  0  0  0
 30 70  2  0  0  0  0
 31 70  1  0  0  0  0
 31 76  1  0  0  0  0
 32 71  1  0  0  0  0
 32 74  1  0  0  0  0
 33 75  1  0  0  0  0
 33 80  2  0  0  0  0
 34 48  1  0  0  0  0
 34 77  1  0  0  0  0
 34 81  2  0  0  0  0
 35 65  1  0  0  0  0
 35 72  1  0  0  0  0
 35 82  2  0  0  0  0
 36 66  1  0  0  0  0
 36 78  1  0  0  0  0
 36 83  2  0  0  0  0
 37 73  1  0  0  0  0
 37 76  1  0  0  0  0
 37 84  2  0  0  0  0
 38 41  1  0  0  0  0
 39 48  1  0  0  0  0
 40 72  1  0  0  0  0
 41 43  1  0  0  0  0
 42 44  1  0  0  0  0
 42 45  1  0  0  0  0
 43 47  1  0  0  0  0
 44 49  1  0  0  0  0
 45 73  1  0  0  0  0
 46 49  1  0  0  0  0
 46 73  1  0  0  0  0
 47 77  1  0  0  0  0
 48 72  1  0  0  0  0
 49 71  1  0  0  0  0
 51 66  1  0  0  0  0
 52 67  1  0  0  0  0
 53 67  1  0  0  0  0
 54 68  1  0  0  0  0
 55 68  1  0  0  0  0
 56 68  1  0  0  0  0
 57 79  1  0  0  0  0
 58 60  1  0  0  0  0
 59 61  1  0  0  0  0
 60 62  1  0  0  0  0
 61 63  1  0  0  0  0
 62 64  1  0  0  0  0
 63 67  1  0  0  0  0
 64 86  1  0  0  0  0
 65 68  1  0  0  0  0
 65 78  1  0  0  0  0
 66 79  1  0  0  0  0
 69 71  1  0  0  0  0
M  CHG  1  79   1
M  ISO  4  37 100  64 101  76 100  86 101
M  END
> <Batch ID>
0091

> <Smiles>
CNC(C)C(=O)NC(C(=O)N1Cc2cc([101O:1][101CH2:1]CCCc3cc([100NH:0][100C:0](=O)N4CCCC(n5nc(-c6ccc(Oc7ccc(F)cc7F)cc6)c(C(N)=O)c5N)C4)nc(CCCC(C)C)c3C)ccc2CC1C(=O)NC1CCCc2ccccc21)C(C)(C)C

> <Shape>
0.245

> <Color>
0.061

> <Negative vol penalty>
0.000

$$$$

  -OEChem-04052319113D

 91 99  0     1  0  0  0  0  0999 V2000
  -27.5777  -36.1164   24.9798 C   0  0  0  0  0  0  0  0  0  0  0  0
  -27.6342  -34.7283   25.0540 C   0  0  0  0  0  0  0  0  0  0  0  0
  -24.1274  -11.2386   23.8622 C   0  0  0  0  0  0  0  0  0  0  0  0
  -24.0546  -13.6380   24.1353 C   0  0  0  0  0  0  0  0  0  0  0  0
  -26.4105  -36.7432   24.5454 C   0  0  0  0  0  0  0  0  0  0  0  0
  -26.5230  -33.9663   24.6950 C   0  0  0  0  0  0  0  0  0  0  0  0
  -27.7425  -30.0021   21.7893 C   0  0  0  0  0  0  0  0  0  0  0  0
  -23.6278  -11.0764   25.1543 C   0  0  0  0  0  0  0  0  0  0  0  0
  -23.5549  -13.4758   25.4274 C   0  0  0  0  0  0  0  0  0  0  0  0
  -28.2903  -28.8898   22.4270 C   0  0  0  0  0  0  0  0  0  0  0  0
  -24.7677  -12.7137   28.4900 C   0  0  0  0  0  0  0  0  0  0  0  0
  -25.3254  -13.4935   29.5031 C   0  0  0  0  0  0  0  0  0  0  0  0
  -26.1380  -27.8022   22.3654 C   0  0  0  0  0  0  0  0  0  0  0  0
  -27.8526  -19.6944   23.6318 C   0  0  0  0  0  0  0  0  0  0  0  0
  -27.5558  -18.0186   21.9323 C   0  0  0  0  0  0  0  0  0  0  0  0
  -23.1600  -14.4704   29.9433 C   0  0  0  0  0  0  0  0  0  0  0  0
  -24.3408  -12.5195   23.3526 C   0  0  0  0  0  0  0  0  0  0  0  0
  -24.1153  -12.8010   20.8273 C   0  0  0  0  0  0  0  0  0  0  0  0
  -25.2877  -35.9881   24.1717 C   0  0  0  0  0  0  0  0  0  0  0  0
  -26.3836  -30.0272   21.4441 C   0  0  0  0  0  0  0  0  0  0  0  0
  -25.3392  -34.5836   24.2565 C   0  0  0  0  0  0  0  0  0  0  0  0
  -25.5760  -28.9149   21.7211 C   0  0  0  0  0  0  0  0  0  0  0  0
  -27.3941  -18.4392   23.2478 C   0  0  0  0  0  0  0  0  0  0  0  0
  -23.3415  -12.1949   25.9369 C   0  0  0  0  0  0  0  0  0  0  0  0
  -27.4873  -27.7908   22.7177 C   0  0  0  0  0  0  0  0  0  0  0  0
  -23.4061  -12.8123   28.2034 C   0  0  0  0  0  0  0  0  0  0  0  0
  -24.5216  -14.3718   30.2298 C   0  0  0  0  0  0  0  0  0  0  0  0
  -22.6023  -13.6907   28.9301 C   0  0  0  0  0  0  0  0  0  0  0  0
  -24.8574  -12.6878   22.0181 C   0  0  0  0  0  0  0  0  0  0  0  0
  -28.4610  -20.4848   22.6701 C   0  0  0  0  0  0  0  0  0  0  0  0
  -28.1773  -18.8841   21.0467 C   0  0  0  0  0  0  0  0  0  0  0  0
  -25.0636  -12.9426   19.8438 C   0  0  0  0  0  0  0  0  0  0  0  0
  -22.6956  -12.7802   20.6278 C   0  0  0  0  0  0  0  0  0  0  0  0
  -23.8971  -31.8352   22.2516 C   0  0  0  0  0  0  0  0  0  0  0  0
  -22.3858  -30.0928   19.9708 C   0  0  0  0  0  0  0  0  0  0  0  0
  -22.2357  -27.2079   18.1537 C   0  0  0  0  0  0  0  0  0  0  0  0
  -30.6963  -14.9732   19.8731 C   0  0  0  0  0  0  0  0  0  0  0  0
  -24.0324  -36.7121   23.7535 C   0  0  0  0  0  0  0  0  0  0  0  0
  -25.8141  -31.2238   20.7326 C   0  0  0  0  0  0  0  0  0  0  0  0
  -24.1159  -28.8838   21.3530 C   0  0  0  0  0  0  0  0  0  0  0  0
  -23.0249  -35.8187   23.0345 C   0  0  0  0  0  0  0  0  0  0  0  0
  -29.5825  -11.7654   18.8024 C   0  0  0  0  0  0  0  0  0  0  0  0
  -22.8455  -34.5037   23.7864 C   0  0  0  0  0  0  0  0  0  0  0  0
  -28.1783  -11.6483   19.3976 C   0  0  0  0  0  0  0  0  0  0  0  0
  -30.5335  -12.5049   19.7409 C   0  0  0  0  0  0  0  0  0  0  0  0
  -28.6537  -13.7102   20.7838 C   0  0  0  0  0  0  0  0  0  0  0  0
  -24.1630  -33.7216   23.8521 C   0  0  1  0  0  0  0  0  0  0  0  0
  -24.3017  -31.3480   20.8890 C   0  0  1  0  0  0  0  0  0  0  0  0
  -27.6445  -13.0209   19.8495 C   0  0  2  0  0  0  0  0  0  0  0  0
  -27.5382  -19.3758   18.6875 C   0  0  0  0  0  0  0  0  0  0  0  0
  -20.8658  -26.0573   16.3939 C   0  0  0  0  0  0  0  0  0  0  0  0
  -28.1992  -14.8595   26.6813 C   0  0  0  0  0  0  0  0  0  0  0  0
  -26.3582  -16.5008   27.1024 C   0  0  0  0  0  0  0  0  0  0  0  0
  -30.0510  -18.0226   17.7043 C   0  0  0  0  0  0  0  0  0  0  0  0
  -20.2600  -29.4357   22.0587 C   0  0  0  0  0  0  0  0  0  0  0  0
  -19.4759  -27.5782   20.5744 C   0  0  0  0  0  0  0  0  0  0  0  0
  -19.3628  -29.9400   19.7794 C   0  0  0  0  0  0  0  0  0  0  0  0
  -24.5191  -27.1131   16.2733 C   0  0  0  0  0  0  0  0  0  0  0  0
  -26.7326  -17.5471   24.2429 C   0  0  0  0  0  0  0  0  0  0  0  0
  -28.9721  -21.8515   23.0507 C   0  0  0  0  0  0  0  0  0  0  0  0
  -27.7439  -16.6369   24.9646 C   0  0  0  0  0  0  0  0  0  0  0  0
  -27.9385  -22.9697   22.8762 C   0  0  0  0  0  0  0  0  0  0  0  0
  -28.4983  -24.3572   23.1932 C   0  0  0  0  0  0  0  0  0  0  0  0
  -30.7073  -17.4474   20.0655 C   0  0  0  0  0  0  0  0  0  0  0  0
  -27.4338  -25.4361   23.0475 C   0  0  0  0  0  0  0  0  0  1  0  0
  -28.3658  -18.4662   19.6266 C   0  0  1  0  0  0  0  0  0  0  0  0
  -21.6113  -28.7971   19.9534 C   0  0  1  0  0  0  0  0  0  0  0  0
  -22.0571  -26.9625   16.6663 C   0  0  2  0  0  0  0  0  0  0  0  0
  -27.1134  -15.7178   26.0274 C   0  0  0  0  0  0  0  0  0  0  0  0
  -29.8740  -18.4003   19.1829 C   0  0  2  0  0  0  0  0  0  0  0  0
  -20.2045  -28.9388   20.6003 C   0  0  0  0  0  0  0  0  0  0  0  0
  -26.1756  -12.7517   21.8123 N   0  0  0  0  0  0  0  0  0  0  0  0
  -28.6359  -20.1107   21.3829 N   0  0  0  0  0  0  0  0  0  0  0  0
  -26.2692  -12.9066   20.4806 N   0  0  0  0  0  0  0  0  0  0  0  0
  -23.6042  -30.0802   20.6644 N   0  0  0  0  0  0  0  0  0  0  0  0
  -29.9691  -13.7993   20.1305 N   0  0  0  0  0  0  0  0  0  0  0  0
  -24.9755  -13.0930   18.5052 N   0  0  0  0  0  0  0  0  0  0  0  0
  -21.8659  -12.6268   21.7470 N   0  0  0  0  0  0  0  0  0  0  0  0
  -24.4255  -33.0668   22.5885 N   0  0  0  0  0  0  0  0  0  0  0  0
  -21.5880  -28.3541   18.5636 N   0  0  0  0  0  0  0  0  0  0  0  0
  -30.0864  -16.1575   20.2684 N   0  0  0  0  0  0  0  0  0  0  0  0
  -23.2754  -26.3199   16.0974 N   0  3  0  0  0  0  0  0  0  0  0  0
  -22.1787  -12.8776   19.4891 O   0  0  0  0  0  0  0  0  0  0  0  0
  -23.1590  -31.1456   22.9453 O   0  0  0  0  0  0  0  0  0  0  0  0
  -21.9300  -31.0777   19.3844 O   0  0  0  0  0  0  0  0  0  0  0  0
  -22.8819  -26.4559   18.8800 O   0  0  0  0  0  0  0  0  0  0  0  0
  -31.8044  -14.9667   19.3263 O   0  0  0  0  0  0  0  0  0  0  0  0
  -22.8538  -12.0369   27.1978 O   0  0  0  0  0  0  0  0  0  0  0  0
  -28.0193  -26.7041   23.3406 O   0  0  0  0  0  0  0  0  0  1  0  0
  -25.0570  -15.1195   31.2037 F   0  0  0  0  0  0  0  0  0  0  0  0
  -21.2934  -13.7889   28.6601 F   0  0  0  0  0  0  0  0  0  0  0  0
  1  2  1  0  0  0  0
  1  5  2  0  0  0  0
  2  6  2  0  0  0  0
  3  8  2  0  0  0  0
  3 17  1  0  0  0  0
  4  9  1  0  0  0  0
  4 17  2  0  0  0  0
  5 19  1  0  0  0  0
  6 21  1  0  0  0  0
  7 10  2  0  0  0  0
  7 20  1  0  0  0  0
  8 24  1  0  0  0  0
  9 24  2  0  0  0  0
 10 25  1  0  0  0  0
 11 12  2  0  0  0  0
 11 26  1  0  0  0  0
 12 27  1  0  0  0  0
 13 22  1  0  0  0  0
 13 25  2  0  0  0  0
 14 23  2  0  0  0  0
 14 30  1  0  0  0  0
 15 23  1  0  0  0  0
 15 31  2  0  0  0  0
 16 27  2  0  0  0  0
 16 28  1  0  0  0  0
 17 29  1  0  0  0  0
 18 29  1  0  0  0  0
 18 32  2  0  0  0  0
 18 33  1  0  0  0  0
 19 21  2  0  0  0  0
 19 38  1  0  0  0  0
 20 22  2  0  0  0  0
 20 39  1  0  0  0  0
 21 47  1  0  0  0  0
 22 40  1  0  0  0  0
 23 59  1  0  0  0  0
 24 88  1  0  0  0  0
 25 89  1  0  0  0  0
 26 28  2  0  0  0  0
 26 88  1  0  0  0  0
 27 90  1  0  0  0  0
 28 91  1  0  0  0  0
 29 72  2  0  0  0  0
 30 60  1  0  0  0  0
 30 73  2  0  0  0  0
 31 66  1  0  0  0  0
 31 73  1  0  0  0  0
 32 74  1  0  0  0  0
 32 77  1  0  0  0  0
 33 78  1  0  0  0  0
 33 83  2  0  0  0  0
 34 48  1  0  0  0  0
 34 79  1  0  0  0  0
 34 84  2  0  0  0  0
 35 67  1  0  0  0  0
 35 75  1  0  0  0  0
 35 85  2  0  0  0  0
 36 68  1  0  0  0  0
 36 80  1  0  0  0  0
 36 86  2  0  0  0  0
 37 76  1  0  0  0  0
 37 81  1  0  0  0  0
 37 87  2  0  0  0  0
 38 41  1  0  0  0  0
 39 48  1  0  0  0  0
 40 75  1  0  0  0  0
 41 43  1  0  0  0  0
 42 44  1  0  0  0  0
 42 45  1  0  0  0  0
 43 47  1  0  0  0  0
 44 49  1  0  0  0  0
 45 76  1  0  0  0  0
 46 49  1  0  0  0  0
 46 76  1  0  0  0  0
 47 79  1  0  0  0  0
 48 75  1  0  0  0  0
 49 74  1  0  0  0  0
 50 66  1  0  0  0  0
 51 68  1  0  0  0  0
 52 69  1  0  0  0  0
 53 69  1  0  0  0  0
 54 70  1  0  0  0  0
 55 71  1  0  0  0  0
 56 71  1  0  0  0  0
 57 71  1  0  0  0  0
 58 82  1  0  0  0  0
 59 61  1  0  0  0  0
 60 62  1  0  0  0  0
 61 69  1  0  0  0  0
 62 63  1  0  0  0  0
 63 65  1  0  0  0  0
 64 70  1  0  0  0  0
 64 81  1  0  0  0  0
 65 89  1  0  0  0  0
 66 70  1  0  0  0  0
 67 71  1  0  0  0  0
 67 80  1  0  0  0  0
 68 82  1  0  0  0  0
 72 74  1  0  0  0  0
M  CHG  1  82   1
M  ISO  4  37 100  65 101  81 100  89 101
M  END
> <Batch ID>
0091

> <Smiles>
CNC(C)C(=O)NC(C(=O)N1Cc2cc([101O:1][101CH2:1]CCCc3cc(CCC(C)C)cc(C(C)C(C)C[100NH:0][100C:0](=O)N4CCCC(n5nc(-c6ccc(Oc7ccc(F)cc7F)cc6)c(C(N)=O)c5N)C4)n3)ccc2CC1C(=O)NC1CCCc2ccccc21)C(C)(C)C

> <Shape>
0.245

> <Color>
0.084

> <Negative vol penalty>
0.000

$$$$

  -OEChem-04052319113D

 90 98  0     1  0  0  0  0  0999 V2000
  -28.8016  -11.6350   19.1529 C   0  0  0  0  0  0  0  0  0  0  0  0
  -28.6307  -12.8931   18.5843 C   0  0  0  0  0  0  0  0  0  0  0  0
  -19.7834  -28.9413   22.9702 C   0  0  0  0  0  0  0  0  0  0  0  0
  -19.9216  -26.5944   22.4137 C   0  0  0  0  0  0  0  0  0  0  0  0
  -27.7984  -11.0910   19.9538 C   0  0  0  0  0  0  0  0  0  0  0  0
  -27.4558  -13.6076   18.8156 C   0  0  0  0  0  0  0  0  0  0  0  0
  -28.3254  -18.4756   19.9070 C   0  0  0  0  0  0  0  0  0  0  0  0
  -18.4015  -28.9041   22.7844 C   0  0  0  0  0  0  0  0  0  0  0  0
  -18.5396  -26.5571   22.2279 C   0  0  0  0  0  0  0  0  0  0  0  0
  -28.6229  -19.3238   18.8413 C   0  0  0  0  0  0  0  0  0  0  0  0
  -16.2360  -28.9323   20.1894 C   0  0  0  0  0  0  0  0  0  0  0  0
  -15.6526  -29.9691   19.4614 C   0  0  0  0  0  0  0  0  0  0  0  0
  -26.3438  -20.1141   18.8419 C   0  0  0  0  0  0  0  0  0  0  0  0
  -29.5317  -23.7203   18.5096 C   0  0  0  0  0  0  0  0  0  0  0  0
  -14.2979  -30.5507   21.3755 C   0  0  0  0  0  0  0  0  0  0  0  0
  -31.1309  -24.5224   16.9425 C   0  0  0  0  0  0  0  0  0  0  0  0
  -20.5435  -27.7865   22.7848 C   0  0  0  0  0  0  0  0  0  0  0  0
  -22.6755  -27.5824   24.1707 C   0  0  0  0  0  0  0  0  0  0  0  0
  -26.6147  -11.8033   20.2029 C   0  0  0  0  0  0  0  0  0  0  0  0
  -27.0299  -18.4323   20.4420 C   0  0  0  0  0  0  0  0  0  0  0  0
  -26.4352  -13.0722   19.6195 C   0  0  0  0  0  0  0  0  0  0  0  0
  -26.0330  -19.2664   19.9161 C   0  0  0  0  0  0  0  0  0  0  0  0
  -29.9240  -23.8870   17.1861 C   0  0  0  0  0  0  0  0  0  0  0  0
  -30.3468  -24.1877   19.5345 C   0  0  0  0  0  0  0  0  0  0  0  0
  -17.7796  -27.7120   22.4133 C   0  0  0  0  0  0  0  0  0  0  0  0
  -27.6313  -20.1411   18.3066 C   0  0  0  0  0  0  0  0  0  0  0  0
  -15.8504  -28.7045   21.5104 C   0  0  0  0  0  0  0  0  0  0  0  0
  -14.6835  -30.7784   20.0544 C   0  0  0  0  0  0  0  0  0  0  0  0
  -14.8813  -29.5138   22.1035 C   0  0  0  0  0  0  0  0  0  0  0  0
  -21.9711  -27.8244   22.9761 C   0  0  0  0  0  0  0  0  0  0  0  0
  -31.5349  -24.8095   19.1858 C   0  0  0  0  0  0  0  0  0  0  0  0
  -23.9963  -27.7405   23.8285 C   0  0  0  0  0  0  0  0  0  0  0  0
  -22.1802  -27.2449   25.4731 C   0  0  0  0  0  0  0  0  0  0  0  0
  -24.7903  -16.1936   20.7168 C   0  0  0  0  0  0  0  0  0  0  0  0
  -23.2640  -18.4826   22.4353 C   0  0  0  0  0  0  0  0  0  0  0  0
  -22.8474  -21.8012   23.1136 C   0  0  0  0  0  0  0  0  0  0  0  0
  -28.2580  -26.8571   20.3352 C   0  0  0  0  0  0  0  0  0  0  0  0
  -25.5386  -11.1542   21.0367 C   0  0  0  0  0  0  0  0  0  0  0  0
  -26.7319  -17.5315   21.6091 C   0  0  0  0  0  0  0  0  0  0  0  0
  -24.6316  -19.2724   20.4677 C   0  0  0  0  0  0  0  0  0  0  0  0
  -24.4815  -12.1349   21.5378 C   0  0  0  0  0  0  0  0  0  0  0  0
  -26.1085  -29.6060   19.6279 C   0  0  0  0  0  0  0  0  0  0  0  0
  -24.0213  -13.0481   20.4059 C   0  0  0  0  0  0  0  0  0  0  0  0
  -24.8966  -29.3641   20.5295 C   0  0  0  0  0  0  0  0  0  0  0  0
  -26.6776  -28.2973   19.0843 C   0  0  0  0  0  0  0  0  0  0  0  0
  -25.7877  -27.0464   21.0122 C   0  0  0  0  0  0  0  0  0  0  0  0
  -25.1853  -13.8886   19.8672 C   0  0  1  0  0  0  0  0  0  0  0  0
  -25.2499  -17.1935   21.7398 C   0  0  1  0  0  0  0  0  0  0  0  0
  -25.2129  -28.3329   21.6294 C   0  0  2  0  0  0  0  0  0  0  0  0
  -21.5002  -23.3664   24.5393 C   0  0  0  0  0  0  0  0  0  0  0  0
  -30.9121  -23.1752   21.8480 C   0  0  0  0  0  0  0  0  0  0  0  0
  -28.5686  -23.2506   21.0370 C   0  0  0  0  0  0  0  0  0  0  0  0
  -33.1204  -27.3336   22.5018 C   0  0  0  0  0  0  0  0  0  0  0  0
  -33.9352  -28.9634   20.7927 C   0  0  0  0  0  0  0  0  0  0  0  0
  -35.0735  -26.7452   21.0596 C   0  0  0  0  0  0  0  0  0  0  0  0
  -20.8593  -18.0797   20.6009 C   0  0  0  0  0  0  0  0  0  0  0  0
  -19.9479  -20.2582   21.4327 C   0  0  0  0  0  0  0  0  0  0  0  0
  -20.2903  -18.3642   23.0196 C   0  0  0  0  0  0  0  0  0  0  0  0
  -25.2672  -22.8373   24.4663 C   0  0  0  0  0  0  0  0  0  0  0  0
  -29.0637  -23.3910   16.0515 C   0  0  0  0  0  0  0  0  0  0  0  0
  -32.4506  -25.3306   20.2448 C   0  0  0  0  0  0  0  0  0  0  0  0
  -29.3710  -21.9528   15.6286 C   0  0  0  0  0  0  0  0  0  0  0  0
  -32.7220  -26.8377   20.0788 C   0  0  0  0  0  0  0  0  0  0  0  0
  -29.7211  -25.3844   21.6952 C   0  0  0  0  0  0  0  0  0  0  0  0
  -29.2572  -20.9501   16.7710 C   0  0  0  0  0  0  0  0  0  1  0  0
  -22.3008  -19.5989   22.1110 C   0  0  1  0  0  0  0  0  0  0  0  0
  -22.7852  -22.5609   24.4264 C   0  0  2  0  0  0  0  0  0  0  0  0
  -29.9316  -24.0140   20.9547 C   0  0  0  0  0  0  0  0  0  0  0  0
  -33.7181  -27.4702   21.0874 C   0  0  0  0  0  0  0  0  0  0  0  0
  -20.8754  -19.0739   21.7792 C   0  0  0  0  0  0  0  0  0  0  0  0
  -31.9494  -24.9897   17.9117 N   0  0  0  0  0  0  0  0  0  0  0  0
  -22.7776  -28.1143   21.9516 N   0  0  0  0  0  0  0  0  0  0  0  0
  -24.0024  -28.0556   22.5015 N   0  0  0  0  0  0  0  0  0  0  0  0
  -24.3880  -18.3695   21.6048 N   0  0  0  0  0  0  0  0  0  0  0  0
  -26.9574  -27.3639   20.1781 N   0  0  0  0  0  0  0  0  0  0  0  0
  -25.1413  -27.6393   24.5363 N   0  0  0  0  0  0  0  0  0  0  0  0
  -20.7953  -27.1221   25.6502 N   0  0  0  0  0  0  0  0  0  0  0  0
  -25.4690  -14.9907   20.7612 N   0  0  0  0  0  0  0  0  0  0  0  0
  -22.3500  -20.5214   23.2401 N   0  0  0  0  0  0  0  0  0  0  0  0
  -28.4385  -25.9835   21.4006 N   0  0  0  0  0  0  0  0  0  0  0  0
  -23.9386  -23.4980   24.5378 N   0  3  0  0  0  0  0  0  0  0  0  0
  -22.9422  -27.0738   26.4548 O   0  0  0  0  0  0  0  0  0  0  0  0
  -23.8857  -16.4907   19.9454 O   0  0  0  0  0  0  0  0  0  0  0  0
  -23.0315  -17.7429   23.3947 O   0  0  0  0  0  0  0  0  0  0  0  0
  -23.2893  -22.2950   22.0786 O   0  0  0  0  0  0  0  0  0  0  0  0
  -29.1905  -27.1648   19.5851 O   0  0  0  0  0  0  0  0  0  0  0  0
  -16.4311  -27.6752   22.2321 O   0  0  0  0  0  0  0  0  0  0  0  0
  -27.9189  -20.9694   17.2659 O   0  0  0  0  0  0  0  0  0  1  0  0
  -14.1244  -31.7751   19.3557 F   0  0  0  0  0  0  0  0  0  0  0  0
  -14.5076  -29.3006   23.3726 F   0  0  0  0  0  0  0  0  0  0  0  0
  1  2  1  0  0  0  0
  1  5  2  0  0  0  0
  2  6  2  0  0  0  0
  3  8  2  0  0  0  0
  3 17  1  0  0  0  0
  4  9  1  0  0  0  0
  4 17  2  0  0  0  0
  5 19  1  0  0  0  0
  6 21  1  0  0  0  0
  7 10  2  0  0  0  0
  7 20  1  0  0  0  0
  8 25  1  0  0  0  0
  9 25  2  0  0  0  0
 10 26  1  0  0  0  0
 11 12  2  0  0  0  0
 11 27  1  0  0  0  0
 12 28  1  0  0  0  0
 13 22  1  0  0  0  0
 13 26  2  0  0  0  0
 14 23  2  0  0  0  0
 14 24  1  0  0  0  0
 15 28  2  0  0  0  0
 15 29  1  0  0  0  0
 16 23  1  0  0  0  0
 16 71  2  0  0  0  0
 17 30  1  0  0  0  0
 18 30  1  0  0  0  0
 18 32  2  0  0  0  0
 18 33  1  0  0  0  0
 19 21  2  0  0  0  0
 19 38  1  0  0  0  0
 20 22  2  0  0  0  0
 20 39  1  0  0  0  0
 21 47  1  0  0  0  0
 22 40  1  0  0  0  0
 23 60  1  0  0  0  0
 24 31  2  0  0  0  0
 24 68  1  0  0  0  0
 25 87  1  0  0  0  0
 26 88  1  0  0  0  0
 27 29  2  0  0  0  0
 27 87  1  0  0  0  0
 28 89  1  0  0  0  0
 29 90  1  0  0  0  0
 30 72  2  0  0  0  0
 31 61  1  0  0  0  0
 31 71  1  0  0  0  0
 32 73  1  0  0  0  0
 32 76  1  0  0  0  0
 33 77  1  0  0  0  0
 33 82  2  0  0  0  0
 34 48  1  0  0  0  0
 34 78  1  0  0  0  0
 34 83  2  0  0  0  0
 35 66  1  0  0  0  0
 35 74  1  0  0  0  0
 35 84  2  0  0  0  0
 36 67  1  0  0  0  0
 36 79  1  0  0  0  0
 36 85  2  0  0  0  0
 37 75  1  0  0  0  0
 37 80  1  0  0  0  0
 37 86  2  0  0  0  0
 38 41  1  0  0  0  0
 39 48  1  0  0  0  0
 40 74  1  0  0  0  0
 41 43  1  0  0  0  0
 42 44  1  0  0  0  0
 42 45  1  0  0  0  0
 43 47  1  0  0  0  0
 44 49  1  0  0  0  0
 45 75  1  0  0  0  0
 46 49  1  0  0  0  0
 46 75  1  0  0  0  0
 47 78  1  0  0  0  0
 48 74  1  0  0  0  0
 49 73  1  0  0  0  0
 50 67  1  0  0  0  0
 51 68  1  0  0  0  0
 52 68  1  0  0  0  0
 53 69  1  0  0  0  0
 54 69  1  0  0  0  0
 55 69  1  0  0  0  0
 56 70  1  0  0  0  0
 57 70  1  0  0  0  0
 58 70  1  0  0  0  0
 59 81  1  0  0  0  0
 60 62  1  0  0  0  0
 61 63  1  0  0  0  0
 62 65  1  0  0  0  0
 63 69  1  0  0  0  0
 64 68  1  0  0  0  0
 64 80  1  0  0  0  0
 65 88  1  0  0  0  0
 66 70  1  0  0  0  0
 66 79  1  0  0  0  0
 67 81  1  0  0  0  0
 72 73  1  0  0  0  0
M  CHG  1  81   1
M  ISO  4  37 100  65 101  80 100  88 101
M  END
> <Batch ID>
0091

> <Smiles>
CNC(C)C(=O)NC(C(=O)N1Cc2cc([101O:1][101CH2:1]CCc3cnc(CCC(C)(C)C)c(C(C)(C)C[100NH:0][100C:0](=O)N4CCCC(n5nc(-c6ccc(Oc7ccc(F)cc7F)cc6)c(C(N)=O)c5N)C4)c3)ccc2CC1C(=O)NC1CCCc2ccccc21)C(C)(C)C

> <Shape>
0.227

> <Color>
0.081

> <Negative vol penalty>
0.000

$$$$

  -OEChem-04052319113D

 89 97  0     1  0  0  0  0  0999 V2000
  -17.2441  -30.6091   23.4861 C   0  0  0  0  0  0  0  0  0  0  0  0
  -18.5356  -30.6320   24.0027 C   0  0  0  0  0  0  0  0  0  0  0  0
  -26.9252  -13.3763   21.2677 C   0  0  0  0  0  0  0  0  0  0  0  0
  -26.8172  -13.5834   18.8630 C   0  0  0  0  0  0  0  0  0  0  0  0
  -16.7591  -29.4533   22.8755 C   0  0  0  0  0  0  0  0  0  0  0  0
  -19.3426  -29.4986   23.9100 C   0  0  0  0  0  0  0  0  0  0  0  0
  -26.2004  -27.5755   23.1425 C   0  0  0  0  0  0  0  0  0  0  0  0
  -26.1413  -12.2244   21.2037 C   0  0  0  0  0  0  0  0  0  0  0  0
  -26.0333  -12.4315   18.7990 C   0  0  0  0  0  0  0  0  0  0  0  0
  -27.1640  -26.7624   23.7375 C   0  0  0  0  0  0  0  0  0  0  0  0
  -22.8706  -11.4551   20.8357 C   0  0  0  0  0  0  0  0  0  0  0  0
  -21.8237  -11.3330   21.7493 C   0  0  0  0  0  0  0  0  0  0  0  0
  -26.2479  -24.8479   22.5909 C   0  0  0  0  0  0  0  0  0  0  0  0
  -31.4336  -23.6184   20.9000 C   0  0  0  0  0  0  0  0  0  0  0  0
  -22.8184   -9.3103   22.6188 C   0  0  0  0  0  0  0  0  0  0  0  0
  -30.6372  -25.8157   21.2820 C   0  0  0  0  0  0  0  0  0  0  0  0
  -27.2631  -14.0559   20.0973 C   0  0  0  0  0  0  0  0  0  0  0  0
  -29.4770  -15.3234   20.1061 C   0  0  0  0  0  0  0  0  0  0  0  0
  -17.5639  -28.3083   22.7667 C   0  0  0  0  0  0  0  0  0  0  0  0
  -25.2448  -27.0282   22.2743 C   0  0  0  0  0  0  0  0  0  0  0  0
  -18.8674  -28.3259   23.2986 C   0  0  0  0  0  0  0  0  0  0  0  0
  -25.2747  -25.6566   21.9842 C   0  0  0  0  0  0  0  0  0  0  0  0
  -31.0103  -24.5883   21.7916 C   0  0  0  0  0  0  0  0  0  0  0  0
  -25.6953  -11.7519   19.9694 C   0  0  0  0  0  0  0  0  0  0  0  0
  -27.1861  -25.3979   23.4640 C   0  0  0  0  0  0  0  0  0  0  0  0
  -23.8914  -10.5047   20.8136 C   0  0  0  0  0  0  0  0  0  0  0  0
  -21.7976  -10.2606   22.6408 C   0  0  0  0  0  0  0  0  0  0  0  0
  -23.8653   -9.4323   21.7052 C   0  0  0  0  0  0  0  0  0  0  0  0
  -28.0725  -15.2462   20.1628 C   0  0  0  0  0  0  0  0  0  0  0  0
  -31.4554  -23.9400   19.5577 C   0  0  0  0  0  0  0  0  0  0  0  0
  -29.7515  -16.6653   20.2085 C   0  0  0  0  0  0  0  0  0  0  0  0
  -30.4468  -14.2758   19.9728 C   0  0  0  0  0  0  0  0  0  0  0  0
  -22.0748  -26.7954   22.2869 C   0  0  0  0  0  0  0  0  0  0  0  0
  -22.5405  -25.5927   19.3105 C   0  0  0  0  0  0  0  0  0  0  0  0
  -24.6360  -24.0435   17.1069 C   0  0  0  0  0  0  0  0  0  0  0  0
  -28.7215  -21.9652   18.7958 C   0  0  0  0  0  0  0  0  0  0  0  0
  -16.9794  -27.0670   22.1403 C   0  0  0  0  0  0  0  0  0  0  0  0
  -24.2285  -27.9232   21.6197 C   0  0  0  0  0  0  0  0  0  0  0  0
  -24.2838  -25.0233   21.0433 C   0  0  0  0  0  0  0  0  0  0  0  0
  -18.0292  -26.0302   21.7488 C   0  0  0  0  0  0  0  0  0  0  0  0
  -26.7509  -20.5575   21.4058 C   0  0  0  0  0  0  0  0  0  0  0  0
  -19.0274  -25.8262   22.8841 C   0  0  0  0  0  0  0  0  0  0  0  0
  -27.0301  -19.0568   21.3062 C   0  0  0  0  0  0  0  0  0  0  0  0
  -26.7077  -21.2162   20.0287 C   0  0  0  0  0  0  0  0  0  0  0  0
  -28.1746  -19.4729   19.0891 C   0  0  0  0  0  0  0  0  0  0  0  0
  -19.7818  -27.1245   23.1952 C   0  0  1  0  0  0  0  0  0  0  0  0
  -22.9848  -27.1734   21.1526 C   0  0  1  0  0  0  0  0  0  0  0  0
  -28.2831  -18.7748   20.4556 C   0  0  2  0  0  0  0  0  0  0  0  0
  -32.3643  -24.0320   23.8281 C   0  0  0  0  0  0  0  0  0  0  0  0
  -24.7218  -23.1573   14.7607 C   0  0  0  0  0  0  0  0  0  0  0  0
  -36.7224  -25.2852   19.6893 C   0  0  0  0  0  0  0  0  0  0  0  0
  -38.0929  -24.4361   17.7761 C   0  0  0  0  0  0  0  0  0  0  0  0
  -20.8974  -23.1690   20.1686 C   0  0  0  0  0  0  0  0  0  0  0  0
  -21.8022  -21.9403   18.1837 C   0  0  0  0  0  0  0  0  0  0  0  0
  -20.4173  -23.9889   17.8552 C   0  0  0  0  0  0  0  0  0  0  0  0
  -26.8211  -25.8960   16.3633 C   0  0  0  0  0  0  0  0  0  0  0  0
  -34.3962  -23.5561   18.6570 C   0  0  0  0  0  0  0  0  0  0  0  0
  -33.1679  -23.3648   17.7568 C   0  0  0  0  0  0  0  0  0  0  0  0
  -35.6360  -23.9145   17.8308 C   0  0  0  0  0  0  0  0  0  0  0  0
  -30.0031  -23.1592   23.6520 C   0  0  0  0  0  0  0  0  0  0  0  0
  -30.7828  -22.5586   17.5476 C   0  0  0  0  0  0  0  0  0  0  0  0
  -28.5453  -23.4525   23.3099 C   0  0  0  0  0  0  0  0  0  1  0  0
  -30.9580  -24.3114   23.2842 C   0  0  2  0  0  0  0  0  0  0  0  0
  -31.9024  -22.9312   18.5561 C   0  0  2  0  0  0  0  0  0  0  0  0
  -22.7753  -24.2154   18.7386 C   0  0  1  0  0  0  0  0  0  0  0  0
  -24.9863  -24.3529   15.6626 C   0  0  2  0  0  0  0  0  0  0  0  0
  -36.8964  -24.1446   18.6853 C   0  0  0  0  0  0  0  0  0  0  0  0
  -21.4907  -23.3397   18.7558 C   0  0  0  0  0  0  0  0  0  0  0  0
  -30.6686  -26.1029   19.9633 N   0  0  0  0  0  0  0  0  0  0  0  0
  -27.4950  -16.4437   20.2914 N   0  0  0  0  0  0  0  0  0  0  0  0
  -31.0843  -25.1494   19.0870 N   0  0  0  0  0  0  0  0  0  0  0  0
  -28.5418  -17.2860   20.3165 N   0  0  0  0  0  0  0  0  0  0  0  0
  -23.3058  -25.9391   20.4331 N   0  0  0  0  0  0  0  0  0  0  0  0
  -27.9255  -20.9112   19.2738 N   0  0  0  0  0  0  0  0  0  0  0  0
  -30.9071  -17.3630   20.2160 N   0  0  0  0  0  0  0  0  0  0  0  0
  -29.9929  -12.9530   19.8800 N   0  0  0  0  0  0  0  0  0  0  0  0
  -20.8149  -27.3576   22.2088 N   0  0  0  0  0  0  0  0  0  0  0  0
  -23.3437  -24.4165   17.4101 N   0  0  0  0  0  0  0  0  0  0  0  0
  -29.8612  -21.5886   18.0957 N   0  0  0  0  0  0  0  0  0  0  0  0
  -26.4259  -24.7201   15.5459 N   0  3  0  0  0  0  0  0  0  0  0  0
  -31.6800  -14.5046   19.9535 O   0  0  0  0  0  0  0  0  0  0  0  0
  -22.4848  -26.0477   23.1670 O   0  0  0  0  0  0  0  0  0  0  0  0
  -21.7140  -26.3364   18.7764 O   0  0  0  0  0  0  0  0  0  0  0  0
  -25.4283  -23.5198   17.8870 O   0  0  0  0  0  0  0  0  0  0  0  0
  -28.4404  -23.1537   18.9839 O   0  0  0  0  0  0  0  0  0  0  0  0
  -24.9305  -10.6278   19.9066 O   0  0  0  0  0  0  0  0  0  0  0  0
  -28.1252  -24.6019   24.0439 O   0  0  0  0  0  0  0  0  0  1  0  0
  -20.7929  -10.1444   23.5191 F   0  0  0  0  0  0  0  0  0  0  0  0
  -24.8438   -8.5168   21.6895 F   0  0  0  0  0  0  0  0  0  0  0  0
  1  2  1  0  0  0  0
  1  5  2  0  0  0  0
  2  6  2  0  0  0  0
  3  8  2  0  0  0  0
  3 17  1  0  0  0  0
  4  9  1  0  0  0  0
  4 17  2  0  0  0  0
  5 19  1  0  0  0  0
  6 21  1  0  0  0  0
  7 10  2  0  0  0  0
  7 20  1  0  0  0  0
  8 24  1  0  0  0  0
  9 24  2  0  0  0  0
 10 25  1  0  0  0  0
 11 12  2  0  0  0  0
 11 26  1  0  0  0  0
 12 27  1  0  0  0  0
 13 22  1  0  0  0  0
 13 25  2  0  0  0  0
 14 23  2  0  0  0  0
 14 30  1  0  0  0  0
 15 27  2  0  0  0  0
 15 28  1  0  0  0  0
 16 23  1  0  0  0  0
 16 69  2  0  0  0  0
 17 29  1  0  0  0  0
 18 29  1  0  0  0  0
 18 31  2  0  0  0  0
 18 32  1  0  0  0  0
 19 21  2  0  0  0  0
 19 37  1  0  0  0  0
 20 22  2  0  0  0  0
 20 38  1  0  0  0  0
 21 46  1  0  0  0  0
 22 39  1  0  0  0  0
 23 63  1  0  0  0  0
 24 86  1  0  0  0  0
 25 87  1  0  0  0  0
 26 28  2  0  0  0  0
 26 86  1  0  0  0  0
 27 88  1  0  0  0  0
 28 89  1  0  0  0  0
 29 70  2  0  0  0  0
 30 64  1  0  0  0  0
 30 71  2  0  0  0  0
 31 72  1  0  0  0  0
 31 75  1  0  0  0  0
 32 76  1  0  0  0  0
 32 81  2  0  0  0  0
 33 47  1  0  0  0  0
 33 77  1  0  0  0  0
 33 82  2  0  0  0  0
 34 65  1  0  0  0  0
 34 73  1  0  0  0  0
 34 83  2  0  0  0  0
 35 66  1  0  0  0  0
 35 78  1  0  0  0  0
 35 84  2  0  0  0  0
 36 74  1  0  0  0  0
 36 79  1  0  0  0  0
 36 85  2  0  0  0  0
 37 40  1  0  0  0  0
 38 47  1  0  0  0  0
 39 73  1  0  0  0  0
 40 42  1  0  0  0  0
 41 43  1  0  0  0  0
 41 44  1  0  0  0  0
 42 46  1  0  0  0  0
 43 48  1  0  0  0  0
 44 74  1  0  0  0  0
 45 48  1  0  0  0  0
 45 74  1  0  0  0  0
 46 77  1  0  0  0  0
 47 73  1  0  0  0  0
 48 72  1  0  0  0  0
 49 63  1  0  0  0  0
 50 66  1  0  0  0  0
 51 67  1  0  0  0  0
 52 67  1  0  0  0  0
 53 68  1  0  0  0  0
 54 68  1  0  0  0  0
 55 68  1  0  0  0  0
 56 80  1  0  0  0  0
 57 58  1  0  0  0  0
 57 59  1  0  0  0  0
 58 64  1  0  0  0  0
 59 67  1  0  0  0  0
 60 62  1  0  0  0  0
 60 63  1  0  0  0  0
 61 64  1  0  0  0  0
 61 79  1  0  0  0  0
 62 87  1  0  0  0  0
 65 68  1  0  0  0  0
 65 78  1  0  0  0  0
 66 80  1  0  0  0  0
 69 71  1  0  0  0  0
 70 72  1  0  0  0  0
M  CHG  1  80   1
M  ISO  4  36 100  62 101  79 100  87 101
M  END
> <Batch ID>
0091

> <Smiles>
CNC(C)C(=O)NC(C(=O)N1Cc2cc([101O:1][101CH2:1]CC(C)c3cnnc(C(CCCC(C)C)C[100NH:0][100C:0](=O)N4CCCC(n5nc(-c6ccc(Oc7ccc(F)cc7F)cc6)c(C(N)=O)c5N)C4)c3)ccc2CC1C(=O)NC1CCCc2ccccc21)C(C)(C)C

> <Shape>
0.226

> <Color>
0.094

> <Negative vol penalty>
0.000

$$$$

  -OEChem-04052319113D

 86 94  0     1  0  0  0  0  0999 V2000
  -23.5062  -21.2638   18.5639 C   0  0  0  0  0  0  0  0  0  0  0  0
  -24.6881  -21.9942   18.4941 C   0  0  0  0  0  0  0  0  0  0  0  0
  -26.1592  -12.8173   21.3903 C   0  0  0  0  0  0  0  0  0  0  0  0
  -26.0238  -13.2038   19.0093 C   0  0  0  0  0  0  0  0  0  0  0  0
  -22.2850  -21.8910   18.3205 C   0  0  0  0  0  0  0  0  0  0  0  0
  -24.6497  -23.3522   18.1797 C   0  0  0  0  0  0  0  0  0  0  0  0
  -27.6439  -26.1257   21.1776 C   0  0  0  0  0  0  0  0  0  0  0  0
  -24.9872  -12.0631   21.3346 C   0  0  0  0  0  0  0  0  0  0  0  0
  -24.8518  -12.4495   18.9535 C   0  0  0  0  0  0  0  0  0  0  0  0
  -29.0109  -26.1084   20.9039 C   0  0  0  0  0  0  0  0  0  0  0  0
  -24.0783   -8.9361   20.4241 C   0  0  0  0  0  0  0  0  0  0  0  0
  -24.0543   -7.7237   21.1133 C   0  0  0  0  0  0  0  0  0  0  0  0
  -28.8047  -28.2281   19.7711 C   0  0  0  0  0  0  0  0  0  0  0  0
  -22.2044   -8.5191   22.4482 C   0  0  0  0  0  0  0  0  0  0  0  0
  -31.6246  -24.1691   16.3669 C   0  0  0  0  0  0  0  0  0  0  0  0
  -26.6775  -13.3877   20.2277 C   0  0  0  0  0  0  0  0  0  0  0  0
  -29.2075  -13.7010   20.1337 C   0  0  0  0  0  0  0  0  0  0  0  0
  -22.2308  -23.2596   18.0125 C   0  0  0  0  0  0  0  0  0  0  0  0
  -26.8438  -27.1908   20.7399 C   0  0  0  0  0  0  0  0  0  0  0  0
  -23.4268  -23.9980   17.9307 C   0  0  0  0  0  0  0  0  0  0  0  0
  -27.4283  -28.2578   20.0427 C   0  0  0  0  0  0  0  0  0  0  0  0
  -31.3146  -25.4699   16.6973 C   0  0  0  0  0  0  0  0  0  0  0  0
  -29.9813  -25.7060   16.2805 C   0  0  0  0  0  0  0  0  0  0  0  0
  -24.3335  -11.8791   20.1162 C   0  0  0  0  0  0  0  0  0  0  0  0
  -29.5909  -27.1583   20.1980 C   0  0  0  0  0  0  0  0  0  0  0  0
  -23.1654   -9.9401   20.7470 C   0  0  0  0  0  0  0  0  0  0  0  0
  -23.1174   -7.5151   22.1253 C   0  0  0  0  0  0  0  0  0  0  0  0
  -22.2284   -9.7316   21.7590 C   0  0  0  0  0  0  0  0  0  0  0  0
  -27.8878  -14.1674   20.2847 C   0  0  0  0  0  0  0  0  0  0  0  0
  -29.5171  -24.5423   15.7083 C   0  0  0  0  0  0  0  0  0  0  0  0
  -29.9864  -14.8239   20.2709 C   0  0  0  0  0  0  0  0  0  0  0  0
  -29.6864  -12.3715   19.8912 C   0  0  0  0  0  0  0  0  0  0  0  0
  -24.3626  -27.4719   18.7730 C   0  0  0  0  0  0  0  0  0  0  0  0
  -24.3629  -30.5359   19.8379 C   0  0  0  0  0  0  0  0  0  0  0  0
  -26.1103  -33.1255   21.2117 C   0  0  0  0  0  0  0  0  0  0  0  0
  -28.9269  -20.6523   19.3998 C   0  0  0  0  0  0  0  0  0  0  0  0
  -20.8912  -23.8833   17.7108 C   0  0  0  0  0  0  0  0  0  0  0  0
  -25.3756  -27.2075   21.0665 C   0  0  0  0  0  0  0  0  0  0  0  0
  -26.6168  -29.4346   19.5685 C   0  0  0  0  0  0  0  0  0  0  0  0
  -20.9065  -25.4091   17.7521 C   0  0  0  0  0  0  0  0  0  0  0  0
  -30.0413  -19.1049   22.4065 C   0  0  0  0  0  0  0  0  0  0  0  0
  -22.1090  -25.9518   16.9863 C   0  0  0  0  0  0  0  0  0  0  0  0
  -29.7349  -17.6219   22.1901 C   0  0  0  0  0  0  0  0  0  0  0  0
  -28.9684  -19.9989   21.7889 C   0  0  0  0  0  0  0  0  0  0  0  0
  -28.3840  -18.2559   20.1475 C   0  0  0  0  0  0  0  0  0  0  0  0
  -23.4241  -25.4785   17.6170 C   0  0  1  0  0  0  0  0  0  0  0  0
  -24.5643  -28.0934   20.1260 C   0  0  1  0  0  0  0  0  0  0  0  0
  -29.4668  -17.3158   20.7042 C   0  0  2  0  0  0  0  0  0  0  0  0
  -29.2259  -26.9669   16.4307 C   0  0  0  0  0  0  0  0  0  0  0  0
  -28.2009  -24.2320   15.1110 C   0  0  0  0  0  0  0  0  0  0  0  0
  -33.4593  -26.7547   16.4987 C   0  0  0  0  0  0  0  0  0  0  0  0
  -25.8507  -35.5161   21.9292 C   0  0  0  0  0  0  0  0  0  0  0  0
  -30.6977  -19.8197   15.8556 C   0  0  0  0  0  0  0  0  0  0  0  0
  -24.4463  -31.4186   16.9183 C   0  0  0  0  0  0  0  0  0  0  0  0
  -25.1362  -33.6952   17.6989 C   0  0  0  0  0  0  0  0  0  0  0  0
  -22.9214  -32.7658   18.3724 C   0  0  0  0  0  0  0  0  0  0  0  0
  -26.7795  -32.4765   24.0207 C   0  0  0  0  0  0  0  0  0  0  0  0
  -32.6932  -25.9968   18.7805 C   0  0  0  0  0  0  0  0  0  0  0  0
  -30.4557  -22.2562   15.2751 C   0  0  0  0  0  0  0  0  0  0  0  0
  -28.8574  -21.1501   16.9695 C   0  0  0  0  0  0  0  0  0  0  0  0
  -31.5420  -25.8664   19.7734 C   0  0  0  0  0  0  0  0  0  1  0  0
  -32.2410  -26.4599   17.3820 C   0  0  2  0  0  0  0  0  0  0  0  0
  -25.0276  -31.8192   19.4018 C   0  0  1  0  0  0  0  0  0  0  0  0
  -25.7871  -34.0601   22.3635 C   0  0  2  0  0  0  0  0  0  0  0  0
  -30.2787  -21.1964   16.3838 C   0  0  1  0  0  0  0  0  0  0  0  0
  -24.3981  -32.4018   18.1050 C   0  0  0  0  0  0  0  0  0  0  0  0
  -27.8279  -15.4841   20.5013 N   0  0  0  0  0  0  0  0  0  0  0  0
  -30.5243  -23.6148   15.7666 N   0  0  0  0  0  0  0  0  0  0  0  0
  -29.1197  -15.8545   20.4875 N   0  0  0  0  0  0  0  0  0  0  0  0
  -25.1843  -29.4017   19.9068 N   0  0  0  0  0  0  0  0  0  0  0  0
  -28.7636  -19.6585   20.3789 N   0  0  0  0  0  0  0  0  0  0  0  0
  -31.3212  -15.0204   20.2261 N   0  0  0  0  0  0  0  0  0  0  0  0
  -28.7504  -11.3346   19.7769 N   0  0  0  0  0  0  0  0  0  0  0  0
  -23.7205  -26.2487   18.8058 N   0  0  0  0  0  0  0  0  0  0  0  0
  -24.9716  -32.7184   20.5493 N   0  0  0  0  0  0  0  0  0  0  0  0
  -28.7203  -20.2439   18.0879 N   0  0  0  0  0  0  0  0  0  0  0  0
  -26.7538  -33.8599   23.4799 N   0  3  0  0  0  0  0  0  0  0  0  0
  -30.9091  -12.1081   19.7954 O   0  0  0  0  0  0  0  0  0  0  0  0
  -24.7588  -28.0593   17.7732 O   0  0  0  0  0  0  0  0  0  0  0  0
  -23.1608  -30.5412   20.1144 O   0  0  0  0  0  0  0  0  0  0  0  0
  -27.2585  -32.7930   20.9258 O   0  0  0  0  0  0  0  0  0  0  0  0
  -29.2393  -21.8160   19.6741 O   0  0  0  0  0  0  0  0  0  0  0  0
  -23.1900  -11.1430   20.0614 O   0  0  0  0  0  0  0  0  0  0  0  0
  -30.9248  -27.1436   19.9289 O   0  0  0  0  0  0  0  0  0  1  0  0
  -23.0934   -6.3502   22.7860 F   0  0  0  0  0  0  0  0  0  0  0  0
  -21.3481  -10.6919   22.0729 F   0  0  0  0  0  0  0  0  0  0  0  0
  1  2  1  0  0  0  0
  1  5  2  0  0  0  0
  2  6  2  0  0  0  0
  3  8  2  0  0  0  0
  3 16  1  0  0  0  0
  4  9  1  0  0  0  0
  4 16  2  0  0  0  0
  5 18  1  0  0  0  0
  6 20  1  0  0  0  0
  7 10  2  0  0  0  0
  7 19  1  0  0  0  0
  8 24  1  0  0  0  0
  9 24  2  0  0  0  0
 10 25  1  0  0  0  0
 11 12  2  0  0  0  0
 11 26  1  0  0  0  0
 12 27  1  0  0  0  0
 13 21  1  0  0  0  0
 13 25  2  0  0  0  0
 14 27  2  0  0  0  0
 14 28  1  0  0  0  0
 15 22  2  0  0  0  0
 15 68  1  0  0  0  0
 16 29  1  0  0  0  0
 17 29  1  0  0  0  0
 17 31  2  0  0  0  0
 17 32  1  0  0  0  0
 18 20  2  0  0  0  0
 18 37  1  0  0  0  0
 19 21  2  0  0  0  0
 19 38  1  0  0  0  0
 20 46  1  0  0  0  0
 21 39  1  0  0  0  0
 22 23  1  0  0  0  0
 22 62  1  0  0  0  0
 23 30  2  0  0  0  0
 23 49  1  0  0  0  0
 24 83  1  0  0  0  0
 25 84  1  0  0  0  0
 26 28  2  0  0  0  0
 26 83  1  0  0  0  0
 27 85  1  0  0  0  0
 28 86  1  0  0  0  0
 29 67  2  0  0  0  0
 30 50  1  0  0  0  0
 30 68  1  0  0  0  0
 31 69  1  0  0  0  0
 31 72  1  0  0  0  0
 32 73  1  0  0  0  0
 32 78  2  0  0  0  0
 33 47  1  0  0  0  0
 33 74  1  0  0  0  0
 33 79  2  0  0  0  0
 34 63  1  0  0  0  0
 34 70  1  0  0  0  0
 34 80  2  0  0  0  0
 35 64  1  0  0  0  0
 35 75  1  0  0  0  0
 35 81  2  0  0  0  0
 36 71  1  0  0  0  0
 36 76  1  0  0  0  0
 36 82  2  0  0  0  0
 37 40  1  0  0  0  0
 38 47  1  0  0  0  0
 39 70  1  0  0  0  0
 40 42  1  0  0  0  0
 41 43  1  0  0  0  0
 41 44  1  0  0  0  0
 42 46  1  0  0  0  0
 43 48  1  0  0  0  0
 44 71  1  0  0  0  0
 45 48  1  0  0  0  0
 45 71  1  0  0  0  0
 46 74  1  0  0  0  0
 47 70  1  0  0  0  0
 48 69  1  0  0  0  0
 51 62  1  0  0  0  0
 52 64  1  0  0  0  0
 53 65  1  0  0  0  0
 54 66  1  0  0  0  0
 55 66  1  0  0  0  0
 56 66  1  0  0  0  0
 57 77  1  0  0  0  0
 58 61  1  0  0  0  0
 58 62  1  0  0  0  0
 59 65  1  0  0  0  0
 59 68  1  0  0  0  0
 60 65  1  0  0  0  0
 60 76  1  0  0  0  0
 61 84  1  0  0  0  0
 63 66  1  0  0  0  0
 63 75  1  0  0  0  0
 64 77  1  0  0  0  0
 67 69  1  0  0  0  0
M  CHG  1  77   1
M  ISO  4  36 100  61 101  76 100  84 101
M  END
> <Batch ID>
0091

> <Smiles>
CNC(C)C(=O)NC(C(=O)N1Cc2cc([101O:1][101CH2:1]CC(C)c3cn(CC(C)C[100NH:0][100C:0](=O)N4CCCC(n5nc(-c6ccc(Oc7ccc(F)cc7F)cc6)c(C(N)=O)c5N)C4)c(C)c3C)ccc2CC1C(=O)NC1CCCc2ccccc21)C(C)(C)C

> <Shape>
0.267

> <Color>
0.069

> <Negative vol penalty>
0.000

$$$$

  -OEChem-04052319113D

 82 90  0     1  0  0  0  0  0999 V2000
  -28.5895  -15.6668   14.2607 C   0  0  0  0  0  0  0  0  0  0  0  0
  -28.1961  -16.1164   15.5170 C   0  0  0  0  0  0  0  0  0  0  0  0
  -23.0789   -9.8675   20.0955 C   0  0  0  0  0  0  0  0  0  0  0  0
  -23.7934  -10.0572   22.3956 C   0  0  0  0  0  0  0  0  0  0  0  0
  -29.6505  -16.2855   13.6008 C   0  0  0  0  0  0  0  0  0  0  0  0
  -28.8642  -17.1845   16.1148 C   0  0  0  0  0  0  0  0  0  0  0  0
  -25.6925  -20.5488   18.1802 C   0  0  0  0  0  0  0  0  0  0  0  0
  -22.3198   -8.7443   20.4239 C   0  0  0  0  0  0  0  0  0  0  0  0
  -23.0343   -8.9341   22.7241 C   0  0  0  0  0  0  0  0  0  0  0  0
  -25.1300  -20.2202   19.4129 C   0  0  0  0  0  0  0  0  0  0  0  0
  -22.8563   -5.4569   20.9975 C   0  0  0  0  0  0  0  0  0  0  0  0
  -22.9324   -4.3532   20.1480 C   0  0  0  0  0  0  0  0  0  0  0  0
  -26.7506  -21.6232   20.5196 C   0  0  0  0  0  0  0  0  0  0  0  0
  -20.5568   -4.5071   19.7353 C   0  0  0  0  0  0  0  0  0  0  0  0
  -23.8157  -10.5240   21.0814 C   0  0  0  0  0  0  0  0  0  0  0  0
  -24.1826  -13.0282   20.7618 C   0  0  0  0  0  0  0  0  0  0  0  0
  -30.3256  -17.3680   14.1865 C   0  0  0  0  0  0  0  0  0  0  0  0
  -26.7969  -21.4100   18.1087 C   0  0  0  0  0  0  0  0  0  0  0  0
  -29.9360  -17.8175   15.4627 C   0  0  0  0  0  0  0  0  0  0  0  0
  -27.3236  -21.9632   19.2846 C   0  0  0  0  0  0  0  0  0  0  0  0
  -22.2975   -8.2776   21.7382 C   0  0  0  0  0  0  0  0  0  0  0  0
  -25.6609  -20.7551   20.5830 C   0  0  0  0  0  0  0  0  0  0  0  0
  -21.6305   -6.0857   21.2160 C   0  0  0  0  0  0  0  0  0  0  0  0
  -21.7827   -3.8783   19.5168 C   0  0  0  0  0  0  0  0  0  0  0  0
  -20.4808   -5.6108   20.5848 C   0  0  0  0  0  0  0  0  0  0  0  0
  -24.6005  -11.6840   20.7426 C   0  0  0  0  0  0  0  0  0  0  0  0
  -25.2885  -13.7372   20.3606 C   0  0  0  0  0  0  0  0  0  0  0  0
  -29.7387  -17.6474   24.4825 C   0  0  0  0  0  0  0  0  0  0  0  0
  -27.7591  -18.8520   24.9264 C   0  0  0  0  0  0  0  0  0  0  0  0
  -22.9089  -13.5860   21.1110 C   0  0  0  0  0  0  0  0  0  0  0  0
  -29.7932  -21.1347   17.0839 C   0  0  0  0  0  0  0  0  0  0  0  0
  -29.8827  -24.3193   17.6946 C   0  0  0  0  0  0  0  0  0  0  0  0
  -28.6104  -26.9756   19.4186 C   0  0  0  0  0  0  0  0  0  0  0  0
  -30.7764  -14.7277   20.5767 C   0  0  0  0  0  0  0  0  0  0  0  0
  -31.4971  -17.9744   13.4554 C   0  0  0  0  0  0  0  0  0  0  0  0
  -27.3753  -21.7757   16.7693 C   0  0  0  0  0  0  0  0  0  0  0  0
  -28.4959  -22.9085   19.2604 C   0  0  0  0  0  0  0  0  0  0  0  0
  -31.9105  -19.3412   13.9949 C   0  0  0  0  0  0  0  0  0  0  0  0
  -29.6646  -12.1637   18.3707 C   0  0  0  0  0  0  0  0  0  0  0  0
  -31.9868  -19.3131   15.5181 C   0  0  0  0  0  0  0  0  0  0  0  0
  -28.2163  -11.9172   18.7968 C   0  0  0  0  0  0  0  0  0  0  0  0
  -30.5599  -12.4756   19.5679 C   0  0  0  0  0  0  0  0  0  0  0  0
  -28.6378  -13.3322   20.8508 C   0  0  0  0  0  0  0  0  0  0  0  0
  -30.6199  -18.9892   16.1331 C   0  0  1  0  0  0  0  0  0  0  0  0
  -28.8206  -22.2567   16.8537 C   0  0  1  0  0  0  0  0  0  0  0  0
  -27.6855  -13.0686   19.6718 C   0  0  2  0  0  0  0  0  0  0  0  0
  -28.9138  -29.4464   19.7350 C   0  0  0  0  0  0  0  0  0  0  0  0
  -32.3512  -23.7941   19.4093 C   0  0  0  0  0  0  0  0  0  0  0  0
  -32.0382  -26.0587   20.4300 C   0  0  0  0  0  0  0  0  0  0  0  0
  -32.4873  -25.8457   17.9855 C   0  0  0  0  0  0  0  0  0  0  0  0
  -25.8736  -27.5529   18.4511 C   0  0  0  0  0  0  0  0  0  0  0  0
  -30.7607  -16.6223   24.1893 C   0  0  0  0  0  0  0  0  0  0  0  0
  -26.3426  -19.3025   25.1796 C   0  0  0  0  0  0  0  0  0  0  0  0
  -31.6280  -16.9044   22.9390 C   0  0  0  0  0  0  0  0  0  0  0  0
  -25.4877  -19.3876   23.9132 C   0  0  0  0  0  0  0  0  0  0  0  0
  -30.8373  -16.9721   21.6343 C   0  0  0  0  0  0  0  0  0  0  0  0
  -25.9884  -20.4253   22.9154 C   0  0  0  0  0  0  0  0  0  1  0  0
  -30.2272  -25.1686   18.8942 C   0  0  1  0  0  0  0  0  0  0  0  0
  -28.1814  -28.3591   18.9643 C   0  0  2  0  0  0  0  0  0  0  0  0
  -31.7551  -25.1975   19.1807 C   0  0  0  0  0  0  0  0  0  0  0  0
  -25.8724  -11.5448   20.3595 N   0  0  0  0  0  0  0  0  0  0  0  0
  -29.9766  -18.9303   24.6544 N   0  0  0  0  0  0  0  0  0  0  0  0
  -28.8155  -19.6367   24.9158 N   0  0  0  0  0  0  0  0  0  0  0  0
  -26.2634  -12.8106   20.1341 N   0  0  0  0  0  0  0  0  0  0  0  0
  -29.0303  -23.2305   17.9269 N   0  0  0  0  0  0  0  0  0  0  0  0
  -30.0012  -13.5775   20.3552 N   0  0  0  0  0  0  0  0  0  0  0  0
  -25.5123  -15.0566   20.1830 N   0  0  0  0  0  0  0  0  0  0  0  0
  -21.8823  -12.7151   21.5009 N   0  0  0  0  0  0  0  0  0  0  0  0
  -29.7651  -20.1567   16.1081 N   0  0  0  0  0  0  0  0  0  0  0  0
  -29.6407  -26.4813   18.6470 N   0  0  0  0  0  0  0  0  0  0  0  0
  -30.1692  -15.7270   21.3274 N   0  0  0  0  0  0  0  0  0  0  0  0
  -26.7168  -28.5413   19.1716 N   0  3  0  0  0  0  0  0  0  0  0  0
  -22.6826  -14.8189   21.0624 O   0  0  0  0  0  0  0  0  0  0  0  0
  -30.5167  -21.1556   18.0727 O   0  0  0  0  0  0  0  0  0  0  0  0
  -30.3468  -24.6153   16.5907 O   0  0  0  0  0  0  0  0  0  0  0  0
  -28.0866  -26.3933   20.3657 O   0  0  0  0  0  0  0  0  0  0  0  0
  -31.9226  -14.8570   20.1335 O   0  0  0  0  0  0  0  0  0  0  0  0
  -21.5568   -7.1818   22.0591 O   0  0  0  0  0  0  0  0  0  0  0  0
  -25.1142  -20.4355   21.7875 O   0  0  0  0  0  0  0  0  0  1  0  0
  -21.8561   -2.8194   18.6999 F   0  0  0  0  0  0  0  0  0  0  0  0
  -19.3005   -6.2115   20.7899 F   0  0  0  0  0  0  0  0  0  0  0  0
  -28.0896  -17.1969   24.6215 S   0  0  0  0  0  0  0  0  0  0  0  0
  1  2  1  0  0  0  0
  1  5  2  0  0  0  0
  2  6  2  0  0  0  0
  3  8  2  0  0  0  0
  3 15  1  0  0  0  0
  4  9  1  0  0  0  0
  4 15  2  0  0  0  0
  5 17  1  0  0  0  0
  6 19  1  0  0  0  0
  7 10  2  0  0  0  0
  7 18  1  0  0  0  0
  8 21  1  0  0  0  0
  9 21  2  0  0  0  0
 10 22  1  0  0  0  0
 11 12  2  0  0  0  0
 11 23  1  0  0  0  0
 12 24  1  0  0  0  0
 13 20  1  0  0  0  0
 13 22  2  0  0  0  0
 14 24  2  0  0  0  0
 14 25  1  0  0  0  0
 15 26  1  0  0  0  0
 16 26  1  0  0  0  0
 16 27  2  0  0  0  0
 16 30  1  0  0  0  0
 17 19  2  0  0  0  0
 17 35  1  0  0  0  0
 18 20  2  0  0  0  0
 18 36  1  0  0  0  0
 19 44  1  0  0  0  0
 20 37  1  0  0  0  0
 21 78  1  0  0  0  0
 22 79  1  0  0  0  0
 23 25  2  0  0  0  0
 23 78  1  0  0  0  0
 24 80  1  0  0  0  0
 25 81  1  0  0  0  0
 26 61  2  0  0  0  0
 27 64  1  0  0  0  0
 27 67  1  0  0  0  0
 28 52  1  0  0  0  0
 28 62  2  0  0  0  0
 28 82  1  0  0  0  0
 29 53  1  0  0  0  0
 29 63  2  0  0  0  0
 29 82  1  0  0  0  0
 30 68  1  0  0  0  0
 30 73  2  0  0  0  0
 31 45  1  0  0  0  0
 31 69  1  0  0  0  0
 31 74  2  0  0  0  0
 32 58  1  0  0  0  0
 32 65  1  0  0  0  0
 32 75  2  0  0  0  0
 33 59  1  0  0  0  0
 33 70  1  0  0  0  0
 33 76  2  0  0  0  0
 34 66  1  0  0  0  0
 34 71  1  0  0  0  0
 34 77  2  0  0  0  0
 35 38  1  0  0  0  0
 36 45  1  0  0  0  0
 37 65  1  0  0  0  0
 38 40  1  0  0  0  0
 39 41  1  0  0  0  0
 39 42  1  0  0  0  0
 40 44  1  0  0  0  0
 41 46  1  0  0  0  0
 42 66  1  0  0  0  0
 43 46  1  0  0  0  0
 43 66  1  0  0  0  0
 44 69  1  0  0  0  0
 45 65  1  0  0  0  0
 46 64  1  0  0  0  0
 47 59  1  0  0  0  0
 48 60  1  0  0  0  0
 49 60  1  0  0  0  0
 50 60  1  0  0  0  0
 51 72  1  0  0  0  0
 52 54  1  0  0  0  0
 53 55  1  0  0  0  0
 54 56  1  0  0  0  0
 55 57  1  0  0  0  0
 56 71  1  0  0  0  0
 57 79  1  0  0  0  0
 58 60  1  0  0  0  0
 58 70  1  0  0  0  0
 59 72  1  0  0  0  0
 61 64  1  0  0  0  0
 62 63  1  0  0  0  0
M  CHG  1  72   1
M  ISO  4  34 100  57 101  71 100  79 101
M  END
> <Batch ID>
0091

> <Smiles>
CNC(C)C(=O)NC(C(=O)N1Cc2cc([101O:1][101CH2:1]CCc3nnc(CCC[100NH:0][100C:0](=O)N4CCCC(n5nc(-c6ccc(Oc7ccc(F)cc7F)cc6)c(C(N)=O)c5N)C4)s3)ccc2CC1C(=O)NC1CCCc2ccccc21)C(C)(C)C

> <Shape>
0.234

> <Color>
0.201

> <Negative vol penalty>
0.000

$$$$

  -OEChem-04052319113D

 84 92  0     1  0  0  0  0  0999 V2000
  -30.7717  -26.3178   16.8761 C   0  0  0  0  0  0  0  0  0  0  0  0
  -29.3949  -26.1671   17.0069 C   0  0  0  0  0  0  0  0  0  0  0  0
  -24.8752  -15.1455   19.9718 C   0  0  0  0  0  0  0  0  0  0  0  0
  -25.0820  -14.7783   22.3508 C   0  0  0  0  0  0  0  0  0  0  0  0
  -31.5218  -26.8143   17.9414 C   0  0  0  0  0  0  0  0  0  0  0  0
  -28.7675  -26.5118   18.2035 C   0  0  0  0  0  0  0  0  0  0  0  0
  -23.1782  -28.9253   18.8676 C   0  0  0  0  0  0  0  0  0  0  0  0
  -22.6316  -23.7204   18.1311 C   0  0  0  0  0  0  0  0  0  0  0  0
  -25.2623  -13.8267   19.7346 C   0  0  0  0  0  0  0  0  0  0  0  0
  -25.4690  -13.4594   22.1135 C   0  0  0  0  0  0  0  0  0  0  0  0
  -21.9438  -28.3596   19.1838 C   0  0  0  0  0  0  0  0  0  0  0  0
  -26.5439  -10.6596   18.4893 C   0  0  0  0  0  0  0  0  0  0  0  0
  -27.4838  -10.4286   17.4850 C   0  0  0  0  0  0  0  0  0  0  0  0
  -21.6052  -23.8769   19.0560 C   0  0  0  0  0  0  0  0  0  0  0  0
  -22.2745  -28.9477   21.4998 C   0  0  0  0  0  0  0  0  0  0  0  0
  -29.0772  -11.8158   18.6571 C   0  0  0  0  0  0  0  0  0  0  0  0
  -24.7851  -15.6214   21.2799 C   0  0  0  0  0  0  0  0  0  0  0  0
  -23.0765  -17.4653   21.7139 C   0  0  0  0  0  0  0  0  0  0  0  0
  -30.9020  -27.1743   19.1483 C   0  0  0  0  0  0  0  0  0  0  0  0
  -23.9763  -29.4976   19.8685 C   0  0  0  0  0  0  0  0  0  0  0  0
  -29.5102  -27.0123   19.2864 C   0  0  0  0  0  0  0  0  0  0  0  0
  -23.5175  -29.5223   21.1933 C   0  0  0  0  0  0  0  0  0  0  0  0
  -23.9494  -23.6486   18.5689 C   0  0  0  0  0  0  0  0  0  0  0  0
  -25.5591  -12.9836   20.8054 C   0  0  0  0  0  0  0  0  0  0  0  0
  -21.4930  -28.3682   20.5006 C   0  0  0  0  0  0  0  0  0  0  0  0
  -26.8706  -11.4687   19.5776 C   0  0  0  0  0  0  0  0  0  0  0  0
  -28.7505  -11.0067   17.5689 C   0  0  0  0  0  0  0  0  0  0  0  0
  -28.1373  -12.0468   19.6615 C   0  0  0  0  0  0  0  0  0  0  0  0
  -24.3859  -16.9839   21.5256 C   0  0  0  0  0  0  0  0  0  0  0  0
  -24.1860  -23.7376   19.9312 C   0  0  0  0  0  0  0  0  0  0  0  0
  -21.9467  -23.9558   20.3966 C   0  0  0  0  0  0  0  0  0  0  0  0
  -23.2320  -18.8158   21.9097 C   0  0  0  0  0  0  0  0  0  0  0  0
  -21.8309  -16.7551   21.7121 C   0  0  0  0  0  0  0  0  0  0  0  0
  -25.5495  -23.6713   20.4730 C   0  0  0  0  0  0  0  0  0  0  0  0
  -26.8672  -28.9007   21.0475 C   0  0  0  0  0  0  0  0  0  0  0  0
  -26.3232  -31.6289   22.7159 C   0  0  0  0  0  0  0  0  0  0  0  0
  -24.0595  -33.8219   24.0248 C   0  0  0  0  0  0  0  0  0  0  0  0
  -31.7607  -27.6621   20.2881 C   0  0  0  0  0  0  0  0  0  0  0  0
  -25.2934  -30.1275   19.5067 C   0  0  0  0  0  0  0  0  0  0  0  0
  -24.3271  -30.1425   22.3015 C   0  0  0  0  0  0  0  0  0  0  0  0
  -30.9691  -28.3565   21.3934 C   0  0  0  0  0  0  0  0  0  0  0  0
  -27.3884  -21.5838   22.7095 C   0  0  0  0  0  0  0  0  0  0  0  0
  -29.7344  -27.5392   21.7598 C   0  0  0  0  0  0  0  0  0  0  0  0
  -26.6776  -20.2334   22.6037 C   0  0  0  0  0  0  0  0  0  0  0  0
  -27.4113  -22.3151   21.3697 C   0  0  0  0  0  0  0  0  0  0  0  0
  -25.3697  -21.1338   20.6341 C   0  0  0  0  0  0  0  0  0  0  0  0
  -28.7899  -27.3985   20.5600 C   0  0  1  0  0  0  0  0  0  0  0  0
  -26.2539  -30.2244   20.6880 C   0  0  1  0  0  0  0  0  0  0  0  0
  -25.2799  -20.3865   21.9748 C   0  0  1  0  0  0  0  0  0  0  0  0
  -18.1843  -27.0371   18.9937 C   0  0  0  0  0  0  0  0  0  0  0  0
  -25.1493  -24.6626   16.5977 C   0  0  0  0  0  0  0  0  0  0  0  0
  -24.9466  -22.1578   16.7976 C   0  0  0  0  0  0  0  0  0  0  0  0
  -23.9151  -35.9362   25.3687 C   0  0  0  0  0  0  0  0  0  0  0  0
  -26.9654  -30.0580   25.2516 C   0  0  0  0  0  0  0  0  0  0  0  0
  -25.9029  -31.8975   26.5767 C   0  0  0  0  0  0  0  0  0  0  0  0
  -27.9196  -32.3688   25.1862 C   0  0  0  0  0  0  0  0  0  0  0  0
  -22.7068  -35.2658   21.8238 C   0  0  0  0  0  0  0  0  0  0  0  0
  -20.8593  -24.1228   21.4278 C   0  0  0  0  0  0  0  0  0  0  0  0
  -18.6439  -26.1866   20.1710 C   0  0  0  0  0  0  0  0  0  0  0  0
  -20.5239  -25.5876   21.7439 C   0  0  0  0  0  0  0  0  0  0  0  0
  -25.0524  -23.4804   17.5813 C   0  0  0  0  0  0  0  0  0  0  0  0
  -25.6985  -31.9597   24.0498 C   0  0  1  0  0  0  0  0  0  0  0  0
  -23.9784  -35.3368   23.9725 C   0  0  2  0  0  0  0  0  0  0  0  0
  -20.1163  -26.4292   20.5245 C   0  0  2  0  0  0  0  0  0  1  0  0
  -26.6070  -31.5575   25.2457 C   0  0  0  0  0  0  0  0  0  0  0  0
  -25.3055  -17.9501   21.5953 N   0  0  0  0  0  0  0  0  0  0  0  0
  -23.2151  -23.8899   20.8596 N   0  0  0  0  0  0  0  0  0  0  0  0
  -24.5729  -19.0521   21.8296 N   0  0  0  0  0  0  0  0  0  0  0  0
  -26.0629  -22.4174   20.8129 N   0  0  0  0  0  0  0  0  0  0  0  0
  -25.6109  -30.7399   21.8984 N   0  0  0  0  0  0  0  0  0  0  0  0
  -22.3512  -19.8124   22.1408 N   0  0  0  0  0  0  0  0  0  0  0  0
  -21.8516  -15.3705   21.4958 N   0  0  0  0  0  0  0  0  0  0  0  0
  -28.0351  -28.6179   20.3653 N   0  0  0  0  0  0  0  0  0  0  0  0
  -25.3653  -33.3793   24.0035 N   0  0  0  0  0  0  0  0  0  0  0  0
  -22.7642  -35.7649   23.2218 N   0  3  0  0  0  0  0  0  0  0  0  0
  -20.7308  -17.3339   21.8804 O   0  0  0  0  0  0  0  0  0  0  0  0
  -26.1374  -24.7445   20.5979 O   0  0  0  0  0  0  0  0  0  0  0  0
  -26.3220  -28.1892   21.8831 O   0  0  0  0  0  0  0  0  0  0  0  0
  -27.3999  -32.1458   22.4075 O   0  0  0  0  0  0  0  0  0  0  0  0
  -23.0643  -33.1031   24.0827 O   0  0  0  0  0  0  0  0  0  0  0  0
  -25.9366  -11.6965   20.5743 O   0  0  0  0  0  0  0  0  0  0  0  0
  -20.2888  -27.8162   20.8121 O   0  0  0  0  0  0  0  0  0  1  0  0
  -29.6535  -10.7835   16.6051 F   0  0  0  0  0  0  0  0  0  0  0  0
  -28.4573  -12.8241   20.7051 F   0  0  0  0  0  0  0  0  0  0  0  0
  1  2  1  0  0  0  0
  1  5  2  0  0  0  0
  2  6  2  0  0  0  0
  3  9  2  0  0  0  0
  3 17  1  0  0  0  0
  4 10  1  0  0  0  0
  4 17  2  0  0  0  0
  5 19  1  0  0  0  0
  6 21  1  0  0  0  0
  7 11  2  0  0  0  0
  7 20  1  0  0  0  0
  8 14  2  0  0  0  0
  8 23  1  0  0  0  0
  9 24  1  0  0  0  0
 10 24  2  0  0  0  0
 11 25  1  0  0  0  0
 12 13  2  0  0  0  0
 12 26  1  0  0  0  0
 13 27  1  0  0  0  0
 14 31  1  0  0  0  0
 15 22  1  0  0  0  0
 15 25  2  0  0  0  0
 16 27  2  0  0  0  0
 16 28  1  0  0  0  0
 17 29  1  0  0  0  0
 18 29  1  0  0  0  0
 18 32  2  0  0  0  0
 18 33  1  0  0  0  0
 19 21  2  0  0  0  0
 19 38  1  0  0  0  0
 20 22  2  0  0  0  0
 20 39  1  0  0  0  0
 21 47  1  0  0  0  0
 22 40  1  0  0  0  0
 23 30  2  0  0  0  0
 23 61  1  0  0  0  0
 24 81  1  0  0  0  0
 25 82  1  0  0  0  0
 26 28  2  0  0  0  0
 26 81  1  0  0  0  0
 27 83  1  0  0  0  0
 28 84  1  0  0  0  0
 29 66  2  0  0  0  0
 30 34  1  0  0  0  0
 30 67  1  0  0  0  0
 31 58  1  0  0  0  0
 31 67  2  0  0  0  0
 32 68  1  0  0  0  0
 32 71  1  0  0  0  0
 33 72  1  0  0  0  0
 33 76  2  0  0  0  0
 34 69  1  0  0  0  0
 34 77  2  0  0  0  0
 35 48  1  0  0  0  0
 35 73  1  0  0  0  0
 35 78  2  0  0  0  0
 36 62  1  0  0  0  0
 36 70  1  0  0  0  0
 36 79  2  0  0  0  0
 37 63  1  0  0  0  0
 37 74  1  0  0  0  0
 37 80  2  0  0  0  0
 38 41  1  0  0  0  0
 39 48  1  0  0  0  0
 40 70  1  0  0  0  0
 41 43  1  0  0  0  0
 42 44  1  0  0  0  0
 42 45  1  0  0  0  0
 43 47  1  0  0  0  0
 44 49  1  0  0  0  0
 45 69  1  0  0  0  0
 46 49  1  0  0  0  0
 46 69  1  0  0  0  0
 47 73  1  0  0  0  0
 48 70  1  0  0  0  0
 49 68  1  0  0  0  0
 50 59  1  0  0  0  0
 51 61  1  0  0  0  0
 52 61  1  0  0  0  0
 53 63  1  0  0  0  0
 54 65  1  0  0  0  0
 55 65  1  0  0  0  0
 56 65  1  0  0  0  0
 57 75  1  0  0  0  0
 58 60  1  0  0  0  0
 59 64  1  0  0  0  0
 60 64  1  0  0  0  0
 62 65  1  0  0  0  0
 62 74  1  0  0  0  0
 63 75  1  0  0  0  0
 64 82  1  0  0  0  0
 66 68  1  0  0  0  0
M  CHG  1  75   1
M  ISO  4  30 100  34 100  64 101  82 101
M  END
> <Batch ID>
0091

> <Smiles>
CC[101CH:1](CCc1ccc(C(C)C)[100c:0]([100C:0](=O)N2CCCC(n3nc(-c4ccc(Oc5ccc(F)cc5F)cc4)c(C(N)=O)c3N)C2)n1)[101O:1]c1ccc2c(c1)CN(C(=O)C(NC(=O)C(C)NC)C(C)(C)C)C(C(=O)NC1CCCc3ccccc31)C2

> <Shape>
0.252

> <Color>
0.076

> <Negative vol penalty>
0.000

$$$$

  -OEChem-04052319113D

 83 91  0     1  0  0  0  0  0999 V2000
  -16.6311  -29.7801   23.7508 C   0  0  0  0  0  0  0  0  0  0  0  0
  -17.7147  -30.4597   24.2979 C   0  0  0  0  0  0  0  0  0  0  0  0
  -28.0567  -21.3851   22.5887 C   0  0  0  0  0  0  0  0  0  0  0  0
  -29.6328  -22.5858   23.9712 C   0  0  0  0  0  0  0  0  0  0  0  0
  -16.8417  -28.6250   22.9988 C   0  0  0  0  0  0  0  0  0  0  0  0
  -19.0096  -29.9841   24.0942 C   0  0  0  0  0  0  0  0  0  0  0  0
  -25.7412  -32.2933   23.2764 C   0  0  0  0  0  0  0  0  0  0  0  0
  -27.9908  -20.3713   23.5444 C   0  0  0  0  0  0  0  0  0  0  0  0
  -29.5668  -21.5720   24.9270 C   0  0  0  0  0  0  0  0  0  0  0  0
  -27.0192  -32.0932   23.7965 C   0  0  0  0  0  0  0  0  0  0  0  0
  -27.4624  -20.6042   27.3878 C   0  0  0  0  0  0  0  0  0  0  0  0
  -27.3400  -20.9829   28.7246 C   0  0  0  0  0  0  0  0  0  0  0  0
  -27.2683  -30.1322   22.4139 C   0  0  0  0  0  0  0  0  0  0  0  0
  -29.4143  -19.8541   29.2344 C   0  0  0  0  0  0  0  0  0  0  0  0
  -31.4784  -31.0259   19.7240 C   0  0  0  0  0  0  0  0  0  0  0  0
  -28.8778  -22.4923   22.8020 C   0  0  0  0  0  0  0  0  0  0  0  0
  -28.1387  -24.6897   21.7377 C   0  0  0  0  0  0  0  0  0  0  0  0
  -18.1405  -28.1404   22.7778 C   0  0  0  0  0  0  0  0  0  0  0  0
  -25.2120  -31.4066   22.3276 C   0  0  0  0  0  0  0  0  0  0  0  0
  -19.2377  -28.8207   23.3397 C   0  0  0  0  0  0  0  0  0  0  0  0
  -25.9843  -30.3247   21.8814 C   0  0  0  0  0  0  0  0  0  0  0  0
  -28.7457  -20.4647   24.7136 C   0  0  0  0  0  0  0  0  0  0  0  0
  -27.7818  -31.0109   23.3674 C   0  0  0  0  0  0  0  0  0  0  0  0
  -28.5608  -19.8503   26.9742 C   0  0  0  0  0  0  0  0  0  0  0  0
  -28.3159  -20.6079   29.6479 C   0  0  0  0  0  0  0  0  0  0  0  0
  -29.5368  -19.4753   27.8976 C   0  0  0  0  0  0  0  0  0  0  0  0
  -28.9469  -23.5396   21.8149 C   0  0  0  0  0  0  0  0  0  0  0  0
  -32.4859  -30.7020   18.8597 C   0  0  0  0  0  0  0  0  0  0  0  0
  -28.6000  -25.3599   20.6311 C   0  0  0  0  0  0  0  0  0  0  0  0
  -33.2298  -32.2886   20.2125 C   0  0  0  0  0  0  0  0  0  0  0  0
  -27.0668  -25.1143   22.5901 C   0  0  0  0  0  0  0  0  0  0  0  0
  -22.7069  -29.4522   22.2360 C   0  0  0  0  0  0  0  0  0  0  0  0
  -23.6290  -29.0464   19.1526 C   0  0  0  0  0  0  0  0  0  0  0  0
  -26.1318  -29.1757   16.8360 C   0  0  0  0  0  0  0  0  0  0  0  0
  -32.8072  -27.2742   17.5038 C   0  0  0  0  0  0  0  0  0  0  0  0
  -18.3151  -26.8613   21.9978 C   0  0  0  0  0  0  0  0  0  0  0  0
  -23.8422  -31.6516   21.7566 C   0  0  0  0  0  0  0  0  0  0  0  0
  -25.4701  -29.3554   20.8497 C   0  0  0  0  0  0  0  0  0  0  0  0
  -19.7450  -26.6330   21.5145 C   0  0  0  0  0  0  0  0  0  0  0  0
  -31.7953  -23.8992   16.9921 C   0  0  0  0  0  0  0  0  0  0  0  0
  -20.7379  -26.8949   22.6425 C   0  0  0  0  0  0  0  0  0  0  0  0
  -30.9030  -23.5981   18.1975 C   0  0  0  0  0  0  0  0  0  0  0  0
  -32.9652  -24.8058   17.3684 C   0  0  0  0  0  0  0  0  0  0  0  0
  -31.6919  -25.7581   19.2514 C   0  0  0  0  0  0  0  0  0  0  0  0
  -20.6590  -28.3499   23.1202 C   0  0  1  0  0  0  0  0  0  0  0  0
  -23.2034  -30.3939   21.1756 C   0  0  1  0  0  0  0  0  0  0  0  0
  -30.4669  -24.8927   18.9097 C   0  0  2  0  0  0  0  0  0  0  0  0
  -34.1232  -33.2880   20.8495 C   0  0  0  0  0  0  0  0  0  0  0  0
  -26.5904  -28.7504   14.4058 C   0  0  0  0  0  0  0  0  0  0  0  0
  -31.7710  -30.3692   24.7819 C   0  0  0  0  0  0  0  0  0  0  0  0
  -23.6449  -26.0418   19.6839 C   0  0  0  0  0  0  0  0  0  0  0  0
  -24.9901  -25.7496   17.5927 C   0  0  0  0  0  0  0  0  0  0  0  0
  -22.6889  -26.7047   17.4700 C   0  0  0  0  0  0  0  0  0  0  0  0
  -26.8880  -31.9980   16.3655 C   0  0  0  0  0  0  0  0  0  0  0  0
  -32.5480  -29.7284   17.7666 C   0  0  0  0  0  0  0  0  0  0  0  0
  -31.5888  -32.1897   23.0674 C   0  0  0  0  0  0  0  0  0  0  0  0
  -31.1931  -32.6695   21.6640 C   0  0  0  0  0  0  0  0  0  0  0  0
  -29.9831  -30.1796   23.0222 C   0  0  0  0  0  0  0  0  0  1  0  0
  -24.5623  -28.1045   18.4309 C   0  0  1  0  0  0  0  0  0  0  0  0
  -26.1875  -29.7838   15.4462 C   0  0  2  0  0  0  0  0  0  0  0  0
  -31.4025  -30.6782   23.3252 C   0  0  2  0  0  0  0  0  0  0  0  0
  -23.9808  -26.6671   18.3152 C   0  0  0  0  0  0  0  0  0  0  0  0
  -29.8528  -23.4794   20.8353 N   0  0  0  0  0  0  0  0  0  0  0  0
  -31.9666  -32.0096   20.5499 N   0  0  0  0  0  0  0  0  0  0  0  0
  -29.6166  -24.6000   20.1320 N   0  0  0  0  0  0  0  0  0  0  0  0
  -33.5572  -31.4987   19.1847 N   0  3  0  0  0  0  0  0  0  0  0  0
  -24.1226  -29.6339   20.3260 N   0  0  0  0  0  0  0  0  0  0  0  0
  -32.4836  -26.0162   18.0384 N   0  0  0  0  0  0  0  0  0  0  0  0
  -28.2310  -26.5192   20.0460 N   0  0  0  0  0  0  0  0  0  0  0  0
  -26.7223  -24.3070   23.6828 N   0  0  0  0  0  0  0  0  0  0  0  0
  -21.3447  -29.2242   22.1929 N   0  0  0  0  0  0  0  0  0  0  0  0
  -24.8643  -28.7318   17.1489 N   0  0  0  0  0  0  0  0  0  0  0  0
  -32.3057  -28.3693   18.1967 N   0  0  0  0  0  0  0  0  0  0  0  0
  -27.1752  -30.8991   15.4080 N   0  3  0  0  0  0  0  0  0  0  0  0
  -26.4226  -26.1697   22.3793 O   0  0  0  0  0  0  0  0  0  0  0  0
  -23.5012  -28.9672   23.0333 O   0  0  0  0  0  0  0  0  0  0  0  0
  -22.5061  -29.2588   18.6882 O   0  0  0  0  0  0  0  0  0  0  0  0
  -27.1151  -29.0986   17.5693 O   0  0  0  0  0  0  0  0  0  0  0  0
  -33.4879  -27.4112   16.4816 O   0  0  0  0  0  0  0  0  0  0  0  0
  -28.6814  -19.4758   25.6465 O   0  0  0  0  0  0  0  0  0  0  0  0
  -29.0293  -30.8129   23.8739 O   0  0  0  0  0  0  0  0  0  1  0  0
  -28.1989  -20.9730   30.9314 F   0  0  0  0  0  0  0  0  0  0  0  0
  -30.5948  -18.7521   27.5060 F   0  0  0  0  0  0  0  0  0  0  0  0
  1  2  1  0  0  0  0
  1  5  2  0  0  0  0
  2  6  2  0  0  0  0
  3  8  2  0  0  0  0
  3 16  1  0  0  0  0
  4  9  1  0  0  0  0
  4 16  2  0  0  0  0
  5 18  1  0  0  0  0
  6 20  1  0  0  0  0
  7 10  2  0  0  0  0
  7 19  1  0  0  0  0
  8 22  1  0  0  0  0
  9 22  2  0  0  0  0
 10 23  1  0  0  0  0
 11 12  2  0  0  0  0
 11 24  1  0  0  0  0
 12 25  1  0  0  0  0
 13 21  1  0  0  0  0
 13 23  2  0  0  0  0
 14 25  2  0  0  0  0
 14 26  1  0  0  0  0
 15 28  2  0  0  0  0
 15 64  1  0  0  0  0
 16 27  1  0  0  0  0
 17 27  1  0  0  0  0
 17 29  2  0  0  0  0
 17 31  1  0  0  0  0
 18 20  2  0  0  0  0
 18 36  1  0  0  0  0
 19 21  2  0  0  0  0
 19 37  1  0  0  0  0
 20 45  1  0  0  0  0
 21 38  1  0  0  0  0
 22 80  1  0  0  0  0
 23 81  1  0  0  0  0
 24 26  2  0  0  0  0
 24 80  1  0  0  0  0
 25 82  1  0  0  0  0
 26 83  1  0  0  0  0
 27 63  2  0  0  0  0
 28 55  1  0  0  0  0
 28 66  1  0  0  0  0
 29 65  1  0  0  0  0
 29 69  1  0  0  0  0
 30 48  1  0  0  0  0
 30 64  1  0  0  0  0
 30 66  2  0  0  0  0
 31 70  1  0  0  0  0
 31 75  2  0  0  0  0
 32 46  1  0  0  0  0
 32 71  1  0  0  0  0
 32 76  2  0  0  0  0
 33 59  1  0  0  0  0
 33 67  1  0  0  0  0
 33 77  2  0  0  0  0
 34 60  1  0  0  0  0
 34 72  1  0  0  0  0
 34 78  2  0  0  0  0
 35 68  1  0  0  0  0
 35 73  1  0  0  0  0
 35 79  2  0  0  0  0
 36 39  1  0  0  0  0
 37 46  1  0  0  0  0
 38 67  1  0  0  0  0
 39 41  1  0  0  0  0
 40 42  1  0  0  0  0
 40 43  1  0  0  0  0
 41 45  1  0  0  0  0
 42 47  1  0  0  0  0
 43 68  1  0  0  0  0
 44 47  1  0  0  0  0
 44 68  1  0  0  0  0
 45 71  1  0  0  0  0
 46 67  1  0  0  0  0
 47 65  1  0  0  0  0
 49 60  1  0  0  0  0
 50 61  1  0  0  0  0
 51 62  1  0  0  0  0
 52 62  1  0  0  0  0
 53 62  1  0  0  0  0
 54 74  1  0  0  0  0
 55 73  1  0  0  0  0
 56 57  1  0  0  0  0
 56 61  1  0  0  0  0
 57 64  1  0  0  0  0
 58 61  1  0  0  0  0
 58 81  1  0  0  0  0
 59 62  1  0  0  0  0
 59 72  1  0  0  0  0
 60 74  1  0  0  0  0
 63 65  1  0  0  0  0
M  CHG  2  66   1  74   1
M  ISO  4  35 100  58 101  73 100  81 101
M  END
> <Batch ID>
0091

> <Smiles>
CNC(C)C(=O)NC(C(=O)N1Cc2cc([101O:1][101CH2:1]C(C)CCn3cc(C[100NH:0][100C:0](=O)N4CCCC(n5nc(-c6ccc(Oc7ccc(F)cc7F)cc6)c(C(N)=O)c5N)C4)nc3C)ccc2CC1C(=O)NC1CCCc2ccccc21)C(C)(C)C

> <Shape>
0.195

> <Color>
0.107

> <Negative vol penalty>
0.000

$$$$

  -OEChem-04052319113D

 83 91  0     1  0  0  0  0  0999 V2000
  -33.0549  -29.0341   15.7659 C   0  0  0  0  0  0  0  0  0  0  0  0
  -32.3746  -28.0766   16.5114 C   0  0  0  0  0  0  0  0  0  0  0  0
  -25.1017  -16.6788   23.7272 C   0  0  0  0  0  0  0  0  0  0  0  0
  -24.9039  -18.1605   21.8292 C   0  0  0  0  0  0  0  0  0  0  0  0
  -33.1612  -30.3403   16.2417 C   0  0  0  0  0  0  0  0  0  0  0  0
  -31.8011  -28.4246   17.7339 C   0  0  0  0  0  0  0  0  0  0  0  0
  -27.1152  -26.5827   18.2759 C   0  0  0  0  0  0  0  0  0  0  0  0
  -24.9596  -17.7653   24.5902 C   0  0  0  0  0  0  0  0  0  0  0  0
  -24.7618  -19.2471   22.6922 C   0  0  0  0  0  0  0  0  0  0  0  0
  -26.9957  -25.2349   18.6118 C   0  0  0  0  0  0  0  0  0  0  0  0
  -26.7669  -21.2064   24.5820 C   0  0  0  0  0  0  0  0  0  0  0  0
  -27.4966  -22.3604   24.2967 C   0  0  0  0  0  0  0  0  0  0  0  0
  -26.6229  -25.8481   20.9149 C   0  0  0  0  0  0  0  0  0  0  0  0
  -25.4400  -23.6143   24.1084 C   0  0  0  0  0  0  0  0  0  0  0  0
  -29.1417  -17.4565   18.4676 C   0  0  0  0  0  0  0  0  0  0  0  0
  -25.0739  -16.8764   22.3466 C   0  0  0  0  0  0  0  0  0  0  0  0
  -24.1956  -14.9455   20.9297 C   0  0  0  0  0  0  0  0  0  0  0  0
  -32.5805  -30.7068   17.4660 C   0  0  0  0  0  0  0  0  0  0  0  0
  -27.0000  -27.5745   19.2606 C   0  0  0  0  0  0  0  0  0  0  0  0
  -31.9009  -29.7367   18.2272 C   0  0  0  0  0  0  0  0  0  0  0  0
  -26.7388  -27.2079   20.5885 C   0  0  0  0  0  0  0  0  0  0  0  0
  -30.1125  -16.5486   18.1218 C   0  0  0  0  0  0  0  0  0  0  0  0
  -24.7897  -19.0495   24.0728 C   0  0  0  0  0  0  0  0  0  0  0  0
  -26.7524  -24.8672   19.9320 C   0  0  0  0  0  0  0  0  0  0  0  0
  -25.3737  -21.2563   24.6304 C   0  0  0  0  0  0  0  0  0  0  0  0
  -26.8332  -23.5643   24.0599 C   0  0  0  0  0  0  0  0  0  0  0  0
  -24.7103  -22.4602   24.3937 C   0  0  0  0  0  0  0  0  0  0  0  0
  -25.2211  -15.7545   21.4546 C   0  0  0  0  0  0  0  0  0  0  0  0
  -31.0918  -16.6815   19.1244 C   0  0  0  0  0  0  0  0  0  0  0  0
  -24.8499  -14.0281   20.1443 C   0  0  0  0  0  0  0  0  0  0  0  0
  -22.7782  -15.0168   21.1337 C   0  0  0  0  0  0  0  0  0  0  0  0
  -28.9318  -29.8140   20.4252 C   0  0  0  0  0  0  0  0  0  0  0  0
  -26.2727  -30.7105   22.0525 C   0  0  0  0  0  0  0  0  0  0  0  0
  -30.1786  -14.1952   17.3714 C   0  0  0  0  0  0  0  0  0  0  0  0
  -23.2355  -29.8414   23.3435 C   0  0  0  0  0  0  0  0  0  0  0  0
  -32.7623  -32.1196   17.9616 C   0  0  0  0  0  0  0  0  0  0  0  0
  -27.1048  -29.0253   18.8774 C   0  0  0  0  0  0  0  0  0  0  0  0
  -26.5866  -28.2350   21.6795 C   0  0  0  0  0  0  0  0  0  0  0  0
  -31.8047  -32.4977   19.0887 C   0  0  0  0  0  0  0  0  0  0  0  0
  -29.0273  -11.7497   19.7239 C   0  0  0  0  0  0  0  0  0  0  0  0
  -31.7600  -31.3964   20.1432 C   0  0  0  0  0  0  0  0  0  0  0  0
  -27.8453  -12.4368   20.4065 C   0  0  0  0  0  0  0  0  0  0  0  0
  -30.1276  -12.7471   19.3751 C   0  0  0  0  0  0  0  0  0  0  0  0
  -28.4806  -14.5873   19.2246 C   0  0  0  0  0  0  0  0  0  0  0  0
  -31.2441  -30.0816   19.5462 C   0  0  1  0  0  0  0  0  0  0  0  0
  -27.4816  -29.9270   20.0489 C   0  0  1  0  0  0  0  0  0  0  0  0
  -27.3333  -13.6202   19.5663 C   0  0  2  0  0  0  0  0  0  0  0  0
  -32.3609  -15.9436   19.2508 C   0  0  0  0  0  0  0  0  0  0  0  0
  -21.3108  -30.7780   24.6533 C   0  0  0  0  0  0  0  0  0  0  0  0
  -31.3475  -15.8997   16.0370 C   0  0  0  0  0  0  0  0  0  0  0  0
  -28.8593  -15.6922   16.0283 C   0  0  0  0  0  0  0  0  0  0  0  0
  -27.9296  -30.5345   24.6085 C   0  0  0  0  0  0  0  0  0  0  0  0
  -25.7918  -30.5367   25.9116 C   0  0  0  0  0  0  0  0  0  0  0  0
  -26.3900  -32.5021   24.4967 C   0  0  0  0  0  0  0  0  0  0  0  0
  -21.3354  -29.3417   21.1301 C   0  0  0  0  0  0  0  0  0  0  0  0
  -28.5288  -20.3749   19.5613 C   0  0  0  0  0  0  0  0  0  0  0  0
  -27.7208  -21.4129   20.3418 C   0  0  0  0  0  0  0  0  0  0  0  0
  -28.8669  -19.1307   20.3903 C   0  0  0  0  0  0  0  0  0  0  0  0
  -27.3739  -22.6172   19.4768 C   0  0  0  0  0  0  0  0  0  1  0  0
  -25.6631  -30.3505   23.3858 C   0  0  1  0  0  0  0  0  0  0  0  0
  -21.8779  -30.5162   23.2667 C   0  0  2  0  0  0  0  0  0  0  0  0
  -30.1163  -15.6445   16.9594 C   0  0  0  0  0  0  0  0  0  0  0  0
  -26.4484  -30.9613   24.5807 C   0  0  0  0  0  0  0  0  0  0  0  0
  -26.4348  -15.3836   21.0380 N   0  0  0  0  0  0  0  0  0  0  0  0
  -30.7723  -17.6015   20.0385 N   0  0  0  0  0  0  0  0  0  0  0  0
  -29.5815  -18.0550   19.6116 N   0  0  0  0  0  0  0  0  0  0  0  0
  -26.1760  -14.3314   20.2430 N   0  0  0  0  0  0  0  0  0  0  0  0
  -26.7036  -29.6402   21.2559 N   0  0  0  0  0  0  0  0  0  0  0  0
  -29.5968  -13.8672   18.5961 N   0  0  0  0  0  0  0  0  0  0  0  0
  -24.4146  -12.9997   19.3859 N   0  0  0  0  0  0  0  0  0  0  0  0
  -22.2735  -16.0210   21.9711 N   0  0  0  0  0  0  0  0  0  0  0  0
  -29.8049  -30.1233   19.3998 N   0  0  0  0  0  0  0  0  0  0  0  0
  -24.2642  -30.7592   23.3187 N   0  0  0  0  0  0  0  0  0  0  0  0
  -20.9149  -29.6591   22.5192 N   0  3  0  0  0  0  0  0  0  0  0  0
  -21.9842  -14.2038   20.6025 O   0  0  0  0  0  0  0  0  0  0  0  0
  -29.2362  -29.4731   21.5622 O   0  0  0  0  0  0  0  0  0  0  0  0
  -26.3567  -31.8972   21.7266 O   0  0  0  0  0  0  0  0  0  0  0  0
  -30.7260  -13.3800   16.6244 O   0  0  0  0  0  0  0  0  0  0  0  0
  -23.3698  -28.6222   23.4217 O   0  0  0  0  0  0  0  0  0  0  0  0
  -24.6508  -20.1099   24.9146 O   0  0  0  0  0  0  0  0  0  0  0  0
  -26.6361  -23.5523   20.2627 O   0  0  0  0  0  0  0  0  0  1  0  0
  -27.5341  -24.6728   23.7874 F   0  0  0  0  0  0  0  0  0  0  0  0
  -23.3722  -22.5146   24.4400 F   0  0  0  0  0  0  0  0  0  0  0  0
  1  2  1  0  0  0  0
  1  5  2  0  0  0  0
  2  6  2  0  0  0  0
  3  8  2  0  0  0  0
  3 16  1  0  0  0  0
  4  9  1  0  0  0  0
  4 16  2  0  0  0  0
  5 18  1  0  0  0  0
  6 20  1  0  0  0  0
  7 10  2  0  0  0  0
  7 19  1  0  0  0  0
  8 23  1  0  0  0  0
  9 23  2  0  0  0  0
 10 24  1  0  0  0  0
 11 12  2  0  0  0  0
 11 25  1  0  0  0  0
 12 26  1  0  0  0  0
 13 21  1  0  0  0  0
 13 24  2  0  0  0  0
 14 26  2  0  0  0  0
 14 27  1  0  0  0  0
 15 22  2  0  0  0  0
 15 66  1  0  0  0  0
 16 28  1  0  0  0  0
 17 28  1  0  0  0  0
 17 30  2  0  0  0  0
 17 31  1  0  0  0  0
 18 20  2  0  0  0  0
 18 36  1  0  0  0  0
 19 21  2  0  0  0  0
 19 37  1  0  0  0  0
 20 45  1  0  0  0  0
 21 38  1  0  0  0  0
 22 29  1  0  0  0  0
 22 62  1  0  0  0  0
 23 80  1  0  0  0  0
 24 81  1  0  0  0  0
 25 27  2  0  0  0  0
 25 80  1  0  0  0  0
 26 82  1  0  0  0  0
 27 83  1  0  0  0  0
 28 64  2  0  0  0  0
 29 48  1  0  0  0  0
 29 65  2  0  0  0  0
 30 67  1  0  0  0  0
 30 70  1  0  0  0  0
 31 71  1  0  0  0  0
 31 75  2  0  0  0  0
 32 46  1  0  0  0  0
 32 72  1  0  0  0  0
 32 76  2  0  0  0  0
 33 60  1  0  0  0  0
 33 68  1  0  0  0  0
 33 77  2  0  0  0  0
 34 62  1  0  0  0  0
 34 69  1  0  0  0  0
 34 78  2  0  0  0  0
 35 61  1  0  0  0  0
 35 73  1  0  0  0  0
 35 79  2  0  0  0  0
 36 39  1  0  0  0  0
 37 46  1  0  0  0  0
 38 68  1  0  0  0  0
 39 41  1  0  0  0  0
 40 42  1  0  0  0  0
 40 43  1  0  0  0  0
 41 45  1  0  0  0  0
 42 47  1  0  0  0  0
 43 69  1  0  0  0  0
 44 47  1  0  0  0  0
 44 69  1  0  0  0  0
 45 72  1  0  0  0  0
 46 68  1  0  0  0  0
 47 67  1  0  0  0  0
 49 61  1  0  0  0  0
 50 62  1  0  0  0  0
 51 62  1  0  0  0  0
 52 63  1  0  0  0  0
 53 63  1  0  0  0  0
 54 63  1  0  0  0  0
 55 74  1  0  0  0  0
 56 57  1  0  0  0  0
 56 58  1  0  0  0  0
 57 59  1  0  0  0  0
 58 66  1  0  0  0  0
 59 81  1  0  0  0  0
 60 63  1  0  0  0  0
 60 73  1  0  0  0  0
 61 74  1  0  0  0  0
 64 67  1  0  0  0  0
 65 66  1  0  0  0  0
M  CHG  1  74   1
M  ISO  4  34 100  59 101  62 100  81 101
M  END
> <Batch ID>
0091

> <Smiles>
CNC(C)C(=O)NC(C(=O)N1Cc2cc([101O:1][101CH2:1]CCCn3cc([100C:0](C)(C)[100C:0](=O)N4CCCC(n5nc(-c6ccc(Oc7ccc(F)cc7F)cc6)c(C(N)=O)c5N)C4)c(C)n3)ccc2CC1C(=O)NC1CCCc2ccccc21)C(C)(C)C

> <Shape>
0.216

> <Color>
0.107

> <Negative vol penalty>
0.000

$$$$

  -OEChem-04052319113D

 86 94  0     1  0  0  0  0  0999 V2000
  -21.3458  -30.7063   16.1576 C   0  0  0  0  0  0  0  0  0  0  0  0
  -22.2962  -29.7037   15.9936 C   0  0  0  0  0  0  0  0  0  0  0  0
  -23.0679   -9.9320   19.9218 C   0  0  0  0  0  0  0  0  0  0  0  0
  -23.8533   -9.8881   22.2062 C   0  0  0  0  0  0  0  0  0  0  0  0
  -21.2824  -31.4157   17.3562 C   0  0  0  0  0  0  0  0  0  0  0  0
  -23.1845  -29.4107   17.0278 C   0  0  0  0  0  0  0  0  0  0  0  0
  -25.4400  -23.9094   18.4956 C   0  0  0  0  0  0  0  0  0  0  0  0
  -22.3203   -8.7781   20.1566 C   0  0  0  0  0  0  0  0  0  0  0  0
  -23.1056   -8.7342   22.4410 C   0  0  0  0  0  0  0  0  0  0  0  0
  -26.6516  -23.2842   18.2042 C   0  0  0  0  0  0  0  0  0  0  0  0
  -19.8799   -7.9419   23.0634 C   0  0  0  0  0  0  0  0  0  0  0  0
  -19.1358   -7.8822   24.2416 C   0  0  0  0  0  0  0  0  0  0  0  0
  -27.5308  -24.0102   20.3299 C   0  0  0  0  0  0  0  0  0  0  0  0
  -27.3158  -19.5886   19.9360 C   0  0  0  0  0  0  0  0  0  0  0  0
  -20.3743   -5.9234   24.9246 C   0  0  0  0  0  0  0  0  0  0  0  0
  -23.8344  -10.4870   20.9466 C   0  0  0  0  0  0  0  0  0  0  0  0
  -24.1893  -13.0122   20.8741 C   0  0  0  0  0  0  0  0  0  0  0  0
  -22.1640  -31.1247   18.4091 C   0  0  0  0  0  0  0  0  0  0  0  0
  -25.2682  -24.6002   19.7038 C   0  0  0  0  0  0  0  0  0  0  0  0
  -23.1337  -30.1178   18.2411 C   0  0  0  0  0  0  0  0  0  0  0  0
  -26.3153  -24.6412   20.6355 C   0  0  0  0  0  0  0  0  0  0  0  0
  -28.6721  -19.2828   19.9544 C   0  0  0  0  0  0  0  0  0  0  0  0
  -26.4684  -19.0228   20.8820 C   0  0  0  0  0  0  0  0  0  0  0  0
  -22.3392   -8.1792   21.4162 C   0  0  0  0  0  0  0  0  0  0  0  0
  -27.6982  -23.3370   19.1201 C   0  0  0  0  0  0  0  0  0  0  0  0
  -20.8712   -6.9922   22.8156 C   0  0  0  0  0  0  0  0  0  0  0  0
  -19.3830   -6.8730   25.1723 C   0  0  0  0  0  0  0  0  0  0  0  0
  -21.1184   -5.9830   23.7463 C   0  0  0  0  0  0  0  0  0  0  0  0
  -24.6074  -11.6787   20.7045 C   0  0  0  0  0  0  0  0  0  0  0  0
  -29.1275  -18.4125   20.9316 C   0  0  0  0  0  0  0  0  0  0  0  0
  -27.0224  -18.1640   21.8176 C   0  0  0  0  0  0  0  0  0  0  0  0
  -25.2815  -13.7629   20.5139 C   0  0  0  0  0  0  0  0  0  0  0  0
  -22.9265  -13.5263   21.3176 C   0  0  0  0  0  0  0  0  0  0  0  0
  -24.6566  -27.6174   20.4953 C   0  0  0  0  0  0  0  0  0  0  0  0
  -24.4555  -26.3825   23.4881 C   0  0  0  0  0  0  0  0  0  0  0  0
  -25.3194  -23.8964   25.6605 C   0  0  0  0  0  0  0  0  0  0  0  0
  -30.7728  -14.7480   20.6613 C   0  0  0  0  0  0  0  0  0  0  0  0
  -22.0881  -31.9506   19.6688 C   0  0  0  0  0  0  0  0  0  0  0  0
  -23.9461  -25.2467   20.0148 C   0  0  0  0  0  0  0  0  0  0  0  0
  -26.1748  -25.3526   21.9556 C   0  0  0  0  0  0  0  0  0  0  0  0
  -22.8208  -31.3246   20.8527 C   0  0  0  0  0  0  0  0  0  0  0  0
  -29.5952  -12.4189   18.2395 C   0  0  0  0  0  0  0  0  0  0  0  0
  -24.2028  -30.8379   20.4284 C   0  0  0  0  0  0  0  0  0  0  0  0
  -28.1610  -12.1243   18.6825 C   0  0  0  0  0  0  0  0  0  0  0  0
  -30.5268  -12.6102   19.4342 C   0  0  0  0  0  0  0  0  0  0  0  0
  -28.6448  -13.3232   20.8567 C   0  0  0  0  0  0  0  0  0  0  0  0
  -24.0984  -29.7539   19.3487 C   0  0  1  0  0  0  0  0  0  0  0  0
  -24.0545  -26.3589   21.0533 C   0  0  1  0  0  0  0  0  0  0  0  0
  -27.6566  -13.1780   19.6867 C   0  0  2  0  0  0  0  0  0  0  0  0
  -26.1595  -17.5285   22.8581 C   0  0  0  0  0  0  0  0  0  0  0  0
  -24.3214  -18.8929   19.5678 C   0  0  0  0  0  0  0  0  0  0  0  0
  -24.7396  -20.8431   21.1095 C   0  0  0  0  0  0  0  0  0  0  0  0
  -25.0356  -23.1808   28.0490 C   0  0  0  0  0  0  0  0  0  0  0  0
  -26.4900  -28.4839   24.3568 C   0  0  0  0  0  0  0  0  0  0  0  0
  -26.8730  -27.1507   26.4410 C   0  0  0  0  0  0  0  0  0  0  0  0
  -24.6190  -28.1121   25.9741 C   0  0  0  0  0  0  0  0  0  0  0  0
  -23.9638  -21.3874   24.8693 C   0  0  0  0  0  0  0  0  0  0  0  0
  -29.5964  -19.8932   18.9313 C   0  0  0  0  0  0  0  0  0  0  0  0
  -30.5740  -18.0465   20.9997 C   0  0  0  0  0  0  0  0  0  0  0  0
  -30.4552  -21.0345   19.4804 C   0  0  0  0  0  0  0  0  0  0  0  0
  -30.8646  -16.8725   21.9408 C   0  0  0  0  0  0  0  0  0  0  0  0
  -29.6390  -22.2358   19.9428 C   0  0  0  0  0  0  0  0  0  1  0  0
  -25.0142  -19.3461   20.8676 C   0  0  0  0  0  0  0  0  0  0  0  0
  -25.4326  -26.1426   24.6135 C   0  0  1  0  0  0  0  0  0  0  0  0
  -24.4915  -23.0756   26.6328 C   0  0  2  0  0  0  0  0  0  0  0  0
  -25.8573  -27.4605   25.3207 C   0  0  0  0  0  0  0  0  0  0  0  0
  -25.8669  -11.5845   20.2702 N   0  0  0  0  0  0  0  0  0  0  0  0
  -28.3348  -17.8432   21.8670 N   0  0  0  0  0  0  0  0  0  0  0  0
  -26.2497  -12.8683   20.1637 N   0  0  0  0  0  0  0  0  0  0  0  0
  -24.8650  -25.9746   22.2107 N   0  0  0  0  0  0  0  0  0  0  0  0
  -29.9920  -13.6234   20.3471 N   0  0  0  0  0  0  0  0  0  0  0  0
  -25.4987  -15.0945   20.4656 N   0  0  0  0  0  0  0  0  0  0  0  0
  -21.9132  -12.6159   21.6477 N   0  0  0  0  0  0  0  0  0  0  0  0
  -23.7346  -28.4844   19.9407 N   0  0  0  0  0  0  0  0  0  0  0  0
  -24.8057  -25.1655   25.4971 N   0  0  0  0  0  0  0  0  0  0  0  0
  -30.1883  -15.6627   21.5287 N   0  0  0  0  0  0  0  0  0  0  0  0
  -24.4957  -21.6399   26.2332 N   0  3  0  0  0  0  0  0  0  0  0  0
  -22.6979  -14.7567   21.4026 O   0  0  0  0  0  0  0  0  0  0  0  0
  -25.8679  -27.7897   20.5641 O   0  0  0  0  0  0  0  0  0  0  0  0
  -23.3660  -26.9059   23.7345 O   0  0  0  0  0  0  0  0  0  0  0  0
  -26.3236  -23.4570   25.1047 O   0  0  0  0  0  0  0  0  0  0  0  0
  -31.9046  -14.9265   20.1986 O   0  0  0  0  0  0  0  0  0  0  0  0
  -21.6096   -7.0533   21.6457 O   0  0  0  0  0  0  0  0  0  0  0  0
  -28.8820  -22.7281   18.8378 O   0  0  0  0  0  0  0  0  0  1  0  0
  -18.6694   -6.8167   26.3044 F   0  0  0  0  0  0  0  0  0  0  0  0
  -22.0702   -5.0687   23.5144 F   0  0  0  0  0  0  0  0  0  0  0  0
  1  2  1  0  0  0  0
  1  5  2  0  0  0  0
  2  6  2  0  0  0  0
  3  8  2  0  0  0  0
  3 16  1  0  0  0  0
  4  9  1  0  0  0  0
  4 16  2  0  0  0  0
  5 18  1  0  0  0  0
  6 20  1  0  0  0  0
  7 10  2  0  0  0  0
  7 19  1  0  0  0  0
  8 24  1  0  0  0  0
  9 24  2  0  0  0  0
 10 25  1  0  0  0  0
 11 12  2  0  0  0  0
 11 26  1  0  0  0  0
 12 27  1  0  0  0  0
 13 21  1  0  0  0  0
 13 25  2  0  0  0  0
 14 22  1  0  0  0  0
 14 23  2  0  0  0  0
 15 27  2  0  0  0  0
 15 28  1  0  0  0  0
 16 29  1  0  0  0  0
 17 29  1  0  0  0  0
 17 32  2  0  0  0  0
 17 33  1  0  0  0  0
 18 20  2  0  0  0  0
 18 38  1  0  0  0  0
 19 21  2  0  0  0  0
 19 39  1  0  0  0  0
 20 47  1  0  0  0  0
 21 40  1  0  0  0  0
 22 30  2  0  0  0  0
 22 58  1  0  0  0  0
 23 31  1  0  0  0  0
 23 63  1  0  0  0  0
 24 83  1  0  0  0  0
 25 84  1  0  0  0  0
 26 28  2  0  0  0  0
 26 83  1  0  0  0  0
 27 85  1  0  0  0  0
 28 86  1  0  0  0  0
 29 67  2  0  0  0  0
 30 59  1  0  0  0  0
 30 68  1  0  0  0  0
 31 50  1  0  0  0  0
 31 68  2  0  0  0  0
 32 69  1  0  0  0  0
 32 72  1  0  0  0  0
 33 73  1  0  0  0  0
 33 78  2  0  0  0  0
 34 48  1  0  0  0  0
 34 74  1  0  0  0  0
 34 79  2  0  0  0  0
 35 64  1  0  0  0  0
 35 70  1  0  0  0  0
 35 80  2  0  0  0  0
 36 65  1  0  0  0  0
 36 75  1  0  0  0  0
 36 81  2  0  0  0  0
 37 71  1  0  0  0  0
 37 76  1  0  0  0  0
 37 82  2  0  0  0  0
 38 41  1  0  0  0  0
 39 48  1  0  0  0  0
 40 70  1  0  0  0  0
 41 43  1  0  0  0  0
 42 44  1  0  0  0  0
 42 45  1  0  0  0  0
 43 47  1  0  0  0  0
 44 49  1  0  0  0  0
 45 71  1  0  0  0  0
 46 49  1  0  0  0  0
 46 71  1  0  0  0  0
 47 74  1  0  0  0  0
 48 70  1  0  0  0  0
 49 69  1  0  0  0  0
 51 63  1  0  0  0  0
 52 63  1  0  0  0  0
 53 65  1  0  0  0  0
 54 66  1  0  0  0  0
 55 66  1  0  0  0  0
 56 66  1  0  0  0  0
 57 77  1  0  0  0  0
 58 60  1  0  0  0  0
 59 61  1  0  0  0  0
 60 62  1  0  0  0  0
 61 76  1  0  0  0  0
 62 84  1  0  0  0  0
 64 66  1  0  0  0  0
 64 75  1  0  0  0  0
 65 77  1  0  0  0  0
 67 69  1  0  0  0  0
M  CHG  1  77   1
M  ISO  4  37 100  62 101  76 100  84 101
M  END
> <Batch ID>
0091

> <Smiles>
CNC(C)C(=O)NC(C(=O)N1Cc2cc([101O:1][101CH2:1]CCc3cc(C(C)C)c(C)nc3CC[100NH:0][100C:0](=O)N3CCCC(n4nc(-c5ccc(Oc6ccc(F)cc6F)cc5)c(C(N)=O)c4N)C3)ccc2CC1C(=O)NC1CCCc2ccccc21)C(C)(C)C

> <Shape>
0.265

> <Color>
0.215

> <Negative vol penalty>
0.000

$$$$

  -OEChem-04052319113D

 91 99  0     1  0  0  0  0  0999 V2000
  -26.9419  -27.3610   31.5851 C   0  0  0  0  0  0  0  0  0  0  0  0
  -27.5809  -26.8530   30.4585 C   0  0  0  0  0  0  0  0  0  0  0  0
  -23.0741   -9.8693   19.9426 C   0  0  0  0  0  0  0  0  0  0  0  0
  -23.8383   -9.8761   22.2345 C   0  0  0  0  0  0  0  0  0  0  0  0
  -25.5962  -27.0744   31.8104 C   0  0  0  0  0  0  0  0  0  0  0  0
  -26.8746  -26.0572   29.5572 C   0  0  0  0  0  0  0  0  0  0  0  0
  -26.5044  -24.5156   22.5713 C   0  0  0  0  0  0  0  0  0  0  0  0
  -28.6869  -18.9480   21.0360 C   0  0  0  0  0  0  0  0  0  0  0  0
  -22.3311   -8.7158   20.1938 C   0  0  0  0  0  0  0  0  0  0  0  0
  -23.0952   -8.7227   22.4857 C   0  0  0  0  0  0  0  0  0  0  0  0
  -26.5117  -23.4209   21.7080 C   0  0  0  0  0  0  0  0  0  0  0  0
  -19.8684   -7.9237   23.0942 C   0  0  0  0  0  0  0  0  0  0  0  0
  -19.1137   -7.8834   24.2665 C   0  0  0  0  0  0  0  0  0  0  0  0
  -27.4844  -19.3086   20.4385 C   0  0  0  0  0  0  0  0  0  0  0  0
  -24.1700  -23.0573   22.1587 C   0  0  0  0  0  0  0  0  0  0  0  0
  -20.3571   -5.9462   25.0003 C   0  0  0  0  0  0  0  0  0  0  0  0
  -23.8278  -10.4494   20.9630 C   0  0  0  0  0  0  0  0  0  0  0  0
  -24.1686  -12.9747   20.8427 C   0  0  0  0  0  0  0  0  0  0  0  0
  -24.8706  -26.2827   30.9064 C   0  0  0  0  0  0  0  0  0  0  0  0
  -25.3304  -24.8835   23.2443 C   0  0  0  0  0  0  0  0  0  0  0  0
  -25.5183  -25.7587   29.7714 C   0  0  0  0  0  0  0  0  0  0  0  0
  -24.1497  -24.1587   23.0280 C   0  0  0  0  0  0  0  0  0  0  0  0
  -28.6782  -18.1756   22.1922 C   0  0  0  0  0  0  0  0  0  0  0  0
  -22.3416   -8.1426   21.4653 C   0  0  0  0  0  0  0  0  0  0  0  0
  -25.3452  -22.6898   21.5039 C   0  0  0  0  0  0  0  0  0  0  0  0
  -20.8675   -6.9753   22.8748 C   0  0  0  0  0  0  0  0  0  0  0  0
  -19.3580   -6.8946   25.2196 C   0  0  0  0  0  0  0  0  0  0  0  0
  -21.1118   -5.9866   23.8279 C   0  0  0  0  0  0  0  0  0  0  0  0
  -24.5960  -11.6406   20.7040 C   0  0  0  0  0  0  0  0  0  0  0  0
  -26.3097  -18.8750   21.0317 C   0  0  0  0  0  0  0  0  0  0  0  0
  -27.4501  -17.7929   22.7070 C   0  0  0  0  0  0  0  0  0  0  0  0
  -25.2598  -13.7246   20.4775 C   0  0  0  0  0  0  0  0  0  0  0  0
  -22.8987  -13.4900   21.2641 C   0  0  0  0  0  0  0  0  0  0  0  0
  -24.4625  -25.0821   26.2957 C   0  0  0  0  0  0  0  0  0  0  0  0
  -21.7627  -26.3687   25.0396 C   0  0  0  0  0  0  0  0  0  0  0  0
  -19.6738  -26.6718   22.3578 C   0  0  0  0  0  0  0  0  0  0  0  0
  -30.7436  -14.7453   20.6558 C   0  0  0  0  0  0  0  0  0  0  0  0
  -23.4302  -25.9610   31.2170 C   0  0  0  0  0  0  0  0  0  0  0  0
  -25.3324  -26.0831   24.1516 C   0  0  0  0  0  0  0  0  0  0  0  0
  -22.8581  -24.5249   23.7108 C   0  0  0  0  0  0  0  0  0  0  0  0
  -22.6550  -25.4194   30.0187 C   0  0  0  0  0  0  0  0  0  0  0  0
  -29.6022  -12.3608   18.2708 C   0  0  0  0  0  0  0  0  0  0  0  0
  -23.4638  -24.3428   29.3020 C   0  0  0  0  0  0  0  0  0  0  0  0
  -28.1657  -12.0666   18.7063 C   0  0  0  0  0  0  0  0  0  0  0  0
  -30.5216  -12.5818   19.4699 C   0  0  0  0  0  0  0  0  0  0  0  0
  -28.6222  -13.3120   20.8602 C   0  0  0  0  0  0  0  0  0  0  0  0
  -24.7796  -24.9120   28.7577 C   0  0  1  0  0  0  0  0  0  0  0  0
  -24.2064  -26.0560   25.1805 C   0  0  1  0  0  0  0  0  0  0  0  0
  -27.6459  -13.1373   19.6844 C   0  0  2  0  0  0  0  0  0  0  0  0
  -30.9598  -20.9651   24.9048 C   0  0  0  0  0  0  0  0  0  0  0  0
  -17.5280  -27.7604   21.6454 C   0  0  0  0  0  0  0  0  0  0  0  0
  -23.4309  -15.9225   25.9533 C   0  0  0  0  0  0  0  0  0  0  0  0
  -24.1911  -13.9805   24.5780 C   0  0  0  0  0  0  0  0  0  0  0  0
  -24.6332  -14.0078   27.0367 C   0  0  0  0  0  0  0  0  0  0  0  0
  -20.1858  -24.2903   26.6219 C   0  0  0  0  0  0  0  0  0  0  0  0
  -18.2068  -24.7899   25.1720 C   0  0  0  0  0  0  0  0  0  0  0  0
  -19.1784  -26.5793   26.6130 C   0  0  0  0  0  0  0  0  0  0  0  0
  -21.0293  -28.2167   20.2283 C   0  0  0  0  0  0  0  0  0  0  0  0
  -24.9859  -19.2465   20.4089 C   0  0  0  0  0  0  0  0  0  0  0  0
  -27.3797  -16.9601   23.9449 C   0  0  0  0  0  0  0  0  0  0  0  0
  -30.0879  -19.8248   24.4017 C   0  0  0  0  0  0  0  0  0  0  0  0
  -25.9736  -16.3825   24.1766 C   0  0  0  0  0  0  0  0  0  0  0  0
  -30.8085  -19.0036   23.3262 C   0  0  0  0  0  0  0  0  0  0  0  0
  -25.9099  -15.5667   25.4740 C   0  0  0  0  0  0  0  0  0  0  0  0
  -30.8110  -16.8957   21.8929 C   0  0  0  0  0  0  0  0  0  0  0  0
  -24.4381  -20.5616   20.9525 C   0  0  0  0  0  0  0  0  0  1  0  0
  -29.9632  -17.7872   22.8376 C   0  0  2  0  0  0  0  0  0  0  0  0
  -20.4410  -25.8206   24.5582 C   0  0  1  0  0  0  0  0  0  0  0  0
  -19.0422  -27.8883   21.7055 C   0  0  2  0  0  0  0  0  0  0  0  0
  -24.5495  -14.8828   25.7752 C   0  0  0  0  0  0  0  0  0  0  0  0
  -19.5276  -25.3617   25.7297 C   0  0  0  0  0  0  0  0  0  0  0  0
  -25.8601  -11.5452   20.2833 N   0  0  0  0  0  0  0  0  0  0  0  0
  -26.2614  -18.1237   22.1546 N   0  0  0  0  0  0  0  0  0  0  0  0
  -26.2363  -12.8289   20.1545 N   0  0  0  0  0  0  0  0  0  0  0  0
  -22.9125  -25.7021   24.5933 N   0  0  0  0  0  0  0  0  0  0  0  0
  -29.9723  -13.6100   20.3571 N   0  0  0  0  0  0  0  0  0  0  0  0
  -25.4696  -15.0561   20.4043 N   0  0  0  0  0  0  0  0  0  0  0  0
  -21.8877  -12.5805   21.6031 N   0  0  0  0  0  0  0  0  0  0  0  0
  -24.5409  -25.6660   27.5456 N   0  0  0  0  0  0  0  0  0  0  0  0
  -19.8540  -26.8545   23.7126 N   0  0  0  0  0  0  0  0  0  0  0  0
  -30.1457  -15.6738   21.4991 N   0  0  0  0  0  0  0  0  0  0  0  0
  -19.5551  -28.0561   20.3163 N   0  3  0  0  0  0  0  0  0  0  0  0
  -22.6622  -14.7205   21.3221 O   0  0  0  0  0  0  0  0  0  0  0  0
  -24.5788  -23.8891   26.0411 O   0  0  0  0  0  0  0  0  0  0  0  0
  -21.7747  -27.3564   25.7785 O   0  0  0  0  0  0  0  0  0  0  0  0
  -19.9738  -25.6592   21.7292 O   0  0  0  0  0  0  0  0  0  0  0  0
  -31.8786  -14.9212   20.2001 O   0  0  0  0  0  0  0  0  0  0  0  0
  -21.6165   -7.0172   21.7108 O   0  0  0  0  0  0  0  0  0  0  0  0
  -25.3498  -21.6204   20.6623 O   0  0  0  0  0  0  0  0  0  1  0  0
  -18.6342   -6.8569   26.3460 F   0  0  0  0  0  0  0  0  0  0  0  0
  -22.0711   -5.0734   23.6233 F   0  0  0  0  0  0  0  0  0  0  0  0
  1  2  1  0  0  0  0
  1  5  2  0  0  0  0
  2  6  2  0  0  0  0
  3  9  2  0  0  0  0
  3 17  1  0  0  0  0
  4 10  1  0  0  0  0
  4 17  2  0  0  0  0
  5 19  1  0  0  0  0
  6 21  1  0  0  0  0
  7 11  2  0  0  0  0
  7 20  1  0  0  0  0
  8 14  2  0  0  0  0
  8 23  1  0  0  0  0
  9 24  1  0  0  0  0
 10 24  2  0  0  0  0
 11 25  1  0  0  0  0
 12 13  2  0  0  0  0
 12 26  1  0  0  0  0
 13 27  1  0  0  0  0
 14 30  1  0  0  0  0
 15 22  1  0  0  0  0
 15 25  2  0  0  0  0
 16 27  2  0  0  0  0
 16 28  1  0  0  0  0
 17 29  1  0  0  0  0
 18 29  1  0  0  0  0
 18 32  2  0  0  0  0
 18 33  1  0  0  0  0
 19 21  2  0  0  0  0
 19 38  1  0  0  0  0
 20 22  2  0  0  0  0
 20 39  1  0  0  0  0
 21 47  1  0  0  0  0
 22 40  1  0  0  0  0
 23 31  2  0  0  0  0
 23 67  1  0  0  0  0
 24 88  1  0  0  0  0
 25 89  1  0  0  0  0
 26 28  2  0  0  0  0
 26 88  1  0  0  0  0
 27 90  1  0  0  0  0
 28 91  1  0  0  0  0
 29 72  2  0  0  0  0
 30 59  1  0  0  0  0
 30 73  2  0  0  0  0
 31 60  1  0  0  0  0
 31 73  1  0  0  0  0
 32 74  1  0  0  0  0
 32 77  1  0  0  0  0
 33 78  1  0  0  0  0
 33 83  2  0  0  0  0
 34 48  1  0  0  0  0
 34 79  1  0  0  0  0
 34 84  2  0  0  0  0
 35 68  1  0  0  0  0
 35 75  1  0  0  0  0
 35 85  2  0  0  0  0
 36 69  1  0  0  0  0
 36 80  1  0  0  0  0
 36 86  2  0  0  0  0
 37 76  1  0  0  0  0
 37 81  1  0  0  0  0
 37 87  2  0  0  0  0
 38 41  1  0  0  0  0
 39 48  1  0  0  0  0
 40 75  1  0  0  0  0
 41 43  1  0  0  0  0
 42 44  1  0  0  0  0
 42 45  1  0  0  0  0
 43 47  1  0  0  0  0
 44 49  1  0  0  0  0
 45 76  1  0  0  0  0
 46 49  1  0  0  0  0
 46 76  1  0  0  0  0
 47 79  1  0  0  0  0
 48 75  1  0  0  0  0
 49 74  1  0  0  0  0
 50 61  1  0  0  0  0
 51 69  1  0  0  0  0
 52 70  1  0  0  0  0
 53 70  1  0  0  0  0
 54 70  1  0  0  0  0
 55 71  1  0  0  0  0
 56 71  1  0  0  0  0
 57 71  1  0  0  0  0
 58 82  1  0  0  0  0
 59 66  1  0  0  0  0
 60 62  1  0  0  0  0
 61 63  1  0  0  0  0
 62 64  1  0  0  0  0
 63 67  1  0  0  0  0
 64 70  1  0  0  0  0
 65 67  1  0  0  0  0
 65 81  1  0  0  0  0
 66 89  1  0  0  0  0
 68 71  1  0  0  0  0
 68 80  1  0  0  0  0
 69 82  1  0  0  0  0
 72 74  1  0  0  0  0
M  CHG  1  82   1
M  ISO  4  37 100  66 101  81 100  89 101
M  END
> <Batch ID>
0091

> <Smiles>
CCCC(C[100NH:0][100C:0](=O)N1CCCC(n2nc(-c3ccc(Oc4ccc(F)cc4F)cc3)c(C(N)=O)c2N)C1)c1ccc(C[101CH2:1][101O:1]c2ccc3c(c2)CN(C(=O)C(NC(=O)C(C)NC)C(C)(C)C)C(C(=O)NC2CCCc4ccccc42)C3)nc1CCCC(C)(C)C

> <Shape>
0.215

> <Color>
0.184

> <Negative vol penalty>
0.000

$$$$

  -OEChem-04052319113D

 87 95  0     1  0  0  0  0  0999 V2000
  -26.5156  -35.4496   23.1154 C   0  0  0  0  0  0  0  0  0  0  0  0
  -26.9736  -34.1511   22.9168 C   0  0  0  0  0  0  0  0  0  0  0  0
  -25.9004  -16.3903   20.4619 C   0  0  0  0  0  0  0  0  0  0  0  0
  -27.5639  -18.1408   20.5381 C   0  0  0  0  0  0  0  0  0  0  0  0
  -25.2204  -35.6668   23.5835 C   0  0  0  0  0  0  0  0  0  0  0  0
  -26.1369  -33.0689   23.1873 C   0  0  0  0  0  0  0  0  0  0  0  0
  -26.2747  -29.5496   19.5486 C   0  0  0  0  0  0  0  0  0  0  0  0
  -26.8928  -15.4372   20.6906 C   0  0  0  0  0  0  0  0  0  0  0  0
  -28.5563  -17.1877   20.7668 C   0  0  0  0  0  0  0  0  0  0  0  0
  -27.3717  -28.6891   19.5362 C   0  0  0  0  0  0  0  0  0  0  0  0
  -29.2867  -13.8565   18.9032 C   0  0  0  0  0  0  0  0  0  0  0  0
  -29.2690  -12.7026   18.1197 C   0  0  0  0  0  0  0  0  0  0  0  0
  -26.0433  -26.9899   20.6166 C   0  0  0  0  0  0  0  0  0  0  0  0
  -29.0224  -11.3551   20.1097 C   0  0  0  0  0  0  0  0  0  0  0  0
  -27.8526  -25.6161   15.7354 C   0  0  0  0  0  0  0  0  0  0  0  0
  -26.2359  -17.7421   20.3856 C   0  0  0  0  0  0  0  0  0  0  0  0
  -24.4488  -19.4098   21.1154 C   0  0  0  0  0  0  0  0  0  0  0  0
  -24.3641  -34.5870   23.8507 C   0  0  0  0  0  0  0  0  0  0  0  0
  -25.0549  -29.1398   20.1058 C   0  0  0  0  0  0  0  0  0  0  0  0
  -24.8294  -33.2718   23.6607 C   0  0  0  0  0  0  0  0  0  0  0  0
  -24.9317  -27.8461   20.6325 C   0  0  0  0  0  0  0  0  0  0  0  0
  -28.2208  -15.8359   20.8431 C   0  0  0  0  0  0  0  0  0  0  0  0
  -27.2569  -27.4101   20.0729 C   0  0  0  0  0  0  0  0  0  0  0  0
  -29.1724  -13.7596   20.2900 C   0  0  0  0  0  0  0  0  0  0  0  0
  -29.1368  -11.4519   18.7229 C   0  0  0  0  0  0  0  0  0  0  0  0
  -29.0402  -12.5090   20.8933 C   0  0  0  0  0  0  0  0  0  0  0  0
  -25.2113  -18.7271   20.1488 C   0  0  0  0  0  0  0  0  0  0  0  0
  -27.1228  -24.6314   15.1316 C   0  0  0  0  0  0  0  0  0  0  0  0
  -23.6222  -20.2284   20.3853 C   0  0  0  0  0  0  0  0  0  0  0  0
  -29.2603  -24.0673   15.0142 C   0  0  0  0  0  0  0  0  0  0  0  0
  -24.4847  -19.3129   22.5455 C   0  0  0  0  0  0  0  0  0  0  0  0
  -23.2517  -30.1278   22.5299 C   0  0  0  0  0  0  0  0  0  0  0  0
  -21.1826  -27.9063   21.3870 C   0  0  0  0  0  0  0  0  0  0  0  0
  -20.7070  -25.0387   19.5989 C   0  0  0  0  0  0  0  0  0  0  0  0
  -24.0474  -22.6163   14.9110 C   0  0  0  0  0  0  0  0  0  0  0  0
  -22.9884  -34.8701   24.4002 C   0  0  0  0  0  0  0  0  0  0  0  0
  -23.8734  -30.0704   20.0873 C   0  0  0  0  0  0  0  0  0  0  0  0
  -23.6383  -27.3507   21.2242 C   0  0  0  0  0  0  0  0  0  0  0  0
  -22.0380  -33.6793   24.3063 C   0  0  0  0  0  0  0  0  0  0  0  0
  -21.4431  -20.5201   16.1359 C   0  0  0  0  0  0  0  0  0  0  0  0
  -22.7266  -32.4072   24.7905 C   0  0  0  0  0  0  0  0  0  0  0  0
  -22.0447  -19.8845   17.3905 C   0  0  0  0  0  0  0  0  0  0  0  0
  -22.4876  -20.6959   15.0359 C   0  0  0  0  0  0  0  0  0  0  0  0
  -24.3029  -20.7914   16.7000 C   0  0  0  0  0  0  0  0  0  0  0  0
  -23.9433  -32.0726   23.9192 C   0  0  1  0  0  0  0  0  0  0  0  0
  -22.8277  -29.7296   21.1445 C   0  0  1  0  0  0  0  0  0  0  0  0
  -23.3003  -20.6452   17.8574 C   0  0  2  0  0  0  0  0  0  0  0  0
  -30.9260  -24.3881   12.4260 C   0  0  0  0  0  0  0  0  0  0  0  0
  -24.8479  -25.6634   15.4799 C   0  0  0  0  0  0  0  0  0  0  0  0
  -30.5250  -21.9424   15.4331 C   0  0  0  0  0  0  0  0  0  0  0  0
  -19.4559  -23.1871   18.4571 C   0  0  0  0  0  0  0  0  0  0  0  0
  -30.7003  -24.8697   19.9106 C   0  0  0  0  0  0  0  0  0  0  0  0
  -21.1013  -26.7187   24.1965 C   0  0  0  0  0  0  0  0  0  0  0  0
  -20.0941  -24.6468   23.2162 C   0  0  0  0  0  0  0  0  0  0  0  0
  -18.8847  -26.8217   23.0429 C   0  0  0  0  0  0  0  0  0  0  0  0
  -20.4999  -26.5761   17.0785 C   0  0  0  0  0  0  0  0  0  0  0  0
  -30.7565  -23.0820   13.1924 C   0  0  0  0  0  0  0  0  0  0  0  0
  -30.9279  -25.4680   17.4863 C   0  0  0  0  0  0  0  0  0  0  0  0
  -30.3360  -26.0336   16.1878 C   0  0  0  0  0  0  0  0  0  0  0  0
  -29.2614  -26.7194   18.9954 C   0  0  0  0  0  0  0  0  0  1  0  0
  -25.6800  -24.4854   14.9229 C   0  0  2  0  0  0  0  0  0  0  0  0
  -30.4995  -23.3090   14.7106 C   0  0  1  0  0  0  0  0  0  0  0  0
  -20.9487  -26.4356   21.6347 C   0  0  1  0  0  0  0  0  0  0  0  0
  -19.7125  -24.6852   18.5079 C   0  0  2  0  0  0  0  0  0  0  0  0
  -29.9475  -25.3842   18.6769 C   0  0  2  0  0  0  0  0  0  0  0  0
  -20.2823  -26.1654   23.0132 C   0  0  0  0  0  0  0  0  0  0  0  0
  -24.8969  -19.0810   18.8999 N   0  0  0  0  0  0  0  0  0  0  0  0
  -29.1716  -25.2409   15.6487 N   0  0  0  0  0  0  0  0  0  0  0  0
  -23.9276  -19.9950   19.0767 N   0  0  0  0  0  0  0  0  0  0  0  0
  -28.0193  -23.6862   14.6946 N   0  3  0  0  0  0  0  0  0  0  0  0
  -22.5135  -28.3000   21.1884 N   0  0  0  0  0  0  0  0  0  0  0  0
  -23.6518  -21.4261   15.5433 N   0  0  0  0  0  0  0  0  0  0  0  0
  -22.6710  -21.1177   20.7413 N   0  0  0  0  0  0  0  0  0  0  0  0
  -25.3939  -18.4222   23.1322 N   0  0  0  0  0  0  0  0  0  0  0  0
  -23.5216  -31.4757   22.6701 N   0  0  0  0  0  0  0  0  0  0  0  0
  -20.1818  -25.9464   20.4941 N   0  0  0  0  0  0  0  0  0  0  0  0
  -25.1565  -23.2488   15.4591 N   0  0  0  0  0  0  0  0  0  0  0  0
  -20.2264  -25.1193   17.1781 N   0  3  0  0  0  0  0  0  0  0  0  0
  -23.7212  -19.9838   23.2807 O   0  0  0  0  0  0  0  0  0  0  0  0
  -23.3270  -29.2754   23.4071 O   0  0  0  0  0  0  0  0  0  0  0  0
  -20.2192  -28.6762   21.3633 O   0  0  0  0  0  0  0  0  0  0  0  0
  -21.8355  -24.5549   19.6538 O   0  0  0  0  0  0  0  0  0  0  0  0
  -23.4527  -23.0837   13.9338 O   0  0  0  0  0  0  0  0  0  0  0  0
  -29.1894  -14.9062   21.0665 O   0  0  0  0  0  0  0  0  0  0  0  0
  -28.3262  -26.5685   20.0626 O   0  0  0  0  0  0  0  0  0  1  0  0
  -29.1182  -10.3441   17.9702 F   0  0  0  0  0  0  0  0  0  0  0  0
  -28.9287  -12.4097   22.2250 F   0  0  0  0  0  0  0  0  0  0  0  0
  1  2  1  0  0  0  0
  1  5  2  0  0  0  0
  2  6  2  0  0  0  0
  3  8  2  0  0  0  0
  3 16  1  0  0  0  0
  4  9  1  0  0  0  0
  4 16  2  0  0  0  0
  5 18  1  0  0  0  0
  6 20  1  0  0  0  0
  7 10  2  0  0  0  0
  7 19  1  0  0  0  0
  8 22  1  0  0  0  0
  9 22  2  0  0  0  0
 10 23  1  0  0  0  0
 11 12  2  0  0  0  0
 11 24  1  0  0  0  0
 12 25  1  0  0  0  0
 13 21  1  0  0  0  0
 13 23  2  0  0  0  0
 14 25  2  0  0  0  0
 14 26  1  0  0  0  0
 15 28  2  0  0  0  0
 15 68  1  0  0  0  0
 16 27  1  0  0  0  0
 17 27  1  0  0  0  0
 17 29  2  0  0  0  0
 17 31  1  0  0  0  0
 18 20  2  0  0  0  0
 18 36  1  0  0  0  0
 19 21  2  0  0  0  0
 19 37  1  0  0  0  0
 20 45  1  0  0  0  0
 21 38  1  0  0  0  0
 22 84  1  0  0  0  0
 23 85  1  0  0  0  0
 24 26  2  0  0  0  0
 24 84  1  0  0  0  0
 25 86  1  0  0  0  0
 26 87  1  0  0  0  0
 27 67  2  0  0  0  0
 28 61  1  0  0  0  0
 28 70  1  0  0  0  0
 29 69  1  0  0  0  0
 29 73  1  0  0  0  0
 30 62  1  0  0  0  0
 30 68  1  0  0  0  0
 30 70  2  0  0  0  0
 31 74  1  0  0  0  0
 31 79  2  0  0  0  0
 32 46  1  0  0  0  0
 32 75  1  0  0  0  0
 32 80  2  0  0  0  0
 33 63  1  0  0  0  0
 33 71  1  0  0  0  0
 33 81  2  0  0  0  0
 34 64  1  0  0  0  0
 34 76  1  0  0  0  0
 34 82  2  0  0  0  0
 35 72  1  0  0  0  0
 35 77  1  0  0  0  0
 35 83  2  0  0  0  0
 36 39  1  0  0  0  0
 37 46  1  0  0  0  0
 38 71  1  0  0  0  0
 39 41  1  0  0  0  0
 40 42  1  0  0  0  0
 40 43  1  0  0  0  0
 41 45  1  0  0  0  0
 42 47  1  0  0  0  0
 43 72  1  0  0  0  0
 44 47  1  0  0  0  0
 44 72  1  0  0  0  0
 45 75  1  0  0  0  0
 46 71  1  0  0  0  0
 47 69  1  0  0  0  0
 48 57  1  0  0  0  0
 49 61  1  0  0  0  0
 50 62  1  0  0  0  0
 51 64  1  0  0  0  0
 52 65  1  0  0  0  0
 53 66  1  0  0  0  0
 54 66  1  0  0  0  0
 55 66  1  0  0  0  0
 56 78  1  0  0  0  0
 57 62  1  0  0  0  0
 58 59  1  0  0  0  0
 58 65  1  0  0  0  0
 59 68  1  0  0  0  0
 60 65  1  0  0  0  0
 60 85  1  0  0  0  0
 61 77  1  0  0  0  0
 63 66  1  0  0  0  0
 63 76  1  0  0  0  0
 64 78  1  0  0  0  0
 67 69  1  0  0  0  0
M  CHG  2  70   1  78   1
M  ISO  4  35 100  60 101  77 100  85 101
M  END
> <Batch ID>
0091

> <Smiles>
CCC(C)c1nc(C(C)[100NH:0][100C:0](=O)N2CCCC(n3nc(-c4ccc(Oc5ccc(F)cc5F)cc4)c(C(N)=O)c3N)C2)cn1CCC(C)[101CH2:1][101O:1]c1ccc2c(c1)CN(C(=O)C(NC(=O)C(C)NC)C(C)(C)C)C(C(=O)NC1CCCc3ccccc31)C2

> <Shape>
0.219

> <Color>
0.068

> <Negative vol penalty>
0.000

$$$$

  -OEChem-04052319113D

 87 95  0     1  0  0  0  0  0999 V2000
  -28.2388  -23.4873   16.2465 C   0  0  0  0  0  0  0  0  0  0  0  0
  -27.2491  -23.5530   17.2219 C   0  0  0  0  0  0  0  0  0  0  0  0
  -27.0969  -17.3684   19.2265 C   0  0  0  0  0  0  0  0  0  0  0  0
  -27.4102  -16.8853   21.5729 C   0  0  0  0  0  0  0  0  0  0  0  0
  -29.3845  -24.2732   16.3634 C   0  0  0  0  0  0  0  0  0  0  0  0
  -27.4051  -24.4039   18.3156 C   0  0  0  0  0  0  0  0  0  0  0  0
  -23.1954  -27.0185   19.3585 C   0  0  0  0  0  0  0  0  0  0  0  0
  -28.4594  -17.6389   19.1003 C   0  0  0  0  0  0  0  0  0  0  0  0
  -28.7728  -17.1557   21.4466 C   0  0  0  0  0  0  0  0  0  0  0  0
  -22.1795  -26.3457   20.0361 C   0  0  0  0  0  0  0  0  0  0  0  0
  -30.5686  -20.1849   19.8027 C   0  0  0  0  0  0  0  0  0  0  0  0
  -30.9390  -21.3247   19.0891 C   0  0  0  0  0  0  0  0  0  0  0  0
  -22.8855  -27.3722   22.1017 C   0  0  0  0  0  0  0  0  0  0  0  0
  -20.1098  -24.1155   24.7557 C   0  0  0  0  0  0  0  0  0  0  0  0
  -32.1643  -19.9483   17.5266 C   0  0  0  0  0  0  0  0  0  0  0  0
  -26.5722  -16.9917   20.4629 C   0  0  0  0  0  0  0  0  0  0  0  0
  -24.5248  -15.4705   20.4240 C   0  0  0  0  0  0  0  0  0  0  0  0
  -29.5502  -25.1413   17.4540 C   0  0  0  0  0  0  0  0  0  0  0  0
  -24.0723  -27.8661   20.0506 C   0  0  0  0  0  0  0  0  0  0  0  0
  -28.5547  -25.2012   18.4479 C   0  0  0  0  0  0  0  0  0  0  0  0
  -23.9102  -28.0565   21.4303 C   0  0  0  0  0  0  0  0  0  0  0  0
  -19.8120  -25.2621   24.0277 C   0  0  0  0  0  0  0  0  0  0  0  0
  -18.4850  -25.6214   23.8192 C   0  0  0  0  0  0  0  0  0  0  0  0
  -29.2974  -17.5325   20.2103 C   0  0  0  0  0  0  0  0  0  0  0  0
  -22.0262  -26.5202   21.4083 C   0  0  0  0  0  0  0  0  0  0  0  0
  -30.9962  -18.9267   19.3783 C   0  0  0  0  0  0  0  0  0  0  0  0
  -31.7368  -21.2064   17.9510 C   0  0  0  0  0  0  0  0  0  0  0  0
  -31.7940  -18.8085   18.2402 C   0  0  0  0  0  0  0  0  0  0  0  0
  -25.1647  -16.7128   20.5941 C   0  0  0  0  0  0  0  0  0  0  0  0
  -19.0528  -23.3684   25.2500 C   0  0  0  0  0  0  0  0  0  0  0  0
  -17.5008  -24.8066   24.3552 C   0  0  0  0  0  0  0  0  0  0  0  0
  -23.1969  -15.7336   20.6563 C   0  0  0  0  0  0  0  0  0  0  0  0
  -25.0809  -14.1929   20.0862 C   0  0  0  0  0  0  0  0  0  0  0  0
  -27.2074  -27.9067   20.5735 C   0  0  0  0  0  0  0  0  0  0  0  0
  -26.5501  -30.7783   21.9315 C   0  0  0  0  0  0  0  0  0  0  0  0
  -24.2611  -32.8186   23.4296 C   0  0  0  0  0  0  0  0  0  0  0  0
  -20.5158  -19.8983   23.8692 C   0  0  0  0  0  0  0  0  0  0  0  0
  -30.8273  -25.9363   17.5616 C   0  0  0  0  0  0  0  0  0  0  0  0
  -25.1464  -28.6053   19.3007 C   0  0  0  0  0  0  0  0  0  0  0  0
  -24.8126  -28.9712   22.2160 C   0  0  0  0  0  0  0  0  0  0  0  0
  -30.7449  -27.0895   18.5585 C   0  0  0  0  0  0  0  0  0  0  0  0
  -19.9673  -19.2527   20.3507 C   0  0  0  0  0  0  0  0  0  0  0  0
  -30.1106  -26.6218   19.8645 C   0  0  0  0  0  0  0  0  0  0  0  0
  -21.1908  -18.4028   20.0031 C   0  0  0  0  0  0  0  0  0  0  0  0
  -20.3224  -20.3505   21.3492 C   0  0  0  0  0  0  0  0  0  0  0  0
  -22.1786  -19.0097   22.2605 C   0  0  0  0  0  0  0  0  0  0  0  0
  -28.6761  -26.1303   19.6362 C   0  0  1  0  0  0  0  0  0  0  0  0
  -26.3034  -29.0448   20.1926 C   0  0  1  0  0  0  0  0  0  0  0  0
  -21.8803  -17.8677   21.2722 C   0  0  2  0  0  0  0  0  0  0  0  0
  -18.1355  -26.8472   23.0442 C   0  0  0  0  0  0  0  0  0  0  0  0
  -16.0573  -25.1416   24.1659 C   0  0  0  0  0  0  0  0  0  0  0  0
  -24.0287  -35.0928   24.4647 C   0  0  0  0  0  0  0  0  0  0  0  0
  -17.3588  -23.6534   29.7911 C   0  0  0  0  0  0  0  0  0  0  0  0
  -19.5711  -24.6024   30.4743 C   0  0  0  0  0  0  0  0  0  0  0  0
  -27.9909  -29.7852   24.4311 C   0  0  0  0  0  0  0  0  0  0  0  0
  -26.9224  -31.6565   25.7057 C   0  0  0  0  0  0  0  0  0  0  0  0
  -28.4772  -32.1614   23.8214 C   0  0  0  0  0  0  0  0  0  0  0  0
  -22.2323  -33.6446   21.4394 C   0  0  0  0  0  0  0  0  0  0  0  0
  -20.9364  -26.0895   23.4778 C   0  0  0  0  0  0  0  0  0  1  0  0
  -18.8017  -22.1940   27.5002 C   0  0  0  0  0  0  0  0  0  0  0  0
  -19.4055  -23.3604   28.2963 C   0  0  0  0  0  0  0  0  0  0  0  0
  -18.7762  -20.8546   25.3579 C   0  0  0  0  0  0  0  0  0  0  0  0
  -19.3348  -22.1323   26.0371 C   0  0  1  0  0  0  0  0  0  0  0  0
  -26.1755  -31.2447   23.3175 C   0  0  1  0  0  0  0  0  0  0  0  0
  -23.8992  -34.2733   23.1902 C   0  0  2  0  0  0  0  0  0  0  0  0
  -18.8742  -23.4545   29.7394 C   0  0  0  0  0  0  0  0  0  0  0  0
  -27.3755  -31.1932   24.3047 C   0  0  0  0  0  0  0  0  0  0  0  0
  -24.3134  -17.6924   20.9100 N   0  0  0  0  0  0  0  0  0  0  0  0
  -17.7513  -23.6855   25.0679 N   0  0  0  0  0  0  0  0  0  0  0  0
  -23.1249  -17.0657   20.9401 N   0  0  0  0  0  0  0  0  0  0  0  0
  -25.8517  -29.6668   21.4389 N   0  0  0  0  0  0  0  0  0  0  0  0
  -20.9581  -19.7729   22.5418 N   0  0  0  0  0  0  0  0  0  0  0  0
  -22.0955  -14.9532   20.6434 N   0  0  0  0  0  0  0  0  0  0  0  0
  -26.4643  -14.0994   19.8814 N   0  0  0  0  0  0  0  0  0  0  0  0
  -27.7736  -27.2529   19.4957 N   0  0  0  0  0  0  0  0  0  0  0  0
  -25.5900  -32.5714   23.1574 N   0  0  0  0  0  0  0  0  0  0  0  0
  -19.3565  -20.6424   24.0505 N   0  0  0  0  0  0  0  0  0  0  0  0
  -22.4960  -34.3842   22.7006 N   0  3  0  0  0  0  0  0  0  0  0  0
  -24.3700  -13.1680   19.9533 O   0  0  0  0  0  0  0  0  0  0  0  0
  -27.3797  -27.6422   21.7576 O   0  0  0  0  0  0  0  0  0  0  0  0
  -27.4250  -31.3824   21.3060 O   0  0  0  0  0  0  0  0  0  0  0  0
  -23.4472  -31.9857   23.8227 O   0  0  0  0  0  0  0  0  0  0  0  0
  -21.1076  -19.3806   24.8226 O   0  0  0  0  0  0  0  0  0  0  0  0
  -30.6270  -17.7960   20.0874 O   0  0  0  0  0  0  0  0  0  0  0  0
  -21.0358  -25.8643   22.0722 O   0  0  0  0  0  0  0  0  0  1  0  0
  -32.0911  -22.3010   17.2650 F   0  0  0  0  0  0  0  0  0  0  0  0
  -32.2068  -17.6024   17.8270 F   0  0  0  0  0  0  0  0  0  0  0  0
  1  2  1  0  0  0  0
  1  5  2  0  0  0  0
  2  6  2  0  0  0  0
  3  8  2  0  0  0  0
  3 16  1  0  0  0  0
  4  9  1  0  0  0  0
  4 16  2  0  0  0  0
  5 18  1  0  0  0  0
  6 20  1  0  0  0  0
  7 10  2  0  0  0  0
  7 19  1  0  0  0  0
  8 24  1  0  0  0  0
  9 24  2  0  0  0  0
 10 25  1  0  0  0  0
 11 12  2  0  0  0  0
 11 26  1  0  0  0  0
 12 27  1  0  0  0  0
 13 21  1  0  0  0  0
 13 25  2  0  0  0  0
 14 22  1  0  0  0  0
 14 30  2  0  0  0  0
 15 27  2  0  0  0  0
 15 28  1  0  0  0  0
 16 29  1  0  0  0  0
 17 29  1  0  0  0  0
 17 32  2  0  0  0  0
 17 33  1  0  0  0  0
 18 20  2  0  0  0  0
 18 38  1  0  0  0  0
 19 21  2  0  0  0  0
 19 39  1  0  0  0  0
 20 47  1  0  0  0  0
 21 40  1  0  0  0  0
 22 23  2  0  0  0  0
 22 59  1  0  0  0  0
 23 31  1  0  0  0  0
 23 50  1  0  0  0  0
 24 84  1  0  0  0  0
 25 85  1  0  0  0  0
 26 28  2  0  0  0  0
 26 84  1  0  0  0  0
 27 86  1  0  0  0  0
 28 87  1  0  0  0  0
 29 68  2  0  0  0  0
 30 63  1  0  0  0  0
 30 69  1  0  0  0  0
 31 51  1  0  0  0  0
 31 69  2  0  0  0  0
 32 70  1  0  0  0  0
 32 73  1  0  0  0  0
 33 74  1  0  0  0  0
 33 79  2  0  0  0  0
 34 48  1  0  0  0  0
 34 75  1  0  0  0  0
 34 80  2  0  0  0  0
 35 64  1  0  0  0  0
 35 71  1  0  0  0  0
 35 81  2  0  0  0  0
 36 65  1  0  0  0  0
 36 76  1  0  0  0  0
 36 82  2  0  0  0  0
 37 72  1  0  0  0  0
 37 77  1  0  0  0  0
 37 83  2  0  0  0  0
 38 41  1  0  0  0  0
 39 48  1  0  0  0  0
 40 71  1  0  0  0  0
 41 43  1  0  0  0  0
 42 44  1  0  0  0  0
 42 45  1  0  0  0  0
 43 47  1  0  0  0  0
 44 49  1  0  0  0  0
 45 72  1  0  0  0  0
 46 49  1  0  0  0  0
 46 72  1  0  0  0  0
 47 75  1  0  0  0  0
 48 71  1  0  0  0  0
 49 70  1  0  0  0  0
 52 65  1  0  0  0  0
 53 66  1  0  0  0  0
 54 66  1  0  0  0  0
 55 67  1  0  0  0  0
 56 67  1  0  0  0  0
 57 67  1  0  0  0  0
 58 78  1  0  0  0  0
 59 85  1  0  0  0  0
 60 61  1  0  0  0  0
 60 63  1  0  0  0  0
 61 66  1  0  0  0  0
 62 63  1  0  0  0  0
 62 77  1  0  0  0  0
 64 67  1  0  0  0  0
 64 76  1  0  0  0  0
 65 78  1  0  0  0  0
 68 70  1  0  0  0  0
M  CHG  1  78   1
M  ISO  4  37 100  59 101  77 100  85 101
M  END
> <Batch ID>
0091

> <Smiles>
CNC(C)C(=O)NC(C(=O)N1Cc2cc([101O:1][101CH2:1]c3cc(C(CCC(C)C)C[100NH:0][100C:0](=O)N4CCCC(n5nc(-c6ccc(Oc7ccc(F)cc7F)cc6)c(C(N)=O)c5N)C4)nc(C)c3C)ccc2CC1C(=O)NC1CCCc2ccccc21)C(C)(C)C

> <Shape>
0.218

> <Color>
0.061

> <Negative vol penalty>
0.000

$$$$

  -OEChem-04052319113D

 92100  0     1  0  0  0  0  0999 V2000
  -30.4850  -21.5829   16.9352 C   0  0  0  0  0  0  0  0  0  0  0  0
  -30.4324  -21.4863   18.3220 C   0  0  0  0  0  0  0  0  0  0  0  0
  -23.0070   -9.8865   19.9815 C   0  0  0  0  0  0  0  0  0  0  0  0
  -23.7327   -9.9459   22.2851 C   0  0  0  0  0  0  0  0  0  0  0  0
  -31.0860  -22.6897   16.3370 C   0  0  0  0  0  0  0  0  0  0  0  0
  -30.9817  -22.4960   19.1115 C   0  0  0  0  0  0  0  0  0  0  0  0
  -27.9575  -23.8221   22.9508 C   0  0  0  0  0  0  0  0  0  0  0  0
  -22.2444   -8.7501   20.2510 C   0  0  0  0  0  0  0  0  0  0  0  0
  -22.9702   -8.8094   22.5547 C   0  0  0  0  0  0  0  0  0  0  0  0
  -27.9306  -22.9789   24.0607 C   0  0  0  0  0  0  0  0  0  0  0  0
  -23.2258   -5.4702   22.0913 C   0  0  0  0  0  0  0  0  0  0  0  0
  -23.8170   -4.4569   22.8458 C   0  0  0  0  0  0  0  0  0  0  0  0
  -29.4362  -24.4655   25.2192 C   0  0  0  0  0  0  0  0  0  0  0  0
  -30.8320  -17.8845   25.5123 C   0  0  0  0  0  0  0  0  0  0  0  0
  -22.0929   -4.6982   24.5210 C   0  0  0  0  0  0  0  0  0  0  0  0
  -23.7512  -10.4844   20.9985 C   0  0  0  0  0  0  0  0  0  0  0  0
  -24.1278  -13.0008   20.8159 C   0  0  0  0  0  0  0  0  0  0  0  0
  -31.6343  -23.7181   17.1195 C   0  0  0  0  0  0  0  0  0  0  0  0
  -28.7339  -24.9898   22.9627 C   0  0  0  0  0  0  0  0  0  0  0  0
  -31.5917  -23.6169   18.5232 C   0  0  0  0  0  0  0  0  0  0  0  0
  -29.4693  -25.3233   24.1091 C   0  0  0  0  0  0  0  0  0  0  0  0
  -31.2637  -17.4207   24.2746 C   0  0  0  0  0  0  0  0  0  0  0  0
  -30.3685  -17.3535   23.2128 C   0  0  0  0  0  0  0  0  0  0  0  0
  -22.2260   -8.2115   21.5376 C   0  0  0  0  0  0  0  0  0  0  0  0
  -28.6723  -23.2990   25.1941 C   0  0  0  0  0  0  0  0  0  0  0  0
  -22.0681   -6.0975   22.5516 C   0  0  0  0  0  0  0  0  0  0  0  0
  -23.2506   -4.0709   24.0606 C   0  0  0  0  0  0  0  0  0  0  0  0
  -21.5016   -5.7115   23.7664 C   0  0  0  0  0  0  0  0  0  0  0  0
  -24.5396  -11.6580   20.7206 C   0  0  0  0  0  0  0  0  0  0  0  0
  -29.5057  -18.2659   25.6353 C   0  0  0  0  0  0  0  0  0  0  0  0
  -29.0629  -17.7586   23.4388 C   0  0  0  0  0  0  0  0  0  0  0  0
  -25.2350  -13.7263   20.4493 C   0  0  0  0  0  0  0  0  0  0  0  0
  -22.8581  -13.5439   21.2015 C   0  0  0  0  0  0  0  0  0  0  0  0
  -31.1961  -26.0638   21.2634 C   0  0  0  0  0  0  0  0  0  0  0  0
  -30.7109  -28.7645   22.9935 C   0  0  0  0  0  0  0  0  0  0  0  0
  -29.4781  -30.2051   25.8311 C   0  0  0  0  0  0  0  0  0  0  0  0
  -30.7282  -14.6803   20.6936 C   0  0  0  0  0  0  0  0  0  0  0  0
  -32.3155  -24.8722   16.4277 C   0  0  0  0  0  0  0  0  0  0  0  0
  -28.7311  -25.9027   21.7673 C   0  0  0  0  0  0  0  0  0  0  0  0
  -30.3029  -26.5756   24.1800 C   0  0  0  0  0  0  0  0  0  0  0  0
  -32.5410  -26.0789   17.3350 C   0  0  0  0  0  0  0  0  0  0  0  0
  -29.5950  -12.2467   18.3547 C   0  0  0  0  0  0  0  0  0  0  0  0
  -33.1204  -25.6381   18.6754 C   0  0  0  0  0  0  0  0  0  0  0  0
  -28.1476  -11.9831   18.7734 C   0  0  0  0  0  0  0  0  0  0  0  0
  -30.4970  -12.4883   19.5630 C   0  0  0  0  0  0  0  0  0  0  0  0
  -28.5847  -13.2807   20.9004 C   0  0  0  0  0  0  0  0  0  0  0  0
  -32.1544  -24.7036   19.4135 C   0  0  1  0  0  0  0  0  0  0  0  0
  -29.9618  -26.8016   21.6991 C   0  0  1  0  0  0  0  0  0  0  0  0
  -27.6259  -13.0867   19.7132 C   0  0  2  0  0  0  0  0  0  0  0  0
  -35.9663  -13.1213   24.0687 C   0  0  0  0  0  0  0  0  0  0  0  0
  -30.6307  -17.9141   20.7676 C   0  0  0  0  0  0  0  0  0  0  0  0
  -29.2632  -32.4261   26.9793 C   0  0  0  0  0  0  0  0  0  0  0  0
  -26.5660  -20.5355   20.0765 C   0  0  0  0  0  0  0  0  0  0  0  0
  -27.2096  -18.2052   19.4319 C   0  0  0  0  0  0  0  0  0  0  0  0
  -33.6565  -28.6404   23.7796 C   0  0  0  0  0  0  0  0  0  0  0  0
  -33.1614  -30.2623   25.6215 C   0  0  0  0  0  0  0  0  0  0  0  0
  -32.8154  -30.9340   23.2442 C   0  0  0  0  0  0  0  0  0  0  0  0
  -26.5220  -30.0676   25.7964 C   0  0  0  0  0  0  0  0  0  0  0  0
  -32.6871  -17.0000   24.1133 C   0  0  0  0  0  0  0  0  0  0  0  0
  -29.0024  -18.7752   26.9623 C   0  0  0  0  0  0  0  0  0  0  0  0
  -28.0558  -17.7108   22.3364 C   0  0  0  0  0  0  0  0  0  0  0  0
  -34.5059  -13.5410   24.1188 C   0  0  0  0  0  0  0  0  0  0  0  0
  -32.8865  -15.4795   24.1467 C   0  0  0  0  0  0  0  0  0  0  0  0
  -29.1392  -20.2897   27.1328 C   0  0  0  0  0  0  0  0  0  0  0  0
  -27.7794  -19.1066   21.7495 C   0  0  0  0  0  0  0  0  0  0  0  0
  -34.3577  -15.0618   24.0567 C   0  0  0  0  0  0  0  0  0  0  0  0
  -28.4436  -21.0862   26.0351 C   0  0  0  0  0  0  0  0  0  1  0  0
  -30.8039  -16.8625   21.8731 C   0  0  2  0  0  0  0  0  0  0  0  0
  -31.2165  -29.2935   24.3139 C   0  0  1  0  0  0  0  0  0  0  0  0
  -28.6028  -31.4273   26.0418 C   0  0  2  0  0  0  0  0  0  0  0  0
  -26.7700  -19.1067   20.5864 C   0  0  0  0  0  0  0  0  0  0  0  0
  -32.6984  -29.7579   24.2381 C   0  0  0  0  0  0  0  0  0  0  0  0
  -25.8091  -11.5348   20.3243 N   0  0  0  0  0  0  0  0  0  0  0  0
  -28.6068  -18.2148   24.6269 N   0  0  0  0  0  0  0  0  0  0  0  0
  -26.2047  -12.8095   20.1673 N   0  0  0  0  0  0  0  0  0  0  0  0
  -30.2726  -27.4327   22.9834 N   0  0  0  0  0  0  0  0  0  0  0  0
  -29.9469  -13.5473   20.4126 N   0  0  0  0  0  0  0  0  0  0  0  0
  -25.4639  -15.0525   20.3437 N   0  0  0  0  0  0  0  0  0  0  0  0
  -21.8295  -12.6571   21.5476 N   0  0  0  0  0  0  0  0  0  0  0  0
  -31.0843  -25.4628   20.0242 N   0  0  0  0  0  0  0  0  0  0  0  0
  -30.2828  -30.3387   24.7194 N   0  0  0  0  0  0  0  0  0  0  0  0
  -30.1288  -15.6391   21.5011 N   0  0  0  0  0  0  0  0  0  0  0  0
  -27.2908  -31.0302   26.6266 N   0  3  0  0  0  0  0  0  0  0  0  0
  -22.6372  -14.7785   21.2221 O   0  0  0  0  0  0  0  0  0  0  0  0
  -32.1778  -26.0427   21.9966 O   0  0  0  0  0  0  0  0  0  0  0  0
  -30.6985  -29.5078   22.0091 O   0  0  0  0  0  0  0  0  0  0  0  0
  -29.4535  -29.2310   26.5801 O   0  0  0  0  0  0  0  0  0  0  0  0
  -31.8730  -14.8290   20.2527 O   0  0  0  0  0  0  0  0  0  0  0  0
  -21.4818   -7.1028   21.8010 O   0  0  0  0  0  0  0  0  0  0  0  0
  -28.6483  -22.4773   26.2786 O   0  0  0  0  0  0  0  0  0  1  0  0
  -23.8176   -3.0968   24.7843 F   0  0  0  0  0  0  0  0  0  0  0  0
  -20.3888   -6.3098   24.2133 F   0  0  0  0  0  0  0  0  0  0  0  0
  1  2  1  0  0  0  0
  1  5  2  0  0  0  0
  2  6  2  0  0  0  0
  3  8  2  0  0  0  0
  3 16  1  0  0  0  0
  4  9  1  0  0  0  0
  4 16  2  0  0  0  0
  5 18  1  0  0  0  0
  6 20  1  0  0  0  0
  7 10  2  0  0  0  0
  7 19  1  0  0  0  0
  8 24  1  0  0  0  0
  9 24  2  0  0  0  0
 10 25  1  0  0  0  0
 11 12  2  0  0  0  0
 11 26  1  0  0  0  0
 12 27  1  0  0  0  0
 13 21  1  0  0  0  0
 13 25  2  0  0  0  0
 14 22  1  0  0  0  0
 14 30  2  0  0  0  0
 15 27  2  0  0  0  0
 15 28  1  0  0  0  0
 16 29  1  0  0  0  0
 17 29  1  0  0  0  0
 17 32  2  0  0  0  0
 17 33  1  0  0  0  0
 18 20  2  0  0  0  0
 18 38  1  0  0  0  0
 19 21  2  0  0  0  0
 19 39  1  0  0  0  0
 20 47  1  0  0  0  0
 21 40  1  0  0  0  0
 22 23  2  0  0  0  0
 22 59  1  0  0  0  0
 23 31  1  0  0  0  0
 23 68  1  0  0  0  0
 24 89  1  0  0  0  0
 25 90  1  0  0  0  0
 26 28  2  0  0  0  0
 26 89  1  0  0  0  0
 27 91  1  0  0  0  0
 28 92  1  0  0  0  0
 29 73  2  0  0  0  0
 30 60  1  0  0  0  0
 30 74  1  0  0  0  0
 31 61  1  0  0  0  0
 31 74  2  0  0  0  0
 32 75  1  0  0  0  0
 32 78  1  0  0  0  0
 33 79  1  0  0  0  0
 33 84  2  0  0  0  0
 34 48  1  0  0  0  0
 34 80  1  0  0  0  0
 34 85  2  0  0  0  0
 35 69  1  0  0  0  0
 35 76  1  0  0  0  0
 35 86  2  0  0  0  0
 36 70  1  0  0  0  0
 36 81  1  0  0  0  0
 36 87  2  0  0  0  0
 37 77  1  0  0  0  0
 37 82  1  0  0  0  0
 37 88  2  0  0  0  0
 38 41  1  0  0  0  0
 39 48  1  0  0  0  0
 40 76  1  0  0  0  0
 41 43  1  0  0  0  0
 42 44  1  0  0  0  0
 42 45  1  0  0  0  0
 43 47  1  0  0  0  0
 44 49  1  0  0  0  0
 45 77  1  0  0  0  0
 46 49  1  0  0  0  0
 46 77  1  0  0  0  0
 47 80  1  0  0  0  0
 48 76  1  0  0  0  0
 49 75  1  0  0  0  0
 50 62  1  0  0  0  0
 51 68  1  0  0  0  0
 52 70  1  0  0  0  0
 53 71  1  0  0  0  0
 54 71  1  0  0  0  0
 55 72  1  0  0  0  0
 56 72  1  0  0  0  0
 57 72  1  0  0  0  0
 58 83  1  0  0  0  0
 59 63  1  0  0  0  0
 60 64  1  0  0  0  0
 61 65  1  0  0  0  0
 62 66  1  0  0  0  0
 63 66  1  0  0  0  0
 64 67  1  0  0  0  0
 65 71  1  0  0  0  0
 67 90  1  0  0  0  0
 68 82  1  0  0  0  0
 69 72  1  0  0  0  0
 69 81  1  0  0  0  0
 70 83  1  0  0  0  0
 73 75  1  0  0  0  0
M  CHG  1  83   1
M  ISO  4  37 100  67 101  82 100  90 101
M  END
> <Batch ID>
0091

> <Smiles>
CCCCCc1cc(CC[101CH2:1][101O:1]c2ccc3c(c2)CN(C(=O)C(NC(=O)C(C)NC)C(C)(C)C)C(C(=O)NC2CCCc4ccccc42)C3)nc(CCC(C)C)c1C(C)[100NH:0][100C:0](=O)N1CCCC(n2nc(-c3ccc(Oc4ccc(F)cc4F)cc3)c(C(N)=O)c2N)C1

> <Shape>
0.246

> <Color>
0.189

> <Negative vol penalty>
0.000

$$$$

  -OEChem-04052319113D

 87 95  0     1  0  0  0  0  0999 V2000
  -31.5138  -23.2668   20.5494 C   0  0  0  0  0  0  0  0  0  0  0  0
  -30.5723  -24.2074   20.1473 C   0  0  0  0  0  0  0  0  0  0  0  0
  -26.6796  -13.7892   21.4096 C   0  0  0  0  0  0  0  0  0  0  0  0
  -26.7404  -13.3978   19.0263 C   0  0  0  0  0  0  0  0  0  0  0  0
  -31.6497  -22.9560   21.9007 C   0  0  0  0  0  0  0  0  0  0  0  0
  -29.7746  -24.8462   21.0974 C   0  0  0  0  0  0  0  0  0  0  0  0
  -26.8938  -28.5018   19.5034 C   0  0  0  0  0  0  0  0  0  0  0  0
  -25.8380  -12.6883   21.5689 C   0  0  0  0  0  0  0  0  0  0  0  0
  -25.8988  -12.2969   19.1856 C   0  0  0  0  0  0  0  0  0  0  0  0
  -25.7570  -28.2816   18.7269 C   0  0  0  0  0  0  0  0  0  0  0  0
  -23.9640   -9.7655   22.6460 C   0  0  0  0  0  0  0  0  0  0  0  0
  -24.2458   -8.8787   23.6851 C   0  0  0  0  0  0  0  0  0  0  0  0
  -24.3686  -28.6588   20.6632 C   0  0  0  0  0  0  0  0  0  0  0  0
  -22.1122  -24.4171   18.1984 C   0  0  0  0  0  0  0  0  0  0  0  0
  -26.4145   -8.4341   22.7176 C   0  0  0  0  0  0  0  0  0  0  0  0
  -27.1308  -14.1439   20.1382 C   0  0  0  0  0  0  0  0  0  0  0  0
  -29.4071  -15.2880   20.0076 C   0  0  0  0  0  0  0  0  0  0  0  0
  -30.8443  -23.5825   22.8660 C   0  0  0  0  0  0  0  0  0  0  0  0
  -26.7768  -28.7918   20.8704 C   0  0  0  0  0  0  0  0  0  0  0  0
  -29.9133  -24.5636   22.4684 C   0  0  0  0  0  0  0  0  0  0  0  0
  -25.5054  -28.8847   21.4544 C   0  0  0  0  0  0  0  0  0  0  0  0
  -22.8187  -23.3796   17.6004 C   0  0  0  0  0  0  0  0  0  0  0  0
  -23.5314  -23.6153   16.4299 C   0  0  0  0  0  0  0  0  0  0  0  0
  -25.4476  -11.9422   20.4569 C   0  0  0  0  0  0  0  0  0  0  0  0
  -24.4943  -28.3573   19.3074 C   0  0  0  0  0  0  0  0  0  0  0  0
  -24.9074   -9.9865   21.6426 C   0  0  0  0  0  0  0  0  0  0  0  0
  -25.4710   -8.2130   23.7210 C   0  0  0  0  0  0  0  0  0  0  0  0
  -26.1327   -9.3208   21.6784 C   0  0  0  0  0  0  0  0  0  0  0  0
  -27.9998  -15.2813   19.9730 C   0  0  0  0  0  0  0  0  0  0  0  0
  -22.1499  -25.6620   17.5912 C   0  0  0  0  0  0  0  0  0  0  0  0
  -23.5054  -24.8960   15.9018 C   0  0  0  0  0  0  0  0  0  0  0  0
  -29.7494  -16.6019   19.7997 C   0  0  0  0  0  0  0  0  0  0  0  0
  -30.3231  -14.2036   20.2095 C   0  0  0  0  0  0  0  0  0  0  0  0
  -27.7320  -27.3793   23.5530 C   0  0  0  0  0  0  0  0  0  0  0  0
  -26.8444  -20.9938   17.0526 C   0  0  0  0  0  0  0  0  0  0  0  0
  -26.5730  -30.0793   24.9273 C   0  0  0  0  0  0  0  0  0  0  0  0
  -24.4564  -32.7495   24.7347 C   0  0  0  0  0  0  0  0  0  0  0  0
  -31.0388  -23.2140   24.3157 C   0  0  0  0  0  0  0  0  0  0  0  0
  -28.0117  -29.0530   21.6885 C   0  0  0  0  0  0  0  0  0  0  0  0
  -25.3248  -29.2130   22.9131 C   0  0  0  0  0  0  0  0  0  0  0  0
  -29.8559  -23.6095   25.1935 C   0  0  0  0  0  0  0  0  0  0  0  0
  -28.1321  -21.0494   20.4534 C   0  0  0  0  0  0  0  0  0  0  0  0
  -29.4758  -25.0592   24.9312 C   0  0  0  0  0  0  0  0  0  0  0  0
  -28.3451  -19.5606   20.7239 C   0  0  0  0  0  0  0  0  0  0  0  0
  -26.9063  -21.2908   19.5764 C   0  0  0  0  0  0  0  0  0  0  0  0
  -27.1446  -19.0500   18.5535 C   0  0  0  0  0  0  0  0  0  0  0  0
  -29.0135  -25.2487   23.4809 C   0  0  1  0  0  0  0  0  0  0  0  0
  -27.7958  -28.8341   23.1828 C   0  0  1  0  0  0  0  0  0  0  0  0
  -28.3891  -18.7616   19.4097 C   0  0  2  0  0  0  0  0  0  0  0  0
  -21.8625  -21.0640   17.4999 C   0  0  0  0  0  0  0  0  0  0  0  0
  -25.2725  -26.3279   14.8465 C   0  0  0  0  0  0  0  0  0  0  0  0
  -23.7339  -22.2038   14.3669 C   0  0  0  0  0  0  0  0  0  0  0  0
  -27.9876  -23.1607   16.9002 C   0  0  0  0  0  0  0  0  0  0  0  0
  -23.7042  -34.7643   26.0279 C   0  0  0  0  0  0  0  0  0  0  0  0
  -24.8935  -28.2872   26.7377 C   0  0  0  0  0  0  0  0  0  0  0  0
  -23.5049  -30.2891   27.3143 C   0  0  0  0  0  0  0  0  0  0  0  0
  -25.9326  -30.2504   27.8869 C   0  0  0  0  0  0  0  0  0  0  0  0
  -25.4005  -34.5994   22.6262 C   0  0  0  0  0  0  0  0  0  0  0  0
  -22.7939  -22.0265   18.2309 C   0  0  0  0  0  0  0  0  0  0  0  0
  -21.3960  -26.8123   18.2129 C   0  0  0  0  0  0  0  0  0  0  0  0
  -24.2528  -25.2108   14.6472 C   0  0  0  0  0  0  0  0  0  0  0  0
  -25.8284  -22.8024   15.6471 C   0  0  0  0  0  0  0  0  0  0  0  0
  -22.2454  -27.5896   19.2126 C   0  0  0  0  0  0  0  0  0  1  0  0
  -24.3005  -22.5222   15.7675 C   0  0  1  0  0  0  0  0  0  0  0  0
  -26.6225  -22.4797   16.9231 C   0  0  1  0  0  0  0  0  0  0  0  0
  -25.2328  -30.5115   25.4715 C   0  0  1  0  0  0  0  0  0  0  0  0
  -24.6769  -34.2300   24.9882 C   0  0  2  0  0  0  0  0  0  0  0  0
  -24.8941  -29.8264   26.8255 C   0  0  0  0  0  0  0  0  0  0  0  0
  -27.4834  -16.4946   19.7600 N   0  0  0  0  0  0  0  0  0  0  0  0
  -22.8308  -25.9291   16.4543 N   0  0  0  0  0  0  0  0  0  0  0  0
  -28.5722  -17.2760   19.6591 N   0  0  0  0  0  0  0  0  0  0  0  0
  -26.5629  -29.4539   23.6725 N   0  0  0  0  0  0  0  0  0  0  0  0
  -26.9732  -20.4910   18.3475 N   0  0  0  0  0  0  0  0  0  0  0  0
  -30.9395  -17.2347   19.7254 N   0  0  0  0  0  0  0  0  0  0  0  0
  -29.8026  -12.9176   20.4081 N   0  0  0  0  0  0  0  0  0  0  0  0
  -28.8636  -26.6623   23.2142 N   0  0  0  0  0  0  0  0  0  0  0  0
  -25.2671  -31.9688   25.5312 N   0  0  0  0  0  0  0  0  0  0  0  0
  -24.4907  -35.0045   23.7286 N   0  3  0  0  0  0  0  0  0  0  0  0
  -31.5658  -14.3729   20.2300 O   0  0  0  0  0  0  0  0  0  0  0  0
  -26.7307  -26.9401   24.1064 O   0  0  0  0  0  0  0  0  0  0  0  0
  -26.9039  -20.3029   16.0322 O   0  0  0  0  0  0  0  0  0  0  0  0
  -27.5921  -30.2954   25.5880 O   0  0  0  0  0  0  0  0  0  0  0  0
  -23.6435  -32.3279   23.9150 O   0  0  0  0  0  0  0  0  0  0  0  0
  -24.6265  -10.8678   20.6120 O   0  0  0  0  0  0  0  0  0  0  0  0
  -23.3831  -28.1422   18.5518 O   0  0  0  0  0  0  0  0  0  1  0  0
  -25.7421   -7.3627   24.7198 F   0  0  0  0  0  0  0  0  0  0  0  0
  -27.0435   -9.5300   20.7180 F   0  0  0  0  0  0  0  0  0  0  0  0
  1  2  1  0  0  0  0
  1  5  2  0  0  0  0
  2  6  2  0  0  0  0
  3  8  2  0  0  0  0
  3 16  1  0  0  0  0
  4  9  1  0  0  0  0
  4 16  2  0  0  0  0
  5 18  1  0  0  0  0
  6 20  1  0  0  0  0
  7 10  2  0  0  0  0
  7 19  1  0  0  0  0
  8 24  1  0  0  0  0
  9 24  2  0  0  0  0
 10 25  1  0  0  0  0
 11 12  2  0  0  0  0
 11 26  1  0  0  0  0
 12 27  1  0  0  0  0
 13 21  1  0  0  0  0
 13 25  2  0  0  0  0
 14 22  1  0  0  0  0
 14 30  2  0  0  0  0
 15 27  2  0  0  0  0
 15 28  1  0  0  0  0
 16 29  1  0  0  0  0
 17 29  1  0  0  0  0
 17 32  2  0  0  0  0
 17 33  1  0  0  0  0
 18 20  2  0  0  0  0
 18 38  1  0  0  0  0
 19 21  2  0  0  0  0
 19 39  1  0  0  0  0
 20 47  1  0  0  0  0
 21 40  1  0  0  0  0
 22 23  2  0  0  0  0
 22 59  1  0  0  0  0
 23 31  1  0  0  0  0
 23 64  1  0  0  0  0
 24 84  1  0  0  0  0
 25 85  1  0  0  0  0
 26 28  2  0  0  0  0
 26 84  1  0  0  0  0
 27 86  1  0  0  0  0
 28 87  1  0  0  0  0
 29 69  2  0  0  0  0
 30 60  1  0  0  0  0
 30 70  1  0  0  0  0
 31 61  1  0  0  0  0
 31 70  2  0  0  0  0
 32 71  1  0  0  0  0
 32 74  1  0  0  0  0
 33 75  1  0  0  0  0
 33 79  2  0  0  0  0
 34 48  1  0  0  0  0
 34 76  1  0  0  0  0
 34 80  2  0  0  0  0
 35 65  1  0  0  0  0
 35 73  1  0  0  0  0
 35 81  2  0  0  0  0
 36 66  1  0  0  0  0
 36 72  1  0  0  0  0
 36 82  2  0  0  0  0
 37 67  1  0  0  0  0
 37 77  1  0  0  0  0
 37 83  2  0  0  0  0
 38 41  1  0  0  0  0
 39 48  1  0  0  0  0
 40 72  1  0  0  0  0
 41 43  1  0  0  0  0
 42 44  1  0  0  0  0
 42 45  1  0  0  0  0
 43 47  1  0  0  0  0
 44 49  1  0  0  0  0
 45 73  1  0  0  0  0
 46 49  1  0  0  0  0
 46 73  1  0  0  0  0
 47 76  1  0  0  0  0
 48 72  1  0  0  0  0
 49 71  1  0  0  0  0
 50 59  1  0  0  0  0
 51 61  1  0  0  0  0
 52 64  1  0  0  0  0
 53 65  1  0  0  0  0
 54 67  1  0  0  0  0
 55 68  1  0  0  0  0
 56 68  1  0  0  0  0
 57 68  1  0  0  0  0
 58 78  1  0  0  0  0
 60 63  1  0  0  0  0
 62 64  1  0  0  0  0
 62 65  1  0  0  0  0
 63 85  1  0  0  0  0
 66 68  1  0  0  0  0
 66 77  1  0  0  0  0
 67 78  1  0  0  0  0
 69 71  1  0  0  0  0
M  CHG  1  78   1
M  ISO  4  35 100  63 101  65 100  85 101
M  END
> <Batch ID>
0091

> <Smiles>
CCc1cc(C[101CH2:1][101O:1]c2ccc3c(c2)CN(C(=O)C(NC(=O)C(C)NC)C(C)(C)C)C(C(=O)NC2CCCc4ccccc42)C3)nc(CC)c1C(C)C[100CH:0](C)[100C:0](=O)N1CCCC(n2nc(-c3ccc(Oc4ccc(F)cc4F)cc3)c(C(N)=O)c2N)C1

> <Shape>
0.217

> <Color>
0.065

> <Negative vol penalty>
0.000

$$$$

  -OEChem-04052319113D

 87 95  0     1  0  0  0  0  0999 V2000
  -29.6471  -28.7364   26.8569 C   0  0  0  0  0  0  0  0  0  0  0  0
  -29.4541  -27.7837   25.8617 C   0  0  0  0  0  0  0  0  0  0  0  0
  -24.1577   -9.5713   21.9386 C   0  0  0  0  0  0  0  0  0  0  0  0
  -22.3721  -10.4172   20.5483 C   0  0  0  0  0  0  0  0  0  0  0  0
  -28.6176  -29.6170   27.1864 C   0  0  0  0  0  0  0  0  0  0  0  0
  -28.2310  -27.7102   25.1962 C   0  0  0  0  0  0  0  0  0  0  0  0
  -28.7725  -27.2131   20.1857 C   0  0  0  0  0  0  0  0  0  0  0  0
  -23.5416   -8.3203   21.9688 C   0  0  0  0  0  0  0  0  0  0  0  0
  -21.7559   -9.1661   20.5785 C   0  0  0  0  0  0  0  0  0  0  0  0
  -29.1027  -25.9473   19.7035 C   0  0  0  0  0  0  0  0  0  0  0  0
  -22.1260   -6.1718   19.0561 C   0  0  0  0  0  0  0  0  0  0  0  0
  -21.6398   -5.6613   17.8525 C   0  0  0  0  0  0  0  0  0  0  0  0
  -26.7924  -25.5741   19.1184 C   0  0  0  0  0  0  0  0  0  0  0  0
  -27.9397  -20.6140   18.5229 C   0  0  0  0  0  0  0  0  0  0  0  0
  -19.4120   -5.5861   18.7845 C   0  0  0  0  0  0  0  0  0  0  0  0
  -23.5729  -10.6198   21.2283 C   0  0  0  0  0  0  0  0  0  0  0  0
  -25.1546  -12.3723   20.2615 C   0  0  0  0  0  0  0  0  0  0  0  0
  -27.3845  -29.5606   26.5179 C   0  0  0  0  0  0  0  0  0  0  0  0
  -27.4457  -27.6653   20.1479 C   0  0  0  0  0  0  0  0  0  0  0  0
  -27.1835  -28.5900   25.5180 C   0  0  0  0  0  0  0  0  0  0  0  0
  -26.4483  -26.8470   19.5985 C   0  0  0  0  0  0  0  0  0  0  0  0
  -29.1286  -21.0859   19.0679 C   0  0  0  0  0  0  0  0  0  0  0  0
  -29.5313  -20.6509   20.3256 C   0  0  0  0  0  0  0  0  0  0  0  0
  -22.3408   -8.1177   21.2888 C   0  0  0  0  0  0  0  0  0  0  0  0
  -28.1121  -25.1265   19.1724 C   0  0  0  0  0  0  0  0  0  0  0  0
  -21.2553   -6.3894   20.1239 C   0  0  0  0  0  0  0  0  0  0  0  0
  -20.2828   -5.3685   17.7167 C   0  0  0  0  0  0  0  0  0  0  0  0
  -19.8983   -6.0966   19.9880 C   0  0  0  0  0  0  0  0  0  0  0  0
  -24.2086  -11.9125   21.1972 C   0  0  0  0  0  0  0  0  0  0  0  0
  -27.1956  -19.7152   19.2701 C   0  0  0  0  0  0  0  0  0  0  0  0
  -28.7158  -19.7507   20.9922 C   0  0  0  0  0  0  0  0  0  0  0  0
  -25.4442  -13.6523   20.6668 C   0  0  0  0  0  0  0  0  0  0  0  0
  -25.7208  -11.7023   19.1274 C   0  0  0  0  0  0  0  0  0  0  0  0
  -25.3081  -28.5324   22.3348 C   0  0  0  0  0  0  0  0  0  0  0  0
  -23.5483  -29.3371   19.7314 C   0  0  0  0  0  0  0  0  0  0  0  0
  -22.9166  -28.8836   16.4084 C   0  0  0  0  0  0  0  0  0  0  0  0
  -23.8104  -18.6636   22.5008 C   0  0  0  0  0  0  0  0  0  0  0  0
  -26.2854  -30.5025   26.9415 C   0  0  0  0  0  0  0  0  0  0  0  0
  -27.1103  -29.0438   20.6476 C   0  0  0  0  0  0  0  0  0  0  0  0
  -25.0123  -27.2936   19.5163 C   0  0  0  0  0  0  0  0  0  0  0  0
  -25.1467  -30.6041   25.9298 C   0  0  0  0  0  0  0  0  0  0  0  0
  -24.2631  -16.1020   24.9318 C   0  0  0  0  0  0  0  0  0  0  0  0
  -24.7236  -29.2155   25.4611 C   0  0  0  0  0  0  0  0  0  0  0  0
  -24.3609  -14.8217   24.1003 C   0  0  0  0  0  0  0  0  0  0  0  0
  -23.2633  -17.0888   24.3330 C   0  0  0  0  0  0  0  0  0  0  0  0
  -23.5911  -16.1390   22.0827 C   0  0  0  0  0  0  0  0  0  0  0  0
  -25.8793  -28.4952   24.7562 C   0  0  1  0  0  0  0  0  0  0  0  0
  -25.6418  -29.1997   21.0305 C   0  0  1  0  0  0  0  0  0  0  0  0
  -24.6284  -15.1361   22.6161 C   0  0  2  0  0  0  0  0  0  0  0  0
  -30.8031  -21.1383   20.9344 C   0  0  0  0  0  0  0  0  0  0  0  0
  -29.2991  -16.8020   21.6069 C   0  0  0  0  0  0  0  0  0  0  0  0
  -27.8517  -18.9905   23.2207 C   0  0  0  0  0  0  0  0  0  0  0  0
  -21.3928  -29.6548   14.5697 C   0  0  0  0  0  0  0  0  0  0  0  0
  -21.3053  -27.6092   20.8688 C   0  0  0  0  0  0  0  0  0  0  0  0
  -20.2274  -27.6437   18.6094 C   0  0  0  0  0  0  0  0  0  0  0  0
  -20.5500  -29.7731   19.8680 C   0  0  0  0  0  0  0  0  0  0  0  0
  -25.1772  -29.9525   14.8254 C   0  0  0  0  0  0  0  0  0  0  0  0
  -29.9589  -22.0682   18.2779 C   0  0  0  0  0  0  0  0  0  0  0  0
  -25.9147  -19.1865   18.7162 C   0  0  0  0  0  0  0  0  0  0  0  0
  -29.9759  -17.9671   22.3188 C   0  0  0  0  0  0  0  0  0  0  0  0
  -24.6722  -20.0264   19.0709 C   0  0  0  0  0  0  0  0  0  0  0  0
  -24.3772  -20.1120   20.5669 C   0  0  0  0  0  0  0  0  0  0  0  0
  -29.8013  -23.4984   18.7827 C   0  0  0  0  0  0  0  0  0  1  0  0
  -29.0963  -19.2460   22.3458 C   0  0  1  0  0  0  0  0  0  0  0  0
  -22.5557  -28.6198   18.8486 C   0  0  1  0  0  0  0  0  0  0  0  0
  -22.7216  -29.8753   15.2757 C   0  0  2  0  0  0  0  0  0  0  0  0
  -21.1863  -28.4020   19.5519 C   0  0  0  0  0  0  0  0  0  0  0  0
  -23.9167  -12.8260   22.1269 N   0  0  0  0  0  0  0  0  0  0  0  0
  -27.5543  -19.2698   20.4950 N   0  0  0  0  0  0  0  0  0  0  0  0
  -24.6839  -13.8727   21.7775 N   0  0  0  0  0  0  0  0  0  0  0  0
  -24.7334  -28.6472   20.0236 N   0  0  0  0  0  0  0  0  0  0  0  0
  -23.5738  -17.3455   22.9246 N   0  0  0  0  0  0  0  0  0  0  0  0
  -26.2725  -14.5995   20.1779 N   0  0  0  0  0  0  0  0  0  0  0  0
  -25.3126  -10.3896   18.8544 N   0  0  0  0  0  0  0  0  0  0  0  0
  -26.0418  -28.9984   23.4090 N   0  0  0  0  0  0  0  0  0  0  0  0
  -22.4767  -29.3910   17.6127 N   0  0  0  0  0  0  0  0  0  0  0  0
  -24.1041  -18.8180   21.1514 N   0  0  0  0  0  0  0  0  0  0  0  0
  -23.8152  -29.7375   14.2726 N   0  3  0  0  0  0  0  0  0  0  0  0
  -26.5761  -12.2457   18.3879 O   0  0  0  0  0  0  0  0  0  0  0  0
  -24.4476  -27.6605   22.3646 O   0  0  0  0  0  0  0  0  0  0  0  0
  -23.2850  -30.4706   20.1405 O   0  0  0  0  0  0  0  0  0  0  0  0
  -23.4064  -27.7689   16.2409 O   0  0  0  0  0  0  0  0  0  0  0  0
  -23.7688  -19.6305   23.2691 O   0  0  0  0  0  0  0  0  0  0  0  0
  -21.7394   -6.8970   21.3179 O   0  0  0  0  0  0  0  0  0  0  0  0
  -28.4316  -23.8903   18.7016 O   0  0  0  0  0  0  0  0  0  1  0  0
  -19.8157   -4.8797   16.5603 F   0  0  0  0  0  0  0  0  0  0  0  0
  -19.0567   -6.3046   21.0100 F   0  0  0  0  0  0  0  0  0  0  0  0
  1  2  1  0  0  0  0
  1  5  2  0  0  0  0
  2  6  2  0  0  0  0
  3  8  2  0  0  0  0
  3 16  1  0  0  0  0
  4  9  1  0  0  0  0
  4 16  2  0  0  0  0
  5 18  1  0  0  0  0
  6 20  1  0  0  0  0
  7 10  2  0  0  0  0
  7 19  1  0  0  0  0
  8 24  1  0  0  0  0
  9 24  2  0  0  0  0
 10 25  1  0  0  0  0
 11 12  2  0  0  0  0
 11 26  1  0  0  0  0
 12 27  1  0  0  0  0
 13 21  1  0  0  0  0
 13 25  2  0  0  0  0
 14 22  2  0  0  0  0
 14 30  1  0  0  0  0
 15 27  2  0  0  0  0
 15 28  1  0  0  0  0
 16 29  1  0  0  0  0
 17 29  1  0  0  0  0
 17 32  2  0  0  0  0
 17 33  1  0  0  0  0
 18 20  2  0  0  0  0
 18 38  1  0  0  0  0
 19 21  2  0  0  0  0
 19 39  1  0  0  0  0
 20 47  1  0  0  0  0
 21 40  1  0  0  0  0
 22 23  1  0  0  0  0
 22 58  1  0  0  0  0
 23 31  2  0  0  0  0
 23 50  1  0  0  0  0
 24 84  1  0  0  0  0
 25 85  1  0  0  0  0
 26 28  2  0  0  0  0
 26 84  1  0  0  0  0
 27 86  1  0  0  0  0
 28 87  1  0  0  0  0
 29 68  2  0  0  0  0
 30 59  1  0  0  0  0
 30 69  2  0  0  0  0
 31 64  1  0  0  0  0
 31 69  1  0  0  0  0
 32 70  1  0  0  0  0
 32 73  1  0  0  0  0
 33 74  1  0  0  0  0
 33 79  2  0  0  0  0
 34 48  1  0  0  0  0
 34 75  1  0  0  0  0
 34 80  2  0  0  0  0
 35 65  1  0  0  0  0
 35 71  1  0  0  0  0
 35 81  2  0  0  0  0
 36 66  1  0  0  0  0
 36 76  1  0  0  0  0
 36 82  2  0  0  0  0
 37 72  1  0  0  0  0
 37 77  1  0  0  0  0
 37 83  2  0  0  0  0
 38 41  1  0  0  0  0
 39 48  1  0  0  0  0
 40 71  1  0  0  0  0
 41 43  1  0  0  0  0
 42 44  1  0  0  0  0
 42 45  1  0  0  0  0
 43 47  1  0  0  0  0
 44 49  1  0  0  0  0
 45 72  1  0  0  0  0
 46 49  1  0  0  0  0
 46 72  1  0  0  0  0
 47 75  1  0  0  0  0
 48 71  1  0  0  0  0
 49 70  1  0  0  0  0
 51 60  1  0  0  0  0
 52 64  1  0  0  0  0
 53 66  1  0  0  0  0
 54 67  1  0  0  0  0
 55 67  1  0  0  0  0
 56 67  1  0  0  0  0
 57 78  1  0  0  0  0
 58 63  1  0  0  0  0
 59 61  1  0  0  0  0
 60 64  1  0  0  0  0
 61 62  1  0  0  0  0
 62 77  1  0  0  0  0
 63 85  1  0  0  0  0
 65 67  1  0  0  0  0
 65 76  1  0  0  0  0
 66 78  1  0  0  0  0
 68 70  1  0  0  0  0
M  CHG  1  78   1
M  ISO  4  37 100  63 101  77 100  85 101
M  END
> <Batch ID>
0091

> <Smiles>
CCC(C)c1nc(CCC[100NH:0][100C:0](=O)N2CCCC(n3nc(-c4ccc(Oc5ccc(F)cc5F)cc4)c(C(N)=O)c3N)C2)cc(C[101CH2:1][101O:1]c2ccc3c(c2)CN(C(=O)C(NC(=O)C(C)NC)C(C)(C)C)C(C(=O)NC2CCCc4ccccc42)C3)c1C

> <Shape>
0.227

> <Color>
0.084

> <Negative vol penalty>
0.000

$$$$

  -OEChem-04052319113D

 88 96  0     1  0  0  0  0  0999 V2000
  -29.3993  -11.0301   16.2160 C   0  0  0  0  0  0  0  0  0  0  0  0
  -28.0695  -11.4357   16.1659 C   0  0  0  0  0  0  0  0  0  0  0  0
  -27.9197  -31.4851   21.0241 C   0  0  0  0  0  0  0  0  0  0  0  0
  -26.9909  -30.4137   22.9803 C   0  0  0  0  0  0  0  0  0  0  0  0
  -30.1707  -11.3114   17.3428 C   0  0  0  0  0  0  0  0  0  0  0  0
  -27.5101  -12.1221   17.2430 C   0  0  0  0  0  0  0  0  0  0  0  0
  -22.6717  -17.1923   18.7265 C   0  0  0  0  0  0  0  0  0  0  0  0
  -28.5752  -32.4069   21.8402 C   0  0  0  0  0  0  0  0  0  0  0  0
  -27.6465  -31.3356   23.7964 C   0  0  0  0  0  0  0  0  0  0  0  0
  -21.5557  -17.4132   19.5323 C   0  0  0  0  0  0  0  0  0  0  0  0
  -28.7856  -33.6254   26.3788 C   0  0  0  0  0  0  0  0  0  0  0  0
  -28.0613  -34.1940   27.4266 C   0  0  0  0  0  0  0  0  0  0  0  0
  -23.0063  -17.9134   21.3937 C   0  0  0  0  0  0  0  0  0  0  0  0
  -19.4214  -22.7370   21.8284 C   0  0  0  0  0  0  0  0  0  0  0  0
  -20.6694  -21.2780   20.3619 C   0  0  0  0  0  0  0  0  0  0  0  0
  -26.4830  -35.1058   25.8408 C   0  0  0  0  0  0  0  0  0  0  0  0
  -27.1275  -30.4885   21.5942 C   0  0  0  0  0  0  0  0  0  0  0  0
  -26.9411  -28.2948   20.3054 C   0  0  0  0  0  0  0  0  0  0  0  0
  -29.6232  -12.0100   18.4303 C   0  0  0  0  0  0  0  0  0  0  0  0
  -23.9656  -17.3198   19.2520 C   0  0  0  0  0  0  0  0  0  0  0  0
  -28.2745  -12.4119   18.3860 C   0  0  0  0  0  0  0  0  0  0  0  0
  -24.1371  -17.6960   20.5918 C   0  0  0  0  0  0  0  0  0  0  0  0
  -19.6638  -21.4649   21.3103 C   0  0  0  0  0  0  0  0  0  0  0  0
  -20.1845  -23.8224   21.3979 C   0  0  0  0  0  0  0  0  0  0  0  0
  -21.4325  -22.3634   19.9315 C   0  0  0  0  0  0  0  0  0  0  0  0
  -21.1901  -23.6356   20.4495 C   0  0  0  0  0  0  0  0  0  0  0  0
  -28.4387  -32.3322   23.2263 C   0  0  0  0  0  0  0  0  0  0  0  0
  -21.7228  -17.7710   20.8669 C   0  0  0  0  0  0  0  0  0  0  0  0
  -28.3587  -33.7971   25.0620 C   0  0  0  0  0  0  0  0  0  0  0  0
  -26.9100  -34.9341   27.1576 C   0  0  0  0  0  0  0  0  0  0  0  0
  -27.2074  -34.5373   24.7930 C   0  0  0  0  0  0  0  0  0  0  0  0
  -26.4496  -29.5362   20.7517 C   0  0  0  0  0  0  0  0  0  0  0  0
  -25.9242  -27.7778   19.5405 C   0  0  0  0  0  0  0  0  0  0  0  0
  -28.2039  -27.6653   20.5596 C   0  0  0  0  0  0  0  0  0  0  0  0
  -26.4273  -15.3497   19.6549 C   0  0  0  0  0  0  0  0  0  0  0  0
  -27.9442  -18.0618   20.5852 C   0  0  0  0  0  0  0  0  0  0  0  0
  -27.7108  -21.2287   21.8355 C   0  0  0  0  0  0  0  0  0  0  0  0
  -20.0020  -28.6590   19.4965 C   0  0  0  0  0  0  0  0  0  0  0  0
  -30.4828  -12.2496   19.6462 C   0  0  0  0  0  0  0  0  0  0  0  0
  -25.1593  -17.1041   18.3626 C   0  0  0  0  0  0  0  0  0  0  0  0
  -25.5049  -17.8659   21.1989 C   0  0  0  0  0  0  0  0  0  0  0  0
  -29.9211  -13.3098   20.5900 C   0  0  0  0  0  0  0  0  0  0  0  0
  -22.2564  -29.1275   16.7808 C   0  0  0  0  0  0  0  0  0  0  0  0
  -28.4333  -13.0751   20.8315 C   0  0  0  0  0  0  0  0  0  0  0  0
  -23.6310  -29.1733   17.4502 C   0  0  0  0  0  0  0  0  0  0  0  0
  -21.1868  -29.7959   17.6417 C   0  0  0  0  0  0  0  0  0  0  0  0
  -22.4722  -29.3341   19.6930 C   0  0  0  0  0  0  0  0  0  0  0  0
  -27.6388  -13.1803   19.5242 C   0  0  1  0  0  0  0  0  0  0  0  0
  -26.4275  -16.7604   19.1376 C   0  0  1  0  0  0  0  0  0  0  0  0
  -23.5732  -28.6228   18.8879 C   0  0  2  0  0  0  0  0  0  0  0  0
  -22.0084  -24.7995   19.9885 C   0  0  0  0  0  0  0  0  0  0  0  0
  -21.9426  -21.6216   17.5770 C   0  0  0  0  0  0  0  0  0  0  0  0
  -23.6031  -21.1867   19.4233 C   0  0  0  0  0  0  0  0  0  0  0  0
  -28.4692  -23.5111   22.5515 C   0  0  0  0  0  0  0  0  0  0  0  0
  -17.4432  -25.4885   21.4828 C   0  0  0  0  0  0  0  0  0  0  0  0
  -28.7069  -16.6046   23.1552 C   0  0  0  0  0  0  0  0  0  0  0  0
  -29.2600  -18.8263   24.1683 C   0  0  0  0  0  0  0  0  0  0  0  0
  -30.5253  -18.0158   22.1771 C   0  0  0  0  0  0  0  0  0  0  0  0
  -27.3284  -22.3356   19.1175 C   0  0  0  0  0  0  0  0  0  0  0  0
  -18.8384  -20.2917   21.7751 C   0  0  0  0  0  0  0  0  0  0  0  0
  -19.9055  -25.1743   21.9692 C   0  0  0  0  0  0  0  0  0  0  0  0
  -19.4237  -19.5699   22.9908 C   0  0  0  0  0  0  0  0  0  0  0  0
  -18.9574  -27.5141   21.4348 C   0  0  0  0  0  0  0  0  0  0  0  0
  -20.7795  -18.9291   22.7176 C   0  0  0  0  0  0  0  0  0  1  0  0
  -22.5035  -22.1368   18.9149 C   0  0  0  0  0  0  0  0  0  0  0  0
  -28.1332  -18.7849   21.8968 C   0  0  1  0  0  0  0  0  0  0  0  0
  -28.3420  -22.5360   21.3915 C   0  0  2  0  0  0  0  0  0  0  0  0
  -18.8566  -26.0005   21.1817 C   0  0  2  0  0  0  0  0  0  0  0  0
  -29.1304  -18.0529   22.8387 C   0  0  0  0  0  0  0  0  0  0  0  0
  -25.2164  -29.7925   20.3072 N   0  0  0  0  0  0  0  0  0  0  0  0
  -24.9245  -28.7050   19.5735 N   0  0  0  0  0  0  0  0  0  0  0  0
  -26.6407  -17.6378   20.2904 N   0  0  0  0  0  0  0  0  0  0  0  0
  -21.1832  -29.2274   18.9918 N   0  0  0  0  0  0  0  0  0  0  0  0
  -25.7967  -26.6251   18.8495 N   0  0  0  0  0  0  0  0  0  0  0  0
  -29.1338  -28.3348   21.3668 N   0  0  0  0  0  0  0  0  0  0  0  0
  -27.4518  -14.5676   19.1567 N   0  0  0  0  0  0  0  0  0  0  0  0
  -28.5229  -20.1494   21.5583 N   0  0  0  0  0  0  0  0  0  0  0  0
  -20.0868  -28.1373   20.7815 N   0  0  0  0  0  0  0  0  0  0  0  0
  -27.5159  -23.1753   20.3285 N   0  3  0  0  0  0  0  0  0  0  0  0
  -28.5054  -26.5497   20.0717 O   0  0  0  0  0  0  0  0  0  0  0  0
  -25.5626  -14.9973   20.4485 O   0  0  0  0  0  0  0  0  0  0  0  0
  -28.9160  -17.8862   19.8460 O   0  0  0  0  0  0  0  0  0  0  0  0
  -26.6093  -21.1711   22.3775 O   0  0  0  0  0  0  0  0  0  0  0  0
  -18.9512  -28.6147   18.8478 O   0  0  0  0  0  0  0  0  0  0  0  0
  -29.0784  -33.2314   24.0230 O   0  0  0  0  0  0  0  0  0  0  0  0
  -20.6352  -17.9867   21.6558 O   0  0  0  0  0  0  0  0  0  1  0  0
  -26.2137  -35.4787   28.1639 F   0  0  0  0  0  0  0  0  0  0  0  0
  -26.7916  -34.7047   23.5301 F   0  0  0  0  0  0  0  0  0  0  0  0
  1  2  1  0  0  0  0
  1  5  2  0  0  0  0
  2  6  2  0  0  0  0
  3  8  2  0  0  0  0
  3 17  1  0  0  0  0
  4  9  1  0  0  0  0
  4 17  2  0  0  0  0
  5 19  1  0  0  0  0
  6 21  1  0  0  0  0
  7 10  2  0  0  0  0
  7 20  1  0  0  0  0
  8 27  1  0  0  0  0
  9 27  2  0  0  0  0
 10 28  1  0  0  0  0
 11 12  2  0  0  0  0
 11 29  1  0  0  0  0
 12 30  1  0  0  0  0
 13 22  1  0  0  0  0
 13 28  2  0  0  0  0
 14 23  1  0  0  0  0
 14 24  2  0  0  0  0
 15 23  2  0  0  0  0
 15 25  1  0  0  0  0
 16 30  2  0  0  0  0
 16 31  1  0  0  0  0
 17 32  1  0  0  0  0
 18 32  1  0  0  0  0
 18 33  2  0  0  0  0
 18 34  1  0  0  0  0
 19 21  2  0  0  0  0
 19 39  1  0  0  0  0
 20 22  2  0  0  0  0
 20 40  1  0  0  0  0
 21 48  1  0  0  0  0
 22 41  1  0  0  0  0
 23 60  1  0  0  0  0
 24 26  1  0  0  0  0
 24 61  1  0  0  0  0
 25 26  2  0  0  0  0
 25 65  1  0  0  0  0
 26 51  1  0  0  0  0
 27 85  1  0  0  0  0
 28 86  1  0  0  0  0
 29 31  2  0  0  0  0
 29 85  1  0  0  0  0
 30 87  1  0  0  0  0
 31 88  1  0  0  0  0
 32 70  2  0  0  0  0
 33 71  1  0  0  0  0
 33 74  1  0  0  0  0
 34 75  1  0  0  0  0
 34 80  2  0  0  0  0
 35 49  1  0  0  0  0
 35 76  1  0  0  0  0
 35 81  2  0  0  0  0
 36 66  1  0  0  0  0
 36 72  1  0  0  0  0
 36 82  2  0  0  0  0
 37 67  1  0  0  0  0
 37 77  1  0  0  0  0
 37 83  2  0  0  0  0
 38 73  1  0  0  0  0
 38 78  1  0  0  0  0
 38 84  2  0  0  0  0
 39 42  1  0  0  0  0
 40 49  1  0  0  0  0
 41 72  1  0  0  0  0
 42 44  1  0  0  0  0
 43 45  1  0  0  0  0
 43 46  1  0  0  0  0
 44 48  1  0  0  0  0
 45 50  1  0  0  0  0
 46 73  1  0  0  0  0
 47 50  1  0  0  0  0
 47 73  1  0  0  0  0
 48 76  1  0  0  0  0
 49 72  1  0  0  0  0
 50 71  1  0  0  0  0
 52 65  1  0  0  0  0
 53 65  1  0  0  0  0
 54 67  1  0  0  0  0
 55 68  1  0  0  0  0
 56 69  1  0  0  0  0
 57 69  1  0  0  0  0
 58 69  1  0  0  0  0
 59 79  1  0  0  0  0
 60 62  1  0  0  0  0
 61 68  1  0  0  0  0
 62 64  1  0  0  0  0
 63 68  1  0  0  0  0
 63 78  1  0  0  0  0
 64 86  1  0  0  0  0
 66 69  1  0  0  0  0
 66 77  1  0  0  0  0
 67 79  1  0  0  0  0
 70 71  1  0  0  0  0
M  CHG  1  79   1
M  ISO  4  38 100  64 101  78 100  86 101
M  END
> <Batch ID>
0091

> <Smiles>
CNC(C)C(=O)NC(C(=O)N1Cc2cc([101O:1][101CH2:1]CCc3cc(CC(C)C[100NH:0][100C:0](=O)N4CCCC(n5nc(-c6ccc(Oc7ccc(F)cc7F)cc6)c(C(N)=O)c5N)C4)c(C)c(C(C)C)c3)ccc2CC1C(=O)NC1CCCc2ccccc21)C(C)(C)C

> <Shape>
0.223

> <Color>
0.071

> <Negative vol penalty>
0.000

$$$$

  -OEChem-04052319113D

 86 94  0     1  0  0  0  0  0999 V2000
  -22.8639  -10.7374   18.2561 C   0  0  0  0  0  0  0  0  0  0  0  0
  -22.4750  -12.0605   18.0733 C   0  0  0  0  0  0  0  0  0  0  0  0
  -28.7348  -27.2985   16.7710 C   0  0  0  0  0  0  0  0  0  0  0  0
  -28.8379  -26.0352   18.8279 C   0  0  0  0  0  0  0  0  0  0  0  0
  -23.8163  -10.4192   19.2235 C   0  0  0  0  0  0  0  0  0  0  0  0
  -23.0375  -13.0662   18.8584 C   0  0  0  0  0  0  0  0  0  0  0  0
  -24.3008  -18.8066   17.1385 C   0  0  0  0  0  0  0  0  0  0  0  0
  -30.0459  -26.9252   16.4760 C   0  0  0  0  0  0  0  0  0  0  0  0
  -30.1491  -25.6619   18.5328 C   0  0  0  0  0  0  0  0  0  0  0  0
  -23.6161  -20.0091   17.3089 C   0  0  0  0  0  0  0  0  0  0  0  0
  -33.2424  -26.0100   15.0062 C   0  0  0  0  0  0  0  0  0  0  0  0
  -33.5194  -25.5878   13.7060 C   0  0  0  0  0  0  0  0  0  0  0  0
  -24.9576  -20.4902   19.2552 C   0  0  0  0  0  0  0  0  0  0  0  0
  -20.3932  -26.0912   21.2153 C   0  0  0  0  0  0  0  0  0  0  0  0
  -31.9258  -23.7885   13.9506 C   0  0  0  0  0  0  0  0  0  0  0  0
  -19.1290  -24.1651   21.8058 C   0  0  0  0  0  0  0  0  0  0  0  0
  -28.1308  -26.8536   17.9470 C   0  0  0  0  0  0  0  0  0  0  0  0
  -25.5974  -26.5590   17.8942 C   0  0  0  0  0  0  0  0  0  0  0  0
  -24.3978  -11.4228   20.0143 C   0  0  0  0  0  0  0  0  0  0  0  0
  -25.3134  -18.4312   18.0331 C   0  0  0  0  0  0  0  0  0  0  0  0
  -23.9975  -12.7611   19.8382 C   0  0  0  0  0  0  0  0  0  0  0  0
  -25.6554  -19.2837   19.0925 C   0  0  0  0  0  0  0  0  0  0  0  0
  -20.3506  -24.7244   21.4669 C   0  0  0  0  0  0  0  0  0  0  0  0
  -19.2294  -26.8463   21.3089 C   0  0  0  0  0  0  0  0  0  0  0  0
  -30.7531  -26.1069   17.3568 C   0  0  0  0  0  0  0  0  0  0  0  0
  -23.9424  -20.8497   18.3690 C   0  0  0  0  0  0  0  0  0  0  0  0
  -32.3070  -25.3214   15.7787 C   0  0  0  0  0  0  0  0  0  0  0  0
  -32.8612  -24.4771   13.1782 C   0  0  0  0  0  0  0  0  0  0  0  0
  -31.6487  -24.2107   15.2509 C   0  0  0  0  0  0  0  0  0  0  0  0
  -26.7765  -27.2393   18.2527 C   0  0  0  0  0  0  0  0  0  0  0  0
  -18.0580  -26.1920   21.6546 C   0  0  0  0  0  0  0  0  0  0  0  0
  -24.5856  -27.3266   18.4173 C   0  0  0  0  0  0  0  0  0  0  0  0
  -25.4314  -25.3420   17.1545 C   0  0  0  0  0  0  0  0  0  0  0  0
  -25.7409  -16.0120   20.0501 C   0  0  0  0  0  0  0  0  0  0  0  0
  -28.6755  -17.3452   20.4152 C   0  0  0  0  0  0  0  0  0  0  0  0
  -30.6389  -20.1290   20.2094 C   0  0  0  0  0  0  0  0  0  0  0  0
  -22.4047  -30.3105   22.5989 C   0  0  0  0  0  0  0  0  0  0  0  0
  -25.3885  -11.0247   21.0795 C   0  0  0  0  0  0  0  0  0  0  0  0
  -26.0607  -17.1434   17.8200 C   0  0  0  0  0  0  0  0  0  0  0  0
  -26.7483  -18.9363   20.0688 C   0  0  0  0  0  0  0  0  0  0  0  0
  -26.2113  -12.1942   21.6138 C   0  0  0  0  0  0  0  0  0  0  0  0
  -24.6742  -31.9724   20.4161 C   0  0  0  0  0  0  0  0  0  0  0  0
  -25.3093  -13.3856   21.9203 C   0  0  0  0  0  0  0  0  0  0  0  0
  -25.3302  -30.8330   19.6341 C   0  0  0  0  0  0  0  0  0  0  0  0
  -24.4028  -31.5784   21.8664 C   0  0  0  0  0  0  0  0  0  0  0  0
  -24.2864  -29.1941   21.2537 C   0  0  0  0  0  0  0  0  0  0  0  0
  -24.6030  -13.8832   20.6533 C   0  0  1  0  0  0  0  0  0  0  0  0
  -26.7240  -16.6202   19.0903 C   0  0  1  0  0  0  0  0  0  0  0  0
  -24.5285  -29.5247   19.7710 C   0  0  2  0  0  0  0  0  0  0  0  0
  -16.1959  -26.9100   23.1944 C   0  0  0  0  0  0  0  0  0  0  0  0
  -15.7196  -26.4756   20.7573 C   0  0  0  0  0  0  0  0  0  0  0  0
  -32.7336  -21.5100   20.2609 C   0  0  0  0  0  0  0  0  0  0  0  0
  -28.1532  -17.3685   23.4213 C   0  0  0  0  0  0  0  0  0  0  0  0
  -30.0479  -18.9865   23.6675 C   0  0  0  0  0  0  0  0  0  0  0  0
  -30.4729  -16.6979   22.7707 C   0  0  0  0  0  0  0  0  0  0  0  0
  -31.2022  -19.5911   17.3541 C   0  0  0  0  0  0  0  0  0  0  0  0
  -21.5943  -23.8770   21.3731 C   0  0  0  0  0  0  0  0  0  0  0  0
  -19.2684  -28.3115   21.0424 C   0  0  0  0  0  0  0  0  0  0  0  0
  -21.8366  -23.2908   19.9806 C   0  0  0  0  0  0  0  0  0  0  0  0
  -19.2890  -29.1917   22.3086 C   0  0  0  0  0  0  0  0  0  0  0  0
  -20.4599  -28.9123   23.2484 C   0  0  0  0  0  0  0  0  0  0  0  0
  -23.1397  -22.5073   19.8737 C   0  0  0  0  0  0  0  0  0  1  0  0
  -16.7772  -26.9522   21.7694 C   0  0  0  0  0  0  0  0  0  0  0  0
  -29.2689  -18.3901   21.3290 C   0  0  1  0  0  0  0  0  0  0  0  0
  -32.0078  -20.3528   19.5924 C   0  0  2  0  0  0  0  0  0  0  0  0
  -29.4637  -17.8667   22.7801 C   0  0  0  0  0  0  0  0  0  0  0  0
  -17.9775  -24.8662   21.9065 N   0  0  0  0  0  0  0  0  0  0  0  0
  -26.5375  -28.3535   18.9495 N   0  0  0  0  0  0  0  0  0  0  0  0
  -25.1964  -28.3791   19.0331 N   0  0  0  0  0  0  0  0  0  0  0  0
  -27.4456  -17.6634   19.8219 N   0  0  0  0  0  0  0  0  0  0  0  0
  -23.6377  -30.3306   21.9263 N   0  0  0  0  0  0  0  0  0  0  0  0
  -23.2419  -27.1971   18.4060 N   0  0  0  0  0  0  0  0  0  0  0  0
  -26.5767  -24.6810   16.6902 N   0  0  0  0  0  0  0  0  0  0  0  0
  -25.5114  -14.6653   19.8425 N   0  0  0  0  0  0  0  0  0  0  0  0
  -30.4981  -18.8432   20.6871 N   0  0  0  0  0  0  0  0  0  0  0  0
  -21.7415  -29.0895   22.6029 N   0  0  0  0  0  0  0  0  0  0  0  0
  -31.8775  -20.6564   18.1391 N   0  3  0  0  0  0  0  0  0  0  0  0
  -24.3003  -24.8639   16.8984 O   0  0  0  0  0  0  0  0  0  0  0  0
  -25.2297  -16.7124   20.9161 O   0  0  0  0  0  0  0  0  0  0  0  0
  -29.2844  -16.2887   20.2289 O   0  0  0  0  0  0  0  0  0  0  0  0
  -29.7818  -21.0080   20.2655 O   0  0  0  0  0  0  0  0  0  0  0  0
  -21.9275  -31.3082   23.1501 O   0  0  0  0  0  0  0  0  0  0  0  0
  -32.0325  -25.7422   17.0691 O   0  0  0  0  0  0  0  0  0  0  0  0
  -23.2752  -22.0237   18.5380 O   0  0  0  0  0  0  0  0  0  1  0  0
  -33.1262  -24.0727   11.9290 F   0  0  0  0  0  0  0  0  0  0  0  0
  -30.7483  -23.5458   15.9878 F   0  0  0  0  0  0  0  0  0  0  0  0
  1  2  1  0  0  0  0
  1  5  2  0  0  0  0
  2  6  2  0  0  0  0
  3  8  2  0  0  0  0
  3 17  1  0  0  0  0
  4  9  1  0  0  0  0
  4 17  2  0  0  0  0
  5 19  1  0  0  0  0
  6 21  1  0  0  0  0
  7 10  2  0  0  0  0
  7 20  1  0  0  0  0
  8 25  1  0  0  0  0
  9 25  2  0  0  0  0
 10 26  1  0  0  0  0
 11 12  2  0  0  0  0
 11 27  1  0  0  0  0
 12 28  1  0  0  0  0
 13 22  1  0  0  0  0
 13 26  2  0  0  0  0
 14 23  2  0  0  0  0
 14 24  1  0  0  0  0
 15 28  2  0  0  0  0
 15 29  1  0  0  0  0
 16 23  1  0  0  0  0
 16 67  2  0  0  0  0
 17 30  1  0  0  0  0
 18 30  1  0  0  0  0
 18 32  2  0  0  0  0
 18 33  1  0  0  0  0
 19 21  2  0  0  0  0
 19 38  1  0  0  0  0
 20 22  2  0  0  0  0
 20 39  1  0  0  0  0
 21 47  1  0  0  0  0
 22 40  1  0  0  0  0
 23 57  1  0  0  0  0
 24 31  2  0  0  0  0
 24 58  1  0  0  0  0
 25 83  1  0  0  0  0
 26 84  1  0  0  0  0
 27 29  2  0  0  0  0
 27 83  1  0  0  0  0
 28 85  1  0  0  0  0
 29 86  1  0  0  0  0
 30 68  2  0  0  0  0
 31 63  1  0  0  0  0
 31 67  1  0  0  0  0
 32 69  1  0  0  0  0
 32 72  1  0  0  0  0
 33 73  1  0  0  0  0
 33 78  2  0  0  0  0
 34 48  1  0  0  0  0
 34 74  1  0  0  0  0
 34 79  2  0  0  0  0
 35 64  1  0  0  0  0
 35 70  1  0  0  0  0
 35 80  2  0  0  0  0
 36 65  1  0  0  0  0
 36 75  1  0  0  0  0
 36 81  2  0  0  0  0
 37 71  1  0  0  0  0
 37 76  1  0  0  0  0
 37 82  2  0  0  0  0
 38 41  1  0  0  0  0
 39 48  1  0  0  0  0
 40 70  1  0  0  0  0
 41 43  1  0  0  0  0
 42 44  1  0  0  0  0
 42 45  1  0  0  0  0
 43 47  1  0  0  0  0
 44 49  1  0  0  0  0
 45 71  1  0  0  0  0
 46 49  1  0  0  0  0
 46 71  1  0  0  0  0
 47 74  1  0  0  0  0
 48 70  1  0  0  0  0
 49 69  1  0  0  0  0
 50 63  1  0  0  0  0
 51 63  1  0  0  0  0
 52 65  1  0  0  0  0
 53 66  1  0  0  0  0
 54 66  1  0  0  0  0
 55 66  1  0  0  0  0
 56 77  1  0  0  0  0
 57 59  1  0  0  0  0
 58 60  1  0  0  0  0
 59 62  1  0  0  0  0
 60 61  1  0  0  0  0
 61 76  1  0  0  0  0
 62 84  1  0  0  0  0
 64 66  1  0  0  0  0
 64 75  1  0  0  0  0
 65 77  1  0  0  0  0
 68 69  1  0  0  0  0
M  CHG  1  77   1
M  ISO  4  37 100  62 101  76 100  84 101
M  END
> <Batch ID>
0091

> <Smiles>
CNC(C)C(=O)NC(C(=O)N1Cc2cc([101O:1][101CH2:1]CCc3cnc(C(C)C)c(CCC[100NH:0][100C:0](=O)N4CCCC(n5nc(-c6ccc(Oc7ccc(F)cc7F)cc6)c(C(N)=O)c5N)C4)c3)ccc2CC1C(=O)NC1CCCc2ccccc21)C(C)(C)C

> <Shape>
0.207

> <Color>
0.070

> <Negative vol penalty>
0.000

$$$$

  -OEChem-04052319113D

 89 97  0     1  0  0  0  0  0999 V2000
  -23.4511  -18.0137   23.2727 C   0  0  0  0  0  0  0  0  0  0  0  0
  -24.5377  -18.8778   23.1829 C   0  0  0  0  0  0  0  0  0  0  0  0
  -26.1423  -13.1038   20.9077 C   0  0  0  0  0  0  0  0  0  0  0  0
  -24.5520  -14.4443   19.6785 C   0  0  0  0  0  0  0  0  0  0  0  0
  -22.2339  -18.3632   22.6894 C   0  0  0  0  0  0  0  0  0  0  0  0
  -24.4080  -20.0915   22.5087 C   0  0  0  0  0  0  0  0  0  0  0  0
  -27.1363  -25.3919   23.9116 C   0  0  0  0  0  0  0  0  0  0  0  0
  -25.1057  -12.2855   21.3565 C   0  0  0  0  0  0  0  0  0  0  0  0
  -23.5154  -13.6260   20.1273 C   0  0  0  0  0  0  0  0  0  0  0  0
  -28.2731  -26.0235   23.4092 C   0  0  0  0  0  0  0  0  0  0  0  0
  -22.9220   -9.6287   22.5347 C   0  0  0  0  0  0  0  0  0  0  0  0
  -23.1202   -8.2487   22.4917 C   0  0  0  0  0  0  0  0  0  0  0  0
  -26.8852  -27.3369   21.9367 C   0  0  0  0  0  0  0  0  0  0  0  0
  -31.4412  -24.7286   18.9772 C   0  0  0  0  0  0  0  0  0  0  0  0
  -29.0758  -25.1542   18.8862 C   0  0  0  0  0  0  0  0  0  0  0  0
  -23.4277   -8.3673   20.0983 C   0  0  0  0  0  0  0  0  0  0  0  0
  -25.8655  -14.1832   20.0688 C   0  0  0  0  0  0  0  0  0  0  0  0
  -27.7024  -14.8666   18.4358 C   0  0  0  0  0  0  0  0  0  0  0  0
  -22.0865  -19.5861   22.0160 C   0  0  0  0  0  0  0  0  0  0  0  0
  -25.8641  -25.7208   23.4218 C   0  0  0  0  0  0  0  0  0  0  0  0
  -23.1881  -20.4571   21.9146 C   0  0  0  0  0  0  0  0  0  0  0  0
  -25.7336  -26.7098   22.4364 C   0  0  0  0  0  0  0  0  0  0  0  0
  -30.3745  -25.6156   19.0700 C   0  0  0  0  0  0  0  0  0  0  0  0
  -23.7923  -12.5466   20.9663 C   0  0  0  0  0  0  0  0  0  0  0  0
  -28.1479  -26.9941   22.4195 C   0  0  0  0  0  0  0  0  0  0  0  0
  -22.9767  -10.3781   21.3594 C   0  0  0  0  0  0  0  0  0  0  0  0
  -23.3731   -7.6180   21.2736 C   0  0  0  0  0  0  0  0  0  0  0  0
  -23.2295   -9.7474   20.1412 C   0  0  0  0  0  0  0  0  0  0  0  0
  -26.9358  -15.0292   19.6053 C   0  0  0  0  0  0  0  0  0  0  0  0
  -31.1583  -23.4007   18.7008 C   0  0  0  0  0  0  0  0  0  0  0  0
  -28.8988  -23.8073   18.6138 C   0  0  0  0  0  0  0  0  0  0  0  0
  -28.5800  -15.9230   18.4508 C   0  0  0  0  0  0  0  0  0  0  0  0
  -27.6277  -13.8514   17.4261 C   0  0  0  0  0  0  0  0  0  0  0  0
  -23.5635  -24.1329   21.9087 C   0  0  0  0  0  0  0  0  0  0  0  0
  -21.9147  -26.8939   22.3338 C   0  0  0  0  0  0  0  0  0  0  0  0
  -21.9954  -30.2678   22.8408 C   0  0  0  0  0  0  0  0  0  0  0  0
  -28.3884  -21.3475   20.9784 C   0  0  0  0  0  0  0  0  0  0  0  0
  -20.7648  -19.8992   21.3606 C   0  0  0  0  0  0  0  0  0  0  0  0
  -24.6455  -25.0494   23.9933 C   0  0  0  0  0  0  0  0  0  0  0  0
  -24.3889  -27.1137   21.8914 C   0  0  0  0  0  0  0  0  0  0  0  0
  -20.6037  -21.3705   20.9868 C   0  0  0  0  0  0  0  0  0  0  0  0
  -30.8723  -18.8441   21.4681 C   0  0  0  0  0  0  0  0  0  0  0  0
  -21.8591  -21.8846   20.2894 C   0  0  0  0  0  0  0  0  0  0  0  0
  -30.2142  -17.5678   20.9407 C   0  0  0  0  0  0  0  0  0  0  0  0
  -29.8630  -19.7516   22.1680 C   0  0  0  0  0  0  0  0  0  0  0  0
  -28.0133  -18.8105   20.8388 C   0  0  0  0  0  0  0  0  0  0  0  0
  -23.0798  -21.7935   21.2130 C   0  0  1  0  0  0  0  0  0  0  0  0
  -23.4428  -25.0959   23.0558 C   0  0  1  0  0  0  0  0  0  0  0  0
  -28.9805  -17.8892   20.0759 C   0  0  2  0  0  0  0  0  0  0  0  0
  -31.4431  -27.7300   18.2466 C   0  0  0  0  0  0  0  0  0  0  0  0
  -27.4910  -22.1231   17.3867 C   0  0  0  0  0  0  0  0  0  0  0  0
  -20.4880  -32.2561   23.1091 C   0  0  0  0  0  0  0  0  0  0  0  0
  -32.3998  -21.7462   14.7425 C   0  0  0  0  0  0  0  0  0  0  0  0
  -31.1789  -20.4604   16.5079 C   0  0  0  0  0  0  0  0  0  0  0  0
  -21.3790  -26.8900   19.3300 C   0  0  0  0  0  0  0  0  0  0  0  0
  -20.7279  -29.3005   19.5134 C   0  0  0  0  0  0  0  0  0  0  0  0
  -19.4239  -27.5615   20.7374 C   0  0  0  0  0  0  0  0  0  0  0  0
  -23.0242  -30.8270   25.5589 C   0  0  0  0  0  0  0  0  0  0  0  0
  -32.2780  -22.4200   18.5956 C   0  0  0  0  0  0  0  0  0  0  0  0
  -32.8135  -22.3088   17.1561 C   0  0  0  0  0  0  0  0  0  0  0  0
  -31.3156  -27.3101   20.7316 C   0  0  0  0  0  0  0  0  0  0  0  0
  -26.8354  -22.8180   19.7194 C   0  0  0  0  0  0  0  0  0  0  0  0
  -30.4689  -26.8599   21.9185 C   0  0  0  0  0  0  0  0  0  1  0  0
  -30.6269  -27.0827   19.3720 C   0  0  2  0  0  0  0  0  0  0  0  0
  -27.5187  -23.2780   18.4090 C   0  0  1  0  0  0  0  0  0  0  0  0
  -21.7421  -28.1685   21.5435 C   0  0  1  0  0  0  0  0  0  0  0  0
  -21.2565  -31.1564   23.8252 C   0  0  2  0  0  0  0  0  0  0  0  0
  -31.7687  -21.8213   16.1351 C   0  0  0  0  0  0  0  0  0  0  0  0
  -20.8439  -27.9714   20.2898 C   0  0  0  0  0  0  0  0  0  0  0  0
  -27.2951  -16.1042   20.3120 N   0  0  0  0  0  0  0  0  0  0  0  0
  -29.9101  -22.9154   18.5161 N   0  0  0  0  0  0  0  0  0  0  0  0
  -28.2971  -16.6266   19.5845 N   0  0  0  0  0  0  0  0  0  0  0  0
  -23.2278  -26.4239   22.4777 N   0  0  0  0  0  0  0  0  0  0  0  0
  -28.7184  -20.0191   21.2938 N   0  0  0  0  0  0  0  0  0  0  0  0
  -29.5585  -16.3094   17.6049 N   0  0  0  0  0  0  0  0  0  0  0  0
  -26.6680  -12.8396   17.5657 N   0  0  0  0  0  0  0  0  0  0  0  0
  -23.0654  -22.8723   22.1776 N   0  0  0  0  0  0  0  0  0  0  0  0
  -21.2452  -29.1675   22.4834 N   0  0  0  0  0  0  0  0  0  0  0  0
  -27.2936  -21.5123   20.1388 N   0  0  0  0  0  0  0  0  0  0  0  0
  -22.2170  -31.7931   24.7702 N   0  3  0  0  0  0  0  0  0  0  0  0
  -28.4004  -13.8327   16.4381 O   0  0  0  0  0  0  0  0  0  0  0  0
  -24.0697  -24.5064   20.8570 O   0  0  0  0  0  0  0  0  0  0  0  0
  -20.9219  -26.3397   22.8121 O   0  0  0  0  0  0  0  0  0  0  0  0
  -23.1235  -30.5261   22.4273 O   0  0  0  0  0  0  0  0  0  0  0  0
  -29.0257  -22.3148   21.4087 O   0  0  0  0  0  0  0  0  0  0  0  0
  -22.7805  -11.7482   21.4038 O   0  0  0  0  0  0  0  0  0  0  0  0
  -29.2560  -27.6117   21.9269 O   0  0  0  0  0  0  0  0  0  1  0  0
  -23.5649   -6.2929   21.2327 F   0  0  0  0  0  0  0  0  0  0  0  0
  -23.2844  -10.4621   19.0090 F   0  0  0  0  0  0  0  0  0  0  0  0
  1  2  1  0  0  0  0
  1  5  2  0  0  0  0
  2  6  2  0  0  0  0
  3  8  2  0  0  0  0
  3 17  1  0  0  0  0
  4  9  1  0  0  0  0
  4 17  2  0  0  0  0
  5 19  1  0  0  0  0
  6 21  1  0  0  0  0
  7 10  2  0  0  0  0
  7 20  1  0  0  0  0
  8 24  1  0  0  0  0
  9 24  2  0  0  0  0
 10 25  1  0  0  0  0
 11 12  2  0  0  0  0
 11 26  1  0  0  0  0
 12 27  1  0  0  0  0
 13 22  1  0  0  0  0
 13 25  2  0  0  0  0
 14 23  1  0  0  0  0
 14 30  2  0  0  0  0
 15 23  2  0  0  0  0
 15 31  1  0  0  0  0
 16 27  2  0  0  0  0
 16 28  1  0  0  0  0
 17 29  1  0  0  0  0
 18 29  1  0  0  0  0
 18 32  2  0  0  0  0
 18 33  1  0  0  0  0
 19 21  2  0  0  0  0
 19 38  1  0  0  0  0
 20 22  2  0  0  0  0
 20 39  1  0  0  0  0
 21 47  1  0  0  0  0
 22 40  1  0  0  0  0
 23 64  1  0  0  0  0
 24 86  1  0  0  0  0
 25 87  1  0  0  0  0
 26 28  2  0  0  0  0
 26 86  1  0  0  0  0
 27 88  1  0  0  0  0
 28 89  1  0  0  0  0
 29 70  2  0  0  0  0
 30 59  1  0  0  0  0
 30 71  1  0  0  0  0
 31 65  1  0  0  0  0
 31 71  2  0  0  0  0
 32 72  1  0  0  0  0
 32 75  1  0  0  0  0
 33 76  1  0  0  0  0
 33 81  2  0  0  0  0
 34 48  1  0  0  0  0
 34 77  1  0  0  0  0
 34 82  2  0  0  0  0
 35 66  1  0  0  0  0
 35 73  1  0  0  0  0
 35 83  2  0  0  0  0
 36 67  1  0  0  0  0
 36 78  1  0  0  0  0
 36 84  2  0  0  0  0
 37 74  1  0  0  0  0
 37 79  1  0  0  0  0
 37 85  2  0  0  0  0
 38 41  1  0  0  0  0
 39 48  1  0  0  0  0
 40 73  1  0  0  0  0
 41 43  1  0  0  0  0
 42 44  1  0  0  0  0
 42 45  1  0  0  0  0
 43 47  1  0  0  0  0
 44 49  1  0  0  0  0
 45 74  1  0  0  0  0
 46 49  1  0  0  0  0
 46 74  1  0  0  0  0
 47 77  1  0  0  0  0
 48 73  1  0  0  0  0
 49 72  1  0  0  0  0
 50 64  1  0  0  0  0
 51 65  1  0  0  0  0
 52 67  1  0  0  0  0
 53 68  1  0  0  0  0
 54 68  1  0  0  0  0
 55 69  1  0  0  0  0
 56 69  1  0  0  0  0
 57 69  1  0  0  0  0
 58 80  1  0  0  0  0
 59 60  1  0  0  0  0
 60 68  1  0  0  0  0
 61 63  1  0  0  0  0
 61 64  1  0  0  0  0
 62 65  1  0  0  0  0
 62 79  1  0  0  0  0
 63 87  1  0  0  0  0
 66 69  1  0  0  0  0
 66 78  1  0  0  0  0
 67 80  1  0  0  0  0
 70 72  1  0  0  0  0
M  CHG  1  80   1
M  ISO  4  37 100  63 101  79 100  87 101
M  END
> <Batch ID>
0091

> <Smiles>
CNC(C)C(=O)NC(C(=O)N1Cc2cc([101O:1][101CH2:1]CC(C)c3cc(CCC(C)C)nc(C(C)C[100NH:0][100C:0](=O)N4CCCC(n5nc(-c6ccc(Oc7ccc(F)cc7F)cc6)c(C(N)=O)c5N)C4)c3)ccc2CC1C(=O)NC1CCCc2ccccc21)C(C)(C)C

> <Shape>
0.231

> <Color>
0.050

> <Negative vol penalty>
0.000

$$$$

  -OEChem-04052319113D

 89 97  0     1  0  0  0  0  0999 V2000
  -21.2466  -12.8532   20.6095 C   0  0  0  0  0  0  0  0  0  0  0  0
  -21.5554  -14.2035   20.7383 C   0  0  0  0  0  0  0  0  0  0  0  0
  -19.9795  -27.2532   23.8523 C   0  0  0  0  0  0  0  0  0  0  0  0
  -19.9501  -28.0649   21.5769 C   0  0  0  0  0  0  0  0  0  0  0  0
  -22.2642  -11.9005   20.6404 C   0  0  0  0  0  0  0  0  0  0  0  0
  -22.8820  -14.6020   20.8991 C   0  0  0  0  0  0  0  0  0  0  0  0
  -25.4806  -19.7078   18.7350 C   0  0  0  0  0  0  0  0  0  0  0  0
  -18.6310  -27.5829   23.9874 C   0  0  0  0  0  0  0  0  0  0  0  0
  -18.6015  -28.3945   21.7119 C   0  0  0  0  0  0  0  0  0  0  0  0
  -25.7613  -20.9398   19.3242 C   0  0  0  0  0  0  0  0  0  0  0  0
  -15.6452  -26.2778   23.0847 C   0  0  0  0  0  0  0  0  0  0  0  0
  -14.8059  -25.3405   23.6869 C   0  0  0  0  0  0  0  0  0  0  0  0
  -28.0132  -20.2031   19.7776 C   0  0  0  0  0  0  0  0  0  0  0  0
  -26.8323  -28.5390   18.4782 C   0  0  0  0  0  0  0  0  0  0  0  0
  -14.2619  -26.9382   25.4156 C   0  0  0  0  0  0  0  0  0  0  0  0
  -28.5567  -28.4455   20.1136 C   0  0  0  0  0  0  0  0  0  0  0  0
  -20.6391  -27.4943   22.6471 C   0  0  0  0  0  0  0  0  0  0  0  0
  -22.5685  -25.9308   22.0634 C   0  0  0  0  0  0  0  0  0  0  0  0
  -23.6049  -12.2882   20.7920 C   0  0  0  0  0  0  0  0  0  0  0  0
  -26.4625  -18.7086   18.6723 C   0  0  0  0  0  0  0  0  0  0  0  0
  -23.9183  -13.6535   20.9334 C   0  0  0  0  0  0  0  0  0  0  0  0
  -27.7432  -18.9602   19.1847 C   0  0  0  0  0  0  0  0  0  0  0  0
  -27.6899  -29.2063   19.3457 C   0  0  0  0  0  0  0  0  0  0  0  0
  -26.8672  -27.1509   18.4061 C   0  0  0  0  0  0  0  0  0  0  0  0
  -17.9419  -28.1535   22.9172 C   0  0  0  0  0  0  0  0  0  0  0  0
  -27.0268  -21.1866   19.8482 C   0  0  0  0  0  0  0  0  0  0  0  0
  -15.7929  -27.5453   23.6480 C   0  0  0  0  0  0  0  0  0  0  0  0
  -14.1142  -25.6707   24.8523 C   0  0  0  0  0  0  0  0  0  0  0  0
  -15.1012  -27.8755   24.8135 C   0  0  0  0  0  0  0  0  0  0  0  0
  -22.0324  -27.1545   22.5071 C   0  0  0  0  0  0  0  0  0  0  0  0
  -27.7709  -26.4821   19.2159 C   0  0  0  0  0  0  0  0  0  0  0  0
  -23.9288  -26.1148   22.1105 C   0  0  0  0  0  0  0  0  0  0  0  0
  -21.8970  -24.7348   21.6459 C   0  0  0  0  0  0  0  0  0  0  0  0
  -26.7459  -15.7658   19.8397 C   0  0  0  0  0  0  0  0  0  0  0  0
  -27.3182  -31.0715   21.8762 C   0  0  0  0  0  0  0  0  0  0  0  0
  -29.4454  -15.7316   18.0414 C   0  0  0  0  0  0  0  0  0  0  0  0
  -31.9217  -17.5025   16.4991 C   0  0  0  0  0  0  0  0  0  0  0  0
  -24.6657  -11.2188   20.8670 C   0  0  0  0  0  0  0  0  0  0  0  0
  -26.1519  -17.3946   18.0094 C   0  0  0  0  0  0  0  0  0  0  0  0
  -28.8384  -17.9281   19.1242 C   0  0  0  0  0  0  0  0  0  0  0  0
  -26.0822  -11.7508   20.6651 C   0  0  0  0  0  0  0  0  0  0  0  0
  -27.3056  -28.5650   24.4369 C   0  0  0  0  0  0  0  0  0  0  0  0
  -26.3059  -13.0053   21.5035 C   0  0  0  0  0  0  0  0  0  0  0  0
  -25.9873  -27.8263   24.2097 C   0  0  0  0  0  0  0  0  0  0  0  0
  -27.1733  -30.0523   24.1244 C   0  0  0  0  0  0  0  0  0  0  0  0
  -25.3432  -29.6035   22.5211 C   0  0  0  0  0  0  0  0  0  0  0  0
  -25.3477  -14.1269   21.0847 C   0  0  1  0  0  0  0  0  0  0  0  0
  -27.0729  -16.2652   18.4609 C   0  0  1  0  0  0  0  0  0  0  0  0
  -25.4411  -28.0925   22.7958 C   0  0  2  0  0  0  0  0  0  0  0  0
  -25.4502  -33.3031   21.3228 C   0  0  0  0  0  0  0  0  0  0  0  0
  -34.0086  -17.1964   15.1394 C   0  0  0  0  0  0  0  0  0  0  0  0
  -21.3449  -24.5291   16.5323 C   0  0  0  0  0  0  0  0  0  0  0  0
  -21.4926  -26.7041   17.7604 C   0  0  0  0  0  0  0  0  0  0  0  0
  -30.9621  -14.9109   20.5585 C   0  0  0  0  0  0  0  0  0  0  0  0
  -33.0892  -15.5414   19.3982 C   0  0  0  0  0  0  0  0  0  0  0  0
  -31.6646  -13.7114   18.4795 C   0  0  0  0  0  0  0  0  0  0  0  0
  -30.7838  -18.9863   14.2051 C   0  0  0  0  0  0  0  0  0  0  0  0
  -27.6781  -30.6902   19.4457 C   0  0  0  0  0  0  0  0  0  0  0  0
  -25.9498  -26.4296   17.4802 C   0  0  0  0  0  0  0  0  0  0  0  0
  -27.8540  -24.9770   19.1798 C   0  0  0  0  0  0  0  0  0  0  0  0
  -26.3833  -32.7209   20.2683 C   0  0  0  0  0  0  0  0  0  0  0  0
  -24.5056  -26.2858   17.9991 C   0  0  0  0  0  0  0  0  0  0  0  0
  -28.6446  -24.3756   20.3438 C   0  0  0  0  0  0  0  0  0  0  0  0
  -23.6135  -25.4785   17.0475 C   0  0  0  0  0  0  0  0  0  0  0  0
  -28.6506  -22.8514   20.3459 C   0  0  0  0  0  0  0  0  0  1  0  0
  -26.6988  -31.2378   20.5114 C   0  0  2  0  0  0  0  0  0  0  0  0
  -30.8888  -16.1087   18.2725 C   0  0  1  0  0  0  0  0  0  0  0  0
  -32.5036  -17.4114   15.0999 C   0  0  2  0  0  0  0  0  0  0  0  0
  -22.1595  -25.3459   17.5386 C   0  0  0  0  0  0  0  0  0  0  0  0
  -31.6302  -15.0871   19.1802 C   0  0  0  0  0  0  0  0  0  0  0  0
  -28.6195  -27.0958   20.0709 N   0  0  0  0  0  0  0  0  0  0  0  0
  -22.9751  -28.0496   22.8137 N   0  0  0  0  0  0  0  0  0  0  0  0
  -24.1174  -27.3877   22.5623 N   0  0  0  0  0  0  0  0  0  0  0  0
  -28.4838  -16.6568   18.4720 N   0  0  0  0  0  0  0  0  0  0  0  0
  -26.6304  -30.2629   22.7813 N   0  0  0  0  0  0  0  0  0  0  0  0
  -24.9701  -25.3101   21.8092 N   0  0  0  0  0  0  0  0  0  0  0  0
  -20.4956  -24.7164   21.6583 N   0  0  0  0  0  0  0  0  0  0  0  0
  -25.8059  -14.7532   19.8631 N   0  0  0  0  0  0  0  0  0  0  0  0
  -31.4837  -16.2756   16.9509 N   0  0  0  0  0  0  0  0  0  0  0  0
  -32.2276  -18.6643   14.3416 N   0  3  0  0  0  0  0  0  0  0  0  0
  -22.5213  -23.7072   21.2886 O   0  0  0  0  0  0  0  0  0  0  0  0
  -27.3061  -16.2613   20.8105 O   0  0  0  0  0  0  0  0  0  0  0  0
  -28.3830  -31.6417   22.1276 O   0  0  0  0  0  0  0  0  0  0  0  0
  -29.1810  -14.6591   17.4924 O   0  0  0  0  0  0  0  0  0  0  0  0
  -31.8651  -18.5559   17.1297 O   0  0  0  0  0  0  0  0  0  0  0  0
  -16.6259  -28.4751   23.0486 O   0  0  0  0  0  0  0  0  0  0  0  0
  -27.3033  -22.3880   20.4245 O   0  0  0  0  0  0  0  0  0  1  0  0
  -13.3071  -24.7710   25.4296 F   0  0  0  0  0  0  0  0  0  0  0  0
  -15.2382  -29.0920   25.3586 F   0  0  0  0  0  0  0  0  0  0  0  0
  1  2  1  0  0  0  0
  1  5  2  0  0  0  0
  2  6  2  0  0  0  0
  3  8  2  0  0  0  0
  3 17  1  0  0  0  0
  4  9  1  0  0  0  0
  4 17  2  0  0  0  0
  5 19  1  0  0  0  0
  6 21  1  0  0  0  0
  7 10  2  0  0  0  0
  7 20  1  0  0  0  0
  8 25  1  0  0  0  0
  9 25  2  0  0  0  0
 10 26  1  0  0  0  0
 11 12  2  0  0  0  0
 11 27  1  0  0  0  0
 12 28  1  0  0  0  0
 13 22  1  0  0  0  0
 13 26  2  0  0  0  0
 14 23  2  0  0  0  0
 14 24  1  0  0  0  0
 15 28  2  0  0  0  0
 15 29  1  0  0  0  0
 16 23  1  0  0  0  0
 16 71  2  0  0  0  0
 17 30  1  0  0  0  0
 18 30  1  0  0  0  0
 18 32  2  0  0  0  0
 18 33  1  0  0  0  0
 19 21  2  0  0  0  0
 19 38  1  0  0  0  0
 20 22  2  0  0  0  0
 20 39  1  0  0  0  0
 21 47  1  0  0  0  0
 22 40  1  0  0  0  0
 23 58  1  0  0  0  0
 24 31  2  0  0  0  0
 24 59  1  0  0  0  0
 25 86  1  0  0  0  0
 26 87  1  0  0  0  0
 27 29  2  0  0  0  0
 27 86  1  0  0  0  0
 28 88  1  0  0  0  0
 29 89  1  0  0  0  0
 30 72  2  0  0  0  0
 31 60  1  0  0  0  0
 31 71  1  0  0  0  0
 32 73  1  0  0  0  0
 32 76  1  0  0  0  0
 33 77  1  0  0  0  0
 33 81  2  0  0  0  0
 34 48  1  0  0  0  0
 34 78  1  0  0  0  0
 34 82  2  0  0  0  0
 35 66  1  0  0  0  0
 35 75  1  0  0  0  0
 35 83  2  0  0  0  0
 36 67  1  0  0  0  0
 36 74  1  0  0  0  0
 36 84  2  0  0  0  0
 37 68  1  0  0  0  0
 37 79  1  0  0  0  0
 37 85  2  0  0  0  0
 38 41  1  0  0  0  0
 39 48  1  0  0  0  0
 40 74  1  0  0  0  0
 41 43  1  0  0  0  0
 42 44  1  0  0  0  0
 42 45  1  0  0  0  0
 43 47  1  0  0  0  0
 44 49  1  0  0  0  0
 45 75  1  0  0  0  0
 46 49  1  0  0  0  0
 46 75  1  0  0  0  0
 47 78  1  0  0  0  0
 48 74  1  0  0  0  0
 49 73  1  0  0  0  0
 50 61  1  0  0  0  0
 51 68  1  0  0  0  0
 52 69  1  0  0  0  0
 53 69  1  0  0  0  0
 54 70  1  0  0  0  0
 55 70  1  0  0  0  0
 56 70  1  0  0  0  0
 57 80  1  0  0  0  0
 58 66  1  0  0  0  0
 59 62  1  0  0  0  0
 60 63  1  0  0  0  0
 61 66  1  0  0  0  0
 62 64  1  0  0  0  0
 63 65  1  0  0  0  0
 64 69  1  0  0  0  0
 65 87  1  0  0  0  0
 67 70  1  0  0  0  0
 67 79  1  0  0  0  0
 68 80  1  0  0  0  0
 72 73  1  0  0  0  0
M  CHG  1  80   1
M  ISO  4  35 100  65 101  66 100  87 101
M  END
> <Batch ID>
0091

> <Smiles>
CC[100CH:0](Cc1cnc(CC[101CH2:1][101O:1]c2ccc3c(c2)CN(C(=O)C(NC(=O)C(C)NC)C(C)(C)C)C(C(=O)NC2CCCc4ccccc42)C3)c(CCCC(C)C)c1)[100C:0](=O)N1CCCC(n2nc(-c3ccc(Oc4ccc(F)cc4F)cc3)c(C(N)=O)c2N)C1

> <Shape>
0.217

> <Color>
0.066

> <Negative vol penalty>
0.000

$$$$

  -OEChem-04052319113D

 82 90  0     1  0  0  0  0  0999 V2000
  -23.0024  -11.9079   17.7061 C   0  0  0  0  0  0  0  0  0  0  0  0
  -22.4812  -13.1611   18.0115 C   0  0  0  0  0  0  0  0  0  0  0  0
  -29.8926  -26.6943   19.0668 C   0  0  0  0  0  0  0  0  0  0  0  0
  -29.4444  -25.9085   21.3070 C   0  0  0  0  0  0  0  0  0  0  0  0
  -24.0534  -11.3886   18.4607 C   0  0  0  0  0  0  0  0  0  0  0  0
  -23.0101  -13.8953   19.0725 C   0  0  0  0  0  0  0  0  0  0  0  0
  -23.6045  -19.9816   19.4034 C   0  0  0  0  0  0  0  0  0  0  0  0
  -31.2373  -26.3557   19.2170 C   0  0  0  0  0  0  0  0  0  0  0  0
  -30.7892  -25.5699   21.4573 C   0  0  0  0  0  0  0  0  0  0  0  0
  -22.8287  -20.9682   20.0103 C   0  0  0  0  0  0  0  0  0  0  0  0
  -33.9814  -27.6542   20.7030 C   0  0  0  0  0  0  0  0  0  0  0  0
  -34.9336  -28.5801   20.2768 C   0  0  0  0  0  0  0  0  0  0  0  0
  -24.2707  -20.9045   21.9432 C   0  0  0  0  0  0  0  0  0  0  0  0
  -18.9412  -27.0142   21.6933 C   0  0  0  0  0  0  0  0  0  0  0  0
  -35.8113  -26.9587   18.7154 C   0  0  0  0  0  0  0  0  0  0  0  0
  -19.9434  -26.7982   23.6980 C   0  0  0  0  0  0  0  0  0  0  0  0
  -28.9961  -26.4708   20.1118 C   0  0  0  0  0  0  0  0  0  0  0  0
  -26.5737  -26.0020   19.4638 C   0  0  0  0  0  0  0  0  0  0  0  0
  -24.6019  -12.1208   19.5254 C   0  0  0  0  0  0  0  0  0  0  0  0
  -24.7148  -19.4403   20.0673 C   0  0  0  0  0  0  0  0  0  0  0  0
  -24.0686  -13.3846   19.8429 C   0  0  0  0  0  0  0  0  0  0  0  0
  -25.0605  -19.9130   21.3414 C   0  0  0  0  0  0  0  0  0  0  0  0
  -19.7051  -27.6906   22.6762 C   0  0  0  0  0  0  0  0  0  0  0  0
  -31.6856  -25.7935   20.4122 C   0  0  0  0  0  0  0  0  0  0  0  0
  -23.1600  -21.4277   21.2816 C   0  0  0  0  0  0  0  0  0  0  0  0
  -33.9442  -26.3805   20.1354 C   0  0  0  0  0  0  0  0  0  0  0  0
  -35.8485  -28.2324   19.2830 C   0  0  0  0  0  0  0  0  0  0  0  0
  -34.8591  -26.0328   19.1416 C   0  0  0  0  0  0  0  0  0  0  0  0
  -27.6070  -26.8208   19.9575 C   0  0  0  0  0  0  0  0  0  0  0  0
  -18.7357  -25.7291   22.1446 C   0  0  0  0  0  0  0  0  0  0  0  0
  -25.4526  -26.7937   19.5181 C   0  0  0  0  0  0  0  0  0  0  0  0
  -26.6229  -24.6470   18.9979 C   0  0  0  0  0  0  0  0  0  0  0  0
  -25.5196  -16.5429   21.0971 C   0  0  0  0  0  0  0  0  0  0  0  0
  -28.3400  -17.9938   21.7770 C   0  0  0  0  0  0  0  0  0  0  0  0
  -30.0190  -20.8835   22.4680 C   0  0  0  0  0  0  0  0  0  0  0  0
  -22.2001  -30.4471   22.2049 C   0  0  0  0  0  0  0  0  0  0  0  0
  -25.7060  -11.4977   20.3423 C   0  0  0  0  0  0  0  0  0  0  0  0
  -25.5572  -18.3957   19.3879 C   0  0  0  0  0  0  0  0  0  0  0  0
  -26.2545  -19.3791   22.0882 C   0  0  0  0  0  0  0  0  0  0  0  0
  -26.4585  -12.4998   21.2141 C   0  0  0  0  0  0  0  0  0  0  0  0
  -24.9635  -31.7540   20.3794 C   0  0  0  0  0  0  0  0  0  0  0  0
  -25.4787  -13.4050   21.9540 C   0  0  0  0  0  0  0  0  0  0  0  0
  -25.8149  -30.5209   20.0719 C   0  0  0  0  0  0  0  0  0  0  0  0
  -24.3127  -31.6611   21.7577 C   0  0  0  0  0  0  0  0  0  0  0  0
  -24.3836  -29.1987   21.6850 C   0  0  0  0  0  0  0  0  0  0  0  0
  -24.6319  -14.2219   20.9706 C   0  0  1  0  0  0  0  0  0  0  0  0
  -26.3640  -17.5490   20.3674 C   0  0  1  0  0  0  0  0  0  0  0  0
  -25.0156  -29.2209   20.2827 C   0  0  2  0  0  0  0  0  0  0  0  0
  -18.0070  -24.6085   21.5150 C   0  0  0  0  0  0  0  0  0  0  0  0
  -31.9765  -22.3912   22.9067 C   0  0  0  0  0  0  0  0  0  0  0  0
  -28.0576  -16.9308   24.6230 C   0  0  0  0  0  0  0  0  0  0  0  0
  -29.8104  -18.5705   25.3351 C   0  0  0  0  0  0  0  0  0  0  0  0
  -30.3700  -16.7889   23.6811 C   0  0  0  0  0  0  0  0  0  0  0  0
  -30.4009  -21.4196   19.5826 C   0  0  0  0  0  0  0  0  0  0  0  0
  -20.1622  -29.0921   22.6172 C   0  0  0  0  0  0  0  0  0  0  0  0
  -20.3980  -23.3213   23.7616 C   0  0  0  0  0  0  0  0  0  0  0  0
  -21.8221  -23.8720   23.6726 C   0  0  0  0  0  0  0  0  0  0  0  0
  -19.3773  -24.3686   24.2210 C   0  0  0  0  0  0  0  0  0  0  0  0
  -22.8008  -22.8145   23.1800 C   0  0  0  0  0  0  0  0  0  1  0  0
  -28.9062  -18.7241   22.9708 C   0  0  1  0  0  0  0  0  0  0  0  0
  -31.3085  -21.4575   21.9093 C   0  0  2  0  0  0  0  0  0  0  0  0
  -29.2623  -17.7625   24.1395 C   0  0  0  0  0  0  0  0  0  0  0  0
  -27.1803  -28.0393   20.3000 N   0  0  0  0  0  0  0  0  0  0  0  0
  -19.3491  -25.6093   23.3642 N   0  0  0  0  0  0  0  0  0  0  0  0
  -25.8665  -27.9920   20.0210 N   0  0  0  0  0  0  0  0  0  0  0  0
  -27.0432  -18.3543   21.3845 N   0  0  0  0  0  0  0  0  0  0  0  0
  -23.5689  -30.4062   21.8923 N   0  0  0  0  0  0  0  0  0  0  0  0
  -24.1631  -26.5747   19.1841 N   0  0  0  0  0  0  0  0  0  0  0  0
  -27.8559  -23.9806   19.0100 N   0  0  0  0  0  0  0  0  0  0  0  0
  -25.3981  -15.3311   20.4442 N   0  0  0  0  0  0  0  0  0  0  0  0
  -30.0342  -19.5048   22.4745 N   0  0  0  0  0  0  0  0  0  0  0  0
  -21.5694  -29.2133   22.3076 N   0  0  0  0  0  0  0  0  0  0  0  0
  -31.0364  -22.2220   20.6593 N   0  3  0  0  0  0  0  0  0  0  0  0
  -25.6068  -24.0503   18.5677 O   0  0  0  0  0  0  0  0  0  0  0  0
  -25.0169  -16.8432   22.1736 O   0  0  0  0  0  0  0  0  0  0  0  0
  -29.0260  -17.1403   21.2091 O   0  0  0  0  0  0  0  0  0  0  0  0
  -29.0924  -21.5879   22.8629 O   0  0  0  0  0  0  0  0  0  0  0  0
  -21.5844  -31.5050   22.3742 O   0  0  0  0  0  0  0  0  0  0  0  0
  -32.9977  -25.4627   20.5591 O   0  0  0  0  0  0  0  0  0  0  0  0
  -22.4040  -22.3902   21.8766 O   0  0  0  0  0  0  0  0  0  1  0  0
  -36.7619  -29.1221   18.8727 F   0  0  0  0  0  0  0  0  0  0  0  0
  -34.8275  -24.8111   18.5918 F   0  0  0  0  0  0  0  0  0  0  0  0
  1  2  1  0  0  0  0
  1  5  2  0  0  0  0
  2  6  2  0  0  0  0
  3  8  2  0  0  0  0
  3 17  1  0  0  0  0
  4  9  1  0  0  0  0
  4 17  2  0  0  0  0
  5 19  1  0  0  0  0
  6 21  1  0  0  0  0
  7 10  2  0  0  0  0
  7 20  1  0  0  0  0
  8 24  1  0  0  0  0
  9 24  2  0  0  0  0
 10 25  1  0  0  0  0
 11 12  2  0  0  0  0
 11 26  1  0  0  0  0
 12 27  1  0  0  0  0
 13 22  1  0  0  0  0
 13 25  2  0  0  0  0
 14 23  1  0  0  0  0
 14 30  2  0  0  0  0
 15 27  2  0  0  0  0
 15 28  1  0  0  0  0
 16 23  2  0  0  0  0
 16 64  1  0  0  0  0
 17 29  1  0  0  0  0
 18 29  1  0  0  0  0
 18 31  2  0  0  0  0
 18 32  1  0  0  0  0
 19 21  2  0  0  0  0
 19 37  1  0  0  0  0
 20 22  2  0  0  0  0
 20 38  1  0  0  0  0
 21 46  1  0  0  0  0
 22 39  1  0  0  0  0
 23 55  1  0  0  0  0
 24 79  1  0  0  0  0
 25 80  1  0  0  0  0
 26 28  2  0  0  0  0
 26 79  1  0  0  0  0
 27 81  1  0  0  0  0
 28 82  1  0  0  0  0
 29 63  2  0  0  0  0
 30 49  1  0  0  0  0
 30 64  1  0  0  0  0
 31 65  1  0  0  0  0
 31 68  1  0  0  0  0
 32 69  1  0  0  0  0
 32 74  2  0  0  0  0
 33 47  1  0  0  0  0
 33 70  1  0  0  0  0
 33 75  2  0  0  0  0
 34 60  1  0  0  0  0
 34 66  1  0  0  0  0
 34 76  2  0  0  0  0
 35 61  1  0  0  0  0
 35 71  1  0  0  0  0
 35 77  2  0  0  0  0
 36 67  1  0  0  0  0
 36 72  1  0  0  0  0
 36 78  2  0  0  0  0
 37 40  1  0  0  0  0
 38 47  1  0  0  0  0
 39 66  1  0  0  0  0
 40 42  1  0  0  0  0
 41 43  1  0  0  0  0
 41 44  1  0  0  0  0
 42 46  1  0  0  0  0
 43 48  1  0  0  0  0
 44 67  1  0  0  0  0
 45 48  1  0  0  0  0
 45 67  1  0  0  0  0
 46 70  1  0  0  0  0
 47 66  1  0  0  0  0
 48 65  1  0  0  0  0
 50 61  1  0  0  0  0
 51 62  1  0  0  0  0
 52 62  1  0  0  0  0
 53 62  1  0  0  0  0
 54 73  1  0  0  0  0
 55 72  1  0  0  0  0
 56 57  1  0  0  0  0
 56 58  1  0  0  0  0
 57 59  1  0  0  0  0
 58 64  1  0  0  0  0
 59 80  1  0  0  0  0
 60 62  1  0  0  0  0
 60 71  1  0  0  0  0
 61 73  1  0  0  0  0
 63 65  1  0  0  0  0
M  CHG  1  73   1
M  ISO  4  36 100  59 101  72 100  80 101
M  END
> <Batch ID>
0091

> <Smiles>
CNC(C)C(=O)NC(C(=O)N1Cc2cc([101O:1][101CH2:1]CCCn3cc(C[100NH:0][100C:0](=O)N4CCCC(n5nc(-c6ccc(Oc7ccc(F)cc7F)cc6)c(C(N)=O)c5N)C4)cc3C)ccc2CC1C(=O)NC1CCCc2ccccc21)C(C)(C)C

> <Shape>
0.202

> <Color>
0.088

> <Negative vol penalty>
0.000

$$$$

  -OEChem-04052319113D

 91 99  0     1  0  0  0  0  0999 V2000
  -31.2716  -31.7249   20.6460 C   0  0  0  0  0  0  0  0  0  0  0  0
  -30.7082  -30.8484   19.7241 C   0  0  0  0  0  0  0  0  0  0  0  0
  -26.8428  -14.0976   21.9040 C   0  0  0  0  0  0  0  0  0  0  0  0
  -26.5114  -15.0547   19.7106 C   0  0  0  0  0  0  0  0  0  0  0  0
  -30.9741  -31.5946   22.0019 C   0  0  0  0  0  0  0  0  0  0  0  0
  -29.8479  -29.8404   20.1578 C   0  0  0  0  0  0  0  0  0  0  0  0
  -24.9656  -27.6373   17.1886 C   0  0  0  0  0  0  0  0  0  0  0  0
  -25.7820  -13.2198   21.6813 C   0  0  0  0  0  0  0  0  0  0  0  0
  -25.4505  -14.1768   19.4879 C   0  0  0  0  0  0  0  0  0  0  0  0
  -24.7814  -26.5040   16.3977 C   0  0  0  0  0  0  0  0  0  0  0  0
  -25.2488  -10.3306   20.0077 C   0  0  0  0  0  0  0  0  0  0  0  0
  -25.4305   -8.9924   20.3566 C   0  0  0  0  0  0  0  0  0  0  0  0
  -23.9262  -25.3135   18.3136 C   0  0  0  0  0  0  0  0  0  0  0  0
  -23.5753   -9.1420   21.8971 C   0  0  0  0  0  0  0  0  0  0  0  0
  -27.2570  -23.2120   17.5901 C   0  0  0  0  0  0  0  0  0  0  0  0
  -27.2075  -15.0151   20.9186 C   0  0  0  0  0  0  0  0  0  0  0  0
  -29.6617  -15.7078   20.8490 C   0  0  0  0  0  0  0  0  0  0  0  0
  -30.1021  -30.5905   22.4513 C   0  0  0  0  0  0  0  0  0  0  0  0
  -24.6412  -27.6139   18.5526 C   0  0  0  0  0  0  0  0  0  0  0  0
  -29.5395  -29.6957   21.5211 C   0  0  0  0  0  0  0  0  0  0  0  0
  -24.1049  -26.4487   19.1190 C   0  0  0  0  0  0  0  0  0  0  0  0
  -25.0858  -13.2594   20.4733 C   0  0  0  0  0  0  0  0  0  0  0  0
  -24.2643  -25.3410   16.9608 C   0  0  0  0  0  0  0  0  0  0  0  0
  -24.2303  -11.0746   20.6036 C   0  0  0  0  0  0  0  0  0  0  0  0
  -24.5938   -8.3980   21.3012 C   0  0  0  0  0  0  0  0  0  0  0  0
  -23.3936  -10.4802   21.5482 C   0  0  0  0  0  0  0  0  0  0  0  0
  -28.3030  -15.9225   21.1483 C   0  0  0  0  0  0  0  0  0  0  0  0
  -28.5913  -23.4976   17.6597 C   0  0  0  0  0  0  0  0  0  0  0  0
  -30.2891  -16.8598   21.2560 C   0  0  0  0  0  0  0  0  0  0  0  0
  -28.2668  -22.1695   15.9186 C   0  0  0  0  0  0  0  0  0  0  0  0
  -30.2996  -14.5688   20.2561 C   0  0  0  0  0  0  0  0  0  0  0  0
  -26.2752  -27.9852   21.2537 C   0  0  0  0  0  0  0  0  0  0  0  0
  -23.3286  -27.8277   22.6010 C   0  0  0  0  0  0  0  0  0  0  0  0
  -20.0890  -26.7801   22.3687 C   0  0  0  0  0  0  0  0  0  0  0  0
  -29.4186  -22.5782   21.4941 C   0  0  0  0  0  0  0  0  0  0  0  0
  -29.8477  -30.4594   23.9321 C   0  0  0  0  0  0  0  0  0  0  0  0
  -24.8208  -28.8530   19.3861 C   0  0  0  0  0  0  0  0  0  0  0  0
  -23.7216  -26.3780   20.5738 C   0  0  0  0  0  0  0  0  0  0  0  0
  -28.6322  -29.5989   24.2674 C   0  0  0  0  0  0  0  0  0  0  0  0
  -29.1684  -20.5180   24.3871 C   0  0  0  0  0  0  0  0  0  0  0  0
  -28.6501  -28.3092   23.4530 C   0  0  0  0  0  0  0  0  0  0  0  0
  -29.0460  -19.1030   23.8190 C   0  0  0  0  0  0  0  0  0  0  0  0
  -28.4384  -21.5400   23.5184 C   0  0  0  0  0  0  0  0  0  0  0  0
  -28.6987  -20.1130   21.5260 C   0  0  0  0  0  0  0  0  0  0  0  0
  -28.5822  -28.6049   21.9499 C   0  0  1  0  0  0  0  0  0  0  0  0
  -24.9376  -28.5577   20.8782 C   0  0  1  0  0  0  0  0  0  0  0  0
  -29.4660  -19.0553   22.3376 C   0  0  2  0  0  0  0  0  0  0  0  0
  -29.8266  -27.7294   16.7130 C   0  0  0  0  0  0  0  0  0  0  0  0
  -17.9273  -26.7651   23.6432 C   0  0  0  0  0  0  0  0  0  0  0  0
  -30.3063  -17.1784   15.2450 C   0  0  0  0  0  0  0  0  0  0  0  0
  -31.3195  -18.7267   16.9235 C   0  0  0  0  0  0  0  0  0  0  0  0
  -29.4285  -17.2374   17.5926 C   0  0  0  0  0  0  0  0  0  0  0  0
  -24.4053  -25.6078   24.3961 C   0  0  0  0  0  0  0  0  0  0  0  0
  -22.0395  -25.0001   24.9456 C   0  0  0  0  0  0  0  0  0  0  0  0
  -22.9190  -27.2546   25.5509 C   0  0  0  0  0  0  0  0  0  0  0  0
  -18.7038  -28.3345   20.2654 C   0  0  0  0  0  0  0  0  0  0  0  0
  -28.5267  -21.3382   14.7169 C   0  0  0  0  0  0  0  0  0  0  0  0
  -29.1038  -26.5282   17.3032 C   0  0  0  0  0  0  0  0  0  0  0  0
  -29.5387  -20.2081   14.9891 C   0  0  0  0  0  0  0  0  0  0  0  0
  -30.0885  -25.5437   17.9446 C   0  0  0  0  0  0  0  0  0  0  0  0
  -29.0255  -19.2298   16.0532 C   0  0  0  0  0  0  0  0  0  0  0  0
  -25.1604  -22.5618   14.8481 C   0  0  0  0  0  0  0  0  0  0  0  0
  -25.7642  -21.8235   16.0448 C   0  0  0  0  0  0  0  0  0  0  0  0
  -30.3976  -23.4709   19.3956 C   0  0  0  0  0  0  0  0  0  0  0  0
  -24.9746  -24.0551   15.0906 C   0  0  0  0  0  0  0  0  0  1  0  0
  -29.3577  -24.3191   18.6002 C   0  0  2  0  0  0  0  0  0  0  0  0
  -22.4508  -26.7171   23.1252 C   0  0  1  0  0  0  0  0  0  0  0  0
  -18.7767  -27.5012   22.6189 C   0  0  2  0  0  0  0  0  0  0  0  0
  -30.0003  -18.0878   16.4464 C   0  0  0  0  0  0  0  0  0  0  0  0
  -22.9626  -26.1453   24.4774 C   0  0  0  0  0  0  0  0  0  0  0  0
  -28.0796  -17.1169   21.7027 N   0  0  0  0  0  0  0  0  0  0  0  0
  -27.0846  -22.3890   16.5034 N   0  0  0  0  0  0  0  0  0  0  0  0
  -29.3064  -17.6631   21.7551 N   0  0  0  0  0  0  0  0  0  0  0  0
  -29.1918  -22.8393   16.6137 N   0  3  0  0  0  0  0  0  0  0  0  0
  -23.9219  -27.6136   21.3488 N   0  0  0  0  0  0  0  0  0  0  0  0
  -28.8835  -21.4436   22.1261 N   0  0  0  0  0  0  0  0  0  0  0  0
  -31.5800  -17.2539   21.2321 N   0  0  0  0  0  0  0  0  0  0  0  0
  -29.5066  -13.4703   19.8975 N   0  0  0  0  0  0  0  0  0  0  0  0
  -27.2284  -28.9373   21.5608 N   0  0  0  0  0  0  0  0  0  0  0  0
  -21.0969  -27.2579   23.1793 N   0  0  0  0  0  0  0  0  0  0  0  0
  -29.8219  -22.3988   20.1766 N   0  0  0  0  0  0  0  0  0  0  0  0
  -17.9969  -27.6114   21.3537 N   0  3  0  0  0  0  0  0  0  0  0  0
  -31.5385  -14.5200   20.0656 O   0  0  0  0  0  0  0  0  0  0  0  0
  -26.4305  -26.7697   21.2653 O   0  0  0  0  0  0  0  0  0  0  0  0
  -23.4766  -28.8506   23.2743 O   0  0  0  0  0  0  0  0  0  0  0  0
  -20.2071  -25.8803   21.5399 O   0  0  0  0  0  0  0  0  0  0  0  0
  -29.5337  -23.6688   22.0636 O   0  0  0  0  0  0  0  0  0  0  0  0
  -24.0507  -12.4028   20.2556 O   0  0  0  0  0  0  0  0  0  0  0  0
  -24.0841  -24.2332   16.1913 O   0  0  0  0  0  0  0  0  0  1  0  0
  -24.7675   -7.1125   21.6350 F   0  0  0  0  0  0  0  0  0  0  0  0
  -22.4127  -11.1896   22.1231 F   0  0  0  0  0  0  0  0  0  0  0  0
  1  2  1  0  0  0  0
  1  5  2  0  0  0  0
  2  6  2  0  0  0  0
  3  8  2  0  0  0  0
  3 16  1  0  0  0  0
  4  9  1  0  0  0  0
  4 16  2  0  0  0  0
  5 18  1  0  0  0  0
  6 20  1  0  0  0  0
  7 10  2  0  0  0  0
  7 19  1  0  0  0  0
  8 22  1  0  0  0  0
  9 22  2  0  0  0  0
 10 23  1  0  0  0  0
 11 12  2  0  0  0  0
 11 24  1  0  0  0  0
 12 25  1  0  0  0  0
 13 21  1  0  0  0  0
 13 23  2  0  0  0  0
 14 25  2  0  0  0  0
 14 26  1  0  0  0  0
 15 28  2  0  0  0  0
 15 72  1  0  0  0  0
 16 27  1  0  0  0  0
 17 27  1  0  0  0  0
 17 29  2  0  0  0  0
 17 31  1  0  0  0  0
 18 20  2  0  0  0  0
 18 36  1  0  0  0  0
 19 21  2  0  0  0  0
 19 37  1  0  0  0  0
 20 45  1  0  0  0  0
 21 38  1  0  0  0  0
 22 88  1  0  0  0  0
 23 89  1  0  0  0  0
 24 26  2  0  0  0  0
 24 88  1  0  0  0  0
 25 90  1  0  0  0  0
 26 91  1  0  0  0  0
 27 71  2  0  0  0  0
 28 66  1  0  0  0  0
 28 74  1  0  0  0  0
 29 73  1  0  0  0  0
 29 77  1  0  0  0  0
 30 57  1  0  0  0  0
 30 72  1  0  0  0  0
 30 74  2  0  0  0  0
 31 78  1  0  0  0  0
 31 83  2  0  0  0  0
 32 46  1  0  0  0  0
 32 79  1  0  0  0  0
 32 84  2  0  0  0  0
 33 67  1  0  0  0  0
 33 75  1  0  0  0  0
 33 85  2  0  0  0  0
 34 68  1  0  0  0  0
 34 80  1  0  0  0  0
 34 86  2  0  0  0  0
 35 76  1  0  0  0  0
 35 81  1  0  0  0  0
 35 87  2  0  0  0  0
 36 39  1  0  0  0  0
 37 46  1  0  0  0  0
 38 75  1  0  0  0  0
 39 41  1  0  0  0  0
 40 42  1  0  0  0  0
 40 43  1  0  0  0  0
 41 45  1  0  0  0  0
 42 47  1  0  0  0  0
 43 76  1  0  0  0  0
 44 47  1  0  0  0  0
 44 76  1  0  0  0  0
 45 79  1  0  0  0  0
 46 75  1  0  0  0  0
 47 73  1  0  0  0  0
 48 58  1  0  0  0  0
 49 68  1  0  0  0  0
 50 69  1  0  0  0  0
 51 69  1  0  0  0  0
 52 69  1  0  0  0  0
 53 70  1  0  0  0  0
 54 70  1  0  0  0  0
 55 70  1  0  0  0  0
 56 82  1  0  0  0  0
 57 59  1  0  0  0  0
 58 60  1  0  0  0  0
 59 61  1  0  0  0  0
 60 66  1  0  0  0  0
 61 69  1  0  0  0  0
 62 63  1  0  0  0  0
 62 65  1  0  0  0  0
 63 72  1  0  0  0  0
 64 66  1  0  0  0  0
 64 81  1  0  0  0  0
 65 89  1  0  0  0  0
 67 70  1  0  0  0  0
 67 80  1  0  0  0  0
 68 82  1  0  0  0  0
 71 73  1  0  0  0  0
M  CHG  2  74   1  82   1
M  ISO  4  35 100  65 101  81 100  89 101
M  END
> <Batch ID>
0091

> <Smiles>
CCCC(C[100NH:0][100C:0](=O)N1CCCC(n2nc(-c3ccc(Oc4ccc(F)cc4F)cc3)c(C(N)=O)c2N)C1)c1cn(CC[101CH2:1][101O:1]c2ccc3c(c2)CN(C(=O)C(NC(=O)C(C)NC)C(C)(C)C)C(C(=O)NC2CCCc4ccccc42)C3)c(CCCC(C)(C)C)n1

> <Shape>
0.238

> <Color>
0.039

> <Negative vol penalty>
0.000

$$$$

  -OEChem-04052319113D

 84 92  0     1  0  0  0  0  0999 V2000
  -31.3686  -23.9489   15.8589 C   0  0  0  0  0  0  0  0  0  0  0  0
  -30.2038  -23.6495   16.5582 C   0  0  0  0  0  0  0  0  0  0  0  0
  -26.6174  -12.0479   21.4196 C   0  0  0  0  0  0  0  0  0  0  0  0
  -25.7513  -13.7465   19.9358 C   0  0  0  0  0  0  0  0  0  0  0  0
  -32.2587  -24.8964   16.3627 C   0  0  0  0  0  0  0  0  0  0  0  0
  -29.9289  -24.2967   17.7623 C   0  0  0  0  0  0  0  0  0  0  0  0
  -25.1203  -25.8533   18.0777 C   0  0  0  0  0  0  0  0  0  0  0  0
  -25.3922  -11.3830   21.3737 C   0  0  0  0  0  0  0  0  0  0  0  0
  -24.5260  -13.0815   19.8898 C   0  0  0  0  0  0  0  0  0  0  0  0
  -24.1585  -24.8915   18.3835 C   0  0  0  0  0  0  0  0  0  0  0  0
  -21.7897  -12.7623   21.8499 C   0  0  0  0  0  0  0  0  0  0  0  0
  -20.6314  -13.5281   21.9825 C   0  0  0  0  0  0  0  0  0  0  0  0
  -24.1598  -25.6291   20.6803 C   0  0  0  0  0  0  0  0  0  0  0  0
  -19.8950  -12.7918   19.8024 C   0  0  0  0  0  0  0  0  0  0  0  0
  -25.5831  -21.9121   21.1187 C   0  0  0  0  0  0  0  0  0  0  0  0
  -26.7970  -13.2297   20.7007 C   0  0  0  0  0  0  0  0  0  0  0  0
  -29.1638  -13.7310   19.8915 C   0  0  0  0  0  0  0  0  0  0  0  0
  -31.9898  -25.5627   17.5687 C   0  0  0  0  0  0  0  0  0  0  0  0
  -25.6179  -26.7044   19.0749 C   0  0  0  0  0  0  0  0  0  0  0  0
  -30.8169  -25.2531   18.2834 C   0  0  0  0  0  0  0  0  0  0  0  0
  -25.1261  -26.6025   20.3840 C   0  0  0  0  0  0  0  0  0  0  0  0
  -24.3464  -11.8997   20.6088 C   0  0  0  0  0  0  0  0  0  0  0  0
  -23.6802  -24.7773   19.6855 C   0  0  0  0  0  0  0  0  0  0  0  0
  -22.0007  -12.0113   20.6935 C   0  0  0  0  0  0  0  0  0  0  0  0
  -19.6840  -13.5428   20.9588 C   0  0  0  0  0  0  0  0  0  0  0  0
  -21.0533  -12.0260   19.6698 C   0  0  0  0  0  0  0  0  0  0  0  0
  -28.0623  -13.9174   20.7481 C   0  0  0  0  0  0  0  0  0  0  0  0
  -26.7348  -21.2868   20.7320 C   0  0  0  0  0  0  0  0  0  0  0  0
  -30.1092  -14.6153   20.3505 C   0  0  0  0  0  0  0  0  0  0  0  0
  -25.0755  -19.8318   20.5571 C   0  0  0  0  0  0  0  0  0  0  0  0
  -29.3185  -12.8384   18.7802 C   0  0  0  0  0  0  0  0  0  0  0  0
  -28.4791  -27.2229   20.3589 C   0  0  0  0  0  0  0  0  0  0  0  0
  -26.9250  -29.6222   21.8919 C   0  0  0  0  0  0  0  0  0  0  0  0
  -23.9735  -30.8932   23.0411 C   0  0  0  0  0  0  0  0  0  0  0  0
  -29.7461  -19.7433   23.4201 C   0  0  0  0  0  0  0  0  0  0  0  0
  -33.0050  -26.5449   18.0974 C   0  0  0  0  0  0  0  0  0  0  0  0
  -26.6358  -27.7545   18.7231 C   0  0  0  0  0  0  0  0  0  0  0  0
  -25.6130  -27.5057   21.4866 C   0  0  0  0  0  0  0  0  0  0  0  0
  -32.4569  -27.4580   19.1910 C   0  0  0  0  0  0  0  0  0  0  0  0
  -31.5498  -16.8167   24.3466 C   0  0  0  0  0  0  0  0  0  0  0  0
  -31.6779  -26.6478   20.2223 C   0  0  0  0  0  0  0  0  0  0  0  0
  -30.9599  -15.7250   23.4521 C   0  0  0  0  0  0  0  0  0  0  0  0
  -30.4859  -17.8177   24.7917 C   0  0  0  0  0  0  0  0  0  0  0  0
  -29.1178  -17.3313   22.8003 C   0  0  0  0  0  0  0  0  0  0  0  0
  -30.4715  -25.9520   19.5805 C   0  0  1  0  0  0  0  0  0  0  0  0
  -27.4478  -28.2260   19.9255 C   0  0  1  0  0  0  0  0  0  0  0  0
  -30.1632  -16.3298   22.2805 C   0  0  2  0  0  0  0  0  0  0  0  0
  -24.7874  -17.4088   21.1890 C   0  0  0  0  0  0  0  0  0  0  0  0
  -24.3913  -18.1471   18.8114 C   0  0  0  0  0  0  0  0  0  0  0  0
  -23.0254  -32.8538   24.2878 C   0  0  0  0  0  0  0  0  0  0  0  0
  -27.9812  -28.4650   24.5101 C   0  0  0  0  0  0  0  0  0  0  0  0
  -26.2761  -29.8386   25.7243 C   0  0  0  0  0  0  0  0  0  0  0  0
  -28.0461  -30.9612   24.3716 C   0  0  0  0  0  0  0  0  0  0  0  0
  -22.2861  -31.6866   20.7428 C   0  0  0  0  0  0  0  0  0  0  0  0
  -28.1166  -21.7670   20.6503 C   0  0  0  0  0  0  0  0  0  0  0  0
  -22.2523  -21.4922   20.0859 C   0  0  0  0  0  0  0  0  0  0  0  0
  -23.1217  -21.2452   21.3207 C   0  0  0  0  0  0  0  0  0  0  0  0
  -28.9420  -21.5656   21.9396 C   0  0  0  0  0  0  0  0  0  0  0  0
  -22.7521  -22.6388   19.2148 C   0  0  0  0  0  0  0  0  0  1  0  0
  -24.3279  -18.5774   20.2920 C   0  0  0  0  0  0  0  0  0  0  0  0
  -26.1683  -29.7466   23.1923 C   0  0  1  0  0  0  0  0  0  0  0  0
  -23.3572  -32.2753   22.9211 C   0  0  2  0  0  0  0  0  0  0  0  0
  -27.1100  -29.7344   24.4294 C   0  0  0  0  0  0  0  0  0  0  0  0
  -28.2859  -14.8469   21.6808 N   0  0  0  0  0  0  0  0  0  0  0  0
  -24.5725  -20.9887   21.0001 N   0  0  0  0  0  0  0  0  0  0  0  0
  -29.5389  -15.2525   21.4130 N   0  0  0  0  0  0  0  0  0  0  0  0
  -26.3912  -20.0010   20.3902 N   0  3  0  0  0  0  0  0  0  0  0  0
  -26.6131  -28.5123   21.0941 N   0  0  0  0  0  0  0  0  0  0  0  0
  -29.7680  -18.3551   23.6333 N   0  0  0  0  0  0  0  0  0  0  0  0
  -31.3644  -14.9021   19.9449 N   0  0  0  0  0  0  0  0  0  0  0  0
  -28.2483  -11.9981   18.4442 N   0  0  0  0  0  0  0  0  0  0  0  0
  -29.3936  -26.8958   19.3760 N   0  0  0  0  0  0  0  0  0  0  0  0
  -25.3508  -30.9493   23.0754 N   0  0  0  0  0  0  0  0  0  0  0  0
  -29.0489  -20.1683   22.2958 N   0  0  0  0  0  0  0  0  0  0  0  0
  -22.1026  -32.2151   22.1190 N   0  3  0  0  0  0  0  0  0  0  0  0
  -30.3803  -12.7759   18.1153 O   0  0  0  0  0  0  0  0  0  0  0  0
  -28.4484  -26.7797   21.5009 O   0  0  0  0  0  0  0  0  0  0  0  0
  -27.7568  -30.4822   21.5917 O   0  0  0  0  0  0  0  0  0  0  0  0
  -23.3003  -29.8667   23.1022 O   0  0  0  0  0  0  0  0  0  0  0  0
  -30.3108  -20.5442   24.1728 O   0  0  0  0  0  0  0  0  0  0  0  0
  -23.1507  -11.2510   20.5636 O   0  0  0  0  0  0  0  0  0  0  0  0
  -22.7418  -23.8389   19.9869 O   0  0  0  0  0  0  0  0  0  1  0  0
  -18.5710  -14.2769   21.0870 F   0  0  0  0  0  0  0  0  0  0  0  0
  -21.2499  -11.3057   18.5570 F   0  0  0  0  0  0  0  0  0  0  0  0
  1  2  1  0  0  0  0
  1  5  2  0  0  0  0
  2  6  2  0  0  0  0
  3  8  2  0  0  0  0
  3 16  1  0  0  0  0
  4  9  1  0  0  0  0
  4 16  2  0  0  0  0
  5 18  1  0  0  0  0
  6 20  1  0  0  0  0
  7 10  2  0  0  0  0
  7 19  1  0  0  0  0
  8 22  1  0  0  0  0
  9 22  2  0  0  0  0
 10 23  1  0  0  0  0
 11 12  2  0  0  0  0
 11 24  1  0  0  0  0
 12 25  1  0  0  0  0
 13 21  1  0  0  0  0
 13 23  2  0  0  0  0
 14 25  2  0  0  0  0
 14 26  1  0  0  0  0
 15 28  2  0  0  0  0
 15 65  1  0  0  0  0
 16 27  1  0  0  0  0
 17 27  1  0  0  0  0
 17 29  2  0  0  0  0
 17 31  1  0  0  0  0
 18 20  2  0  0  0  0
 18 36  1  0  0  0  0
 19 21  2  0  0  0  0
 19 37  1  0  0  0  0
 20 45  1  0  0  0  0
 21 38  1  0  0  0  0
 22 81  1  0  0  0  0
 23 82  1  0  0  0  0
 24 26  2  0  0  0  0
 24 81  1  0  0  0  0
 25 83  1  0  0  0  0
 26 84  1  0  0  0  0
 27 64  2  0  0  0  0
 28 55  1  0  0  0  0
 28 67  1  0  0  0  0
 29 66  1  0  0  0  0
 29 70  1  0  0  0  0
 30 60  1  0  0  0  0
 30 65  1  0  0  0  0
 30 67  2  0  0  0  0
 31 71  1  0  0  0  0
 31 76  2  0  0  0  0
 32 46  1  0  0  0  0
 32 72  1  0  0  0  0
 32 77  2  0  0  0  0
 33 61  1  0  0  0  0
 33 68  1  0  0  0  0
 33 78  2  0  0  0  0
 34 62  1  0  0  0  0
 34 73  1  0  0  0  0
 34 79  2  0  0  0  0
 35 69  1  0  0  0  0
 35 74  1  0  0  0  0
 35 80  2  0  0  0  0
 36 39  1  0  0  0  0
 37 46  1  0  0  0  0
 38 68  1  0  0  0  0
 39 41  1  0  0  0  0
 40 42  1  0  0  0  0
 40 43  1  0  0  0  0
 41 45  1  0  0  0  0
 42 47  1  0  0  0  0
 43 69  1  0  0  0  0
 44 47  1  0  0  0  0
 44 69  1  0  0  0  0
 45 72  1  0  0  0  0
 46 68  1  0  0  0  0
 47 66  1  0  0  0  0
 48 60  1  0  0  0  0
 49 60  1  0  0  0  0
 50 62  1  0  0  0  0
 51 63  1  0  0  0  0
 52 63  1  0  0  0  0
 53 63  1  0  0  0  0
 54 75  1  0  0  0  0
 55 58  1  0  0  0  0
 56 57  1  0  0  0  0
 56 59  1  0  0  0  0
 57 65  1  0  0  0  0
 58 74  1  0  0  0  0
 59 82  1  0  0  0  0
 61 63  1  0  0  0  0
 61 73  1  0  0  0  0
 62 75  1  0  0  0  0
 64 66  1  0  0  0  0
M  CHG  2  67   1  75   1
M  ISO  4  35 100  59 101  74 100  82 101
M  END
> <Batch ID>
0091

> <Smiles>
CNC(C)C(=O)NC(C(=O)N1Cc2cc([101O:1][101CH2:1]CCn3cc(CC[100NH:0][100C:0](=O)N4CCCC(n5nc(-c6ccc(Oc7ccc(F)cc7F)cc6)c(C(N)=O)c5N)C4)nc3C(C)C)ccc2CC1C(=O)NC1CCCc2ccccc21)C(C)(C)C

> <Shape>
0.269

> <Color>
0.051

> <Negative vol penalty>
0.000

$$$$

  -OEChem-04052319113D

 89 97  0     1  0  0  0  0  0999 V2000
  -29.5621  -24.0683   17.4785 C   0  0  0  0  0  0  0  0  0  0  0  0
  -28.3499  -24.1378   18.1576 C   0  0  0  0  0  0  0  0  0  0  0  0
  -28.1302  -14.5202   19.6177 C   0  0  0  0  0  0  0  0  0  0  0  0
  -25.9664  -15.3990   20.2364 C   0  0  0  0  0  0  0  0  0  0  0  0
  -30.6502  -24.8213   17.9180 C   0  0  0  0  0  0  0  0  0  0  0  0
  -28.2254  -24.9595   19.2773 C   0  0  0  0  0  0  0  0  0  0  0  0
  -23.9409  -27.6588   19.2392 C   0  0  0  0  0  0  0  0  0  0  0  0
  -27.6730  -13.2247   19.8590 C   0  0  0  0  0  0  0  0  0  0  0  0
  -25.5092  -14.1035   20.4776 C   0  0  0  0  0  0  0  0  0  0  0  0
  -22.7685  -26.9977   19.6030 C   0  0  0  0  0  0  0  0  0  0  0  0
  -25.7673  -11.7861   22.9259 C   0  0  0  0  0  0  0  0  0  0  0  0
  -25.0368  -11.5635   24.0931 C   0  0  0  0  0  0  0  0  0  0  0  0
  -22.9188  -27.9585   21.8106 C   0  0  0  0  0  0  0  0  0  0  0  0
  -23.2386  -23.9733   22.5252 C   0  0  0  0  0  0  0  0  0  0  0  0
  -22.0052  -21.9214   22.7551 C   0  0  0  0  0  0  0  0  0  0  0  0
  -23.1503  -10.8317   22.7730 C   0  0  0  0  0  0  0  0  0  0  0  0
  -27.2769  -15.6074   19.8064 C   0  0  0  0  0  0  0  0  0  0  0  0
  -27.6900  -17.6563   18.3439 C   0  0  0  0  0  0  0  0  0  0  0  0
  -30.5362  -25.6600   19.0379 C   0  0  0  0  0  0  0  0  0  0  0  0
  -24.6180  -28.4675   20.1633 C   0  0  0  0  0  0  0  0  0  0  0  0
  -29.3133  -25.7234   19.7330 C   0  0  0  0  0  0  0  0  0  0  0  0
  -24.0981  -28.6309   21.4553 C   0  0  0  0  0  0  0  0  0  0  0  0
  -22.0307  -23.3110   22.7140 C   0  0  0  0  0  0  0  0  0  0  0  0
  -26.3626  -13.0163   20.2889 C   0  0  0  0  0  0  0  0  0  0  0  0
  -22.2589  -27.1451   20.8897 C   0  0  0  0  0  0  0  0  0  0  0  0
  -25.1893  -11.5315   21.6821 C   0  0  0  0  0  0  0  0  0  0  0  0
  -23.7284  -11.0863   24.0167 C   0  0  0  0  0  0  0  0  0  0  0  0
  -23.8808  -11.0543   21.6057 C   0  0  0  0  0  0  0  0  0  0  0  0
  -27.7488  -16.9459   19.5579 C   0  0  0  0  0  0  0  0  0  0  0  0
  -24.3837  -23.2061   22.3839 C   0  0  0  0  0  0  0  0  0  0  0  0
  -23.2054  -21.2461   22.6033 C   0  0  0  0  0  0  0  0  0  0  0  0
  -28.2639  -18.8712   18.6289 C   0  0  0  0  0  0  0  0  0  0  0  0
  -27.1635  -17.2541   17.0724 C   0  0  0  0  0  0  0  0  0  0  0  0
  -27.5010  -28.4145   21.5011 C   0  0  0  0  0  0  0  0  0  0  0  0
  -26.5610  -31.2709   22.7175 C   0  0  0  0  0  0  0  0  0  0  0  0
  -23.9953  -33.3359   23.6117 C   0  0  0  0  0  0  0  0  0  0  0  0
  -28.9132  -21.9843   23.7021 C   0  0  0  0  0  0  0  0  0  0  0  0
  -31.7536  -26.4187   19.5036 C   0  0  0  0  0  0  0  0  0  0  0  0
  -25.8669  -29.1952   19.7471 C   0  0  0  0  0  0  0  0  0  0  0  0
  -24.7762  -29.5038   22.4784 C   0  0  0  0  0  0  0  0  0  0  0  0
  -31.4308  -27.5509   20.4754 C   0  0  0  0  0  0  0  0  0  0  0  0
  -31.5005  -20.8996   21.5099 C   0  0  0  0  0  0  0  0  0  0  0  0
  -30.4630  -27.0706   21.5521 C   0  0  0  0  0  0  0  0  0  0  0  0
  -30.8271  -19.8274   20.6515 C   0  0  0  0  0  0  0  0  0  0  0  0
  -30.9939  -20.8699   22.9502 C   0  0  0  0  0  0  0  0  0  0  0  0
  -28.8546  -19.8774   22.2344 C   0  0  0  0  0  0  0  0  0  0  0  0
  -29.1318  -26.6220   20.9370 C   0  0  1  0  0  0  0  0  0  0  0  0
  -26.7529  -29.5841   20.9265 C   0  0  1  0  0  0  0  0  0  0  0  0
  -29.2923  -19.9046   20.7600 C   0  0  2  0  0  0  0  0  0  0  0  0
  -23.5393  -35.5914   24.6127 C   0  0  0  0  0  0  0  0  0  0  0  0
  -22.1754  -17.0634   23.7546 C   0  0  0  0  0  0  0  0  0  0  0  0
  -23.7589  -17.2650   25.6763 C   0  0  0  0  0  0  0  0  0  0  0  0
  -24.6376  -17.0994   23.3337 C   0  0  0  0  0  0  0  0  0  0  0  0
  -27.2652  -30.1845   25.4804 C   0  0  0  0  0  0  0  0  0  0  0  0
  -25.9320  -32.0538   26.4786 C   0  0  0  0  0  0  0  0  0  0  0  0
  -27.9416  -32.5603   25.0902 C   0  0  0  0  0  0  0  0  0  0  0  0
  -22.5857  -34.2592   21.1787 C   0  0  0  0  0  0  0  0  0  0  0  0
  -20.7538  -24.0967   22.8746 C   0  0  0  0  0  0  0  0  0  0  0  0
  -25.6981  -23.8828   22.1812 C   0  0  0  0  0  0  0  0  0  0  0  0
  -23.2148  -19.7543   22.6404 C   0  0  0  0  0  0  0  0  0  0  0  0
  -20.0348  -24.3802   21.5539 C   0  0  0  0  0  0  0  0  0  0  0  0
  -26.4543  -24.2092   23.4839 C   0  0  0  0  0  0  0  0  0  0  0  0
  -23.4194  -19.2148   24.0692 C   0  0  0  0  0  0  0  0  0  0  0  0
  -26.7450  -22.9949   24.3632 C   0  0  0  0  0  0  0  0  0  0  0  0
  -20.8418  -25.2569   20.6032 C   0  0  0  0  0  0  0  0  0  1  0  0
  -25.8399  -31.7156   23.9670 C   0  0  1  0  0  0  0  0  0  0  0  0
  -23.7381  -34.8046   23.3266 C   0  0  2  0  0  0  0  0  0  0  0  0
  -23.5149  -17.6724   24.2140 C   0  0  0  0  0  0  0  0  0  0  0  0
  -26.7327  -31.6105   25.2356 C   0  0  0  0  0  0  0  0  0  0  0  0
  -28.3155  -17.6507   20.5408 N   0  0  0  0  0  0  0  0  0  0  0  0
  -24.3983  -21.8547   22.4182 N   0  0  0  0  0  0  0  0  0  0  0  0
  -28.6181  -18.8166   19.9448 N   0  0  0  0  0  0  0  0  0  0  0  0
  -25.9977  -30.1894   22.0254 N   0  0  0  0  0  0  0  0  0  0  0  0
  -29.5314  -20.9480   22.9832 N   0  0  0  0  0  0  0  0  0  0  0  0
  -28.4952  -19.9700   17.8796 N   0  0  0  0  0  0  0  0  0  0  0  0
  -26.6097  -15.9720   16.9539 N   0  0  0  0  0  0  0  0  0  0  0  0
  -28.3210  -27.7706   20.5941 N   0  0  0  0  0  0  0  0  0  0  0  0
  -25.3437  -33.0603   23.6953 N   0  0  0  0  0  0  0  0  0  0  0  0
  -27.5239  -21.9887   23.6765 N   0  0  0  0  0  0  0  0  0  0  0  0
  -22.5182  -34.9630   22.4853 N   0  3  0  0  0  0  0  0  0  0  0  0
  -27.1984  -18.0031   16.0668 O   0  0  0  0  0  0  0  0  0  0  0  0
  -27.3468  -28.1189   22.6803 O   0  0  0  0  0  0  0  0  0  0  0  0
  -27.5822  -31.8659   22.3644 O   0  0  0  0  0  0  0  0  0  0  0  0
  -23.0904  -32.5159   23.7505 O   0  0  0  0  0  0  0  0  0  0  0  0
  -29.5521  -22.8452   24.3166 O   0  0  0  0  0  0  0  0  0  0  0  0
  -25.9160  -11.7523   20.5242 O   0  0  0  0  0  0  0  0  0  0  0  0
  -21.1152  -26.5004   21.2476 O   0  0  0  0  0  0  0  0  0  1  0  0
  -23.0276  -10.8711   25.1377 F   0  0  0  0  0  0  0  0  0  0  0  0
  -23.3206  -10.8068   20.4138 F   0  0  0  0  0  0  0  0  0  0  0  0
  1  2  1  0  0  0  0
  1  5  2  0  0  0  0
  2  6  2  0  0  0  0
  3  8  2  0  0  0  0
  3 17  1  0  0  0  0
  4  9  1  0  0  0  0
  4 17  2  0  0  0  0
  5 19  1  0  0  0  0
  6 21  1  0  0  0  0
  7 10  2  0  0  0  0
  7 20  1  0  0  0  0
  8 24  1  0  0  0  0
  9 24  2  0  0  0  0
 10 25  1  0  0  0  0
 11 12  2  0  0  0  0
 11 26  1  0  0  0  0
 12 27  1  0  0  0  0
 13 22  1  0  0  0  0
 13 25  2  0  0  0  0
 14 23  1  0  0  0  0
 14 30  2  0  0  0  0
 15 23  2  0  0  0  0
 15 31  1  0  0  0  0
 16 27  2  0  0  0  0
 16 28  1  0  0  0  0
 17 29  1  0  0  0  0
 18 29  1  0  0  0  0
 18 32  2  0  0  0  0
 18 33  1  0  0  0  0
 19 21  2  0  0  0  0
 19 38  1  0  0  0  0
 20 22  2  0  0  0  0
 20 39  1  0  0  0  0
 21 47  1  0  0  0  0
 22 40  1  0  0  0  0
 23 58  1  0  0  0  0
 24 86  1  0  0  0  0
 25 87  1  0  0  0  0
 26 28  2  0  0  0  0
 26 86  1  0  0  0  0
 27 88  1  0  0  0  0
 28 89  1  0  0  0  0
 29 70  2  0  0  0  0
 30 59  1  0  0  0  0
 30 71  1  0  0  0  0
 31 60  1  0  0  0  0
 31 71  2  0  0  0  0
 32 72  1  0  0  0  0
 32 75  1  0  0  0  0
 33 76  1  0  0  0  0
 33 81  2  0  0  0  0
 34 48  1  0  0  0  0
 34 77  1  0  0  0  0
 34 82  2  0  0  0  0
 35 66  1  0  0  0  0
 35 73  1  0  0  0  0
 35 83  2  0  0  0  0
 36 67  1  0  0  0  0
 36 78  1  0  0  0  0
 36 84  2  0  0  0  0
 37 74  1  0  0  0  0
 37 79  1  0  0  0  0
 37 85  2  0  0  0  0
 38 41  1  0  0  0  0
 39 48  1  0  0  0  0
 40 73  1  0  0  0  0
 41 43  1  0  0  0  0
 42 44  1  0  0  0  0
 42 45  1  0  0  0  0
 43 47  1  0  0  0  0
 44 49  1  0  0  0  0
 45 74  1  0  0  0  0
 46 49  1  0  0  0  0
 46 74  1  0  0  0  0
 47 77  1  0  0  0  0
 48 73  1  0  0  0  0
 49 72  1  0  0  0  0
 50 67  1  0  0  0  0
 51 68  1  0  0  0  0
 52 68  1  0  0  0  0
 53 68  1  0  0  0  0
 54 69  1  0  0  0  0
 55 69  1  0  0  0  0
 56 69  1  0  0  0  0
 57 80  1  0  0  0  0
 58 61  1  0  0  0  0
 59 62  1  0  0  0  0
 60 63  1  0  0  0  0
 61 65  1  0  0  0  0
 62 64  1  0  0  0  0
 63 68  1  0  0  0  0
 64 79  1  0  0  0  0
 65 87  1  0  0  0  0
 66 69  1  0  0  0  0
 66 78  1  0  0  0  0
 67 80  1  0  0  0  0
 70 72  1  0  0  0  0
M  CHG  1  80   1
M  ISO  4  37 100  65 101  79 100  87 101
M  END
> <Batch ID>
0091

> <Smiles>
CNC(C)C(=O)NC(C(=O)N1Cc2cc([101O:1][101CH2:1]CCc3cc(CCC[100NH:0][100C:0](=O)N4CCCC(n5nc(-c6ccc(Oc7ccc(F)cc7F)cc6)c(C(N)=O)c5N)C4)nc(CCC(C)(C)C)c3)ccc2CC1C(=O)NC1CCCc2ccccc21)C(C)(C)C

> <Shape>
0.264

> <Color>
0.063

> <Negative vol penalty>
0.000

$$$$

  -OEChem-04052319113D

 88 96  0     1  0  0  0  0  0999 V2000
  -23.9568  -18.5059   29.0575 C   0  0  0  0  0  0  0  0  0  0  0  0
  -24.1764  -19.2573   27.9075 C   0  0  0  0  0  0  0  0  0  0  0  0
  -29.3278  -17.3074   19.3571 C   0  0  0  0  0  0  0  0  0  0  0  0
  -30.6377  -17.7951   21.3277 C   0  0  0  0  0  0  0  0  0  0  0  0
  -24.0232  -17.1143   29.0028 C   0  0  0  0  0  0  0  0  0  0  0  0
  -24.4636  -18.6176   26.7023 C   0  0  0  0  0  0  0  0  0  0  0  0
  -21.8621  -20.5481   22.8099 C   0  0  0  0  0  0  0  0  0  0  0  0
  -29.9646  -16.0720   19.2394 C   0  0  0  0  0  0  0  0  0  0  0  0
  -31.2745  -16.5596   21.2101 C   0  0  0  0  0  0  0  0  0  0  0  0
  -22.3193  -21.7505   22.2723 C   0  0  0  0  0  0  0  0  0  0  0  0
  -30.9882  -12.6377   18.6289 C   0  0  0  0  0  0  0  0  0  0  0  0
  -30.1951  -11.5222   18.3603 C   0  0  0  0  0  0  0  0  0  0  0  0
  -23.3839  -20.5372   20.4796 C   0  0  0  0  0  0  0  0  0  0  0  0
  -28.9687  -11.9012   20.4071 C   0  0  0  0  0  0  0  0  0  0  0  0
  -26.5143  -27.9989   19.2663 C   0  0  0  0  0  0  0  0  0  0  0  0
  -29.6644  -18.1690   20.4012 C   0  0  0  0  0  0  0  0  0  0  0  0
  -27.8278  -19.7298   21.2368 C   0  0  0  0  0  0  0  0  0  0  0  0
  -24.3019  -16.4568   27.7942 C   0  0  0  0  0  0  0  0  0  0  0  0
  -22.1721  -19.3284   22.1914 C   0  0  0  0  0  0  0  0  0  0  0  0
  -24.5352  -17.2160   26.6316 C   0  0  0  0  0  0  0  0  0  0  0  0
  -22.9273  -19.3209   21.0100 C   0  0  0  0  0  0  0  0  0  0  0  0
  -27.0265  -28.9536   20.1168 C   0  0  0  0  0  0  0  0  0  0  0  0
  -25.9867  -29.3348   21.0003 C   0  0  0  0  0  0  0  0  0  0  0  0
  -30.9380  -15.6981   20.1660 C   0  0  0  0  0  0  0  0  0  0  0  0
  -23.0827  -21.7450   21.1086 C   0  0  0  0  0  0  0  0  0  0  0  0
  -30.7716  -13.3849   19.7867 C   0  0  0  0  0  0  0  0  0  0  0  0
  -29.1853  -11.1540   19.2493 C   0  0  0  0  0  0  0  0  0  0  0  0
  -29.7619  -13.0167   20.6758 C   0  0  0  0  0  0  0  0  0  0  0  0
  -29.0073  -19.4455   20.5229 C   0  0  0  0  0  0  0  0  0  0  0  0
  -24.8707  -28.6012   20.6629 C   0  0  0  0  0  0  0  0  0  0  0  0
  -27.6235  -21.0739   21.0410 C   0  0  0  0  0  0  0  0  0  0  0  0
  -26.9916  -18.8571   22.0080 C   0  0  0  0  0  0  0  0  0  0  0  0
  -23.7795  -16.7234   23.0484 C   0  0  0  0  0  0  0  0  0  0  0  0
  -22.6819  -15.5878   20.2150 C   0  0  0  0  0  0  0  0  0  0  0  0
  -21.5223  -16.2622   17.0770 C   0  0  0  0  0  0  0  0  0  0  0  0
  -29.5161  -26.2075   20.9380 C   0  0  0  0  0  0  0  0  0  0  0  0
  -24.4099  -14.9525   27.7943 C   0  0  0  0  0  0  0  0  0  0  0  0
  -21.6489  -18.0419   22.7691 C   0  0  0  0  0  0  0  0  0  0  0  0
  -23.2705  -18.0398   20.2962 C   0  0  0  0  0  0  0  0  0  0  0  0
  -24.3499  -14.3374   26.3985 C   0  0  0  0  0  0  0  0  0  0  0  0
  -29.8609  -24.3189   17.8701 C   0  0  0  0  0  0  0  0  0  0  0  0
  -25.2644  -15.0953   25.4414 C   0  0  0  0  0  0  0  0  0  0  0  0
  -29.5692  -22.8972   18.3537 C   0  0  0  0  0  0  0  0  0  0  0  0
  -30.6480  -25.1070   18.9130 C   0  0  0  0  0  0  0  0  0  0  0  0
  -29.7127  -23.7447   20.7414 C   0  0  0  0  0  0  0  0  0  0  0  0
  -24.8249  -16.5576   25.3002 C   0  0  1  0  0  0  0  0  0  0  0  0
  -22.4579  -16.8217   22.3403 C   0  0  1  0  0  0  0  0  0  0  0  0
  -28.8996  -22.9035   19.7407 C   0  0  2  0  0  0  0  0  0  0  0  0
  -26.0795  -30.3344   22.0844 C   0  0  0  0  0  0  0  0  0  0  0  0
  -22.5423  -30.4256   19.7417 C   0  0  0  0  0  0  0  0  0  0  0  0
  -23.5290  -28.1254   22.7279 C   0  0  0  0  0  0  0  0  0  0  0  0
  -20.7430  -15.1275   14.9788 C   0  0  0  0  0  0  0  0  0  0  0  0
  -30.6389  -29.5028   21.3294 C   0  0  0  0  0  0  0  0  0  0  0  0
  -25.5731  -14.9182   19.5061 C   0  0  0  0  0  0  0  0  0  0  0  0
  -24.8619  -14.6940   17.1161 C   0  0  0  0  0  0  0  0  0  0  0  0
  -23.9067  -13.1735   18.8477 C   0  0  0  0  0  0  0  0  0  0  0  0
  -18.8397  -17.4977   17.2670 C   0  0  0  0  0  0  0  0  0  0  0  0
  -28.4074  -29.4763   20.1007 C   0  0  0  0  0  0  0  0  0  0  0  0
  -22.7742  -29.9685   21.1768 C   0  0  0  0  0  0  0  0  0  0  0  0
  -24.4918  -25.3606   19.3373 C   0  0  0  0  0  0  0  0  0  0  0  0
  -23.4864  -24.4020   18.6972 C   0  0  0  0  0  0  0  0  0  0  0  0
  -24.2825  -26.8193   18.9152 C   0  0  0  0  0  0  0  0  0  0  0  0
  -23.7027  -22.9696   19.1665 C   0  0  0  0  0  0  0  0  0  1  0  0
  -23.5158  -28.5995   21.2540 C   0  0  1  0  0  0  0  0  0  0  0  0
  -23.1864  -15.5964   18.7922 C   0  0  1  0  0  0  0  0  0  0  0  0
  -20.3244  -15.7317   16.3102 C   0  0  2  0  0  0  0  0  0  0  0  0
  -29.3948  -28.6852   20.9966 C   0  0  1  0  0  0  0  0  0  0  0  0
  -24.3774  -14.6197   18.5798 C   0  0  0  0  0  0  0  0  0  0  0  0
  -29.5165  -20.5223   19.9185 N   0  0  0  0  0  0  0  0  0  0  0  0
  -25.2032  -27.7924   19.6077 N   0  0  0  0  0  0  0  0  0  0  0  0
  -28.6527  -21.4963   20.2522 N   0  0  0  0  0  0  0  0  0  0  0  0
  -22.7411  -16.8076   20.9037 N   0  0  0  0  0  0  0  0  0  0  0  0
  -29.9475  -25.0895   20.2050 N   0  0  0  0  0  0  0  0  0  0  0  0
  -26.6655  -21.9237   21.4683 N   0  0  0  0  0  0  0  0  0  0  0  0
  -27.3471  -17.5049   22.1054 N   0  0  0  0  0  0  0  0  0  0  0  0
  -23.6768  -16.6580   24.4249 N   0  0  0  0  0  0  0  0  0  0  0  0
  -22.0295  -15.3206   17.9473 N   0  0  0  0  0  0  0  0  0  0  0  0
  -29.7832  -27.4443   20.3638 N   0  0  0  0  0  0  0  0  0  0  0  0
  -19.3526  -16.8295   16.0433 N   0  3  0  0  0  0  0  0  0  0  0  0
  -25.9508  -19.2609   22.5800 O   0  0  0  0  0  0  0  0  0  0  0  0
  -24.8156  -16.7066   22.3943 O   0  0  0  0  0  0  0  0  0  0  0  0
  -22.2446  -14.5391   20.6953 O   0  0  0  0  0  0  0  0  0  0  0  0
  -21.9662  -17.3971   16.9171 O   0  0  0  0  0  0  0  0  0  0  0  0
  -28.9308  -26.1107   22.0220 O   0  0  0  0  0  0  0  0  0  0  0  0
  -31.5594  -14.4926   20.0516 O   0  0  0  0  0  0  0  0  0  0  0  0
  -23.5307  -22.9171   20.5821 O   0  0  0  0  0  0  0  0  0  1  0  0
  -28.4227  -10.0836   18.9904 F   0  0  0  0  0  0  0  0  0  0  0  0
  -29.5483  -13.7314   21.7891 F   0  0  0  0  0  0  0  0  0  0  0  0
  1  2  1  0  0  0  0
  1  5  2  0  0  0  0
  2  6  2  0  0  0  0
  3  8  2  0  0  0  0
  3 16  1  0  0  0  0
  4  9  1  0  0  0  0
  4 16  2  0  0  0  0
  5 18  1  0  0  0  0
  6 20  1  0  0  0  0
  7 10  2  0  0  0  0
  7 19  1  0  0  0  0
  8 24  1  0  0  0  0
  9 24  2  0  0  0  0
 10 25  1  0  0  0  0
 11 12  2  0  0  0  0
 11 26  1  0  0  0  0
 12 27  1  0  0  0  0
 13 21  1  0  0  0  0
 13 25  2  0  0  0  0
 14 27  2  0  0  0  0
 14 28  1  0  0  0  0
 15 22  2  0  0  0  0
 15 70  1  0  0  0  0
 16 29  1  0  0  0  0
 17 29  1  0  0  0  0
 17 31  2  0  0  0  0
 17 32  1  0  0  0  0
 18 20  2  0  0  0  0
 18 37  1  0  0  0  0
 19 21  2  0  0  0  0
 19 38  1  0  0  0  0
 20 46  1  0  0  0  0
 21 39  1  0  0  0  0
 22 23  1  0  0  0  0
 22 58  1  0  0  0  0
 23 30  2  0  0  0  0
 23 49  1  0  0  0  0
 24 85  1  0  0  0  0
 25 86  1  0  0  0  0
 26 28  2  0  0  0  0
 26 85  1  0  0  0  0
 27 87  1  0  0  0  0
 28 88  1  0  0  0  0
 29 69  2  0  0  0  0
 30 64  1  0  0  0  0
 30 70  1  0  0  0  0
 31 71  1  0  0  0  0
 31 74  1  0  0  0  0
 32 75  1  0  0  0  0
 32 80  2  0  0  0  0
 33 47  1  0  0  0  0
 33 76  1  0  0  0  0
 33 81  2  0  0  0  0
 34 65  1  0  0  0  0
 34 72  1  0  0  0  0
 34 82  2  0  0  0  0
 35 66  1  0  0  0  0
 35 77  1  0  0  0  0
 35 83  2  0  0  0  0
 36 73  1  0  0  0  0
 36 78  1  0  0  0  0
 36 84  2  0  0  0  0
 37 40  1  0  0  0  0
 38 47  1  0  0  0  0
 39 72  1  0  0  0  0
 40 42  1  0  0  0  0
 41 43  1  0  0  0  0
 41 44  1  0  0  0  0
 42 46  1  0  0  0  0
 43 48  1  0  0  0  0
 44 73  1  0  0  0  0
 45 48  1  0  0  0  0
 45 73  1  0  0  0  0
 46 76  1  0  0  0  0
 47 72  1  0  0  0  0
 48 71  1  0  0  0  0
 50 59  1  0  0  0  0
 51 64  1  0  0  0  0
 52 66  1  0  0  0  0
 53 67  1  0  0  0  0
 54 68  1  0  0  0  0
 55 68  1  0  0  0  0
 56 68  1  0  0  0  0
 57 79  1  0  0  0  0
 58 67  1  0  0  0  0
 59 64  1  0  0  0  0
 60 61  1  0  0  0  0
 60 62  1  0  0  0  0
 61 63  1  0  0  0  0
 62 70  1  0  0  0  0
 63 86  1  0  0  0  0
 65 68  1  0  0  0  0
 65 77  1  0  0  0  0
 66 79  1  0  0  0  0
 67 78  1  0  0  0  0
 69 71  1  0  0  0  0
M  CHG  1  79   1
M  ISO  4  36 100  63 101  78 100  86 101
M  END
> <Batch ID>
0091

> <Smiles>
CCC(C)c1c(C)c(CC(C)[100NH:0][100C:0](=O)N2CCCC(n3nc(-c4ccc(Oc5ccc(F)cc5F)cc4)c(C(N)=O)c3N)C2)cn1CCC[101CH2:1][101O:1]c1ccc2c(c1)CN(C(=O)C(NC(=O)C(C)NC)C(C)(C)C)C(C(=O)NC1CCCc3ccccc31)C2

> <Shape>
0.223

> <Color>
0.079

> <Negative vol penalty>
0.000

$$$$

  -OEChem-04052319113D

 92100  0     1  0  0  0  0  0999 V2000
  -22.5013  -17.6742   23.0812 C   0  0  0  0  0  0  0  0  0  0  0  0
  -23.6422  -18.1888   22.4739 C   0  0  0  0  0  0  0  0  0  0  0  0
  -23.2274   -9.8009   19.9126 C   0  0  0  0  0  0  0  0  0  0  0  0
  -23.6169   -9.9552   22.2920 C   0  0  0  0  0  0  0  0  0  0  0  0
  -21.3687  -17.4001   22.3156 C   0  0  0  0  0  0  0  0  0  0  0  0
  -23.6515  -18.4287   21.1002 C   0  0  0  0  0  0  0  0  0  0  0  0
  -25.6988  -22.9088   19.9243 C   0  0  0  0  0  0  0  0  0  0  0  0
  -22.4878   -8.6348   20.1092 C   0  0  0  0  0  0  0  0  0  0  0  0
  -22.8772   -8.7890   22.4886 C   0  0  0  0  0  0  0  0  0  0  0  0
  -27.0900  -22.9974   19.9420 C   0  0  0  0  0  0  0  0  0  0  0  0
  -21.3950   -5.6558   23.5819 C   0  0  0  0  0  0  0  0  0  0  0  0
  -21.9179   -4.6944   24.4468 C   0  0  0  0  0  0  0  0  0  0  0  0
  -27.1292  -22.7658   17.5411 C   0  0  0  0  0  0  0  0  0  0  0  0
  -23.8729   -4.4936   23.0415 C   0  0  0  0  0  0  0  0  0  0  0  0
  -31.2631  -16.5712   22.6670 C   0  0  0  0  0  0  0  0  0  0  0  0
  -23.7920  -10.4611   21.0039 C   0  0  0  0  0  0  0  0  0  0  0  0
  -24.0740  -12.9878   20.7948 C   0  0  0  0  0  0  0  0  0  0  0  0
  -21.3610  -17.6458   20.9335 C   0  0  0  0  0  0  0  0  0  0  0  0
  -25.0118  -22.7368   18.7140 C   0  0  0  0  0  0  0  0  0  0  0  0
  -22.5183  -18.1564   20.3152 C   0  0  0  0  0  0  0  0  0  0  0  0
  -25.7290  -22.6778   17.5106 C   0  0  0  0  0  0  0  0  0  0  0  0
  -22.3127   -8.1289   21.3973 C   0  0  0  0  0  0  0  0  0  0  0  0
  -27.8057  -22.9230   18.7506 C   0  0  0  0  0  0  0  0  0  0  0  0
  -22.1109   -6.0360   22.4468 C   0  0  0  0  0  0  0  0  0  0  0  0
  -23.1569   -4.1134   24.1766 C   0  0  0  0  0  0  0  0  0  0  0  0
  -23.3499   -5.4550   22.1766 C   0  0  0  0  0  0  0  0  0  0  0  0
  -24.5567  -11.6654   20.8014 C   0  0  0  0  0  0  0  0  0  0  0  0
  -31.9166  -15.5257   23.2557 C   0  0  0  0  0  0  0  0  0  0  0  0
  -25.1871  -13.7585   20.5635 C   0  0  0  0  0  0  0  0  0  0  0  0
  -33.2143  -16.3259   21.6507 C   0  0  0  0  0  0  0  0  0  0  0  0
  -22.7388  -13.4760   20.9813 C   0  0  0  0  0  0  0  0  0  0  0  0
  -23.1160  -20.4868   17.5108 C   0  0  0  0  0  0  0  0  0  0  0  0
  -22.7633  -22.6239   15.0961 C   0  0  0  0  0  0  0  0  0  0  0  0
  -24.0302  -25.2827   13.3722 C   0  0  0  0  0  0  0  0  0  0  0  0
  -31.0287  -12.8818   21.5426 C   0  0  0  0  0  0  0  0  0  0  0  0
  -20.1291  -17.2893   20.1398 C   0  0  0  0  0  0  0  0  0  0  0  0
  -23.5092  -22.6698   18.7092 C   0  0  0  0  0  0  0  0  0  0  0  0
  -25.0377  -22.5140   16.1825 C   0  0  0  0  0  0  0  0  0  0  0  0
  -20.0943  -17.9234   18.7516 C   0  0  0  0  0  0  0  0  0  0  0  0
  -29.4658  -13.6107   18.4277 C   0  0  0  0  0  0  0  0  0  0  0  0
  -21.4394  -17.7524   18.0528 C   0  0  0  0  0  0  0  0  0  0  0  0
  -27.9869  -13.3141   18.6822 C   0  0  0  0  0  0  0  0  0  0  0  0
  -30.3734  -12.6301   19.1669 C   0  0  0  0  0  0  0  0  0  0  0  0
  -28.6388  -12.2243   20.8699 C   0  0  0  0  0  0  0  0  0  0  0  0
  -22.5589  -18.4533   18.8319 C   0  0  1  0  0  0  0  0  0  0  0  0
  -22.9458  -21.9792   17.4711 C   0  0  1  0  0  0  0  0  0  0  0  0
  -27.6850  -13.2215   20.1900 C   0  0  2  0  0  0  0  0  0  0  0  0
  -23.5333  -26.7852   11.4246 C   0  0  0  0  0  0  0  0  0  0  0  0
  -35.4804  -14.5239   17.5435 C   0  0  0  0  0  0  0  0  0  0  0  0
  -35.5567  -16.9928   17.9420 C   0  0  0  0  0  0  0  0  0  0  0  0
  -31.7299  -20.1322   22.3687 C   0  0  0  0  0  0  0  0  0  0  0  0
  -30.1164  -14.9070   25.0088 C   0  0  0  0  0  0  0  0  0  0  0  0
  -32.5297  -14.7639   25.5669 C   0  0  0  0  0  0  0  0  0  0  0  0
  -23.5747  -20.3971   13.1743 C   0  0  0  0  0  0  0  0  0  0  0  0
  -23.9815  -22.1462   11.4297 C   0  0  0  0  0  0  0  0  0  0  0  0
  -21.6924  -21.8342   12.3707 C   0  0  0  0  0  0  0  0  0  0  0  0
  -23.9681  -27.6884   15.0949 C   0  0  0  0  0  0  0  0  0  0  0  0
  -34.3683  -16.5070   20.7352 C   0  0  0  0  0  0  0  0  0  0  0  0
  -34.3925  -15.4522   19.6094 C   0  0  0  0  0  0  0  0  0  0  0  0
  -31.1205  -20.9194   19.4543 C   0  0  0  0  0  0  0  0  0  0  0  0
  -31.2335  -21.8685   18.2559 C   0  0  0  0  0  0  0  0  0  0  0  0
  -32.5059  -20.5185   19.9735 C   0  0  0  0  0  0  0  0  0  0  0  0
  -31.7714  -18.2076   20.7652 C   0  0  0  0  0  0  0  0  0  0  0  0
  -31.5288  -13.1088   23.9628 C   0  0  0  0  0  0  0  0  0  0  0  0
  -29.8694  -22.3104   17.7398 C   0  0  0  0  0  0  0  0  0  1  0  0
  -23.4851  -22.9006   13.7994 C   0  0  1  0  0  0  0  0  0  0  0  0
  -23.3969  -26.5884   12.9264 C   0  0  2  0  0  0  0  0  0  0  0  0
  -35.5539  -15.6179   18.6117 C   0  0  0  0  0  0  0  0  0  0  0  0
  -32.4618  -19.5330   21.1622 C   0  0  2  0  0  0  0  0  0  0  0  0
  -31.5311  -14.6401   24.3575 C   0  0  0  0  0  0  0  0  0  0  0  0
  -23.1969  -21.8207   12.7186 C   0  0  0  0  0  0  0  0  0  0  0  0
  -25.8738  -11.5962   20.5907 N   0  0  0  0  0  0  0  0  0  0  0  0
  -32.0892  -17.0477   21.6778 N   0  0  0  0  0  0  0  0  0  0  0  0
  -26.2282  -12.8848   20.4496 N   0  0  0  0  0  0  0  0  0  0  0  0
  -33.1208  -15.3962   22.6069 N   0  3  0  0  0  0  0  0  0  0  0  0
  -23.5677  -22.4470   16.2307 N   0  0  0  0  0  0  0  0  0  0  0  0
  -30.0364  -12.5908   20.5920 N   0  0  0  0  0  0  0  0  0  0  0  0
  -25.3671  -15.0914   20.4483 N   0  0  0  0  0  0  0  0  0  0  0  0
  -21.7137  -12.5476   21.2086 N   0  0  0  0  0  0  0  0  0  0  0  0
  -22.5187  -19.8812   18.5998 N   0  0  0  0  0  0  0  0  0  0  0  0
  -23.1118  -24.2548   13.4054 N   0  0  0  0  0  0  0  0  0  0  0  0
  -30.6236  -12.8282   22.8707 N   0  0  0  0  0  0  0  0  0  0  0  0
  -24.0475  -27.7404   13.6124 N   0  3  0  0  0  0  0  0  0  0  0  0
  -22.4604  -14.6980   20.9311 O   0  0  0  0  0  0  0  0  0  0  0  0
  -23.7418  -19.9261   16.6188 O   0  0  0  0  0  0  0  0  0  0  0  0
  -21.5308  -22.5738   15.1034 O   0  0  0  0  0  0  0  0  0  0  0  0
  -25.2214  -25.1838   13.6584 O   0  0  0  0  0  0  0  0  0  0  0  0
  -32.1882  -13.1735   21.2306 O   0  0  0  0  0  0  0  0  0  0  0  0
  -21.5908   -6.9911   21.5896 O   0  0  0  0  0  0  0  0  0  0  0  0
  -29.1637  -23.0085   18.7650 O   0  0  0  0  0  0  0  0  0  1  0  0
  -23.6596   -3.1914   25.0080 F   0  0  0  0  0  0  0  0  0  0  0  0
  -24.0429   -5.8171   21.0883 F   0  0  0  0  0  0  0  0  0  0  0  0
  1  2  1  0  0  0  0
  1  5  2  0  0  0  0
  2  6  2  0  0  0  0
  3  8  2  0  0  0  0
  3 16  1  0  0  0  0
  4  9  1  0  0  0  0
  4 16  2  0  0  0  0
  5 18  1  0  0  0  0
  6 20  1  0  0  0  0
  7 10  2  0  0  0  0
  7 19  1  0  0  0  0
  8 22  1  0  0  0  0
  9 22  2  0  0  0  0
 10 23  1  0  0  0  0
 11 12  2  0  0  0  0
 11 24  1  0  0  0  0
 12 25  1  0  0  0  0
 13 21  1  0  0  0  0
 13 23  2  0  0  0  0
 14 25  2  0  0  0  0
 14 26  1  0  0  0  0
 15 28  2  0  0  0  0
 15 73  1  0  0  0  0
 16 27  1  0  0  0  0
 17 27  1  0  0  0  0
 17 29  2  0  0  0  0
 17 31  1  0  0  0  0
 18 20  2  0  0  0  0
 18 36  1  0  0  0  0
 19 21  2  0  0  0  0
 19 37  1  0  0  0  0
 20 45  1  0  0  0  0
 21 38  1  0  0  0  0
 22 89  1  0  0  0  0
 23 90  1  0  0  0  0
 24 26  2  0  0  0  0
 24 89  1  0  0  0  0
 25 91  1  0  0  0  0
 26 92  1  0  0  0  0
 27 72  2  0  0  0  0
 28 70  1  0  0  0  0
 28 75  1  0  0  0  0
 29 74  1  0  0  0  0
 29 78  1  0  0  0  0
 30 58  1  0  0  0  0
 30 73  1  0  0  0  0
 30 75  2  0  0  0  0
 31 79  1  0  0  0  0
 31 84  2  0  0  0  0
 32 46  1  0  0  0  0
 32 80  1  0  0  0  0
 32 85  2  0  0  0  0
 33 66  1  0  0  0  0
 33 76  1  0  0  0  0
 33 86  2  0  0  0  0
 34 67  1  0  0  0  0
 34 81  1  0  0  0  0
 34 87  2  0  0  0  0
 35 77  1  0  0  0  0
 35 82  1  0  0  0  0
 35 88  2  0  0  0  0
 36 39  1  0  0  0  0
 37 46  1  0  0  0  0
 38 76  1  0  0  0  0
 39 41  1  0  0  0  0
 40 42  1  0  0  0  0
 40 43  1  0  0  0  0
 41 45  1  0  0  0  0
 42 47  1  0  0  0  0
 43 77  1  0  0  0  0
 44 47  1  0  0  0  0
 44 77  1  0  0  0  0
 45 80  1  0  0  0  0
 46 76  1  0  0  0  0
 47 74  1  0  0  0  0
 48 67  1  0  0  0  0
 49 68  1  0  0  0  0
 50 68  1  0  0  0  0
 51 69  1  0  0  0  0
 52 70  1  0  0  0  0
 53 70  1  0  0  0  0
 54 71  1  0  0  0  0
 55 71  1  0  0  0  0
 56 71  1  0  0  0  0
 57 83  1  0  0  0  0
 58 59  1  0  0  0  0
 59 68  1  0  0  0  0
 60 61  1  0  0  0  0
 60 62  1  0  0  0  0
 61 65  1  0  0  0  0
 62 69  1  0  0  0  0
 63 69  1  0  0  0  0
 63 73  1  0  0  0  0
 64 70  1  0  0  0  0
 64 82  1  0  0  0  0
 65 90  1  0  0  0  0
 66 71  1  0  0  0  0
 66 81  1  0  0  0  0
 67 83  1  0  0  0  0
 72 74  1  0  0  0  0
M  CHG  2  75   1  83   1
M  ISO  4  35 100  65 101  82 100  90 101
M  END
> <Batch ID>
0091

> <Smiles>
CNC(C)C(=O)NC(C(=O)N1Cc2cc([101O:1][101CH2:1]CCCC(C)Cn3cc(C(C)(C)C[100NH:0][100C:0](=O)N4CCCC(n5nc(-c6ccc(Oc7ccc(F)cc7F)cc6)c(C(N)=O)c5N)C4)nc3CCC(C)C)ccc2CC1C(=O)NC1CCCc2ccccc21)C(C)(C)C

> <Shape>
0.169

> <Color>
0.189

> <Negative vol penalty>
0.000

$$$$

  -OEChem-04052319113D

 90 98  0     1  0  0  0  0  0999 V2000
  -22.9371  -18.0717   23.3171 C   0  0  0  0  0  0  0  0  0  0  0  0
  -24.0597  -18.8918   23.2660 C   0  0  0  0  0  0  0  0  0  0  0  0
  -26.1515  -12.9523   20.6835 C   0  0  0  0  0  0  0  0  0  0  0  0
  -24.3794  -14.4347   19.9768 C   0  0  0  0  0  0  0  0  0  0  0  0
  -21.7541  -18.4718   22.6972 C   0  0  0  0  0  0  0  0  0  0  0  0
  -24.0003  -20.1121   22.5939 C   0  0  0  0  0  0  0  0  0  0  0  0
  -26.8923  -25.2937   24.1082 C   0  0  0  0  0  0  0  0  0  0  0  0
  -25.2088  -12.0984   21.2561 C   0  0  0  0  0  0  0  0  0  0  0  0
  -23.4367  -13.5808   20.5494 C   0  0  0  0  0  0  0  0  0  0  0  0
  -28.0689  -25.8809   23.6451 C   0  0  0  0  0  0  0  0  0  0  0  0
  -23.2426   -9.3465   22.5889 C   0  0  0  0  0  0  0  0  0  0  0  0
  -23.3822   -7.9781   22.3575 C   0  0  0  0  0  0  0  0  0  0  0  0
  -26.7823  -27.2542   22.1358 C   0  0  0  0  0  0  0  0  0  0  0  0
  -28.9751  -25.1264   19.3693 C   0  0  0  0  0  0  0  0  0  0  0  0
  -23.1744   -8.3587   19.9807 C   0  0  0  0  0  0  0  0  0  0  0  0
  -25.7368  -14.1205   20.0439 C   0  0  0  0  0  0  0  0  0  0  0  0
  -27.2031  -14.9647   18.1347 C   0  0  0  0  0  0  0  0  0  0  0  0
  -21.6773  -19.7020   22.0254 C   0  0  0  0  0  0  0  0  0  0  0  0
  -25.6506  -25.6751   23.5800 C   0  0  0  0  0  0  0  0  0  0  0  0
  -22.8155  -20.5285   21.9632 C   0  0  0  0  0  0  0  0  0  0  0  0
  -25.5912  -26.6721   22.5958 C   0  0  0  0  0  0  0  0  0  0  0  0
  -30.2976  -25.5522   19.3163 C   0  0  0  0  0  0  0  0  0  0  0  0
  -31.2898  -24.6709   18.9014 C   0  0  0  0  0  0  0  0  0  0  0  0
  -23.8515  -12.4126   21.1890 C   0  0  0  0  0  0  0  0  0  0  0  0
  -28.0143  -26.8593   22.6567 C   0  0  0  0  0  0  0  0  0  0  0  0
  -23.0689  -10.2211   21.5161 C   0  0  0  0  0  0  0  0  0  0  0  0
  -23.3481   -7.4842   21.0535 C   0  0  0  0  0  0  0  0  0  0  0  0
  -23.0349   -9.7271   20.2121 C   0  0  0  0  0  0  0  0  0  0  0  0
  -26.7101  -15.0033   19.4528 C   0  0  0  0  0  0  0  0  0  0  0  0
  -28.6992  -23.8197   19.0000 C   0  0  0  0  0  0  0  0  0  0  0  0
  -30.9103  -23.3846   18.5533 C   0  0  0  0  0  0  0  0  0  0  0  0
  -28.0974  -16.0052   18.0720 C   0  0  0  0  0  0  0  0  0  0  0  0
  -26.8813  -14.0684   17.0629 C   0  0  0  0  0  0  0  0  0  0  0  0
  -23.3376  -24.1863   21.9870 C   0  0  0  0  0  0  0  0  0  0  0  0
  -21.7879  -27.0097   22.3730 C   0  0  0  0  0  0  0  0  0  0  0  0
  -21.9873  -30.3758   22.8987 C   0  0  0  0  0  0  0  0  0  0  0  0
  -28.6268  -21.1175   21.1437 C   0  0  0  0  0  0  0  0  0  0  0  0
  -20.3906  -20.0703   21.3300 C   0  0  0  0  0  0  0  0  0  0  0  0
  -24.3885  -25.0511   24.1092 C   0  0  0  0  0  0  0  0  0  0  0  0
  -24.2817  -27.1315   22.0104 C   0  0  0  0  0  0  0  0  0  0  0  0
  -20.3005  -21.5482   20.9584 C   0  0  0  0  0  0  0  0  0  0  0  0
  -31.0754  -18.5536   20.8157 C   0  0  0  0  0  0  0  0  0  0  0  0
  -21.5971  -22.0140   20.3036 C   0  0  0  0  0  0  0  0  0  0  0  0
  -30.2788  -17.3495   20.3103 C   0  0  0  0  0  0  0  0  0  0  0  0
  -30.2692  -19.3868   21.8097 C   0  0  0  0  0  0  0  0  0  0  0  0
  -28.1485  -18.6150   20.8193 C   0  0  0  0  0  0  0  0  0  0  0  0
  -22.7831  -21.8707   21.2650 C   0  0  1  0  0  0  0  0  0  0  0  0
  -23.2191  -25.1492   23.1344 C   0  0  1  0  0  0  0  0  0  0  0  0
  -28.8997  -17.7756   19.7718 C   0  0  2  0  0  0  0  0  0  0  0  0
  -32.7167  -25.1006   18.8323 C   0  0  0  0  0  0  0  0  0  0  0  0
  -32.5698  -23.7782   14.4465 C   0  0  0  0  0  0  0  0  0  0  0  0
  -27.0077  -22.2943   17.9341 C   0  0  0  0  0  0  0  0  0  0  0  0
  -20.5528  -32.4220   23.1287 C   0  0  0  0  0  0  0  0  0  0  0  0
  -31.2604  -21.0153   17.7630 C   0  0  0  0  0  0  0  0  0  0  0  0
  -33.0337  -22.0366   19.1552 C   0  0  0  0  0  0  0  0  0  0  0  0
  -21.3485  -27.0380   19.3538 C   0  0  0  0  0  0  0  0  0  0  0  0
  -20.7888  -29.4721   19.5282 C   0  0  0  0  0  0  0  0  0  0  0  0
  -19.3779  -27.7825   20.7018 C   0  0  0  0  0  0  0  0  0  0  0  0
  -22.9505  -30.8835   25.6507 C   0  0  0  0  0  0  0  0  0  0  0  0
  -30.6282  -26.9683   19.7150 C   0  0  0  0  0  0  0  0  0  0  0  0
  -31.7834  -23.4577   15.7098 C   0  0  0  0  0  0  0  0  0  0  0  0
  -31.2645  -27.0851   21.1018 C   0  0  0  0  0  0  0  0  0  0  0  0
  -32.6892  -22.8437   16.7859 C   0  0  0  0  0  0  0  0  0  0  0  0
  -26.8890  -22.7320   20.4138 C   0  0  0  0  0  0  0  0  0  0  0  0
  -30.3428  -26.6339   22.2289 C   0  0  0  0  0  0  0  0  0  1  0  0
  -27.2907  -23.3285   19.0433 C   0  0  1  0  0  0  0  0  0  0  0  0
  -21.6917  -28.2930   21.5838 C   0  0  1  0  0  0  0  0  0  0  0  0
  -21.2536  -31.2898   23.8635 C   0  0  2  0  0  0  0  0  0  0  0  0
  -31.9310  -22.3931   18.0984 C   0  0  0  0  0  0  0  0  0  0  0  0
  -20.8267  -28.1366   20.3013 C   0  0  0  0  0  0  0  0  0  0  0  0
  -27.2468  -15.9902   20.1753 N   0  0  0  0  0  0  0  0  0  0  0  0
  -29.6361  -22.9347   18.5919 N   0  0  0  0  0  0  0  0  0  0  0  0
  -28.0864  -16.5812   19.3082 N   0  0  0  0  0  0  0  0  0  0  0  0
  -23.0759  -26.4869   22.5562 N   0  0  0  0  0  0  0  0  0  0  0  0
  -28.9733  -19.7595   21.2371 N   0  0  0  0  0  0  0  0  0  0  0  0
  -28.8844  -16.4744   17.0806 N   0  0  0  0  0  0  0  0  0  0  0  0
  -25.9414  -13.0557   17.2981 N   0  0  0  0  0  0  0  0  0  0  0  0
  -22.7812  -22.9458   22.2339 N   0  0  0  0  0  0  0  0  0  0  0  0
  -21.2054  -29.3078   22.5124 N   0  0  0  0  0  0  0  0  0  0  0  0
  -27.3837  -21.3839   20.5829 N   0  0  0  0  0  0  0  0  0  0  0  0
  -22.2082  -31.8841   24.8415 N   0  3  0  0  0  0  0  0  0  0  0  0
  -27.4238  -14.1525   15.9350 O   0  0  0  0  0  0  0  0  0  0  0  0
  -23.8916  -24.5429   20.9538 O   0  0  0  0  0  0  0  0  0  0  0  0
  -20.7590  -26.4941   22.8169 O   0  0  0  0  0  0  0  0  0  0  0  0
  -23.1375  -30.5901   22.5224 O   0  0  0  0  0  0  0  0  0  0  0  0
  -29.3724  -22.0256   21.5264 O   0  0  0  0  0  0  0  0  0  0  0  0
  -22.9313  -11.5795   21.7474 O   0  0  0  0  0  0  0  0  0  0  0  0
  -29.1613  -27.4336   22.2024 O   0  0  0  0  0  0  0  0  0  1  0  0
  -23.4837   -6.1702   20.8314 F   0  0  0  0  0  0  0  0  0  0  0  0
  -22.8695  -10.5625   19.1774 F   0  0  0  0  0  0  0  0  0  0  0  0
  1  2  1  0  0  0  0
  1  5  2  0  0  0  0
  2  6  2  0  0  0  0
  3  8  2  0  0  0  0
  3 16  1  0  0  0  0
  4  9  1  0  0  0  0
  4 16  2  0  0  0  0
  5 18  1  0  0  0  0
  6 20  1  0  0  0  0
  7 10  2  0  0  0  0
  7 19  1  0  0  0  0
  8 24  1  0  0  0  0
  9 24  2  0  0  0  0
 10 25  1  0  0  0  0
 11 12  2  0  0  0  0
 11 26  1  0  0  0  0
 12 27  1  0  0  0  0
 13 21  1  0  0  0  0
 13 25  2  0  0  0  0
 14 22  2  0  0  0  0
 14 30  1  0  0  0  0
 15 27  2  0  0  0  0
 15 28  1  0  0  0  0
 16 29  1  0  0  0  0
 17 29  1  0  0  0  0
 17 32  2  0  0  0  0
 17 33  1  0  0  0  0
 18 20  2  0  0  0  0
 18 38  1  0  0  0  0
 19 21  2  0  0  0  0
 19 39  1  0  0  0  0
 20 47  1  0  0  0  0
 21 40  1  0  0  0  0
 22 23  1  0  0  0  0
 22 60  1  0  0  0  0
 23 31  2  0  0  0  0
 23 50  1  0  0  0  0
 24 87  1  0  0  0  0
 25 88  1  0  0  0  0
 26 28  2  0  0  0  0
 26 87  1  0  0  0  0
 27 89  1  0  0  0  0
 28 90  1  0  0  0  0
 29 71  2  0  0  0  0
 30 66  1  0  0  0  0
 30 72  2  0  0  0  0
 31 69  1  0  0  0  0
 31 72  1  0  0  0  0
 32 73  1  0  0  0  0
 32 76  1  0  0  0  0
 33 77  1  0  0  0  0
 33 82  2  0  0  0  0
 34 48  1  0  0  0  0
 34 78  1  0  0  0  0
 34 83  2  0  0  0  0
 35 67  1  0  0  0  0
 35 74  1  0  0  0  0
 35 84  2  0  0  0  0
 36 68  1  0  0  0  0
 36 79  1  0  0  0  0
 36 85  2  0  0  0  0
 37 75  1  0  0  0  0
 37 80  1  0  0  0  0
 37 86  2  0  0  0  0
 38 41  1  0  0  0  0
 39 48  1  0  0  0  0
 40 74  1  0  0  0  0
 41 43  1  0  0  0  0
 42 44  1  0  0  0  0
 42 45  1  0  0  0  0
 43 47  1  0  0  0  0
 44 49  1  0  0  0  0
 45 75  1  0  0  0  0
 46 49  1  0  0  0  0
 46 75  1  0  0  0  0
 47 78  1  0  0  0  0
 48 74  1  0  0  0  0
 49 73  1  0  0  0  0
 51 61  1  0  0  0  0
 52 66  1  0  0  0  0
 53 68  1  0  0  0  0
 54 69  1  0  0  0  0
 55 69  1  0  0  0  0
 56 70  1  0  0  0  0
 57 70  1  0  0  0  0
 58 70  1  0  0  0  0
 59 81  1  0  0  0  0
 60 62  1  0  0  0  0
 61 63  1  0  0  0  0
 62 65  1  0  0  0  0
 63 69  1  0  0  0  0
 64 66  1  0  0  0  0
 64 80  1  0  0  0  0
 65 88  1  0  0  0  0
 67 70  1  0  0  0  0
 67 79  1  0  0  0  0
 68 81  1  0  0  0  0
 71 73  1  0  0  0  0
M  CHG  1  81   1
M  ISO  4  37 100  65 101  80 100  88 101
M  END
> <Batch ID>
0091

> <Smiles>
CCCC(C)(C)c1nc(C(C)C[100NH:0][100C:0](=O)N2CCCC(n3nc(-c4ccc(Oc5ccc(F)cc5F)cc4)c(C(N)=O)c3N)C2)cc(CC[101CH2:1][101O:1]c2ccc3c(c2)CN(C(=O)C(NC(=O)C(C)NC)C(C)(C)C)C(C(=O)NC2CCCc4ccccc42)C3)c1C

> <Shape>
0.222

> <Color>
0.055

> <Negative vol penalty>
0.000

$$$$

  -OEChem-04052319113D

 86 94  0     1  0  0  0  0  0999 V2000
  -41.5881  -22.3193   25.5634 C   0  0  0  0  0  0  0  0  0  0  0  0
  -40.9746  -21.1770   25.0592 C   0  0  0  0  0  0  0  0  0  0  0  0
  -23.1194   -9.8749   19.9482 C   0  0  0  0  0  0  0  0  0  0  0  0
  -23.9034   -9.8991   22.2334 C   0  0  0  0  0  0  0  0  0  0  0  0
  -41.1601  -22.8624   26.7741 C   0  0  0  0  0  0  0  0  0  0  0  0
  -39.9334  -20.5765   25.7661 C   0  0  0  0  0  0  0  0  0  0  0  0
  -36.0478  -19.2912   22.7836 C   0  0  0  0  0  0  0  0  0  0  0  0
  -22.4027   -8.7064   20.2065 C   0  0  0  0  0  0  0  0  0  0  0  0
  -23.1867   -8.7307   22.4917 C   0  0  0  0  0  0  0  0  0  0  0  0
  -36.1874  -18.1333   22.0197 C   0  0  0  0  0  0  0  0  0  0  0  0
  -20.0773   -5.9165   20.3613 C   0  0  0  0  0  0  0  0  0  0  0  0
  -18.7678   -5.8408   19.8870 C   0  0  0  0  0  0  0  0  0  0  0  0
  -34.8705  -16.9169   23.6338 C   0  0  0  0  0  0  0  0  0  0  0  0
  -31.0413  -15.9689   17.7433 C   0  0  0  0  0  0  0  0  0  0  0  0
  -18.1759   -7.7720   21.2125 C   0  0  0  0  0  0  0  0  0  0  0  0
  -32.7180  -17.1203   18.7092 C   0  0  0  0  0  0  0  0  0  0  0  0
  -23.8698  -10.4712   20.9617 C   0  0  0  0  0  0  0  0  0  0  0  0
  -24.1571  -13.0029   20.8372 C   0  0  0  0  0  0  0  0  0  0  0  0
  -40.1068  -22.2738   27.4914 C   0  0  0  0  0  0  0  0  0  0  0  0
  -35.3265  -19.2680   23.9860 C   0  0  0  0  0  0  0  0  0  0  0  0
  -39.4919  -21.1114   26.9883 C   0  0  0  0  0  0  0  0  0  0  0  0
  -34.7211  -18.0764   24.4099 C   0  0  0  0  0  0  0  0  0  0  0  0
  -31.3513  -16.9491   18.7181 C   0  0  0  0  0  0  0  0  0  0  0  0
  -22.4363   -8.1344   21.4782 C   0  0  0  0  0  0  0  0  0  0  0  0
  -35.6011  -16.9453   22.4462 C   0  0  0  0  0  0  0  0  0  0  0  0
  -20.4362   -6.9200   21.2613 C   0  0  0  0  0  0  0  0  0  0  0  0
  -17.8171   -6.7685   20.3125 C   0  0  0  0  0  0  0  0  0  0  0  0
  -19.4855   -7.8478   21.6869 C   0  0  0  0  0  0  0  0  0  0  0  0
  -24.6109  -11.6778   20.6953 C   0  0  0  0  0  0  0  0  0  0  0  0
  -32.2282  -15.5708   17.1685 C   0  0  0  0  0  0  0  0  0  0  0  0
  -25.2293  -13.7750   20.4620 C   0  0  0  0  0  0  0  0  0  0  0  0
  -22.8806  -13.4921   21.2695 C   0  0  0  0  0  0  0  0  0  0  0  0
  -36.0345  -19.8085   27.0372 C   0  0  0  0  0  0  0  0  0  0  0  0
  -32.8349  -19.4559   27.4377 C   0  0  0  0  0  0  0  0  0  0  0  0
  -29.8951  -18.1656   26.2804 C   0  0  0  0  0  0  0  0  0  0  0  0
  -30.8253  -14.6061   21.0199 C   0  0  0  0  0  0  0  0  0  0  0  0
  -39.7105  -22.8696   28.8190 C   0  0  0  0  0  0  0  0  0  0  0  0
  -35.1627  -20.5318   24.7850 C   0  0  0  0  0  0  0  0  0  0  0  0
  -33.9195  -18.0034   25.6828 C   0  0  0  0  0  0  0  0  0  0  0  0
  -38.3513  -22.3890   29.3210 C   0  0  0  0  0  0  0  0  0  0  0  0
  -29.5786  -12.5332   18.2180 C   0  0  0  0  0  0  0  0  0  0  0  0
  -38.2360  -20.8744   29.1820 C   0  0  0  0  0  0  0  0  0  0  0  0
  -28.1618  -12.1815   18.6685 C   0  0  0  0  0  0  0  0  0  0  0  0
  -30.5092  -12.7674   19.4040 C   0  0  0  0  0  0  0  0  0  0  0  0
  -28.5942  -13.4334   20.8193 C   0  0  0  0  0  0  0  0  0  0  0  0
  -38.3427  -20.4454   27.7136 C   0  0  1  0  0  0  0  0  0  0  0  0
  -34.8397  -20.2728   26.2533 C   0  0  1  0  0  0  0  0  0  0  0  0
  -27.6199  -13.2368   19.6482 C   0  0  2  0  0  0  0  0  0  0  0  0
  -32.4796  -14.5777   16.1037 C   0  0  0  0  0  0  0  0  0  0  0  0
  -27.4242  -17.7436   26.1611 C   0  0  0  0  0  0  0  0  0  0  0  0
  -36.0761  -13.4901   19.9616 C   0  0  0  0  0  0  0  0  0  0  0  0
  -33.4585  -17.3550   29.5607 C   0  0  0  0  0  0  0  0  0  0  0  0
  -31.0828  -16.5824   29.3942 C   0  0  0  0  0  0  0  0  0  0  0  0
  -31.5869  -18.9067   30.1468 C   0  0  0  0  0  0  0  0  0  0  0  0
  -30.8571  -16.5455   22.5420 C   0  0  0  0  0  0  0  0  0  0  0  0
  -29.4530  -20.5466   24.5790 C   0  0  0  0  0  0  0  0  0  0  0  0
  -35.3732  -14.8969   18.0088 C   0  0  0  0  0  0  0  0  0  0  0  0
  -34.7092  -16.1588   17.4406 C   0  0  0  0  0  0  0  0  0  0  0  0
  -29.5380  -16.7124   20.4641 C   0  0  0  0  0  0  0  0  0  0  0  0
  -35.8702  -15.9757   20.2913 C   0  0  0  0  0  0  0  0  0  1  0  0
  -30.3888  -17.6571   19.5834 C   0  0  2  0  0  0  0  0  0  0  0  0
  -31.9141  -18.2925   27.7162 C   0  0  1  0  0  0  0  0  0  0  0  0
  -28.5245  -18.7912   26.0940 C   0  0  2  0  0  0  0  0  0  0  0  0
  -35.3143  -14.7550   19.5457 C   0  0  2  0  0  0  0  0  0  0  0  0
  -32.0273  -17.7847   29.1814 C   0  0  0  0  0  0  0  0  0  0  0  0
  -25.8729  -11.6084   20.2636 N   0  0  0  0  0  0  0  0  0  0  0  0
  -33.2406  -16.2771   17.7636 N   0  0  0  0  0  0  0  0  0  0  0  0
  -26.2213  -12.8996   20.1308 N   0  0  0  0  0  0  0  0  0  0  0  0
  -33.7933  -19.2643   26.4324 N   0  0  0  0  0  0  0  0  0  0  0  0
  -29.9501  -13.7424   20.3410 N   0  0  0  0  0  0  0  0  0  0  0  0
  -25.4108  -15.1106   20.3863 N   0  0  0  0  0  0  0  0  0  0  0  0
  -21.8917  -12.5620   21.6178 N   0  0  0  0  0  0  0  0  0  0  0  0
  -37.0956  -20.6936   27.0226 N   0  0  0  0  0  0  0  0  0  0  0  0
  -30.5754  -18.7317   27.3377 N   0  0  0  0  0  0  0  0  0  0  0  0
  -30.3351  -15.8763   21.3590 N   0  0  0  0  0  0  0  0  0  0  0  0
  -29.4281  -18.5415   18.8208 N   0  3  0  0  0  0  0  0  0  0  0  0
  -28.4425  -19.4749   24.7724 N   0  3  0  0  0  0  0  0  0  0  0  0
  -22.6191  -14.7175   21.3289 O   0  0  0  0  0  0  0  0  0  0  0  0
  -35.9960  -18.7280   27.6140 O   0  0  0  0  0  0  0  0  0  0  0  0
  -32.7038  -20.4989   28.0831 O   0  0  0  0  0  0  0  0  0  0  0  0
  -30.3182  -17.2624   25.5622 O   0  0  0  0  0  0  0  0  0  0  0  0
  -31.9821  -14.2649   21.2980 O   0  0  0  0  0  0  0  0  0  0  0  0
  -21.7369   -6.9943   21.7307 O   0  0  0  0  0  0  0  0  0  0  0  0
  -35.7363  -15.8135   21.7027 O   0  0  0  0  0  0  0  0  0  1  0  0
  -16.5600   -6.6966   19.8558 F   0  0  0  0  0  0  0  0  0  0  0  0
  -19.8246   -8.8147   22.5504 F   0  0  0  0  0  0  0  0  0  0  0  0
  1  2  1  0  0  0  0
  1  5  2  0  0  0  0
  2  6  2  0  0  0  0
  3  8  2  0  0  0  0
  3 17  1  0  0  0  0
  4  9  1  0  0  0  0
  4 17  2  0  0  0  0
  5 19  1  0  0  0  0
  6 21  1  0  0  0  0
  7 10  2  0  0  0  0
  7 20  1  0  0  0  0
  8 24  1  0  0  0  0
  9 24  2  0  0  0  0
 10 25  1  0  0  0  0
 11 12  2  0  0  0  0
 11 26  1  0  0  0  0
 12 27  1  0  0  0  0
 13 22  1  0  0  0  0
 13 25  2  0  0  0  0
 14 23  1  0  0  0  0
 14 30  2  0  0  0  0
 15 27  2  0  0  0  0
 15 28  1  0  0  0  0
 16 23  2  0  0  0  0
 16 67  1  0  0  0  0
 17 29  1  0  0  0  0
 18 29  1  0  0  0  0
 18 31  2  0  0  0  0
 18 32  1  0  0  0  0
 19 21  2  0  0  0  0
 19 37  1  0  0  0  0
 20 22  2  0  0  0  0
 20 38  1  0  0  0  0
 21 46  1  0  0  0  0
 22 39  1  0  0  0  0
 23 61  1  0  0  0  0
 24 83  1  0  0  0  0
 25 84  1  0  0  0  0
 26 28  2  0  0  0  0
 26 83  1  0  0  0  0
 27 85  1  0  0  0  0
 28 86  1  0  0  0  0
 29 66  2  0  0  0  0
 30 49  1  0  0  0  0
 30 67  1  0  0  0  0
 31 68  1  0  0  0  0
 31 71  1  0  0  0  0
 32 72  1  0  0  0  0
 32 78  2  0  0  0  0
 33 47  1  0  0  0  0
 33 73  1  0  0  0  0
 33 79  2  0  0  0  0
 34 62  1  0  0  0  0
 34 69  1  0  0  0  0
 34 80  2  0  0  0  0
 35 63  1  0  0  0  0
 35 74  1  0  0  0  0
 35 81  2  0  0  0  0
 36 70  1  0  0  0  0
 36 75  1  0  0  0  0
 36 82  2  0  0  0  0
 37 40  1  0  0  0  0
 38 47  1  0  0  0  0
 39 69  1  0  0  0  0
 40 42  1  0  0  0  0
 41 43  1  0  0  0  0
 41 44  1  0  0  0  0
 42 46  1  0  0  0  0
 43 48  1  0  0  0  0
 44 70  1  0  0  0  0
 45 48  1  0  0  0  0
 45 70  1  0  0  0  0
 46 73  1  0  0  0  0
 47 69  1  0  0  0  0
 48 68  1  0  0  0  0
 50 63  1  0  0  0  0
 51 64  1  0  0  0  0
 52 65  1  0  0  0  0
 53 65  1  0  0  0  0
 54 65  1  0  0  0  0
 55 75  1  0  0  0  0
 56 77  1  0  0  0  0
 57 58  1  0  0  0  0
 57 64  1  0  0  0  0
 58 67  1  0  0  0  0
 59 61  1  0  0  0  0
 59 75  1  0  0  0  0
 60 64  1  0  0  0  0
 60 84  1  0  0  0  0
 61 76  1  0  0  0  0
 62 65  1  0  0  0  0
 62 74  1  0  0  0  0
 63 77  1  0  0  0  0
 66 68  1  0  0  0  0
M  CHG  2  76   1  77   1
M  ISO  4  36 100  60 101  75 100  84 101
M  END
> <Batch ID>
0091

> <Smiles>
CNC(C)C(=O)NC(C(=O)N1Cc2cc([101O:1][101CH2:1]C(C)CCn3cc(C(N)C[100N:0](C)[100C:0](=O)N4CCCC(n5nc(-c6ccc(Oc7ccc(F)cc7F)cc6)c(C(N)=O)c5N)C4)cc3C)ccc2CC1C(=O)NC1CCCc2ccccc21)C(C)(C)C

> <Shape>
0.156

> <Color>
0.173

> <Negative vol penalty>
0.000

$$$$

  -OEChem-04052319113D

 85 93  0     1  0  0  0  0  0999 V2000
  -19.1775  -29.0497   19.9868 C   0  0  0  0  0  0  0  0  0  0  0  0
  -20.2318  -28.1572   19.8214 C   0  0  0  0  0  0  0  0  0  0  0  0
  -23.0641   -9.9239   19.9148 C   0  0  0  0  0  0  0  0  0  0  0  0
  -23.8499   -9.8660   22.1987 C   0  0  0  0  0  0  0  0  0  0  0  0
  -19.4381  -30.4016   20.2065 C   0  0  0  0  0  0  0  0  0  0  0  0
  -21.5474  -28.6163   19.8746 C   0  0  0  0  0  0  0  0  0  0  0  0
  -24.5362  -25.6293   22.6655 C   0  0  0  0  0  0  0  0  0  0  0  0
  -22.3154   -8.7694   20.1431 C   0  0  0  0  0  0  0  0  0  0  0  0
  -23.1011   -8.7115   22.4271 C   0  0  0  0  0  0  0  0  0  0  0  0
  -24.9807  -24.4456   22.0780 C   0  0  0  0  0  0  0  0  0  0  0  0
  -19.8747   -7.9190   23.0455 C   0  0  0  0  0  0  0  0  0  0  0  0
  -19.1308   -7.8533   24.2235 C   0  0  0  0  0  0  0  0  0  0  0  0
  -27.1008  -25.4894   21.5932 C   0  0  0  0  0  0  0  0  0  0  0  0
  -28.5586  -20.7977   20.6474 C   0  0  0  0  0  0  0  0  0  0  0  0
  -20.3674   -5.8893   24.8950 C   0  0  0  0  0  0  0  0  0  0  0  0
  -23.8314  -10.4722   20.9426 C   0  0  0  0  0  0  0  0  0  0  0  0
  -24.1888  -12.9974   20.8845 C   0  0  0  0  0  0  0  0  0  0  0  0
  -20.7577  -30.8760   20.2720 C   0  0  0  0  0  0  0  0  0  0  0  0
  -25.3682  -26.7572   22.7116 C   0  0  0  0  0  0  0  0  0  0  0  0
  -21.8259  -29.9761   20.0941 C   0  0  0  0  0  0  0  0  0  0  0  0
  -26.6654  -26.6854   22.1842 C   0  0  0  0  0  0  0  0  0  0  0  0
  -28.8168  -19.5695   20.0489 C   0  0  0  0  0  0  0  0  0  0  0  0
  -28.8125  -19.4634   18.6626 C   0  0  0  0  0  0  0  0  0  0  0  0
  -22.3339   -8.1632   21.3992 C   0  0  0  0  0  0  0  0  0  0  0  0
  -26.2621  -24.3765   21.5391 C   0  0  0  0  0  0  0  0  0  0  0  0
  -20.8650   -6.9698   22.7921 C   0  0  0  0  0  0  0  0  0  0  0  0
  -19.3771   -6.8385   25.1483 C   0  0  0  0  0  0  0  0  0  0  0  0
  -21.1113   -5.9550   23.7169 C   0  0  0  0  0  0  0  0  0  0  0  0
  -24.6055  -11.6645   20.7072 C   0  0  0  0  0  0  0  0  0  0  0  0
  -28.3038  -21.8807   19.8216 C   0  0  0  0  0  0  0  0  0  0  0  0
  -28.5462  -20.6061   17.9256 C   0  0  0  0  0  0  0  0  0  0  0  0
  -25.2818  -13.7491   20.5284 C   0  0  0  0  0  0  0  0  0  0  0  0
  -22.9266  -13.5102   21.3313 C   0  0  0  0  0  0  0  0  0  0  0  0
  -25.2202  -29.7036   21.5283 C   0  0  0  0  0  0  0  0  0  0  0  0
  -27.9090  -30.1283   23.2925 C   0  0  0  0  0  0  0  0  0  0  0  0
  -30.6283  -28.7332   24.8110 C   0  0  0  0  0  0  0  0  0  0  0  0
  -30.7740  -14.7277   20.6805 C   0  0  0  0  0  0  0  0  0  0  0  0
  -20.9891  -32.3538   20.4644 C   0  0  0  0  0  0  0  0  0  0  0  0
  -24.8834  -28.0182   23.3728 C   0  0  0  0  0  0  0  0  0  0  0  0
  -27.6049  -27.8618   22.2266 C   0  0  0  0  0  0  0  0  0  0  0  0
  -22.4171  -32.6977   20.8804 C   0  0  0  0  0  0  0  0  0  0  0  0
  -29.5936  -12.4137   18.2456 C   0  0  0  0  0  0  0  0  0  0  0  0
  -23.4215  -31.9490   20.0101 C   0  0  0  0  0  0  0  0  0  0  0  0
  -28.1592  -12.1180   18.6871 C   0  0  0  0  0  0  0  0  0  0  0  0
  -30.5257  -12.5972   19.4412 C   0  0  0  0  0  0  0  0  0  0  0  0
  -28.6447  -13.3040   20.8681 C   0  0  0  0  0  0  0  0  0  0  0  0
  -23.2669  -30.4318   20.1699 C   0  0  1  0  0  0  0  0  0  0  0  0
  -25.6306  -29.2633   22.9050 C   0  0  1  0  0  0  0  0  0  0  0  0
  -27.6561  -13.1665   19.6975 C   0  0  2  0  0  0  0  0  0  0  0  0
  -28.5292  -20.5550   16.4327 C   0  0  0  0  0  0  0  0  0  0  0  0
  -28.0923  -16.1821   16.7600 C   0  0  0  0  0  0  0  0  0  0  0  0
  -32.6671  -29.3383   26.1430 C   0  0  0  0  0  0  0  0  0  0  0  0
  -29.2650  -31.1395   20.7530 C   0  0  0  0  0  0  0  0  0  0  0  0
  -31.4733  -30.8218   21.8891 C   0  0  0  0  0  0  0  0  0  0  0  0
  -29.8160  -32.4384   22.8179 C   0  0  0  0  0  0  0  0  0  0  0  0
  -29.7381  -27.1175   27.1253 C   0  0  0  0  0  0  0  0  0  0  0  0
  -29.0920  -18.3842   20.9140 C   0  0  0  0  0  0  0  0  0  0  0  0
  -29.0886  -18.1594   17.9928 C   0  0  0  0  0  0  0  0  0  0  0  0
  -28.0223  -23.2221   20.4323 C   0  0  0  0  0  0  0  0  0  1  0  0
  -27.8054  -17.4944   17.4723 C   0  0  0  0  0  0  0  0  0  0  0  0
  -30.5847  -18.0253   21.0459 C   0  0  0  0  0  0  0  0  0  0  0  0
  -30.8683  -16.8447   21.9722 C   0  0  0  0  0  0  0  0  0  0  0  0
  -29.3883  -29.9569   23.0448 C   0  0  1  0  0  0  0  0  0  0  0  0
  -31.2080  -28.9136   26.2023 C   0  0  2  0  0  0  0  0  0  0  0  0
  -29.9675  -31.0674   22.1236 C   0  0  0  0  0  0  0  0  0  0  0  0
  -25.8649  -11.5715   20.2721 N   0  0  0  0  0  0  0  0  0  0  0  0
  -28.2909  -21.8164   18.4713 N   0  0  0  0  0  0  0  0  0  0  0  0
  -26.2490  -12.8555   20.1730 N   0  0  0  0  0  0  0  0  0  0  0  0
  -27.0824  -29.0744   22.8779 N   0  0  0  0  0  0  0  0  0  0  0  0
  -29.9921  -13.6057   20.3599 N   0  0  0  0  0  0  0  0  0  0  0  0
  -25.5003  -15.0806   20.4878 N   0  0  0  0  0  0  0  0  0  0  0  0
  -21.9125  -12.5990   21.6563 N   0  0  0  0  0  0  0  0  0  0  0  0
  -23.8737  -29.9894   21.4070 N   0  0  0  0  0  0  0  0  0  0  0  0
  -30.0164  -29.8834   24.3596 N   0  0  0  0  0  0  0  0  0  0  0  0
  -30.1907  -15.6380   21.5533 N   0  0  0  0  0  0  0  0  0  0  0  0
  -31.1204  -27.6388   26.9693 N   0  3  0  0  0  0  0  0  0  0  0  0
  -22.6993  -14.7404   21.4234 O   0  0  0  0  0  0  0  0  0  0  0  0
  -26.0631  -29.7798   20.6420 O   0  0  0  0  0  0  0  0  0  0  0  0
  -27.5026  -31.1562   23.8402 O   0  0  0  0  0  0  0  0  0  0  0  0
  -30.7132  -27.6786   24.1856 O   0  0  0  0  0  0  0  0  0  0  0  0
  -31.9060  -14.9077   20.2186 O   0  0  0  0  0  0  0  0  0  0  0  0
  -21.6032   -7.0368   21.6224 O   0  0  0  0  0  0  0  0  0  0  0  0
  -26.6982  -23.2226   20.9645 O   0  0  0  0  0  0  0  0  0  1  0  0
  -18.6637   -6.7764   26.2803 F   0  0  0  0  0  0  0  0  0  0  0  0
  -22.0621   -5.0410   23.4795 F   0  0  0  0  0  0  0  0  0  0  0  0
  1  2  1  0  0  0  0
  1  5  2  0  0  0  0
  2  6  2  0  0  0  0
  3  8  2  0  0  0  0
  3 16  1  0  0  0  0
  4  9  1  0  0  0  0
  4 16  2  0  0  0  0
  5 18  1  0  0  0  0
  6 20  1  0  0  0  0
  7 10  2  0  0  0  0
  7 19  1  0  0  0  0
  8 24  1  0  0  0  0
  9 24  2  0  0  0  0
 10 25  1  0  0  0  0
 11 12  2  0  0  0  0
 11 26  1  0  0  0  0
 12 27  1  0  0  0  0
 13 21  1  0  0  0  0
 13 25  2  0  0  0  0
 14 22  2  0  0  0  0
 14 30  1  0  0  0  0
 15 27  2  0  0  0  0
 15 28  1  0  0  0  0
 16 29  1  0  0  0  0
 17 29  1  0  0  0  0
 17 32  2  0  0  0  0
 17 33  1  0  0  0  0
 18 20  2  0  0  0  0
 18 38  1  0  0  0  0
 19 21  2  0  0  0  0
 19 39  1  0  0  0  0
 20 47  1  0  0  0  0
 21 40  1  0  0  0  0
 22 23  1  0  0  0  0
 22 57  1  0  0  0  0
 23 31  2  0  0  0  0
 23 58  1  0  0  0  0
 24 82  1  0  0  0  0
 25 83  1  0  0  0  0
 26 28  2  0  0  0  0
 26 82  1  0  0  0  0
 27 84  1  0  0  0  0
 28 85  1  0  0  0  0
 29 66  2  0  0  0  0
 30 59  1  0  0  0  0
 30 67  2  0  0  0  0
 31 50  1  0  0  0  0
 31 67  1  0  0  0  0
 32 68  1  0  0  0  0
 32 71  1  0  0  0  0
 33 72  1  0  0  0  0
 33 77  2  0  0  0  0
 34 48  1  0  0  0  0
 34 73  1  0  0  0  0
 34 78  2  0  0  0  0
 35 63  1  0  0  0  0
 35 69  1  0  0  0  0
 35 79  2  0  0  0  0
 36 64  1  0  0  0  0
 36 74  1  0  0  0  0
 36 80  2  0  0  0  0
 37 70  1  0  0  0  0
 37 75  1  0  0  0  0
 37 81  2  0  0  0  0
 38 41  1  0  0  0  0
 39 48  1  0  0  0  0
 40 69  1  0  0  0  0
 41 43  1  0  0  0  0
 42 44  1  0  0  0  0
 42 45  1  0  0  0  0
 43 47  1  0  0  0  0
 44 49  1  0  0  0  0
 45 70  1  0  0  0  0
 46 49  1  0  0  0  0
 46 70  1  0  0  0  0
 47 73  1  0  0  0  0
 48 69  1  0  0  0  0
 49 68  1  0  0  0  0
 51 60  1  0  0  0  0
 52 64  1  0  0  0  0
 53 65  1  0  0  0  0
 54 65  1  0  0  0  0
 55 65  1  0  0  0  0
 56 76  1  0  0  0  0
 57 61  1  0  0  0  0
 58 60  1  0  0  0  0
 59 83  1  0  0  0  0
 61 62  1  0  0  0  0
 62 75  1  0  0  0  0
 63 65  1  0  0  0  0
 63 74  1  0  0  0  0
 64 76  1  0  0  0  0
 66 68  1  0  0  0  0
M  CHG  1  76   1
M  ISO  4  37 100  59 101  75 100  83 101
M  END
> <Batch ID>
0091

> <Smiles>
CCCc1c(CCC[100NH:0][100C:0](=O)N2CCCC(n3nc(-c4ccc(Oc5ccc(F)cc5F)cc4)c(C(N)=O)c3N)C2)cc([101CH2:1][101O:1]c2ccc3c(c2)CN(C(=O)C(NC(=O)C(C)NC)C(C)(C)C)C(C(=O)NC2CCCc4ccccc42)C3)nc1C

> <Shape>
0.292

> <Color>
0.194

> <Negative vol penalty>
0.000

$$$$

  -OEChem-04052319113D

 93102  0     1  0  0  0  0  0999 V2000
  -27.7836  -30.6251   24.0545 C   0  0  0  0  0  0  0  0  0  0  0  0
  -27.2166  -29.3635   23.9052 C   0  0  0  0  0  0  0  0  0  0  0  0
  -26.0786  -18.7769   18.4901 C   0  0  0  0  0  0  0  0  0  0  0  0
  -23.1169   -9.8042   19.9309 C   0  0  0  0  0  0  0  0  0  0  0  0
  -23.8619   -9.8355   22.2290 C   0  0  0  0  0  0  0  0  0  0  0  0
  -27.4705  -31.6401   23.1514 C   0  0  0  0  0  0  0  0  0  0  0  0
  -26.3353  -29.1165   22.8533 C   0  0  0  0  0  0  0  0  0  0  0  0
  -27.2798  -24.7232   20.5184 C   0  0  0  0  0  0  0  0  0  0  0  0
  -26.6885  -18.4517   17.2781 C   0  0  0  0  0  0  0  0  0  0  0  0
  -26.9683  -19.1105   22.0906 C   0  0  0  0  0  0  0  0  0  0  0  0
  -28.3217  -18.7883   22.0560 C   0  0  0  0  0  0  0  0  0  0  0  0
  -22.3955   -8.6369   20.1807 C   0  0  0  0  0  0  0  0  0  0  0  0
  -23.1404   -8.6682   22.4788 C   0  0  0  0  0  0  0  0  0  0  0  0
  -26.8415  -23.5597   21.1493 C   0  0  0  0  0  0  0  0  0  0  0  0
  -19.9257   -7.8060   23.0641 C   0  0  0  0  0  0  0  0  0  0  0  0
  -19.1623   -7.7549   24.2304 C   0  0  0  0  0  0  0  0  0  0  0  0
  -24.9222  -23.4983   19.6893 C   0  0  0  0  0  0  0  0  0  0  0  0
  -20.4388   -5.8463   24.9822 C   0  0  0  0  0  0  0  0  0  0  0  0
  -26.8170  -18.7838   19.6847 C   0  0  0  0  0  0  0  0  0  0  0  0
  -28.1933  -18.4562   19.6495 C   0  0  0  0  0  0  0  0  0  0  0  0
  -23.8502  -10.4035   20.9550 C   0  0  0  0  0  0  0  0  0  0  0  0
  -24.1405  -12.9347   20.8273 C   0  0  0  0  0  0  0  0  0  0  0  0
  -26.5923  -31.4027   22.0822 C   0  0  0  0  0  0  0  0  0  0  0  0
  -26.5356  -25.2900   19.4737 C   0  0  0  0  0  0  0  0  0  0  0  0
  -26.0090  -30.1296   21.9358 C   0  0  0  0  0  0  0  0  0  0  0  0
  -25.3545  -24.6676   19.0451 C   0  0  0  0  0  0  0  0  0  0  0  0
  -26.2195  -19.1087   20.9134 C   0  0  0  0  0  0  0  0  0  0  0  0
  -28.9317  -18.4631   20.8441 C   0  0  0  0  0  0  0  0  0  0  0  0
  -28.0419  -18.1295   17.2435 C   0  0  0  0  0  0  0  0  0  0  0  0
  -28.7908  -18.1314   18.4207 C   0  0  0  0  0  0  0  0  0  0  0  0
  -22.4072   -8.0689   21.4546 C   0  0  0  0  0  0  0  0  0  0  0  0
  -25.6611  -22.9487   20.7367 C   0  0  0  0  0  0  0  0  0  0  0  0
  -20.9456   -6.8773   22.8568 C   0  0  0  0  0  0  0  0  0  0  0  0
  -19.4188   -6.7750   25.1894 C   0  0  0  0  0  0  0  0  0  0  0  0
  -21.2021   -5.8975   23.8158 C   0  0  0  0  0  0  0  0  0  0  0  0
  -24.5961  -11.6091   20.6975 C   0  0  0  0  0  0  0  0  0  0  0  0
  -25.2192  -13.7053   20.4680 C   0  0  0  0  0  0  0  0  0  0  0  0
  -22.8570  -13.4257   21.2363 C   0  0  0  0  0  0  0  0  0  0  0  0
  -25.0492  -28.0638   19.0265 C   0  0  0  0  0  0  0  0  0  0  0  0
  -24.6099  -26.9005   16.0305 C   0  0  0  0  0  0  0  0  0  0  0  0
  -24.3939  -24.1796   13.9818 C   0  0  0  0  0  0  0  0  0  0  0  0
  -30.6794  -14.8383   20.6868 C   0  0  0  0  0  0  0  0  0  0  0  0
  -26.2473  -32.5443   21.1590 C   0  0  0  0  0  0  0  0  0  0  0  0
  -27.0359  -26.5304   18.7857 C   0  0  0  0  0  0  0  0  0  0  0  0
  -24.5296  -25.2247   17.9148 C   0  0  0  0  0  0  0  0  0  0  0  0
  -25.5955  -32.0962   19.8533 C   0  0  0  0  0  0  0  0  0  0  0  0
  -29.6066  -12.4218   18.3022 C   0  0  0  0  0  0  0  0  0  0  0  0
  -24.4969  -31.0743   20.1283 C   0  0  0  0  0  0  0  0  0  0  0  0
  -28.1728  -12.1000   18.7273 C   0  0  0  0  0  0  0  0  0  0  0  0
  -30.5113  -12.6660   19.5080 C   0  0  0  0  0  0  0  0  0  0  0  0
  -28.5861  -13.3628   20.8798 C   0  0  0  0  0  0  0  0  0  0  0  0
  -25.0678  -29.8159   20.7931 C   0  0  1  0  0  0  0  0  0  0  0  0
  -25.9312  -27.3061   18.0748 C   0  0  1  0  0  0  0  0  0  0  0  0
  -27.6232  -13.1637   19.6967 C   0  0  2  0  0  0  0  0  0  0  0  0
  -28.6580  -17.7861   15.9255 C   0  0  0  0  0  0  0  0  0  0  0  0
  -23.9902  -23.5431   11.5882 C   0  0  0  0  0  0  0  0  0  0  0  0
  -32.1424  -20.7053   20.0123 C   0  0  0  0  0  0  0  0  0  0  0  0
  -29.9915  -21.1520   18.8387 C   0  0  0  0  0  0  0  0  0  0  0  0
  -21.6296  -27.4466   16.3904 C   0  0  0  0  0  0  0  0  0  0  0  0
  -21.1904  -25.9549   14.4282 C   0  0  0  0  0  0  0  0  0  0  0  0
  -22.5333  -28.0365   14.1343 C   0  0  0  0  0  0  0  0  0  0  0  0
  -31.3329  -19.6097   16.8825 C   0  0  0  0  0  0  0  0  0  0  0  0
  -32.6988  -18.3991   18.5733 C   0  0  0  0  0  0  0  0  0  0  0  0
  -27.0589  -22.9139   13.7478 C   0  0  0  0  0  0  0  0  0  0  0  0
  -24.7575  -19.4681   21.0222 C   0  0  0  0  0  0  0  0  0  0  0  0
  -30.3901  -18.1372   20.9431 C   0  0  0  0  0  0  0  0  0  0  0  0
  -30.2399  -17.7705   18.2789 C   0  0  0  0  0  0  0  0  0  0  0  0
  -30.6930  -16.9944   21.9157 C   0  0  0  0  0  0  0  0  0  0  0  0
  -24.4754  -20.8945   20.5629 C   0  0  0  0  0  0  0  0  0  1  0  0
  -23.5494  -26.0675   15.3519 C   0  0  1  0  0  0  0  0  0  0  0  0
  -25.0366  -23.8749   12.6407 C   0  0  2  0  0  0  0  0  0  0  0  0
  -30.9208  -20.0431   19.3564 C   0  0  0  0  0  0  0  0  0  0  0  0
  -22.2400  -26.8667   15.0988 C   0  0  0  0  0  0  0  0  0  0  0  0
  -31.2808  -18.9437   18.2783 C   0  0  0  0  0  0  0  0  0  0  0  0
  -25.8653  -11.5379   20.2875 N   0  0  0  0  0  0  0  0  0  0  0  0
  -26.2164  -12.8285   20.1566 N   0  0  0  0  0  0  0  0  0  0  0  0
  -25.0571  -26.4428   17.2780 N   0  0  0  0  0  0  0  0  0  0  0  0
  -29.9340  -13.6863   20.3865 N   0  0  0  0  0  0  0  0  0  0  0  0
  -25.4025  -15.0405   20.3911 N   0  0  0  0  0  0  0  0  0  0  0  0
  -21.8620  -12.4971   21.5707 N   0  0  0  0  0  0  0  0  0  0  0  0
  -25.7241  -28.9792   19.8114 N   0  0  0  0  0  0  0  0  0  0  0  0
  -24.1643  -25.5296   14.1432 N   0  0  0  0  0  0  0  0  0  0  0  0
  -30.0559  -15.7577   21.5214 N   0  0  0  0  0  0  0  0  0  0  0  0
  -25.9648  -22.7153   12.7626 N   0  3  0  0  0  0  0  0  0  0  0  0
  -22.5950  -14.6514   21.2873 O   0  0  0  0  0  0  0  0  0  0  0  0
  -23.8453  -27.8360   19.0461 O   0  0  0  0  0  0  0  0  0  0  0  0
  -25.0313  -27.9158   15.4709 O   0  0  0  0  0  0  0  0  0  0  0  0
  -24.1194  -23.3069   14.8025 O   0  0  0  0  0  0  0  0  0  0  0  0
  -31.8144  -15.0355   20.2396 O   0  0  0  0  0  0  0  0  0  0  0  0
  -21.7031   -6.9299   21.6988 O   0  0  0  0  0  0  0  0  0  0  0  0
  -25.2307  -21.8133   21.3512 O   0  0  0  0  0  0  0  0  0  1  0  0
  -18.6867   -6.7270   26.3101 F   0  0  0  0  0  0  0  0  0  0  0  0
  -22.1814   -5.0033   23.6228 F   0  0  0  0  0  0  0  0  0  0  0  0
  1  2  1  0  0  0  0
  1  6  2  0  0  0  0
  2  7  2  0  0  0  0
  3  9  2  0  0  0  0
  3 19  1  0  0  0  0
  4 12  2  0  0  0  0
  4 21  1  0  0  0  0
  5 13  1  0  0  0  0
  5 21  2  0  0  0  0
  6 23  1  0  0  0  0
  7 25  1  0  0  0  0
  8 14  2  0  0  0  0
  8 24  1  0  0  0  0
  9 29  1  0  0  0  0
 10 11  2  0  0  0  0
 10 27  1  0  0  0  0
 11 28  1  0  0  0  0
 12 31  1  0  0  0  0
 13 31  2  0  0  0  0
 14 32  1  0  0  0  0
 15 16  2  0  0  0  0
 15 33  1  0  0  0  0
 16 34  1  0  0  0  0
 17 26  1  0  0  0  0
 17 32  2  0  0  0  0
 18 34  2  0  0  0  0
 18 35  1  0  0  0  0
 19 20  1  0  0  0  0
 19 27  2  0  0  0  0
 20 28  2  0  0  0  0
 20 30  1  0  0  0  0
 21 36  1  0  0  0  0
 22 36  1  0  0  0  0
 22 37  2  0  0  0  0
 22 38  1  0  0  0  0
 23 25  2  0  0  0  0
 23 43  1  0  0  0  0
 24 26  2  0  0  0  0
 24 44  1  0  0  0  0
 25 52  1  0  0  0  0
 26 45  1  0  0  0  0
 27 65  1  0  0  0  0
 28 66  1  0  0  0  0
 29 30  2  0  0  0  0
 29 55  1  0  0  0  0
 30 67  1  0  0  0  0
 31 90  1  0  0  0  0
 32 91  1  0  0  0  0
 33 35  2  0  0  0  0
 33 90  1  0  0  0  0
 34 92  1  0  0  0  0
 35 93  1  0  0  0  0
 36 75  2  0  0  0  0
 37 76  1  0  0  0  0
 37 79  1  0  0  0  0
 38 80  1  0  0  0  0
 38 85  2  0  0  0  0
 39 53  1  0  0  0  0
 39 81  1  0  0  0  0
 39 86  2  0  0  0  0
 40 70  1  0  0  0  0
 40 77  1  0  0  0  0
 40 87  2  0  0  0  0
 41 71  1  0  0  0  0
 41 82  1  0  0  0  0
 41 88  2  0  0  0  0
 42 78  1  0  0  0  0
 42 83  1  0  0  0  0
 42 89  2  0  0  0  0
 43 46  1  0  0  0  0
 44 53  1  0  0  0  0
 45 77  1  0  0  0  0
 46 48  1  0  0  0  0
 47 49  1  0  0  0  0
 47 50  1  0  0  0  0
 48 52  1  0  0  0  0
 49 54  1  0  0  0  0
 50 78  1  0  0  0  0
 51 54  1  0  0  0  0
 51 78  1  0  0  0  0
 52 81  1  0  0  0  0
 53 77  1  0  0  0  0
 54 76  1  0  0  0  0
 56 71  1  0  0  0  0
 57 72  1  0  0  0  0
 58 72  1  0  0  0  0
 59 73  1  0  0  0  0
 60 73  1  0  0  0  0
 61 73  1  0  0  0  0
 62 74  1  0  0  0  0
 63 74  1  0  0  0  0
 64 84  1  0  0  0  0
 65 69  1  0  0  0  0
 66 68  1  0  0  0  0
 67 74  1  0  0  0  0
 68 83  1  0  0  0  0
 69 91  1  0  0  0  0
 70 73  1  0  0  0  0
 70 82  1  0  0  0  0
 71 84  1  0  0  0  0
 72 74  1  0  0  0  0
 75 76  1  0  0  0  0
M  CHG  1  84   1
M  ISO  4  42 100  69 101  83 100  91 101
M  END
> <Batch ID>
0091

> <Smiles>
CNC(C)C(=O)NC(C(=O)N1Cc2cc([101O:1][101CH2:1]Cc3ccc(CC[100NH:0][100C:0](=O)N4CCCC(n5nc(-c6ccc(Oc7ccc(F)cc7F)cc6)c(C(N)=O)c5N)C4)c4c(CC(C)(C)C(C)C)c(C)ccc34)ccc2CC1C(=O)NC1CCCc2ccccc21)C(C)(C)C

> <Shape>
0.287

> <Color>
0.189

> <Negative vol penalty>
0.000

$$$$

  -OEChem-04052319113D

 87 95  0     1  0  0  0  0  0999 V2000
  -16.7327  -29.5264   23.1266 C   0  0  0  0  0  0  0  0  0  0  0  0
  -17.7133  -29.7176   22.1584 C   0  0  0  0  0  0  0  0  0  0  0  0
  -26.0744  -13.4099   20.3035 C   0  0  0  0  0  0  0  0  0  0  0  0
  -25.1928  -14.6605   22.1732 C   0  0  0  0  0  0  0  0  0  0  0  0
  -17.0809  -29.0257   24.3804 C   0  0  0  0  0  0  0  0  0  0  0  0
  -19.0429  -29.4091   22.4438 C   0  0  0  0  0  0  0  0  0  0  0  0
  -25.0057  -26.9733   19.3089 C   0  0  0  0  0  0  0  0  0  0  0  0
  -24.9597  -12.5723   20.3382 C   0  0  0  0  0  0  0  0  0  0  0  0
  -24.0780  -13.8229   22.2079 C   0  0  0  0  0  0  0  0  0  0  0  0
  -26.3517  -27.3013   19.1531 C   0  0  0  0  0  0  0  0  0  0  0  0
  -23.8767   -9.9420   22.1639 C   0  0  0  0  0  0  0  0  0  0  0  0
  -24.0955   -8.5685   22.0578 C   0  0  0  0  0  0  0  0  0  0  0  0
  -26.8245  -26.3677   21.3266 C   0  0  0  0  0  0  0  0  0  0  0  0
  -29.6278  -24.9776   22.6179 C   0  0  0  0  0  0  0  0  0  0  0  0
  -29.2304  -24.5997   20.2762 C   0  0  0  0  0  0  0  0  0  0  0  0
  -22.7390   -8.5069   20.0595 C   0  0  0  0  0  0  0  0  0  0  0  0
  -26.1911  -14.4540   21.2211 C   0  0  0  0  0  0  0  0  0  0  0  0
  -27.7633  -16.1319   20.1164 C   0  0  0  0  0  0  0  0  0  0  0  0
  -18.4140  -28.7018   24.6781 C   0  0  0  0  0  0  0  0  0  0  0  0
  -24.5563  -26.3488   20.4812 C   0  0  0  0  0  0  0  0  0  0  0  0
  -19.4094  -28.9048   23.7032 C   0  0  0  0  0  0  0  0  0  0  0  0
  -25.4726  -26.0305   21.4937 C   0  0  0  0  0  0  0  0  0  0  0  0
  -29.4365  -25.4775   21.3346 C   0  0  0  0  0  0  0  0  0  0  0  0
  -23.9614  -12.7787   21.2903 C   0  0  0  0  0  0  0  0  0  0  0  0
  -27.2609  -27.0011   20.1633 C   0  0  0  0  0  0  0  0  0  0  0  0
  -23.0890  -10.5979   21.2179 C   0  0  0  0  0  0  0  0  0  0  0  0
  -23.5267   -7.8510   21.0056 C   0  0  0  0  0  0  0  0  0  0  0  0
  -22.5202   -9.8804   20.1657 C   0  0  0  0  0  0  0  0  0  0  0  0
  -27.3426  -15.3193   21.1862 C   0  0  0  0  0  0  0  0  0  0  0  0
  -29.6043  -23.6028   22.7886 C   0  0  0  0  0  0  0  0  0  0  0  0
  -29.2249  -23.2418   20.5516 C   0  0  0  0  0  0  0  0  0  0  0  0
  -28.8982  -16.7506   20.5808 C   0  0  0  0  0  0  0  0  0  0  0  0
  -27.1803  -16.3114   18.8189 C   0  0  0  0  0  0  0  0  0  0  0  0
  -22.5127  -27.1185   22.7909 C   0  0  0  0  0  0  0  0  0  0  0  0
  -23.1106  -24.0923   23.7942 C   0  0  0  0  0  0  0  0  0  0  0  0
  -25.2285  -21.4164   23.8280 C   0  0  0  0  0  0  0  0  0  0  0  0
  -31.6763  -19.4361   24.6076 C   0  0  0  0  0  0  0  0  0  0  0  0
  -18.7492  -28.2078   26.0631 C   0  0  0  0  0  0  0  0  0  0  0  0
  -23.1056  -25.9773   20.6225 C   0  0  0  0  0  0  0  0  0  0  0  0
  -25.0445  -25.3422   22.7631 C   0  0  0  0  0  0  0  0  0  0  0  0
  -20.1247  -27.5530   26.1600 C   0  0  0  0  0  0  0  0  0  0  0  0
  -31.6622  -15.8777   24.7262 C   0  0  0  0  0  0  0  0  0  0  0  0
  -21.1744  -28.4101   25.4599 C   0  0  0  0  0  0  0  0  0  0  0  0
  -30.5681  -15.4829   23.7327 C   0  0  0  0  0  0  0  0  0  0  0  0
  -31.3005  -17.1511   25.4875 C   0  0  0  0  0  0  0  0  0  0  0  0
  -29.8521  -17.9073   23.6425 C   0  0  0  0  0  0  0  0  0  0  0  0
  -20.8589  -28.5586   23.9666 C   0  0  1  0  0  0  0  0  0  0  0  0
  -22.6711  -25.8071   22.0750 C   0  0  1  0  0  0  0  0  0  0  0  0
  -30.1966  -16.6599   22.8109 C   0  0  2  0  0  0  0  0  0  0  0  0
  -26.0258  -19.0837   24.2972 C   0  0  0  0  0  0  0  0  0  0  0  0
  -28.9544  -27.7433   22.3261 C   0  0  0  0  0  0  0  0  0  0  0  0
  -30.8523  -27.4646   20.6864 C   0  0  0  0  0  0  0  0  0  0  0  0
  -30.1127  -22.4090   18.3462 C   0  0  0  0  0  0  0  0  0  0  0  0
  -27.6295  -22.5023   18.7475 C   0  0  0  0  0  0  0  0  0  0  0  0
  -29.0187  -20.7625   19.8541 C   0  0  0  0  0  0  0  0  0  0  0  0
  -23.8067  -25.2679   26.5225 C   0  0  0  0  0  0  0  0  0  0  0  0
  -24.9147  -23.0977   27.0973 C   0  0  0  0  0  0  0  0  0  0  0  0
  -22.4696  -23.1562   26.6069 C   0  0  0  0  0  0  0  0  0  0  0  0
  -24.0600  -20.3865   21.3115 C   0  0  0  0  0  0  0  0  0  0  0  0
  -29.8043  -23.0307   24.1521 C   0  0  0  0  0  0  0  0  0  0  0  0
  -31.2738  -22.7334   24.5092 C   0  0  0  0  0  0  0  0  0  0  0  0
  -31.9410  -21.6936   23.6113 C   0  0  0  0  0  0  0  0  0  0  0  0
  -24.1206  -23.4512   24.7150 C   0  0  1  0  0  0  0  0  0  0  0  0
  -24.9866  -19.9373   23.5871 C   0  0  2  0  0  0  0  0  0  0  0  0
  -29.4515  -26.9842   21.0889 C   0  0  0  0  0  0  0  0  0  1  0  0
  -29.0084  -22.2709   19.4393 C   0  0  0  0  0  0  0  0  0  0  0  0
  -23.8360  -23.7579   26.2125 C   0  0  0  0  0  0  0  0  0  0  0  0
  -28.1451  -15.4112   22.2500 N   0  0  0  0  0  0  0  0  0  0  0  0
  -29.4070  -22.7188   21.7849 N   0  0  0  0  0  0  0  0  0  0  0  0
  -29.0814  -16.2887   21.8509 N   0  0  0  0  0  0  0  0  0  0  0  0
  -23.6144  -25.0050   22.8568 N   0  0  0  0  0  0  0  0  0  0  0  0
  -30.9601  -18.2289   24.5555 N   0  0  0  0  0  0  0  0  0  0  0  0
  -29.7474  -17.6391   20.0224 N   0  0  0  0  0  0  0  0  0  0  0  0
  -26.2248  -17.3227   18.6499 N   0  0  0  0  0  0  0  0  0  0  0  0
  -21.2313  -27.3579   23.2495 N   0  0  0  0  0  0  0  0  0  0  0  0
  -24.1273  -22.0296   24.3871 N   0  0  0  0  0  0  0  0  0  0  0  0
  -31.2941  -20.4025   23.6853 N   0  0  0  0  0  0  0  0  0  0  0  0
  -25.0455  -19.6335   22.1293 N   0  3  0  0  0  0  0  0  0  0  0  0
  -27.4852  -15.5855   17.8423 O   0  0  0  0  0  0  0  0  0  0  0  0
  -23.4815  -27.8578   22.9192 O   0  0  0  0  0  0  0  0  0  0  0  0
  -21.9195  -23.7889   23.8981 O   0  0  0  0  0  0  0  0  0  0  0  0
  -26.2896  -21.9716   23.5515 O   0  0  0  0  0  0  0  0  0  0  0  0
  -32.5923  -19.6358   25.4127 O   0  0  0  0  0  0  0  0  0  0  0  0
  -22.8734  -11.9617   21.3242 O   0  0  0  0  0  0  0  0  0  0  0  0
  -28.5752  -27.3208   20.0142 O   0  0  0  0  0  0  0  0  0  1  0  0
  -23.7381   -6.5323   20.9029 F   0  0  0  0  0  0  0  0  0  0  0  0
  -21.7635  -10.5052   19.2531 F   0  0  0  0  0  0  0  0  0  0  0  0
  1  2  1  0  0  0  0
  1  5  2  0  0  0  0
  2  6  2  0  0  0  0
  3  8  2  0  0  0  0
  3 17  1  0  0  0  0
  4  9  1  0  0  0  0
  4 17  2  0  0  0  0
  5 19  1  0  0  0  0
  6 21  1  0  0  0  0
  7 10  2  0  0  0  0
  7 20  1  0  0  0  0
  8 24  1  0  0  0  0
  9 24  2  0  0  0  0
 10 25  1  0  0  0  0
 11 12  2  0  0  0  0
 11 26  1  0  0  0  0
 12 27  1  0  0  0  0
 13 22  1  0  0  0  0
 13 25  2  0  0  0  0
 14 23  1  0  0  0  0
 14 30  2  0  0  0  0
 15 23  2  0  0  0  0
 15 31  1  0  0  0  0
 16 27  2  0  0  0  0
 16 28  1  0  0  0  0
 17 29  1  0  0  0  0
 18 29  1  0  0  0  0
 18 32  2  0  0  0  0
 18 33  1  0  0  0  0
 19 21  2  0  0  0  0
 19 38  1  0  0  0  0
 20 22  2  0  0  0  0
 20 39  1  0  0  0  0
 21 47  1  0  0  0  0
 22 40  1  0  0  0  0
 23 65  1  0  0  0  0
 24 84  1  0  0  0  0
 25 85  1  0  0  0  0
 26 28  2  0  0  0  0
 26 84  1  0  0  0  0
 27 86  1  0  0  0  0
 28 87  1  0  0  0  0
 29 68  2  0  0  0  0
 30 60  1  0  0  0  0
 30 69  1  0  0  0  0
 31 66  1  0  0  0  0
 31 69  2  0  0  0  0
 32 70  1  0  0  0  0
 32 73  1  0  0  0  0
 33 74  1  0  0  0  0
 33 79  2  0  0  0  0
 34 48  1  0  0  0  0
 34 75  1  0  0  0  0
 34 80  2  0  0  0  0
 35 63  1  0  0  0  0
 35 71  1  0  0  0  0
 35 81  2  0  0  0  0
 36 64  1  0  0  0  0
 36 76  1  0  0  0  0
 36 82  2  0  0  0  0
 37 72  1  0  0  0  0
 37 77  1  0  0  0  0
 37 83  2  0  0  0  0
 38 41  1  0  0  0  0
 39 48  1  0  0  0  0
 40 71  1  0  0  0  0
 41 43  1  0  0  0  0
 42 44  1  0  0  0  0
 42 45  1  0  0  0  0
 43 47  1  0  0  0  0
 44 49  1  0  0  0  0
 45 72  1  0  0  0  0
 46 49  1  0  0  0  0
 46 72  1  0  0  0  0
 47 75  1  0  0  0  0
 48 71  1  0  0  0  0
 49 70  1  0  0  0  0
 50 64  1  0  0  0  0
 51 65  1  0  0  0  0
 52 65  1  0  0  0  0
 53 66  1  0  0  0  0
 54 66  1  0  0  0  0
 55 66  1  0  0  0  0
 56 67  1  0  0  0  0
 57 67  1  0  0  0  0
 58 67  1  0  0  0  0
 59 78  1  0  0  0  0
 60 61  1  0  0  0  0
 61 62  1  0  0  0  0
 62 77  1  0  0  0  0
 63 67  1  0  0  0  0
 63 76  1  0  0  0  0
 64 78  1  0  0  0  0
 65 85  1  0  0  0  0
 68 70  1  0  0  0  0
M  CHG  1  78   1
M  ISO  4  37 100  65 101  77 100  85 101
M  END
> <Batch ID>
0091

> <Smiles>
CNC(C)C(=O)NC(C(=O)N1Cc2cc([101O:1][101C:1](C)(C)c3cc(CCC[100NH:0][100C:0](=O)N4CCCC(n5nc(-c6ccc(Oc7ccc(F)cc7F)cc6)c(C(N)=O)c5N)C4)nc(C(C)(C)C)c3)ccc2CC1C(=O)NC1CCCc2ccccc21)C(C)(C)C

> <Shape>
0.216

> <Color>
0.075

> <Negative vol penalty>
0.000

$$$$

  -OEChem-04052319113D

 92100  0     1  0  0  0  0  0999 V2000
  -37.0399  -27.7347   22.2845 C   0  0  0  0  0  0  0  0  0  0  0  0
  -36.0547  -27.0724   21.5592 C   0  0  0  0  0  0  0  0  0  0  0  0
  -22.9784   -9.8952   19.9843 C   0  0  0  0  0  0  0  0  0  0  0  0
  -23.7085   -9.9333   22.2871 C   0  0  0  0  0  0  0  0  0  0  0  0
  -37.2720  -27.3930   23.6162 C   0  0  0  0  0  0  0  0  0  0  0  0
  -35.3018  -26.0670   22.1648 C   0  0  0  0  0  0  0  0  0  0  0  0
  -30.3579  -26.4575   21.1394 C   0  0  0  0  0  0  0  0  0  0  0  0
  -31.7305  -20.8821   16.7738 C   0  0  0  0  0  0  0  0  0  0  0  0
  -32.8207  -20.2301   17.3499 C   0  0  0  0  0  0  0  0  0  0  0  0
  -22.2041   -8.7654   20.2485 C   0  0  0  0  0  0  0  0  0  0  0  0
  -22.9342   -8.8035   22.5512 C   0  0  0  0  0  0  0  0  0  0  0  0
  -29.9302  -26.0144   19.8886 C   0  0  0  0  0  0  0  0  0  0  0  0
  -23.1532   -5.4645   22.0678 C   0  0  0  0  0  0  0  0  0  0  0  0
  -23.7348   -4.4405   22.8154 C   0  0  0  0  0  0  0  0  0  0  0  0
  -29.1833  -23.9474   20.8829 C   0  0  0  0  0  0  0  0  0  0  0  0
  -30.2247  -19.4027   17.9490 C   0  0  0  0  0  0  0  0  0  0  0  0
  -22.0161   -4.6905   24.4949 C   0  0  0  0  0  0  0  0  0  0  0  0
  -23.7306  -10.4791   21.0036 C   0  0  0  0  0  0  0  0  0  0  0  0
  -24.1339  -12.9924   20.8351 C   0  0  0  0  0  0  0  0  0  0  0  0
  -36.5149  -26.3896   24.2412 C   0  0  0  0  0  0  0  0  0  0  0  0
  -30.2113  -25.6430   22.2714 C   0  0  0  0  0  0  0  0  0  0  0  0
  -35.5248  -25.7106   23.5056 C   0  0  0  0  0  0  0  0  0  0  0  0
  -29.6077  -24.3834   22.1474 C   0  0  0  0  0  0  0  0  0  0  0  0
  -30.4325  -20.4684   17.0734 C   0  0  0  0  0  0  0  0  0  0  0  0
  -32.6130  -19.1643   18.2255 C   0  0  0  0  0  0  0  0  0  0  0  0
  -31.3149  -18.7506   18.5251 C   0  0  0  0  0  0  0  0  0  0  0  0
  -22.1820   -8.2196   21.5319 C   0  0  0  0  0  0  0  0  0  0  0  0
  -29.3454  -24.7581   19.7597 C   0  0  0  0  0  0  0  0  0  0  0  0
  -22.0031   -6.1015   22.5338 C   0  0  0  0  0  0  0  0  0  0  0  0
  -23.1663   -4.0535   24.0289 C   0  0  0  0  0  0  0  0  0  0  0  0
  -21.4345   -5.7145   23.7473 C   0  0  0  0  0  0  0  0  0  0  0  0
  -24.5310  -11.6458   20.7312 C   0  0  0  0  0  0  0  0  0  0  0  0
  -25.2482  -13.7081   20.4709 C   0  0  0  0  0  0  0  0  0  0  0  0
  -22.8707  -13.5467   21.2260 C   0  0  0  0  0  0  0  0  0  0  0  0
  -32.2130  -24.3041   24.3461 C   0  0  0  0  0  0  0  0  0  0  0  0
  -29.4684  -23.4642   25.8573 C   0  0  0  0  0  0  0  0  0  0  0  0
  -26.1186  -22.8458   25.6488 C   0  0  0  0  0  0  0  0  0  0  0  0
  -30.7517  -14.6018   20.7115 C   0  0  0  0  0  0  0  0  0  0  0  0
  -36.8342  -26.0223   25.6688 C   0  0  0  0  0  0  0  0  0  0  0  0
  -30.6536  -26.1464   23.6181 C   0  0  0  0  0  0  0  0  0  0  0  0
  -29.4088  -23.4789   23.3351 C   0  0  0  0  0  0  0  0  0  0  0  0
  -35.7386  -25.2037   26.3468 C   0  0  0  0  0  0  0  0  0  0  0  0
  -29.5887  -12.1943   18.3603 C   0  0  0  0  0  0  0  0  0  0  0  0
  -35.2710  -24.0763   25.4318 C   0  0  0  0  0  0  0  0  0  0  0  0
  -28.1392  -11.9437   18.7799 C   0  0  0  0  0  0  0  0  0  0  0  0
  -30.4952  -12.4191   19.5685 C   0  0  0  0  0  0  0  0  0  0  0  0
  -28.5936  -13.2240   20.9137 C   0  0  0  0  0  0  0  0  0  0  0  0
  -34.6704  -24.6315   24.1347 C   0  0  1  0  0  0  0  0  0  0  0  0
  -30.9225  -25.0247   24.6164 C   0  0  1  0  0  0  0  0  0  0  0  0
  -27.6309  -13.0473   19.7270 C   0  0  2  0  0  0  0  0  0  0  0  0
  -29.2608  -21.0054   14.9219 C   0  0  0  0  0  0  0  0  0  0  0  0
  -24.1548  -22.1420   27.0435 C   0  0  0  0  0  0  0  0  0  0  0  0
  -36.7857  -17.6966   18.7867 C   0  0  0  0  0  0  0  0  0  0  0  0
  -36.2408  -15.7595   17.3061 C   0  0  0  0  0  0  0  0  0  0  0  0
  -35.2774  -15.8868   19.6177 C   0  0  0  0  0  0  0  0  0  0  0  0
  -30.4742  -20.5838   25.8158 C   0  0  0  0  0  0  0  0  0  0  0  0
  -28.1406  -19.8350   26.3274 C   0  0  0  0  0  0  0  0  0  0  0  0
  -29.3716  -21.2730   27.9520 C   0  0  0  0  0  0  0  0  0  0  0  0
  -31.4145  -19.1723   21.4581 C   0  0  0  0  0  0  0  0  0  0  0  0
  -29.1346  -18.3388   20.9095 C   0  0  0  0  0  0  0  0  0  0  0  0
  -24.6847  -25.3794   25.1163 C   0  0  0  0  0  0  0  0  0  0  0  0
  -33.7958  -18.4809   18.8292 C   0  0  0  0  0  0  0  0  0  0  0  0
  -31.0682  -17.6119   19.4594 C   0  0  0  0  0  0  0  0  0  0  0  0
  -34.4757  -17.5220   17.8335 C   0  0  0  0  0  0  0  0  0  0  0  0
  -29.1709  -22.6727   16.8140 C   0  0  0  0  0  0  0  0  0  0  0  0
  -30.8526  -16.7761   21.9036 C   0  0  0  0  0  0  0  0  0  0  0  0
  -28.9615  -22.9157   18.3057 C   0  0  0  0  0  0  0  0  0  1  0  0
  -29.2455  -21.1783   16.4455 C   0  0  2  0  0  0  0  0  0  0  0  0
  -28.5305  -22.2830   25.7923 C   0  0  1  0  0  0  0  0  0  0  0  0
  -24.9525  -23.3167   26.4990 C   0  0  2  0  0  0  0  0  0  0  0  0
  -35.6775  -16.7054   18.3794 C   0  0  0  0  0  0  0  0  0  0  0  0
  -29.1346  -21.0097   26.4490 C   0  0  0  0  0  0  0  0  0  0  0  0
  -30.6322  -17.9544   20.9251 C   0  0  0  0  0  0  0  0  0  0  0  0
  -25.7986  -11.5114   20.3321 N   0  0  0  0  0  0  0  0  0  0  0  0
  -26.2075  -12.7827   20.1819 N   0  0  0  0  0  0  0  0  0  0  0  0
  -29.8635  -24.0135   24.6293 N   0  0  0  0  0  0  0  0  0  0  0  0
  -29.9578  -13.4789   20.4252 N   0  0  0  0  0  0  0  0  0  0  0  0
  -25.4911  -15.0324   20.3727 N   0  0  0  0  0  0  0  0  0  0  0  0
  -21.8332  -12.6690   21.5687 N   0  0  0  0  0  0  0  0  0  0  0  0
  -33.3281  -25.1198   24.3677 N   0  0  0  0  0  0  0  0  0  0  0  0
  -27.2752  -22.7252   26.3898 N   0  0  0  0  0  0  0  0  0  0  0  0
  -30.1639  -15.5622   21.5256 N   0  0  0  0  0  0  0  0  0  0  0  0
  -24.0370  -24.1736   25.6937 N   0  3  0  0  0  0  0  0  0  0  0  0
  -22.6630  -14.7835   21.2542 O   0  0  0  0  0  0  0  0  0  0  0  0
  -32.1983  -23.0970   24.1350 O   0  0  0  0  0  0  0  0  0  0  0  0
  -29.8312  -23.8884   26.9573 O   0  0  0  0  0  0  0  0  0  0  0  0
  -26.0132  -22.6052   24.4481 O   0  0  0  0  0  0  0  0  0  0  0  0
  -31.8972  -14.7408   20.2696 O   0  0  0  0  0  0  0  0  0  0  0  0
  -21.4264   -7.1173   21.7901 O   0  0  0  0  0  0  0  0  0  0  0  0
  -28.9275  -24.3229   18.5399 O   0  0  0  0  0  0  0  0  0  1  0  0
  -23.7240   -3.0692   24.7460 F   0  0  0  0  0  0  0  0  0  0  0  0
  -20.3289   -6.3219   24.1995 F   0  0  0  0  0  0  0  0  0  0  0  0
  1  2  1  0  0  0  0
  1  5  2  0  0  0  0
  2  6  2  0  0  0  0
  3 10  2  0  0  0  0
  3 18  1  0  0  0  0
  4 11  1  0  0  0  0
  4 18  2  0  0  0  0
  5 20  1  0  0  0  0
  6 22  1  0  0  0  0
  7 12  2  0  0  0  0
  7 21  1  0  0  0  0
  8  9  2  0  0  0  0
  8 24  1  0  0  0  0
  9 25  1  0  0  0  0
 10 27  1  0  0  0  0
 11 27  2  0  0  0  0
 12 28  1  0  0  0  0
 13 14  2  0  0  0  0
 13 29  1  0  0  0  0
 14 30  1  0  0  0  0
 15 23  1  0  0  0  0
 15 28  2  0  0  0  0
 16 24  2  0  0  0  0
 16 26  1  0  0  0  0
 17 30  2  0  0  0  0
 17 31  1  0  0  0  0
 18 32  1  0  0  0  0
 19 32  1  0  0  0  0
 19 33  2  0  0  0  0
 19 34  1  0  0  0  0
 20 22  2  0  0  0  0
 20 39  1  0  0  0  0
 21 23  2  0  0  0  0
 21 40  1  0  0  0  0
 22 48  1  0  0  0  0
 23 41  1  0  0  0  0
 24 68  1  0  0  0  0
 25 26  2  0  0  0  0
 25 62  1  0  0  0  0
 26 63  1  0  0  0  0
 27 89  1  0  0  0  0
 28 90  1  0  0  0  0
 29 31  2  0  0  0  0
 29 89  1  0  0  0  0
 30 91  1  0  0  0  0
 31 92  1  0  0  0  0
 32 74  2  0  0  0  0
 33 75  1  0  0  0  0
 33 78  1  0  0  0  0
 34 79  1  0  0  0  0
 34 84  2  0  0  0  0
 35 49  1  0  0  0  0
 35 80  1  0  0  0  0
 35 85  2  0  0  0  0
 36 69  1  0  0  0  0
 36 76  1  0  0  0  0
 36 86  2  0  0  0  0
 37 70  1  0  0  0  0
 37 81  1  0  0  0  0
 37 87  2  0  0  0  0
 38 77  1  0  0  0  0
 38 82  1  0  0  0  0
 38 88  2  0  0  0  0
 39 42  1  0  0  0  0
 40 49  1  0  0  0  0
 41 76  1  0  0  0  0
 42 44  1  0  0  0  0
 43 45  1  0  0  0  0
 43 46  1  0  0  0  0
 44 48  1  0  0  0  0
 45 50  1  0  0  0  0
 46 77  1  0  0  0  0
 47 50  1  0  0  0  0
 47 77  1  0  0  0  0
 48 80  1  0  0  0  0
 49 76  1  0  0  0  0
 50 75  1  0  0  0  0
 51 68  1  0  0  0  0
 52 70  1  0  0  0  0
 53 71  1  0  0  0  0
 54 71  1  0  0  0  0
 55 71  1  0  0  0  0
 56 72  1  0  0  0  0
 57 72  1  0  0  0  0
 58 72  1  0  0  0  0
 59 73  1  0  0  0  0
 60 73  1  0  0  0  0
 61 83  1  0  0  0  0
 62 64  1  0  0  0  0
 63 73  1  0  0  0  0
 64 71  1  0  0  0  0
 65 67  1  0  0  0  0
 65 68  1  0  0  0  0
 66 73  1  0  0  0  0
 66 82  1  0  0  0  0
 67 90  1  0  0  0  0
 69 72  1  0  0  0  0
 69 81  1  0  0  0  0
 70 83  1  0  0  0  0
 74 75  1  0  0  0  0
M  CHG  1  83   1
M  ISO  4  38 100  67 101  82 100  90 101
M  END
> <Batch ID>
0091

> <Smiles>
CNC(C)C(=O)NC(C(=O)N1Cc2cc([101O:1][101CH2:1]CC(C)c3ccc(CCC(C)(C)C)c(CC(C)(C)C[100NH:0][100C:0](=O)N4CCCC(n5nc(-c6ccc(Oc7ccc(F)cc7F)cc6)c(C(N)=O)c5N)C4)c3)ccc2CC1C(=O)NC1CCCc2ccccc21)C(C)(C)C

> <Shape>
0.222

> <Color>
0.197

> <Negative vol penalty>
0.000

$$$$

  -OEChem-04052319113D

 83 91  0     1  0  0  0  0  0999 V2000
  -29.8932  -10.6303   16.3945 C   0  0  0  0  0  0  0  0  0  0  0  0
  -29.2866  -11.7499   15.8343 C   0  0  0  0  0  0  0  0  0  0  0  0
  -25.7997  -30.0409   20.8277 C   0  0  0  0  0  0  0  0  0  0  0  0
  -23.4060  -29.7366   20.9488 C   0  0  0  0  0  0  0  0  0  0  0  0
  -30.0415  -10.5381   17.7778 C   0  0  0  0  0  0  0  0  0  0  0  0
  -28.8268  -12.7775   16.6571 C   0  0  0  0  0  0  0  0  0  0  0  0
  -30.0751  -17.3663   14.9163 C   0  0  0  0  0  0  0  0  0  0  0  0
  -25.6792  -31.2568   21.5005 C   0  0  0  0  0  0  0  0  0  0  0  0
  -23.2855  -30.9525   21.6217 C   0  0  0  0  0  0  0  0  0  0  0  0
  -29.3145  -17.8772   13.8655 C   0  0  0  0  0  0  0  0  0  0  0  0
  -25.2543  -32.3099   24.6853 C   0  0  0  0  0  0  0  0  0  0  0  0
  -26.1534  -32.5705   25.7193 C   0  0  0  0  0  0  0  0  0  0  0  0
  -22.7811  -17.7322   13.0359 C   0  0  0  0  0  0  0  0  0  0  0  0
  -28.0627  -19.2185   15.4318 C   0  0  0  0  0  0  0  0  0  0  0  0
  -26.9398  -34.5283   24.5422 C   0  0  0  0  0  0  0  0  0  0  0  0
  -22.1228  -16.9839   13.9985 C   0  0  0  0  0  0  0  0  0  0  0  0
  -24.6631  -29.2808   20.5518 C   0  0  0  0  0  0  0  0  0  0  0  0
  -24.9774  -26.7523   20.4271 C   0  0  0  0  0  0  0  0  0  0  0  0
  -29.5920  -11.5694   18.6174 C   0  0  0  0  0  0  0  0  0  0  0  0
  -29.8275  -17.7701   16.2362 C   0  0  0  0  0  0  0  0  0  0  0  0
  -28.9680  -12.6984   18.0530 C   0  0  0  0  0  0  0  0  0  0  0  0
  -28.8233  -18.7131   16.4972 C   0  0  0  0  0  0  0  0  0  0  0  0
  -23.1799  -19.0207   13.3735 C   0  0  0  0  0  0  0  0  0  0  0  0
  -22.9119  -19.5146   14.6454 C   0  0  0  0  0  0  0  0  0  0  0  0
  -24.4221  -31.7126   21.8975 C   0  0  0  0  0  0  0  0  0  0  0  0
  -28.3062  -18.8013   14.1235 C   0  0  0  0  0  0  0  0  0  0  0  0
  -25.1979  -33.1585   23.5797 C   0  0  0  0  0  0  0  0  0  0  0  0
  -26.9962  -33.6797   25.6478 C   0  0  0  0  0  0  0  0  0  0  0  0
  -26.0406  -34.2677   23.5081 C   0  0  0  0  0  0  0  0  0  0  0  0
  -24.7869  -28.0250   19.8563 C   0  0  0  0  0  0  0  0  0  0  0  0
  -22.2476  -18.6866   15.5358 C   0  0  0  0  0  0  0  0  0  0  0  0
  -25.0307  -25.8985   19.3525 C   0  0  0  0  0  0  0  0  0  0  0  0
  -25.0955  -26.3755   21.8054 C   0  0  0  0  0  0  0  0  0  0  0  0
  -28.9145  -16.2947   18.8996 C   0  0  0  0  0  0  0  0  0  0  0  0
  -29.4716  -19.1977   20.2353 C   0  0  0  0  0  0  0  0  0  0  0  0
  -29.7226  -22.5763   19.8237 C   0  0  0  0  0  0  0  0  0  0  0  0
  -23.0795  -24.1489   14.4253 C   0  0  0  0  0  0  0  0  0  0  0  0
  -29.7317  -11.4034   20.1099 C   0  0  0  0  0  0  0  0  0  0  0  0
  -30.6746  -17.2297   17.3556 C   0  0  0  0  0  0  0  0  0  0  0  0
  -28.5311  -19.1945   17.8942 C   0  0  0  0  0  0  0  0  0  0  0  0
  -29.5550  -12.7055   20.8868 C   0  0  0  0  0  0  0  0  0  0  0  0
  -25.3884  -26.8590   14.3991 C   0  0  0  0  0  0  0  0  0  0  0  0
  -28.3281  -13.4623   20.3881 C   0  0  0  0  0  0  0  0  0  0  0  0
  -25.4485  -27.3026   15.8618 C   0  0  0  0  0  0  0  0  0  0  0  0
  -23.9822  -26.4164   14.0008 C   0  0  0  0  0  0  0  0  0  0  0  0
  -23.4482  -25.8278   16.3337 C   0  0  0  0  0  0  0  0  0  0  0  0
  -28.4787  -13.8451   18.9108 C   0  0  1  0  0  0  0  0  0  0  0  0
  -29.9947  -17.3232   18.7181 C   0  0  1  0  0  0  0  0  0  0  0  0
  -24.8585  -26.2304   16.7976 C   0  0  2  0  0  0  0  0  0  0  0  0
  -21.9321  -19.1623   16.9163 C   0  0  0  0  0  0  0  0  0  0  0  0
  -30.1506  -24.6905   21.1059 C   0  0  0  0  0  0  0  0  0  0  0  0
  -26.6421  -19.0788   21.3711 C   0  0  0  0  0  0  0  0  0  0  0  0
  -26.7879  -21.5402   21.8056 C   0  0  0  0  0  0  0  0  0  0  0  0
  -28.3622  -19.9783   22.9479 C   0  0  0  0  0  0  0  0  0  0  0  0
  -32.1368  -23.1932   18.2268 C   0  0  0  0  0  0  0  0  0  0  0  0
  -23.8985  -19.8590   12.3467 C   0  0  0  0  0  0  0  0  0  0  0  0
  -23.3280  -20.8930   15.0355 C   0  0  0  0  0  0  0  0  0  0  0  0
  -25.3650  -19.4687   12.1500 C   0  0  0  0  0  0  0  0  0  0  0  0
  -22.1814  -21.9106   15.0104 C   0  0  0  0  0  0  0  0  0  0  0  0
  -26.2173  -19.6755   13.3967 C   0  0  0  0  0  0  0  0  0  1  0  0
  -28.6470  -20.4387   20.4783 C   0  0  1  0  0  0  0  0  0  0  0  0
  -30.7720  -23.5719   20.2841 C   0  0  2  0  0  0  0  0  0  0  0  0
  -27.6138  -20.2487   21.6245 C   0  0  0  0  0  0  0  0  0  0  0  0
  -21.8448  -17.4295   15.2442 N   0  0  0  0  0  0  0  0  0  0  0  0
  -24.7236  -27.9878   18.5226 N   0  0  0  0  0  0  0  0  0  0  0  0
  -24.8753  -26.6813   18.2464 N   0  0  0  0  0  0  0  0  0  0  0  0
  -29.3824  -18.6320   18.9556 N   0  0  0  0  0  0  0  0  0  0  0  0
  -23.4815  -25.3978   14.9270 N   0  0  0  0  0  0  0  0  0  0  0  0
  -25.1949  -24.5621   19.2552 N   0  0  0  0  0  0  0  0  0  0  0  0
  -25.0181  -27.3785   22.7812 N   0  0  0  0  0  0  0  0  0  0  0  0
  -29.3525  -14.9903   18.7720 N   0  0  0  0  0  0  0  0  0  0  0  0
  -29.5973  -21.5225   20.7041 N   0  0  0  0  0  0  0  0  0  0  0  0
  -22.6238  -23.2390   15.3714 N   0  0  0  0  0  0  0  0  0  0  0  0
  -31.4612  -24.1782   19.1101 N   0  3  0  0  0  0  0  0  0  0  0  0
  -25.2810  -25.1868   22.1602 O   0  0  0  0  0  0  0  0  0  0  0  0
  -27.7688  -16.6576   19.1391 O   0  0  0  0  0  0  0  0  0  0  0  0
  -30.1746  -18.7510   21.1452 O   0  0  0  0  0  0  0  0  0  0  0  0
  -29.0759  -22.7209   18.7886 O   0  0  0  0  0  0  0  0  0  0  0  0
  -23.1284  -23.8639   13.2239 O   0  0  0  0  0  0  0  0  0  0  0  0
  -24.3042  -32.8989   22.5543 O   0  0  0  0  0  0  0  0  0  0  0  0
  -27.5619  -19.3011   13.0997 O   0  0  0  0  0  0  0  0  0  1  0  0
  -27.8585  -33.9307   26.6416 F   0  0  0  0  0  0  0  0  0  0  0  0
  -25.9902  -35.0872   22.4491 F   0  0  0  0  0  0  0  0  0  0  0  0
  1  2  1  0  0  0  0
  1  5  2  0  0  0  0
  2  6  2  0  0  0  0
  3  8  2  0  0  0  0
  3 17  1  0  0  0  0
  4  9  1  0  0  0  0
  4 17  2  0  0  0  0
  5 19  1  0  0  0  0
  6 21  1  0  0  0  0
  7 10  2  0  0  0  0
  7 20  1  0  0  0  0
  8 25  1  0  0  0  0
  9 25  2  0  0  0  0
 10 26  1  0  0  0  0
 11 12  2  0  0  0  0
 11 27  1  0  0  0  0
 12 28  1  0  0  0  0
 13 16  2  0  0  0  0
 13 23  1  0  0  0  0
 14 22  1  0  0  0  0
 14 26  2  0  0  0  0
 15 28  2  0  0  0  0
 15 29  1  0  0  0  0
 16 64  1  0  0  0  0
 17 30  1  0  0  0  0
 18 30  1  0  0  0  0
 18 32  2  0  0  0  0
 18 33  1  0  0  0  0
 19 21  2  0  0  0  0
 19 38  1  0  0  0  0
 20 22  2  0  0  0  0
 20 39  1  0  0  0  0
 21 47  1  0  0  0  0
 22 40  1  0  0  0  0
 23 24  2  0  0  0  0
 23 56  1  0  0  0  0
 24 31  1  0  0  0  0
 24 57  1  0  0  0  0
 25 80  1  0  0  0  0
 26 81  1  0  0  0  0
 27 29  2  0  0  0  0
 27 80  1  0  0  0  0
 28 82  1  0  0  0  0
 29 83  1  0  0  0  0
 30 65  2  0  0  0  0
 31 50  1  0  0  0  0
 31 64  2  0  0  0  0
 32 66  1  0  0  0  0
 32 69  1  0  0  0  0
 33 70  1  0  0  0  0
 33 75  2  0  0  0  0
 34 48  1  0  0  0  0
 34 71  1  0  0  0  0
 34 76  2  0  0  0  0
 35 61  1  0  0  0  0
 35 67  1  0  0  0  0
 35 77  2  0  0  0  0
 36 62  1  0  0  0  0
 36 72  1  0  0  0  0
 36 78  2  0  0  0  0
 37 68  1  0  0  0  0
 37 73  1  0  0  0  0
 37 79  2  0  0  0  0
 38 41  1  0  0  0  0
 39 48  1  0  0  0  0
 40 67  1  0  0  0  0
 41 43  1  0  0  0  0
 42 44  1  0  0  0  0
 42 45  1  0  0  0  0
 43 47  1  0  0  0  0
 44 49  1  0  0  0  0
 45 68  1  0  0  0  0
 46 49  1  0  0  0  0
 46 68  1  0  0  0  0
 47 71  1  0  0  0  0
 48 67  1  0  0  0  0
 49 66  1  0  0  0  0
 51 62  1  0  0  0  0
 52 63  1  0  0  0  0
 53 63  1  0  0  0  0
 54 63  1  0  0  0  0
 55 74  1  0  0  0  0
 56 58  1  0  0  0  0
 57 59  1  0  0  0  0
 58 60  1  0  0  0  0
 59 73  1  0  0  0  0
 60 81  1  0  0  0  0
 61 63  1  0  0  0  0
 61 72  1  0  0  0  0
 62 74  1  0  0  0  0
 65 66  1  0  0  0  0
M  CHG  1  74   1
M  ISO  4  37 100  60 101  73 100  81 101
M  END
> <Batch ID>
0091

> <Smiles>
CNC(C)C(=O)NC(C(=O)N1Cc2cc([101O:1][101CH2:1]CCc3ccnc(C)c3CC[100NH:0][100C:0](=O)N3CCCC(n4nc(-c5ccc(Oc6ccc(F)cc6F)cc5)c(C(N)=O)c4N)C3)ccc2CC1C(=O)NC1CCCc2ccccc21)C(C)(C)C

> <Shape>
0.217

> <Color>
0.055

> <Negative vol penalty>
0.000

$$$$

  -OEChem-04052319113D

 87 95  0     1  0  0  0  0  0999 V2000
  -18.1673  -25.8643   25.6754 C   0  0  0  0  0  0  0  0  0  0  0  0
  -19.4918  -25.4501   25.7730 C   0  0  0  0  0  0  0  0  0  0  0  0
  -27.2199  -14.8425   22.1582 C   0  0  0  0  0  0  0  0  0  0  0  0
  -26.0424  -15.8048   20.2808 C   0  0  0  0  0  0  0  0  0  0  0  0
  -17.7854  -26.7414   24.6612 C   0  0  0  0  0  0  0  0  0  0  0  0
  -20.4350  -25.9121   24.8557 C   0  0  0  0  0  0  0  0  0  0  0  0
  -27.3680  -27.6487   24.3721 C   0  0  0  0  0  0  0  0  0  0  0  0
  -26.7265  -13.5820   21.8216 C   0  0  0  0  0  0  0  0  0  0  0  0
  -25.5491  -14.5443   19.9442 C   0  0  0  0  0  0  0  0  0  0  0  0
  -28.4962  -27.3727   23.6009 C   0  0  0  0  0  0  0  0  0  0  0  0
  -25.4860  -10.1672   21.6666 C   0  0  0  0  0  0  0  0  0  0  0  0
  -24.9856   -9.3690   22.6952 C   0  0  0  0  0  0  0  0  0  0  0  0
  -27.7376  -28.9475   21.9385 C   0  0  0  0  0  0  0  0  0  0  0  0
  -27.6569  -25.5113   19.6635 C   0  0  0  0  0  0  0  0  0  0  0  0
  -23.3378  -11.0604   23.2062 C   0  0  0  0  0  0  0  0  0  0  0  0
  -26.8778  -15.9539   21.3879 C   0  0  0  0  0  0  0  0  0  0  0  0
  -28.5831  -17.8486   21.2885 C   0  0  0  0  0  0  0  0  0  0  0  0
  -18.7263  -27.2219   23.7368 C   0  0  0  0  0  0  0  0  0  0  0  0
  -26.4090  -28.5696   23.9264 C   0  0  0  0  0  0  0  0  0  0  0  0
  -20.0650  -26.7954   23.8274 C   0  0  0  0  0  0  0  0  0  0  0  0
  -26.5994  -29.2353   22.7071 C   0  0  0  0  0  0  0  0  0  0  0  0
  -28.9346  -25.0935   19.3082 C   0  0  0  0  0  0  0  0  0  0  0  0
  -29.1724  -23.7490   19.0454 C   0  0  0  0  0  0  0  0  0  0  0  0
  -25.8911  -13.4329   20.7146 C   0  0  0  0  0  0  0  0  0  0  0  0
  -28.6797  -28.0200   22.3825 C   0  0  0  0  0  0  0  0  0  0  0  0
  -24.9123  -11.4120   21.4077 C   0  0  0  0  0  0  0  0  0  0  0  0
  -23.9115   -9.8156   23.4650 C   0  0  0  0  0  0  0  0  0  0  0  0
  -23.8382  -11.8586   22.1775 C   0  0  0  0  0  0  0  0  0  0  0  0
  -27.3867  -17.2563   21.7354 C   0  0  0  0  0  0  0  0  0  0  0  0
  -26.6593  -24.5529   19.7413 C   0  0  0  0  0  0  0  0  0  0  0  0
  -28.1071  -22.8694   19.1511 C   0  0  0  0  0  0  0  0  0  0  0  0
  -28.6079  -19.0774   21.9017 C   0  0  0  0  0  0  0  0  0  0  0  0
  -29.5825  -17.3341   20.3985 C   0  0  0  0  0  0  0  0  0  0  0  0
  -23.3242  -28.4100   23.1767 C   0  0  0  0  0  0  0  0  0  0  0  0
  -23.6230  -31.6289   22.9082 C   0  0  0  0  0  0  0  0  0  0  0  0
  -25.6594  -34.3150   22.3744 C   0  0  0  0  0  0  0  0  0  0  0  0
  -25.0362  -23.3318   23.5317 C   0  0  0  0  0  0  0  0  0  0  0  0
  -18.2567  -28.1315   22.6292 C   0  0  0  0  0  0  0  0  0  0  0  0
  -25.2110  -28.8760   24.7826 C   0  0  0  0  0  0  0  0  0  0  0  0
  -25.6096  -30.2476   22.1933 C   0  0  0  0  0  0  0  0  0  0  0  0
  -19.3921  -28.8686   21.9237 C   0  0  0  0  0  0  0  0  0  0  0  0
  -26.4122  -21.0327   25.8764 C   0  0  0  0  0  0  0  0  0  0  0  0
  -20.5283  -27.9064   21.5920 C   0  0  0  0  0  0  0  0  0  0  0  0
  -26.9150  -19.8796   25.0060 C   0  0  0  0  0  0  0  0  0  0  0  0
  -25.1173  -21.6295   25.3295 C   0  0  0  0  0  0  0  0  0  0  0  0
  -25.6787  -20.8931   23.0456 C   0  0  0  0  0  0  0  0  0  0  0  0
  -21.1223  -27.2939   22.8662 C   0  0  1  0  0  0  0  0  0  0  0  0
  -24.0411  -29.4506   23.9897 C   0  0  1  0  0  0  0  0  0  0  0  0
  -27.0123  -20.2954   23.5259 C   0  0  2  0  0  0  0  0  0  0  0  0
  -30.5323  -23.2723   18.6597 C   0  0  0  0  0  0  0  0  0  0  0  0
  -25.6094  -36.8160   22.1748 C   0  0  0  0  0  0  0  0  0  0  0  0
  -28.2856  -19.5021   17.1923 C   0  0  0  0  0  0  0  0  0  0  0  0
  -26.6615  -21.3917   16.9570 C   0  0  0  0  0  0  0  0  0  0  0  0
  -22.4422  -31.3791   20.1059 C   0  0  0  0  0  0  0  0  0  0  0  0
  -23.2860  -33.6857   19.6203 C   0  0  0  0  0  0  0  0  0  0  0  0
  -21.5990  -33.3306   21.4232 C   0  0  0  0  0  0  0  0  0  0  0  0
  -27.4665  -34.6523   24.6938 C   0  0  0  0  0  0  0  0  0  0  0  0
  -30.0409  -26.1141   19.2182 C   0  0  0  0  0  0  0  0  0  0  0  0
  -25.2756  -24.9651   20.1184 C   0  0  0  0  0  0  0  0  0  0  0  0
  -28.3003  -21.4132   18.8794 C   0  0  0  0  0  0  0  0  0  0  0  0
  -31.0026  -26.0865   20.4081 C   0  0  0  0  0  0  0  0  0  0  0  0
  -25.0134  -24.9240   21.6282 C   0  0  0  0  0  0  0  0  0  0  0  0
  -30.3357  -26.4419   21.7319 C   0  0  0  0  0  0  0  0  0  1  0  0
  -23.9846  -32.5796   21.7927 C   0  0  1  0  0  0  0  0  0  0  0  0
  -25.8010  -35.6340   23.1123 C   0  0  2  0  0  0  0  0  0  0  0  0
  -28.0728  -21.0031   17.4046 C   0  0  0  0  0  0  0  0  0  0  0  0
  -22.8458  -32.7233   20.7440 C   0  0  0  0  0  0  0  0  0  0  0  0
  -26.7012  -18.0439   22.5684 N   0  0  0  0  0  0  0  0  0  0  0  0
  -26.8522  -23.2380   19.4934 N   0  0  0  0  0  0  0  0  0  0  0  0
  -27.4694  -19.1436   22.6498 N   0  0  0  0  0  0  0  0  0  0  0  0
  -24.4511  -30.5082   23.0637 N   0  0  0  0  0  0  0  0  0  0  0  0
  -25.2771  -22.0043   23.9224 N   0  0  0  0  0  0  0  0  0  0  0  0
  -29.4923  -20.0967   21.8686 N   0  0  0  0  0  0  0  0  0  0  0  0
  -29.4004  -16.0540   19.8576 N   0  0  0  0  0  0  0  0  0  0  0  0
  -21.9969  -28.2419   23.5224 N   0  0  0  0  0  0  0  0  0  0  0  0
  -24.3689  -33.8329   22.4331 N   0  0  0  0  0  0  0  0  0  0  0  0
  -25.2168  -23.6035   22.1811 N   0  0  0  0  0  0  0  0  0  0  0  0
  -27.1529  -35.7391   23.7307 N   0  3  0  0  0  0  0  0  0  0  0  0
  -30.6148  -17.9834   20.1049 O   0  0  0  0  0  0  0  0  0  0  0  0
  -23.9300  -27.8055   22.2996 O   0  0  0  0  0  0  0  0  0  0  0  0
  -22.6462  -31.8753   23.6200 O   0  0  0  0  0  0  0  0  0  0  0  0
  -26.5987  -33.7689   21.7999 O   0  0  0  0  0  0  0  0  0  0  0  0
  -24.6911  -24.2110   24.3285 O   0  0  0  0  0  0  0  0  0  0  0  0
  -25.4096  -12.2030   20.3856 O   0  0  0  0  0  0  0  0  0  0  0  0
  -29.7797  -27.7520   21.6275 O   0  0  0  0  0  0  0  0  0  1  0  0
  -23.4302   -9.0483   24.4518 F   0  0  0  0  0  0  0  0  0  0  0  0
  -23.2821  -13.0531   21.9328 F   0  0  0  0  0  0  0  0  0  0  0  0
  1  2  1  0  0  0  0
  1  5  2  0  0  0  0
  2  6  2  0  0  0  0
  3  8  2  0  0  0  0
  3 16  1  0  0  0  0
  4  9  1  0  0  0  0
  4 16  2  0  0  0  0
  5 18  1  0  0  0  0
  6 20  1  0  0  0  0
  7 10  2  0  0  0  0
  7 19  1  0  0  0  0
  8 24  1  0  0  0  0
  9 24  2  0  0  0  0
 10 25  1  0  0  0  0
 11 12  2  0  0  0  0
 11 26  1  0  0  0  0
 12 27  1  0  0  0  0
 13 21  1  0  0  0  0
 13 25  2  0  0  0  0
 14 22  1  0  0  0  0
 14 30  2  0  0  0  0
 15 27  2  0  0  0  0
 15 28  1  0  0  0  0
 16 29  1  0  0  0  0
 17 29  1  0  0  0  0
 17 32  2  0  0  0  0
 17 33  1  0  0  0  0
 18 20  2  0  0  0  0
 18 38  1  0  0  0  0
 19 21  2  0  0  0  0
 19 39  1  0  0  0  0
 20 47  1  0  0  0  0
 21 40  1  0  0  0  0
 22 23  2  0  0  0  0
 22 58  1  0  0  0  0
 23 31  1  0  0  0  0
 23 50  1  0  0  0  0
 24 84  1  0  0  0  0
 25 85  1  0  0  0  0
 26 28  2  0  0  0  0
 26 84  1  0  0  0  0
 27 86  1  0  0  0  0
 28 87  1  0  0  0  0
 29 68  2  0  0  0  0
 30 59  1  0  0  0  0
 30 69  1  0  0  0  0
 31 60  1  0  0  0  0
 31 69  2  0  0  0  0
 32 70  1  0  0  0  0
 32 73  1  0  0  0  0
 33 74  1  0  0  0  0
 33 79  2  0  0  0  0
 34 48  1  0  0  0  0
 34 75  1  0  0  0  0
 34 80  2  0  0  0  0
 35 64  1  0  0  0  0
 35 71  1  0  0  0  0
 35 81  2  0  0  0  0
 36 65  1  0  0  0  0
 36 76  1  0  0  0  0
 36 82  2  0  0  0  0
 37 72  1  0  0  0  0
 37 77  1  0  0  0  0
 37 83  2  0  0  0  0
 38 41  1  0  0  0  0
 39 48  1  0  0  0  0
 40 71  1  0  0  0  0
 41 43  1  0  0  0  0
 42 44  1  0  0  0  0
 42 45  1  0  0  0  0
 43 47  1  0  0  0  0
 44 49  1  0  0  0  0
 45 72  1  0  0  0  0
 46 49  1  0  0  0  0
 46 72  1  0  0  0  0
 47 75  1  0  0  0  0
 48 71  1  0  0  0  0
 49 70  1  0  0  0  0
 51 65  1  0  0  0  0
 52 66  1  0  0  0  0
 53 66  1  0  0  0  0
 54 67  1  0  0  0  0
 55 67  1  0  0  0  0
 56 67  1  0  0  0  0
 57 78  1  0  0  0  0
 58 61  1  0  0  0  0
 59 62  1  0  0  0  0
 60 66  1  0  0  0  0
 61 63  1  0  0  0  0
 62 77  1  0  0  0  0
 63 85  1  0  0  0  0
 64 67  1  0  0  0  0
 64 76  1  0  0  0  0
 65 78  1  0  0  0  0
 68 70  1  0  0  0  0
M  CHG  1  78   1
M  ISO  4  37 100  63 101  77 100  85 101
M  END
> <Batch ID>
0091

> <Smiles>
CNC(C)C(=O)NC(C(=O)N1Cc2cc([101O:1][101CH2:1]CCc3cc(CC[100NH:0][100C:0](=O)N4CCCC(n5nc(-c6ccc(Oc7ccc(F)cc7F)cc6)c(C(N)=O)c5N)C4)nc(CC(C)C)c3C)ccc2CC1C(=O)NC1CCCc2ccccc21)C(C)(C)C

> <Shape>
0.241

> <Color>
0.060

> <Negative vol penalty>
0.000

$$$$

  -OEChem-04052319113D

 86 94  0     1  0  0  0  0  0999 V2000
  -17.1658  -24.5978   23.7176 C   0  0  0  0  0  0  0  0  0  0  0  0
  -18.2763  -23.7604   23.7445 C   0  0  0  0  0  0  0  0  0  0  0  0
  -24.0097  -10.3599   23.2016 C   0  0  0  0  0  0  0  0  0  0  0  0
  -24.1646  -12.5329   24.2461 C   0  0  0  0  0  0  0  0  0  0  0  0
  -17.1932  -25.7659   22.9570 C   0  0  0  0  0  0  0  0  0  0  0  0
  -19.4147  -24.0901   23.0097 C   0  0  0  0  0  0  0  0  0  0  0  0
  -26.5520  -23.5117   23.2126 C   0  0  0  0  0  0  0  0  0  0  0  0
  -23.5194   -9.8227   24.3918 C   0  0  0  0  0  0  0  0  0  0  0  0
  -23.6743  -11.9958   25.4364 C   0  0  0  0  0  0  0  0  0  0  0  0
  -27.6195  -23.0714   22.4314 C   0  0  0  0  0  0  0  0  0  0  0  0
  -20.5784   -9.7298   26.0576 C   0  0  0  0  0  0  0  0  0  0  0  0
  -19.4776   -8.8769   25.9788 C   0  0  0  0  0  0  0  0  0  0  0  0
  -27.5818  -25.1551   21.2164 C   0  0  0  0  0  0  0  0  0  0  0  0
  -29.5904  -20.6419   19.3198 C   0  0  0  0  0  0  0  0  0  0  0  0
  -20.7824   -7.1014   26.9700 C   0  0  0  0  0  0  0  0  0  0  0  0
  -24.3324  -11.7150   23.1287 C   0  0  0  0  0  0  0  0  0  0  0  0
  -24.0906  -12.8300   20.8470 C   0  0  0  0  0  0  0  0  0  0  0  0
  -18.3359  -26.1151   22.2202 C   0  0  0  0  0  0  0  0  0  0  0  0
  -25.9833  -24.7747   22.9940 C   0  0  0  0  0  0  0  0  0  0  0  0
  -19.4569  -25.2634   22.2374 C   0  0  0  0  0  0  0  0  0  0  0  0
  -26.5088  -25.6100   21.9979 C   0  0  0  0  0  0  0  0  0  0  0  0
  -28.9237  -19.4244   19.2392 C   0  0  0  0  0  0  0  0  0  0  0  0
  -27.9714  -19.2241   18.2460 C   0  0  0  0  0  0  0  0  0  0  0  0
  -23.3517  -10.6406   25.5092 C   0  0  0  0  0  0  0  0  0  0  0  0
  -28.1327  -23.8920   21.4312 C   0  0  0  0  0  0  0  0  0  0  0  0
  -21.7813   -9.2686   26.5925 C   0  0  0  0  0  0  0  0  0  0  0  0
  -19.5795   -7.5627   26.4351 C   0  0  0  0  0  0  0  0  0  0  0  0
  -21.8832   -7.9544   27.0487 C   0  0  0  0  0  0  0  0  0  0  0  0
  -24.8394  -12.2704   21.8997 C   0  0  0  0  0  0  0  0  0  0  0  0
  -29.2710  -21.6190   18.3908 C   0  0  0  0  0  0  0  0  0  0  0  0
  -27.7244  -20.2647   17.3652 C   0  0  0  0  0  0  0  0  0  0  0  0
  -25.0310  -13.2092   19.9206 C   0  0  0  0  0  0  0  0  0  0  0  0
  -22.6719  -12.9925   20.7183 C   0  0  0  0  0  0  0  0  0  0  0  0
  -23.1080  -25.8216   22.1334 C   0  0  0  0  0  0  0  0  0  0  0  0
  -24.4184  -28.7291   22.7261 C   0  0  0  0  0  0  0  0  0  0  0  0
  -27.2341  -30.6412   22.9772 C   0  0  0  0  0  0  0  0  0  0  0  0
  -30.8275  -14.6475   20.3480 C   0  0  0  0  0  0  0  0  0  0  0  0
  -18.3013  -27.3639   21.3753 C   0  0  0  0  0  0  0  0  0  0  0  0
  -24.8495  -25.2456   23.8630 C   0  0  0  0  0  0  0  0  0  0  0  0
  -25.9471  -26.9828   21.7365 C   0  0  0  0  0  0  0  0  0  0  0  0
  -19.6822  -27.8316   20.9228 C   0  0  0  0  0  0  0  0  0  0  0  0
  -29.4026  -12.0742   18.3420 C   0  0  0  0  0  0  0  0  0  0  0  0
  -20.4943  -26.6571   20.3862 C   0  0  0  0  0  0  0  0  0  0  0  0
  -28.0040  -11.8831   18.9313 C   0  0  0  0  0  0  0  0  0  0  0  0
  -30.4340  -12.3826   19.4250 C   0  0  0  0  0  0  0  0  0  0  0  0
  -28.6925  -13.3272   20.8908 C   0  0  0  0  0  0  0  0  0  0  0  0
  -20.7193  -25.5994   21.4735 C   0  0  1  0  0  0  0  0  0  0  0  0
  -24.0141  -26.3438   23.2122 C   0  0  1  0  0  0  0  0  0  0  0  0
  -27.6078  -13.0693   19.8310 C   0  0  2  0  0  0  0  0  0  0  0  0
  -26.7136  -20.1086   16.2764 C   0  0  0  0  0  0  0  0  0  0  0  0
  -26.3928  -17.6201   19.3813 C   0  0  0  0  0  0  0  0  0  0  0  0
  -28.1848  -16.7456   17.8390 C   0  0  0  0  0  0  0  0  0  0  0  0
  -27.9849  -32.9910   23.4377 C   0  0  0  0  0  0  0  0  0  0  0  0
  -23.5471  -29.5546   19.9208 C   0  0  0  0  0  0  0  0  0  0  0  0
  -25.1141  -31.5005   20.0822 C   0  0  0  0  0  0  0  0  0  0  0  0
  -23.2054  -31.3029   21.6761 C   0  0  0  0  0  0  0  0  0  0  0  0
  -28.7788  -29.8044   25.3589 C   0  0  0  0  0  0  0  0  0  0  0  0
  -29.2454  -18.3538   20.2288 C   0  0  0  0  0  0  0  0  0  0  0  0
  -29.9755  -22.9528   18.4468 C   0  0  0  0  0  0  0  0  0  0  0  0
  -30.7363  -17.9690   20.2880 C   0  0  0  0  0  0  0  0  0  0  0  0
  -31.0715  -16.9107   21.3368 C   0  0  0  0  0  0  0  0  0  0  0  0
  -29.2443  -23.9581   19.3298 C   0  0  0  0  0  0  0  0  0  1  0  0
  -27.2422  -17.9276   18.1337 C   0  0  0  0  0  0  0  0  0  0  0  0
  -25.1821  -29.7440   21.9101 C   0  0  1  0  0  0  0  0  0  0  0  0
  -27.6922  -31.6250   24.0387 C   0  0  2  0  0  0  0  0  0  0  0  0
  -24.2717  -30.4989   20.9007 C   0  0  0  0  0  0  0  0  0  0  0  0
  -26.1541  -12.2902   21.6647 N   0  0  0  0  0  0  0  0  0  0  0  0
  -28.3519  -21.4613   17.4121 N   0  0  0  0  0  0  0  0  0  0  0  0
  -26.2388  -12.8668   20.4537 N   0  0  0  0  0  0  0  0  0  0  0  0
  -24.8349  -27.3955   22.6084 N   0  0  0  0  0  0  0  0  0  0  0  0
  -29.9990  -13.5182   20.2418 N   0  0  0  0  0  0  0  0  0  0  0  0
  -24.9343  -13.7988   18.7100 N   0  0  0  0  0  0  0  0  0  0  0  0
  -21.8509  -12.5478   21.7635 N   0  0  0  0  0  0  0  0  0  0  0  0
  -21.7636  -26.0224   22.3817 N   0  0  0  0  0  0  0  0  0  0  0  0
  -25.8599  -30.6111   22.8677 N   0  0  0  0  0  0  0  0  0  0  0  0
  -30.3371  -15.6814   21.1363 N   0  0  0  0  0  0  0  0  0  0  0  0
  -28.9299  -31.1295   24.7046 N   0  3  0  0  0  0  0  0  0  0  0  0
  -22.1468  -13.5017   19.6992 O   0  0  0  0  0  0  0  0  0  0  0  0
  -23.5928  -25.2780   21.1478 O   0  0  0  0  0  0  0  0  0  0  0  0
  -23.4914  -29.1067   23.4469 O   0  0  0  0  0  0  0  0  0  0  0  0
  -28.0171  -29.9694   22.3093 O   0  0  0  0  0  0  0  0  0  0  0  0
  -31.9207  -14.7306   19.7779 O   0  0  0  0  0  0  0  0  0  0  0  0
  -22.8731  -10.1168   26.6707 O   0  0  0  0  0  0  0  0  0  0  0  0
  -29.1743  -23.4645   20.6668 O   0  0  0  0  0  0  0  0  0  1  0  0
  -18.5219   -6.7441   26.3608 F   0  0  0  0  0  0  0  0  0  0  0  0
  -23.0358   -7.5059   27.5647 F   0  0  0  0  0  0  0  0  0  0  0  0
  1  2  1  0  0  0  0
  1  5  2  0  0  0  0
  2  6  2  0  0  0  0
  3  8  2  0  0  0  0
  3 16  1  0  0  0  0
  4  9  1  0  0  0  0
  4 16  2  0  0  0  0
  5 18  1  0  0  0  0
  6 20  1  0  0  0  0
  7 10  2  0  0  0  0
  7 19  1  0  0  0  0
  8 24  1  0  0  0  0
  9 24  2  0  0  0  0
 10 25  1  0  0  0  0
 11 12  2  0  0  0  0
 11 26  1  0  0  0  0
 12 27  1  0  0  0  0
 13 21  1  0  0  0  0
 13 25  2  0  0  0  0
 14 22  2  0  0  0  0
 14 30  1  0  0  0  0
 15 27  2  0  0  0  0
 15 28  1  0  0  0  0
 16 29  1  0  0  0  0
 17 29  1  0  0  0  0
 17 32  2  0  0  0  0
 17 33  1  0  0  0  0
 18 20  2  0  0  0  0
 18 38  1  0  0  0  0
 19 21  2  0  0  0  0
 19 39  1  0  0  0  0
 20 47  1  0  0  0  0
 21 40  1  0  0  0  0
 22 23  1  0  0  0  0
 22 58  1  0  0  0  0
 23 31  2  0  0  0  0
 23 63  1  0  0  0  0
 24 83  1  0  0  0  0
 25 84  1  0  0  0  0
 26 28  2  0  0  0  0
 26 83  1  0  0  0  0
 27 85  1  0  0  0  0
 28 86  1  0  0  0  0
 29 67  2  0  0  0  0
 30 59  1  0  0  0  0
 30 68  2  0  0  0  0
 31 50  1  0  0  0  0
 31 68  1  0  0  0  0
 32 69  1  0  0  0  0
 32 72  1  0  0  0  0
 33 73  1  0  0  0  0
 33 78  2  0  0  0  0
 34 48  1  0  0  0  0
 34 74  1  0  0  0  0
 34 79  2  0  0  0  0
 35 64  1  0  0  0  0
 35 70  1  0  0  0  0
 35 80  2  0  0  0  0
 36 65  1  0  0  0  0
 36 75  1  0  0  0  0
 36 81  2  0  0  0  0
 37 71  1  0  0  0  0
 37 76  1  0  0  0  0
 37 82  2  0  0  0  0
 38 41  1  0  0  0  0
 39 48  1  0  0  0  0
 40 70  1  0  0  0  0
 41 43  1  0  0  0  0
 42 44  1  0  0  0  0
 42 45  1  0  0  0  0
 43 47  1  0  0  0  0
 44 49  1  0  0  0  0
 45 71  1  0  0  0  0
 46 49  1  0  0  0  0
 46 71  1  0  0  0  0
 47 74  1  0  0  0  0
 48 70  1  0  0  0  0
 49 69  1  0  0  0  0
 51 63  1  0  0  0  0
 52 63  1  0  0  0  0
 53 65  1  0  0  0  0
 54 66  1  0  0  0  0
 55 66  1  0  0  0  0
 56 66  1  0  0  0  0
 57 77  1  0  0  0  0
 58 60  1  0  0  0  0
 59 62  1  0  0  0  0
 60 61  1  0  0  0  0
 61 76  1  0  0  0  0
 62 84  1  0  0  0  0
 64 66  1  0  0  0  0
 64 75  1  0  0  0  0
 65 77  1  0  0  0  0
 67 69  1  0  0  0  0
M  CHG  1  77   1
M  ISO  4  37 100  62 101  76 100  84 101
M  END
> <Batch ID>
0091

> <Smiles>
CNC(C)C(=O)NC(C(=O)N1Cc2cc([101O:1][101CH2:1]Cc3cc(CCC[100NH:0][100C:0](=O)N4CCCC(n5nc(-c6ccc(Oc7ccc(F)cc7F)cc6)c(C(N)=O)c5N)C4)c(C(C)C)c(C)n3)ccc2CC1C(=O)NC1CCCc2ccccc21)C(C)(C)C

> <Shape>
0.265

> <Color>
0.098

> <Negative vol penalty>
0.000

$$$$

  -OEChem-04052319113D

 88 96  0     1  0  0  0  0  0999 V2000
  -33.3008  -26.0098   18.0518 C   0  0  0  0  0  0  0  0  0  0  0  0
  -32.0934  -25.5399   18.5585 C   0  0  0  0  0  0  0  0  0  0  0  0
  -24.4054   -9.5920   21.0991 C   0  0  0  0  0  0  0  0  0  0  0  0
  -25.0217  -10.4522   23.2710 C   0  0  0  0  0  0  0  0  0  0  0  0
  -33.8756  -27.1644   18.5814 C   0  0  0  0  0  0  0  0  0  0  0  0
  -31.4606  -26.2239   19.5959 C   0  0  0  0  0  0  0  0  0  0  0  0
  -26.4865  -26.7663   18.8153 C   0  0  0  0  0  0  0  0  0  0  0  0
  -24.1414   -8.3459   21.6675 C   0  0  0  0  0  0  0  0  0  0  0  0
  -24.7576   -9.2061   23.8395 C   0  0  0  0  0  0  0  0  0  0  0  0
  -25.6785  -25.6575   19.0631 C   0  0  0  0  0  0  0  0  0  0  0  0
  -22.9596   -5.0384   22.6052 C   0  0  0  0  0  0  0  0  0  0  0  0
  -21.7869   -4.3868   22.2235 C   0  0  0  0  0  0  0  0  0  0  0  0
  -25.0689  -26.5876   21.2038 C   0  0  0  0  0  0  0  0  0  0  0  0
  -27.5332  -19.7854   21.4712 C   0  0  0  0  0  0  0  0  0  0  0  0
  -20.4839   -6.2409   23.0614 C   0  0  0  0  0  0  0  0  0  0  0  0
  -24.8456  -10.6452   21.9008 C   0  0  0  0  0  0  0  0  0  0  0  0
  -24.2163  -12.9998   21.1476 C   0  0  0  0  0  0  0  0  0  0  0  0
  -33.2447  -27.8682   19.6192 C   0  0  0  0  0  0  0  0  0  0  0  0
  -26.6005  -27.7906   19.7662 C   0  0  0  0  0  0  0  0  0  0  0  0
  -32.0282  -27.3882   20.1407 C   0  0  0  0  0  0  0  0  0  0  0  0
  -25.8770  -27.7096   20.9646 C   0  0  0  0  0  0  0  0  0  0  0  0
  -27.4925  -21.1725   21.5575 C   0  0  0  0  0  0  0  0  0  0  0  0
  -28.5150  -21.9288   20.9955 C   0  0  0  0  0  0  0  0  0  0  0  0
  -24.3175   -8.1530   23.0377 C   0  0  0  0  0  0  0  0  0  0  0  0
  -24.9718  -25.5666   20.2587 C   0  0  0  0  0  0  0  0  0  0  0  0
  -22.8945   -6.2913   23.2151 C   0  0  0  0  0  0  0  0  0  0  0  0
  -20.5490   -4.9880   22.4515 C   0  0  0  0  0  0  0  0  0  0  0  0
  -21.6567   -6.8925   23.4432 C   0  0  0  0  0  0  0  0  0  0  0  0
  -25.1190  -11.9324   21.3141 C   0  0  0  0  0  0  0  0  0  0  0  0
  -29.5476  -21.2552   20.3632 C   0  0  0  0  0  0  0  0  0  0  0  0
  -28.6096  -19.2077   20.8174 C   0  0  0  0  0  0  0  0  0  0  0  0
  -24.9588  -13.9869   20.5469 C   0  0  0  0  0  0  0  0  0  0  0  0
  -22.8306  -13.0910   21.5042 C   0  0  0  0  0  0  0  0  0  0  0  0
  -28.9878  -29.0102   21.4742 C   0  0  0  0  0  0  0  0  0  0  0  0
  -26.7321  -31.1637   22.3667 C   0  0  0  0  0  0  0  0  0  0  0  0
  -23.4233  -31.8919   22.7770 C   0  0  0  0  0  0  0  0  0  0  0  0
  -29.6195  -17.0047   20.1294 C   0  0  0  0  0  0  0  0  0  0  0  0
  -33.9281  -29.0849   20.1914 C   0  0  0  0  0  0  0  0  0  0  0  0
  -27.4554  -28.9928   19.4723 C   0  0  0  0  0  0  0  0  0  0  0  0
  -25.9493  -28.7921   22.0093 C   0  0  0  0  0  0  0  0  0  0  0  0
  -33.0060  -29.9606   21.0360 C   0  0  0  0  0  0  0  0  0  0  0  0
  -29.5833  -13.8423   18.4939 C   0  0  0  0  0  0  0  0  0  0  0  0
  -32.1959  -29.1043   22.0042 C   0  0  0  0  0  0  0  0  0  0  0  0
  -28.3444  -13.1513   19.0681 C   0  0  0  0  0  0  0  0  0  0  0  0
  -30.3001  -14.6872   19.5456 C   0  0  0  0  0  0  0  0  0  0  0  0
  -28.2112  -14.9667   20.8213 C   0  0  0  0  0  0  0  0  0  0  0  0
  -31.2988  -28.1163   21.2490 C   0  0  1  0  0  0  0  0  0  0  0  0
  -27.8997  -29.7320   20.7307 C   0  0  1  0  0  0  0  0  0  0  0  0
  -27.4192  -14.1558   19.7826 C   0  0  2  0  0  0  0  0  0  0  0  0
  -29.4577  -23.9567   22.1293 C   0  0  0  0  0  0  0  0  0  0  0  0
  -30.7620  -21.7942   18.2212 C   0  0  0  0  0  0  0  0  0  0  0  0
  -32.0295  -21.6942   20.3980 C   0  0  0  0  0  0  0  0  0  0  0  0
  -21.8905  -33.7183   23.5596 C   0  0  0  0  0  0  0  0  0  0  0  0
  -27.4222  -30.4984   25.2634 C   0  0  0  0  0  0  0  0  0  0  0  0
  -25.2782  -31.5924   25.9524 C   0  0  0  0  0  0  0  0  0  0  0  0
  -27.0485  -32.9297   24.8120 C   0  0  0  0  0  0  0  0  0  0  0  0
  -23.6699  -22.1877   23.4741 C   0  0  0  0  0  0  0  0  0  0  0  0
  -22.5517  -22.1785   21.2297 C   0  0  0  0  0  0  0  0  0  0  0  0
  -22.1285  -32.1010   20.1239 C   0  0  0  0  0  0  0  0  0  0  0  0
  -26.3325  -21.8315   22.2643 C   0  0  0  0  0  0  0  0  0  0  0  0
  -28.4979  -23.4185   21.0715 C   0  0  0  0  0  0  0  0  0  0  0  0
  -25.0767  -21.8484   21.3815 C   0  0  0  0  0  0  0  0  0  0  0  0
  -24.0223  -24.0933   21.8661 C   0  0  0  0  0  0  0  0  0  1  0  0
  -30.6742  -22.0149   19.7422 C   0  0  0  0  0  0  0  0  0  0  0  0
  -25.7139  -31.2470   23.4781 C   0  0  1  0  0  0  0  0  0  0  0  0
  -22.5987  -33.0982   22.3652 C   0  0  2  0  0  0  0  0  0  0  0  0
  -26.3657  -31.5454   24.8578 C   0  0  0  0  0  0  0  0  0  0  0  0
  -23.8346  -22.5610   21.9890 C   0  0  0  0  0  0  0  0  0  0  0  0
  -26.3415  -12.2147   20.8559 N   0  0  0  0  0  0  0  0  0  0  0  0
  -29.6215  -19.9093   20.2593 N   0  0  0  0  0  0  0  0  0  0  0  0
  -26.2122  -13.4707   20.3956 N   0  0  0  0  0  0  0  0  0  0  0  0
  -26.8036  -29.9444   21.6782 N   0  0  0  0  0  0  0  0  0  0  0  0
  -29.3624  -15.6182   20.1771 N   0  0  0  0  0  0  0  0  0  0  0  0
  -24.6553  -15.2373   20.1385 N   0  0  0  0  0  0  0  0  0  0  0  0
  -22.2235  -11.9846   22.1139 N   0  0  0  0  0  0  0  0  0  0  0  0
  -28.6419  -17.7935   20.7350 N   0  0  0  0  0  0  0  0  0  0  0  0
  -30.1299  -28.7917   20.7277 N   0  0  0  0  0  0  0  0  0  0  0  0
  -24.7288  -32.2369   23.0560 N   0  0  0  0  0  0  0  0  0  0  0  0
  -21.5701  -32.7042   21.3614 N   0  3  0  0  0  0  0  0  0  0  0  0
  -22.1468  -14.1170   21.2737 O   0  0  0  0  0  0  0  0  0  0  0  0
  -28.8052  -28.6775   22.6394 O   0  0  0  0  0  0  0  0  0  0  0  0
  -27.4331  -32.1468   22.1139 O   0  0  0  0  0  0  0  0  0  0  0  0
  -22.9551  -30.7578   22.8480 O   0  0  0  0  0  0  0  0  0  0  0  0
  -30.6185  -17.4605   19.5671 O   0  0  0  0  0  0  0  0  0  0  0  0
  -24.0597   -6.9372   23.5928 O   0  0  0  0  0  0  0  0  0  0  0  0
  -24.1829  -24.4851   20.5034 O   0  0  0  0  0  0  0  0  0  1  0  0
  -19.4230   -4.3629   22.0835 F   0  0  0  0  0  0  0  0  0  0  0  0
  -21.5879   -8.0964   24.0276 F   0  0  0  0  0  0  0  0  0  0  0  0
  1  2  1  0  0  0  0
  1  5  2  0  0  0  0
  2  6  2  0  0  0  0
  3  8  2  0  0  0  0
  3 16  1  0  0  0  0
  4  9  1  0  0  0  0
  4 16  2  0  0  0  0
  5 18  1  0  0  0  0
  6 20  1  0  0  0  0
  7 10  2  0  0  0  0
  7 19  1  0  0  0  0
  8 24  1  0  0  0  0
  9 24  2  0  0  0  0
 10 25  1  0  0  0  0
 11 12  2  0  0  0  0
 11 26  1  0  0  0  0
 12 27  1  0  0  0  0
 13 21  1  0  0  0  0
 13 25  2  0  0  0  0
 14 22  2  0  0  0  0
 14 31  1  0  0  0  0
 15 27  2  0  0  0  0
 15 28  1  0  0  0  0
 16 29  1  0  0  0  0
 17 29  1  0  0  0  0
 17 32  2  0  0  0  0
 17 33  1  0  0  0  0
 18 20  2  0  0  0  0
 18 38  1  0  0  0  0
 19 21  2  0  0  0  0
 19 39  1  0  0  0  0
 20 47  1  0  0  0  0
 21 40  1  0  0  0  0
 22 23  1  0  0  0  0
 22 60  1  0  0  0  0
 23 30  2  0  0  0  0
 23 61  1  0  0  0  0
 24 85  1  0  0  0  0
 25 86  1  0  0  0  0
 26 28  2  0  0  0  0
 26 85  1  0  0  0  0
 27 87  1  0  0  0  0
 28 88  1  0  0  0  0
 29 69  2  0  0  0  0
 30 64  1  0  0  0  0
 30 70  1  0  0  0  0
 31 70  2  0  0  0  0
 31 76  1  0  0  0  0
 32 71  1  0  0  0  0
 32 74  1  0  0  0  0
 33 75  1  0  0  0  0
 33 80  2  0  0  0  0
 34 48  1  0  0  0  0
 34 77  1  0  0  0  0
 34 81  2  0  0  0  0
 35 65  1  0  0  0  0
 35 72  1  0  0  0  0
 35 82  2  0  0  0  0
 36 66  1  0  0  0  0
 36 78  1  0  0  0  0
 36 83  2  0  0  0  0
 37 73  1  0  0  0  0
 37 76  1  0  0  0  0
 37 84  2  0  0  0  0
 38 41  1  0  0  0  0
 39 48  1  0  0  0  0
 40 72  1  0  0  0  0
 41 43  1  0  0  0  0
 42 44  1  0  0  0  0
 42 45  1  0  0  0  0
 43 47  1  0  0  0  0
 44 49  1  0  0  0  0
 45 73  1  0  0  0  0
 46 49  1  0  0  0  0
 46 73  1  0  0  0  0
 47 77  1  0  0  0  0
 48 72  1  0  0  0  0
 49 71  1  0  0  0  0
 50 61  1  0  0  0  0
 51 64  1  0  0  0  0
 52 64  1  0  0  0  0
 53 66  1  0  0  0  0
 54 67  1  0  0  0  0
 55 67  1  0  0  0  0
 56 67  1  0  0  0  0
 57 68  1  0  0  0  0
 58 68  1  0  0  0  0
 59 79  1  0  0  0  0
 60 62  1  0  0  0  0
 62 68  1  0  0  0  0
 63 68  1  0  0  0  0
 63 86  1  0  0  0  0
 65 67  1  0  0  0  0
 65 78  1  0  0  0  0
 66 79  1  0  0  0  0
 69 71  1  0  0  0  0
M  CHG  1  79   1
M  ISO  4  37 100  63 101  76 100  86 101
M  END
> <Batch ID>
0091

> <Smiles>
CCc1c(CCC(C)(C)[101CH2:1][101O:1]c2ccc3c(c2)CN(C(=O)C(NC(=O)C(C)NC)C(C)(C)C)C(C(=O)NC2CCCc4ccccc42)C3)cc([100NH:0][100C:0](=O)N2CCCC(n3nc(-c4ccc(Oc5ccc(F)cc5F)cc4)c(C(N)=O)c3N)C2)nc1C(C)C

> <Shape>
0.317

> <Color>
0.133

> <Negative vol penalty>
0.000

$$$$

  -OEChem-04052319113D

 93101  0     1  0  0  0  0  0999 V2000
  -25.3654  -34.7191   24.2804 C   0  0  0  0  0  0  0  0  0  0  0  0
  -26.0260  -33.5701   23.8572 C   0  0  0  0  0  0  0  0  0  0  0  0
  -24.3382  -12.6555   19.8279 C   0  0  0  0  0  0  0  0  0  0  0  0
  -25.0491  -12.8869   22.1253 C   0  0  0  0  0  0  0  0  0  0  0  0
  -24.0705  -34.6298   24.7893 C   0  0  0  0  0  0  0  0  0  0  0  0
  -25.3924  -32.3310   23.9439 C   0  0  0  0  0  0  0  0  0  0  0  0
  -25.9800  -29.5512   19.7519 C   0  0  0  0  0  0  0  0  0  0  0  0
  -24.3347  -11.2678   19.9688 C   0  0  0  0  0  0  0  0  0  0  0  0
  -25.0456  -11.4992   22.2662 C   0  0  0  0  0  0  0  0  0  0  0  0
  -27.2039  -28.9054   19.5825 C   0  0  0  0  0  0  0  0  0  0  0  0
  -23.7903   -7.6763   19.8299 C   0  0  0  0  0  0  0  0  0  0  0  0
  -22.6979   -6.9753   19.3191 C   0  0  0  0  0  0  0  0  0  0  0  0
  -26.2190  -26.8468   20.3645 C   0  0  0  0  0  0  0  0  0  0  0  0
  -26.6730  -24.6496   24.6513 C   0  0  0  0  0  0  0  0  0  0  0  0
  -28.9792  -26.1621   25.0714 C   0  0  0  0  0  0  0  0  0  0  0  0
  -21.2237   -8.2019   20.7886 C   0  0  0  0  0  0  0  0  0  0  0  0
  -24.6954  -13.4651   20.9062 C   0  0  0  0  0  0  0  0  0  0  0  0
  -23.6299  -15.7809   21.0036 C   0  0  0  0  0  0  0  0  0  0  0  0
  -23.4170  -33.3902   24.8732 C   0  0  0  0  0  0  0  0  0  0  0  0
  -24.8673  -28.8511   20.2400 C   0  0  0  0  0  0  0  0  0  0  0  0
  -24.0879  -32.2249   24.4557 C   0  0  0  0  0  0  0  0  0  0  0  0
  -24.9814  -27.4855   20.5367 C   0  0  0  0  0  0  0  0  0  0  0  0
  -27.9229  -24.1183   24.3337 C   0  0  0  0  0  0  0  0  0  0  0  0
  -26.5761  -25.9373   25.1790 C   0  0  0  0  0  0  0  0  0  0  0  0
  -29.0760  -24.8745   24.5437 C   0  0  0  0  0  0  0  0  0  0  0  0
  -27.7292  -26.6935   25.3890 C   0  0  0  0  0  0  0  0  0  0  0  0
  -24.6884  -10.6897   21.1879 C   0  0  0  0  0  0  0  0  0  0  0  0
  -27.3243  -27.5537   19.8916 C   0  0  0  0  0  0  0  0  0  0  0  0
  -23.5994   -8.6400   20.8202 C   0  0  0  0  0  0  0  0  0  0  0  0
  -21.4146   -7.2381   19.7984 C   0  0  0  0  0  0  0  0  0  0  0  0
  -22.3161   -8.9028   21.2994 C   0  0  0  0  0  0  0  0  0  0  0  0
  -24.6998  -14.8987   20.7612 C   0  0  0  0  0  0  0  0  0  0  0  0
  -24.1397  -17.0246   20.7215 C   0  0  0  0  0  0  0  0  0  0  0  0
  -22.2946  -15.5011   21.4445 C   0  0  0  0  0  0  0  0  0  0  0  0
  -23.0161  -29.0937   22.8125 C   0  0  0  0  0  0  0  0  0  0  0  0
  -21.3057  -26.7763   21.3206 C   0  0  0  0  0  0  0  0  0  0  0  0
  -21.2491  -24.2125   19.0687 C   0  0  0  0  0  0  0  0  0  0  0  0
  -28.2312  -20.8031   21.0798 C   0  0  0  0  0  0  0  0  0  0  0  0
  -22.0348  -33.3374   25.4744 C   0  0  0  0  0  0  0  0  0  0  0  0
  -23.5472  -29.5559   20.3917 C   0  0  0  0  0  0  0  0  0  0  0  0
  -23.8118  -26.6839   21.0446 C   0  0  0  0  0  0  0  0  0  0  0  0
  -21.2937  -32.0348   25.1843 C   0  0  0  0  0  0  0  0  0  0  0  0
  -28.4698  -18.3777   18.4841 C   0  0  0  0  0  0  0  0  0  0  0  0
  -22.2026  -30.8360   25.4364 C   0  0  0  0  0  0  0  0  0  0  0  0
  -27.4269  -17.3268   18.8685 C   0  0  0  0  0  0  0  0  0  0  0  0
  -29.1644  -18.9596   19.7134 C   0  0  0  0  0  0  0  0  0  0  0  0
  -27.2117  -18.4462   21.1267 C   0  0  0  0  0  0  0  0  0  0  0  0
  -23.4247  -30.8658   24.5107 C   0  0  1  0  0  0  0  0  0  0  0  0
  -22.6132  -28.8682   21.3827 C   0  0  1  0  0  0  0  0  0  0  0  0
  -26.4450  -17.8709   19.9236 C   0  0  2  0  0  0  0  0  0  0  0  0
  -28.1812  -29.1383   24.9737 C   0  0  0  0  0  0  0  0  0  0  0  0
  -28.3739  -28.1990   27.3052 C   0  0  0  0  0  0  0  0  0  0  0  0
  -19.7165  -22.4819   18.0922 C   0  0  0  0  0  0  0  0  0  0  0  0
  -23.3703  -26.7814   27.2323 C   0  0  0  0  0  0  0  0  0  0  0  0
  -24.7389  -24.6861   27.2158 C   0  0  0  0  0  0  0  0  0  0  0  0
  -32.4368  -25.1205   20.2544 C   0  0  0  0  0  0  0  0  0  0  0  0
  -21.5285  -25.1361   23.8838 C   0  0  0  0  0  0  0  0  0  0  0  0
  -20.8454  -23.1178   22.5691 C   0  0  0  0  0  0  0  0  0  0  0  0
  -19.2844  -25.0518   22.7831 C   0  0  0  0  0  0  0  0  0  0  0  0
  -21.5731  -25.3002   16.3355 C   0  0  0  0  0  0  0  0  0  0  0  0
  -30.4382  -24.3211   24.2086 C   0  0  0  0  0  0  0  0  0  0  0  0
  -28.0020  -22.7373   23.7706 C   0  0  0  0  0  0  0  0  0  0  0  0
  -25.2270  -26.4854   25.5106 C   0  0  0  0  0  0  0  0  0  0  0  0
  -30.7527  -24.3204   22.7070 C   0  0  0  0  0  0  0  0  0  0  0  0
  -30.7971  -25.7323   22.1060 C   0  0  0  0  0  0  0  0  0  0  0  0
  -29.9794  -25.0206   19.7941 C   0  0  0  0  0  0  0  0  0  0  0  0
  -27.1761  -22.5488   22.4935 C   0  0  0  0  0  0  0  0  0  0  0  0
  -28.5700  -25.5352   20.0640 C   0  0  0  0  0  0  0  0  0  1  0  0
  -27.6501  -28.0745   25.9520 C   0  0  0  0  0  0  0  0  0  0  0  0
  -21.3300  -25.2668   21.3129 C   0  0  1  0  0  0  0  0  0  0  0  0
  -20.2875  -23.8833   17.9411 C   0  0  2  0  0  0  0  0  0  0  0  0
  -24.7569  -26.1945   26.9563 C   0  0  0  0  0  0  0  0  0  0  0  0
  -31.0802  -25.7520   20.5887 C   0  0  2  0  0  0  0  0  0  0  0  0
  -20.7698  -24.6584   22.6295 C   0  0  0  0  0  0  0  0  0  0  0  0
  -25.8058  -15.5285   20.3561 N   0  0  0  0  0  0  0  0  0  0  0  0
  -25.4335  -16.8197   20.3417 N   0  0  0  0  0  0  0  0  0  0  0  0
  -22.5439  -27.4193   21.1821 N   0  0  0  0  0  0  0  0  0  0  0  0
  -28.1776  -19.4595   20.6738 N   0  0  0  0  0  0  0  0  0  0  0  0
  -23.6030  -18.2626   20.7636 N   0  0  0  0  0  0  0  0  0  0  0  0
  -21.9371  -14.1681   21.6886 N   0  0  0  0  0  0  0  0  0  0  0  0
  -23.0622  -30.4248   23.1808 N   0  0  0  0  0  0  0  0  0  0  0  0
  -20.6135  -24.8532   20.1113 N   0  0  0  0  0  0  0  0  0  0  0  0
  -27.2553  -21.1966   21.9873 N   0  0  0  0  0  0  0  0  0  0  0  0
  -20.9831  -23.9681   16.6259 N   0  3  0  0  0  0  0  0  0  0  0  0
  -21.4388  -16.4048   21.6012 O   0  0  0  0  0  0  0  0  0  0  0  0
  -23.2653  -28.1313   23.5291 O   0  0  0  0  0  0  0  0  0  0  0  0
  -20.2270  -27.3631   21.4377 O   0  0  0  0  0  0  0  0  0  0  0  0
  -22.4437  -23.9263   19.0303 O   0  0  0  0  0  0  0  0  0  0  0  0
  -29.0821  -21.5948   20.6602 O   0  0  0  0  0  0  0  0  0  0  0  0
  -24.6848   -9.3356   21.3257 O   0  0  0  0  0  0  0  0  0  0  0  0
  -28.5180  -26.9211   19.7278 O   0  0  0  0  0  0  0  0  0  1  0  0
  -20.3655   -6.5660   19.3066 F   0  0  0  0  0  0  0  0  0  0  0  0
  -22.1263   -9.8283   22.2498 F   0  0  0  0  0  0  0  0  0  0  0  0
  1  2  1  0  0  0  0
  1  5  2  0  0  0  0
  2  6  2  0  0  0  0
  3  8  2  0  0  0  0
  3 17  1  0  0  0  0
  4  9  1  0  0  0  0
  4 17  2  0  0  0  0
  5 19  1  0  0  0  0
  6 21  1  0  0  0  0
  7 10  2  0  0  0  0
  7 20  1  0  0  0  0
  8 27  1  0  0  0  0
  9 27  2  0  0  0  0
 10 28  1  0  0  0  0
 11 12  2  0  0  0  0
 11 29  1  0  0  0  0
 12 30  1  0  0  0  0
 13 22  1  0  0  0  0
 13 28  2  0  0  0  0
 14 23  1  0  0  0  0
 14 24  2  0  0  0  0
 15 25  1  0  0  0  0
 15 26  2  0  0  0  0
 16 30  2  0  0  0  0
 16 31  1  0  0  0  0
 17 32  1  0  0  0  0
 18 32  1  0  0  0  0
 18 33  2  0  0  0  0
 18 34  1  0  0  0  0
 19 21  2  0  0  0  0
 19 39  1  0  0  0  0
 20 22  2  0  0  0  0
 20 40  1  0  0  0  0
 21 48  1  0  0  0  0
 22 41  1  0  0  0  0
 23 25  2  0  0  0  0
 23 62  1  0  0  0  0
 24 26  1  0  0  0  0
 24 63  1  0  0  0  0
 25 61  1  0  0  0  0
 26 69  1  0  0  0  0
 27 90  1  0  0  0  0
 28 91  1  0  0  0  0
 29 31  2  0  0  0  0
 29 90  1  0  0  0  0
 30 92  1  0  0  0  0
 31 93  1  0  0  0  0
 32 75  2  0  0  0  0
 33 76  1  0  0  0  0
 33 79  1  0  0  0  0
 34 80  1  0  0  0  0
 34 85  2  0  0  0  0
 35 49  1  0  0  0  0
 35 81  1  0  0  0  0
 35 86  2  0  0  0  0
 36 70  1  0  0  0  0
 36 77  1  0  0  0  0
 36 87  2  0  0  0  0
 37 71  1  0  0  0  0
 37 82  1  0  0  0  0
 37 88  2  0  0  0  0
 38 78  1  0  0  0  0
 38 83  1  0  0  0  0
 38 89  2  0  0  0  0
 39 42  1  0  0  0  0
 40 49  1  0  0  0  0
 41 77  1  0  0  0  0
 42 44  1  0  0  0  0
 43 45  1  0  0  0  0
 43 46  1  0  0  0  0
 44 48  1  0  0  0  0
 45 50  1  0  0  0  0
 46 78  1  0  0  0  0
 47 50  1  0  0  0  0
 47 78  1  0  0  0  0
 48 81  1  0  0  0  0
 49 77  1  0  0  0  0
 50 76  1  0  0  0  0
 51 69  1  0  0  0  0
 52 69  1  0  0  0  0
 53 71  1  0  0  0  0
 54 72  1  0  0  0  0
 55 72  1  0  0  0  0
 56 73  1  0  0  0  0
 57 74  1  0  0  0  0
 58 74  1  0  0  0  0
 59 74  1  0  0  0  0
 60 84  1  0  0  0  0
 61 64  1  0  0  0  0
 62 67  1  0  0  0  0
 63 72  1  0  0  0  0
 64 65  1  0  0  0  0
 65 73  1  0  0  0  0
 66 68  1  0  0  0  0
 66 73  1  0  0  0  0
 67 83  1  0  0  0  0
 68 91  1  0  0  0  0
 70 74  1  0  0  0  0
 70 82  1  0  0  0  0
 71 84  1  0  0  0  0
 75 76  1  0  0  0  0
M  CHG  1  84   1
M  ISO  4  38 100  68 101  83 100  91 101
M  END
> <Batch ID>
0091

> <Smiles>
CNC(C)C(=O)NC(C(=O)N1Cc2cc([101O:1][101CH2:1]CC(C)CCCc3cc(C(C)C)c(CC(C)C)cc3CC[100NH:0][100C:0](=O)N3CCCC(n4nc(-c5ccc(Oc6ccc(F)cc6F)cc5)c(C(N)=O)c4N)C3)ccc2CC1C(=O)NC1CCCc2ccccc21)C(C)(C)C

> <Shape>
0.237

> <Color>
0.075

> <Negative vol penalty>
0.000

$$$$

  -OEChem-04052319113D

 87 95  0     1  0  0  0  0  0999 V2000
  -27.8836  -28.1692   16.7959 C   0  0  0  0  0  0  0  0  0  0  0  0
  -27.6388  -26.8620   17.2040 C   0  0  0  0  0  0  0  0  0  0  0  0
  -29.1190  -23.3376   20.7816 C   0  0  0  0  0  0  0  0  0  0  0  0
  -28.0416  -22.1219   22.5700 C   0  0  0  0  0  0  0  0  0  0  0  0
  -27.4812  -29.2358   17.5987 C   0  0  0  0  0  0  0  0  0  0  0  0
  -26.9923  -26.6205   18.4157 C   0  0  0  0  0  0  0  0  0  0  0  0
  -23.0936  -22.0657   19.6646 C   0  0  0  0  0  0  0  0  0  0  0  0
  -28.7087  -24.5420   21.3530 C   0  0  0  0  0  0  0  0  0  0  0  0
  -27.6313  -23.3264   23.1415 C   0  0  0  0  0  0  0  0  0  0  0  0
  -23.2606  -20.8356   20.2991 C   0  0  0  0  0  0  0  0  0  0  0  0
  -26.6079  -26.0936   25.2659 C   0  0  0  0  0  0  0  0  0  0  0  0
  -26.7645  -26.2451   26.6436 C   0  0  0  0  0  0  0  0  0  0  0  0
  -22.5030  -21.8089   22.3722 C   0  0  0  0  0  0  0  0  0  0  0  0
  -26.2320  -13.4301   21.4475 C   0  0  0  0  0  0  0  0  0  0  0  0
  -29.1484  -25.9314   26.4072 C   0  0  0  0  0  0  0  0  0  0  0  0
  -28.7854  -22.1275   21.3900 C   0  0  0  0  0  0  0  0  0  0  0  0
  -30.4069  -20.1878   21.0495 C   0  0  0  0  0  0  0  0  0  0  0  0
  -26.8209  -29.0075   18.8162 C   0  0  0  0  0  0  0  0  0  0  0  0
  -22.6396  -23.1812   20.3828 C   0  0  0  0  0  0  0  0  0  0  0  0
  -26.5819  -27.6850   19.2361 C   0  0  0  0  0  0  0  0  0  0  0  0
  -22.3286  -23.0515   21.7439 C   0  0  0  0  0  0  0  0  0  0  0  0
  -24.8662  -13.5146   21.6533 C   0  0  0  0  0  0  0  0  0  0  0  0
  -27.9649  -24.5364   22.5330 C   0  0  0  0  0  0  0  0  0  0  0  0
  -22.9680  -20.7077   21.6538 C   0  0  0  0  0  0  0  0  0  0  0  0
  -27.7216  -25.8609   24.4588 C   0  0  0  0  0  0  0  0  0  0  0  0
  -28.0347  -26.1640   27.2143 C   0  0  0  0  0  0  0  0  0  0  0  0
  -28.9918  -25.7799   25.0295 C   0  0  0  0  0  0  0  0  0  0  0  0
  -29.2085  -20.8830   20.7998 C   0  0  0  0  0  0  0  0  0  0  0  0
  -26.7156  -12.3330   20.7632 C   0  0  0  0  0  0  0  0  0  0  0  0
  -24.0744  -12.4966   21.1609 C   0  0  0  0  0  0  0  0  0  0  0  0
  -30.3314  -19.0746   20.2484 C   0  0  0  0  0  0  0  0  0  0  0  0
  -31.4914  -20.5186   21.9271 C   0  0  0  0  0  0  0  0  0  0  0  0
  -23.8465  -26.0348   21.0929 C   0  0  0  0  0  0  0  0  0  0  0  0
  -20.8889  -26.5473   22.3225 C   0  0  0  0  0  0  0  0  0  0  0  0
  -18.0211  -25.2265   23.6179 C   0  0  0  0  0  0  0  0  0  0  0  0
  -27.4649  -14.7627   18.1661 C   0  0  0  0  0  0  0  0  0  0  0  0
  -26.4469  -30.1914   19.6724 C   0  0  0  0  0  0  0  0  0  0  0  0
  -22.4393  -24.4946   19.6775 C   0  0  0  0  0  0  0  0  0  0  0  0
  -21.8189  -24.2135   22.5552 C   0  0  0  0  0  0  0  0  0  0  0  0
  -25.4335  -29.8578   20.7641 C   0  0  0  0  0  0  0  0  0  0  0  0
  -27.1050  -17.9056   16.5322 C   0  0  0  0  0  0  0  0  0  0  0  0
  -25.8345  -28.5786   21.4919 C   0  0  0  0  0  0  0  0  0  0  0  0
  -27.7130  -18.9030   17.5198 C   0  0  0  0  0  0  0  0  0  0  0  0
  -26.3606  -16.7824   17.2508 C   0  0  0  0  0  0  0  0  0  0  0  0
  -27.7588  -17.0678   19.2601 C   0  0  0  0  0  0  0  0  0  0  0  0
  -25.8611  -27.3830   20.5320 C   0  0  1  0  0  0  0  0  0  0  0  0
  -22.4610  -25.6906   20.6243 C   0  0  1  0  0  0  0  0  0  0  0  0
  -28.5673  -18.1884   18.5841 C   0  0  2  0  0  0  0  0  0  0  0  0
  -20.4462  -11.1792   21.2381 C   0  0  0  0  0  0  0  0  0  0  0  0
  -15.7976  -25.8969   24.5688 C   0  0  0  0  0  0  0  0  0  0  0  0
  -30.1502  -12.6699   18.9932 C   0  0  0  0  0  0  0  0  0  0  0  0
  -22.2497  -27.3489   24.9331 C   0  0  0  0  0  0  0  0  0  0  0  0
  -20.0426  -27.0822   26.0844 C   0  0  0  0  0  0  0  0  0  0  0  0
  -20.3098  -28.7873   24.2834 C   0  0  0  0  0  0  0  0  0  0  0  0
  -16.5479  -23.7985   21.4849 C   0  0  0  0  0  0  0  0  0  0  0  0
  -24.2857  -14.6925   22.3944 C   0  0  0  0  0  0  0  0  0  0  0  0
  -28.1786  -12.1940   20.5156 C   0  0  0  0  0  0  0  0  0  0  0  0
  -22.5946  -12.5194   21.3455 C   0  0  0  0  0  0  0  0  0  0  0  0
  -21.9504  -11.1641   21.0165 C   0  0  0  0  0  0  0  0  0  0  0  0
  -24.2165  -15.9762   21.5597 C   0  0  0  0  0  0  0  0  0  0  0  0
  -23.6973  -17.1775   22.3510 C   0  0  0  0  0  0  0  0  0  0  0  0
  -23.6049  -18.4230   21.4798 C   0  0  0  0  0  0  0  0  0  1  0  0
  -20.2394  -26.3359   23.6688 C   0  0  1  0  0  0  0  0  0  0  0  0
  -16.5591  -25.4997   23.3138 C   0  0  2  0  0  0  0  0  0  0  0  0
  -28.6468  -12.8361   19.1909 C   0  0  1  0  0  0  0  0  0  0  0  0
  -20.7218  -27.3670   24.7279 C   0  0  0  0  0  0  0  0  0  0  0  0
  -28.4289  -20.2635   19.9097 N   0  0  0  0  0  0  0  0  0  0  0  0
  -25.9173  -11.3515   20.2926 N   0  0  0  0  0  0  0  0  0  0  0  0
  -24.5749  -11.4349   20.4945 N   0  0  0  0  0  0  0  0  0  0  0  0
  -29.1389  -19.1673   19.5929 N   0  0  0  0  0  0  0  0  0  0  0  0
  -21.6456  -25.4784   21.8219 N   0  0  0  0  0  0  0  0  0  0  0  0
  -27.2267  -16.1448   18.2454 N   0  0  0  0  0  0  0  0  0  0  0  0
  -31.1693  -18.0354   20.0478 N   0  0  0  0  0  0  0  0  0  0  0  0
  -31.4071  -21.6991   22.6778 N   0  0  0  0  0  0  0  0  0  0  0  0
  -24.5167  -26.9173   20.2674 N   0  0  0  0  0  0  0  0  0  0  0  0
  -18.7996  -26.3496   23.4341 N   0  0  0  0  0  0  0  0  0  0  0  0
  -28.3023  -14.2396   19.1438 N   0  0  0  0  0  0  0  0  0  0  0  0
  -15.9144  -24.2862   22.7371 N   0  3  0  0  0  0  0  0  0  0  0  0
  -32.5125  -19.7973   22.0299 O   0  0  0  0  0  0  0  0  0  0  0  0
  -24.2752  -25.5377   22.1277 O   0  0  0  0  0  0  0  0  0  0  0  0
  -20.7247  -27.6185   21.7334 O   0  0  0  0  0  0  0  0  0  0  0  0
  -18.4308  -24.1277   23.9857 O   0  0  0  0  0  0  0  0  0  0  0  0
  -26.9724  -14.0489   17.2858 O   0  0  0  0  0  0  0  0  0  0  0  0
  -27.5646  -25.7115   23.0911 O   0  0  0  0  0  0  0  0  0  0  0  0
  -23.1308  -19.5084   22.2758 O   0  0  0  0  0  0  0  0  0  1  0  0
  -28.1851  -26.3111   28.5371 F   0  0  0  0  0  0  0  0  0  0  0  0
  -30.0655  -25.5578   24.2591 F   0  0  0  0  0  0  0  0  0  0  0  0
  1  2  1  0  0  0  0
  1  5  2  0  0  0  0
  2  6  2  0  0  0  0
  3  8  2  0  0  0  0
  3 16  1  0  0  0  0
  4  9  1  0  0  0  0
  4 16  2  0  0  0  0
  5 18  1  0  0  0  0
  6 20  1  0  0  0  0
  7 10  2  0  0  0  0
  7 19  1  0  0  0  0
  8 23  1  0  0  0  0
  9 23  2  0  0  0  0
 10 24  1  0  0  0  0
 11 12  2  0  0  0  0
 11 25  1  0  0  0  0
 12 26  1  0  0  0  0
 13 21  1  0  0  0  0
 13 24  2  0  0  0  0
 14 22  1  0  0  0  0
 14 29  2  0  0  0  0
 15 26  2  0  0  0  0
 15 27  1  0  0  0  0
 16 28  1  0  0  0  0
 17 28  1  0  0  0  0
 17 31  2  0  0  0  0
 17 32  1  0  0  0  0
 18 20  2  0  0  0  0
 18 37  1  0  0  0  0
 19 21  2  0  0  0  0
 19 38  1  0  0  0  0
 20 46  1  0  0  0  0
 21 39  1  0  0  0  0
 22 30  2  0  0  0  0
 22 56  1  0  0  0  0
 23 84  1  0  0  0  0
 24 85  1  0  0  0  0
 25 27  2  0  0  0  0
 25 84  1  0  0  0  0
 26 86  1  0  0  0  0
 27 87  1  0  0  0  0
 28 67  2  0  0  0  0
 29 57  1  0  0  0  0
 29 68  1  0  0  0  0
 30 58  1  0  0  0  0
 30 69  1  0  0  0  0
 31 70  1  0  0  0  0
 31 73  1  0  0  0  0
 32 74  1  0  0  0  0
 32 79  2  0  0  0  0
 33 47  1  0  0  0  0
 33 75  1  0  0  0  0
 33 80  2  0  0  0  0
 34 63  1  0  0  0  0
 34 71  1  0  0  0  0
 34 81  2  0  0  0  0
 35 64  1  0  0  0  0
 35 76  1  0  0  0  0
 35 82  2  0  0  0  0
 36 72  1  0  0  0  0
 36 77  1  0  0  0  0
 36 83  2  0  0  0  0
 37 40  1  0  0  0  0
 38 47  1  0  0  0  0
 39 71  1  0  0  0  0
 40 42  1  0  0  0  0
 41 43  1  0  0  0  0
 41 44  1  0  0  0  0
 42 46  1  0  0  0  0
 43 48  1  0  0  0  0
 44 72  1  0  0  0  0
 45 48  1  0  0  0  0
 45 72  1  0  0  0  0
 46 75  1  0  0  0  0
 47 71  1  0  0  0  0
 48 70  1  0  0  0  0
 49 59  1  0  0  0  0
 50 64  1  0  0  0  0
 51 65  1  0  0  0  0
 52 66  1  0  0  0  0
 53 66  1  0  0  0  0
 54 66  1  0  0  0  0
 55 78  1  0  0  0  0
 56 60  1  0  0  0  0
 57 65  1  0  0  0  0
 58 59  1  0  0  0  0
 60 61  1  0  0  0  0
 61 62  1  0  0  0  0
 62 85  1  0  0  0  0
 63 66  1  0  0  0  0
 63 76  1  0  0  0  0
 64 78  1  0  0  0  0
 65 77  1  0  0  0  0
 67 70  1  0  0  0  0
 68 69  2  0  0  0  0
M  CHG  1  78   1
M  ISO  4  36 100  62 101  77 100  85 101
M  END
> <Batch ID>
0091

> <Smiles>
CCCc1nnc(CC(C)[100NH:0][100C:0](=O)N2CCCC(n3nc(-c4ccc(Oc5ccc(F)cc5F)cc4)c(C(N)=O)c3N)C2)cc1CCC[101CH2:1][101O:1]c1ccc2c(c1)CN(C(=O)C(NC(=O)C(C)NC)C(C)(C)C)C(C(=O)NC1CCCc3ccccc31)C2

> <Shape>
0.188

> <Color>
0.064

> <Negative vol penalty>
0.000

$$$$

  -OEChem-04052319113D

 87 96  0     1  0  0  0  0  0999 V2000
  -21.1625   -8.9324   24.6840 C   0  0  0  0  0  0  0  0  0  0  0  0
  -22.3067   -9.6897   24.9142 C   0  0  0  0  0  0  0  0  0  0  0  0
  -26.3827  -31.3777   22.4306 C   0  0  0  0  0  0  0  0  0  0  0  0
  -26.1407  -32.2042   20.1733 C   0  0  0  0  0  0  0  0  0  0  0  0
  -20.9370   -8.3773   23.4251 C   0  0  0  0  0  0  0  0  0  0  0  0
  -23.2265   -9.8913   23.8857 C   0  0  0  0  0  0  0  0  0  0  0  0
  -24.7842  -14.7007   23.5879 C   0  0  0  0  0  0  0  0  0  0  0  0
  -26.4963  -32.6871   22.8978 C   0  0  0  0  0  0  0  0  0  0  0  0
  -26.2542  -33.5136   20.6405 C   0  0  0  0  0  0  0  0  0  0  0  0
  -25.7387  -15.1193   24.5139 C   0  0  0  0  0  0  0  0  0  0  0  0
  -24.4308  -35.2739   23.5869 C   0  0  0  0  0  0  0  0  0  0  0  0
  -23.7034  -35.6213   24.7252 C   0  0  0  0  0  0  0  0  0  0  0  0
  -27.4640  -14.8454   22.8503 C   0  0  0  0  0  0  0  0  0  0  0  0
  -28.6338  -19.1238   24.7142 C   0  0  0  0  0  0  0  0  0  0  0  0
  -30.7122  -17.9492   25.0064 C   0  0  0  0  0  0  0  0  0  0  0  0
  -25.7580  -36.1759   25.8689 C   0  0  0  0  0  0  0  0  0  0  0  0
  -26.2050  -31.1363   21.0683 C   0  0  0  0  0  0  0  0  0  0  0  0
  -24.9065  -29.0333   20.4366 C   0  0  0  0  0  0  0  0  0  0  0  0
  -21.8497   -8.5803   22.3780 C   0  0  0  0  0  0  0  0  0  0  0  0
  -25.1645  -14.3402   22.2872 C   0  0  0  0  0  0  0  0  0  0  0  0
  -23.0135   -9.3373   22.6120 C   0  0  0  0  0  0  0  0  0  0  0  0
  -26.5120  -14.4250   21.9089 C   0  0  0  0  0  0  0  0  0  0  0  0
  -29.3915  -18.1683   25.3822 C   0  0  0  0  0  0  0  0  0  0  0  0
  -26.4320  -33.7550   22.0028 C   0  0  0  0  0  0  0  0  0  0  0  0
  -27.0792  -15.1890   24.1460 C   0  0  0  0  0  0  0  0  0  0  0  0
  -25.8218  -35.3774   23.5896 C   0  0  0  0  0  0  0  0  0  0  0  0
  -24.3669  -36.0724   25.8662 C   0  0  0  0  0  0  0  0  0  0  0  0
  -26.4854  -35.8284   24.7306 C   0  0  0  0  0  0  0  0  0  0  0  0
  -26.0882  -29.7840   20.5849 C   0  0  0  0  0  0  0  0  0  0  0  0
  -29.2385  -19.8279   23.6854 C   0  0  0  0  0  0  0  0  0  0  0  0
  -31.2238  -18.7058   23.9644 C   0  0  0  0  0  0  0  0  0  0  0  0
  -25.3287  -27.8216   19.9468 C   0  0  0  0  0  0  0  0  0  0  0  0
  -23.5486  -29.3987   20.7164 C   0  0  0  0  0  0  0  0  0  0  0  0
  -25.0121  -11.6741   20.5631 C   0  0  0  0  0  0  0  0  0  0  0  0
  -26.1013  -13.6057   18.1956 C   0  0  0  0  0  0  0  0  0  0  0  0
  -27.7725  -16.4475   17.3134 C   0  0  0  0  0  0  0  0  0  0  0  0
  -28.7586  -23.5502   19.8375 C   0  0  0  0  0  0  0  0  0  0  0  0
  -21.5864   -7.9208   21.0475 C   0  0  0  0  0  0  0  0  0  0  0  0
  -24.1192  -13.9163   21.2921 C   0  0  0  0  0  0  0  0  0  0  0  0
  -26.9694  -14.0686   20.5189 C   0  0  0  0  0  0  0  0  0  0  0  0
  -22.4237   -8.4942   19.9071 C   0  0  0  0  0  0  0  0  0  0  0  0
  -29.8191  -26.3715   18.1452 C   0  0  0  0  0  0  0  0  0  0  0  0
  -23.8820   -8.6324   20.3328 C   0  0  0  0  0  0  0  0  0  0  0  0
  -28.8501  -27.4589   18.6087 C   0  0  0  0  0  0  0  0  0  0  0  0
  -29.0475  -22.2857   23.0987 C   0  0  0  0  0  0  0  0  0  0  0  0
  -28.2834  -20.5278   21.4447 C   0  0  0  0  0  0  0  0  0  0  0  0
  -30.2264  -25.4724   19.3067 C   0  0  0  0  0  0  0  0  0  0  0  0
  -28.2587  -23.3368   22.3124 C   0  0  0  0  0  0  0  0  0  0  0  0
  -27.4943  -21.6112   20.7152 C   0  0  0  0  0  0  0  0  0  0  0  0
  -28.0939  -25.9113   20.4806 C   0  0  0  0  0  0  0  0  0  0  0  0
  -24.0224   -9.5991   21.5148 C   0  0  1  0  0  0  0  0  0  0  0  0
  -28.4432  -20.8794   22.9349 C   0  0  0  0  0  0  0  0  0  0  0  0
  -24.6868  -13.0812   20.1485 C   0  0  1  0  0  0  0  0  0  0  0  0
  -27.6425  -26.8479   19.3415 C   0  0  1  0  0  0  0  0  0  0  0  0
  -32.7593  -17.4323   22.4455 C   0  0  0  0  0  0  0  0  0  0  0  0
  -28.3691  -18.2805   27.6786 C   0  0  0  0  0  0  0  0  0  0  0  0
  -28.5357  -17.7400   15.3024 C   0  0  0  0  0  0  0  0  0  0  0  0
  -28.3506  -11.5911   17.7575 C   0  0  0  0  0  0  0  0  0  0  0  0
  -29.5718  -13.3437   16.4516 C   0  0  0  0  0  0  0  0  0  0  0  0
  -27.3559  -12.5172   15.6581 C   0  0  0  0  0  0  0  0  0  0  0  0
  -26.1611  -18.8099   18.0759 C   0  0  0  0  0  0  0  0  0  0  0  0
  -32.6369  -18.4956   23.5335 C   0  0  0  0  0  0  0  0  0  0  0  0
  -27.5881  -16.5201   26.0500 C   0  0  0  0  0  0  0  0  0  1  0  0
  -28.7905  -17.3825   26.4979 C   0  0  1  0  0  0  0  0  0  0  0  0
  -27.4642  -14.0152   17.6919 C   0  0  1  0  0  0  0  0  0  0  0  0
  -27.4310  -17.5529   16.3306 C   0  0  2  0  0  0  0  0  0  0  0  0
  -28.1776  -12.8717   16.9166 C   0  0  0  0  0  0  0  0  0  0  0  0
  -27.1792  -29.1058   20.2191 N   0  0  0  0  0  0  0  0  0  0  0  0
  -30.5186  -19.6428   23.2919 N   0  0  0  0  0  0  0  0  0  0  0  0
  -26.6848  -27.9163   19.8361 N   0  0  0  0  0  0  0  0  0  0  0  0
  -25.9106  -13.6537   19.5839 N   0  0  0  0  0  0  0  0  0  0  0  0
  -29.0526  -24.9148   19.9784 N   0  0  0  0  0  0  0  0  0  0  0  0
  -28.1028  -22.9269   20.9098 N   0  0  0  0  0  0  0  0  0  0  0  0
  -24.6686  -26.6949   19.6043 N   0  0  0  0  0  0  0  0  0  0  0  0
  -23.2915  -30.6831   21.2151 N   0  0  0  0  0  0  0  0  0  0  0  0
  -23.9319  -10.9701   21.0601 N   0  0  0  0  0  0  0  0  0  0  0  0
  -27.2626  -15.2311   16.9113 N   0  0  0  0  0  0  0  0  0  0  0  0
  -27.2350  -18.8433   17.0499 N   0  3  0  0  0  0  0  0  0  0  0  0
  -22.5933  -28.6039   20.5454 O   0  0  0  0  0  0  0  0  0  0  0  0
  -26.1579  -11.2575   20.4398 O   0  0  0  0  0  0  0  0  0  0  0  0
  -25.2354  -13.2630   17.3867 O   0  0  0  0  0  0  0  0  0  0  0  0
  -28.4293  -16.6428   18.3337 O   0  0  0  0  0  0  0  0  0  0  0  0
  -29.0631  -22.9250   18.8139 O   0  0  0  0  0  0  0  0  0  0  0  0
  -26.5425  -35.0328   22.4584 O   0  0  0  0  0  0  0  0  0  0  0  0
  -28.0191  -15.5993   25.0541 O   0  0  0  0  0  0  0  0  0  1  0  0
  -23.6682  -36.4074   26.9587 F   0  0  0  0  0  0  0  0  0  0  0  0
  -27.8215  -35.9310   24.7388 F   0  0  0  0  0  0  0  0  0  0  0  0
  1  2  1  0  0  0  0
  1  5  2  0  0  0  0
  2  6  2  0  0  0  0
  3  8  2  0  0  0  0
  3 17  1  0  0  0  0
  4  9  1  0  0  0  0
  4 17  2  0  0  0  0
  5 19  1  0  0  0  0
  6 21  1  0  0  0  0
  7 10  2  0  0  0  0
  7 20  1  0  0  0  0
  8 24  1  0  0  0  0
  9 24  2  0  0  0  0
 10 25  1  0  0  0  0
 11 12  2  0  0  0  0
 11 26  1  0  0  0  0
 12 27  1  0  0  0  0
 13 22  1  0  0  0  0
 13 25  2  0  0  0  0
 14 23  1  0  0  0  0
 14 30  2  0  0  0  0
 15 23  2  0  0  0  0
 15 31  1  0  0  0  0
 16 27  2  0  0  0  0
 16 28  1  0  0  0  0
 17 29  1  0  0  0  0
 18 29  1  0  0  0  0
 18 32  2  0  0  0  0
 18 33  1  0  0  0  0
 19 21  2  0  0  0  0
 19 38  1  0  0  0  0
 20 22  2  0  0  0  0
 20 39  1  0  0  0  0
 21 51  1  0  0  0  0
 22 40  1  0  0  0  0
 23 64  1  0  0  0  0
 24 84  1  0  0  0  0
 25 85  1  0  0  0  0
 26 28  2  0  0  0  0
 26 84  1  0  0  0  0
 27 86  1  0  0  0  0
 28 87  1  0  0  0  0
 29 68  2  0  0  0  0
 30 52  1  0  0  0  0
 30 69  1  0  0  0  0
 31 62  1  0  0  0  0
 31 69  2  0  0  0  0
 32 70  1  0  0  0  0
 32 74  1  0  0  0  0
 33 75  1  0  0  0  0
 33 79  2  0  0  0  0
 34 53  1  0  0  0  0
 34 76  1  0  0  0  0
 34 80  2  0  0  0  0
 35 65  1  0  0  0  0
 35 71  1  0  0  0  0
 35 81  2  0  0  0  0
 36 66  1  0  0  0  0
 36 77  1  0  0  0  0
 36 82  2  0  0  0  0
 37 72  1  0  0  0  0
 37 73  1  0  0  0  0
 37 83  2  0  0  0  0
 38 41  1  0  0  0  0
 39 53  1  0  0  0  0
 40 71  1  0  0  0  0
 41 43  1  0  0  0  0
 42 44  1  0  0  0  0
 42 47  1  0  0  0  0
 43 51  1  0  0  0  0
 44 54  1  0  0  0  0
 45 48  1  0  0  0  0
 45 52  1  0  0  0  0
 46 49  1  0  0  0  0
 46 52  1  0  0  0  0
 47 72  1  0  0  0  0
 48 73  1  0  0  0  0
 49 73  1  0  0  0  0
 50 54  1  0  0  0  0
 50 72  1  0  0  0  0
 51 76  1  0  0  0  0
 53 71  1  0  0  0  0
 54 70  1  0  0  0  0
 55 62  1  0  0  0  0
 56 64  1  0  0  0  0
 57 66  1  0  0  0  0
 58 67  1  0  0  0  0
 59 67  1  0  0  0  0
 60 67  1  0  0  0  0
 61 78  1  0  0  0  0
 63 64  1  0  0  0  0
 63 85  1  0  0  0  0
 65 67  1  0  0  0  0
 65 77  1  0  0  0  0
 66 78  1  0  0  0  0
 68 70  1  0  0  0  0
M  CHG  1  78   1
M  ISO  4  37 100  63 101  73 100  85 101
M  END
> <Batch ID>
0091

> <Smiles>
CCc1cc(C(C)[101CH2:1][101O:1]c2ccc3c(c2)CN(C(=O)C(NC(=O)C(C)NC)C(C)(C)C)C(C(=O)NC2CCCc4ccccc42)C3)cc(C2CC[100N:0]([100C:0](=O)N3CCCC(n4nc(-c5ccc(Oc6ccc(F)cc6F)cc5)c(C(N)=O)c4N)C3)CC2)n1

> <Shape>
0.253

> <Color>
0.084

> <Negative vol penalty>
0.000

$$$$

  -OEChem-04052319113D

 91 99  0     1  0  0  0  0  0999 V2000
  -25.3630  -18.2744   12.9921 C   0  0  0  0  0  0  0  0  0  0  0  0
  -25.8932  -17.1201   13.5573 C   0  0  0  0  0  0  0  0  0  0  0  0
  -26.2753  -27.9342   18.9084 C   0  0  0  0  0  0  0  0  0  0  0  0
  -25.9430  -26.8018   21.0165 C   0  0  0  0  0  0  0  0  0  0  0  0
  -24.8539  -19.2778   13.8138 C   0  0  0  0  0  0  0  0  0  0  0  0
  -25.9036  -16.9635   14.9437 C   0  0  0  0  0  0  0  0  0  0  0  0
  -28.2455  -12.5353   18.4126 C   0  0  0  0  0  0  0  0  0  0  0  0
  -25.1017  -28.6597   19.1130 C   0  0  0  0  0  0  0  0  0  0  0  0
  -24.7693  -27.5273   21.2212 C   0  0  0  0  0  0  0  0  0  0  0  0
  -29.4472  -12.2671   19.0666 C   0  0  0  0  0  0  0  0  0  0  0  0
  -21.8760  -29.3412   22.4689 C   0  0  0  0  0  0  0  0  0  0  0  0
  -21.6653  -29.8920   23.7329 C   0  0  0  0  0  0  0  0  0  0  0  0
  -28.5179  -13.1343   21.1169 C   0  0  0  0  0  0  0  0  0  0  0  0
  -31.0439  -15.8215   19.0721 C   0  0  0  0  0  0  0  0  0  0  0  0
  -23.6949  -31.1834   23.5085 C   0  0  0  0  0  0  0  0  0  0  0  0
  -26.6959  -27.0052   19.8601 C   0  0  0  0  0  0  0  0  0  0  0  0
  -29.2097  -26.6136   20.0470 C   0  0  0  0  0  0  0  0  0  0  0  0
  -24.8698  -19.1381   15.2114 C   0  0  0  0  0  0  0  0  0  0  0  0
  -27.1728  -13.1160   19.1044 C   0  0  0  0  0  0  0  0  0  0  0  0
  -25.3726  -17.9545   15.7891 C   0  0  0  0  0  0  0  0  0  0  0  0
  -27.3028  -13.4064   20.4700 C   0  0  0  0  0  0  0  0  0  0  0  0
  -32.3264  -15.5707   19.5468 C   0  0  0  0  0  0  0  0  0  0  0  0
  -33.1276  -16.6288   19.9614 C   0  0  0  0  0  0  0  0  0  0  0  0
  -24.3487  -28.4563   20.2694 C   0  0  0  0  0  0  0  0  0  0  0  0
  -29.5845  -12.5693   20.4183 C   0  0  0  0  0  0  0  0  0  0  0  0
  -22.9962  -29.7114   21.7247 C   0  0  0  0  0  0  0  0  0  0  0  0
  -22.5747  -30.8131   24.2528 C   0  0  0  0  0  0  0  0  0  0  0  0
  -23.9056  -30.6325   22.2445 C   0  0  0  0  0  0  0  0  0  0  0  0
  -27.9079  -26.2551   19.6490 C   0  0  0  0  0  0  0  0  0  0  0  0
  -30.6129  -17.1377   19.0324 C   0  0  0  0  0  0  0  0  0  0  0  0
  -32.6034  -17.9089   19.8817 C   0  0  0  0  0  0  0  0  0  0  0  0
  -29.9989  -25.5758   19.6149 C   0  0  0  0  0  0  0  0  0  0  0  0
  -29.6650  -27.7803   20.7450 C   0  0  0  0  0  0  0  0  0  0  0  0
  -25.5426  -15.8322   18.8436 C   0  0  0  0  0  0  0  0  0  0  0  0
  -23.7003  -14.4941   21.1540 C   0  0  0  0  0  0  0  0  0  0  0  0
  -23.4418  -12.2626   23.7231 C   0  0  0  0  0  0  0  0  0  0  0  0
  -28.8021  -19.8856   18.5929 C   0  0  0  0  0  0  0  0  0  0  0  0
  -24.2987  -20.2518   16.0531 C   0  0  0  0  0  0  0  0  0  0  0  0
  -25.8741  -13.3743   18.3910 C   0  0  0  0  0  0  0  0  0  0  0  0
  -26.1744  -14.0118   21.2629 C   0  0  0  0  0  0  0  0  0  0  0  0
  -24.7550  -20.1919   17.5073 C   0  0  0  0  0  0  0  0  0  0  0  0
  -30.2330  -22.2119   16.2184 C   0  0  0  0  0  0  0  0  0  0  0  0
  -24.5564  -18.7873   18.0569 C   0  0  0  0  0  0  0  0  0  0  0  0
  -29.9162  -23.5546   16.8794 C   0  0  0  0  0  0  0  0  0  0  0  0
  -29.0941  -21.2160   16.4163 C   0  0  0  0  0  0  0  0  0  0  0  0
  -28.3979  -22.3291   18.5019 C   0  0  0  0  0  0  0  0  0  0  0  0
  -25.4224  -17.7755   17.2957 C   0  0  1  0  0  0  0  0  0  0  0  0
  -25.0212  -14.4413   19.0702 C   0  0  1  0  0  0  0  0  0  0  0  0
  -29.5206  -23.3724   18.3567 C   0  0  2  0  0  0  0  0  0  0  0  0
  -21.8231  -11.4216   25.4464 C   0  0  0  0  0  0  0  0  0  0  0  0
  -35.8094  -14.2086   23.4545 C   0  0  0  0  0  0  0  0  0  0  0  0
  -36.8357  -14.5271   21.1949 C   0  0  0  0  0  0  0  0  0  0  0  0
  -31.5361  -13.1992   23.1470 C   0  0  0  0  0  0  0  0  0  0  0  0
  -34.7285  -19.2006   19.4802 C   0  0  0  0  0  0  0  0  0  0  0  0
  -33.8184  -18.9716   21.8159 C   0  0  0  0  0  0  0  0  0  0  0  0
  -32.7089  -20.4738   20.1746 C   0  0  0  0  0  0  0  0  0  0  0  0
  -24.1246  -17.0351   22.7889 C   0  0  0  0  0  0  0  0  0  0  0  0
  -23.3227  -15.7877   24.8062 C   0  0  0  0  0  0  0  0  0  0  0  0
  -21.7966  -16.1243   22.8618 C   0  0  0  0  0  0  0  0  0  0  0  0
  -23.5449   -9.5086   22.6444 C   0  0  0  0  0  0  0  0  0  0  0  0
  -32.8236  -14.1481   19.5990 C   0  0  0  0  0  0  0  0  0  0  0  0
  -34.5066  -16.3897   20.4775 C   0  0  0  0  0  0  0  0  0  0  0  0
  -29.2416  -17.4443   18.5300 C   0  0  0  0  0  0  0  0  0  0  0  0
  -32.8299  -13.5457   21.0115 C   0  0  0  0  0  0  0  0  0  0  0  0
  -34.5112  -15.4505   21.6979 C   0  0  0  0  0  0  0  0  0  0  0  0
  -23.7147  -14.4891   22.6635 C   0  0  1  0  0  0  0  0  0  0  0  0
  -22.3881  -11.2195   24.0491 C   0  0  2  0  0  0  0  0  0  0  0  0
  -35.9166  -15.1460   22.2490 C   0  0  0  0  0  0  0  0  0  0  0  0
  -31.4379  -13.4189   21.6427 C   0  0  1  0  0  0  0  0  0  1  0  0
  -33.4157  -19.0858   20.3138 C   0  0  0  0  0  0  0  0  0  0  0  0
  -23.2618  -15.8494   23.2650 C   0  0  0  0  0  0  0  0  0  0  0  0
  -27.8680  -25.0814   19.0128 N   0  0  0  0  0  0  0  0  0  0  0  0
  -31.3623  -18.1917   19.4263 N   0  0  0  0  0  0  0  0  0  0  0  0
  -29.1547  -24.6933   19.0077 N   0  0  0  0  0  0  0  0  0  0  0  0
  -24.9267  -14.2516   20.5191 N   0  0  0  0  0  0  0  0  0  0  0  0
  -28.7792  -21.0745   17.8449 N   0  0  0  0  0  0  0  0  0  0  0  0
  -31.3257  -25.3412   19.6989 N   0  0  0  0  0  0  0  0  0  0  0  0
  -28.7213  -28.7481   21.1152 N   0  0  0  0  0  0  0  0  0  0  0  0
  -25.0527  -16.4376   17.7021 N   0  0  0  0  0  0  0  0  0  0  0  0
  -22.8986  -13.3522   23.0757 N   0  0  0  0  0  0  0  0  0  0  0  0
  -29.1668  -18.7411   17.8945 N   0  0  0  0  0  0  0  0  0  0  0  0
  -22.9729   -9.8509   23.9720 N   0  3  0  0  0  0  0  0  0  0  0  0
  -30.8751  -27.9671   21.0174 O   0  0  0  0  0  0  0  0  0  0  0  0
  -26.3298  -16.3205   19.6457 O   0  0  0  0  0  0  0  0  0  0  0  0
  -22.6387  -14.6983   20.5600 O   0  0  0  0  0  0  0  0  0  0  0  0
  -24.6273  -12.1262   24.0169 O   0  0  0  0  0  0  0  0  0  0  0  0
  -28.5232  -19.8476   19.7962 O   0  0  0  0  0  0  0  0  0  0  0  0
  -23.2036  -29.1642   20.4696 O   0  0  0  0  0  0  0  0  0  0  0  0
  -30.7567  -12.3092   21.0589 O   0  0  0  0  0  0  0  0  0  1  0  0
  -22.3714  -31.3432   25.4660 F   0  0  0  0  0  0  0  0  0  0  0  0
  -24.9829  -30.9929   21.5337 F   0  0  0  0  0  0  0  0  0  0  0  0
  1  2  1  0  0  0  0
  1  5  2  0  0  0  0
  2  6  2  0  0  0  0
  3  8  2  0  0  0  0
  3 16  1  0  0  0  0
  4  9  1  0  0  0  0
  4 16  2  0  0  0  0
  5 18  1  0  0  0  0
  6 20  1  0  0  0  0
  7 10  2  0  0  0  0
  7 19  1  0  0  0  0
  8 24  1  0  0  0  0
  9 24  2  0  0  0  0
 10 25  1  0  0  0  0
 11 12  2  0  0  0  0
 11 26  1  0  0  0  0
 12 27  1  0  0  0  0
 13 21  1  0  0  0  0
 13 25  2  0  0  0  0
 14 22  1  0  0  0  0
 14 30  2  0  0  0  0
 15 27  2  0  0  0  0
 15 28  1  0  0  0  0
 16 29  1  0  0  0  0
 17 29  1  0  0  0  0
 17 32  2  0  0  0  0
 17 33  1  0  0  0  0
 18 20  2  0  0  0  0
 18 38  1  0  0  0  0
 19 21  2  0  0  0  0
 19 39  1  0  0  0  0
 20 47  1  0  0  0  0
 21 40  1  0  0  0  0
 22 23  2  0  0  0  0
 22 61  1  0  0  0  0
 23 31  1  0  0  0  0
 23 62  1  0  0  0  0
 24 88  1  0  0  0  0
 25 89  1  0  0  0  0
 26 28  2  0  0  0  0
 26 88  1  0  0  0  0
 27 90  1  0  0  0  0
 28 91  1  0  0  0  0
 29 72  2  0  0  0  0
 30 63  1  0  0  0  0
 30 73  1  0  0  0  0
 31 70  1  0  0  0  0
 31 73  2  0  0  0  0
 32 74  1  0  0  0  0
 32 77  1  0  0  0  0
 33 78  1  0  0  0  0
 33 83  2  0  0  0  0
 34 48  1  0  0  0  0
 34 79  1  0  0  0  0
 34 84  2  0  0  0  0
 35 66  1  0  0  0  0
 35 75  1  0  0  0  0
 35 85  2  0  0  0  0
 36 67  1  0  0  0  0
 36 80  1  0  0  0  0
 36 86  2  0  0  0  0
 37 76  1  0  0  0  0
 37 81  1  0  0  0  0
 37 87  2  0  0  0  0
 38 41  1  0  0  0  0
 39 48  1  0  0  0  0
 40 75  1  0  0  0  0
 41 43  1  0  0  0  0
 42 44  1  0  0  0  0
 42 45  1  0  0  0  0
 43 47  1  0  0  0  0
 44 49  1  0  0  0  0
 45 76  1  0  0  0  0
 46 49  1  0  0  0  0
 46 76  1  0  0  0  0
 47 79  1  0  0  0  0
 48 75  1  0  0  0  0
 49 74  1  0  0  0  0
 50 67  1  0  0  0  0
 51 68  1  0  0  0  0
 52 68  1  0  0  0  0
 53 69  1  0  0  0  0
 54 70  1  0  0  0  0
 55 70  1  0  0  0  0
 56 70  1  0  0  0  0
 57 71  1  0  0  0  0
 58 71  1  0  0  0  0
 59 71  1  0  0  0  0
 60 82  1  0  0  0  0
 61 64  1  0  0  0  0
 62 65  1  0  0  0  0
 63 81  1  0  0  0  0
 64 69  1  0  0  0  0
 65 68  1  0  0  0  0
 66 71  1  0  0  0  0
 66 80  1  0  0  0  0
 67 82  1  0  0  0  0
 69 89  1  0  0  0  0
 72 74  1  0  0  0  0
M  CHG  1  82   1
M  ISO  4  37 100  69 101  81 100  89 101
M  END
> <Batch ID>
0091

> <Smiles>
CNC(C)C(=O)NC(C(=O)N1Cc2cc([101O:1][101CH:1](C)CCc3cc(C[100NH:0][100C:0](=O)N4CCCC(n5nc(-c6ccc(Oc7ccc(F)cc7F)cc6)c(C(N)=O)c5N)C4)nc(C(C)(C)C)c3CCC(C)C)ccc2CC1C(=O)NC1CCCc2ccccc21)C(C)(C)C

> <Shape>
0.238

> <Color>
0.068

> <Negative vol penalty>
0.000

$$$$

  -OEChem-04052319113D

 87 95  0     1  0  0  0  0  0999 V2000
  -27.5602  -24.1597   17.4754 C   0  0  0  0  0  0  0  0  0  0  0  0
  -26.3920  -24.5041   18.1478 C   0  0  0  0  0  0  0  0  0  0  0  0
  -26.8124  -12.7586   20.1984 C   0  0  0  0  0  0  0  0  0  0  0  0
  -24.4773  -13.3786   20.2065 C   0  0  0  0  0  0  0  0  0  0  0  0
  -28.7918  -24.6194   17.9398 C   0  0  0  0  0  0  0  0  0  0  0  0
  -26.4548  -25.3076   19.2857 C   0  0  0  0  0  0  0  0  0  0  0  0
  -22.9449  -28.9580   19.2827 C   0  0  0  0  0  0  0  0  0  0  0  0
  -22.3391  -24.5043   22.6108 C   0  0  0  0  0  0  0  0  0  0  0  0
  -21.3487  -25.4745   22.7636 C   0  0  0  0  0  0  0  0  0  0  0  0
  -26.5108  -11.6128   20.9343 C   0  0  0  0  0  0  0  0  0  0  0  0
  -24.1756  -12.2327   20.9424 C   0  0  0  0  0  0  0  0  0  0  0  0
  -21.6437  -28.5905   19.6229 C   0  0  0  0  0  0  0  0  0  0  0  0
  -23.7584   -8.9319   20.3497 C   0  0  0  0  0  0  0  0  0  0  0  0
  -22.6537   -8.1795   19.9508 C   0  0  0  0  0  0  0  0  0  0  0  0
  -21.9935  -29.4398   21.8535 C   0  0  0  0  0  0  0  0  0  0  0  0
  -20.6404  -22.8330   22.2128 C   0  0  0  0  0  0  0  0  0  0  0  0
  -21.6332   -8.5317   22.1122 C   0  0  0  0  0  0  0  0  0  0  0  0
  -25.7957  -13.6416   19.8345 C   0  0  0  0  0  0  0  0  0  0  0  0
  -26.1355  -14.9533   17.6731 C   0  0  0  0  0  0  0  0  0  0  0  0
  -28.8689  -25.4369   19.0784 C   0  0  0  0  0  0  0  0  0  0  0  0
  -23.7852  -29.5603   20.2301 C   0  0  0  0  0  0  0  0  0  0  0  0
  -27.6888  -25.7776   19.7666 C   0  0  0  0  0  0  0  0  0  0  0  0
  -23.3041  -29.8163   21.5221 C   0  0  0  0  0  0  0  0  0  0  0  0
  -21.9850  -23.1835   22.3353 C   0  0  0  0  0  0  0  0  0  0  0  0
  -20.0042  -25.1240   22.6411 C   0  0  0  0  0  0  0  0  0  0  0  0
  -19.6500  -23.8032   22.3656 C   0  0  0  0  0  0  0  0  0  0  0  0
  -25.1924  -11.3497   21.3063 C   0  0  0  0  0  0  0  0  0  0  0  0
  -21.1688  -28.8287   20.9093 C   0  0  0  0  0  0  0  0  0  0  0  0
  -23.8006   -9.4842   21.6299 C   0  0  0  0  0  0  0  0  0  0  0  0
  -21.5911   -7.9794   20.8320 C   0  0  0  0  0  0  0  0  0  0  0  0
  -22.7380   -9.2841   22.5111 C   0  0  0  0  0  0  0  0  0  0  0  0
  -26.1067  -14.8257   19.0748 C   0  0  0  0  0  0  0  0  0  0  0  0
  -26.4819  -16.2643   17.4547 C   0  0  0  0  0  0  0  0  0  0  0  0
  -25.8725  -13.9743   16.6592 C   0  0  0  0  0  0  0  0  0  0  0  0
  -26.5545  -28.7872   21.5855 C   0  0  0  0  0  0  0  0  0  0  0  0
  -26.3134  -31.7593   22.8626 C   0  0  0  0  0  0  0  0  0  0  0  0
  -24.3081  -34.3610   23.7882 C   0  0  0  0  0  0  0  0  0  0  0  0
  -25.8993  -21.2370   20.7386 C   0  0  0  0  0  0  0  0  0  0  0  0
  -30.2272  -25.8707   19.5700 C   0  0  0  0  0  0  0  0  0  0  0  0
  -25.1772  -29.9751   19.8396 C   0  0  0  0  0  0  0  0  0  0  0  0
  -24.1594  -30.4786   22.5700 C   0  0  0  0  0  0  0  0  0  0  0  0
  -30.1740  -27.0262   20.5660 C   0  0  0  0  0  0  0  0  0  0  0  0
  -28.9193  -19.8732   19.4361 C   0  0  0  0  0  0  0  0  0  0  0  0
  -29.1061  -26.7699   21.6246 C   0  0  0  0  0  0  0  0  0  0  0  0
  -28.5435  -18.4364   19.0694 C   0  0  0  0  0  0  0  0  0  0  0  0
  -28.2068  -20.3365   20.7049 C   0  0  0  0  0  0  0  0  0  0  0  0
  -26.3643  -18.7468   20.3157 C   0  0  0  0  0  0  0  0  0  0  0  0
  -27.7138  -26.6677   20.9902 C   0  0  1  0  0  0  0  0  0  0  0  0
  -26.1164  -30.1144   21.0337 C   0  0  1  0  0  0  0  0  0  0  0  0
  -27.0149  -18.2539   19.0118 C   0  0  2  0  0  0  0  0  0  0  0  0
  -24.3952  -36.6382   24.8390 C   0  0  0  0  0  0  0  0  0  0  0  0
  -17.7062  -21.1583   23.2481 C   0  0  0  0  0  0  0  0  0  0  0  0
  -18.3019  -23.0447   24.7679 C   0  0  0  0  0  0  0  0  0  0  0  0
  -16.0834  -23.0201   23.5999 C   0  0  0  0  0  0  0  0  0  0  0  0
  -26.7023  -30.4768   25.6038 C   0  0  0  0  0  0  0  0  0  0  0  0
  -25.8452  -32.5902   26.6369 C   0  0  0  0  0  0  0  0  0  0  0  0
  -27.9343  -32.6281   25.2743 C   0  0  0  0  0  0  0  0  0  0  0  0
  -23.1913  -35.6478   21.3683 C   0  0  0  0  0  0  0  0  0  0  0  0
  -23.0440  -22.1463   22.1724 C   0  0  0  0  0  0  0  0  0  0  0  0
  -18.9515  -26.1900   22.8116 C   0  0  0  0  0  0  0  0  0  0  0  0
  -18.2170  -23.4045   22.2304 C   0  0  0  0  0  0  0  0  0  0  0  0
  -18.3378  -26.6661   21.4931 C   0  0  0  0  0  0  0  0  0  0  0  0
  -23.5349  -21.9910   20.7280 C   0  0  0  0  0  0  0  0  0  0  0  0
  -19.3432  -27.3431   20.5689 C   0  0  0  0  0  0  0  0  0  1  0  0
  -25.7051  -32.3376   24.1175 C   0  0  1  0  0  0  0  0  0  0  0  0
  -24.4148  -35.8542   23.5360 C   0  0  2  0  0  0  0  0  0  0  0  0
  -17.5777  -22.6817   23.4599 C   0  0  0  0  0  0  0  0  0  0  0  0
  -26.5310  -31.9939   25.3892 C   0  0  0  0  0  0  0  0  0  0  0  0
  -26.4108  -15.9648   19.7026 N   0  0  0  0  0  0  0  0  0  0  0  0
  -26.6340  -16.8205   18.6907 N   0  0  0  0  0  0  0  0  0  0  0  0
  -25.5153  -30.8599   22.1415 N   0  0  0  0  0  0  0  0  0  0  0  0
  -26.7604  -20.1380   20.5847 N   0  0  0  0  0  0  0  0  0  0  0  0
  -26.6683  -16.9840   16.3279 N   0  0  0  0  0  0  0  0  0  0  0  0
  -25.5297  -12.6751   17.0578 N   0  0  0  0  0  0  0  0  0  0  0  0
  -27.2068  -27.9846   20.6691 N   0  0  0  0  0  0  0  0  0  0  0  0
  -25.5498  -33.7676   23.8742 N   0  0  0  0  0  0  0  0  0  0  0  0
  -24.5439  -20.9629   20.6031 N   0  0  0  0  0  0  0  0  0  0  0  0
  -23.2790  -36.3192   22.6906 N   0  3  0  0  0  0  0  0  0  0  0  0
  -25.9555  -14.2394   15.4360 O   0  0  0  0  0  0  0  0  0  0  0  0
  -26.3195  -28.5124   22.7564 O   0  0  0  0  0  0  0  0  0  0  0  0
  -27.4519  -32.0987   22.5306 O   0  0  0  0  0  0  0  0  0  0  0  0
  -23.2311  -33.7799   23.9015 O   0  0  0  0  0  0  0  0  0  0  0  0
  -26.3085  -22.3791   20.9736 O   0  0  0  0  0  0  0  0  0  0  0  0
  -24.8976  -10.2316   22.0242 O   0  0  0  0  0  0  0  0  0  0  0  0
  -19.8995  -28.4704   21.2442 O   0  0  0  0  0  0  0  0  0  1  0  0
  -20.5297   -7.2582   20.4482 F   0  0  0  0  0  0  0  0  0  0  0  0
  -22.7723   -9.8132   23.7419 F   0  0  0  0  0  0  0  0  0  0  0  0
  1  2  1  0  0  0  0
  1  5  2  0  0  0  0
  2  6  2  0  0  0  0
  3 10  2  0  0  0  0
  3 18  1  0  0  0  0
  4 11  1  0  0  0  0
  4 18  2  0  0  0  0
  5 20  1  0  0  0  0
  6 22  1  0  0  0  0
  7 12  2  0  0  0  0
  7 21  1  0  0  0  0
  8  9  2  0  0  0  0
  8 24  1  0  0  0  0
  9 25  1  0  0  0  0
 10 27  1  0  0  0  0
 11 27  2  0  0  0  0
 12 28  1  0  0  0  0
 13 14  2  0  0  0  0
 13 29  1  0  0  0  0
 14 30  1  0  0  0  0
 15 23  1  0  0  0  0
 15 28  2  0  0  0  0
 16 24  2  0  0  0  0
 16 26  1  0  0  0  0
 17 30  2  0  0  0  0
 17 31  1  0  0  0  0
 18 32  1  0  0  0  0
 19 32  1  0  0  0  0
 19 33  2  0  0  0  0
 19 34  1  0  0  0  0
 20 22  2  0  0  0  0
 20 39  1  0  0  0  0
 21 23  2  0  0  0  0
 21 40  1  0  0  0  0
 22 48  1  0  0  0  0
 23 41  1  0  0  0  0
 24 59  1  0  0  0  0
 25 26  2  0  0  0  0
 25 60  1  0  0  0  0
 26 61  1  0  0  0  0
 27 84  1  0  0  0  0
 28 85  1  0  0  0  0
 29 31  2  0  0  0  0
 29 84  1  0  0  0  0
 30 86  1  0  0  0  0
 31 87  1  0  0  0  0
 32 69  2  0  0  0  0
 33 70  1  0  0  0  0
 33 73  1  0  0  0  0
 34 74  1  0  0  0  0
 34 79  2  0  0  0  0
 35 49  1  0  0  0  0
 35 75  1  0  0  0  0
 35 80  2  0  0  0  0
 36 65  1  0  0  0  0
 36 71  1  0  0  0  0
 36 81  2  0  0  0  0
 37 66  1  0  0  0  0
 37 76  1  0  0  0  0
 37 82  2  0  0  0  0
 38 72  1  0  0  0  0
 38 77  1  0  0  0  0
 38 83  2  0  0  0  0
 39 42  1  0  0  0  0
 40 49  1  0  0  0  0
 41 71  1  0  0  0  0
 42 44  1  0  0  0  0
 43 45  1  0  0  0  0
 43 46  1  0  0  0  0
 44 48  1  0  0  0  0
 45 50  1  0  0  0  0
 46 72  1  0  0  0  0
 47 50  1  0  0  0  0
 47 72  1  0  0  0  0
 48 75  1  0  0  0  0
 49 71  1  0  0  0  0
 50 70  1  0  0  0  0
 51 66  1  0  0  0  0
 52 67  1  0  0  0  0
 53 67  1  0  0  0  0
 54 67  1  0  0  0  0
 55 68  1  0  0  0  0
 56 68  1  0  0  0  0
 57 68  1  0  0  0  0
 58 78  1  0  0  0  0
 59 63  1  0  0  0  0
 60 62  1  0  0  0  0
 61 67  1  0  0  0  0
 62 64  1  0  0  0  0
 63 77  1  0  0  0  0
 64 85  1  0  0  0  0
 65 68  1  0  0  0  0
 65 76  1  0  0  0  0
 66 78  1  0  0  0  0
 69 70  1  0  0  0  0
M  CHG  1  78   1
M  ISO  4  38 100  64 101  77 100  85 101
M  END
> <Batch ID>
0091

> <Smiles>
CNC(C)C(=O)NC(C(=O)N1Cc2cc([101O:1][101CH2:1]CCc3ccc(CC[100NH:0][100C:0](=O)N4CCCC(n5nc(-c6ccc(Oc7ccc(F)cc7F)cc6)c(C(N)=O)c5N)C4)cc3CC(C)(C)C)ccc2CC1C(=O)NC1CCCc2ccccc21)C(C)(C)C

> <Shape>
0.309

> <Color>
0.083

> <Negative vol penalty>
0.000

$$$$

  -OEChem-04052319113D

 85 93  0     1  0  0  0  0  0999 V2000
  -27.8891  -25.1509   16.1438 C   0  0  0  0  0  0  0  0  0  0  0  0
  -26.7133  -25.3152   16.8690 C   0  0  0  0  0  0  0  0  0  0  0  0
  -27.8207  -14.7018   19.6974 C   0  0  0  0  0  0  0  0  0  0  0  0
  -25.5615  -14.8846   18.8610 C   0  0  0  0  0  0  0  0  0  0  0  0
  -29.1011  -25.5914   16.6739 C   0  0  0  0  0  0  0  0  0  0  0  0
  -26.7490  -25.9192   18.1253 C   0  0  0  0  0  0  0  0  0  0  0  0
  -23.0545  -29.3261   18.7484 C   0  0  0  0  0  0  0  0  0  0  0  0
  -27.5182  -13.4538   20.2420 C   0  0  0  0  0  0  0  0  0  0  0  0
  -25.2589  -13.6366   19.4056 C   0  0  0  0  0  0  0  0  0  0  0  0
  -21.7786  -28.8380   19.0273 C   0  0  0  0  0  0  0  0  0  0  0  0
  -23.7886  -10.6599   20.8845 C   0  0  0  0  0  0  0  0  0  0  0  0
  -22.5858  -10.5297   21.5786 C   0  0  0  0  0  0  0  0  0  0  0  0
  -22.1124  -29.3197   21.3673 C   0  0  0  0  0  0  0  0  0  0  0  0
  -19.6768  -23.5321   19.1076 C   0  0  0  0  0  0  0  0  0  0  0  0
  -20.2102  -24.8575   21.0557 C   0  0  0  0  0  0  0  0  0  0  0  0
  -23.3023  -12.2293   23.1390 C   0  0  0  0  0  0  0  0  0  0  0  0
  -26.8424  -15.4173   19.0070 C   0  0  0  0  0  0  0  0  0  0  0  0
  -27.6528  -16.9740   17.1557 C   0  0  0  0  0  0  0  0  0  0  0  0
  -29.1502  -26.2099   17.9332 C   0  0  0  0  0  0  0  0  0  0  0  0
  -23.8744  -29.8054   19.7801 C   0  0  0  0  0  0  0  0  0  0  0  0
  -27.9629  -26.3672   18.6733 C   0  0  0  0  0  0  0  0  0  0  0  0
  -23.3973  -29.8157   21.0986 C   0  0  0  0  0  0  0  0  0  0  0  0
  -20.5211  -23.8167   20.1807 C   0  0  0  0  0  0  0  0  0  0  0  0
  -18.5216  -24.2884   18.9093 C   0  0  0  0  0  0  0  0  0  0  0  0
  -19.0550  -25.6138   20.8575 C   0  0  0  0  0  0  0  0  0  0  0  0
  -18.2107  -25.3293   19.7843 C   0  0  0  0  0  0  0  0  0  0  0  0
  -26.2373  -12.9212   20.0960 C   0  0  0  0  0  0  0  0  0  0  0  0
  -21.3085  -28.8321   20.3373 C   0  0  0  0  0  0  0  0  0  0  0  0
  -24.7484  -11.5747   21.3177 C   0  0  0  0  0  0  0  0  0  0  0  0
  -22.3426  -11.3145   22.7058 C   0  0  0  0  0  0  0  0  0  0  0  0
  -24.5052  -12.3594   22.4449 C   0  0  0  0  0  0  0  0  0  0  0  0
  -27.1542  -16.7068   18.4448 C   0  0  0  0  0  0  0  0  0  0  0  0
  -27.7784  -18.3411   17.1128 C   0  0  0  0  0  0  0  0  0  0  0  0
  -27.9737  -16.0676   16.0921 C   0  0  0  0  0  0  0  0  0  0  0  0
  -26.6973  -28.9653   20.9757 C   0  0  0  0  0  0  0  0  0  0  0  0
  -26.3186  -31.6647   22.7342 C   0  0  0  0  0  0  0  0  0  0  0  0
  -24.1930  -33.9643   24.0909 C   0  0  0  0  0  0  0  0  0  0  0  0
  -25.0628  -22.7802   20.0743 C   0  0  0  0  0  0  0  0  0  0  0  0
  -30.4904  -26.6271   18.4852 C   0  0  0  0  0  0  0  0  0  0  0  0
  -25.2379  -30.3533   19.4592 C   0  0  0  0  0  0  0  0  0  0  0  0
  -24.2304  -30.3380   22.2394 C   0  0  0  0  0  0  0  0  0  0  0  0
  -30.3900  -27.5953   19.6611 C   0  0  0  0  0  0  0  0  0  0  0  0
  -28.5590  -22.1202   19.9412 C   0  0  0  0  0  0  0  0  0  0  0  0
  -29.3505  -27.1089   20.6659 C   0  0  0  0  0  0  0  0  0  0  0  0
  -28.6404  -20.6821   19.4262 C   0  0  0  0  0  0  0  0  0  0  0  0
  -27.3633  -22.3204   20.8697 C   0  0  0  0  0  0  0  0  0  0  0  0
  -26.1462  -20.4690   19.7904 C   0  0  0  0  0  0  0  0  0  0  0  0
  -27.9573  -27.0401   20.0288 C   0  0  1  0  0  0  0  0  0  0  0  0
  -26.1838  -30.3408   20.6561 C   0  0  1  0  0  0  0  0  0  0  0  0
  -27.3041  -20.2322   18.8057 C   0  0  2  0  0  0  0  0  0  0  0  0
  -17.6336  -23.9625   17.7531 C   0  0  0  0  0  0  0  0  0  0  0  0
  -15.8563  -25.7511   20.5360 C   0  0  0  0  0  0  0  0  0  0  0  0
  -21.4338  -21.5281   20.6842 C   0  0  0  0  0  0  0  0  0  0  0  0
  -24.1751  -36.0350   25.5084 C   0  0  0  0  0  0  0  0  0  0  0  0
  -26.8087  -29.9644   25.2199 C   0  0  0  0  0  0  0  0  0  0  0  0
  -25.8563  -31.8264   26.5962 C   0  0  0  0  0  0  0  0  0  0  0  0
  -27.9230  -32.2031   25.2510 C   0  0  0  0  0  0  0  0  0  0  0  0
  -22.9799  -35.5763   21.9255 C   0  0  0  0  0  0  0  0  0  0  0  0
  -18.7414  -26.7346   21.8187 C   0  0  0  0  0  0  0  0  0  0  0  0
  -16.9719  -26.1397   19.5718 C   0  0  0  0  0  0  0  0  0  0  0  0
  -22.7560  -23.0907   19.2131 C   0  0  0  0  0  0  0  0  0  0  0  0
  -19.8638  -27.7639   21.8953 C   0  0  0  0  0  0  0  0  0  1  0  0
  -21.7564  -23.0085   20.3923 C   0  0  1  0  0  0  0  0  0  0  0  0
  -25.6972  -31.9917   24.0706 C   0  0  1  0  0  0  0  0  0  0  0  0
  -24.2187  -35.4821   24.0923 C   0  0  2  0  0  0  0  0  0  0  0  0
  -26.5561  -31.4847   25.2634 C   0  0  0  0  0  0  0  0  0  0  0  0
  -26.9754  -17.8150   19.1685 N   0  0  0  0  0  0  0  0  0  0  0  0
  -27.3639  -18.7920   18.3314 N   0  0  0  0  0  0  0  0  0  0  0  0
  -25.5591  -30.8574   21.8756 N   0  0  0  0  0  0  0  0  0  0  0  0
  -26.1275  -21.8758   20.2208 N   0  0  0  0  0  0  0  0  0  0  0  0
  -28.2020  -19.1895   16.1519 N   0  0  0  0  0  0  0  0  0  0  0  0
  -27.7849  -14.6952   16.3042 N   0  0  0  0  0  0  0  0  0  0  0  0
  -27.3786  -28.3633   19.9351 N   0  0  0  0  0  0  0  0  0  0  0  0
  -25.4648  -33.4320   24.0713 N   0  0  0  0  0  0  0  0  0  0  0  0
  -23.9309  -22.2796   19.4427 N   0  0  0  0  0  0  0  0  0  0  0  0
  -23.0496  -36.0207   23.3413 N   0  3  0  0  0  0  0  0  0  0  0  0
  -28.4302  -16.4618   14.9923 O   0  0  0  0  0  0  0  0  0  0  0  0
  -26.4919  -28.4864   22.0848 O   0  0  0  0  0  0  0  0  0  0  0  0
  -27.4336  -32.1151   22.4593 O   0  0  0  0  0  0  0  0  0  0  0  0
  -23.1491  -33.3158   24.1093 O   0  0  0  0  0  0  0  0  0  0  0  0
  -25.1189  -23.9489   20.4717 O   0  0  0  0  0  0  0  0  0  0  0  0
  -25.9418  -11.7033   20.6270 O   0  0  0  0  0  0  0  0  0  0  0  0
  -20.0639  -28.3556   20.6123 O   0  0  0  0  0  0  0  0  0  1  0  0
  -21.1868  -11.1905   23.3713 F   0  0  0  0  0  0  0  0  0  0  0  0
  -25.4230  -13.2409   22.8652 F   0  0  0  0  0  0  0  0  0  0  0  0
  1  2  1  0  0  0  0
  1  5  2  0  0  0  0
  2  6  2  0  0  0  0
  3  8  2  0  0  0  0
  3 17  1  0  0  0  0
  4  9  1  0  0  0  0
  4 17  2  0  0  0  0
  5 19  1  0  0  0  0
  6 21  1  0  0  0  0
  7 10  2  0  0  0  0
  7 20  1  0  0  0  0
  8 27  1  0  0  0  0
  9 27  2  0  0  0  0
 10 28  1  0  0  0  0
 11 12  2  0  0  0  0
 11 29  1  0  0  0  0
 12 30  1  0  0  0  0
 13 22  1  0  0  0  0
 13 28  2  0  0  0  0
 14 23  1  0  0  0  0
 14 24  2  0  0  0  0
 15 23  2  0  0  0  0
 15 25  1  0  0  0  0
 16 30  2  0  0  0  0
 16 31  1  0  0  0  0
 17 32  1  0  0  0  0
 18 32  1  0  0  0  0
 18 33  2  0  0  0  0
 18 34  1  0  0  0  0
 19 21  2  0  0  0  0
 19 39  1  0  0  0  0
 20 22  2  0  0  0  0
 20 40  1  0  0  0  0
 21 48  1  0  0  0  0
 22 41  1  0  0  0  0
 23 63  1  0  0  0  0
 24 26  1  0  0  0  0
 24 51  1  0  0  0  0
 25 26  2  0  0  0  0
 25 59  1  0  0  0  0
 26 60  1  0  0  0  0
 27 82  1  0  0  0  0
 28 83  1  0  0  0  0
 29 31  2  0  0  0  0
 29 82  1  0  0  0  0
 30 84  1  0  0  0  0
 31 85  1  0  0  0  0
 32 67  2  0  0  0  0
 33 68  1  0  0  0  0
 33 71  1  0  0  0  0
 34 72  1  0  0  0  0
 34 77  2  0  0  0  0
 35 49  1  0  0  0  0
 35 73  1  0  0  0  0
 35 78  2  0  0  0  0
 36 64  1  0  0  0  0
 36 69  1  0  0  0  0
 36 79  2  0  0  0  0
 37 65  1  0  0  0  0
 37 74  1  0  0  0  0
 37 80  2  0  0  0  0
 38 70  1  0  0  0  0
 38 75  1  0  0  0  0
 38 81  2  0  0  0  0
 39 42  1  0  0  0  0
 40 49  1  0  0  0  0
 41 69  1  0  0  0  0
 42 44  1  0  0  0  0
 43 45  1  0  0  0  0
 43 46  1  0  0  0  0
 44 48  1  0  0  0  0
 45 50  1  0  0  0  0
 46 70  1  0  0  0  0
 47 50  1  0  0  0  0
 47 70  1  0  0  0  0
 48 73  1  0  0  0  0
 49 69  1  0  0  0  0
 50 68  1  0  0  0  0
 52 60  1  0  0  0  0
 53 63  1  0  0  0  0
 54 65  1  0  0  0  0
 55 66  1  0  0  0  0
 56 66  1  0  0  0  0
 57 66  1  0  0  0  0
 58 76  1  0  0  0  0
 59 62  1  0  0  0  0
 61 63  1  0  0  0  0
 61 75  1  0  0  0  0
 62 83  1  0  0  0  0
 64 66  1  0  0  0  0
 64 74  1  0  0  0  0
 65 76  1  0  0  0  0
 67 68  1  0  0  0  0
M  CHG  1  76   1
M  ISO  4  38 100  62 101  75 100  83 101
M  END
> <Batch ID>
0091

> <Smiles>
CCc1c(C)cc(C(C)C[100NH:0][100C:0](=O)N2CCCC(n3nc(-c4ccc(Oc5ccc(F)cc5F)cc4)c(C(N)=O)c3N)C2)cc1C[101CH2:1][101O:1]c1ccc2c(c1)CN(C(=O)C(NC(=O)C(C)NC)C(C)(C)C)C(C(=O)NC1CCCc3ccccc31)C2

> <Shape>
0.280

> <Color>
0.075

> <Negative vol penalty>
0.000

$$$$

  -OEChem-04052319113D

 83 91  0     1  0  0  0  0  0999 V2000
  -15.6453  -26.4726   24.2600 C   0  0  0  0  0  0  0  0  0  0  0  0
  -16.4522  -25.9134   23.2743 C   0  0  0  0  0  0  0  0  0  0  0  0
  -28.8665  -15.6139   20.1324 C   0  0  0  0  0  0  0  0  0  0  0  0
  -28.1780  -15.2963   22.4263 C   0  0  0  0  0  0  0  0  0  0  0  0
  -15.8421  -27.7959   24.6525 C   0  0  0  0  0  0  0  0  0  0  0  0
  -17.4557  -26.6775   22.6798 C   0  0  0  0  0  0  0  0  0  0  0  0
  -21.8257  -24.1539   22.2557 C   0  0  0  0  0  0  0  0  0  0  0  0
  -29.5239  -14.3840   20.1594 C   0  0  0  0  0  0  0  0  0  0  0  0
  -28.8354  -14.0664   22.4534 C   0  0  0  0  0  0  0  0  0  0  0  0
  -21.9276  -23.2269   21.2193 C   0  0  0  0  0  0  0  0  0  0  0  0
  -30.0281  -10.6778   23.0127 C   0  0  0  0  0  0  0  0  0  0  0  0
  -29.3572   -9.5954   23.5818 C   0  0  0  0  0  0  0  0  0  0  0  0
  -23.1568  -24.8363   19.9086 C   0  0  0  0  0  0  0  0  0  0  0  0
  -31.4134  -23.0956   18.9138 C   0  0  0  0  0  0  0  0  0  0  0  0
  -30.4605  -22.2588   16.8702 C   0  0  0  0  0  0  0  0  0  0  0  0
  -27.5936   -9.8291   21.9470 C   0  0  0  0  0  0  0  0  0  0  0  0
  -28.1936  -16.0701   21.2659 C   0  0  0  0  0  0  0  0  0  0  0  0
  -26.1776  -17.5825   20.8710 C   0  0  0  0  0  0  0  0  0  0  0  0
  -16.8548  -28.5737   24.0693 C   0  0  0  0  0  0  0  0  0  0  0  0
  -22.3800  -25.4350   22.1218 C   0  0  0  0  0  0  0  0  0  0  0  0
  -17.6653  -28.0129   23.0639 C   0  0  0  0  0  0  0  0  0  0  0  0
  -23.0628  -25.7769   20.9458 C   0  0  0  0  0  0  0  0  0  0  0  0
  -31.5681  -22.6866   17.5939 C   0  0  0  0  0  0  0  0  0  0  0  0
  -29.5083  -13.6102   21.3199 C   0  0  0  0  0  0  0  0  0  0  0  0
  -22.5907  -23.5690   20.0445 C   0  0  0  0  0  0  0  0  0  0  0  0
  -29.4818  -11.3359   21.9109 C   0  0  0  0  0  0  0  0  0  0  0  0
  -28.1400   -9.1710   23.0489 C   0  0  0  0  0  0  0  0  0  0  0  0
  -28.2646  -10.9116   21.3780 C   0  0  0  0  0  0  0  0  0  0  0  0
  -27.5148  -17.3408   21.2387 C   0  0  0  0  0  0  0  0  0  0  0  0
  -30.1402  -23.0582   19.4594 C   0  0  0  0  0  0  0  0  0  0  0  0
  -29.2300  -22.2589   17.5072 C   0  0  0  0  0  0  0  0  0  0  0  0
  -26.0224  -18.9398   21.0132 C   0  0  0  0  0  0  0  0  0  0  0  0
  -25.1661  -16.6625   20.4396 C   0  0  0  0  0  0  0  0  0  0  0  0
  -29.9178  -23.4786   20.8488 C   0  0  0  0  0  0  0  0  0  0  0  0
  -21.2172  -28.3932   22.1190 C   0  0  0  0  0  0  0  0  0  0  0  0
  -24.3553  -29.2095   22.0295 C   0  0  0  0  0  0  0  0  0  0  0  0
  -27.5551  -28.3336   21.2289 C   0  0  0  0  0  0  0  0  0  0  0  0
  -16.9987  -30.0141   24.4928 C   0  0  0  0  0  0  0  0  0  0  0  0
  -22.2847  -26.4144   23.2594 C   0  0  0  0  0  0  0  0  0  0  0  0
  -23.6929  -27.1322   20.7601 C   0  0  0  0  0  0  0  0  0  0  0  0
  -18.3277  -30.6407   24.0791 C   0  0  0  0  0  0  0  0  0  0  0  0
  -27.6851  -22.6671   23.5131 C   0  0  0  0  0  0  0  0  0  0  0  0
  -18.6410  -30.3148   22.6222 C   0  0  0  0  0  0  0  0  0  0  0  0
  -27.2765  -21.2245   23.2099 C   0  0  0  0  0  0  0  0  0  0  0  0
  -29.1388  -22.9334   23.1304 C   0  0  0  0  0  0  0  0  0  0  0  0
  -29.0693  -21.1455   21.4265 C   0  0  0  0  0  0  0  0  0  0  0  0
  -18.7805  -28.8021   22.4130 C   0  0  1  0  0  0  0  0  0  0  0  0
  -22.4404  -27.8650   22.8135 C   0  0  1  0  0  0  0  0  0  0  0  0
  -27.5957  -20.8493   21.7505 C   0  0  1  0  0  0  0  0  0  0  0  0
  -32.9162  -22.7062   16.9576 C   0  0  0  0  0  0  0  0  0  0  0  0
  -30.0527  -28.5238   21.0776 C   0  0  0  0  0  0  0  0  0  0  0  0
  -23.0358  -20.8295   16.7778 C   0  0  0  0  0  0  0  0  0  0  0  0
  -23.7141  -30.9103   19.5787 C   0  0  0  0  0  0  0  0  0  0  0  0
  -26.1663  -30.9924   19.0805 C   0  0  0  0  0  0  0  0  0  0  0  0
  -25.2928  -31.9725   21.2016 C   0  0  0  0  0  0  0  0  0  0  0  0
  -27.9286  -27.0573   23.8729 C   0  0  0  0  0  0  0  0  0  0  0  0
  -28.0072  -21.7985   16.7543 C   0  0  0  0  0  0  0  0  0  0  0  0
  -26.7167  -21.8485   17.5822 C   0  0  0  0  0  0  0  0  0  0  0  0
  -25.4840  -21.3885   16.7933 C   0  0  0  0  0  0  0  0  0  0  0  0
  -23.8430  -22.7554   18.1936 C   0  0  0  0  0  0  0  0  0  1  0  0
  -25.3641  -29.4594   20.9346 C   0  0  1  0  0  0  0  0  0  0  0  0
  -28.8533  -28.4387   22.0087 C   0  0  2  0  0  0  0  0  0  0  0  0
  -24.1904  -21.3712   17.6308 C   0  0  1  0  0  0  0  0  0  0  0  0
  -25.1209  -30.8087   20.2013 C   0  0  0  0  0  0  0  0  0  0  0  0
  -28.1630  -18.4551   21.5881 N   0  0  0  0  0  0  0  0  0  0  0  0
  -29.0407  -22.6490   18.7877 N   0  0  0  0  0  0  0  0  0  0  0  0
  -27.2292  -19.4102   21.4405 N   0  0  0  0  0  0  0  0  0  0  0  0
  -29.3880  -22.5450   21.7427 N   0  0  0  0  0  0  0  0  0  0  0  0
  -23.5674  -28.0572   21.8986 N   0  0  0  0  0  0  0  0  0  0  0  0
  -24.9728  -19.7649   20.8131 N   0  0  0  0  0  0  0  0  0  0  0  0
  -25.4943  -15.3029   20.3491 N   0  0  0  0  0  0  0  0  0  0  0  0
  -20.0689  -28.3431   22.8861 N   0  0  0  0  0  0  0  0  0  0  0  0
  -26.6787  -29.3462   21.5571 N   0  0  0  0  0  0  0  0  0  0  0  0
  -29.0259  -27.2495   22.8901 N   0  3  0  0  0  0  0  0  0  0  0  0
  -24.0104  -17.0372   20.1274 O   0  0  0  0  0  0  0  0  0  0  0  0
  -30.2092  -24.6431   21.1175 O   0  0  0  0  0  0  0  0  0  0  0  0
  -21.3086  -28.8164   20.9726 O   0  0  0  0  0  0  0  0  0  0  0  0
  -24.2744  -30.0036   22.9700 O   0  0  0  0  0  0  0  0  0  0  0  0
  -27.3414  -27.4444   20.4078 O   0  0  0  0  0  0  0  0  0  0  0  0
  -30.1495  -12.4099   21.3466 O   0  0  0  0  0  0  0  0  0  0  0  0
  -22.6911  -22.6662   19.0311 O   0  0  0  0  0  0  0  0  0  1  0  0
  -27.4965   -8.1306   23.5945 F   0  0  0  0  0  0  0  0  0  0  0  0
  -27.7353  -11.5391   20.3188 F   0  0  0  0  0  0  0  0  0  0  0  0
  1  2  1  0  0  0  0
  1  5  2  0  0  0  0
  2  6  2  0  0  0  0
  3  8  2  0  0  0  0
  3 17  1  0  0  0  0
  4  9  1  0  0  0  0
  4 17  2  0  0  0  0
  5 19  1  0  0  0  0
  6 21  1  0  0  0  0
  7 10  2  0  0  0  0
  7 20  1  0  0  0  0
  8 24  1  0  0  0  0
  9 24  2  0  0  0  0
 10 25  1  0  0  0  0
 11 12  2  0  0  0  0
 11 26  1  0  0  0  0
 12 27  1  0  0  0  0
 13 22  1  0  0  0  0
 13 25  2  0  0  0  0
 14 23  1  0  0  0  0
 14 30  2  0  0  0  0
 15 23  2  0  0  0  0
 15 31  1  0  0  0  0
 16 27  2  0  0  0  0
 16 28  1  0  0  0  0
 17 29  1  0  0  0  0
 18 29  1  0  0  0  0
 18 32  2  0  0  0  0
 18 33  1  0  0  0  0
 19 21  2  0  0  0  0
 19 38  1  0  0  0  0
 20 22  2  0  0  0  0
 20 39  1  0  0  0  0
 21 47  1  0  0  0  0
 22 40  1  0  0  0  0
 23 50  1  0  0  0  0
 24 80  1  0  0  0  0
 25 81  1  0  0  0  0
 26 28  2  0  0  0  0
 26 80  1  0  0  0  0
 27 82  1  0  0  0  0
 28 83  1  0  0  0  0
 29 65  2  0  0  0  0
 30 34  1  0  0  0  0
 30 66  1  0  0  0  0
 31 57  1  0  0  0  0
 31 66  2  0  0  0  0
 32 67  1  0  0  0  0
 32 70  1  0  0  0  0
 33 71  1  0  0  0  0
 33 75  2  0  0  0  0
 34 68  1  0  0  0  0
 34 76  2  0  0  0  0
 35 48  1  0  0  0  0
 35 72  1  0  0  0  0
 35 77  2  0  0  0  0
 36 61  1  0  0  0  0
 36 69  1  0  0  0  0
 36 78  2  0  0  0  0
 37 62  1  0  0  0  0
 37 73  1  0  0  0  0
 37 79  2  0  0  0  0
 38 41  1  0  0  0  0
 39 48  1  0  0  0  0
 40 69  1  0  0  0  0
 41 43  1  0  0  0  0
 42 44  1  0  0  0  0
 42 45  1  0  0  0  0
 43 47  1  0  0  0  0
 44 49  1  0  0  0  0
 45 68  1  0  0  0  0
 46 49  1  0  0  0  0
 46 68  1  0  0  0  0
 47 72  1  0  0  0  0
 48 69  1  0  0  0  0
 49 67  1  0  0  0  0
 51 62  1  0  0  0  0
 52 63  1  0  0  0  0
 53 64  1  0  0  0  0
 54 64  1  0  0  0  0
 55 64  1  0  0  0  0
 56 74  1  0  0  0  0
 57 58  1  0  0  0  0
 58 59  1  0  0  0  0
 59 63  1  0  0  0  0
 60 63  1  0  0  0  0
 60 81  1  0  0  0  0
 61 64  1  0  0  0  0
 61 73  1  0  0  0  0
 62 74  1  0  0  0  0
 65 67  1  0  0  0  0
M  CHG  1  74   1
M  ISO  4  30 100  34 100  60 101  81 101
M  END
> <Batch ID>
0091

> <Smiles>
CNC(C)C(=O)NC(C(=O)N1Cc2cc([101O:1][101CH2:1]C(C)CCCc3cc(C)c[100c:0]([100C:0](=O)N4CCCC(n5nc(-c6ccc(Oc7ccc(F)cc7F)cc6)c(C(N)=O)c5N)C4)n3)ccc2CC1C(=O)NC1CCCc2ccccc21)C(C)(C)C

> <Shape>
0.214

> <Color>
0.061

> <Negative vol penalty>
0.000

$$$$

  -OEChem-04052319113D

 88 96  0     1  0  0  0  0  0999 V2000
  -28.3128  -27.9275   14.5425 C   0  0  0  0  0  0  0  0  0  0  0  0
  -27.5327  -26.7942   14.7488 C   0  0  0  0  0  0  0  0  0  0  0  0
  -23.1116   -9.8956   19.9459 C   0  0  0  0  0  0  0  0  0  0  0  0
  -23.9070   -9.9023   22.2272 C   0  0  0  0  0  0  0  0  0  0  0  0
  -28.8165  -28.6338   15.6340 C   0  0  0  0  0  0  0  0  0  0  0  0
  -27.2568  -26.3659   16.0468 C   0  0  0  0  0  0  0  0  0  0  0  0
  -22.3941  -25.1031   16.6833 C   0  0  0  0  0  0  0  0  0  0  0  0
  -22.3936   -8.7269   20.1996 C   0  0  0  0  0  0  0  0  0  0  0  0
  -23.1890   -8.7337   22.4810 C   0  0  0  0  0  0  0  0  0  0  0  0
  -21.9896  -23.8613   16.1952 C   0  0  0  0  0  0  0  0  0  0  0  0
  -23.0330   -5.4181   20.4595 C   0  0  0  0  0  0  0  0  0  0  0  0
  -23.1046   -4.3960   19.5131 C   0  0  0  0  0  0  0  0  0  0  0  0
  -22.1353  -22.9454   18.4222 C   0  0  0  0  0  0  0  0  0  0  0  0
  -20.7121   -4.5188   19.1996 C   0  0  0  0  0  0  0  0  0  0  0  0
  -27.2489  -17.4100   18.0663 C   0  0  0  0  0  0  0  0  0  0  0  0
  -23.8683  -10.4833   20.9596 C   0  0  0  0  0  0  0  0  0  0  0  0
  -24.1605  -13.0152   20.8512 C   0  0  0  0  0  0  0  0  0  0  0  0
  -28.5385  -28.2194   16.9462 C   0  0  0  0  0  0  0  0  0  0  0  0
  -22.6833  -25.2729   18.0449 C   0  0  0  0  0  0  0  0  0  0  0  0
  -27.7583  -27.0665   17.1568 C   0  0  0  0  0  0  0  0  0  0  0  0
  -22.5408  -24.1910   18.9254 C   0  0  0  0  0  0  0  0  0  0  0  0
  -22.4323   -8.1460   21.4672 C   0  0  0  0  0  0  0  0  0  0  0  0
  -21.8629  -22.7815   17.0642 C   0  0  0  0  0  0  0  0  0  0  0  0
  -21.8009   -5.9906   20.7760 C   0  0  0  0  0  0  0  0  0  0  0  0
  -21.9442   -3.9463   18.8831 C   0  0  0  0  0  0  0  0  0  0  0  0
  -20.6405   -5.5409   20.1460 C   0  0  0  0  0  0  0  0  0  0  0  0
  -24.6107  -11.6901   20.6979 C   0  0  0  0  0  0  0  0  0  0  0  0
  -28.1574  -17.8730   18.9757 C   0  0  0  0  0  0  0  0  0  0  0  0
  -25.2325  -13.7875   20.4760 C   0  0  0  0  0  0  0  0  0  0  0  0
  -26.6370  -19.4516   18.6645 C   0  0  0  0  0  0  0  0  0  0  0  0
  -22.8872  -13.5041   21.2932 C   0  0  0  0  0  0  0  0  0  0  0  0
  -25.2713  -26.0790   19.7049 C   0  0  0  0  0  0  0  0  0  0  0  0
  -23.2019  -26.0486   22.2027 C   0  0  0  0  0  0  0  0  0  0  0  0
  -20.2738  -24.8979   23.5252 C   0  0  0  0  0  0  0  0  0  0  0  0
  -30.8330  -14.6027   21.0116 C   0  0  0  0  0  0  0  0  0  0  0  0
  -29.1443  -28.9880   18.0938 C   0  0  0  0  0  0  0  0  0  0  0  0
  -23.0927  -26.6255   18.5601 C   0  0  0  0  0  0  0  0  0  0  0  0
  -22.8195  -24.3260   20.3993 C   0  0  0  0  0  0  0  0  0  0  0  0
  -28.4945  -28.6835   19.4411 C   0  0  0  0  0  0  0  0  0  0  0  0
  -29.5679  -12.5519   18.2017 C   0  0  0  0  0  0  0  0  0  0  0  0
  -28.3320  -27.1783   19.6275 C   0  0  0  0  0  0  0  0  0  0  0  0
  -28.1526  -12.2002   18.6569 C   0  0  0  0  0  0  0  0  0  0  0  0
  -30.5049  -12.7759   19.3848 C   0  0  0  0  0  0  0  0  0  0  0  0
  -28.5984  -13.4363   20.8142 C   0  0  0  0  0  0  0  0  0  0  0  0
  -27.4164  -26.5847   18.5501 C   0  0  1  0  0  0  0  0  0  0  0  0
  -23.8572  -26.5564   19.8784 C   0  0  1  0  0  0  0  0  0  0  0  0
  -27.6178  -13.2498   19.6466 C   0  0  2  0  0  0  0  0  0  0  0  0
  -26.7371  -21.9475   18.3264 C   0  0  0  0  0  0  0  0  0  0  0  0
  -25.3537  -20.9839   20.2006 C   0  0  0  0  0  0  0  0  0  0  0  0
  -18.8685  -25.0171   25.6009 C   0  0  0  0  0  0  0  0  0  0  0  0
  -21.4693  -17.2175   17.6065 C   0  0  0  0  0  0  0  0  0  0  0  0
  -25.1258  -24.1451   23.6117 C   0  0  0  0  0  0  0  0  0  0  0  0
  -23.2795  -23.5663   25.2005 C   0  0  0  0  0  0  0  0  0  0  0  0
  -24.1353  -25.9066   25.0848 C   0  0  0  0  0  0  0  0  0  0  0  0
  -31.2263  -16.8002   22.0584 C   0  0  0  0  0  0  0  0  0  0  0  0
  -17.9982  -26.0902   22.0559 C   0  0  0  0  0  0  0  0  0  0  0  0
  -29.3579  -17.2555   19.5451 C   0  0  0  0  0  0  0  0  0  0  0  0
  -23.8343  -18.0553   17.7502 C   0  0  0  0  0  0  0  0  0  0  0  0
  -22.0953  -19.2772   16.2684 C   0  0  0  0  0  0  0  0  0  0  0  0
  -25.1260  -18.3299   16.9736 C   0  0  0  0  0  0  0  0  0  0  0  0
  -29.1112  -16.4487   20.8383 C   0  0  0  0  0  0  0  0  0  0  0  0
  -21.9562  -20.4144   17.2742 C   0  0  0  0  0  0  0  0  0  1  0  0
  -25.8980  -20.7338   18.7784 C   0  0  0  0  0  0  0  0  0  0  0  0
  -22.7290  -25.0059   23.1866 C   0  0  1  0  0  0  0  0  0  0  0  0
  -19.1355  -25.6151   24.2283 C   0  0  2  0  0  0  0  0  0  0  0  0
  -22.5892  -17.9388   16.8488 C   0  0  2  0  0  0  0  0  0  0  0  0
  -23.8139  -24.6526   24.2429 C   0  0  0  0  0  0  0  0  0  0  0  0
  -25.8704  -11.6210   20.2594 N   0  0  0  0  0  0  0  0  0  0  0  0
  -26.3192  -18.4070   17.8930 N   0  0  0  0  0  0  0  0  0  0  0  0
  -26.2210  -12.9123   20.1338 N   0  0  0  0  0  0  0  0  0  0  0  0
  -27.7543  -19.1384   19.3285 N   0  3  0  0  0  0  0  0  0  0  0  0
  -23.2230  -25.6671   20.8537 N   0  0  0  0  0  0  0  0  0  0  0  0
  -29.9525  -13.7456   20.3312 N   0  0  0  0  0  0  0  0  0  0  0  0
  -25.4165  -15.1232   20.4086 N   0  0  0  0  0  0  0  0  0  0  0  0
  -21.8980  -12.5737   21.6400 N   0  0  0  0  0  0  0  0  0  0  0  0
  -26.0295  -26.8627   18.8561 N   0  0  0  0  0  0  0  0  0  0  0  0
  -21.4854  -25.5149   23.7547 N   0  0  0  0  0  0  0  0  0  0  0  0
  -30.3473  -15.8716   21.3620 N   0  0  0  0  0  0  0  0  0  0  0  0
  -17.8858  -25.5182   23.4223 N   0  3  0  0  0  0  0  0  0  0  0  0
  -22.6287  -14.7296   21.3624 O   0  0  0  0  0  0  0  0  0  0  0  0
  -25.6472  -25.0749   20.2985 O   0  0  0  0  0  0  0  0  0  0  0  0
  -23.5333  -27.1629   22.6150 O   0  0  0  0  0  0  0  0  0  0  0  0
  -20.1056  -23.8889   22.8439 O   0  0  0  0  0  0  0  0  0  0  0  0
  -31.9904  -14.2571   21.2817 O   0  0  0  0  0  0  0  0  0  0  0  0
  -21.7316   -7.0058   21.7152 O   0  0  0  0  0  0  0  0  0  0  0  0
  -21.4689  -21.5682   16.5904 O   0  0  0  0  0  0  0  0  0  1  0  0
  -22.0133   -2.9658   17.9732 F   0  0  0  0  0  0  0  0  0  0  0  0
  -19.4542   -6.0877   20.4451 F   0  0  0  0  0  0  0  0  0  0  0  0
  1  2  1  0  0  0  0
  1  5  2  0  0  0  0
  2  6  2  0  0  0  0
  3  8  2  0  0  0  0
  3 16  1  0  0  0  0
  4  9  1  0  0  0  0
  4 16  2  0  0  0  0
  5 18  1  0  0  0  0
  6 20  1  0  0  0  0
  7 10  2  0  0  0  0
  7 19  1  0  0  0  0
  8 22  1  0  0  0  0
  9 22  2  0  0  0  0
 10 23  1  0  0  0  0
 11 12  2  0  0  0  0
 11 24  1  0  0  0  0
 12 25  1  0  0  0  0
 13 21  1  0  0  0  0
 13 23  2  0  0  0  0
 14 25  2  0  0  0  0
 14 26  1  0  0  0  0
 15 28  2  0  0  0  0
 15 69  1  0  0  0  0
 16 27  1  0  0  0  0
 17 27  1  0  0  0  0
 17 29  2  0  0  0  0
 17 31  1  0  0  0  0
 18 20  2  0  0  0  0
 18 36  1  0  0  0  0
 19 21  2  0  0  0  0
 19 37  1  0  0  0  0
 20 45  1  0  0  0  0
 21 38  1  0  0  0  0
 22 85  1  0  0  0  0
 23 86  1  0  0  0  0
 24 26  2  0  0  0  0
 24 85  1  0  0  0  0
 25 87  1  0  0  0  0
 26 88  1  0  0  0  0
 27 68  2  0  0  0  0
 28 57  1  0  0  0  0
 28 71  1  0  0  0  0
 29 70  1  0  0  0  0
 29 74  1  0  0  0  0
 30 63  1  0  0  0  0
 30 69  1  0  0  0  0
 30 71  2  0  0  0  0
 31 75  1  0  0  0  0
 31 80  2  0  0  0  0
 32 46  1  0  0  0  0
 32 76  1  0  0  0  0
 32 81  2  0  0  0  0
 33 64  1  0  0  0  0
 33 72  1  0  0  0  0
 33 82  2  0  0  0  0
 34 65  1  0  0  0  0
 34 77  1  0  0  0  0
 34 83  2  0  0  0  0
 35 73  1  0  0  0  0
 35 78  1  0  0  0  0
 35 84  2  0  0  0  0
 36 39  1  0  0  0  0
 37 46  1  0  0  0  0
 38 72  1  0  0  0  0
 39 41  1  0  0  0  0
 40 42  1  0  0  0  0
 40 43  1  0  0  0  0
 41 45  1  0  0  0  0
 42 47  1  0  0  0  0
 43 73  1  0  0  0  0
 44 47  1  0  0  0  0
 44 73  1  0  0  0  0
 45 76  1  0  0  0  0
 46 72  1  0  0  0  0
 47 70  1  0  0  0  0
 48 63  1  0  0  0  0
 49 63  1  0  0  0  0
 50 65  1  0  0  0  0
 51 66  1  0  0  0  0
 52 67  1  0  0  0  0
 53 67  1  0  0  0  0
 54 67  1  0  0  0  0
 55 78  1  0  0  0  0
 56 79  1  0  0  0  0
 57 61  1  0  0  0  0
 58 60  1  0  0  0  0
 58 66  1  0  0  0  0
 59 62  1  0  0  0  0
 59 66  1  0  0  0  0
 60 69  1  0  0  0  0
 61 78  1  0  0  0  0
 62 86  1  0  0  0  0
 64 67  1  0  0  0  0
 64 77  1  0  0  0  0
 65 79  1  0  0  0  0
 68 70  1  0  0  0  0
M  CHG  2  71   1  79   1
M  ISO  4  35 100  62 101  78 100  86 101
M  END
> <Batch ID>
0091

> <Smiles>
CNC(C)C(=O)NC(C(=O)N1Cc2cc([101O:1][101CH2:1]CC(C)CCn3cc(CC[100N:0](C)[100C:0](=O)N4CCCC(n5nc(-c6ccc(Oc7ccc(F)cc7F)cc6)c(C(N)=O)c5N)C4)nc3C(C)C)ccc2CC1C(=O)NC1CCCc2ccccc21)C(C)(C)C

> <Shape>
0.212

> <Color>
0.170

> <Negative vol penalty>
0.000

$$$$

  -OEChem-04052319113D

 87 95  0     1  0  0  0  0  0999 V2000
  -24.4183  -11.6063   20.2996 C   0  0  0  0  0  0  0  0  0  0  0  0
  -23.7161  -12.7934   20.4811 C   0  0  0  0  0  0  0  0  0  0  0  0
  -25.3475  -24.7929   16.4367 C   0  0  0  0  0  0  0  0  0  0  0  0
  -22.9468  -25.0564   16.5043 C   0  0  0  0  0  0  0  0  0  0  0  0
  -25.7912  -11.5661   20.5397 C   0  0  0  0  0  0  0  0  0  0  0  0
  -24.3861  -13.9409   20.9039 C   0  0  0  0  0  0  0  0  0  0  0  0
  -23.1732  -19.7205   19.2821 C   0  0  0  0  0  0  0  0  0  0  0  0
  -25.1904  -23.4487   16.0990 C   0  0  0  0  0  0  0  0  0  0  0  0
  -22.7898  -23.7122   16.1665 C   0  0  0  0  0  0  0  0  0  0  0  0
  -22.4597  -20.7408   19.9096 C   0  0  0  0  0  0  0  0  0  0  0  0
  -22.9512  -21.8113   13.3770 C   0  0  0  0  0  0  0  0  0  0  0  0
  -22.0102  -21.4967   12.3967 C   0  0  0  0  0  0  0  0  0  0  0  0
  -24.5182  -21.6177   20.8112 C   0  0  0  0  0  0  0  0  0  0  0  0
  -20.4895  -27.2926   23.1730 C   0  0  0  0  0  0  0  0  0  0  0  0
  -20.8135  -20.1253   13.9854 C   0  0  0  0  0  0  0  0  0  0  0  0
  -24.2257  -25.5968   16.6395 C   0  0  0  0  0  0  0  0  0  0  0  0
  -24.4822  -28.0784   16.1070 C   0  0  0  0  0  0  0  0  0  0  0  0
  -26.4800  -12.7161   20.9564 C   0  0  0  0  0  0  0  0  0  0  0  0
  -24.5657  -19.6347   19.4236 C   0  0  0  0  0  0  0  0  0  0  0  0
  -25.7692  -13.9157   21.1512 C   0  0  0  0  0  0  0  0  0  0  0  0
  -25.2474  -20.5969   20.1824 C   0  0  0  0  0  0  0  0  0  0  0  0
  -20.0724  -26.0814   22.6324 C   0  0  0  0  0  0  0  0  0  0  0  0
  -18.7742  -25.9514   22.1515 C   0  0  0  0  0  0  0  0  0  0  0  0
  -23.9116  -22.9084   15.9638 C   0  0  0  0  0  0  0  0  0  0  0  0
  -23.1319  -21.6879   20.6767 C   0  0  0  0  0  0  0  0  0  0  0  0
  -22.8234  -21.2829   14.6616 C   0  0  0  0  0  0  0  0  0  0  0  0
  -20.9413  -20.6537   12.7008 C   0  0  0  0  0  0  0  0  0  0  0  0
  -21.7546  -20.4399   14.9658 C   0  0  0  0  0  0  0  0  0  0  0  0
  -24.3872  -26.9852   16.9889 C   0  0  0  0  0  0  0  0  0  0  0  0
  -19.5774  -28.3350   23.2093 C   0  0  0  0  0  0  0  0  0  0  0  0
  -17.9389  -27.0537   22.2338 C   0  0  0  0  0  0  0  0  0  0  0  0
  -24.6243  -29.1704   16.9277 C   0  0  0  0  0  0  0  0  0  0  0  0
  -24.4452  -28.1043   14.6739 C   0  0  0  0  0  0  0  0  0  0  0  0
  -26.5687  -17.4866   20.6391 C   0  0  0  0  0  0  0  0  0  0  0  0
  -28.8239  -19.4752   19.4218 C   0  0  0  0  0  0  0  0  0  0  0  0
  -29.6665  -22.6209   18.4013 C   0  0  0  0  0  0  0  0  0  0  0  0
  -23.0394  -30.2404   22.6018 C   0  0  0  0  0  0  0  0  0  0  0  0
  -27.9559  -12.6121   21.2490 C   0  0  0  0  0  0  0  0  0  0  0  0
  -25.3238  -18.5436   18.7185 C   0  0  0  0  0  0  0  0  0  0  0  0
  -26.7438  -20.5610   20.3490 C   0  0  0  0  0  0  0  0  0  0  0  0
  -28.6569  -13.9655   21.3340 C   0  0  0  0  0  0  0  0  0  0  0  0
  -26.3158  -30.4325   21.2215 C   0  0  0  0  0  0  0  0  0  0  0  0
  -27.8489  -14.9321   22.1940 C   0  0  0  0  0  0  0  0  0  0  0  0
  -26.2017  -29.6694   19.9007 C   0  0  0  0  0  0  0  0  0  0  0  0
  -25.4600  -29.7981   22.3156 C   0  0  0  0  0  0  0  0  0  0  0  0
  -23.9276  -28.8429   20.6384 C   0  0  0  0  0  0  0  0  0  0  0  0
  -26.4649  -15.1876   21.5850 C   0  0  1  0  0  0  0  0  0  0  0  0
  -26.6810  -18.2535   19.3519 C   0  0  1  0  0  0  0  0  0  0  0  0
  -24.7295  -29.4777   19.4893 C   0  0  2  0  0  0  0  0  0  0  0  0
  -17.4105  -23.8809   22.5255 C   0  0  0  0  0  0  0  0  0  0  0  0
  -14.4684  -28.2842   21.0731 C   0  0  0  0  0  0  0  0  0  0  0  0
  -31.0650  -24.4468   17.3973 C   0  0  0  0  0  0  0  0  0  0  0  0
  -30.0906  -19.5342   22.1971 C   0  0  0  0  0  0  0  0  0  0  0  0
  -31.3871  -21.5546   21.4861 C   0  0  0  0  0  0  0  0  0  0  0  0
  -31.7228  -19.3813   20.3084 C   0  0  0  0  0  0  0  0  0  0  0  0
  -28.6297  -22.0791   15.6828 C   0  0  0  0  0  0  0  0  0  0  0  0
  -21.0426  -24.9282   22.5822 C   0  0  0  0  0  0  0  0  0  0  0  0
  -18.2997  -24.6649   21.5640 C   0  0  0  0  0  0  0  0  0  0  0  0
  -19.9907  -29.6499   23.7813 C   0  0  0  0  0  0  0  0  0  0  0  0
  -16.5339  -26.9756   21.7323 C   0  0  0  0  0  0  0  0  0  0  0  0
  -15.8867  -28.3630   21.6155 C   0  0  0  0  0  0  0  0  0  0  0  0
  -22.0884  -25.0511   21.4720 C   0  0  0  0  0  0  0  0  0  0  0  0
  -20.5893  -30.6084   22.7454 C   0  0  0  0  0  0  0  0  0  0  0  0
  -23.1158  -23.9252   21.4830 C   0  0  0  0  0  0  0  0  0  1  0  0
  -29.5823  -20.6745   19.9371 C   0  0  1  0  0  0  0  0  0  0  0  0
  -30.3632  -23.1207   17.1486 C   0  0  2  0  0  0  0  0  0  0  0  0
  -30.6673  -20.2860   20.9808 C   0  0  0  0  0  0  0  0  0  0  0  0
  -24.4628  -27.3496   18.2717 N   0  0  0  0  0  0  0  0  0  0  0  0
  -18.3083  -28.2464   22.7520 N   0  0  0  0  0  0  0  0  0  0  0  0
  -24.6069  -28.6839   18.2018 N   0  0  0  0  0  0  0  0  0  0  0  0
  -27.4398  -19.4711   19.6451 N   0  0  0  0  0  0  0  0  0  0  0  0
  -24.0753  -29.6457   21.8626 N   0  0  0  0  0  0  0  0  0  0  0  0
  -24.7613  -30.4897   16.6767 N   0  0  0  0  0  0  0  0  0  0  0  0
  -24.2935  -26.8918   13.9874 N   0  0  0  0  0  0  0  0  0  0  0  0
  -26.5633  -16.1143   20.4777 N   0  0  0  0  0  0  0  0  0  0  0  0
  -30.1035  -21.3638   18.7617 N   0  0  0  0  0  0  0  0  0  0  0  0
  -21.7575  -30.0526   22.0996 N   0  0  0  0  0  0  0  0  0  0  0  0
  -29.3767  -23.3103   16.0478 N   0  3  0  0  0  0  0  0  0  0  0  0
  -24.5601  -29.1692   14.0211 O   0  0  0  0  0  0  0  0  0  0  0  0
  -26.4942  -18.0949   21.7003 O   0  0  0  0  0  0  0  0  0  0  0  0
  -29.4361  -18.5786   18.8362 O   0  0  0  0  0  0  0  0  0  0  0  0
  -28.8219  -23.2813   19.0022 O   0  0  0  0  0  0  0  0  0  0  0  0
  -23.2425  -30.8950   23.6299 O   0  0  0  0  0  0  0  0  0  0  0  0
  -23.7580  -21.5968   15.6340 O   0  0  0  0  0  0  0  0  0  0  0  0
  -22.4378  -22.6844   21.2908 O   0  0  0  0  0  0  0  0  0  1  0  0
  -20.0369  -20.3529   11.7597 F   0  0  0  0  0  0  0  0  0  0  0  0
  -21.6258  -19.9301   16.1984 F   0  0  0  0  0  0  0  0  0  0  0  0
  1  2  1  0  0  0  0
  1  5  2  0  0  0  0
  2  6  2  0  0  0  0
  3  8  2  0  0  0  0
  3 16  1  0  0  0  0
  4  9  1  0  0  0  0
  4 16  2  0  0  0  0
  5 18  1  0  0  0  0
  6 20  1  0  0  0  0
  7 10  2  0  0  0  0
  7 19  1  0  0  0  0
  8 24  1  0  0  0  0
  9 24  2  0  0  0  0
 10 25  1  0  0  0  0
 11 12  2  0  0  0  0
 11 26  1  0  0  0  0
 12 27  1  0  0  0  0
 13 21  1  0  0  0  0
 13 25  2  0  0  0  0
 14 22  2  0  0  0  0
 14 30  1  0  0  0  0
 15 27  2  0  0  0  0
 15 28  1  0  0  0  0
 16 29  1  0  0  0  0
 17 29  1  0  0  0  0
 17 32  2  0  0  0  0
 17 33  1  0  0  0  0
 18 20  2  0  0  0  0
 18 38  1  0  0  0  0
 19 21  2  0  0  0  0
 19 39  1  0  0  0  0
 20 47  1  0  0  0  0
 21 40  1  0  0  0  0
 22 23  1  0  0  0  0
 22 57  1  0  0  0  0
 23 31  2  0  0  0  0
 23 58  1  0  0  0  0
 24 84  1  0  0  0  0
 25 85  1  0  0  0  0
 26 28  2  0  0  0  0
 26 84  1  0  0  0  0
 27 86  1  0  0  0  0
 28 87  1  0  0  0  0
 29 68  2  0  0  0  0
 30 59  1  0  0  0  0
 30 69  2  0  0  0  0
 31 60  1  0  0  0  0
 31 69  1  0  0  0  0
 32 70  1  0  0  0  0
 32 73  1  0  0  0  0
 33 74  1  0  0  0  0
 33 79  2  0  0  0  0
 34 48  1  0  0  0  0
 34 75  1  0  0  0  0
 34 80  2  0  0  0  0
 35 65  1  0  0  0  0
 35 71  1  0  0  0  0
 35 81  2  0  0  0  0
 36 66  1  0  0  0  0
 36 76  1  0  0  0  0
 36 82  2  0  0  0  0
 37 72  1  0  0  0  0
 37 77  1  0  0  0  0
 37 83  2  0  0  0  0
 38 41  1  0  0  0  0
 39 48  1  0  0  0  0
 40 71  1  0  0  0  0
 41 43  1  0  0  0  0
 42 44  1  0  0  0  0
 42 45  1  0  0  0  0
 43 47  1  0  0  0  0
 44 49  1  0  0  0  0
 45 72  1  0  0  0  0
 46 49  1  0  0  0  0
 46 72  1  0  0  0  0
 47 75  1  0  0  0  0
 48 71  1  0  0  0  0
 49 70  1  0  0  0  0
 50 58  1  0  0  0  0
 51 61  1  0  0  0  0
 52 66  1  0  0  0  0
 53 67  1  0  0  0  0
 54 67  1  0  0  0  0
 55 67  1  0  0  0  0
 56 78  1  0  0  0  0
 57 62  1  0  0  0  0
 59 63  1  0  0  0  0
 60 61  1  0  0  0  0
 62 64  1  0  0  0  0
 63 77  1  0  0  0  0
 64 85  1  0  0  0  0
 65 67  1  0  0  0  0
 65 76  1  0  0  0  0
 66 78  1  0  0  0  0
 68 70  1  0  0  0  0
M  CHG  1  78   1
M  ISO  4  37 100  64 101  77 100  85 101
M  END
> <Batch ID>
0091

> <Smiles>
CCCc1nc(CC[100NH:0][100C:0](=O)N2CCCC(n3nc(-c4ccc(Oc5ccc(F)cc5F)cc4)c(C(N)=O)c3N)C2)cc(CC[101CH2:1][101O:1]c2ccc3c(c2)CN(C(=O)C(NC(=O)C(C)NC)C(C)(C)C)C(C(=O)NC2CCCc4ccccc42)C3)c1CC

> <Shape>
0.214

> <Color>
0.080

> <Negative vol penalty>
0.000

$$$$

  -OEChem-04052319113D

 90 98  0     1  0  0  0  0  0999 V2000
  -23.0717  -30.1308   21.1359 C   0  0  0  0  0  0  0  0  0  0  0  0
  -22.5478  -29.0120   20.4962 C   0  0  0  0  0  0  0  0  0  0  0  0
  -24.1257  -15.4927   22.8667 C   0  0  0  0  0  0  0  0  0  0  0  0
  -23.2315  -15.8103   20.6449 C   0  0  0  0  0  0  0  0  0  0  0  0
  -24.4527  -30.2819   21.2541 C   0  0  0  0  0  0  0  0  0  0  0  0
  -23.4047  -28.0441   19.9734 C   0  0  0  0  0  0  0  0  0  0  0  0
  -22.4298  -22.0024   19.7416 C   0  0  0  0  0  0  0  0  0  0  0  0
  -23.3846  -17.5300   15.3511 C   0  0  0  0  0  0  0  0  0  0  0  0
  -23.4372  -16.6236   23.3055 C   0  0  0  0  0  0  0  0  0  0  0  0
  -22.5428  -16.9412   21.0837 C   0  0  0  0  0  0  0  0  0  0  0  0
  -21.9789  -21.1634   18.7235 C   0  0  0  0  0  0  0  0  0  0  0  0
  -22.1997  -19.6354   24.9246 C   0  0  0  0  0  0  0  0  0  0  0  0
  -22.8882  -20.5449   25.7272 C   0  0  0  0  0  0  0  0  0  0  0  0
  -24.1247  -16.4927   14.7948 C   0  0  0  0  0  0  0  0  0  0  0  0
  -24.2630  -20.6330   18.1572 C   0  0  0  0  0  0  0  0  0  0  0  0
  -24.4945  -20.8918   23.9562 C   0  0  0  0  0  0  0  0  0  0  0  0
  -24.0229  -15.0861   21.5364 C   0  0  0  0  0  0  0  0  0  0  0  0
  -24.2714  -12.5888   21.0785 C   0  0  0  0  0  0  0  0  0  0  0  0
  -25.3267  -29.3106   20.7410 C   0  0  0  0  0  0  0  0  0  0  0  0
  -23.8032  -22.1717   19.9685 C   0  0  0  0  0  0  0  0  0  0  0  0
  -24.7987  -28.1830   20.0837 C   0  0  0  0  0  0  0  0  0  0  0  0
  -24.7287  -21.4727   19.1805 C   0  0  0  0  0  0  0  0  0  0  0  0
  -23.6704  -18.8453   15.0026 C   0  0  0  0  0  0  0  0  0  0  0  0
  -22.6457  -17.3478   22.4140 C   0  0  0  0  0  0  0  0  0  0  0  0
  -22.8956  -20.4808   17.9292 C   0  0  0  0  0  0  0  0  0  0  0  0
  -22.6586  -19.3539   23.6378 C   0  0  0  0  0  0  0  0  0  0  0  0
  -24.0356  -21.1732   25.2430 C   0  0  0  0  0  0  0  0  0  0  0  0
  -23.8060  -19.9822   23.1536 C   0  0  0  0  0  0  0  0  0  0  0  0
  -24.7344  -13.9183   21.0823 C   0  0  0  0  0  0  0  0  0  0  0  0
  -25.1322  -16.8211   13.9020 C   0  0  0  0  0  0  0  0  0  0  0  0
  -24.6983  -19.0684   14.1007 C   0  0  0  0  0  0  0  0  0  0  0  0
  -25.3137  -11.8638   20.5544 C   0  0  0  0  0  0  0  0  0  0  0  0
  -23.0119  -12.0568   21.5099 C   0  0  0  0  0  0  0  0  0  0  0  0
  -25.8081  -24.6358   19.8572 C   0  0  0  0  0  0  0  0  0  0  0  0
  -27.9155  -22.4738   21.0434 C   0  0  0  0  0  0  0  0  0  0  0  0
  -29.3882  -19.1852   21.2273 C   0  0  0  0  0  0  0  0  0  0  0  0
  -29.8526  -13.2914   16.9197 C   0  0  0  0  0  0  0  0  0  0  0  0
  -26.8132  -29.5408   20.8511 C   0  0  0  0  0  0  0  0  0  0  0  0
  -24.2730  -23.0596   21.0880 C   0  0  0  0  0  0  0  0  0  0  0  0
  -26.2135  -21.6043   19.3965 C   0  0  0  0  0  0  0  0  0  0  0  0
  -27.6443  -28.2852   20.6004 C   0  0  0  0  0  0  0  0  0  0  0  0
  -30.0838  -11.8937   20.1861 C   0  0  0  0  0  0  0  0  0  0  0  0
  -27.1488  -27.5568   19.3551 C   0  0  0  0  0  0  0  0  0  0  0  0
  -28.6973  -12.1341   20.7859 C   0  0  0  0  0  0  0  0  0  0  0  0
  -30.5211  -13.0526   19.2930 C   0  0  0  0  0  0  0  0  0  0  0  0
  -28.1758  -13.6528   18.8313 C   0  0  0  0  0  0  0  0  0  0  0  0
  -25.6952  -27.0991   19.5254 C   0  0  1  0  0  0  0  0  0  0  0  0
  -25.7027  -23.5562   20.8970 C   0  0  1  0  0  0  0  0  0  0  0  0
  -27.6678  -12.4857   19.6951 C   0  0  2  0  0  0  0  0  0  0  0  0
  -27.8845  -22.9147   14.7146 C   0  0  0  0  0  0  0  0  0  0  0  0
  -21.6325  -20.3085   14.7807 C   0  0  0  0  0  0  0  0  0  0  0  0
  -31.1995  -18.2896   22.7154 C   0  0  0  0  0  0  0  0  0  0  0  0
  -28.2959  -16.4332   13.9009 C   0  0  0  0  0  0  0  0  0  0  0  0
  -29.7731  -23.2054   18.7360 C   0  0  0  0  0  0  0  0  0  0  0  0
  -31.0679  -21.1151   19.2073 C   0  0  0  0  0  0  0  0  0  0  0  0
  -30.9160  -22.9034   20.9398 C   0  0  0  0  0  0  0  0  0  0  0  0
  -26.6565  -12.8404   14.0693 C   0  0  0  0  0  0  0  0  0  0  0  0
  -28.0760  -13.7765   12.2534 C   0  0  0  0  0  0  0  0  0  0  0  0
  -27.6670  -16.9779   22.1888 C   0  0  0  0  0  0  0  0  0  0  0  0
  -25.9453  -15.7326   13.2846 C   0  0  0  0  0  0  0  0  0  0  0  0
  -25.0477  -20.4604   13.6873 C   0  0  0  0  0  0  0  0  0  0  0  0
  -26.6491  -22.4058   13.9892 C   0  0  0  0  0  0  0  0  0  0  0  0
  -26.3188  -20.9671   14.3864 C   0  0  0  0  0  0  0  0  0  0  0  0
  -29.0292  -13.5526   14.5931 C   0  0  0  0  0  0  0  0  0  0  0  0
  -22.8701  -19.9773   15.6051 C   0  0  1  0  0  0  0  0  0  1  0  0
  -28.8839  -21.4839   20.4424 C   0  0  1  0  0  0  0  0  0  0  0  0
  -29.6998  -18.3982   22.4875 C   0  0  2  0  0  0  0  0  0  0  0  0
  -27.2261  -15.3394   14.0869 C   0  0  1  0  0  0  0  0  0  0  0  0
  -30.1323  -22.1757   19.8258 C   0  0  0  0  0  0  0  0  0  0  0  0
  -27.7594  -13.8829   13.7658 C   0  0  0  0  0  0  0  0  0  0  0  0
  -25.9743  -14.0339   20.5993 N   0  0  0  0  0  0  0  0  0  0  0  0
  -25.4391  -18.0867   13.5393 N   0  0  0  0  0  0  0  0  0  0  0  0
  -26.2993  -12.7678   20.2870 N   0  0  0  0  0  0  0  0  0  0  0  0
  -26.6234  -22.4891   20.4995 N   0  0  0  0  0  0  0  0  0  0  0  0
  -29.5019  -13.3342   18.2792 N   0  0  0  0  0  0  0  0  0  0  0  0
  -25.4740  -10.5476   20.3010 N   0  0  0  0  0  0  0  0  0  0  0  0
  -22.0534  -12.9414   22.0229 N   0  0  0  0  0  0  0  0  0  0  0  0
  -25.6323  -25.9135   20.3530 N   0  0  0  0  0  0  0  0  0  0  0  0
  -29.1925  -20.5233   21.4962 N   0  0  0  0  0  0  0  0  0  0  0  0
  -28.8255  -13.5645   16.0246 N   0  0  0  0  0  0  0  0  0  0  0  0
  -29.1382  -17.0212   22.3904 N   0  3  0  0  0  0  0  0  0  0  0  0
  -22.7504  -10.8311   21.4577 O   0  0  0  0  0  0  0  0  0  0  0  0
  -26.0338  -24.3320   18.6917 O   0  0  0  0  0  0  0  0  0  0  0  0
  -28.2896  -23.2015   21.9665 O   0  0  0  0  0  0  0  0  0  0  0  0
  -29.3282  -18.6655   20.1152 O   0  0  0  0  0  0  0  0  0  0  0  0
  -30.9951  -13.0240   16.5322 O   0  0  0  0  0  0  0  0  0  0  0  0
  -21.9735  -18.4513   22.8419 O   0  0  0  0  0  0  0  0  0  0  0  0
  -22.4581  -19.6618   16.9344 O   0  0  0  0  0  0  0  0  0  1  0  0
  -24.6958  -22.0478   26.0134 F   0  0  0  0  0  0  0  0  0  0  0  0
  -24.2510  -19.7167   21.9177 F   0  0  0  0  0  0  0  0  0  0  0  0
  1  2  1  0  0  0  0
  1  5  2  0  0  0  0
  2  6  2  0  0  0  0
  3  9  2  0  0  0  0
  3 17  1  0  0  0  0
  4 10  1  0  0  0  0
  4 17  2  0  0  0  0
  5 19  1  0  0  0  0
  6 21  1  0  0  0  0
  7 11  2  0  0  0  0
  7 20  1  0  0  0  0
  8 14  2  0  0  0  0
  8 23  1  0  0  0  0
  9 24  1  0  0  0  0
 10 24  2  0  0  0  0
 11 25  1  0  0  0  0
 12 13  2  0  0  0  0
 12 26  1  0  0  0  0
 13 27  1  0  0  0  0
 14 30  1  0  0  0  0
 15 22  1  0  0  0  0
 15 25  2  0  0  0  0
 16 27  2  0  0  0  0
 16 28  1  0  0  0  0
 17 29  1  0  0  0  0
 18 29  1  0  0  0  0
 18 32  2  0  0  0  0
 18 33  1  0  0  0  0
 19 21  2  0  0  0  0
 19 38  1  0  0  0  0
 20 22  2  0  0  0  0
 20 39  1  0  0  0  0
 21 47  1  0  0  0  0
 22 40  1  0  0  0  0
 23 31  2  0  0  0  0
 23 65  1  0  0  0  0
 24 87  1  0  0  0  0
 25 88  1  0  0  0  0
 26 28  2  0  0  0  0
 26 87  1  0  0  0  0
 27 89  1  0  0  0  0
 28 90  1  0  0  0  0
 29 71  2  0  0  0  0
 30 60  1  0  0  0  0
 30 72  2  0  0  0  0
 31 61  1  0  0  0  0
 31 72  1  0  0  0  0
 32 73  1  0  0  0  0
 32 76  1  0  0  0  0
 33 77  1  0  0  0  0
 33 82  2  0  0  0  0
 34 48  1  0  0  0  0
 34 78  1  0  0  0  0
 34 83  2  0  0  0  0
 35 66  1  0  0  0  0
 35 74  1  0  0  0  0
 35 84  2  0  0  0  0
 36 67  1  0  0  0  0
 36 79  1  0  0  0  0
 36 85  2  0  0  0  0
 37 75  1  0  0  0  0
 37 80  1  0  0  0  0
 37 86  2  0  0  0  0
 38 41  1  0  0  0  0
 39 48  1  0  0  0  0
 40 74  1  0  0  0  0
 41 43  1  0  0  0  0
 42 44  1  0  0  0  0
 42 45  1  0  0  0  0
 43 47  1  0  0  0  0
 44 49  1  0  0  0  0
 45 75  1  0  0  0  0
 46 49  1  0  0  0  0
 46 75  1  0  0  0  0
 47 78  1  0  0  0  0
 48 74  1  0  0  0  0
 49 73  1  0  0  0  0
 50 62  1  0  0  0  0
 51 65  1  0  0  0  0
 52 67  1  0  0  0  0
 53 68  1  0  0  0  0
 54 69  1  0  0  0  0
 55 69  1  0  0  0  0
 56 69  1  0  0  0  0
 57 70  1  0  0  0  0
 58 70  1  0  0  0  0
 59 81  1  0  0  0  0
 60 68  1  0  0  0  0
 61 63  1  0  0  0  0
 62 63  1  0  0  0  0
 64 70  1  0  0  0  0
 64 80  1  0  0  0  0
 65 88  1  0  0  0  0
 66 69  1  0  0  0  0
 66 79  1  0  0  0  0
 67 81  1  0  0  0  0
 68 70  1  0  0  0  0
 71 73  1  0  0  0  0
M  CHG  1  81   1
M  ISO  4  37 100  65 101  80 100  88 101
M  END
> <Batch ID>
0091

> <Smiles>
CCCCc1nc(CC(C)C(C)(C)C[100NH:0][100C:0](=O)N2CCCC(n3nc(-c4ccc(Oc5ccc(F)cc5F)cc4)c(C(N)=O)c3N)C2)ccc1[101CH:1](C)[101O:1]c1ccc2c(c1)CN(C(=O)C(NC(=O)C(C)NC)C(C)(C)C)C(C(=O)NC1CCCc3ccccc31)C2

> <Shape>
0.204

> <Color>
0.085

> <Negative vol penalty>
0.000

$$$$

  -OEChem-04052319113D

 87 95  0     1  0  0  0  0  0999 V2000
  -27.7275  -22.5439   17.9593 C   0  0  0  0  0  0  0  0  0  0  0  0
  -26.6170  -22.8526   18.7383 C   0  0  0  0  0  0  0  0  0  0  0  0
  -26.8342  -13.6040   20.4077 C   0  0  0  0  0  0  0  0  0  0  0  0
  -24.5842  -14.0388   21.1730 C   0  0  0  0  0  0  0  0  0  0  0  0
  -28.9454  -23.1780   18.2013 C   0  0  0  0  0  0  0  0  0  0  0  0
  -26.7240  -23.7950   19.7605 C   0  0  0  0  0  0  0  0  0  0  0  0
  -22.8453  -27.0504   19.8157 C   0  0  0  0  0  0  0  0  0  0  0  0
  -22.0443  -23.8641   23.5608 C   0  0  0  0  0  0  0  0  0  0  0  0
  -23.0984  -22.9675   23.3859 C   0  0  0  0  0  0  0  0  0  0  0  0
  -26.6973  -12.2632   20.7669 C   0  0  0  0  0  0  0  0  0  0  0  0
  -24.4473  -12.6980   21.5323 C   0  0  0  0  0  0  0  0  0  0  0  0
  -21.6450  -26.6015   20.3650 C   0  0  0  0  0  0  0  0  0  0  0  0
  -23.8314   -9.7570   19.9856 C   0  0  0  0  0  0  0  0  0  0  0  0
  -22.6478   -9.1101   19.6304 C   0  0  0  0  0  0  0  0  0  0  0  0
  -22.1611  -27.7548   22.4199 C   0  0  0  0  0  0  0  0  0  0  0  0
  -20.5839  -22.0322   24.1511 C   0  0  0  0  0  0  0  0  0  0  0  0
  -22.1909   -8.6664   21.9610 C   0  0  0  0  0  0  0  0  0  0  0  0
  -25.7776  -14.4918   20.6108 C   0  0  0  0  0  0  0  0  0  0  0  0
  -25.6084  -16.4606   18.9974 C   0  0  0  0  0  0  0  0  0  0  0  0
  -29.0650  -24.1357   19.2207 C   0  0  0  0  0  0  0  0  0  0  0  0
  -23.7190  -27.8471   20.5694 C   0  0  0  0  0  0  0  0  0  0  0  0
  -27.9450  -24.4416   20.0173 C   0  0  0  0  0  0  0  0  0  0  0  0
  -23.3706  -28.2146   21.8770 C   0  0  0  0  0  0  0  0  0  0  0  0
  -20.7871  -23.3965   23.9435 C   0  0  0  0  0  0  0  0  0  0  0  0
  -22.8952  -21.6032   23.5935 C   0  0  0  0  0  0  0  0  0  0  0  0
  -21.6380  -21.1355   23.9761 C   0  0  0  0  0  0  0  0  0  0  0  0
  -25.5038  -11.8102   21.3292 C   0  0  0  0  0  0  0  0  0  0  0  0
  -21.3041  -26.9513   21.6682 C   0  0  0  0  0  0  0  0  0  0  0  0
  -24.1948   -9.8586   21.3285 C   0  0  0  0  0  0  0  0  0  0  0  0
  -21.8276   -8.5648   20.6180 C   0  0  0  0  0  0  0  0  0  0  0  0
  -23.3745   -9.3133   22.3162 C   0  0  0  0  0  0  0  0  0  0  0  0
  -25.9186  -15.8771   20.2404 C   0  0  0  0  0  0  0  0  0  0  0  0
  -25.9179  -17.7894   19.1550 C   0  0  0  0  0  0  0  0  0  0  0  0
  -25.0869  -15.8555   17.8067 C   0  0  0  0  0  0  0  0  0  0  0  0
  -26.7012  -27.5286   21.6223 C   0  0  0  0  0  0  0  0  0  0  0  0
  -26.2775  -30.5990   22.5791 C   0  0  0  0  0  0  0  0  0  0  0  0
  -24.1141  -33.0849   23.4659 C   0  0  0  0  0  0  0  0  0  0  0  0
  -26.3576  -21.0061   24.3509 C   0  0  0  0  0  0  0  0  0  0  0  0
  -30.4140  -24.7601   19.4756 C   0  0  0  0  0  0  0  0  0  0  0  0
  -24.9974  -28.3454   19.9531 C   0  0  0  0  0  0  0  0  0  0  0  0
  -24.2645  -29.0847   22.7210 C   0  0  0  0  0  0  0  0  0  0  0  0
  -30.3493  -26.0207   20.3340 C   0  0  0  0  0  0  0  0  0  0  0  0
  -28.8096  -20.7091   21.5939 C   0  0  0  0  0  0  0  0  0  0  0  0
  -29.4527  -25.7949   21.5473 C   0  0  0  0  0  0  0  0  0  0  0  0
  -28.3521  -19.4402   20.8765 C   0  0  0  0  0  0  0  0  0  0  0  0
  -28.4461  -20.6854   23.0755 C   0  0  0  0  0  0  0  0  0  0  0  0
  -26.5441  -19.1724   22.6200 C   0  0  0  0  0  0  0  0  0  0  0  0
  -28.0151  -25.4764   21.1192 C   0  0  1  0  0  0  0  0  0  0  0  0
  -26.0512  -28.7259   20.9886 C   0  0  1  0  0  0  0  0  0  0  0  0
  -26.8538  -19.1848   21.1156 C   0  0  2  0  0  0  0  0  0  0  0  0
  -24.0661  -35.4735   24.2341 C   0  0  0  0  0  0  0  0  0  0  0  0
  -19.6424  -16.9751   21.9863 C   0  0  0  0  0  0  0  0  0  0  0  0
  -21.6948  -16.7365   23.3973 C   0  0  0  0  0  0  0  0  0  0  0  0
  -27.1372  -29.7160   25.3704 C   0  0  0  0  0  0  0  0  0  0  0  0
  -26.1746  -31.8471   26.2651 C   0  0  0  0  0  0  0  0  0  0  0  0
  -28.0667  -31.9202   24.6411 C   0  0  0  0  0  0  0  0  0  0  0  0
  -24.4084  -20.7372   25.8368 C   0  0  0  0  0  0  0  0  0  0  0  0
  -22.5748  -33.9404   21.0873 C   0  0  0  0  0  0  0  0  0  0  0  0
  -19.6477  -24.3659   24.1321 C   0  0  0  0  0  0  0  0  0  0  0  0
  -21.3968  -19.6793   24.2037 C   0  0  0  0  0  0  0  0  0  0  0  0
  -24.0385  -20.6622   23.3989 C   0  0  0  0  0  0  0  0  0  0  0  0
  -18.8296  -24.6095   22.8620 C   0  0  0  0  0  0  0  0  0  0  0  0
  -20.6416  -19.0309   23.0295 C   0  0  0  0  0  0  0  0  0  0  0  0
  -19.6326  -25.2612   21.7423 C   0  0  0  0  0  0  0  0  0  1  0  0
  -25.7625  -31.2673   23.8310 C   0  0  1  0  0  0  0  0  0  0  0  0
  -24.0184  -34.5377   23.0362 C   0  0  2  0  0  0  0  0  0  0  0  0
  -20.3963  -17.5204   23.2018 C   0  0  0  0  0  0  0  0  0  0  0  0
  -26.7691  -31.1696   25.0119 C   0  0  0  0  0  0  0  0  0  0  0  0
  -26.3893  -16.7627   21.1225 N   0  0  0  0  0  0  0  0  0  0  0  0
  -26.3772  -17.9161   20.4329 N   0  0  0  0  0  0  0  0  0  0  0  0
  -25.5065  -29.5416   22.0759 N   0  0  0  0  0  0  0  0  0  0  0  0
  -27.0253  -20.3979   23.2753 N   0  0  0  0  0  0  0  0  0  0  0  0
  -25.8393  -18.8501   18.3236 N   0  0  0  0  0  0  0  0  0  0  0  0
  -24.8250  -14.4786   17.8166 N   0  0  0  0  0  0  0  0  0  0  0  0
  -27.3260  -26.6858   20.7230 N   0  0  0  0  0  0  0  0  0  0  0  0
  -25.4167  -32.6330   23.4519 N   0  0  0  0  0  0  0  0  0  0  0  0
  -24.9935  -20.7152   24.5037 N   0  0  0  0  0  0  0  0  0  0  0  0
  -22.7435  -34.7780   22.3026 N   0  3  0  0  0  0  0  0  0  0  0  0
  -24.8754  -16.5131   16.7597 O   0  0  0  0  0  0  0  0  0  0  0  0
  -26.6417  -27.3812   22.8373 O   0  0  0  0  0  0  0  0  0  0  0  0
  -27.3216  -31.0051   22.0627 O   0  0  0  0  0  0  0  0  0  0  0  0
  -23.1320  -32.4188   23.7859 O   0  0  0  0  0  0  0  0  0  0  0  0
  -26.9449  -21.7732   25.1246 O   0  0  0  0  0  0  0  0  0  0  0  0
  -25.3698  -10.5018   21.6797 O   0  0  0  0  0  0  0  0  0  0  0  0
  -20.1335  -26.5139   22.2070 O   0  0  0  0  0  0  0  0  0  1  0  0
  -20.6902   -7.9449   20.2769 F   0  0  0  0  0  0  0  0  0  0  0  0
  -23.7178   -9.4087   23.6080 F   0  0  0  0  0  0  0  0  0  0  0  0
  1  2  1  0  0  0  0
  1  5  2  0  0  0  0
  2  6  2  0  0  0  0
  3 10  2  0  0  0  0
  3 18  1  0  0  0  0
  4 11  1  0  0  0  0
  4 18  2  0  0  0  0
  5 20  1  0  0  0  0
  6 22  1  0  0  0  0
  7 12  2  0  0  0  0
  7 21  1  0  0  0  0
  8  9  2  0  0  0  0
  8 24  1  0  0  0  0
  9 25  1  0  0  0  0
 10 27  1  0  0  0  0
 11 27  2  0  0  0  0
 12 28  1  0  0  0  0
 13 14  2  0  0  0  0
 13 29  1  0  0  0  0
 14 30  1  0  0  0  0
 15 23  1  0  0  0  0
 15 28  2  0  0  0  0
 16 24  2  0  0  0  0
 16 26  1  0  0  0  0
 17 30  2  0  0  0  0
 17 31  1  0  0  0  0
 18 32  1  0  0  0  0
 19 32  1  0  0  0  0
 19 33  2  0  0  0  0
 19 34  1  0  0  0  0
 20 22  2  0  0  0  0
 20 39  1  0  0  0  0
 21 23  2  0  0  0  0
 21 40  1  0  0  0  0
 22 48  1  0  0  0  0
 23 41  1  0  0  0  0
 24 59  1  0  0  0  0
 25 26  2  0  0  0  0
 25 61  1  0  0  0  0
 26 60  1  0  0  0  0
 27 84  1  0  0  0  0
 28 85  1  0  0  0  0
 29 31  2  0  0  0  0
 29 84  1  0  0  0  0
 30 86  1  0  0  0  0
 31 87  1  0  0  0  0
 32 69  2  0  0  0  0
 33 70  1  0  0  0  0
 33 73  1  0  0  0  0
 34 74  1  0  0  0  0
 34 79  2  0  0  0  0
 35 49  1  0  0  0  0
 35 75  1  0  0  0  0
 35 80  2  0  0  0  0
 36 65  1  0  0  0  0
 36 71  1  0  0  0  0
 36 81  2  0  0  0  0
 37 66  1  0  0  0  0
 37 76  1  0  0  0  0
 37 82  2  0  0  0  0
 38 72  1  0  0  0  0
 38 77  1  0  0  0  0
 38 83  2  0  0  0  0
 39 42  1  0  0  0  0
 40 49  1  0  0  0  0
 41 71  1  0  0  0  0
 42 44  1  0  0  0  0
 43 45  1  0  0  0  0
 43 46  1  0  0  0  0
 44 48  1  0  0  0  0
 45 50  1  0  0  0  0
 46 72  1  0  0  0  0
 47 50  1  0  0  0  0
 47 72  1  0  0  0  0
 48 75  1  0  0  0  0
 49 71  1  0  0  0  0
 50 70  1  0  0  0  0
 51 66  1  0  0  0  0
 52 67  1  0  0  0  0
 53 67  1  0  0  0  0
 54 68  1  0  0  0  0
 55 68  1  0  0  0  0
 56 68  1  0  0  0  0
 57 77  1  0  0  0  0
 58 78  1  0  0  0  0
 59 62  1  0  0  0  0
 60 63  1  0  0  0  0
 61 77  1  0  0  0  0
 62 64  1  0  0  0  0
 63 67  1  0  0  0  0
 64 85  1  0  0  0  0
 65 68  1  0  0  0  0
 65 76  1  0  0  0  0
 66 78  1  0  0  0  0
 69 70  1  0  0  0  0
M  CHG  1  78   1
M  ISO  4  38 100  64 101  77 100  85 101
M  END
> <Batch ID>
0091

> <Smiles>
CNC(C)C(=O)NC(C(=O)N1Cc2cc([101O:1][101CH2:1]CCc3ccc(C[100N:0](C)[100C:0](=O)N4CCCC(n5nc(-c6ccc(Oc7ccc(F)cc7F)cc6)c(C(N)=O)c5N)C4)c(CCC(C)C)c3)ccc2CC1C(=O)NC1CCCc2ccccc21)C(C)(C)C

> <Shape>
0.244

> <Color>
0.067

> <Negative vol penalty>
0.000

$$$$

  -OEChem-04052319113D

 82 90  0     1  0  0  0  0  0999 V2000
  -31.2799  -24.6298   13.9900 C   0  0  0  0  0  0  0  0  0  0  0  0
  -30.6931  -23.8218   14.9587 C   0  0  0  0  0  0  0  0  0  0  0  0
  -23.5347   -9.6246   21.3648 C   0  0  0  0  0  0  0  0  0  0  0  0
  -24.2091  -10.6188   23.4610 C   0  0  0  0  0  0  0  0  0  0  0  0
  -31.5307  -25.9737   14.2634 C   0  0  0  0  0  0  0  0  0  0  0  0
  -30.3576  -24.3572   16.2018 C   0  0  0  0  0  0  0  0  0  0  0  0
  -25.7520  -22.9323   17.7520 C   0  0  0  0  0  0  0  0  0  0  0  0
  -22.9750   -8.5494   22.0548 C   0  0  0  0  0  0  0  0  0  0  0  0
  -23.6493   -9.5436   24.1510 C   0  0  0  0  0  0  0  0  0  0  0  0
  -25.6269  -21.6479   18.2795 C   0  0  0  0  0  0  0  0  0  0  0  0
  -20.1445   -7.9038   23.7881 C   0  0  0  0  0  0  0  0  0  0  0  0
  -18.8778   -7.4707   23.3961 C   0  0  0  0  0  0  0  0  0  0  0  0
  -25.6890  -22.5644   20.5100 C   0  0  0  0  0  0  0  0  0  0  0  0
  -19.7806   -5.2873   22.8911 C   0  0  0  0  0  0  0  0  0  0  0  0
  -29.1366  -20.2399   20.6422 C   0  0  0  0  0  0  0  0  0  0  0  0
  -24.1518  -10.6593   22.0679 C   0  0  0  0  0  0  0  0  0  0  0  0
  -24.0934  -12.9712   20.9911 C   0  0  0  0  0  0  0  0  0  0  0  0
  -31.1893  -26.5282   15.5070 C   0  0  0  0  0  0  0  0  0  0  0  0
  -25.8577  -24.0433   18.6010 C   0  0  0  0  0  0  0  0  0  0  0  0
  -30.6053  -25.7096   16.4925 C   0  0  0  0  0  0  0  0  0  0  0  0
  -25.8128  -23.8621   19.9907 C   0  0  0  0  0  0  0  0  0  0  0  0
  -28.8105  -18.9041   20.7595 C   0  0  0  0  0  0  0  0  0  0  0  0
  -23.0323   -8.5089   23.4479 C   0  0  0  0  0  0  0  0  0  0  0  0
  -25.5983  -21.4635   19.6587 C   0  0  0  0  0  0  0  0  0  0  0  0
  -21.2293   -7.0287   23.7314 C   0  0  0  0  0  0  0  0  0  0  0  0
  -18.6959   -6.1625   22.9477 C   0  0  0  0  0  0  0  0  0  0  0  0
  -21.0473   -5.7205   23.2830 C   0  0  0  0  0  0  0  0  0  0  0  0
  -24.7307  -11.7700   21.3556 C   0  0  0  0  0  0  0  0  0  0  0  0
  -29.7493  -18.0157   20.2761 C   0  0  0  0  0  0  0  0  0  0  0  0
  -25.0644  -13.6907   20.3384 C   0  0  0  0  0  0  0  0  0  0  0  0
  -31.1211  -19.7213   19.6625 C   0  0  0  0  0  0  0  0  0  0  0  0
  -22.7444  -13.3985   21.2219 C   0  0  0  0  0  0  0  0  0  0  0  0
  -28.0691  -26.2666   19.1212 C   0  0  0  0  0  0  0  0  0  0  0  0
  -25.7789  -27.5423   21.0318 C   0  0  0  0  0  0  0  0  0  0  0  0
  -22.9724  -27.0557   22.9116 C   0  0  0  0  0  0  0  0  0  0  0  0
  -30.2877  -15.5779   19.9392 C   0  0  0  0  0  0  0  0  0  0  0  0
  -31.5230  -27.9748   15.7731 C   0  0  0  0  0  0  0  0  0  0  0  0
  -25.9653  -25.4248   18.0160 C   0  0  0  0  0  0  0  0  0  0  0  0
  -25.9023  -25.0238   20.9452 C   0  0  0  0  0  0  0  0  0  0  0  0
  -30.7947  -28.5554   16.9825 C   0  0  0  0  0  0  0  0  0  0  0  0
  -29.6468  -12.3040   18.6951 C   0  0  0  0  0  0  0  0  0  0  0  0
  -30.8795  -27.5981   18.1670 C   0  0  0  0  0  0  0  0  0  0  0  0
  -28.2583  -11.9720   19.2463 C   0  0  0  0  0  0  0  0  0  0  0  0
  -30.4747  -13.1123   19.6926 C   0  0  0  0  0  0  0  0  0  0  0  0
  -28.4333  -13.9927   20.7540 C   0  0  0  0  0  0  0  0  0  0  0  0
  -30.2044  -26.2596   17.8441 C   0  0  1  0  0  0  0  0  0  0  0  0
  -26.5828  -26.4348   18.9784 C   0  0  1  0  0  0  0  0  0  0  0  0
  -27.5389  -13.2349   19.7593 C   0  0  2  0  0  0  0  0  0  0  0  0
  -32.2203  -20.6926   17.6291 C   0  0  0  0  0  0  0  0  0  0  0  0
  -21.3517  -28.2802   24.3851 C   0  0  0  0  0  0  0  0  0  0  0  0
  -27.8429  -27.5651   23.2789 C   0  0  0  0  0  0  0  0  0  0  0  0
  -25.9658  -27.8788   24.9056 C   0  0  0  0  0  0  0  0  0  0  0  0
  -26.4051  -29.6080   23.1623 C   0  0  0  0  0  0  0  0  0  0  0  0
  -20.6957  -26.4234   21.1296 C   0  0  0  0  0  0  0  0  0  0  0  0
  -27.5039  -18.4803   21.3813 C   0  0  0  0  0  0  0  0  0  0  0  0
  -32.4042  -20.1749   19.0535 C   0  0  0  0  0  0  0  0  0  0  0  0
  -26.4551  -18.0280   20.3629 C   0  0  0  0  0  0  0  0  0  0  0  0
  -26.0208  -19.1362   19.4108 C   0  0  0  0  0  0  0  0  0  1  0  0
  -25.3926  -27.3931   22.4835 C   0  0  1  0  0  0  0  0  0  0  0  0
  -21.6566  -27.8104   22.9712 C   0  0  2  0  0  0  0  0  0  0  0  0
  -26.4018  -28.0890   23.4399 C   0  0  0  0  0  0  0  0  0  0  0  0
  -30.2874  -20.6855   20.0970 N   0  0  0  0  0  0  0  0  0  0  0  0
  -26.0077  -11.7252   20.9666 N   0  0  0  0  0  0  0  0  0  0  0  0
  -30.9195  -18.3910   19.7192 N   0  0  0  0  0  0  0  0  0  0  0  0
  -26.1807  -12.9072   20.3509 N   0  0  0  0  0  0  0  0  0  0  0  0
  -26.0126  -26.3543   20.3247 N   0  0  0  0  0  0  0  0  0  0  0  0
  -29.7314  -14.2955   20.1312 N   0  0  0  0  0  0  0  0  0  0  0  0
  -25.0637  -14.9109   19.7607 N   0  0  0  0  0  0  0  0  0  0  0  0
  -21.8787  -12.5362   21.9086 N   0  0  0  0  0  0  0  0  0  0  0  0
  -29.4758  -16.6283   20.3659 N   0  0  0  0  0  0  0  0  0  0  0  0
  -28.7654  -26.3849   17.9336 N   0  0  0  0  0  0  0  0  0  0  0  0
  -24.0249  -27.8883   22.5950 N   0  0  0  0  0  0  0  0  0  0  0  0
  -20.5380  -26.9382   22.5142 N   0  3  0  0  0  0  0  0  0  0  0  0
  -22.3146  -14.5050   20.8165 O   0  0  0  0  0  0  0  0  0  0  0  0
  -28.5487  -26.0473   20.2274 O   0  0  0  0  0  0  0  0  0  0  0  0
  -25.8631  -28.6710   20.5414 O   0  0  0  0  0  0  0  0  0  0  0  0
  -23.0586  -25.8490   23.1282 O   0  0  0  0  0  0  0  0  0  0  0  0
  -31.3904  -15.7342   19.4086 O   0  0  0  0  0  0  0  0  0  0  0  0
  -22.4860   -7.4599   24.1216 O   0  0  0  0  0  0  0  0  0  0  0  0
  -25.4768  -20.2107   20.1763 O   0  0  0  0  0  0  0  0  0  1  0  0
  -17.4792   -5.7463   22.5728 F   0  0  0  0  0  0  0  0  0  0  0  0
  -22.0854   -4.8748   23.2275 F   0  0  0  0  0  0  0  0  0  0  0  0
  1  2  1  0  0  0  0
  1  5  2  0  0  0  0
  2  6  2  0  0  0  0
  3  8  2  0  0  0  0
  3 16  1  0  0  0  0
  4  9  1  0  0  0  0
  4 16  2  0  0  0  0
  5 18  1  0  0  0  0
  6 20  1  0  0  0  0
  7 10  2  0  0  0  0
  7 19  1  0  0  0  0
  8 23  1  0  0  0  0
  9 23  2  0  0  0  0
 10 24  1  0  0  0  0
 11 12  2  0  0  0  0
 11 25  1  0  0  0  0
 12 26  1  0  0  0  0
 13 21  1  0  0  0  0
 13 24  2  0  0  0  0
 14 26  2  0  0  0  0
 14 27  1  0  0  0  0
 15 22  1  0  0  0  0
 15 62  2  0  0  0  0
 16 28  1  0  0  0  0
 17 28  1  0  0  0  0
 17 30  2  0  0  0  0
 17 32  1  0  0  0  0
 18 20  2  0  0  0  0
 18 37  1  0  0  0  0
 19 21  2  0  0  0  0
 19 38  1  0  0  0  0
 20 46  1  0  0  0  0
 21 39  1  0  0  0  0
 22 29  2  0  0  0  0
 22 55  1  0  0  0  0
 23 79  1  0  0  0  0
 24 80  1  0  0  0  0
 25 27  2  0  0  0  0
 25 79  1  0  0  0  0
 26 81  1  0  0  0  0
 27 82  1  0  0  0  0
 28 63  2  0  0  0  0
 29 64  1  0  0  0  0
 29 70  1  0  0  0  0
 30 65  1  0  0  0  0
 30 68  1  0  0  0  0
 31 56  1  0  0  0  0
 31 62  1  0  0  0  0
 31 64  2  0  0  0  0
 32 69  1  0  0  0  0
 32 74  2  0  0  0  0
 33 47  1  0  0  0  0
 33 71  1  0  0  0  0
 33 75  2  0  0  0  0
 34 59  1  0  0  0  0
 34 66  1  0  0  0  0
 34 76  2  0  0  0  0
 35 60  1  0  0  0  0
 35 72  1  0  0  0  0
 35 77  2  0  0  0  0
 36 67  1  0  0  0  0
 36 70  1  0  0  0  0
 36 78  2  0  0  0  0
 37 40  1  0  0  0  0
 38 47  1  0  0  0  0
 39 66  1  0  0  0  0
 40 42  1  0  0  0  0
 41 43  1  0  0  0  0
 41 44  1  0  0  0  0
 42 46  1  0  0  0  0
 43 48  1  0  0  0  0
 44 67  1  0  0  0  0
 45 48  1  0  0  0  0
 45 67  1  0  0  0  0
 46 71  1  0  0  0  0
 47 66  1  0  0  0  0
 48 65  1  0  0  0  0
 49 56  1  0  0  0  0
 50 60  1  0  0  0  0
 51 61  1  0  0  0  0
 52 61  1  0  0  0  0
 53 61  1  0  0  0  0
 54 73  1  0  0  0  0
 55 57  1  0  0  0  0
 57 58  1  0  0  0  0
 58 80  1  0  0  0  0
 59 61  1  0  0  0  0
 59 72  1  0  0  0  0
 60 73  1  0  0  0  0
 63 65  1  0  0  0  0
M  CHG  1  73   1
M  ISO  4  36 100  58 101  70 100  80 101
M  END
> <Batch ID>
0091

> <Smiles>
CCc1ncc(CC[101CH2:1][101O:1]c2ccc3c(c2)CN(C(=O)C(NC(=O)C(C)NC)C(C)(C)C)C(C(=O)NC2CCCc4ccccc42)C3)c([100NH:0][100C:0](=O)N2CCCC(n3nc(-c4ccc(Oc5ccc(F)cc5F)cc4)c(C(N)=O)c3N)C2)n1

> <Shape>
0.252

> <Color>
0.146

> <Negative vol penalty>
0.000

$$$$

  -OEChem-04052319113D

 85 93  0     1  0  0  0  0  0999 V2000
  -29.0779  -25.6949   16.0492 C   0  0  0  0  0  0  0  0  0  0  0  0
  -27.8724  -25.6629   16.7429 C   0  0  0  0  0  0  0  0  0  0  0  0
  -25.5135  -14.1712   18.4565 C   0  0  0  0  0  0  0  0  0  0  0  0
  -24.3245  -14.5189   20.5307 C   0  0  0  0  0  0  0  0  0  0  0  0
  -30.1964  -26.2960   16.6250 C   0  0  0  0  0  0  0  0  0  0  0  0
  -27.7850  -26.2311   18.0133 C   0  0  0  0  0  0  0  0  0  0  0  0
  -23.6085  -29.0332   18.6050 C   0  0  0  0  0  0  0  0  0  0  0  0
  -25.7816  -12.8545   18.8309 C   0  0  0  0  0  0  0  0  0  0  0  0
  -24.5925  -13.2022   20.9051 C   0  0  0  0  0  0  0  0  0  0  0  0
  -22.4130  -28.3536   18.8347 C   0  0  0  0  0  0  0  0  0  0  0  0
  -24.6542   -9.8243   22.2482 C   0  0  0  0  0  0  0  0  0  0  0  0
  -23.6085   -9.0781   22.7916 C   0  0  0  0  0  0  0  0  0  0  0  0
  -22.6106  -28.8157   21.1940 C   0  0  0  0  0  0  0  0  0  0  0  0
  -20.2647  -25.1792   22.7432 C   0  0  0  0  0  0  0  0  0  0  0  0
  -22.3401   -9.3737   20.7566 C   0  0  0  0  0  0  0  0  0  0  0  0
  -24.7850  -15.0034   19.3065 C   0  0  0  0  0  0  0  0  0  0  0  0
  -23.3923  -16.8334   18.2023 C   0  0  0  0  0  0  0  0  0  0  0  0
  -30.1201  -26.8805   17.8990 C   0  0  0  0  0  0  0  0  0  0  0  0
  -24.3208  -29.6008   19.6713 C   0  0  0  0  0  0  0  0  0  0  0  0
  -28.9039  -26.8395   18.6072 C   0  0  0  0  0  0  0  0  0  0  0  0
  -23.8135  -29.5042   20.9749 C   0  0  0  0  0  0  0  0  0  0  0  0
  -20.4532  -24.8658   21.3745 C   0  0  0  0  0  0  0  0  0  0  0  0
  -25.3211  -12.3700   20.0552 C   0  0  0  0  0  0  0  0  0  0  0  0
  -21.9154  -28.2422   20.1297 C   0  0  0  0  0  0  0  0  0  0  0  0
  -24.5429  -10.3453   20.9590 C   0  0  0  0  0  0  0  0  0  0  0  0
  -22.4515   -8.8528   22.0458 C   0  0  0  0  0  0  0  0  0  0  0  0
  -23.3858  -10.1199   20.2133 C   0  0  0  0  0  0  0  0  0  0  0  0
  -24.5083  -16.3638   18.9206 C   0  0  0  0  0  0  0  0  0  0  0  0
  -21.1899  -24.4550   23.4622 C   0  0  0  0  0  0  0  0  0  0  0  0
  -21.4877  -23.9594   21.2988 C   0  0  0  0  0  0  0  0  0  0  0  0
  -23.5983  -18.1871   18.0945 C   0  0  0  0  0  0  0  0  0  0  0  0
  -22.2698  -16.1107   17.6795 C   0  0  0  0  0  0  0  0  0  0  0  0
  -27.2055  -29.1572   20.9303 C   0  0  0  0  0  0  0  0  0  0  0  0
  -26.3829  -31.7216   22.7384 C   0  0  0  0  0  0  0  0  0  0  0  0
  -23.9035  -33.6422   24.0841 C   0  0  0  0  0  0  0  0  0  0  0  0
  -26.7098  -22.1122   21.3752 C   0  0  0  0  0  0  0  0  0  0  0  0
  -31.3682  -27.4770   18.4999 C   0  0  0  0  0  0  0  0  0  0  0  0
  -25.5951  -30.3537   19.4036 C   0  0  0  0  0  0  0  0  0  0  0  0
  -24.5296  -30.1134   22.1516 C   0  0  0  0  0  0  0  0  0  0  0  0
  -31.0942  -28.3872   19.6944 C   0  0  0  0  0  0  0  0  0  0  0  0
  -27.1037  -21.4376   17.9015 C   0  0  0  0  0  0  0  0  0  0  0  0
  -30.1133  -27.7247   20.6565 C   0  0  0  0  0  0  0  0  0  0  0  0
  -26.3825  -20.1031   17.7040 C   0  0  0  0  0  0  0  0  0  0  0  0
  -27.8211  -21.4975   19.2483 C   0  0  0  0  0  0  0  0  0  0  0  0
  -26.2500  -19.8654   20.2189 C   0  0  0  0  0  0  0  0  0  0  0  0
  -28.7629  -27.4671   19.9770 C   0  0  1  0  0  0  0  0  0  0  0  0
  -26.5009  -30.4493   20.6273 C   0  0  1  0  0  0  0  0  0  0  0  0
  -25.4653  -19.7792   18.8986 C   0  0  2  0  0  0  0  0  0  0  0  0
  -22.0951  -23.3034   20.1212 C   0  0  0  0  0  0  0  0  0  0  0  0
  -20.2146  -23.8749   25.7130 C   0  0  0  0  0  0  0  0  0  0  0  0
  -21.8620  -25.7716   25.5040 C   0  0  0  0  0  0  0  0  0  0  0  0
  -23.5401  -35.6479   25.5478 C   0  0  0  0  0  0  0  0  0  0  0  0
  -27.0569  -30.0461   25.1978 C   0  0  0  0  0  0  0  0  0  0  0  0
  -25.8019  -31.7079   26.5877 C   0  0  0  0  0  0  0  0  0  0  0  0
  -27.8233  -32.4238   25.3133 C   0  0  0  0  0  0  0  0  0  0  0  0
  -22.5197  -35.1143   21.9214 C   0  0  0  0  0  0  0  0  0  0  0  0
  -19.6619  -25.4269   20.2181 C   0  0  0  0  0  0  0  0  0  0  0  0
  -24.3357  -23.5286   23.2194 C   0  0  0  0  0  0  0  0  0  0  0  0
  -23.0064  -22.8189   22.9288 C   0  0  0  0  0  0  0  0  0  0  0  0
  -25.5091  -22.5905   23.4938 C   0  0  0  0  0  0  0  0  0  0  0  0
  -20.4246  -26.5122   19.4661 C   0  0  0  0  0  0  0  0  0  1  0  0
  -21.4295  -24.4075   24.9193 C   0  0  0  0  0  0  0  0  0  0  0  0
  -25.6853  -31.9162   24.0630 C   0  0  1  0  0  0  0  0  0  0  0  0
  -23.7023  -35.1464   24.1213 C   0  0  2  0  0  0  0  0  0  0  0  0
  -26.5791  -31.5102   25.2687 C   0  0  0  0  0  0  0  0  0  0  0  0
  -25.3601  -17.3398   19.2459 N   0  0  0  0  0  0  0  0  0  0  0  0
  -21.9276  -23.7169   22.5738 N   0  0  0  0  0  0  0  0  0  0  0  0
  -24.7793  -18.4362   18.7296 N   0  0  0  0  0  0  0  0  0  0  0  0
  -25.7749  -30.8341   21.8393 N   0  0  0  0  0  0  0  0  0  0  0  0
  -26.8955  -21.1821   20.3390 N   0  0  0  0  0  0  0  0  0  0  0  0
  -22.8827  -19.1767   17.5192 N   0  0  0  0  0  0  0  0  0  0  0  0
  -22.2156  -14.7246   17.8799 N   0  0  0  0  0  0  0  0  0  0  0  0
  -27.9958  -28.6916   19.8967 N   0  0  0  0  0  0  0  0  0  0  0  0
  -25.2406  -33.3054   24.0900 N   0  0  0  0  0  0  0  0  0  0  0  0
  -25.8106  -21.7374   22.3659 N   0  0  0  0  0  0  0  0  0  0  0  0
  -22.4857  -35.5255   23.3486 N   0  3  0  0  0  0  0  0  0  0  0  0
  -21.3506  -16.6748   17.0390 O   0  0  0  0  0  0  0  0  0  0  0  0
  -27.0454  -28.6231   22.0215 O   0  0  0  0  0  0  0  0  0  0  0  0
  -27.4249  -32.3400   22.5071 O   0  0  0  0  0  0  0  0  0  0  0  0
  -22.9680  -32.8455   24.0567 O   0  0  0  0  0  0  0  0  0  0  0  0
  -27.2976  -23.1985   21.4116 O   0  0  0  0  0  0  0  0  0  0  0  0
  -25.5822  -11.0852   20.4207 O   0  0  0  0  0  0  0  0  0  0  0  0
  -20.7491  -27.5789   20.3567 O   0  0  0  0  0  0  0  0  0  1  0  0
  -21.4480   -8.1349   22.5672 F   0  0  0  0  0  0  0  0  0  0  0  0
  -23.2736  -10.6169   18.9738 F   0  0  0  0  0  0  0  0  0  0  0  0
  1  2  1  0  0  0  0
  1  5  2  0  0  0  0
  2  6  2  0  0  0  0
  3  8  2  0  0  0  0
  3 16  1  0  0  0  0
  4  9  1  0  0  0  0
  4 16  2  0  0  0  0
  5 18  1  0  0  0  0
  6 20  1  0  0  0  0
  7 10  2  0  0  0  0
  7 19  1  0  0  0  0
  8 23  1  0  0  0  0
  9 23  2  0  0  0  0
 10 24  1  0  0  0  0
 11 12  2  0  0  0  0
 11 25  1  0  0  0  0
 12 26  1  0  0  0  0
 13 21  1  0  0  0  0
 13 24  2  0  0  0  0
 14 22  1  0  0  0  0
 14 29  2  0  0  0  0
 15 26  2  0  0  0  0
 15 27  1  0  0  0  0
 16 28  1  0  0  0  0
 17 28  1  0  0  0  0
 17 31  2  0  0  0  0
 17 32  1  0  0  0  0
 18 20  2  0  0  0  0
 18 37  1  0  0  0  0
 19 21  2  0  0  0  0
 19 38  1  0  0  0  0
 20 46  1  0  0  0  0
 21 39  1  0  0  0  0
 22 30  2  0  0  0  0
 22 57  1  0  0  0  0
 23 82  1  0  0  0  0
 24 83  1  0  0  0  0
 25 27  2  0  0  0  0
 25 82  1  0  0  0  0
 26 84  1  0  0  0  0
 27 85  1  0  0  0  0
 28 66  2  0  0  0  0
 29 62  1  0  0  0  0
 29 67  1  0  0  0  0
 30 49  1  0  0  0  0
 30 67  1  0  0  0  0
 31 68  1  0  0  0  0
 31 71  1  0  0  0  0
 32 72  1  0  0  0  0
 32 77  2  0  0  0  0
 33 47  1  0  0  0  0
 33 73  1  0  0  0  0
 33 78  2  0  0  0  0
 34 63  1  0  0  0  0
 34 69  1  0  0  0  0
 34 79  2  0  0  0  0
 35 64  1  0  0  0  0
 35 74  1  0  0  0  0
 35 80  2  0  0  0  0
 36 70  1  0  0  0  0
 36 75  1  0  0  0  0
 36 81  2  0  0  0  0
 37 40  1  0  0  0  0
 38 47  1  0  0  0  0
 39 69  1  0  0  0  0
 40 42  1  0  0  0  0
 41 43  1  0  0  0  0
 41 44  1  0  0  0  0
 42 46  1  0  0  0  0
 43 48  1  0  0  0  0
 44 70  1  0  0  0  0
 45 48  1  0  0  0  0
 45 70  1  0  0  0  0
 46 73  1  0  0  0  0
 47 69  1  0  0  0  0
 48 68  1  0  0  0  0
 50 62  1  0  0  0  0
 51 62  1  0  0  0  0
 52 64  1  0  0  0  0
 53 65  1  0  0  0  0
 54 65  1  0  0  0  0
 55 65  1  0  0  0  0
 56 76  1  0  0  0  0
 57 61  1  0  0  0  0
 58 59  1  0  0  0  0
 58 60  1  0  0  0  0
 59 67  1  0  0  0  0
 60 75  1  0  0  0  0
 61 83  1  0  0  0  0
 63 65  1  0  0  0  0
 63 74  1  0  0  0  0
 64 76  1  0  0  0  0
 66 68  1  0  0  0  0
M  CHG  1  76   1
M  ISO  4  36 100  61 101  75 100  83 101
M  END
> <Batch ID>
0091

> <Smiles>
CNC(C)C(=O)NC(C(=O)N1Cc2cc([101O:1][101CH2:1]Cc3cc(C(C)C)n(CCC[100NH:0][100C:0](=O)N4CCCC(n5nc(-c6ccc(Oc7ccc(F)cc7F)cc6)c(C(N)=O)c5N)C4)c3C)ccc2CC1C(=O)NC1CCCc2ccccc21)C(C)(C)C

> <Shape>
0.241

> <Color>
0.084

> <Negative vol penalty>
0.000

$$$$

  -OEChem-04052319113D

 93101  0     1  0  0  0  0  0999 V2000
  -23.6427  -24.5657   23.5771 C   0  0  0  0  0  0  0  0  0  0  0  0
  -25.0281  -24.5862   23.7025 C   0  0  0  0  0  0  0  0  0  0  0  0
  -22.9603   -9.8933   20.0352 C   0  0  0  0  0  0  0  0  0  0  0  0
  -23.6559  -10.0344   22.3446 C   0  0  0  0  0  0  0  0  0  0  0  0
  -23.0563  -24.0594   22.4179 C   0  0  0  0  0  0  0  0  0  0  0  0
  -25.8279  -24.0995   22.6691 C   0  0  0  0  0  0  0  0  0  0  0  0
  -29.7415  -27.1448   21.6422 C   0  0  0  0  0  0  0  0  0  0  0  0
  -22.1700   -8.7853   20.3409 C   0  0  0  0  0  0  0  0  0  0  0  0
  -22.8656   -8.9265   22.6503 C   0  0  0  0  0  0  0  0  0  0  0  0
  -30.8351  -27.0892   22.5051 C   0  0  0  0  0  0  0  0  0  0  0  0
  -21.3129   -5.9165   23.9690 C   0  0  0  0  0  0  0  0  0  0  0  0
  -21.8705   -4.9254   24.7767 C   0  0  0  0  0  0  0  0  0  0  0  0
  -31.9973  -25.6777   20.9315 C   0  0  0  0  0  0  0  0  0  0  0  0
  -33.9817  -21.6418   25.2048 C   0  0  0  0  0  0  0  0  0  0  0  0
  -34.4692  -21.8459   22.8585 C   0  0  0  0  0  0  0  0  0  0  0  0
  -23.6140   -4.5738   23.1415 C   0  0  0  0  0  0  0  0  0  0  0  0
  -23.7033  -10.5178   21.0370 C   0  0  0  0  0  0  0  0  0  0  0  0
  -24.1362  -13.0159   20.7549 C   0  0  0  0  0  0  0  0  0  0  0  0
  -23.8495  -23.5751   21.3658 C   0  0  0  0  0  0  0  0  0  0  0  0
  -29.7633  -26.4572   20.4202 C   0  0  0  0  0  0  0  0  0  0  0  0
  -25.2515  -23.5850   21.4953 C   0  0  0  0  0  0  0  0  0  0  0  0
  -30.9036  -25.7283   20.0537 C   0  0  0  0  0  0  0  0  0  0  0  0
  -34.5656  -22.3408   24.1543 C   0  0  0  0  0  0  0  0  0  0  0  0
  -22.1226   -8.3019   21.6485 C   0  0  0  0  0  0  0  0  0  0  0  0
  -31.9621  -26.3532   22.1511 C   0  0  0  0  0  0  0  0  0  0  0  0
  -21.9058   -6.2362   22.7476 C   0  0  0  0  0  0  0  0  0  0  0  0
  -23.0211   -4.2540   24.3630 C   0  0  0  0  0  0  0  0  0  0  0  0
  -23.0563   -5.5649   22.3338 C   0  0  0  0  0  0  0  0  0  0  0  0
  -24.5203  -11.6620   20.7217 C   0  0  0  0  0  0  0  0  0  0  0  0
  -33.3177  -20.4622   24.9091 C   0  0  0  0  0  0  0  0  0  0  0  0
  -33.7835  -20.6570   22.6679 C   0  0  0  0  0  0  0  0  0  0  0  0
  -25.2635  -13.7021   20.3743 C   0  0  0  0  0  0  0  0  0  0  0  0
  -22.8733  -13.6010   21.0990 C   0  0  0  0  0  0  0  0  0  0  0  0
  -28.0449  -24.1124   19.1348 C   0  0  0  0  0  0  0  0  0  0  0  0
  -29.8348  -24.7659   16.5097 C   0  0  0  0  0  0  0  0  0  0  0  0
  -32.7197  -26.0515   15.2168 C   0  0  0  0  0  0  0  0  0  0  0  0
  -30.7720  -14.5510   20.6578 C   0  0  0  0  0  0  0  0  0  0  0  0
  -23.1691  -22.9940   20.1517 C   0  0  0  0  0  0  0  0  0  0  0  0
  -28.5860  -26.5492   19.4886 C   0  0  0  0  0  0  0  0  0  0  0  0
  -30.9852  -24.9889   18.7441 C   0  0  0  0  0  0  0  0  0  0  0  0
  -24.0958  -22.8427   18.9481 C   0  0  0  0  0  0  0  0  0  0  0  0
  -29.6189  -12.0453   18.4065 C   0  0  0  0  0  0  0  0  0  0  0  0
  -25.4177  -22.2082   19.3687 C   0  0  0  0  0  0  0  0  0  0  0  0
  -28.1606  -11.8297   18.8150 C   0  0  0  0  0  0  0  0  0  0  0  0
  -30.5094  -12.3187   19.6166 C   0  0  0  0  0  0  0  0  0  0  0  0
  -28.5964  -13.2063   20.8919 C   0  0  0  0  0  0  0  0  0  0  0  0
  -26.1533  -23.0889   20.3860 C   0  0  1  0  0  0  0  0  0  0  0  0
  -28.5150  -25.3901   18.4992 C   0  0  1  0  0  0  0  0  0  0  0  0
  -27.6499  -12.9825   19.7002 C   0  0  2  0  0  0  0  0  0  0  0  0
  -33.9143  -26.4103   13.0393 C   0  0  0  0  0  0  0  0  0  0  0  0
  -27.9789  -19.9034   24.1213 C   0  0  0  0  0  0  0  0  0  0  0  0
  -28.6871  -21.6853   25.7288 C   0  0  0  0  0  0  0  0  0  0  0  0
  -29.1959  -18.2537   20.5703 C   0  0  0  0  0  0  0  0  0  0  0  0
  -30.5697  -21.8057   16.4279 C   0  0  0  0  0  0  0  0  0  0  0  0
  -32.4507  -22.3870   14.8812 C   0  0  0  0  0  0  0  0  0  0  0  0
  -30.0929  -22.8243   14.1942 C   0  0  0  0  0  0  0  0  0  0  0  0
  -34.3026  -20.8954   20.2525 C   0  0  0  0  0  0  0  0  0  0  0  0
  -32.7310  -28.9894   15.5739 C   0  0  0  0  0  0  0  0  0  0  0  0
  -35.3006  -23.6305   24.4194 C   0  0  0  0  0  0  0  0  0  0  0  0
  -32.6789  -19.6858   26.0119 C   0  0  0  0  0  0  0  0  0  0  0  0
  -34.4110  -24.8732   24.3427 C   0  0  0  0  0  0  0  0  0  0  0  0
  -31.2154  -20.0735   26.2948 C   0  0  0  0  0  0  0  0  0  0  0  0
  -30.2902  -19.8024   25.1015 C   0  0  0  0  0  0  0  0  0  0  0  0
  -31.4993  -19.1697   20.9973 C   0  0  0  0  0  0  0  0  0  0  0  0
  -33.0047  -18.9226   21.0724 C   0  0  0  0  0  0  0  0  0  0  0  0
  -30.8784  -16.7789   21.7460 C   0  0  0  0  0  0  0  0  0  0  0  0
  -33.8227  -25.1102   22.9567 C   0  0  0  0  0  0  0  0  0  1  0  0
  -31.1568  -24.2776   15.9685 C   0  0  1  0  0  0  0  0  0  0  0  0
  -32.9685  -27.0113   14.0674 C   0  0  2  0  0  0  0  0  0  0  0  0
  -28.8266  -20.2079   25.3590 C   0  0  0  0  0  0  0  0  0  0  0  0
  -30.6799  -17.8957   20.7100 C   0  0  1  0  0  0  0  0  0  0  0  0
  -31.0655  -22.8359   15.3935 C   0  0  0  0  0  0  0  0  0  0  0  0
  -25.7922  -11.4959   20.3493 N   0  0  0  0  0  0  0  0  0  0  0  0
  -33.2031  -19.9500   23.6633 N   0  0  0  0  0  0  0  0  0  0  0  0
  -26.2171  -12.7543   20.1449 N   0  0  0  0  0  0  0  0  0  0  0  0
  -29.8060  -25.1042   17.8701 N   0  0  0  0  0  0  0  0  0  0  0  0
  -29.9705  -13.4237   20.4131 N   0  0  0  0  0  0  0  0  0  0  0  0
  -25.5221  -15.0177   20.2167 N   0  0  0  0  0  0  0  0  0  0  0  0
  -21.8213  -12.7512   21.4670 N   0  0  0  0  0  0  0  0  0  0  0  0
  -26.7962  -24.2013   19.7200 N   0  0  0  0  0  0  0  0  0  0  0  0
  -31.5977  -25.2789   15.0034 N   0  0  0  0  0  0  0  0  0  0  0  0
  -30.1824  -15.5552   21.4158 N   0  0  0  0  0  0  0  0  0  0  0  0
  -33.6938  -20.1651   21.3420 N   0  0  3  0  0  0  0  0  0  0  0  0
  -33.5670  -28.2795   14.5718 N   0  3  0  0  0  0  0  0  0  0  0  0
  -22.6786  -14.8398   21.0648 O   0  0  0  0  0  0  0  0  0  0  0  0
  -28.7612  -23.1189   19.0959 O   0  0  0  0  0  0  0  0  0  0  0  0
  -28.8654  -24.8511   15.7517 O   0  0  0  0  0  0  0  0  0  0  0  0
  -33.4500  -25.9903   16.2035 O   0  0  0  0  0  0  0  0  0  0  0  0
  -31.9256  -14.6571   20.2277 O   0  0  0  0  0  0  0  0  0  0  0  0
  -21.3514   -7.2209   21.9472 O   0  0  0  0  0  0  0  0  0  0  0  0
  -33.0307  -26.2966   22.9919 O   0  0  0  0  0  0  0  0  0  1  0  0
  -23.5573   -3.3034   25.1394 F   0  0  0  0  0  0  0  0  0  0  0  0
  -23.6311   -5.8685   21.1620 F   0  0  0  0  0  0  0  0  0  0  0  0
  1  2  1  0  0  0  0
  1  5  2  0  0  0  0
  2  6  2  0  0  0  0
  3  8  2  0  0  0  0
  3 17  1  0  0  0  0
  4  9  1  0  0  0  0
  4 17  2  0  0  0  0
  5 19  1  0  0  0  0
  6 21  1  0  0  0  0
  7 10  2  0  0  0  0
  7 20  1  0  0  0  0
  8 24  1  0  0  0  0
  9 24  2  0  0  0  0
 10 25  1  0  0  0  0
 11 12  2  0  0  0  0
 11 26  1  0  0  0  0
 12 27  1  0  0  0  0
 13 22  1  0  0  0  0
 13 25  2  0  0  0  0
 14 23  1  0  0  0  0
 14 30  2  0  0  0  0
 15 23  2  0  0  0  0
 15 31  1  0  0  0  0
 16 27  2  0  0  0  0
 16 28  1  0  0  0  0
 17 29  1  0  0  0  0
 18 29  1  0  0  0  0
 18 32  2  0  0  0  0
 18 33  1  0  0  0  0
 19 21  2  0  0  0  0
 19 38  1  0  0  0  0
 20 22  2  0  0  0  0
 20 39  1  0  0  0  0
 21 47  1  0  0  0  0
 22 40  1  0  0  0  0
 23 59  1  0  0  0  0
 24 90  1  0  0  0  0
 25 91  1  0  0  0  0
 26 28  2  0  0  0  0
 26 90  1  0  0  0  0
 27 92  1  0  0  0  0
 28 93  1  0  0  0  0
 29 73  2  0  0  0  0
 30 60  1  0  0  0  0
 30 74  1  0  0  0  0
 31 74  2  0  0  0  0
 31 83  1  0  0  0  0
 32 75  1  0  0  0  0
 32 78  1  0  0  0  0
 33 79  1  0  0  0  0
 33 85  2  0  0  0  0
 34 48  1  0  0  0  0
 34 80  1  0  0  0  0
 34 86  2  0  0  0  0
 35 68  1  0  0  0  0
 35 76  1  0  0  0  0
 35 87  2  0  0  0  0
 36 69  1  0  0  0  0
 36 81  1  0  0  0  0
 36 88  2  0  0  0  0
 37 77  1  0  0  0  0
 37 82  1  0  0  0  0
 37 89  2  0  0  0  0
 38 41  1  0  0  0  0
 39 48  1  0  0  0  0
 40 76  1  0  0  0  0
 41 43  1  0  0  0  0
 42 44  1  0  0  0  0
 42 45  1  0  0  0  0
 43 47  1  0  0  0  0
 44 49  1  0  0  0  0
 45 77  1  0  0  0  0
 46 49  1  0  0  0  0
 46 77  1  0  0  0  0
 47 80  1  0  0  0  0
 48 76  1  0  0  0  0
 49 75  1  0  0  0  0
 50 69  1  0  0  0  0
 51 70  1  0  0  0  0
 52 70  1  0  0  0  0
 53 71  1  0  0  0  0
 54 72  1  0  0  0  0
 55 72  1  0  0  0  0
 56 72  1  0  0  0  0
 57 83  1  0  0  0  0
 58 84  1  0  0  0  0
 59 61  1  0  0  0  0
 60 62  1  0  0  0  0
 61 67  1  0  0  0  0
 62 63  1  0  0  0  0
 63 70  1  0  0  0  0
 64 65  1  0  0  0  0
 64 71  1  0  0  0  0
 65 83  1  0  0  0  0
 66 71  1  0  0  0  0
 66 82  1  0  0  0  0
 67 91  1  0  0  0  0
 68 72  1  0  0  0  0
 68 81  1  0  0  0  0
 69 84  1  0  0  0  0
 73 75  1  0  0  0  0
M  CHG  1  84   1
M  ISO  4  37 100  67 101  82 100  91 101
M  END
> <Batch ID>
0091

> <Smiles>
CNC(C)C(=O)NC(C(=O)N1Cc2cc([101O:1][101CH2:1]CCc3cc(CCCC(C)C)nc(N(C)CCC(C)C[100NH:0][100C:0](=O)N4CCCC(n5nc(-c6ccc(Oc7ccc(F)cc7F)cc6)c(C(N)=O)c5N)C4)c3)ccc2CC1C(=O)NC1CCCc2ccccc21)C(C)(C)C

> <Shape>
0.235

> <Color>
0.207

> <Negative vol penalty>
0.000

$$$$

  -OEChem-04052319113D

 87 95  0     1  0  0  0  0  0999 V2000
  -28.4963  -35.7328   19.9156 C   0  0  0  0  0  0  0  0  0  0  0  0
  -29.0393  -34.5686   19.3816 C   0  0  0  0  0  0  0  0  0  0  0  0
  -24.3606   -9.1706   20.3066 C   0  0  0  0  0  0  0  0  0  0  0  0
  -22.7477  -10.6288   21.3598 C   0  0  0  0  0  0  0  0  0  0  0  0
  -27.7223  -35.6722   21.0737 C   0  0  0  0  0  0  0  0  0  0  0  0
  -28.8095  -33.3431   20.0061 C   0  0  0  0  0  0  0  0  0  0  0  0
  -27.9354  -26.3922   18.5104 C   0  0  0  0  0  0  0  0  0  0  0  0
  -23.5979   -8.0619   20.6734 C   0  0  0  0  0  0  0  0  0  0  0  0
  -21.9849   -9.5201   21.7267 C   0  0  0  0  0  0  0  0  0  0  0  0
  -28.4340  -25.1416   18.8726 C   0  0  0  0  0  0  0  0  0  0  0  0
  -23.0703   -6.2112   23.4521 C   0  0  0  0  0  0  0  0  0  0  0  0
  -23.7409   -5.1149   23.9943 C   0  0  0  0  0  0  0  0  0  0  0  0
  -27.0155  -25.1477   20.8237 C   0  0  0  0  0  0  0  0  0  0  0  0
  -27.0557  -19.5984   21.0261 C   0  0  0  0  0  0  0  0  0  0  0  0
  -22.9308   -3.7271   22.1902 C   0  0  0  0  0  0  0  0  0  0  0  0
  -27.8062  -19.5996   23.1490 C   0  0  0  0  0  0  0  0  0  0  0  0
  -23.9355  -10.4541   20.6498 C   0  0  0  0  0  0  0  0  0  0  0  0
  -24.6215  -12.3464   19.0825 C   0  0  0  0  0  0  0  0  0  0  0  0
  -27.4748  -34.4442   21.7072 C   0  0  0  0  0  0  0  0  0  0  0  0
  -26.9795  -27.0359   19.3094 C   0  0  0  0  0  0  0  0  0  0  0  0
  -28.0325  -33.2663   21.1745 C   0  0  0  0  0  0  0  0  0  0  0  0
  -26.5045  -26.4053   20.4682 C   0  0  0  0  0  0  0  0  0  0  0  0
  -28.1408  -19.9596   21.8622 C   0  0  0  0  0  0  0  0  0  0  0  0
  -22.4100   -8.2366   21.3834 C   0  0  0  0  0  0  0  0  0  0  0  0
  -27.9762  -24.5204   20.0309 C   0  0  0  0  0  0  0  0  0  0  0  0
  -22.3299   -6.0654   22.2789 C   0  0  0  0  0  0  0  0  0  0  0  0
  -23.6712   -3.8728   23.3634 C   0  0  0  0  0  0  0  0  0  0  0  0
  -22.2602   -4.8234   21.6479 C   0  0  0  0  0  0  0  0  0  0  0  0
  -24.7233  -11.5997   20.2717 C   0  0  0  0  0  0  0  0  0  0  0  0
  -26.0909  -19.0288   21.8273 C   0  0  0  0  0  0  0  0  0  0  0  0
  -25.5816  -13.3208   19.2057 C   0  0  0  0  0  0  0  0  0  0  0  0
  -23.7380  -12.1745   17.9665 C   0  0  0  0  0  0  0  0  0  0  0  0
  -26.8906  -29.7596   20.9457 C   0  0  0  0  0  0  0  0  0  0  0  0
  -23.7882  -28.9303   21.4033 C   0  0  0  0  0  0  0  0  0  0  0  0
  -21.4391  -26.4582   21.5343 C   0  0  0  0  0  0  0  0  0  0  0  0
  -28.2122  -15.8781   23.9376 C   0  0  0  0  0  0  0  0  0  0  0  0
  -26.6713  -34.4347   22.9835 C   0  0  0  0  0  0  0  0  0  0  0  0
  -26.4320  -28.3729   18.8908 C   0  0  0  0  0  0  0  0  0  0  0  0
  -25.4641  -27.0451   21.3494 C   0  0  0  0  0  0  0  0  0  0  0  0
  -26.1641  -33.0487   23.3737 C   0  0  0  0  0  0  0  0  0  0  0  0
  -29.8185  -14.1642   21.2620 C   0  0  0  0  0  0  0  0  0  0  0  0
  -27.2822  -32.0180   23.2540 C   0  0  0  0  0  0  0  0  0  0  0  0
  -28.6856  -13.3800   20.5975 C   0  0  0  0  0  0  0  0  0  0  0  0
  -29.6484  -14.2259   22.7783 C   0  0  0  0  0  0  0  0  0  0  0  0
  -27.2083  -13.9497   22.5702 C   0  0  0  0  0  0  0  0  0  0  0  0
  -27.7851  -31.9149   21.8091 C   0  0  1  0  0  0  0  0  0  0  0  0
  -25.8392  -29.1658   20.0515 C   0  0  1  0  0  0  0  0  0  0  0  0
  -27.3062  -13.9077   21.0356 C   0  0  2  0  0  0  0  0  0  0  0  0
  -30.6082  -19.6572   21.6682 C   0  0  0  0  0  0  0  0  0  0  0  0
  -18.9958  -26.0834   21.9673 C   0  0  0  0  0  0  0  0  0  0  0  0
  -30.9893  -22.6469   21.6660 C   0  0  0  0  0  0  0  0  0  0  0  0
  -24.4831  -18.5978   19.9365 C   0  0  0  0  0  0  0  0  0  0  0  0
  -23.6093  -19.2338   22.2098 C   0  0  0  0  0  0  0  0  0  0  0  0
  -24.5390  -16.9631   21.8090 C   0  0  0  0  0  0  0  0  0  0  0  0
  -24.2690  -29.2710   24.3970 C   0  0  0  0  0  0  0  0  0  0  0  0
  -22.1545  -27.9960   24.8110 C   0  0  0  0  0  0  0  0  0  0  0  0
  -22.0802  -30.1664   23.5835 C   0  0  0  0  0  0  0  0  0  0  0  0
  -21.0050  -25.3724   18.8155 C   0  0  0  0  0  0  0  0  0  0  0  0
  -25.8556  -18.5278   24.2742 C   0  0  0  0  0  0  0  0  0  0  0  0
  -26.6440  -17.4613   25.0300 C   0  0  0  0  0  0  0  0  0  0  0  0
  -28.5103  -23.0021   21.7817 C   0  0  0  0  0  0  0  0  0  1  0  0
  -29.4390  -20.6234   21.4210 C   0  0  2  0  0  0  0  0  0  0  0  0
  -23.0378  -28.1264   22.4374 C   0  0  1  0  0  0  0  0  0  0  0  0
  -20.0589  -26.3462   20.9121 C   0  0  2  0  0  0  0  0  0  0  0  0
  -29.6543  -22.0167   22.0916 C   0  0  1  0  0  0  0  0  0  0  0  0
  -24.7658  -18.4804   21.4716 C   0  0  0  0  0  0  0  0  0  0  0  0
  -22.9064  -28.8785   23.7919 C   0  0  0  0  0  0  0  0  0  0  0  0
  -25.6732  -12.0602   21.0899 N   0  0  0  0  0  0  0  0  0  0  0  0
  -26.5578  -19.0350   23.1158 N   0  0  0  0  0  0  0  0  0  0  0  0
  -26.1771  -13.1067   20.4139 N   0  0  0  0  0  0  0  0  0  0  0  0
  -24.9642  -28.3554   20.9011 N   0  0  0  0  0  0  0  0  0  0  0  0
  -28.3202  -14.7360   23.1270 N   0  0  0  0  0  0  0  0  0  0  0  0
  -25.9661  -14.3312   18.3973 N   0  0  0  0  0  0  0  0  0  0  0  0
  -22.8122  -11.1229   18.0030 N   0  0  0  0  0  0  0  0  0  0  0  0
  -26.8630  -31.1398   21.0070 N   0  0  0  0  0  0  0  0  0  0  0  0
  -21.7623  -27.7661   21.8278 N   0  0  0  0  0  0  0  0  0  0  0  0
  -26.9172  -16.2985   24.2150 N   0  0  0  0  0  0  0  0  0  0  0  0
  -20.0254  -25.2315   19.9234 N   0  3  0  0  0  0  0  0  0  0  0  0
  -23.7796  -12.9211   16.9593 O   0  0  0  0  0  0  0  0  0  0  0  0
  -27.6684  -29.0202   21.5374 O   0  0  0  0  0  0  0  0  0  0  0  0
  -23.3433  -30.0249   21.0486 O   0  0  0  0  0  0  0  0  0  0  0  0
  -22.1570  -25.4827   21.7427 O   0  0  0  0  0  0  0  0  0  0  0  0
  -29.1970  -16.4816   24.3769 O   0  0  0  0  0  0  0  0  0  0  0  0
  -21.6654   -7.1550   21.7414 O   0  0  0  0  0  0  0  0  0  0  0  0
  -28.4617  -23.3000   20.3870 O   0  0  0  0  0  0  0  0  0  1  0  0
  -24.3164   -2.8205   23.8834 F   0  0  0  0  0  0  0  0  0  0  0  0
  -21.5515   -4.6775   20.5200 F   0  0  0  0  0  0  0  0  0  0  0  0
  1  2  1  0  0  0  0
  1  5  2  0  0  0  0
  2  6  2  0  0  0  0
  3  8  2  0  0  0  0
  3 17  1  0  0  0  0
  4  9  1  0  0  0  0
  4 17  2  0  0  0  0
  5 19  1  0  0  0  0
  6 21  1  0  0  0  0
  7 10  2  0  0  0  0
  7 20  1  0  0  0  0
  8 24  1  0  0  0  0
  9 24  2  0  0  0  0
 10 25  1  0  0  0  0
 11 12  2  0  0  0  0
 11 26  1  0  0  0  0
 12 27  1  0  0  0  0
 13 22  1  0  0  0  0
 13 25  2  0  0  0  0
 14 23  1  0  0  0  0
 14 30  2  0  0  0  0
 15 27  2  0  0  0  0
 15 28  1  0  0  0  0
 16 23  2  0  0  0  0
 16 69  1  0  0  0  0
 17 29  1  0  0  0  0
 18 29  1  0  0  0  0
 18 31  2  0  0  0  0
 18 32  1  0  0  0  0
 19 21  2  0  0  0  0
 19 37  1  0  0  0  0
 20 22  2  0  0  0  0
 20 38  1  0  0  0  0
 21 46  1  0  0  0  0
 22 39  1  0  0  0  0
 23 62  1  0  0  0  0
 24 84  1  0  0  0  0
 25 85  1  0  0  0  0
 26 28  2  0  0  0  0
 26 84  1  0  0  0  0
 27 86  1  0  0  0  0
 28 87  1  0  0  0  0
 29 68  2  0  0  0  0
 30 66  1  0  0  0  0
 30 69  1  0  0  0  0
 31 70  1  0  0  0  0
 31 73  1  0  0  0  0
 32 74  1  0  0  0  0
 32 79  2  0  0  0  0
 33 47  1  0  0  0  0
 33 75  1  0  0  0  0
 33 80  2  0  0  0  0
 34 63  1  0  0  0  0
 34 71  1  0  0  0  0
 34 81  2  0  0  0  0
 35 64  1  0  0  0  0
 35 76  1  0  0  0  0
 35 82  2  0  0  0  0
 36 72  1  0  0  0  0
 36 77  1  0  0  0  0
 36 83  2  0  0  0  0
 37 40  1  0  0  0  0
 38 47  1  0  0  0  0
 39 71  1  0  0  0  0
 40 42  1  0  0  0  0
 41 43  1  0  0  0  0
 41 44  1  0  0  0  0
 42 46  1  0  0  0  0
 43 48  1  0  0  0  0
 44 72  1  0  0  0  0
 45 48  1  0  0  0  0
 45 72  1  0  0  0  0
 46 75  1  0  0  0  0
 47 71  1  0  0  0  0
 48 70  1  0  0  0  0
 49 62  1  0  0  0  0
 50 64  1  0  0  0  0
 51 65  1  0  0  0  0
 52 66  1  0  0  0  0
 53 66  1  0  0  0  0
 54 66  1  0  0  0  0
 55 67  1  0  0  0  0
 56 67  1  0  0  0  0
 57 67  1  0  0  0  0
 58 78  1  0  0  0  0
 59 60  1  0  0  0  0
 59 69  1  0  0  0  0
 60 77  1  0  0  0  0
 61 65  1  0  0  0  0
 61 85  1  0  0  0  0
 62 65  1  0  0  0  0
 63 67  1  0  0  0  0
 63 76  1  0  0  0  0
 64 78  1  0  0  0  0
 68 70  1  0  0  0  0
M  CHG  1  78   1
M  ISO  4  36 100  61 101  77 100  85 101
M  END
> <Batch ID>
0091

> <Smiles>
CNC(C)C(=O)NC(C(=O)N1Cc2cc([101O:1][101CH2:1]C(C)C(C)c3cc(C(C)(C)C)n(CC[100NH:0][100C:0](=O)N4CCCC(n5nc(-c6ccc(Oc7ccc(F)cc7F)cc6)c(C(N)=O)c5N)C4)c3)ccc2CC1C(=O)NC1CCCc2ccccc21)C(C)(C)C

> <Shape>
0.241

> <Color>
0.077

> <Negative vol penalty>
0.000

$$$$

  -OEChem-04052319113D

 87 95  0     1  0  0  0  0  0999 V2000
  -31.8813  -22.0344   23.0572 C   0  0  0  0  0  0  0  0  0  0  0  0
  -30.5103  -22.1624   22.8590 C   0  0  0  0  0  0  0  0  0  0  0  0
  -29.7183  -27.4576   22.3114 C   0  0  0  0  0  0  0  0  0  0  0  0
  -28.6465  -28.3416   20.3349 C   0  0  0  0  0  0  0  0  0  0  0  0
  -32.5968  -21.0597   22.3631 C   0  0  0  0  0  0  0  0  0  0  0  0
  -29.8541  -21.3164   21.9657 C   0  0  0  0  0  0  0  0  0  0  0  0
  -25.5088  -19.5096   23.8363 C   0  0  0  0  0  0  0  0  0  0  0  0
  -18.7270  -25.3781   21.0429 C   0  0  0  0  0  0  0  0  0  0  0  0
  -30.5549  -26.6805   21.5103 C   0  0  0  0  0  0  0  0  0  0  0  0
  -29.4832  -27.5645   19.5337 C   0  0  0  0  0  0  0  0  0  0  0  0
  -24.4070  -20.3637   23.8255 C   0  0  0  0  0  0  0  0  0  0  0  0
  -29.6831  -24.3420   18.5306 C   0  0  0  0  0  0  0  0  0  0  0  0
  -29.1025  -23.6481   17.4690 C   0  0  0  0  0  0  0  0  0  0  0  0
  -18.7271  -26.7553   20.8511 C   0  0  0  0  0  0  0  0  0  0  0  0
  -23.5816  -19.2640   21.8434 C   0  0  0  0  0  0  0  0  0  0  0  0
  -30.5112  -24.8470   15.9149 C   0  0  0  0  0  0  0  0  0  0  0  0
  -28.7641  -28.2881   21.7237 C   0  0  0  0  0  0  0  0  0  0  0  0
  -28.1360  -30.4008   23.0081 C   0  0  0  0  0  0  0  0  0  0  0  0
  -31.9475  -20.1949   21.4681 C   0  0  0  0  0  0  0  0  0  0  0  0
  -25.6612  -18.5317   22.8428 C   0  0  0  0  0  0  0  0  0  0  0  0
  -30.5618  -20.3300   21.2580 C   0  0  0  0  0  0  0  0  0  0  0  0
  -24.6850  -18.3970   21.8453 C   0  0  0  0  0  0  0  0  0  0  0  0
  -19.9241  -24.6734   20.9830 C   0  0  0  0  0  0  0  0  0  0  0  0
  -30.4374  -26.7340   20.1214 C   0  0  0  0  0  0  0  0  0  0  0  0
  -23.4446  -20.2429   22.8273 C   0  0  0  0  0  0  0  0  0  0  0  0
  -30.6777  -25.2885   18.2843 C   0  0  0  0  0  0  0  0  0  0  0  0
  -29.5166  -23.9005   16.1612 C   0  0  0  0  0  0  0  0  0  0  0  0
  -31.0918  -25.5409   16.9765 C   0  0  0  0  0  0  0  0  0  0  0  0
  -27.8992  -29.0906   22.5508 C   0  0  0  0  0  0  0  0  0  0  0  0
  -19.9412  -27.3757   20.6044 C   0  0  0  0  0  0  0  0  0  0  0  0
  -21.0846  -25.3870   20.7302 C   0  0  0  0  0  0  0  0  0  0  0  0
  -27.0227  -30.7120   23.7499 C   0  0  0  0  0  0  0  0  0  0  0  0
  -29.2616  -31.2597   22.7825 C   0  0  0  0  0  0  0  0  0  0  0  0
  -27.8216  -17.9440   20.5865 C   0  0  0  0  0  0  0  0  0  0  0  0
  -26.0566  -15.2587   20.1431 C   0  0  0  0  0  0  0  0  0  0  0  0
  -23.0466  -13.6836   20.4679 C   0  0  0  0  0  0  0  0  0  0  0  0
  -21.3762  -28.7221   23.6602 C   0  0  0  0  0  0  0  0  0  0  0  0
  -32.7710  -19.1877   20.7052 C   0  0  0  0  0  0  0  0  0  0  0  0
  -26.8418  -17.6006   22.8839 C   0  0  0  0  0  0  0  0  0  0  0  0
  -24.7915  -17.3503   20.7676 C   0  0  0  0  0  0  0  0  0  0  0  0
  -31.9376  -18.0849   20.0573 C   0  0  0  0  0  0  0  0  0  0  0  0
  -23.6177  -28.6785   26.4261 C   0  0  0  0  0  0  0  0  0  0  0  0
  -30.7328  -18.6803   19.3357 C   0  0  0  0  0  0  0  0  0  0  0  0
  -24.9906  -28.8974   25.7878 C   0  0  0  0  0  0  0  0  0  0  0  0
  -22.7139  -27.8228   25.5412 C   0  0  0  0  0  0  0  0  0  0  0  0
  -23.9334  -28.5292   23.5194 C   0  0  0  0  0  0  0  0  0  0  0  0
  -29.8102  -19.4147   20.3159 C   0  0  1  0  0  0  0  0  0  0  0  0
  -27.1592  -16.9781   21.5278 C   0  0  1  0  0  0  0  0  0  0  0  0
  -24.8611  -29.4331   24.3492 C   0  0  2  0  0  0  0  0  0  0  0  0
  -23.5775  -25.6527   20.6903 C   0  0  0  0  0  0  0  0  0  0  0  0
  -21.9005  -11.5051   19.9802 C   0  0  0  0  0  0  0  0  0  0  0  0
  -19.9316  -20.9683   24.4228 C   0  0  0  0  0  0  0  0  0  0  0  0
  -20.2128  -31.1566   21.4252 C   0  0  0  0  0  0  0  0  0  0  0  0
  -25.8633  -16.0231   17.1955 C   0  0  0  0  0  0  0  0  0  0  0  0
  -23.9761  -14.3936   16.9685 C   0  0  0  0  0  0  0  0  0  0  0  0
  -26.2457  -13.5881   17.6188 C   0  0  0  0  0  0  0  0  0  0  0  0
  -22.4986  -13.1969   23.3352 C   0  0  0  0  0  0  0  0  0  0  0  0
  -19.9303  -23.1793   21.1890 C   0  0  0  0  0  0  0  0  0  0  0  0
  -19.9782  -28.8529   20.3955 C   0  0  0  0  0  0  0  0  0  0  0  0
  -22.4000  -24.6831   20.6578 C   0  0  0  0  0  0  0  0  0  0  0  0
  -19.8658  -22.7523   22.6620 C   0  0  0  0  0  0  0  0  0  0  0  0
  -21.1564  -20.5621   22.2631 C   0  0  0  0  0  0  0  0  0  1  0  0
  -24.8665  -14.8902   19.2905 C   0  0  1  0  0  0  0  0  0  0  0  0
  -22.6802  -12.3124   21.0064 C   0  0  2  0  0  0  0  0  0  0  0  0
  -19.9358  -21.2293   22.9112 C   0  0  1  0  0  0  0  0  0  0  0  0
  -20.1763  -29.6563   21.6989 C   0  0  1  0  0  0  0  0  0  0  0  0
  -25.2366  -14.7448   17.7874 C   0  0  0  0  0  0  0  0  0  0  0  0
  -26.7276  -28.6029   22.9673 N   0  0  0  0  0  0  0  0  0  0  0  0
  -21.1242  -26.7247   20.5388 N   0  0  0  0  0  0  0  0  0  0  0  0
  -26.2182  -29.6120   23.6943 N   0  0  0  0  0  0  0  0  0  0  0  0
  -25.9673  -16.4679   20.8471 N   0  0  0  0  0  0  0  0  0  0  0  0
  -22.6323  -28.3862   24.1914 N   0  0  0  0  0  0  0  0  0  0  0  0
  -26.6633  -31.8165   24.4379 N   0  0  0  0  0  0  0  0  0  0  0  0
  -30.3193  -30.7825   21.9964 N   0  0  0  0  0  0  0  0  0  0  0  0
  -29.0087  -18.4680   21.0615 N   0  0  0  0  0  0  0  0  0  0  0  0
  -24.2960  -13.6861   19.8846 N   0  0  0  0  0  0  0  0  0  0  0  0
  -21.3888  -29.2561   22.3774 N   0  0  0  0  0  0  0  0  0  0  0  0
  -21.8451  -12.4441   22.2337 N   0  3  0  0  0  0  0  0  0  0  0  0
  -29.3348  -32.4101   23.2772 O   0  0  0  0  0  0  0  0  0  0  0  0
  -27.2954  -18.1941   19.5084 O   0  0  0  0  0  0  0  0  0  0  0  0
  -27.0267  -14.4981   20.1884 O   0  0  0  0  0  0  0  0  0  0  0  0
  -22.2977  -14.6545   20.5527 O   0  0  0  0  0  0  0  0  0  0  0  0
  -20.3220  -28.5633   24.2850 O   0  0  0  0  0  0  0  0  0  0  0  0
  -31.2537  -25.9761   19.3394 O   0  0  0  0  0  0  0  0  0  0  0  0
  -22.3685  -21.0758   22.8140 O   0  0  0  0  0  0  0  0  0  1  0  0
  -28.9600  -23.2329   15.1420 F   0  0  0  0  0  0  0  0  0  0  0  0
  -32.0477  -26.4482   16.7337 F   0  0  0  0  0  0  0  0  0  0  0  0
  1  2  1  0  0  0  0
  1  5  2  0  0  0  0
  2  6  2  0  0  0  0
  3  9  2  0  0  0  0
  3 17  1  0  0  0  0
  4 10  1  0  0  0  0
  4 17  2  0  0  0  0
  5 19  1  0  0  0  0
  6 21  1  0  0  0  0
  7 11  2  0  0  0  0
  7 20  1  0  0  0  0
  8 14  2  0  0  0  0
  8 23  1  0  0  0  0
  9 24  1  0  0  0  0
 10 24  2  0  0  0  0
 11 25  1  0  0  0  0
 12 13  2  0  0  0  0
 12 26  1  0  0  0  0
 13 27  1  0  0  0  0
 14 30  1  0  0  0  0
 15 22  1  0  0  0  0
 15 25  2  0  0  0  0
 16 27  2  0  0  0  0
 16 28  1  0  0  0  0
 17 29  1  0  0  0  0
 18 29  1  0  0  0  0
 18 32  2  0  0  0  0
 18 33  1  0  0  0  0
 19 21  2  0  0  0  0
 19 38  1  0  0  0  0
 20 22  2  0  0  0  0
 20 39  1  0  0  0  0
 21 47  1  0  0  0  0
 22 40  1  0  0  0  0
 23 31  2  0  0  0  0
 23 58  1  0  0  0  0
 24 84  1  0  0  0  0
 25 85  1  0  0  0  0
 26 28  2  0  0  0  0
 26 84  1  0  0  0  0
 27 86  1  0  0  0  0
 28 87  1  0  0  0  0
 29 68  2  0  0  0  0
 30 59  1  0  0  0  0
 30 69  2  0  0  0  0
 31 60  1  0  0  0  0
 31 69  1  0  0  0  0
 32 70  1  0  0  0  0
 32 73  1  0  0  0  0
 33 74  1  0  0  0  0
 33 79  2  0  0  0  0
 34 48  1  0  0  0  0
 34 75  1  0  0  0  0
 34 80  2  0  0  0  0
 35 63  1  0  0  0  0
 35 71  1  0  0  0  0
 35 81  2  0  0  0  0
 36 64  1  0  0  0  0
 36 76  1  0  0  0  0
 36 82  2  0  0  0  0
 37 72  1  0  0  0  0
 37 77  1  0  0  0  0
 37 83  2  0  0  0  0
 38 41  1  0  0  0  0
 39 48  1  0  0  0  0
 40 71  1  0  0  0  0
 41 43  1  0  0  0  0
 42 44  1  0  0  0  0
 42 45  1  0  0  0  0
 43 47  1  0  0  0  0
 44 49  1  0  0  0  0
 45 72  1  0  0  0  0
 46 49  1  0  0  0  0
 46 72  1  0  0  0  0
 47 75  1  0  0  0  0
 48 71  1  0  0  0  0
 49 70  1  0  0  0  0
 50 60  1  0  0  0  0
 51 64  1  0  0  0  0
 52 65  1  0  0  0  0
 53 66  1  0  0  0  0
 54 67  1  0  0  0  0
 55 67  1  0  0  0  0
 56 67  1  0  0  0  0
 57 78  1  0  0  0  0
 58 61  1  0  0  0  0
 59 66  1  0  0  0  0
 61 65  1  0  0  0  0
 62 65  1  0  0  0  0
 62 85  1  0  0  0  0
 63 67  1  0  0  0  0
 63 76  1  0  0  0  0
 64 78  1  0  0  0  0
 66 77  1  0  0  0  0
 68 70  1  0  0  0  0
M  CHG  1  78   1
M  ISO  4  37 100  62 101  77 100  85 101
M  END
> <Batch ID>
0091

> <Smiles>
CCc1nc(CC(C)[100NH:0][100C:0](=O)N2CCCC(n3nc(-c4ccc(Oc5ccc(F)cc5F)cc4)c(C(N)=O)c3N)C2)ccc1CCC(C)[101CH2:1][101O:1]c1ccc2c(c1)CN(C(=O)C(NC(=O)C(C)NC)C(C)(C)C)C(C(=O)NC1CCCc3ccccc31)C2

> <Shape>
0.212

> <Color>
0.062

> <Negative vol penalty>
0.000

$$$$

  -OEChem-04052319113D

 87 95  0     1  0  0  0  0  0999 V2000
  -21.6129  -11.7436   21.0128 C   0  0  0  0  0  0  0  0  0  0  0  0
  -21.7458  -12.7969   21.9119 C   0  0  0  0  0  0  0  0  0  0  0  0
  -19.6008  -28.2068   21.9809 C   0  0  0  0  0  0  0  0  0  0  0  0
  -21.0601  -26.8418   23.3390 C   0  0  0  0  0  0  0  0  0  0  0  0
  -22.6961  -11.3631   20.2217 C   0  0  0  0  0  0  0  0  0  0  0  0
  -22.9623  -13.4695   22.0213 C   0  0  0  0  0  0  0  0  0  0  0  0
  -23.7841  -19.4286   23.1702 C   0  0  0  0  0  0  0  0  0  0  0  0
  -18.6788  -27.1618   21.9213 C   0  0  0  0  0  0  0  0  0  0  0  0
  -20.1380  -25.7969   23.2795 C   0  0  0  0  0  0  0  0  0  0  0  0
  -24.0807  -20.1260   24.3403 C   0  0  0  0  0  0  0  0  0  0  0  0
  -19.2192  -23.4080   21.0704 C   0  0  0  0  0  0  0  0  0  0  0  0
  -19.7070  -22.1273   20.8106 C   0  0  0  0  0  0  0  0  0  0  0  0
  -26.4206  -20.1026   23.7541 C   0  0  0  0  0  0  0  0  0  0  0  0
  -27.6297  -23.6020   26.1516 C   0  0  0  0  0  0  0  0  0  0  0  0
  -18.8207  -21.3611   22.9236 C   0  0  0  0  0  0  0  0  0  0  0  0
  -20.7915  -28.0468   22.6897 C   0  0  0  0  0  0  0  0  0  0  0  0
  -21.8074  -30.1506   23.7140 C   0  0  0  0  0  0  0  0  0  0  0  0
  -23.9237  -12.0376   20.3145 C   0  0  0  0  0  0  0  0  0  0  0  0
  -24.8065  -19.0527   22.2870 C   0  0  0  0  0  0  0  0  0  0  0  0
  -24.0634  -13.0967   21.2317 C   0  0  0  0  0  0  0  0  0  0  0  0
  -26.1340  -19.4026   22.5721 C   0  0  0  0  0  0  0  0  0  0  0  0
  -28.4736  -24.3843   25.3711 C   0  0  0  0  0  0  0  0  0  0  0  0
  -27.9664  -25.4970   24.7094 C   0  0  0  0  0  0  0  0  0  0  0  0
  -18.9474  -25.9569   22.5706 C   0  0  0  0  0  0  0  0  0  0  0  0
  -25.3994  -20.4606   24.6339 C   0  0  0  0  0  0  0  0  0  0  0  0
  -18.5322  -23.6653   22.2568 C   0  0  0  0  0  0  0  0  0  0  0  0
  -19.5078  -21.1039   21.7372 C   0  0  0  0  0  0  0  0  0  0  0  0
  -18.3329  -22.6419   23.1834 C   0  0  0  0  0  0  0  0  0  0  0  0
  -21.7446  -29.1257   22.7511 C   0  0  0  0  0  0  0  0  0  0  0  0
  -26.2972  -23.9720   26.2370 C   0  0  0  0  0  0  0  0  0  0  0  0
  -26.6188  -25.7821   24.8592 C   0  0  0  0  0  0  0  0  0  0  0  0
  -22.8814  -30.9163   23.3309 C   0  0  0  0  0  0  0  0  0  0  0  0
  -20.9699  -30.3893   24.8530 C   0  0  0  0  0  0  0  0  0  0  0  0
  -25.9342  -16.2830   21.2096 C   0  0  0  0  0  0  0  0  0  0  0  0
  -27.7390  -18.2004   19.3153 C   0  0  0  0  0  0  0  0  0  0  0  0
  -29.1705  -21.2573   18.8121 C   0  0  0  0  0  0  0  0  0  0  0  0
  -27.8044  -29.7268   20.1371 C   0  0  0  0  0  0  0  0  0  0  0  0
  -25.0802  -11.5595   19.4727 C   0  0  0  0  0  0  0  0  0  0  0  0
  -24.4670  -18.3240   21.0157 C   0  0  0  0  0  0  0  0  0  0  0  0
  -27.2658  -19.0402   21.6468 C   0  0  0  0  0  0  0  0  0  0  0  0
  -26.2239  -12.5664   19.3808 C   0  0  0  0  0  0  0  0  0  0  0  0
  -25.3566  -32.2191   19.4493 C   0  0  0  0  0  0  0  0  0  0  0  0
  -26.5582  -13.1220   20.7615 C   0  0  0  0  0  0  0  0  0  0  0  0
  -24.1590  -31.8014   20.3044 C   0  0  0  0  0  0  0  0  0  0  0  0
  -26.0954  -31.0085   18.8830 C   0  0  0  0  0  0  0  0  0  0  0  0
  -25.3119  -29.5928   20.7419 C   0  0  0  0  0  0  0  0  0  0  0  0
  -25.3596  -13.8669   21.3615 C   0  0  1  0  0  0  0  0  0  0  0  0
  -25.6448  -17.5421   20.4424 C   0  0  1  0  0  0  0  0  0  0  0  0
  -24.5683  -30.7782   21.3808 C   0  0  2  0  0  0  0  0  0  0  0  0
  -29.9140  -24.0079   25.2584 C   0  0  0  0  0  0  0  0  0  0  0  0
  -26.0164  -26.9651   24.1742 C   0  0  0  0  0  0  0  0  0  0  0  0
  -30.4161  -23.0762   17.6131 C   0  0  0  0  0  0  0  0  0  0  0  0
  -30.1895  -16.7068   20.3517 C   0  0  0  0  0  0  0  0  0  0  0  0
  -31.6113  -18.5697   19.4706 C   0  0  0  0  0  0  0  0  0  0  0  0
  -30.2316  -17.2068   17.9016 C   0  0  0  0  0  0  0  0  0  0  0  0
  -29.2972  -26.3894   19.9571 C   0  0  0  0  0  0  0  0  0  0  0  0
  -31.0683  -26.5438   21.7019 C   0  0  0  0  0  0  0  0  0  0  0  0
  -26.6986  -22.2693   17.5375 C   0  0  0  0  0  0  0  0  0  0  0  0
  -28.8485  -26.3561   23.8672 C   0  0  0  0  0  0  0  0  0  0  0  0
  -25.3518  -23.1471   27.0762 C   0  0  0  0  0  0  0  0  0  0  0  0
  -28.6580  -26.0784   22.3633 C   0  0  0  0  0  0  0  0  0  0  0  0
  -29.3982  -28.3948   21.4954 C   0  0  0  0  0  0  0  0  0  0  0  0
  -24.6929  -22.0282   26.2769 C   0  0  0  0  0  0  0  0  0  1  0  0
  -29.0920  -18.8584   19.4397 C   0  0  1  0  0  0  0  0  0  0  0  0
  -29.1937  -22.1715   17.6005 C   0  0  2  0  0  0  0  0  0  0  0  0
  -30.2602  -17.8407   19.3095 C   0  0  0  0  0  0  0  0  0  0  0  0
  -29.5904  -26.8629   21.3974 C   0  0  0  0  0  0  0  0  0  0  0  0
  -22.7023  -29.2280   21.8258 N   0  0  0  0  0  0  0  0  0  0  0  0
  -25.7681  -25.0457   25.6087 N   0  0  0  0  0  0  0  0  0  0  0  0
  -23.3771  -30.3265   22.2055 N   0  0  0  0  0  0  0  0  0  0  0  0
  -26.8837  -18.3224   20.4195 N   0  0  0  0  0  0  0  0  0  0  0  0
  -26.4566  -30.0780   19.9552 N   0  0  0  0  0  0  0  0  0  0  0  0
  -23.4407  -32.0297   23.8503 N   0  0  0  0  0  0  0  0  0  0  0  0
  -19.9110  -29.5051   25.1007 N   0  0  0  0  0  0  0  0  0  0  0  0
  -25.2306  -15.1796   20.7659 N   0  0  0  0  0  0  0  0  0  0  0  0
  -29.1183  -19.9283   18.4482 N   0  0  0  0  0  0  0  0  0  0  0  0
  -28.0607  -28.8447   21.1797 N   0  0  0  0  0  0  0  0  0  0  0  0
  -27.9749  -23.0288   17.5750 N   0  3  0  0  0  0  0  0  0  0  0  0
  -21.1450  -31.3673   25.6188 O   0  0  0  0  0  0  0  0  0  0  0  0
  -26.7375  -16.3103   22.1347 O   0  0  0  0  0  0  0  0  0  0  0  0
  -27.4490  -17.6063   18.2739 O   0  0  0  0  0  0  0  0  0  0  0  0
  -29.1999  -21.6796   19.9659 O   0  0  0  0  0  0  0  0  0  0  0  0
  -28.7127  -30.1708   19.4266 O   0  0  0  0  0  0  0  0  0  0  0  0
  -18.0478  -24.9371   22.5129 O   0  0  0  0  0  0  0  0  0  0  0  0
  -25.6917  -21.1408   25.7757 O   0  0  0  0  0  0  0  0  0  1  0  0
  -19.9749  -19.8737   21.4869 F   0  0  0  0  0  0  0  0  0  0  0  0
  -17.6726  -22.8827   24.3243 F   0  0  0  0  0  0  0  0  0  0  0  0
  1  2  1  0  0  0  0
  1  5  2  0  0  0  0
  2  6  2  0  0  0  0
  3  8  2  0  0  0  0
  3 16  1  0  0  0  0
  4  9  1  0  0  0  0
  4 16  2  0  0  0  0
  5 18  1  0  0  0  0
  6 20  1  0  0  0  0
  7 10  2  0  0  0  0
  7 19  1  0  0  0  0
  8 24  1  0  0  0  0
  9 24  2  0  0  0  0
 10 25  1  0  0  0  0
 11 12  2  0  0  0  0
 11 26  1  0  0  0  0
 12 27  1  0  0  0  0
 13 21  1  0  0  0  0
 13 25  2  0  0  0  0
 14 22  2  0  0  0  0
 14 30  1  0  0  0  0
 15 27  2  0  0  0  0
 15 28  1  0  0  0  0
 16 29  1  0  0  0  0
 17 29  1  0  0  0  0
 17 32  2  0  0  0  0
 17 33  1  0  0  0  0
 18 20  2  0  0  0  0
 18 38  1  0  0  0  0
 19 21  2  0  0  0  0
 19 39  1  0  0  0  0
 20 47  1  0  0  0  0
 21 40  1  0  0  0  0
 22 23  1  0  0  0  0
 22 50  1  0  0  0  0
 23 31  2  0  0  0  0
 23 59  1  0  0  0  0
 24 84  1  0  0  0  0
 25 85  1  0  0  0  0
 26 28  2  0  0  0  0
 26 84  1  0  0  0  0
 27 86  1  0  0  0  0
 28 87  1  0  0  0  0
 29 68  2  0  0  0  0
 30 60  1  0  0  0  0
 30 69  2  0  0  0  0
 31 51  1  0  0  0  0
 31 69  1  0  0  0  0
 32 70  1  0  0  0  0
 32 73  1  0  0  0  0
 33 74  1  0  0  0  0
 33 79  2  0  0  0  0
 34 48  1  0  0  0  0
 34 75  1  0  0  0  0
 34 80  2  0  0  0  0
 35 64  1  0  0  0  0
 35 71  1  0  0  0  0
 35 81  2  0  0  0  0
 36 65  1  0  0  0  0
 36 76  1  0  0  0  0
 36 82  2  0  0  0  0
 37 72  1  0  0  0  0
 37 77  1  0  0  0  0
 37 83  2  0  0  0  0
 38 41  1  0  0  0  0
 39 48  1  0  0  0  0
 40 71  1  0  0  0  0
 41 43  1  0  0  0  0
 42 44  1  0  0  0  0
 42 45  1  0  0  0  0
 43 47  1  0  0  0  0
 44 49  1  0  0  0  0
 45 72  1  0  0  0  0
 46 49  1  0  0  0  0
 46 72  1  0  0  0  0
 47 75  1  0  0  0  0
 48 71  1  0  0  0  0
 49 70  1  0  0  0  0
 52 65  1  0  0  0  0
 53 66  1  0  0  0  0
 54 66  1  0  0  0  0
 55 66  1  0  0  0  0
 56 67  1  0  0  0  0
 57 67  1  0  0  0  0
 58 78  1  0  0  0  0
 59 61  1  0  0  0  0
 60 63  1  0  0  0  0
 61 67  1  0  0  0  0
 62 67  1  0  0  0  0
 62 77  1  0  0  0  0
 63 85  1  0  0  0  0
 64 66  1  0  0  0  0
 64 76  1  0  0  0  0
 65 78  1  0  0  0  0
 68 70  1  0  0  0  0
M  CHG  1  78   1
M  ISO  4  37 100  63 101  77 100  85 101
M  END
> <Batch ID>
0091

> <Smiles>
CNC(C)C(=O)NC(C(=O)N1Cc2cc([101O:1][101CH2:1]Cc3cc(C)c(CCC(C)(C)C[100NH:0][100C:0](=O)N4CCCC(n5nc(-c6ccc(Oc7ccc(F)cc7F)cc6)c(C(N)=O)c5N)C4)c(C)n3)ccc2CC1C(=O)NC1CCCc2ccccc21)C(C)(C)C

> <Shape>
0.233

> <Color>
0.072

> <Negative vol penalty>
0.000

$$$$

  -OEChem-04052319113D

 86 94  0     1  0  0  0  0  0999 V2000
  -32.4371  -24.8757   18.7743 C   0  0  0  0  0  0  0  0  0  0  0  0
  -31.0859  -25.0969   18.5332 C   0  0  0  0  0  0  0  0  0  0  0  0
  -27.6651  -14.3324   18.6836 C   0  0  0  0  0  0  0  0  0  0  0  0
  -25.6309  -15.2643   19.5952 C   0  0  0  0  0  0  0  0  0  0  0  0
  -32.9864  -25.2188   20.0079 C   0  0  0  0  0  0  0  0  0  0  0  0
  -30.2861  -25.6723   19.5212 C   0  0  0  0  0  0  0  0  0  0  0  0
  -24.2905  -26.7530   19.6324 C   0  0  0  0  0  0  0  0  0  0  0  0
  -27.3668  -13.1042   19.2735 C   0  0  0  0  0  0  0  0  0  0  0  0
  -25.3326  -14.0360   20.1850 C   0  0  0  0  0  0  0  0  0  0  0  0
  -23.1341  -26.0965   20.0515 C   0  0  0  0  0  0  0  0  0  0  0  0
  -24.0650  -11.0548   19.2225 C   0  0  0  0  0  0  0  0  0  0  0  0
  -22.7583  -10.5814   19.1048 C   0  0  0  0  0  0  0  0  0  0  0  0
  -23.2085  -27.3088   22.1357 C   0  0  0  0  0  0  0  0  0  0  0  0
  -22.5450  -10.5720   21.5114 C   0  0  0  0  0  0  0  0  0  0  0  0
  -23.6461  -23.0826   23.9046 C   0  0  0  0  0  0  0  0  0  0  0  0
  -22.6028  -21.3947   22.8668 C   0  0  0  0  0  0  0  0  0  0  0  0
  -26.7972  -15.4125   18.8445 C   0  0  0  0  0  0  0  0  0  0  0  0
  -26.7311  -17.1218   16.9520 C   0  0  0  0  0  0  0  0  0  0  0  0
  -32.1895  -25.7871   21.0154 C   0  0  0  0  0  0  0  0  0  0  0  0
  -24.9217  -27.6859   20.4677 C   0  0  0  0  0  0  0  0  0  0  0  0
  -30.8270  -26.0475   20.7642 C   0  0  0  0  0  0  0  0  0  0  0  0
  -24.3713  -27.9776   21.7239 C   0  0  0  0  0  0  0  0  0  0  0  0
  -24.5960  -22.1282   23.6145 C   0  0  0  0  0  0  0  0  0  0  0  0
  -23.9359  -21.0603   22.9580 C   0  0  0  0  0  0  0  0  0  0  0  0
  -26.2006  -12.9559   20.0242 C   0  0  0  0  0  0  0  0  0  0  0  0
  -22.5945  -26.3722   21.3044 C   0  0  0  0  0  0  0  0  0  0  0  0
  -24.6118  -11.2867   20.4846 C   0  0  0  0  0  0  0  0  0  0  0  0
  -21.9982  -10.3401   20.2493 C   0  0  0  0  0  0  0  0  0  0  0  0
  -23.8518  -11.0454   21.6290 C   0  0  0  0  0  0  0  0  0  0  0  0
  -27.1051  -16.6817   18.2358 C   0  0  0  0  0  0  0  0  0  0  0  0
  -27.2639  -18.3839   16.8530 C   0  0  0  0  0  0  0  0  0  0  0  0
  -25.9702  -16.4499   15.9395 C   0  0  0  0  0  0  0  0  0  0  0  0
  -27.7779  -27.8893   21.8478 C   0  0  0  0  0  0  0  0  0  0  0  0
  -26.7187  -30.8309   22.7121 C   0  0  0  0  0  0  0  0  0  0  0  0
  -24.0679  -32.8920   23.3220 C   0  0  0  0  0  0  0  0  0  0  0  0
  -28.7785  -22.5016   20.9275 C   0  0  0  0  0  0  0  0  0  0  0  0
  -32.8373  -26.1465   22.3293 C   0  0  0  0  0  0  0  0  0  0  0  0
  -26.1534  -28.4051   19.9901 C   0  0  0  0  0  0  0  0  0  0  0  0
  -24.9993  -28.9856   22.6502 C   0  0  0  0  0  0  0  0  0  0  0  0
  -31.8285  -26.3354   23.4575 C   0  0  0  0  0  0  0  0  0  0  0  0
  -30.8961  -21.0517   18.4596 C   0  0  0  0  0  0  0  0  0  0  0  0
  -30.7089  -27.2604   23.0043 C   0  0  0  0  0  0  0  0  0  0  0  0
  -30.1309  -19.8070   18.0066 C   0  0  0  0  0  0  0  0  0  0  0  0
  -30.7198  -21.3095   19.9544 C   0  0  0  0  0  0  0  0  0  0  0  0
  -28.5536  -20.1343   19.9569 C   0  0  0  0  0  0  0  0  0  0  0  0
  -29.9310  -26.6439   21.8347 C   0  0  1  0  0  0  0  0  0  0  0  0
  -27.0025  -28.9579   21.1307 C   0  0  1  0  0  0  0  0  0  0  0  0
  -28.6554  -19.8651   18.4458 C   0  0  2  0  0  0  0  0  0  0  0  0
  -24.4273  -19.6506   20.9271 C   0  0  0  0  0  0  0  0  0  0  0  0
  -23.9987  -18.5479   23.1531 C   0  0  0  0  0  0  0  0  0  0  0  0
  -23.5168  -35.2298   24.0491 C   0  0  0  0  0  0  0  0  0  0  0  0
  -19.0587  -24.2505   22.4501 C   0  0  0  0  0  0  0  0  0  0  0  0
  -27.4044  -30.0941   25.5925 C   0  0  0  0  0  0  0  0  0  0  0  0
  -25.9898  -32.0168   26.3476 C   0  0  0  0  0  0  0  0  0  0  0  0
  -28.0082  -32.4321   24.9418 C   0  0  0  0  0  0  0  0  0  0  0  0
  -22.6763  -33.4796   20.7770 C   0  0  0  0  0  0  0  0  0  0  0  0
  -26.0351  -22.2142   23.9328 C   0  0  0  0  0  0  0  0  0  0  0  0
  -26.7528  -23.4683   23.3782 C   0  0  0  0  0  0  0  0  0  0  0  0
  -21.1283  -23.3671   23.5572 C   0  0  0  0  0  0  0  0  0  0  0  0
  -26.7398  -23.5709   21.8545 C   0  0  0  0  0  0  0  0  0  0  0  0
  -21.2475  -24.4143   21.2152 C   0  0  0  0  0  0  0  0  0  1  0  0
  -24.5515  -19.8146   22.4596 C   0  0  0  0  0  0  0  0  0  0  0  0
  -25.9586  -31.3899   23.8906 C   0  0  1  0  0  0  0  0  0  0  0  0
  -23.7673  -34.3083   22.8656 C   0  0  2  0  0  0  0  0  0  0  0  0
  -20.4167  -23.5827   22.2042 C   0  0  2  0  0  0  0  0  0  0  0  0
  -26.8292  -31.4627   25.1767 C   0  0  0  0  0  0  0  0  0  0  0  0
  -27.8203  -17.5903   18.9044 N   0  0  0  0  0  0  0  0  0  0  0  0
  -22.4383  -22.6262   23.4452 N   0  0  0  0  0  0  0  0  0  0  0  0
  -27.9001  -18.6139   18.0373 N   0  0  0  0  0  0  0  0  0  0  0  0
  -26.2059  -29.6579   22.1405 N   0  0  0  0  0  0  0  0  0  0  0  0
  -29.2982  -21.3547   20.3050 N   0  0  0  0  0  0  0  0  0  0  0  0
  -27.2456  -19.3082   15.8692 N   0  0  0  0  0  0  0  0  0  0  0  0
  -25.4983  -15.1574   16.2058 N   0  0  0  0  0  0  0  0  0  0  0  0
  -29.0204  -27.6324   21.3003 N   0  0  0  0  0  0  0  0  0  0  0  0
  -25.4230  -32.6761   23.4579 N   0  0  0  0  0  0  0  0  0  0  0  0
  -27.4206  -22.4643   21.2199 N   0  0  0  0  0  0  0  0  0  0  0  0
  -22.5596  -34.3257   21.9926 N   0  3  0  0  0  0  0  0  0  0  0  0
  -25.7302  -16.9737   14.8252 O   0  0  0  0  0  0  0  0  0  0  0  0
  -27.2860  -27.3395   22.8263 O   0  0  0  0  0  0  0  0  0  0  0  0
  -27.7262  -31.4176   22.3090 O   0  0  0  0  0  0  0  0  0  0  0  0
  -23.1885  -32.0616   23.5401 O   0  0  0  0  0  0  0  0  0  0  0  0
  -29.4721  -23.4879   21.1976 O   0  0  0  0  0  0  0  0  0  0  0  0
  -25.9091  -11.7575   20.5998 O   0  0  0  0  0  0  0  0  0  0  0  0
  -21.4663  -25.7324   21.7162 O   0  0  0  0  0  0  0  0  0  1  0  0
  -20.7428   -9.8870   20.1361 F   0  0  0  0  0  0  0  0  0  0  0  0
  -24.3713  -11.2674   22.8442 F   0  0  0  0  0  0  0  0  0  0  0  0
  1  2  1  0  0  0  0
  1  5  2  0  0  0  0
  2  6  2  0  0  0  0
  3  8  2  0  0  0  0
  3 17  1  0  0  0  0
  4  9  1  0  0  0  0
  4 17  2  0  0  0  0
  5 19  1  0  0  0  0
  6 21  1  0  0  0  0
  7 10  2  0  0  0  0
  7 20  1  0  0  0  0
  8 25  1  0  0  0  0
  9 25  2  0  0  0  0
 10 26  1  0  0  0  0
 11 12  2  0  0  0  0
 11 27  1  0  0  0  0
 12 28  1  0  0  0  0
 13 22  1  0  0  0  0
 13 26  2  0  0  0  0
 14 28  2  0  0  0  0
 14 29  1  0  0  0  0
 15 23  2  0  0  0  0
 15 68  1  0  0  0  0
 16 24  2  0  0  0  0
 16 68  1  0  0  0  0
 17 30  1  0  0  0  0
 18 30  1  0  0  0  0
 18 31  2  0  0  0  0
 18 32  1  0  0  0  0
 19 21  2  0  0  0  0
 19 37  1  0  0  0  0
 20 22  2  0  0  0  0
 20 38  1  0  0  0  0
 21 46  1  0  0  0  0
 22 39  1  0  0  0  0
 23 24  1  0  0  0  0
 23 57  1  0  0  0  0
 24 62  1  0  0  0  0
 25 83  1  0  0  0  0
 26 84  1  0  0  0  0
 27 29  2  0  0  0  0
 27 83  1  0  0  0  0
 28 85  1  0  0  0  0
 29 86  1  0  0  0  0
 30 67  2  0  0  0  0
 31 69  1  0  0  0  0
 31 72  1  0  0  0  0
 32 73  1  0  0  0  0
 32 78  2  0  0  0  0
 33 47  1  0  0  0  0
 33 74  1  0  0  0  0
 33 79  2  0  0  0  0
 34 63  1  0  0  0  0
 34 70  1  0  0  0  0
 34 80  2  0  0  0  0
 35 64  1  0  0  0  0
 35 75  1  0  0  0  0
 35 81  2  0  0  0  0
 36 71  1  0  0  0  0
 36 76  1  0  0  0  0
 36 82  2  0  0  0  0
 37 40  1  0  0  0  0
 38 47  1  0  0  0  0
 39 70  1  0  0  0  0
 40 42  1  0  0  0  0
 41 43  1  0  0  0  0
 41 44  1  0  0  0  0
 42 46  1  0  0  0  0
 43 48  1  0  0  0  0
 44 71  1  0  0  0  0
 45 48  1  0  0  0  0
 45 71  1  0  0  0  0
 46 74  1  0  0  0  0
 47 70  1  0  0  0  0
 48 69  1  0  0  0  0
 49 62  1  0  0  0  0
 50 62  1  0  0  0  0
 51 64  1  0  0  0  0
 52 65  1  0  0  0  0
 53 66  1  0  0  0  0
 54 66  1  0  0  0  0
 55 66  1  0  0  0  0
 56 77  1  0  0  0  0
 57 58  1  0  0  0  0
 58 60  1  0  0  0  0
 59 65  1  0  0  0  0
 59 68  1  0  0  0  0
 60 76  1  0  0  0  0
 61 65  1  0  0  0  0
 61 84  1  0  0  0  0
 63 66  1  0  0  0  0
 63 75  1  0  0  0  0
 64 77  1  0  0  0  0
 67 69  1  0  0  0  0
M  CHG  1  77   1
M  ISO  4  36 100  61 101  76 100  84 101
M  END
> <Batch ID>
0091

> <Smiles>
CNC(C)C(=O)NC(C(=O)N1Cc2cc([101O:1][101CH2:1]C(C)Cn3cc(CCC[100NH:0][100C:0](=O)N4CCCC(n5nc(-c6ccc(Oc7ccc(F)cc7F)cc6)c(C(N)=O)c5N)C4)c(C(C)C)c3)ccc2CC1C(=O)NC1CCCc2ccccc21)C(C)(C)C

> <Shape>
0.240

> <Color>
0.057

> <Negative vol penalty>
0.000

$$$$

  -OEChem-04052319113D

 88 96  0     1  0  0  0  0  0999 V2000
  -23.2285   -7.8165   21.4910 C   0  0  0  0  0  0  0  0  0  0  0  0
  -24.0322   -8.7732   20.8793 C   0  0  0  0  0  0  0  0  0  0  0  0
  -22.8320  -29.2884   19.8075 C   0  0  0  0  0  0  0  0  0  0  0  0
  -23.0703  -28.6653   22.1296 C   0  0  0  0  0  0  0  0  0  0  0  0
  -21.9515   -8.1599   21.9330 C   0  0  0  0  0  0  0  0  0  0  0  0
  -23.5589  -10.0736   20.7082 C   0  0  0  0  0  0  0  0  0  0  0  0
  -27.0022  -13.5732   21.9502 C   0  0  0  0  0  0  0  0  0  0  0  0
  -21.6384  -29.9453   20.1063 C   0  0  0  0  0  0  0  0  0  0  0  0
  -21.8766  -29.3223   22.4284 C   0  0  0  0  0  0  0  0  0  0  0  0
  -28.0139  -13.8274   21.0252 C   0  0  0  0  0  0  0  0  0  0  0  0
  -18.7088  -30.5277   23.7403 C   0  0  0  0  0  0  0  0  0  0  0  0
  -17.7974  -29.8720   24.5679 C   0  0  0  0  0  0  0  0  0  0  0  0
  -26.8291  -15.7914   20.2781 C   0  0  0  0  0  0  0  0  0  0  0  0
  -17.6497  -28.0637   22.9725 C   0  0  0  0  0  0  0  0  0  0  0  0
  -30.9953  -22.4340   19.1877 C   0  0  0  0  0  0  0  0  0  0  0  0
  -23.5480  -28.6483   20.8192 C   0  0  0  0  0  0  0  0  0  0  0  0
  -26.0784  -28.5148   20.5247 C   0  0  0  0  0  0  0  0  0  0  0  0
  -21.4660   -9.4677   21.7759 C   0  0  0  0  0  0  0  0  0  0  0  0
  -25.8891  -14.4215   22.0387 C   0  0  0  0  0  0  0  0  0  0  0  0
  -22.2738  -10.4345   21.1473 C   0  0  0  0  0  0  0  0  0  0  0  0
  -25.8058  -15.5472   21.2068 C   0  0  0  0  0  0  0  0  0  0  0  0
  -31.7391  -22.6863   20.3291 C   0  0  0  0  0  0  0  0  0  0  0  0
  -32.8912  -21.9354   20.5344 C   0  0  0  0  0  0  0  0  0  0  0  0
  -33.2590  -20.9687   19.6051 C   0  0  0  0  0  0  0  0  0  0  0  0
  -21.1607  -29.9622   21.4167 C   0  0  0  0  0  0  0  0  0  0  0  0
  -27.9260  -14.9350   20.1870 C   0  0  0  0  0  0  0  0  0  0  0  0
  -19.0906  -29.9515   22.5287 C   0  0  0  0  0  0  0  0  0  0  0  0
  -17.2679  -28.6399   24.1841 C   0  0  0  0  0  0  0  0  0  0  0  0
  -18.5611  -28.7194   22.1449 C   0  0  0  0  0  0  0  0  0  0  0  0
  -24.7808  -27.9690   20.5112 C   0  0  0  0  0  0  0  0  0  0  0  0
  -32.4470  -20.7931   18.4962 C   0  0  0  0  0  0  0  0  0  0  0  0
  -26.8938  -27.4707   20.1617 C   0  0  0  0  0  0  0  0  0  0  0  0
  -26.5083  -29.8463   20.8374 C   0  0  0  0  0  0  0  0  0  0  0  0
  -22.7596  -14.0683   21.6085 C   0  0  0  0  0  0  0  0  0  0  0  0
  -22.6585  -17.1183   22.7081 C   0  0  0  0  0  0  0  0  0  0  0  0
  -24.2766  -20.0879   23.1666 C   0  0  0  0  0  0  0  0  0  0  0  0
  -28.1426  -21.9901   21.0101 C   0  0  0  0  0  0  0  0  0  0  0  0
  -20.0611   -9.7796   22.2271 C   0  0  0  0  0  0  0  0  0  0  0  0
  -24.8193  -14.1484   23.0601 C   0  0  0  0  0  0  0  0  0  0  0  0
  -24.6416  -16.5001   21.2762 C   0  0  0  0  0  0  0  0  0  0  0  0
  -19.7772  -11.2748   22.3455 C   0  0  0  0  0  0  0  0  0  0  0  0
  -25.7976  -22.9082   18.2972 C   0  0  0  0  0  0  0  0  0  0  0  0
  -20.2865  -12.0141   21.1123 C   0  0  0  0  0  0  0  0  0  0  0  0
  -25.3824  -24.3272   18.6818 C   0  0  0  0  0  0  0  0  0  0  0  0
  -26.1776  -22.0775   19.5192 C   0  0  0  0  0  0  0  0  0  0  0  0
  -26.8090  -24.1232   20.7564 C   0  0  0  0  0  0  0  0  0  0  0  0
  -21.8053  -11.8620   20.9660 C   0  0  1  0  0  0  0  0  0  0  0  0
  -23.4809  -14.7917   22.7103 C   0  0  1  0  0  0  0  0  0  0  0  0
  -26.4644  -25.0008   19.5437 C   0  0  2  0  0  0  0  0  0  0  0  0
  -33.7295  -22.1682   21.7504 C   0  0  0  0  0  0  0  0  0  0  0  0
  -34.4902  -20.1480   19.7960 C   0  0  0  0  0  0  0  0  0  0  0  0
  -31.9491  -25.1021   20.9953 C   0  0  0  0  0  0  0  0  0  0  0  0
  -23.9227  -22.4070   24.0576 C   0  0  0  0  0  0  0  0  0  0  0  0
  -21.0738  -17.8369   20.2017 C   0  0  0  0  0  0  0  0  0  0  0  0
  -21.5715  -20.2469   20.6624 C   0  0  0  0  0  0  0  0  0  0  0  0
  -20.2475  -18.9130   22.3025 C   0  0  0  0  0  0  0  0  0  0  0  0
  -29.6657  -22.0279   22.9487 C   0  0  0  0  0  0  0  0  0  0  0  0
  -26.3877  -19.7490   25.2129 C   0  0  0  0  0  0  0  0  0  0  0  0
  -32.7935  -19.7593   17.4543 C   0  0  0  0  0  0  0  0  0  0  0  0
  -32.4249  -18.3268   17.8565 C   0  0  0  0  0  0  0  0  0  0  0  0
  -30.9401  -18.1627   18.1958 C   0  0  0  0  0  0  0  0  0  0  0  0
  -30.6126  -16.7158   18.5605 C   0  0  0  0  0  0  0  0  0  0  0  0
  -29.7588  -23.9066   21.3526 C   0  0  0  0  0  0  0  0  0  0  0  0
  -29.1479  -16.5501   18.9402 C   0  0  0  0  0  0  0  0  0  1  0  0
  -31.2967  -23.7347   21.2906 C   0  0  1  0  0  0  0  0  0  0  0  0
  -22.7289  -18.4864   22.0737 C   0  0  1  0  0  0  0  0  0  0  0  0
  -24.3912  -20.9961   24.3776 C   0  0  2  0  0  0  0  0  0  0  0  0
  -21.4266  -18.8519   21.3072 C   0  0  0  0  0  0  0  0  0  0  0  0
  -31.3207  -21.5034   18.2626 N   0  0  0  0  0  0  0  0  0  0  0  0
  -24.7677  -26.6786   20.1668 N   0  0  0  0  0  0  0  0  0  0  0  0
  -26.0671  -26.4048   19.9604 N   0  0  0  0  0  0  0  0  0  0  0  0
  -23.6179  -16.1868   22.2868 N   0  0  0  0  0  0  0  0  0  0  0  0
  -27.1755  -22.7602   20.3434 N   0  0  0  0  0  0  0  0  0  0  0  0
  -28.2300  -27.3698   19.9983 N   0  0  0  0  0  0  0  0  0  0  0  0
  -25.5396  -30.7956   21.1907 N   0  0  0  0  0  0  0  0  0  0  0  0
  -22.4924  -12.7415   21.8874 N   0  0  0  0  0  0  0  0  0  0  0  0
  -23.0729  -19.4156   23.1445 N   0  0  0  0  0  0  0  0  0  0  0  0
  -29.0894  -22.6806   21.7817 N   0  0  0  0  0  0  0  0  0  0  0  0
  -25.8058  -21.0645   24.8417 N   0  3  0  0  0  0  0  0  0  0  0  0
  -27.7141  -30.1887   20.7885 O   0  0  0  0  0  0  0  0  0  0  0  0
  -22.4658  -14.6696   20.5820 O   0  0  0  0  0  0  0  0  0  0  0  0
  -21.7888  -16.8870   23.5518 O   0  0  0  0  0  0  0  0  0  0  0  0
  -25.1643  -19.9879   22.3226 O   0  0  0  0  0  0  0  0  0  0  0  0
  -28.1645  -20.7564   20.9130 O   0  0  0  0  0  0  0  0  0  0  0  0
  -19.9961  -30.6034   21.7086 O   0  0  0  0  0  0  0  0  0  0  0  0
  -28.9118  -15.1851   19.2828 O   0  0  0  0  0  0  0  0  0  1  0  0
  -16.3938  -28.0096   24.9797 F   0  0  0  0  0  0  0  0  0  0  0  0
  -18.9250  -28.1603   20.9827 F   0  0  0  0  0  0  0  0  0  0  0  0
  1  2  1  0  0  0  0
  1  5  2  0  0  0  0
  2  6  2  0  0  0  0
  3  8  2  0  0  0  0
  3 16  1  0  0  0  0
  4  9  1  0  0  0  0
  4 16  2  0  0  0  0
  5 18  1  0  0  0  0
  6 20  1  0  0  0  0
  7 10  2  0  0  0  0
  7 19  1  0  0  0  0
  8 25  1  0  0  0  0
  9 25  2  0  0  0  0
 10 26  1  0  0  0  0
 11 12  2  0  0  0  0
 11 27  1  0  0  0  0
 12 28  1  0  0  0  0
 13 21  1  0  0  0  0
 13 26  2  0  0  0  0
 14 28  2  0  0  0  0
 14 29  1  0  0  0  0
 15 22  1  0  0  0  0
 15 69  2  0  0  0  0
 16 30  1  0  0  0  0
 17 30  1  0  0  0  0
 17 32  2  0  0  0  0
 17 33  1  0  0  0  0
 18 20  2  0  0  0  0
 18 38  1  0  0  0  0
 19 21  2  0  0  0  0
 19 39  1  0  0  0  0
 20 47  1  0  0  0  0
 21 40  1  0  0  0  0
 22 23  2  0  0  0  0
 22 65  1  0  0  0  0
 23 24  1  0  0  0  0
 23 50  1  0  0  0  0
 24 31  2  0  0  0  0
 24 51  1  0  0  0  0
 25 85  1  0  0  0  0
 26 86  1  0  0  0  0
 27 29  2  0  0  0  0
 27 85  1  0  0  0  0
 28 87  1  0  0  0  0
 29 88  1  0  0  0  0
 30 70  2  0  0  0  0
 31 59  1  0  0  0  0
 31 69  1  0  0  0  0
 32 71  1  0  0  0  0
 32 74  1  0  0  0  0
 33 75  1  0  0  0  0
 33 80  2  0  0  0  0
 34 48  1  0  0  0  0
 34 76  1  0  0  0  0
 34 81  2  0  0  0  0
 35 66  1  0  0  0  0
 35 72  1  0  0  0  0
 35 82  2  0  0  0  0
 36 67  1  0  0  0  0
 36 77  1  0  0  0  0
 36 83  2  0  0  0  0
 37 73  1  0  0  0  0
 37 78  1  0  0  0  0
 37 84  2  0  0  0  0
 38 41  1  0  0  0  0
 39 48  1  0  0  0  0
 40 72  1  0  0  0  0
 41 43  1  0  0  0  0
 42 44  1  0  0  0  0
 42 45  1  0  0  0  0
 43 47  1  0  0  0  0
 44 49  1  0  0  0  0
 45 73  1  0  0  0  0
 46 49  1  0  0  0  0
 46 73  1  0  0  0  0
 47 76  1  0  0  0  0
 48 72  1  0  0  0  0
 49 71  1  0  0  0  0
 52 65  1  0  0  0  0
 53 67  1  0  0  0  0
 54 68  1  0  0  0  0
 55 68  1  0  0  0  0
 56 68  1  0  0  0  0
 57 78  1  0  0  0  0
 58 79  1  0  0  0  0
 59 60  1  0  0  0  0
 60 61  1  0  0  0  0
 61 62  1  0  0  0  0
 62 64  1  0  0  0  0
 63 65  1  0  0  0  0
 63 78  1  0  0  0  0
 64 86  1  0  0  0  0
 66 68  1  0  0  0  0
 66 77  1  0  0  0  0
 67 79  1  0  0  0  0
 70 71  1  0  0  0  0
M  CHG  1  79   1
M  ISO  4  37 100  64 101  78 100  86 101
M  END
> <Batch ID>
0091

> <Smiles>
CNC(C)C(=O)NC(C(=O)N1Cc2cc([101O:1][101CH2:1]CCCCc3ncc(C(C)C[100N:0](C)[100C:0](=O)N4CCCC(n5nc(-c6ccc(Oc7ccc(F)cc7F)cc6)c(C(N)=O)c5N)C4)c(C)c3C)ccc2CC1C(=O)NC1CCCc2ccccc21)C(C)(C)C

> <Shape>
0.221

> <Color>
0.091

> <Negative vol penalty>
0.000

$$$$

  -OEChem-04052319113D

 91 99  0     1  0  0  0  0  0999 V2000
  -27.4694  -34.9271   24.2353 C   0  0  0  0  0  0  0  0  0  0  0  0
  -27.7683  -33.6378   23.8066 C   0  0  0  0  0  0  0  0  0  0  0  0
  -26.4098  -15.2483   21.1847 C   0  0  0  0  0  0  0  0  0  0  0  0
  -27.3271  -14.8677   18.9822 C   0  0  0  0  0  0  0  0  0  0  0  0
  -26.2143  -35.2082   24.7734 C   0  0  0  0  0  0  0  0  0  0  0  0
  -26.8124  -32.6285   23.9167 C   0  0  0  0  0  0  0  0  0  0  0  0
  -26.4925  -29.7914   19.7342 C   0  0  0  0  0  0  0  0  0  0  0  0
  -26.0812  -13.8962   21.2815 C   0  0  0  0  0  0  0  0  0  0  0  0
  -26.9986  -13.5155   19.0791 C   0  0  0  0  0  0  0  0  0  0  0  0
  -27.4796  -28.8256   19.5428 C   0  0  0  0  0  0  0  0  0  0  0  0
  -28.2487  -10.7506   20.5665 C   0  0  0  0  0  0  0  0  0  0  0  0
  -29.2104   -9.8215   20.1697 C   0  0  0  0  0  0  0  0  0  0  0  0
  -25.9716  -27.1304   20.3621 C   0  0  0  0  0  0  0  0  0  0  0  0
  -29.2445  -20.3772   15.9662 C   0  0  0  0  0  0  0  0  0  0  0  0
  -27.6926   -8.9650   18.4965 C   0  0  0  0  0  0  0  0  0  0  0  0
  -27.0327  -15.7341   20.0350 C   0  0  0  0  0  0  0  0  0  0  0  0
  -28.5758  -17.7440   20.3294 C   0  0  0  0  0  0  0  0  0  0  0  0
  -25.2392  -34.2040   24.8812 C   0  0  0  0  0  0  0  0  0  0  0  0
  -25.2390  -29.4350   20.2520 C   0  0  0  0  0  0  0  0  0  0  0  0
  -25.5435  -32.8961   24.4579 C   0  0  0  0  0  0  0  0  0  0  0  0
  -24.9693  -28.0931   20.5566 C   0  0  0  0  0  0  0  0  0  0  0  0
  -29.2045  -19.2844   15.0654 C   0  0  0  0  0  0  0  0  0  0  0  0
  -26.3756  -13.0298   20.2288 C   0  0  0  0  0  0  0  0  0  0  0  0
  -27.2203  -27.4954   19.8595 C   0  0  0  0  0  0  0  0  0  0  0  0
  -27.0089  -10.7868   19.9284 C   0  0  0  0  0  0  0  0  0  0  0  0
  -28.9324   -8.9287   19.1347 C   0  0  0  0  0  0  0  0  0  0  0  0
  -26.7308   -9.8940   18.8934 C   0  0  0  0  0  0  0  0  0  0  0  0
  -27.3718  -17.1309   19.9341 C   0  0  0  0  0  0  0  0  0  0  0  0
  -28.1494  -21.1694   15.7006 C   0  0  0  0  0  0  0  0  0  0  0  0
  -28.0864  -19.4423   14.2766 C   0  0  0  0  0  0  0  0  0  0  0  0
  -28.4005  -19.0721   20.0260 C   0  0  0  0  0  0  0  0  0  0  0  0
  -29.7478  -17.1649   20.9181 C   0  0  0  0  0  0  0  0  0  0  0  0
  -23.5924  -30.1940   22.8629 C   0  0  0  0  0  0  0  0  0  0  0  0
  -24.8530  -21.8444   16.0458 C   0  0  0  0  0  0  0  0  0  0  0  0
  -21.2623  -28.4530   21.4267 C   0  0  0  0  0  0  0  0  0  0  0  0
  -20.4309  -26.0073   19.1964 C   0  0  0  0  0  0  0  0  0  0  0  0
  -23.9129  -34.5449   25.5131 C   0  0  0  0  0  0  0  0  0  0  0  0
  -24.1758  -30.4844   20.4274 C   0  0  0  0  0  0  0  0  0  0  0  0
  -23.6330  -27.6555   21.0963 C   0  0  0  0  0  0  0  0  0  0  0  0
  -22.8273  -33.5047   25.2494 C   0  0  0  0  0  0  0  0  0  0  0  0
  -25.0058  -22.4033   19.5820 C   0  0  0  0  0  0  0  0  0  0  0  0
  -23.3658  -32.0981   25.4906 C   0  0  0  0  0  0  0  0  0  0  0  0
  -25.7138  -21.1571   20.1121 C   0  0  0  0  0  0  0  0  0  0  0  0
  -24.1091  -22.0727   18.3929 C   0  0  0  0  0  0  0  0  0  0  0  0
  -25.5240  -20.1308   17.8022 C   0  0  0  0  0  0  0  0  0  0  0  0
  -24.5246  -31.7801   24.5379 C   0  0  1  0  0  0  0  0  0  0  0  0
  -23.1088  -30.0900   21.4440 C   0  0  1  0  0  0  0  0  0  0  0  0
  -26.4637  -20.4258   18.9847 C   0  0  2  0  0  0  0  0  0  0  0  0
  -28.8423  -19.7666   11.2898 C   0  0  0  0  0  0  0  0  0  0  0  0
  -26.1787  -18.0009   13.5191 C   0  0  0  0  0  0  0  0  0  0  0  0
  -23.7261  -20.8639   14.0971 C   0  0  0  0  0  0  0  0  0  0  0  0
  -18.4494  -24.7796   18.2672 C   0  0  0  0  0  0  0  0  0  0  0  0
  -31.3231  -18.3472   16.0548 C   0  0  0  0  0  0  0  0  0  0  0  0
  -30.8753  -18.1115   13.5890 C   0  0  0  0  0  0  0  0  0  0  0  0
  -29.6139  -16.7389   15.2341 C   0  0  0  0  0  0  0  0  0  0  0  0
  -21.0722  -26.8196   23.9969 C   0  0  0  0  0  0  0  0  0  0  0  0
  -19.8160  -25.0754   22.7131 C   0  0  0  0  0  0  0  0  0  0  0  0
  -18.8707  -27.3721   22.9467 C   0  0  0  0  0  0  0  0  0  0  0  0
  -20.9854  -26.9560   16.4484 C   0  0  0  0  0  0  0  0  0  0  0  0
  -27.7032  -22.4522   16.3561 C   0  0  0  0  0  0  0  0  0  0  0  0
  -27.4795  -19.3118   11.7980 C   0  0  0  0  0  0  0  0  0  0  0  0
  -28.8554  -23.2991   16.9083 C   0  0  0  0  0  0  0  0  0  0  0  0
  -28.3888  -24.6325   17.5009 C   0  0  0  0  0  0  0  0  0  0  0  0
  -29.5641  -25.4284   18.0656 C   0  0  0  0  0  0  0  0  0  0  0  0
  -26.2343  -21.1155   14.0911 C   0  0  0  0  0  0  0  0  0  0  0  0
  -29.1169  -26.7739   18.6193 C   0  0  0  0  0  0  0  0  0  1  0  0
  -27.5668  -18.5970   13.1804 C   0  0  1  0  0  0  0  0  0  0  0  0
  -24.9933  -20.8233   14.9451 C   0  0  1  0  0  0  0  0  0  0  0  0
  -20.8588  -26.9983   21.4301 C   0  0  1  0  0  0  0  0  0  0  0  0
  -19.3895  -25.9622   18.0929 C   0  0  2  0  0  0  0  0  0  0  0  0
  -30.1848  -18.1827   14.9925 C   0  0  0  0  0  0  0  0  0  0  0  0
  -20.1804  -26.5746   22.7634 C   0  0  0  0  0  0  0  0  0  0  0  0
  -26.4963  -17.9982   19.4190 N   0  0  0  0  0  0  0  0  0  0  0  0
  -27.4528  -20.5915   14.6715 N   0  0  0  0  0  0  0  0  0  0  0  0
  -27.1507  -19.1699   19.4887 N   0  0  0  0  0  0  0  0  0  0  0  0
  -22.6282  -28.7196   21.2561 N   0  0  0  0  0  0  0  0  0  0  0  0
  -24.8531  -21.3588   17.3536 N   0  0  0  0  0  0  0  0  0  0  0  0
  -29.1950  -20.1541   20.1691 N   0  0  0  0  0  0  0  0  0  0  0  0
  -29.7604  -15.7849   21.1627 N   0  0  0  0  0  0  0  0  0  0  0  0
  -24.0214  -31.4581   23.2198 N   0  0  0  0  0  0  0  0  0  0  0  0
  -20.0268  -26.8028   20.2478 N   0  0  0  0  0  0  0  0  0  0  0  0
  -20.0498  -25.8454   16.7620 N   0  3  0  0  0  0  0  0  0  0  0  0
  -30.7478  -17.8535   21.2336 O   0  0  0  0  0  0  0  0  0  0  0  0
  -23.5760  -29.2012   23.5811 O   0  0  0  0  0  0  0  0  0  0  0  0
  -24.7496  -23.0378   15.7503 O   0  0  0  0  0  0  0  0  0  0  0  0
  -20.3966  -29.3211   21.5631 O   0  0  0  0  0  0  0  0  0  0  0  0
  -21.4947  -25.3951   19.1339 O   0  0  0  0  0  0  0  0  0  0  0  0
  -26.0554  -11.7103   20.3230 O   0  0  0  0  0  0  0  0  0  0  0  0
  -28.1823  -26.5509   19.6743 O   0  0  0  0  0  0  0  0  0  1  0  0
  -29.8566   -8.0376   18.7527 F   0  0  0  0  0  0  0  0  0  0  0  0
  -25.5419   -9.9248   18.2758 F   0  0  0  0  0  0  0  0  0  0  0  0
  1  2  1  0  0  0  0
  1  5  2  0  0  0  0
  2  6  2  0  0  0  0
  3  8  2  0  0  0  0
  3 16  1  0  0  0  0
  4  9  1  0  0  0  0
  4 16  2  0  0  0  0
  5 18  1  0  0  0  0
  6 20  1  0  0  0  0
  7 10  2  0  0  0  0
  7 19  1  0  0  0  0
  8 23  1  0  0  0  0
  9 23  2  0  0  0  0
 10 24  1  0  0  0  0
 11 12  2  0  0  0  0
 11 25  1  0  0  0  0
 12 26  1  0  0  0  0
 13 21  1  0  0  0  0
 13 24  2  0  0  0  0
 14 22  1  0  0  0  0
 14 29  2  0  0  0  0
 15 26  2  0  0  0  0
 15 27  1  0  0  0  0
 16 28  1  0  0  0  0
 17 28  1  0  0  0  0
 17 31  2  0  0  0  0
 17 32  1  0  0  0  0
 18 20  2  0  0  0  0
 18 37  1  0  0  0  0
 19 21  2  0  0  0  0
 19 38  1  0  0  0  0
 20 46  1  0  0  0  0
 21 39  1  0  0  0  0
 22 30  2  0  0  0  0
 22 71  1  0  0  0  0
 23 88  1  0  0  0  0
 24 89  1  0  0  0  0
 25 27  2  0  0  0  0
 25 88  1  0  0  0  0
 26 90  1  0  0  0  0
 27 91  1  0  0  0  0
 28 73  2  0  0  0  0
 29 60  1  0  0  0  0
 29 74  1  0  0  0  0
 30 67  1  0  0  0  0
 30 74  1  0  0  0  0
 31 75  1  0  0  0  0
 31 78  1  0  0  0  0
 32 79  1  0  0  0  0
 32 83  2  0  0  0  0
 33 47  1  0  0  0  0
 33 80  1  0  0  0  0
 33 84  2  0  0  0  0
 34 68  1  0  0  0  0
 34 77  1  0  0  0  0
 34 85  2  0  0  0  0
 35 69  1  0  0  0  0
 35 76  1  0  0  0  0
 35 86  2  0  0  0  0
 36 70  1  0  0  0  0
 36 81  1  0  0  0  0
 36 87  2  0  0  0  0
 37 40  1  0  0  0  0
 38 47  1  0  0  0  0
 39 76  1  0  0  0  0
 40 42  1  0  0  0  0
 41 43  1  0  0  0  0
 41 44  1  0  0  0  0
 42 46  1  0  0  0  0
 43 48  1  0  0  0  0
 44 77  1  0  0  0  0
 45 48  1  0  0  0  0
 45 77  1  0  0  0  0
 46 80  1  0  0  0  0
 47 76  1  0  0  0  0
 48 75  1  0  0  0  0
 49 61  1  0  0  0  0
 50 67  1  0  0  0  0
 51 68  1  0  0  0  0
 52 70  1  0  0  0  0
 53 71  1  0  0  0  0
 54 71  1  0  0  0  0
 55 71  1  0  0  0  0
 56 72  1  0  0  0  0
 57 72  1  0  0  0  0
 58 72  1  0  0  0  0
 59 82  1  0  0  0  0
 60 62  1  0  0  0  0
 61 67  1  0  0  0  0
 62 63  1  0  0  0  0
 63 64  1  0  0  0  0
 64 66  1  0  0  0  0
 65 68  1  0  0  0  0
 65 74  1  0  0  0  0
 66 89  1  0  0  0  0
 69 72  1  0  0  0  0
 69 81  1  0  0  0  0
 70 82  1  0  0  0  0
 73 75  1  0  0  0  0
M  CHG  1  82   1
M  ISO  4  34 100  66 101  68 100  89 101
M  END
> <Batch ID>
0091

> <Smiles>
CCC(C)c1c(C(C)(C)C)cc(CCCC[101CH2:1][101O:1]c2ccc3c(c2)CN(C(=O)C(NC(=O)C(C)NC)C(C)(C)C)C(C(=O)NC2CCCc4ccccc42)C3)n1C[100CH:0](C)[100C:0](=O)N1CCCC(n2nc(-c3ccc(Oc4ccc(F)cc4F)cc3)c(C(N)=O)c2N)C1

> <Shape>
0.237

> <Color>
0.087

> <Negative vol penalty>
0.000

$$$$

  -OEChem-04052319113D

 86 94  0     1  0  0  0  0  0999 V2000
  -31.6168  -12.1543   37.0754 C   0  0  0  0  0  0  0  0  0  0  0  0
  -31.6322  -13.1648   36.1193 C   0  0  0  0  0  0  0  0  0  0  0  0
  -23.1528   -9.8642   19.9568 C   0  0  0  0  0  0  0  0  0  0  0  0
  -23.7985   -9.9663   22.2827 C   0  0  0  0  0  0  0  0  0  0  0  0
  -31.3516  -10.8396   36.6944 C   0  0  0  0  0  0  0  0  0  0  0  0
  -31.3836  -12.8609   34.7813 C   0  0  0  0  0  0  0  0  0  0  0  0
  -28.4843  -16.3720   30.6859 C   0  0  0  0  0  0  0  0  0  0  0  0
  -33.0450  -13.4301   25.1153 C   0  0  0  0  0  0  0  0  0  0  0  0
  -22.4319   -8.6969   20.2081 C   0  0  0  0  0  0  0  0  0  0  0  0
  -23.0775   -8.7990   22.5341 C   0  0  0  0  0  0  0  0  0  0  0  0
  -28.9488  -17.2289   29.6891 C   0  0  0  0  0  0  0  0  0  0  0  0
  -23.4932   -5.4719   22.1002 C   0  0  0  0  0  0  0  0  0  0  0  0
  -24.1026   -4.4891   22.8801 C   0  0  0  0  0  0  0  0  0  0  0  0
  -33.7229  -14.6388   25.2280 C   0  0  0  0  0  0  0  0  0  0  0  0
  -28.7143  -15.4589   28.0668 C   0  0  0  0  0  0  0  0  0  0  0  0
  -22.3149   -4.6630   24.4961 C   0  0  0  0  0  0  0  0  0  0  0  0
  -23.8362  -10.4989   20.9941 C   0  0  0  0  0  0  0  0  0  0  0  0
  -24.1090  -13.0285   20.8082 C   0  0  0  0  0  0  0  0  0  0  0  0
  -31.0901  -10.5210   35.3525 C   0  0  0  0  0  0  0  0  0  0  0  0
  -28.1411  -15.0467   30.3823 C   0  0  0  0  0  0  0  0  0  0  0  0
  -31.1161  -11.5405   34.3817 C   0  0  0  0  0  0  0  0  0  0  0  0
  -28.2433  -14.5880   29.0612 C   0  0  0  0  0  0  0  0  0  0  0  0
  -31.9797  -13.3169   24.2289 C   0  0  0  0  0  0  0  0  0  0  0  0
  -22.3941   -8.1643   21.4968 C   0  0  0  0  0  0  0  0  0  0  0  0
  -29.0666  -16.7716   28.3798 C   0  0  0  0  0  0  0  0  0  0  0  0
  -22.2947   -6.0503   22.5182 C   0  0  0  0  0  0  0  0  0  0  0  0
  -23.5134   -4.0846   24.0780 C   0  0  0  0  0  0  0  0  0  0  0  0
  -21.7056   -5.6459   23.7161 C   0  0  0  0  0  0  0  0  0  0  0  0
  -24.5816  -11.7045   20.7349 C   0  0  0  0  0  0  0  0  0  0  0  0
  -33.2998  -15.6958   24.4384 C   0  0  0  0  0  0  0  0  0  0  0  0
  -31.6345  -14.4331   23.4841 C   0  0  0  0  0  0  0  0  0  0  0  0
  -25.1951  -13.7998   20.4737 C   0  0  0  0  0  0  0  0  0  0  0  0
  -22.8048  -13.5175   21.1483 C   0  0  0  0  0  0  0  0  0  0  0  0
  -29.2020  -12.1907   31.2888 C   0  0  0  0  0  0  0  0  0  0  0  0
  -30.9612  -13.8379   21.1797 C   0  0  0  0  0  0  0  0  0  0  0  0
  -26.6776  -11.1326   29.5481 C   0  0  0  0  0  0  0  0  0  0  0  0
  -24.4446  -11.7144   27.0337 C   0  0  0  0  0  0  0  0  0  0  0  0
  -30.8553   -9.0781   34.9814 C   0  0  0  0  0  0  0  0  0  0  0  0
  -27.6163  -14.1428   31.4639 C   0  0  0  0  0  0  0  0  0  0  0  0
  -27.8685  -13.1801   28.6793 C   0  0  0  0  0  0  0  0  0  0  0  0
  -30.2322   -8.8982   33.5995 C   0  0  0  0  0  0  0  0  0  0  0  0
  -29.4224  -13.0169   18.0495 C   0  0  0  0  0  0  0  0  0  0  0  0
  -30.9513   -9.7670   32.5725 C   0  0  0  0  0  0  0  0  0  0  0  0
  -27.9793  -12.6923   18.4331 C   0  0  0  0  0  0  0  0  0  0  0  0
  -30.4014  -12.5712   19.1312 C   0  0  0  0  0  0  0  0  0  0  0  0
  -28.6589  -12.8002   20.8727 C   0  0  0  0  0  0  0  0  0  0  0  0
  -30.8267  -11.2544   32.9242 C   0  0  1  0  0  0  0  0  0  0  0  0
  -27.7832  -12.6618   31.1383 C   0  0  1  0  0  0  0  0  0  0  0  0
  -27.6348  -13.2617   19.8208 C   0  0  2  0  0  0  0  0  0  0  0  0
  -31.2488  -12.0249   24.1047 C   0  0  0  0  0  0  0  0  0  0  0  0
  -34.6839  -17.3786   23.1969 C   0  0  0  0  0  0  0  0  0  0  0  0
  -22.4653  -11.3252   25.5410 C   0  0  0  0  0  0  0  0  0  0  0  0
  -28.6331   -9.3512   28.0274 C   0  0  0  0  0  0  0  0  0  0  0  0
  -26.8817   -9.0535   26.2632 C   0  0  0  0  0  0  0  0  0  0  0  0
  -26.4524   -8.2638   28.5901 C   0  0  0  0  0  0  0  0  0  0  0  0
  -22.6168  -13.1046   28.9006 C   0  0  0  0  0  0  0  0  0  0  0  0
  -32.1735  -17.7878   26.1487 C   0  0  0  0  0  0  0  0  0  0  0  0
  -31.3481  -18.9856   26.6304 C   0  0  0  0  0  0  0  0  0  0  0  0
  -33.0995  -18.1835   24.9914 C   0  0  0  0  0  0  0  0  0  0  0  0
  -29.7822  -15.7090   22.2754 C   0  0  0  0  0  0  0  0  0  0  0  0
  -30.4375  -18.6258   27.7981 C   0  0  0  0  0  0  0  0  0  1  0  0
  -30.5008  -14.3690   22.5139 C   0  0  2  0  0  0  0  0  0  0  0  0
  -34.0185  -17.0306   24.5342 C   0  0  1  0  0  0  0  0  0  0  0  0
  -26.4613  -10.7451   28.1052 C   0  0  1  0  0  0  0  0  0  0  0  0
  -22.9365  -11.5540   26.9688 C   0  0  2  0  0  0  0  0  0  0  0  0
  -27.1161   -9.3794   27.7537 C   0  0  0  0  0  0  0  0  0  0  0  0
  -25.8678  -11.6349   20.3814 N   0  0  0  0  0  0  0  0  0  0  0  0
  -32.2694  -15.6238   23.5662 N   0  0  0  0  0  0  0  0  0  0  0  0
  -26.2126  -12.9249   20.2296 N   0  0  0  0  0  0  0  0  0  0  0  0
  -27.3665  -12.3327   29.7736 N   0  0  0  0  0  0  0  0  0  0  0  0
  -30.0270  -13.1146   20.4380 N   0  0  0  0  0  0  0  0  0  0  0  0
  -25.3695  -15.1342   20.3675 N   0  0  0  0  0  0  0  0  0  0  0  0
  -21.8047  -12.5883   21.4660 N   0  0  0  0  0  0  0  0  0  0  0  0
  -29.5172  -11.7518   32.5606 N   0  0  0  0  0  0  0  0  0  0  0  0
  -25.0203  -10.7920   27.8816 N   0  0  0  0  0  0  0  0  0  0  0  0
  -29.2378  -16.2228   23.5577 N   0  3  0  0  0  0  0  0  0  0  0  0
  -22.2626  -12.7741   27.4962 N   0  3  0  0  0  0  0  0  0  0  0  0
  -22.5298  -14.7414   21.1540 O   0  0  0  0  0  0  0  0  0  0  0  0
  -29.9547  -12.2218   30.3222 O   0  0  0  0  0  0  0  0  0  0  0  0
  -32.1160  -14.0628   20.8082 O   0  0  0  0  0  0  0  0  0  0  0  0
  -26.2449  -10.4011   30.4421 O   0  0  0  0  0  0  0  0  0  0  0  0
  -25.0517  -12.5699   26.3933 O   0  0  0  0  0  0  0  0  0  0  0  0
  -21.6905   -7.0254   21.7424 O   0  0  0  0  0  0  0  0  0  0  0  0
  -29.5204  -17.6057   27.4050 O   0  0  0  0  0  0  0  0  0  1  0  0
  -24.0979   -3.1396   24.8261 F   0  0  0  0  0  0  0  0  0  0  0  0
  -20.5536   -6.1971   24.1223 F   0  0  0  0  0  0  0  0  0  0  0  0
  1  2  1  0  0  0  0
  1  5  2  0  0  0  0
  2  6  2  0  0  0  0
  3  9  2  0  0  0  0
  3 17  1  0  0  0  0
  4 10  1  0  0  0  0
  4 17  2  0  0  0  0
  5 19  1  0  0  0  0
  6 21  1  0  0  0  0
  7 11  2  0  0  0  0
  7 20  1  0  0  0  0
  8 14  2  0  0  0  0
  8 23  1  0  0  0  0
  9 24  1  0  0  0  0
 10 24  2  0  0  0  0
 11 25  1  0  0  0  0
 12 13  2  0  0  0  0
 12 26  1  0  0  0  0
 13 27  1  0  0  0  0
 14 30  1  0  0  0  0
 15 22  1  0  0  0  0
 15 25  2  0  0  0  0
 16 27  2  0  0  0  0
 16 28  1  0  0  0  0
 17 29  1  0  0  0  0
 18 29  1  0  0  0  0
 18 32  2  0  0  0  0
 18 33  1  0  0  0  0
 19 21  2  0  0  0  0
 19 38  1  0  0  0  0
 20 22  2  0  0  0  0
 20 39  1  0  0  0  0
 21 47  1  0  0  0  0
 22 40  1  0  0  0  0
 23 31  2  0  0  0  0
 23 50  1  0  0  0  0
 24 83  1  0  0  0  0
 25 84  1  0  0  0  0
 26 28  2  0  0  0  0
 26 83  1  0  0  0  0
 27 85  1  0  0  0  0
 28 86  1  0  0  0  0
 29 67  2  0  0  0  0
 30 63  1  0  0  0  0
 30 68  2  0  0  0  0
 31 62  1  0  0  0  0
 31 68  1  0  0  0  0
 32 69  1  0  0  0  0
 32 72  1  0  0  0  0
 33 73  1  0  0  0  0
 33 78  2  0  0  0  0
 34 48  1  0  0  0  0
 34 74  1  0  0  0  0
 34 79  2  0  0  0  0
 35 62  1  0  0  0  0
 35 71  1  0  0  0  0
 35 80  2  0  0  0  0
 36 64  1  0  0  0  0
 36 70  1  0  0  0  0
 36 81  2  0  0  0  0
 37 65  1  0  0  0  0
 37 75  1  0  0  0  0
 37 82  2  0  0  0  0
 38 41  1  0  0  0  0
 39 48  1  0  0  0  0
 40 70  1  0  0  0  0
 41 43  1  0  0  0  0
 42 44  1  0  0  0  0
 42 45  1  0  0  0  0
 43 47  1  0  0  0  0
 44 49  1  0  0  0  0
 45 71  1  0  0  0  0
 46 49  1  0  0  0  0
 46 71  1  0  0  0  0
 47 74  1  0  0  0  0
 48 70  1  0  0  0  0
 49 69  1  0  0  0  0
 51 63  1  0  0  0  0
 52 65  1  0  0  0  0
 53 66  1  0  0  0  0
 54 66  1  0  0  0  0
 55 66  1  0  0  0  0
 56 77  1  0  0  0  0
 57 58  1  0  0  0  0
 57 59  1  0  0  0  0
 58 61  1  0  0  0  0
 59 63  1  0  0  0  0
 60 62  1  0  0  0  0
 60 76  1  0  0  0  0
 61 84  1  0  0  0  0
 64 66  1  0  0  0  0
 64 75  1  0  0  0  0
 65 77  1  0  0  0  0
 67 69  1  0  0  0  0
M  CHG  2  76   1  77   1
M  ISO  4  35 100  61 101  62 100  84 101
M  END
> <Batch ID>
0091

> <Smiles>
CNC(C)C(=O)NC(C(=O)N1Cc2cc([101O:1][101CH2:1]CCCC(C)c3ccc(C)c([100CH:0](CN)[100C:0](=O)N4CCCC(n5nc(-c6ccc(Oc7ccc(F)cc7F)cc6)c(C(N)=O)c5N)C4)n3)ccc2CC1C(=O)NC1CCCc2ccccc21)C(C)(C)C

> <Shape>
0.155

> <Color>
0.177

> <Negative vol penalty>
0.000

$$$$

  -OEChem-04052319113D

 87 95  0     1  0  0  0  0  0999 V2000
  -33.7846  -18.7037   24.6898 C   0  0  0  0  0  0  0  0  0  0  0  0
  -32.5836  -19.4055   24.7096 C   0  0  0  0  0  0  0  0  0  0  0  0
  -28.8768  -26.2626   20.2852 C   0  0  0  0  0  0  0  0  0  0  0  0
  -27.0519  -25.9936   18.7250 C   0  0  0  0  0  0  0  0  0  0  0  0
  -34.0130  -17.7429   23.7056 C   0  0  0  0  0  0  0  0  0  0  0  0
  -31.6106  -19.1475   23.7446 C   0  0  0  0  0  0  0  0  0  0  0  0
  -25.5362  -19.3009   24.5084 C   0  0  0  0  0  0  0  0  0  0  0  0
  -29.4339  -25.0638   19.8404 C   0  0  0  0  0  0  0  0  0  0  0  0
  -27.6091  -24.7947   18.2801 C   0  0  0  0  0  0  0  0  0  0  0  0
  -24.5789  -20.2729   24.2211 C   0  0  0  0  0  0  0  0  0  0  0  0
  -28.3604  -21.4829   16.9850 C   0  0  0  0  0  0  0  0  0  0  0  0
  -27.5057  -20.3933   16.8182 C   0  0  0  0  0  0  0  0  0  0  0  0
  -24.1050  -19.1778   22.1245 C   0  0  0  0  0  0  0  0  0  0  0  0
  -20.4110  -25.7223   22.0916 C   0  0  0  0  0  0  0  0  0  0  0  0
  -26.9206  -20.4937   19.1601 C   0  0  0  0  0  0  0  0  0  0  0  0
  -27.6857  -26.7275   19.7276 C   0  0  0  0  0  0  0  0  0  0  0  0
  -27.3524  -29.2562   19.6800 C   0  0  0  0  0  0  0  0  0  0  0  0
  -33.0385  -17.4662   22.7338 C   0  0  0  0  0  0  0  0  0  0  0  0
  -25.7932  -18.2644   23.5995 C   0  0  0  0  0  0  0  0  0  0  0  0
  -31.8268  -18.1830   22.7457 C   0  0  0  0  0  0  0  0  0  0  0  0
  -25.0642  -18.1925   22.4039 C   0  0  0  0  0  0  0  0  0  0  0  0
  -20.8655  -24.6507   21.3310 C   0  0  0  0  0  0  0  0  0  0  0  0
  -20.2932  -24.3940   20.0901 C   0  0  0  0  0  0  0  0  0  0  0  0
  -28.8001  -24.3298   18.8378 C   0  0  0  0  0  0  0  0  0  0  0  0
  -23.8652  -20.2132   23.0277 C   0  0  0  0  0  0  0  0  0  0  0  0
  -28.4953  -22.0779   18.2395 C   0  0  0  0  0  0  0  0  0  0  0  0
  -26.7858  -19.8987   17.9057 C   0  0  0  0  0  0  0  0  0  0  0  0
  -27.7753  -21.5833   19.3270 C   0  0  0  0  0  0  0  0  0  0  0  0
  -27.1094  -27.9656   20.1871 C   0  0  0  0  0  0  0  0  0  0  0  0
  -19.3900  -26.5007   21.5706 C   0  0  0  0  0  0  0  0  0  0  0  0
  -19.2774  -25.2317   19.6587 C   0  0  0  0  0  0  0  0  0  0  0  0
  -26.5703  -30.0809   20.4512 C   0  0  0  0  0  0  0  0  0  0  0  0
  -28.2084  -29.6724   18.6078 C   0  0  0  0  0  0  0  0  0  0  0  0
  -28.3274  -17.3252   21.9264 C   0  0  0  0  0  0  0  0  0  0  0  0
  -26.3987  -14.8389   21.1384 C   0  0  0  0  0  0  0  0  0  0  0  0
  -23.2260  -13.6333   20.7811 C   0  0  0  0  0  0  0  0  0  0  0  0
  -21.5604  -29.1741   23.6023 C   0  0  0  0  0  0  0  0  0  0  0  0
  -33.3499  -16.4522   21.6616 C   0  0  0  0  0  0  0  0  0  0  0  0
  -26.8101  -17.2086   23.9364 C   0  0  0  0  0  0  0  0  0  0  0  0
  -25.2881  -17.0887   21.4039 C   0  0  0  0  0  0  0  0  0  0  0  0
  -32.1169  -15.9735   20.8995 C   0  0  0  0  0  0  0  0  0  0  0  0
  -24.6638  -30.4178   24.8265 C   0  0  0  0  0  0  0  0  0  0  0  0
  -31.2447  -17.1585   20.4969 C   0  0  0  0  0  0  0  0  0  0  0  0
  -25.6644  -30.0468   23.7305 C   0  0  0  0  0  0  0  0  0  0  0  0
  -23.5961  -29.3406   25.0040 C   0  0  0  0  0  0  0  0  0  0  0  0
  -23.8835  -28.5950   22.6726 C   0  0  0  0  0  0  0  0  0  0  0  0
  -30.7369  -17.9141   21.7308 C   0  0  1  0  0  0  0  0  0  0  0  0
  -27.3534  -16.4881   22.7063 C   0  0  1  0  0  0  0  0  0  0  0  0
  -24.9472  -29.6767   22.4183 C   0  0  2  0  0  0  0  0  0  0  0  0
  -18.6248  -25.0072   18.3338 C   0  0  0  0  0  0  0  0  0  0  0  0
  -23.8489  -22.7309   16.9414 C   0  0  0  0  0  0  0  0  0  0  0  0
  -21.9667  -11.5775   20.0846 C   0  0  0  0  0  0  0  0  0  0  0  0
  -26.9845  -15.4745   18.2122 C   0  0  0  0  0  0  0  0  0  0  0  0
  -25.0165  -14.0604   17.5834 C   0  0  0  0  0  0  0  0  0  0  0  0
  -26.9596  -13.0356   18.7653 C   0  0  0  0  0  0  0  0  0  0  0  0
  -21.9768  -13.3534   23.4495 C   0  0  0  0  0  0  0  0  0  0  0  0
  -21.9738  -23.7844   21.8738 C   0  0  0  0  0  0  0  0  0  0  0  0
  -20.7620  -23.2531   19.2511 C   0  0  0  0  0  0  0  0  0  0  0  0
  -18.8779  -27.6598   22.3586 C   0  0  0  0  0  0  0  0  0  0  0  0
  -22.5505  -22.4033   17.6615 C   0  0  0  0  0  0  0  0  0  0  0  0
  -21.6420  -23.1290   23.2162 C   0  0  0  0  0  0  0  0  0  0  0  0
  -22.0954  -23.5605   18.5506 C   0  0  0  0  0  0  0  0  0  0  0  0
  -19.6177  -28.9715   22.0713 C   0  0  0  0  0  0  0  0  0  0  0  0
  -22.7328  -22.1883   23.7149 C   0  0  0  0  0  0  0  0  0  1  0  0
  -25.4014  -14.5664   20.0384 C   0  0  1  0  0  0  0  0  0  0  0  0
  -22.5812  -12.3407   21.2477 C   0  0  2  0  0  0  0  0  0  0  0  0
  -26.0874  -14.3062   18.6676 C   0  0  0  0  0  0  0  0  0  0  0  0
  -26.2411  -27.9653   21.2020 N   0  0  0  0  0  0  0  0  0  0  0  0
  -18.8094  -26.2822   20.3694 N   0  0  0  0  0  0  0  0  0  0  0  0
  -25.9316  -29.2659   21.3389 N   0  0  0  0  0  0  0  0  0  0  0  0
  -26.2974  -16.0836   21.7759 N   0  0  0  0  0  0  0  0  0  0  0  0
  -22.9531  -29.0370   23.7232 N   0  0  0  0  0  0  0  0  0  0  0  0
  -26.3736  -31.4165   20.4499 N   0  0  0  0  0  0  0  0  0  0  0  0
  -28.9413  -28.6954   17.9203 N   0  0  0  0  0  0  0  0  0  0  0  0
  -29.6384  -17.1993   22.3446 N   0  0  0  0  0  0  0  0  0  0  0  0
  -24.5670  -13.4654   20.5074 N   0  0  0  0  0  0  0  0  0  0  0  0
  -21.0325  -28.8724   22.3529 N   0  0  0  0  0  0  0  0  0  0  0  0
  -21.5082  -12.6264   22.2416 N   0  3  0  0  0  0  0  0  0  0  0  0
  -28.3326  -30.8768   18.2801 O   0  0  0  0  0  0  0  0  0  0  0  0
  -27.9199  -18.0318   21.0119 O   0  0  0  0  0  0  0  0  0  0  0  0
  -27.2322  -13.9764   21.4264 O   0  0  0  0  0  0  0  0  0  0  0  0
  -22.6017  -14.6858   20.6671 O   0  0  0  0  0  0  0  0  0  0  0  0
  -20.8413  -29.5434   24.5370 O   0  0  0  0  0  0  0  0  0  0  0  0
  -29.3436  -23.1600   18.4033 O   0  0  0  0  0  0  0  0  0  0  0  0
  -22.9308  -21.1610   22.7444 O   0  0  0  0  0  0  0  0  0  1  0  0
  -25.9639  -18.8533   17.7450 F   0  0  0  0  0  0  0  0  0  0  0  0
  -27.8998  -22.1515   20.5342 F   0  0  0  0  0  0  0  0  0  0  0  0
  1  2  1  0  0  0  0
  1  5  2  0  0  0  0
  2  6  2  0  0  0  0
  3  8  2  0  0  0  0
  3 16  1  0  0  0  0
  4  9  1  0  0  0  0
  4 16  2  0  0  0  0
  5 18  1  0  0  0  0
  6 20  1  0  0  0  0
  7 10  2  0  0  0  0
  7 19  1  0  0  0  0
  8 24  1  0  0  0  0
  9 24  2  0  0  0  0
 10 25  1  0  0  0  0
 11 12  2  0  0  0  0
 11 26  1  0  0  0  0
 12 27  1  0  0  0  0
 13 21  1  0  0  0  0
 13 25  2  0  0  0  0
 14 22  2  0  0  0  0
 14 30  1  0  0  0  0
 15 27  2  0  0  0  0
 15 28  1  0  0  0  0
 16 29  1  0  0  0  0
 17 29  1  0  0  0  0
 17 32  2  0  0  0  0
 17 33  1  0  0  0  0
 18 20  2  0  0  0  0
 18 38  1  0  0  0  0
 19 21  2  0  0  0  0
 19 39  1  0  0  0  0
 20 47  1  0  0  0  0
 21 40  1  0  0  0  0
 22 23  1  0  0  0  0
 22 57  1  0  0  0  0
 23 31  2  0  0  0  0
 23 58  1  0  0  0  0
 24 84  1  0  0  0  0
 25 85  1  0  0  0  0
 26 28  2  0  0  0  0
 26 84  1  0  0  0  0
 27 86  1  0  0  0  0
 28 87  1  0  0  0  0
 29 68  2  0  0  0  0
 30 59  1  0  0  0  0
 30 69  2  0  0  0  0
 31 50  1  0  0  0  0
 31 69  1  0  0  0  0
 32 70  1  0  0  0  0
 32 73  1  0  0  0  0
 33 74  1  0  0  0  0
 33 79  2  0  0  0  0
 34 48  1  0  0  0  0
 34 75  1  0  0  0  0
 34 80  2  0  0  0  0
 35 65  1  0  0  0  0
 35 71  1  0  0  0  0
 35 81  2  0  0  0  0
 36 66  1  0  0  0  0
 36 76  1  0  0  0  0
 36 82  2  0  0  0  0
 37 72  1  0  0  0  0
 37 77  1  0  0  0  0
 37 83  2  0  0  0  0
 38 41  1  0  0  0  0
 39 48  1  0  0  0  0
 40 71  1  0  0  0  0
 41 43  1  0  0  0  0
 42 44  1  0  0  0  0
 42 45  1  0  0  0  0
 43 47  1  0  0  0  0
 44 49  1  0  0  0  0
 45 72  1  0  0  0  0
 46 49  1  0  0  0  0
 46 72  1  0  0  0  0
 47 75  1  0  0  0  0
 48 71  1  0  0  0  0
 49 70  1  0  0  0  0
 51 60  1  0  0  0  0
 52 66  1  0  0  0  0
 53 67  1  0  0  0  0
 54 67  1  0  0  0  0
 55 67  1  0  0  0  0
 56 78  1  0  0  0  0
 57 61  1  0  0  0  0
 58 62  1  0  0  0  0
 59 63  1  0  0  0  0
 60 62  1  0  0  0  0
 61 64  1  0  0  0  0
 63 77  1  0  0  0  0
 64 85  1  0  0  0  0
 65 67  1  0  0  0  0
 65 76  1  0  0  0  0
 66 78  1  0  0  0  0
 68 70  1  0  0  0  0
M  CHG  1  78   1
M  ISO  4  37 100  64 101  77 100  85 101
M  END
> <Batch ID>
0091

> <Smiles>
CCCCc1c(CC[101CH2:1][101O:1]c2ccc3c(c2)CN(C(=O)C(NC(=O)C(C)NC)C(C)(C)C)C(C(=O)NC2CCCc4ccccc42)C3)cc(CC[100NH:0][100C:0](=O)N2CCCC(n3nc(-c4ccc(Oc5ccc(F)cc5F)cc4)c(C(N)=O)c3N)C2)nc1C

> <Shape>
0.221

> <Color>
0.065

> <Negative vol penalty>
0.000

$$$$

  -OEChem-04052319113D

 90 98  0     1  0  0  0  0  0999 V2000
  -29.8500  -36.1512   20.4765 C   0  0  0  0  0  0  0  0  0  0  0  0
  -29.8877  -34.7637   20.5696 C   0  0  0  0  0  0  0  0  0  0  0  0
  -25.7773  -12.8872   22.1369 C   0  0  0  0  0  0  0  0  0  0  0  0
  -25.5926  -13.8826   19.9432 C   0  0  0  0  0  0  0  0  0  0  0  0
  -28.8784  -36.8693   21.1723 C   0  0  0  0  0  0  0  0  0  0  0  0
  -28.9543  -34.0934   21.3596 C   0  0  0  0  0  0  0  0  0  0  0  0
  -27.0161  -30.0260   19.0479 C   0  0  0  0  0  0  0  0  0  0  0  0
  -24.6868  -12.0643   21.8553 C   0  0  0  0  0  0  0  0  0  0  0  0
  -24.5022  -13.0596   19.6616 C   0  0  0  0  0  0  0  0  0  0  0  0
  -27.8039  -28.8761   19.0158 C   0  0  0  0  0  0  0  0  0  0  0  0
  -24.0930   -9.2223   20.1223 C   0  0  0  0  0  0  0  0  0  0  0  0
  -24.1943   -7.8732   20.4618 C   0  0  0  0  0  0  0  0  0  0  0  0
  -26.5439  -27.9686   20.8619 C   0  0  0  0  0  0  0  0  0  0  0  0
  -22.2799   -8.0960   21.9188 C   0  0  0  0  0  0  0  0  0  0  0  0
  -30.0205  -22.7942   16.8516 C   0  0  0  0  0  0  0  0  0  0  0  0
  -26.2301  -13.7965   21.1808 C   0  0  0  0  0  0  0  0  0  0  0  0
  -28.7152  -14.3703   21.2310 C   0  0  0  0  0  0  0  0  0  0  0  0
  -27.9267  -36.2069   21.9636 C   0  0  0  0  0  0  0  0  0  0  0  0
  -25.9917  -30.1606   19.9959 C   0  0  0  0  0  0  0  0  0  0  0  0
  -27.9699  -34.8034   22.0678 C   0  0  0  0  0  0  0  0  0  0  0  0
  -25.7429  -29.1201   20.9023 C   0  0  0  0  0  0  0  0  0  0  0  0
  -31.0678  -22.6810   17.7431 C   0  0  0  0  0  0  0  0  0  0  0  0
  -24.0493  -12.1504   20.6176 C   0  0  0  0  0  0  0  0  0  0  0  0
  -27.5698  -27.8484   19.9247 C   0  0  0  0  0  0  0  0  0  0  0  0
  -23.0852  -10.0083   20.6811 C   0  0  0  0  0  0  0  0  0  0  0  0
  -23.2878   -7.3100   21.3600 C   0  0  0  0  0  0  0  0  0  0  0  0
  -22.1786   -9.4452   21.5793 C   0  0  0  0  0  0  0  0  0  0  0  0
  -27.3561  -14.6473   21.4713 C   0  0  0  0  0  0  0  0  0  0  0  0
  -31.2457  -21.4308   18.2994 C   0  0  0  0  0  0  0  0  0  0  0  0
  -29.3778  -15.4862   21.6806 C   0  0  0  0  0  0  0  0  0  0  0  0
  -29.4800  -20.6040   17.1307 C   0  0  0  0  0  0  0  0  0  0  0  0
  -29.3243  -13.2082   20.6529 C   0  0  0  0  0  0  0  0  0  0  0  0
  -25.3960  -32.1714   22.3846 C   0  0  0  0  0  0  0  0  0  0  0  0
  -22.5930  -30.5460   22.5372 C   0  0  0  0  0  0  0  0  0  0  0  0
  -20.8707  -27.6729   21.8847 C   0  0  0  0  0  0  0  0  0  0  0  0
  -29.8703  -21.0325   22.0560 C   0  0  0  0  0  0  0  0  0  0  0  0
  -26.9249  -37.0291   22.7349 C   0  0  0  0  0  0  0  0  0  0  0  0
  -25.1335  -31.3959   20.0001 C   0  0  0  0  0  0  0  0  0  0  0  0
  -24.6422  -29.2068   21.9267 C   0  0  0  0  0  0  0  0  0  0  0  0
  -25.7401  -36.2174   23.2523 C   0  0  0  0  0  0  0  0  0  0  0  0
  -27.7312  -19.4198   24.4012 C   0  0  0  0  0  0  0  0  0  0  0  0
  -26.2222  -34.9259   23.9052 C   0  0  0  0  0  0  0  0  0  0  0  0
  -27.5503  -18.0144   23.8250 C   0  0  0  0  0  0  0  0  0  0  0  0
  -27.8021  -20.4761   23.3007 C   0  0  0  0  0  0  0  0  0  0  0  0
  -28.6330  -18.8130   21.6829 C   0  0  0  0  0  0  0  0  0  0  0  0
  -26.9593  -34.0387   22.8948 C   0  0  1  0  0  0  0  0  0  0  0  0
  -24.4512  -31.6448   21.3417 C   0  0  1  0  0  0  0  0  0  0  0  0
  -28.6122  -17.7072   22.7521 C   0  0  2  0  0  0  0  0  0  0  0  0
  -18.6054  -26.6286   22.1590 C   0  0  0  0  0  0  0  0  0  0  0  0
  -33.0977  -21.1732   21.6975 C   0  0  0  0  0  0  0  0  0  0  0  0
  -25.9121  -18.2935   15.7840 C   0  0  0  0  0  0  0  0  0  0  0  0
  -24.9701  -18.5195   18.0868 C   0  0  0  0  0  0  0  0  0  0  0  0
  -26.9242  -17.0045   17.6696 C   0  0  0  0  0  0  0  0  0  0  0  0
  -23.1699  -30.0777   25.4966 C   0  0  0  0  0  0  0  0  0  0  0  0
  -21.4249  -28.2825   25.4812 C   0  0  0  0  0  0  0  0  0  0  0  0
  -20.7900  -30.6409   24.9741 C   0  0  0  0  0  0  0  0  0  0  0  0
  -20.5234  -27.3801   18.9602 C   0  0  0  0  0  0  0  0  0  0  0  0
  -31.9452  -23.8627   18.0709 C   0  0  0  0  0  0  0  0  0  0  0  0
  -32.3480  -21.1900   19.2774 C   0  0  0  0  0  0  0  0  0  0  0  0
  -28.5988  -19.4501   16.7901 C   0  0  0  0  0  0  0  0  0  0  0  0
  -31.2185  -25.2106   18.0054 C   0  0  0  0  0  0  0  0  0  0  0  0
  -27.2393  -19.5295   17.5120 C   0  0  0  0  0  0  0  0  0  0  0  0
  -30.0892  -25.3322   19.0295 C   0  0  0  0  0  0  0  0  0  0  0  0
  -29.3657  -26.6666   18.9081 C   0  0  0  0  0  0  0  0  0  1  0  0
  -22.1076  -29.3182   23.2694 C   0  0  1  0  0  0  0  0  0  0  0  0
  -19.5150  -27.4344   21.2447 C   0  0  2  0  0  0  0  0  0  0  0  0
  -31.9372  -21.4400   20.7441 C   0  0  1  0  0  0  0  0  0  0  0  0
  -26.2685  -18.3403   17.2831 C   0  0  0  0  0  0  0  0  0  0  0  0
  -21.8952  -29.5787   24.7874 C   0  0  0  0  0  0  0  0  0  0  0  0
  -29.2036  -21.7725   16.5211 N   0  0  0  0  0  0  0  0  0  0  0  0
  -27.1650  -15.8452   22.0304 N   0  0  0  0  0  0  0  0  0  0  0  0
  -30.4675  -20.3659   18.0149 N   0  0  0  0  0  0  0  0  0  0  0  0
  -28.4129  -16.3307   22.1452 N   0  0  0  0  0  0  0  0  0  0  0  0
  -23.8345  -30.4373   21.8949 N   0  0  0  0  0  0  0  0  0  0  0  0
  -28.8293  -20.1262   22.3167 N   0  0  0  0  0  0  0  0  0  0  0  0
  -30.6859  -15.8176   21.7201 N   0  0  0  0  0  0  0  0  0  0  0  0
  -28.4969  -12.1532   20.2447 N   0  0  0  0  0  0  0  0  0  0  0  0
  -26.0140  -33.3573   22.0365 N   0  0  0  0  0  0  0  0  0  0  0  0
  -20.9100  -28.8707   22.5666 N   0  0  0  0  0  0  0  0  0  0  0  0
  -30.8052  -20.6201   21.1144 N   0  0  0  0  0  0  0  0  0  0  0  0
  -19.6710  -26.6907   19.9627 N   0  3  0  0  0  0  0  0  0  0  0  0
  -30.5669  -13.1014   20.5179 O   0  0  0  0  0  0  0  0  0  0  0  0
  -25.5517  -31.5487   23.4285 O   0  0  0  0  0  0  0  0  0  0  0  0
  -21.8930  -31.5616   22.5294 O   0  0  0  0  0  0  0  0  0  0  0  0
  -21.8006  -26.8745   21.7923 O   0  0  0  0  0  0  0  0  0  0  0  0
  -29.9629  -22.1258   22.6244 O   0  0  0  0  0  0  0  0  0  0  0  0
  -22.9854  -11.3473   20.3424 O   0  0  0  0  0  0  0  0  0  0  0  0
  -28.3376  -26.7253   19.8959 O   0  0  0  0  0  0  0  0  0  1  0  0
  -23.3843   -6.0141   21.6848 F   0  0  0  0  0  0  0  0  0  0  0  0
  -21.2076  -10.1950   22.1184 F   0  0  0  0  0  0  0  0  0  0  0  0
  1  2  1  0  0  0  0
  1  5  2  0  0  0  0
  2  6  2  0  0  0  0
  3  8  2  0  0  0  0
  3 16  1  0  0  0  0
  4  9  1  0  0  0  0
  4 16  2  0  0  0  0
  5 18  1  0  0  0  0
  6 20  1  0  0  0  0
  7 10  2  0  0  0  0
  7 19  1  0  0  0  0
  8 23  1  0  0  0  0
  9 23  2  0  0  0  0
 10 24  1  0  0  0  0
 11 12  2  0  0  0  0
 11 25  1  0  0  0  0
 12 26  1  0  0  0  0
 13 21  1  0  0  0  0
 13 24  2  0  0  0  0
 14 26  2  0  0  0  0
 14 27  1  0  0  0  0
 15 22  1  0  0  0  0
 15 70  2  0  0  0  0
 16 28  1  0  0  0  0
 17 28  1  0  0  0  0
 17 30  2  0  0  0  0
 17 32  1  0  0  0  0
 18 20  2  0  0  0  0
 18 37  1  0  0  0  0
 19 21  2  0  0  0  0
 19 38  1  0  0  0  0
 20 46  1  0  0  0  0
 21 39  1  0  0  0  0
 22 29  2  0  0  0  0
 22 58  1  0  0  0  0
 23 87  1  0  0  0  0
 24 88  1  0  0  0  0
 25 27  2  0  0  0  0
 25 87  1  0  0  0  0
 26 89  1  0  0  0  0
 27 90  1  0  0  0  0
 28 71  2  0  0  0  0
 29 59  1  0  0  0  0
 29 72  1  0  0  0  0
 30 73  1  0  0  0  0
 30 76  1  0  0  0  0
 31 60  1  0  0  0  0
 31 70  1  0  0  0  0
 31 72  2  0  0  0  0
 32 77  1  0  0  0  0
 32 82  2  0  0  0  0
 33 47  1  0  0  0  0
 33 78  1  0  0  0  0
 33 83  2  0  0  0  0
 34 65  1  0  0  0  0
 34 74  1  0  0  0  0
 34 84  2  0  0  0  0
 35 66  1  0  0  0  0
 35 79  1  0  0  0  0
 35 85  2  0  0  0  0
 36 75  1  0  0  0  0
 36 80  1  0  0  0  0
 36 86  2  0  0  0  0
 37 40  1  0  0  0  0
 38 47  1  0  0  0  0
 39 74  1  0  0  0  0
 40 42  1  0  0  0  0
 41 43  1  0  0  0  0
 41 44  1  0  0  0  0
 42 46  1  0  0  0  0
 43 48  1  0  0  0  0
 44 75  1  0  0  0  0
 45 48  1  0  0  0  0
 45 75  1  0  0  0  0
 46 78  1  0  0  0  0
 47 74  1  0  0  0  0
 48 73  1  0  0  0  0
 49 66  1  0  0  0  0
 50 67  1  0  0  0  0
 51 68  1  0  0  0  0
 52 68  1  0  0  0  0
 53 68  1  0  0  0  0
 54 69  1  0  0  0  0
 55 69  1  0  0  0  0
 56 69  1  0  0  0  0
 57 81  1  0  0  0  0
 58 61  1  0  0  0  0
 59 67  1  0  0  0  0
 60 62  1  0  0  0  0
 61 63  1  0  0  0  0
 62 68  1  0  0  0  0
 63 64  1  0  0  0  0
 64 88  1  0  0  0  0
 65 69  1  0  0  0  0
 65 79  1  0  0  0  0
 66 81  1  0  0  0  0
 67 80  1  0  0  0  0
 71 73  1  0  0  0  0
M  CHG  1  81   1
M  ISO  4  36 100  64 101  80 100  88 101
M  END
> <Batch ID>
0091

> <Smiles>
CNC(C)C(=O)NC(C(=O)N1Cc2cc([101O:1][101CH2:1]CCCc3cnc(CCC(C)(C)C)nc3CC(C)[100NH:0][100C:0](=O)N3CCCC(n4nc(-c5ccc(Oc6ccc(F)cc6F)cc5)c(C(N)=O)c4N)C3)ccc2CC1C(=O)NC1CCCc2ccccc21)C(C)(C)C

> <Shape>
0.293

> <Color>
0.084

> <Negative vol penalty>
0.000

$$$$
