
  -OEChem-04052319143D

 84 92  0     1  0  0  0  0  0999 V2000
  -16.3537  -28.9106   23.4095 C   0  0  0  0  0  0  0  0  0  0  0  0
  -17.1936  -28.3988   22.4256 C   0  0  0  0  0  0  0  0  0  0  0  0
  -26.7812  -12.5160   20.9202 C   0  0  0  0  0  0  0  0  0  0  0  0
  -25.3972  -14.3647   20.2102 C   0  0  0  0  0  0  0  0  0  0  0  0
  -16.8407  -29.8438   24.3238 C   0  0  0  0  0  0  0  0  0  0  0  0
  -18.5208  -28.8208   22.3548 C   0  0  0  0  0  0  0  0  0  0  0  0
  -23.3678  -25.4636   20.6987 C   0  0  0  0  0  0  0  0  0  0  0  0
  -25.6519  -11.8572   21.4062 C   0  0  0  0  0  0  0  0  0  0  0  0
  -24.2678  -13.7058   20.6962 C   0  0  0  0  0  0  0  0  0  0  0  0
  -24.0620  -25.3486   19.4951 C   0  0  0  0  0  0  0  0  0  0  0  0
  -23.0920  -10.0424   20.1467 C   0  0  0  0  0  0  0  0  0  0  0  0
  -22.9548   -8.6864   19.8500 C   0  0  0  0  0  0  0  0  0  0  0  0
  -25.6757  -26.9614   20.2786 C   0  0  0  0  0  0  0  0  0  0  0  0
  -29.9011  -20.7843   17.9214 C   0  0  0  0  0  0  0  0  0  0  0  0
  -22.9486   -8.1707   22.2103 C   0  0  0  0  0  0  0  0  0  0  0  0
  -26.6539  -13.7698   20.3223 C   0  0  0  0  0  0  0  0  0  0  0  0
  -28.3653  -14.3623   18.5258 C   0  0  0  0  0  0  0  0  0  0  0  0
  -18.1771  -30.2701   24.2702 C   0  0  0  0  0  0  0  0  0  0  0  0
  -23.8170  -26.3381   21.6987 C   0  0  0  0  0  0  0  0  0  0  0  0
  -19.0258  -29.7615   23.2685 C   0  0  0  0  0  0  0  0  0  0  0  0
  -24.9868  -27.0839   21.4950 C   0  0  0  0  0  0  0  0  0  0  0  0
  -28.9943  -20.6655   16.8394 C   0  0  0  0  0  0  0  0  0  0  0  0
  -24.3952  -12.4520   21.2942 C   0  0  0  0  0  0  0  0  0  0  0  0
  -25.2145  -26.0997   19.2838 C   0  0  0  0  0  0  0  0  0  0  0  0
  -23.1576  -10.4626   21.4751 C   0  0  0  0  0  0  0  0  0  0  0  0
  -22.8831   -7.7506   20.8818 C   0  0  0  0  0  0  0  0  0  0  0  0
  -23.0859   -9.5268   22.5070 C   0  0  0  0  0  0  0  0  0  0  0  0
  -27.8201  -14.4512   19.8206 C   0  0  0  0  0  0  0  0  0  0  0  0
  -29.5342  -21.8973   18.6452 C   0  0  0  0  0  0  0  0  0  0  0  0
  -28.1010  -21.7097   16.9348 C   0  0  0  0  0  0  0  0  0  0  0  0
  -29.4585  -15.1933   18.5557 C   0  0  0  0  0  0  0  0  0  0  0  0
  -27.9231  -13.5970   17.3968 C   0  0  0  0  0  0  0  0  0  0  0  0
  -22.6182  -28.9072   23.1362 C   0  0  0  0  0  0  0  0  0  0  0  0
  -25.2733  -28.6343   24.9796 C   0  0  0  0  0  0  0  0  0  0  0  0
  -28.4734  -27.4923   25.2995 C   0  0  0  0  0  0  0  0  0  0  0  0
  -30.8710  -19.9538   21.9014 C   0  0  0  0  0  0  0  0  0  0  0  0
  -18.6453  -31.3160   25.2508 C   0  0  0  0  0  0  0  0  0  0  0  0
  -23.0718  -26.4309   23.0019 C   0  0  0  0  0  0  0  0  0  0  0  0
  -25.5221  -28.0219   22.5447 C   0  0  0  0  0  0  0  0  0  0  0  0
  -20.1650  -31.4301   25.3404 C   0  0  0  0  0  0  0  0  0  0  0  0
  -32.7473  -16.9477   21.5551 C   0  0  0  0  0  0  0  0  0  0  0  0
  -20.7807  -31.4667   23.9453 C   0  0  0  0  0  0  0  0  0  0  0  0
  -31.7465  -15.9590   20.9545 C   0  0  0  0  0  0  0  0  0  0  0  0
  -32.0790  -17.8914   22.5525 C   0  0  0  0  0  0  0  0  0  0  0  0
  -29.9013  -17.6226   21.4304 C   0  0  0  0  0  0  0  0  0  0  0  0
  -20.4782  -30.1759   23.1746 C   0  0  1  0  0  0  0  0  0  0  0  0
  -23.3329  -27.7357   23.7480 C   0  0  1  0  0  0  0  0  0  0  0  0
  -30.5175  -16.6864   20.3767 C   0  0  2  0  0  0  0  0  0  0  0  0
  -29.0104  -19.6126   15.8044 C   0  0  0  0  0  0  0  0  0  0  0  0
  -26.9544  -22.0643   16.0714 C   0  0  0  0  0  0  0  0  0  0  0  0
  -30.4002  -27.4550   26.9068 C   0  0  0  0  0  0  0  0  0  0  0  0
  -27.6443  -27.4001   17.2698 C   0  0  0  0  0  0  0  0  0  0  0  0
  -25.8863  -31.5470   24.3086 C   0  0  0  0  0  0  0  0  0  0  0  0
  -28.2244  -31.1692   25.1200 C   0  0  0  0  0  0  0  0  0  0  0  0
  -26.3043  -30.9153   26.6920 C   0  0  0  0  0  0  0  0  0  0  0  0
  -28.4507  -24.5361   25.4386 C   0  0  0  0  0  0  0  0  0  0  0  0
  -30.1370  -22.4745   19.8643 C   0  0  0  0  0  0  0  0  0  0  0  0
  -28.0233  -24.9403   17.6700 C   0  0  0  0  0  0  0  0  0  0  0  0
  -27.7171  -23.6895   18.5062 C   0  0  0  0  0  0  0  0  0  0  0  0
  -29.5492  -21.9252   21.1764 C   0  0  0  0  0  0  0  0  0  0  0  0
  -26.6845  -29.1657   24.9070 C   0  0  1  0  0  0  0  0  0  0  0  0
  -29.1619  -26.7234   26.4127 C   0  0  2  0  0  0  0  0  0  0  0  0
  -27.3035  -26.2059   18.1521 C   0  0  2  0  0  0  0  0  0  1  0  0
  -26.7640  -30.6832   25.2362 C   0  0  0  0  0  0  0  0  0  0  0  0
  -28.5101  -15.2736   20.6153 N   0  0  0  0  0  0  0  0  0  0  0  0
  -28.4390  -22.4520   18.0360 N   0  0  0  0  0  0  0  0  0  0  0  0
  -29.5002  -15.7090   19.8176 N   0  0  0  0  0  0  0  0  0  0  0  0
  -24.7547  -28.0824   23.7997 N   0  0  0  0  0  0  0  0  0  0  0  0
  -30.9221  -18.5506   21.9418 N   0  0  0  0  0  0  0  0  0  0  0  0
  -30.3786  -15.5258   17.6254 N   0  0  0  0  0  0  0  0  0  0  0  0
  -26.7818  -12.7959   17.5384 N   0  0  0  0  0  0  0  0  0  0  0  0
  -21.3408  -29.1046   23.6248 N   0  0  0  0  0  0  0  0  0  0  0  0
  -27.4846  -28.3207   25.7868 N   0  0  0  0  0  0  0  0  0  0  0  0
  -29.7428  -20.4975   21.2995 N   0  0  0  0  0  0  0  0  0  0  0  0
  -29.5737  -25.3741   25.9323 N   0  3  0  0  0  0  0  0  0  0  0  0
  -28.5318  -13.6101   16.3001 O   0  0  0  0  0  0  0  0  0  0  0  0
  -23.1843  -29.5829   22.2850 O   0  0  0  0  0  0  0  0  0  0  0  0
  -24.6566  -28.6998   26.0459 O   0  0  0  0  0  0  0  0  0  0  0  0
  -28.7843  -27.3731   24.1164 O   0  0  0  0  0  0  0  0  0  0  0  0
  -31.7671  -20.6689   22.3624 O   0  0  0  0  0  0  0  0  0  0  0  0
  -23.2930  -11.8093   21.7680 O   0  0  0  0  0  0  0  0  0  0  0  0
  -25.8936  -25.9897   18.1096 O   0  0  0  0  0  0  0  0  0  1  0  0
  -22.7498   -6.4486   20.5969 F   0  0  0  0  0  0  0  0  0  0  0  0
  -23.1471   -9.9245   23.7852 F   0  0  0  0  0  0  0  0  0  0  0  0
  1  2  1  0  0  0  0
  1  5  2  0  0  0  0
  2  6  2  0  0  0  0
  3  8  2  0  0  0  0
  3 16  1  0  0  0  0
  4  9  1  0  0  0  0
  4 16  2  0  0  0  0
  5 18  1  0  0  0  0
  6 20  1  0  0  0  0
  7 10  2  0  0  0  0
  7 19  1  0  0  0  0
  8 23  1  0  0  0  0
  9 23  2  0  0  0  0
 10 24  1  0  0  0  0
 11 12  2  0  0  0  0
 11 25  1  0  0  0  0
 12 26  1  0  0  0  0
 13 21  1  0  0  0  0
 13 24  2  0  0  0  0
 14 22  1  0  0  0  0
 14 29  2  0  0  0  0
 15 26  2  0  0  0  0
 15 27  1  0  0  0  0
 16 28  1  0  0  0  0
 17 28  1  0  0  0  0
 17 31  2  0  0  0  0
 17 32  1  0  0  0  0
 18 20  2  0  0  0  0
 18 37  1  0  0  0  0
 19 21  2  0  0  0  0
 19 38  1  0  0  0  0
 20 46  1  0  0  0  0
 21 39  1  0  0  0  0
 22 30  2  0  0  0  0
 22 49  1  0  0  0  0
 23 81  1  0  0  0  0
 24 82  1  0  0  0  0
 25 27  2  0  0  0  0
 25 81  1  0  0  0  0
 26 83  1  0  0  0  0
 27 84  1  0  0  0  0
 28 65  2  0  0  0  0
 29 57  1  0  0  0  0
 29 66  1  0  0  0  0
 30 50  1  0  0  0  0
 30 66  1  0  0  0  0
 31 67  1  0  0  0  0
 31 70  1  0  0  0  0
 32 71  1  0  0  0  0
 32 76  2  0  0  0  0
 33 47  1  0  0  0  0
 33 72  1  0  0  0  0
 33 77  2  0  0  0  0
 34 61  1  0  0  0  0
 34 68  1  0  0  0  0
 34 78  2  0  0  0  0
 35 62  1  0  0  0  0
 35 73  1  0  0  0  0
 35 79  2  0  0  0  0
 36 69  1  0  0  0  0
 36 74  1  0  0  0  0
 36 80  2  0  0  0  0
 37 40  1  0  0  0  0
 38 47  1  0  0  0  0
 39 68  1  0  0  0  0
 40 42  1  0  0  0  0
 41 43  1  0  0  0  0
 41 44  1  0  0  0  0
 42 46  1  0  0  0  0
 43 48  1  0  0  0  0
 44 69  1  0  0  0  0
 45 48  1  0  0  0  0
 45 69  1  0  0  0  0
 46 72  1  0  0  0  0
 47 68  1  0  0  0  0
 48 67  1  0  0  0  0
 51 62  1  0  0  0  0
 52 63  1  0  0  0  0
 53 64  1  0  0  0  0
 54 64  1  0  0  0  0
 55 64  1  0  0  0  0
 56 75  1  0  0  0  0
 57 60  1  0  0  0  0
 58 59  1  0  0  0  0
 58 63  1  0  0  0  0
 59 66  1  0  0  0  0
 60 74  1  0  0  0  0
 61 64  1  0  0  0  0
 61 73  1  0  0  0  0
 62 75  1  0  0  0  0
 63 82  1  0  0  0  0
 65 67  1  0  0  0  0
M  CHG  1  75   1
M  ISO  4  36 100  63 101  74 100  82 101
M  END
> <Batch ID>
0092

> <Smiles>
CNC(C)C(=O)NC(C(=O)N1Cc2cc([101O:1][101CH:1](C)CCn3c(CC[100NH:0][100C:0](=O)N4CCCC(n5nc(-c6ccc(Oc7ccc(F)cc7F)cc6)c(C(N)=O)c5N)C4)cc(C)c3C)ccc2CC1C(=O)NC1CCCc2ccccc21)C(C)(C)C

> <Shape>
0.261

> <Color>
0.078

> <Negative vol penalty>
0.000

$$$$

  -OEChem-04052319143D

 89 97  0     1  0  0  0  0  0999 V2000
  -22.9688  -30.6765   20.9913 C   0  0  0  0  0  0  0  0  0  0  0  0
  -23.1399  -29.4631   20.3328 C   0  0  0  0  0  0  0  0  0  0  0  0
  -22.3736  -10.4998   20.4156 C   0  0  0  0  0  0  0  0  0  0  0  0
  -24.3453   -9.5143   21.4047 C   0  0  0  0  0  0  0  0  0  0  0  0
  -24.0728  -31.3413   21.5234 C   0  0  0  0  0  0  0  0  0  0  0  0
  -24.4154  -28.9142   20.2050 C   0  0  0  0  0  0  0  0  0  0  0  0
  -25.8898  -22.9706   20.2750 C   0  0  0  0  0  0  0  0  0  0  0  0
  -21.6400   -9.3590   20.7414 C   0  0  0  0  0  0  0  0  0  0  0  0
  -23.6117   -8.3735   21.7305 C   0  0  0  0  0  0  0  0  0  0  0  0
  -26.1448  -22.0553   19.2546 C   0  0  0  0  0  0  0  0  0  0  0  0
  -19.1609   -6.8545   21.6339 C   0  0  0  0  0  0  0  0  0  0  0  0
  -17.8974   -7.0348   22.1966 C   0  0  0  0  0  0  0  0  0  0  0  0
  -28.5112  -22.4585   19.4928 C   0  0  0  0  0  0  0  0  0  0  0  0
  -30.2536  -16.7406   17.5461 C   0  0  0  0  0  0  0  0  0  0  0  0
  -18.8915   -8.2298   24.0461 C   0  0  0  0  0  0  0  0  0  0  0  0
  -23.7262  -10.5774   20.7473 C   0  0  0  0  0  0  0  0  0  0  0  0
  -24.6635  -12.9061   21.2014 C   0  0  0  0  0  0  0  0  0  0  0  0
  -25.3612  -30.7956   21.4106 C   0  0  0  0  0  0  0  0  0  0  0  0
  -26.9447  -23.6459   20.9055 C   0  0  0  0  0  0  0  0  0  0  0  0
  -25.5379  -29.5730   20.7349 C   0  0  0  0  0  0  0  0  0  0  0  0
  -28.2671  -23.3799   20.5226 C   0  0  0  0  0  0  0  0  0  0  0  0
  -30.8870  -16.0900   18.5991 C   0  0  0  0  0  0  0  0  0  0  0  0
  -30.4729  -16.3269   19.9051 C   0  0  0  0  0  0  0  0  0  0  0  0
  -22.2590   -8.2959   21.3988 C   0  0  0  0  0  0  0  0  0  0  0  0
  -27.4555  -21.8013   18.8614 C   0  0  0  0  0  0  0  0  0  0  0  0
  -20.2897   -7.3618   22.2773 C   0  0  0  0  0  0  0  0  0  0  0  0
  -17.7627   -7.7224   23.4026 C   0  0  0  0  0  0  0  0  0  0  0  0
  -20.1550   -8.0494   23.4834 C   0  0  0  0  0  0  0  0  0  0  0  0
  -24.4847  -11.7553   20.4105 C   0  0  0  0  0  0  0  0  0  0  0  0
  -29.2197  -17.6115   17.8497 C   0  0  0  0  0  0  0  0  0  0  0  0
  -29.4293  -17.2166   20.1032 C   0  0  0  0  0  0  0  0  0  0  0  0
  -25.4575  -13.7271   20.4384 C   0  0  0  0  0  0  0  0  0  0  0  0
  -24.1571  -13.2062   22.5087 C   0  0  0  0  0  0  0  0  0  0  0  0
  -27.8066  -26.6922   21.1895 C   0  0  0  0  0  0  0  0  0  0  0  0
  -30.0493  -25.4663   23.1869 C   0  0  0  0  0  0  0  0  0  0  0  0
  -31.9215  -22.7765   24.1390 C   0  0  0  0  0  0  0  0  0  0  0  0
  -29.2182  -12.1957   15.8503 C   0  0  0  0  0  0  0  0  0  0  0  0
  -26.5300  -31.5742   21.9605 C   0  0  0  0  0  0  0  0  0  0  0  0
  -26.6545  -24.6103   22.0227 C   0  0  0  0  0  0  0  0  0  0  0  0
  -29.4362  -24.0634   21.1816 C   0  0  0  0  0  0  0  0  0  0  0  0
  -27.8005  -30.7412   22.1099 C   0  0  0  0  0  0  0  0  0  0  0  0
  -26.5365  -14.7468   15.8963 C   0  0  0  0  0  0  0  0  0  0  0  0
  -28.0505  -29.9183   20.8501 C   0  0  0  0  0  0  0  0  0  0  0  0
  -25.6857  -14.3143   17.0892 C   0  0  0  0  0  0  0  0  0  0  0  0
  -27.2531  -13.5640   15.2521 C   0  0  0  0  0  0  0  0  0  0  0  0
  -27.2222  -12.3330   17.3964 C   0  0  0  0  0  0  0  0  0  0  0  0
  -26.9025  -28.9334   20.5977 C   0  0  1  0  0  0  0  0  0  0  0  0
  -27.7741  -25.6225   22.2442 C   0  0  1  0  0  0  0  0  0  0  0  0
  -26.5234  -13.5080   18.0969 C   0  0  2  0  0  0  0  0  0  0  0  0
  -31.1321  -15.6415   21.0545 C   0  0  0  0  0  0  0  0  0  0  0  0
  -27.4807  -20.6953   23.1731 C   0  0  0  0  0  0  0  0  0  0  0  0
  -33.5231  -21.4260   25.5204 C   0  0  0  0  0  0  0  0  0  0  0  0
  -32.1491  -26.9260   21.5226 C   0  0  0  0  0  0  0  0  0  0  0  0
  -33.8949  -25.4774   22.5820 C   0  0  0  0  0  0  0  0  0  0  0  0
  -32.5289  -27.0156   23.9929 C   0  0  0  0  0  0  0  0  0  0  0  0
  -31.1487  -10.9457   16.7392 C   0  0  0  0  0  0  0  0  0  0  0  0
  -29.7630  -21.8357   25.9319 C   0  0  0  0  0  0  0  0  0  0  0  0
  -32.0063  -15.1478   18.3020 C   0  0  0  0  0  0  0  0  0  0  0  0
  -28.5087  -18.3338   16.7332 C   0  0  0  0  0  0  0  0  0  0  0  0
  -28.9392  -17.5106   21.4834 C   0  0  0  0  0  0  0  0  0  0  0  0
  -27.9561  -19.2574   23.0394 C   0  0  0  0  0  0  0  0  0  0  0  0
  -31.6435  -14.0181   17.3190 C   0  0  0  0  0  0  0  0  0  0  0  0
  -29.1346  -19.6837   16.3761 C   0  0  0  0  0  0  0  0  0  0  0  0
  -28.4197  -18.9505   21.6154 C   0  0  0  0  0  0  0  0  0  0  0  0
  -30.5438  -13.0817   17.8151 C   0  0  0  0  0  0  0  0  0  0  0  0
  -29.0737  -20.6971   17.5131 C   0  0  0  0  0  0  0  0  0  1  0  0
  -31.4555  -24.9423   23.0226 C   0  0  1  0  0  0  0  0  0  0  0  0
  -32.2003  -22.1761   25.5051 C   0  0  2  0  0  0  0  0  0  0  0  0
  -32.4852  -26.0787   22.7661 C   0  0  0  0  0  0  0  0  0  0  0  0
  -25.1144  -11.8343   19.2353 N   0  0  0  0  0  0  0  0  0  0  0  0
  -28.7896  -17.8672   19.1056 N   0  0  0  0  0  0  0  0  0  0  0  0
  -25.6965  -13.0447   19.2819 N   0  0  0  0  0  0  0  0  0  0  0  0
  -29.1006  -25.0026   22.2646 N   0  0  0  0  0  0  0  0  0  0  0  0
  -28.0065  -12.7900   16.2393 N   0  0  0  0  0  0  0  0  0  0  0  0
  -25.9676  -14.9588   20.6507 N   0  0  0  0  0  0  0  0  0  0  0  0
  -23.3569  -12.2514   23.1507 N   0  0  0  0  0  0  0  0  0  0  0  0
  -27.0161  -27.7888   21.4760 N   0  0  0  0  0  0  0  0  0  0  0  0
  -31.7337  -24.1407   24.2094 N   0  0  0  0  0  0  0  0  0  0  0  0
  -30.2050  -12.0501   16.8371 N   0  0  0  0  0  0  0  0  0  0  0  0
  -31.1168  -21.2258   25.8842 N   0  3  0  0  0  0  0  0  0  0  0  0
  -24.3933  -14.2959   23.0836 O   0  0  0  0  0  0  0  0  0  0  0  0
  -28.4987  -26.5350   20.1906 O   0  0  0  0  0  0  0  0  0  0  0  0
  -29.8002  -26.2524   24.1044 O   0  0  0  0  0  0  0  0  0  0  0  0
  -31.8786  -22.1032   23.1117 O   0  0  0  0  0  0  0  0  0  0  0  0
  -29.4107  -11.8255   14.6851 O   0  0  0  0  0  0  0  0  0  0  0  0
  -21.5434   -7.1827   21.7171 O   0  0  0  0  0  0  0  0  0  0  0  0
  -27.7072  -20.9090   17.8653 O   0  0  0  0  0  0  0  0  0  1  0  0
  -16.5491   -7.8968   23.9421 F   0  0  0  0  0  0  0  0  0  0  0  0
  -21.2357   -8.5401   24.1056 F   0  0  0  0  0  0  0  0  0  0  0  0
  1  2  1  0  0  0  0
  1  5  2  0  0  0  0
  2  6  2  0  0  0  0
  3  8  2  0  0  0  0
  3 16  1  0  0  0  0
  4  9  1  0  0  0  0
  4 16  2  0  0  0  0
  5 18  1  0  0  0  0
  6 20  1  0  0  0  0
  7 10  2  0  0  0  0
  7 19  1  0  0  0  0
  8 24  1  0  0  0  0
  9 24  2  0  0  0  0
 10 25  1  0  0  0  0
 11 12  2  0  0  0  0
 11 26  1  0  0  0  0
 12 27  1  0  0  0  0
 13 21  1  0  0  0  0
 13 25  2  0  0  0  0
 14 22  2  0  0  0  0
 14 30  1  0  0  0  0
 15 27  2  0  0  0  0
 15 28  1  0  0  0  0
 16 29  1  0  0  0  0
 17 29  1  0  0  0  0
 17 32  2  0  0  0  0
 17 33  1  0  0  0  0
 18 20  2  0  0  0  0
 18 38  1  0  0  0  0
 19 21  2  0  0  0  0
 19 39  1  0  0  0  0
 20 47  1  0  0  0  0
 21 40  1  0  0  0  0
 22 23  1  0  0  0  0
 22 58  1  0  0  0  0
 23 31  2  0  0  0  0
 23 50  1  0  0  0  0
 24 86  1  0  0  0  0
 25 87  1  0  0  0  0
 26 28  2  0  0  0  0
 26 86  1  0  0  0  0
 27 88  1  0  0  0  0
 28 89  1  0  0  0  0
 29 70  2  0  0  0  0
 30 59  1  0  0  0  0
 30 71  2  0  0  0  0
 31 60  1  0  0  0  0
 31 71  1  0  0  0  0
 32 72  1  0  0  0  0
 32 75  1  0  0  0  0
 33 76  1  0  0  0  0
 33 81  2  0  0  0  0
 34 48  1  0  0  0  0
 34 77  1  0  0  0  0
 34 82  2  0  0  0  0
 35 67  1  0  0  0  0
 35 73  1  0  0  0  0
 35 83  2  0  0  0  0
 36 68  1  0  0  0  0
 36 78  1  0  0  0  0
 36 84  2  0  0  0  0
 37 74  1  0  0  0  0
 37 79  1  0  0  0  0
 37 85  2  0  0  0  0
 38 41  1  0  0  0  0
 39 48  1  0  0  0  0
 40 73  1  0  0  0  0
 41 43  1  0  0  0  0
 42 44  1  0  0  0  0
 42 45  1  0  0  0  0
 43 47  1  0  0  0  0
 44 49  1  0  0  0  0
 45 74  1  0  0  0  0
 46 49  1  0  0  0  0
 46 74  1  0  0  0  0
 47 77  1  0  0  0  0
 48 73  1  0  0  0  0
 49 72  1  0  0  0  0
 51 61  1  0  0  0  0
 52 68  1  0  0  0  0
 53 69  1  0  0  0  0
 54 69  1  0  0  0  0
 55 69  1  0  0  0  0
 56 79  1  0  0  0  0
 57 80  1  0  0  0  0
 58 62  1  0  0  0  0
 59 63  1  0  0  0  0
 60 64  1  0  0  0  0
 61 64  1  0  0  0  0
 62 65  1  0  0  0  0
 63 66  1  0  0  0  0
 65 79  1  0  0  0  0
 66 87  1  0  0  0  0
 67 69  1  0  0  0  0
 67 78  1  0  0  0  0
 68 80  1  0  0  0  0
 70 72  1  0  0  0  0
M  CHG  1  80   1
M  ISO  4  37 100  66 101  79 100  87 101
M  END
> <Batch ID>
0092

> <Smiles>
CCCCc1nc(CC[101CH2:1][101O:1]c2ccc3c(c2)CN(C(=O)C(NC(=O)C(C)NC)C(C)(C)C)C(C(=O)NC2CCCc4ccccc42)C3)cc(CCC[100N:0](C)[100C:0](=O)N2CCCC(n3nc(-c4ccc(Oc5ccc(F)cc5F)cc4)c(C(N)=O)c3N)C2)c1C

> <Shape>
0.220

> <Color>
0.115

> <Negative vol penalty>
0.000

$$$$

  -OEChem-04052319143D

 87 95  0     1  0  0  0  0  0999 V2000
  -28.7362  -11.3649   21.0519 C   0  0  0  0  0  0  0  0  0  0  0  0
  -29.0479  -12.6246   20.5506 C   0  0  0  0  0  0  0  0  0  0  0  0
  -21.8142  -28.4945   20.3160 C   0  0  0  0  0  0  0  0  0  0  0  0
  -23.1412  -27.2233   21.8846 C   0  0  0  0  0  0  0  0  0  0  0  0
  -27.4043  -10.9637   21.1470 C   0  0  0  0  0  0  0  0  0  0  0  0
  -28.0278  -13.4836   20.1430 C   0  0  0  0  0  0  0  0  0  0  0  0
  -27.9409  -19.5878   20.6298 C   0  0  0  0  0  0  0  0  0  0  0  0
  -20.8350  -27.5015   20.3397 C   0  0  0  0  0  0  0  0  0  0  0  0
  -22.1619  -26.2303   21.9084 C   0  0  0  0  0  0  0  0  0  0  0  0
  -28.2224  -20.6054   19.7193 C   0  0  0  0  0  0  0  0  0  0  0  0
  -17.8206  -25.4710   20.2644 C   0  0  0  0  0  0  0  0  0  0  0  0
  -16.4898  -25.8750   20.3709 C   0  0  0  0  0  0  0  0  0  0  0  0
  -25.8716  -20.7941   19.2123 C   0  0  0  0  0  0  0  0  0  0  0  0
  -16.9822  -26.9403   22.4827 C   0  0  0  0  0  0  0  0  0  0  0  0
  -22.9674  -28.3554   21.0884 C   0  0  0  0  0  0  0  0  0  0  0  0
  -24.0684  -30.5077   21.9026 C   0  0  0  0  0  0  0  0  0  0  0  0
  -26.3669  -11.8219   20.7494 C   0  0  0  0  0  0  0  0  0  0  0  0
  -26.6214  -19.1574   20.8306 C   0  0  0  0  0  0  0  0  0  0  0  0
  -26.6809  -13.0930   20.2316 C   0  0  0  0  0  0  0  0  0  0  0  0
  -25.5756  -19.7726   20.1277 C   0  0  0  0  0  0  0  0  0  0  0  0
  -27.6188  -25.5625   19.9690 C   0  0  0  0  0  0  0  0  0  0  0  0
  -28.0162  -24.9920   18.7346 C   0  0  0  0  0  0  0  0  0  0  0  0
  -21.0088  -26.3694   21.1359 C   0  0  0  0  0  0  0  0  0  0  0  0
  -27.1881  -21.2068   19.0083 C   0  0  0  0  0  0  0  0  0  0  0  0
  -18.7322  -25.8016   21.2670 C   0  0  0  0  0  0  0  0  0  0  0  0
  -16.0706  -26.6097   21.4800 C   0  0  0  0  0  0  0  0  0  0  0  0
  -18.3131  -26.5363   22.3762 C   0  0  0  0  0  0  0  0  0  0  0  0
  -23.9796  -29.3805   21.0639 C   0  0  0  0  0  0  0  0  0  0  0  0
  -28.7638  -25.8280   20.6870 C   0  0  0  0  0  0  0  0  0  0  0  0
  -29.3920  -24.9261   18.7360 C   0  0  0  0  0  0  0  0  0  0  0  0
  -25.1987  -31.1629   21.4786 C   0  0  0  0  0  0  0  0  0  0  0  0
  -23.2064  -30.9252   22.9694 C   0  0  0  0  0  0  0  0  0  0  0  0
  -25.0704  -16.4131   20.4225 C   0  0  0  0  0  0  0  0  0  0  0  0
  -22.6423  -18.0230   21.8490 C   0  0  0  0  0  0  0  0  0  0  0  0
  -21.2020  -21.0249   22.5977 C   0  0  0  0  0  0  0  0  0  0  0  0
  -30.1537  -29.3366   18.6566 C   0  0  0  0  0  0  0  0  0  0  0  0
  -24.9447  -11.3260   20.8267 C   0  0  0  0  0  0  0  0  0  0  0  0
  -26.3315  -18.0768   21.8359 C   0  0  0  0  0  0  0  0  0  0  0  0
  -24.1399  -19.3610   20.3219 C   0  0  0  0  0  0  0  0  0  0  0  0
  -23.9051  -12.4390   20.7235 C   0  0  0  0  0  0  0  0  0  0  0  0
  -27.8832  -31.8589   17.5799 C   0  0  0  0  0  0  0  0  0  0  0  0
  -24.2457  -13.3828   19.5745 C   0  0  0  0  0  0  0  0  0  0  0  0
  -26.6333  -31.6114   18.4264 C   0  0  0  0  0  0  0  0  0  0  0  0
  -28.5690  -30.5512   17.1904 C   0  0  0  0  0  0  0  0  0  0  0  0
  -27.6376  -29.4111   19.1669 C   0  0  0  0  0  0  0  0  0  0  0  0
  -25.6012  -14.0626   19.8024 C   0  0  1  0  0  0  0  0  0  0  0  0
  -25.0058  -17.3655   21.5829 C   0  0  1  0  0  0  0  0  0  0  0  0
  -26.9429  -30.7026   19.6311 C   0  0  2  0  0  0  0  0  0  0  0  0
  -26.2327  -25.8265   20.4074 C   0  0  0  0  0  0  0  0  0  0  0  0
  -30.3230  -24.4181   17.7056 C   0  0  0  0  0  0  0  0  0  0  0  0
  -28.1478  -24.3354   23.2624 C   0  0  0  0  0  0  0  0  0  0  0  0
  -19.2023  -22.0196   23.7420 C   0  0  0  0  0  0  0  0  0  0  0  0
  -33.4904  -26.4647   19.7347 C   0  0  0  0  0  0  0  0  0  0  0  0
  -20.8993  -17.2550   19.4653 C   0  0  0  0  0  0  0  0  0  0  0  0
  -19.2714  -19.0194   20.1761 C   0  0  0  0  0  0  0  0  0  0  0  0
  -19.7597  -17.0944   21.6857 C   0  0  0  0  0  0  0  0  0  0  0  0
  -22.8926  -22.4629   24.5555 C   0  0  0  0  0  0  0  0  0  0  0  0
  -27.1027  -24.5362   17.6228 C   0  0  0  0  0  0  0  0  0  0  0  0
  -28.9294  -26.4212   22.0311 C   0  0  0  0  0  0  0  0  0  0  0  0
  -29.2546  -25.3662   23.1065 C   0  0  0  0  0  0  0  0  0  0  0  0
  -31.2240  -25.5443   20.3246 C   0  0  0  0  0  0  0  0  0  0  0  0
  -31.6167  -28.0909   20.2273 C   0  0  0  0  0  0  0  0  0  0  0  0
  -26.4517  -23.1902   17.9222 C   0  0  0  0  0  0  0  0  0  1  0  0
  -21.5073  -18.8932   21.3660 C   0  0  1  0  0  0  0  0  0  0  0  0
  -20.6501  -21.5810   23.8980 C   0  0  2  0  0  0  0  0  0  0  0  0
  -31.9796  -26.7111   19.6529 C   0  0  1  0  0  0  0  0  0  0  0  0
  -20.3866  -18.0722   20.6680 C   0  0  0  0  0  0  0  0  0  0  0  0
  -24.9741  -29.3200   20.1744 N   0  0  0  0  0  0  0  0  0  0  0  0
  -29.8357  -25.4368   19.9278 N   0  0  0  0  0  0  0  0  0  0  0  0
  -25.6985  -30.4175   20.4516 N   0  0  0  0  0  0  0  0  0  0  0  0
  -23.9081  -18.2957   21.3112 N   0  0  0  0  0  0  0  0  0  0  0  0
  -28.8363  -29.7365   18.3781 N   0  0  0  0  0  0  0  0  0  0  0  0
  -25.8038  -32.2982   21.8878 N   0  0  0  0  0  0  0  0  0  0  0  0
  -22.0891  -30.1355   23.2735 N   0  0  0  0  0  0  0  0  0  0  0  0
  -25.4728  -15.1361   20.7645 N   0  0  0  0  0  0  0  0  0  0  0  0
  -21.0558  -19.6558   22.5249 N   0  0  0  0  0  0  0  0  0  0  0  0
  -30.3203  -28.5721   19.8049 N   0  0  0  0  0  0  0  0  0  0  0  0
  -21.4522  -22.7565   24.3404 N   0  3  0  0  0  0  0  0  0  0  0  0
  -23.4114  -31.9763   23.6226 O   0  0  0  0  0  0  0  0  0  0  0  0
  -24.7755  -16.8072   19.3003 O   0  0  0  0  0  0  0  0  0  0  0  0
  -22.4155  -17.1385   22.6785 O   0  0  0  0  0  0  0  0  0  0  0  0
  -21.7085  -21.7346   21.7315 O   0  0  0  0  0  0  0  0  0  0  0  0
  -31.1113  -29.6431   17.9383 O   0  0  0  0  0  0  0  0  0  0  0  0
  -20.0533  -25.4004   21.1595 O   0  0  0  0  0  0  0  0  0  0  0  0
  -27.4602  -22.1999   18.1186 O   0  0  0  0  0  0  0  0  0  1  0  0
  -14.7930  -26.9989   21.5814 F   0  0  0  0  0  0  0  0  0  0  0  0
  -19.1845  -26.8579   23.3421 F   0  0  0  0  0  0  0  0  0  0  0  0
  1  2  1  0  0  0  0
  1  5  2  0  0  0  0
  2  6  2  0  0  0  0
  3  8  2  0  0  0  0
  3 15  1  0  0  0  0
  4  9  1  0  0  0  0
  4 15  2  0  0  0  0
  5 17  1  0  0  0  0
  6 19  1  0  0  0  0
  7 10  2  0  0  0  0
  7 18  1  0  0  0  0
  8 23  1  0  0  0  0
  9 23  2  0  0  0  0
 10 24  1  0  0  0  0
 11 12  2  0  0  0  0
 11 25  1  0  0  0  0
 12 26  1  0  0  0  0
 13 20  1  0  0  0  0
 13 24  2  0  0  0  0
 14 26  2  0  0  0  0
 14 27  1  0  0  0  0
 15 28  1  0  0  0  0
 16 28  1  0  0  0  0
 16 31  2  0  0  0  0
 16 32  1  0  0  0  0
 17 19  2  0  0  0  0
 17 37  1  0  0  0  0
 18 20  2  0  0  0  0
 18 38  1  0  0  0  0
 19 46  1  0  0  0  0
 20 39  1  0  0  0  0
 21 22  1  0  0  0  0
 21 29  2  0  0  0  0
 21 49  1  0  0  0  0
 22 30  2  0  0  0  0
 22 58  1  0  0  0  0
 23 84  1  0  0  0  0
 24 85  1  0  0  0  0
 25 27  2  0  0  0  0
 25 84  1  0  0  0  0
 26 86  1  0  0  0  0
 27 87  1  0  0  0  0
 28 68  2  0  0  0  0
 29 59  1  0  0  0  0
 29 69  1  0  0  0  0
 30 50  1  0  0  0  0
 30 69  1  0  0  0  0
 31 70  1  0  0  0  0
 31 73  1  0  0  0  0
 32 74  1  0  0  0  0
 32 79  2  0  0  0  0
 33 47  1  0  0  0  0
 33 75  1  0  0  0  0
 33 80  2  0  0  0  0
 34 64  1  0  0  0  0
 34 71  1  0  0  0  0
 34 81  2  0  0  0  0
 35 65  1  0  0  0  0
 35 76  1  0  0  0  0
 35 82  2  0  0  0  0
 36 72  1  0  0  0  0
 36 77  1  0  0  0  0
 36 83  2  0  0  0  0
 37 40  1  0  0  0  0
 38 47  1  0  0  0  0
 39 71  1  0  0  0  0
 40 42  1  0  0  0  0
 41 43  1  0  0  0  0
 41 44  1  0  0  0  0
 42 46  1  0  0  0  0
 43 48  1  0  0  0  0
 44 72  1  0  0  0  0
 45 48  1  0  0  0  0
 45 72  1  0  0  0  0
 46 75  1  0  0  0  0
 47 71  1  0  0  0  0
 48 70  1  0  0  0  0
 51 60  1  0  0  0  0
 52 65  1  0  0  0  0
 53 66  1  0  0  0  0
 54 67  1  0  0  0  0
 55 67  1  0  0  0  0
 56 67  1  0  0  0  0
 57 78  1  0  0  0  0
 58 63  1  0  0  0  0
 59 60  1  0  0  0  0
 61 66  1  0  0  0  0
 61 69  1  0  0  0  0
 62 66  1  0  0  0  0
 62 77  1  0  0  0  0
 63 85  1  0  0  0  0
 64 67  1  0  0  0  0
 64 76  1  0  0  0  0
 65 78  1  0  0  0  0
 68 70  1  0  0  0  0
M  CHG  1  78   1
M  ISO  4  36 100  63 101  77 100  85 101
M  END
> <Batch ID>
0092

> <Smiles>
CCCc1c(C)c(C[101CH2:1][101O:1]c2ccc3c(c2)CN(C(=O)C(NC(=O)C(C)NC)C(C)(C)C)C(C(=O)NC2CCCc4ccccc42)C3)c(C)n1CC(C)C[100NH:0][100C:0](=O)N1CCCC(n2nc(-c3ccc(Oc4ccc(F)cc4F)cc3)c(C(N)=O)c2N)C1

> <Shape>
0.223

> <Color>
0.076

> <Negative vol penalty>
0.000

$$$$

  -OEChem-04052319143D

 88 96  0     1  0  0  0  0  0999 V2000
  -30.8407  -30.5798   22.7270 C   0  0  0  0  0  0  0  0  0  0  0  0
  -31.2101  -29.3575   22.1749 C   0  0  0  0  0  0  0  0  0  0  0  0
  -23.0631   -9.8983   19.9325 C   0  0  0  0  0  0  0  0  0  0  0  0
  -23.8387   -9.8750   22.2205 C   0  0  0  0  0  0  0  0  0  0  0  0
  -29.4915  -30.9118   22.8431 C   0  0  0  0  0  0  0  0  0  0  0  0
  -30.2304  -28.4659   21.7394 C   0  0  0  0  0  0  0  0  0  0  0  0
  -30.5781  -24.6654   16.9497 C   0  0  0  0  0  0  0  0  0  0  0  0
  -22.3147   -8.7463   20.1744 C   0  0  0  0  0  0  0  0  0  0  0  0
  -23.0902   -8.7230   22.4625 C   0  0  0  0  0  0  0  0  0  0  0  0
  -30.8802  -23.3080   16.8494 C   0  0  0  0  0  0  0  0  0  0  0  0
  -21.0997   -5.9814   23.7814 C   0  0  0  0  0  0  0  0  0  0  0  0
  -20.3512   -5.9285   24.9572 C   0  0  0  0  0  0  0  0  0  0  0  0
  -28.5244  -22.7892   16.8585 C   0  0  0  0  0  0  0  0  0  0  0  0
  -27.0581  -18.6393   19.6307 C   0  0  0  0  0  0  0  0  0  0  0  0
  -28.4568  -18.8198   22.0377 C   0  0  0  0  0  0  0  0  0  0  0  0
  -19.1122   -7.8806   24.2564 C   0  0  0  0  0  0  0  0  0  0  0  0
  -23.8251  -10.4626   20.9555 C   0  0  0  0  0  0  0  0  0  0  0  0
  -24.1798  -12.9871   20.8619 C   0  0  0  0  0  0  0  0  0  0  0  0
  -28.4950  -30.0279   22.4000 C   0  0  0  0  0  0  0  0  0  0  0  0
  -29.2448  -25.0948   17.0163 C   0  0  0  0  0  0  0  0  0  0  0  0
  -28.8665  -28.7857   21.8509 C   0  0  0  0  0  0  0  0  0  0  0  0
  -28.2079  -24.1527   16.9571 C   0  0  0  0  0  0  0  0  0  0  0  0
  -26.4053  -19.0685   20.7861 C   0  0  0  0  0  0  0  0  0  0  0  0
  -28.4103  -18.3002   19.6787 C   0  0  0  0  0  0  0  0  0  0  0  0
  -27.1046  -19.1588   21.9896 C   0  0  0  0  0  0  0  0  0  0  0  0
  -29.1097  -18.3905   20.8822 C   0  0  0  0  0  0  0  0  0  0  0  0
  -22.3283   -8.1587   21.4394 C   0  0  0  0  0  0  0  0  0  0  0  0
  -29.8534  -22.3695   16.8066 C   0  0  0  0  0  0  0  0  0  0  0  0
  -20.8545   -6.9840   22.8431 C   0  0  0  0  0  0  0  0  0  0  0  0
  -19.3574   -6.8781   25.1947 C   0  0  0  0  0  0  0  0  0  0  0  0
  -19.8607   -7.9336   23.0806 C   0  0  0  0  0  0  0  0  0  0  0  0
  -24.5989  -11.6522   20.7061 C   0  0  0  0  0  0  0  0  0  0  0  0
  -25.2735  -13.7348   20.4997 C   0  0  0  0  0  0  0  0  0  0  0  0
  -22.9150  -13.5048   21.2955 C   0  0  0  0  0  0  0  0  0  0  0  0
  -27.4943  -26.6519   19.1646 C   0  0  0  0  0  0  0  0  0  0  0  0
  -25.2560  -26.5807   16.8178 C   0  0  0  0  0  0  0  0  0  0  0  0
  -24.0606  -25.0733   13.9990 C   0  0  0  0  0  0  0  0  0  0  0  0
  -30.7638  -14.7223   20.6619 C   0  0  0  0  0  0  0  0  0  0  0  0
  -27.0486  -30.4106   22.5896 C   0  0  0  0  0  0  0  0  0  0  0  0
  -28.9350  -26.5644   17.0975 C   0  0  0  0  0  0  0  0  0  0  0  0
  -26.7596  -24.5634   17.0047 C   0  0  0  0  0  0  0  0  0  0  0  0
  -26.0820  -29.5687   21.7606 C   0  0  0  0  0  0  0  0  0  0  0  0
  -29.5971  -12.3714   18.2560 C   0  0  0  0  0  0  0  0  0  0  0  0
  -26.4258  -28.0874   21.8811 C   0  0  0  0  0  0  0  0  0  0  0  0
  -28.1610  -12.0804   18.6954 C   0  0  0  0  0  0  0  0  0  0  0  0
  -30.5236  -12.5736   19.4530 C   0  0  0  0  0  0  0  0  0  0  0  0
  -28.6353  -13.2989   20.8609 C   0  0  0  0  0  0  0  0  0  0  0  0
  -27.8337  -27.8024   21.3444 C   0  0  1  0  0  0  0  0  0  0  0  0
  -27.5534  -26.8527   17.6767 C   0  0  1  0  0  0  0  0  0  0  0  0
  -27.6522  -13.1430   19.6881 C   0  0  2  0  0  0  0  0  0  0  0  0
  -26.1001  -18.4584   24.1775 C   0  0  0  0  0  0  0  0  0  0  0  0
  -23.2621  -21.1541   19.9639 C   0  0  0  0  0  0  0  0  0  0  0  0
  -31.4292  -19.2432   21.3477 C   0  0  0  0  0  0  0  0  0  0  0  0
  -22.1935  -25.2178   12.3286 C   0  0  0  0  0  0  0  0  0  0  0  0
  -23.3454  -25.3437   18.8499 C   0  0  0  0  0  0  0  0  0  0  0  0
  -21.8781  -24.6497   16.9437 C   0  0  0  0  0  0  0  0  0  0  0  0
  -22.3130  -27.0699   17.3636 C   0  0  0  0  0  0  0  0  0  0  0  0
  -25.9420  -25.5417   11.7630 C   0  0  0  0  0  0  0  0  0  0  0  0
  -26.4268  -19.6164   23.2393 C   0  0  0  0  0  0  0  0  0  0  0  0
  -24.9574  -19.4268   20.7103 C   0  0  0  0  0  0  0  0  0  0  0  0
  -29.0945  -17.8380   18.4170 C   0  0  0  0  0  0  0  0  0  0  0  0
  -24.7382  -20.8056   20.0710 C   0  0  0  0  0  0  0  0  0  0  0  0
  -29.9901  -18.9011   17.7772 C   0  0  0  0  0  0  0  0  0  0  0  0
  -30.8498  -16.8582   21.9227 C   0  0  0  0  0  0  0  0  0  0  0  0
  -29.2239  -20.1305   17.3030 C   0  0  0  0  0  0  0  0  0  1  0  0
  -30.5575  -18.0321   20.9581 C   0  0  1  0  0  0  0  0  0  0  0  0
  -24.1586  -25.6251   16.4157 C   0  0  1  0  0  0  0  0  0  0  0  0
  -23.6147  -25.6424   12.6642 C   0  0  2  0  0  0  0  0  0  0  0  0
  -22.9510  -25.6639   17.3943 C   0  0  0  0  0  0  0  0  0  0  0  0
  -25.8603  -11.5544   20.2780 N   0  0  0  0  0  0  0  0  0  0  0  0
  -26.2433  -12.8373   20.1618 N   0  0  0  0  0  0  0  0  0  0  0  0
  -26.5080  -26.0114   17.0904 N   0  0  0  0  0  0  0  0  0  0  0  0
  -29.9846  -13.5948   20.3544 N   0  0  0  0  0  0  0  0  0  0  0  0
  -25.4906  -15.0659   20.4404 N   0  0  0  0  0  0  0  0  0  0  0  0
  -21.9005  -12.5973   21.6293 N   0  0  0  0  0  0  0  0  0  0  0  0
  -27.8271  -27.7751   19.8975 N   0  0  0  0  0  0  0  0  0  0  0  0
  -23.8194  -25.9510   15.0347 N   0  0  0  0  0  0  0  0  0  0  0  0
  -30.1755  -15.6447   21.5186 N   0  0  0  0  0  0  0  0  0  0  0  0
  -24.5154  -25.1726   11.5739 N   0  3  0  0  0  0  0  0  0  0  0  0
  -22.6858  -14.7360   21.3685 O   0  0  0  0  0  0  0  0  0  0  0  0
  -27.1693  -25.5593   19.6143 O   0  0  0  0  0  0  0  0  0  0  0  0
  -25.0132  -27.7885   16.8806 O   0  0  0  0  0  0  0  0  0  0  0  0
  -24.5684  -23.9598   14.1121 O   0  0  0  0  0  0  0  0  0  0  0  0
  -31.8976  -14.8969   20.2025 O   0  0  0  0  0  0  0  0  0  0  0  0
  -21.5979   -7.0348   21.6759 O   0  0  0  0  0  0  0  0  0  0  0  0
  -30.1455  -21.0439   16.7093 O   0  0  0  0  0  0  0  0  0  1  0  0
  -18.6377   -6.8262   26.3232 F   0  0  0  0  0  0  0  0  0  0  0  0
  -19.6198   -8.8984   22.1823 F   0  0  0  0  0  0  0  0  0  0  0  0
  1  2  1  0  0  0  0
  1  5  2  0  0  0  0
  2  6  2  0  0  0  0
  3  8  2  0  0  0  0
  3 17  1  0  0  0  0
  4  9  1  0  0  0  0
  4 17  2  0  0  0  0
  5 19  1  0  0  0  0
  6 21  1  0  0  0  0
  7 10  2  0  0  0  0
  7 20  1  0  0  0  0
  8 27  1  0  0  0  0
  9 27  2  0  0  0  0
 10 28  1  0  0  0  0
 11 12  2  0  0  0  0
 11 29  1  0  0  0  0
 12 30  1  0  0  0  0
 13 22  1  0  0  0  0
 13 28  2  0  0  0  0
 14 23  1  0  0  0  0
 14 24  2  0  0  0  0
 15 25  1  0  0  0  0
 15 26  2  0  0  0  0
 16 30  2  0  0  0  0
 16 31  1  0  0  0  0
 17 32  1  0  0  0  0
 18 32  1  0  0  0  0
 18 33  2  0  0  0  0
 18 34  1  0  0  0  0
 19 21  2  0  0  0  0
 19 39  1  0  0  0  0
 20 22  2  0  0  0  0
 20 40  1  0  0  0  0
 21 48  1  0  0  0  0
 22 41  1  0  0  0  0
 23 25  2  0  0  0  0
 23 60  1  0  0  0  0
 24 26  1  0  0  0  0
 24 61  1  0  0  0  0
 25 59  1  0  0  0  0
 26 66  1  0  0  0  0
 27 85  1  0  0  0  0
 28 86  1  0  0  0  0
 29 31  2  0  0  0  0
 29 85  1  0  0  0  0
 30 87  1  0  0  0  0
 31 88  1  0  0  0  0
 32 70  2  0  0  0  0
 33 71  1  0  0  0  0
 33 74  1  0  0  0  0
 34 75  1  0  0  0  0
 34 80  2  0  0  0  0
 35 49  1  0  0  0  0
 35 76  1  0  0  0  0
 35 81  2  0  0  0  0
 36 67  1  0  0  0  0
 36 72  1  0  0  0  0
 36 82  2  0  0  0  0
 37 68  1  0  0  0  0
 37 77  1  0  0  0  0
 37 83  2  0  0  0  0
 38 73  1  0  0  0  0
 38 78  1  0  0  0  0
 38 84  2  0  0  0  0
 39 42  1  0  0  0  0
 40 49  1  0  0  0  0
 41 72  1  0  0  0  0
 42 44  1  0  0  0  0
 43 45  1  0  0  0  0
 43 46  1  0  0  0  0
 44 48  1  0  0  0  0
 45 50  1  0  0  0  0
 46 73  1  0  0  0  0
 47 50  1  0  0  0  0
 47 73  1  0  0  0  0
 48 76  1  0  0  0  0
 49 72  1  0  0  0  0
 50 71  1  0  0  0  0
 51 59  1  0  0  0  0
 52 62  1  0  0  0  0
 53 66  1  0  0  0  0
 54 68  1  0  0  0  0
 55 69  1  0  0  0  0
 56 69  1  0  0  0  0
 57 69  1  0  0  0  0
 58 79  1  0  0  0  0
 60 62  1  0  0  0  0
 61 63  1  0  0  0  0
 63 65  1  0  0  0  0
 64 66  1  0  0  0  0
 64 78  1  0  0  0  0
 65 86  1  0  0  0  0
 67 69  1  0  0  0  0
 67 77  1  0  0  0  0
 68 79  1  0  0  0  0
 70 71  1  0  0  0  0
M  CHG  1  79   1
M  ISO  4  38 100  65 101  78 100  86 101
M  END
> <Batch ID>
0092

> <Smiles>
CCCc1cc(CC[101CH2:1][101O:1]c2ccc3c(c2)CN(C(=O)C(NC(=O)C(C)NC)C(C)(C)C)C(C(=O)NC2CCCc4ccccc42)C3)c(C(C)C[100NH:0][100C:0](=O)N2CCCC(n3nc(-c4ccc(Oc5ccc(F)cc5F)cc4)c(C(N)=O)c3N)C2)cc1CC

> <Shape>
0.264

> <Color>
0.189

> <Negative vol penalty>
0.000

$$$$

  -OEChem-04052319143D

 83 91  0     1  0  0  0  0  0999 V2000
  -29.2045  -24.1883   21.6083 C   0  0  0  0  0  0  0  0  0  0  0  0
  -28.1001  -23.4861   22.0775 C   0  0  0  0  0  0  0  0  0  0  0  0
  -25.5220  -27.7855   22.2107 C   0  0  0  0  0  0  0  0  0  0  0  0
  -25.1736  -29.0016   20.1524 C   0  0  0  0  0  0  0  0  0  0  0  0
  -29.8029  -23.8163   20.4063 C   0  0  0  0  0  0  0  0  0  0  0  0
  -27.6011  -22.4044   21.3511 C   0  0  0  0  0  0  0  0  0  0  0  0
  -24.0308  -19.7544   23.4567 C   0  0  0  0  0  0  0  0  0  0  0  0
  -26.6922  -27.2354   21.6876 C   0  0  0  0  0  0  0  0  0  0  0  0
  -26.3439  -28.4516   19.6293 C   0  0  0  0  0  0  0  0  0  0  0  0
  -22.7282  -20.2287   23.6061 C   0  0  0  0  0  0  0  0  0  0  0  0
  -27.3223  -25.5208   18.2568 C   0  0  0  0  0  0  0  0  0  0  0  0
  -27.2813  -25.0318   16.9512 C   0  0  0  0  0  0  0  0  0  0  0  0
  -22.0204  -18.8490   21.7582 C   0  0  0  0  0  0  0  0  0  0  0  0
  -29.0061  -26.5977   16.3106 C   0  0  0  0  0  0  0  0  0  0  0  0
  -24.7627  -28.6686   21.4431 C   0  0  0  0  0  0  0  0  0  0  0  0
  -23.4285  -30.4346   22.7114 C   0  0  0  0  0  0  0  0  0  0  0  0
  -29.3028  -22.7372   19.6592 C   0  0  0  0  0  0  0  0  0  0  0  0
  -24.3406  -18.8306   22.4483 C   0  0  0  0  0  0  0  0  0  0  0  0
  -28.2059  -21.9985   20.1477 C   0  0  0  0  0  0  0  0  0  0  0  0
  -23.3271  -18.3627   21.5998 C   0  0  0  0  0  0  0  0  0  0  0  0
  -27.1032  -27.5685   20.3970 C   0  0  0  0  0  0  0  0  0  0  0  0
  -21.7234  -19.7782   22.7549 C   0  0  0  0  0  0  0  0  0  0  0  0
  -28.2051  -26.5483   18.5894 C   0  0  0  0  0  0  0  0  0  0  0  0
  -28.1232  -25.5702   15.9780 C   0  0  0  0  0  0  0  0  0  0  0  0
  -29.0470  -27.0867   17.6163 C   0  0  0  0  0  0  0  0  0  0  0  0
  -23.5534  -29.2367   21.9826 C   0  0  0  0  0  0  0  0  0  0  0  0
  -22.0872  -30.5273   22.9922 C   0  0  0  0  0  0  0  0  0  0  0  0
  -24.4348  -31.3792   23.0997 C   0  0  0  0  0  0  0  0  0  0  0  0
  -26.2472  -18.8413   19.9050 C   0  0  0  0  0  0  0  0  0  0  0  0
  -25.3555  -15.7287   19.7086 C   0  0  0  0  0  0  0  0  0  0  0  0
  -23.0537  -13.3218   20.4539 C   0  0  0  0  0  0  0  0  0  0  0  0
  -18.3288  -25.7625   23.3438 C   0  0  0  0  0  0  0  0  0  0  0  0
  -29.9938  -22.3726   18.3689 C   0  0  0  0  0  0  0  0  0  0  0  0
  -25.7451  -18.3085   22.3175 C   0  0  0  0  0  0  0  0  0  0  0  0
  -23.6037  -17.3558   20.5143 C   0  0  0  0  0  0  0  0  0  0  0  0
  -29.1315  -21.5060   17.4569 C   0  0  0  0  0  0  0  0  0  0  0  0
  -17.9119  -28.7194   21.1307 C   0  0  0  0  0  0  0  0  0  0  0  0
  -16.8454  -23.9848   20.5986 C   0  0  0  0  0  0  0  0  0  0  0  0
  -28.5536  -20.3388   18.2431 C   0  0  0  0  0  0  0  0  0  0  0  0
  -19.4229  -28.9673   21.0557 C   0  0  0  0  0  0  0  0  0  0  0  0
  -16.2501  -22.7730   21.3105 C   0  0  0  0  0  0  0  0  0  0  0  0
  -17.4917  -27.9494   22.3821 C   0  0  0  0  0  0  0  0  0  0  0  0
  -16.7424  -25.2574   21.4343 C   0  0  0  0  0  0  0  0  0  0  0  0
  -19.8137  -27.7226   23.2219 C   0  0  0  0  0  0  0  0  0  0  0  0
  -27.6271  -20.8376   19.3593 C   0  0  1  0  0  0  0  0  0  0  0  0
  -26.0510  -17.7583   20.9278 C   0  0  1  0  0  0  0  0  0  0  0  0
  -20.0447  -29.0414   22.4592 C   0  0  1  0  0  0  0  0  0  0  0  0
  -16.6724  -23.9120   23.5508 C   0  0  2  0  0  0  0  0  0  0  0  0
  -16.8080  -22.5852   22.7404 C   0  0  1  0  0  0  0  0  0  0  0  0
  -16.0485  -21.4268   23.4173 C   0  0  0  0  0  0  0  0  0  0  0  0
  -22.5817  -10.8789   20.1271 C   0  0  0  0  0  0  0  0  0  0  0  0
  -14.8497  -23.4314   25.2032 C   0  0  0  0  0  0  0  0  0  0  0  0
  -15.1287  -25.7483   24.2770 C   0  0  0  0  0  0  0  0  0  0  0  0
  -24.5345  -16.2760   16.8213 C   0  0  0  0  0  0  0  0  0  0  0  0
  -23.2309  -14.1389   16.8602 C   0  0  0  0  0  0  0  0  0  0  0  0
  -25.7048  -14.0948   17.1775 C   0  0  0  0  0  0  0  0  0  0  0  0
  -23.0802  -12.8081   23.3684 C   0  0  0  0  0  0  0  0  0  0  0  0
  -18.2980  -22.1746   22.6754 C   0  0  0  0  0  0  0  0  0  0  0  0
  -18.7390  -21.5558   23.9881 C   0  0  0  0  0  0  0  0  0  0  0  0
  -20.2152  -21.1842   23.9399 C   0  0  0  0  0  0  0  0  0  1  0  0
  -24.2327  -14.9789   19.0331 C   0  0  1  0  0  0  0  0  0  0  0  0
  -23.2062  -11.9275   21.0344 C   0  0  2  0  0  0  0  0  0  0  0  0
  -15.2410  -24.2583   23.9863 C   0  0  0  0  0  0  0  0  0  0  0  0
  -24.4206  -14.8926   17.4921 C   0  0  0  0  0  0  0  0  0  0  0  0
  -22.3848  -28.6130   21.8113 N   0  0  0  0  0  0  0  0  0  0  0  0
  -21.5127  -29.4222   22.4365 N   0  0  0  0  0  0  0  0  0  0  0  0
  -24.9939  -16.8801   20.4223 N   0  0  0  0  0  0  0  0  0  0  0  0
  -18.5545  -27.0627   22.8637 N   0  0  0  0  0  0  0  0  0  0  0  0
  -17.2414  -25.0570   22.8029 N   0  0  0  0  0  0  0  0  0  0  0  0
  -21.3550  -31.4456   23.6579 N   0  0  0  0  0  0  0  0  0  0  0  0
  -25.7633  -31.1304   22.7287 N   0  0  0  0  0  0  0  0  0  0  0  0
  -27.2674  -19.7228   20.2077 N   0  0  0  0  0  0  0  0  0  0  0  0
  -24.1491  -13.6831   19.6984 N   0  0  0  0  0  0  0  0  0  0  0  0
  -22.5473  -11.8470   22.3687 N   0  3  0  0  0  0  0  0  0  0  0  0
  -24.1664  -32.4047   23.7702 O   0  0  0  0  0  0  0  0  0  0  0  0
  -25.5273  -18.8740   18.9139 O   0  0  0  0  0  0  0  0  0  0  0  0
  -26.5098  -15.3044   19.6125 O   0  0  0  0  0  0  0  0  0  0  0  0
  -22.0604  -14.0192   20.6479 O   0  0  0  0  0  0  0  0  0  0  0  0
  -19.0636  -25.2626   24.2055 O   0  0  0  0  0  0  0  0  0  0  0  0
  -28.2452  -27.0321   19.8863 O   0  0  0  0  0  0  0  0  0  0  0  0
  -20.4422  -20.2434   22.8991 O   0  0  0  0  0  0  0  0  0  1  0  0
  -28.0848  -25.0995   14.7246 F   0  0  0  0  0  0  0  0  0  0  0  0
  -29.8981  -28.0732   17.9301 F   0  0  0  0  0  0  0  0  0  0  0  0
  1  2  1  0  0  0  0
  1  5  2  0  0  0  0
  2  6  2  0  0  0  0
  3  8  2  0  0  0  0
  3 15  1  0  0  0  0
  4  9  1  0  0  0  0
  4 15  2  0  0  0  0
  5 17  1  0  0  0  0
  6 19  1  0  0  0  0
  7 10  2  0  0  0  0
  7 18  1  0  0  0  0
  8 21  1  0  0  0  0
  9 21  2  0  0  0  0
 10 22  1  0  0  0  0
 11 12  2  0  0  0  0
 11 23  1  0  0  0  0
 12 24  1  0  0  0  0
 13 20  1  0  0  0  0
 13 22  2  0  0  0  0
 14 24  2  0  0  0  0
 14 25  1  0  0  0  0
 15 26  1  0  0  0  0
 16 26  1  0  0  0  0
 16 27  2  0  0  0  0
 16 28  1  0  0  0  0
 17 19  2  0  0  0  0
 17 33  1  0  0  0  0
 18 20  2  0  0  0  0
 18 34  1  0  0  0  0
 19 45  1  0  0  0  0
 20 35  1  0  0  0  0
 21 80  1  0  0  0  0
 22 81  1  0  0  0  0
 23 25  2  0  0  0  0
 23 80  1  0  0  0  0
 24 82  1  0  0  0  0
 25 83  1  0  0  0  0
 26 65  2  0  0  0  0
 27 66  1  0  0  0  0
 27 70  1  0  0  0  0
 28 71  1  0  0  0  0
 28 75  2  0  0  0  0
 29 46  1  0  0  0  0
 29 72  1  0  0  0  0
 29 76  2  0  0  0  0
 30 61  1  0  0  0  0
 30 67  1  0  0  0  0
 30 77  2  0  0  0  0
 31 62  1  0  0  0  0
 31 73  1  0  0  0  0
 31 78  2  0  0  0  0
 32 68  1  0  0  0  0
 32 69  1  0  0  0  0
 32 79  2  0  0  0  0
 33 36  1  0  0  0  0
 34 46  1  0  0  0  0
 35 67  1  0  0  0  0
 36 39  1  0  0  0  0
 37 40  1  0  0  0  0
 37 42  1  0  0  0  0
 38 41  1  0  0  0  0
 38 43  1  0  0  0  0
 39 45  1  0  0  0  0
 40 47  1  0  0  0  0
 41 49  1  0  0  0  0
 42 68  1  0  0  0  0
 43 69  1  0  0  0  0
 44 47  1  0  0  0  0
 44 68  1  0  0  0  0
 45 72  1  0  0  0  0
 46 67  1  0  0  0  0
 47 66  1  0  0  0  0
 48 49  1  0  0  0  0
 48 63  1  0  0  0  0
 48 69  1  0  0  0  0
 49 50  1  0  0  0  0
 49 58  1  0  0  0  0
 51 62  1  0  0  0  0
 52 63  1  0  0  0  0
 53 63  1  0  0  0  0
 54 64  1  0  0  0  0
 55 64  1  0  0  0  0
 56 64  1  0  0  0  0
 57 74  1  0  0  0  0
 58 59  1  0  0  0  0
 59 60  1  0  0  0  0
 60 81  1  0  0  0  0
 61 64  1  0  0  0  0
 61 73  1  0  0  0  0
 62 74  1  0  0  0  0
 65 66  1  0  0  0  0
M  CHG  1  74   1
M  ISO  4  32 100  60 101  69 100  81 101
M  END
> <Batch ID>
0092

> <Smiles>
CNC(C)C(=O)NC(C(=O)N1Cc2cc([101O:1][101CH2:1]CCC3(C)CCC[100N:0]([100C:0](=O)N4CCCC(n5nc(-c6ccc(Oc7ccc(F)cc7F)cc6)c(C(N)=O)c5N)C4)C3C(C)C)ccc2CC1C(=O)NC1CCCc2ccccc21)C(C)(C)C

> <Shape>
0.199

> <Color>
0.073

> <Negative vol penalty>
0.000

$$$$

  -OEChem-04052319143D

 88 96  0     1  0  0  0  0  0999 V2000
  -16.6664  -29.9228   24.1541 C   0  0  0  0  0  0  0  0  0  0  0  0
  -17.8261  -30.4324   24.7291 C   0  0  0  0  0  0  0  0  0  0  0  0
  -27.3951  -21.5708   16.4958 C   0  0  0  0  0  0  0  0  0  0  0  0
  -26.3058  -23.2118   17.8950 C   0  0  0  0  0  0  0  0  0  0  0  0
  -16.7478  -28.8882   23.2230 C   0  0  0  0  0  0  0  0  0  0  0  0
  -19.0680  -29.9070   24.3741 C   0  0  0  0  0  0  0  0  0  0  0  0
  -25.9072  -31.8490   23.4958 C   0  0  0  0  0  0  0  0  0  0  0  0
  -32.4602  -30.3643   24.6798 C   0  0  0  0  0  0  0  0  0  0  0  0
  -33.6573  -30.3922   23.9644 C   0  0  0  0  0  0  0  0  0  0  0  0
  -26.1501  -21.0898   16.0906 C   0  0  0  0  0  0  0  0  0  0  0  0
  -25.0608  -22.7308   17.4898 C   0  0  0  0  0  0  0  0  0  0  0  0
  -27.1909  -31.4828   23.8978 C   0  0  0  0  0  0  0  0  0  0  0  0
  -23.2579  -19.6662   14.4103 C   0  0  0  0  0  0  0  0  0  0  0  0
  -23.0712  -19.4137   13.0512 C   0  0  0  0  0  0  0  0  0  0  0  0
  -27.2157  -29.7503   22.2194 C   0  0  0  0  0  0  0  0  0  0  0  0
  -23.5327  -21.7332   12.5570 C   0  0  0  0  0  0  0  0  0  0  0  0
  -27.4730  -22.6317   17.3981 C   0  0  0  0  0  0  0  0  0  0  0  0
  -29.5152  -24.1489   17.2101 C   0  0  0  0  0  0  0  0  0  0  0  0
  -17.9921  -28.3563   22.8492 C   0  0  0  0  0  0  0  0  0  0  0  0
  -25.2626  -31.1604   22.4581 C   0  0  0  0  0  0  0  0  0  0  0  0
  -19.1661  -28.8634   23.4382 C   0  0  0  0  0  0  0  0  0  0  0  0
  -25.9248  -30.1114   21.8044 C   0  0  0  0  0  0  0  0  0  0  0  0
  -31.6906  -29.2012   24.7065 C   0  0  0  0  0  0  0  0  0  0  0  0
  -34.0848  -29.2571   23.2756 C   0  0  0  0  0  0  0  0  0  0  0  0
  -32.1181  -28.0661   24.0177 C   0  0  0  0  0  0  0  0  0  0  0  0
  -33.3152  -28.0940   23.3023 C   0  0  0  0  0  0  0  0  0  0  0  0
  -24.9829  -21.6698   16.5876 C   0  0  0  0  0  0  0  0  0  0  0  0
  -27.8443  -30.4314   23.2615 C   0  0  0  0  0  0  0  0  0  0  0  0
  -23.5820  -20.9521   14.8427 C   0  0  0  0  0  0  0  0  0  0  0  0
  -23.2086  -20.4472   12.1246 C   0  0  0  0  0  0  0  0  0  0  0  0
  -23.7195  -21.9856   13.9161 C   0  0  0  0  0  0  0  0  0  0  0  0
  -28.7588  -23.1287   17.8174 C   0  0  0  0  0  0  0  0  0  0  0  0
  -30.6472  -24.2430   17.9823 C   0  0  0  0  0  0  0  0  0  0  0  0
  -29.2209  -24.9407   16.0516 C   0  0  0  0  0  0  0  0  0  0  0  0
  -22.6123  -29.4208   22.2274 C   0  0  0  0  0  0  0  0  0  0  0  0
  -23.3399  -29.4410   19.0663 C   0  0  0  0  0  0  0  0  0  0  0  0
  -25.7223  -29.7599   16.6437 C   0  0  0  0  0  0  0  0  0  0  0  0
  -31.8131  -22.8716   23.6929 C   0  0  0  0  0  0  0  0  0  0  0  0
  -18.0266  -27.2064   21.8739 C   0  0  0  0  0  0  0  0  0  0  0  0
  -23.8883  -31.5851   22.0185 C   0  0  0  0  0  0  0  0  0  0  0  0
  -25.2845  -29.3533   20.6714 C   0  0  0  0  0  0  0  0  0  0  0  0
  -19.4076  -26.9591   21.2724 C   0  0  0  0  0  0  0  0  0  0  0  0
  -33.4817  -21.6207   20.8072 C   0  0  0  0  0  0  0  0  0  0  0  0
  -20.4747  -26.9724   22.3623 C   0  0  0  0  0  0  0  0  0  0  0  0
  -32.5288  -21.9574   19.6589 C   0  0  0  0  0  0  0  0  0  0  0  0
  -32.7234  -21.2320   22.0744 C   0  0  0  0  0  0  0  0  0  0  0  0
  -30.7635  -22.5503   21.3709 C   0  0  0  0  0  0  0  0  0  0  0  0
  -20.5335  -28.3365   23.0603 C   0  0  1  0  0  0  0  0  0  0  0  0
  -23.1249  -30.4807   21.2939 C   0  0  1  0  0  0  0  0  0  0  0  0
  -31.4812  -23.0024   20.0877 C   0  0  2  0  0  0  0  0  0  0  0  0
  -36.5527  -29.6799   23.4068 C   0  0  0  0  0  0  0  0  0  0  0  0
  -35.1148  -26.3414   23.0938 C   0  0  0  0  0  0  0  0  0  0  0  0
  -33.8688  -27.1185   21.0448 C   0  0  0  0  0  0  0  0  0  0  0  0
  -26.0207  -29.6903   14.1530 C   0  0  0  0  0  0  0  0  0  0  0  0
  -31.5073  -26.5756   26.5558 C   0  0  0  0  0  0  0  0  0  0  0  0
  -23.1504  -26.3964   19.1312 C   0  0  0  0  0  0  0  0  0  0  0  0
  -24.3593  -26.3440   16.9393 C   0  0  0  0  0  0  0  0  0  0  0  0
  -22.1357  -27.4619   17.1089 C   0  0  0  0  0  0  0  0  0  0  0  0
  -26.6696  -32.5626   16.5624 C   0  0  0  0  0  0  0  0  0  0  0  0
  -35.3697  -29.3144   22.5156 C   0  0  0  0  0  0  0  0  0  0  0  0
  -30.3997  -29.1979   25.4887 C   0  0  0  0  0  0  0  0  0  0  0  0
  -31.2915  -26.8198   24.0492 C   0  0  0  0  0  0  0  0  0  0  0  0
  -30.7971  -24.5630   25.1982 C   0  0  0  0  0  0  0  0  0  0  0  0
  -29.4363  -30.2838   25.0221 C   0  0  0  0  0  0  0  0  0  1  0  0
  -33.7745  -26.8780   22.5617 C   0  0  0  0  0  0  0  0  0  0  0  0
  -24.1589  -28.5621   18.1522 C   0  0  1  0  0  0  0  0  0  0  0  0
  -25.7532  -30.5730   15.3621 C   0  0  2  0  0  0  0  0  0  0  0  0
  -31.6348  -25.8527   25.2098 C   0  0  2  0  0  0  0  0  0  0  0  0
  -23.4627  -27.2039   17.8555 C   0  0  0  0  0  0  0  0  0  0  0  0
  -29.3596  -22.6116   18.8924 N   0  0  0  0  0  0  0  0  0  0  0  0
  -30.5056  -23.3096   18.9666 N   0  0  0  0  0  0  0  0  0  0  0  0
  -23.9374  -29.8021   20.2822 N   0  0  0  0  0  0  0  0  0  0  0  0
  -31.7471  -22.2655   22.4275 N   0  0  0  0  0  0  0  0  0  0  0  0
  -31.7399  -25.0323   17.9085 N   0  0  0  0  0  0  0  0  0  0  0  0
  -28.0138  -24.7140   15.3765 N   0  0  0  0  0  0  0  0  0  0  0  0
  -21.2361  -29.2962   22.2359 N   0  0  0  0  0  0  0  0  0  0  0  0
  -24.4421  -29.3604   16.9643 N   0  0  0  0  0  0  0  0  0  0  0  0
  -30.8544  -23.8456   23.9441 N   0  0  0  0  0  0  0  0  0  0  0  0
  -26.8211  -31.6102   15.4324 N   0  3  0  0  0  0  0  0  0  0  0  0
  -30.0126  -25.8118   15.6181 O   0  0  0  0  0  0  0  0  0  0  0  0
  -23.4067  -28.7635   22.8898 O   0  0  0  0  0  0  0  0  0  0  0  0
  -22.2143  -29.8000   18.7114 O   0  0  0  0  0  0  0  0  0  0  0  0
  -26.7332  -29.5016   17.2932 O   0  0  0  0  0  0  0  0  0  0  0  0
  -32.6667  -22.5711   24.5344 O   0  0  0  0  0  0  0  0  0  0  0  0
  -23.7679  -21.2009   16.1922 O   0  0  0  0  0  0  0  0  0  0  0  0
  -29.0971  -30.0715   23.6524 O   0  0  0  0  0  0  0  0  0  1  0  0
  -23.0308  -20.2044   10.8194 F   0  0  0  0  0  0  0  0  0  0  0  0
  -24.0319  -23.2228   14.3254 F   0  0  0  0  0  0  0  0  0  0  0  0
  1  2  1  0  0  0  0
  1  5  2  0  0  0  0
  2  6  2  0  0  0  0
  3 10  2  0  0  0  0
  3 17  1  0  0  0  0
  4 11  1  0  0  0  0
  4 17  2  0  0  0  0
  5 19  1  0  0  0  0
  6 21  1  0  0  0  0
  7 12  2  0  0  0  0
  7 20  1  0  0  0  0
  8  9  2  0  0  0  0
  8 23  1  0  0  0  0
  9 24  1  0  0  0  0
 10 27  1  0  0  0  0
 11 27  2  0  0  0  0
 12 28  1  0  0  0  0
 13 14  2  0  0  0  0
 13 29  1  0  0  0  0
 14 30  1  0  0  0  0
 15 22  1  0  0  0  0
 15 28  2  0  0  0  0
 16 30  2  0  0  0  0
 16 31  1  0  0  0  0
 17 32  1  0  0  0  0
 18 32  1  0  0  0  0
 18 33  2  0  0  0  0
 18 34  1  0  0  0  0
 19 21  2  0  0  0  0
 19 39  1  0  0  0  0
 20 22  2  0  0  0  0
 20 40  1  0  0  0  0
 21 48  1  0  0  0  0
 22 41  1  0  0  0  0
 23 25  2  0  0  0  0
 23 61  1  0  0  0  0
 24 26  2  0  0  0  0
 24 60  1  0  0  0  0
 25 26  1  0  0  0  0
 25 62  1  0  0  0  0
 26 65  1  0  0  0  0
 27 85  1  0  0  0  0
 28 86  1  0  0  0  0
 29 31  2  0  0  0  0
 29 85  1  0  0  0  0
 30 87  1  0  0  0  0
 31 88  1  0  0  0  0
 32 70  2  0  0  0  0
 33 71  1  0  0  0  0
 33 74  1  0  0  0  0
 34 75  1  0  0  0  0
 34 80  2  0  0  0  0
 35 49  1  0  0  0  0
 35 76  1  0  0  0  0
 35 81  2  0  0  0  0
 36 66  1  0  0  0  0
 36 72  1  0  0  0  0
 36 82  2  0  0  0  0
 37 67  1  0  0  0  0
 37 77  1  0  0  0  0
 37 83  2  0  0  0  0
 38 73  1  0  0  0  0
 38 78  1  0  0  0  0
 38 84  2  0  0  0  0
 39 42  1  0  0  0  0
 40 49  1  0  0  0  0
 41 72  1  0  0  0  0
 42 44  1  0  0  0  0
 43 45  1  0  0  0  0
 43 46  1  0  0  0  0
 44 48  1  0  0  0  0
 45 50  1  0  0  0  0
 46 73  1  0  0  0  0
 47 50  1  0  0  0  0
 47 73  1  0  0  0  0
 48 76  1  0  0  0  0
 49 72  1  0  0  0  0
 50 71  1  0  0  0  0
 51 60  1  0  0  0  0
 52 65  1  0  0  0  0
 53 65  1  0  0  0  0
 54 67  1  0  0  0  0
 55 68  1  0  0  0  0
 56 69  1  0  0  0  0
 57 69  1  0  0  0  0
 58 69  1  0  0  0  0
 59 79  1  0  0  0  0
 61 64  1  0  0  0  0
 62 68  1  0  0  0  0
 63 68  1  0  0  0  0
 63 78  1  0  0  0  0
 64 86  1  0  0  0  0
 66 69  1  0  0  0  0
 66 77  1  0  0  0  0
 67 79  1  0  0  0  0
 70 71  1  0  0  0  0
M  CHG  1  79   1
M  ISO  4  38 100  64 101  78 100  86 101
M  END
> <Batch ID>
0092

> <Smiles>
CCc1ccc(C[101CH2:1][101O:1]c2ccc3c(c2)CN(C(=O)C(NC(=O)C(C)NC)C(C)(C)C)C(C(=O)NC2CCCc4ccccc42)C3)c(CC(C)C[100NH:0][100C:0](=O)N2CCCC(n3nc(-c4ccc(Oc5ccc(F)cc5F)cc4)c(C(N)=O)c3N)C2)c1C(C)C

> <Shape>
0.177

> <Color>
0.100

> <Negative vol penalty>
0.000

$$$$

  -OEChem-04052319143D

 87 95  0     1  0  0  0  0  0999 V2000
  -17.8537  -24.8879   20.9931 C   0  0  0  0  0  0  0  0  0  0  0  0
  -19.2372  -25.0122   20.9169 C   0  0  0  0  0  0  0  0  0  0  0  0
  -23.0712   -9.8730   19.9422 C   0  0  0  0  0  0  0  0  0  0  0  0
  -23.8353   -9.8777   22.2341 C   0  0  0  0  0  0  0  0  0  0  0  0
  -17.2335  -23.7241   20.5404 C   0  0  0  0  0  0  0  0  0  0  0  0
  -20.0015  -23.9722   20.3891 C   0  0  0  0  0  0  0  0  0  0  0  0
  -25.9840  -22.7914   16.6298 C   0  0  0  0  0  0  0  0  0  0  0  0
  -22.3273   -8.7200   20.1925 C   0  0  0  0  0  0  0  0  0  0  0  0
  -23.0913   -8.7246   22.4845 C   0  0  0  0  0  0  0  0  0  0  0  0
  -27.1621  -22.0480   16.6858 C   0  0  0  0  0  0  0  0  0  0  0  0
  -19.3814   -7.9233   21.6485 C   0  0  0  0  0  0  0  0  0  0  0  0
  -18.0736   -7.8780   21.1656 C   0  0  0  0  0  0  0  0  0  0  0  0
  -25.9753  -20.1163   15.8615 C   0  0  0  0  0  0  0  0  0  0  0  0
  -18.6301   -5.9359   19.8406 C   0  0  0  0  0  0  0  0  0  0  0  0
  -27.1109  -18.6679   19.6013 C   0  0  0  0  0  0  0  0  0  0  0  0
  -23.8252  -10.4519   20.9630 C   0  0  0  0  0  0  0  0  0  0  0  0
  -24.1679  -12.9770   20.8445 C   0  0  0  0  0  0  0  0  0  0  0  0
  -17.9897  -22.6732   19.9979 C   0  0  0  0  0  0  0  0  0  0  0  0
  -24.7883  -22.1989   16.1989 C   0  0  0  0  0  0  0  0  0  0  0  0
  -19.3910  -22.7927   19.9300 C   0  0  0  0  0  0  0  0  0  0  0  0
  -24.7839  -20.8551   15.7986 C   0  0  0  0  0  0  0  0  0  0  0  0
  -28.4535  -18.3490   19.5950 C   0  0  0  0  0  0  0  0  0  0  0  0
  -22.3373   -8.1458   21.4636 C   0  0  0  0  0  0  0  0  0  0  0  0
  -27.1573  -20.7095   16.3043 C   0  0  0  0  0  0  0  0  0  0  0  0
  -20.3136   -6.9749   21.2274 C   0  0  0  0  0  0  0  0  0  0  0  0
  -17.6979   -6.8843   20.2617 C   0  0  0  0  0  0  0  0  0  0  0  0
  -19.9379   -5.9812   20.3235 C   0  0  0  0  0  0  0  0  0  0  0  0
  -24.5943  -11.6427   20.7049 C   0  0  0  0  0  0  0  0  0  0  0  0
  -29.0825  -18.3896   20.8226 C   0  0  0  0  0  0  0  0  0  0  0  0
  -25.2596  -13.7264   20.4799 C   0  0  0  0  0  0  0  0  0  0  0  0
  -27.1501  -19.0055   21.8489 C   0  0  0  0  0  0  0  0  0  0  0  0
  -22.8984  -13.4930   21.2663 C   0  0  0  0  0  0  0  0  0  0  0  0
  -21.9523  -21.6488   17.5250 C   0  0  0  0  0  0  0  0  0  0  0  0
  -21.1798  -20.6623   14.5329 C   0  0  0  0  0  0  0  0  0  0  0  0
  -22.2302  -19.4531   11.5194 C   0  0  0  0  0  0  0  0  0  0  0  0
  -30.7442  -14.7430   20.6591 C   0  0  0  0  0  0  0  0  0  0  0  0
  -17.2789  -21.4154   19.5651 C   0  0  0  0  0  0  0  0  0  0  0  0
  -23.5317  -23.0217   16.1189 C   0  0  0  0  0  0  0  0  0  0  0  0
  -23.5309  -20.1775   15.3092 C   0  0  0  0  0  0  0  0  0  0  0  0
  -18.1276  -20.5119   18.6743 C   0  0  0  0  0  0  0  0  0  0  0  0
  -29.6012  -12.3610   18.2723 C   0  0  0  0  0  0  0  0  0  0  0  0
  -19.5269  -20.3479   19.2590 C   0  0  0  0  0  0  0  0  0  0  0  0
  -28.1644  -12.0675   18.7076 C   0  0  0  0  0  0  0  0  0  0  0  0
  -30.5206  -12.5804   19.4717 C   0  0  0  0  0  0  0  0  0  0  0  0
  -28.6217  -13.3111   20.8624 C   0  0  0  0  0  0  0  0  0  0  0  0
  -20.2521  -21.6965   19.3410 C   0  0  1  0  0  0  0  0  0  0  0  0
  -22.2615  -22.1773   16.1528 C   0  0  1  0  0  0  0  0  0  0  0  0
  -27.6453  -13.1379   19.6865 C   0  0  2  0  0  0  0  0  0  0  0  0
  -25.2855  -22.7579   24.6356 C   0  0  0  0  0  0  0  0  0  0  0  0
  -21.3635  -18.7086    9.2852 C   0  0  0  0  0  0  0  0  0  0  0  0
  -20.2300  -18.0430   15.7769 C   0  0  0  0  0  0  0  0  0  0  0  0
  -20.2793  -17.0208   13.4920 C   0  0  0  0  0  0  0  0  0  0  0  0
  -18.7519  -18.9349   13.9675 C   0  0  0  0  0  0  0  0  0  0  0  0
  -23.7561  -21.5531   10.0978 C   0  0  0  0  0  0  0  0  0  0  0  0
  -29.1632  -17.9838   18.3157 C   0  0  0  0  0  0  0  0  0  0  0  0
  -26.4262  -19.3694   23.1009 C   0  0  0  0  0  0  0  0  0  0  0  0
  -25.4811  -21.2550   24.5155 C   0  0  0  0  0  0  0  0  0  0  0  0
  -30.0449  -19.1039   17.7592 C   0  0  0  0  0  0  0  0  0  0  0  0
  -26.1880  -20.8842   23.2118 C   0  0  0  0  0  0  0  0  0  0  0  0
  -30.8132  -16.8924   21.8977 C   0  0  0  0  0  0  0  0  0  0  0  0
  -29.2595  -20.3463   17.3553 C   0  0  0  0  0  0  0  0  0  1  0  0
  -30.5350  -18.0630   20.9373 C   0  0  2  0  0  0  0  0  0  0  0  0
  -21.2398  -19.3486   13.7915 C   0  0  1  0  0  0  0  0  0  0  0  0
  -21.9070  -19.8739   10.0971 C   0  0  2  0  0  0  0  0  0  0  0  0
  -20.1486  -18.3488   14.2680 C   0  0  0  0  0  0  0  0  0  0  0  0
  -26.4251  -19.0021   20.7141 N   0  0  0  0  0  0  0  0  0  0  0  0
  -25.8584  -11.5467   20.2842 N   0  0  0  0  0  0  0  0  0  0  0  0
  -28.4592  -18.7151   21.9740 N   0  0  0  0  0  0  0  0  0  0  0  0
  -26.2355  -12.8302   20.1563 N   0  0  0  0  0  0  0  0  0  0  0  0
  -22.3264  -21.0223   15.2550 N   0  0  0  0  0  0  0  0  0  0  0  0
  -29.9721  -13.6084   20.3596 N   0  0  0  0  0  0  0  0  0  0  0  0
  -25.4705  -15.0578   20.4077 N   0  0  0  0  0  0  0  0  0  0  0  0
  -21.8867  -12.5839   21.6046 N   0  0  0  0  0  0  0  0  0  0  0  0
  -20.7453  -22.0852   18.0371 N   0  0  0  0  0  0  0  0  0  0  0  0
  -21.1700  -19.6775   12.3719 N   0  0  0  0  0  0  0  0  0  0  0  0
  -30.1469  -15.6713   21.5030 N   0  0  0  0  0  0  0  0  0  0  0  0
  -31.3657  -19.2355   21.3851 N   0  3  0  0  0  0  0  0  0  0  0  0
  -23.1297  -20.3896    9.4189 N   0  3  0  0  0  0  0  0  0  0  0  0
  -22.6627  -14.7236   21.3251 O   0  0  0  0  0  0  0  0  0  0  0  0
  -22.7490  -20.8994   18.0775 O   0  0  0  0  0  0  0  0  0  0  0  0
  -20.1560  -21.3472   14.4678 O   0  0  0  0  0  0  0  0  0  0  0  0
  -23.3136  -18.9699   11.8412 O   0  0  0  0  0  0  0  0  0  0  0  0
  -31.8793  -14.9184   20.2035 O   0  0  0  0  0  0  0  0  0  0  0  0
  -21.6114   -7.0208   21.7083 O   0  0  0  0  0  0  0  0  0  0  0  0
  -28.3057  -19.9814   16.3586 O   0  0  0  0  0  0  0  0  0  1  0  0
  -16.4416   -6.8400   19.7992 F   0  0  0  0  0  0  0  0  0  0  0  0
  -20.8287   -5.0667   19.9162 F   0  0  0  0  0  0  0  0  0  0  0  0
  1  2  1  0  0  0  0
  1  5  2  0  0  0  0
  2  6  2  0  0  0  0
  3  8  2  0  0  0  0
  3 16  1  0  0  0  0
  4  9  1  0  0  0  0
  4 16  2  0  0  0  0
  5 18  1  0  0  0  0
  6 20  1  0  0  0  0
  7 10  2  0  0  0  0
  7 19  1  0  0  0  0
  8 23  1  0  0  0  0
  9 23  2  0  0  0  0
 10 24  1  0  0  0  0
 11 12  2  0  0  0  0
 11 25  1  0  0  0  0
 12 26  1  0  0  0  0
 13 21  1  0  0  0  0
 13 24  2  0  0  0  0
 14 26  2  0  0  0  0
 14 27  1  0  0  0  0
 15 22  1  0  0  0  0
 15 66  2  0  0  0  0
 16 28  1  0  0  0  0
 17 28  1  0  0  0  0
 17 30  2  0  0  0  0
 17 32  1  0  0  0  0
 18 20  2  0  0  0  0
 18 37  1  0  0  0  0
 19 21  2  0  0  0  0
 19 38  1  0  0  0  0
 20 46  1  0  0  0  0
 21 39  1  0  0  0  0
 22 29  2  0  0  0  0
 22 55  1  0  0  0  0
 23 84  1  0  0  0  0
 24 85  1  0  0  0  0
 25 27  2  0  0  0  0
 25 84  1  0  0  0  0
 26 86  1  0  0  0  0
 27 87  1  0  0  0  0
 28 67  2  0  0  0  0
 29 62  1  0  0  0  0
 29 68  1  0  0  0  0
 30 69  1  0  0  0  0
 30 72  1  0  0  0  0
 31 56  1  0  0  0  0
 31 66  1  0  0  0  0
 31 68  2  0  0  0  0
 32 73  1  0  0  0  0
 32 79  2  0  0  0  0
 33 47  1  0  0  0  0
 33 74  1  0  0  0  0
 33 80  2  0  0  0  0
 34 63  1  0  0  0  0
 34 70  1  0  0  0  0
 34 81  2  0  0  0  0
 35 64  1  0  0  0  0
 35 75  1  0  0  0  0
 35 82  2  0  0  0  0
 36 71  1  0  0  0  0
 36 76  1  0  0  0  0
 36 83  2  0  0  0  0
 37 40  1  0  0  0  0
 38 47  1  0  0  0  0
 39 70  1  0  0  0  0
 40 42  1  0  0  0  0
 41 43  1  0  0  0  0
 41 44  1  0  0  0  0
 42 46  1  0  0  0  0
 43 48  1  0  0  0  0
 44 71  1  0  0  0  0
 45 48  1  0  0  0  0
 45 71  1  0  0  0  0
 46 74  1  0  0  0  0
 47 70  1  0  0  0  0
 48 69  1  0  0  0  0
 49 57  1  0  0  0  0
 50 64  1  0  0  0  0
 51 65  1  0  0  0  0
 52 65  1  0  0  0  0
 53 65  1  0  0  0  0
 54 78  1  0  0  0  0
 55 58  1  0  0  0  0
 56 59  1  0  0  0  0
 57 59  1  0  0  0  0
 58 61  1  0  0  0  0
 60 62  1  0  0  0  0
 60 76  1  0  0  0  0
 61 85  1  0  0  0  0
 62 77  1  0  0  0  0
 63 65  1  0  0  0  0
 63 75  1  0  0  0  0
 64 78  1  0  0  0  0
 67 69  1  0  0  0  0
M  CHG  2  77   1  78   1
M  ISO  4  36 100  61 101  76 100  85 101
M  END
> <Batch ID>
0092

> <Smiles>
CCCCc1ncc(CC[101CH2:1][101O:1]c2ccc3c(c2)CN(C(=O)C(NC(=O)C(C)NC)C(C)(C)C)C(C(=O)NC2CCCc4ccccc42)C3)c(C(N)C[100NH:0][100C:0](=O)N2CCCC(n3nc(-c4ccc(Oc5ccc(F)cc5F)cc4)c(C(N)=O)c3N)C2)n1

> <Shape>
0.183

> <Color>
0.180

> <Negative vol penalty>
0.000

$$$$

  -OEChem-04052319143D

 86 94  0     1  0  0  0  0  0999 V2000
  -25.9346  -24.3600   25.2892 C   0  0  0  0  0  0  0  0  0  0  0  0
  -26.1087  -22.9802   25.3258 C   0  0  0  0  0  0  0  0  0  0  0  0
  -23.0010   -9.8939   19.9815 C   0  0  0  0  0  0  0  0  0  0  0  0
  -23.7311   -9.9436   22.2840 C   0  0  0  0  0  0  0  0  0  0  0  0
  -26.0303  -25.1049   26.4638 C   0  0  0  0  0  0  0  0  0  0  0  0
  -26.3797  -22.3447   26.5370 C   0  0  0  0  0  0  0  0  0  0  0  0
  -23.6395  -18.1344   27.1776 C   0  0  0  0  0  0  0  0  0  0  0  0
  -22.2364   -8.7583   20.2484 C   0  0  0  0  0  0  0  0  0  0  0  0
  -22.9665   -8.8080   22.5510 C   0  0  0  0  0  0  0  0  0  0  0  0
  -24.0564  -16.9932   26.4938 C   0  0  0  0  0  0  0  0  0  0  0  0
  -23.2138   -5.4698   22.0754 C   0  0  0  0  0  0  0  0  0  0  0  0
  -23.8041   -4.4526   22.8253 C   0  0  0  0  0  0  0  0  0  0  0  0
  -25.1023  -16.1758   28.5080 C   0  0  0  0  0  0  0  0  0  0  0  0
  -22.0836   -4.6919   24.5045 C   0  0  0  0  0  0  0  0  0  0  0  0
  -30.7060  -15.0208   24.8827 C   0  0  0  0  0  0  0  0  0  0  0  0
  -29.3964  -16.3582   26.1119 C   0  0  0  0  0  0  0  0  0  0  0  0
  -23.7484  -10.4866   20.9993 C   0  0  0  0  0  0  0  0  0  0  0  0
  -24.1303  -13.0028   20.8248 C   0  0  0  0  0  0  0  0  0  0  0  0
  -26.2931  -24.4770   27.6916 C   0  0  0  0  0  0  0  0  0  0  0  0
  -23.9608  -18.3103   28.5312 C   0  0  0  0  0  0  0  0  0  0  0  0
  -26.4804  -23.0821   27.7290 C   0  0  0  0  0  0  0  0  0  0  0  0
  -24.6861  -17.3189   29.2074 C   0  0  0  0  0  0  0  0  0  0  0  0
  -30.7994  -16.2885   24.3522 C   0  0  0  0  0  0  0  0  0  0  0  0
  -29.9707  -17.1346   25.1297 C   0  0  0  0  0  0  0  0  0  0  0  0
  -22.2191   -8.2153   21.5332 C   0  0  0  0  0  0  0  0  0  0  0  0
  -24.7904  -16.0150   27.1582 C   0  0  0  0  0  0  0  0  0  0  0  0
  -22.0583   -6.0981   22.5401 C   0  0  0  0  0  0  0  0  0  0  0  0
  -23.2391   -4.0636   24.0398 C   0  0  0  0  0  0  0  0  0  0  0  0
  -21.4933   -5.7091   23.7546 C   0  0  0  0  0  0  0  0  0  0  0  0
  -24.5389  -11.6594   20.7240 C   0  0  0  0  0  0  0  0  0  0  0  0
  -25.2384  -13.7271   20.4586 C   0  0  0  0  0  0  0  0  0  0  0  0
  -22.8626  -13.5473   21.2146 C   0  0  0  0  0  0  0  0  0  0  0  0
  -25.6462  -20.4438   30.1778 C   0  0  0  0  0  0  0  0  0  0  0  0
  -24.5033  -18.7989   32.7294 C   0  0  0  0  0  0  0  0  0  0  0  0
  -23.2508  -15.8755   33.9670 C   0  0  0  0  0  0  0  0  0  0  0  0
  -30.7342  -14.6680   20.6960 C   0  0  0  0  0  0  0  0  0  0  0  0
  -26.4343  -25.3298   28.9275 C   0  0  0  0  0  0  0  0  0  0  0  0
  -23.4807  -19.5345   29.2614 C   0  0  0  0  0  0  0  0  0  0  0  0
  -25.0394  -17.4504   30.6656 C   0  0  0  0  0  0  0  0  0  0  0  0
  -26.3528  -24.5352   30.2284 C   0  0  0  0  0  0  0  0  0  0  0  0
  -29.5913  -12.2452   18.3508 C   0  0  0  0  0  0  0  0  0  0  0  0
  -27.2261  -23.2872   30.1472 C   0  0  0  0  0  0  0  0  0  0  0  0
  -28.1440  -11.9833   18.7713 C   0  0  0  0  0  0  0  0  0  0  0  0
  -30.4961  -12.4805   19.5583 C   0  0  0  0  0  0  0  0  0  0  0  0
  -28.5879  -13.2725   20.9020 C   0  0  0  0  0  0  0  0  0  0  0  0
  -26.7511  -22.3534   29.0274 C   0  0  1  0  0  0  0  0  0  0  0  0
  -24.3054  -19.8500   30.5055 C   0  0  1  0  0  0  0  0  0  0  0  0
  -27.6265  -13.0848   19.7159 C   0  0  2  0  0  0  0  0  0  0  0  0
  -30.2261  -19.4313   26.1364 C   0  0  0  0  0  0  0  0  0  0  0  0
  -28.2845  -18.9340   24.6073 C   0  0  0  0  0  0  0  0  0  0  0  0
  -22.4444  -14.8235   36.0978 C   0  0  0  0  0  0  0  0  0  0  0  0
  -26.2005  -12.4770   25.2009 C   0  0  0  0  0  0  0  0  0  0  0  0
  -27.3899  -18.5018   33.6723 C   0  0  0  0  0  0  0  0  0  0  0  0
  -26.6241  -16.6895   35.2208 C   0  0  0  0  0  0  0  0  0  0  0  0
  -25.7464  -19.0092   35.4878 C   0  0  0  0  0  0  0  0  0  0  0  0
  -20.5472  -15.4173   32.8537 C   0  0  0  0  0  0  0  0  0  0  0  0
  -31.6174  -16.6816   23.1877 C   0  0  0  0  0  0  0  0  0  0  0  0
  -28.4666  -12.9419   26.1682 C   0  0  0  0  0  0  0  0  0  0  0  0
  -29.4696  -13.9029   26.8214 C   0  0  0  0  0  0  0  0  0  0  0  0
  -30.8169  -16.8459   21.8830 C   0  0  0  0  0  0  0  0  0  0  0  0
  -26.4126  -14.2908   26.9314 C   0  0  0  0  0  0  0  0  0  1  0  0
  -29.7544  -18.5816   24.9337 C   0  0  0  0  0  0  0  0  0  0  0  0
  -24.9716  -17.6084   33.5308 C   0  0  1  0  0  0  0  0  0  0  0  0
  -22.0461  -15.5872   34.8445 C   0  0  2  0  0  0  0  0  0  0  0  0
  -27.1127  -13.5706   25.7712 C   0  0  2  0  0  0  0  0  0  0  0  0
  -26.1782  -17.9504   34.4499 C   0  0  0  0  0  0  0  0  0  0  0  0
  -25.8074  -11.5348   20.3249 N   0  0  0  0  0  0  0  0  0  0  0  0
  -29.8507  -15.0751   25.9522 N   0  0  0  0  0  0  0  0  0  0  0  0
  -26.2055  -12.8092   20.1716 N   0  0  0  0  0  0  0  0  0  0  0  0
  -24.5528  -18.6684   31.3343 N   0  0  0  0  0  0  0  0  0  0  0  0
  -29.9499  -13.5377   20.4125 N   0  0  0  0  0  0  0  0  0  0  0  0
  -25.4701  -15.0531   20.3573 N   0  0  0  0  0  0  0  0  0  0  0  0
  -21.8326  -12.6616   21.5595 N   0  0  0  0  0  0  0  0  0  0  0  0
  -25.5795  -21.6152   29.4479 N   0  0  0  0  0  0  0  0  0  0  0  0
  -23.8003  -17.1096   34.2433 N   0  0  0  0  0  0  0  0  0  0  0  0
  -30.1385  -15.6253   21.5081 N   0  0  0  0  0  0  0  0  0  0  0  0
  -21.0439  -14.7753   34.0979 N   0  3  0  0  0  0  0  0  0  0  0  0
  -22.6444  -14.7824   21.2399 O   0  0  0  0  0  0  0  0  0  0  0  0
  -26.6657  -19.8816   30.5602 O   0  0  0  0  0  0  0  0  0  0  0  0
  -24.1014  -19.8049   33.3194 O   0  0  0  0  0  0  0  0  0  0  0  0
  -23.6654  -15.0834   33.1237 O   0  0  0  0  0  0  0  0  0  0  0  0
  -31.8785  -14.8157   20.2536 O   0  0  0  0  0  0  0  0  0  0  0  0
  -21.4729   -7.1073   21.7941 O   0  0  0  0  0  0  0  0  0  0  0  0
  -25.1991  -14.9004   26.4930 O   0  0  0  0  0  0  0  0  0  1  0  0
  -23.8053   -3.0857   24.7590 F   0  0  0  0  0  0  0  0  0  0  0  0
  -20.3826   -6.3082   24.2056 F   0  0  0  0  0  0  0  0  0  0  0  0
  1  2  1  0  0  0  0
  1  5  2  0  0  0  0
  2  6  2  0  0  0  0
  3  8  2  0  0  0  0
  3 17  1  0  0  0  0
  4  9  1  0  0  0  0
  4 17  2  0  0  0  0
  5 19  1  0  0  0  0
  6 21  1  0  0  0  0
  7 10  2  0  0  0  0
  7 20  1  0  0  0  0
  8 25  1  0  0  0  0
  9 25  2  0  0  0  0
 10 26  1  0  0  0  0
 11 12  2  0  0  0  0
 11 27  1  0  0  0  0
 12 28  1  0  0  0  0
 13 22  1  0  0  0  0
 13 26  2  0  0  0  0
 14 28  2  0  0  0  0
 14 29  1  0  0  0  0
 15 23  2  0  0  0  0
 15 68  1  0  0  0  0
 16 24  2  0  0  0  0
 16 68  1  0  0  0  0
 17 30  1  0  0  0  0
 18 30  1  0  0  0  0
 18 31  2  0  0  0  0
 18 32  1  0  0  0  0
 19 21  2  0  0  0  0
 19 37  1  0  0  0  0
 20 22  2  0  0  0  0
 20 38  1  0  0  0  0
 21 46  1  0  0  0  0
 22 39  1  0  0  0  0
 23 24  1  0  0  0  0
 23 57  1  0  0  0  0
 24 62  1  0  0  0  0
 25 83  1  0  0  0  0
 26 84  1  0  0  0  0
 27 29  2  0  0  0  0
 27 83  1  0  0  0  0
 28 85  1  0  0  0  0
 29 86  1  0  0  0  0
 30 67  2  0  0  0  0
 31 69  1  0  0  0  0
 31 72  1  0  0  0  0
 32 73  1  0  0  0  0
 32 78  2  0  0  0  0
 33 47  1  0  0  0  0
 33 74  1  0  0  0  0
 33 79  2  0  0  0  0
 34 63  1  0  0  0  0
 34 70  1  0  0  0  0
 34 80  2  0  0  0  0
 35 64  1  0  0  0  0
 35 75  1  0  0  0  0
 35 81  2  0  0  0  0
 36 71  1  0  0  0  0
 36 76  1  0  0  0  0
 36 82  2  0  0  0  0
 37 40  1  0  0  0  0
 38 47  1  0  0  0  0
 39 70  1  0  0  0  0
 40 42  1  0  0  0  0
 41 43  1  0  0  0  0
 41 44  1  0  0  0  0
 42 46  1  0  0  0  0
 43 48  1  0  0  0  0
 44 71  1  0  0  0  0
 45 48  1  0  0  0  0
 45 71  1  0  0  0  0
 46 74  1  0  0  0  0
 47 70  1  0  0  0  0
 48 69  1  0  0  0  0
 49 62  1  0  0  0  0
 50 62  1  0  0  0  0
 51 64  1  0  0  0  0
 52 65  1  0  0  0  0
 53 66  1  0  0  0  0
 54 66  1  0  0  0  0
 55 66  1  0  0  0  0
 56 77  1  0  0  0  0
 57 60  1  0  0  0  0
 58 59  1  0  0  0  0
 58 65  1  0  0  0  0
 59 68  1  0  0  0  0
 60 76  1  0  0  0  0
 61 65  1  0  0  0  0
 61 84  1  0  0  0  0
 63 66  1  0  0  0  0
 63 75  1  0  0  0  0
 64 77  1  0  0  0  0
 67 69  1  0  0  0  0
M  CHG  1  77   1
M  ISO  4  36 100  61 101  76 100  84 101
M  END
> <Batch ID>
0092

> <Smiles>
CNC(C)C(=O)NC(C(=O)N1Cc2cc([101O:1][101CH2:1]C(C)CCn3cc(CC[100NH:0][100C:0](=O)N4CCCC(n5nc(-c6ccc(Oc7ccc(F)cc7F)cc6)c(C(N)=O)c5N)C4)c(C(C)C)c3)ccc2CC1C(=O)NC1CCCc2ccccc21)C(C)(C)C

> <Shape>
0.167

> <Color>
0.197

> <Negative vol penalty>
0.000

$$$$

  -OEChem-04052319143D

 85 93  0     1  0  0  0  0  0999 V2000
  -30.0224  -23.5624   18.5883 C   0  0  0  0  0  0  0  0  0  0  0  0
  -28.6437  -23.5669   18.7740 C   0  0  0  0  0  0  0  0  0  0  0  0
  -24.7408  -14.1715   20.1565 C   0  0  0  0  0  0  0  0  0  0  0  0
  -25.1112  -14.5490   22.5139 C   0  0  0  0  0  0  0  0  0  0  0  0
  -30.8445  -24.2736   19.4614 C   0  0  0  0  0  0  0  0  0  0  0  0
  -28.0863  -24.2817   19.8337 C   0  0  0  0  0  0  0  0  0  0  0  0
  -22.7195  -27.2316   19.8657 C   0  0  0  0  0  0  0  0  0  0  0  0
  -25.7430  -13.2013   20.1543 C   0  0  0  0  0  0  0  0  0  0  0  0
  -26.1134  -13.5788   22.5117 C   0  0  0  0  0  0  0  0  0  0  0  0
  -21.4583  -26.8792   20.3441 C   0  0  0  0  0  0  0  0  0  0  0  0
  -29.1212  -13.1108   20.0956 C   0  0  0  0  0  0  0  0  0  0  0  0
  -30.0457  -13.1374   19.0515 C   0  0  0  0  0  0  0  0  0  0  0  0
  -21.9135  -28.0611   22.3972 C   0  0  0  0  0  0  0  0  0  0  0  0
  -21.2250  -23.6580   23.9160 C   0  0  0  0  0  0  0  0  0  0  0  0
  -29.3776  -10.9079   18.4032 C   0  0  0  0  0  0  0  0  0  0  0  0
  -19.3774  -22.7546   25.1106 C   0  0  0  0  0  0  0  0  0  0  0  0
  -24.4249  -14.8453   21.3362 C   0  0  0  0  0  0  0  0  0  0  0  0
  -22.0180  -15.6529   21.5860 C   0  0  0  0  0  0  0  0  0  0  0  0
  -30.2963  -25.0053   20.5265 C   0  0  0  0  0  0  0  0  0  0  0  0
  -23.5929  -27.9935   20.6551 C   0  0  0  0  0  0  0  0  0  0  0  0
  -28.9020  -25.0022   20.7226 C   0  0  0  0  0  0  0  0  0  0  0  0
  -23.1843  -28.4241   21.9254 C   0  0  0  0  0  0  0  0  0  0  0  0
  -19.8496  -23.5833   24.1056 C   0  0  0  0  0  0  0  0  0  0  0  0
  -22.0742  -22.9122   24.7259 C   0  0  0  0  0  0  0  0  0  0  0  0
  -26.4293  -12.9050   21.3319 C   0  0  0  0  0  0  0  0  0  0  0  0
  -21.0562  -27.2915   21.6112 C   0  0  0  0  0  0  0  0  0  0  0  0
  -28.3250  -11.9827   20.2936 C   0  0  0  0  0  0  0  0  0  0  0  0
  -30.1738  -12.0360   18.2052 C   0  0  0  0  0  0  0  0  0  0  0  0
  -28.4531  -10.8813   19.4474 C   0  0  0  0  0  0  0  0  0  0  0  0
  -23.3901  -15.8480   21.3390 C   0  0  0  0  0  0  0  0  0  0  0  0
  -21.5025  -22.1137   25.7033 C   0  0  0  0  0  0  0  0  0  0  0  0
  -21.4672  -16.9060   21.4728 C   0  0  0  0  0  0  0  0  0  0  0  0
  -21.3051  -14.4468   21.8907 C   0  0  0  0  0  0  0  0  0  0  0  0
  -26.4711  -27.5157   21.9166 C   0  0  0  0  0  0  0  0  0  0  0  0
  -23.8222  -22.3973   22.1139 C   0  0  0  0  0  0  0  0  0  0  0  0
  -26.1913  -30.6359   22.7584 C   0  0  0  0  0  0  0  0  0  0  0  0
  -24.1451  -33.2838   23.4279 C   0  0  0  0  0  0  0  0  0  0  0  0
  -31.2288  -25.7201   21.4722 C   0  0  0  0  0  0  0  0  0  0  0  0
  -24.9397  -28.3880   20.1138 C   0  0  0  0  0  0  0  0  0  0  0  0
  -24.0766  -29.2607   22.8042 C   0  0  0  0  0  0  0  0  0  0  0  0
  -30.5307  -26.7573   22.3480 C   0  0  0  0  0  0  0  0  0  0  0  0
  -22.0914  -21.0932   19.2602 C   0  0  0  0  0  0  0  0  0  0  0  0
  -29.2522  -26.1781   22.9454 C   0  0  0  0  0  0  0  0  0  0  0  0
  -22.1285  -19.5811   19.4779 C   0  0  0  0  0  0  0  0  0  0  0  0
  -23.3648  -21.7619   19.7684 C   0  0  0  0  0  0  0  0  0  0  0  0
  -23.7158  -19.9525   21.4190 C   0  0  0  0  0  0  0  0  0  0  0  0
  -28.2580  -25.7857   21.8457 C   0  0  1  0  0  0  0  0  0  0  0  0
  -25.9459  -28.7320   21.2078 C   0  0  1  0  0  0  0  0  0  0  0  0
  -22.4349  -19.2416   20.9474 C   0  0  2  0  0  0  0  0  0  0  0  0
  -21.5643  -20.2553   27.3854 C   0  0  0  0  0  0  0  0  0  0  0  0
  -25.5920  -21.7346   23.6899 C   0  0  0  0  0  0  0  0  0  0  0  0
  -24.2063  -35.6936   24.1256 C   0  0  0  0  0  0  0  0  0  0  0  0
  -17.2375  -26.2636   23.2291 C   0  0  0  0  0  0  0  0  0  0  0  0
  -26.8037  -29.7879   25.6247 C   0  0  0  0  0  0  0  0  0  0  0  0
  -25.9289  -32.0042   26.3934 C   0  0  0  0  0  0  0  0  0  0  0  0
  -27.9247  -31.9029   24.9004 C   0  0  0  0  0  0  0  0  0  0  0  0
  -22.8269  -34.1616   20.9277 C   0  0  0  0  0  0  0  0  0  0  0  0
  -18.9005  -24.3806   23.2442 C   0  0  0  0  0  0  0  0  0  0  0  0
  -23.5488  -22.9861   24.5270 C   0  0  0  0  0  0  0  0  0  0  0  0
  -22.3658  -21.2912   26.6032 C   0  0  0  0  0  0  0  0  0  0  0  0
  -19.6905  -26.7908   23.4926 C   0  0  0  0  0  0  0  0  0  1  0  0
  -24.0902  -21.9435   23.5268 C   0  0  1  0  0  0  0  0  0  0  0  0
  -25.6406  -31.3755   23.9536 C   0  0  1  0  0  0  0  0  0  0  0  0
  -24.1754  -34.7254   22.9532 C   0  0  2  0  0  0  0  0  0  0  0  0
  -18.5762  -25.7809   23.8020 C   0  0  1  0  0  0  0  0  0  0  0  0
  -26.5582  -31.2502   25.2025 C   0  0  0  0  0  0  0  0  0  0  0  0
  -20.1712  -22.0153   25.9173 N   0  0  0  0  0  0  0  0  0  0  0  0
  -23.6924  -17.1245   21.0876 N   0  0  0  0  0  0  0  0  0  0  0  0
  -22.5024  -17.7428   21.1760 N   0  0  0  0  0  0  0  0  0  0  0  0
  -25.3863  -29.6153   22.2329 N   0  0  0  0  0  0  0  0  0  0  0  0
  -23.6331  -21.3967   21.1605 N   0  0  0  0  0  0  0  0  0  0  0  0
  -20.2031  -17.3626   21.5990 N   0  0  0  0  0  0  0  0  0  0  0  0
  -22.0250  -13.2468   21.9690 N   0  0  0  0  0  0  0  0  0  0  0  0
  -27.5898  -26.9597   21.3262 N   0  0  0  0  0  0  0  0  0  0  0  0
  -25.4127  -32.7481   23.5148 N   0  0  0  0  0  0  0  0  0  0  0  0
  -22.9707  -35.0245   22.1284 N   0  3  0  0  0  0  0  0  0  0  0  0
  -20.0639  -14.4310   22.0715 O   0  0  0  0  0  0  0  0  0  0  0  0
  -25.9042  -27.1125   22.9255 O   0  0  0  0  0  0  0  0  0  0  0  0
  -23.7797  -23.6055   21.8675 O   0  0  0  0  0  0  0  0  0  0  0  0
  -27.2920  -30.9568   22.3032 O   0  0  0  0  0  0  0  0  0  0  0  0
  -23.1017  -32.6933   23.6983 O   0  0  0  0  0  0  0  0  0  0  0  0
  -27.4071  -11.9582   21.3302 O   0  0  0  0  0  0  0  0  0  0  0  0
  -19.8260  -26.9484   22.0809 O   0  0  0  0  0  0  0  0  0  1  0  0
  -31.0606  -12.0623   17.2016 F   0  0  0  0  0  0  0  0  0  0  0  0
  -27.6901   -9.7953   19.6319 F   0  0  0  0  0  0  0  0  0  0  0  0
  1  2  1  0  0  0  0
  1  5  2  0  0  0  0
  2  6  2  0  0  0  0
  3  8  2  0  0  0  0
  3 17  1  0  0  0  0
  4  9  1  0  0  0  0
  4 17  2  0  0  0  0
  5 19  1  0  0  0  0
  6 21  1  0  0  0  0
  7 10  2  0  0  0  0
  7 20  1  0  0  0  0
  8 25  1  0  0  0  0
  9 25  2  0  0  0  0
 10 26  1  0  0  0  0
 11 12  2  0  0  0  0
 11 27  1  0  0  0  0
 12 28  1  0  0  0  0
 13 22  1  0  0  0  0
 13 26  2  0  0  0  0
 14 23  2  0  0  0  0
 14 24  1  0  0  0  0
 15 28  2  0  0  0  0
 15 29  1  0  0  0  0
 16 23  1  0  0  0  0
 16 67  2  0  0  0  0
 17 30  1  0  0  0  0
 18 30  1  0  0  0  0
 18 32  2  0  0  0  0
 18 33  1  0  0  0  0
 19 21  2  0  0  0  0
 19 38  1  0  0  0  0
 20 22  2  0  0  0  0
 20 39  1  0  0  0  0
 21 47  1  0  0  0  0
 22 40  1  0  0  0  0
 23 58  1  0  0  0  0
 24 31  2  0  0  0  0
 24 59  1  0  0  0  0
 25 82  1  0  0  0  0
 26 83  1  0  0  0  0
 27 29  2  0  0  0  0
 27 82  1  0  0  0  0
 28 84  1  0  0  0  0
 29 85  1  0  0  0  0
 30 68  2  0  0  0  0
 31 60  1  0  0  0  0
 31 67  1  0  0  0  0
 32 69  1  0  0  0  0
 32 72  1  0  0  0  0
 33 73  1  0  0  0  0
 33 77  2  0  0  0  0
 34 48  1  0  0  0  0
 34 74  1  0  0  0  0
 34 78  2  0  0  0  0
 35 62  1  0  0  0  0
 35 71  1  0  0  0  0
 35 79  2  0  0  0  0
 36 63  1  0  0  0  0
 36 70  1  0  0  0  0
 36 80  2  0  0  0  0
 37 64  1  0  0  0  0
 37 75  1  0  0  0  0
 37 81  2  0  0  0  0
 38 41  1  0  0  0  0
 39 48  1  0  0  0  0
 40 70  1  0  0  0  0
 41 43  1  0  0  0  0
 42 44  1  0  0  0  0
 42 45  1  0  0  0  0
 43 47  1  0  0  0  0
 44 49  1  0  0  0  0
 45 71  1  0  0  0  0
 46 49  1  0  0  0  0
 46 71  1  0  0  0  0
 47 74  1  0  0  0  0
 48 70  1  0  0  0  0
 49 69  1  0  0  0  0
 50 60  1  0  0  0  0
 51 62  1  0  0  0  0
 52 64  1  0  0  0  0
 53 65  1  0  0  0  0
 54 66  1  0  0  0  0
 55 66  1  0  0  0  0
 56 66  1  0  0  0  0
 57 76  1  0  0  0  0
 58 65  1  0  0  0  0
 59 62  1  0  0  0  0
 61 65  1  0  0  0  0
 61 83  1  0  0  0  0
 63 66  1  0  0  0  0
 63 75  1  0  0  0  0
 64 76  1  0  0  0  0
 68 69  1  0  0  0  0
M  CHG  1  76   1
M  ISO  4  35 100  61 101  62 100  83 101
M  END
> <Batch ID>
0092

> <Smiles>
CCc1ncc(CC(C)[101CH2:1][101O:1]c2ccc3c(c2)CN(C(=O)C(NC(=O)C(C)NC)C(C)(C)C)C(C(=O)NC2CCCc4ccccc42)C3)cc1C[100CH:0](C)[100C:0](=O)N1CCCC(n2nc(-c3ccc(Oc4ccc(F)cc4F)cc3)c(C(N)=O)c2N)C1

> <Shape>
0.234

> <Color>
0.061

> <Negative vol penalty>
0.000

$$$$

  -OEChem-04052319143D

 82 90  0     1  0  0  0  0  0999 V2000
  -28.6352  -24.2436   16.9790 C   0  0  0  0  0  0  0  0  0  0  0  0
  -27.4203  -24.4322   17.6300 C   0  0  0  0  0  0  0  0  0  0  0  0
  -23.9036  -15.2171   19.3593 C   0  0  0  0  0  0  0  0  0  0  0  0
  -23.8356  -15.1002   21.7715 C   0  0  0  0  0  0  0  0  0  0  0  0
  -29.8024  -24.7890   17.5120 C   0  0  0  0  0  0  0  0  0  0  0  0
  -27.3721  -25.1654   18.8151 C   0  0  0  0  0  0  0  0  0  0  0  0
  -23.5245  -28.4566   18.9081 C   0  0  0  0  0  0  0  0  0  0  0  0
  -20.3150  -23.3980   23.9180 C   0  0  0  0  0  0  0  0  0  0  0  0
  -20.8658  -25.5232   24.9266 C   0  0  0  0  0  0  0  0  0  0  0  0
  -21.3951  -22.8070   24.5734 C   0  0  0  0  0  0  0  0  0  0  0  0
  -21.9459  -24.9322   25.5821 C   0  0  0  0  0  0  0  0  0  0  0  0
  -24.5778  -13.9968   19.3191 C   0  0  0  0  0  0  0  0  0  0  0  0
  -24.5099  -13.8798   21.7313 C   0  0  0  0  0  0  0  0  0  0  0  0
  -22.2562  -27.9460   19.1810 C   0  0  0  0  0  0  0  0  0  0  0  0
  -23.7640  -10.6433   21.1070 C   0  0  0  0  0  0  0  0  0  0  0  0
  -23.2868   -9.6140   21.9183 C   0  0  0  0  0  0  0  0  0  0  0  0
  -22.4579  -28.6839   21.4688 C   0  0  0  0  0  0  0  0  0  0  0  0
  -25.4144   -9.5270   23.0597 C   0  0  0  0  0  0  0  0  0  0  0  0
  -23.5325  -15.7689   20.5855 C   0  0  0  0  0  0  0  0  0  0  0  0
  -21.4439  -17.2335   20.5986 C   0  0  0  0  0  0  0  0  0  0  0  0
  -29.7670  -25.5375   18.6991 C   0  0  0  0  0  0  0  0  0  0  0  0
  -24.2747  -29.0761   19.9180 C   0  0  0  0  0  0  0  0  0  0  0  0
  -28.5401  -25.7202   19.3652 C   0  0  0  0  0  0  0  0  0  0  0  0
  -23.7343  -29.2039   21.2055 C   0  0  0  0  0  0  0  0  0  0  0  0
  -20.0504  -24.7562   24.0945 C   0  0  0  0  0  0  0  0  0  0  0  0
  -22.2106  -23.5740   25.4054 C   0  0  0  0  0  0  0  0  0  0  0  0
  -24.8810  -13.3281   20.5051 C   0  0  0  0  0  0  0  0  0  0  0  0
  -21.7239  -28.0570   20.4621 C   0  0  0  0  0  0  0  0  0  0  0  0
  -25.0665  -11.1145   21.2720 C   0  0  0  0  0  0  0  0  0  0  0  0
  -24.1119   -9.0559   22.8947 C   0  0  0  0  0  0  0  0  0  0  0  0
  -25.8917  -10.5564   22.2483 C   0  0  0  0  0  0  0  0  0  0  0  0
  -22.8365  -17.0298   20.6277 C   0  0  0  0  0  0  0  0  0  0  0  0
  -21.2950  -18.5975   20.6613 C   0  0  0  0  0  0  0  0  0  0  0  0
  -20.3800  -16.2754   20.5217 C   0  0  0  0  0  0  0  0  0  0  0  0
  -27.0665  -28.4882   21.3195 C   0  0  0  0  0  0  0  0  0  0  0  0
  -26.5005  -31.3380   22.7619 C   0  0  0  0  0  0  0  0  0  0  0  0
  -24.2256  -33.6734   23.7707 C   0  0  0  0  0  0  0  0  0  0  0  0
  -24.7525  -22.9813   22.8243 C   0  0  0  0  0  0  0  0  0  0  0  0
  -31.0620  -26.0675   19.2620 C   0  0  0  0  0  0  0  0  0  0  0  0
  -25.6303  -29.6456   19.6009 C   0  0  0  0  0  0  0  0  0  0  0  0
  -24.4908  -29.8782   22.3198 C   0  0  0  0  0  0  0  0  0  0  0  0
  -30.8681  -27.1482   20.3224 C   0  0  0  0  0  0  0  0  0  0  0  0
  -23.5276  -22.6654   19.4961 C   0  0  0  0  0  0  0  0  0  0  0  0
  -29.8005  -26.7254   21.3266 C   0  0  0  0  0  0  0  0  0  0  0  0
  -23.0859  -21.2037   19.4061 C   0  0  0  0  0  0  0  0  0  0  0  0
  -24.7821  -22.8243   20.3523 C   0  0  0  0  0  0  0  0  0  0  0  0
  -24.2480  -20.7742   21.6116 C   0  0  0  0  0  0  0  0  0  0  0  0
  -28.4434  -26.5305   20.6397 C   0  0  1  0  0  0  0  0  0  0  0  0
  -26.5170  -29.7992   20.8328 C   0  0  1  0  0  0  0  0  0  0  0  0
  -22.9544  -20.5705   20.8044 C   0  0  2  0  0  0  0  0  0  0  0  0
  -24.0602  -35.8784   24.9573 C   0  0  0  0  0  0  0  0  0  0  0  0
  -26.9343  -29.9300   25.4338 C   0  0  0  0  0  0  0  0  0  0  0  0
  -25.8461  -31.8832   26.5605 C   0  0  0  0  0  0  0  0  0  0  0  0
  -27.9596  -32.2056   25.2752 C   0  0  0  0  0  0  0  0  0  0  0  0
  -23.0581  -34.9961   21.3945 C   0  0  0  0  0  0  0  0  0  0  0  0
  -18.8830  -25.3959   23.3863 C   0  0  0  0  0  0  0  0  0  0  0  0
  -23.3643  -22.9409   26.1073 C   0  0  0  0  0  0  0  0  0  0  0  0
  -19.2329  -25.9601   22.0076 C   0  0  0  0  0  0  0  0  0  0  0  0
  -24.6701  -22.9840   25.3047 C   0  0  0  0  0  0  0  0  0  0  0  0
  -20.2473  -27.0966   22.0600 C   0  0  0  0  0  0  0  0  0  1  0  0
  -25.8032  -31.7761   24.0271 C   0  0  1  0  0  0  0  0  0  0  0  0
  -24.1933  -35.1827   23.6115 C   0  0  2  0  0  0  0  0  0  0  0  0
  -26.6221  -31.4342   25.3039 C   0  0  0  0  0  0  0  0  0  0  0  0
  -23.5233  -18.1729   20.7030 N   0  0  0  0  0  0  0  0  0  0  0  0
  -22.5583  -19.1080   20.7216 N   0  0  0  0  0  0  0  0  0  0  0  0
  -25.8148  -30.4133   21.9616 N   0  0  0  0  0  0  0  0  0  0  0  0
  -24.5911  -22.2040   21.6655 N   0  0  0  0  0  0  0  0  0  0  0  0
  -20.2080  -19.3979   20.6702 N   0  0  0  0  0  0  0  0  0  0  0  0
  -20.7094  -14.9144   20.4643 N   0  0  0  0  0  0  0  0  0  0  0  0
  -27.8198  -27.8104   20.3801 N   0  0  0  0  0  0  0  0  0  0  0  0
  -25.5162  -33.1972   23.8640 N   0  0  0  0  0  0  0  0  0  0  0  0
  -24.5469  -22.3174   24.0275 N   0  0  0  0  0  0  0  0  0  0  0  0
  -23.0422  -35.5889   22.7566 N   0  3  0  0  0  0  0  0  0  0  0  0
  -19.1735  -16.6170   20.4879 O   0  0  0  0  0  0  0  0  0  0  0  0
  -26.8261  -28.1196   22.4632 O   0  0  0  0  0  0  0  0  0  0  0  0
  -27.6095  -31.8048   22.4899 O   0  0  0  0  0  0  0  0  0  0  0  0
  -23.2076  -32.9860   23.8122 O   0  0  0  0  0  0  0  0  0  0  0  0
  -25.0519  -24.1797   22.7890 O   0  0  0  0  0  0  0  0  0  0  0  0
  -25.5387  -12.1371   20.4662 O   0  0  0  0  0  0  0  0  0  0  0  0
  -20.4865  -27.5588   20.7313 O   0  0  0  0  0  0  0  0  0  1  0  0
  -23.6529   -8.0684   23.6747 F   0  0  0  0  0  0  0  0  0  0  0  0
  -27.1435  -11.0057   22.4123 F   0  0  0  0  0  0  0  0  0  0  0  0
  1  2  1  0  0  0  0
  1  5  2  0  0  0  0
  2  6  2  0  0  0  0
  3 12  2  0  0  0  0
  3 19  1  0  0  0  0
  4 13  1  0  0  0  0
  4 19  2  0  0  0  0
  5 21  1  0  0  0  0
  6 23  1  0  0  0  0
  7 14  2  0  0  0  0
  7 22  1  0  0  0  0
  8 10  2  0  0  0  0
  8 25  1  0  0  0  0
  9 11  1  0  0  0  0
  9 25  2  0  0  0  0
 10 26  1  0  0  0  0
 11 26  2  0  0  0  0
 12 27  1  0  0  0  0
 13 27  2  0  0  0  0
 14 28  1  0  0  0  0
 15 16  2  0  0  0  0
 15 29  1  0  0  0  0
 16 30  1  0  0  0  0
 17 24  1  0  0  0  0
 17 28  2  0  0  0  0
 18 30  2  0  0  0  0
 18 31  1  0  0  0  0
 19 32  1  0  0  0  0
 20 32  1  0  0  0  0
 20 33  2  0  0  0  0
 20 34  1  0  0  0  0
 21 23  2  0  0  0  0
 21 39  1  0  0  0  0
 22 24  2  0  0  0  0
 22 40  1  0  0  0  0
 23 48  1  0  0  0  0
 24 41  1  0  0  0  0
 25 56  1  0  0  0  0
 26 57  1  0  0  0  0
 27 79  1  0  0  0  0
 28 80  1  0  0  0  0
 29 31  2  0  0  0  0
 29 79  1  0  0  0  0
 30 81  1  0  0  0  0
 31 82  1  0  0  0  0
 32 64  2  0  0  0  0
 33 65  1  0  0  0  0
 33 68  1  0  0  0  0
 34 69  1  0  0  0  0
 34 74  2  0  0  0  0
 35 49  1  0  0  0  0
 35 70  1  0  0  0  0
 35 75  2  0  0  0  0
 36 61  1  0  0  0  0
 36 66  1  0  0  0  0
 36 76  2  0  0  0  0
 37 62  1  0  0  0  0
 37 71  1  0  0  0  0
 37 77  2  0  0  0  0
 38 67  1  0  0  0  0
 38 72  1  0  0  0  0
 38 78  2  0  0  0  0
 39 42  1  0  0  0  0
 40 49  1  0  0  0  0
 41 66  1  0  0  0  0
 42 44  1  0  0  0  0
 43 45  1  0  0  0  0
 43 46  1  0  0  0  0
 44 48  1  0  0  0  0
 45 50  1  0  0  0  0
 46 67  1  0  0  0  0
 47 50  1  0  0  0  0
 47 67  1  0  0  0  0
 48 70  1  0  0  0  0
 49 66  1  0  0  0  0
 50 65  1  0  0  0  0
 51 62  1  0  0  0  0
 52 63  1  0  0  0  0
 53 63  1  0  0  0  0
 54 63  1  0  0  0  0
 55 73  1  0  0  0  0
 56 58  1  0  0  0  0
 57 59  1  0  0  0  0
 58 60  1  0  0  0  0
 59 72  1  0  0  0  0
 60 80  1  0  0  0  0
 61 63  1  0  0  0  0
 61 71  1  0  0  0  0
 62 73  1  0  0  0  0
 64 65  1  0  0  0  0
M  CHG  1  73   1
M  ISO  4  38 100  60 101  72 100  80 101
M  END
> <Batch ID>
0092

> <Smiles>
CNC(C)C(=O)NC(C(=O)N1Cc2cc([101O:1][101CH2:1]CCc3ccc(CC[100NH:0][100C:0](=O)N4CCCC(n5nc(-c6ccc(Oc7ccc(F)cc7F)cc6)c(C(N)=O)c5N)C4)cc3)ccc2CC1C(=O)NC1CCCc2ccccc21)C(C)(C)C

> <Shape>
0.249

> <Color>
0.066

> <Negative vol penalty>
0.000

$$$$

  -OEChem-04052319143D

 82 89  0     1  0  0  0  0  0999 V2000
  -14.4100  -12.3216   34.3274 C   0  0  0  0  0  0  0  0  0  0  0  0
  -15.2570  -12.1075   33.2447 C   0  0  0  0  0  0  0  0  0  0  0  0
  -23.2874   -9.7983   19.9104 C   0  0  0  0  0  0  0  0  0  0  0  0
  -23.7308   -9.9385   22.2813 C   0  0  0  0  0  0  0  0  0  0  0  0
  -14.9430  -12.6440   35.5748 C   0  0  0  0  0  0  0  0  0  0  0  0
  -16.6374  -12.2167   33.4085 C   0  0  0  0  0  0  0  0  0  0  0  0
  -20.9524   -8.9126   30.5855 C   0  0  0  0  0  0  0  0  0  0  0  0
  -22.5583   -8.6271   20.1160 C   0  0  0  0  0  0  0  0  0  0  0  0
  -23.0016   -8.7673   22.4869 C   0  0  0  0  0  0  0  0  0  0  0  0
  -21.7574   -9.1722   29.4772 C   0  0  0  0  0  0  0  0  0  0  0  0
  -20.9536   -6.0111   23.6816 C   0  0  0  0  0  0  0  0  0  0  0  0
  -20.0486   -5.9876   24.7426 C   0  0  0  0  0  0  0  0  0  0  0  0
  -23.5302   -9.8996   30.9426 C   0  0  0  0  0  0  0  0  0  0  0  0
  -18.8456   -7.8367   23.7574 C   0  0  0  0  0  0  0  0  0  0  0  0
  -23.8737  -10.4540   20.9930 C   0  0  0  0  0  0  0  0  0  0  0  0
  -24.1383  -12.9835   20.7949 C   0  0  0  0  0  0  0  0  0  0  0  0
  -16.3311  -12.7477   35.7562 C   0  0  0  0  0  0  0  0  0  0  0  0
  -21.4272   -9.1552   31.8825 C   0  0  0  0  0  0  0  0  0  0  0  0
  -17.1894  -12.5420   34.6592 C   0  0  0  0  0  0  0  0  0  0  0  0
  -22.7302   -9.6398   32.0658 C   0  0  0  0  0  0  0  0  0  0  0  0
  -22.4153   -8.1116   21.4042 C   0  0  0  0  0  0  0  0  0  0  0  0
  -23.0454   -9.6685   29.6555 C   0  0  0  0  0  0  0  0  0  0  0  0
  -20.8047   -6.9475   22.6584 C   0  0  0  0  0  0  0  0  0  0  0  0
  -18.9945   -6.9004   24.7805 C   0  0  0  0  0  0  0  0  0  0  0  0
  -19.7507   -7.8602   22.6963 C   0  0  0  0  0  0  0  0  0  0  0  0
  -24.6276  -11.6635   20.7812 C   0  0  0  0  0  0  0  0  0  0  0  0
  -25.2420  -13.7613   20.5433 C   0  0  0  0  0  0  0  0  0  0  0  0
  -22.8054  -13.4635   21.0153 C   0  0  0  0  0  0  0  0  0  0  0  0
  -20.5520  -11.0602   34.2718 C   0  0  0  0  0  0  0  0  0  0  0  0
  -22.8626   -9.4523   35.8836 C   0  0  0  0  0  0  0  0  0  0  0  0
  -31.1124  -12.7886   21.3828 C   0  0  0  0  0  0  0  0  0  0  0  0
  -25.7337   -7.6115   35.7621 C   0  0  0  0  0  0  0  0  0  0  0  0
  -16.8583  -13.1448   37.1123 C   0  0  0  0  0  0  0  0  0  0  0  0
  -20.5560   -8.8447   33.0687 C   0  0  0  0  0  0  0  0  0  0  0  0
  -23.2944   -9.8980   33.4382 C   0  0  0  0  0  0  0  0  0  0  0  0
  -18.3500  -12.8732   37.2894 C   0  0  0  0  0  0  0  0  0  0  0  0
  -29.4701  -13.6694   18.3222 C   0  0  0  0  0  0  0  0  0  0  0  0
  -19.1301  -13.3649   36.0742 C   0  0  0  0  0  0  0  0  0  0  0  0
  -28.0017  -13.3480   18.5974 C   0  0  0  0  0  0  0  0  0  0  0  0
  -30.3983  -12.6787   19.0180 C   0  0  0  0  0  0  0  0  0  0  0  0
  -28.7045  -12.2444   20.7684 C   0  0  0  0  0  0  0  0  0  0  0  0
  -18.6935  -12.6270   34.8029 C   0  0  1  0  0  0  0  0  0  0  0  0
  -20.9579   -9.6145   34.3230 C   0  0  1  0  0  0  0  0  0  0  0  0
  -27.7334  -13.2396   20.1089 C   0  0  2  0  0  0  0  0  0  0  0  0
  -27.4066   -6.4708   37.2446 C   0  0  0  0  0  0  0  0  0  0  0  0
  -30.1767  -11.2771   23.1045 C   0  0  0  0  0  0  0  0  0  0  0  0
  -32.0057  -12.8961   23.6551 C   0  0  0  0  0  0  0  0  0  0  0  0
  -24.0784  -12.1600   36.5909 C   0  0  0  0  0  0  0  0  0  0  0  0
  -26.1886  -10.9694   37.2219 C   0  0  0  0  0  0  0  0  0  0  0  0
  -24.0747  -10.4980   38.4596 C   0  0  0  0  0  0  0  0  0  0  0  0
  -25.1513   -4.9628   34.5771 C   0  0  0  0  0  0  0  0  0  0  0  0
  -26.7009  -15.7140   26.7170 C   0  0  0  0  0  0  0  0  0  0  0  0
  -26.0422  -12.7328   27.3988 C   0  0  0  0  0  0  0  0  0  0  0  0
  -28.9164  -13.5589   24.4854 C   0  0  0  0  0  0  0  0  0  0  0  0
  -25.0341  -11.5880   27.3327 C   0  0  0  0  0  0  0  0  0  0  0  0
  -29.7055  -13.7927   23.1876 C   0  0  0  0  0  0  0  0  0  0  0  0
  -26.2415  -13.3652   26.0295 C   0  0  0  0  0  0  0  0  0  0  0  0
  -27.9635  -14.7007   24.8246 C   0  0  0  0  0  0  0  0  0  0  0  0
  -24.7916  -10.9726   28.7036 C   0  0  0  0  0  0  0  0  0  1  0  0
  -24.3452   -9.6399   36.0969 C   0  0  1  0  0  0  0  0  0  0  0  0
  -26.1259   -6.3111   36.4401 C   0  0  2  0  0  0  0  0  0  0  0  0
  -30.7243  -12.6827   22.8361 C   0  0  0  0  0  0  0  0  0  0  0  0
  -24.6607  -10.8139   37.0663 C   0  0  0  0  0  0  0  0  0  0  0  0
  -25.9398  -11.6025   20.5399 N   0  0  0  0  0  0  0  0  0  0  0  0
  -26.2846  -12.8938   20.3995 N   0  0  0  0  0  0  0  0  0  0  0  0
  -22.4016   -9.5847   34.5661 N   0  0  0  0  0  0  0  0  0  0  0  0
  -30.0968  -12.5879   20.4477 N   0  0  0  0  0  0  0  0  0  0  0  0
  -25.4127  -15.0959   20.4332 N   0  0  0  0  0  0  0  0  0  0  0  0
  -21.7904  -12.5285   21.2597 N   0  0  0  0  0  0  0  0  0  0  0  0
  -19.2820  -11.3056   34.7581 N   0  0  0  0  0  0  0  0  0  0  0  0
  -24.8613   -8.3477   36.5355 N   0  0  0  0  0  0  0  0  0  0  0  0
  -26.3391   -5.2413   35.4247 N   0  3  0  0  0  0  0  0  0  0  0  0
  -27.2591  -14.4386   26.1336 N   0  3  1  0  0  0  0  0  0  0  0  0
  -22.5199  -14.6845   20.9799 O   0  0  0  0  0  0  0  0  0  0  0  0
  -21.3337  -11.8918   33.8255 O   0  0  0  0  0  0  0  0  0  0  0  0
  -22.1411   -9.1907   36.8494 O   0  0  0  0  0  0  0  0  0  0  0  0
  -32.2830  -13.0449   21.0894 O   0  0  0  0  0  0  0  0  0  0  0  0
  -26.1615   -7.9428   34.6587 O   0  0  0  0  0  0  0  0  0  0  0  0
  -21.7037   -6.9690   21.6053 O   0  0  0  0  0  0  0  0  0  0  0  0
  -23.8330   -9.9234   28.5754 O   0  0  0  0  0  0  0  0  0  1  0  0
  -18.1246   -6.8767   25.7988 F   0  0  0  0  0  0  0  0  0  0  0  0
  -19.6018   -8.7613   21.7157 F   0  0  0  0  0  0  0  0  0  0  0  0
  1  2  1  0  0  0  0
  1  5  2  0  0  0  0
  2  6  2  0  0  0  0
  3  8  2  0  0  0  0
  3 15  1  0  0  0  0
  4  9  1  0  0  0  0
  4 15  2  0  0  0  0
  5 17  1  0  0  0  0
  6 19  1  0  0  0  0
  7 10  2  0  0  0  0
  7 18  1  0  0  0  0
  8 21  1  0  0  0  0
  9 21  2  0  0  0  0
 10 22  1  0  0  0  0
 11 12  2  0  0  0  0
 11 23  1  0  0  0  0
 12 24  1  0  0  0  0
 13 20  1  0  0  0  0
 13 22  2  0  0  0  0
 14 24  2  0  0  0  0
 14 25  1  0  0  0  0
 15 26  1  0  0  0  0
 16 26  1  0  0  0  0
 16 27  2  0  0  0  0
 16 28  1  0  0  0  0
 17 19  2  0  0  0  0
 17 33  1  0  0  0  0
 18 20  2  0  0  0  0
 18 34  1  0  0  0  0
 19 42  1  0  0  0  0
 20 35  1  0  0  0  0
 21 79  1  0  0  0  0
 22 80  1  0  0  0  0
 23 25  2  0  0  0  0
 23 79  1  0  0  0  0
 24 81  1  0  0  0  0
 25 82  1  0  0  0  0
 26 64  2  0  0  0  0
 27 65  1  0  0  0  0
 27 68  1  0  0  0  0
 28 69  1  0  0  0  0
 28 74  2  0  0  0  0
 29 43  1  0  0  0  0
 29 70  1  0  0  0  0
 29 75  2  0  0  0  0
 30 60  1  0  0  0  0
 30 66  1  0  0  0  0
 30 76  2  0  0  0  0
 31 62  1  0  0  0  0
 31 67  1  0  0  0  0
 31 77  2  0  0  0  0
 32 61  1  0  0  0  0
 32 71  1  0  0  0  0
 32 78  2  0  0  0  0
 33 36  1  0  0  0  0
 34 43  1  0  0  0  0
 35 66  1  0  0  0  0
 36 38  1  0  0  0  0
 37 39  1  0  0  0  0
 37 40  1  0  0  0  0
 38 42  1  0  0  0  0
 39 44  1  0  0  0  0
 40 67  1  0  0  0  0
 41 44  1  0  0  0  0
 41 67  1  0  0  0  0
 42 70  1  0  0  0  0
 43 66  1  0  0  0  0
 44 65  1  0  0  0  0
 45 61  1  0  0  0  0
 46 62  1  0  0  0  0
 47 62  1  0  0  0  0
 48 63  1  0  0  0  0
 49 63  1  0  0  0  0
 50 63  1  0  0  0  0
 51 72  1  0  0  0  0
 52 73  1  0  0  0  0
 53 55  1  0  0  0  0
 53 57  1  0  0  0  0
 54 56  1  0  0  0  0
 54 58  1  0  0  0  0
 55 59  1  0  0  0  0
 56 62  1  0  0  0  0
 57 73  1  0  0  0  0
 58 73  1  0  0  0  0
 59 80  1  0  0  0  0
 60 63  1  0  0  0  0
 60 71  1  0  0  0  0
 61 72  1  0  0  0  0
 64 65  1  0  0  0  0
M  CHG  2  72   1  73   1
M  ISO  4  31 100  59 101  62 100  80 101
M  END
> <Batch ID>
0092

> <Smiles>
CNC(C)C(=O)NC(C(=O)N1Cc2cc([101O:1][101CH2:1]CCCN(C)CCC[100C:0](C)(C)[100C:0](=O)N3CCCC(n4nc(-c5ccc(Oc6ccc(F)cc6F)cc5)c(C(N)=O)c4N)C3)ccc2CC1C(=O)NC1CCCc2ccccc21)C(C)(C)C

> <Shape>
0.130

> <Color>
0.177

> <Negative vol penalty>
0.000

$$$$

  -OEChem-04052319143D

 95103  0     1  0  0  0  0  0999 V2000
  -17.3307  -26.5010   21.4119 C   0  0  0  0  0  0  0  0  0  0  0  0
  -18.6170  -26.3150   20.9157 C   0  0  0  0  0  0  0  0  0  0  0  0
  -22.5858  -10.3490   21.1946 C   0  0  0  0  0  0  0  0  0  0  0  0
  -24.5344   -9.0166   21.7092 C   0  0  0  0  0  0  0  0  0  0  0  0
  -17.0829  -27.5083   22.3434 C   0  0  0  0  0  0  0  0  0  0  0  0
  -19.6562  -27.1371   21.3501 C   0  0  0  0  0  0  0  0  0  0  0  0
  -23.8639  -24.5380   22.4390 C   0  0  0  0  0  0  0  0  0  0  0  0
  -21.8088   -9.1919   21.1405 C   0  0  0  0  0  0  0  0  0  0  0  0
  -23.7574   -7.8595   21.6552 C   0  0  0  0  0  0  0  0  0  0  0  0
  -24.6510  -24.1222   21.3660 C   0  0  0  0  0  0  0  0  0  0  0  0
  -22.2151   -4.5862   22.0086 C   0  0  0  0  0  0  0  0  0  0  0  0
  -22.3854   -3.6419   23.0210 C   0  0  0  0  0  0  0  0  0  0  0  0
  -26.1426  -25.9791   21.7483 C   0  0  0  0  0  0  0  0  0  0  0  0
  -28.7007  -21.9955   22.2541 C   0  0  0  0  0  0  0  0  0  0  0  0
  -21.7376   -5.2887   24.6659 C   0  0  0  0  0  0  0  0  0  0  0  0
  -23.9486  -10.2614   21.4788 C   0  0  0  0  0  0  0  0  0  0  0  0
  -25.0037  -12.2599   22.6623 C   0  0  0  0  0  0  0  0  0  0  0  0
  -18.1215  -28.3369   22.7967 C   0  0  0  0  0  0  0  0  0  0  0  0
  -24.2048  -25.6857   23.1691 C   0  0  0  0  0  0  0  0  0  0  0  0
  -19.4219  -28.1573   22.2876 C   0  0  0  0  0  0  0  0  0  0  0  0
  -25.3595  -26.4060   22.8317 C   0  0  0  0  0  0  0  0  0  0  0  0
  -28.8888  -21.0196   23.2327 C   0  0  0  0  0  0  0  0  0  0  0  0
  -29.3458  -21.8818   21.0226 C   0  0  0  0  0  0  0  0  0  0  0  0
  -29.7221  -19.9299   22.9799 C   0  0  0  0  0  0  0  0  0  0  0  0
  -30.1791  -20.7921   20.7698 C   0  0  0  0  0  0  0  0  0  0  0  0
  -30.3673  -19.8161   21.7484 C   0  0  0  0  0  0  0  0  0  0  0  0
  -22.3946   -7.9471   21.3709 C   0  0  0  0  0  0  0  0  0  0  0  0
  -25.7889  -24.8444   21.0187 C   0  0  0  0  0  0  0  0  0  0  0  0
  -21.8061   -5.8817   22.3248 C   0  0  0  0  0  0  0  0  0  0  0  0
  -22.1467   -3.9931   24.3496 C   0  0  0  0  0  0  0  0  0  0  0  0
  -21.5673   -6.2329   23.6535 C   0  0  0  0  0  0  0  0  0  0  0  0
  -24.7519  -11.4563   21.5342 C   0  0  0  0  0  0  0  0  0  0  0  0
  -25.8151  -13.2643   22.1943 C   0  0  0  0  0  0  0  0  0  0  0  0
  -24.5451  -12.1116   24.0127 C   0  0  0  0  0  0  0  0  0  0  0  0
  -22.8103  -28.4877   23.7238 C   0  0  0  0  0  0  0  0  0  0  0  0
  -30.2130  -14.8803   19.1385 C   0  0  0  0  0  0  0  0  0  0  0  0
  -25.3259  -28.9023   25.7292 C   0  0  0  0  0  0  0  0  0  0  0  0
  -28.5309  -28.0799   26.5651 C   0  0  0  0  0  0  0  0  0  0  0  0
  -17.7960  -29.4429   23.7690 C   0  0  0  0  0  0  0  0  0  0  0  0
  -23.3600  -26.1059   24.3405 C   0  0  0  0  0  0  0  0  0  0  0  0
  -25.7802  -27.6335   23.5963 C   0  0  0  0  0  0  0  0  0  0  0  0
  -19.0252  -30.0285   24.4593 C   0  0  0  0  0  0  0  0  0  0  0  0
  -27.0519  -14.5811   17.4778 C   0  0  0  0  0  0  0  0  0  0  0  0
  -20.1274  -30.3057   23.4419 C   0  0  0  0  0  0  0  0  0  0  0  0
  -26.2022  -13.7816   18.4647 C   0  0  0  0  0  0  0  0  0  0  0  0
  -28.5104  -14.1350   17.5076 C   0  0  0  0  0  0  0  0  0  0  0  0
  -28.2845  -13.3834   19.8540 C   0  0  0  0  0  0  0  0  0  0  0  0
  -20.5803  -29.0127   22.7530 C   0  0  1  0  0  0  0  0  0  0  0  0
  -23.5175  -27.5821   24.6918 C   0  0  1  0  0  0  0  0  0  0  0  0
  -26.8100  -13.8234   19.8779 C   0  0  2  0  0  0  0  0  0  0  0  0
  -30.8761  -19.3451   25.1277 C   0  0  0  0  0  0  0  0  0  0  0  0
  -32.3430  -21.0596   19.5318 C   0  0  0  0  0  0  0  0  0  0  0  0
  -31.5936  -13.6493   20.7523 C   0  0  0  0  0  0  0  0  0  0  0  0
  -30.3304  -28.6116   28.2314 C   0  0  0  0  0  0  0  0  0  0  0  0
  -28.1259  -23.4416   17.7281 C   0  0  0  0  0  0  0  0  0  0  0  0
  -25.8846  -31.5306   24.2836 C   0  0  0  0  0  0  0  0  0  0  0  0
  -28.1664  -31.5317   25.3139 C   0  0  0  0  0  0  0  0  0  0  0  0
  -26.1427  -31.6317   26.7691 C   0  0  0  0  0  0  0  0  0  0  0  0
  -28.6023  -25.2907   27.5521 C   0  0  0  0  0  0  0  0  0  0  0  0
  -23.7247  -19.2901   23.0149 C   0  0  0  0  0  0  0  0  0  0  0  0
  -23.8506  -20.7530   25.0260 C   0  0  0  0  0  0  0  0  0  0  0  0
  -28.1867  -21.1654   24.5431 C   0  0  0  0  0  0  0  0  0  0  0  0
  -29.1245  -22.9512   19.9806 C   0  0  0  0  0  0  0  0  0  0  0  0
  -29.9219  -18.8844   24.0313 C   0  0  0  0  0  0  0  0  0  0  0  0
  -30.8704  -20.6731   19.4484 C   0  0  0  0  0  0  0  0  0  0  0  0
  -31.2607  -18.6469   21.4771 C   0  0  0  0  0  0  0  0  0  0  0  0
  -26.6583  -21.3185   24.4313 C   0  0  0  0  0  0  0  0  0  0  0  0
  -30.5116  -17.3377   21.1752 C   0  0  0  0  0  0  0  0  0  0  0  0
  -31.4581  -16.1634   20.8884 C   0  0  0  0  0  0  0  0  0  0  0  0
  -25.9307  -20.1321   23.8062 C   0  0  0  0  0  0  0  0  0  0  0  0
  -26.5940  -23.0420   19.6923 C   0  0  0  0  0  0  0  0  0  1  0  0
  -30.6990  -14.8702   20.5660 C   0  0  1  0  0  0  0  0  0  0  0  0
  -26.7188  -29.4685   25.5942 C   0  0  1  0  0  0  0  0  0  0  0  0
  -29.1598  -27.7013   27.8938 C   0  0  2  0  0  0  0  0  0  0  0  0
  -27.9343  -22.6720   19.0412 C   0  0  1  0  0  0  0  0  0  0  0  0
  -26.7194  -31.0187   25.4744 C   0  0  0  0  0  0  0  0  0  0  0  0
  -25.3545  -11.9111   20.4323 N   0  0  0  0  0  0  0  0  0  0  0  0
  -25.9929  -13.0114   20.8659 N   0  0  0  0  0  0  0  0  0  0  0  0
  -24.9181  -28.0077   24.7296 N   0  0  0  0  0  0  0  0  0  0  0  0
  -29.0443  -14.1674   18.8704 N   0  0  0  0  0  0  0  0  0  0  0  0
  -26.3868  -14.3304   22.7935 N   0  0  0  0  0  0  0  0  0  0  0  0
  -23.7182  -11.0230   24.3217 N   0  0  0  0  0  0  0  0  0  0  0  0
  -21.4519  -28.2543   23.6245 N   0  0  0  0  0  0  0  0  0  0  0  0
  -27.4794  -28.9566   26.7291 N   0  0  0  0  0  0  0  0  0  0  0  0
  -29.6543  -26.2961   27.8512 N   0  3  0  0  0  0  0  0  0  0  0  0
  -24.4789  -20.4059   23.6976 N   0  3  0  0  0  0  0  0  0  0  0  0
  -24.8459  -12.9296   24.9148 O   0  0  0  0  0  0  0  0  0  0  0  0
  -23.4494  -29.3366   23.1132 O   0  0  0  0  0  0  0  0  0  0  0  0
  -30.8527  -15.5060   18.2892 O   0  0  0  0  0  0  0  0  0  0  0  0
  -24.6282  -29.2357   26.6903 O   0  0  0  0  0  0  0  0  0  0  0  0
  -28.9346  -27.6445   25.4890 O   0  0  0  0  0  0  0  0  0  0  0  0
  -21.6367   -6.8178   21.3185 O   0  0  0  0  0  0  0  0  0  0  0  0
  -26.5586  -24.4410   19.9714 O   0  0  0  0  0  0  0  0  0  1  0  0
  -22.3088   -3.0858   25.3216 F   0  0  0  0  0  0  0  0  0  0  0  0
  -21.1731   -7.4757   23.9633 F   0  0  0  0  0  0  0  0  0  0  0  0
  1  2  1  0  0  0  0
  1  5  2  0  0  0  0
  2  6  2  0  0  0  0
  3  8  2  0  0  0  0
  3 16  1  0  0  0  0
  4  9  1  0  0  0  0
  4 16  2  0  0  0  0
  5 18  1  0  0  0  0
  6 20  1  0  0  0  0
  7 10  2  0  0  0  0
  7 19  1  0  0  0  0
  8 27  1  0  0  0  0
  9 27  2  0  0  0  0
 10 28  1  0  0  0  0
 11 12  2  0  0  0  0
 11 29  1  0  0  0  0
 12 30  1  0  0  0  0
 13 21  1  0  0  0  0
 13 28  2  0  0  0  0
 14 22  2  0  0  0  0
 14 23  1  0  0  0  0
 15 30  2  0  0  0  0
 15 31  1  0  0  0  0
 16 32  1  0  0  0  0
 17 32  1  0  0  0  0
 17 33  2  0  0  0  0
 17 34  1  0  0  0  0
 18 20  2  0  0  0  0
 18 39  1  0  0  0  0
 19 21  2  0  0  0  0
 19 40  1  0  0  0  0
 20 48  1  0  0  0  0
 21 41  1  0  0  0  0
 22 24  1  0  0  0  0
 22 62  1  0  0  0  0
 23 25  2  0  0  0  0
 23 63  1  0  0  0  0
 24 26  2  0  0  0  0
 24 64  1  0  0  0  0
 25 26  1  0  0  0  0
 25 65  1  0  0  0  0
 26 66  1  0  0  0  0
 27 92  1  0  0  0  0
 28 93  1  0  0  0  0
 29 31  2  0  0  0  0
 29 92  1  0  0  0  0
 30 94  1  0  0  0  0
 31 95  1  0  0  0  0
 32 77  2  0  0  0  0
 33 78  1  0  0  0  0
 33 81  1  0  0  0  0
 34 82  1  0  0  0  0
 34 87  2  0  0  0  0
 35 49  1  0  0  0  0
 35 83  1  0  0  0  0
 35 88  2  0  0  0  0
 36 72  1  0  0  0  0
 36 80  1  0  0  0  0
 36 89  2  0  0  0  0
 37 73  1  0  0  0  0
 37 79  1  0  0  0  0
 37 90  2  0  0  0  0
 38 74  1  0  0  0  0
 38 84  1  0  0  0  0
 38 91  2  0  0  0  0
 39 42  1  0  0  0  0
 40 49  1  0  0  0  0
 41 79  1  0  0  0  0
 42 44  1  0  0  0  0
 43 45  1  0  0  0  0
 43 46  1  0  0  0  0
 44 48  1  0  0  0  0
 45 50  1  0  0  0  0
 46 80  1  0  0  0  0
 47 50  1  0  0  0  0
 47 80  1  0  0  0  0
 48 83  1  0  0  0  0
 49 79  1  0  0  0  0
 50 78  1  0  0  0  0
 51 64  1  0  0  0  0
 52 65  1  0  0  0  0
 53 72  1  0  0  0  0
 54 74  1  0  0  0  0
 55 75  1  0  0  0  0
 56 76  1  0  0  0  0
 57 76  1  0  0  0  0
 58 76  1  0  0  0  0
 59 85  1  0  0  0  0
 60 86  1  0  0  0  0
 61 86  1  0  0  0  0
 62 67  1  0  0  0  0
 63 75  1  0  0  0  0
 66 68  1  0  0  0  0
 67 70  1  0  0  0  0
 68 69  1  0  0  0  0
 69 72  1  0  0  0  0
 70 86  1  0  0  0  0
 71 75  1  0  0  0  0
 71 93  1  0  0  0  0
 73 76  1  0  0  0  0
 73 84  1  0  0  0  0
 74 85  1  0  0  0  0
 77 78  1  0  0  0  0
M  CHG  2  85   1  86   1
M  ISO  4  36 100  71 101  72 100  93 101
M  END
> <Batch ID>
0092

> <Smiles>
CCc1c(CCCN(C)C)cc(CC(C)[101CH2:1][101O:1]c2ccc3c(c2)CN(C(=O)C(NC(=O)C(C)NC)C(C)(C)C)C(C(=O)NC2CCCc4ccccc42)C3)c(CC)c1CCC[100CH:0](C)[100C:0](=O)N1CCCC(n2nc(-c3ccc(Oc4ccc(F)cc4F)cc3)c(C(N)=O)c2N)C1

> <Shape>
0.285

> <Color>
0.111

> <Negative vol penalty>
0.000

$$$$

  -OEChem-04052319143D

 83 91  0     1  0  0  0  0  0999 V2000
  -21.6653  -11.8397   21.0825 C   0  0  0  0  0  0  0  0  0  0  0  0
  -21.8166  -13.0562   21.7403 C   0  0  0  0  0  0  0  0  0  0  0  0
  -24.9962  -28.0745   19.1148 C   0  0  0  0  0  0  0  0  0  0  0  0
  -25.7563  -27.9334   21.4038 C   0  0  0  0  0  0  0  0  0  0  0  0
  -22.7669  -11.2316   20.4820 C   0  0  0  0  0  0  0  0  0  0  0  0
  -23.0699  -13.6648   21.7987 C   0  0  0  0  0  0  0  0  0  0  0  0
  -22.8678  -18.6272   20.8094 C   0  0  0  0  0  0  0  0  0  0  0  0
  -26.1804  -28.7213   18.7615 C   0  0  0  0  0  0  0  0  0  0  0  0
  -26.9405  -28.5802   21.0505 C   0  0  0  0  0  0  0  0  0  0  0  0
  -22.4223  -19.4628   21.8326 C   0  0  0  0  0  0  0  0  0  0  0  0
  -30.3186  -29.8722   20.6803 C   0  0  0  0  0  0  0  0  0  0  0  0
  -31.5150  -29.3513   21.1732 C   0  0  0  0  0  0  0  0  0  0  0  0
  -24.7074  -20.0354   22.3518 C   0  0  0  0  0  0  0  0  0  0  0  0
  -18.9803  -22.7766   26.2015 C   0  0  0  0  0  0  0  0  0  0  0  0
  -31.0650  -27.2583   20.0534 C   0  0  0  0  0  0  0  0  0  0  0  0
  -16.9456  -22.5748   24.9866 C   0  0  0  0  0  0  0  0  0  0  0  0
  -24.7841  -27.6806   20.4361 C   0  0  0  0  0  0  0  0  0  0  0  0
  -23.3150  -25.6268   20.7982 C   0  0  0  0  0  0  0  0  0  0  0  0
  -24.0323  -11.8377   20.5248 C   0  0  0  0  0  0  0  0  0  0  0  0
  -24.2393  -18.4807   20.5563 C   0  0  0  0  0  0  0  0  0  0  0  0
  -24.1896  -13.0636   21.1993 C   0  0  0  0  0  0  0  0  0  0  0  0
  -25.1677  -19.1993   21.3231 C   0  0  0  0  0  0  0  0  0  0  0  0
  -17.8229  -23.3683   25.7081 C   0  0  0  0  0  0  0  0  0  0  0  0
  -19.2217  -21.4284   25.9618 C   0  0  0  0  0  0  0  0  0  0  0  0
  -27.1526  -28.9741   19.7293 C   0  0  0  0  0  0  0  0  0  0  0  0
  -23.3423  -20.1648   22.6059 C   0  0  0  0  0  0  0  0  0  0  0  0
  -29.4954  -29.0862   19.8740 C   0  0  0  0  0  0  0  0  0  0  0  0
  -31.8882  -28.0443   20.8598 C   0  0  0  0  0  0  0  0  0  0  0  0
  -29.8686  -27.7792   19.5606 C   0  0  0  0  0  0  0  0  0  0  0  0
  -23.5608  -27.0129   20.8018 C   0  0  0  0  0  0  0  0  0  0  0  0
  -18.2818  -20.7217   25.2291 C   0  0  0  0  0  0  0  0  0  0  0  0
  -22.0145  -25.5076   21.2236 C   0  0  0  0  0  0  0  0  0  0  0  0
  -24.1845  -24.5438   20.4423 C   0  0  0  0  0  0  0  0  0  0  0  0
  -26.2886  -16.0523   20.6386 C   0  0  0  0  0  0  0  0  0  0  0  0
  -28.3344  -18.2451   19.4023 C   0  0  0  0  0  0  0  0  0  0  0  0
  -29.1652  -21.5311   19.0036 C   0  0  0  0  0  0  0  0  0  0  0  0
  -17.8806  -26.9222   24.6957 C   0  0  0  0  0  0  0  0  0  0  0  0
  -25.2029  -11.1192   19.9017 C   0  0  0  0  0  0  0  0  0  0  0  0
  -24.7025  -17.5961   19.4315 C   0  0  0  0  0  0  0  0  0  0  0  0
  -26.6500  -19.0924   21.0786 C   0  0  0  0  0  0  0  0  0  0  0  0
  -26.4215  -12.0129   19.6862 C   0  0  0  0  0  0  0  0  0  0  0  0
  -18.4265  -29.0145   21.8671 C   0  0  0  0  0  0  0  0  0  0  0  0
  -26.7049  -12.8398   20.9362 C   0  0  0  0  0  0  0  0  0  0  0  0
  -19.7927  -28.5703   21.3417 C   0  0  0  0  0  0  0  0  0  0  0  0
  -18.3673  -28.9719   23.3924 C   0  0  0  0  0  0  0  0  0  0  0  0
  -20.1136  -27.2344   23.4657 C   0  0  0  0  0  0  0  0  0  0  0  0
  -25.5280  -13.7670   21.2629 C   0  0  1  0  0  0  0  0  0  0  0  0
  -26.1442  -17.1252   19.5966 C   0  0  1  0  0  0  0  0  0  0  0  0
  -20.2036  -27.2072   21.9303 C   0  0  2  0  0  0  0  0  0  0  0  0
  -17.5298  -18.7506   23.8741 C   0  0  0  0  0  0  0  0  0  0  0  0
  -30.9131  -23.0106   17.9772 C   0  0  0  0  0  0  0  0  0  0  0  0
  -30.2491  -17.5563   21.6759 C   0  0  0  0  0  0  0  0  0  0  0  0
  -31.4979  -19.6666   21.1706 C   0  0  0  0  0  0  0  0  0  0  0  0
  -31.3434  -17.8681   19.4489 C   0  0  0  0  0  0  0  0  0  0  0  0
  -27.1864  -22.8351   17.2307 C   0  0  0  0  0  0  0  0  0  0  0  0
  -20.4758  -20.7808   26.4923 C   0  0  0  0  0  0  0  0  0  0  0  0
  -17.5348  -24.8076   25.9479 C   0  0  0  0  0  0  0  0  0  0  0  0
  -18.4880  -19.2704   24.9414 C   0  0  0  0  0  0  0  0  0  0  0  0
  -21.7333  -21.1257   25.6914 C   0  0  0  0  0  0  0  0  0  0  0  0
  -21.6891  -20.6245   24.2526 C   0  0  0  0  0  0  0  0  0  1  0  0
  -29.2970  -19.2544   19.9801 C   0  0  1  0  0  0  0  0  0  0  0  0
  -29.5703  -22.3258   17.7753 C   0  0  2  0  0  0  0  0  0  0  0  0
  -30.5691  -18.5871   20.5750 C   0  0  0  0  0  0  0  0  0  0  0  0
  -17.1460  -21.2620   24.7335 N   0  0  0  0  0  0  0  0  0  0  0  0
  -22.5014  -27.7234   21.1979 N   0  0  0  0  0  0  0  0  0  0  0  0
  -21.5773  -26.7800   21.4471 N   0  0  0  0  0  0  0  0  0  0  0  0
  -27.0536  -18.2098   19.9715 N   0  0  0  0  0  0  0  0  0  0  0  0
  -18.7670  -27.6520   23.8864 N   0  0  0  0  0  0  0  0  0  0  0  0
  -21.2137  -24.4395   21.4245 N   0  0  0  0  0  0  0  0  0  0  0  0
  -25.4891  -24.8432   20.0268 N   0  0  0  0  0  0  0  0  0  0  0  0
  -25.5359  -14.9207   20.3891 N   0  0  0  0  0  0  0  0  0  0  0  0
  -29.5681  -20.2154   18.9164 N   0  0  0  0  0  0  0  0  0  0  0  0
  -18.3351  -25.6781   25.1157 N   0  0  0  0  0  0  0  0  0  0  0  0
  -28.5506  -23.3703   17.4746 N   0  3  0  0  0  0  0  0  0  0  0  0
  -23.8103  -23.3469   20.4756 O   0  0  0  0  0  0  0  0  0  0  0  0
  -27.0294  -16.2369   21.5972 O   0  0  0  0  0  0  0  0  0  0  0  0
  -28.7031  -17.5199   18.4751 O   0  0  0  0  0  0  0  0  0  0  0  0
  -28.5557  -22.0288   19.9478 O   0  0  0  0  0  0  0  0  0  0  0  0
  -16.7646  -27.3456   25.0155 O   0  0  0  0  0  0  0  0  0  0  0  0
  -28.3083  -29.6051   19.3847 O   0  0  0  0  0  0  0  0  0  0  0  0
  -22.9102  -20.9806   23.6057 O   0  0  0  0  0  0  0  0  0  1  0  0
  -33.0378  -27.5448   21.3319 F   0  0  0  0  0  0  0  0  0  0  0  0
  -29.0824  -27.0196   18.7854 F   0  0  0  0  0  0  0  0  0  0  0  0
  1  2  1  0  0  0  0
  1  5  2  0  0  0  0
  2  6  2  0  0  0  0
  3  8  2  0  0  0  0
  3 17  1  0  0  0  0
  4  9  1  0  0  0  0
  4 17  2  0  0  0  0
  5 19  1  0  0  0  0
  6 21  1  0  0  0  0
  7 10  2  0  0  0  0
  7 20  1  0  0  0  0
  8 25  1  0  0  0  0
  9 25  2  0  0  0  0
 10 26  1  0  0  0  0
 11 12  2  0  0  0  0
 11 27  1  0  0  0  0
 12 28  1  0  0  0  0
 13 22  1  0  0  0  0
 13 26  2  0  0  0  0
 14 23  2  0  0  0  0
 14 24  1  0  0  0  0
 15 28  2  0  0  0  0
 15 29  1  0  0  0  0
 16 23  1  0  0  0  0
 16 64  2  0  0  0  0
 17 30  1  0  0  0  0
 18 30  1  0  0  0  0
 18 32  2  0  0  0  0
 18 33  1  0  0  0  0
 19 21  2  0  0  0  0
 19 38  1  0  0  0  0
 20 22  2  0  0  0  0
 20 39  1  0  0  0  0
 21 47  1  0  0  0  0
 22 40  1  0  0  0  0
 23 57  1  0  0  0  0
 24 31  2  0  0  0  0
 24 56  1  0  0  0  0
 25 80  1  0  0  0  0
 26 81  1  0  0  0  0
 27 29  2  0  0  0  0
 27 80  1  0  0  0  0
 28 82  1  0  0  0  0
 29 83  1  0  0  0  0
 30 65  2  0  0  0  0
 31 58  1  0  0  0  0
 31 64  1  0  0  0  0
 32 66  1  0  0  0  0
 32 69  1  0  0  0  0
 33 70  1  0  0  0  0
 33 75  2  0  0  0  0
 34 48  1  0  0  0  0
 34 71  1  0  0  0  0
 34 76  2  0  0  0  0
 35 61  1  0  0  0  0
 35 67  1  0  0  0  0
 35 77  2  0  0  0  0
 36 62  1  0  0  0  0
 36 72  1  0  0  0  0
 36 78  2  0  0  0  0
 37 68  1  0  0  0  0
 37 73  1  0  0  0  0
 37 79  2  0  0  0  0
 38 41  1  0  0  0  0
 39 48  1  0  0  0  0
 40 67  1  0  0  0  0
 41 43  1  0  0  0  0
 42 44  1  0  0  0  0
 42 45  1  0  0  0  0
 43 47  1  0  0  0  0
 44 49  1  0  0  0  0
 45 68  1  0  0  0  0
 46 49  1  0  0  0  0
 46 68  1  0  0  0  0
 47 71  1  0  0  0  0
 48 67  1  0  0  0  0
 49 66  1  0  0  0  0
 50 58  1  0  0  0  0
 51 62  1  0  0  0  0
 52 63  1  0  0  0  0
 53 63  1  0  0  0  0
 54 63  1  0  0  0  0
 55 74  1  0  0  0  0
 56 59  1  0  0  0  0
 57 73  1  0  0  0  0
 59 60  1  0  0  0  0
 60 81  1  0  0  0  0
 61 63  1  0  0  0  0
 61 72  1  0  0  0  0
 62 74  1  0  0  0  0
 65 66  1  0  0  0  0
M  CHG  1  74   1
M  ISO  4  37 100  60 101  73 100  81 101
M  END
> <Batch ID>
0092

> <Smiles>
CCc1ncc(C[100NH:0][100C:0](=O)N2CCCC(n3nc(-c4ccc(Oc5ccc(F)cc5F)cc4)c(C(N)=O)c3N)C2)cc1CC[101CH2:1][101O:1]c1ccc2c(c1)CN(C(=O)C(NC(=O)C(C)NC)C(C)(C)C)C(C(=O)NC1CCCc3ccccc31)C2

> <Shape>
0.211

> <Color>
0.073

> <Negative vol penalty>
0.000

$$$$

  -OEChem-04052319143D

 90 98  0     1  0  0  0  0  0999 V2000
  -16.2806  -30.3661   26.3700 C   0  0  0  0  0  0  0  0  0  0  0  0
  -17.2888  -29.5742   26.9101 C   0  0  0  0  0  0  0  0  0  0  0  0
  -26.8420  -13.7632   21.9401 C   0  0  0  0  0  0  0  0  0  0  0  0
  -26.3217  -13.9281   19.5866 C   0  0  0  0  0  0  0  0  0  0  0  0
  -16.1891  -30.5300   24.9884 C   0  0  0  0  0  0  0  0  0  0  0  0
  -18.2056  -28.9448   26.0688 C   0  0  0  0  0  0  0  0  0  0  0  0
  -25.0618  -26.8827   25.8296 C   0  0  0  0  0  0  0  0  0  0  0  0
  -25.9883  -12.6658   22.0520 C   0  0  0  0  0  0  0  0  0  0  0  0
  -25.4681  -12.8306   19.6984 C   0  0  0  0  0  0  0  0  0  0  0  0
  -25.8390  -25.7558   25.5654 C   0  0  0  0  0  0  0  0  0  0  0  0
  -26.0735   -9.3611   21.3417 C   0  0  0  0  0  0  0  0  0  0  0  0
  -26.5303   -8.2549   22.0582 C   0  0  0  0  0  0  0  0  0  0  0  0
  -25.6314  -26.1749   23.1988 C   0  0  0  0  0  0  0  0  0  0  0  0
  -31.2843  -24.8855   19.4875 C   0  0  0  0  0  0  0  0  0  0  0  0
  -24.6820   -8.4882   23.5966 C   0  0  0  0  0  0  0  0  0  0  0  0
  -27.0086  -14.3944   20.7074 C   0  0  0  0  0  0  0  0  0  0  0  0
  -29.2640  -15.5095   20.2861 C   0  0  0  0  0  0  0  0  0  0  0  0
  -17.1111  -29.9101   24.1303 C   0  0  0  0  0  0  0  0  0  0  0  0
  -24.5536  -27.6593   24.7783 C   0  0  0  0  0  0  0  0  0  0  0  0
  -18.1256  -29.0994   24.6744 C   0  0  0  0  0  0  0  0  0  0  0  0
  -24.8502  -27.3126   23.4524 C   0  0  0  0  0  0  0  0  0  0  0  0
  -31.5967  -23.5330   19.4073 C   0  0  0  0  0  0  0  0  0  0  0  0
  -31.0633  -25.4698   20.7297 C   0  0  0  0  0  0  0  0  0  0  0  0
  -25.3014  -12.1995   20.9311 C   0  0  0  0  0  0  0  0  0  0  0  0
  -26.1215  -25.4000   24.2498 C   0  0  0  0  0  0  0  0  0  0  0  0
  -24.9211  -10.0309   21.7527 C   0  0  0  0  0  0  0  0  0  0  0  0
  -25.8345   -7.8184   23.1856 C   0  0  0  0  0  0  0  0  0  0  0  0
  -24.2253   -9.5944   22.8801 C   0  0  0  0  0  0  0  0  0  0  0  0
  -27.8899  -15.5284   20.5914 C   0  0  0  0  0  0  0  0  0  0  0  0
  -31.6755  -22.8144   20.5893 C   0  0  0  0  0  0  0  0  0  0  0  0
  -31.1658  -24.6644   21.8525 C   0  0  0  0  0  0  0  0  0  0  0  0
  -29.6361  -16.8316   20.2956 C   0  0  0  0  0  0  0  0  0  0  0  0
  -30.1269  -14.3963   20.0179 C   0  0  0  0  0  0  0  0  0  0  0  0
  -21.6417  -28.4259   23.7600 C   0  0  0  0  0  0  0  0  0  0  0  0
  -23.2830  -30.3413   21.7205 C   0  0  0  0  0  0  0  0  0  0  0  0
  -26.1985  -30.9926   20.0705 C   0  0  0  0  0  0  0  0  0  0  0  0
  -28.7068  -22.1590   18.9172 C   0  0  0  0  0  0  0  0  0  0  0  0
  -16.9434  -30.0785   22.6409 C   0  0  0  0  0  0  0  0  0  0  0  0
  -23.7391  -28.8871   25.0807 C   0  0  0  0  0  0  0  0  0  0  0  0
  -24.3455  -28.1246   22.2886 C   0  0  0  0  0  0  0  0  0  0  0  0
  -18.1803  -29.6802   21.8399 C   0  0  0  0  0  0  0  0  0  0  0  0
  -27.1466  -20.9411   21.8769 C   0  0  0  0  0  0  0  0  0  0  0  0
  -18.7229  -28.3402   22.3265 C   0  0  0  0  0  0  0  0  0  0  0  0
  -27.3088  -19.4233   21.7778 C   0  0  0  0  0  0  0  0  0  0  0  0
  -26.9010  -21.5730   20.5085 C   0  0  0  0  0  0  0  0  0  0  0  0
  -28.0652  -19.7158   19.3817 C   0  0  0  0  0  0  0  0  0  0  0  0
  -19.1539  -28.4203   23.7959 C   0  0  1  0  0  0  0  0  0  0  0  0
  -22.8448  -29.3117   23.9199 C   0  0  1  0  0  0  0  0  0  0  0  0
  -28.3706  -19.0400   20.7294 C   0  0  2  0  0  0  0  0  0  0  0  0
  -31.7394  -20.6800   21.9035 C   0  0  0  0  0  0  0  0  0  0  0  0
  -29.4064  -27.2614   20.0985 C   0  0  0  0  0  0  0  0  0  0  0  0
  -31.8589  -27.8178   20.2734 C   0  0  0  0  0  0  0  0  0  0  0  0
  -27.2243  -32.6068   18.4458 C   0  0  0  0  0  0  0  0  0  0  0  0
  -27.5218  -22.5669   25.5162 C   0  0  0  0  0  0  0  0  0  0  0  0
  -21.7461  -29.0192   19.4402 C   0  0  0  0  0  0  0  0  0  0  0  0
  -23.4422  -29.9492   17.8507 C   0  0  0  0  0  0  0  0  0  0  0  0
  -22.0308  -31.4931   19.2098 C   0  0  0  0  0  0  0  0  0  0  0  0
  -32.0617  -25.8336   23.8502 C   0  0  0  0  0  0  0  0  0  0  0  0
  -28.2651  -31.8214   22.0202 C   0  0  0  0  0  0  0  0  0  0  0  0
  -31.8346  -22.9012   18.0793 C   0  0  0  0  0  0  0  0  0  0  0  0
  -32.0079  -21.3584   20.5636 C   0  0  0  0  0  0  0  0  0  0  0  0
  -29.2600  -23.9623   24.3279 C   0  0  0  0  0  0  0  0  0  0  0  0
  -30.5467  -22.5864   17.3075 C   0  0  0  0  0  0  0  0  0  0  0  0
  -29.6242  -25.3030   23.6899 C   0  0  0  0  0  0  0  0  0  0  0  0
  -30.7285  -26.9203   20.8121 C   0  0  0  0  0  0  0  0  0  0  0  0
  -23.8708  -30.1778   20.3396 C   0  0  1  0  0  0  0  0  0  0  0  0
  -27.0026  -32.2704   19.9123 C   0  0  2  0  0  0  0  0  0  0  0  0
  -27.8621  -23.9436   24.9604 C   0  0  1  0  0  0  0  0  0  1  0  0
  -22.7805  -30.1432   19.2317 C   0  0  0  0  0  0  0  0  0  0  0  0
  -27.4209  -16.7646   20.7812 N   0  0  0  0  0  0  0  0  0  0  0  0
  -31.4674  -23.3471   21.8142 N   0  0  0  0  0  0  0  0  0  0  0  0
  -28.5064  -17.5346   20.5947 N   0  0  0  0  0  0  0  0  0  0  0  0
  -23.5481  -29.3126   22.6355 N   0  0  0  0  0  0  0  0  0  0  0  0
  -27.9437  -21.1711   19.5612 N   0  0  0  0  0  0  0  0  0  0  0  0
  -30.8163  -17.4496   20.0773 N   0  0  0  0  0  0  0  0  0  0  0  0
  -29.5816  -13.1056   20.0487 N   0  0  0  0  0  0  0  0  0  0  0  0
  -20.4354  -29.0827   23.9114 N   0  0  0  0  0  0  0  0  0  0  0  0
  -24.8484  -31.2493   20.1827 N   0  0  0  0  0  0  0  0  0  0  0  0
  -29.6780  -21.6922   18.0400 N   0  0  0  0  0  0  0  0  0  0  0  0
  -30.9434  -25.2489   23.1076 N   0  0  3  0  0  0  0  0  0  0  0  0
  -28.3332  -32.1298   20.5685 N   0  3  0  0  0  0  0  0  0  0  0  0
  -31.3490  -14.5408   19.7746 O   0  0  0  0  0  0  0  0  0  0  0  0
  -21.7964  -27.2350   23.5159 O   0  0  0  0  0  0  0  0  0  0  0  0
  -22.6193  -31.3482   21.9799 O   0  0  0  0  0  0  0  0  0  0  0  0
  -26.7159  -29.8779   20.0887 O   0  0  0  0  0  0  0  0  0  0  0  0
  -28.5388  -23.3673   19.1137 O   0  0  0  0  0  0  0  0  0  0  0  0
  -24.4685  -11.1285   21.0398 O   0  0  0  0  0  0  0  0  0  0  0  0
  -26.8793  -24.3002   23.9892 O   0  0  0  0  0  0  0  0  0  1  0  0
  -26.2723   -6.7552   23.8726 F   0  0  0  0  0  0  0  0  0  0  0  0
  -23.1168  -10.2331   23.2791 F   0  0  0  0  0  0  0  0  0  0  0  0
  1  2  1  0  0  0  0
  1  5  2  0  0  0  0
  2  6  2  0  0  0  0
  3  8  2  0  0  0  0
  3 16  1  0  0  0  0
  4  9  1  0  0  0  0
  4 16  2  0  0  0  0
  5 18  1  0  0  0  0
  6 20  1  0  0  0  0
  7 10  2  0  0  0  0
  7 19  1  0  0  0  0
  8 24  1  0  0  0  0
  9 24  2  0  0  0  0
 10 25  1  0  0  0  0
 11 12  2  0  0  0  0
 11 26  1  0  0  0  0
 12 27  1  0  0  0  0
 13 21  1  0  0  0  0
 13 25  2  0  0  0  0
 14 22  1  0  0  0  0
 14 23  2  0  0  0  0
 15 27  2  0  0  0  0
 15 28  1  0  0  0  0
 16 29  1  0  0  0  0
 17 29  1  0  0  0  0
 17 32  2  0  0  0  0
 17 33  1  0  0  0  0
 18 20  2  0  0  0  0
 18 38  1  0  0  0  0
 19 21  2  0  0  0  0
 19 39  1  0  0  0  0
 20 47  1  0  0  0  0
 21 40  1  0  0  0  0
 22 30  2  0  0  0  0
 22 60  1  0  0  0  0
 23 31  1  0  0  0  0
 23 65  1  0  0  0  0
 24 87  1  0  0  0  0
 25 88  1  0  0  0  0
 26 28  2  0  0  0  0
 26 87  1  0  0  0  0
 27 89  1  0  0  0  0
 28 90  1  0  0  0  0
 29 70  2  0  0  0  0
 30 61  1  0  0  0  0
 30 71  1  0  0  0  0
 31 71  2  0  0  0  0
 31 80  1  0  0  0  0
 32 72  1  0  0  0  0
 32 75  1  0  0  0  0
 33 76  1  0  0  0  0
 33 82  2  0  0  0  0
 34 48  1  0  0  0  0
 34 77  1  0  0  0  0
 34 83  2  0  0  0  0
 35 66  1  0  0  0  0
 35 73  1  0  0  0  0
 35 84  2  0  0  0  0
 36 67  1  0  0  0  0
 36 78  1  0  0  0  0
 36 85  2  0  0  0  0
 37 74  1  0  0  0  0
 37 79  1  0  0  0  0
 37 86  2  0  0  0  0
 38 41  1  0  0  0  0
 39 48  1  0  0  0  0
 40 73  1  0  0  0  0
 41 43  1  0  0  0  0
 42 44  1  0  0  0  0
 42 45  1  0  0  0  0
 43 47  1  0  0  0  0
 44 49  1  0  0  0  0
 45 74  1  0  0  0  0
 46 49  1  0  0  0  0
 46 74  1  0  0  0  0
 47 77  1  0  0  0  0
 48 73  1  0  0  0  0
 49 72  1  0  0  0  0
 50 61  1  0  0  0  0
 51 65  1  0  0  0  0
 52 65  1  0  0  0  0
 53 67  1  0  0  0  0
 54 68  1  0  0  0  0
 55 69  1  0  0  0  0
 56 69  1  0  0  0  0
 57 69  1  0  0  0  0
 58 80  1  0  0  0  0
 59 81  1  0  0  0  0
 60 63  1  0  0  0  0
 62 64  1  0  0  0  0
 62 68  1  0  0  0  0
 63 79  1  0  0  0  0
 64 80  1  0  0  0  0
 66 69  1  0  0  0  0
 66 78  1  0  0  0  0
 67 81  1  0  0  0  0
 68 88  1  0  0  0  0
 70 72  1  0  0  0  0
M  CHG  1  81   1
M  ISO  4  37 100  68 101  79 100  88 101
M  END
> <Batch ID>
0092

> <Smiles>
CCc1nc(N(C)CC[101CH:1](C)[101O:1]c2ccc3c(c2)CN(C(=O)C(NC(=O)C(C)NC)C(C)(C)C)C(C(=O)NC2CCCc4ccccc42)C3)c(C(C)C)cc1CC[100NH:0][100C:0](=O)N1CCCC(n2nc(-c3ccc(Oc4ccc(F)cc4F)cc3)c(C(N)=O)c2N)C1

> <Shape>
0.252

> <Color>
0.065

> <Negative vol penalty>
0.000

$$$$

  -OEChem-04052319143D

 83 91  0     1  0  0  0  0  0999 V2000
  -29.8380  -23.6125   16.5221 C   0  0  0  0  0  0  0  0  0  0  0  0
  -28.6146  -23.1300   16.9732 C   0  0  0  0  0  0  0  0  0  0  0  0
  -24.1873  -11.8957   19.7396 C   0  0  0  0  0  0  0  0  0  0  0  0
  -25.2679  -12.0452   21.8953 C   0  0  0  0  0  0  0  0  0  0  0  0
  -30.4518  -24.6733   17.1849 C   0  0  0  0  0  0  0  0  0  0  0  0
  -27.9989  -23.7158   18.0798 C   0  0  0  0  0  0  0  0  0  0  0  0
  -22.8929  -22.1965   21.0376 C   0  0  0  0  0  0  0  0  0  0  0  0
  -24.2305  -10.5035   19.8145 C   0  0  0  0  0  0  0  0  0  0  0  0
  -25.3112  -10.6530   21.9702 C   0  0  0  0  0  0  0  0  0  0  0  0
  -22.5310  -21.4027   22.1250 C   0  0  0  0  0  0  0  0  0  0  0  0
  -23.1850   -8.1329   22.7113 C   0  0  0  0  0  0  0  0  0  0  0  0
  -22.8139   -7.5384   23.9173 C   0  0  0  0  0  0  0  0  0  0  0  0
  -22.5619  -23.3496   23.5489 C   0  0  0  0  0  0  0  0  0  0  0  0
  -25.0075   -6.5427   24.1015 C   0  0  0  0  0  0  0  0  0  0  0  0
  -25.5471  -21.2411   25.1605 C   0  0  0  0  0  0  0  0  0  0  0  0
  -24.7060  -12.6665   20.7800 C   0  0  0  0  0  0  0  0  0  0  0  0
  -23.6332  -14.9495   21.1605 C   0  0  0  0  0  0  0  0  0  0  0  0
  -29.8486  -25.2636   18.3077 C   0  0  0  0  0  0  0  0  0  0  0  0
  -23.1030  -23.5734   21.2001 C   0  0  0  0  0  0  0  0  0  0  0  0
  -28.5910  -24.8029   18.7478 C   0  0  0  0  0  0  0  0  0  0  0  0
  -22.9239  -24.1592   22.4614 C   0  0  0  0  0  0  0  0  0  0  0  0
  -26.7937  -20.8879   24.6932 C   0  0  0  0  0  0  0  0  0  0  0  0
  -27.0768  -19.5891   25.1830 C   0  0  0  0  0  0  0  0  0  0  0  0
  -24.7924   -9.8822   20.9298 C   0  0  0  0  0  0  0  0  0  0  0  0
  -22.3683  -21.9787   23.3815 C   0  0  0  0  0  0  0  0  0  0  0  0
  -24.4674   -7.9322   22.2003 C   0  0  0  0  0  0  0  0  0  0  0  0
  -23.7251   -6.7434   24.6124 C   0  0  0  0  0  0  0  0  0  0  0  0
  -25.3786   -7.1372   22.8954 C   0  0  0  0  0  0  0  0  0  0  0  0
  -24.6622  -14.1047   20.7030 C   0  0  0  0  0  0  0  0  0  0  0  0
  -25.9944  -19.1880   25.9347 C   0  0  0  0  0  0  0  0  0  0  0  0
  -24.0679  -16.2162   20.8556 C   0  0  0  0  0  0  0  0  0  0  0  0
  -22.3952  -14.6188   21.8036 C   0  0  0  0  0  0  0  0  0  0  0  0
  -25.5840  -25.5241   20.8216 C   0  0  0  0  0  0  0  0  0  0  0  0
  -23.3779  -27.8186   21.4461 C   0  0  0  0  0  0  0  0  0  0  0  0
  -20.3937  -28.6565   22.8743 C   0  0  0  0  0  0  0  0  0  0  0  0
  -28.0981  -20.0737   20.7045 C   0  0  0  0  0  0  0  0  0  0  0  0
  -30.5532  -26.4140   18.9825 C   0  0  0  0  0  0  0  0  0  0  0  0
  -23.4670  -24.4205   20.0117 C   0  0  0  0  0  0  0  0  0  0  0  0
  -23.1177  -25.6360   22.6847 C   0  0  0  0  0  0  0  0  0  0  0  0
  -30.0461  -26.6742   20.3972 C   0  0  0  0  0  0  0  0  0  0  0  0
  -27.9404  -17.7687   17.9955 C   0  0  0  0  0  0  0  0  0  0  0  0
  -28.5264  -26.7442   20.4001 C   0  0  0  0  0  0  0  0  0  0  0  0
  -26.9940  -16.6772   18.4985 C   0  0  0  0  0  0  0  0  0  0  0  0
  -28.8207  -18.3137   19.1180 C   0  0  0  0  0  0  0  0  0  0  0  0
  -27.1403  -17.6929   20.8106 C   0  0  0  0  0  0  0  0  0  0  0  0
  -27.9172  -25.4044   19.9678 C   0  0  1  0  0  0  0  0  0  0  0  0
  -24.1569  -25.7255   20.3968 C   0  0  1  0  0  0  0  0  0  0  0  0
  -26.1932  -17.1515   19.7261 C   0  0  2  0  0  0  0  0  0  0  0  0
  -28.3055  -18.8068   24.9351 C   0  0  0  0  0  0  0  0  0  0  0  0
  -25.7588  -17.9281   26.6712 C   0  0  0  0  0  0  0  0  0  0  0  0
  -18.8726  -30.6160   23.2536 C   0  0  0  0  0  0  0  0  0  0  0  0
  -25.2416  -28.8382   23.6364 C   0  0  0  0  0  0  0  0  0  0  0  0
  -23.3157  -30.1333   24.5755 C   0  0  0  0  0  0  0  0  0  0  0  0
  -24.1493  -30.6314   22.2777 C   0  0  0  0  0  0  0  0  0  0  0  0
  -18.1906  -27.3877   21.3592 C   0  0  0  0  0  0  0  0  0  0  0  0
  -27.6659  -21.7191   23.8395 C   0  0  0  0  0  0  0  0  0  0  0  0
  -22.6613  -19.3838   25.8659 C   0  0  0  0  0  0  0  0  0  0  0  0
  -23.7313  -20.1890   26.6065 C   0  0  0  0  0  0  0  0  0  0  0  0
  -27.2650  -21.7309   22.3533 C   0  0  0  0  0  0  0  0  0  0  0  0
  -22.4448  -19.8451   24.4293 C   0  0  0  0  0  0  0  0  0  1  0  0
  -22.8626  -28.4951   22.6935 C   0  0  1  0  0  0  0  0  0  0  0  0
  -19.2093  -29.4445   22.3443 C   0  0  2  0  0  0  0  0  0  0  0  0
  -23.8905  -29.4963   23.2923 C   0  0  0  0  0  0  0  0  0  0  0  0
  -25.6743  -14.7779   20.1495 N   0  0  0  0  0  0  0  0  0  0  0  0
  -25.0706  -20.2000   25.9137 N   0  0  0  0  0  0  0  0  0  0  0  0
  -25.2834  -16.0592   20.2571 N   0  0  0  0  0  0  0  0  0  0  0  0
  -23.4793  -26.4210   21.4928 N   0  0  0  0  0  0  0  0  0  0  0  0
  -28.0000  -18.7478   20.2511 N   0  0  0  0  0  0  0  0  0  0  0  0
  -23.5252  -17.4379   21.0438 N   0  0  0  0  0  0  0  0  0  0  0  0
  -22.1057  -13.2682   22.0415 N   0  0  0  0  0  0  0  0  0  0  0  0
  -26.4927  -25.5717   19.7817 N   0  0  0  0  0  0  0  0  0  0  0  0
  -21.5832  -29.0963   22.3330 N   0  0  0  0  0  0  0  0  0  0  0  0
  -27.2811  -20.4041   21.7788 N   0  0  0  0  0  0  0  0  0  0  0  0
  -18.0081  -28.5683   22.2422 N   0  3  0  0  0  0  0  0  0  0  0  0
  -21.5626  -15.4939   22.1419 O   0  0  0  0  0  0  0  0  0  0  0  0
  -25.8419  -25.3406   22.0055 O   0  0  0  0  0  0  0  0  0  0  0  0
  -23.6725  -28.5044   20.4640 O   0  0  0  0  0  0  0  0  0  0  0  0
  -20.2758  -27.7446   23.6899 O   0  0  0  0  0  0  0  0  0  0  0  0
  -28.8537  -20.9030   20.1866 O   0  0  0  0  0  0  0  0  0  0  0  0
  -24.8346   -8.5237   21.0032 O   0  0  0  0  0  0  0  0  0  0  0  0
  -22.0157  -21.2060   24.4448 O   0  0  0  0  0  0  0  0  0  1  0  0
  -23.3691   -6.1738   25.7713 F   0  0  0  0  0  0  0  0  0  0  0  0
  -26.6124   -6.9417   22.4102 F   0  0  0  0  0  0  0  0  0  0  0  0
  1  2  1  0  0  0  0
  1  5  2  0  0  0  0
  2  6  2  0  0  0  0
  3  8  2  0  0  0  0
  3 16  1  0  0  0  0
  4  9  1  0  0  0  0
  4 16  2  0  0  0  0
  5 18  1  0  0  0  0
  6 20  1  0  0  0  0
  7 10  2  0  0  0  0
  7 19  1  0  0  0  0
  8 24  1  0  0  0  0
  9 24  2  0  0  0  0
 10 25  1  0  0  0  0
 11 12  2  0  0  0  0
 11 26  1  0  0  0  0
 12 27  1  0  0  0  0
 13 21  1  0  0  0  0
 13 25  2  0  0  0  0
 14 27  2  0  0  0  0
 14 28  1  0  0  0  0
 15 22  2  0  0  0  0
 15 65  1  0  0  0  0
 16 29  1  0  0  0  0
 17 29  1  0  0  0  0
 17 31  2  0  0  0  0
 17 32  1  0  0  0  0
 18 20  2  0  0  0  0
 18 37  1  0  0  0  0
 19 21  2  0  0  0  0
 19 38  1  0  0  0  0
 20 46  1  0  0  0  0
 21 39  1  0  0  0  0
 22 23  1  0  0  0  0
 22 56  1  0  0  0  0
 23 30  2  0  0  0  0
 23 49  1  0  0  0  0
 24 80  1  0  0  0  0
 25 81  1  0  0  0  0
 26 28  2  0  0  0  0
 26 80  1  0  0  0  0
 27 82  1  0  0  0  0
 28 83  1  0  0  0  0
 29 64  2  0  0  0  0
 30 50  1  0  0  0  0
 30 65  1  0  0  0  0
 31 66  1  0  0  0  0
 31 69  1  0  0  0  0
 32 70  1  0  0  0  0
 32 75  2  0  0  0  0
 33 47  1  0  0  0  0
 33 71  1  0  0  0  0
 33 76  2  0  0  0  0
 34 61  1  0  0  0  0
 34 67  1  0  0  0  0
 34 77  2  0  0  0  0
 35 62  1  0  0  0  0
 35 72  1  0  0  0  0
 35 78  2  0  0  0  0
 36 68  1  0  0  0  0
 36 73  1  0  0  0  0
 36 79  2  0  0  0  0
 37 40  1  0  0  0  0
 38 47  1  0  0  0  0
 39 67  1  0  0  0  0
 40 42  1  0  0  0  0
 41 43  1  0  0  0  0
 41 44  1  0  0  0  0
 42 46  1  0  0  0  0
 43 48  1  0  0  0  0
 44 68  1  0  0  0  0
 45 48  1  0  0  0  0
 45 68  1  0  0  0  0
 46 71  1  0  0  0  0
 47 67  1  0  0  0  0
 48 66  1  0  0  0  0
 51 62  1  0  0  0  0
 52 63  1  0  0  0  0
 53 63  1  0  0  0  0
 54 63  1  0  0  0  0
 55 74  1  0  0  0  0
 56 59  1  0  0  0  0
 57 58  1  0  0  0  0
 57 60  1  0  0  0  0
 58 65  1  0  0  0  0
 59 73  1  0  0  0  0
 60 81  1  0  0  0  0
 61 63  1  0  0  0  0
 61 72  1  0  0  0  0
 62 74  1  0  0  0  0
 64 66  1  0  0  0  0
M  CHG  1  74   1
M  ISO  4  36 100  60 101  73 100  81 101
M  END
> <Batch ID>
0092

> <Smiles>
CNC(C)C(=O)NC(C(=O)N1Cc2cc([101O:1][101CH2:1]CCn3cc(CC[100NH:0][100C:0](=O)N4CCCC(n5nc(-c6ccc(Oc7ccc(F)cc7F)cc6)c(C(N)=O)c5N)C4)c(C)c3C)ccc2CC1C(=O)NC1CCCc2ccccc21)C(C)(C)C

> <Shape>
0.221

> <Color>
0.062

> <Negative vol penalty>
0.000

$$$$

  -OEChem-04052319143D

 87 95  0     1  0  0  0  0  0999 V2000
  -24.6535  -28.4884   20.0577 C   0  0  0  0  0  0  0  0  0  0  0  0
  -24.5980  -27.2234   19.4813 C   0  0  0  0  0  0  0  0  0  0  0  0
  -23.6872  -15.9236   21.6980 C   0  0  0  0  0  0  0  0  0  0  0  0
  -22.7266  -15.1832   19.6085 C   0  0  0  0  0  0  0  0  0  0  0  0
  -25.8742  -29.0009   20.4951 C   0  0  0  0  0  0  0  0  0  0  0  0
  -25.7633  -26.4707   19.3408 C   0  0  0  0  0  0  0  0  0  0  0  0
  -26.2895  -20.3846   19.7755 C   0  0  0  0  0  0  0  0  0  0  0  0
  -22.8311  -17.0248   21.7014 C   0  0  0  0  0  0  0  0  0  0  0  0
  -21.8704  -16.2844   19.6119 C   0  0  0  0  0  0  0  0  0  0  0  0
  -26.3446  -19.3768   18.8137 C   0  0  0  0  0  0  0  0  0  0  0  0
  -20.6500  -19.8369   22.4432 C   0  0  0  0  0  0  0  0  0  0  0  0
  -20.0048  -20.1530   23.6387 C   0  0  0  0  0  0  0  0  0  0  0  0
  -28.7541  -19.4108   18.9249 C   0  0  0  0  0  0  0  0  0  0  0  0
  -18.9497  -17.9796   23.6440 C   0  0  0  0  0  0  0  0  0  0  0  0
  -23.6350  -15.0028   20.6515 C   0  0  0  0  0  0  0  0  0  0  0  0
  -24.2764  -12.5973   21.2081 C   0  0  0  0  0  0  0  0  0  0  0  0
  -27.0536  -28.2501   20.3687 C   0  0  0  0  0  0  0  0  0  0  0  0
  -27.4686  -20.9216   20.3122 C   0  0  0  0  0  0  0  0  0  0  0  0
  -27.0011  -26.9742   19.7756 C   0  0  0  0  0  0  0  0  0  0  0  0
  -28.7112  -20.4236   19.8952 C   0  0  0  0  0  0  0  0  0  0  0  0
  -26.0550  -14.3150   14.8391 C   0  0  0  0  0  0  0  0  0  0  0  0
  -25.7529  -15.2986   15.7742 C   0  0  0  0  0  0  0  0  0  0  0  0
  -27.2405  -14.3913   14.1164 C   0  0  0  0  0  0  0  0  0  0  0  0
  -21.9227  -17.2052   20.6584 C   0  0  0  0  0  0  0  0  0  0  0  0
  -27.5771  -18.8918   18.3861 C   0  0  0  0  0  0  0  0  0  0  0  0
  -20.4450  -18.5921   21.8480 C   0  0  0  0  0  0  0  0  0  0  0  0
  -19.1546  -19.2244   24.2391 C   0  0  0  0  0  0  0  0  0  0  0  0
  -19.5949  -17.6635   22.4484 C   0  0  0  0  0  0  0  0  0  0  0  0
  -24.5195  -13.8654   20.6472 C   0  0  0  0  0  0  0  0  0  0  0  0
  -26.6621  -16.3296   15.9479 C   0  0  0  0  0  0  0  0  0  0  0  0
  -28.0830  -15.4629   14.3642 C   0  0  0  0  0  0  0  0  0  0  0  0
  -25.4152  -11.8784   20.9383 C   0  0  0  0  0  0  0  0  0  0  0  0
  -23.1241  -12.1125   21.9101 C   0  0  0  0  0  0  0  0  0  0  0  0
  -28.8108  -23.8028   20.3417 C   0  0  0  0  0  0  0  0  0  0  0  0
  -30.9344  -22.3648   22.3278 C   0  0  0  0  0  0  0  0  0  0  0  0
  -32.4088  -19.4769   23.3923 C   0  0  0  0  0  0  0  0  0  0  0  0
  -29.6211  -12.3409   16.7018 C   0  0  0  0  0  0  0  0  0  0  0  0
  -28.3570  -28.8654   20.8129 C   0  0  0  0  0  0  0  0  0  0  0  0
  -27.3915  -21.9897   21.3684 C   0  0  0  0  0  0  0  0  0  0  0  0
  -30.0057  -20.9522   20.4550 C   0  0  0  0  0  0  0  0  0  0  0  0
  -29.4872  -27.8513   20.9692 C   0  0  0  0  0  0  0  0  0  0  0  0
  -30.1137  -12.4346   20.2267 C   0  0  0  0  0  0  0  0  0  0  0  0
  -29.5393  -26.9198   19.7624 C   0  0  0  0  0  0  0  0  0  0  0  0
  -28.7139  -12.6975   20.7848 C   0  0  0  0  0  0  0  0  0  0  0  0
  -30.3480  -13.1817   18.9156 C   0  0  0  0  0  0  0  0  0  0  0  0
  -27.9313  -13.2032   18.4331 C   0  0  0  0  0  0  0  0  0  0  0  0
  -28.2396  -26.1171   19.6285 C   0  0  1  0  0  0  0  0  0  0  0  0
  -28.6660  -22.8220   21.4707 C   0  0  1  0  0  0  0  0  0  0  0  0
  -27.6281  -12.4268   19.7260 C   0  0  2  0  0  0  0  0  0  0  0  0
  -25.1079  -13.1806   14.6095 C   0  0  0  0  0  0  0  0  0  0  0  0
  -24.4893  -15.2435   16.5657 C   0  0  0  0  0  0  0  0  0  0  0  0
  -30.5766  -15.6483   14.5493 C   0  0  0  0  0  0  0  0  0  0  0  0
  -27.6303  -13.9736   11.6896 C   0  0  0  0  0  0  0  0  0  0  0  0
  -34.1347  -18.6234   25.0017 C   0  0  0  0  0  0  0  0  0  0  0  0
  -29.5671  -11.9358   12.1938 C   0  0  0  0  0  0  0  0  0  0  0  0
  -33.1477  -23.3601   20.4783 C   0  0  0  0  0  0  0  0  0  0  0  0
  -34.6975  -21.7220   21.5660 C   0  0  0  0  0  0  0  0  0  0  0  0
  -33.6646  -23.5462   22.9181 C   0  0  0  0  0  0  0  0  0  0  0  0
  -30.4165  -17.8332   24.8373 C   0  0  0  0  0  0  0  0  0  0  0  0
  -29.3696  -15.6006   13.6176 C   0  0  0  0  0  0  0  0  0  0  0  0
  -26.3916  -17.4199   16.9425 C   0  0  0  0  0  0  0  0  0  1  0  0
  -28.7382  -11.5172   14.5335 C   0  0  0  0  0  0  0  0  0  0  0  0
  -27.5933  -13.3516   13.1060 C   0  0  1  0  0  0  0  0  0  0  0  0
  -32.2307  -21.6133   22.1438 C   0  0  1  0  0  0  0  0  0  0  0  0
  -32.6607  -18.9286   24.7853 C   0  0  2  0  0  0  0  0  0  0  0  0
  -28.9263  -12.5813   13.4318 C   0  0  2  0  0  0  0  0  0  0  0  0
  -33.4110  -22.5515   21.7644 C   0  0  0  0  0  0  0  0  0  0  0  0
  -25.7187  -13.9505   20.0652 N   0  0  0  0  0  0  0  0  0  0  0  0
  -27.8236  -16.4375   15.2645 N   0  0  0  0  0  0  0  0  0  0  0  0
  -26.2393  -12.7267   20.2590 N   0  0  0  0  0  0  0  0  0  0  0  0
  -29.8781  -22.0005   21.4808 N   0  0  0  0  0  0  0  0  0  0  0  0
  -29.2845  -12.8804   17.9543 N   0  0  0  0  0  0  0  0  0  0  0  0
  -25.7821  -10.6098   21.2184 N   0  0  0  0  0  0  0  0  0  0  0  0
  -22.0422  -12.9829   22.0999 N   0  0  0  0  0  0  0  0  0  0  0  0
  -28.2180  -25.0278   20.5811 N   0  0  0  0  0  0  0  0  0  0  0  0
  -32.4410  -20.8553   23.3724 N   0  0  0  0  0  0  0  0  0  0  0  0
  -28.5526  -12.0788   15.8529 N   0  0  0  0  0  0  0  0  0  0  0  0
  -31.8850  -17.6737   24.9960 N   0  3  0  0  0  0  0  0  0  0  0  0
  -23.0625  -10.9471   22.3703 O   0  0  0  0  0  0  0  0  0  0  0  0
  -29.4169  -23.4731   19.3289 O   0  0  0  0  0  0  0  0  0  0  0  0
  -30.8595  -23.2378   23.1961 O   0  0  0  0  0  0  0  0  0  0  0  0
  -32.2076  -18.7547   22.4184 O   0  0  0  0  0  0  0  0  0  0  0  0
  -30.7869  -12.1049   16.3670 O   0  0  0  0  0  0  0  0  0  0  0  0
  -21.0870  -18.2795   20.6614 O   0  0  0  0  0  0  0  0  0  0  0  0
  -27.6338  -17.9086   17.4470 O   0  0  0  0  0  0  0  0  0  1  0  0
  -18.5363  -19.5275   25.3880 F   0  0  0  0  0  0  0  0  0  0  0  0
  -19.3949  -16.4656   21.8819 F   0  0  0  0  0  0  0  0  0  0  0  0
  1  2  1  0  0  0  0
  1  5  2  0  0  0  0
  2  6  2  0  0  0  0
  3  8  2  0  0  0  0
  3 15  1  0  0  0  0
  4  9  1  0  0  0  0
  4 15  2  0  0  0  0
  5 17  1  0  0  0  0
  6 19  1  0  0  0  0
  7 10  2  0  0  0  0
  7 18  1  0  0  0  0
  8 24  1  0  0  0  0
  9 24  2  0  0  0  0
 10 25  1  0  0  0  0
 11 12  2  0  0  0  0
 11 26  1  0  0  0  0
 12 27  1  0  0  0  0
 13 20  1  0  0  0  0
 13 25  2  0  0  0  0
 14 27  2  0  0  0  0
 14 28  1  0  0  0  0
 15 29  1  0  0  0  0
 16 29  1  0  0  0  0
 16 32  2  0  0  0  0
 16 33  1  0  0  0  0
 17 19  2  0  0  0  0
 17 38  1  0  0  0  0
 18 20  2  0  0  0  0
 18 39  1  0  0  0  0
 19 47  1  0  0  0  0
 20 40  1  0  0  0  0
 21 22  2  0  0  0  0
 21 23  1  0  0  0  0
 21 50  1  0  0  0  0
 22 30  1  0  0  0  0
 22 51  1  0  0  0  0
 23 31  2  0  0  0  0
 23 63  1  0  0  0  0
 24 84  1  0  0  0  0
 25 85  1  0  0  0  0
 26 28  2  0  0  0  0
 26 84  1  0  0  0  0
 27 86  1  0  0  0  0
 28 87  1  0  0  0  0
 29 68  2  0  0  0  0
 30 61  1  0  0  0  0
 30 69  2  0  0  0  0
 31 60  1  0  0  0  0
 31 69  1  0  0  0  0
 32 70  1  0  0  0  0
 32 73  1  0  0  0  0
 33 74  1  0  0  0  0
 33 79  2  0  0  0  0
 34 48  1  0  0  0  0
 34 75  1  0  0  0  0
 34 80  2  0  0  0  0
 35 64  1  0  0  0  0
 35 71  1  0  0  0  0
 35 81  2  0  0  0  0
 36 65  1  0  0  0  0
 36 76  1  0  0  0  0
 36 82  2  0  0  0  0
 37 72  1  0  0  0  0
 37 77  1  0  0  0  0
 37 83  2  0  0  0  0
 38 41  1  0  0  0  0
 39 48  1  0  0  0  0
 40 71  1  0  0  0  0
 41 43  1  0  0  0  0
 42 44  1  0  0  0  0
 42 45  1  0  0  0  0
 43 47  1  0  0  0  0
 44 49  1  0  0  0  0
 45 72  1  0  0  0  0
 46 49  1  0  0  0  0
 46 72  1  0  0  0  0
 47 75  1  0  0  0  0
 48 71  1  0  0  0  0
 49 70  1  0  0  0  0
 52 60  1  0  0  0  0
 53 63  1  0  0  0  0
 54 65  1  0  0  0  0
 55 66  1  0  0  0  0
 56 67  1  0  0  0  0
 57 67  1  0  0  0  0
 58 67  1  0  0  0  0
 59 78  1  0  0  0  0
 61 85  1  0  0  0  0
 62 66  1  0  0  0  0
 62 77  1  0  0  0  0
 63 66  1  0  0  0  0
 64 67  1  0  0  0  0
 64 76  1  0  0  0  0
 65 78  1  0  0  0  0
 68 70  1  0  0  0  0
M  CHG  1  78   1
M  ISO  4  37 100  61 101  77 100  85 101
M  END
> <Batch ID>
0092

> <Smiles>
CCc1nc([101CH2:1][101O:1]c2ccc3c(c2)CN(C(=O)C(NC(=O)C(C)NC)C(C)(C)C)C(C(=O)NC2CCCc4ccccc42)C3)c(C)c(C)c1C(C)C(C)C[100NH:0][100C:0](=O)N1CCCC(n2nc(-c3ccc(Oc4ccc(F)cc4F)cc3)c(C(N)=O)c2N)C1

> <Shape>
0.199

> <Color>
0.082

> <Negative vol penalty>
0.000

$$$$

  -OEChem-04052319143D

 86 94  0     1  0  0  0  0  0999 V2000
  -15.9745  -18.1387   16.7624 C   0  0  0  0  0  0  0  0  0  0  0  0
  -17.2764  -17.8845   17.1819 C   0  0  0  0  0  0  0  0  0  0  0  0
  -23.0743   -9.8695   19.9420 C   0  0  0  0  0  0  0  0  0  0  0  0
  -23.8388   -9.8753   22.2339 C   0  0  0  0  0  0  0  0  0  0  0  0
  -15.1820  -17.0967   16.2826 C   0  0  0  0  0  0  0  0  0  0  0  0
  -17.7861  -16.5879   17.1230 C   0  0  0  0  0  0  0  0  0  0  0  0
  -22.4797  -16.4300   15.2283 C   0  0  0  0  0  0  0  0  0  0  0  0
  -22.3313   -8.7159   20.1928 C   0  0  0  0  0  0  0  0  0  0  0  0
  -23.0958   -8.7217   22.4847 C   0  0  0  0  0  0  0  0  0  0  0  0
  -23.5225  -16.7935   16.0794 C   0  0  0  0  0  0  0  0  0  0  0  0
  -21.1146   -5.9831   23.8236 C   0  0  0  0  0  0  0  0  0  0  0  0
  -20.3607   -5.9385   24.9963 C   0  0  0  0  0  0  0  0  0  0  0  0
  -24.0022  -14.4631   16.4772 C   0  0  0  0  0  0  0  0  0  0  0  0
  -27.3477  -17.9097   22.7719 C   0  0  0  0  0  0  0  0  0  0  0  0
  -19.1140   -7.8758   24.2685 C   0  0  0  0  0  0  0  0  0  0  0  0
  -28.4708  -18.8771   21.0771 C   0  0  0  0  0  0  0  0  0  0  0  0
  -23.8281  -10.4492   20.9626 C   0  0  0  0  0  0  0  0  0  0  0  0
  -24.1688  -12.9745   20.8434 C   0  0  0  0  0  0  0  0  0  0  0  0
  -15.6855  -15.7884   16.2087 C   0  0  0  0  0  0  0  0  0  0  0  0
  -22.1829  -15.0781   15.0035 C   0  0  0  0  0  0  0  0  0  0  0  0
  -16.9991  -15.5272   16.6430 C   0  0  0  0  0  0  0  0  0  0  0  0
  -22.9568  -14.0850   15.6208 C   0  0  0  0  0  0  0  0  0  0  0  0
  -28.6380  -18.1764   22.2512 C   0  0  0  0  0  0  0  0  0  0  0  0
  -22.3421   -8.1421   21.4641 C   0  0  0  0  0  0  0  0  0  0  0  0
  -24.2820  -15.8100   16.7063 C   0  0  0  0  0  0  0  0  0  0  0  0
  -20.8682   -6.9741   22.8733 C   0  0  0  0  0  0  0  0  0  0  0  0
  -19.3604   -6.8849   25.2188 C   0  0  0  0  0  0  0  0  0  0  0  0
  -19.8679   -7.9204   23.0958 C   0  0  0  0  0  0  0  0  0  0  0  0
  -24.5962  -11.6405   20.7040 C   0  0  0  0  0  0  0  0  0  0  0  0
  -26.4314  -18.4552   21.9001 C   0  0  0  0  0  0  0  0  0  0  0  0
  -25.2599  -13.7246   20.4784 C   0  0  0  0  0  0  0  0  0  0  0  0
  -22.8990  -13.4896   21.2652 C   0  0  0  0  0  0  0  0  0  0  0  0
  -19.6602  -13.2176   15.5308 C   0  0  0  0  0  0  0  0  0  0  0  0
  -21.4205  -11.0326   13.9030 C   0  0  0  0  0  0  0  0  0  0  0  0
  -24.5012   -9.9621   12.8979 C   0  0  0  0  0  0  0  0  0  0  0  0
  -30.7437  -14.7455   20.6562 C   0  0  0  0  0  0  0  0  0  0  0  0
  -14.7754  -14.6864   15.7271 C   0  0  0  0  0  0  0  0  0  0  0  0
  -21.0720  -14.7023   14.0617 C   0  0  0  0  0  0  0  0  0  0  0  0
  -22.6918  -12.6194   15.3967 C   0  0  0  0  0  0  0  0  0  0  0  0
  -15.5163  -13.4073   15.3460 C   0  0  0  0  0  0  0  0  0  0  0  0
  -29.6021  -12.3620   18.2703 C   0  0  0  0  0  0  0  0  0  0  0  0
  -16.5360  -13.0410   16.4198 C   0  0  0  0  0  0  0  0  0  0  0  0
  -28.1656  -12.0675   18.7060 C   0  0  0  0  0  0  0  0  0  0  0  0
  -30.5216  -12.5825   19.4695 C   0  0  0  0  0  0  0  0  0  0  0  0
  -28.6224  -13.3120   20.8604 C   0  0  0  0  0  0  0  0  0  0  0  0
  -17.5962  -14.1385   16.5712 C   0  0  1  0  0  0  0  0  0  0  0  0
  -20.5293  -13.2979   14.3078 C   0  0  1  0  0  0  0  0  0  0  0  0
  -27.6459  -13.1378   19.6846 C   0  0  2  0  0  0  0  0  0  0  0  0
  -24.9551  -18.4668   21.9612 C   0  0  0  0  0  0  0  0  0  0  0  0
  -25.6247   -8.1248   11.6098 C   0  0  0  0  0  0  0  0  0  0  0  0
  -27.3985  -15.9965   16.3899 C   0  0  0  0  0  0  0  0  0  0  0  0
  -29.8335  -16.9794   24.2093 C   0  0  0  0  0  0  0  0  0  0  0  0
  -30.7922  -19.0372   23.2083 C   0  0  0  0  0  0  0  0  0  0  0  0
  -21.0183   -9.1375   16.2602 C   0  0  0  0  0  0  0  0  0  0  0  0
  -22.8951   -7.7411   15.3679 C   0  0  0  0  0  0  0  0  0  0  0  0
  -20.8262   -8.0605   14.0112 C   0  0  0  0  0  0  0  0  0  0  0  0
  -25.6037  -11.8661   10.9184 C   0  0  0  0  0  0  0  0  0  0  0  0
  -25.9298  -18.8203   18.6343 C   0  0  0  0  0  0  0  0  0  0  0  0
  -26.9657  -17.8508   18.0494 C   0  0  0  0  0  0  0  0  0  0  0  0
  -26.5198  -19.7584   19.6938 C   0  0  0  0  0  0  0  0  0  0  0  0
  -30.8113  -16.8953   21.8943 C   0  0  0  0  0  0  0  0  0  0  0  0
  -22.4415   -9.9868   14.2805 C   0  0  1  0  0  0  0  0  0  0  0  0
  -25.0207   -9.5188   11.5422 C   0  0  2  0  0  0  0  0  0  0  0  0
  -26.3573  -16.9395   16.9775 C   0  0  2  0  0  0  0  0  0  1  0  0
  -29.9242  -17.7783   22.8543 C   0  0  0  0  0  0  0  0  0  0  0  0
  -21.7993   -8.7590   14.9859 C   0  0  0  0  0  0  0  0  0  0  0  0
  -25.8603  -11.5453   20.2831 N   0  0  0  0  0  0  0  0  0  0  0  0
  -27.1254  -19.0404   20.8735 N   0  0  0  0  0  0  0  0  0  0  0  0
  -26.2365  -12.8291   20.1548 N   0  0  0  0  0  0  0  0  0  0  0  0
  -21.5908  -12.3027   14.4721 N   0  0  0  0  0  0  0  0  0  0  0  0
  -29.9724  -13.6102   20.3572 N   0  0  0  0  0  0  0  0  0  0  0  0
  -25.4697  -15.0562   20.4058 N   0  0  0  0  0  0  0  0  0  0  0  0
  -21.8881  -12.5799   21.6040 N   0  0  0  0  0  0  0  0  0  0  0  0
  -18.5638  -14.0580   15.4981 N   0  0  0  0  0  0  0  0  0  0  0  0
  -23.1648   -9.6616   13.0560 N   0  0  0  0  0  0  0  0  0  0  0  0
  -30.1459  -15.6736   21.5001 N   0  0  0  0  0  0  0  0  0  0  0  0
  -26.0672  -10.4613   11.0550 N   0  3  0  0  0  0  0  0  0  0  0  0
  -22.6624  -14.7201   21.3238 O   0  0  0  0  0  0  0  0  0  0  0  0
  -19.9611  -12.4488   16.4364 O   0  0  0  0  0  0  0  0  0  0  0  0
  -20.5096  -10.7358   13.1259 O   0  0  0  0  0  0  0  0  0  0  0  0
  -25.2109  -10.5160   13.7346 O   0  0  0  0  0  0  0  0  0  0  0  0
  -31.8786  -14.9216   20.2004 O   0  0  0  0  0  0  0  0  0  0  0  0
  -21.6170   -7.0165   21.7092 O   0  0  0  0  0  0  0  0  0  0  0  0
  -25.3000  -16.1621   17.5380 O   0  0  0  0  0  0  0  0  0  1  0  0
  -18.6355   -6.8410   26.3443 F   0  0  0  0  0  0  0  0  0  0  0  0
  -19.6258   -8.8741   22.1860 F   0  0  0  0  0  0  0  0  0  0  0  0
  1  2  1  0  0  0  0
  1  5  2  0  0  0  0
  2  6  2  0  0  0  0
  3  8  2  0  0  0  0
  3 17  1  0  0  0  0
  4  9  1  0  0  0  0
  4 17  2  0  0  0  0
  5 19  1  0  0  0  0
  6 21  1  0  0  0  0
  7 10  2  0  0  0  0
  7 20  1  0  0  0  0
  8 24  1  0  0  0  0
  9 24  2  0  0  0  0
 10 25  1  0  0  0  0
 11 12  2  0  0  0  0
 11 26  1  0  0  0  0
 12 27  1  0  0  0  0
 13 22  1  0  0  0  0
 13 25  2  0  0  0  0
 14 23  1  0  0  0  0
 14 30  2  0  0  0  0
 15 27  2  0  0  0  0
 15 28  1  0  0  0  0
 16 23  2  0  0  0  0
 16 68  1  0  0  0  0
 17 29  1  0  0  0  0
 18 29  1  0  0  0  0
 18 31  2  0  0  0  0
 18 32  1  0  0  0  0
 19 21  2  0  0  0  0
 19 37  1  0  0  0  0
 20 22  2  0  0  0  0
 20 38  1  0  0  0  0
 21 46  1  0  0  0  0
 22 39  1  0  0  0  0
 23 65  1  0  0  0  0
 24 83  1  0  0  0  0
 25 84  1  0  0  0  0
 26 28  2  0  0  0  0
 26 83  1  0  0  0  0
 27 85  1  0  0  0  0
 28 86  1  0  0  0  0
 29 67  2  0  0  0  0
 30 49  1  0  0  0  0
 30 68  1  0  0  0  0
 31 69  1  0  0  0  0
 31 72  1  0  0  0  0
 32 73  1  0  0  0  0
 32 78  2  0  0  0  0
 33 47  1  0  0  0  0
 33 74  1  0  0  0  0
 33 79  2  0  0  0  0
 34 62  1  0  0  0  0
 34 70  1  0  0  0  0
 34 80  2  0  0  0  0
 35 63  1  0  0  0  0
 35 75  1  0  0  0  0
 35 81  2  0  0  0  0
 36 71  1  0  0  0  0
 36 76  1  0  0  0  0
 36 82  2  0  0  0  0
 37 40  1  0  0  0  0
 38 47  1  0  0  0  0
 39 70  1  0  0  0  0
 40 42  1  0  0  0  0
 41 43  1  0  0  0  0
 41 44  1  0  0  0  0
 42 46  1  0  0  0  0
 43 48  1  0  0  0  0
 44 71  1  0  0  0  0
 45 48  1  0  0  0  0
 45 71  1  0  0  0  0
 46 74  1  0  0  0  0
 47 70  1  0  0  0  0
 48 69  1  0  0  0  0
 50 63  1  0  0  0  0
 51 64  1  0  0  0  0
 52 65  1  0  0  0  0
 53 65  1  0  0  0  0
 54 66  1  0  0  0  0
 55 66  1  0  0  0  0
 56 66  1  0  0  0  0
 57 77  1  0  0  0  0
 58 59  1  0  0  0  0
 58 60  1  0  0  0  0
 59 64  1  0  0  0  0
 60 68  1  0  0  0  0
 61 65  1  0  0  0  0
 61 76  1  0  0  0  0
 62 66  1  0  0  0  0
 62 75  1  0  0  0  0
 63 77  1  0  0  0  0
 64 84  1  0  0  0  0
 67 69  1  0  0  0  0
M  CHG  1  77   1
M  ISO  4  36 100  64 101  76 100  84 101
M  END
> <Batch ID>
0092

> <Smiles>
CNC(C)C(=O)NC(C(=O)N1Cc2cc([101O:1][101CH:1](C)CCCn3cc(C(C)(C)C[100NH:0][100C:0](=O)N4CCCC(n5nc(-c6ccc(Oc7ccc(F)cc7F)cc6)c(C(N)=O)c5N)C4)cc3C)ccc2CC1C(=O)NC1CCCc2ccccc21)C(C)(C)C

> <Shape>
0.174

> <Color>
0.196

> <Negative vol penalty>
0.000

$$$$

  -OEChem-04052319143D

 85 93  0     1  0  0  0  0  0999 V2000
  -18.3700  -18.5528   33.8888 C   0  0  0  0  0  0  0  0  0  0  0  0
  -19.4124  -18.3854   32.9828 C   0  0  0  0  0  0  0  0  0  0  0  0
  -23.0752   -9.8674   19.9429 C   0  0  0  0  0  0  0  0  0  0  0  0
  -23.8373   -9.8770   22.2355 C   0  0  0  0  0  0  0  0  0  0  0  0
  -17.3110  -19.4059   33.5813 C   0  0  0  0  0  0  0  0  0  0  0  0
  -19.3957  -19.0702   31.7682 C   0  0  0  0  0  0  0  0  0  0  0  0
  -24.2257  -21.2898   28.7268 C   0  0  0  0  0  0  0  0  0  0  0  0
  -22.3325   -8.7139   20.1945 C   0  0  0  0  0  0  0  0  0  0  0  0
  -23.0945   -8.7234   22.4872 C   0  0  0  0  0  0  0  0  0  0  0  0
  -24.9634  -20.7981   27.6507 C   0  0  0  0  0  0  0  0  0  0  0  0
  -19.8676   -7.9236   23.0935 C   0  0  0  0  0  0  0  0  0  0  0  0
  -19.1118   -7.8841   24.2652 C   0  0  0  0  0  0  0  0  0  0  0  0
  -23.6315  -22.1249   26.1392 C   0  0  0  0  0  0  0  0  0  0  0  0
  -20.3554   -5.9483   25.0021 C   0  0  0  0  0  0  0  0  0  0  0  0
  -28.2978  -20.0641   22.4723 C   0  0  0  0  0  0  0  0  0  0  0  0
  -23.8276  -10.4489   20.9633 C   0  0  0  0  0  0  0  0  0  0  0  0
  -24.1674  -12.9742   20.8408 C   0  0  0  0  0  0  0  0  0  0  0  0
  -17.2861  -20.1089   32.3665 C   0  0  0  0  0  0  0  0  0  0  0  0
  -23.1765  -22.1959   28.5157 C   0  0  0  0  0  0  0  0  0  0  0  0
  -18.3347  -19.9324   31.4436 C   0  0  0  0  0  0  0  0  0  0  0  0
  -22.8837  -22.6285   27.2144 C   0  0  0  0  0  0  0  0  0  0  0  0
  -22.3421   -8.1419   21.4667 C   0  0  0  0  0  0  0  0  0  0  0  0
  -24.6645  -21.2134   26.3564 C   0  0  0  0  0  0  0  0  0  0  0  0
  -20.8673   -6.9754   22.8761 C   0  0  0  0  0  0  0  0  0  0  0  0
  -19.3557   -6.8964   25.2195 C   0  0  0  0  0  0  0  0  0  0  0  0
  -21.1112   -5.9878   23.8304 C   0  0  0  0  0  0  0  0  0  0  0  0
  -24.5955  -11.6402   20.7038 C   0  0  0  0  0  0  0  0  0  0  0  0
  -28.3409  -18.7547   22.0466 C   0  0  0  0  0  0  0  0  0  0  0  0
  -27.1151  -19.4240   24.3218 C   0  0  0  0  0  0  0  0  0  0  0  0
  -27.1575  -18.1147   23.8959 C   0  0  0  0  0  0  0  0  0  0  0  0
  -25.2586  -13.7243   20.4758 C   0  0  0  0  0  0  0  0  0  0  0  0
  -22.8969  -13.4894   21.2605 C   0  0  0  0  0  0  0  0  0  0  0  0
  -20.0415  -22.1592   29.0393 C   0  0  0  0  0  0  0  0  0  0  0  0
  -20.2390  -25.2520   28.0812 C   0  0  0  0  0  0  0  0  0  0  0  0
  -21.9300  -27.6377   26.3217 C   0  0  0  0  0  0  0  0  0  0  0  0
  -30.7417  -14.7478   20.6580 C   0  0  0  0  0  0  0  0  0  0  0  0
  -16.0967  -20.9834   32.0581 C   0  0  0  0  0  0  0  0  0  0  0  0
  -22.4077  -22.7374   29.6896 C   0  0  0  0  0  0  0  0  0  0  0  0
  -21.7804  -23.6153   26.9363 C   0  0  0  0  0  0  0  0  0  0  0  0
  -16.3401  -21.9603   30.9106 C   0  0  0  0  0  0  0  0  0  0  0  0
  -29.6037  -12.3603   18.2744 C   0  0  0  0  0  0  0  0  0  0  0  0
  -16.9969  -21.2474   29.7328 C   0  0  0  0  0  0  0  0  0  0  0  0
  -28.1669  -12.0658   18.7090 C   0  0  0  0  0  0  0  0  0  0  0  0
  -30.5218  -12.5829   19.4742 C   0  0  0  0  0  0  0  0  0  0  0  0
  -28.6208  -13.3137   20.8620 C   0  0  0  0  0  0  0  0  0  0  0  0
  -18.3647  -20.6769   30.1264 C   0  0  1  0  0  0  0  0  0  0  0  0
  -21.0264  -23.2614   29.3088 C   0  0  1  0  0  0  0  0  0  0  0  0
  -27.6456  -13.1373   19.6855 C   0  0  2  0  0  0  0  0  0  0  0  0
  -21.8269  -30.0648   25.6927 C   0  0  0  0  0  0  0  0  0  0  0  0
  -24.9898  -17.2580   24.8515 C   0  0  0  0  0  0  0  0  0  0  0  0
  -27.1413  -16.9189   26.1133 C   0  0  0  0  0  0  0  0  0  0  0  0
  -26.6565  -15.5860   24.0713 C   0  0  0  0  0  0  0  0  0  0  0  0
  -18.0602  -24.6276   26.0384 C   0  0  0  0  0  0  0  0  0  0  0  0
  -18.6681  -26.7440   24.8469 C   0  0  0  0  0  0  0  0  0  0  0  0
  -17.8110  -26.8348   27.1878 C   0  0  0  0  0  0  0  0  0  0  0  0
  -24.4989  -28.2164   27.6725 C   0  0  0  0  0  0  0  0  0  0  0  0
  -29.0288  -18.3957   20.7763 C   0  0  0  0  0  0  0  0  0  0  0  0
  -26.4283  -19.8094   25.5990 C   0  0  0  0  0  0  0  0  0  1  0  0
  -30.5247  -18.0526   20.9322 C   0  0  0  0  0  0  0  0  0  0  0  0
  -30.8070  -16.8995   21.8930 C   0  0  0  0  0  0  0  0  0  0  0  0
  -20.1466  -25.9686   26.7557 C   0  0  1  0  0  0  0  0  0  0  0  0
  -22.3580  -29.0468   26.6898 C   0  0  2  0  0  0  0  0  0  0  0  0
  -26.5230  -17.0201   24.6840 C   0  0  0  0  0  0  0  0  0  0  0  0
  -18.6911  -26.0236   26.2119 C   0  0  0  0  0  0  0  0  0  0  0  0
  -27.6842  -20.4222   23.6176 N   0  0  0  0  0  0  0  0  0  0  0  0
  -25.8601  -11.5450   20.2844 N   0  0  0  0  0  0  0  0  0  0  0  0
  -27.7714  -17.7565   22.7508 N   0  0  0  0  0  0  0  0  0  0  0  0
  -26.2358  -12.8287   20.1546 N   0  0  0  0  0  0  0  0  0  0  0  0
  -21.0532  -24.1111   28.1165 N   0  0  0  0  0  0  0  0  0  0  0  0
  -29.9713  -13.6118   20.3598 N   0  0  0  0  0  0  0  0  0  0  0  0
  -25.4678  -15.0558   20.4015 N   0  0  0  0  0  0  0  0  0  0  0  0
  -21.8860  -12.5797   21.5995 N   0  0  0  0  0  0  0  0  0  0  0  0
  -19.3596  -21.7273   30.1609 N   0  0  0  0  0  0  0  0  0  0  0  0
  -20.7597  -27.2773   26.9556 N   0  0  0  0  0  0  0  0  0  0  0  0
  -30.1426  -15.6769   21.4998 N   0  0  0  0  0  0  0  0  0  0  0  0
  -23.8447  -29.1463   26.7164 N   0  3  0  0  0  0  0  0  0  0  0  0
  -22.6597  -14.7199   21.3170 O   0  0  0  0  0  0  0  0  0  0  0  0
  -19.9089  -21.7332   27.8979 O   0  0  0  0  0  0  0  0  0  0  0  0
  -19.6174  -25.6925   29.0514 O   0  0  0  0  0  0  0  0  0  0  0  0
  -22.5678  -26.9290   25.5461 O   0  0  0  0  0  0  0  0  0  0  0  0
  -31.8771  -14.9238   20.2031 O   0  0  0  0  0  0  0  0  0  0  0  0
  -21.6173   -7.0164   21.7127 O   0  0  0  0  0  0  0  0  0  0  0  0
  -25.3825  -20.7346   25.3043 O   0  0  0  0  0  0  0  0  0  1  0  0
  -18.6309   -6.8596   26.3453 F   0  0  0  0  0  0  0  0  0  0  0  0
  -22.0710   -5.0748   23.6277 F   0  0  0  0  0  0  0  0  0  0  0  0
  1  2  1  0  0  0  0
  1  5  2  0  0  0  0
  2  6  2  0  0  0  0
  3  8  2  0  0  0  0
  3 16  1  0  0  0  0
  4  9  1  0  0  0  0
  4 16  2  0  0  0  0
  5 18  1  0  0  0  0
  6 20  1  0  0  0  0
  7 10  2  0  0  0  0
  7 19  1  0  0  0  0
  8 22  1  0  0  0  0
  9 22  2  0  0  0  0
 10 23  1  0  0  0  0
 11 12  2  0  0  0  0
 11 24  1  0  0  0  0
 12 25  1  0  0  0  0
 13 21  1  0  0  0  0
 13 23  2  0  0  0  0
 14 25  2  0  0  0  0
 14 26  1  0  0  0  0
 15 28  1  0  0  0  0
 15 65  2  0  0  0  0
 16 27  1  0  0  0  0
 17 27  1  0  0  0  0
 17 31  2  0  0  0  0
 17 32  1  0  0  0  0
 18 20  2  0  0  0  0
 18 37  1  0  0  0  0
 19 21  2  0  0  0  0
 19 38  1  0  0  0  0
 20 46  1  0  0  0  0
 21 39  1  0  0  0  0
 22 82  1  0  0  0  0
 23 83  1  0  0  0  0
 24 26  2  0  0  0  0
 24 82  1  0  0  0  0
 25 84  1  0  0  0  0
 26 85  1  0  0  0  0
 27 66  2  0  0  0  0
 28 57  1  0  0  0  0
 28 67  2  0  0  0  0
 29 30  2  0  0  0  0
 29 58  1  0  0  0  0
 29 65  1  0  0  0  0
 30 63  1  0  0  0  0
 30 67  1  0  0  0  0
 31 68  1  0  0  0  0
 31 71  1  0  0  0  0
 32 72  1  0  0  0  0
 32 77  2  0  0  0  0
 33 47  1  0  0  0  0
 33 73  1  0  0  0  0
 33 78  2  0  0  0  0
 34 61  1  0  0  0  0
 34 69  1  0  0  0  0
 34 79  2  0  0  0  0
 35 62  1  0  0  0  0
 35 74  1  0  0  0  0
 35 80  2  0  0  0  0
 36 70  1  0  0  0  0
 36 75  1  0  0  0  0
 36 81  2  0  0  0  0
 37 40  1  0  0  0  0
 38 47  1  0  0  0  0
 39 69  1  0  0  0  0
 40 42  1  0  0  0  0
 41 43  1  0  0  0  0
 41 44  1  0  0  0  0
 42 46  1  0  0  0  0
 43 48  1  0  0  0  0
 44 70  1  0  0  0  0
 45 48  1  0  0  0  0
 45 70  1  0  0  0  0
 46 73  1  0  0  0  0
 47 69  1  0  0  0  0
 48 68  1  0  0  0  0
 49 62  1  0  0  0  0
 50 63  1  0  0  0  0
 51 63  1  0  0  0  0
 52 63  1  0  0  0  0
 53 64  1  0  0  0  0
 54 64  1  0  0  0  0
 55 64  1  0  0  0  0
 56 76  1  0  0  0  0
 57 59  1  0  0  0  0
 58 83  1  0  0  0  0
 59 60  1  0  0  0  0
 60 75  1  0  0  0  0
 61 64  1  0  0  0  0
 61 74  1  0  0  0  0
 62 76  1  0  0  0  0
 66 68  1  0  0  0  0
M  CHG  1  76   1
M  ISO  4  36 100  58 101  75 100  83 101
M  END
> <Batch ID>
0092

> <Smiles>
CNC(C)C(=O)NC(C(=O)N1Cc2cc([101O:1][101CH2:1]c3ncc(CCC[100NH:0][100C:0](=O)N4CCCC(n5nc(-c6ccc(Oc7ccc(F)cc7F)cc6)c(C(N)=O)c5N)C4)nc3C(C)(C)C)ccc2CC1C(=O)NC1CCCc2ccccc21)C(C)(C)C

> <Shape>
0.178

> <Color>
0.187

> <Negative vol penalty>
0.000

$$$$

  -OEChem-04052319142D

  0  0  0     0  0  0  0  0  0999 V2000
M  END
$$$$

  -OEChem-04052319143D

 89 97  0     1  0  0  0  0  0999 V2000
  -23.4511  -18.0137   23.2727 C   0  0  0  0  0  0  0  0  0  0  0  0
  -24.5377  -18.8778   23.1829 C   0  0  0  0  0  0  0  0  0  0  0  0
  -26.1423  -13.1038   20.9077 C   0  0  0  0  0  0  0  0  0  0  0  0
  -24.5520  -14.4443   19.6785 C   0  0  0  0  0  0  0  0  0  0  0  0
  -22.2339  -18.3632   22.6894 C   0  0  0  0  0  0  0  0  0  0  0  0
  -24.4080  -20.0915   22.5087 C   0  0  0  0  0  0  0  0  0  0  0  0
  -27.1363  -25.3919   23.9116 C   0  0  0  0  0  0  0  0  0  0  0  0
  -25.1057  -12.2855   21.3565 C   0  0  0  0  0  0  0  0  0  0  0  0
  -23.5154  -13.6260   20.1273 C   0  0  0  0  0  0  0  0  0  0  0  0
  -28.2731  -26.0235   23.4092 C   0  0  0  0  0  0  0  0  0  0  0  0
  -22.9220   -9.6287   22.5347 C   0  0  0  0  0  0  0  0  0  0  0  0
  -23.1202   -8.2487   22.4917 C   0  0  0  0  0  0  0  0  0  0  0  0
  -26.8852  -27.3369   21.9367 C   0  0  0  0  0  0  0  0  0  0  0  0
  -31.4412  -24.7286   18.9772 C   0  0  0  0  0  0  0  0  0  0  0  0
  -29.0758  -25.1542   18.8862 C   0  0  0  0  0  0  0  0  0  0  0  0
  -23.4277   -8.3673   20.0983 C   0  0  0  0  0  0  0  0  0  0  0  0
  -25.8655  -14.1832   20.0688 C   0  0  0  0  0  0  0  0  0  0  0  0
  -27.7024  -14.8666   18.4358 C   0  0  0  0  0  0  0  0  0  0  0  0
  -22.0865  -19.5861   22.0160 C   0  0  0  0  0  0  0  0  0  0  0  0
  -25.8641  -25.7208   23.4218 C   0  0  0  0  0  0  0  0  0  0  0  0
  -23.1881  -20.4571   21.9146 C   0  0  0  0  0  0  0  0  0  0  0  0
  -25.7336  -26.7098   22.4364 C   0  0  0  0  0  0  0  0  0  0  0  0
  -30.3745  -25.6156   19.0700 C   0  0  0  0  0  0  0  0  0  0  0  0
  -23.7923  -12.5466   20.9663 C   0  0  0  0  0  0  0  0  0  0  0  0
  -28.1479  -26.9941   22.4195 C   0  0  0  0  0  0  0  0  0  0  0  0
  -22.9767  -10.3781   21.3594 C   0  0  0  0  0  0  0  0  0  0  0  0
  -23.3731   -7.6180   21.2736 C   0  0  0  0  0  0  0  0  0  0  0  0
  -23.2295   -9.7474   20.1412 C   0  0  0  0  0  0  0  0  0  0  0  0
  -26.9358  -15.0292   19.6053 C   0  0  0  0  0  0  0  0  0  0  0  0
  -31.1583  -23.4007   18.7008 C   0  0  0  0  0  0  0  0  0  0  0  0
  -28.8988  -23.8073   18.6138 C   0  0  0  0  0  0  0  0  0  0  0  0
  -28.5800  -15.9230   18.4508 C   0  0  0  0  0  0  0  0  0  0  0  0
  -27.6277  -13.8514   17.4261 C   0  0  0  0  0  0  0  0  0  0  0  0
  -23.5635  -24.1329   21.9087 C   0  0  0  0  0  0  0  0  0  0  0  0
  -21.9147  -26.8939   22.3338 C   0  0  0  0  0  0  0  0  0  0  0  0
  -21.9954  -30.2678   22.8408 C   0  0  0  0  0  0  0  0  0  0  0  0
  -28.3884  -21.3475   20.9784 C   0  0  0  0  0  0  0  0  0  0  0  0
  -20.7648  -19.8992   21.3606 C   0  0  0  0  0  0  0  0  0  0  0  0
  -24.6455  -25.0494   23.9933 C   0  0  0  0  0  0  0  0  0  0  0  0
  -24.3889  -27.1137   21.8914 C   0  0  0  0  0  0  0  0  0  0  0  0
  -20.6037  -21.3705   20.9868 C   0  0  0  0  0  0  0  0  0  0  0  0
  -30.8723  -18.8441   21.4681 C   0  0  0  0  0  0  0  0  0  0  0  0
  -21.8591  -21.8846   20.2894 C   0  0  0  0  0  0  0  0  0  0  0  0
  -30.2142  -17.5678   20.9407 C   0  0  0  0  0  0  0  0  0  0  0  0
  -29.8630  -19.7516   22.1680 C   0  0  0  0  0  0  0  0  0  0  0  0
  -28.0133  -18.8105   20.8388 C   0  0  0  0  0  0  0  0  0  0  0  0
  -23.0798  -21.7935   21.2130 C   0  0  1  0  0  0  0  0  0  0  0  0
  -23.4428  -25.0959   23.0558 C   0  0  1  0  0  0  0  0  0  0  0  0
  -28.9805  -17.8892   20.0759 C   0  0  2  0  0  0  0  0  0  0  0  0
  -31.4431  -27.7300   18.2466 C   0  0  0  0  0  0  0  0  0  0  0  0
  -27.4910  -22.1231   17.3867 C   0  0  0  0  0  0  0  0  0  0  0  0
  -20.4880  -32.2561   23.1091 C   0  0  0  0  0  0  0  0  0  0  0  0
  -32.3998  -21.7462   14.7425 C   0  0  0  0  0  0  0  0  0  0  0  0
  -31.1789  -20.4604   16.5079 C   0  0  0  0  0  0  0  0  0  0  0  0
  -21.3790  -26.8900   19.3300 C   0  0  0  0  0  0  0  0  0  0  0  0
  -20.7279  -29.3005   19.5134 C   0  0  0  0  0  0  0  0  0  0  0  0
  -19.4239  -27.5615   20.7374 C   0  0  0  0  0  0  0  0  0  0  0  0
  -23.0242  -30.8270   25.5589 C   0  0  0  0  0  0  0  0  0  0  0  0
  -32.2780  -22.4200   18.5956 C   0  0  0  0  0  0  0  0  0  0  0  0
  -32.8135  -22.3088   17.1561 C   0  0  0  0  0  0  0  0  0  0  0  0
  -31.3156  -27.3101   20.7316 C   0  0  0  0  0  0  0  0  0  0  0  0
  -26.8354  -22.8180   19.7194 C   0  0  0  0  0  0  0  0  0  0  0  0
  -30.4689  -26.8599   21.9185 C   0  0  0  0  0  0  0  0  0  1  0  0
  -30.6269  -27.0827   19.3720 C   0  0  2  0  0  0  0  0  0  0  0  0
  -27.5187  -23.2780   18.4090 C   0  0  1  0  0  0  0  0  0  0  0  0
  -21.7421  -28.1685   21.5435 C   0  0  1  0  0  0  0  0  0  0  0  0
  -21.2565  -31.1564   23.8252 C   0  0  2  0  0  0  0  0  0  0  0  0
  -31.7687  -21.8213   16.1351 C   0  0  0  0  0  0  0  0  0  0  0  0
  -20.8439  -27.9714   20.2898 C   0  0  0  0  0  0  0  0  0  0  0  0
  -27.2951  -16.1042   20.3120 N   0  0  0  0  0  0  0  0  0  0  0  0
  -29.9101  -22.9154   18.5161 N   0  0  0  0  0  0  0  0  0  0  0  0
  -28.2971  -16.6266   19.5845 N   0  0  0  0  0  0  0  0  0  0  0  0
  -23.2278  -26.4239   22.4777 N   0  0  0  0  0  0  0  0  0  0  0  0
  -28.7184  -20.0191   21.2938 N   0  0  0  0  0  0  0  0  0  0  0  0
  -29.5585  -16.3094   17.6049 N   0  0  0  0  0  0  0  0  0  0  0  0
  -26.6680  -12.8396   17.5657 N   0  0  0  0  0  0  0  0  0  0  0  0
  -23.0654  -22.8723   22.1776 N   0  0  0  0  0  0  0  0  0  0  0  0
  -21.2452  -29.1675   22.4834 N   0  0  0  0  0  0  0  0  0  0  0  0
  -27.2936  -21.5123   20.1388 N   0  0  0  0  0  0  0  0  0  0  0  0
  -22.2170  -31.7931   24.7702 N   0  3  0  0  0  0  0  0  0  0  0  0
  -28.4004  -13.8327   16.4381 O   0  0  0  0  0  0  0  0  0  0  0  0
  -24.0697  -24.5064   20.8570 O   0  0  0  0  0  0  0  0  0  0  0  0
  -20.9219  -26.3397   22.8121 O   0  0  0  0  0  0  0  0  0  0  0  0
  -23.1235  -30.5261   22.4273 O   0  0  0  0  0  0  0  0  0  0  0  0
  -29.0257  -22.3148   21.4087 O   0  0  0  0  0  0  0  0  0  0  0  0
  -22.7805  -11.7482   21.4038 O   0  0  0  0  0  0  0  0  0  0  0  0
  -29.2560  -27.6117   21.9269 O   0  0  0  0  0  0  0  0  0  1  0  0
  -23.5649   -6.2929   21.2327 F   0  0  0  0  0  0  0  0  0  0  0  0
  -23.2844  -10.4621   19.0090 F   0  0  0  0  0  0  0  0  0  0  0  0
  1  2  1  0  0  0  0
  1  5  2  0  0  0  0
  2  6  2  0  0  0  0
  3  8  2  0  0  0  0
  3 17  1  0  0  0  0
  4  9  1  0  0  0  0
  4 17  2  0  0  0  0
  5 19  1  0  0  0  0
  6 21  1  0  0  0  0
  7 10  2  0  0  0  0
  7 20  1  0  0  0  0
  8 24  1  0  0  0  0
  9 24  2  0  0  0  0
 10 25  1  0  0  0  0
 11 12  2  0  0  0  0
 11 26  1  0  0  0  0
 12 27  1  0  0  0  0
 13 22  1  0  0  0  0
 13 25  2  0  0  0  0
 14 23  1  0  0  0  0
 14 30  2  0  0  0  0
 15 23  2  0  0  0  0
 15 31  1  0  0  0  0
 16 27  2  0  0  0  0
 16 28  1  0  0  0  0
 17 29  1  0  0  0  0
 18 29  1  0  0  0  0
 18 32  2  0  0  0  0
 18 33  1  0  0  0  0
 19 21  2  0  0  0  0
 19 38  1  0  0  0  0
 20 22  2  0  0  0  0
 20 39  1  0  0  0  0
 21 47  1  0  0  0  0
 22 40  1  0  0  0  0
 23 64  1  0  0  0  0
 24 86  1  0  0  0  0
 25 87  1  0  0  0  0
 26 28  2  0  0  0  0
 26 86  1  0  0  0  0
 27 88  1  0  0  0  0
 28 89  1  0  0  0  0
 29 70  2  0  0  0  0
 30 59  1  0  0  0  0
 30 71  1  0  0  0  0
 31 65  1  0  0  0  0
 31 71  2  0  0  0  0
 32 72  1  0  0  0  0
 32 75  1  0  0  0  0
 33 76  1  0  0  0  0
 33 81  2  0  0  0  0
 34 48  1  0  0  0  0
 34 77  1  0  0  0  0
 34 82  2  0  0  0  0
 35 66  1  0  0  0  0
 35 73  1  0  0  0  0
 35 83  2  0  0  0  0
 36 67  1  0  0  0  0
 36 78  1  0  0  0  0
 36 84  2  0  0  0  0
 37 74  1  0  0  0  0
 37 79  1  0  0  0  0
 37 85  2  0  0  0  0
 38 41  1  0  0  0  0
 39 48  1  0  0  0  0
 40 73  1  0  0  0  0
 41 43  1  0  0  0  0
 42 44  1  0  0  0  0
 42 45  1  0  0  0  0
 43 47  1  0  0  0  0
 44 49  1  0  0  0  0
 45 74  1  0  0  0  0
 46 49  1  0  0  0  0
 46 74  1  0  0  0  0
 47 77  1  0  0  0  0
 48 73  1  0  0  0  0
 49 72  1  0  0  0  0
 50 64  1  0  0  0  0
 51 65  1  0  0  0  0
 52 67  1  0  0  0  0
 53 68  1  0  0  0  0
 54 68  1  0  0  0  0
 55 69  1  0  0  0  0
 56 69  1  0  0  0  0
 57 69  1  0  0  0  0
 58 80  1  0  0  0  0
 59 60  1  0  0  0  0
 60 68  1  0  0  0  0
 61 63  1  0  0  0  0
 61 64  1  0  0  0  0
 62 65  1  0  0  0  0
 62 79  1  0  0  0  0
 63 87  1  0  0  0  0
 66 69  1  0  0  0  0
 66 78  1  0  0  0  0
 67 80  1  0  0  0  0
 70 72  1  0  0  0  0
M  CHG  1  80   1
M  ISO  4  37 100  63 101  79 100  87 101
M  END
> <Batch ID>
0092

> <Smiles>
CNC(C)C(=O)NC(C(=O)N1Cc2cc([101O:1][101CH2:1]CC(C)c3cc(CCC(C)C)nc(C(C)C[100NH:0][100C:0](=O)N4CCCC(n5nc(-c6ccc(Oc7ccc(F)cc7F)cc6)c(C(N)=O)c5N)C4)c3)ccc2CC1C(=O)NC1CCCc2ccccc21)C(C)(C)C

> <Shape>
0.231

> <Color>
0.050

> <Negative vol penalty>
0.000

$$$$

  -OEChem-04052319143D

 83 90  0     1  0  0  0  0  0999 V2000
  -16.4687  -27.7581   19.9019 C   0  0  0  0  0  0  0  0  0  0  0  0
  -17.6425  -27.9337   19.1762 C   0  0  0  0  0  0  0  0  0  0  0  0
  -26.1952  -13.9118   20.6239 C   0  0  0  0  0  0  0  0  0  0  0  0
  -24.3801  -15.5063   20.6261 C   0  0  0  0  0  0  0  0  0  0  0  0
  -16.5283  -27.5148   21.2735 C   0  0  0  0  0  0  0  0  0  0  0  0
  -18.8767  -27.8672   19.8218 C   0  0  0  0  0  0  0  0  0  0  0  0
  -25.6591  -25.8495   18.7067 C   0  0  0  0  0  0  0  0  0  0  0  0
  -25.3731  -12.9751   21.2502 C   0  0  0  0  0  0  0  0  0  0  0  0
  -23.5580  -14.5695   21.2524 C   0  0  0  0  0  0  0  0  0  0  0  0
  -26.9602  -26.3383   18.8165 C   0  0  0  0  0  0  0  0  0  0  0  0
  -22.9026  -10.8428   20.3656 C   0  0  0  0  0  0  0  0  0  0  0  0
  -22.9157   -9.5375   19.8741 C   0  0  0  0  0  0  0  0  0  0  0  0
  -26.9442  -25.8338   21.1754 C   0  0  0  0  0  0  0  0  0  0  0  0
  -23.6561   -8.7336   22.0288 C   0  0  0  0  0  0  0  0  0  0  0  0
  -25.6987  -15.1775   20.3119 C   0  0  0  0  0  0  0  0  0  0  0  0
  -26.7157  -16.3393   18.2813 C   0  0  0  0  0  0  0  0  0  0  0  0
  -17.7641  -27.4356   21.9346 C   0  0  0  0  0  0  0  0  0  0  0  0
  -24.9857  -25.3584   19.8344 C   0  0  0  0  0  0  0  0  0  0  0  0
  -18.9528  -27.6239   21.2038 C   0  0  0  0  0  0  0  0  0  0  0  0
  -25.6356  -25.3369   21.0767 C   0  0  0  0  0  0  0  0  0  0  0  0
  -24.0545  -13.3039   21.5644 C   0  0  0  0  0  0  0  0  0  0  0  0
  -27.6019  -26.3332   20.0515 C   0  0  0  0  0  0  0  0  0  0  0  0
  -23.2663  -11.0936   21.6887 C   0  0  0  0  0  0  0  0  0  0  0  0
  -23.2924   -8.4829   20.7057 C   0  0  0  0  0  0  0  0  0  0  0  0
  -23.6430  -10.0390   22.5203 C   0  0  0  0  0  0  0  0  0  0  0  0
  -26.5476  -16.1458   19.6655 C   0  0  0  0  0  0  0  0  0  0  0  0
  -27.6193  -17.3693   18.1858 C   0  0  0  0  0  0  0  0  0  0  0  0
  -26.1092  -15.6498   17.1802 C   0  0  0  0  0  0  0  0  0  0  0  0
  -22.3478  -26.1796   21.4061 C   0  0  0  0  0  0  0  0  0  0  0  0
  -22.9628  -23.4648   23.0716 C   0  0  0  0  0  0  0  0  0  0  0  0
  -25.2544  -21.1582   24.1084 C   0  0  0  0  0  0  0  0  0  0  0  0
  -29.3497  -22.3347   19.7015 C   0  0  0  0  0  0  0  0  0  0  0  0
  -17.7765  -27.2176   23.4269 C   0  0  0  0  0  0  0  0  0  0  0  0
  -23.5922  -24.8099   19.6941 C   0  0  0  0  0  0  0  0  0  0  0  0
  -24.9638  -24.8016   22.3139 C   0  0  0  0  0  0  0  0  0  0  0  0
  -19.1380  -26.7898   23.9687 C   0  0  0  0  0  0  0  0  0  0  0  0
  -30.5037  -19.5596   21.7177 C   0  0  0  0  0  0  0  0  0  0  0  0
  -20.2428  -27.6680   23.3900 C   0  0  0  0  0  0  0  0  0  0  0  0
  -29.5823  -18.4347   21.2425 C   0  0  0  0  0  0  0  0  0  0  0  0
  -29.7614  -20.8910   21.7846 C   0  0  0  0  0  0  0  0  0  0  0  0
  -28.1841  -20.1727   20.0325 C   0  0  0  0  0  0  0  0  0  0  0  0
  -20.3115  -27.5342   21.8639 C   0  0  1  0  0  0  0  0  0  0  0  0
  -22.8156  -24.8086   21.0072 C   0  0  1  0  0  0  0  0  0  0  0  0
  -28.8814  -18.8046   19.9219 C   0  0  2  0  0  0  0  0  0  0  0  0
  -26.1304  -19.0661   25.1822 C   0  0  0  0  0  0  0  0  0  0  0  0
  -30.1012  -27.3158   22.1594 C   0  0  0  0  0  0  0  0  0  0  0  0
  -22.8085  -25.1403   25.6170 C   0  0  0  0  0  0  0  0  0  0  0  0
  -23.9395  -23.2680   26.8349 C   0  0  0  0  0  0  0  0  0  0  0  0
  -21.7115  -22.8985   25.7757 C   0  0  0  0  0  0  0  0  0  0  0  0
  -33.3808  -25.2078   17.0998 C   0  0  0  0  0  0  0  0  0  0  0  0
  -24.8856  -19.5906   21.6253 C   0  0  0  0  0  0  0  0  0  0  0  0
  -30.9326  -25.6006   20.5070 C   0  0  0  0  0  0  0  0  0  0  0  0
  -31.7384  -24.1929   18.5299 C   0  0  0  0  0  0  0  0  0  0  0  0
  -31.0411  -25.5385   16.6655 C   0  0  0  0  0  0  0  0  0  0  0  0
  -23.7583  -23.1269   24.3093 C   0  0  1  0  0  0  0  0  0  0  0  0
  -25.2311  -19.6404   24.0985 C   0  0  2  0  0  0  0  0  0  0  0  0
  -30.5887  -24.4760   19.5089 C   0  0  1  0  0  0  0  0  0  0  0  0
  -29.6984  -26.2300   21.1695 C   0  0  2  0  0  0  0  0  0  1  0  0
  -23.0667  -23.6204   25.6115 C   0  0  0  0  0  0  0  0  0  0  0  0
  -30.9811  -26.9702   16.1961 C   0  0  0  0  0  0  0  0  0  0  0  0
  -27.2854  -16.9853   20.3968 N   0  0  0  0  0  0  0  0  0  0  0  0
  -27.9258  -17.7164   19.4687 N   0  0  0  0  0  0  0  0  0  0  0  0
  -23.5990  -24.2822   22.1267 N   0  0  0  0  0  0  0  0  0  0  0  0
  -29.1327  -21.1931   20.4909 N   0  0  0  0  0  0  0  0  0  0  0  0
  -28.1736  -18.0029   17.1305 N   0  0  0  0  0  0  0  0  0  0  0  0
  -25.2031  -14.6168   17.4562 N   0  0  0  0  0  0  0  0  0  0  0  0
  -20.9742  -26.3020   21.4940 N   0  0  0  0  0  0  0  0  0  0  0  0
  -23.9907  -21.6873   24.2648 N   0  0  0  0  0  0  0  0  0  0  0  0
  -30.2575  -23.2556   20.2102 N   0  0  0  0  0  0  0  0  0  0  0  0
  -32.0555  -25.3527   17.7044 N   0  0  2  0  0  0  0  0  0  0  0  0
  -25.6953  -19.1237   22.7800 N   0  3  0  0  0  0  0  0  0  0  0  0
  -26.3757  -15.9301   15.9869 O   0  0  0  0  0  0  0  0  0  0  0  0
  -23.1721  -27.0608   21.6200 O   0  0  0  0  0  0  0  0  0  0  0  0
  -21.8216  -23.0141   22.9445 O   0  0  0  0  0  0  0  0  0  0  0  0
  -26.2904  -21.8093   23.9928 O   0  0  0  0  0  0  0  0  0  0  0  0
  -28.7804  -22.5176   18.6201 O   0  0  0  0  0  0  0  0  0  0  0  0
  -23.2520  -12.3900   22.1753 O   0  0  0  0  0  0  0  0  0  0  0  0
  -28.8715  -26.8104   20.1616 O   0  0  0  0  0  0  0  0  0  1  0  0
  -23.3035   -7.2292   20.2341 F   0  0  0  0  0  0  0  0  0  0  0  0
  -23.9922  -10.2736   23.7926 F   0  0  0  0  0  0  0  0  0  0  0  0
  -30.0401  -27.1141   15.2368 F   0  0  0  0  0  0  0  0  0  0  0  0
  -30.6660  -27.8078   17.2071 F   0  0  0  0  0  0  0  0  0  0  0  0
  -32.1610  -27.3678   15.6744 F   0  0  0  0  0  0  0  0  0  0  0  0
  1  2  1  0  0  0  0
  1  5  2  0  0  0  0
  2  6  2  0  0  0  0
  3  8  2  0  0  0  0
  3 15  1  0  0  0  0
  4  9  1  0  0  0  0
  4 15  2  0  0  0  0
  5 17  1  0  0  0  0
  6 19  1  0  0  0  0
  7 10  2  0  0  0  0
  7 18  1  0  0  0  0
  8 21  1  0  0  0  0
  9 21  2  0  0  0  0
 10 22  1  0  0  0  0
 11 12  2  0  0  0  0
 11 23  1  0  0  0  0
 12 24  1  0  0  0  0
 13 20  1  0  0  0  0
 13 22  2  0  0  0  0
 14 24  2  0  0  0  0
 14 25  1  0  0  0  0
 15 26  1  0  0  0  0
 16 26  1  0  0  0  0
 16 27  2  0  0  0  0
 16 28  1  0  0  0  0
 17 19  2  0  0  0  0
 17 33  1  0  0  0  0
 18 20  2  0  0  0  0
 18 34  1  0  0  0  0
 19 42  1  0  0  0  0
 20 35  1  0  0  0  0
 21 77  1  0  0  0  0
 22 78  1  0  0  0  0
 23 25  2  0  0  0  0
 23 77  1  0  0  0  0
 24 79  1  0  0  0  0
 25 80  1  0  0  0  0
 26 61  2  0  0  0  0
 27 62  1  0  0  0  0
 27 65  1  0  0  0  0
 28 66  1  0  0  0  0
 28 72  2  0  0  0  0
 29 43  1  0  0  0  0
 29 67  1  0  0  0  0
 29 73  2  0  0  0  0
 30 55  1  0  0  0  0
 30 63  1  0  0  0  0
 30 74  2  0  0  0  0
 31 56  1  0  0  0  0
 31 68  1  0  0  0  0
 31 75  2  0  0  0  0
 32 64  1  0  0  0  0
 32 69  1  0  0  0  0
 32 76  2  0  0  0  0
 33 36  1  0  0  0  0
 34 43  1  0  0  0  0
 35 63  1  0  0  0  0
 36 38  1  0  0  0  0
 37 39  1  0  0  0  0
 37 40  1  0  0  0  0
 38 42  1  0  0  0  0
 39 44  1  0  0  0  0
 40 64  1  0  0  0  0
 41 44  1  0  0  0  0
 41 64  1  0  0  0  0
 42 67  1  0  0  0  0
 43 63  1  0  0  0  0
 44 62  1  0  0  0  0
 45 56  1  0  0  0  0
 46 58  1  0  0  0  0
 47 59  1  0  0  0  0
 48 59  1  0  0  0  0
 49 59  1  0  0  0  0
 50 70  1  0  0  0  0
 51 71  1  0  0  0  0
 52 57  1  0  0  0  0
 52 58  1  0  0  0  0
 53 57  1  0  0  0  0
 53 70  1  0  0  0  0
 54 60  1  0  0  0  0
 54 70  1  0  0  0  0
 55 59  1  0  0  0  0
 55 68  1  0  0  0  0
 56 71  1  0  0  0  0
 57 69  1  0  0  0  0
 58 78  1  0  0  0  0
 60 81  1  0  0  0  0
 60 82  1  0  0  0  0
 60 83  1  0  0  0  0
 61 62  1  0  0  0  0
M  CHG  1  71   1
M  ISO  4  32 100  58 101  69 100  78 101
M  END
> <Batch ID>
0092

> <Smiles>
CNC(C)C(=O)NC(C(=O)N1Cc2cc([101O:1][101CH:1](C)CC(CN(C)CC(F)(F)F)[100NH:0][100C:0](=O)N3CCCC(n4nc(-c5ccc(Oc6ccc(F)cc6F)cc5)c(C(N)=O)c4N)C3)ccc2CC1C(=O)NC1CCCc2ccccc21)C(C)(C)C

> <Shape>
0.217

> <Color>
0.062

> <Negative vol penalty>
0.000

$$$$

  -OEChem-04052319143D

 87 95  0     1  0  0  0  0  0999 V2000
  -34.5417  -29.8226   25.2266 C   0  0  0  0  0  0  0  0  0  0  0  0
  -33.2445  -30.1369   24.8342 C   0  0  0  0  0  0  0  0  0  0  0  0
  -29.1512  -17.4526   19.2893 C   0  0  0  0  0  0  0  0  0  0  0  0
  -30.2826  -17.8944   21.3778 C   0  0  0  0  0  0  0  0  0  0  0  0
  -34.9221  -28.4887   25.3676 C   0  0  0  0  0  0  0  0  0  0  0  0
  -32.3273  -29.1175   24.5814 C   0  0  0  0  0  0  0  0  0  0  0  0
  -26.3033  -29.2294   25.6789 C   0  0  0  0  0  0  0  0  0  0  0  0
  -25.0093  -30.1764   19.7494 C   0  0  0  0  0  0  0  0  0  0  0  0
  -29.7245  -16.1817   19.2476 C   0  0  0  0  0  0  0  0  0  0  0  0
  -30.8559  -16.6235   21.3361 C   0  0  0  0  0  0  0  0  0  0  0  0
  -25.2049  -29.4815   24.8581 C   0  0  0  0  0  0  0  0  0  0  0  0
  -30.6049  -12.6866   18.7740 C   0  0  0  0  0  0  0  0  0  0  0  0
  -29.7799  -11.6138   18.4365 C   0  0  0  0  0  0  0  0  0  0  0  0
  -26.2936  -30.4481   19.2911 C   0  0  0  0  0  0  0  0  0  0  0  0
  -24.9162  -27.1096   24.5263 C   0  0  0  0  0  0  0  0  0  0  0  0
  -28.3782  -12.0912   20.3455 C   0  0  0  0  0  0  0  0  0  0  0  0
  -29.4303  -18.3090   20.3544 C   0  0  0  0  0  0  0  0  0  0  0  0
  -27.6119  -19.9829   20.9864 C   0  0  0  0  0  0  0  0  0  0  0  0
  -34.0064  -27.4525   25.1258 C   0  0  0  0  0  0  0  0  0  0  0  0
  -26.7238  -27.9138   25.9212 C   0  0  0  0  0  0  0  0  0  0  0  0
  -32.6963  -27.7684   24.7180 C   0  0  0  0  0  0  0  0  0  0  0  0
  -26.0187  -26.8434   25.3526 C   0  0  0  0  0  0  0  0  0  0  0  0
  -24.6472  -28.8684   20.0517 C   0  0  0  0  0  0  0  0  0  0  0  0
  -30.5768  -15.7671   20.2709 C   0  0  0  0  0  0  0  0  0  0  0  0
  -24.5129  -28.4216   24.2793 C   0  0  0  0  0  0  0  0  0  0  0  0
  -30.3167  -13.4617   19.8973 C   0  0  0  0  0  0  0  0  0  0  0  0
  -28.6665  -11.3161   19.2222 C   0  0  0  0  0  0  0  0  0  0  0  0
  -29.2033  -13.1640   20.6830 C   0  0  0  0  0  0  0  0  0  0  0  0
  -28.8388  -19.6222   20.3978 C   0  0  0  0  0  0  0  0  0  0  0  0
  -27.1715  -29.3851   19.1534 C   0  0  0  0  0  0  0  0  0  0  0  0
  -25.5988  -27.8760   19.8797 C   0  0  0  0  0  0  0  0  0  0  0  0
  -27.5059  -21.3333   20.7591 C   0  0  0  0  0  0  0  0  0  0  0  0
  -26.6538  -19.1700   21.6769 C   0  0  0  0  0  0  0  0  0  0  0  0
  -29.3793  -26.2652   25.3432 C   0  0  0  0  0  0  0  0  0  0  0  0
  -27.8712  -23.9763   27.0778 C   0  0  0  0  0  0  0  0  0  0  0  0
  -24.9307  -22.6690   28.2141 C   0  0  0  0  0  0  0  0  0  0  0  0
  -29.6914  -26.3501   20.8023 C   0  0  0  0  0  0  0  0  0  0  0  0
  -34.4774  -26.0248   25.2455 C   0  0  0  0  0  0  0  0  0  0  0  0
  -27.8943  -27.6576   26.8304 C   0  0  0  0  0  0  0  0  0  0  0  0
  -26.4173  -25.4118   25.5976 C   0  0  0  0  0  0  0  0  0  0  0  0
  -33.3379  -25.0118   25.3215 C   0  0  0  0  0  0  0  0  0  0  0  0
  -30.2332  -24.4005   17.8018 C   0  0  0  0  0  0  0  0  0  0  0  0
  -32.2901  -25.3059   24.2527 C   0  0  0  0  0  0  0  0  0  0  0  0
  -29.8132  -23.0047   18.2661 C   0  0  0  0  0  0  0  0  0  0  0  0
  -30.9556  -25.1582   18.9119 C   0  0  0  0  0  0  0  0  0  0  0  0
  -29.7648  -23.8776   20.6484 C   0  0  0  0  0  0  0  0  0  0  0  0
  -31.6656  -26.6912   24.4587 C   0  0  1  0  0  0  0  0  0  0  0  0
  -28.5482  -26.2996   26.5945 C   0  0  1  0  0  0  0  0  0  0  0  0
  -29.0092  -23.0689   19.5782 C   0  0  2  0  0  0  0  0  0  0  0  0
  -25.2671  -26.4535   20.1914 C   0  0  0  0  0  0  0  0  0  0  0  0
  -24.0150  -20.7730   29.5794 C   0  0  0  0  0  0  0  0  0  0  0  0
  -21.7741  -29.3615   18.6012 C   0  0  0  0  0  0  0  0  0  0  0  0
  -21.0255  -27.3522   19.8959 C   0  0  0  0  0  0  0  0  0  0  0  0
  -28.3568  -22.0672   24.7478 C   0  0  0  0  0  0  0  0  0  0  0  0
  -26.6395  -20.5362   25.7352 C   0  0  0  0  0  0  0  0  0  0  0  0
  -28.7172  -21.0647   27.0104 C   0  0  0  0  0  0  0  0  0  0  0  0
  -23.7344  -24.5177   30.1915 C   0  0  0  0  0  0  0  0  0  0  0  0
  -28.5585  -29.6408   18.6656 C   0  0  0  0  0  0  0  0  0  0  0  0
  -29.5814  -29.9362   19.7798 C   0  0  0  0  0  0  0  0  0  0  0  0
  -22.6584  -29.6841   21.4485 C   0  0  0  0  0  0  0  0  0  0  0  0
  -29.7076  -28.8313   20.8265 C   0  0  0  0  0  0  0  0  0  0  0  0
  -23.4437  -29.8881   22.7424 C   0  0  0  0  0  0  0  0  0  1  0  0
  -23.2411  -28.5642   20.5530 C   0  0  1  0  0  0  0  0  0  0  0  0
  -26.9327  -22.8378   26.7587 C   0  0  1  0  0  0  0  0  0  0  0  0
  -24.4976  -22.2150   29.5964 C   0  0  2  0  0  0  0  0  0  0  0  0
  -22.2410  -28.1557   19.4256 C   0  0  0  0  0  0  0  0  0  0  0  0
  -27.6550  -21.6534   26.0567 C   0  0  0  0  0  0  0  0  0  0  0  0
  -29.4672  -20.6596   19.8385 N   0  0  0  0  0  0  0  0  0  0  0  0
  -26.8560  -28.1014   19.4368 N   0  0  0  0  0  0  0  0  0  0  0  0
  -28.6318  -21.6855   20.0746 N   0  0  0  0  0  0  0  0  0  0  0  0
  -27.5722  -25.2131   26.4888 N   0  0  0  0  0  0  0  0  0  0  0  0
  -30.1292  -25.1990   20.1266 N   0  0  0  0  0  0  0  0  0  0  0  0
  -26.5604  -22.2418   21.0800 N   0  0  0  0  0  0  0  0  0  0  0  0
  -26.9194  -17.8014   21.8217 N   0  0  0  0  0  0  0  0  0  0  0  0
  -30.6926  -26.6528   25.5293 N   0  0  0  0  0  0  0  0  0  0  0  0
  -26.2820  -22.4808   28.0148 N   0  0  0  0  0  0  0  0  0  0  0  0
  -30.0855  -27.5614   20.2472 N   0  0  0  0  0  0  0  0  0  0  0  0
  -23.3902  -23.0754   30.1008 N   0  3  0  0  0  0  0  0  0  0  0  0
  -25.5858  -19.6401   22.1372 O   0  0  0  0  0  0  0  0  0  0  0  0
  -28.8675  -25.9117   24.2874 O   0  0  0  0  0  0  0  0  0  0  0  0
  -28.8300  -23.7775   27.8280 O   0  0  0  0  0  0  0  0  0  0  0  0
  -24.1478  -23.1397   27.3919 O   0  0  0  0  0  0  0  0  0  0  0  0
  -28.9958  -26.3022   21.8226 O   0  0  0  0  0  0  0  0  0  0  0  0
  -31.1363  -14.5270   20.2307 O   0  0  0  0  0  0  0  0  0  0  0  0
  -23.4408  -28.6649   23.4773 O   0  0  0  0  0  0  0  0  0  1  0  0
  -27.8735  -10.2867   18.8971 F   0  0  0  0  0  0  0  0  0  0  0  0
  -28.9205  -13.9058   21.7627 F   0  0  0  0  0  0  0  0  0  0  0  0
  1  2  1  0  0  0  0
  1  5  2  0  0  0  0
  2  6  2  0  0  0  0
  3  9  2  0  0  0  0
  3 17  1  0  0  0  0
  4 10  1  0  0  0  0
  4 17  2  0  0  0  0
  5 19  1  0  0  0  0
  6 21  1  0  0  0  0
  7 11  2  0  0  0  0
  7 20  1  0  0  0  0
  8 14  2  0  0  0  0
  8 23  1  0  0  0  0
  9 24  1  0  0  0  0
 10 24  2  0  0  0  0
 11 25  1  0  0  0  0
 12 13  2  0  0  0  0
 12 26  1  0  0  0  0
 13 27  1  0  0  0  0
 14 30  1  0  0  0  0
 15 22  1  0  0  0  0
 15 25  2  0  0  0  0
 16 27  2  0  0  0  0
 16 28  1  0  0  0  0
 17 29  1  0  0  0  0
 18 29  1  0  0  0  0
 18 32  2  0  0  0  0
 18 33  1  0  0  0  0
 19 21  2  0  0  0  0
 19 38  1  0  0  0  0
 20 22  2  0  0  0  0
 20 39  1  0  0  0  0
 21 47  1  0  0  0  0
 22 40  1  0  0  0  0
 23 31  2  0  0  0  0
 23 63  1  0  0  0  0
 24 84  1  0  0  0  0
 25 85  1  0  0  0  0
 26 28  2  0  0  0  0
 26 84  1  0  0  0  0
 27 86  1  0  0  0  0
 28 87  1  0  0  0  0
 29 68  2  0  0  0  0
 30 58  1  0  0  0  0
 30 69  2  0  0  0  0
 31 50  1  0  0  0  0
 31 69  1  0  0  0  0
 32 70  1  0  0  0  0
 32 73  1  0  0  0  0
 33 74  1  0  0  0  0
 33 79  2  0  0  0  0
 34 48  1  0  0  0  0
 34 75  1  0  0  0  0
 34 80  2  0  0  0  0
 35 64  1  0  0  0  0
 35 71  1  0  0  0  0
 35 81  2  0  0  0  0
 36 65  1  0  0  0  0
 36 76  1  0  0  0  0
 36 82  2  0  0  0  0
 37 72  1  0  0  0  0
 37 77  1  0  0  0  0
 37 83  2  0  0  0  0
 38 41  1  0  0  0  0
 39 48  1  0  0  0  0
 40 71  1  0  0  0  0
 41 43  1  0  0  0  0
 42 44  1  0  0  0  0
 42 45  1  0  0  0  0
 43 47  1  0  0  0  0
 44 49  1  0  0  0  0
 45 72  1  0  0  0  0
 46 49  1  0  0  0  0
 46 72  1  0  0  0  0
 47 75  1  0  0  0  0
 48 71  1  0  0  0  0
 49 70  1  0  0  0  0
 51 65  1  0  0  0  0
 52 66  1  0  0  0  0
 53 66  1  0  0  0  0
 54 67  1  0  0  0  0
 55 67  1  0  0  0  0
 56 67  1  0  0  0  0
 57 78  1  0  0  0  0
 58 59  1  0  0  0  0
 59 61  1  0  0  0  0
 60 62  1  0  0  0  0
 60 63  1  0  0  0  0
 61 77  1  0  0  0  0
 62 85  1  0  0  0  0
 63 66  1  0  0  0  0
 64 67  1  0  0  0  0
 64 76  1  0  0  0  0
 65 78  1  0  0  0  0
 68 70  1  0  0  0  0
M  CHG  1  78   1
M  ISO  4  37 100  62 101  77 100  85 101
M  END
> <Batch ID>
0092

> <Smiles>
CNC(C)C(=O)NC(C(=O)N1Cc2cc([101O:1][101CH2:1]CC(c3ccc(CCC[100NH:0][100C:0](=O)N4CCCC(n5nc(-c6ccc(Oc7ccc(F)cc7F)cc6)c(C(N)=O)c5N)C4)nc3C)C(C)C)ccc2CC1C(=O)NC1CCCc2ccccc21)C(C)(C)C

> <Shape>
0.220

> <Color>
0.068

> <Negative vol penalty>
0.000

$$$$

  -OEChem-04052319143D

 90 98  0     1  0  0  0  0  0999 V2000
  -18.9421  -26.8893   10.5295 C   0  0  0  0  0  0  0  0  0  0  0  0
  -19.4358  -25.6122   10.7756 C   0  0  0  0  0  0  0  0  0  0  0  0
  -23.0614   -9.8493   19.9458 C   0  0  0  0  0  0  0  0  0  0  0  0
  -23.8288   -9.8607   22.2366 C   0  0  0  0  0  0  0  0  0  0  0  0
  -19.1835  -27.9164   11.4409 C   0  0  0  0  0  0  0  0  0  0  0  0
  -20.1722  -25.3617   11.9329 C   0  0  0  0  0  0  0  0  0  0  0  0
  -21.4584  -20.1919   16.7220 C   0  0  0  0  0  0  0  0  0  0  0  0
  -22.3230   -8.6934   20.1989 C   0  0  0  0  0  0  0  0  0  0  0  0
  -23.0903   -8.7047   22.4898 C   0  0  0  0  0  0  0  0  0  0  0  0
  -22.5225  -19.5178   17.3196 C   0  0  0  0  0  0  0  0  0  0  0  0
  -21.1207   -5.9606   23.8345 C   0  0  0  0  0  0  0  0  0  0  0  0
  -20.3685   -5.9147   25.0082 C   0  0  0  0  0  0  0  0  0  0  0  0
  -22.8097  -21.3505   18.8616 C   0  0  0  0  0  0  0  0  0  0  0  0
  -29.3213  -18.6554   20.8798 C   0  0  0  0  0  0  0  0  0  0  0  0
  -30.1793  -20.0219   19.0963 C   0  0  0  0  0  0  0  0  0  0  0  0
  -19.1138   -7.8465   24.2796 C   0  0  0  0  0  0  0  0  0  0  0  0
  -23.8144  -10.4330   20.9646 C   0  0  0  0  0  0  0  0  0  0  0  0
  -24.1457  -12.9594   20.8420 C   0  0  0  0  0  0  0  0  0  0  0  0
  -19.9150  -27.6761   12.6147 C   0  0  0  0  0  0  0  0  0  0  0  0
  -21.0683  -21.4573   17.1834 C   0  0  0  0  0  0  0  0  0  0  0  0
  -20.4248  -26.3868   12.8603 C   0  0  0  0  0  0  0  0  0  0  0  0
  -21.7387  -22.0375   18.2698 C   0  0  0  0  0  0  0  0  0  0  0  0
  -29.1419  -19.6792   19.9563 C   0  0  0  0  0  0  0  0  0  0  0  0
  -22.3374   -8.1211   21.4708 C   0  0  0  0  0  0  0  0  0  0  0  0
  -23.2001  -20.0983   18.3877 C   0  0  0  0  0  0  0  0  0  0  0  0
  -20.8696   -6.9495   22.8834 C   0  0  0  0  0  0  0  0  0  0  0  0
  -19.3651   -6.8576   25.2308 C   0  0  0  0  0  0  0  0  0  0  0  0
  -19.8661   -7.8924   23.1059 C   0  0  0  0  0  0  0  0  0  0  0  0
  -24.5778  -11.6267   20.7037 C   0  0  0  0  0  0  0  0  0  0  0  0
  -30.5474  -18.0103   20.9029 C   0  0  0  0  0  0  0  0  0  0  0  0
  -31.3670  -19.3158   19.1993 C   0  0  0  0  0  0  0  0  0  0  0  0
  -25.2337  -13.7130   20.4747 C   0  0  0  0  0  0  0  0  0  0  0  0
  -22.8746  -13.4704   21.2648 C   0  0  0  0  0  0  0  0  0  0  0  0
  -20.9404  -24.3675   15.9114 C   0  0  0  0  0  0  0  0  0  0  0  0
  -19.5074  -25.1103   18.7251 C   0  0  0  0  0  0  0  0  0  0  0  0
  -19.0317  -24.3616   22.0205 C   0  0  0  0  0  0  0  0  0  0  0  0
  -30.7139  -14.7540   20.6444 C   0  0  0  0  0  0  0  0  0  0  0  0
  -20.1907  -28.8290   13.5471 C   0  0  0  0  0  0  0  0  0  0  0  0
  -19.9014  -22.1596   16.5453 C   0  0  0  0  0  0  0  0  0  0  0  0
  -21.3460  -23.3850   18.8160 C   0  0  0  0  0  0  0  0  0  0  0  0
  -20.6605  -28.3930   14.9325 C   0  0  0  0  0  0  0  0  0  0  0  0
  -29.5780  -12.3635   18.2628 C   0  0  0  0  0  0  0  0  0  0  0  0
  -21.7426  -27.3241   14.8174 C   0  0  0  0  0  0  0  0  0  0  0  0
  -28.1431  -12.0644   18.7006 C   0  0  0  0  0  0  0  0  0  0  0  0
  -30.4982  -12.5887   19.4605 C   0  0  0  0  0  0  0  0  0  0  0  0
  -28.5981  -13.3131   20.8529 C   0  0  0  0  0  0  0  0  0  0  0  0
  -21.2068  -26.0699   14.1165 C   0  0  1  0  0  0  0  0  0  0  0  0
  -19.9197  -23.6692   16.7648 C   0  0  1  0  0  0  0  0  0  0  0  0
  -27.6208  -13.1339   19.6786 C   0  0  2  0  0  0  0  0  0  0  0  0
  -26.9507  -19.5758   16.9627 C   0  0  0  0  0  0  0  0  0  0  0  0
  -33.4338  -21.5565   19.8473 C   0  0  0  0  0  0  0  0  0  0  0  0
  -31.6818  -18.1004   16.3471 C   0  0  0  0  0  0  0  0  0  0  0  0
  -27.6083  -21.1930   21.2008 C   0  0  0  0  0  0  0  0  0  0  0  0
  -17.8365  -25.1733   24.0724 C   0  0  0  0  0  0  0  0  0  0  0  0
  -33.8031  -18.7983   18.4914 C   0  0  0  0  0  0  0  0  0  0  0  0
  -21.5757  -27.3301   19.0487 C   0  0  0  0  0  0  0  0  0  0  0  0
  -20.9501  -27.4647   21.4692 C   0  0  0  0  0  0  0  0  0  0  0  0
  -19.2502  -27.9660   19.7137 C   0  0  0  0  0  0  0  0  0  0  0  0
  -17.4688  -21.8581   22.2420 C   0  0  0  0  0  0  0  0  0  0  0  0
  -30.7753  -16.9056   21.8798 C   0  0  0  0  0  0  0  0  0  0  0  0
  -26.8147  -18.7081   18.2068 C   0  0  0  0  0  0  0  0  0  0  0  0
  -32.9586  -21.1711   18.4489 C   0  0  0  0  0  0  0  0  0  0  0  0
  -32.1137  -19.5045   16.7612 C   0  0  0  0  0  0  0  0  0  0  0  0
  -25.2713  -20.2434   19.5476 C   0  0  0  0  0  0  0  0  0  1  0  0
  -27.8132  -20.4221   19.8864 C   0  0  2  0  0  0  0  0  0  0  0  0
  -19.9868  -25.5752   20.0790 C   0  0  1  0  0  0  0  0  0  0  0  0
  -17.7699  -24.2598   22.8584 C   0  0  2  0  0  0  0  0  0  0  0  0
  -26.6127  -19.4839   19.5370 C   0  0  2  0  0  0  0  0  0  0  0  0
  -32.5021  -19.6582   18.2932 C   0  0  0  0  0  0  0  0  0  0  0  0
  -20.4496  -27.0594   20.0663 C   0  0  0  0  0  0  0  0  0  0  0  0
  -25.8417  -11.5357   20.2813 N   0  0  0  0  0  0  0  0  0  0  0  0
  -31.5785  -18.3152   20.0835 N   0  0  0  0  0  0  0  0  0  0  0  0
  -26.2130  -12.8207   20.1509 N   0  0  0  0  0  0  0  0  0  0  0  0
  -20.2027  -24.0349   18.1542 N   0  0  0  0  0  0  0  0  0  0  0  0
  -29.9464  -13.6156   20.3477 N   0  0  0  0  0  0  0  0  0  0  0  0
  -25.4385  -15.0452   20.4002 N   0  0  0  0  0  0  0  0  0  0  0  0
  -21.8674  -12.5574   21.6060 N   0  0  0  0  0  0  0  0  0  0  0  0
  -20.4031  -25.2853   15.0291 N   0  0  0  0  0  0  0  0  0  0  0  0
  -18.9025  -25.2953   21.0141 N   0  0  0  0  0  0  0  0  0  0  0  0
  -30.1138  -15.6809   21.4878 N   0  0  0  0  0  0  0  0  0  0  0  0
  -17.5748  -22.8607   23.3331 N   0  3  0  0  0  0  0  0  0  0  0  0
  -22.6336  -14.7001   21.3222 O   0  0  0  0  0  0  0  0  0  0  0  0
  -22.1277  -24.0948   16.0445 O   0  0  0  0  0  0  0  0  0  0  0  0
  -18.5468  -25.6758   18.1968 O   0  0  0  0  0  0  0  0  0  0  0  0
  -20.0331  -23.6836   22.2394 O   0  0  0  0  0  0  0  0  0  0  0  0
  -31.8476  -14.9337   20.1869 O   0  0  0  0  0  0  0  0  0  0  0  0
  -21.6167   -6.9932   21.7182 O   0  0  0  0  0  0  0  0  0  0  0  0
  -24.2395  -19.4428   18.9724 O   0  0  0  0  0  0  0  0  0  1  0  0
  -18.6417   -6.8125   26.3573 F   0  0  0  0  0  0  0  0  0  0  0  0
  -19.6194   -8.8441   22.1953 F   0  0  0  0  0  0  0  0  0  0  0  0
  1  2  1  0  0  0  0
  1  5  2  0  0  0  0
  2  6  2  0  0  0  0
  3  8  2  0  0  0  0
  3 17  1  0  0  0  0
  4  9  1  0  0  0  0
  4 17  2  0  0  0  0
  5 19  1  0  0  0  0
  6 21  1  0  0  0  0
  7 10  2  0  0  0  0
  7 20  1  0  0  0  0
  8 24  1  0  0  0  0
  9 24  2  0  0  0  0
 10 25  1  0  0  0  0
 11 12  2  0  0  0  0
 11 26  1  0  0  0  0
 12 27  1  0  0  0  0
 13 22  1  0  0  0  0
 13 25  2  0  0  0  0
 14 23  1  0  0  0  0
 14 30  2  0  0  0  0
 15 23  2  0  0  0  0
 15 31  1  0  0  0  0
 16 27  2  0  0  0  0
 16 28  1  0  0  0  0
 17 29  1  0  0  0  0
 18 29  1  0  0  0  0
 18 32  2  0  0  0  0
 18 33  1  0  0  0  0
 19 21  2  0  0  0  0
 19 38  1  0  0  0  0
 20 22  2  0  0  0  0
 20 39  1  0  0  0  0
 21 47  1  0  0  0  0
 22 40  1  0  0  0  0
 23 65  1  0  0  0  0
 24 87  1  0  0  0  0
 25 88  1  0  0  0  0
 26 28  2  0  0  0  0
 26 87  1  0  0  0  0
 27 89  1  0  0  0  0
 28 90  1  0  0  0  0
 29 71  2  0  0  0  0
 30 60  1  0  0  0  0
 30 72  1  0  0  0  0
 31 69  1  0  0  0  0
 31 72  2  0  0  0  0
 32 73  1  0  0  0  0
 32 76  1  0  0  0  0
 33 77  1  0  0  0  0
 33 82  2  0  0  0  0
 34 48  1  0  0  0  0
 34 78  1  0  0  0  0
 34 83  2  0  0  0  0
 35 66  1  0  0  0  0
 35 74  1  0  0  0  0
 35 84  2  0  0  0  0
 36 67  1  0  0  0  0
 36 79  1  0  0  0  0
 36 85  2  0  0  0  0
 37 75  1  0  0  0  0
 37 80  1  0  0  0  0
 37 86  2  0  0  0  0
 38 41  1  0  0  0  0
 39 48  1  0  0  0  0
 40 74  1  0  0  0  0
 41 43  1  0  0  0  0
 42 44  1  0  0  0  0
 42 45  1  0  0  0  0
 43 47  1  0  0  0  0
 44 49  1  0  0  0  0
 45 75  1  0  0  0  0
 46 49  1  0  0  0  0
 46 75  1  0  0  0  0
 47 78  1  0  0  0  0
 48 74  1  0  0  0  0
 49 73  1  0  0  0  0
 50 61  1  0  0  0  0
 51 62  1  0  0  0  0
 52 63  1  0  0  0  0
 53 65  1  0  0  0  0
 54 67  1  0  0  0  0
 55 69  1  0  0  0  0
 56 70  1  0  0  0  0
 57 70  1  0  0  0  0
 58 70  1  0  0  0  0
 59 81  1  0  0  0  0
 60 80  1  0  0  0  0
 61 68  1  0  0  0  0
 62 69  1  0  0  0  0
 63 69  1  0  0  0  0
 64 68  1  0  0  0  0
 64 88  1  0  0  0  0
 65 68  1  0  0  0  0
 66 70  1  0  0  0  0
 66 79  1  0  0  0  0
 67 81  1  0  0  0  0
 71 73  1  0  0  0  0
M  CHG  1  81   1
M  ISO  4  37 100  64 101  80 100  88 101
M  END
> <Batch ID>
0092

> <Smiles>
CCC(C(C)c1cc(C[100NH:0][100C:0](=O)N2CCCC(n3nc(-c4ccc(Oc5ccc(F)cc5F)cc4)c(C(N)=O)c3N)C2)nc(C(C)(CC)CC)c1)[101CH2:1][101O:1]c1ccc2c(c1)CN(C(=O)C(NC(=O)C(C)NC)C(C)(C)C)C(C(=O)NC1CCCc3ccccc31)C2

> <Shape>
0.214

> <Color>
0.180

> <Negative vol penalty>
0.000

$$$$

  -OEChem-04052319143D

 83 91  0     1  0  0  0  0  0999 V2000
  -22.2587  -11.0952   19.1446 C   0  0  0  0  0  0  0  0  0  0  0  0
  -21.8283  -12.4053   19.3288 C   0  0  0  0  0  0  0  0  0  0  0  0
  -29.1753  -27.5049   17.6268 C   0  0  0  0  0  0  0  0  0  0  0  0
  -29.5687  -27.8464   19.9860 C   0  0  0  0  0  0  0  0  0  0  0  0
  -23.5065  -10.6987   19.6237 C   0  0  0  0  0  0  0  0  0  0  0  0
  -22.6453  -13.3194   19.9931 C   0  0  0  0  0  0  0  0  0  0  0  0
  -23.1588  -19.3125   18.8422 C   0  0  0  0  0  0  0  0  0  0  0  0
  -20.4433  -25.9392   24.3257 C   0  0  0  0  0  0  0  0  0  0  0  0
  -30.5502  -27.5327   17.3935 C   0  0  0  0  0  0  0  0  0  0  0  0
  -30.9436  -27.8741   19.7527 C   0  0  0  0  0  0  0  0  0  0  0  0
  -22.5885  -20.4349   19.4411 C   0  0  0  0  0  0  0  0  0  0  0  0
  -32.9811  -29.8637   17.1082 C   0  0  0  0  0  0  0  0  0  0  0  0
  -33.4394  -30.6187   16.0285 C   0  0  0  0  0  0  0  0  0  0  0  0
  -20.7861  -27.2820   24.2124 C   0  0  0  0  0  0  0  0  0  0  0  0
  -24.5663  -20.7104   20.7944 C   0  0  0  0  0  0  0  0  0  0  0  0
  -34.4001  -28.6312   15.0466 C   0  0  0  0  0  0  0  0  0  0  0  0
  -28.6845  -27.6618   18.9231 C   0  0  0  0  0  0  0  0  0  0  0  0
  -26.4743  -26.5065   19.4597 C   0  0  0  0  0  0  0  0  0  0  0  0
  -24.3433  -11.6110   20.2857 C   0  0  0  0  0  0  0  0  0  0  0  0
  -24.4349  -18.8735   19.2233 C   0  0  0  0  0  0  0  0  0  0  0  0
  -23.9050  -12.9344   20.4827 C   0  0  0  0  0  0  0  0  0  0  0  0
  -25.1517  -19.5837   20.1970 C   0  0  0  0  0  0  0  0  0  0  0  0
  -19.3640  -25.4398   23.6052 C   0  0  0  0  0  0  0  0  0  0  0  0
  -31.4344  -27.7173   18.4565 C   0  0  0  0  0  0  0  0  0  0  0  0
  -23.2910  -21.1324   20.4194 C   0  0  0  0  0  0  0  0  0  0  0  0
  -33.2324  -28.4925   17.1571 C   0  0  0  0  0  0  0  0  0  0  0  0
  -34.1489  -30.0025   14.9977 C   0  0  0  0  0  0  0  0  0  0  0  0
  -33.9419  -27.8763   16.1263 C   0  0  0  0  0  0  0  0  0  0  0  0
  -27.2643  -27.6337   19.1646 C   0  0  0  0  0  0  0  0  0  0  0  0
  -20.0239  -28.0772   23.3718 C   0  0  0  0  0  0  0  0  0  0  0  0
  -18.6654  -26.3175   22.7920 C   0  0  0  0  0  0  0  0  0  0  0  0
  -25.2025  -27.0058   19.6003 C   0  0  0  0  0  0  0  0  0  0  0  0
  -26.8560  -25.1311   19.5946 C   0  0  0  0  0  0  0  0  0  0  0  0
  -25.5961  -16.2193   20.5312 C   0  0  0  0  0  0  0  0  0  0  0  0
  -28.4494  -17.6590   19.9759 C   0  0  0  0  0  0  0  0  0  0  0  0
  -30.1865  -20.5557   19.4875 C   0  0  0  0  0  0  0  0  0  0  0  0
  -21.6743  -30.8474   21.5850 C   0  0  0  0  0  0  0  0  0  0  0  0
  -25.6637  -11.1237   20.8276 C   0  0  0  0  0  0  0  0  0  0  0  0
  -25.0471  -17.6767   18.5486 C   0  0  0  0  0  0  0  0  0  0  0  0
  -26.5331  -19.1654   20.6272 C   0  0  0  0  0  0  0  0  0  0  0  0
  -26.6265  -12.2513   21.1907 C   0  0  0  0  0  0  0  0  0  0  0  0
  -23.3197  -31.5727   18.5120 C   0  0  0  0  0  0  0  0  0  0  0  0
  -25.9066  -13.3302   21.9936 C   0  0  0  0  0  0  0  0  0  0  0  0
  -24.4307  -30.5240   18.4355 C   0  0  0  0  0  0  0  0  0  0  0  0
  -23.0901  -32.0482   19.9449 C   0  0  0  0  0  0  0  0  0  0  0  0
  -23.9538  -29.9232   20.8460 C   0  0  0  0  0  0  0  0  0  0  0  0
  -24.7729  -13.9617   21.1765 C   0  0  1  0  0  0  0  0  0  0  0  0
  -26.1423  -17.0168   19.3808 C   0  0  1  0  0  0  0  0  0  0  0  0
  -24.1838  -29.3722   19.4283 C   0  0  2  0  0  0  0  0  0  0  0  0
  -17.4993  -25.8362   21.9924 C   0  0  0  0  0  0  0  0  0  0  0  0
  -32.5113  -21.4167   19.0982 C   0  0  0  0  0  0  0  0  0  0  0  0
  -29.1036  -17.2185   22.9235 C   0  0  0  0  0  0  0  0  0  0  0  0
  -30.9491  -18.8945   22.6925 C   0  0  0  0  0  0  0  0  0  0  0  0
  -31.0052  -16.7881   21.3573 C   0  0  0  0  0  0  0  0  0  0  0  0
  -29.4431  -21.7155   16.8681 C   0  0  0  0  0  0  0  0  0  0  0  0
  -18.9866  -23.9848   23.7250 C   0  0  0  0  0  0  0  0  0  0  0  0
  -20.3649  -29.5226   23.2250 C   0  0  0  0  0  0  0  0  0  0  0  0
  -19.4131  -23.1336   22.5238 C   0  0  0  0  0  0  0  0  0  0  0  0
  -20.9302  -23.0764   22.3391 C   0  0  0  0  0  0  0  0  0  0  0  0
  -21.3138  -22.2561   21.1150 C   0  0  0  0  0  0  0  0  0  1  0  0
  -29.3436  -18.5952   20.7525 C   0  0  1  0  0  0  0  0  0  0  0  0
  -31.2199  -20.9472   18.4466 C   0  0  2  0  0  0  0  0  0  0  0  0
  -30.0736  -17.8811   21.9249 C   0  0  0  0  0  0  0  0  0  0  0  0
  -26.5539  -28.7639   19.1200 N   0  0  0  0  0  0  0  0  0  0  0  0
  -18.9686  -27.6279   22.6561 N   0  0  0  0  0  0  0  0  0  0  0  0
  -25.3041  -28.3494   19.3888 N   0  0  0  0  0  0  0  0  0  0  0  0
  -27.0862  -17.9851   19.9425 N   0  0  0  0  0  0  0  0  0  0  0  0
  -22.8605  -30.9078   20.8352 N   0  0  0  0  0  0  0  0  0  0  0  0
  -24.0185  -26.4223   19.8829 N   0  0  0  0  0  0  0  0  0  0  0  0
  -28.2042  -24.7914   19.4183 N   0  0  0  0  0  0  0  0  0  0  0  0
  -25.3062  -14.9052   20.2174 N   0  0  0  0  0  0  0  0  0  0  0  0
  -30.2381  -19.2085   19.7767 N   0  0  0  0  0  0  0  0  0  0  0  0
  -21.5331  -29.7298   22.3986 N   0  0  0  0  0  0  0  0  0  0  0  0
  -30.6990  -22.0486   17.5883 N   0  3  0  0  0  0  0  0  0  0  0  0
  -26.0233  -24.2276   19.8475 O   0  0  0  0  0  0  0  0  0  0  0  0
  -25.4500  -16.7561   21.6231 O   0  0  0  0  0  0  0  0  0  0  0  0
  -28.9434  -16.6785   19.4136 O   0  0  0  0  0  0  0  0  0  0  0  0
  -29.4136  -21.3647   19.9960 O   0  0  0  0  0  0  0  0  0  0  0  0
  -20.8029  -31.7217   21.5291 O   0  0  0  0  0  0  0  0  0  0  0  0
  -32.7761  -27.7442   18.2292 O   0  0  0  0  0  0  0  0  0  0  0  0
  -22.7364  -22.2279   21.0061 O   0  0  0  0  0  0  0  0  0  1  0  0
  -34.5875  -30.7273   13.9603 F   0  0  0  0  0  0  0  0  0  0  0  0
  -34.1853  -26.5591   16.1671 F   0  0  0  0  0  0  0  0  0  0  0  0
  1  2  1  0  0  0  0
  1  5  2  0  0  0  0
  2  6  2  0  0  0  0
  3  9  2  0  0  0  0
  3 17  1  0  0  0  0
  4 10  1  0  0  0  0
  4 17  2  0  0  0  0
  5 19  1  0  0  0  0
  6 21  1  0  0  0  0
  7 11  2  0  0  0  0
  7 20  1  0  0  0  0
  8 14  2  0  0  0  0
  8 23  1  0  0  0  0
  9 24  1  0  0  0  0
 10 24  2  0  0  0  0
 11 25  1  0  0  0  0
 12 13  2  0  0  0  0
 12 26  1  0  0  0  0
 13 27  1  0  0  0  0
 14 30  1  0  0  0  0
 15 22  1  0  0  0  0
 15 25  2  0  0  0  0
 16 27  2  0  0  0  0
 16 28  1  0  0  0  0
 17 29  1  0  0  0  0
 18 29  1  0  0  0  0
 18 32  2  0  0  0  0
 18 33  1  0  0  0  0
 19 21  2  0  0  0  0
 19 38  1  0  0  0  0
 20 22  2  0  0  0  0
 20 39  1  0  0  0  0
 21 47  1  0  0  0  0
 22 40  1  0  0  0  0
 23 31  2  0  0  0  0
 23 56  1  0  0  0  0
 24 80  1  0  0  0  0
 25 81  1  0  0  0  0
 26 28  2  0  0  0  0
 26 80  1  0  0  0  0
 27 82  1  0  0  0  0
 28 83  1  0  0  0  0
 29 64  2  0  0  0  0
 30 57  1  0  0  0  0
 30 65  2  0  0  0  0
 31 50  1  0  0  0  0
 31 65  1  0  0  0  0
 32 66  1  0  0  0  0
 32 69  1  0  0  0  0
 33 70  1  0  0  0  0
 33 75  2  0  0  0  0
 34 48  1  0  0  0  0
 34 71  1  0  0  0  0
 34 76  2  0  0  0  0
 35 61  1  0  0  0  0
 35 67  1  0  0  0  0
 35 77  2  0  0  0  0
 36 62  1  0  0  0  0
 36 72  1  0  0  0  0
 36 78  2  0  0  0  0
 37 68  1  0  0  0  0
 37 73  1  0  0  0  0
 37 79  2  0  0  0  0
 38 41  1  0  0  0  0
 39 48  1  0  0  0  0
 40 67  1  0  0  0  0
 41 43  1  0  0  0  0
 42 44  1  0  0  0  0
 42 45  1  0  0  0  0
 43 47  1  0  0  0  0
 44 49  1  0  0  0  0
 45 68  1  0  0  0  0
 46 49  1  0  0  0  0
 46 68  1  0  0  0  0
 47 71  1  0  0  0  0
 48 67  1  0  0  0  0
 49 66  1  0  0  0  0
 51 62  1  0  0  0  0
 52 63  1  0  0  0  0
 53 63  1  0  0  0  0
 54 63  1  0  0  0  0
 55 74  1  0  0  0  0
 56 58  1  0  0  0  0
 57 73  1  0  0  0  0
 58 59  1  0  0  0  0
 59 60  1  0  0  0  0
 60 81  1  0  0  0  0
 61 63  1  0  0  0  0
 61 72  1  0  0  0  0
 62 74  1  0  0  0  0
 64 66  1  0  0  0  0
M  CHG  1  74   1
M  ISO  4  37 100  60 101  73 100  81 101
M  END
> <Batch ID>
0092

> <Smiles>
CNC(C)C(=O)NC(C(=O)N1Cc2cc([101O:1][101CH2:1]CCCc3ccc(C[100NH:0][100C:0](=O)N4CCCC(n5nc(-c6ccc(Oc7ccc(F)cc7F)cc6)c(C(N)=O)c5N)C4)nc3C)ccc2CC1C(=O)NC1CCCc2ccccc21)C(C)(C)C

> <Shape>
0.224

> <Color>
0.072

> <Negative vol penalty>
0.000

$$$$

  -OEChem-04052319143D

 83 91  0     1  0  0  0  0  0999 V2000
  -25.6855  -11.0140   17.4480 C   0  0  0  0  0  0  0  0  0  0  0  0
  -25.7556  -12.3371   17.0238 C   0  0  0  0  0  0  0  0  0  0  0  0
  -29.3312  -27.7485   19.4048 C   0  0  0  0  0  0  0  0  0  0  0  0
  -28.0062  -25.7768   19.8449 C   0  0  0  0  0  0  0  0  0  0  0  0
  -25.3615  -10.7241   18.7727 C   0  0  0  0  0  0  0  0  0  0  0  0
  -25.5006  -13.3711   17.9239 C   0  0  0  0  0  0  0  0  0  0  0  0
  -27.4640  -20.1009   19.3977 C   0  0  0  0  0  0  0  0  0  0  0  0
  -30.4497  -26.9464   19.1786 C   0  0  0  0  0  0  0  0  0  0  0  0
  -29.1247  -24.9746   19.6186 C   0  0  0  0  0  0  0  0  0  0  0  0
  -26.9094  -21.3605   19.6201 C   0  0  0  0  0  0  0  0  0  0  0  0
  -30.8335  -23.7790   16.9595 C   0  0  0  0  0  0  0  0  0  0  0  0
  -30.6657  -22.6445   16.1655 C   0  0  0  0  0  0  0  0  0  0  0  0
  -18.0638  -27.7961   21.8778 C   0  0  0  0  0  0  0  0  0  0  0  0
  -18.6130  -28.5786   22.9234 C   0  0  0  0  0  0  0  0  0  0  0  0
  -26.4368  -20.7426   21.9035 C   0  0  0  0  0  0  0  0  0  0  0  0
  -31.3750  -21.2507   18.0070 C   0  0  0  0  0  0  0  0  0  0  0  0
  -28.1094  -27.1637   19.7380 C   0  0  0  0  0  0  0  0  0  0  0  0
  -26.0057  -28.4166   19.0225 C   0  0  0  0  0  0  0  0  0  0  0  0
  -25.1119  -11.7554   19.6919 C   0  0  0  0  0  0  0  0  0  0  0  0
  -27.4995  -19.1472   20.4252 C   0  0  0  0  0  0  0  0  0  0  0  0
  -25.1717  -13.0947   19.2619 C   0  0  0  0  0  0  0  0  0  0  0  0
  -26.9948  -19.4725   21.6923 C   0  0  0  0  0  0  0  0  0  0  0  0
  -30.3465  -25.5595   19.2854 C   0  0  0  0  0  0  0  0  0  0  0  0
  -26.3930  -21.6805   20.8723 C   0  0  0  0  0  0  0  0  0  0  0  0
  -31.2722  -23.6493   18.2773 C   0  0  0  0  0  0  0  0  0  0  0  0
  -30.9364  -21.3804   16.6893 C   0  0  0  0  0  0  0  0  0  0  0  0
  -31.5429  -22.3852   18.8010 C   0  0  0  0  0  0  0  0  0  0  0  0
  -26.9538  -27.9918   19.9724 C   0  0  0  0  0  0  0  0  0  0  0  0
  -18.7124  -26.5811   21.8890 C   0  0  0  0  0  0  0  0  0  0  0  0
  -19.5807  -27.8178   23.5417 C   0  0  0  0  0  0  0  0  0  0  0  0
  -25.1148  -29.1749   19.7420 C   0  0  0  0  0  0  0  0  0  0  0  0
  -25.9364  -28.1497   17.6155 C   0  0  0  0  0  0  0  0  0  0  0  0
  -26.2509  -16.2543   20.8446 C   0  0  0  0  0  0  0  0  0  0  0  0
  -28.0489  -16.2963   23.5442 C   0  0  0  0  0  0  0  0  0  0  0  0
  -29.6410  -18.1373   25.9364 C   0  0  0  0  0  0  0  0  0  0  0  0
  -22.5997  -29.3708   24.9526 C   0  0  0  0  0  0  0  0  0  0  0  0
  -24.7191  -11.3917   21.1019 C   0  0  0  0  0  0  0  0  0  0  0  0
  -28.1254  -17.8023   20.1767 C   0  0  0  0  0  0  0  0  0  0  0  0
  -27.0272  -18.4913   22.8346 C   0  0  0  0  0  0  0  0  0  0  0  0
  -24.8304  -12.5547   22.0844 C   0  0  0  0  0  0  0  0  0  0  0  0
  -25.2677  -31.5575   24.0713 C   0  0  0  0  0  0  0  0  0  0  0  0
  -24.2014  -13.8133   21.4952 C   0  0  0  0  0  0  0  0  0  0  0  0
  -25.8864  -30.9004   22.8362 C   0  0  0  0  0  0  0  0  0  0  0  0
  -24.7909  -30.5187   25.0840 C   0  0  0  0  0  0  0  0  0  0  0  0
  -24.4964  -28.8395   23.3044 C   0  0  0  0  0  0  0  0  0  0  0  0
  -24.9262  -14.2446   20.2145 C   0  0  1  0  0  0  0  0  0  0  0  0
  -27.6432  -16.7301   21.1490 C   0  0  1  0  0  0  0  0  0  0  0  0
  -24.9414  -29.8458   22.2294 C   0  0  2  0  0  0  0  0  0  0  0  0
  -18.5300  -25.4025   21.0168 C   0  0  0  0  0  0  0  0  0  0  0  0
  -30.9927  -17.8913   28.0364 C   0  0  0  0  0  0  0  0  0  0  0  0
  -25.5107  -15.6175   25.0955 C   0  0  0  0  0  0  0  0  0  0  0  0
  -26.6891  -16.3141   27.1918 C   0  0  0  0  0  0  0  0  0  0  0  0
  -27.5559  -14.3948   25.8549 C   0  0  0  0  0  0  0  0  0  0  0  0
  -31.9747  -19.5022   24.7323 C   0  0  0  0  0  0  0  0  0  0  0  0
  -20.4569  -28.1477   24.6846 C   0  0  0  0  0  0  0  0  0  0  0  0
  -22.6944  -24.2502   22.6924 C   0  0  0  0  0  0  0  0  0  0  0  0
  -21.7372  -25.3750   22.2928 C   0  0  0  0  0  0  0  0  0  0  0  0
  -23.8511  -24.1256   21.6965 C   0  0  0  0  0  0  0  0  0  0  0  0
  -20.5595  -25.4732   23.2651 C   0  0  0  0  0  0  0  0  0  0  0  0
  -24.8048  -22.9937   22.0592 C   0  0  0  0  0  0  0  0  0  1  0  0
  -27.8291  -16.7466   24.9682 C   0  0  1  0  0  0  0  0  0  0  0  0
  -31.0374  -18.0347   26.5230 C   0  0  2  0  0  0  0  0  0  0  0  0
  -26.8937  -15.7863   25.7558 C   0  0  0  0  0  0  0  0  0  0  0  0
  -26.6900  -28.4428   21.2016 N   0  0  0  0  0  0  0  0  0  0  0  0
  -19.6326  -26.6057   22.9044 N   0  0  0  0  0  0  0  0  0  0  0  0
  -25.5660  -29.1590   21.0290 N   0  0  0  0  0  0  0  0  0  0  0  0
  -27.6437  -17.1872   22.5402 N   0  0  0  0  0  0  0  0  0  0  0  0
  -23.8973  -29.5494   24.4454 N   0  0  0  0  0  0  0  0  0  0  0  0
  -23.9973  -29.8471   19.3931 N   0  0  0  0  0  0  0  0  0  0  0  0
  -26.9330  -27.3518   17.0370 N   0  0  0  0  0  0  0  0  0  0  0  0
  -26.1704  -14.9095   20.5374 N   0  0  0  0  0  0  0  0  0  0  0  0
  -29.1551  -16.9043   25.5558 N   0  0  0  0  0  0  0  0  0  0  0  0
  -21.8160  -28.4376   24.2850 N   0  0  0  0  0  0  0  0  0  0  0  0
  -31.8300  -19.2518   26.1895 N   0  3  0  0  0  0  0  0  0  0  0  0
  -25.0272  -28.6187   16.8897 O   0  0  0  0  0  0  0  0  0  0  0  0
  -25.3184  -17.0483   20.8869 O   0  0  0  0  0  0  0  0  0  0  0  0
  -28.5678  -15.1978   23.3306 O   0  0  0  0  0  0  0  0  0  0  0  0
  -29.0398  -19.2040   25.8302 O   0  0  0  0  0  0  0  0  0  0  0  0
  -22.1695  -30.0004   25.9250 O   0  0  0  0  0  0  0  0  0  0  0  0
  -31.4376  -24.7765   19.0645 O   0  0  0  0  0  0  0  0  0  0  0  0
  -25.8505  -22.9090   21.0919 O   0  0  0  0  0  0  0  0  0  1  0  0
  -30.7736  -20.2909   15.9272 F   0  0  0  0  0  0  0  0  0  0  0  0
  -31.9635  -22.2542   20.0666 F   0  0  0  0  0  0  0  0  0  0  0  0
  1  2  1  0  0  0  0
  1  5  2  0  0  0  0
  2  6  2  0  0  0  0
  3  8  2  0  0  0  0
  3 17  1  0  0  0  0
  4  9  1  0  0  0  0
  4 17  2  0  0  0  0
  5 19  1  0  0  0  0
  6 21  1  0  0  0  0
  7 10  2  0  0  0  0
  7 20  1  0  0  0  0
  8 23  1  0  0  0  0
  9 23  2  0  0  0  0
 10 24  1  0  0  0  0
 11 12  2  0  0  0  0
 11 25  1  0  0  0  0
 12 26  1  0  0  0  0
 13 14  1  0  0  0  0
 13 29  2  0  0  0  0
 14 30  2  0  0  0  0
 15 22  1  0  0  0  0
 15 24  2  0  0  0  0
 16 26  2  0  0  0  0
 16 27  1  0  0  0  0
 17 28  1  0  0  0  0
 18 28  1  0  0  0  0
 18 31  2  0  0  0  0
 18 32  1  0  0  0  0
 19 21  2  0  0  0  0
 19 37  1  0  0  0  0
 20 22  2  0  0  0  0
 20 38  1  0  0  0  0
 21 46  1  0  0  0  0
 22 39  1  0  0  0  0
 23 80  1  0  0  0  0
 24 81  1  0  0  0  0
 25 27  2  0  0  0  0
 25 80  1  0  0  0  0
 26 82  1  0  0  0  0
 27 83  1  0  0  0  0
 28 64  2  0  0  0  0
 29 49  1  0  0  0  0
 29 65  1  0  0  0  0
 30 55  1  0  0  0  0
 30 65  1  0  0  0  0
 31 66  1  0  0  0  0
 31 69  1  0  0  0  0
 32 70  1  0  0  0  0
 32 75  2  0  0  0  0
 33 47  1  0  0  0  0
 33 71  1  0  0  0  0
 33 76  2  0  0  0  0
 34 61  1  0  0  0  0
 34 67  1  0  0  0  0
 34 77  2  0  0  0  0
 35 62  1  0  0  0  0
 35 72  1  0  0  0  0
 35 78  2  0  0  0  0
 36 68  1  0  0  0  0
 36 73  1  0  0  0  0
 36 79  2  0  0  0  0
 37 40  1  0  0  0  0
 38 47  1  0  0  0  0
 39 67  1  0  0  0  0
 40 42  1  0  0  0  0
 41 43  1  0  0  0  0
 41 44  1  0  0  0  0
 42 46  1  0  0  0  0
 43 48  1  0  0  0  0
 44 68  1  0  0  0  0
 45 48  1  0  0  0  0
 45 68  1  0  0  0  0
 46 71  1  0  0  0  0
 47 67  1  0  0  0  0
 48 66  1  0  0  0  0
 50 62  1  0  0  0  0
 51 63  1  0  0  0  0
 52 63  1  0  0  0  0
 53 63  1  0  0  0  0
 54 74  1  0  0  0  0
 55 73  1  0  0  0  0
 56 57  1  0  0  0  0
 56 58  1  0  0  0  0
 57 59  1  0  0  0  0
 58 60  1  0  0  0  0
 59 65  1  0  0  0  0
 60 81  1  0  0  0  0
 61 63  1  0  0  0  0
 61 72  1  0  0  0  0
 62 74  1  0  0  0  0
 64 66  1  0  0  0  0
M  CHG  1  74   1
M  ISO  4  36 100  60 101  73 100  81 101
M  END
> <Batch ID>
0092

> <Smiles>
CNC(C)C(=O)NC(C(=O)N1Cc2cc([101O:1][101CH2:1]CCCCn3c(C)ccc3C[100NH:0][100C:0](=O)N3CCCC(n4nc(-c5ccc(Oc6ccc(F)cc6F)cc5)c(C(N)=O)c4N)C3)ccc2CC1C(=O)NC1CCCc2ccccc21)C(C)(C)C

> <Shape>
0.214

> <Color>
0.068

> <Negative vol penalty>
0.000

$$$$

  -OEChem-04052319143D

 85 93  0     1  0  0  0  0  0999 V2000
  -28.2293  -22.9116   14.8937 C   0  0  0  0  0  0  0  0  0  0  0  0
  -27.3667  -22.9864   15.9827 C   0  0  0  0  0  0  0  0  0  0  0  0
  -27.8486  -16.8346   18.7486 C   0  0  0  0  0  0  0  0  0  0  0  0
  -28.0000  -17.1392   21.1406 C   0  0  0  0  0  0  0  0  0  0  0  0
  -29.4203  -23.6364   14.8982 C   0  0  0  0  0  0  0  0  0  0  0  0
  -27.6953  -23.7852   17.0773 C   0  0  0  0  0  0  0  0  0  0  0  0
  -23.7811  -26.5557   18.7049 C   0  0  0  0  0  0  0  0  0  0  0  0
  -28.6158  -17.9831   18.5538 C   0  0  0  0  0  0  0  0  0  0  0  0
  -28.7672  -18.2877   20.9457 C   0  0  0  0  0  0  0  0  0  0  0  0
  -22.8187  -25.9064   19.4768 C   0  0  0  0  0  0  0  0  0  0  0  0
  -28.2429  -21.5229   20.1152 C   0  0  0  0  0  0  0  0  0  0  0  0
  -27.9256  -22.6504   20.8726 C   0  0  0  0  0  0  0  0  0  0  0  0
  -23.8169  -26.8159   21.4756 C   0  0  0  0  0  0  0  0  0  0  0  0
  -20.0824  -17.8851   24.1670 C   0  0  0  0  0  0  0  0  0  0  0  0
  -30.1433  -22.6306   21.8310 C   0  0  0  0  0  0  0  0  0  0  0  0
  -17.9038  -18.7989   24.3307 C   0  0  0  0  0  0  0  0  0  0  0  0
  -27.5406  -16.4127   20.0420 C   0  0  0  0  0  0  0  0  0  0  0  0
  -27.2140  -13.9057   20.3829 C   0  0  0  0  0  0  0  0  0  0  0  0
  -29.7590  -24.4522   15.9893 C   0  0  0  0  0  0  0  0  0  0  0  0
  -24.7769  -27.3325   19.3143 C   0  0  0  0  0  0  0  0  0  0  0  0
  -28.8926  -24.5207   17.0970 C   0  0  0  0  0  0  0  0  0  0  0  0
  -24.7893  -27.4762   20.7091 C   0  0  0  0  0  0  0  0  0  0  0  0
  -19.1345  -18.7815   23.7058 C   0  0  0  0  0  0  0  0  0  0  0  0
  -29.0751  -18.7096   19.6523 C   0  0  0  0  0  0  0  0  0  0  0  0
  -22.8382  -26.0341   20.8626 C   0  0  0  0  0  0  0  0  0  0  0  0
  -29.5103  -20.9491   20.2157 C   0  0  0  0  0  0  0  0  0  0  0  0
  -28.8758  -23.2043   21.7304 C   0  0  0  0  0  0  0  0  0  0  0  0
  -30.4606  -21.5030   21.0736 C   0  0  0  0  0  0  0  0  0  0  0  0
  -26.7476  -15.2267   20.2440 C   0  0  0  0  0  0  0  0  0  0  0  0
  -19.7370  -17.0656   25.2228 C   0  0  0  0  0  0  0  0  0  0  0  0
  -26.0758  -13.1557   20.5513 C   0  0  0  0  0  0  0  0  0  0  0  0
  -28.5561  -13.4017   20.3617 C   0  0  0  0  0  0  0  0  0  0  0  0
  -27.9496  -27.2021   19.4578 C   0  0  0  0  0  0  0  0  0  0  0  0
  -27.6087  -30.0464   20.9797 C   0  0  0  0  0  0  0  0  0  0  0  0
  -25.6229  -32.1338   22.8090 C   0  0  0  0  0  0  0  0  0  0  0  0
  -20.6022  -14.4557   22.6008 C   0  0  0  0  0  0  0  0  0  0  0  0
  -31.0797  -25.1801   15.9691 C   0  0  0  0  0  0  0  0  0  0  0  0
  -25.7919  -28.0483   18.4658 C   0  0  0  0  0  0  0  0  0  0  0  0
  -25.8249  -28.3150   21.4107 C   0  0  0  0  0  0  0  0  0  0  0  0
  -31.1762  -26.2959   17.0064 C   0  0  0  0  0  0  0  0  0  0  0  0
  -21.4285  -13.0963   19.4156 C   0  0  0  0  0  0  0  0  0  0  0  0
  -30.6773  -25.8083   18.3629 C   0  0  0  0  0  0  0  0  0  0  0  0
  -22.9275  -13.3690   19.2792 C   0  0  0  0  0  0  0  0  0  0  0  0
  -20.7109  -14.2357   20.1358 C   0  0  0  0  0  0  0  0  0  0  0  0
  -22.7828  -14.8713   21.3091 C   0  0  0  0  0  0  0  0  0  0  0  0
  -29.2021  -25.3956   18.2924 C   0  0  1  0  0  0  0  0  0  0  0  0
  -27.0677  -28.3964   19.2263 C   0  0  1  0  0  0  0  0  0  0  0  0
  -23.5587  -13.7246   20.6388 C   0  0  2  0  0  0  0  0  0  0  0  0
  -25.6338  -34.3741   23.9395 C   0  0  0  0  0  0  0  0  0  0  0  0
  -21.2989  -13.6196   25.9311 C   0  0  0  0  0  0  0  0  0  0  0  0
  -29.2812  -28.8881   23.2536 C   0  0  0  0  0  0  0  0  0  0  0  0
  -28.4704  -30.7570   24.7089 C   0  0  0  0  0  0  0  0  0  0  0  0
  -29.8155  -31.2603   22.6693 C   0  0  0  0  0  0  0  0  0  0  0  0
  -23.4189  -33.1337   21.1055 C   0  0  0  0  0  0  0  0  0  0  0  0
  -19.4362  -19.7102   22.5566 C   0  0  0  0  0  0  0  0  0  0  0  0
  -20.7215  -16.0830   25.7576 C   0  0  0  0  0  0  0  0  0  0  0  0
  -20.0321  -21.0554   22.9871 C   0  0  0  0  0  0  0  0  0  0  0  0
  -20.4027  -21.9534   21.8026 C   0  0  0  0  0  0  0  0  0  0  0  0
  -20.9631  -23.2928   22.2779 C   0  0  0  0  0  0  0  0  0  0  0  0
  -21.3738  -24.1764   21.1086 C   0  0  0  0  0  0  0  0  0  1  0  0
  -27.4256  -30.4756   22.4154 C   0  0  1  0  0  0  0  0  0  0  0  0
  -25.3118  -33.6125   22.6632 C   0  0  2  0  0  0  0  0  0  0  0  0
  -20.6547  -14.7014   25.0698 C   0  0  1  0  0  0  0  0  0  0  0  0
  -28.7297  -30.3278   23.2490 C   0  0  0  0  0  0  0  0  0  0  0  0
  -17.5931  -17.9852   25.3620 N   0  0  0  0  0  0  0  0  0  0  0  0
  -25.4169  -15.3141   20.3175 N   0  0  0  0  0  0  0  0  0  0  0  0
  -18.5249  -17.1044   25.8155 N   0  0  0  0  0  0  0  0  0  0  0  0
  -25.0373  -14.0386   20.5045 N   0  0  0  0  0  0  0  0  0  0  0  0
  -26.7997  -28.9899   20.5379 N   0  0  0  0  0  0  0  0  0  0  0  0
  -21.3577  -14.5222   21.4186 N   0  0  0  0  0  0  0  0  0  0  0  0
  -25.8720  -11.8337   20.7333 N   0  0  0  0  0  0  0  0  0  0  0  0
  -29.6080  -14.3097   20.1788 N   0  0  0  0  0  0  0  0  0  0  0  0
  -28.3493  -26.5648   18.2987 N   0  0  0  0  0  0  0  0  0  0  0  0
  -26.8955  -31.8340   22.3710 N   0  0  0  0  0  0  0  0  0  0  0  0
  -21.2937  -14.7353   23.7731 N   0  0  0  0  0  0  0  0  0  0  0  0
  -23.8683  -33.8097   22.3497 N   0  3  0  0  0  0  0  0  0  0  0  0
  -28.8139  -12.1803   20.4845 O   0  0  0  0  0  0  0  0  0  0  0  0
  -28.2467  -26.8834   20.6032 O   0  0  0  0  0  0  0  0  0  0  0  0
  -28.4339  -30.6320   20.2741 O   0  0  0  0  0  0  0  0  0  0  0  0
  -24.8188  -31.3261   23.2690 O   0  0  0  0  0  0  0  0  0  0  0  0
  -19.4017  -14.1631   22.6114 O   0  0  0  0  0  0  0  0  0  0  0  0
  -29.8240  -19.8302   19.4626 O   0  0  0  0  0  0  0  0  0  0  0  0
  -21.9004  -25.4008   21.6184 O   0  0  0  0  0  0  0  0  0  1  0  0
  -28.5716  -24.2880   22.4565 F   0  0  0  0  0  0  0  0  0  0  0  0
  -31.6803  -20.9570   21.1735 F   0  0  0  0  0  0  0  0  0  0  0  0
  1  2  1  0  0  0  0
  1  5  2  0  0  0  0
  2  6  2  0  0  0  0
  3  8  2  0  0  0  0
  3 17  1  0  0  0  0
  4  9  1  0  0  0  0
  4 17  2  0  0  0  0
  5 19  1  0  0  0  0
  6 21  1  0  0  0  0
  7 10  2  0  0  0  0
  7 20  1  0  0  0  0
  8 24  1  0  0  0  0
  9 24  2  0  0  0  0
 10 25  1  0  0  0  0
 11 12  2  0  0  0  0
 11 26  1  0  0  0  0
 12 27  1  0  0  0  0
 13 22  1  0  0  0  0
 13 25  2  0  0  0  0
 14 23  2  0  0  0  0
 14 30  1  0  0  0  0
 15 27  2  0  0  0  0
 15 28  1  0  0  0  0
 16 23  1  0  0  0  0
 16 65  2  0  0  0  0
 17 29  1  0  0  0  0
 18 29  1  0  0  0  0
 18 31  2  0  0  0  0
 18 32  1  0  0  0  0
 19 21  2  0  0  0  0
 19 37  1  0  0  0  0
 20 22  2  0  0  0  0
 20 38  1  0  0  0  0
 21 46  1  0  0  0  0
 22 39  1  0  0  0  0
 23 55  1  0  0  0  0
 24 82  1  0  0  0  0
 25 83  1  0  0  0  0
 26 28  2  0  0  0  0
 26 82  1  0  0  0  0
 27 84  1  0  0  0  0
 28 85  1  0  0  0  0
 29 66  2  0  0  0  0
 30 56  1  0  0  0  0
 30 67  2  0  0  0  0
 31 68  1  0  0  0  0
 31 71  1  0  0  0  0
 32 72  1  0  0  0  0
 32 77  2  0  0  0  0
 33 47  1  0  0  0  0
 33 73  1  0  0  0  0
 33 78  2  0  0  0  0
 34 61  1  0  0  0  0
 34 69  1  0  0  0  0
 34 79  2  0  0  0  0
 35 62  1  0  0  0  0
 35 74  1  0  0  0  0
 35 80  2  0  0  0  0
 36 70  1  0  0  0  0
 36 75  1  0  0  0  0
 36 81  2  0  0  0  0
 37 40  1  0  0  0  0
 38 47  1  0  0  0  0
 39 69  1  0  0  0  0
 40 42  1  0  0  0  0
 41 43  1  0  0  0  0
 41 44  1  0  0  0  0
 42 46  1  0  0  0  0
 43 48  1  0  0  0  0
 44 70  1  0  0  0  0
 45 48  1  0  0  0  0
 45 70  1  0  0  0  0
 46 73  1  0  0  0  0
 47 69  1  0  0  0  0
 48 68  1  0  0  0  0
 49 62  1  0  0  0  0
 50 63  1  0  0  0  0
 51 64  1  0  0  0  0
 52 64  1  0  0  0  0
 53 64  1  0  0  0  0
 54 76  1  0  0  0  0
 55 57  1  0  0  0  0
 56 63  1  0  0  0  0
 57 58  1  0  0  0  0
 58 59  1  0  0  0  0
 59 60  1  0  0  0  0
 60 83  1  0  0  0  0
 61 64  1  0  0  0  0
 61 74  1  0  0  0  0
 62 76  1  0  0  0  0
 63 75  1  0  0  0  0
 65 67  1  0  0  0  0
 66 68  1  0  0  0  0
M  CHG  1  76   1
M  ISO  4  36 100  60 101  75 100  83 101
M  END
> <Batch ID>
0092

> <Smiles>
CNC(C)C(=O)NC(C(=O)N1Cc2cc([101O:1][101CH2:1]CCCCc3cnnc(CC(C)[100NH:0][100C:0](=O)N4CCCC(n5nc(-c6ccc(Oc7ccc(F)cc7F)cc6)c(C(N)=O)c5N)C4)c3)ccc2CC1C(=O)NC1CCCc2ccccc21)C(C)(C)C

> <Shape>
0.234

> <Color>
0.076

> <Negative vol penalty>
0.000

$$$$

  -OEChem-04052319143D

 87 95  0     1  0  0  0  0  0999 V2000
  -18.6090  -28.6954   22.6447 C   0  0  0  0  0  0  0  0  0  0  0  0
  -18.2074  -27.3853   22.4045 C   0  0  0  0  0  0  0  0  0  0  0  0
  -28.9233  -23.6584   20.6795 C   0  0  0  0  0  0  0  0  0  0  0  0
  -28.7901  -23.0766   18.3384 C   0  0  0  0  0  0  0  0  0  0  0  0
  -19.9657  -28.9997   22.7473 C   0  0  0  0  0  0  0  0  0  0  0  0
  -19.1625  -26.3788   22.2657 C   0  0  0  0  0  0  0  0  0  0  0  0
  -20.1588  -19.4080   23.5819 C   0  0  0  0  0  0  0  0  0  0  0  0
  -29.4108  -24.9199   20.3383 C   0  0  0  0  0  0  0  0  0  0  0  0
  -29.2776  -24.3381   17.9972 C   0  0  0  0  0  0  0  0  0  0  0  0
  -20.5510  -18.2356   22.9375 C   0  0  0  0  0  0  0  0  0  0  0  0
  -32.3529  -26.2753   19.3732 C   0  0  0  0  0  0  0  0  0  0  0  0
  -33.4451  -26.7630   20.0907 C   0  0  0  0  0  0  0  0  0  0  0  0
  -22.8634  -18.8649   23.2128 C   0  0  0  0  0  0  0  0  0  0  0  0
  -32.1258  -28.6534   20.8140 C   0  0  0  0  0  0  0  0  0  0  0  0
  -25.5000  -13.6960   21.0783 C   0  0  0  0  0  0  0  0  0  0  0  0
  -28.6129  -22.7367   19.6796 C   0  0  0  0  0  0  0  0  0  0  0  0
  -26.7633  -21.0589   20.2008 C   0  0  0  0  0  0  0  0  0  0  0  0
  -20.9375  -27.9948   22.6193 C   0  0  0  0  0  0  0  0  0  0  0  0
  -21.1173  -20.3245   24.0377 C   0  0  0  0  0  0  0  0  0  0  0  0
  -20.5335  -26.6702   22.3654 C   0  0  0  0  0  0  0  0  0  0  0  0
  -22.4808  -20.0471   23.8650 C   0  0  0  0  0  0  0  0  0  0  0  0
  -29.5880  -25.2598   18.9971 C   0  0  0  0  0  0  0  0  0  0  0  0
  -21.9034  -17.9652   22.7503 C   0  0  0  0  0  0  0  0  0  0  0  0
  -31.1471  -26.9767   19.3760 C   0  0  0  0  0  0  0  0  0  0  0  0
  -33.3315  -27.9520   20.8112 C   0  0  0  0  0  0  0  0  0  0  0  0
  -31.0336  -28.1657   20.0964 C   0  0  0  0  0  0  0  0  0  0  0  0
  -28.1098  -21.4331   20.0314 C   0  0  0  0  0  0  0  0  0  0  0  0
  -26.0772  -12.9148   20.0593 C   0  0  0  0  0  0  0  0  0  0  0  0
  -24.8991  -12.7841   21.9113 C   0  0  0  0  0  0  0  0  0  0  0  0
  -26.8159  -19.7261   20.5282 C   0  0  0  0  0  0  0  0  0  0  0  0
  -25.5715  -21.8458   20.0736 C   0  0  0  0  0  0  0  0  0  0  0  0
  -21.8128  -23.3558   23.3809 C   0  0  0  0  0  0  0  0  0  0  0  0
  -23.9045  -23.0003   25.8347 C   0  0  0  0  0  0  0  0  0  0  0  0
  -25.7929  -20.9005   27.7508 C   0  0  0  0  0  0  0  0  0  0  0  0
  -28.8518  -14.5930   19.7205 C   0  0  0  0  0  0  0  0  0  0  0  0
  -22.3939  -28.3801   22.6909 C   0  0  0  0  0  0  0  0  0  0  0  0
  -20.6786  -21.5719   24.7547 C   0  0  0  0  0  0  0  0  0  0  0  0
  -23.5498  -20.9888   24.3538 C   0  0  0  0  0  0  0  0  0  0  0  0
  -23.3285  -27.1921   22.9045 C   0  0  0  0  0  0  0  0  0  0  0  0
  -30.7446  -16.7960   21.7798 C   0  0  0  0  0  0  0  0  0  0  0  0
  -22.9621  -26.0488   21.9636 C   0  0  0  0  0  0  0  0  0  0  0  0
  -30.1210  -18.1680   21.5177 C   0  0  0  0  0  0  0  0  0  0  0  0
  -30.7734  -15.9385   20.5165 C   0  0  0  0  0  0  0  0  0  0  0  0
  -28.8471  -17.1575   19.5799 C   0  0  0  0  0  0  0  0  0  0  0  0
  -21.5387  -25.5466   22.2337 C   0  0  1  0  0  0  0  0  0  0  0  0
  -21.7261  -22.6805   24.7204 C   0  0  1  0  0  0  0  0  0  0  0  0
  -28.7450  -18.0378   20.8373 C   0  0  2  0  0  0  0  0  0  0  0  0
  -25.0270  -12.8574   24.4143 C   0  0  0  0  0  0  0  0  0  0  0  0
  -27.4277  -20.9065   29.6547 C   0  0  0  0  0  0  0  0  0  0  0  0
  -23.5166   -7.4788   21.4912 C   0  0  0  0  0  0  0  0  0  0  0  0
  -21.2532   -8.4912   21.8277 C   0  0  0  0  0  0  0  0  0  0  0  0
  -26.0886  -23.9995   23.9529 C   0  0  0  0  0  0  0  0  0  0  0  0
  -27.7862  -23.0973   25.5567 C   0  0  0  0  0  0  0  0  0  0  0  0
  -26.2243  -24.9023   26.2811 C   0  0  0  0  0  0  0  0  0  0  0  0
  -24.0123  -19.2440   29.4374 C   0  0  0  0  0  0  0  0  0  0  0  0
  -26.8470  -13.3851   18.8953 C   0  0  0  0  0  0  0  0  0  0  0  0
  -22.2529  -14.4050   22.1425 C   0  0  0  0  0  0  0  0  0  0  0  0
  -23.3283  -14.3072   23.2343 C   0  0  0  0  0  0  0  0  0  0  0  0
  -23.2376  -10.0116   21.5809 C   0  0  0  0  0  0  0  0  0  0  0  0
  -24.7158  -10.2782   21.8729 C   0  0  0  0  0  0  0  0  0  0  0  0
  -21.4351  -15.6865   22.2562 C   0  0  0  0  0  0  0  0  0  1  0  0
  -24.1066  -12.9743   23.1931 C   0  0  1  0  0  0  0  0  0  0  0  0
  -25.3417  -22.5552   25.9584 C   0  0  1  0  0  0  0  0  0  0  0  0
  -25.9649  -20.7908   29.2551 C   0  0  2  0  0  0  0  0  0  0  0  0
  -22.7497   -8.6499   22.1069 C   0  0  0  0  0  0  0  0  0  0  0  0
  -26.3402  -23.6216   25.4262 C   0  0  0  0  0  0  0  0  0  0  0  0
  -28.9560  -20.4199   20.2346 N   0  0  0  0  0  0  0  0  0  0  0  0
  -25.8625  -11.6073   20.2275 N   0  0  0  0  0  0  0  0  0  0  0  0
  -25.1436  -11.5598   21.3621 N   0  0  0  0  0  0  0  0  0  0  0  0
  -28.1392  -19.3959   20.5351 N   0  0  0  0  0  0  0  0  0  0  0  0
  -23.0704  -22.1980   25.0432 N   0  0  0  0  0  0  0  0  0  0  0  0
  -29.4375  -15.8538   19.9213 N   0  0  0  0  0  0  0  0  0  0  0  0
  -25.8589  -18.8160   20.8081 N   0  0  0  0  0  0  0  0  0  0  0  0
  -25.6977  -23.1989   19.7309 N   0  0  0  0  0  0  0  0  0  0  0  0
  -21.5145  -24.7047   23.4106 N   0  0  0  0  0  0  0  0  0  0  0  0
  -25.5393  -22.1980   27.3590 N   0  0  0  0  0  0  0  0  0  0  0  0
  -27.5816  -14.6027   19.1572 N   0  0  0  0  0  0  0  0  0  0  0  0
  -25.4470  -19.4809   29.7416 N   0  3  0  0  0  0  0  0  0  0  0  0
  -24.4295  -21.3672   20.2743 O   0  0  0  0  0  0  0  0  0  0  0  0
  -22.1285  -22.7018   22.3939 O   0  0  0  0  0  0  0  0  0  0  0  0
  -23.5338  -24.0183   26.4246 O   0  0  0  0  0  0  0  0  0  0  0  0
  -25.8788  -19.9327   26.9982 O   0  0  0  0  0  0  0  0  0  0  0  0
  -29.4166  -13.5372   20.0259 O   0  0  0  0  0  0  0  0  0  0  0  0
  -30.0635  -26.4908   18.6638 O   0  0  0  0  0  0  0  0  0  0  0  0
  -22.2889  -16.8219   22.1210 O   0  0  0  0  0  0  0  0  0  1  0  0
  -34.3800  -28.4194   21.5014 F   0  0  0  0  0  0  0  0  0  0  0  0
  -29.8774  -28.8432   20.1039 F   0  0  0  0  0  0  0  0  0  0  0  0
  1  2  1  0  0  0  0
  1  5  2  0  0  0  0
  2  6  2  0  0  0  0
  3  8  2  0  0  0  0
  3 16  1  0  0  0  0
  4  9  1  0  0  0  0
  4 16  2  0  0  0  0
  5 18  1  0  0  0  0
  6 20  1  0  0  0  0
  7 10  2  0  0  0  0
  7 19  1  0  0  0  0
  8 22  1  0  0  0  0
  9 22  2  0  0  0  0
 10 23  1  0  0  0  0
 11 12  2  0  0  0  0
 11 24  1  0  0  0  0
 12 25  1  0  0  0  0
 13 21  1  0  0  0  0
 13 23  2  0  0  0  0
 14 25  2  0  0  0  0
 14 26  1  0  0  0  0
 15 28  1  0  0  0  0
 15 29  2  0  0  0  0
 16 27  1  0  0  0  0
 17 27  1  0  0  0  0
 17 30  2  0  0  0  0
 17 31  1  0  0  0  0
 18 20  2  0  0  0  0
 18 36  1  0  0  0  0
 19 21  2  0  0  0  0
 19 37  1  0  0  0  0
 20 45  1  0  0  0  0
 21 38  1  0  0  0  0
 22 84  1  0  0  0  0
 23 85  1  0  0  0  0
 24 26  2  0  0  0  0
 24 84  1  0  0  0  0
 25 86  1  0  0  0  0
 26 87  1  0  0  0  0
 27 67  2  0  0  0  0
 28 56  1  0  0  0  0
 28 68  2  0  0  0  0
 29 62  1  0  0  0  0
 29 69  1  0  0  0  0
 30 70  1  0  0  0  0
 30 73  1  0  0  0  0
 31 74  1  0  0  0  0
 31 79  2  0  0  0  0
 32 46  1  0  0  0  0
 32 75  1  0  0  0  0
 32 80  2  0  0  0  0
 33 63  1  0  0  0  0
 33 71  1  0  0  0  0
 33 81  2  0  0  0  0
 34 64  1  0  0  0  0
 34 76  1  0  0  0  0
 34 82  2  0  0  0  0
 35 72  1  0  0  0  0
 35 77  1  0  0  0  0
 35 83  2  0  0  0  0
 36 39  1  0  0  0  0
 37 46  1  0  0  0  0
 38 71  1  0  0  0  0
 39 41  1  0  0  0  0
 40 42  1  0  0  0  0
 40 43  1  0  0  0  0
 41 45  1  0  0  0  0
 42 47  1  0  0  0  0
 43 72  1  0  0  0  0
 44 47  1  0  0  0  0
 44 72  1  0  0  0  0
 45 75  1  0  0  0  0
 46 71  1  0  0  0  0
 47 70  1  0  0  0  0
 48 62  1  0  0  0  0
 49 64  1  0  0  0  0
 50 65  1  0  0  0  0
 51 65  1  0  0  0  0
 52 66  1  0  0  0  0
 53 66  1  0  0  0  0
 54 66  1  0  0  0  0
 55 78  1  0  0  0  0
 56 77  1  0  0  0  0
 57 58  1  0  0  0  0
 57 61  1  0  0  0  0
 58 62  1  0  0  0  0
 59 60  1  0  0  0  0
 59 65  1  0  0  0  0
 60 69  1  0  0  0  0
 61 85  1  0  0  0  0
 63 66  1  0  0  0  0
 63 76  1  0  0  0  0
 64 78  1  0  0  0  0
 67 70  1  0  0  0  0
 68 69  1  0  0  0  0
M  CHG  1  78   1
M  ISO  4  35 100  61 101  77 100  85 101
M  END
> <Batch ID>
0092

> <Smiles>
CNC(C)C(=O)NC(C(=O)N1Cc2cc([101O:1][101CH2:1]CCC(C)c3cc(C[100NH:0][100C:0](=O)N4CCCC(n5nc(-c6ccc(Oc7ccc(F)cc7F)cc6)c(C(N)=O)c5N)C4)nn3CCC(C)C)ccc2CC1C(=O)NC1CCCc2ccccc21)C(C)(C)C

> <Shape>
0.225

> <Color>
0.067

> <Negative vol penalty>
0.000

$$$$

  -OEChem-04052319143D

 90 98  0     1  0  0  0  0  0999 V2000
  -15.3111  -31.4513   24.0921 C   0  0  0  0  0  0  0  0  0  0  0  0
  -15.4589  -30.1840   24.6466 C   0  0  0  0  0  0  0  0  0  0  0  0
  -22.9944   -9.9040   19.9834 C   0  0  0  0  0  0  0  0  0  0  0  0
  -23.7308   -9.9453   22.2840 C   0  0  0  0  0  0  0  0  0  0  0  0
  -15.1786  -31.5959   22.7117 C   0  0  0  0  0  0  0  0  0  0  0  0
  -15.4733  -29.0604   23.8210 C   0  0  0  0  0  0  0  0  0  0  0  0
  -21.1236  -24.5928   23.7367 C   0  0  0  0  0  0  0  0  0  0  0  0
  -22.2275   -8.7697   20.2492 C   0  0  0  0  0  0  0  0  0  0  0  0
  -22.9638   -8.8109   22.5499 C   0  0  0  0  0  0  0  0  0  0  0  0
  -22.0758  -23.5766   23.8186 C   0  0  0  0  0  0  0  0  0  0  0  0
  -23.2008   -5.4734   22.0643 C   0  0  0  0  0  0  0  0  0  0  0  0
  -23.7905   -4.4525   22.8097 C   0  0  0  0  0  0  0  0  0  0  0  0
  -20.9318  -22.3495   22.0770 C   0  0  0  0  0  0  0  0  0  0  0  0
  -22.0751   -4.6917   24.4942 C   0  0  0  0  0  0  0  0  0  0  0  0
  -28.4505  -18.8231   21.8675 C   0  0  0  0  0  0  0  0  0  0  0  0
  -23.7461  -10.4918   21.0008 C   0  0  0  0  0  0  0  0  0  0  0  0
  -24.1344  -13.0075   20.8324 C   0  0  0  0  0  0  0  0  0  0  0  0
  -15.2011  -30.4743   21.8679 C   0  0  0  0  0  0  0  0  0  0  0  0
  -20.0792  -24.4983   22.8127 C   0  0  0  0  0  0  0  0  0  0  0  0
  -15.3397  -29.1900   22.4281 C   0  0  0  0  0  0  0  0  0  0  0  0
  -19.9821  -23.3701   21.9816 C   0  0  0  0  0  0  0  0  0  0  0  0
  -29.1343  -18.3483   20.7599 C   0  0  0  0  0  0  0  0  0  0  0  0
  -28.4365  -18.2373   19.5624 C   0  0  0  0  0  0  0  0  0  0  0  0
  -27.0950  -18.5992   19.5098 C   0  0  0  0  0  0  0  0  0  0  0  0
  -22.2121   -8.2231   21.5324 C   0  0  0  0  0  0  0  0  0  0  0  0
  -21.9800  -22.4576   22.9910 C   0  0  0  0  0  0  0  0  0  0  0  0
  -22.0483   -6.1036   22.5338 C   0  0  0  0  0  0  0  0  0  0  0  0
  -23.2276   -4.0617   24.0246 C   0  0  0  0  0  0  0  0  0  0  0  0
  -21.4855   -5.7127   23.7487 C   0  0  0  0  0  0  0  0  0  0  0  0
  -24.5390  -11.6633   20.7267 C   0  0  0  0  0  0  0  0  0  0  0  0
  -26.5024  -19.0626   20.6734 C   0  0  0  0  0  0  0  0  0  0  0  0
  -25.2434  -13.7298   20.4653 C   0  0  0  0  0  0  0  0  0  0  0  0
  -22.8691  -13.5543   21.2271 C   0  0  0  0  0  0  0  0  0  0  0  0
  -17.0128  -26.0805   21.3396 C   0  0  0  0  0  0  0  0  0  0  0  0
  -18.5736  -24.8280   19.0147 C   0  0  0  0  0  0  0  0  0  0  0  0
  -19.8051  -22.0412   17.4802 C   0  0  0  0  0  0  0  0  0  0  0  0
  -30.7423  -14.6552   20.6907 C   0  0  0  0  0  0  0  0  0  0  0  0
  -15.0069  -30.6766   20.3860 C   0  0  0  0  0  0  0  0  0  0  0  0
  -18.9964  -25.5399   22.7324 C   0  0  0  0  0  0  0  0  0  0  0  0
  -18.8221  -23.2949   21.0268 C   0  0  0  0  0  0  0  0  0  0  0  0
  -15.4082  -29.4654   19.5481 C   0  0  0  0  0  0  0  0  0  0  0  0
  -29.5867  -12.2421   18.3417 C   0  0  0  0  0  0  0  0  0  0  0  0
  -14.8366  -28.1861   20.1511 C   0  0  0  0  0  0  0  0  0  0  0  0
  -28.1398  -11.9830   18.7653 C   0  0  0  0  0  0  0  0  0  0  0  0
  -30.4953  -12.4716   19.5474 C   0  0  0  0  0  0  0  0  0  0  0  0
  -28.5929  -13.2649   20.8984 C   0  0  0  0  0  0  0  0  0  0  0  0
  -15.3850  -27.9489   21.5634 C   0  0  1  0  0  0  0  0  0  0  0  0
  -18.4788  -25.7631   21.3001 C   0  0  1  0  0  0  0  0  0  0  0  0
  -27.6278  -13.0831   19.7144 C   0  0  2  0  0  0  0  0  0  0  0  0
  -29.1280  -17.7302   18.3375 C   0  0  0  0  0  0  0  0  0  0  0  0
  -31.4559  -19.1865   21.2413 C   0  0  0  0  0  0  0  0  0  0  0  0
  -20.7509  -20.6228   15.6388 C   0  0  0  0  0  0  0  0  0  0  0  0
  -25.0620  -20.4722   13.7437 C   0  0  0  0  0  0  0  0  0  0  0  0
  -27.4280  -20.7175   14.5198 C   0  0  0  0  0  0  0  0  0  0  0  0
  -15.6410  -24.5341   18.2292 C   0  0  0  0  0  0  0  0  0  0  0  0
  -16.3447  -22.8653   16.5005 C   0  0  0  0  0  0  0  0  0  0  0  0
  -17.1576  -25.2196   16.3626 C   0  0  0  0  0  0  0  0  0  0  0  0
  -22.5798  -22.8337   18.1374 C   0  0  0  0  0  0  0  0  0  0  0  0
  -26.3195  -18.4933   18.2398 C   0  0  0  0  0  0  0  0  0  0  0  0
  -25.0504  -19.4692   20.6788 C   0  0  0  0  0  0  0  0  0  0  0  0
  -26.5735  -19.6407   17.2439 C   0  0  0  0  0  0  0  0  0  0  0  0
  -24.6360  -20.2568   21.9237 C   0  0  0  0  0  0  0  0  0  0  0  0
  -25.7066  -19.5323   15.9830 C   0  0  0  0  0  0  0  0  0  0  0  0
  -30.8341  -16.8296   21.8836 C   0  0  0  0  0  0  0  0  0  0  0  0
  -23.1900  -20.7369   21.8808 C   0  0  0  0  0  0  0  0  0  1  0  0
  -30.5720  -17.9753   20.8750 C   0  0  1  0  0  0  0  0  0  0  0  0
  -18.0807  -23.6926   18.1537 C   0  0  1  0  0  0  0  0  0  0  0  0
  -20.9583  -21.8508   16.5116 C   0  0  2  0  0  0  0  0  0  0  0  0
  -25.9660  -20.6589   14.9648 C   0  0  0  0  0  0  0  0  0  0  0  0
  -16.8126  -24.0740   17.3389 C   0  0  0  0  0  0  0  0  0  0  0  0
  -27.1478  -19.1844   21.8550 N   0  0  0  0  0  0  0  0  0  0  0  0
  -25.8062  -11.5364   20.3239 N   0  0  0  0  0  0  0  0  0  0  0  0
  -26.2073  -12.8101   20.1732 N   0  0  0  0  0  0  0  0  0  0  0  0
  -18.6041  -24.6066   20.3969 N   0  0  0  0  0  0  0  0  0  0  0  0
  -29.9542  -13.5279   20.4061 N   0  0  0  0  0  0  0  0  0  0  0  0
  -25.4784  -15.0555   20.3671 N   0  0  0  0  0  0  0  0  0  0  0  0
  -21.8377  -12.6704   21.5723 N   0  0  0  0  0  0  0  0  0  0  0  0
  -16.7322  -27.4239   21.5009 N   0  0  0  0  0  0  0  0  0  0  0  0
  -19.2150  -23.2789   17.3349 N   0  0  0  0  0  0  0  0  0  0  0  0
  -30.1514  -15.6119   21.5070 N   0  0  0  0  0  0  0  0  0  0  0  0
  -22.2388  -21.6873   17.2563 N   0  3  0  0  0  0  0  0  0  0  0  0
  -22.6544  -14.7898   21.2565 O   0  0  0  0  0  0  0  0  0  0  0  0
  -16.1953  -25.1742   21.2305 O   0  0  0  0  0  0  0  0  0  0  0  0
  -18.9175  -25.8856   18.4793 O   0  0  0  0  0  0  0  0  0  0  0  0
  -19.4597  -21.1768   18.2828 O   0  0  0  0  0  0  0  0  0  0  0  0
  -31.8858  -14.8011   20.2456 O   0  0  0  0  0  0  0  0  0  0  0  0
  -21.4637   -7.1164   21.7922 O   0  0  0  0  0  0  0  0  0  0  0  0
  -22.9155  -21.4713   23.0731 O   0  0  0  0  0  0  0  0  0  1  0  0
  -23.7931   -3.0802   24.7396 F   0  0  0  0  0  0  0  0  0  0  0  0
  -20.3777   -6.3135   24.2044 F   0  0  0  0  0  0  0  0  0  0  0  0
  1  2  1  0  0  0  0
  1  5  2  0  0  0  0
  2  6  2  0  0  0  0
  3  8  2  0  0  0  0
  3 16  1  0  0  0  0
  4  9  1  0  0  0  0
  4 16  2  0  0  0  0
  5 18  1  0  0  0  0
  6 20  1  0  0  0  0
  7 10  2  0  0  0  0
  7 19  1  0  0  0  0
  8 25  1  0  0  0  0
  9 25  2  0  0  0  0
 10 26  1  0  0  0  0
 11 12  2  0  0  0  0
 11 27  1  0  0  0  0
 12 28  1  0  0  0  0
 13 21  1  0  0  0  0
 13 26  2  0  0  0  0
 14 28  2  0  0  0  0
 14 29  1  0  0  0  0
 15 22  1  0  0  0  0
 15 71  2  0  0  0  0
 16 30  1  0  0  0  0
 17 30  1  0  0  0  0
 17 32  2  0  0  0  0
 17 33  1  0  0  0  0
 18 20  2  0  0  0  0
 18 38  1  0  0  0  0
 19 21  2  0  0  0  0
 19 39  1  0  0  0  0
 20 47  1  0  0  0  0
 21 40  1  0  0  0  0
 22 23  2  0  0  0  0
 22 66  1  0  0  0  0
 23 24  1  0  0  0  0
 23 50  1  0  0  0  0
 24 31  2  0  0  0  0
 24 59  1  0  0  0  0
 25 87  1  0  0  0  0
 26 88  1  0  0  0  0
 27 29  2  0  0  0  0
 27 87  1  0  0  0  0
 28 89  1  0  0  0  0
 29 90  1  0  0  0  0
 30 72  2  0  0  0  0
 31 60  1  0  0  0  0
 31 71  1  0  0  0  0
 32 73  1  0  0  0  0
 32 76  1  0  0  0  0
 33 77  1  0  0  0  0
 33 82  2  0  0  0  0
 34 48  1  0  0  0  0
 34 78  1  0  0  0  0
 34 83  2  0  0  0  0
 35 67  1  0  0  0  0
 35 74  1  0  0  0  0
 35 84  2  0  0  0  0
 36 68  1  0  0  0  0
 36 79  1  0  0  0  0
 36 85  2  0  0  0  0
 37 75  1  0  0  0  0
 37 80  1  0  0  0  0
 37 86  2  0  0  0  0
 38 41  1  0  0  0  0
 39 48  1  0  0  0  0
 40 74  1  0  0  0  0
 41 43  1  0  0  0  0
 42 44  1  0  0  0  0
 42 45  1  0  0  0  0
 43 47  1  0  0  0  0
 44 49  1  0  0  0  0
 45 75  1  0  0  0  0
 46 49  1  0  0  0  0
 46 75  1  0  0  0  0
 47 78  1  0  0  0  0
 48 74  1  0  0  0  0
 49 73  1  0  0  0  0
 51 66  1  0  0  0  0
 52 68  1  0  0  0  0
 53 69  1  0  0  0  0
 54 69  1  0  0  0  0
 55 70  1  0  0  0  0
 56 70  1  0  0  0  0
 57 70  1  0  0  0  0
 58 81  1  0  0  0  0
 59 61  1  0  0  0  0
 60 62  1  0  0  0  0
 61 63  1  0  0  0  0
 62 65  1  0  0  0  0
 63 69  1  0  0  0  0
 64 66  1  0  0  0  0
 64 80  1  0  0  0  0
 65 88  1  0  0  0  0
 67 70  1  0  0  0  0
 67 79  1  0  0  0  0
 68 81  1  0  0  0  0
 72 73  1  0  0  0  0
M  CHG  1  81   1
M  ISO  4  37 100  65 101  80 100  88 101
M  END
> <Batch ID>
0092

> <Smiles>
CNC(C)C(=O)NC(C(=O)N1Cc2cc([101O:1][101CH2:1]CCc3ncc(C(C)C[100NH:0][100C:0](=O)N4CCCC(n5nc(-c6ccc(Oc7ccc(F)cc7F)cc6)c(C(N)=O)c5N)C4)c(C)c3CCCC(C)C)ccc2CC1C(=O)NC1CCCc2ccccc21)C(C)(C)C

> <Shape>
0.238

> <Color>
0.189

> <Negative vol penalty>
0.000

$$$$

  -OEChem-04052319143D

 87 95  0     1  0  0  0  0  0999 V2000
  -30.0513  -12.5822   19.6812 C   0  0  0  0  0  0  0  0  0  0  0  0
  -29.8623  -13.9107   20.0482 C   0  0  0  0  0  0  0  0  0  0  0  0
  -28.9984  -26.0139   20.7987 C   0  0  0  0  0  0  0  0  0  0  0  0
  -26.9528  -24.8301   20.2978 C   0  0  0  0  0  0  0  0  0  0  0  0
  -28.9832  -11.8404   19.1784 C   0  0  0  0  0  0  0  0  0  0  0  0
  -28.6052  -14.4986   19.9115 C   0  0  0  0  0  0  0  0  0  0  0  0
  -24.3603  -19.3797   22.9890 C   0  0  0  0  0  0  0  0  0  0  0  0
  -29.6110  -24.8093   21.1439 C   0  0  0  0  0  0  0  0  0  0  0  0
  -27.5654  -23.6254   20.6430 C   0  0  0  0  0  0  0  0  0  0  0  0
  -23.6187  -20.5164   22.6702 C   0  0  0  0  0  0  0  0  0  0  0  0
  -28.6998  -20.1950   21.0476 C   0  0  0  0  0  0  0  0  0  0  0  0
  -28.5070  -19.1028   20.2017 C   0  0  0  0  0  0  0  0  0  0  0  0
  -21.8283  -19.1149   21.8643 C   0  0  0  0  0  0  0  0  0  0  0  0
  -19.5853  -27.1897   21.5016 C   0  0  0  0  0  0  0  0  0  0  0  0
  -29.5162  -20.3328   18.3835 C   0  0  0  0  0  0  0  0  0  0  0  0
  -27.6692  -26.0243   20.3757 C   0  0  0  0  0  0  0  0  0  0  0  0
  -26.9988  -27.8700   18.7472 C   0  0  0  0  0  0  0  0  0  0  0  0
  -27.7102  -12.4166   19.0445 C   0  0  0  0  0  0  0  0  0  0  0  0
  -23.8451  -18.1000   22.7374 C   0  0  0  0  0  0  0  0  0  0  0  0
  -27.5194  -13.7641   19.4051 C   0  0  0  0  0  0  0  0  0  0  0  0
  -22.5643  -17.9635   22.1832 C   0  0  0  0  0  0  0  0  0  0  0  0
  -18.9434  -26.0321   22.0064 C   0  0  0  0  0  0  0  0  0  0  0  0
  -28.8945  -23.6151   21.0660 C   0  0  0  0  0  0  0  0  0  0  0  0
  -22.3536  -20.3842   22.1051 C   0  0  0  0  0  0  0  0  0  0  0  0
  -29.3007  -21.3562   20.5614 C   0  0  0  0  0  0  0  0  0  0  0  0
  -28.9152  -19.1716   18.8697 C   0  0  0  0  0  0  0  0  0  0  0  0
  -29.7090  -21.4250   19.2294 C   0  0  0  0  0  0  0  0  0  0  0  0
  -27.0357  -27.2684   20.0194 C   0  0  0  0  0  0  0  0  0  0  0  0
  -19.4988  -28.1640   22.4714 C   0  0  0  0  0  0  0  0  0  0  0  0
  -18.4840  -26.3343   23.2694 C   0  0  0  0  0  0  0  0  0  0  0  0
  -26.2825  -29.0267   18.9349 C   0  0  0  0  0  0  0  0  0  0  0  0
  -27.5618  -27.4230   17.5066 C   0  0  0  0  0  0  0  0  0  0  0  0
  -24.7221  -15.6471   20.9159 C   0  0  0  0  0  0  0  0  0  0  0  0
  -22.2600  -14.1579   22.4134 C   0  0  0  0  0  0  0  0  0  0  0  0
  -19.2993  -14.4274   24.0892 C   0  0  0  0  0  0  0  0  0  0  0  0
  -22.1640  -30.6642   22.9608 C   0  0  0  0  0  0  0  0  0  0  0  0
  -26.5974  -11.5889   18.4518 C   0  0  0  0  0  0  0  0  0  0  0  0
  -24.6467  -16.8836   23.1117 C   0  0  0  0  0  0  0  0  0  0  0  0
  -21.9575  -16.6120   21.9120 C   0  0  0  0  0  0  0  0  0  0  0  0
  -25.2085  -12.1760   18.6895 C   0  0  0  0  0  0  0  0  0  0  0  0
  -25.2544  -32.2940   22.2754 C   0  0  0  0  0  0  0  0  0  0  0  0
  -25.1997  -13.6692   18.3778 C   0  0  0  0  0  0  0  0  0  0  0  0
  -26.0580  -31.2451   21.5047 C   0  0  0  0  0  0  0  0  0  0  0  0
  -24.3966  -31.6578   23.3669 C   0  0  0  0  0  0  0  0  0  0  0  0
  -24.3125  -29.5257   22.1336 C   0  0  0  0  0  0  0  0  0  0  0  0
  -26.1649  -14.4299   19.2949 C   0  0  1  0  0  0  0  0  0  0  0  0
  -24.2351  -15.6352   22.3373 C   0  0  1  0  0  0  0  0  0  0  0  0
  -25.1506  -30.1136   20.9855 C   0  0  2  0  0  0  0  0  0  0  0  0
  -15.5090  -24.4562   24.8591 C   0  0  0  0  0  0  0  0  0  0  0  0
  -19.7368  -28.4446   25.6820 C   0  0  0  0  0  0  0  0  0  0  0  0
  -19.3963  -30.4155   21.3392 C   0  0  0  0  0  0  0  0  0  0  0  0
  -17.5045  -13.0337   25.1541 C   0  0  0  0  0  0  0  0  0  0  0  0
  -21.1667  -13.4599   19.6516 C   0  0  0  0  0  0  0  0  0  0  0  0
  -18.9691  -12.9358   20.7307 C   0  0  0  0  0  0  0  0  0  0  0  0
  -20.9993  -11.6187   21.3358 C   0  0  0  0  0  0  0  0  0  0  0  0
  -19.7841  -15.6282   26.7504 C   0  0  0  0  0  0  0  0  0  0  0  0
  -18.7953  -24.7150   21.2872 C   0  0  0  0  0  0  0  0  0  0  0  0
  -17.7474  -25.4975   24.2407 C   0  0  0  0  0  0  0  0  0  0  0  0
  -16.2566  -25.3474   23.8800 C   0  0  0  0  0  0  0  0  0  0  0  0
  -20.0777  -23.8759   21.2618 C   0  0  0  0  0  0  0  0  0  0  0  0
  -20.5428  -23.4509   22.6553 C   0  0  0  0  0  0  0  0  0  0  0  0
  -18.5264  -28.3366   24.7705 C   0  0  0  0  0  0  0  0  0  0  0  0
  -21.8389  -22.6541   22.5932 C   0  0  0  0  0  0  0  0  0  1  0  0
  -20.0009  -29.5535   22.4645 C   0  0  2  0  0  0  0  0  0  0  0  0
  -20.7822  -14.0037   22.1461 C   0  0  1  0  0  0  0  0  0  0  0  0
  -18.8074  -13.7866   25.3745 C   0  0  2  0  0  0  0  0  0  0  0  0
  -20.4913  -13.0301   20.9692 C   0  0  0  0  0  0  0  0  0  0  0  0
  -26.3939  -27.9840   20.9469 N   0  0  0  0  0  0  0  0  0  0  0  0
  -18.8270  -27.6329   23.5414 N   0  0  0  0  0  0  0  0  0  0  0  0
  -25.9471  -29.0471   20.2568 N   0  0  0  0  0  0  0  0  0  0  0  0
  -22.7830  -15.4529   22.2896 N   0  0  0  0  0  0  0  0  0  0  0  0
  -23.5586  -30.5939   22.8084 N   0  0  0  0  0  0  0  0  0  0  0  0
  -25.9131  -30.0182   18.0966 N   0  0  0  0  0  0  0  0  0  0  0  0
  -28.2673  -26.2121   17.4908 N   0  0  0  0  0  0  0  0  0  0  0  0
  -25.5803  -14.6092   20.6066 N   0  0  0  0  0  0  0  0  0  0  0  0
  -20.1774  -13.6070   23.4131 N   0  0  0  0  0  0  0  0  0  0  0  0
  -21.4437  -29.6187   22.3962 N   0  0  0  0  0  0  0  0  0  0  0  0
  -18.5786  -14.8265   26.4172 N   0  3  0  0  0  0  0  0  0  0  0  0
  -27.4567  -28.0862   16.4470 O   0  0  0  0  0  0  0  0  0  0  0  0
  -24.3459  -16.5315   20.1557 O   0  0  0  0  0  0  0  0  0  0  0  0
  -22.9243  -13.1672   22.7277 O   0  0  0  0  0  0  0  0  0  0  0  0
  -18.9376  -15.5424   23.7200 O   0  0  0  0  0  0  0  0  0  0  0  0
  -21.6020  -31.5929   23.5513 O   0  0  0  0  0  0  0  0  0  0  0  0
  -29.4921  -22.4394   21.4026 O   0  0  0  0  0  0  0  0  0  0  0  0
  -21.6279  -21.4920   21.7924 O   0  0  0  0  0  0  0  0  0  1  0  0
  -28.7314  -18.1222   18.0579 F   0  0  0  0  0  0  0  0  0  0  0  0
  -30.2879  -22.5374   18.7569 F   0  0  0  0  0  0  0  0  0  0  0  0
  1  2  1  0  0  0  0
  1  5  2  0  0  0  0
  2  6  2  0  0  0  0
  3  8  2  0  0  0  0
  3 16  1  0  0  0  0
  4  9  1  0  0  0  0
  4 16  2  0  0  0  0
  5 18  1  0  0  0  0
  6 20  1  0  0  0  0
  7 10  2  0  0  0  0
  7 19  1  0  0  0  0
  8 23  1  0  0  0  0
  9 23  2  0  0  0  0
 10 24  1  0  0  0  0
 11 12  2  0  0  0  0
 11 25  1  0  0  0  0
 12 26  1  0  0  0  0
 13 21  1  0  0  0  0
 13 24  2  0  0  0  0
 14 22  1  0  0  0  0
 14 29  2  0  0  0  0
 15 26  2  0  0  0  0
 15 27  1  0  0  0  0
 16 28  1  0  0  0  0
 17 28  1  0  0  0  0
 17 31  2  0  0  0  0
 17 32  1  0  0  0  0
 18 20  2  0  0  0  0
 18 37  1  0  0  0  0
 19 21  2  0  0  0  0
 19 38  1  0  0  0  0
 20 46  1  0  0  0  0
 21 39  1  0  0  0  0
 22 30  2  0  0  0  0
 22 57  1  0  0  0  0
 23 84  1  0  0  0  0
 24 85  1  0  0  0  0
 25 27  2  0  0  0  0
 25 84  1  0  0  0  0
 26 86  1  0  0  0  0
 27 87  1  0  0  0  0
 28 68  2  0  0  0  0
 29 64  1  0  0  0  0
 29 69  1  0  0  0  0
 30 58  1  0  0  0  0
 30 69  1  0  0  0  0
 31 70  1  0  0  0  0
 31 73  1  0  0  0  0
 32 74  1  0  0  0  0
 32 79  2  0  0  0  0
 33 47  1  0  0  0  0
 33 75  1  0  0  0  0
 33 80  2  0  0  0  0
 34 65  1  0  0  0  0
 34 71  1  0  0  0  0
 34 81  2  0  0  0  0
 35 66  1  0  0  0  0
 35 76  1  0  0  0  0
 35 82  2  0  0  0  0
 36 72  1  0  0  0  0
 36 77  1  0  0  0  0
 36 83  2  0  0  0  0
 37 40  1  0  0  0  0
 38 47  1  0  0  0  0
 39 71  1  0  0  0  0
 40 42  1  0  0  0  0
 41 43  1  0  0  0  0
 41 44  1  0  0  0  0
 42 46  1  0  0  0  0
 43 48  1  0  0  0  0
 44 72  1  0  0  0  0
 45 48  1  0  0  0  0
 45 72  1  0  0  0  0
 46 75  1  0  0  0  0
 47 71  1  0  0  0  0
 48 70  1  0  0  0  0
 49 59  1  0  0  0  0
 50 62  1  0  0  0  0
 51 64  1  0  0  0  0
 52 66  1  0  0  0  0
 53 67  1  0  0  0  0
 54 67  1  0  0  0  0
 55 67  1  0  0  0  0
 56 78  1  0  0  0  0
 57 60  1  0  0  0  0
 58 59  1  0  0  0  0
 60 61  1  0  0  0  0
 61 63  1  0  0  0  0
 62 69  1  0  0  0  0
 63 85  1  0  0  0  0
 64 77  1  0  0  0  0
 65 67  1  0  0  0  0
 65 76  1  0  0  0  0
 66 78  1  0  0  0  0
 68 70  1  0  0  0  0
M  CHG  1  78   1
M  ISO  4  36 100  63 101  77 100  85 101
M  END
> <Batch ID>
0092

> <Smiles>
CCCc1c(CCC[101CH2:1][101O:1]c2ccc3c(c2)CN(C(=O)C(NC(=O)C(C)NC)C(C)(C)C)C(C(=O)NC2CCCc4ccccc42)C3)cc(C(C)[100NH:0][100C:0](=O)N2CCCC(n3nc(-c4ccc(Oc5ccc(F)cc5F)cc4)c(C(N)=O)c3N)C2)n1CC

> <Shape>
0.252

> <Color>
0.078

> <Negative vol penalty>
0.000

$$$$

  -OEChem-04052319143D

 88 96  0     1  0  0  0  0  0999 V2000
  -19.7074   -9.6129   22.5449 C   0  0  0  0  0  0  0  0  0  0  0  0
  -20.1654  -10.8003   23.1069 C   0  0  0  0  0  0  0  0  0  0  0  0
  -23.7003  -30.8945   21.5003 C   0  0  0  0  0  0  0  0  0  0  0  0
  -23.8253  -29.1971   23.2150 C   0  0  0  0  0  0  0  0  0  0  0  0
  -20.5504   -8.8578   21.7306 C   0  0  0  0  0  0  0  0  0  0  0  0
  -21.4670  -11.2328   22.8556 C   0  0  0  0  0  0  0  0  0  0  0  0
  -23.3738  -17.0229   22.2686 C   0  0  0  0  0  0  0  0  0  0  0  0
  -22.3078  -30.8716   21.5791 C   0  0  0  0  0  0  0  0  0  0  0  0
  -22.4328  -29.1742   23.2939 C   0  0  0  0  0  0  0  0  0  0  0  0
  -23.9892  -17.9025   23.1581 C   0  0  0  0  0  0  0  0  0  0  0  0
  -19.8598  -27.8527   21.5434 C   0  0  0  0  0  0  0  0  0  0  0  0
  -19.2335  -26.6071   21.5849 C   0  0  0  0  0  0  0  0  0  0  0  0
  -26.1438  -17.2935   22.2603 C   0  0  0  0  0  0  0  0  0  0  0  0
  -27.9280  -21.9010   22.9398 C   0  0  0  0  0  0  0  0  0  0  0  0
  -18.2744  -27.1609   23.7321 C   0  0  0  0  0  0  0  0  0  0  0  0
  -24.4590  -30.0572   22.3182 C   0  0  0  0  0  0  0  0  0  0  0  0
  -26.7779  -30.8919   22.9766 C   0  0  0  0  0  0  0  0  0  0  0  0
  -21.8599   -9.2861   21.4614 C   0  0  0  0  0  0  0  0  0  0  0  0
  -24.1408  -16.2626   21.3741 C   0  0  0  0  0  0  0  0  0  0  0  0
  -22.3287  -10.4820   22.0380 C   0  0  0  0  0  0  0  0  0  0  0  0
  -25.5355  -16.4069   21.3586 C   0  0  0  0  0  0  0  0  0  0  0  0
  -26.5865  -21.8853   23.3048 C   0  0  0  0  0  0  0  0  0  0  0  0
  -25.6343  -22.4391   22.4563 C   0  0  0  0  0  0  0  0  0  0  0  0
  -21.6741  -30.0115   22.4759 C   0  0  0  0  0  0  0  0  0  0  0  0
  -25.3746  -18.0358   23.1560 C   0  0  0  0  0  0  0  0  0  0  0  0
  -19.6936  -28.7525   22.5963 C   0  0  0  0  0  0  0  0  0  0  0  0
  -18.4408  -26.2612   22.6792 C   0  0  0  0  0  0  0  0  0  0  0  0
  -18.9008  -28.4066   23.6907 C   0  0  0  0  0  0  0  0  0  0  0  0
  -25.8974  -30.0800   22.2369 C   0  0  0  0  0  0  0  0  0  0  0  0
  -28.2630  -22.4780   21.7254 C   0  0  0  0  0  0  0  0  0  0  0  0
  -26.0720  -22.9921   21.2636 C   0  0  0  0  0  0  0  0  0  0  0  0
  -28.0281  -30.5352   22.5335 C   0  0  0  0  0  0  0  0  0  0  0  0
  -26.4914  -31.8802   23.9751 C   0  0  0  0  0  0  0  0  0  0  0  0
  -24.6154  -13.1546   20.9062 C   0  0  0  0  0  0  0  0  0  0  0  0
  -26.2911  -14.1954   18.3310 C   0  0  0  0  0  0  0  0  0  0  0  0
  -28.0404  -16.7174   16.8390 C   0  0  0  0  0  0  0  0  0  0  0  0
  -30.1996  -25.5432   20.0405 C   0  0  0  0  0  0  0  0  0  0  0  0
  -22.7496   -8.4122   20.6133 C   0  0  0  0  0  0  0  0  0  0  0  0
  -23.4598  -15.3380   20.4026 C   0  0  0  0  0  0  0  0  0  0  0  0
  -26.4027  -15.6286   20.4043 C   0  0  0  0  0  0  0  0  0  0  0  0
  -23.9921   -9.1307   20.0932 C   0  0  0  0  0  0  0  0  0  0  0  0
  -30.2885  -28.8308   18.6765 C   0  0  0  0  0  0  0  0  0  0  0  0
  -24.6631   -9.9167   21.2152 C   0  0  0  0  0  0  0  0  0  0  0  0
  -29.2526  -29.5970   19.5011 C   0  0  0  0  0  0  0  0  0  0  0  0
  -29.8544  -27.3886   18.4244 C   0  0  0  0  0  0  0  0  0  0  0  0
  -28.4679  -27.3925   20.4619 C   0  0  0  0  0  0  0  0  0  0  0  0
  -23.7261  -10.9970   21.7688 C   0  0  1  0  0  0  0  0  0  0  0  0
  -24.3763  -14.2327   19.8872 C   0  0  1  0  0  0  0  0  0  0  0  0
  -28.8872  -28.8358   20.7896 C   0  0  2  0  0  0  0  0  0  0  0  0
  -23.7086  -23.7975   23.3122 C   0  0  0  0  0  0  0  0  0  0  0  0
  -25.0681  -22.8717   18.9546 C   0  0  0  0  0  0  0  0  0  0  0  0
  -25.3481  -25.1037   20.0926 C   0  0  0  0  0  0  0  0  0  0  0  0
  -29.3227  -17.2583   14.7508 C   0  0  0  0  0  0  0  0  0  0  0  0
  -25.4797  -22.2393   25.6132 C   0  0  0  0  0  0  0  0  0  0  0  0
  -27.4550  -20.7501   25.3728 C   0  0  0  0  0  0  0  0  0  0  0  0
  -28.6433  -12.5402   19.3497 C   0  0  0  0  0  0  0  0  0  0  0  0
  -30.1326  -13.8381   17.8116 C   0  0  0  0  0  0  0  0  0  0  0  0
  -28.2909  -12.4400   16.8758 C   0  0  0  0  0  0  0  0  0  0  0  0
  -26.1854  -18.9115   16.1292 C   0  0  0  0  0  0  0  0  0  0  0  0
  -24.1877  -22.4343   22.8204 C   0  0  0  0  0  0  0  0  0  0  0  0
  -29.6931  -22.5115   21.3004 C   0  0  0  0  0  0  0  0  0  0  0  0
  -30.4399  -23.7693   21.7593 C   0  0  0  0  0  0  0  0  0  0  0  0
  -25.2371  -20.0479   24.4164 C   0  0  0  0  0  0  0  0  0  1  0  0
  -25.0960  -23.6006   20.3103 C   0  0  0  0  0  0  0  0  0  0  0  0
  -27.7257  -14.5912   18.0778 C   0  0  1  0  0  0  0  0  0  0  0  0
  -27.9680  -17.3033   15.4404 C   0  0  2  0  0  0  0  0  0  0  0  0
  -26.1840  -21.2532   24.6505 C   0  0  0  0  0  0  0  0  0  0  0  0
  -28.6822  -13.3657   18.0481 C   0  0  0  0  0  0  0  0  0  0  0  0
  -26.5341  -29.2688   21.3881 N   0  0  0  0  0  0  0  0  0  0  0  0
  -27.3663  -23.0258   20.8749 N   0  0  0  0  0  0  0  0  0  0  0  0
  -27.8281  -29.5692   21.5917 N   0  0  0  0  0  0  0  0  0  0  0  0
  -25.6904  -14.7328   19.4782 N   0  0  0  0  0  0  0  0  0  0  0  0
  -29.5235  -26.7224   19.6864 N   0  0  0  0  0  0  0  0  0  0  0  0
  -29.2679  -30.9568   22.8615 N   0  0  0  0  0  0  0  0  0  0  0  0
  -25.1524  -32.1219   24.3110 N   0  0  0  0  0  0  0  0  0  0  0  0
  -23.6833  -12.1350   20.8758 N   0  0  0  0  0  0  0  0  0  0  0  0
  -27.7217  -15.3759   16.8479 N   0  0  0  0  0  0  0  0  0  0  0  0
  -29.8300  -24.9796   21.2556 N   0  0  0  0  0  0  0  0  0  0  0  0
  -27.5158  -18.7222   15.4960 N   0  3  0  0  0  0  0  0  0  0  0  0
  -27.3952  -32.5412   24.5406 O   0  0  0  0  0  0  0  0  0  0  0  0
  -25.5755  -13.2408   21.6629 O   0  0  0  0  0  0  0  0  0  0  0  0
  -25.7221  -13.4429   17.5362 O   0  0  0  0  0  0  0  0  0  0  0  0
  -28.3523  -17.3824   17.8244 O   0  0  0  0  0  0  0  0  0  0  0  0
  -31.0720  -25.0335   19.3291 O   0  0  0  0  0  0  0  0  0  0  0  0
  -20.3154  -29.9890   22.5533 O   0  0  0  0  0  0  0  0  0  0  0  0
  -25.9779  -18.8932   24.0237 O   0  0  0  0  0  0  0  0  0  1  0  0
  -17.8381  -25.0656   22.7182 F   0  0  0  0  0  0  0  0  0  0  0  0
  -18.7364  -29.2672   24.7046 F   0  0  0  0  0  0  0  0  0  0  0  0
  1  2  1  0  0  0  0
  1  5  2  0  0  0  0
  2  6  2  0  0  0  0
  3  8  2  0  0  0  0
  3 16  1  0  0  0  0
  4  9  1  0  0  0  0
  4 16  2  0  0  0  0
  5 18  1  0  0  0  0
  6 20  1  0  0  0  0
  7 10  2  0  0  0  0
  7 19  1  0  0  0  0
  8 24  1  0  0  0  0
  9 24  2  0  0  0  0
 10 25  1  0  0  0  0
 11 12  2  0  0  0  0
 11 26  1  0  0  0  0
 12 27  1  0  0  0  0
 13 21  1  0  0  0  0
 13 25  2  0  0  0  0
 14 22  2  0  0  0  0
 14 30  1  0  0  0  0
 15 27  2  0  0  0  0
 15 28  1  0  0  0  0
 16 29  1  0  0  0  0
 17 29  1  0  0  0  0
 17 32  2  0  0  0  0
 17 33  1  0  0  0  0
 18 20  2  0  0  0  0
 18 38  1  0  0  0  0
 19 21  2  0  0  0  0
 19 39  1  0  0  0  0
 20 47  1  0  0  0  0
 21 40  1  0  0  0  0
 22 23  1  0  0  0  0
 22 67  1  0  0  0  0
 23 31  2  0  0  0  0
 23 60  1  0  0  0  0
 24 85  1  0  0  0  0
 25 86  1  0  0  0  0
 26 28  2  0  0  0  0
 26 85  1  0  0  0  0
 27 87  1  0  0  0  0
 28 88  1  0  0  0  0
 29 69  2  0  0  0  0
 30 61  1  0  0  0  0
 30 70  2  0  0  0  0
 31 64  1  0  0  0  0
 31 70  1  0  0  0  0
 32 71  1  0  0  0  0
 32 74  1  0  0  0  0
 33 75  1  0  0  0  0
 33 80  2  0  0  0  0
 34 48  1  0  0  0  0
 34 76  1  0  0  0  0
 34 81  2  0  0  0  0
 35 65  1  0  0  0  0
 35 72  1  0  0  0  0
 35 82  2  0  0  0  0
 36 66  1  0  0  0  0
 36 77  1  0  0  0  0
 36 83  2  0  0  0  0
 37 73  1  0  0  0  0
 37 78  1  0  0  0  0
 37 84  2  0  0  0  0
 38 41  1  0  0  0  0
 39 48  1  0  0  0  0
 40 72  1  0  0  0  0
 41 43  1  0  0  0  0
 42 44  1  0  0  0  0
 42 45  1  0  0  0  0
 43 47  1  0  0  0  0
 44 49  1  0  0  0  0
 45 73  1  0  0  0  0
 46 49  1  0  0  0  0
 46 73  1  0  0  0  0
 47 76  1  0  0  0  0
 48 72  1  0  0  0  0
 49 71  1  0  0  0  0
 50 60  1  0  0  0  0
 51 64  1  0  0  0  0
 52 64  1  0  0  0  0
 53 66  1  0  0  0  0
 54 67  1  0  0  0  0
 55 67  1  0  0  0  0
 56 68  1  0  0  0  0
 57 68  1  0  0  0  0
 58 68  1  0  0  0  0
 59 79  1  0  0  0  0
 61 62  1  0  0  0  0
 62 78  1  0  0  0  0
 63 67  1  0  0  0  0
 63 86  1  0  0  0  0
 65 68  1  0  0  0  0
 65 77  1  0  0  0  0
 66 79  1  0  0  0  0
 69 71  1  0  0  0  0
M  CHG  1  79   1
M  ISO  4  37 100  63 101  78 100  86 101
M  END
> <Batch ID>
0092

> <Smiles>
CCc1c(C(C)(C)[101CH2:1][101O:1]c2ccc3c(c2)CN(C(=O)C(NC(=O)C(C)NC)C(C)(C)C)C(C(=O)NC2CCCc4ccccc42)C3)cc(CC[100NH:0][100C:0](=O)N2CCCC(n3nc(-c4ccc(Oc5ccc(F)cc5F)cc4)c(C(N)=O)c3N)C2)nc1C(C)C

> <Shape>
0.265

> <Color>
0.047

> <Negative vol penalty>
0.000

$$$$

  -OEChem-04052319143D

 88 96  0     1  0  0  0  0  0999 V2000
  -21.0611  -28.1336   29.5749 C   0  0  0  0  0  0  0  0  0  0  0  0
  -21.8337  -27.7595   28.4801 C   0  0  0  0  0  0  0  0  0  0  0  0
  -23.8055   -9.6661   20.0481 C   0  0  0  0  0  0  0  0  0  0  0  0
  -23.3437  -10.2405   22.3489 C   0  0  0  0  0  0  0  0  0  0  0  0
  -20.5107  -29.4133   29.6335 C   0  0  0  0  0  0  0  0  0  0  0  0
  -22.0555  -28.6645   27.4428 C   0  0  0  0  0  0  0  0  0  0  0  0
  -26.8892  -28.7445   25.9347 C   0  0  0  0  0  0  0  0  0  0  0  0
  -23.1430   -8.4506   20.2185 C   0  0  0  0  0  0  0  0  0  0  0  0
  -22.6811   -9.0250   22.5194 C   0  0  0  0  0  0  0  0  0  0  0  0
  -27.3159  -27.7050   25.1094 C   0  0  0  0  0  0  0  0  0  0  0  0
  -19.9481   -7.3483   20.3229 C   0  0  0  0  0  0  0  0  0  0  0  0
  -19.0554   -6.9515   19.3273 C   0  0  0  0  0  0  0  0  0  0  0  0
  -27.0782  -29.1421   23.1865 C   0  0  0  0  0  0  0  0  0  0  0  0
  -30.3889  -21.2420   20.1788 C   0  0  0  0  0  0  0  0  0  0  0  0
  -20.3641   -4.9561   18.9492 C   0  0  0  0  0  0  0  0  0  0  0  0
  -28.3272  -22.7975   19.2981 C   0  0  0  0  0  0  0  0  0  0  0  0
  -23.9060  -10.5611   21.1133 C   0  0  0  0  0  0  0  0  0  0  0  0
  -24.0312  -13.0391   20.5207 C   0  0  0  0  0  0  0  0  0  0  0  0
  -20.7339  -30.3377   28.6009 C   0  0  0  0  0  0  0  0  0  0  0  0
  -26.5427  -29.9893   25.3900 C   0  0  0  0  0  0  0  0  0  0  0  0
  -21.5065  -29.9573   27.4870 C   0  0  0  0  0  0  0  0  0  0  0  0
  -26.6498  -30.1966   24.0073 C   0  0  0  0  0  0  0  0  0  0  0  0
  -29.2376  -21.3500   20.9510 C   0  0  0  0  0  0  0  0  0  0  0  0
  -28.1825  -22.1405   20.5094 C   0  0  0  0  0  0  0  0  0  0  0  0
  -22.5807   -8.1300   21.4541 C   0  0  0  0  0  0  0  0  0  0  0  0
  -27.4078  -27.9028   23.7348 C   0  0  0  0  0  0  0  0  0  0  0  0
  -21.0489   -6.5491   20.6316 C   0  0  0  0  0  0  0  0  0  0  0  0
  -19.2634   -5.7554   18.6405 C   0  0  0  0  0  0  0  0  0  0  0  0
  -21.2569   -5.3530   19.9447 C   0  0  0  0  0  0  0  0  0  0  0  0
  -24.5908  -11.8166   20.9380 C   0  0  0  0  0  0  0  0  0  0  0  0
  -30.4347  -21.9391   18.9822 C   0  0  0  0  0  0  0  0  0  0  0  0
  -25.0881  -13.9163   20.5147 C   0  0  0  0  0  0  0  0  0  0  0  0
  -22.6771  -13.3538   20.1699 C   0  0  0  0  0  0  0  0  0  0  0  0
  -23.8857  -31.7309   25.2855 C   0  0  0  0  0  0  0  0  0  0  0  0
  -25.8483  -33.9357   23.9403 C   0  0  0  0  0  0  0  0  0  0  0  0
  -28.7200  -34.5903   22.2165 C   0  0  0  0  0  0  0  0  0  0  0  0
  -29.6580  -16.0551   22.8643 C   0  0  0  0  0  0  0  0  0  0  0  0
  -20.0791  -31.6937   28.6864 C   0  0  0  0  0  0  0  0  0  0  0  0
  -26.1097  -31.1087   26.2967 C   0  0  0  0  0  0  0  0  0  0  0  0
  -26.3090  -31.5204   23.3751 C   0  0  0  0  0  0  0  0  0  0  0  0
  -20.6721  -32.7183   27.7227 C   0  0  0  0  0  0  0  0  0  0  0  0
  -30.0597  -13.0865   20.9654 C   0  0  0  0  0  0  0  0  0  0  0  0
  -20.8292  -32.1138   26.3310 C   0  0  0  0  0  0  0  0  0  0  0  0
  -28.6278  -12.5908   20.7536 C   0  0  0  0  0  0  0  0  0  0  0  0
  -30.2441  -13.7038   22.3502 C   0  0  0  0  0  0  0  0  0  0  0  0
  -27.8507  -14.2701   22.4782 C   0  0  0  0  0  0  0  0  0  0  0  0
  -21.7903  -30.9192   26.3536 C   0  0  1  0  0  0  0  0  0  0  0  0
  -25.2905  -32.1765   25.5784 C   0  0  1  0  0  0  0  0  0  0  0  0
  -27.5985  -13.6916   21.0754 C   0  0  2  0  0  0  0  0  0  0  0  0
  -34.9111  -23.9616   17.8896 C   0  0  0  0  0  0  0  0  0  0  0  0
  -30.0365  -36.4848   21.2291 C   0  0  0  0  0  0  0  0  0  0  0  0
  -23.8700  -34.0995   21.6231 C   0  0  0  0  0  0  0  0  0  0  0  0
  -25.6487  -35.2353   20.2762 C   0  0  0  0  0  0  0  0  0  0  0  0
  -24.7946  -36.3022   22.3630 C   0  0  0  0  0  0  0  0  0  0  0  0
  -31.0534  -34.0237   23.9466 C   0  0  0  0  0  0  0  0  0  0  0  0
  -26.9275  -22.2916   21.2969 C   0  0  0  0  0  0  0  0  0  0  0  0
  -29.1562  -20.6073   22.2521 C   0  0  0  0  0  0  0  0  0  0  0  0
  -31.6546  -21.8469   18.1277 C   0  0  0  0  0  0  0  0  0  0  0  0
  -33.9149  -22.8589   17.5685 C   0  0  0  0  0  0  0  0  0  0  0  0
  -27.0471  -23.2281   22.5140 C   0  0  0  0  0  0  0  0  0  0  0  0
  -32.6850  -22.9339   18.4732 C   0  0  0  0  0  0  0  0  0  0  0  0
  -27.3816  -24.6683   22.1232 C   0  0  0  0  0  0  0  0  0  0  0  0
  -27.5322  -25.5595   23.3486 C   0  0  0  0  0  0  0  0  0  1  0  0
  -28.9008  -18.3756   23.3502 C   0  0  0  0  0  0  0  0  0  0  0  0
  -26.2810  -34.2640   22.5318 C   0  0  1  0  0  0  0  0  0  0  0  0
  -29.8265  -35.6030   22.4502 C   0  0  2  0  0  0  0  0  0  0  0  0
  -25.1532  -34.9496   21.7099 C   0  0  0  0  0  0  0  0  0  0  0  0
  -29.4300  -22.7169   18.5203 N   0  0  0  0  0  0  0  0  0  0  0  0
  -25.9014  -11.9052   21.1795 N   0  0  0  0  0  0  0  0  0  0  0  0
  -26.1743  -13.1938   20.9130 N   0  0  0  0  0  0  0  0  0  0  0  0
  -25.8846  -32.5818   24.3029 N   0  0  0  0  0  0  0  0  0  0  0  0
  -29.2394  -14.7437   22.5845 N   0  0  0  0  0  0  0  0  0  0  0  0
  -25.1851  -15.2272   20.2077 N   0  0  0  0  0  0  0  0  0  0  0  0
  -21.7170  -12.3345   20.2308 N   0  0  0  0  0  0  0  0  0  0  0  0
  -23.1626  -31.3755   26.4081 N   0  0  0  0  0  0  0  0  0  0  0  0
  -27.4988  -35.0582   22.6535 N   0  0  0  0  0  0  0  0  0  0  0  0
  -28.6409  -16.9817   23.0632 N   0  0  0  0  0  0  0  0  0  0  0  0
  -31.1092  -34.9078   22.7540 N   0  3  0  0  0  0  0  0  0  0  0  0
  -28.9319  -19.1484   22.0769 N   0  3  0  0  0  0  0  0  0  0  0  0
  -22.3320  -14.5007   19.7971 O   0  0  0  0  0  0  0  0  0  0  0  0
  -23.4869  -31.7125   24.1269 O   0  0  0  0  0  0  0  0  0  0  0  0
  -25.4979  -34.8477   24.6934 O   0  0  0  0  0  0  0  0  0  0  0  0
  -28.9185  -33.4953   21.6948 O   0  0  0  0  0  0  0  0  0  0  0  0
  -30.8495  -16.3772   22.9229 O   0  0  0  0  0  0  0  0  0  0  0  0
  -21.9339   -6.9441   21.6207 O   0  0  0  0  0  0  0  0  0  0  0  0
  -27.8265  -26.8823   22.9210 O   0  0  0  0  0  0  0  0  0  1  0  0
  -18.4051   -5.3737   17.6855 F   0  0  0  0  0  0  0  0  0  0  0  0
  -22.3119   -4.5805   20.2377 F   0  0  0  0  0  0  0  0  0  0  0  0
  1  2  1  0  0  0  0
  1  5  2  0  0  0  0
  2  6  2  0  0  0  0
  3  8  2  0  0  0  0
  3 17  1  0  0  0  0
  4  9  1  0  0  0  0
  4 17  2  0  0  0  0
  5 19  1  0  0  0  0
  6 21  1  0  0  0  0
  7 10  2  0  0  0  0
  7 20  1  0  0  0  0
  8 25  1  0  0  0  0
  9 25  2  0  0  0  0
 10 26  1  0  0  0  0
 11 12  2  0  0  0  0
 11 27  1  0  0  0  0
 12 28  1  0  0  0  0
 13 22  1  0  0  0  0
 13 26  2  0  0  0  0
 14 23  2  0  0  0  0
 14 31  1  0  0  0  0
 15 28  2  0  0  0  0
 15 29  1  0  0  0  0
 16 24  2  0  0  0  0
 16 68  1  0  0  0  0
 17 30  1  0  0  0  0
 18 30  1  0  0  0  0
 18 32  2  0  0  0  0
 18 33  1  0  0  0  0
 19 21  2  0  0  0  0
 19 38  1  0  0  0  0
 20 22  2  0  0  0  0
 20 39  1  0  0  0  0
 21 47  1  0  0  0  0
 22 40  1  0  0  0  0
 23 24  1  0  0  0  0
 23 57  1  0  0  0  0
 24 56  1  0  0  0  0
 25 85  1  0  0  0  0
 26 86  1  0  0  0  0
 27 29  2  0  0  0  0
 27 85  1  0  0  0  0
 28 87  1  0  0  0  0
 29 88  1  0  0  0  0
 30 69  2  0  0  0  0
 31 58  1  0  0  0  0
 31 68  2  0  0  0  0
 32 70  1  0  0  0  0
 32 73  1  0  0  0  0
 33 74  1  0  0  0  0
 33 80  2  0  0  0  0
 34 48  1  0  0  0  0
 34 75  1  0  0  0  0
 34 81  2  0  0  0  0
 35 65  1  0  0  0  0
 35 71  1  0  0  0  0
 35 82  2  0  0  0  0
 36 66  1  0  0  0  0
 36 76  1  0  0  0  0
 36 83  2  0  0  0  0
 37 72  1  0  0  0  0
 37 77  1  0  0  0  0
 37 84  2  0  0  0  0
 38 41  1  0  0  0  0
 39 48  1  0  0  0  0
 40 71  1  0  0  0  0
 41 43  1  0  0  0  0
 42 44  1  0  0  0  0
 42 45  1  0  0  0  0
 43 47  1  0  0  0  0
 44 49  1  0  0  0  0
 45 72  1  0  0  0  0
 46 49  1  0  0  0  0
 46 72  1  0  0  0  0
 47 75  1  0  0  0  0
 48 71  1  0  0  0  0
 49 70  1  0  0  0  0
 50 59  1  0  0  0  0
 51 66  1  0  0  0  0
 52 67  1  0  0  0  0
 53 67  1  0  0  0  0
 54 67  1  0  0  0  0
 55 78  1  0  0  0  0
 56 60  1  0  0  0  0
 57 79  1  0  0  0  0
 58 61  1  0  0  0  0
 59 61  1  0  0  0  0
 60 62  1  0  0  0  0
 62 63  1  0  0  0  0
 63 86  1  0  0  0  0
 64 77  1  0  0  0  0
 64 79  1  0  0  0  0
 65 67  1  0  0  0  0
 65 76  1  0  0  0  0
 66 78  1  0  0  0  0
 69 70  1  0  0  0  0
M  CHG  2  78   1  79   1
M  ISO  4  37 100  63 101  77 100  86 101
M  END
> <Batch ID>
0092

> <Smiles>
CCCCc1cc(CNC[100NH:0][100C:0](=O)N2CCCC(n3nc(-c4ccc(Oc5ccc(F)cc5F)cc4)c(C(N)=O)c3N)C2)c(CCC[101CH2:1][101O:1]c2ccc3c(c2)CN(C(=O)C(NC(=O)C(C)NC)C(C)(C)C)C(C(=O)NC2CCCc4ccccc42)C3)cn1

> <Shape>
0.233

> <Color>
0.143

> <Negative vol penalty>
0.000

$$$$

  -OEChem-04052319143D

 87 95  0     1  0  0  0  0  0999 V2000
  -28.0600  -25.0610   16.4384 C   0  0  0  0  0  0  0  0  0  0  0  0
  -26.8812  -25.2167   17.1606 C   0  0  0  0  0  0  0  0  0  0  0  0
  -30.4639  -17.8052   19.5935 C   0  0  0  0  0  0  0  0  0  0  0  0
  -28.8835  -16.1739   18.7699 C   0  0  0  0  0  0  0  0  0  0  0  0
  -29.2586  -25.5601   16.9465 C   0  0  0  0  0  0  0  0  0  0  0  0
  -26.9006  -25.8706   18.3921 C   0  0  0  0  0  0  0  0  0  0  0  0
  -23.1017  -29.1815   18.8934 C   0  0  0  0  0  0  0  0  0  0  0  0
  -31.3477  -16.7796   19.9289 C   0  0  0  0  0  0  0  0  0  0  0  0
  -29.7674  -15.1483   19.1052 C   0  0  0  0  0  0  0  0  0  0  0  0
  -21.8425  -28.6648   19.1957 C   0  0  0  0  0  0  0  0  0  0  0  0
  -32.5621  -13.7507   17.8180 C   0  0  0  0  0  0  0  0  0  0  0  0
  -32.7617  -12.7371   16.8809 C   0  0  0  0  0  0  0  0  0  0  0  0
  -22.1661  -29.2486   21.5138 C   0  0  0  0  0  0  0  0  0  0  0  0
  -19.1287  -22.6019   22.9498 C   0  0  0  0  0  0  0  0  0  0  0  0
  -31.9576  -11.1071   18.4726 C   0  0  0  0  0  0  0  0  0  0  0  0
  -29.2317  -17.5024   19.0141 C   0  0  0  0  0  0  0  0  0  0  0  0
  -28.2421  -19.2525   17.4439 C   0  0  0  0  0  0  0  0  0  0  0  0
  -29.2910  -26.2290   18.1803 C   0  0  0  0  0  0  0  0  0  0  0  0
  -23.9084  -29.7266   19.9026 C   0  0  0  0  0  0  0  0  0  0  0  0
  -28.1010  -26.3779   18.9178 C   0  0  0  0  0  0  0  0  0  0  0  0
  -23.4341  -29.7739   21.2213 C   0  0  0  0  0  0  0  0  0  0  0  0
  -18.1634  -23.5605   22.5545 C   0  0  0  0  0  0  0  0  0  0  0  0
  -30.9995  -15.4511   19.6847 C   0  0  0  0  0  0  0  0  0  0  0  0
  -21.3758  -28.6957   20.5066 C   0  0  0  0  0  0  0  0  0  0  0  0
  -32.0603  -13.4425   19.0825 C   0  0  0  0  0  0  0  0  0  0  0  0
  -32.4595  -11.4153   17.2081 C   0  0  0  0  0  0  0  0  0  0  0  0
  -31.7580  -12.1207   19.4098 C   0  0  0  0  0  0  0  0  0  0  0  0
  -28.3179  -18.5613   18.6680 C   0  0  0  0  0  0  0  0  0  0  0  0
  -19.2627  -21.7024   21.9153 C   0  0  0  0  0  0  0  0  0  0  0  0
  -17.7368  -23.2176   21.2905 C   0  0  0  0  0  0  0  0  0  0  0  0
  -27.2198  -20.1526   17.6206 C   0  0  0  0  0  0  0  0  0  0  0  0
  -29.0257  -19.0950   16.2536 C   0  0  0  0  0  0  0  0  0  0  0  0
  -26.7590  -29.0237   21.1206 C   0  0  0  0  0  0  0  0  0  0  0  0
  -26.2992  -31.7770   22.7728 C   0  0  0  0  0  0  0  0  0  0  0  0
  -24.1050  -34.0603   24.0453 C   0  0  0  0  0  0  0  0  0  0  0  0
  -22.4857  -20.0853   21.1475 C   0  0  0  0  0  0  0  0  0  0  0  0
  -30.6185  -26.7096   18.7108 C   0  0  0  0  0  0  0  0  0  0  0  0
  -25.2532  -30.3041   19.5557 C   0  0  0  0  0  0  0  0  0  0  0  0
  -24.2529  -30.3668   22.3378 C   0  0  0  0  0  0  0  0  0  0  0  0
  -30.4903  -27.7197   19.8481 C   0  0  0  0  0  0  0  0  0  0  0  0
  -25.0039  -22.6817   21.0266 C   0  0  0  0  0  0  0  0  0  0  0  0
  -29.4689  -27.2409   20.8748 C   0  0  0  0  0  0  0  0  0  0  0  0
  -26.1374  -21.9717   20.2842 C   0  0  0  0  0  0  0  0  0  0  0  0
  -24.2791  -21.7277   21.9714 C   0  0  0  0  0  0  0  0  0  0  0  0
  -24.8786  -19.7875   20.5750 C   0  0  0  0  0  0  0  0  0  0  0  0
  -28.0772  -27.1032   20.2458 C   0  0  1  0  0  0  0  0  0  0  0  0
  -26.2016  -30.3686   20.7488 C   0  0  1  0  0  0  0  0  0  0  0  0
  -25.6361  -20.6931   19.5870 C   0  0  2  0  0  0  0  0  0  0  0  0
  -16.7440  -23.8702   20.4104 C   0  0  0  0  0  0  0  0  0  0  0  0
  -16.4037  -19.8723   20.5342 C   0  0  0  0  0  0  0  0  0  0  0  0
  -19.8529  -19.4493   22.8831 C   0  0  0  0  0  0  0  0  0  0  0  0
  -24.0249  -36.1837   25.3802 C   0  0  0  0  0  0  0  0  0  0  0  0
  -19.5457  -21.4406   18.8285 C   0  0  0  0  0  0  0  0  0  0  0  0
  -26.8483  -30.1924   25.3217 C   0  0  0  0  0  0  0  0  0  0  0  0
  -25.8406  -32.0763   26.6270 C   0  0  0  0  0  0  0  0  0  0  0  0
  -27.8914  -32.4645   25.2608 C   0  0  0  0  0  0  0  0  0  0  0  0
  -22.8368  -35.5466   21.8223 C   0  0  0  0  0  0  0  0  0  0  0  0
  -17.6953  -24.7374   23.3729 C   0  0  0  0  0  0  0  0  0  0  0  0
  -17.7350  -19.9566   19.7984 C   0  0  0  0  0  0  0  0  0  0  0  0
  -18.6933  -25.9000   23.4126 C   0  0  0  0  0  0  0  0  0  0  0  0
  -18.9440  -26.5212   22.0378 C   0  0  0  0  0  0  0  0  0  0  0  0
  -19.9690  -27.6449   22.1105 C   0  0  0  0  0  0  0  0  0  1  0  0
  -20.1307  -20.5122   21.8024 C   0  0  2  0  0  0  0  0  0  0  0  0
  -25.6708  -32.1367   24.0974 C   0  0  1  0  0  0  0  0  0  0  0  0
  -24.0828  -35.5770   23.9869 C   0  0  2  0  0  0  0  0  0  0  0  0
  -18.2506  -21.4014   19.6467 C   0  0  1  0  0  0  0  0  0  0  0  0
  -26.5479  -31.7045   25.3063 C   0  0  0  0  0  0  0  0  0  0  0  0
  -27.4158  -18.9860   19.5566 N   0  0  0  0  0  0  0  0  0  0  0  0
  -18.4115  -22.0864   20.9121 N   0  0  0  0  0  0  0  0  0  0  0  0
  -26.7634  -19.9538   18.8904 N   0  0  0  0  0  0  0  0  0  0  0  0
  -25.5637  -30.9130   21.9492 N   0  0  0  0  0  0  0  0  0  0  0  0
  -23.8112  -20.5406   21.2419 N   0  0  0  0  0  0  0  0  0  0  0  0
  -26.6757  -21.0868   16.8121 N   0  0  0  0  0  0  0  0  0  0  0  0
  -30.0357  -18.1234   16.2423 N   0  0  0  0  0  0  0  0  0  0  0  0
  -27.4567  -28.4028   20.1021 N   0  0  0  0  0  0  0  0  0  0  0  0
  -25.3929  -33.5679   24.0422 N   0  0  0  0  0  0  0  0  0  0  0  0
  -21.5364  -20.8511   21.8131 N   0  0  0  0  0  0  0  0  0  0  0  0
  -22.8955  -36.0485   23.2193 N   0  3  0  0  0  0  0  0  0  0  0  0
  -28.8468  -19.8064   15.2360 O   0  0  0  0  0  0  0  0  0  0  0  0
  -26.5713  -28.5826   22.2484 O   0  0  0  0  0  0  0  0  0  0  0  0
  -27.3988  -32.2511   22.4765 O   0  0  0  0  0  0  0  0  0  0  0  0
  -23.0822  -33.3804   24.0928 O   0  0  0  0  0  0  0  0  0  0  0  0
  -22.1703  -19.0733   20.5121 O   0  0  0  0  0  0  0  0  0  0  0  0
  -31.8619  -14.4501   20.0116 O   0  0  0  0  0  0  0  0  0  0  0  0
  -20.1474  -28.1915   20.8045 O   0  0  0  0  0  0  0  0  0  1  0  0
  -32.6498  -10.4422   16.3076 F   0  0  0  0  0  0  0  0  0  0  0  0
  -31.2745  -11.8187   20.6226 F   0  0  0  0  0  0  0  0  0  0  0  0
  1  2  1  0  0  0  0
  1  5  2  0  0  0  0
  2  6  2  0  0  0  0
  3  8  2  0  0  0  0
  3 16  1  0  0  0  0
  4  9  1  0  0  0  0
  4 16  2  0  0  0  0
  5 18  1  0  0  0  0
  6 20  1  0  0  0  0
  7 10  2  0  0  0  0
  7 19  1  0  0  0  0
  8 23  1  0  0  0  0
  9 23  2  0  0  0  0
 10 24  1  0  0  0  0
 11 12  2  0  0  0  0
 11 25  1  0  0  0  0
 12 26  1  0  0  0  0
 13 21  1  0  0  0  0
 13 24  2  0  0  0  0
 14 22  1  0  0  0  0
 14 29  2  0  0  0  0
 15 26  2  0  0  0  0
 15 27  1  0  0  0  0
 16 28  1  0  0  0  0
 17 28  1  0  0  0  0
 17 31  2  0  0  0  0
 17 32  1  0  0  0  0
 18 20  2  0  0  0  0
 18 37  1  0  0  0  0
 19 21  2  0  0  0  0
 19 38  1  0  0  0  0
 20 46  1  0  0  0  0
 21 39  1  0  0  0  0
 22 30  2  0  0  0  0
 22 58  1  0  0  0  0
 23 84  1  0  0  0  0
 24 85  1  0  0  0  0
 25 27  2  0  0  0  0
 25 84  1  0  0  0  0
 26 86  1  0  0  0  0
 27 87  1  0  0  0  0
 28 68  2  0  0  0  0
 29 63  1  0  0  0  0
 29 69  1  0  0  0  0
 30 49  1  0  0  0  0
 30 69  1  0  0  0  0
 31 70  1  0  0  0  0
 31 73  1  0  0  0  0
 32 74  1  0  0  0  0
 32 79  2  0  0  0  0
 33 47  1  0  0  0  0
 33 75  1  0  0  0  0
 33 80  2  0  0  0  0
 34 64  1  0  0  0  0
 34 71  1  0  0  0  0
 34 81  2  0  0  0  0
 35 65  1  0  0  0  0
 35 76  1  0  0  0  0
 35 82  2  0  0  0  0
 36 72  1  0  0  0  0
 36 77  1  0  0  0  0
 36 83  2  0  0  0  0
 37 40  1  0  0  0  0
 38 47  1  0  0  0  0
 39 71  1  0  0  0  0
 40 42  1  0  0  0  0
 41 43  1  0  0  0  0
 41 44  1  0  0  0  0
 42 46  1  0  0  0  0
 43 48  1  0  0  0  0
 44 72  1  0  0  0  0
 45 48  1  0  0  0  0
 45 72  1  0  0  0  0
 46 75  1  0  0  0  0
 47 71  1  0  0  0  0
 48 70  1  0  0  0  0
 50 59  1  0  0  0  0
 51 63  1  0  0  0  0
 52 65  1  0  0  0  0
 53 66  1  0  0  0  0
 54 67  1  0  0  0  0
 55 67  1  0  0  0  0
 56 67  1  0  0  0  0
 57 78  1  0  0  0  0
 58 60  1  0  0  0  0
 59 66  1  0  0  0  0
 60 61  1  0  0  0  0
 61 62  1  0  0  0  0
 62 85  1  0  0  0  0
 63 77  1  0  0  0  0
 64 67  1  0  0  0  0
 64 76  1  0  0  0  0
 65 78  1  0  0  0  0
 66 69  1  0  0  0  0
 68 70  1  0  0  0  0
M  CHG  1  78   1
M  ISO  4  36 100  62 101  77 100  85 101
M  END
> <Batch ID>
0092

> <Smiles>
CCC(C)n1c(C(C)[100NH:0][100C:0](=O)N2CCCC(n3nc(-c4ccc(Oc5ccc(F)cc5F)cc4)c(C(N)=O)c3N)C2)cc(CCC[101CH2:1][101O:1]c2ccc3c(c2)CN(C(=O)C(NC(=O)C(C)NC)C(C)(C)C)C(C(=O)NC2CCCc4ccccc42)C3)c1C

> <Shape>
0.242

> <Color>
0.075

> <Negative vol penalty>
0.000

$$$$

  -OEChem-04052319143D

 87 95  0     1  0  0  0  0  0999 V2000
  -28.9106  -13.4445   18.6094 C   0  0  0  0  0  0  0  0  0  0  0  0
  -28.2087  -14.5491   18.1375 C   0  0  0  0  0  0  0  0  0  0  0  0
  -29.6426  -28.1191   20.9382 C   0  0  0  0  0  0  0  0  0  0  0  0
  -28.0433  -27.3072   19.3195 C   0  0  0  0  0  0  0  0  0  0  0  0
  -28.3114  -12.5770   19.5217 C   0  0  0  0  0  0  0  0  0  0  0  0
  -26.9068  -14.7863   18.5770 C   0  0  0  0  0  0  0  0  0  0  0  0
  -24.2758  -20.2349   19.5236 C   0  0  0  0  0  0  0  0  0  0  0  0
  -30.4894  -27.0526   20.6366 C   0  0  0  0  0  0  0  0  0  0  0  0
  -28.8902  -26.2407   19.0178 C   0  0  0  0  0  0  0  0  0  0  0  0
  -23.4183  -21.0105   18.7445 C   0  0  0  0  0  0  0  0  0  0  0  0
  -29.7132  -23.2534   20.3703 C   0  0  0  0  0  0  0  0  0  0  0  0
  -29.1449  -21.9838   20.2669 C   0  0  0  0  0  0  0  0  0  0  0  0
  -21.5255  -20.0947   19.9268 C   0  0  0  0  0  0  0  0  0  0  0  0
  -20.0447  -25.9121   20.3802 C   0  0  0  0  0  0  0  0  0  0  0  0
  -29.9001  -21.8322   17.9770 C   0  0  0  0  0  0  0  0  0  0  0  0
  -28.4195  -28.2464   20.2797 C   0  0  0  0  0  0  0  0  0  0  0  0
  -27.5207  -30.6148   19.9785 C   0  0  0  0  0  0  0  0  0  0  0  0
  -27.0049  -12.8090   19.9799 C   0  0  0  0  0  0  0  0  0  0  0  0
  -23.7630  -19.3738   20.5044 C   0  0  0  0  0  0  0  0  0  0  0  0
  -26.2890  -13.9203   19.4953 C   0  0  0  0  0  0  0  0  0  0  0  0
  -22.3787  -19.3112   20.7187 C   0  0  0  0  0  0  0  0  0  0  0  0
  -20.2875  -26.2310   21.7116 C   0  0  0  0  0  0  0  0  0  0  0  0
  -21.2815  -25.5566   22.4121 C   0  0  0  0  0  0  0  0  0  0  0  0
  -30.1132  -26.1134   19.6763 C   0  0  0  0  0  0  0  0  0  0  0  0
  -22.0428  -20.9383   18.9440 C   0  0  0  0  0  0  0  0  0  0  0  0
  -30.3750  -23.8124   19.2770 C   0  0  0  0  0  0  0  0  0  0  0  0
  -29.2383  -21.2732   19.0703 C   0  0  0  0  0  0  0  0  0  0  0  0
  -30.4684  -23.1018   18.0804 C   0  0  0  0  0  0  0  0  0  0  0  0
  -27.5441  -29.3476   20.5913 C   0  0  0  0  0  0  0  0  0  0  0  0
  -20.8172  -24.9190   19.7999 C   0  0  0  0  0  0  0  0  0  0  0  0
  -21.9985  -24.5793   21.7409 C   0  0  0  0  0  0  0  0  0  0  0  0
  -26.5179  -31.2920   20.6283 C   0  0  0  0  0  0  0  0  0  0  0  0
  -28.3328  -31.1333   18.9168 C   0  0  0  0  0  0  0  0  0  0  0  0
  -23.8197  -16.2318   20.9826 C   0  0  0  0  0  0  0  0  0  0  0  0
  -22.3923  -17.0254   23.7853 C   0  0  0  0  0  0  0  0  0  0  0  0
  -20.5222  -19.2687   25.5508 C   0  0  0  0  0  0  0  0  0  0  0  0
  -21.6374  -29.4906   23.5924 C   0  0  0  0  0  0  0  0  0  0  0  0
  -26.3821  -11.8172   20.9302 C   0  0  0  0  0  0  0  0  0  0  0  0
  -24.7029  -18.5637   21.3546 C   0  0  0  0  0  0  0  0  0  0  0  0
  -21.7791  -18.4177   21.7726 C   0  0  0  0  0  0  0  0  0  0  0  0
  -25.1344  -12.3471   21.6322 C   0  0  0  0  0  0  0  0  0  0  0  0
  -24.2789  -31.5195   24.8504 C   0  0  0  0  0  0  0  0  0  0  0  0
  -24.2032  -13.0209   20.6293 C   0  0  0  0  0  0  0  0  0  0  0  0
  -25.4131  -31.3073   23.8462 C   0  0  0  0  0  0  0  0  0  0  0  0
  -23.4760  -30.2398   25.0737 C   0  0  0  0  0  0  0  0  0  0  0  0
  -24.0914  -29.3995   22.8401 C   0  0  0  0  0  0  0  0  0  0  0  0
  -24.8839  -14.2250   19.9672 C   0  0  1  0  0  0  0  0  0  0  0  0
  -24.0406  -17.3377   21.9756 C   0  0  1  0  0  0  0  0  0  0  0  0
  -24.8947  -30.6765   22.5398 C   0  0  2  0  0  0  0  0  0  0  0  0
  -26.7607  -24.6576   23.3652 C   0  0  0  0  0  0  0  0  0  0  0  0
  -19.4840  -19.6238   27.8077 C   0  0  0  0  0  0  0  0  0  0  0  0
  -20.1872  -15.0376   23.0808 C   0  0  0  0  0  0  0  0  0  0  0  0
  -18.7574  -16.1086   24.8349 C   0  0  0  0  0  0  0  0  0  0  0  0
  -20.8979  -15.0009   25.4783 C   0  0  0  0  0  0  0  0  0  0  0  0
  -22.1178  -21.7151   26.0286 C   0  0  0  0  0  0  0  0  0  0  0  0
  -19.4676  -27.2972   22.3613 C   0  0  0  0  0  0  0  0  0  0  0  0
  -20.5820  -24.5467   18.3578 C   0  0  0  0  0  0  0  0  0  0  0  0
  -23.0785  -23.8179   22.4391 C   0  0  0  0  0  0  0  0  0  0  0  0
  -25.4780  -23.8479   23.2623 C   0  0  0  0  0  0  0  0  0  0  0  0
  -19.5503  -23.4324   18.1697 C   0  0  0  0  0  0  0  0  0  0  0  0
  -24.3650  -24.6452   22.5824 C   0  0  0  0  0  0  0  0  0  0  0  0
  -19.9064  -28.7179   21.9905 C   0  0  0  0  0  0  0  0  0  0  0  0
  -19.9764  -22.1048   18.7857 C   0  0  0  0  0  0  0  0  0  1  0  0
  -20.9658  -17.2068   24.2447 C   0  0  1  0  0  0  0  0  0  0  0  0
  -20.7058  -19.8648   26.9348 C   0  0  2  0  0  0  0  0  0  0  0  0
  -20.2130  -15.8540   24.3884 C   0  0  0  0  0  0  0  0  0  0  0  0
  -26.6289  -29.2246   21.5564 N   0  0  0  0  0  0  0  0  0  0  0  0
  -21.7913  -24.2420   20.4482 N   0  0  0  0  0  0  0  0  0  0  0  0
  -26.0212  -30.4233   21.5550 N   0  0  0  0  0  0  0  0  0  0  0  0
  -22.7389  -17.6406   22.5739 N   0  0  0  0  0  0  0  0  0  0  0  0
  -23.0123  -29.6935   23.7961 N   0  0  0  0  0  0  0  0  0  0  0  0
  -21.5486  -25.8598   23.7610 N   0  0  0  0  0  0  0  0  0  0  0  0
  -26.0215  -32.5399   20.4918 N   0  0  0  0  0  0  0  0  0  0  0  0
  -29.3168  -30.3036   18.3619 N   0  0  0  0  0  0  0  0  0  0  0  0
  -24.8858  -15.3607   20.8642 N   0  0  0  0  0  0  0  0  0  0  0  0
  -21.0294  -17.9888   25.4747 N   0  0  0  0  0  0  0  0  0  0  0  0
  -21.2826  -28.9755   22.3516 N   0  0  0  0  0  0  0  0  0  0  0  0
  -20.9329  -21.3347   26.8398 N   0  3  0  0  0  0  0  0  0  0  0  0
  -28.2012  -32.3034   18.4843 O   0  0  0  0  0  0  0  0  0  0  0  0
  -22.7599  -16.1724   20.3703 O   0  0  0  0  0  0  0  0  0  0  0  0
  -23.1723  -16.3684   24.4792 O   0  0  0  0  0  0  0  0  0  0  0  0
  -19.9797  -19.8763   24.6305 O   0  0  0  0  0  0  0  0  0  0  0  0
  -20.7883  -29.7543   24.4506 O   0  0  0  0  0  0  0  0  0  0  0  0
  -30.9394  -25.0727   19.3815 O   0  0  0  0  0  0  0  0  0  0  0  0
  -21.2036  -21.6938   18.1845 O   0  0  0  0  0  0  0  0  0  1  0  0
  -28.6938  -20.0534   18.9716 F   0  0  0  0  0  0  0  0  0  0  0  0
  -31.1039  -23.6332   17.0270 F   0  0  0  0  0  0  0  0  0  0  0  0
  1  2  1  0  0  0  0
  1  5  2  0  0  0  0
  2  6  2  0  0  0  0
  3  8  2  0  0  0  0
  3 16  1  0  0  0  0
  4  9  1  0  0  0  0
  4 16  2  0  0  0  0
  5 18  1  0  0  0  0
  6 20  1  0  0  0  0
  7 10  2  0  0  0  0
  7 19  1  0  0  0  0
  8 24  1  0  0  0  0
  9 24  2  0  0  0  0
 10 25  1  0  0  0  0
 11 12  2  0  0  0  0
 11 26  1  0  0  0  0
 12 27  1  0  0  0  0
 13 21  1  0  0  0  0
 13 25  2  0  0  0  0
 14 22  2  0  0  0  0
 14 30  1  0  0  0  0
 15 27  2  0  0  0  0
 15 28  1  0  0  0  0
 16 29  1  0  0  0  0
 17 29  1  0  0  0  0
 17 32  2  0  0  0  0
 17 33  1  0  0  0  0
 18 20  2  0  0  0  0
 18 38  1  0  0  0  0
 19 21  2  0  0  0  0
 19 39  1  0  0  0  0
 20 47  1  0  0  0  0
 21 40  1  0  0  0  0
 22 23  1  0  0  0  0
 22 56  1  0  0  0  0
 23 31  2  0  0  0  0
 23 72  1  0  0  0  0
 24 84  1  0  0  0  0
 25 85  1  0  0  0  0
 26 28  2  0  0  0  0
 26 84  1  0  0  0  0
 27 86  1  0  0  0  0
 28 87  1  0  0  0  0
 29 67  2  0  0  0  0
 30 57  1  0  0  0  0
 30 68  2  0  0  0  0
 31 58  1  0  0  0  0
 31 68  1  0  0  0  0
 32 69  1  0  0  0  0
 32 73  1  0  0  0  0
 33 74  1  0  0  0  0
 33 79  2  0  0  0  0
 34 48  1  0  0  0  0
 34 75  1  0  0  0  0
 34 80  2  0  0  0  0
 35 64  1  0  0  0  0
 35 70  1  0  0  0  0
 35 81  2  0  0  0  0
 36 65  1  0  0  0  0
 36 76  1  0  0  0  0
 36 82  2  0  0  0  0
 37 71  1  0  0  0  0
 37 77  1  0  0  0  0
 37 83  2  0  0  0  0
 38 41  1  0  0  0  0
 39 48  1  0  0  0  0
 40 70  1  0  0  0  0
 41 43  1  0  0  0  0
 42 44  1  0  0  0  0
 42 45  1  0  0  0  0
 43 47  1  0  0  0  0
 44 49  1  0  0  0  0
 45 71  1  0  0  0  0
 46 49  1  0  0  0  0
 46 71  1  0  0  0  0
 47 75  1  0  0  0  0
 48 70  1  0  0  0  0
 49 69  1  0  0  0  0
 50 59  1  0  0  0  0
 51 65  1  0  0  0  0
 52 66  1  0  0  0  0
 53 66  1  0  0  0  0
 54 66  1  0  0  0  0
 55 78  1  0  0  0  0
 56 62  1  0  0  0  0
 57 60  1  0  0  0  0
 58 61  1  0  0  0  0
 59 61  1  0  0  0  0
 60 63  1  0  0  0  0
 62 77  1  0  0  0  0
 63 85  1  0  0  0  0
 64 66  1  0  0  0  0
 64 76  1  0  0  0  0
 65 78  1  0  0  0  0
 67 69  1  0  0  0  0
M  CHG  1  78   1
M  ISO  4  37 100  63 101  77 100  85 101
M  END
> <Batch ID>
0092

> <Smiles>
CCCCc1nc(CC[101CH2:1][101O:1]c2ccc3c(c2)CN(C(=O)C(NC(=O)C(C)NC)C(C)(C)C)C(C(=O)NC2CCCc4ccccc42)C3)cc(CC[100NH:0][100C:0](=O)N2CCCC(n3nc(-c4ccc(Oc5ccc(F)cc5F)cc4)c(C(N)=O)c3N)C2)c1N

> <Shape>
0.225

> <Color>
0.058

> <Negative vol penalty>
0.000

$$$$

  -OEChem-04052319143D

 86 94  0     1  0  0  0  0  0999 V2000
  -21.3140  -30.1774   25.0565 C   0  0  0  0  0  0  0  0  0  0  0  0
  -21.7672  -28.9108   25.4110 C   0  0  0  0  0  0  0  0  0  0  0  0
  -28.5251  -26.1357   18.0692 C   0  0  0  0  0  0  0  0  0  0  0  0
  -27.1735  -25.3464   19.9097 C   0  0  0  0  0  0  0  0  0  0  0  0
  -20.1834  -30.3120   24.2518 C   0  0  0  0  0  0  0  0  0  0  0  0
  -21.0893  -27.7780   24.9619 C   0  0  0  0  0  0  0  0  0  0  0  0
  -23.7312  -21.6515   20.8981 C   0  0  0  0  0  0  0  0  0  0  0  0
  -27.4441  -14.4593   22.8239 C   0  0  0  0  0  0  0  0  0  0  0  0
  -27.6487  -27.2050   17.8842 C   0  0  0  0  0  0  0  0  0  0  0  0
  -26.2972  -26.4157   19.7247 C   0  0  0  0  0  0  0  0  0  0  0  0
  -24.0452  -20.5925   20.0460 C   0  0  0  0  0  0  0  0  0  0  0  0
  -23.9008  -29.1390   19.9685 C   0  0  0  0  0  0  0  0  0  0  0  0
  -23.4756  -29.8333   21.1010 C   0  0  0  0  0  0  0  0  0  0  0  0
  -28.5835  -14.0880   22.1188 C   0  0  0  0  0  0  0  0  0  0  0  0
  -21.7398  -20.4749   19.3253 C   0  0  0  0  0  0  0  0  0  0  0  0
  -25.7670  -30.4050   21.6108 C   0  0  0  0  0  0  0  0  0  0  0  0
  -28.2874  -25.2063   19.0819 C   0  0  0  0  0  0  0  0  0  0  0  0
  -30.3328  -24.0692   20.0974 C   0  0  0  0  0  0  0  0  0  0  0  0
  -19.4970  -29.1801   23.7846 C   0  0  0  0  0  0  0  0  0  0  0  0
  -22.4218  -22.1369   20.9557 C   0  0  0  0  0  0  0  0  0  0  0  0
  -19.9477  -27.8976   24.1513 C   0  0  0  0  0  0  0  0  0  0  0  0
  -21.4219  -21.5436   20.1677 C   0  0  0  0  0  0  0  0  0  0  0  0
  -26.3424  -14.9606   22.1396 C   0  0  0  0  0  0  0  0  0  0  0  0
  -26.5348  -27.3450   18.7120 C   0  0  0  0  0  0  0  0  0  0  0  0
  -23.0519  -20.0056   19.2617 C   0  0  0  0  0  0  0  0  0  0  0  0
  -25.2591  -29.0775   19.6571 C   0  0  0  0  0  0  0  0  0  0  0  0
  -24.4087  -30.4664   21.9221 C   0  0  0  0  0  0  0  0  0  0  0  0
  -26.1922  -29.7106   20.4782 C   0  0  0  0  0  0  0  0  0  0  0  0
  -29.1920  -24.1012   19.2731 C   0  0  0  0  0  0  0  0  0  0  0  0
  -28.5709  -14.2363   20.7413 C   0  0  0  0  0  0  0  0  0  0  0  0
  -26.4302  -15.0701   20.7611 C   0  0  0  0  0  0  0  0  0  0  0  0
  -30.8419  -22.8046   19.9300 C   0  0  0  0  0  0  0  0  0  0  0  0
  -30.8830  -25.0912   20.9391 C   0  0  0  0  0  0  0  0  0  0  0  0
  -20.0374  -24.6219   22.4442 C   0  0  0  0  0  0  0  0  0  0  0  0
  -19.3313  -24.3814   19.4686 C   0  0  0  0  0  0  0  0  0  0  0  0
  -19.5800  -24.4768   16.3330 C   0  0  0  0  0  0  0  0  0  0  0  0
  -30.1293  -17.3846   19.6792 C   0  0  0  0  0  0  0  0  0  0  0  0
  -18.2522  -29.3767   22.9561 C   0  0  0  0  0  0  0  0  0  0  0  0
  -22.0256  -23.2353   21.9046 C   0  0  0  0  0  0  0  0  0  0  0  0
  -20.0201  -22.0760   20.2880 C   0  0  0  0  0  0  0  0  0  0  0  0
  -17.8100  -28.1186   22.2132 C   0  0  0  0  0  0  0  0  0  0  0  0
  -29.6715  -19.1982   16.5811 C   0  0  0  0  0  0  0  0  0  0  0  0
  -17.8355  -26.9115   23.1454 C   0  0  0  0  0  0  0  0  0  0  0  0
  -29.6003  -20.6421   17.0815 C   0  0  0  0  0  0  0  0  0  0  0  0
  -28.9804  -18.2429   17.5494 C   0  0  0  0  0  0  0  0  0  0  0  0
  -29.4212  -19.7486   19.4499 C   0  0  0  0  0  0  0  0  0  0  0  0
  -19.2539  -26.6444   23.6634 C   0  0  1  0  0  0  0  0  0  0  0  0
  -20.9364  -24.1616   21.3346 C   0  0  1  0  0  0  0  0  0  0  0  0
  -30.1221  -20.7609   18.5257 C   0  0  2  0  0  0  0  0  0  0  0  0
  -25.0020  -16.8703   23.0576 C   0  0  0  0  0  0  0  0  0  0  0  0
  -18.6943  -24.8207   14.0104 C   0  0  0  0  0  0  0  0  0  0  0  0
  -25.0518  -14.3745   17.9925 C   0  0  0  0  0  0  0  0  0  0  0  0
  -17.0091  -22.5401   20.1905 C   0  0  0  0  0  0  0  0  0  0  0  0
  -16.2315  -22.7072   17.8166 C   0  0  0  0  0  0  0  0  0  0  0  0
  -16.3308  -24.7523   19.2414 C   0  0  0  0  0  0  0  0  0  0  0  0
  -21.5403  -26.6235   15.7785 C   0  0  0  0  0  0  0  0  0  0  0  0
  -25.1222  -15.3567   22.8996 C   0  0  0  0  0  0  0  0  0  0  0  0
  -29.7766  -13.8485   19.9523 C   0  0  0  0  0  0  0  0  0  0  0  0
  -24.2040  -16.7323   18.2523 C   0  0  0  0  0  0  0  0  0  0  0  0
  -30.7805  -14.9918   19.7641 C   0  0  0  0  0  0  0  0  0  0  0  0
  -24.4424  -18.1259   18.8250 C   0  0  0  0  0  0  0  0  0  1  0  0
  -18.4820  -23.7079   18.4205 C   0  0  1  0  0  0  0  0  0  0  0  0
  -19.4093  -25.4611   15.1900 C   0  0  2  0  0  0  0  0  0  0  0  0
  -25.3003  -15.7342   18.6379 C   0  0  1  0  0  0  0  0  0  0  0  0
  -17.0396  -23.4177   18.9233 C   0  0  0  0  0  0  0  0  0  0  0  0
  -28.9882  -22.9486   18.6298 N   0  0  0  0  0  0  0  0  0  0  0  0
  -27.5198  -14.7196   20.0417 N   0  0  0  0  0  0  0  0  0  0  0  0
  -30.0079  -22.1804   19.0497 N   0  0  0  0  0  0  0  0  0  0  0  0
  -20.0437  -23.5463   20.3379 N   0  0  0  0  0  0  0  0  0  0  0  0
  -29.5358  -18.3930   18.9018 N   0  0  0  0  0  0  0  0  0  0  0  0
  -31.9173  -22.1768   20.4514 N   0  0  0  0  0  0  0  0  0  0  0  0
  -30.2343  -26.3324   20.9941 N   0  0  0  0  0  0  0  0  0  0  0  0
  -25.3371  -15.5697   20.0761 N   0  0  0  0  0  0  0  0  0  0  0  0
  -20.0482  -25.9887   22.6467 N   0  0  0  0  0  0  0  0  0  0  0  0
  -18.5424  -24.5593   17.2373 N   0  0  0  0  0  0  0  0  0  0  0  0
  -30.1926  -16.1279   19.0899 N   0  0  0  0  0  0  0  0  0  0  0  0
  -20.7380  -25.9502   14.7249 N   0  3  0  0  0  0  0  0  0  0  0  0
  -31.9283  -24.9146   21.6096 O   0  0  0  0  0  0  0  0  0  0  0  0
  -19.3804  -23.7985   23.0704 O   0  0  0  0  0  0  0  0  0  0  0  0
  -19.3597  -25.6141   19.5211 O   0  0  0  0  0  0  0  0  0  0  0  0
  -20.5361  -23.7088   16.4136 O   0  0  0  0  0  0  0  0  0  0  0  0
  -30.5751  -17.5902   20.8133 O   0  0  0  0  0  0  0  0  0  0  0  0
  -25.6796  -28.3885   18.5319 O   0  0  0  0  0  0  0  0  0  0  0  0
  -23.3662  -18.9750   18.4287 O   0  0  0  0  0  0  0  0  0  1  0  0
  -24.0001  -31.1344   23.0088 F   0  0  0  0  0  0  0  0  0  0  0  0
  -27.4983  -29.6561   20.1836 F   0  0  0  0  0  0  0  0  0  0  0  0
  1  2  1  0  0  0  0
  1  5  2  0  0  0  0
  2  6  2  0  0  0  0
  3  9  2  0  0  0  0
  3 17  1  0  0  0  0
  4 10  1  0  0  0  0
  4 17  2  0  0  0  0
  5 19  1  0  0  0  0
  6 21  1  0  0  0  0
  7 11  2  0  0  0  0
  7 20  1  0  0  0  0
  8 14  2  0  0  0  0
  8 23  1  0  0  0  0
  9 24  1  0  0  0  0
 10 24  2  0  0  0  0
 11 25  1  0  0  0  0
 12 13  2  0  0  0  0
 12 26  1  0  0  0  0
 13 27  1  0  0  0  0
 14 30  1  0  0  0  0
 15 22  1  0  0  0  0
 15 25  2  0  0  0  0
 16 27  2  0  0  0  0
 16 28  1  0  0  0  0
 17 29  1  0  0  0  0
 18 29  1  0  0  0  0
 18 32  2  0  0  0  0
 18 33  1  0  0  0  0
 19 21  2  0  0  0  0
 19 38  1  0  0  0  0
 20 22  2  0  0  0  0
 20 39  1  0  0  0  0
 21 47  1  0  0  0  0
 22 40  1  0  0  0  0
 23 31  2  0  0  0  0
 23 57  1  0  0  0  0
 24 83  1  0  0  0  0
 25 84  1  0  0  0  0
 26 28  2  0  0  0  0
 26 83  1  0  0  0  0
 27 85  1  0  0  0  0
 28 86  1  0  0  0  0
 29 66  2  0  0  0  0
 30 58  1  0  0  0  0
 30 67  2  0  0  0  0
 31 67  1  0  0  0  0
 31 73  1  0  0  0  0
 32 68  1  0  0  0  0
 32 71  1  0  0  0  0
 33 72  1  0  0  0  0
 33 78  2  0  0  0  0
 34 48  1  0  0  0  0
 34 74  1  0  0  0  0
 34 79  2  0  0  0  0
 35 62  1  0  0  0  0
 35 69  1  0  0  0  0
 35 80  2  0  0  0  0
 36 63  1  0  0  0  0
 36 75  1  0  0  0  0
 36 81  2  0  0  0  0
 37 70  1  0  0  0  0
 37 76  1  0  0  0  0
 37 82  2  0  0  0  0
 38 41  1  0  0  0  0
 39 48  1  0  0  0  0
 40 69  1  0  0  0  0
 41 43  1  0  0  0  0
 42 44  1  0  0  0  0
 42 45  1  0  0  0  0
 43 47  1  0  0  0  0
 44 49  1  0  0  0  0
 45 70  1  0  0  0  0
 46 49  1  0  0  0  0
 46 70  1  0  0  0  0
 47 74  1  0  0  0  0
 48 69  1  0  0  0  0
 49 68  1  0  0  0  0
 50 57  1  0  0  0  0
 51 63  1  0  0  0  0
 52 64  1  0  0  0  0
 53 65  1  0  0  0  0
 54 65  1  0  0  0  0
 55 65  1  0  0  0  0
 56 77  1  0  0  0  0
 58 60  1  0  0  0  0
 59 61  1  0  0  0  0
 59 64  1  0  0  0  0
 60 76  1  0  0  0  0
 61 84  1  0  0  0  0
 62 65  1  0  0  0  0
 62 75  1  0  0  0  0
 63 77  1  0  0  0  0
 64 73  1  0  0  0  0
 66 68  1  0  0  0  0
M  CHG  1  77   1
M  ISO  4  37 100  61 101  76 100  84 101
M  END
> <Batch ID>
0092

> <Smiles>
CCc1ccc(CC[100NH:0][100C:0](=O)N2CCCC(n3nc(-c4ccc(Oc5ccc(F)cc5F)cc4)c(C(N)=O)c3N)C2)nc1NC(C)C[101CH2:1][101O:1]c1ccc2c(c1)CN(C(=O)C(NC(=O)C(C)NC)C(C)(C)C)C(C(=O)NC1CCCc3ccccc31)C2

> <Shape>
0.214

> <Color>
0.064

> <Negative vol penalty>
0.000

$$$$

  -OEChem-04052319143D

 83 91  0     1  0  0  0  0  0999 V2000
  -24.2092   -8.5612   21.5186 C   0  0  0  0  0  0  0  0  0  0  0  0
  -25.3007   -9.2854   21.0500 C   0  0  0  0  0  0  0  0  0  0  0  0
  -27.0641  -29.2214   20.5731 C   0  0  0  0  0  0  0  0  0  0  0  0
  -25.4165  -27.5356   21.1026 C   0  0  0  0  0  0  0  0  0  0  0  0
  -22.9772   -9.1913   21.6888 C   0  0  0  0  0  0  0  0  0  0  0  0
  -25.1605  -10.6400   20.7503 C   0  0  0  0  0  0  0  0  0  0  0  0
  -28.9847  -13.4327   22.5450 C   0  0  0  0  0  0  0  0  0  0  0  0
  -26.0649  -30.1946   20.5621 C   0  0  0  0  0  0  0  0  0  0  0  0
  -24.4172  -28.5088   21.0917 C   0  0  0  0  0  0  0  0  0  0  0  0
  -30.1822  -13.4062   21.8314 C   0  0  0  0  0  0  0  0  0  0  0  0
  -24.3056  -31.9839   22.8283 C   0  0  0  0  0  0  0  0  0  0  0  0
  -24.5648  -33.1865   23.4857 C   0  0  0  0  0  0  0  0  0  0  0  0
  -29.6114  -15.5142   20.8070 C   0  0  0  0  0  0  0  0  0  0  0  0
  -33.1850  -19.3825   15.9893 C   0  0  0  0  0  0  0  0  0  0  0  0
  -24.2610  -34.3862   21.4107 C   0  0  0  0  0  0  0  0  0  0  0  0
  -26.7399  -27.8919   20.8433 C   0  0  0  0  0  0  0  0  0  0  0  0
  -28.5461  -26.4746   21.9553 C   0  0  0  0  0  0  0  0  0  0  0  0
  -22.8243  -10.5566   21.4002 C   0  0  0  0  0  0  0  0  0  0  0  0
  -28.0851  -14.4966   22.3865 C   0  0  0  0  0  0  0  0  0  0  0  0
  -23.9250  -11.2886   20.9155 C   0  0  0  0  0  0  0  0  0  0  0  0
  -28.4044  -15.5532   21.5216 C   0  0  0  0  0  0  0  0  0  0  0  0
  -33.9824  -18.5435   15.1725 C   0  0  0  0  0  0  0  0  0  0  0  0
  -24.7415  -29.8383   20.8214 C   0  0  0  0  0  0  0  0  0  0  0  0
  -30.4943  -14.4456   20.9601 C   0  0  0  0  0  0  0  0  0  0  0  0
  -24.0242  -31.9824   21.4621 C   0  0  0  0  0  0  0  0  0  0  0  0
  -24.5425  -34.3877   22.7769 C   0  0  0  0  0  0  0  0  0  0  0  0
  -24.0019  -33.1836   20.7533 C   0  0  0  0  0  0  0  0  0  0  0  0
  -27.7715  -26.8860   20.8541 C   0  0  0  0  0  0  0  0  0  0  0  0
  -32.3249  -18.5713   16.6961 C   0  0  0  0  0  0  0  0  0  0  0  0
  -33.5852  -17.2452   15.4048 C   0  0  0  0  0  0  0  0  0  0  0  0
  -29.3751  -25.5039   21.4485 C   0  0  0  0  0  0  0  0  0  0  0  0
  -28.5185  -26.9292   23.3148 C   0  0  0  0  0  0  0  0  0  0  0  0
  -25.0903  -14.7673   21.3562 C   0  0  0  0  0  0  0  0  0  0  0  0
  -25.4475  -17.8428   22.3234 C   0  0  0  0  0  0  0  0  0  0  0  0
  -27.5546  -20.4394   23.0050 C   0  0  0  0  0  0  0  0  0  0  0  0
  -30.1357  -20.9853   18.4567 C   0  0  0  0  0  0  0  0  0  0  0  0
  -21.4611  -11.1830   21.5551 C   0  0  0  0  0  0  0  0  0  0  0  0
  -26.8099  -14.5236   23.1836 C   0  0  0  0  0  0  0  0  0  0  0  0
  -27.4819  -16.7284   21.3311 C   0  0  0  0  0  0  0  0  0  0  0  0
  -21.4903  -12.7092   21.5707 C   0  0  0  0  0  0  0  0  0  0  0  0
  -30.3001  -24.1278   16.6691 C   0  0  0  0  0  0  0  0  0  0  0  0
  -22.3688  -13.2378   20.4414 C   0  0  0  0  0  0  0  0  0  0  0  0
  -29.7160  -25.0951   17.7003 C   0  0  0  0  0  0  0  0  0  0  0  0
  -29.5836  -22.7811   16.7066 C   0  0  0  0  0  0  0  0  0  0  0  0
  -28.9875  -23.0921   19.0776 C   0  0  0  0  0  0  0  0  0  0  0  0
  -23.8188  -12.7655   20.6031 C   0  0  1  0  0  0  0  0  0  0  0  0
  -25.7320  -15.4027   22.5570 C   0  0  1  0  0  0  0  0  0  0  0  0
  -29.6843  -24.4646   19.1051 C   0  0  2  0  0  0  0  0  0  0  0  0
  -35.0428  -18.9871   14.2457 C   0  0  0  0  0  0  0  0  0  0  0  0
  -34.0795  -15.9791   14.8227 C   0  0  0  0  0  0  0  0  0  0  0  0
  -27.5506  -22.8390   23.7395 C   0  0  0  0  0  0  0  0  0  0  0  0
  -32.1919  -13.1477   18.2982 C   0  0  0  0  0  0  0  0  0  0  0  0
  -24.5531  -18.6929   19.5328 C   0  0  0  0  0  0  0  0  0  0  0  0
  -25.4652  -20.9748   20.0115 C   0  0  0  0  0  0  0  0  0  0  0  0
  -23.6012  -20.0630   21.3959 C   0  0  0  0  0  0  0  0  0  0  0  0
  -29.1217  -19.8184   25.4377 C   0  0  0  0  0  0  0  0  0  0  0  0
  -31.2869  -18.9269   17.6855 C   0  0  0  0  0  0  0  0  0  0  0  0
  -32.2877  -15.6667   18.2897 C   0  0  0  0  0  0  0  0  0  0  0  0
  -31.8551  -16.0649   16.8713 C   0  0  0  0  0  0  0  0  0  0  0  0
  -25.9296  -19.1182   21.6754 C   0  0  1  0  0  0  0  0  0  0  0  0
  -27.6345  -21.3881   24.1874 C   0  0  2  0  0  0  0  0  0  0  0  0
  -31.5678  -14.4283   18.8379 C   0  0  2  0  0  0  0  0  0  1  0  0
  -24.9040  -19.6893   20.6558 C   0  0  0  0  0  0  0  0  0  0  0  0
  -28.0810  -26.2304   19.7323 N   0  0  0  0  0  0  0  0  0  0  0  0
  -32.5769  -17.2742   16.3325 N   0  0  0  0  0  0  0  0  0  0  0  0
  -29.0592  -25.3973   20.1259 N   0  0  0  0  0  0  0  0  0  0  0  0
  -26.2442  -16.7057   22.1280 N   0  0  0  0  0  0  0  0  0  0  0  0
  -29.6053  -22.2265   18.0675 N   0  0  0  0  0  0  0  0  0  0  0  0
  -30.3362  -24.7397   22.0095 N   0  0  0  0  0  0  0  0  0  0  0  0
  -27.6053  -27.9329   23.6654 N   0  0  0  0  0  0  0  0  0  0  0  0
  -24.4951  -13.5475   21.6158 N   0  0  0  0  0  0  0  0  0  0  0  0
  -26.2599  -20.0302   22.7651 N   0  0  0  0  0  0  0  0  0  0  0  0
  -30.6962  -20.2235   17.4388 N   0  0  0  0  0  0  0  0  0  0  0  0
  -28.9180  -21.1959   24.9200 N   0  3  0  0  0  0  0  0  0  0  0  0
  -29.2925  -26.4708   24.1891 O   0  0  0  0  0  0  0  0  0  0  0  0
  -25.1308  -15.3418   20.2745 O   0  0  0  0  0  0  0  0  0  0  0  0
  -24.4063  -17.8566   22.9848 O   0  0  0  0  0  0  0  0  0  0  0  0
  -28.5415  -20.0985   22.3567 O   0  0  0  0  0  0  0  0  0  0  0  0
  -30.1162  -20.5874   19.6264 O   0  0  0  0  0  0  0  0  0  0  0  0
  -23.7663  -30.7877   20.8111 O   0  0  0  0  0  0  0  0  0  0  0  0
  -31.6621  -14.4218   20.2618 O   0  0  0  0  0  0  0  0  0  1  0  0
  -24.7899  -35.5426   23.4086 F   0  0  0  0  0  0  0  0  0  0  0  0
  -23.7309  -33.1886   19.4409 F   0  0  0  0  0  0  0  0  0  0  0  0
  1  2  1  0  0  0  0
  1  5  2  0  0  0  0
  2  6  2  0  0  0  0
  3  8  2  0  0  0  0
  3 16  1  0  0  0  0
  4  9  1  0  0  0  0
  4 16  2  0  0  0  0
  5 18  1  0  0  0  0
  6 20  1  0  0  0  0
  7 10  2  0  0  0  0
  7 19  1  0  0  0  0
  8 23  1  0  0  0  0
  9 23  2  0  0  0  0
 10 24  1  0  0  0  0
 11 12  2  0  0  0  0
 11 25  1  0  0  0  0
 12 26  1  0  0  0  0
 13 21  1  0  0  0  0
 13 24  2  0  0  0  0
 14 22  1  0  0  0  0
 14 29  2  0  0  0  0
 15 26  2  0  0  0  0
 15 27  1  0  0  0  0
 16 28  1  0  0  0  0
 17 28  1  0  0  0  0
 17 31  2  0  0  0  0
 17 32  1  0  0  0  0
 18 20  2  0  0  0  0
 18 37  1  0  0  0  0
 19 21  2  0  0  0  0
 19 38  1  0  0  0  0
 20 46  1  0  0  0  0
 21 39  1  0  0  0  0
 22 30  2  0  0  0  0
 22 49  1  0  0  0  0
 23 80  1  0  0  0  0
 24 81  1  0  0  0  0
 25 27  2  0  0  0  0
 25 80  1  0  0  0  0
 26 82  1  0  0  0  0
 27 83  1  0  0  0  0
 28 64  2  0  0  0  0
 29 57  1  0  0  0  0
 29 65  1  0  0  0  0
 30 50  1  0  0  0  0
 30 65  1  0  0  0  0
 31 66  1  0  0  0  0
 31 69  1  0  0  0  0
 32 70  1  0  0  0  0
 32 75  2  0  0  0  0
 33 47  1  0  0  0  0
 33 71  1  0  0  0  0
 33 76  2  0  0  0  0
 34 60  1  0  0  0  0
 34 67  1  0  0  0  0
 34 77  2  0  0  0  0
 35 61  1  0  0  0  0
 35 72  1  0  0  0  0
 35 78  2  0  0  0  0
 36 68  1  0  0  0  0
 36 73  1  0  0  0  0
 36 79  2  0  0  0  0
 37 40  1  0  0  0  0
 38 47  1  0  0  0  0
 39 67  1  0  0  0  0
 40 42  1  0  0  0  0
 41 43  1  0  0  0  0
 41 44  1  0  0  0  0
 42 46  1  0  0  0  0
 43 48  1  0  0  0  0
 44 68  1  0  0  0  0
 45 48  1  0  0  0  0
 45 68  1  0  0  0  0
 46 71  1  0  0  0  0
 47 67  1  0  0  0  0
 48 66  1  0  0  0  0
 51 61  1  0  0  0  0
 52 62  1  0  0  0  0
 53 63  1  0  0  0  0
 54 63  1  0  0  0  0
 55 63  1  0  0  0  0
 56 74  1  0  0  0  0
 57 73  1  0  0  0  0
 58 59  1  0  0  0  0
 58 62  1  0  0  0  0
 59 65  1  0  0  0  0
 60 63  1  0  0  0  0
 60 72  1  0  0  0  0
 61 74  1  0  0  0  0
 62 81  1  0  0  0  0
 64 66  1  0  0  0  0
M  CHG  1  74   1
M  ISO  4  36 100  62 101  73 100  81 101
M  END
> <Batch ID>
0092

> <Smiles>
CNC(C)C(=O)NC(C(=O)N1Cc2cc([101O:1][101CH:1](C)CCn3c(C[100NH:0][100C:0](=O)N4CCCC(n5nc(-c6ccc(Oc7ccc(F)cc7F)cc6)c(C(N)=O)c5N)C4)cc(C)c3C)ccc2CC1C(=O)NC1CCCc2ccccc21)C(C)(C)C

> <Shape>
0.212

> <Color>
0.072

> <Negative vol penalty>
0.000

$$$$

  -OEChem-04052319143D

 88 96  0     1  0  0  0  0  0999 V2000
  -29.6413  -36.2634   19.6716 C   0  0  0  0  0  0  0  0  0  0  0  0
  -29.7142  -34.8805   19.5388 C   0  0  0  0  0  0  0  0  0  0  0  0
  -23.0564   -9.8726   20.4245 C   0  0  0  0  0  0  0  0  0  0  0  0
  -23.7468  -10.2913   22.7016 C   0  0  0  0  0  0  0  0  0  0  0  0
  -28.8680  -36.8254   20.6866 C   0  0  0  0  0  0  0  0  0  0  0  0
  -29.0145  -34.0586   20.4217 C   0  0  0  0  0  0  0  0  0  0  0  0
  -26.3832  -28.6785   19.1426 C   0  0  0  0  0  0  0  0  0  0  0  0
  -22.2865   -8.7927   20.8564 C   0  0  0  0  0  0  0  0  0  0  0  0
  -22.9768   -9.2113   23.1336 C   0  0  0  0  0  0  0  0  0  0  0  0
  -26.8002  -27.3617   19.3324 C   0  0  0  0  0  0  0  0  0  0  0  0
  -19.2831   -8.3067   22.3318 C   0  0  0  0  0  0  0  0  0  0  0  0
  -17.9909   -8.1863   21.8207 C   0  0  0  0  0  0  0  0  0  0  0  0
  -25.5575  -27.2722   21.3980 C   0  0  0  0  0  0  0  0  0  0  0  0
  -18.5582   -6.0282   20.8946 C   0  0  0  0  0  0  0  0  0  0  0  0
  -28.2104  -20.2337   21.3999 C   0  0  0  0  0  0  0  0  0  0  0  0
  -23.7866  -10.6219   21.3471 C   0  0  0  0  0  0  0  0  0  0  0  0
  -24.1734  -13.0786   20.7791 C   0  0  0  0  0  0  0  0  0  0  0  0
  -28.1508  -36.0102   21.5763 C   0  0  0  0  0  0  0  0  0  0  0  0
  -25.5577  -29.3067   20.0862 C   0  0  0  0  0  0  0  0  0  0  0  0
  -28.2319  -34.6102   21.4503 C   0  0  0  0  0  0  0  0  0  0  0  0
  -25.1294  -28.5962   21.2167 C   0  0  0  0  0  0  0  0  0  0  0  0
  -22.2467   -8.4621   22.2110 C   0  0  0  0  0  0  0  0  0  0  0  0
  -26.3897  -26.6593   20.4616 C   0  0  0  0  0  0  0  0  0  0  0  0
  -20.2130   -7.2878   22.1242 C   0  0  0  0  0  0  0  0  0  0  0  0
  -17.6284   -7.0471   21.1022 C   0  0  0  0  0  0  0  0  0  0  0  0
  -19.8505   -6.1486   21.4056 C   0  0  0  0  0  0  0  0  0  0  0  0
  -24.5826  -11.7372   20.9014 C   0  0  0  0  0  0  0  0  0  0  0  0
  -28.3950  -18.9315   21.0298 C   0  0  0  0  0  0  0  0  0  0  0  0
  -25.2881  -13.7373   20.3209 C   0  0  0  0  0  0  0  0  0  0  0  0
  -27.1745  -18.9504   22.8765 C   0  0  0  0  0  0  0  0  0  0  0  0
  -22.8995  -13.6759   21.0551 C   0  0  0  0  0  0  0  0  0  0  0  0
  -25.8441  -31.8412   21.9830 C   0  0  0  0  0  0  0  0  0  0  0  0
  -22.7312  -31.2118   22.6433 C   0  0  0  0  0  0  0  0  0  0  0  0
  -20.1959  -28.9297   22.7488 C   0  0  0  0  0  0  0  0  0  0  0  0
  -30.7797  -14.7152   20.4989 C   0  0  0  0  0  0  0  0  0  0  0  0
  -27.3661  -36.6626   22.6869 C   0  0  0  0  0  0  0  0  0  0  0  0
  -25.0949  -30.7188   19.8535 C   0  0  0  0  0  0  0  0  0  0  0  0
  -24.2266  -29.2184   22.2493 C   0  0  0  0  0  0  0  0  0  0  0  0
  -26.3562  -35.7288   23.3490 C   0  0  0  0  0  0  0  0  0  0  0  0
  -29.6756  -11.9462   18.5519 C   0  0  0  0  0  0  0  0  0  0  0  0
  -26.9984  -34.3801   23.6574 C   0  0  0  0  0  0  0  0  0  0  0  0
  -28.2211  -11.7521   18.9841 C   0  0  0  0  0  0  0  0  0  0  0  0
  -30.5596  -12.3734   19.7216 C   0  0  0  0  0  0  0  0  0  0  0  0
  -28.6291  -13.3662   20.8885 C   0  0  0  0  0  0  0  0  0  0  0  0
  -27.4676  -33.6859   22.3731 C   0  0  1  0  0  0  0  0  0  0  0  0
  -24.6733  -31.4285   21.1365 C   0  0  1  0  0  0  0  0  0  0  0  0
  -27.6882  -12.9893   19.7314 C   0  0  2  0  0  0  0  0  0  0  0  0
  -27.2080  -17.6248   25.0202 C   0  0  0  0  0  0  0  0  0  0  0  0
  -25.1071  -17.7208   23.6302 C   0  0  0  0  0  0  0  0  0  0  0  0
  -17.7747  -28.7022   23.3682 C   0  0  0  0  0  0  0  0  0  0  0  0
  -23.7469  -22.3636   21.3651 C   0  0  0  0  0  0  0  0  0  0  0  0
  -23.4910  -31.1965   25.5984 C   0  0  0  0  0  0  0  0  0  0  0  0
  -21.3164  -30.0531   26.0799 C   0  0  0  0  0  0  0  0  0  0  0  0
  -21.3272  -32.3400   25.0836 C   0  0  0  0  0  0  0  0  0  0  0  0
  -19.4411  -28.1737   19.9888 C   0  0  0  0  0  0  0  0  0  0  0  0
  -29.1150  -18.3392   19.8995 C   0  0  0  0  0  0  0  0  0  0  0  0
  -30.6111  -18.0168   20.1604 C   0  0  0  0  0  0  0  0  0  0  0  0
  -25.5315  -21.7642   23.0299 C   0  0  0  0  0  0  0  0  0  0  0  0
  -26.1285  -23.0839   20.8816 C   0  0  0  0  0  0  0  0  0  0  0  0
  -27.0023  -21.4374   23.3073 C   0  0  0  0  0  0  0  0  0  0  0  0
  -30.8436  -17.0550   21.3237 C   0  0  0  0  0  0  0  0  0  0  0  0
  -25.9136  -24.5127   21.3679 C   0  0  0  0  0  0  0  0  0  1  0  0
  -26.3818  -18.4868   24.0425 C   0  0  0  0  0  0  0  0  0  0  0  0
  -22.0039  -30.3640   23.6589 C   0  0  1  0  0  0  0  0  0  0  0  0
  -18.7636  -28.9914   22.2496 C   0  0  2  0  0  0  0  0  0  0  0  0
  -25.2301  -22.0200   21.5399 C   0  0  2  0  0  0  0  0  0  0  0  0
  -22.0532  -30.9770   25.0869 C   0  0  0  0  0  0  0  0  0  0  0  0
  -25.8577  -11.5530   20.5492 N   0  0  0  0  0  0  0  0  0  0  0  0
  -27.4515  -20.2157   22.5453 N   0  0  0  0  0  0  0  0  0  0  0  0
  -26.2594  -12.7873   20.2010 N   0  0  0  0  0  0  0  0  0  0  0  0
  -27.7437  -18.1594   21.9612 N   0  3  0  0  0  0  0  0  0  0  0  0
  -23.8062  -30.6034   21.9801 N   0  0  0  0  0  0  0  0  0  0  0  0
  -29.9995  -13.5525   20.3863 N   0  0  0  0  0  0  0  0  0  0  0  0
  -25.5225  -15.0305   20.0128 N   0  0  0  0  0  0  0  0  0  0  0  0
  -21.8630  -12.8546   21.5195 N   0  0  0  0  0  0  0  0  0  0  0  0
  -26.3441  -33.0931   21.6796 N   0  0  0  0  0  0  0  0  0  0  0  0
  -20.6550  -30.1703   23.1380 N   0  0  0  0  0  0  0  0  0  0  0  0
  -30.1708  -15.7888   21.1371 N   0  0  0  0  0  0  0  0  0  0  0  0
  -18.5501  -27.9932   21.1638 N   0  3  0  0  0  0  0  0  0  0  0  0
  -22.6818  -14.8987   20.8789 O   0  0  0  0  0  0  0  0  0  0  0  0
  -26.2618  -31.0808   22.8484 O   0  0  0  0  0  0  0  0  0  0  0  0
  -22.3546  -32.3689   22.4407 O   0  0  0  0  0  0  0  0  0  0  0  0
  -20.8415  -27.8848   22.7929 O   0  0  0  0  0  0  0  0  0  0  0  0
  -31.9315  -14.7925   20.0582 O   0  0  0  0  0  0  0  0  0  0  0  0
  -21.4953   -7.4085   22.6329 O   0  0  0  0  0  0  0  0  0  0  0  0
  -26.7958  -25.3742   20.6496 O   0  0  0  0  0  0  0  0  0  1  0  0
  -16.3869   -6.9309   20.6128 F   0  0  0  0  0  0  0  0  0  0  0  0
  -20.7391   -5.1659   21.2040 F   0  0  0  0  0  0  0  0  0  0  0  0
  1  2  1  0  0  0  0
  1  5  2  0  0  0  0
  2  6  2  0  0  0  0
  3  8  2  0  0  0  0
  3 16  1  0  0  0  0
  4  9  1  0  0  0  0
  4 16  2  0  0  0  0
  5 18  1  0  0  0  0
  6 20  1  0  0  0  0
  7 10  2  0  0  0  0
  7 19  1  0  0  0  0
  8 22  1  0  0  0  0
  9 22  2  0  0  0  0
 10 23  1  0  0  0  0
 11 12  2  0  0  0  0
 11 24  1  0  0  0  0
 12 25  1  0  0  0  0
 13 21  1  0  0  0  0
 13 23  2  0  0  0  0
 14 25  2  0  0  0  0
 14 26  1  0  0  0  0
 15 28  2  0  0  0  0
 15 69  1  0  0  0  0
 16 27  1  0  0  0  0
 17 27  1  0  0  0  0
 17 29  2  0  0  0  0
 17 31  1  0  0  0  0
 18 20  2  0  0  0  0
 18 36  1  0  0  0  0
 19 21  2  0  0  0  0
 19 37  1  0  0  0  0
 20 45  1  0  0  0  0
 21 38  1  0  0  0  0
 22 85  1  0  0  0  0
 23 86  1  0  0  0  0
 24 26  2  0  0  0  0
 24 85  1  0  0  0  0
 25 87  1  0  0  0  0
 26 88  1  0  0  0  0
 27 68  2  0  0  0  0
 28 56  1  0  0  0  0
 28 71  1  0  0  0  0
 29 70  1  0  0  0  0
 29 74  1  0  0  0  0
 30 63  1  0  0  0  0
 30 69  1  0  0  0  0
 30 71  2  0  0  0  0
 31 75  1  0  0  0  0
 31 80  2  0  0  0  0
 32 46  1  0  0  0  0
 32 76  1  0  0  0  0
 32 81  2  0  0  0  0
 33 64  1  0  0  0  0
 33 72  1  0  0  0  0
 33 82  2  0  0  0  0
 34 65  1  0  0  0  0
 34 77  1  0  0  0  0
 34 83  2  0  0  0  0
 35 73  1  0  0  0  0
 35 78  1  0  0  0  0
 35 84  2  0  0  0  0
 36 39  1  0  0  0  0
 37 46  1  0  0  0  0
 38 72  1  0  0  0  0
 39 41  1  0  0  0  0
 40 42  1  0  0  0  0
 40 43  1  0  0  0  0
 41 45  1  0  0  0  0
 42 47  1  0  0  0  0
 43 73  1  0  0  0  0
 44 47  1  0  0  0  0
 44 73  1  0  0  0  0
 45 76  1  0  0  0  0
 46 72  1  0  0  0  0
 47 70  1  0  0  0  0
 48 63  1  0  0  0  0
 49 63  1  0  0  0  0
 50 65  1  0  0  0  0
 51 66  1  0  0  0  0
 52 67  1  0  0  0  0
 53 67  1  0  0  0  0
 54 67  1  0  0  0  0
 55 79  1  0  0  0  0
 56 57  1  0  0  0  0
 57 61  1  0  0  0  0
 58 60  1  0  0  0  0
 58 66  1  0  0  0  0
 59 62  1  0  0  0  0
 59 66  1  0  0  0  0
 60 69  1  0  0  0  0
 61 78  1  0  0  0  0
 62 86  1  0  0  0  0
 64 67  1  0  0  0  0
 64 77  1  0  0  0  0
 65 79  1  0  0  0  0
 68 70  1  0  0  0  0
M  CHG  2  71   1  79   1
M  ISO  4  35 100  62 101  78 100  86 101
M  END
> <Batch ID>
0092

> <Smiles>
CNC(C)C(=O)NC(C(=O)N1Cc2cc([101O:1][101CH2:1]CC(C)CCn3cc(CCC[100NH:0][100C:0](=O)N4CCCC(n5nc(-c6ccc(Oc7ccc(F)cc7F)cc6)c(C(N)=O)c5N)C4)nc3C(C)C)ccc2CC1C(=O)NC1CCCc2ccccc21)C(C)(C)C

> <Shape>
0.307

> <Color>
0.208

> <Negative vol penalty>
0.000

$$$$

  -OEChem-04052319143D

 81 88  0     1  0  0  0  0  0999 V2000
  -24.2946  -30.4496   30.2623 C   0  0  0  0  0  0  0  0  0  0  0  0
  -25.2052  -29.4216   30.0398 C   0  0  0  0  0  0  0  0  0  0  0  0
  -23.0743   -9.8687   19.9415 C   0  0  0  0  0  0  0  0  0  0  0  0
  -23.8384   -9.8746   22.2335 C   0  0  0  0  0  0  0  0  0  0  0  0
  -22.9799  -30.1501   30.6171 C   0  0  0  0  0  0  0  0  0  0  0  0
  -24.8018  -28.0935   30.1730 C   0  0  0  0  0  0  0  0  0  0  0  0
  -26.4578  -25.1708   26.3835 C   0  0  0  0  0  0  0  0  0  0  0  0
  -22.3318   -8.7148   20.1920 C   0  0  0  0  0  0  0  0  0  0  0  0
  -23.0958   -8.7207   22.4840 C   0  0  0  0  0  0  0  0  0  0  0  0
  -27.7902  -24.7632   26.4292 C   0  0  0  0  0  0  0  0  0  0  0  0
  -19.8693   -7.9200   23.0918 C   0  0  0  0  0  0  0  0  0  0  0  0
  -19.1145   -7.8787   24.2640 C   0  0  0  0  0  0  0  0  0  0  0  0
  -27.0983  -22.6181   27.2889 C   0  0  0  0  0  0  0  0  0  0  0  0
  -20.3587   -5.9416   24.9968 C   0  0  0  0  0  0  0  0  0  0  0  0
  -23.8277  -10.4486   20.9623 C   0  0  0  0  0  0  0  0  0  0  0  0
  -24.1675  -12.9741   20.8435 C   0  0  0  0  0  0  0  0  0  0  0  0
  -22.5578  -28.8175   30.7453 C   0  0  0  0  0  0  0  0  0  0  0  0
  -25.4346  -24.3075   26.8010 C   0  0  0  0  0  0  0  0  0  0  0  0
  -23.4806  -27.7759   30.5312 C   0  0  0  0  0  0  0  0  0  0  0  0
  -25.7534  -23.0163   27.2450 C   0  0  0  0  0  0  0  0  0  0  0  0
  -22.3425   -8.1408   21.4632 C   0  0  0  0  0  0  0  0  0  0  0  0
  -28.1109  -23.4877   26.8847 C   0  0  0  0  0  0  0  0  0  0  0  0
  -20.8688   -6.9721   22.8720 C   0  0  0  0  0  0  0  0  0  0  0  0
  -19.3592   -6.8895   25.2166 C   0  0  0  0  0  0  0  0  0  0  0  0
  -21.1135   -5.9830   23.8245 C   0  0  0  0  0  0  0  0  0  0  0  0
  -24.5954  -11.6402   20.7040 C   0  0  0  0  0  0  0  0  0  0  0  0
  -25.2584  -13.7246   20.4788 C   0  0  0  0  0  0  0  0  0  0  0  0
  -22.8974  -13.4886   21.2651 C   0  0  0  0  0  0  0  0  0  0  0  0
  -23.2335  -24.3812   29.0931 C   0  0  0  0  0  0  0  0  0  0  0  0
  -22.1958  -21.6703   27.6453 C   0  0  0  0  0  0  0  0  0  0  0  0
  -22.9178  -18.9811   25.6720 C   0  0  0  0  0  0  0  0  0  0  0  0
  -30.7417  -14.7476   20.6580 C   0  0  0  0  0  0  0  0  0  0  0  0
  -21.1388  -28.5438   31.1770 C   0  0  0  0  0  0  0  0  0  0  0  0
  -24.0002  -24.7528   26.7203 C   0  0  0  0  0  0  0  0  0  0  0  0
  -24.6906  -22.0442   27.6854 C   0  0  0  0  0  0  0  0  0  0  0  0
  -20.6943  -27.1042   30.9315 C   0  0  0  0  0  0  0  0  0  0  0  0
  -29.6015  -12.3640   18.2715 C   0  0  0  0  0  0  0  0  0  0  0  0
  -21.7626  -26.1266   31.4109 C   0  0  0  0  0  0  0  0  0  0  0  0
  -28.1651  -12.0689   18.7068 C   0  0  0  0  0  0  0  0  0  0  0  0
  -30.5207  -12.5846   19.4709 C   0  0  0  0  0  0  0  0  0  0  0  0
  -28.6209  -13.3133   20.8615 C   0  0  0  0  0  0  0  0  0  0  0  0
  -23.0747  -26.3222   30.6417 C   0  0  1  0  0  0  0  0  0  0  0  0
  -23.0794  -23.9743   27.6549 C   0  0  1  0  0  0  0  0  0  0  0  0
  -27.6448  -13.1388   19.6855 C   0  0  2  0  0  0  0  0  0  0  0  0
  -21.8753  -16.9176   24.6958 C   0  0  0  0  0  0  0  0  0  0  0  0
  -22.3579  -20.3031   30.3683 C   0  0  0  0  0  0  0  0  0  0  0  0
  -22.2414  -18.0972   29.1899 C   0  0  0  0  0  0  0  0  0  0  0  0
  -20.3402  -19.7029   29.0180 C   0  0  0  0  0  0  0  0  0  0  0  0
  -33.3086  -18.5146   22.6371 C   0  0  0  0  0  0  0  0  0  0  0  0
  -33.2132  -17.5025   24.9206 C   0  0  0  0  0  0  0  0  0  0  0  0
  -23.4121  -19.9009   22.9028 C   0  0  0  0  0  0  0  0  0  0  0  0
  -30.8088  -21.3492   25.0264 C   0  0  0  0  0  0  0  0  0  0  0  0
  -31.9176  -20.3449   24.6943 C   0  0  0  0  0  0  0  0  0  0  0  0
  -31.3868  -22.6436   25.6063 C   0  0  0  0  0  0  0  0  0  0  0  0
  -31.3296  -19.0350   24.1515 C   0  0  0  0  0  0  0  0  0  0  0  0
  -31.6195  -16.6973   23.1761 C   0  0  0  0  0  0  0  0  0  0  0  0
  -30.8082  -16.8973   21.8963 C   0  0  0  0  0  0  0  0  0  0  0  0
  -30.2998  -23.6481   25.9687 C   0  0  0  0  0  0  0  0  0  1  0  0
  -22.4952  -20.1980   27.7922 C   0  0  1  0  0  0  0  0  0  0  0  0
  -22.1970  -18.3875   24.4751 C   0  0  2  0  0  0  0  0  0  0  0  0
  -21.8791  -19.5941   29.0857 C   0  0  0  0  0  0  0  0  0  0  0  0
  -32.3619  -17.9566   23.7160 C   0  0  0  0  0  0  0  0  0  0  0  0
  -25.8596  -11.5456   20.2834 N   0  0  0  0  0  0  0  0  0  0  0  0
  -26.2353  -12.8296   20.1553 N   0  0  0  0  0  0  0  0  0  0  0  0
  -23.3033  -22.5285   27.5939 N   0  0  0  0  0  0  0  0  0  0  0  0
  -29.9710  -13.6121   20.3586 N   0  0  0  0  0  0  0  0  0  0  0  0
  -25.4677  -15.0563   20.4064 N   0  0  0  0  0  0  0  0  0  0  0  0
  -21.8867  -12.5785   21.6036 N   0  0  0  0  0  0  0  0  0  0  0  0
  -22.9854  -25.7200   29.3287 N   0  0  0  0  0  0  0  0  0  0  0  0
  -22.0386  -19.5636   26.5603 N   0  0  0  0  0  0  0  0  0  0  0  0
  -30.1434  -15.6754   21.5018 N   0  0  0  0  0  0  0  0  0  0  0  0
  -23.0400  -18.5056   23.2519 N   0  3  0  0  0  0  0  0  0  0  0  0
  -22.6603  -14.7190   21.3238 O   0  0  0  0  0  0  0  0  0  0  0  0
  -23.5525  -23.5423   29.9275 O   0  0  0  0  0  0  0  0  0  0  0  0
  -21.0227  -22.0444   27.5714 O   0  0  0  0  0  0  0  0  0  0  0  0
  -24.1382  -18.9295   25.8074 O   0  0  0  0  0  0  0  0  0  0  0  0
  -31.8767  -14.9243   20.2024 O   0  0  0  0  0  0  0  0  0  0  0  0
  -21.6178   -7.0150   21.7080 O   0  0  0  0  0  0  0  0  0  0  0  0
  -29.4206  -23.0846   26.9314 O   0  0  0  0  0  0  0  0  0  1  0  0
  -18.6354   -6.8508   26.3429 F   0  0  0  0  0  0  0  0  0  0  0  0
  -22.0731   -5.0703   23.6195 F   0  0  0  0  0  0  0  0  0  0  0  0
  1  2  1  0  0  0  0
  1  5  2  0  0  0  0
  2  6  2  0  0  0  0
  3  8  2  0  0  0  0
  3 15  1  0  0  0  0
  4  9  1  0  0  0  0
  4 15  2  0  0  0  0
  5 17  1  0  0  0  0
  6 19  1  0  0  0  0
  7 10  2  0  0  0  0
  7 18  1  0  0  0  0
  8 21  1  0  0  0  0
  9 21  2  0  0  0  0
 10 22  1  0  0  0  0
 11 12  2  0  0  0  0
 11 23  1  0  0  0  0
 12 24  1  0  0  0  0
 13 20  1  0  0  0  0
 13 22  2  0  0  0  0
 14 24  2  0  0  0  0
 14 25  1  0  0  0  0
 15 26  1  0  0  0  0
 16 26  1  0  0  0  0
 16 27  2  0  0  0  0
 16 28  1  0  0  0  0
 17 19  2  0  0  0  0
 17 33  1  0  0  0  0
 18 20  2  0  0  0  0
 18 34  1  0  0  0  0
 19 42  1  0  0  0  0
 20 35  1  0  0  0  0
 21 78  1  0  0  0  0
 22 79  1  0  0  0  0
 23 25  2  0  0  0  0
 23 78  1  0  0  0  0
 24 80  1  0  0  0  0
 25 81  1  0  0  0  0
 26 63  2  0  0  0  0
 27 64  1  0  0  0  0
 27 67  1  0  0  0  0
 28 68  1  0  0  0  0
 28 73  2  0  0  0  0
 29 43  1  0  0  0  0
 29 69  1  0  0  0  0
 29 74  2  0  0  0  0
 30 59  1  0  0  0  0
 30 65  1  0  0  0  0
 30 75  2  0  0  0  0
 31 60  1  0  0  0  0
 31 70  1  0  0  0  0
 31 76  2  0  0  0  0
 32 66  1  0  0  0  0
 32 71  1  0  0  0  0
 32 77  2  0  0  0  0
 33 36  1  0  0  0  0
 34 43  1  0  0  0  0
 35 65  1  0  0  0  0
 36 38  1  0  0  0  0
 37 39  1  0  0  0  0
 37 40  1  0  0  0  0
 38 42  1  0  0  0  0
 39 44  1  0  0  0  0
 40 66  1  0  0  0  0
 41 44  1  0  0  0  0
 41 66  1  0  0  0  0
 42 69  1  0  0  0  0
 43 65  1  0  0  0  0
 44 64  1  0  0  0  0
 45 60  1  0  0  0  0
 46 61  1  0  0  0  0
 47 61  1  0  0  0  0
 48 61  1  0  0  0  0
 49 62  1  0  0  0  0
 50 62  1  0  0  0  0
 51 72  1  0  0  0  0
 52 53  1  0  0  0  0
 52 54  1  0  0  0  0
 53 55  1  0  0  0  0
 54 58  1  0  0  0  0
 55 62  1  0  0  0  0
 56 57  1  0  0  0  0
 56 62  1  0  0  0  0
 57 71  1  0  0  0  0
 58 79  1  0  0  0  0
 59 61  1  0  0  0  0
 59 70  1  0  0  0  0
 60 72  1  0  0  0  0
 63 64  1  0  0  0  0
M  CHG  1  72   1
M  ISO  4  32 100  58 101  71 100  79 101
M  END
> <Batch ID>
0092

> <Smiles>
CNC(C)C(=O)NC(C(=O)N1Cc2cc([101O:1][101CH2:1]CCCCC(C)(C)CC[100NH:0][100C:0](=O)N3CCCC(n4nc(-c5ccc(Oc6ccc(F)cc6F)cc5)c(C(N)=O)c4N)C3)ccc2CC1C(=O)NC1CCCc2ccccc21)C(C)(C)C

> <Shape>
0.164

> <Color>
0.190

> <Negative vol penalty>
0.000

$$$$

  -OEChem-04052319143D

 86 94  0     1  0  0  0  0  0999 V2000
  -25.9109  -12.6317   21.5970 C   0  0  0  0  0  0  0  0  0  0  0  0
  -26.2723  -13.9580   21.3830 C   0  0  0  0  0  0  0  0  0  0  0  0
  -31.2936  -17.9627   19.0734 C   0  0  0  0  0  0  0  0  0  0  0  0
  -29.3365  -17.4273   20.3850 C   0  0  0  0  0  0  0  0  0  0  0  0
  -24.9390  -12.0369   20.7936 C   0  0  0  0  0  0  0  0  0  0  0  0
  -25.6628  -14.6899   20.3645 C   0  0  0  0  0  0  0  0  0  0  0  0
  -24.3091  -20.6623   20.4260 C   0  0  0  0  0  0  0  0  0  0  0  0
  -31.7261  -16.6408   19.1792 C   0  0  0  0  0  0  0  0  0  0  0  0
  -29.7690  -16.1054   20.4907 C   0  0  0  0  0  0  0  0  0  0  0  0
  -24.9588  -21.7768   19.8975 C   0  0  0  0  0  0  0  0  0  0  0  0
  -29.7861  -13.3302   18.5624 C   0  0  0  0  0  0  0  0  0  0  0  0
  -28.8439  -12.3230   18.3540 C   0  0  0  0  0  0  0  0  0  0  0  0
  -23.5502  -21.6634   17.9425 C   0  0  0  0  0  0  0  0  0  0  0  0
  -26.9347  -28.3177   20.8069 C   0  0  0  0  0  0  0  0  0  0  0  0
  -29.2310  -11.4979   20.5915 C   0  0  0  0  0  0  0  0  0  0  0  0
  -25.4171  -28.7286   19.1950 C   0  0  0  0  0  0  0  0  0  0  0  0
  -30.0988  -18.3560   19.6764 C   0  0  0  0  0  0  0  0  0  0  0  0
  -28.8296  -20.2697   18.5653 C   0  0  0  0  0  0  0  0  0  0  0  0
  -24.3103  -12.7647   19.7710 C   0  0  0  0  0  0  0  0  0  0  0  0
  -23.2806  -20.0323   19.7107 C   0  0  0  0  0  0  0  0  0  0  0  0
  -24.6825  -14.1038   19.5458 C   0  0  0  0  0  0  0  0  0  0  0  0
  -22.8872  -20.5426   18.4653 C   0  0  0  0  0  0  0  0  0  0  0  0
  -26.6553  -29.1078   19.6646 C   0  0  0  0  0  0  0  0  0  0  0  0
  -30.9638  -15.7122   19.8878 C   0  0  0  0  0  0  0  0  0  0  0  0
  -24.5814  -22.2758   18.6543 C   0  0  0  0  0  0  0  0  0  0  0  0
  -30.4508  -13.4212   19.7853 C   0  0  0  0  0  0  0  0  0  0  0  0
  -28.5663  -11.4069   19.3685 C   0  0  0  0  0  0  0  0  0  0  0  0
  -30.1733  -12.5051   20.7999 C   0  0  0  0  0  0  0  0  0  0  0  0
  -29.6518  -19.7214   19.5680 C   0  0  0  0  0  0  0  0  0  0  0  0
  -25.8589  -27.4796   21.0005 C   0  0  0  0  0  0  0  0  0  0  0  0
  -28.6997  -21.5922   18.9129 C   0  0  0  0  0  0  0  0  0  0  0  0
  -28.2363  -19.6399   17.4221 C   0  0  0  0  0  0  0  0  0  0  0  0
  -22.8544  -17.1328   18.4799 C   0  0  0  0  0  0  0  0  0  0  0  0
  -19.8786  -18.2618   17.8533 C   0  0  0  0  0  0  0  0  0  0  0  0
  -17.8542  -20.9585   17.3281 C   0  0  0  0  0  0  0  0  0  0  0  0
  -27.8314  -25.5540   22.7463 C   0  0  0  0  0  0  0  0  0  0  0  0
  -23.2993  -12.0647   18.8978 C   0  0  0  0  0  0  0  0  0  0  0  0
  -22.5716  -18.8471   20.3066 C   0  0  0  0  0  0  0  0  0  0  0  0
  -21.7753  -19.9149   17.6664 C   0  0  0  0  0  0  0  0  0  0  0  0
  -22.4329  -13.0211   18.0823 C   0  0  0  0  0  0  0  0  0  0  0  0
  -31.1589  -24.3438   22.3723 C   0  0  0  0  0  0  0  0  0  0  0  0
  -23.2962  -14.0895   17.4189 C   0  0  0  0  0  0  0  0  0  0  0  0
  -30.9947  -23.0759   21.5324 C   0  0  0  0  0  0  0  0  0  0  0  0
  -30.0019  -24.5253   23.3523 C   0  0  0  0  0  0  0  0  0  0  0  0
  -28.4963  -23.2219   21.9003 C   0  0  0  0  0  0  0  0  0  0  0  0
  -24.0263  -14.9380   18.4670 C   0  0  1  0  0  0  0  0  0  0  0  0
  -21.8849  -17.9739   19.2610 C   0  0  1  0  0  0  0  0  0  0  0  0
  -29.6105  -23.0253   20.8581 C   0  0  2  0  0  0  0  0  0  0  0  0
  -28.7974  -28.5981   17.4827 C   0  0  0  0  0  0  0  0  0  0  0  0
  -27.7555  -31.3265   20.0616 C   0  0  0  0  0  0  0  0  0  0  0  0
  -15.4762  -21.5640   16.8026 C   0  0  0  0  0  0  0  0  0  0  0  0
  -25.0932  -24.2092   15.8955 C   0  0  0  0  0  0  0  0  0  0  0  0
  -20.3130  -17.4364   14.9482 C   0  0  0  0  0  0  0  0  0  0  0  0
  -18.3728  -18.8881   14.3185 C   0  0  0  0  0  0  0  0  0  0  0  0
  -18.0302  -16.9432   15.8426 C   0  0  0  0  0  0  0  0  0  0  0  0
  -17.5586  -22.4702   19.8553 C   0  0  0  0  0  0  0  0  0  0  0  0
  -25.6295  -26.4564   22.0415 C   0  0  0  0  0  0  0  0  0  0  0  0
  -28.9178  -29.6295   18.5980 C   0  0  0  0  0  0  0  0  0  0  0  0
  -23.7163  -25.6412   19.2454 C   0  0  0  0  0  0  0  0  0  0  0  0
  -24.3799  -25.6251   17.8617 C   0  0  0  0  0  0  0  0  0  0  0  0
  -23.6121  -27.0495   19.8425 C   0  0  0  0  0  0  0  0  0  0  0  0
  -27.5283  -30.1459   19.0842 C   0  0  1  0  0  0  0  0  0  0  0  0
  -19.2336  -18.9941   16.7016 C   0  0  1  0  0  0  0  0  0  0  0  0
  -16.4987  -21.3277   17.9033 C   0  0  2  0  0  0  0  0  0  0  0  0
  -24.4522  -24.2101   17.2767 C   0  0  2  0  0  0  0  0  0  1  0  0
  -19.0097  -18.0763   15.4666 C   0  0  0  0  0  0  0  0  0  0  0  0
  -30.0185  -20.6220   20.4837 N   0  0  0  0  0  0  0  0  0  0  0  0
  -24.9426  -27.7380   20.0147 N   0  0  0  0  0  0  0  0  0  0  0  0
  -29.4241  -21.7495   20.0578 N   0  0  0  0  0  0  0  0  0  0  0  0
  -21.1170  -18.7544   18.2888 N   0  0  0  0  0  0  0  0  0  0  0  0
  -28.7180  -24.4689   22.6492 N   0  0  0  0  0  0  0  0  0  0  0  0
  -28.0378  -22.6241   18.3478 N   0  0  0  0  0  0  0  0  0  0  0  0
  -28.4717  -18.2740   17.2144 N   0  0  0  0  0  0  0  0  0  0  0  0
  -23.1229  -15.9046   19.0534 N   0  0  0  0  0  0  0  0  0  0  0  0
  -18.0127  -19.5923   17.2306 N   0  0  0  0  0  0  0  0  0  0  0  0
  -26.6396  -25.4218   22.0442 N   0  0  0  0  0  0  0  0  0  0  0  0
  -16.6038  -22.5689   18.7214 N   0  3  0  0  0  0  0  0  0  0  0  0
  -27.5321  -20.2735   16.5998 O   0  0  0  0  0  0  0  0  0  0  0  0
  -23.3230  -17.5654   17.4335 O   0  0  0  0  0  0  0  0  0  0  0  0
  -19.3015  -17.2928   18.3531 O   0  0  0  0  0  0  0  0  0  0  0  0
  -18.6875  -21.7982   16.9949 O   0  0  0  0  0  0  0  0  0  0  0  0
  -28.0855  -26.5680   23.4053 O   0  0  0  0  0  0  0  0  0  0  0  0
  -31.3854  -14.4222   19.9910 O   0  0  0  0  0  0  0  0  0  0  0  0
  -25.2144  -23.3632   18.1358 O   0  0  0  0  0  0  0  0  0  1  0  0
  -27.6604  -10.4407   19.1688 F   0  0  0  0  0  0  0  0  0  0  0  0
  -30.8078  -12.5881   21.9773 F   0  0  0  0  0  0  0  0  0  0  0  0
  1  2  1  0  0  0  0
  1  5  2  0  0  0  0
  2  6  2  0  0  0  0
  3  8  2  0  0  0  0
  3 17  1  0  0  0  0
  4  9  1  0  0  0  0
  4 17  2  0  0  0  0
  5 19  1  0  0  0  0
  6 21  1  0  0  0  0
  7 10  2  0  0  0  0
  7 20  1  0  0  0  0
  8 24  1  0  0  0  0
  9 24  2  0  0  0  0
 10 25  1  0  0  0  0
 11 12  2  0  0  0  0
 11 26  1  0  0  0  0
 12 27  1  0  0  0  0
 13 22  1  0  0  0  0
 13 25  2  0  0  0  0
 14 23  1  0  0  0  0
 14 30  2  0  0  0  0
 15 27  2  0  0  0  0
 15 28  1  0  0  0  0
 16 23  2  0  0  0  0
 16 68  1  0  0  0  0
 17 29  1  0  0  0  0
 18 29  1  0  0  0  0
 18 31  2  0  0  0  0
 18 32  1  0  0  0  0
 19 21  2  0  0  0  0
 19 37  1  0  0  0  0
 20 22  2  0  0  0  0
 20 38  1  0  0  0  0
 21 46  1  0  0  0  0
 22 39  1  0  0  0  0
 23 62  1  0  0  0  0
 24 83  1  0  0  0  0
 25 84  1  0  0  0  0
 26 28  2  0  0  0  0
 26 83  1  0  0  0  0
 27 85  1  0  0  0  0
 28 86  1  0  0  0  0
 29 67  2  0  0  0  0
 30 57  1  0  0  0  0
 30 68  1  0  0  0  0
 31 69  1  0  0  0  0
 31 72  1  0  0  0  0
 32 73  1  0  0  0  0
 32 78  2  0  0  0  0
 33 47  1  0  0  0  0
 33 74  1  0  0  0  0
 33 79  2  0  0  0  0
 34 63  1  0  0  0  0
 34 70  1  0  0  0  0
 34 80  2  0  0  0  0
 35 64  1  0  0  0  0
 35 75  1  0  0  0  0
 35 81  2  0  0  0  0
 36 71  1  0  0  0  0
 36 76  1  0  0  0  0
 36 82  2  0  0  0  0
 37 40  1  0  0  0  0
 38 47  1  0  0  0  0
 39 70  1  0  0  0  0
 40 42  1  0  0  0  0
 41 43  1  0  0  0  0
 41 44  1  0  0  0  0
 42 46  1  0  0  0  0
 43 48  1  0  0  0  0
 44 71  1  0  0  0  0
 45 48  1  0  0  0  0
 45 71  1  0  0  0  0
 46 74  1  0  0  0  0
 47 70  1  0  0  0  0
 48 69  1  0  0  0  0
 49 58  1  0  0  0  0
 50 62  1  0  0  0  0
 51 64  1  0  0  0  0
 52 65  1  0  0  0  0
 53 66  1  0  0  0  0
 54 66  1  0  0  0  0
 55 66  1  0  0  0  0
 56 77  1  0  0  0  0
 57 76  1  0  0  0  0
 58 62  1  0  0  0  0
 59 60  1  0  0  0  0
 59 61  1  0  0  0  0
 60 65  1  0  0  0  0
 61 68  1  0  0  0  0
 63 66  1  0  0  0  0
 63 75  1  0  0  0  0
 64 77  1  0  0  0  0
 65 84  1  0  0  0  0
 67 69  1  0  0  0  0
M  CHG  1  77   1
M  ISO  4  36 100  65 101  76 100  84 101
M  END
> <Batch ID>
0092

> <Smiles>
CCC(C)c1cc(C[100NH:0][100C:0](=O)N2CCCC(n3nc(-c4ccc(Oc5ccc(F)cc5F)cc4)c(C(N)=O)c3N)C2)n(CCC[101CH:1](C)[101O:1]c2ccc3c(c2)CN(C(=O)C(NC(=O)C(C)NC)C(C)(C)C)C(C(=O)NC2CCCc4ccccc42)C3)c1

> <Shape>
0.158

> <Color>
0.073

> <Negative vol penalty>
0.000

$$$$

  -OEChem-04052319143D

 84 92  0     1  0  0  0  0  0999 V2000
  -27.0057  -23.4398   18.3916 C   0  0  0  0  0  0  0  0  0  0  0  0
  -25.8305  -24.0062   18.8748 C   0  0  0  0  0  0  0  0  0  0  0  0
  -27.3893  -15.9480   21.8413 C   0  0  0  0  0  0  0  0  0  0  0  0
  -25.7147  -16.7455   20.2932 C   0  0  0  0  0  0  0  0  0  0  0  0
  -28.2268  -23.7585   18.9842 C   0  0  0  0  0  0  0  0  0  0  0  0
  -25.8756  -24.8909   19.9517 C   0  0  0  0  0  0  0  0  0  0  0  0
  -22.9936  -28.9902   19.2206 C   0  0  0  0  0  0  0  0  0  0  0  0
  -27.1721  -14.6416   21.4033 C   0  0  0  0  0  0  0  0  0  0  0  0
  -25.4975  -15.4391   19.8552 C   0  0  0  0  0  0  0  0  0  0  0  0
  -21.6197  -28.8442   19.4075 C   0  0  0  0  0  0  0  0  0  0  0  0
  -24.2455  -12.2730   18.5833 C   0  0  0  0  0  0  0  0  0  0  0  0
  -22.9246  -11.8517   18.4300 C   0  0  0  0  0  0  0  0  0  0  0  0
  -21.8192  -29.8306   21.5999 C   0  0  0  0  0  0  0  0  0  0  0  0
  -20.4640  -26.0904   22.6891 C   0  0  0  0  0  0  0  0  0  0  0  0
  -22.5184  -12.2724   20.7742 C   0  0  0  0  0  0  0  0  0  0  0  0
  -19.4744  -23.5865   22.2455 C   0  0  0  0  0  0  0  0  0  0  0  0
  -26.6605  -16.9999   21.2863 C   0  0  0  0  0  0  0  0  0  0  0  0
  -27.8058  -19.2784   21.2199 C   0  0  0  0  0  0  0  0  0  0  0  0
  -28.2880  -24.6549   20.0627 C   0  0  0  0  0  0  0  0  0  0  0  0
  -23.7936  -29.5484   20.2280 C   0  0  0  0  0  0  0  0  0  0  0  0
  -27.0986  -25.2208   20.5602 C   0  0  0  0  0  0  0  0  0  0  0  0
  -23.2026  -29.9849   21.4223 C   0  0  0  0  0  0  0  0  0  0  0  0
  -19.1107  -25.9309   22.4128 C   0  0  0  0  0  0  0  0  0  0  0  0
  -18.5985  -24.6584   22.1856 C   0  0  0  0  0  0  0  0  0  0  0  0
  -26.2263  -14.3872   20.4102 C   0  0  0  0  0  0  0  0  0  0  0  0
  -21.0328  -29.2617   20.5984 C   0  0  0  0  0  0  0  0  0  0  0  0
  -24.7029  -12.6939   19.8320 C   0  0  0  0  0  0  0  0  0  0  0  0
  -22.0611  -11.8514   19.5255 C   0  0  0  0  0  0  0  0  0  0  0  0
  -23.8393  -12.6937   20.9275 C   0  0  0  0  0  0  0  0  0  0  0  0
  -26.8840  -18.3495   21.7388 C   0  0  0  0  0  0  0  0  0  0  0  0
  -21.2564  -24.9544   22.7267 C   0  0  0  0  0  0  0  0  0  0  0  0
  -27.6296  -20.4030   21.9885 C   0  0  0  0  0  0  0  0  0  0  0  0
  -28.7379  -19.1374   20.1396 C   0  0  0  0  0  0  0  0  0  0  0  0
  -26.2243  -28.5119   21.9946 C   0  0  0  0  0  0  0  0  0  0  0  0
  -26.2866  -31.5899   23.0163 C   0  0  0  0  0  0  0  0  0  0  0  0
  -24.6055  -34.5236   23.4790 C   0  0  0  0  0  0  0  0  0  0  0  0
  -23.4451  -23.3779   24.6633 C   0  0  0  0  0  0  0  0  0  0  0  0
  -29.6260  -24.9323   20.7011 C   0  0  0  0  0  0  0  0  0  0  0  0
  -25.2700  -29.7235   20.0003 C   0  0  0  0  0  0  0  0  0  0  0  0
  -24.0142  -30.6091   22.5268 C   0  0  0  0  0  0  0  0  0  0  0  0
  -29.6287  -26.1679   21.5975 C   0  0  0  0  0  0  0  0  0  0  0  0
  -25.7164  -21.3044   26.4572 C   0  0  0  0  0  0  0  0  0  0  0  0
  -28.4124  -26.1623   22.5180 C   0  0  0  0  0  0  0  0  0  0  0  0
  -26.3347  -20.4174   25.3751 C   0  0  0  0  0  0  0  0  0  0  0  0
  -24.2419  -21.5884   26.1796 C   0  0  0  0  0  0  0  0  0  0  0  0
  -24.5774  -21.2566   23.7607 C   0  0  0  0  0  0  0  0  0  0  0  0
  -27.1094  -26.2039   21.7107 C   0  0  1  0  0  0  0  0  0  0  0  0
  -26.0658  -29.8333   21.2973 C   0  0  1  0  0  0  0  0  0  0  0  0
  -26.0780  -20.9885   23.9676 C   0  0  2  0  0  0  0  0  0  0  0  0
  -16.4607  -23.5653   22.9528 C   0  0  0  0  0  0  0  0  0  0  0  0
  -16.9350  -23.8155   20.4896 C   0  0  0  0  0  0  0  0  0  0  0  0
  -24.9108  -36.8497   24.3699 C   0  0  0  0  0  0  0  0  0  0  0  0
  -26.1353  -30.5150   25.8679 C   0  0  0  0  0  0  0  0  0  0  0  0
  -25.4918  -32.8129   26.6257 C   0  0  0  0  0  0  0  0  0  0  0  0
  -27.7133  -32.4302   25.5574 C   0  0  0  0  0  0  0  0  0  0  0  0
  -24.0044  -35.7354   20.8467 C   0  0  0  0  0  0  0  0  0  0  0  0
  -18.2209  -27.1473   22.3650 C   0  0  0  0  0  0  0  0  0  0  0  0
  -22.7135  -25.0877   23.0200 C   0  0  0  0  0  0  0  0  0  0  0  0
  -17.8538  -27.5865   20.9459 C   0  0  0  0  0  0  0  0  0  0  0  0
  -19.0568  -28.0277   20.1202 C   0  0  0  0  0  0  0  0  0  1  0  0
  -17.1577  -24.4310   21.8850 C   0  0  0  0  0  0  0  0  0  0  0  0
  -25.6249  -32.3589   24.1342 C   0  0  1  0  0  0  0  0  0  0  0  0
  -24.9698  -35.9577   23.1396 C   0  0  2  0  0  0  0  0  0  0  0  0
  -26.2260  -32.0158   25.5264 C   0  0  0  0  0  0  0  0  0  0  0  0
  -20.7949  -23.7021   22.5112 N   0  0  0  0  0  0  0  0  0  0  0  0
  -26.1750  -18.8413   22.7583 N   0  0  0  0  0  0  0  0  0  0  0  0
  -26.6514  -20.0914   22.8863 N   0  0  0  0  0  0  0  0  0  0  0  0
  -25.4548  -30.7530   22.2591 N   0  0  0  0  0  0  0  0  0  0  0  0
  -24.0671  -22.1295   24.8296 N   0  0  0  0  0  0  0  0  0  0  0  0
  -28.2176  -21.6181   21.9772 N   0  0  0  0  0  0  0  0  0  0  0  0
  -28.7886  -17.9149   19.4561 N   0  0  0  0  0  0  0  0  0  0  0  0
  -26.8534  -27.5457   21.2328 N   0  0  0  0  0  0  0  0  0  0  0  0
  -25.7215  -33.7690   23.7727 N   0  0  0  0  0  0  0  0  0  0  0  0
  -23.3250  -23.8201   23.3515 N   0  0  0  0  0  0  0  0  0  0  0  0
  -24.0310  -36.5027   22.1185 N   0  3  0  0  0  0  0  0  0  0  0  0
  -29.5147  -20.0625   19.8014 O   0  0  0  0  0  0  0  0  0  0  0  0
  -25.8082  -28.3791   23.1395 O   0  0  0  0  0  0  0  0  0  0  0  0
  -27.4957  -31.7322   22.8176 O   0  0  0  0  0  0  0  0  0  0  0  0
  -23.4465  -34.1147   23.4867 O   0  0  0  0  0  0  0  0  0  0  0  0
  -23.0325  -24.0511   25.6138 O   0  0  0  0  0  0  0  0  0  0  0  0
  -26.0142  -13.1126   19.9824 O   0  0  0  0  0  0  0  0  0  0  0  0
  -19.6921  -29.1198   20.7836 O   0  0  0  0  0  0  0  0  0  1  0  0
  -20.7923  -11.4483   19.3778 F   0  0  0  0  0  0  0  0  0  0  0  0
  -24.2727  -13.0981   22.1293 F   0  0  0  0  0  0  0  0  0  0  0  0
  1  2  1  0  0  0  0
  1  5  2  0  0  0  0
  2  6  2  0  0  0  0
  3  8  2  0  0  0  0
  3 17  1  0  0  0  0
  4  9  1  0  0  0  0
  4 17  2  0  0  0  0
  5 19  1  0  0  0  0
  6 21  1  0  0  0  0
  7 10  2  0  0  0  0
  7 20  1  0  0  0  0
  8 25  1  0  0  0  0
  9 25  2  0  0  0  0
 10 26  1  0  0  0  0
 11 12  2  0  0  0  0
 11 27  1  0  0  0  0
 12 28  1  0  0  0  0
 13 22  1  0  0  0  0
 13 26  2  0  0  0  0
 14 23  1  0  0  0  0
 14 31  2  0  0  0  0
 15 28  2  0  0  0  0
 15 29  1  0  0  0  0
 16 24  1  0  0  0  0
 16 65  2  0  0  0  0
 17 30  1  0  0  0  0
 18 30  1  0  0  0  0
 18 32  2  0  0  0  0
 18 33  1  0  0  0  0
 19 21  2  0  0  0  0
 19 38  1  0  0  0  0
 20 22  2  0  0  0  0
 20 39  1  0  0  0  0
 21 47  1  0  0  0  0
 22 40  1  0  0  0  0
 23 24  2  0  0  0  0
 23 57  1  0  0  0  0
 24 61  1  0  0  0  0
 25 81  1  0  0  0  0
 26 82  1  0  0  0  0
 27 29  2  0  0  0  0
 27 81  1  0  0  0  0
 28 83  1  0  0  0  0
 29 84  1  0  0  0  0
 30 66  2  0  0  0  0
 31 58  1  0  0  0  0
 31 65  1  0  0  0  0
 32 67  1  0  0  0  0
 32 70  1  0  0  0  0
 33 71  1  0  0  0  0
 33 76  2  0  0  0  0
 34 48  1  0  0  0  0
 34 72  1  0  0  0  0
 34 77  2  0  0  0  0
 35 62  1  0  0  0  0
 35 68  1  0  0  0  0
 35 78  2  0  0  0  0
 36 63  1  0  0  0  0
 36 73  1  0  0  0  0
 36 79  2  0  0  0  0
 37 69  1  0  0  0  0
 37 74  1  0  0  0  0
 37 80  2  0  0  0  0
 38 41  1  0  0  0  0
 39 48  1  0  0  0  0
 40 68  1  0  0  0  0
 41 43  1  0  0  0  0
 42 44  1  0  0  0  0
 42 45  1  0  0  0  0
 43 47  1  0  0  0  0
 44 49  1  0  0  0  0
 45 69  1  0  0  0  0
 46 49  1  0  0  0  0
 46 69  1  0  0  0  0
 47 72  1  0  0  0  0
 48 68  1  0  0  0  0
 49 67  1  0  0  0  0
 50 61  1  0  0  0  0
 51 61  1  0  0  0  0
 52 63  1  0  0  0  0
 53 64  1  0  0  0  0
 54 64  1  0  0  0  0
 55 64  1  0  0  0  0
 56 75  1  0  0  0  0
 57 59  1  0  0  0  0
 58 74  1  0  0  0  0
 59 60  1  0  0  0  0
 60 82  1  0  0  0  0
 62 64  1  0  0  0  0
 62 73  1  0  0  0  0
 63 75  1  0  0  0  0
 66 67  1  0  0  0  0
M  CHG  1  75   1
M  ISO  4  37 100  60 101  74 100  82 101
M  END
> <Batch ID>
0092

> <Smiles>
CNC(C)C(=O)NC(C(=O)N1Cc2cc([101O:1][101CH2:1]CCc3cc(C[100NH:0][100C:0](=O)N4CCCC(n5nc(-c6ccc(Oc7ccc(F)cc7F)cc6)c(C(N)=O)c5N)C4)ncc3C(C)C)ccc2CC1C(=O)NC1CCCc2ccccc21)C(C)(C)C

> <Shape>
0.265

> <Color>
0.061

> <Negative vol penalty>
0.000

$$$$

  -OEChem-04052319143D

 83 91  0     1  0  0  0  0  0999 V2000
  -23.6989  -30.0762   21.8456 C   0  0  0  0  0  0  0  0  0  0  0  0
  -23.0335  -28.8705   22.0434 C   0  0  0  0  0  0  0  0  0  0  0  0
  -28.8554  -12.6833   20.9374 C   0  0  0  0  0  0  0  0  0  0  0  0
  -28.2047  -12.6907   18.6107 C   0  0  0  0  0  0  0  0  0  0  0  0
  -24.8841  -30.1048   21.1119 C   0  0  0  0  0  0  0  0  0  0  0  0
  -23.5524  -27.6929   21.5065 C   0  0  0  0  0  0  0  0  0  0  0  0
  -23.2832  -22.0922   23.9694 C   0  0  0  0  0  0  0  0  0  0  0  0
  -19.3855  -17.5602   21.7500 C   0  0  0  0  0  0  0  0  0  0  0  0
  -30.1975  -12.6273   20.5619 C   0  0  0  0  0  0  0  0  0  0  0  0
  -29.5469  -12.6347   18.2352 C   0  0  0  0  0  0  0  0  0  0  0  0
  -22.4360  -21.0082   23.7441 C   0  0  0  0  0  0  0  0  0  0  0  0
  -33.8094  -12.8466   20.2133 C   0  0  0  0  0  0  0  0  0  0  0  0
  -34.7033  -13.6893   20.8738 C   0  0  0  0  0  0  0  0  0  0  0  0
  -18.6929  -16.3980   21.4292 C   0  0  0  0  0  0  0  0  0  0  0  0
  -24.0565  -20.0648   22.2265 C   0  0  0  0  0  0  0  0  0  0  0  0
  -33.4584  -15.6121   20.1055 C   0  0  0  0  0  0  0  0  0  0  0  0
  -27.8589  -12.7150   19.9618 C   0  0  0  0  0  0  0  0  0  0  0  0
  -25.6981  -13.9272   20.5689 C   0  0  0  0  0  0  0  0  0  0  0  0
  -25.4229  -28.9254   20.5739 C   0  0  0  0  0  0  0  0  0  0  0  0
  -24.5209  -22.1762   23.3155 C   0  0  0  0  0  0  0  0  0  0  0  0
  -24.7452  -27.7059   20.7637 C   0  0  0  0  0  0  0  0  0  0  0  0
  -24.9188  -21.1497   22.4472 C   0  0  0  0  0  0  0  0  0  0  0  0
  -20.0021  -17.6752   22.9910 C   0  0  0  0  0  0  0  0  0  0  0  0
  -30.5433  -12.6030   19.2108 C   0  0  0  0  0  0  0  0  0  0  0  0
  -22.8213  -19.9957   22.8703 C   0  0  0  0  0  0  0  0  0  0  0  0
  -32.7400  -13.3866   19.4987 C   0  0  0  0  0  0  0  0  0  0  0  0
  -34.5278  -15.0721   20.8200 C   0  0  0  0  0  0  0  0  0  0  0  0
  -32.5645  -14.7694   19.4449 C   0  0  0  0  0  0  0  0  0  0  0  0
  -26.4722  -12.7722   20.3490 C   0  0  0  0  0  0  0  0  0  0  0  0
  -18.6467  -15.3880   22.3766 C   0  0  0  0  0  0  0  0  0  0  0  0
  -19.8972  -16.6081   23.8685 C   0  0  0  0  0  0  0  0  0  0  0  0
  -24.4576  -13.4487   20.9134 C   0  0  0  0  0  0  0  0  0  0  0  0
  -26.0672  -15.3092   20.4705 C   0  0  0  0  0  0  0  0  0  0  0  0
  -25.8377  -24.2111   21.2590 C   0  0  0  0  0  0  0  0  0  0  0  0
  -28.4699  -22.3740   21.7268 C   0  0  0  0  0  0  0  0  0  0  0  0
  -29.7699  -19.3531   22.6386 C   0  0  0  0  0  0  0  0  0  0  0  0
  -20.2064   -9.9231   20.1114 C   0  0  0  0  0  0  0  0  0  0  0  0
  -26.6816  -29.0133   19.7477 C   0  0  0  0  0  0  0  0  0  0  0  0
  -25.4349  -23.3389   23.5899 C   0  0  0  0  0  0  0  0  0  0  0  0
  -26.2460  -21.1825   21.7360 C   0  0  0  0  0  0  0  0  0  0  0  0
  -27.3628  -27.6646   19.5302 C   0  0  0  0  0  0  0  0  0  0  0  0
  -22.9418   -8.7645   22.0741 C   0  0  0  0  0  0  0  0  0  0  0  0
  -26.3399  -26.6099   19.1200 C   0  0  0  0  0  0  0  0  0  0  0  0
  -24.0415   -9.7953   21.8134 C   0  0  0  0  0  0  0  0  0  0  0  0
  -22.1065   -8.5018   20.8230 C   0  0  0  0  0  0  0  0  0  0  0  0
  -22.6353  -10.7388   19.9343 C   0  0  0  0  0  0  0  0  0  0  0  0
  -25.2897  -26.4036   20.2181 C   0  0  1  0  0  0  0  0  0  0  0  0
  -26.4497  -23.5769   22.4760 C   0  0  1  0  0  0  0  0  0  0  0  0
  -23.4691  -11.0784   21.1817 C   0  0  2  0  0  0  0  0  0  0  0  0
  -20.5420  -16.6744   25.2141 C   0  0  0  0  0  0  0  0  0  0  0  0
  -31.9538  -18.1418   22.8846 C   0  0  0  0  0  0  0  0  0  0  0  0
  -28.6294  -22.0510   18.6969 C   0  0  0  0  0  0  0  0  0  0  0  0
  -30.1864  -20.1232   19.0543 C   0  0  0  0  0  0  0  0  0  0  0  0
  -30.8327  -22.4057   19.8256 C   0  0  0  0  0  0  0  0  0  0  0  0
  -29.3454  -18.9373   25.5379 C   0  0  0  0  0  0  0  0  0  0  0  0
  -20.7499  -18.9274   23.3435 C   0  0  0  0  0  0  0  0  0  1  0  0
  -17.9134  -14.1262   22.0649 C   0  0  0  0  0  0  0  0  0  0  0  0
  -18.4101  -11.4673   19.3715 C   0  0  0  0  0  0  0  0  0  0  0  0
  -17.7725  -12.1198   20.5839 C   0  0  0  0  0  0  0  0  0  0  0  0
  -29.0392  -21.1363   21.0763 C   0  0  1  0  0  0  0  0  0  0  0  0
  -30.9001  -18.9867   23.5835 C   0  0  2  0  0  0  0  0  0  0  0  0
  -29.6460  -21.4291   19.6751 C   0  0  0  0  0  0  0  0  0  0  0  0
  -25.7815  -11.6448   20.5381 N   0  0  0  0  0  0  0  0  0  0  0  0
  -19.2331  -15.4634   23.5923 N   0  0  0  0  0  0  0  0  0  0  0  0
  -24.5603  -12.0890   20.8805 N   0  0  0  0  0  0  0  0  0  0  0  0
  -27.1018  -22.3432   22.0323 N   0  0  0  0  0  0  0  0  0  0  0  0
  -21.5919   -9.7588   20.2743 N   0  0  0  0  0  0  0  0  0  0  0  0
  -23.2999  -14.0624   21.2383 N   0  0  0  0  0  0  0  0  0  0  0  0
  -27.3827  -15.6249   20.1045 N   0  0  0  0  0  0  0  0  0  0  0  0
  -25.8298  -25.5926   21.2881 N   0  0  0  0  0  0  0  0  0  0  0  0
  -29.9866  -20.5721   22.0316 N   0  0  0  0  0  0  0  0  0  0  0  0
  -19.8028  -11.1466   19.5910 N   0  0  0  0  0  0  0  0  0  0  0  0
  -30.3743  -18.2158   24.7455 N   0  3  0  0  0  0  0  0  0  0  0  0
  -18.4527  -13.4083   20.8775 N   0  3  0  0  0  0  0  0  0  0  0  0
  -25.2590  -16.2365   20.7164 O   0  0  0  0  0  0  0  0  0  0  0  0
  -25.4059  -23.4996   20.3595 O   0  0  0  0  0  0  0  0  0  0  0  0
  -29.2132  -23.3300   21.9619 O   0  0  0  0  0  0  0  0  0  0  0  0
  -28.7944  -18.6286   22.4543 O   0  0  0  0  0  0  0  0  0  0  0  0
  -19.3893   -9.0464   20.4127 O   0  0  0  0  0  0  0  0  0  0  0  0
  -31.8530  -12.5486   18.8441 O   0  0  0  0  0  0  0  0  0  0  0  0
  -21.9960  -18.9368   22.6480 O   0  0  0  0  0  0  0  0  0  1  0  0
  -35.3854  -15.8811   21.4557 F   0  0  0  0  0  0  0  0  0  0  0  0
  -31.5384  -15.2940   18.7610 F   0  0  0  0  0  0  0  0  0  0  0  0
  1  2  1  0  0  0  0
  1  5  2  0  0  0  0
  2  6  2  0  0  0  0
  3  9  2  0  0  0  0
  3 17  1  0  0  0  0
  4 10  1  0  0  0  0
  4 17  2  0  0  0  0
  5 19  1  0  0  0  0
  6 21  1  0  0  0  0
  7 11  2  0  0  0  0
  7 20  1  0  0  0  0
  8 14  2  0  0  0  0
  8 23  1  0  0  0  0
  9 24  1  0  0  0  0
 10 24  2  0  0  0  0
 11 25  1  0  0  0  0
 12 13  2  0  0  0  0
 12 26  1  0  0  0  0
 13 27  1  0  0  0  0
 14 30  1  0  0  0  0
 15 22  1  0  0  0  0
 15 25  2  0  0  0  0
 16 27  2  0  0  0  0
 16 28  1  0  0  0  0
 17 29  1  0  0  0  0
 18 29  1  0  0  0  0
 18 32  2  0  0  0  0
 18 33  1  0  0  0  0
 19 21  2  0  0  0  0
 19 38  1  0  0  0  0
 20 22  2  0  0  0  0
 20 39  1  0  0  0  0
 21 47  1  0  0  0  0
 22 40  1  0  0  0  0
 23 31  2  0  0  0  0
 23 56  1  0  0  0  0
 24 80  1  0  0  0  0
 25 81  1  0  0  0  0
 26 28  2  0  0  0  0
 26 80  1  0  0  0  0
 27 82  1  0  0  0  0
 28 83  1  0  0  0  0
 29 63  2  0  0  0  0
 30 57  1  0  0  0  0
 30 64  2  0  0  0  0
 31 50  1  0  0  0  0
 31 64  1  0  0  0  0
 32 65  1  0  0  0  0
 32 68  1  0  0  0  0
 33 69  1  0  0  0  0
 33 75  2  0  0  0  0
 34 48  1  0  0  0  0
 34 70  1  0  0  0  0
 34 76  2  0  0  0  0
 35 60  1  0  0  0  0
 35 66  1  0  0  0  0
 35 77  2  0  0  0  0
 36 61  1  0  0  0  0
 36 71  1  0  0  0  0
 36 78  2  0  0  0  0
 37 67  1  0  0  0  0
 37 72  1  0  0  0  0
 37 79  2  0  0  0  0
 38 41  1  0  0  0  0
 39 48  1  0  0  0  0
 40 66  1  0  0  0  0
 41 43  1  0  0  0  0
 42 44  1  0  0  0  0
 42 45  1  0  0  0  0
 43 47  1  0  0  0  0
 44 49  1  0  0  0  0
 45 67  1  0  0  0  0
 46 49  1  0  0  0  0
 46 67  1  0  0  0  0
 47 70  1  0  0  0  0
 48 66  1  0  0  0  0
 49 65  1  0  0  0  0
 51 61  1  0  0  0  0
 52 62  1  0  0  0  0
 53 62  1  0  0  0  0
 54 62  1  0  0  0  0
 55 73  1  0  0  0  0
 56 81  1  0  0  0  0
 57 74  1  0  0  0  0
 58 59  1  0  0  0  0
 58 72  1  0  0  0  0
 59 74  1  0  0  0  0
 60 62  1  0  0  0  0
 60 71  1  0  0  0  0
 61 73  1  0  0  0  0
 63 65  1  0  0  0  0
M  CHG  2  73   1  74   1
M  ISO  4  37 100  56 101  72 100  81 101
M  END
> <Batch ID>
0092

> <Smiles>
CNC(C)C(=O)NC(C(=O)N1Cc2cc([101O:1][101CH2:1]c3ccc(CNCC[100NH:0][100C:0](=O)N4CCCC(n5nc(-c6ccc(Oc7ccc(F)cc7F)cc6)c(C(N)=O)c5N)C4)nc3C)ccc2CC1C(=O)NC1CCCc2ccccc21)C(C)(C)C

> <Shape>
0.212

> <Color>
0.096

> <Negative vol penalty>
0.000

$$$$

  -OEChem-04052319143D

 91 99  0     1  0  0  0  0  0999 V2000
  -27.6191  -33.8284   25.8299 C   0  0  0  0  0  0  0  0  0  0  0  0
  -27.8682  -32.5991   25.2280 C   0  0  0  0  0  0  0  0  0  0  0  0
  -26.3010  -16.3443   22.3798 C   0  0  0  0  0  0  0  0  0  0  0  0
  -26.0996  -15.6206   20.0835 C   0  0  0  0  0  0  0  0  0  0  0  0
  -26.3135  -34.1905   26.1588 C   0  0  0  0  0  0  0  0  0  0  0  0
  -26.8118  -31.7306   24.9558 C   0  0  0  0  0  0  0  0  0  0  0  0
  -27.1094  -29.7010   20.3257 C   0  0  0  0  0  0  0  0  0  0  0  0
  -30.8735  -24.5627   20.6799 C   0  0  0  0  0  0  0  0  0  0  0  0
  -31.6125  -23.3948   20.4917 C   0  0  0  0  0  0  0  0  0  0  0  0
  -25.8963  -15.0818   22.8132 C   0  0  0  0  0  0  0  0  0  0  0  0
  -25.6949  -14.3580   20.5170 C   0  0  0  0  0  0  0  0  0  0  0  0
  -28.0091  -28.6510   20.1474 C   0  0  0  0  0  0  0  0  0  0  0  0
  -22.8724  -12.9133   21.6904 C   0  0  0  0  0  0  0  0  0  0  0  0
  -21.7778  -12.3293   21.0529 C   0  0  0  0  0  0  0  0  0  0  0  0
  -26.1925  -27.0732   20.3193 C   0  0  0  0  0  0  0  0  0  0  0  0
  -31.0580  -25.0593   18.3226 C   0  0  0  0  0  0  0  0  0  0  0  0
  -23.1643  -10.4703   20.3753 C   0  0  0  0  0  0  0  0  0  0  0  0
  -26.4026  -16.6137   21.0149 C   0  0  0  0  0  0  0  0  0  0  0  0
  -28.1363  -18.3492   20.3149 C   0  0  0  0  0  0  0  0  0  0  0  0
  -25.2395  -33.3300   25.8816 C   0  0  0  0  0  0  0  0  0  0  0  0
  -25.7437  -29.4440   20.5134 C   0  0  0  0  0  0  0  0  0  0  0  0
  -25.4907  -32.0809   25.2825 C   0  0  0  0  0  0  0  0  0  0  0  0
  -25.2771  -28.1218   20.4973 C   0  0  0  0  0  0  0  0  0  0  0  0
  -30.5962  -25.3950   19.5953 C   0  0  0  0  0  0  0  0  0  0  0  0
  -32.0743  -23.0591   19.2190 C   0  0  0  0  0  0  0  0  0  0  0  0
  -31.7970  -23.8914   18.1345 C   0  0  0  0  0  0  0  0  0  0  0  0
  -25.5932  -14.0887   21.8819 C   0  0  0  0  0  0  0  0  0  0  0  0
  -27.5511  -27.3367   20.1471 C   0  0  0  0  0  0  0  0  0  0  0  0
  -24.1130  -12.2759   21.6704 C   0  0  0  0  0  0  0  0  0  0  0  0
  -21.9238  -11.1078   20.3953 C   0  0  0  0  0  0  0  0  0  0  0  0
  -24.2589  -11.0544   21.0128 C   0  0  0  0  0  0  0  0  0  0  0  0
  -26.8201  -17.9178   20.5665 C   0  0  0  0  0  0  0  0  0  0  0  0
  -27.9988  -19.6557   19.9143 C   0  0  0  0  0  0  0  0  0  0  0  0
  -29.3727  -17.6329   20.4327 C   0  0  0  0  0  0  0  0  0  0  0  0
  -23.6604  -29.9836   22.8527 C   0  0  0  0  0  0  0  0  0  0  0  0
  -21.5275  -28.8514   20.6868 C   0  0  0  0  0  0  0  0  0  0  0  0
  -20.9479  -26.9520   17.9113 C   0  0  0  0  0  0  0  0  0  0  0  0
  -25.4107  -23.5751   16.9000 C   0  0  0  0  0  0  0  0  0  0  0  0
  -23.8507  -33.7449   26.2985 C   0  0  0  0  0  0  0  0  0  0  0  0
  -24.7823  -30.5890   20.6777 C   0  0  0  0  0  0  0  0  0  0  0  0
  -23.8179  -27.7936   20.6743 C   0  0  0  0  0  0  0  0  0  0  0  0
  -22.7457  -32.9265   25.6355 C   0  0  0  0  0  0  0  0  0  0  0  0
  -23.9907  -22.7382   20.0559 C   0  0  0  0  0  0  0  0  0  0  0  0
  -23.0708  -31.4377   25.7023 C   0  0  0  0  0  0  0  0  0  0  0  0
  -24.7041  -21.4424   20.4459 C   0  0  0  0  0  0  0  0  0  0  0  0
  -23.7318  -22.8094   18.5526 C   0  0  0  0  0  0  0  0  0  0  0  0
  -25.6382  -21.3150   18.0986 C   0  0  0  0  0  0  0  0  0  0  0  0
  -24.3685  -31.1221   24.9487 C   0  0  1  0  0  0  0  0  0  0  0  0
  -23.4862  -30.1858   21.3740 C   0  0  1  0  0  0  0  0  0  0  0  0
  -25.9711  -21.2227   19.5976 C   0  0  2  0  0  0  0  0  0  0  0  0
  -34.3050  -21.9551   19.5220 C   0  0  0  0  0  0  0  0  0  0  0  0
  -19.0972  -26.1874   16.3988 C   0  0  0  0  0  0  0  0  0  0  0  0
  -33.1091  -24.5165   14.4915 C   0  0  0  0  0  0  0  0  0  0  0  0
  -33.6913  -25.6901   16.6083 C   0  0  0  0  0  0  0  0  0  0  0  0
  -20.6191  -26.8574   22.8102 C   0  0  0  0  0  0  0  0  0  0  0  0
  -19.4957  -25.5454   20.9978 C   0  0  0  0  0  0  0  0  0  0  0  0
  -18.7655  -27.8814   21.4798 C   0  0  0  0  0  0  0  0  0  0  0  0
  -28.5580  -24.5987   13.2284 C   0  0  0  0  0  0  0  0  0  0  0  0
  -27.0701  -22.6010   13.3365 C   0  0  0  0  0  0  0  0  0  0  0  0
  -22.1773  -28.2559   15.5561 C   0  0  0  0  0  0  0  0  0  0  0  0
  -32.8645  -21.8042   19.0423 C   0  0  0  0  0  0  0  0  0  0  0  0
  -29.8016  -26.6515   19.7981 C   0  0  0  0  0  0  0  0  0  1  0  0
  -27.1813  -24.2098   15.2809 C   0  0  0  0  0  0  0  0  0  0  0  0
  -31.2887  -22.6277   16.0039 C   0  0  0  0  0  0  0  0  0  0  0  0
  -29.1442  -22.6340   14.7235 C   0  0  0  0  0  0  0  0  0  0  0  0
  -32.2814  -23.5526   16.7628 C   0  0  1  0  0  0  0  0  0  0  0  0
  -20.9842  -27.4880   20.3333 C   0  0  1  0  0  0  0  0  0  0  0  0
  -20.1701  -27.2380   16.6394 C   0  0  2  0  0  0  0  0  0  0  0  0
  -32.6218  -24.8340   15.9113 C   0  0  0  0  0  0  0  0  0  0  0  0
  -19.9940  -26.9488   21.4038 C   0  0  0  0  0  0  0  0  0  0  0  0
  -27.9985  -23.5111   14.1683 C   0  0  0  0  0  0  0  0  0  0  0  0
  -25.9132  -18.8729   20.3445 N   0  0  0  0  0  0  0  0  0  0  0  0
  -26.6607  -19.9175   19.9493 N   0  0  0  0  0  0  0  0  0  0  0  0
  -22.9181  -28.9473   20.8377 N   0  0  0  0  0  0  0  0  0  0  0  0
  -24.9734  -22.5945   17.8056 N   0  0  0  0  0  0  0  0  0  0  0  0
  -28.8931  -20.5948   19.5391 N   0  0  0  0  0  0  0  0  0  0  0  0
  -29.3336  -16.2979   20.8577 N   0  0  0  0  0  0  0  0  0  0  0  0
  -24.1309  -31.0976   23.5213 N   0  0  0  0  0  0  0  0  0  0  0  0
  -20.4112  -27.6108   18.9972 N   0  0  0  0  0  0  0  0  0  0  0  0
  -26.6001  -23.2953   16.2383 N   0  0  0  0  0  0  0  0  0  0  0  0
  -21.0863  -27.2519   15.4641 N   0  3  0  0  0  0  0  0  0  0  0  0
  -30.1327  -23.4213   15.5063 N   0  3  0  0  0  0  0  0  0  0  0  0
  -30.4808  -18.1659   20.1846 O   0  0  0  0  0  0  0  0  0  0  0  0
  -23.3866  -28.8977   23.3504 O   0  0  0  0  0  0  0  0  0  0  0  0
  -20.7474  -29.7981   20.8169 O   0  0  0  0  0  0  0  0  0  0  0  0
  -21.9309  -26.2148   17.9395 O   0  0  0  0  0  0  0  0  0  0  0  0
  -24.7902  -24.6249   16.7002 O   0  0  0  0  0  0  0  0  0  0  0  0
  -25.1985  -12.8565   22.3045 O   0  0  0  0  0  0  0  0  0  0  0  0
  -28.4273  -26.3100   19.9739 O   0  0  0  0  0  0  0  0  0  1  0  0
  -20.8722  -10.5464   19.7845 F   0  0  0  0  0  0  0  0  0  0  0  0
  -25.4479  -10.4367   20.9912 F   0  0  0  0  0  0  0  0  0  0  0  0
  1  2  1  0  0  0  0
  1  5  2  0  0  0  0
  2  6  2  0  0  0  0
  3 10  2  0  0  0  0
  3 18  1  0  0  0  0
  4 11  1  0  0  0  0
  4 18  2  0  0  0  0
  5 20  1  0  0  0  0
  6 22  1  0  0  0  0
  7 12  2  0  0  0  0
  7 21  1  0  0  0  0
  8  9  2  0  0  0  0
  8 24  1  0  0  0  0
  9 25  1  0  0  0  0
 10 27  1  0  0  0  0
 11 27  2  0  0  0  0
 12 28  1  0  0  0  0
 13 14  2  0  0  0  0
 13 29  1  0  0  0  0
 14 30  1  0  0  0  0
 15 23  1  0  0  0  0
 15 28  2  0  0  0  0
 16 24  2  0  0  0  0
 16 26  1  0  0  0  0
 17 30  2  0  0  0  0
 17 31  1  0  0  0  0
 18 32  1  0  0  0  0
 19 32  1  0  0  0  0
 19 33  2  0  0  0  0
 19 34  1  0  0  0  0
 20 22  2  0  0  0  0
 20 39  1  0  0  0  0
 21 23  2  0  0  0  0
 21 40  1  0  0  0  0
 22 48  1  0  0  0  0
 23 41  1  0  0  0  0
 24 62  1  0  0  0  0
 25 26  2  0  0  0  0
 25 61  1  0  0  0  0
 26 66  1  0  0  0  0
 27 88  1  0  0  0  0
 28 89  1  0  0  0  0
 29 31  2  0  0  0  0
 29 88  1  0  0  0  0
 30 90  1  0  0  0  0
 31 91  1  0  0  0  0
 32 72  2  0  0  0  0
 33 73  1  0  0  0  0
 33 76  1  0  0  0  0
 34 77  1  0  0  0  0
 34 83  2  0  0  0  0
 35 49  1  0  0  0  0
 35 78  1  0  0  0  0
 35 84  2  0  0  0  0
 36 67  1  0  0  0  0
 36 74  1  0  0  0  0
 36 85  2  0  0  0  0
 37 68  1  0  0  0  0
 37 79  1  0  0  0  0
 37 86  2  0  0  0  0
 38 75  1  0  0  0  0
 38 80  1  0  0  0  0
 38 87  2  0  0  0  0
 39 42  1  0  0  0  0
 40 49  1  0  0  0  0
 41 74  1  0  0  0  0
 42 44  1  0  0  0  0
 43 45  1  0  0  0  0
 43 46  1  0  0  0  0
 44 48  1  0  0  0  0
 45 50  1  0  0  0  0
 46 75  1  0  0  0  0
 47 50  1  0  0  0  0
 47 75  1  0  0  0  0
 48 78  1  0  0  0  0
 49 74  1  0  0  0  0
 50 73  1  0  0  0  0
 51 61  1  0  0  0  0
 52 68  1  0  0  0  0
 53 69  1  0  0  0  0
 54 69  1  0  0  0  0
 55 70  1  0  0  0  0
 56 70  1  0  0  0  0
 57 70  1  0  0  0  0
 58 71  1  0  0  0  0
 59 71  1  0  0  0  0
 60 81  1  0  0  0  0
 62 89  1  0  0  0  0
 63 71  1  0  0  0  0
 63 80  1  0  0  0  0
 64 66  1  0  0  0  0
 64 82  1  0  0  0  0
 65 71  1  0  0  0  0
 65 82  1  0  0  0  0
 66 69  1  0  0  0  0
 67 70  1  0  0  0  0
 67 79  1  0  0  0  0
 68 81  1  0  0  0  0
 72 73  1  0  0  0  0
M  CHG  2  81   1  82   1
M  ISO  4  38 100  62 101  80 100  89 101
M  END
> <Batch ID>
0092

> <Smiles>
CCc1ccc([101CH2:1][101O:1]c2ccc3c(c2)CN(C(=O)C(NC(=O)C(C)NC)C(C)(C)C)C(C(=O)NC2CCCc4ccccc42)C3)cc1C(CNCC(C)(C)C[100NH:0][100C:0](=O)N1CCCC(n2nc(-c3ccc(Oc4ccc(F)cc4F)cc3)c(C(N)=O)c2N)C1)C(C)C

> <Shape>
0.268

> <Color>
0.078

> <Negative vol penalty>
0.000

$$$$

  -OEChem-04052319143D

 85 93  0     1  0  0  0  0  0999 V2000
  -16.6217  -30.2958   23.5605 C   0  0  0  0  0  0  0  0  0  0  0  0
  -17.7575  -30.9704   23.9968 C   0  0  0  0  0  0  0  0  0  0  0  0
  -30.4204  -23.0637   28.1200 C   0  0  0  0  0  0  0  0  0  0  0  0
  -32.1834  -24.5321   27.3633 C   0  0  0  0  0  0  0  0  0  0  0  0
  -16.7363  -29.0134   23.0256 C   0  0  0  0  0  0  0  0  0  0  0  0
  -19.0086  -30.3624   23.8994 C   0  0  0  0  0  0  0  0  0  0  0  0
  -25.9093  -31.9353   22.7934 C   0  0  0  0  0  0  0  0  0  0  0  0
  -31.2403  -22.6122   29.1542 C   0  0  0  0  0  0  0  0  0  0  0  0
  -33.0033  -24.0807   28.3975 C   0  0  0  0  0  0  0  0  0  0  0  0
  -27.1658  -31.7262   23.3600 C   0  0  0  0  0  0  0  0  0  0  0  0
  -33.8128  -20.4524   29.5307 C   0  0  0  0  0  0  0  0  0  0  0  0
  -33.8617  -19.0783   29.7652 C   0  0  0  0  0  0  0  0  0  0  0  0
  -27.2524  -29.5391   22.3459 C   0  0  0  0  0  0  0  0  0  0  0  0
  -31.4972  -28.0917   20.4266 C   0  0  0  0  0  0  0  0  0  0  0  0
  -33.0462  -19.4326   32.0116 C   0  0  0  0  0  0  0  0  0  0  0  0
  -32.8902  -30.0116   20.2520 C   0  0  0  0  0  0  0  0  0  0  0  0
  -30.8920  -24.0236   27.2245 C   0  0  0  0  0  0  0  0  0  0  0  0
  -29.1541  -25.5788   26.1906 C   0  0  0  0  0  0  0  0  0  0  0  0
  -17.9906  -28.3932   22.9127 C   0  0  0  0  0  0  0  0  0  0  0  0
  -25.3091  -30.9419   22.0064 C   0  0  0  0  0  0  0  0  0  0  0  0
  -19.1400  -29.0699   23.3637 C   0  0  0  0  0  0  0  0  0  0  0  0
  -25.9893  -29.7391   21.7684 C   0  0  0  0  0  0  0  0  0  0  0  0
  -32.2758  -29.0602   21.0503 C   0  0  0  0  0  0  0  0  0  0  0  0
  -31.3587  -28.1040   19.0431 C   0  0  0  0  0  0  0  0  0  0  0  0
  -32.5317  -23.1207   29.2929 C   0  0  0  0  0  0  0  0  0  0  0  0
  -27.8364  -30.5268   23.1387 C   0  0  0  0  0  0  0  0  0  0  0  0
  -33.3807  -21.3167   30.5367 C   0  0  0  0  0  0  0  0  0  0  0  0
  -33.4784  -18.5684   31.0056 C   0  0  0  0  0  0  0  0  0  0  0  0
  -32.9973  -20.8067   31.7772 C   0  0  0  0  0  0  0  0  0  0  0  0
  -30.0457  -24.4899   26.1556 C   0  0  0  0  0  0  0  0  0  0  0  0
  -32.0139  -29.0982   18.3347 C   0  0  0  0  0  0  0  0  0  0  0  0
  -28.5949  -25.6051   24.9364 C   0  0  0  0  0  0  0  0  0  0  0  0
  -28.8579  -26.4853   27.2612 C   0  0  0  0  0  0  0  0  0  0  0  0
  -22.6506  -29.2126   22.2199 C   0  0  0  0  0  0  0  0  0  0  0  0
  -23.5382  -28.1976   19.2696 C   0  0  0  0  0  0  0  0  0  0  0  0
  -26.0448  -27.7135   17.0048 C   0  0  0  0  0  0  0  0  0  0  0  0
  -30.4667  -23.6496   19.5957 C   0  0  0  0  0  0  0  0  0  0  0  0
  -18.0591  -26.9871   22.3714 C   0  0  0  0  0  0  0  0  0  0  0  0
  -23.9648  -31.1936   21.3804 C   0  0  0  0  0  0  0  0  0  0  0  0
  -25.3973  -28.6489   20.9144 C   0  0  0  0  0  0  0  0  0  0  0  0
  -19.4655  -26.5616   21.9576 C   0  0  0  0  0  0  0  0  0  0  0  0
  -27.4657  -22.7347   21.2790 C   0  0  0  0  0  0  0  0  0  0  0  0
  -20.4759  -26.9357   23.0374 C   0  0  0  0  0  0  0  0  0  0  0  0
  -27.7062  -23.1791   22.7228 C   0  0  0  0  0  0  0  0  0  0  0  0
  -28.7429  -22.2036   20.6318 C   0  0  0  0  0  0  0  0  0  0  0  0
  -30.1379  -23.5633   22.1414 C   0  0  0  0  0  0  0  0  0  0  0  0
  -20.5176  -28.4535   23.2518 C   0  0  1  0  0  0  0  0  0  0  0  0
  -23.2243  -29.9097   21.0188 C   0  0  1  0  0  0  0  0  0  0  0  0
  -28.8913  -24.1587   22.8181 C   0  0  2  0  0  0  0  0  0  0  0  0
  -30.9408  -30.2538   16.3854 C   0  0  0  0  0  0  0  0  0  0  0  0
  -26.4686  -26.8319   14.6938 C   0  0  0  0  0  0  0  0  0  0  0  0
  -23.3043  -25.3420   20.3187 C   0  0  0  0  0  0  0  0  0  0  0  0
  -24.6223  -24.5783   18.3318 C   0  0  0  0  0  0  0  0  0  0  0  0
  -22.4084  -25.6813   18.0086 C   0  0  0  0  0  0  0  0  0  0  0  0
  -27.0330  -30.3381   16.0593 C   0  0  0  0  0  0  0  0  0  0  0  0
  -32.4457  -29.0755   22.5485 C   0  0  0  0  0  0  0  0  0  0  0  0
  -30.5274  -27.0681   18.3683 C   0  0  0  0  0  0  0  0  0  0  0  0
  -31.9005  -29.1612   16.8465 C   0  0  0  0  0  0  0  0  0  0  0  0
  -31.3902  -29.9081   23.2796 C   0  0  0  0  0  0  0  0  0  0  0  0
  -31.3325  -25.9187   17.7288 C   0  0  0  0  0  0  0  0  0  0  0  0
  -32.2256  -25.1579   18.7064 C   0  0  0  0  0  0  0  0  0  0  0  0
  -29.9614  -29.4711   22.9781 C   0  0  0  0  0  0  0  0  0  1  0  0
  -24.3906  -27.0707   18.7383 C   0  0  1  0  0  0  0  0  0  0  0  0
  -26.1519  -28.0613   15.5311 C   0  0  2  0  0  0  0  0  0  0  0  0
  -23.6920  -25.6877   18.8671 C   0  0  0  0  0  0  0  0  0  0  0  0
  -32.7789  -30.0557   18.9054 N   0  0  0  0  0  0  0  0  0  0  0  0
  -30.0556  -23.8694   24.9729 N   0  0  0  0  0  0  0  0  0  0  0  0
  -29.1632  -24.5706   24.2531 N   0  0  0  0  0  0  0  0  0  0  0  0
  -24.0779  -28.9399   20.3295 N   0  0  0  0  0  0  0  0  0  0  0  0
  -29.8273  -23.1807   20.7551 N   0  0  0  0  0  0  0  0  0  0  0  0
  -27.6774  -26.4121   24.3624 N   0  0  0  0  0  0  0  0  0  0  0  0
  -29.5226  -26.3159   28.4834 N   0  0  0  0  0  0  0  0  0  0  0  0
  -21.2742  -29.0924   22.1964 N   0  0  0  0  0  0  0  0  0  0  0  0
  -24.7447  -27.4363   17.3710 N   0  0  0  0  0  0  0  0  0  0  0  0
  -31.4794  -24.5787   19.8011 N   0  0  0  0  0  0  0  0  0  0  0  0
  -27.2288  -29.0683   15.3134 N   0  3  0  0  0  0  0  0  0  0  0  0
  -28.0162  -27.4079   27.1427 O   0  0  0  0  0  0  0  0  0  0  0  0
  -23.4012  -28.8121   23.1018 O   0  0  0  0  0  0  0  0  0  0  0  0
  -22.4371  -28.4160   18.7580 O   0  0  0  0  0  0  0  0  0  0  0  0
  -27.0178  -27.6864   17.7552 O   0  0  0  0  0  0  0  0  0  0  0  0
  -30.1545  -23.2725   18.4611 O   0  0  0  0  0  0  0  0  0  0  0  0
  -33.3320  -22.6806   30.3021 O   0  0  0  0  0  0  0  0  0  0  0  0
  -29.0627  -30.3199   23.6911 O   0  0  0  0  0  0  0  0  0  1  0  0
  -33.5239  -17.2486   31.2301 F   0  0  0  0  0  0  0  0  0  0  0  0
  -32.5802  -21.6320   32.7471 F   0  0  0  0  0  0  0  0  0  0  0  0
  1  2  1  0  0  0  0
  1  5  2  0  0  0  0
  2  6  2  0  0  0  0
  3  8  2  0  0  0  0
  3 17  1  0  0  0  0
  4  9  1  0  0  0  0
  4 17  2  0  0  0  0
  5 19  1  0  0  0  0
  6 21  1  0  0  0  0
  7 10  2  0  0  0  0
  7 20  1  0  0  0  0
  8 25  1  0  0  0  0
  9 25  2  0  0  0  0
 10 26  1  0  0  0  0
 11 12  2  0  0  0  0
 11 27  1  0  0  0  0
 12 28  1  0  0  0  0
 13 22  1  0  0  0  0
 13 26  2  0  0  0  0
 14 23  2  0  0  0  0
 14 24  1  0  0  0  0
 15 28  2  0  0  0  0
 15 29  1  0  0  0  0
 16 23  1  0  0  0  0
 16 66  2  0  0  0  0
 17 30  1  0  0  0  0
 18 30  1  0  0  0  0
 18 32  2  0  0  0  0
 18 33  1  0  0  0  0
 19 21  2  0  0  0  0
 19 38  1  0  0  0  0
 20 22  2  0  0  0  0
 20 39  1  0  0  0  0
 21 47  1  0  0  0  0
 22 40  1  0  0  0  0
 23 56  1  0  0  0  0
 24 31  2  0  0  0  0
 24 57  1  0  0  0  0
 25 82  1  0  0  0  0
 26 83  1  0  0  0  0
 27 29  2  0  0  0  0
 27 82  1  0  0  0  0
 28 84  1  0  0  0  0
 29 85  1  0  0  0  0
 30 67  2  0  0  0  0
 31 58  1  0  0  0  0
 31 66  1  0  0  0  0
 32 68  1  0  0  0  0
 32 71  1  0  0  0  0
 33 72  1  0  0  0  0
 33 77  2  0  0  0  0
 34 48  1  0  0  0  0
 34 73  1  0  0  0  0
 34 78  2  0  0  0  0
 35 63  1  0  0  0  0
 35 69  1  0  0  0  0
 35 79  2  0  0  0  0
 36 64  1  0  0  0  0
 36 74  1  0  0  0  0
 36 80  2  0  0  0  0
 37 70  1  0  0  0  0
 37 75  1  0  0  0  0
 37 81  2  0  0  0  0
 38 41  1  0  0  0  0
 39 48  1  0  0  0  0
 40 69  1  0  0  0  0
 41 43  1  0  0  0  0
 42 44  1  0  0  0  0
 42 45  1  0  0  0  0
 43 47  1  0  0  0  0
 44 49  1  0  0  0  0
 45 70  1  0  0  0  0
 46 49  1  0  0  0  0
 46 70  1  0  0  0  0
 47 73  1  0  0  0  0
 48 69  1  0  0  0  0
 49 68  1  0  0  0  0
 50 58  1  0  0  0  0
 51 64  1  0  0  0  0
 52 65  1  0  0  0  0
 53 65  1  0  0  0  0
 54 65  1  0  0  0  0
 55 76  1  0  0  0  0
 56 59  1  0  0  0  0
 57 60  1  0  0  0  0
 59 62  1  0  0  0  0
 60 61  1  0  0  0  0
 61 75  1  0  0  0  0
 62 83  1  0  0  0  0
 63 65  1  0  0  0  0
 63 74  1  0  0  0  0
 64 76  1  0  0  0  0
 67 68  1  0  0  0  0
M  CHG  1  76   1
M  ISO  4  37 100  62 101  75 100  83 101
M  END
> <Batch ID>
0092

> <Smiles>
CCc1ncc(CC[101CH2:1][101O:1]c2ccc3c(c2)CN(C(=O)C(NC(=O)C(C)NC)C(C)(C)C)C(C(=O)NC2CCCc4ccccc42)C3)cc1CCC[100NH:0][100C:0](=O)N1CCCC(n2nc(-c3ccc(Oc4ccc(F)cc4F)cc3)c(C(N)=O)c2N)C1

> <Shape>
0.190

> <Color>
0.094

> <Negative vol penalty>
0.000

$$$$

  -OEChem-04052319143D

 88 96  0     1  0  0  0  0  0999 V2000
  -21.0599  -14.1048   31.9681 C   0  0  0  0  0  0  0  0  0  0  0  0
  -22.2132  -13.8934   31.2193 C   0  0  0  0  0  0  0  0  0  0  0  0
  -23.0747   -9.8692   19.9414 C   0  0  0  0  0  0  0  0  0  0  0  0
  -23.8387   -9.8748   22.2335 C   0  0  0  0  0  0  0  0  0  0  0  0
  -21.0648  -15.0357   33.0059 C   0  0  0  0  0  0  0  0  0  0  0  0
  -23.3719  -14.6138   31.5073 C   0  0  0  0  0  0  0  0  0  0  0  0
  -29.1482  -12.6296   31.0566 C   0  0  0  0  0  0  0  0  0  0  0  0
  -22.3321   -8.7153   20.1918 C   0  0  0  0  0  0  0  0  0  0  0  0
  -23.0960   -8.7209   22.4838 C   0  0  0  0  0  0  0  0  0  0  0  0
  -30.1206  -12.7895   30.0705 C   0  0  0  0  0  0  0  0  0  0  0  0
  -19.8695   -7.9204   23.0915 C   0  0  0  0  0  0  0  0  0  0  0  0
  -19.1146   -7.8790   24.2637 C   0  0  0  0  0  0  0  0  0  0  0  0
  -31.0474  -14.6501   31.2946 C   0  0  0  0  0  0  0  0  0  0  0  0
  -20.3587   -5.9418   24.9963 C   0  0  0  0  0  0  0  0  0  0  0  0
  -29.6601  -13.3491   25.1346 C   0  0  0  0  0  0  0  0  0  0  0  0
  -23.8280  -10.4489   20.9623 C   0  0  0  0  0  0  0  0  0  0  0  0
  -24.1679  -12.9744   20.8437 C   0  0  0  0  0  0  0  0  0  0  0  0
  -22.2269  -15.7609   33.3130 C   0  0  0  0  0  0  0  0  0  0  0  0
  -29.1113  -13.4871   32.1656 C   0  0  0  0  0  0  0  0  0  0  0  0
  -23.3920  -15.5564   32.5494 C   0  0  0  0  0  0  0  0  0  0  0  0
  -30.0750  -14.4974   32.2947 C   0  0  0  0  0  0  0  0  0  0  0  0
  -22.3427   -8.1412   21.4630 C   0  0  0  0  0  0  0  0  0  0  0  0
  -31.0687  -13.8017   30.1879 C   0  0  0  0  0  0  0  0  0  0  0  0
  -20.8689   -6.9725   22.8716 C   0  0  0  0  0  0  0  0  0  0  0  0
  -19.3593   -6.8897   25.2161 C   0  0  0  0  0  0  0  0  0  0  0  0
  -21.1135   -5.9832   23.8241 C   0  0  0  0  0  0  0  0  0  0  0  0
  -24.5958  -11.6405   20.7041 C   0  0  0  0  0  0  0  0  0  0  0  0
  -28.5292  -14.0648   24.6980 C   0  0  0  0  0  0  0  0  0  0  0  0
  -30.6808  -14.2677   25.1033 C   0  0  0  0  0  0  0  0  0  0  0  0
  -25.2589  -13.7249   20.4791 C   0  0  0  0  0  0  0  0  0  0  0  0
  -22.8978  -13.4890   21.2653 C   0  0  0  0  0  0  0  0  0  0  0  0
  -27.0049  -15.5668   33.3238 C   0  0  0  0  0  0  0  0  0  0  0  0
  -29.1147  -15.7414   35.7816 C   0  0  0  0  0  0  0  0  0  0  0  0
  -32.3202  -15.3409   36.8822 C   0  0  0  0  0  0  0  0  0  0  0  0
  -30.7423  -14.7476   20.6585 C   0  0  0  0  0  0  0  0  0  0  0  0
  -22.1704  -16.7907   34.4136 C   0  0  0  0  0  0  0  0  0  0  0  0
  -28.0722  -13.2845   33.2340 C   0  0  0  0  0  0  0  0  0  0  0  0
  -30.0911  -15.4316   33.4760 C   0  0  0  0  0  0  0  0  0  0  0  0
  -23.5463  -17.2421   34.8965 C   0  0  0  0  0  0  0  0  0  0  0  0
  -29.6021  -12.3642   18.2718 C   0  0  0  0  0  0  0  0  0  0  0  0
  -24.4545  -17.5488   33.7099 C   0  0  0  0  0  0  0  0  0  0  0  0
  -28.1656  -12.0692   18.7071 C   0  0  0  0  0  0  0  0  0  0  0  0
  -30.5212  -12.5847   19.4712 C   0  0  0  0  0  0  0  0  0  0  0  0
  -28.6214  -13.3134   20.8618 C   0  0  0  0  0  0  0  0  0  0  0  0
  -24.6756  -16.3004   32.8473 C   0  0  1  0  0  0  0  0  0  0  0  0
  -27.8148  -14.5392   34.0627 C   0  0  1  0  0  0  0  0  0  0  0  0
  -27.6453  -13.1391   19.6858 C   0  0  2  0  0  0  0  0  0  0  0  0
  -33.7461  -15.5983   38.9311 C   0  0  0  0  0  0  0  0  0  0  0  0
  -25.9239  -13.1953   28.2488 C   0  0  0  0  0  0  0  0  0  0  0  0
  -26.9701  -11.4562   26.7856 C   0  0  0  0  0  0  0  0  0  0  0  0
  -32.6679  -17.8927   23.2936 C   0  0  0  0  0  0  0  0  0  0  0  0
  -29.1366  -18.7664   35.3833 C   0  0  0  0  0  0  0  0  0  0  0  0
  -31.2259  -18.8625   36.7595 C   0  0  0  0  0  0  0  0  0  0  0  0
  -29.1043  -18.0290   37.7728 C   0  0  0  0  0  0  0  0  0  0  0  0
  -32.9921  -12.4589   36.9182 C   0  0  0  0  0  0  0  0  0  0  0  0
  -27.1548  -13.5606   24.5383 C   0  0  0  0  0  0  0  0  0  0  0  0
  -32.1421  -14.1367   25.4512 C   0  0  0  0  0  0  0  0  0  0  0  0
  -26.3071  -13.7236   25.8224 C   0  0  0  0  0  0  0  0  0  0  0  0
  -32.4560  -14.4429   26.9173 C   0  0  0  0  0  0  0  0  0  0  0  0
  -30.7912  -16.6963   24.4676 C   0  0  0  0  0  0  0  0  0  0  0  0
  -30.8088  -16.8972   21.8970 C   0  0  0  0  0  0  0  0  0  0  0  0
  -31.6660  -13.5823   27.8964 C   0  0  0  0  0  0  0  0  0  1  0  0
  -30.3256  -16.5873   36.0930 C   0  0  1  0  0  0  0  0  0  0  0  0
  -32.8845  -14.6508   38.1109 C   0  0  2  0  0  0  0  0  0  0  0  0
  -26.8415  -12.9575   27.0468 C   0  0  0  0  0  0  0  0  0  0  0  0
  -31.6431  -16.7582   23.1815 C   0  0  1  0  0  0  0  0  0  0  0  0
  -29.9469  -18.0451   36.4788 C   0  0  0  0  0  0  0  0  0  0  0  0
  -25.8600  -11.5459   20.2835 N   0  0  0  0  0  0  0  0  0  0  0  0
  -28.8050  -15.3397   24.4106 N   0  0  0  0  0  0  0  0  0  0  0  0
  -30.1209  -15.4323   24.6671 N   0  0  0  0  0  0  0  0  0  0  0  0
  -26.2358  -12.8298   20.1556 N   0  0  0  0  0  0  0  0  0  0  0  0
  -29.0509  -15.1971   34.4910 N   0  0  0  0  0  0  0  0  0  0  0  0
  -29.9715  -13.6122   20.3590 N   0  0  0  0  0  0  0  0  0  0  0  0
  -25.4683  -15.0566   20.4068 N   0  0  0  0  0  0  0  0  0  0  0  0
  -21.8871  -12.5788   21.6036 N   0  0  0  0  0  0  0  0  0  0  0  0
  -25.6389  -15.4190   33.4714 N   0  0  0  0  0  0  0  0  0  0  0  0
  -31.0702  -15.8708   37.1229 N   0  0  0  0  0  0  0  0  0  0  0  0
  -30.1440  -15.6753   21.5023 N   0  0  0  0  0  0  0  0  0  0  0  0
  -33.7195  -13.4829   37.7114 N   0  3  0  0  0  0  0  0  0  0  0  0
  -22.6608  -14.7194   21.3241 O   0  0  0  0  0  0  0  0  0  0  0  0
  -27.5770  -16.4307   32.6695 O   0  0  0  0  0  0  0  0  0  0  0  0
  -28.2605  -15.5640   36.6537 O   0  0  0  0  0  0  0  0  0  0  0  0
  -32.9290  -15.4068   35.8166 O   0  0  0  0  0  0  0  0  0  0  0  0
  -31.8773  -14.9242   20.2030 O   0  0  0  0  0  0  0  0  0  0  0  0
  -21.6180   -7.0154   21.7077 O   0  0  0  0  0  0  0  0  0  0  0  0
  -32.0186  -13.9604   29.2264 O   0  0  0  0  0  0  0  0  0  1  0  0
  -18.6354   -6.8510   26.3425 F   0  0  0  0  0  0  0  0  0  0  0  0
  -22.0731   -5.0705   23.6190 F   0  0  0  0  0  0  0  0  0  0  0  0
  1  2  1  0  0  0  0
  1  5  2  0  0  0  0
  2  6  2  0  0  0  0
  3  8  2  0  0  0  0
  3 16  1  0  0  0  0
  4  9  1  0  0  0  0
  4 16  2  0  0  0  0
  5 18  1  0  0  0  0
  6 20  1  0  0  0  0
  7 10  2  0  0  0  0
  7 19  1  0  0  0  0
  8 22  1  0  0  0  0
  9 22  2  0  0  0  0
 10 23  1  0  0  0  0
 11 12  2  0  0  0  0
 11 24  1  0  0  0  0
 12 25  1  0  0  0  0
 13 21  1  0  0  0  0
 13 23  2  0  0  0  0
 14 25  2  0  0  0  0
 14 26  1  0  0  0  0
 15 28  1  0  0  0  0
 15 29  2  0  0  0  0
 16 27  1  0  0  0  0
 17 27  1  0  0  0  0
 17 30  2  0  0  0  0
 17 31  1  0  0  0  0
 18 20  2  0  0  0  0
 18 36  1  0  0  0  0
 19 21  2  0  0  0  0
 19 37  1  0  0  0  0
 20 45  1  0  0  0  0
 21 38  1  0  0  0  0
 22 85  1  0  0  0  0
 23 86  1  0  0  0  0
 24 26  2  0  0  0  0
 24 85  1  0  0  0  0
 25 87  1  0  0  0  0
 26 88  1  0  0  0  0
 27 68  2  0  0  0  0
 28 56  1  0  0  0  0
 28 69  2  0  0  0  0
 29 57  1  0  0  0  0
 29 70  1  0  0  0  0
 30 71  1  0  0  0  0
 30 74  1  0  0  0  0
 31 75  1  0  0  0  0
 31 80  2  0  0  0  0
 32 46  1  0  0  0  0
 32 76  1  0  0  0  0
 32 81  2  0  0  0  0
 33 63  1  0  0  0  0
 33 72  1  0  0  0  0
 33 82  2  0  0  0  0
 34 64  1  0  0  0  0
 34 77  1  0  0  0  0
 34 83  2  0  0  0  0
 35 73  1  0  0  0  0
 35 78  1  0  0  0  0
 35 84  2  0  0  0  0
 36 39  1  0  0  0  0
 37 46  1  0  0  0  0
 38 72  1  0  0  0  0
 39 41  1  0  0  0  0
 40 42  1  0  0  0  0
 40 43  1  0  0  0  0
 41 45  1  0  0  0  0
 42 47  1  0  0  0  0
 43 73  1  0  0  0  0
 44 47  1  0  0  0  0
 44 73  1  0  0  0  0
 45 76  1  0  0  0  0
 46 72  1  0  0  0  0
 47 71  1  0  0  0  0
 48 64  1  0  0  0  0
 49 65  1  0  0  0  0
 50 65  1  0  0  0  0
 51 66  1  0  0  0  0
 52 67  1  0  0  0  0
 53 67  1  0  0  0  0
 54 67  1  0  0  0  0
 55 79  1  0  0  0  0
 56 58  1  0  0  0  0
 57 59  1  0  0  0  0
 58 65  1  0  0  0  0
 59 62  1  0  0  0  0
 60 66  1  0  0  0  0
 60 70  1  0  0  0  0
 61 66  1  0  0  0  0
 61 78  1  0  0  0  0
 62 86  1  0  0  0  0
 63 67  1  0  0  0  0
 63 77  1  0  0  0  0
 64 79  1  0  0  0  0
 68 71  1  0  0  0  0
 69 70  1  0  0  0  0
M  CHG  1  79   1
M  ISO  4  35 100  62 101  78 100  86 101
M  END
> <Batch ID>
0092

> <Smiles>
CNC(C)C(=O)NC(C(=O)N1Cc2cc([101O:1][101CH2:1]CCc3cc(CCC(C)C)nn3CC(C)C[100NH:0][100C:0](=O)N3CCCC(n4nc(-c5ccc(Oc6ccc(F)cc6F)cc5)c(C(N)=O)c4N)C3)ccc2CC1C(=O)NC1CCCc2ccccc21)C(C)(C)C

> <Shape>
0.161

> <Color>
0.187

> <Negative vol penalty>
0.000

$$$$

  -OEChem-04052319142D

  0  0  0     0  0  0  0  0  0999 V2000
M  END
$$$$

  -OEChem-04052319143D

 84 92  0     1  0  0  0  0  0999 V2000
  -27.4232  -24.1208   16.7506 C   0  0  0  0  0  0  0  0  0  0  0  0
  -26.2661  -24.4220   17.4617 C   0  0  0  0  0  0  0  0  0  0  0  0
  -26.7706  -14.0698   21.2648 C   0  0  0  0  0  0  0  0  0  0  0  0
  -24.5173  -14.3082   20.4263 C   0  0  0  0  0  0  0  0  0  0  0  0
  -28.6638  -24.5380   17.2311 C   0  0  0  0  0  0  0  0  0  0  0  0
  -26.3489  -25.1396   18.6544 C   0  0  0  0  0  0  0  0  0  0  0  0
  -22.8642  -28.8010   18.9647 C   0  0  0  0  0  0  0  0  0  0  0  0
  -19.1566  -23.2767   19.8864 C   0  0  0  0  0  0  0  0  0  0  0  0
  -18.0460  -24.0785   19.6235 C   0  0  0  0  0  0  0  0  0  0  0  0
  -26.4006  -12.8987   21.9260 C   0  0  0  0  0  0  0  0  0  0  0  0
  -24.1474  -13.1370   21.0875 C   0  0  0  0  0  0  0  0  0  0  0  0
  -21.5650  -28.4172   19.2942 C   0  0  0  0  0  0  0  0  0  0  0  0
  -22.6983  -10.0154   22.2597 C   0  0  0  0  0  0  0  0  0  0  0  0
  -21.9246   -9.0907   21.5585 C   0  0  0  0  0  0  0  0  0  0  0  0
  -21.9490  -29.0988   21.5762 C   0  0  0  0  0  0  0  0  0  0  0  0
  -19.7878  -24.7450   21.6983 C   0  0  0  0  0  0  0  0  0  0  0  0
  -23.6750   -8.8784   19.9069 C   0  0  0  0  0  0  0  0  0  0  0  0
  -25.8289  -14.7746   20.5150 C   0  0  0  0  0  0  0  0  0  0  0  0
  -26.7101  -16.0996   18.5212 C   0  0  0  0  0  0  0  0  0  0  0  0
  -28.7610  -25.2695   18.4253 C   0  0  0  0  0  0  0  0  0  0  0  0
  -23.7206  -29.3273   19.9425 C   0  0  0  0  0  0  0  0  0  0  0  0
  -27.5920  -25.5658   19.1521 C   0  0  0  0  0  0  0  0  0  0  0  0
  -23.2577  -29.4909   21.2559 C   0  0  0  0  0  0  0  0  0  0  0  0
  -20.0275  -23.6099   20.9239 C   0  0  0  0  0  0  0  0  0  0  0  0
  -17.8063  -25.2136   20.3980 C   0  0  0  0  0  0  0  0  0  0  0  0
  -18.6772  -25.5469   21.4354 C   0  0  0  0  0  0  0  0  0  0  0  0
  -25.0890  -12.4322   21.8373 C   0  0  0  0  0  0  0  0  0  0  0  0
  -21.1082  -28.5634   20.6007 C   0  0  0  0  0  0  0  0  0  0  0  0
  -23.9604  -10.3717   21.7845 C   0  0  0  0  0  0  0  0  0  0  0  0
  -22.4129   -8.5221   20.3821 C   0  0  0  0  0  0  0  0  0  0  0  0
  -24.4488   -9.8032   20.6081 C   0  0  0  0  0  0  0  0  0  0  0  0
  -26.2103  -15.9847   19.8322 C   0  0  0  0  0  0  0  0  0  0  0  0
  -26.9158  -17.4467   18.3490 C   0  0  0  0  0  0  0  0  0  0  0  0
  -26.9655  -15.0800   17.5461 C   0  0  0  0  0  0  0  0  0  0  0  0
  -26.5015  -28.4408   21.2011 C   0  0  0  0  0  0  0  0  0  0  0  0
  -26.2971  -31.3127   22.6953 C   0  0  0  0  0  0  0  0  0  0  0  0
  -24.3216  -33.8514   23.8350 C   0  0  0  0  0  0  0  0  0  0  0  0
  -24.4987  -22.2983   20.8927 C   0  0  0  0  0  0  0  0  0  0  0  0
  -30.1283  -25.6580   18.9294 C   0  0  0  0  0  0  0  0  0  0  0  0
  -25.1104  -29.7614   19.5650 C   0  0  0  0  0  0  0  0  0  0  0  0
  -24.1308  -30.0696   22.3381 C   0  0  0  0  0  0  0  0  0  0  0  0
  -30.0957  -26.7378   20.0079 C   0  0  0  0  0  0  0  0  0  0  0  0
  -27.9482  -21.4209   20.8048 C   0  0  0  0  0  0  0  0  0  0  0  0
  -29.0396  -26.4109   21.0589 C   0  0  0  0  0  0  0  0  0  0  0  0
  -27.9390  -19.9385   20.4273 C   0  0  0  0  0  0  0  0  0  0  0  0
  -26.7763  -21.7783   21.7164 C   0  0  0  0  0  0  0  0  0  0  0  0
  -25.4407  -19.9100   20.8224 C   0  0  0  0  0  0  0  0  0  0  0  0
  -27.6387  -26.3637   20.4371 C   0  0  1  0  0  0  0  0  0  0  0  0
  -26.0655  -29.8073   20.7537 C   0  0  1  0  0  0  0  0  0  0  0  0
  -26.5720  -19.5132   19.8585 C   0  0  2  0  0  0  0  0  0  0  0  0
  -15.4756  -25.8272   21.0894 C   0  0  0  0  0  0  0  0  0  0  0  0
  -20.8088  -21.3282   21.6361 C   0  0  0  0  0  0  0  0  0  0  0  0
  -24.4375  -36.0450   25.0483 C   0  0  0  0  0  0  0  0  0  0  0  0
  -26.7120  -29.8307   25.3299 C   0  0  0  0  0  0  0  0  0  0  0  0
  -25.8825  -31.8677   26.5260 C   0  0  0  0  0  0  0  0  0  0  0  0
  -27.9544  -31.9930   25.1424 C   0  0  0  0  0  0  0  0  0  0  0  0
  -23.1829  -35.3185   21.5306 C   0  0  0  0  0  0  0  0  0  0  0  0
  -16.6113  -26.0574   20.0970 C   0  0  0  0  0  0  0  0  0  0  0  0
  -18.4384  -26.7704   22.2865 C   0  0  0  0  0  0  0  0  0  0  0  0
  -22.2053  -22.6641   20.0176 C   0  0  0  0  0  0  0  0  0  0  0  0
  -19.6192  -27.7347   22.2597 C   0  0  0  0  0  0  0  0  0  1  0  0
  -21.2152  -22.7527   21.2044 C   0  0  1  0  0  0  0  0  0  0  0  0
  -25.7087  -31.8011   23.9969 C   0  0  1  0  0  0  0  0  0  0  0  0
  -24.4352  -35.3584   23.6913 C   0  0  2  0  0  0  0  0  0  0  0  0
  -26.5484  -31.3604   25.2291 C   0  0  0  0  0  0  0  0  0  0  0  0
  -26.1050  -17.1646   20.4492 N   0  0  0  0  0  0  0  0  0  0  0  0
  -26.5416  -18.0338   19.5218 N   0  0  0  0  0  0  0  0  0  0  0  0
  -25.4838  -30.4733   21.9208 N   0  0  0  0  0  0  0  0  0  0  0  0
  -25.5096  -21.3496   21.1185 N   0  0  0  0  0  0  0  0  0  0  0  0
  -27.3785  -18.1744   17.3104 N   0  0  0  0  0  0  0  0  0  0  0  0
  -26.6983  -13.7472   17.8875 N   0  0  0  0  0  0  0  0  0  0  0  0
  -27.1367  -27.7036   20.2199 N   0  0  0  0  0  0  0  0  0  0  0  0
  -25.5601  -33.2460   23.8610 N   0  0  0  0  0  0  0  0  0  0  0  0
  -23.3326  -21.8093   20.3168 N   0  0  0  0  0  0  0  0  0  0  0  0
  -23.2920  -35.8907   22.8972 N   0  3  0  0  0  0  0  0  0  0  0  0
  -27.4328  -15.3413   16.4117 O   0  0  0  0  0  0  0  0  0  0  0  0
  -26.2796  -28.0823   22.3517 O   0  0  0  0  0  0  0  0  0  0  0  0
  -27.4336  -31.6688   22.3740 O   0  0  0  0  0  0  0  0  0  0  0  0
  -23.2421  -33.2699   23.9196 O   0  0  0  0  0  0  0  0  0  0  0  0
  -24.6280  -23.4937   21.1779 O   0  0  0  0  0  0  0  0  0  0  0  0
  -24.7278  -11.2894   22.4822 O   0  0  0  0  0  0  0  0  0  0  0  0
  -19.8407  -28.1890   20.9252 O   0  0  0  0  0  0  0  0  0  1  0  0
  -21.6704   -7.6329   19.7097 F   0  0  0  0  0  0  0  0  0  0  0  0
  -25.6610  -10.1406   20.1473 F   0  0  0  0  0  0  0  0  0  0  0  0
  1  2  1  0  0  0  0
  1  5  2  0  0  0  0
  2  6  2  0  0  0  0
  3 10  2  0  0  0  0
  3 18  1  0  0  0  0
  4 11  1  0  0  0  0
  4 18  2  0  0  0  0
  5 20  1  0  0  0  0
  6 22  1  0  0  0  0
  7 12  2  0  0  0  0
  7 21  1  0  0  0  0
  8  9  2  0  0  0  0
  8 24  1  0  0  0  0
  9 25  1  0  0  0  0
 10 27  1  0  0  0  0
 11 27  2  0  0  0  0
 12 28  1  0  0  0  0
 13 14  2  0  0  0  0
 13 29  1  0  0  0  0
 14 30  1  0  0  0  0
 15 23  1  0  0  0  0
 15 28  2  0  0  0  0
 16 24  2  0  0  0  0
 16 26  1  0  0  0  0
 17 30  2  0  0  0  0
 17 31  1  0  0  0  0
 18 32  1  0  0  0  0
 19 32  1  0  0  0  0
 19 33  2  0  0  0  0
 19 34  1  0  0  0  0
 20 22  2  0  0  0  0
 20 39  1  0  0  0  0
 21 23  2  0  0  0  0
 21 40  1  0  0  0  0
 22 48  1  0  0  0  0
 23 41  1  0  0  0  0
 24 62  1  0  0  0  0
 25 26  2  0  0  0  0
 25 58  1  0  0  0  0
 26 59  1  0  0  0  0
 27 81  1  0  0  0  0
 28 82  1  0  0  0  0
 29 31  2  0  0  0  0
 29 81  1  0  0  0  0
 30 83  1  0  0  0  0
 31 84  1  0  0  0  0
 32 66  2  0  0  0  0
 33 67  1  0  0  0  0
 33 70  1  0  0  0  0
 34 71  1  0  0  0  0
 34 76  2  0  0  0  0
 35 49  1  0  0  0  0
 35 72  1  0  0  0  0
 35 77  2  0  0  0  0
 36 63  1  0  0  0  0
 36 68  1  0  0  0  0
 36 78  2  0  0  0  0
 37 64  1  0  0  0  0
 37 73  1  0  0  0  0
 37 79  2  0  0  0  0
 38 69  1  0  0  0  0
 38 74  1  0  0  0  0
 38 80  2  0  0  0  0
 39 42  1  0  0  0  0
 40 49  1  0  0  0  0
 41 68  1  0  0  0  0
 42 44  1  0  0  0  0
 43 45  1  0  0  0  0
 43 46  1  0  0  0  0
 44 48  1  0  0  0  0
 45 50  1  0  0  0  0
 46 69  1  0  0  0  0
 47 50  1  0  0  0  0
 47 69  1  0  0  0  0
 48 72  1  0  0  0  0
 49 68  1  0  0  0  0
 50 67  1  0  0  0  0
 51 58  1  0  0  0  0
 52 62  1  0  0  0  0
 53 64  1  0  0  0  0
 54 65  1  0  0  0  0
 55 65  1  0  0  0  0
 56 65  1  0  0  0  0
 57 75  1  0  0  0  0
 59 61  1  0  0  0  0
 60 62  1  0  0  0  0
 60 74  1  0  0  0  0
 61 82  1  0  0  0  0
 63 65  1  0  0  0  0
 63 73  1  0  0  0  0
 64 75  1  0  0  0  0
 66 67  1  0  0  0  0
M  CHG  1  75   1
M  ISO  4  38 100  61 101  74 100  82 101
M  END
> <Batch ID>
0092

> <Smiles>
CCc1ccc(C(C)C[100NH:0][100C:0](=O)N2CCCC(n3nc(-c4ccc(Oc5ccc(F)cc5F)cc4)c(C(N)=O)c3N)C2)cc1C[101CH2:1][101O:1]c1ccc2c(c1)CN(C(=O)C(NC(=O)C(C)NC)C(C)(C)C)C(C(=O)NC1CCCc3ccccc31)C2

> <Shape>
0.290

> <Color>
0.075

> <Negative vol penalty>
0.000

$$$$

  -OEChem-04052319143D

 84 92  0     1  0  0  0  0  0999 V2000
  -17.3444  -12.3549   22.3786 C   0  0  0  0  0  0  0  0  0  0  0  0
  -18.0394  -13.5472   22.5538 C   0  0  0  0  0  0  0  0  0  0  0  0
  -25.6521  -26.4410   22.4070 C   0  0  0  0  0  0  0  0  0  0  0  0
  -26.6290  -28.5687   21.8108 C   0  0  0  0  0  0  0  0  0  0  0  0
  -18.0044  -11.1360   22.5295 C   0  0  0  0  0  0  0  0  0  0  0  0
  -19.3947  -13.5214   22.8810 C   0  0  0  0  0  0  0  0  0  0  0  0
  -23.6907  -17.5021   21.0911 C   0  0  0  0  0  0  0  0  0  0  0  0
  -24.4897  -27.0909   22.8218 C   0  0  0  0  0  0  0  0  0  0  0  0
  -25.4666  -29.2186   22.2256 C   0  0  0  0  0  0  0  0  0  0  0  0
  -24.2670  -18.6055   21.7189 C   0  0  0  0  0  0  0  0  0  0  0  0
  -21.1280  -28.1585   23.7015 C   0  0  0  0  0  0  0  0  0  0  0  0
  -19.9053  -27.6162   23.3058 C   0  0  0  0  0  0  0  0  0  0  0  0
  -26.1071  -17.2243   22.4438 C   0  0  0  0  0  0  0  0  0  0  0  0
  -20.5248  -27.9102   20.9891 C   0  0  0  0  0  0  0  0  0  0  0  0
  -28.0917  -22.1669   19.8234 C   0  0  0  0  0  0  0  0  0  0  0  0
  -26.7218  -27.1799   21.9015 C   0  0  0  0  0  0  0  0  0  0  0  0
  -28.7711  -25.7025   22.2556 C   0  0  0  0  0  0  0  0  0  0  0  0
  -19.3707  -11.0953   22.8492 C   0  0  0  0  0  0  0  0  0  0  0  0
  -24.3138  -16.2470   21.1442 C   0  0  0  0  0  0  0  0  0  0  0  0
  -20.0732  -12.3008   23.0376 C   0  0  0  0  0  0  0  0  0  0  0  0
  -25.5379  -16.1071   21.8137 C   0  0  0  0  0  0  0  0  0  0  0  0
  -28.2075  -21.7044   18.5312 C   0  0  0  0  0  0  0  0  0  0  0  0
  -28.5239  -20.3253   18.6022 C   0  0  0  0  0  0  0  0  0  0  0  0
  -24.3970  -28.4797   22.7311 C   0  0  0  0  0  0  0  0  0  0  0  0
  -25.4739  -18.4660   22.3978 C   0  0  0  0  0  0  0  0  0  0  0  0
  -22.0490  -28.5767   22.7411 C   0  0  0  0  0  0  0  0  0  0  0  0
  -19.6037  -27.4920   21.9496 C   0  0  0  0  0  0  0  0  0  0  0  0
  -21.7474  -28.4525   21.3849 C   0  0  0  0  0  0  0  0  0  0  0  0
  -27.9230  -26.5091   21.4734 C   0  0  0  0  0  0  0  0  0  0  0  0
  -28.5915  -19.9869   19.9357 C   0  0  0  0  0  0  0  0  0  0  0  0
  -29.7618  -25.3062   21.3907 C   0  0  0  0  0  0  0  0  0  0  0  0
  -28.6721  -25.3434   23.6401 C   0  0  0  0  0  0  0  0  0  0  0  0
  -23.5268  -13.3998   22.3182 C   0  0  0  0  0  0  0  0  0  0  0  0
  -26.2779  -12.4754   20.8693 C   0  0  0  0  0  0  0  0  0  0  0  0
  -29.3483  -13.3439   19.6588 C   0  0  0  0  0  0  0  0  0  0  0  0
  -29.5947  -25.0464   15.2717 C   0  0  0  0  0  0  0  0  0  0  0  0
  -20.0299   -9.7535   23.0484 C   0  0  0  0  0  0  0  0  0  0  0  0
  -23.6926  -15.0725   20.4392 C   0  0  0  0  0  0  0  0  0  0  0  0
  -26.2574  -14.7857   21.8829 C   0  0  0  0  0  0  0  0  0  0  0  0
  -21.5550   -9.8151   23.0277 C   0  0  0  0  0  0  0  0  0  0  0  0
  -32.0886  -26.6947   17.4546 C   0  0  0  0  0  0  0  0  0  0  0  0
  -22.0547  -10.9655   23.8958 C   0  0  0  0  0  0  0  0  0  0  0  0
  -31.3377  -26.8253   18.7787 C   0  0  0  0  0  0  0  0  0  0  0  0
  -31.1385  -26.6986   16.2609 C   0  0  0  0  0  0  0  0  0  0  0  0
  -29.3124  -25.8035   17.6675 C   0  0  0  0  0  0  0  0  0  0  0  0
  -21.5498  -12.3141   23.3686 C   0  0  1  0  0  0  0  0  0  0  0  0
  -24.1561  -13.7291   20.9940 C   0  0  1  0  0  0  0  0  0  0  0  0
  -30.2373  -25.7561   18.8931 C   0  0  2  0  0  0  0  0  0  0  0  0
  -28.7416  -19.4154   17.4585 C   0  0  0  0  0  0  0  0  0  0  0  0
  -28.8849  -18.6874   20.5764 C   0  0  0  0  0  0  0  0  0  0  0  0
  -31.3845  -12.3644   18.5671 C   0  0  0  0  0  0  0  0  0  0  0  0
  -27.1505  -11.3081   23.5499 C   0  0  0  0  0  0  0  0  0  0  0  0
  -29.4915  -11.2129   22.6674 C   0  0  0  0  0  0  0  0  0  0  0  0
  -27.6905   -9.8837   21.5665 C   0  0  0  0  0  0  0  0  0  0  0  0
  -28.6250  -23.0086   14.2784 C   0  0  0  0  0  0  0  0  0  0  0  0
  -29.0120  -15.0318   17.2511 C   0  0  0  0  0  0  0  0  0  0  0  0
  -28.0325  -22.5081   17.3049 C   0  0  0  0  0  0  0  0  0  0  0  0
  -26.9727  -21.7332   22.7318 C   0  0  0  0  0  0  0  0  0  0  0  0
  -28.2952  -21.2029   22.1737 C   0  0  0  0  0  0  0  0  0  0  0  0
  -29.3529  -22.9280   16.6341 C   0  0  0  0  0  0  0  0  0  0  0  0
  -25.7854  -20.8234   22.4390 C   0  0  0  0  0  0  0  0  0  1  0  0
  -27.7282  -12.3955   21.2806 C   0  0  1  0  0  0  0  0  0  0  0  0
  -30.0370  -13.0324   18.3423 C   0  0  2  0  0  0  0  0  0  0  0  0
  -28.0009  -11.2247   22.2666 C   0  0  0  0  0  0  0  0  0  0  0  0
  -28.3387  -26.6199   20.2089 N   0  0  0  0  0  0  0  0  0  0  0  0
  -28.3269  -21.1142   20.6688 N   0  0  0  0  0  0  0  0  0  0  0  0
  -29.4589  -25.8777   20.1900 N   0  0  0  0  0  0  0  0  0  0  0  0
  -25.6067  -13.6657   21.1831 N   0  0  0  0  0  0  0  0  0  0  0  0
  -30.0776  -25.7027   16.4158 N   0  0  0  0  0  0  0  0  0  0  0  0
  -30.8538  -24.5283   21.5479 N   0  0  0  0  0  0  0  0  0  0  0  0
  -29.2890  -26.1687   24.5902 N   0  0  0  0  0  0  0  0  0  0  0  0
  -22.3233  -12.7284   22.2177 N   0  0  0  0  0  0  0  0  0  0  0  0
  -28.5000  -12.3276   20.0444 N   0  0  0  0  0  0  0  0  0  0  0  0
  -29.1250  -23.7347   15.4372 N   0  0  0  0  0  0  0  0  0  0  0  0
  -30.2570  -14.2842   17.5640 N   0  3  0  0  0  0  0  0  0  0  0  0
  -28.0689  -24.3120   24.0221 O   0  0  0  0  0  0  0  0  0  0  0  0
  -24.0922  -13.7292   23.3543 O   0  0  0  0  0  0  0  0  0  0  0  0
  -25.7616  -11.5199   20.2845 O   0  0  0  0  0  0  0  0  0  0  0  0
  -29.5462  -14.3831   20.2845 O   0  0  0  0  0  0  0  0  0  0  0  0
  -29.5929  -25.5979   14.1636 O   0  0  0  0  0  0  0  0  0  0  0  0
  -23.2628  -29.1142   23.1356 O   0  0  0  0  0  0  0  0  0  0  0  0
  -26.0383  -19.5413   23.0120 O   0  0  0  0  0  0  0  0  0  1  0  0
  -18.4302  -26.9698   21.5697 F   0  0  0  0  0  0  0  0  0  0  0  0
  -22.6288  -28.8515   20.4576 F   0  0  0  0  0  0  0  0  0  0  0  0
  1  2  1  0  0  0  0
  1  5  2  0  0  0  0
  2  6  2  0  0  0  0
  3  8  2  0  0  0  0
  3 16  1  0  0  0  0
  4  9  1  0  0  0  0
  4 16  2  0  0  0  0
  5 18  1  0  0  0  0
  6 20  1  0  0  0  0
  7 10  2  0  0  0  0
  7 19  1  0  0  0  0
  8 24  1  0  0  0  0
  9 24  2  0  0  0  0
 10 25  1  0  0  0  0
 11 12  2  0  0  0  0
 11 26  1  0  0  0  0
 12 27  1  0  0  0  0
 13 21  1  0  0  0  0
 13 25  2  0  0  0  0
 14 27  2  0  0  0  0
 14 28  1  0  0  0  0
 15 22  2  0  0  0  0
 15 66  1  0  0  0  0
 16 29  1  0  0  0  0
 17 29  1  0  0  0  0
 17 31  2  0  0  0  0
 17 32  1  0  0  0  0
 18 20  2  0  0  0  0
 18 37  1  0  0  0  0
 19 21  2  0  0  0  0
 19 38  1  0  0  0  0
 20 46  1  0  0  0  0
 21 39  1  0  0  0  0
 22 23  1  0  0  0  0
 22 57  1  0  0  0  0
 23 30  2  0  0  0  0
 23 49  1  0  0  0  0
 24 81  1  0  0  0  0
 25 82  1  0  0  0  0
 26 28  2  0  0  0  0
 26 81  1  0  0  0  0
 27 83  1  0  0  0  0
 28 84  1  0  0  0  0
 29 65  2  0  0  0  0
 30 50  1  0  0  0  0
 30 66  1  0  0  0  0
 31 67  1  0  0  0  0
 31 70  1  0  0  0  0
 32 71  1  0  0  0  0
 32 76  2  0  0  0  0
 33 47  1  0  0  0  0
 33 72  1  0  0  0  0
 33 77  2  0  0  0  0
 34 62  1  0  0  0  0
 34 68  1  0  0  0  0
 34 78  2  0  0  0  0
 35 63  1  0  0  0  0
 35 73  1  0  0  0  0
 35 79  2  0  0  0  0
 36 69  1  0  0  0  0
 36 74  1  0  0  0  0
 36 80  2  0  0  0  0
 37 40  1  0  0  0  0
 38 47  1  0  0  0  0
 39 68  1  0  0  0  0
 40 42  1  0  0  0  0
 41 43  1  0  0  0  0
 41 44  1  0  0  0  0
 42 46  1  0  0  0  0
 43 48  1  0  0  0  0
 44 69  1  0  0  0  0
 45 48  1  0  0  0  0
 45 69  1  0  0  0  0
 46 72  1  0  0  0  0
 47 68  1  0  0  0  0
 48 67  1  0  0  0  0
 51 63  1  0  0  0  0
 52 64  1  0  0  0  0
 53 64  1  0  0  0  0
 54 64  1  0  0  0  0
 55 74  1  0  0  0  0
 56 75  1  0  0  0  0
 57 60  1  0  0  0  0
 58 59  1  0  0  0  0
 58 61  1  0  0  0  0
 59 66  1  0  0  0  0
 60 74  1  0  0  0  0
 61 82  1  0  0  0  0
 62 64  1  0  0  0  0
 62 73  1  0  0  0  0
 63 75  1  0  0  0  0
 65 67  1  0  0  0  0
M  CHG  1  75   1
M  ISO  4  36 100  61 101  74 100  82 101
M  END
> <Batch ID>
0092

> <Smiles>
CNC(C)C(=O)NC(C(=O)N1Cc2cc([101O:1][101CH2:1]CCn3cc(CC[100N:0](C)[100C:0](=O)N4CCCC(n5nc(-c6ccc(Oc7ccc(F)cc7F)cc6)c(C(N)=O)c5N)C4)c(C)c3C)ccc2CC1C(=O)NC1CCCc2ccccc21)C(C)(C)C

> <Shape>
0.227

> <Color>
0.075

> <Negative vol penalty>
0.000

$$$$

  -OEChem-04052319143D

 87 95  0     1  0  0  0  0  0999 V2000
  -43.5483  -21.0035   19.7091 C   0  0  0  0  0  0  0  0  0  0  0  0
  -42.2259  -20.5845   19.6036 C   0  0  0  0  0  0  0  0  0  0  0  0
  -23.1171   -9.8807   19.9593 C   0  0  0  0  0  0  0  0  0  0  0  0
  -23.9333   -9.9050   22.2331 C   0  0  0  0  0  0  0  0  0  0  0  0
  -43.8425  -22.2435   20.2746 C   0  0  0  0  0  0  0  0  0  0  0  0
  -41.1969  -21.4049   20.0647 C   0  0  0  0  0  0  0  0  0  0  0  0
  -37.3214  -21.6719   16.8160 C   0  0  0  0  0  0  0  0  0  0  0  0
  -22.4056   -8.7113   20.2271 C   0  0  0  0  0  0  0  0  0  0  0  0
  -23.2217   -8.7356   22.5010 C   0  0  0  0  0  0  0  0  0  0  0  0
  -36.4388  -20.5930   16.7876 C   0  0  0  0  0  0  0  0  0  0  0  0
  -20.0281   -7.8661   23.1831 C   0  0  0  0  0  0  0  0  0  0  0  0
  -19.3015   -7.8095   24.3724 C   0  0  0  0  0  0  0  0  0  0  0  0
  -34.8906  -21.8312   18.1620 C   0  0  0  0  0  0  0  0  0  0  0  0
  -29.8785  -17.7863   18.8016 C   0  0  0  0  0  0  0  0  0  0  0  0
  -20.6036   -5.9004   25.0771 C   0  0  0  0  0  0  0  0  0  0  0  0
  -23.8810  -10.4775   20.9622 C   0  0  0  0  0  0  0  0  0  0  0  0
  -24.1634  -13.0097   20.8347 C   0  0  0  0  0  0  0  0  0  0  0  0
  -42.8159  -23.0837   20.7340 C   0  0  0  0  0  0  0  0  0  0  0  0
  -36.9994  -22.8364   17.5278 C   0  0  0  0  0  0  0  0  0  0  0  0
  -41.4777  -22.6567   20.6381 C   0  0  0  0  0  0  0  0  0  0  0  0
  -35.7697  -22.9245   18.1957 C   0  0  0  0  0  0  0  0  0  0  0  0
  -30.0686  -19.0215   18.1922 C   0  0  0  0  0  0  0  0  0  0  0  0
  -29.6989  -20.1839   18.8595 C   0  0  0  0  0  0  0  0  0  0  0  0
  -22.4578   -8.1387   21.4980 C   0  0  0  0  0  0  0  0  0  0  0  0
  -35.2245  -20.6715   17.4631 C   0  0  0  0  0  0  0  0  0  0  0  0
  -21.0424   -6.9398   22.9407 C   0  0  0  0  0  0  0  0  0  0  0  0
  -19.5892   -6.8267   25.3194 C   0  0  0  0  0  0  0  0  0  0  0  0
  -21.3302   -5.9569   23.8877 C   0  0  0  0  0  0  0  0  0  0  0  0
  -24.6167  -11.6852   20.6860 C   0  0  0  0  0  0  0  0  0  0  0  0
  -29.3192  -17.7677   20.0692 C   0  0  0  0  0  0  0  0  0  0  0  0
  -29.1475  -20.0580   20.1244 C   0  0  0  0  0  0  0  0  0  0  0  0
  -25.2292  -13.7833   20.4448 C   0  0  0  0  0  0  0  0  0  0  0  0
  -22.8925  -13.4971   21.2852 C   0  0  0  0  0  0  0  0  0  0  0  0
  -38.2722  -24.3795   19.9981 C   0  0  0  0  0  0  0  0  0  0  0  0
  -35.9943  -26.5801   19.2975 C   0  0  0  0  0  0  0  0  0  0  0  0
  -32.9707  -27.2671   17.8719 C   0  0  0  0  0  0  0  0  0  0  0  0
  -30.8315  -14.6210   20.9239 C   0  0  0  0  0  0  0  0  0  0  0  0
  -43.1859  -24.3948   21.3810 C   0  0  0  0  0  0  0  0  0  0  0  0
  -37.9507  -24.0016   17.5264 C   0  0  0  0  0  0  0  0  0  0  0  0
  -35.3678  -24.1600   18.9576 C   0  0  0  0  0  0  0  0  0  0  0  0
  -42.0142  -25.3656   21.5036 C   0  0  0  0  0  0  0  0  0  0  0  0
  -29.5480  -12.5477   18.1390 C   0  0  0  0  0  0  0  0  0  0  0  0
  -40.7826  -24.6497   22.0491 C   0  0  0  0  0  0  0  0  0  0  0  0
  -28.1381  -12.1941   18.6093 C   0  0  0  0  0  0  0  0  0  0  0  0
  -30.4949  -12.7826   19.3120 C   0  0  0  0  0  0  0  0  0  0  0  0
  -28.5992  -13.4457   20.7544 C   0  0  0  0  0  0  0  0  0  0  0  0
  -40.3323  -23.5290   21.1042 C   0  0  1  0  0  0  0  0  0  0  0  0
  -37.7443  -24.9428   18.7091 C   0  0  1  0  0  0  0  0  0  0  0  0
  -27.6087  -13.2484   19.5971 C   0  0  2  0  0  0  0  0  0  0  0  0
  -28.4514  -20.9594   22.3581 C   0  0  0  0  0  0  0  0  0  0  0  0
  -28.7723  -23.4822   17.0797 C   0  0  0  0  0  0  0  0  0  0  0  0
  -31.3544  -29.1486   17.4909 C   0  0  0  0  0  0  0  0  0  0  0  0
  -35.1028  -26.4009   22.2101 C   0  0  0  0  0  0  0  0  0  0  0  0
  -32.9655  -27.5269   21.5524 C   0  0  0  0  0  0  0  0  0  0  0  0
  -35.1389  -28.7184   21.2709 C   0  0  0  0  0  0  0  0  0  0  0  0
  -31.2266  -16.8267   21.9527 C   0  0  0  0  0  0  0  0  0  0  0  0
  -33.1931  -27.0168   14.9313 C   0  0  0  0  0  0  0  0  0  0  0  0
  -30.6727  -19.0724   16.8116 C   0  0  0  0  0  0  0  0  0  0  0  0
  -29.8933  -21.5230   18.2316 C   0  0  0  0  0  0  0  0  0  0  0  0
  -28.7322  -21.2709   20.8913 C   0  0  0  0  0  0  0  0  0  0  0  0
  -29.1017  -16.4600   20.7544 C   0  0  0  0  0  0  0  0  0  0  0  0
  -28.5783  -22.1026   17.6887 C   0  0  0  0  0  0  0  0  0  0  0  0
  -32.1854  -18.8422   16.7923 C   0  0  0  0  0  0  0  0  0  0  0  0
  -32.9695  -19.9190   17.5331 C   0  0  0  0  0  0  0  0  0  1  0  0
  -34.5626  -26.8080   19.7184 C   0  0  1  0  0  0  0  0  0  0  0  0
  -32.5307  -28.3686   16.9245 C   0  0  2  0  0  0  0  0  0  0  0  0
  -34.4506  -27.3394   21.1753 C   0  0  0  0  0  0  0  0  0  0  0  0
  -25.8726  -11.6176   20.2364 N   0  0  0  0  0  0  0  0  0  0  0  0
  -28.9475  -18.8757   20.7487 N   0  0  0  0  0  0  0  0  0  0  0  0
  -26.2175  -12.9092   20.0993 N   0  0  0  0  0  0  0  0  0  0  0  0
  -36.3345  -25.2701   18.9317 N   0  0  0  0  0  0  0  0  0  0  0  0
  -29.9478  -13.7565   20.2571 N   0  0  0  0  0  0  0  0  0  0  0  0
  -25.4080  -15.1191   20.3671 N   0  0  0  0  0  0  0  0  0  0  0  0
  -21.9097  -12.5656   21.6471 N   0  0  0  0  0  0  0  0  0  0  0  0
  -39.6207  -24.0793   19.9705 N   0  0  0  0  0  0  0  0  0  0  0  0
  -33.9773  -27.6897   18.7141 N   0  0  0  0  0  0  0  0  0  0  0  0
  -30.3446  -15.8905   21.2704 N   0  0  0  0  0  0  0  0  0  0  0  0
  -32.1237  -27.7913   15.6123 N   0  3  0  0  0  0  0  0  0  0  0  0
  -22.6303  -14.7221   21.3488 O   0  0  0  0  0  0  0  0  0  0  0  0
  -37.5125  -24.2297   20.9480 O   0  0  0  0  0  0  0  0  0  0  0  0
  -36.7801  -27.5310   19.2867 O   0  0  0  0  0  0  0  0  0  0  0  0
  -32.4688  -26.1452   17.8679 O   0  0  0  0  0  0  0  0  0  0  0  0
  -31.9925  -14.2812   21.1856 O   0  0  0  0  0  0  0  0  0  0  0  0
  -21.7634   -6.9978   21.7599 O   0  0  0  0  0  0  0  0  0  0  0  0
  -34.3615  -19.6196   17.4376 O   0  0  0  0  0  0  0  0  0  1  0  0
  -18.8924   -6.7734   26.4621 F   0  0  0  0  0  0  0  0  0  0  0  0
  -22.3044   -5.0650   23.6611 F   0  0  0  0  0  0  0  0  0  0  0  0
  1  2  1  0  0  0  0
  1  5  2  0  0  0  0
  2  6  2  0  0  0  0
  3  8  2  0  0  0  0
  3 16  1  0  0  0  0
  4  9  1  0  0  0  0
  4 16  2  0  0  0  0
  5 18  1  0  0  0  0
  6 20  1  0  0  0  0
  7 10  2  0  0  0  0
  7 19  1  0  0  0  0
  8 24  1  0  0  0  0
  9 24  2  0  0  0  0
 10 25  1  0  0  0  0
 11 12  2  0  0  0  0
 11 26  1  0  0  0  0
 12 27  1  0  0  0  0
 13 21  1  0  0  0  0
 13 25  2  0  0  0  0
 14 22  2  0  0  0  0
 14 30  1  0  0  0  0
 15 27  2  0  0  0  0
 15 28  1  0  0  0  0
 16 29  1  0  0  0  0
 17 29  1  0  0  0  0
 17 32  2  0  0  0  0
 17 33  1  0  0  0  0
 18 20  2  0  0  0  0
 18 38  1  0  0  0  0
 19 21  2  0  0  0  0
 19 39  1  0  0  0  0
 20 47  1  0  0  0  0
 21 40  1  0  0  0  0
 22 23  1  0  0  0  0
 22 58  1  0  0  0  0
 23 31  2  0  0  0  0
 23 59  1  0  0  0  0
 24 84  1  0  0  0  0
 25 85  1  0  0  0  0
 26 28  2  0  0  0  0
 26 84  1  0  0  0  0
 27 86  1  0  0  0  0
 28 87  1  0  0  0  0
 29 68  2  0  0  0  0
 30 61  1  0  0  0  0
 30 69  2  0  0  0  0
 31 60  1  0  0  0  0
 31 69  1  0  0  0  0
 32 70  1  0  0  0  0
 32 73  1  0  0  0  0
 33 74  1  0  0  0  0
 33 79  2  0  0  0  0
 34 48  1  0  0  0  0
 34 75  1  0  0  0  0
 34 80  2  0  0  0  0
 35 65  1  0  0  0  0
 35 71  1  0  0  0  0
 35 81  2  0  0  0  0
 36 66  1  0  0  0  0
 36 76  1  0  0  0  0
 36 82  2  0  0  0  0
 37 72  1  0  0  0  0
 37 77  1  0  0  0  0
 37 83  2  0  0  0  0
 38 41  1  0  0  0  0
 39 48  1  0  0  0  0
 40 71  1  0  0  0  0
 41 43  1  0  0  0  0
 42 44  1  0  0  0  0
 42 45  1  0  0  0  0
 43 47  1  0  0  0  0
 44 49  1  0  0  0  0
 45 72  1  0  0  0  0
 46 49  1  0  0  0  0
 46 72  1  0  0  0  0
 47 75  1  0  0  0  0
 48 71  1  0  0  0  0
 49 70  1  0  0  0  0
 50 60  1  0  0  0  0
 51 62  1  0  0  0  0
 52 66  1  0  0  0  0
 53 67  1  0  0  0  0
 54 67  1  0  0  0  0
 55 67  1  0  0  0  0
 56 77  1  0  0  0  0
 57 78  1  0  0  0  0
 58 63  1  0  0  0  0
 59 62  1  0  0  0  0
 61 77  1  0  0  0  0
 63 64  1  0  0  0  0
 64 85  1  0  0  0  0
 65 67  1  0  0  0  0
 65 76  1  0  0  0  0
 66 78  1  0  0  0  0
 68 70  1  0  0  0  0
M  CHG  1  78   1
M  ISO  4  37 100  64 101  77 100  85 101
M  END
> <Batch ID>
0092

> <Smiles>
CCCc1c(CC[101CH2:1][101O:1]c2ccc3c(c2)CN(C(=O)C(NC(=O)C(C)NC)C(C)(C)C)C(C(=O)NC2CCCc4ccccc42)C3)cc(C[100N:0](C)[100C:0](=O)N2CCCC(n3nc(-c4ccc(Oc5ccc(F)cc5F)cc4)c(C(N)=O)c3N)C2)nc1CC

> <Shape>
0.219

> <Color>
0.174

> <Negative vol penalty>
0.000

$$$$

  -OEChem-04052319143D

 90 98  0     1  0  0  0  0  0999 V2000
  -30.5607  -28.5013   25.3825 C   0  0  0  0  0  0  0  0  0  0  0  0
  -30.9194  -27.8970   24.1818 C   0  0  0  0  0  0  0  0  0  0  0  0
  -23.1235   -9.9206   19.9840 C   0  0  0  0  0  0  0  0  0  0  0  0
  -23.9798   -9.9528   22.2429 C   0  0  0  0  0  0  0  0  0  0  0  0
  -29.3648  -29.2124   25.4736 C   0  0  0  0  0  0  0  0  0  0  0  0
  -30.0819  -28.0024   23.0719 C   0  0  0  0  0  0  0  0  0  0  0  0
  -32.6150  -29.0858   18.8228 C   0  0  0  0  0  0  0  0  0  0  0  0
  -22.4150   -8.7535   20.2691 C   0  0  0  0  0  0  0  0  0  0  0  0
  -23.2713   -8.7856   22.5281 C   0  0  0  0  0  0  0  0  0  0  0  0
  -33.2942  -28.0385   18.2018 C   0  0  0  0  0  0  0  0  0  0  0  0
  -21.4023   -6.0137   23.9569 C   0  0  0  0  0  0  0  0  0  0  0  0
  -20.6975   -5.9594   25.1594 C   0  0  0  0  0  0  0  0  0  0  0  0
  -31.4836  -27.8077   16.6245 C   0  0  0  0  0  0  0  0  0  0  0  0
  -29.8700  -17.8284   18.6823 C   0  0  0  0  0  0  0  0  0  0  0  0
  -19.3830   -7.8675   24.4751 C   0  0  0  0  0  0  0  0  0  0  0  0
  -23.9059  -10.5203   20.9708 C   0  0  0  0  0  0  0  0  0  0  0  0
  -24.1898  -13.0515   20.8281 C   0  0  0  0  0  0  0  0  0  0  0  0
  -28.5169  -29.3347   24.3616 C   0  0  0  0  0  0  0  0  0  0  0  0
  -31.3580  -29.4954   18.3553 C   0  0  0  0  0  0  0  0  0  0  0  0
  -28.8730  -28.7146   23.1487 C   0  0  0  0  0  0  0  0  0  0  0  0
  -30.7917  -28.8621   17.2398 C   0  0  0  0  0  0  0  0  0  0  0  0
  -30.0418  -19.0631   18.0816 C   0  0  0  0  0  0  0  0  0  0  0  0
  -22.4889   -8.1859   21.5412 C   0  0  0  0  0  0  0  0  0  0  0  0
  -32.7272  -27.3974   17.1043 C   0  0  0  0  0  0  0  0  0  0  0  0
  -21.0975   -6.9950   23.0135 C   0  0  0  0  0  0  0  0  0  0  0  0
  -19.6879   -6.8863   25.4185 C   0  0  0  0  0  0  0  0  0  0  0  0
  -20.0878   -7.9219   23.2726 C   0  0  0  0  0  0  0  0  0  0  0  0
  -24.6385  -11.7257   20.6767 C   0  0  0  0  0  0  0  0  0  0  0  0
  -29.3361  -17.7978   19.9549 C   0  0  0  0  0  0  0  0  0  0  0  0
  -29.6680  -20.1854   18.7931 C   0  0  0  0  0  0  0  0  0  0  0  0
  -25.2497  -13.8218   20.4162 C   0  0  0  0  0  0  0  0  0  0  0  0
  -22.9278  -13.5427   21.2991 C   0  0  0  0  0  0  0  0  0  0  0  0
  -28.4296  -29.5947   19.5875 C   0  0  0  0  0  0  0  0  0  0  0  0
  -27.7340  -31.1190   16.8100 C   0  0  0  0  0  0  0  0  0  0  0  0
  -28.5335  -31.6959   13.5427 C   0  0  0  0  0  0  0  0  0  0  0  0
  -30.8609  -14.6526   20.7927 C   0  0  0  0  0  0  0  0  0  0  0  0
  -27.2118  -30.0734   24.5216 C   0  0  0  0  0  0  0  0  0  0  0  0
  -30.6503  -30.6444   19.0197 C   0  0  0  0  0  0  0  0  0  0  0  0
  -29.4539  -29.2773   16.6864 C   0  0  0  0  0  0  0  0  0  0  0  0
  -26.5605  -30.4539   23.1944 C   0  0  0  0  0  0  0  0  0  0  0  0
  -29.5251  -12.5702   18.0394 C   0  0  0  0  0  0  0  0  0  0  0  0
  -26.5693  -29.2674   22.2359 C   0  0  0  0  0  0  0  0  0  0  0  0
  -28.1233  -12.2207   18.5360 C   0  0  0  0  0  0  0  0  0  0  0  0
  -30.4931  -12.8082   19.1944 C   0  0  0  0  0  0  0  0  0  0  0  0
  -28.6242  -13.4801   20.6675 C   0  0  0  0  0  0  0  0  0  0  0  0
  -28.0029  -28.8275   21.9156 C   0  0  1  0  0  0  0  0  0  0  0  0
  -29.1441  -30.6391   18.7773 C   0  0  1  0  0  0  0  0  0  0  0  0
  -27.6131  -13.2797   19.5287 C   0  0  2  0  0  0  0  0  0  0  0  0
  -29.6575  -22.6497   19.2552 C   0  0  0  0  0  0  0  0  0  0  0  0
  -27.7568  -32.9586   11.5180 C   0  0  0  0  0  0  0  0  0  0  0  0
  -25.5119  -29.0710   16.3881 C   0  0  0  0  0  0  0  0  0  0  0  0
  -25.4157  -29.7734   13.9869 C   0  0  0  0  0  0  0  0  0  0  0  0
  -24.8943  -31.4189   15.7878 C   0  0  0  0  0  0  0  0  0  0  0  0
  -31.2775  -16.8617   21.8055 C   0  0  0  0  0  0  0  0  0  0  0  0
  -31.0455  -33.2549   13.4081 C   0  0  0  0  0  0  0  0  0  0  0  0
  -32.6729  -20.5463   13.1934 C   0  0  0  0  0  0  0  0  0  0  0  0
  -30.6203  -19.1529   16.6920 C   0  0  0  0  0  0  0  0  0  0  0  0
  -29.8246  -21.5494   18.2105 C   0  0  0  0  0  0  0  0  0  0  0  0
  -29.1312  -16.4936   20.6465 C   0  0  0  0  0  0  0  0  0  0  0  0
  -32.1485  -19.0229   16.6459 C   0  0  0  0  0  0  0  0  0  0  0  0
  -32.5505  -22.9141   15.2787 C   0  0  0  0  0  0  0  0  0  0  0  0
  -33.3534  -24.0470   15.9136 C   0  0  0  0  0  0  0  0  0  0  0  0
  -32.7763  -19.1650   15.2627 C   0  0  0  0  0  0  0  0  0  0  0  0
  -33.3059  -21.5961   15.3611 C   0  0  0  0  0  0  0  0  0  0  0  0
  -32.5921  -25.3646   15.8773 C   0  0  0  0  0  0  0  0  0  1  0  0
  -27.2877  -30.6847   15.4348 C   0  0  1  0  0  0  0  0  0  0  0  0
  -28.6523  -32.9831   12.7469 C   0  0  2  0  0  0  0  0  0  0  0  0
  -25.8018  -30.2276   15.4108 C   0  0  0  0  0  0  0  0  0  0  0  0
  -25.8861  -11.6543   20.2053 N   0  0  0  0  0  0  0  0  0  0  0  0
  -28.9792  -18.9122   20.6278 N   0  0  0  0  0  0  0  0  0  0  0  0
  -29.1478  -20.1257   20.0372 N   0  0  0  0  0  0  0  0  0  0  0  0
  -26.2305  -12.9448   20.0568 N   0  0  0  0  0  0  0  0  0  0  0  0
  -28.7982  -30.4017   17.3744 N   0  0  0  0  0  0  0  0  0  0  0  0
  -29.9643  -13.7868   20.1452 N   0  0  0  0  0  0  0  0  0  0  0  0
  -25.4291  -15.1570   20.3300 N   0  0  0  0  0  0  0  0  0  0  0  0
  -21.9503  -12.6143   21.6821 N   0  0  0  0  0  0  0  0  0  0  0  0
  -28.6036  -29.7249   20.9522 N   0  0  0  0  0  0  0  0  0  0  0  0
  -27.5854  -31.7968   14.5388 N   0  0  0  0  0  0  0  0  0  0  0  0
  -30.3822  -15.9242   21.1427 N   0  0  0  0  0  0  0  0  0  0  0  0
  -30.0590  -33.1875   12.2994 N   0  3  0  0  0  0  0  0  0  0  0  0
  -32.5102  -20.5377   14.6940 N   0  3  1  0  0  0  0  0  0  0  0  0
  -22.6687  -14.7684   21.3624 O   0  0  0  0  0  0  0  0  0  0  0  0
  -27.7681  -28.7353   19.0169 O   0  0  0  0  0  0  0  0  0  0  0  0
  -27.1641  -32.0647   17.3600 O   0  0  0  0  0  0  0  0  0  0  0  0
  -29.2112  -30.6992   13.3023 O   0  0  0  0  0  0  0  0  0  0  0  0
  -32.0259  -14.3120   21.0351 O   0  0  0  0  0  0  0  0  0  0  0  0
  -21.7975   -7.0471   21.8199 O   0  0  0  0  0  0  0  0  0  0  0  0
  -33.3877  -26.3744   16.4967 O   0  0  0  0  0  0  0  0  0  1  0  0
  -19.0102   -6.8330   26.5726 F   0  0  0  0  0  0  0  0  0  0  0  0
  -19.7897   -8.8661   22.3697 F   0  0  0  0  0  0  0  0  0  0  0  0
  1  2  1  0  0  0  0
  1  5  2  0  0  0  0
  2  6  2  0  0  0  0
  3  8  2  0  0  0  0
  3 16  1  0  0  0  0
  4  9  1  0  0  0  0
  4 16  2  0  0  0  0
  5 18  1  0  0  0  0
  6 20  1  0  0  0  0
  7 10  2  0  0  0  0
  7 19  1  0  0  0  0
  8 23  1  0  0  0  0
  9 23  2  0  0  0  0
 10 24  1  0  0  0  0
 11 12  2  0  0  0  0
 11 25  1  0  0  0  0
 12 26  1  0  0  0  0
 13 21  1  0  0  0  0
 13 24  2  0  0  0  0
 14 22  1  0  0  0  0
 14 29  2  0  0  0  0
 15 26  2  0  0  0  0
 15 27  1  0  0  0  0
 16 28  1  0  0  0  0
 17 28  1  0  0  0  0
 17 31  2  0  0  0  0
 17 32  1  0  0  0  0
 18 20  2  0  0  0  0
 18 37  1  0  0  0  0
 19 21  2  0  0  0  0
 19 38  1  0  0  0  0
 20 46  1  0  0  0  0
 21 39  1  0  0  0  0
 22 30  2  0  0  0  0
 22 57  1  0  0  0  0
 23 87  1  0  0  0  0
 24 88  1  0  0  0  0
 25 27  2  0  0  0  0
 25 87  1  0  0  0  0
 26 89  1  0  0  0  0
 27 90  1  0  0  0  0
 28 69  2  0  0  0  0
 29 59  1  0  0  0  0
 29 70  1  0  0  0  0
 30 58  1  0  0  0  0
 30 71  1  0  0  0  0
 31 72  1  0  0  0  0
 31 75  1  0  0  0  0
 32 76  1  0  0  0  0
 32 82  2  0  0  0  0
 33 47  1  0  0  0  0
 33 77  1  0  0  0  0
 33 83  2  0  0  0  0
 34 66  1  0  0  0  0
 34 73  1  0  0  0  0
 34 84  2  0  0  0  0
 35 67  1  0  0  0  0
 35 78  1  0  0  0  0
 35 85  2  0  0  0  0
 36 74  1  0  0  0  0
 36 79  1  0  0  0  0
 36 86  2  0  0  0  0
 37 40  1  0  0  0  0
 38 47  1  0  0  0  0
 39 73  1  0  0  0  0
 40 42  1  0  0  0  0
 41 43  1  0  0  0  0
 41 44  1  0  0  0  0
 42 46  1  0  0  0  0
 43 48  1  0  0  0  0
 44 74  1  0  0  0  0
 45 48  1  0  0  0  0
 45 74  1  0  0  0  0
 46 77  1  0  0  0  0
 47 73  1  0  0  0  0
 48 72  1  0  0  0  0
 49 58  1  0  0  0  0
 50 67  1  0  0  0  0
 51 68  1  0  0  0  0
 52 68  1  0  0  0  0
 53 68  1  0  0  0  0
 54 79  1  0  0  0  0
 55 80  1  0  0  0  0
 56 81  1  0  0  0  0
 57 60  1  0  0  0  0
 59 79  1  0  0  0  0
 60 63  1  0  0  0  0
 61 62  1  0  0  0  0
 61 64  1  0  0  0  0
 62 65  1  0  0  0  0
 63 81  1  0  0  0  0
 64 81  1  0  0  0  0
 65 88  1  0  0  0  0
 66 68  1  0  0  0  0
 66 78  1  0  0  0  0
 67 80  1  0  0  0  0
 69 72  1  0  0  0  0
 70 71  2  0  0  0  0
M  CHG  2  80   1  81   1
M  ISO  4  36 100  65 101  79 100  88 101
M  END
> <Batch ID>
0092

> <Smiles>
CCc1nnc(C[100N:0](C)[100C:0](=O)N2CCCC(n3nc(-c4ccc(Oc5ccc(F)cc5F)cc4)c(C(N)=O)c3N)C2)cc1CCCN(C)CCC[101CH2:1][101O:1]c1ccc2c(c1)CN(C(=O)C(NC(=O)C(C)NC)C(C)(C)C)C(C(=O)NC1CCCc3ccccc31)C2

> <Shape>
0.239

> <Color>
0.187

> <Negative vol penalty>
0.000

$$$$

  -OEChem-04052319143D

 88 96  0     1  0  0  0  0  0999 V2000
  -31.8096  -32.8082   19.4450 C   0  0  0  0  0  0  0  0  0  0  0  0
  -31.2187  -31.5522   19.5377 C   0  0  0  0  0  0  0  0  0  0  0  0
  -24.7811   -8.8052   21.2276 C   0  0  0  0  0  0  0  0  0  0  0  0
  -23.2424  -10.2098   20.0041 C   0  0  0  0  0  0  0  0  0  0  0  0
  -31.4941  -33.7963   20.3767 C   0  0  0  0  0  0  0  0  0  0  0  0
  -30.3127  -31.2831   20.5629 C   0  0  0  0  0  0  0  0  0  0  0  0
  -26.1936  -28.8361   18.9228 C   0  0  0  0  0  0  0  0  0  0  0  0
  -23.7204   -7.9933   21.6294 C   0  0  0  0  0  0  0  0  0  0  0  0
  -22.1818   -9.3978   20.4059 C   0  0  0  0  0  0  0  0  0  0  0  0
  -26.3185  -27.4682   18.6840 C   0  0  0  0  0  0  0  0  0  0  0  0
  -21.2571   -8.0775   23.9422 C   0  0  0  0  0  0  0  0  0  0  0  0
  -21.2095   -7.6903   25.2814 C   0  0  0  0  0  0  0  0  0  0  0  0
  -25.2897  -27.0080   20.8168 C   0  0  0  0  0  0  0  0  0  0  0  0
  -26.0930  -18.5445   17.8923 C   0  0  0  0  0  0  0  0  0  0  0  0
  -21.3232   -5.3708   24.6148 C   0  0  0  0  0  0  0  0  0  0  0  0
  -24.5421   -9.9135   20.4150 C   0  0  0  0  0  0  0  0  0  0  0  0
  -26.4266  -10.6103   18.8432 C   0  0  0  0  0  0  0  0  0  0  0  0
  -30.5764  -33.5422   21.4082 C   0  0  0  0  0  0  0  0  0  0  0  0
  -25.6247  -29.3010   20.1172 C   0  0  0  0  0  0  0  0  0  0  0  0
  -29.9856  -32.2683   21.5101 C   0  0  0  0  0  0  0  0  0  0  0  0
  -25.1564  -28.3822   21.0672 C   0  0  0  0  0  0  0  0  0  0  0  0
  -26.8020  -19.0340   16.8010 C   0  0  0  0  0  0  0  0  0  0  0  0
  -27.7933  -19.9895   16.9948 C   0  0  0  0  0  0  0  0  0  0  0  0
  -22.4208   -8.2896   21.2185 C   0  0  0  0  0  0  0  0  0  0  0  0
  -25.8692  -26.5539   19.6323 C   0  0  0  0  0  0  0  0  0  0  0  0
  -21.3377   -7.1114   22.9393 C   0  0  0  0  0  0  0  0  0  0  0  0
  -21.2426   -6.3370   25.6177 C   0  0  0  0  0  0  0  0  0  0  0  0
  -21.3708   -5.7581   23.2756 C   0  0  0  0  0  0  0  0  0  0  0  0
  -25.6372  -10.7529   20.0000 C   0  0  0  0  0  0  0  0  0  0  0  0
  -26.4110  -19.0391   19.1470 C   0  0  0  0  0  0  0  0  0  0  0  0
  -28.0351  -20.4195   18.2896 C   0  0  0  0  0  0  0  0  0  0  0  0
  -27.3222  -11.6496   18.9084 C   0  0  0  0  0  0  0  0  0  0  0  0
  -26.3566   -9.6265   17.8026 C   0  0  0  0  0  0  0  0  0  0  0  0
  -26.6549  -31.0585   22.5572 C   0  0  0  0  0  0  0  0  0  0  0  0
  -23.5575  -30.8625   23.5004 C   0  0  0  0  0  0  0  0  0  0  0  0
  -20.5941  -29.1740   23.3817 C   0  0  0  0  0  0  0  0  0  0  0  0
  -27.1700  -17.0010   21.5900 C   0  0  0  0  0  0  0  0  0  0  0  0
  -30.3026  -34.6269   22.4198 C   0  0  0  0  0  0  0  0  0  0  0  0
  -25.4728  -30.7796   20.3480 C   0  0  0  0  0  0  0  0  0  0  0  0
  -24.5197  -28.8299   22.3567 C   0  0  0  0  0  0  0  0  0  0  0  0
  -29.0489  -34.3788   23.2546 C   0  0  0  0  0  0  0  0  0  0  0  0
  -29.5978  -14.4394   22.0596 C   0  0  0  0  0  0  0  0  0  0  0  0
  -29.0203  -32.9399   23.7602 C   0  0  0  0  0  0  0  0  0  0  0  0
  -28.9293  -13.1912   21.4806 C   0  0  0  0  0  0  0  0  0  0  0  0
  -28.5894  -15.3445   22.7638 C   0  0  0  0  0  0  0  0  0  0  0  0
  -26.7534  -14.4764   21.3676 C   0  0  0  0  0  0  0  0  0  0  0  0
  -28.9792  -31.9458   22.5934 C   0  0  1  0  0  0  0  0  0  0  0  0
  -25.3462  -31.1440   21.8239 C   0  0  1  0  0  0  0  0  0  0  0  0
  -27.7210  -13.5601   20.5991 C   0  0  2  0  0  0  0  0  0  0  0  0
  -30.4144  -20.0845   14.1618 C   0  0  0  0  0  0  0  0  0  0  0  0
  -25.0335  -18.8438   15.0149 C   0  0  0  0  0  0  0  0  0  0  0  0
  -26.7393  -17.0098   15.3001 C   0  0  0  0  0  0  0  0  0  0  0  0
  -18.2542  -29.2356   24.2863 C   0  0  0  0  0  0  0  0  0  0  0  0
  -24.5713  -29.8298   26.1866 C   0  0  0  0  0  0  0  0  0  0  0  0
  -22.2505  -29.0280   26.6755 C   0  0  0  0  0  0  0  0  0  0  0  0
  -22.6829  -31.4620   26.3419 C   0  0  0  0  0  0  0  0  0  0  0  0
  -19.4294  -29.4258   20.6727 C   0  0  0  0  0  0  0  0  0  0  0  0
  -28.5718  -20.5309   15.8432 C   0  0  0  0  0  0  0  0  0  0  0  0
  -29.0985  -21.4529   18.5636 C   0  0  0  0  0  0  0  0  0  0  0  0
  -25.6716  -18.5356   20.3414 C   0  0  0  0  0  0  0  0  0  0  0  0
  -29.6449  -19.5451   15.3571 C   0  0  0  0  0  0  0  0  0  0  0  0
  -28.6832  -22.8815   18.1950 C   0  0  0  0  0  0  0  0  0  0  0  0
  -27.4966  -23.3904   19.0147 C   0  0  0  0  0  0  0  0  0  0  0  0
  -27.0880  -24.7955   18.5938 C   0  0  0  0  0  0  0  0  0  1  0  0
  -26.4790  -18.5213   15.4365 C   0  0  0  0  0  0  0  0  0  0  0  0
  -22.7574  -29.9056   24.3509 C   0  0  1  0  0  0  0  0  0  0  0  0
  -19.1720  -29.6504   23.1469 C   0  0  2  0  0  0  0  0  0  0  0  0
  -23.0792  -30.0476   25.8654 C   0  0  0  0  0  0  0  0  0  0  0  0
  -25.9995  -11.8001   20.7457 N   0  0  0  0  0  0  0  0  0  0  0  0
  -27.3672  -19.9672   19.3746 N   0  0  0  0  0  0  0  0  0  0  0  0
  -27.0265  -12.3250   20.0559 N   0  0  0  0  0  0  0  0  0  0  0  0
  -24.3994  -30.2859   22.5389 N   0  0  0  0  0  0  0  0  0  0  0  0
  -27.4694  -15.6582   21.8732 N   0  0  0  0  0  0  0  0  0  0  0  0
  -28.3260  -12.0425   18.0957 N   0  0  0  0  0  0  0  0  0  0  0  0
  -25.3763   -8.6287   17.8914 N   0  0  0  0  0  0  0  0  0  0  0  0
  -27.6444  -31.8721   22.0390 N   0  0  0  0  0  0  0  0  0  0  0  0
  -21.3564  -30.1335   24.0138 N   0  0  0  0  0  0  0  0  0  0  0  0
  -26.0972  -17.2100   20.7320 N   0  0  0  0  0  0  0  0  0  0  0  0
  -18.6364  -29.0776   21.8797 N   0  3  0  0  0  0  0  0  0  0  0  0
  -27.1506   -9.6223   16.8315 O   0  0  0  0  0  0  0  0  0  0  0  0
  -26.7589  -30.3109   23.5226 O   0  0  0  0  0  0  0  0  0  0  0  0
  -23.4345  -32.0770   23.6777 O   0  0  0  0  0  0  0  0  0  0  0  0
  -20.9882  -28.0605   23.0420 O   0  0  0  0  0  0  0  0  0  0  0  0
  -27.8145  -17.9436   22.0623 O   0  0  0  0  0  0  0  0  0  0  0  0
  -21.3856   -7.4974   21.6102 O   0  0  0  0  0  0  0  0  0  0  0  0
  -25.9905  -25.2182   19.4020 O   0  0  0  0  0  0  0  0  0  1  0  0
  -21.1985   -5.9654   26.9038 F   0  0  0  0  0  0  0  0  0  0  0  0
  -21.4494   -4.8254   22.3165 F   0  0  0  0  0  0  0  0  0  0  0  0
  1  2  1  0  0  0  0
  1  5  2  0  0  0  0
  2  6  2  0  0  0  0
  3  8  2  0  0  0  0
  3 16  1  0  0  0  0
  4  9  1  0  0  0  0
  4 16  2  0  0  0  0
  5 18  1  0  0  0  0
  6 20  1  0  0  0  0
  7 10  2  0  0  0  0
  7 19  1  0  0  0  0
  8 24  1  0  0  0  0
  9 24  2  0  0  0  0
 10 25  1  0  0  0  0
 11 12  2  0  0  0  0
 11 26  1  0  0  0  0
 12 27  1  0  0  0  0
 13 21  1  0  0  0  0
 13 25  2  0  0  0  0
 14 22  2  0  0  0  0
 14 30  1  0  0  0  0
 15 27  2  0  0  0  0
 15 28  1  0  0  0  0
 16 29  1  0  0  0  0
 17 29  1  0  0  0  0
 17 32  2  0  0  0  0
 17 33  1  0  0  0  0
 18 20  2  0  0  0  0
 18 38  1  0  0  0  0
 19 21  2  0  0  0  0
 19 39  1  0  0  0  0
 20 47  1  0  0  0  0
 21 40  1  0  0  0  0
 22 23  1  0  0  0  0
 22 65  1  0  0  0  0
 23 31  2  0  0  0  0
 23 58  1  0  0  0  0
 24 85  1  0  0  0  0
 25 86  1  0  0  0  0
 26 28  2  0  0  0  0
 26 85  1  0  0  0  0
 27 87  1  0  0  0  0
 28 88  1  0  0  0  0
 29 69  2  0  0  0  0
 30 60  1  0  0  0  0
 30 70  2  0  0  0  0
 31 59  1  0  0  0  0
 31 70  1  0  0  0  0
 32 71  1  0  0  0  0
 32 74  1  0  0  0  0
 33 75  1  0  0  0  0
 33 80  2  0  0  0  0
 34 48  1  0  0  0  0
 34 76  1  0  0  0  0
 34 81  2  0  0  0  0
 35 66  1  0  0  0  0
 35 72  1  0  0  0  0
 35 82  2  0  0  0  0
 36 67  1  0  0  0  0
 36 77  1  0  0  0  0
 36 83  2  0  0  0  0
 37 73  1  0  0  0  0
 37 78  1  0  0  0  0
 37 84  2  0  0  0  0
 38 41  1  0  0  0  0
 39 48  1  0  0  0  0
 40 72  1  0  0  0  0
 41 43  1  0  0  0  0
 42 44  1  0  0  0  0
 42 45  1  0  0  0  0
 43 47  1  0  0  0  0
 44 49  1  0  0  0  0
 45 73  1  0  0  0  0
 46 49  1  0  0  0  0
 46 73  1  0  0  0  0
 47 76  1  0  0  0  0
 48 72  1  0  0  0  0
 49 71  1  0  0  0  0
 50 61  1  0  0  0  0
 51 65  1  0  0  0  0
 52 65  1  0  0  0  0
 53 67  1  0  0  0  0
 54 68  1  0  0  0  0
 55 68  1  0  0  0  0
 56 68  1  0  0  0  0
 57 79  1  0  0  0  0
 58 61  1  0  0  0  0
 59 62  1  0  0  0  0
 60 78  1  0  0  0  0
 62 63  1  0  0  0  0
 63 64  1  0  0  0  0
 64 86  1  0  0  0  0
 66 68  1  0  0  0  0
 66 77  1  0  0  0  0
 67 79  1  0  0  0  0
 69 71  1  0  0  0  0
M  CHG  1  79   1
M  ISO  4  37 100  64 101  78 100  86 101
M  END
> <Batch ID>
0092

> <Smiles>
CCCc1c(C(C)C)cc(C[100NH:0][100C:0](=O)N2CCCC(n3nc(-c4ccc(Oc5ccc(F)cc5F)cc4)c(C(N)=O)c3N)C2)nc1CCC[101CH2:1][101O:1]c1ccc2c(c1)CN(C(=O)C(NC(=O)C(C)NC)C(C)(C)C)C(C(=O)NC1CCCc3ccccc31)C2

> <Shape>
0.252

> <Color>
0.095

> <Negative vol penalty>
0.000

$$$$

  -OEChem-04052319143D

 85 93  0     1  0  0  0  0  0999 V2000
  -34.4236  -21.9683   38.0210 C   0  0  0  0  0  0  0  0  0  0  0  0
  -33.9361  -21.9168   36.7190 C   0  0  0  0  0  0  0  0  0  0  0  0
  -23.0007   -9.8940   19.9814 C   0  0  0  0  0  0  0  0  0  0  0  0
  -23.7312   -9.9434   22.2838 C   0  0  0  0  0  0  0  0  0  0  0  0
  -35.7820  -22.1862   38.2474 C   0  0  0  0  0  0  0  0  0  0  0  0
  -34.8066  -22.0843   35.6426 C   0  0  0  0  0  0  0  0  0  0  0  0
  -34.0152  -18.7002   31.9594 C   0  0  0  0  0  0  0  0  0  0  0  0
  -22.2361   -8.7584   20.2483 C   0  0  0  0  0  0  0  0  0  0  0  0
  -22.9665   -8.8078   22.5507 C   0  0  0  0  0  0  0  0  0  0  0  0
  -32.9329  -18.9252   31.1098 C   0  0  0  0  0  0  0  0  0  0  0  0
  -23.2134   -5.4696   22.0748 C   0  0  0  0  0  0  0  0  0  0  0  0
  -23.8039   -4.4523   22.8245 C   0  0  0  0  0  0  0  0  0  0  0  0
  -29.2692  -18.1681   24.9781 C   0  0  0  0  0  0  0  0  0  0  0  0
  -29.1523  -17.8022   23.6145 C   0  0  0  0  0  0  0  0  0  0  0  0
  -34.4315  -19.8298   29.4500 C   0  0  0  0  0  0  0  0  0  0  0  0
  -22.0836   -4.6916   24.5039 C   0  0  0  0  0  0  0  0  0  0  0  0
  -23.7483  -10.4865   20.9991 C   0  0  0  0  0  0  0  0  0  0  0  0
  -24.1304  -13.0027   20.8248 C   0  0  0  0  0  0  0  0  0  0  0  0
  -36.6712  -22.3468   37.1730 C   0  0  0  0  0  0  0  0  0  0  0  0
  -35.3147  -19.0490   31.5643 C   0  0  0  0  0  0  0  0  0  0  0  0
  -36.1779  -22.3059   35.8549 C   0  0  0  0  0  0  0  0  0  0  0  0
  -35.5289  -19.6059   30.2954 C   0  0  0  0  0  0  0  0  0  0  0  0
  -22.2189   -8.2153   21.5329 C   0  0  0  0  0  0  0  0  0  0  0  0
  -33.1406  -19.4927   29.8561 C   0  0  0  0  0  0  0  0  0  0  0  0
  -22.0581   -6.0980   22.5397 C   0  0  0  0  0  0  0  0  0  0  0  0
  -23.2389   -4.0632   24.0390 C   0  0  0  0  0  0  0  0  0  0  0  0
  -21.4932   -5.7089   23.7542 C   0  0  0  0  0  0  0  0  0  0  0  0
  -24.5389  -11.6593   20.7239 C   0  0  0  0  0  0  0  0  0  0  0  0
  -30.5706  -17.9259   25.3589 C   0  0  0  0  0  0  0  0  0  0  0  0
  -30.3859  -17.3474   23.2035 C   0  0  0  0  0  0  0  0  0  0  0  0
  -25.2385  -13.7269   20.4586 C   0  0  0  0  0  0  0  0  0  0  0  0
  -22.8628  -13.5473   21.2148 C   0  0  0  0  0  0  0  0  0  0  0  0
  -37.5241  -21.0615   32.6467 C   0  0  0  0  0  0  0  0  0  0  0  0
  -39.3526  -19.6736   30.3548 C   0  0  0  0  0  0  0  0  0  0  0  0
  -39.4970  -17.9674   27.4027 C   0  0  0  0  0  0  0  0  0  0  0  0
  -30.7344  -14.6674   20.6955 C   0  0  0  0  0  0  0  0  0  0  0  0
  -38.1234  -22.6272   37.4682 C   0  0  0  0  0  0  0  0  0  0  0  0
  -36.4747  -18.7752   32.4818 C   0  0  0  0  0  0  0  0  0  0  0  0
  -36.9069  -19.9794   29.8157 C   0  0  0  0  0  0  0  0  0  0  0  0
  -39.0403  -22.4214   36.2653 C   0  0  0  0  0  0  0  0  0  0  0  0
  -29.5910  -12.2449   18.3501 C   0  0  0  0  0  0  0  0  0  0  0  0
  -38.4482  -23.0809   35.0237 C   0  0  0  0  0  0  0  0  0  0  0  0
  -28.1438  -11.9831   18.7707 C   0  0  0  0  0  0  0  0  0  0  0  0
  -30.4960  -12.4800   19.5575 C   0  0  0  0  0  0  0  0  0  0  0  0
  -28.5881  -13.2720   20.9015 C   0  0  0  0  0  0  0  0  0  0  0  0
  -37.0947  -22.4582   34.6606 C   0  0  1  0  0  0  0  0  0  0  0  0
  -37.6926  -19.6431   32.1805 C   0  0  1  0  0  0  0  0  0  0  0  0
  -27.6265  -13.0845   19.7155 C   0  0  2  0  0  0  0  0  0  0  0  0
  -30.6628  -17.8835   20.7545 C   0  0  0  0  0  0  0  0  0  0  0  0
  -41.1336  -17.0065   25.7609 C   0  0  0  0  0  0  0  0  0  0  0  0
  -39.9348  -22.4763   29.2985 C   0  0  0  0  0  0  0  0  0  0  0  0
  -40.7478  -21.4311   27.1737 C   0  0  0  0  0  0  0  0  0  0  0  0
  -41.9088  -20.9411   29.3266 C   0  0  0  0  0  0  0  0  0  0  0  0
  -33.2584  -17.2801   25.6494 C   0  0  0  0  0  0  0  0  0  0  0  0
  -33.3942  -17.8763   23.1987 C   0  0  0  0  0  0  0  0  0  0  0  0
  -32.8738  -15.5528   23.9056 C   0  0  0  0  0  0  0  0  0  0  0  0
  -38.4658  -15.2226   27.8047 C   0  0  0  0  0  0  0  0  0  0  0  0
  -31.2413  -18.1333   26.6933 C   0  0  0  0  0  0  0  0  0  0  0  0
  -30.3114  -18.6997   27.7686 C   0  0  0  0  0  0  0  0  0  0  0  0
  -30.9747  -18.8254   29.1352 C   0  0  0  0  0  0  0  0  0  1  0  0
  -30.8174  -16.8452   21.8827 C   0  0  2  0  0  0  0  0  0  0  0  0
  -39.6255  -19.9450   28.8951 C   0  0  1  0  0  0  0  0  0  0  0  0
  -40.2796  -16.7341   26.9894 C   0  0  2  0  0  0  0  0  0  0  0  0
  -40.5279  -21.1932   28.6830 C   0  0  0  0  0  0  0  0  0  0  0  0
  -32.6358  -17.0426   24.2556 C   0  0  0  0  0  0  0  0  0  0  0  0
  -25.8074  -11.5346   20.3246 N   0  0  0  0  0  0  0  0  0  0  0  0
  -31.2401  -17.4268   24.2722 N   0  0  0  0  0  0  0  0  0  0  0  0
  -26.2056  -12.8090   20.1714 N   0  0  0  0  0  0  0  0  0  0  0  0
  -38.0080  -19.6979   30.7516 N   0  0  0  0  0  0  0  0  0  0  0  0
  -29.9500  -13.5373   20.4119 N   0  0  0  0  0  0  0  0  0  0  0  0
  -25.4703  -15.0530   20.3574 N   0  0  0  0  0  0  0  0  0  0  0  0
  -21.8327  -12.6616   21.5598 N   0  0  0  0  0  0  0  0  0  0  0  0
  -37.2852  -21.1836   34.0022 N   0  0  0  0  0  0  0  0  0  0  0  0
  -40.1751  -18.7101   28.3461 N   0  0  0  0  0  0  0  0  0  0  0  0
  -30.1389  -15.6247   21.5077 N   0  0  0  0  0  0  0  0  0  0  0  0
  -39.3503  -15.6118   26.6763 N   0  3  0  0  0  0  0  0  0  0  0  0
  -22.6447  -14.7823   21.2404 O   0  0  0  0  0  0  0  0  0  0  0  0
  -37.6064  -21.9775   31.8368 O   0  0  0  0  0  0  0  0  0  0  0  0
  -40.2970  -19.4413   31.1136 O   0  0  0  0  0  0  0  0  0  0  0  0
  -38.3961  -18.2463   26.9328 O   0  0  0  0  0  0  0  0  0  0  0  0
  -31.8787  -14.8151   20.2529 O   0  0  0  0  0  0  0  0  0  0  0  0
  -21.4727   -7.1073   21.7938 O   0  0  0  0  0  0  0  0  0  0  0  0
  -32.0859  -19.7140   29.0251 O   0  0  0  0  0  0  0  0  0  1  0  0
  -23.8051   -3.0852   24.7581 F   0  0  0  0  0  0  0  0  0  0  0  0
  -20.3827   -6.3081   24.2054 F   0  0  0  0  0  0  0  0  0  0  0  0
  1  2  1  0  0  0  0
  1  5  2  0  0  0  0
  2  6  2  0  0  0  0
  3  8  2  0  0  0  0
  3 17  1  0  0  0  0
  4  9  1  0  0  0  0
  4 17  2  0  0  0  0
  5 19  1  0  0  0  0
  6 21  1  0  0  0  0
  7 10  2  0  0  0  0
  7 20  1  0  0  0  0
  8 23  1  0  0  0  0
  9 23  2  0  0  0  0
 10 24  1  0  0  0  0
 11 12  2  0  0  0  0
 11 25  1  0  0  0  0
 12 26  1  0  0  0  0
 13 14  1  0  0  0  0
 13 29  2  0  0  0  0
 14 30  2  0  0  0  0
 15 22  1  0  0  0  0
 15 24  2  0  0  0  0
 16 26  2  0  0  0  0
 16 27  1  0  0  0  0
 17 28  1  0  0  0  0
 18 28  1  0  0  0  0
 18 31  2  0  0  0  0
 18 32  1  0  0  0  0
 19 21  2  0  0  0  0
 19 37  1  0  0  0  0
 20 22  2  0  0  0  0
 20 38  1  0  0  0  0
 21 46  1  0  0  0  0
 22 39  1  0  0  0  0
 23 82  1  0  0  0  0
 24 83  1  0  0  0  0
 25 27  2  0  0  0  0
 25 82  1  0  0  0  0
 26 84  1  0  0  0  0
 27 85  1  0  0  0  0
 28 66  2  0  0  0  0
 29 58  1  0  0  0  0
 29 67  1  0  0  0  0
 30 61  1  0  0  0  0
 30 67  1  0  0  0  0
 31 68  1  0  0  0  0
 31 71  1  0  0  0  0
 32 72  1  0  0  0  0
 32 77  2  0  0  0  0
 33 47  1  0  0  0  0
 33 73  1  0  0  0  0
 33 78  2  0  0  0  0
 34 62  1  0  0  0  0
 34 69  1  0  0  0  0
 34 79  2  0  0  0  0
 35 63  1  0  0  0  0
 35 74  1  0  0  0  0
 35 80  2  0  0  0  0
 36 70  1  0  0  0  0
 36 75  1  0  0  0  0
 36 81  2  0  0  0  0
 37 40  1  0  0  0  0
 38 47  1  0  0  0  0
 39 69  1  0  0  0  0
 40 42  1  0  0  0  0
 41 43  1  0  0  0  0
 41 44  1  0  0  0  0
 42 46  1  0  0  0  0
 43 48  1  0  0  0  0
 44 70  1  0  0  0  0
 45 48  1  0  0  0  0
 45 70  1  0  0  0  0
 46 73  1  0  0  0  0
 47 69  1  0  0  0  0
 48 68  1  0  0  0  0
 49 61  1  0  0  0  0
 50 63  1  0  0  0  0
 51 64  1  0  0  0  0
 52 64  1  0  0  0  0
 53 64  1  0  0  0  0
 54 65  1  0  0  0  0
 55 65  1  0  0  0  0
 56 65  1  0  0  0  0
 57 76  1  0  0  0  0
 58 59  1  0  0  0  0
 59 60  1  0  0  0  0
 60 83  1  0  0  0  0
 61 75  1  0  0  0  0
 62 64  1  0  0  0  0
 62 74  1  0  0  0  0
 63 76  1  0  0  0  0
 65 67  1  0  0  0  0
 66 68  1  0  0  0  0
M  CHG  1  76   1
M  ISO  4  36 100  60 101  75 100  83 101
M  END
> <Batch ID>
0092

> <Smiles>
CNC(C)C(=O)NC(C(=O)N1Cc2cc([101O:1][101CH2:1]CCc3ccc(C(C)[100NH:0][100C:0](=O)N4CCCC(n5nc(-c6ccc(Oc7ccc(F)cc7F)cc6)c(C(N)=O)c5N)C4)n3C(C)(C)C)ccc2CC1C(=O)NC1CCCc2ccccc21)C(C)(C)C

> <Shape>
0.175

> <Color>
0.202

> <Negative vol penalty>
0.000

$$$$

  -OEChem-04052319143D

 86 94  0     1  0  0  0  0  0999 V2000
  -19.8410   -9.5444   22.3753 C   0  0  0  0  0  0  0  0  0  0  0  0
  -20.4967  -10.6227   22.9607 C   0  0  0  0  0  0  0  0  0  0  0  0
  -27.4745  -29.7405   19.2751 C   0  0  0  0  0  0  0  0  0  0  0  0
  -26.3325  -28.9105   21.2358 C   0  0  0  0  0  0  0  0  0  0  0  0
  -20.5382   -8.6804   21.5318 C   0  0  0  0  0  0  0  0  0  0  0  0
  -21.8504  -10.8370   22.7037 C   0  0  0  0  0  0  0  0  0  0  0  0
  -22.8975  -15.6952   21.7307 C   0  0  0  0  0  0  0  0  0  0  0  0
  -26.4249  -30.6285   19.0397 C   0  0  0  0  0  0  0  0  0  0  0  0
  -25.2829  -29.7985   21.0003 C   0  0  0  0  0  0  0  0  0  0  0  0
  -22.9749  -16.5606   22.8210 C   0  0  0  0  0  0  0  0  0  0  0  0
  -22.1363  -31.5948   20.7137 C   0  0  0  0  0  0  0  0  0  0  0  0
  -20.8351  -31.1051   20.8264 C   0  0  0  0  0  0  0  0  0  0  0  0
  -25.3819  -16.4135   22.7594 C   0  0  0  0  0  0  0  0  0  0  0  0
  -21.2876  -29.5005   19.0778 C   0  0  0  0  0  0  0  0  0  0  0  0
  -23.6243  -22.0807   22.9278 C   0  0  0  0  0  0  0  0  0  0  0  0
  -27.4282  -28.8814   20.3732 C   0  0  0  0  0  0  0  0  0  0  0  0
  -29.6663  -28.1964   21.3878 C   0  0  0  0  0  0  0  0  0  0  0  0
  -21.8987   -8.8899   21.2567 C   0  0  0  0  0  0  0  0  0  0  0  0
  -24.0634  -15.1729   21.1524 C   0  0  0  0  0  0  0  0  0  0  0  0
  -22.5668   -9.9743   21.8568 C   0  0  0  0  0  0  0  0  0  0  0  0
  -25.3168  -15.5437   21.6602 C   0  0  0  0  0  0  0  0  0  0  0  0
  -23.5703  -22.3388   21.5759 C   0  0  0  0  0  0  0  0  0  0  0  0
  -24.5600  -21.5394   20.9526 C   0  0  0  0  0  0  0  0  0  0  0  0
  -25.3291  -30.6575   19.9023 C   0  0  0  0  0  0  0  0  0  0  0  0
  -24.2170  -16.9176   23.3374 C   0  0  0  0  0  0  0  0  0  0  0  0
  -23.0132  -31.0374   19.7831 C   0  0  0  0  0  0  0  0  0  0  0  0
  -20.4107  -30.0580   20.0084 C   0  0  0  0  0  0  0  0  0  0  0  0
  -22.5888  -29.9902   18.9651 C   0  0  0  0  0  0  0  0  0  0  0  0
  -28.5118  -27.9635   20.6166 C   0  0  0  0  0  0  0  0  0  0  0  0
  -25.1887  -20.8170   21.9427 C   0  0  0  0  0  0  0  0  0  0  0  0
  -30.3763  -27.0235   21.3060 C   0  0  0  0  0  0  0  0  0  0  0  0
  -30.0614  -29.3682   22.1135 C   0  0  0  0  0  0  0  0  0  0  0  0
  -25.2608  -12.2543   20.7628 C   0  0  0  0  0  0  0  0  0  0  0  0
  -27.5101  -13.8303   19.0368 C   0  0  0  0  0  0  0  0  0  0  0  0
  -29.1568  -16.7521   18.4057 C   0  0  0  0  0  0  0  0  0  0  0  0
  -28.7733  -21.3518   20.2512 C   0  0  0  0  0  0  0  0  0  0  0  0
  -22.6218   -7.9019   20.3759 C   0  0  0  0  0  0  0  0  0  0  0  0
  -23.9639  -14.2617   19.9599 C   0  0  0  0  0  0  0  0  0  0  0  0
  -26.5990  -15.0266   21.0627 C   0  0  0  0  0  0  0  0  0  0  0  0
  -23.9629   -8.4152   19.8581 C   0  0  0  0  0  0  0  0  0  0  0  0
  -31.1205  -23.2916   18.4061 C   0  0  0  0  0  0  0  0  0  0  0  0
  -24.7659   -9.0473   20.9907 C   0  0  0  0  0  0  0  0  0  0  0  0
  -30.8223  -24.7299   18.8330 C   0  0  0  0  0  0  0  0  0  0  0  0
  -29.8462  -22.4556   18.3103 C   0  0  0  0  0  0  0  0  0  0  0  0
  -28.7095  -23.9017   19.9505 C   0  0  0  0  0  0  0  0  0  0  0  0
  -24.0285  -10.2544   21.5828 C   0  0  1  0  0  0  0  0  0  0  0  0
  -25.1978  -13.3839   19.7740 C   0  0  1  0  0  0  0  0  0  0  0  0
  -29.9694  -24.7688   20.1153 C   0  0  2  0  0  0  0  0  0  0  0  0
  -24.8640  -21.4882   19.5076 C   0  0  0  0  0  0  0  0  0  0  0  0
  -30.9690  -17.7205   16.9651 C   0  0  0  0  0  0  0  0  0  0  0  0
  -24.1670  -25.3165   21.1263 C   0  0  0  0  0  0  0  0  0  0  0  0
  -21.7258  -25.6356   20.6768 C   0  0  0  0  0  0  0  0  0  0  0  0
  -29.6165  -12.4797   20.7829 C   0  0  0  0  0  0  0  0  0  0  0  0
  -31.2769  -14.1639   19.9613 C   0  0  0  0  0  0  0  0  0  0  0  0
  -30.1941  -12.5950   18.3523 C   0  0  0  0  0  0  0  0  0  0  0  0
  -27.2916  -18.6785   17.1530 C   0  0  0  0  0  0  0  0  0  0  0  0
  -22.6463  -23.2787   20.9101 C   0  0  0  0  0  0  0  0  0  0  0  0
  -26.2893  -19.8341   21.8537 C   0  0  0  0  0  0  0  0  0  0  0  0
  -23.8232  -19.9588   25.2422 C   0  0  0  0  0  0  0  0  0  0  0  0
  -24.9906  -20.6018   24.4901 C   0  0  0  0  0  0  0  0  0  0  0  0
  -27.6650  -20.3946   22.2548 C   0  0  0  0  0  0  0  0  0  0  0  0
  -23.2564  -18.7299   24.5409 C   0  0  0  0  0  0  0  0  0  1  0  0
  -28.8363  -14.4803   19.3494 C   0  0  1  0  0  0  0  0  0  0  0  0
  -29.4760  -17.4680   17.1057 C   0  0  2  0  0  0  0  0  0  0  0  0
  -22.7647  -24.7567   21.3779 C   0  0  0  0  0  0  0  0  0  0  0  0
  -29.9569  -13.4381   19.6242 C   0  0  0  0  0  0  0  0  0  0  0  0
  -28.4861  -26.7389   20.0838 N   0  0  0  0  0  0  0  0  0  0  0  0
  -24.6116  -21.1539   23.1391 N   0  0  0  0  0  0  0  0  0  0  0  0
  -29.6332  -26.1919   20.5209 N   0  0  0  0  0  0  0  0  0  0  0  0
  -26.4492  -14.1335   19.9019 N   0  0  0  0  0  0  0  0  0  0  0  0
  -29.0841  -22.5338   19.5589 N   0  0  0  0  0  0  0  0  0  0  0  0
  -31.5577  -26.6328   21.8296 N   0  0  0  0  0  0  0  0  0  0  0  0
  -29.2145  -30.4847   22.0919 N   0  0  0  0  0  0  0  0  0  0  0  0
  -24.1703  -11.4068   20.7190 N   0  0  0  0  0  0  0  0  0  0  0  0
  -29.1197  -15.3838   18.2395 N   0  0  0  0  0  0  0  0  0  0  0  0
  -28.0540  -21.5157   21.4286 N   0  0  0  0  0  0  0  0  0  0  0  0
  -28.7702  -18.7794   17.0497 N   0  3  0  0  0  0  0  0  0  0  0  0
  -31.1416  -29.4291   22.7483 O   0  0  0  0  0  0  0  0  0  0  0  0
  -26.2279  -12.1579   21.5092 O   0  0  0  0  0  0  0  0  0  0  0  0
  -27.4171  -13.0868   18.0569 O   0  0  0  0  0  0  0  0  0  0  0  0
  -28.9636  -17.3471   19.4637 O   0  0  0  0  0  0  0  0  0  0  0  0
  -29.1164  -20.2336   19.8524 O   0  0  0  0  0  0  0  0  0  0  0  0
  -24.3049  -31.5241   19.6730 O   0  0  0  0  0  0  0  0  0  0  0  0
  -24.2953  -17.7617   24.4019 O   0  0  0  0  0  0  0  0  0  1  0  0
  -19.1617  -29.5868   20.1178 F   0  0  0  0  0  0  0  0  0  0  0  0
  -23.4270  -29.4499   18.0700 F   0  0  0  0  0  0  0  0  0  0  0  0
  1  2  1  0  0  0  0
  1  5  2  0  0  0  0
  2  6  2  0  0  0  0
  3  8  2  0  0  0  0
  3 16  1  0  0  0  0
  4  9  1  0  0  0  0
  4 16  2  0  0  0  0
  5 18  1  0  0  0  0
  6 20  1  0  0  0  0
  7 10  2  0  0  0  0
  7 19  1  0  0  0  0
  8 24  1  0  0  0  0
  9 24  2  0  0  0  0
 10 25  1  0  0  0  0
 11 12  2  0  0  0  0
 11 26  1  0  0  0  0
 12 27  1  0  0  0  0
 13 21  1  0  0  0  0
 13 25  2  0  0  0  0
 14 27  2  0  0  0  0
 14 28  1  0  0  0  0
 15 22  2  0  0  0  0
 15 68  1  0  0  0  0
 16 29  1  0  0  0  0
 17 29  1  0  0  0  0
 17 31  2  0  0  0  0
 17 32  1  0  0  0  0
 18 20  2  0  0  0  0
 18 37  1  0  0  0  0
 19 21  2  0  0  0  0
 19 38  1  0  0  0  0
 20 46  1  0  0  0  0
 21 39  1  0  0  0  0
 22 23  1  0  0  0  0
 22 57  1  0  0  0  0
 23 30  2  0  0  0  0
 23 49  1  0  0  0  0
 24 83  1  0  0  0  0
 25 84  1  0  0  0  0
 26 28  2  0  0  0  0
 26 83  1  0  0  0  0
 27 85  1  0  0  0  0
 28 86  1  0  0  0  0
 29 67  2  0  0  0  0
 30 58  1  0  0  0  0
 30 68  1  0  0  0  0
 31 69  1  0  0  0  0
 31 72  1  0  0  0  0
 32 73  1  0  0  0  0
 32 78  2  0  0  0  0
 33 47  1  0  0  0  0
 33 74  1  0  0  0  0
 33 79  2  0  0  0  0
 34 63  1  0  0  0  0
 34 70  1  0  0  0  0
 34 80  2  0  0  0  0
 35 64  1  0  0  0  0
 35 75  1  0  0  0  0
 35 81  2  0  0  0  0
 36 71  1  0  0  0  0
 36 76  1  0  0  0  0
 36 82  2  0  0  0  0
 37 40  1  0  0  0  0
 38 47  1  0  0  0  0
 39 70  1  0  0  0  0
 40 42  1  0  0  0  0
 41 43  1  0  0  0  0
 41 44  1  0  0  0  0
 42 46  1  0  0  0  0
 43 48  1  0  0  0  0
 44 71  1  0  0  0  0
 45 48  1  0  0  0  0
 45 71  1  0  0  0  0
 46 74  1  0  0  0  0
 47 70  1  0  0  0  0
 48 69  1  0  0  0  0
 50 64  1  0  0  0  0
 51 65  1  0  0  0  0
 52 65  1  0  0  0  0
 53 66  1  0  0  0  0
 54 66  1  0  0  0  0
 55 66  1  0  0  0  0
 56 77  1  0  0  0  0
 57 65  1  0  0  0  0
 58 61  1  0  0  0  0
 59 60  1  0  0  0  0
 59 62  1  0  0  0  0
 60 68  1  0  0  0  0
 61 76  1  0  0  0  0
 62 84  1  0  0  0  0
 63 66  1  0  0  0  0
 63 75  1  0  0  0  0
 64 77  1  0  0  0  0
 67 69  1  0  0  0  0
M  CHG  1  77   1
M  ISO  4  36 100  62 101  76 100  84 101
M  END
> <Batch ID>
0092

> <Smiles>
CNC(C)C(=O)NC(C(=O)N1Cc2cc([101O:1][101CH2:1]CCn3cc(CC(C)C)c(C)c3CC[100NH:0][100C:0](=O)N3CCCC(n4nc(-c5ccc(Oc6ccc(F)cc6F)cc5)c(C(N)=O)c4N)C3)ccc2CC1C(=O)NC1CCCc2ccccc21)C(C)(C)C

> <Shape>
0.250

> <Color>
0.065

> <Negative vol penalty>
0.000

$$$$

  -OEChem-04052319143D

 83 91  0     1  0  0  0  0  0999 V2000
  -22.6746  -23.4016   20.7269 C   0  0  0  0  0  0  0  0  0  0  0  0
  -23.7936  -22.8455   20.1153 C   0  0  0  0  0  0  0  0  0  0  0  0
  -25.9489  -27.4762   18.9212 C   0  0  0  0  0  0  0  0  0  0  0  0
  -26.3592  -27.6332   21.2969 C   0  0  0  0  0  0  0  0  0  0  0  0
  -22.1297  -22.7998   21.8604 C   0  0  0  0  0  0  0  0  0  0  0  0
  -24.3690  -21.6877   20.6376 C   0  0  0  0  0  0  0  0  0  0  0  0
  -27.8220  -15.7554   18.5879 C   0  0  0  0  0  0  0  0  0  0  0  0
  -24.8249  -28.2902   19.0615 C   0  0  0  0  0  0  0  0  0  0  0  0
  -25.2352  -28.4472   21.4373 C   0  0  0  0  0  0  0  0  0  0  0  0
  -28.9851  -15.0371   18.8619 C   0  0  0  0  0  0  0  0  0  0  0  0
  -24.4256  -31.6855   20.9098 C   0  0  0  0  0  0  0  0  0  0  0  0
  -24.5490  -32.8275   21.7011 C   0  0  0  0  0  0  0  0  0  0  0  0
  -27.9106  -14.0398   20.7776 C   0  0  0  0  0  0  0  0  0  0  0  0
  -30.9461  -16.0561   22.7095 C   0  0  0  0  0  0  0  0  0  0  0  0
  -22.8061  -32.0060   23.1587 C   0  0  0  0  0  0  0  0  0  0  0  0
  -33.2348  -17.5340   22.8626 C   0  0  0  0  0  0  0  0  0  0  0  0
  -26.7160  -27.1476   20.0389 C   0  0  0  0  0  0  0  0  0  0  0  0
  -29.1987  -26.7181   19.6395 C   0  0  0  0  0  0  0  0  0  0  0  0
  -22.6929  -21.6286   22.3911 C   0  0  0  0  0  0  0  0  0  0  0  0
  -26.6962  -15.6294   19.4144 C   0  0  0  0  0  0  0  0  0  0  0  0
  -23.8320  -21.0704   21.7801 C   0  0  0  0  0  0  0  0  0  0  0  0
  -26.7336  -14.7557   20.5105 C   0  0  0  0  0  0  0  0  0  0  0  0
  -32.1752  -15.4302   22.5338 C   0  0  0  0  0  0  0  0  0  0  0  0
  -33.3461  -16.1761   22.6102 C   0  0  0  0  0  0  0  0  0  0  0  0
  -24.4681  -28.7757   20.3195 C   0  0  0  0  0  0  0  0  0  0  0  0
  -29.0305  -14.1814   19.9586 C   0  0  0  0  0  0  0  0  0  0  0  0
  -23.4923  -30.7038   21.2429 C   0  0  0  0  0  0  0  0  0  0  0  0
  -23.7393  -32.9878   22.8256 C   0  0  0  0  0  0  0  0  0  0  0  0
  -22.6826  -30.8640   22.3673 C   0  0  0  0  0  0  0  0  0  0  0  0
  -27.8769  -26.3064   19.8948 C   0  0  0  0  0  0  0  0  0  0  0  0
  -30.9422  -17.4193   22.9576 C   0  0  0  0  0  0  0  0  0  0  0  0
  -29.9193  -25.5497   19.5931 C   0  0  0  0  0  0  0  0  0  0  0  0
  -29.7278  -28.0386   19.4604 C   0  0  0  0  0  0  0  0  0  0  0  0
  -25.0315  -17.6151   21.2554 C   0  0  0  0  0  0  0  0  0  0  0  0
  -23.0739  -15.0493   21.5824 C   0  0  0  0  0  0  0  0  0  0  0  0
  -22.6982  -11.6591   21.4717 C   0  0  0  0  0  0  0  0  0  0  0  0
  -29.0131  -20.2684   22.0713 C   0  0  0  0  0  0  0  0  0  0  0  0
  -22.0973  -21.0406   23.6458 C   0  0  0  0  0  0  0  0  0  0  0  0
  -25.4404  -16.3909   19.0897 C   0  0  0  0  0  0  0  0  0  0  0  0
  -25.5453  -14.5694   21.4170 C   0  0  0  0  0  0  0  0  0  0  0  0
  -22.5415  -19.6054   23.9163 C   0  0  0  0  0  0  0  0  0  0  0  0
  -29.4575  -20.9046   18.5365 C   0  0  0  0  0  0  0  0  0  0  0  0
  -24.0508  -19.4716   23.7401 C   0  0  0  0  0  0  0  0  0  0  0  0
  -29.2250  -22.4150   18.4677 C   0  0  0  0  0  0  0  0  0  0  0  0
  -28.5258  -20.2474   19.5505 C   0  0  0  0  0  0  0  0  0  0  0  0
  -28.3730  -22.3317   20.8566 C   0  0  0  0  0  0  0  0  0  0  0  0
  -24.4697  -19.8013   22.3023 C   0  0  1  0  0  0  0  0  0  0  0  0
  -24.5249  -16.5756   20.2960 C   0  0  1  0  0  0  0  0  0  0  0  0
  -29.3005  -23.0578   19.8653 C   0  0  2  0  0  0  0  0  0  0  0  0
  -35.5953  -15.7672   23.6401 C   0  0  0  0  0  0  0  0  0  0  0  0
  -20.9908   -9.8539   21.8233 C   0  0  0  0  0  0  0  0  0  0  0  0
  -23.3427  -15.3868   24.6030 C   0  0  0  0  0  0  0  0  0  0  0  0
  -22.4399  -13.0672   24.8724 C   0  0  0  0  0  0  0  0  0  0  0  0
  -21.0335  -14.8361   23.8161 C   0  0  0  0  0  0  0  0  0  0  0  0
  -22.9248  -10.7380   18.6683 C   0  0  0  0  0  0  0  0  0  0  0  0
  -32.2140  -13.9475   22.2626 C   0  0  0  0  0  0  0  0  0  0  0  0
  -34.6883  -15.5566   22.4294 C   0  0  0  0  0  0  0  0  0  0  0  0
  -29.6412  -18.1243   23.1509 C   0  0  0  0  0  0  0  0  0  0  0  0
  -32.4921  -13.5960   20.7995 C   0  0  0  0  0  0  0  0  0  0  0  0
  -31.4036  -14.0752   19.8460 C   0  0  0  0  0  0  0  0  0  1  0  0
  -22.9928  -13.8810   22.5351 C   0  0  1  0  0  0  0  0  0  0  0  0
  -21.6472  -10.7831   20.8141 C   0  0  2  0  0  0  0  0  0  0  0  0
  -22.4754  -14.2975   23.9409 C   0  0  0  0  0  0  0  0  0  0  0  0
  -32.0588  -18.1771   23.0388 N   0  0  0  0  0  0  0  0  0  0  0  0
  -27.7617  -24.9801   20.0028 N   0  0  0  0  0  0  0  0  0  0  0  0
  -29.0203  -24.5482   19.8144 N   0  0  0  0  0  0  0  0  0  0  0  0
  -24.3427  -15.3407   21.0616 N   0  0  0  0  0  0  0  0  0  0  0  0
  -28.6599  -20.8933   20.8638 N   0  0  0  0  0  0  0  0  0  0  0  0
  -31.2279  -25.2916   19.3849 N   0  0  0  0  0  0  0  0  0  0  0  0
  -28.8485  -29.1271   19.5396 N   0  0  0  0  0  0  0  0  0  0  0  0
  -24.1783  -18.6891   21.4234 N   0  0  0  0  0  0  0  0  0  0  0  0
  -22.1753  -12.8703   21.8728 N   0  0  0  0  0  0  0  0  0  0  0  0
  -29.2617  -18.9035   21.9934 N   0  0  0  0  0  0  0  0  0  0  0  0
  -22.2631   -9.9520   19.7412 N   0  3  0  0  0  0  0  0  0  0  0  0
  -30.9414  -28.2459   19.2205 O   0  0  0  0  0  0  0  0  0  0  0  0
  -26.1154  -17.4540   21.8038 O   0  0  0  0  0  0  0  0  0  0  0  0
  -22.0481  -15.6757   21.3048 O   0  0  0  0  0  0  0  0  0  0  0  0
  -23.8653  -11.3030   21.6186 O   0  0  0  0  0  0  0  0  0  0  0  0
  -29.1055  -20.8826   23.1397 O   0  0  0  0  0  0  0  0  0  0  0  0
  -23.3715  -29.5702   20.4567 O   0  0  0  0  0  0  0  0  0  0  0  0
  -30.1646  -13.4796   20.2287 O   0  0  0  0  0  0  0  0  0  1  0  0
  -23.8591  -34.0838   23.5862 F   0  0  0  0  0  0  0  0  0  0  0  0
  -21.7851  -29.9237   22.6930 F   0  0  0  0  0  0  0  0  0  0  0  0
  1  2  1  0  0  0  0
  1  5  2  0  0  0  0
  2  6  2  0  0  0  0
  3  8  2  0  0  0  0
  3 17  1  0  0  0  0
  4  9  1  0  0  0  0
  4 17  2  0  0  0  0
  5 19  1  0  0  0  0
  6 21  1  0  0  0  0
  7 10  2  0  0  0  0
  7 20  1  0  0  0  0
  8 25  1  0  0  0  0
  9 25  2  0  0  0  0
 10 26  1  0  0  0  0
 11 12  2  0  0  0  0
 11 27  1  0  0  0  0
 12 28  1  0  0  0  0
 13 22  1  0  0  0  0
 13 26  2  0  0  0  0
 14 23  1  0  0  0  0
 14 31  2  0  0  0  0
 15 28  2  0  0  0  0
 15 29  1  0  0  0  0
 16 24  1  0  0  0  0
 16 64  2  0  0  0  0
 17 30  1  0  0  0  0
 18 30  1  0  0  0  0
 18 32  2  0  0  0  0
 18 33  1  0  0  0  0
 19 21  2  0  0  0  0
 19 38  1  0  0  0  0
 20 22  2  0  0  0  0
 20 39  1  0  0  0  0
 21 47  1  0  0  0  0
 22 40  1  0  0  0  0
 23 24  2  0  0  0  0
 23 56  1  0  0  0  0
 24 57  1  0  0  0  0
 25 80  1  0  0  0  0
 26 81  1  0  0  0  0
 27 29  2  0  0  0  0
 27 80  1  0  0  0  0
 28 82  1  0  0  0  0
 29 83  1  0  0  0  0
 30 65  2  0  0  0  0
 31 58  1  0  0  0  0
 31 64  1  0  0  0  0
 32 66  1  0  0  0  0
 32 69  1  0  0  0  0
 33 70  1  0  0  0  0
 33 75  2  0  0  0  0
 34 48  1  0  0  0  0
 34 71  1  0  0  0  0
 34 76  2  0  0  0  0
 35 61  1  0  0  0  0
 35 67  1  0  0  0  0
 35 77  2  0  0  0  0
 36 62  1  0  0  0  0
 36 72  1  0  0  0  0
 36 78  2  0  0  0  0
 37 68  1  0  0  0  0
 37 73  1  0  0  0  0
 37 79  2  0  0  0  0
 38 41  1  0  0  0  0
 39 48  1  0  0  0  0
 40 67  1  0  0  0  0
 41 43  1  0  0  0  0
 42 44  1  0  0  0  0
 42 45  1  0  0  0  0
 43 47  1  0  0  0  0
 44 49  1  0  0  0  0
 45 68  1  0  0  0  0
 46 49  1  0  0  0  0
 46 68  1  0  0  0  0
 47 71  1  0  0  0  0
 48 67  1  0  0  0  0
 49 66  1  0  0  0  0
 50 57  1  0  0  0  0
 51 62  1  0  0  0  0
 52 63  1  0  0  0  0
 53 63  1  0  0  0  0
 54 63  1  0  0  0  0
 55 74  1  0  0  0  0
 56 59  1  0  0  0  0
 58 73  1  0  0  0  0
 59 60  1  0  0  0  0
 60 81  1  0  0  0  0
 61 63  1  0  0  0  0
 61 72  1  0  0  0  0
 62 74  1  0  0  0  0
 65 66  1  0  0  0  0
M  CHG  1  74   1
M  ISO  4  37 100  60 101  73 100  81 101
M  END
> <Batch ID>
0092

> <Smiles>
CCc1cnc(C[100NH:0][100C:0](=O)N2CCCC(n3nc(-c4ccc(Oc5ccc(F)cc5F)cc4)c(C(N)=O)c3N)C2)cc1CC[101CH2:1][101O:1]c1ccc2c(c1)CN(C(=O)C(NC(=O)C(C)NC)C(C)(C)C)C(C(=O)NC1CCCc3ccccc31)C2

> <Shape>
0.244

> <Color>
0.052

> <Negative vol penalty>
0.000

$$$$

  -OEChem-04052319143D

 87 95  0     1  0  0  0  0  0999 V2000
  -19.7453  -34.2200   22.4951 C   0  0  0  0  0  0  0  0  0  0  0  0
  -21.0142  -33.8601   22.0524 C   0  0  0  0  0  0  0  0  0  0  0  0
  -25.7058  -14.0028   21.2331 C   0  0  0  0  0  0  0  0  0  0  0  0
  -25.7553  -14.2820   18.8338 C   0  0  0  0  0  0  0  0  0  0  0  0
  -19.0375  -33.3702   23.3441 C   0  0  0  0  0  0  0  0  0  0  0  0
  -21.5764  -32.6507   22.4595 C   0  0  0  0  0  0  0  0  0  0  0  0
  -25.2447  -29.0068   19.1775 C   0  0  0  0  0  0  0  0  0  0  0  0
  -24.6914  -13.0545   21.1019 C   0  0  0  0  0  0  0  0  0  0  0  0
  -24.7409  -13.3336   18.7026 C   0  0  0  0  0  0  0  0  0  0  0  0
  -26.6297  -28.8493   19.1500 C   0  0  0  0  0  0  0  0  0  0  0  0
  -24.4273   -9.7890   20.2654 C   0  0  0  0  0  0  0  0  0  0  0  0
  -24.5383   -8.6140   21.0088 C   0  0  0  0  0  0  0  0  0  0  0  0
  -26.4419  -26.9862   20.6708 C   0  0  0  0  0  0  0  0  0  0  0  0
  -22.4512   -9.1180   22.1167 C   0  0  0  0  0  0  0  0  0  0  0  0
  -30.4482  -22.7956   18.2951 C   0  0  0  0  0  0  0  0  0  0  0  0
  -26.2378  -14.6166   20.0991 C   0  0  0  0  0  0  0  0  0  0  0  0
  -28.6734  -15.3627   20.2352 C   0  0  0  0  0  0  0  0  0  0  0  0
  -19.5873  -32.1454   23.7540 C   0  0  0  0  0  0  0  0  0  0  0  0
  -24.4475  -28.1606   19.9616 C   0  0  0  0  0  0  0  0  0  0  0  0
  -20.8758  -31.7844   23.3158 C   0  0  0  0  0  0  0  0  0  0  0  0
  -25.0468  -27.1334   20.7044 C   0  0  0  0  0  0  0  0  0  0  0  0
  -24.2090  -12.7198   19.8366 C   0  0  0  0  0  0  0  0  0  0  0  0
  -27.2287  -27.8408   19.8990 C   0  0  0  0  0  0  0  0  0  0  0  0
  -23.3284  -10.6285   20.4476 C   0  0  0  0  0  0  0  0  0  0  0  0
  -23.5502   -8.2785   21.9344 C   0  0  0  0  0  0  0  0  0  0  0  0
  -22.3403  -10.2930   21.3732 C   0  0  0  0  0  0  0  0  0  0  0  0
  -27.2853  -15.5967   20.2341 C   0  0  0  0  0  0  0  0  0  0  0  0
  -29.6910  -23.3796   17.3192 C   0  0  0  0  0  0  0  0  0  0  0  0
  -29.2315  -16.6080   20.3908 C   0  0  0  0  0  0  0  0  0  0  0  0
  -30.6427  -24.9910   18.5016 C   0  0  0  0  0  0  0  0  0  0  0  0
  -29.3941  -14.1298   20.1071 C   0  0  0  0  0  0  0  0  0  0  0  0
  -22.4801  -28.5778   22.4231 C   0  0  0  0  0  0  0  0  0  0  0  0
  -21.8642  -25.4263   21.9637 C   0  0  0  0  0  0  0  0  0  0  0  0
  -22.9186  -22.4147   20.7534 C   0  0  0  0  0  0  0  0  0  0  0  0
  -27.2928  -22.1311   19.1305 C   0  0  0  0  0  0  0  0  0  0  0  0
  -18.8037  -31.2816   24.7103 C   0  0  0  0  0  0  0  0  0  0  0  0
  -22.9526  -28.3267   19.9594 C   0  0  0  0  0  0  0  0  0  0  0  0
  -24.2338  -26.1856   21.5466 C   0  0  0  0  0  0  0  0  0  0  0  0
  -19.3165  -29.8463   24.7947 C   0  0  0  0  0  0  0  0  0  0  0  0
  -28.3350  -20.9004   22.3047 C   0  0  0  0  0  0  0  0  0  0  0  0
  -20.8353  -29.8295   24.9351 C   0  0  0  0  0  0  0  0  0  0  0  0
  -28.3094  -19.3804   22.1341 C   0  0  0  0  0  0  0  0  0  0  0  0
  -27.1958  -21.5732   21.5421 C   0  0  0  0  0  0  0  0  0  0  0  0
  -27.0905  -19.7025   19.9411 C   0  0  0  0  0  0  0  0  0  0  0  0
  -21.5093  -30.4695   23.7154 C   0  0  1  0  0  0  0  0  0  0  0  0
  -22.2837  -27.7337   21.1957 C   0  0  1  0  0  0  0  0  0  0  0  0
  -28.2535  -18.9841   20.6465 C   0  0  2  0  0  0  0  0  0  0  0  0
  -31.3082  -26.0572   13.3517 C   0  0  0  0  0  0  0  0  0  0  0  0
  -32.5814  -26.5405   18.8632 C   0  0  0  0  0  0  0  0  0  0  0  0
  -22.2139  -20.0141   20.5584 C   0  0  0  0  0  0  0  0  0  0  0  0
  -29.5448  -27.7473   15.1806 C   0  0  0  0  0  0  0  0  0  0  0  0
  -22.5219  -24.9963   24.9119 C   0  0  0  0  0  0  0  0  0  0  0  0
  -22.7323  -22.5473   24.4359 C   0  0  0  0  0  0  0  0  0  0  0  0
  -20.5492  -23.7015   24.0836 C   0  0  0  0  0  0  0  0  0  0  0  0
  -22.9848  -22.5146   17.7963 C   0  0  0  0  0  0  0  0  0  0  0  0
  -28.8594  -22.7761   16.2708 C   0  0  0  0  0  0  0  0  0  0  0  0
  -30.3776  -25.4706   14.4047 C   0  0  0  0  0  0  0  0  0  0  0  0
  -30.6411  -26.6108   20.4750 C   0  0  0  0  0  0  0  0  0  0  0  0
  -29.1959  -25.7495   16.6455 C   0  0  0  0  0  0  0  0  0  0  0  0
  -27.3931  -22.5298   16.6830 C   0  0  0  0  0  0  0  0  0  0  0  0
  -29.1274  -26.6313   20.6660 C   0  0  0  0  0  0  0  0  0  1  0  0
  -31.0668  -26.3558   19.0161 C   0  0  2  0  0  0  0  0  0  0  0  0
  -22.4539  -24.1356   22.4787 C   0  0  1  0  0  0  0  0  0  0  0  0
  -22.2254  -21.3786   19.8871 C   0  0  2  0  0  0  0  0  0  0  0  0
  -30.1380  -26.4014   15.6111 C   0  0  2  0  0  0  0  0  0  0  0  0
  -22.0801  -23.8641   23.9633 C   0  0  0  0  0  0  0  0  0  0  0  0
  -26.9801  -16.8891   20.3776 N   0  0  0  0  0  0  0  0  0  0  0  0
  -29.8295  -24.7383   17.4709 N   0  0  0  0  0  0  0  0  0  0  0  0
  -28.1844  -17.4784   20.4706 N   0  0  0  0  0  0  0  0  0  0  0  0
  -31.0258  -23.8160   19.0114 N   0  3  0  0  0  0  0  0  0  0  0  0
  -22.7765  -26.3926   21.5165 N   0  0  0  0  0  0  0  0  0  0  0  0
  -27.1999  -21.1565   20.1377 N   0  0  0  0  0  0  0  0  0  0  0  0
  -30.5107  -17.0326   20.4659 N   0  0  0  0  0  0  0  0  0  0  0  0
  -28.6650  -12.9425   19.9547 N   0  0  0  0  0  0  0  0  0  0  0  0
  -21.5127  -29.5488   22.5988 N   0  0  0  0  0  0  0  0  0  0  0  0
  -22.0237  -23.0926   21.5538 N   0  0  0  0  0  0  0  0  0  0  0  0
  -27.2964  -21.6504   17.8268 N   0  0  0  0  0  0  0  0  0  0  0  0
  -22.9208  -21.2512   18.5752 N   0  3  0  0  0  0  0  0  0  0  0  0
  -30.6470  -14.0805   20.1436 O   0  0  0  0  0  0  0  0  0  0  0  0
  -23.4375  -28.3631   23.1572 O   0  0  0  0  0  0  0  0  0  0  0  0
  -20.6390  -25.5691   21.9516 O   0  0  0  0  0  0  0  0  0  0  0  0
  -24.1331  -22.6011   20.7257 O   0  0  0  0  0  0  0  0  0  0  0  0
  -27.3725  -23.3397   19.3751 O   0  0  0  0  0  0  0  0  0  0  0  0
  -23.2193  -11.7943   19.7082 O   0  0  0  0  0  0  0  0  0  0  0  0
  -28.5804  -27.6853   19.8746 O   0  0  0  0  0  0  0  0  0  1  0  0
  -23.6561   -7.1494   22.6472 F   0  0  0  0  0  0  0  0  0  0  0  0
  -21.2817  -11.0950   21.5518 F   0  0  0  0  0  0  0  0  0  0  0  0
  1  2  1  0  0  0  0
  1  5  2  0  0  0  0
  2  6  2  0  0  0  0
  3  8  2  0  0  0  0
  3 16  1  0  0  0  0
  4  9  1  0  0  0  0
  4 16  2  0  0  0  0
  5 18  1  0  0  0  0
  6 20  1  0  0  0  0
  7 10  2  0  0  0  0
  7 19  1  0  0  0  0
  8 22  1  0  0  0  0
  9 22  2  0  0  0  0
 10 23  1  0  0  0  0
 11 12  2  0  0  0  0
 11 24  1  0  0  0  0
 12 25  1  0  0  0  0
 13 21  1  0  0  0  0
 13 23  2  0  0  0  0
 14 25  2  0  0  0  0
 14 26  1  0  0  0  0
 15 28  2  0  0  0  0
 15 70  1  0  0  0  0
 16 27  1  0  0  0  0
 17 27  1  0  0  0  0
 17 29  2  0  0  0  0
 17 31  1  0  0  0  0
 18 20  2  0  0  0  0
 18 36  1  0  0  0  0
 19 21  2  0  0  0  0
 19 37  1  0  0  0  0
 20 45  1  0  0  0  0
 21 38  1  0  0  0  0
 22 84  1  0  0  0  0
 23 85  1  0  0  0  0
 24 26  2  0  0  0  0
 24 84  1  0  0  0  0
 25 86  1  0  0  0  0
 26 87  1  0  0  0  0
 27 67  2  0  0  0  0
 28 56  1  0  0  0  0
 28 68  1  0  0  0  0
 29 69  1  0  0  0  0
 29 73  1  0  0  0  0
 30 62  1  0  0  0  0
 30 68  1  0  0  0  0
 30 70  2  0  0  0  0
 31 74  1  0  0  0  0
 31 79  2  0  0  0  0
 32 46  1  0  0  0  0
 32 75  1  0  0  0  0
 32 80  2  0  0  0  0
 33 63  1  0  0  0  0
 33 71  1  0  0  0  0
 33 81  2  0  0  0  0
 34 64  1  0  0  0  0
 34 76  1  0  0  0  0
 34 82  2  0  0  0  0
 35 72  1  0  0  0  0
 35 77  1  0  0  0  0
 35 83  2  0  0  0  0
 36 39  1  0  0  0  0
 37 46  1  0  0  0  0
 38 71  1  0  0  0  0
 39 41  1  0  0  0  0
 40 42  1  0  0  0  0
 40 43  1  0  0  0  0
 41 45  1  0  0  0  0
 42 47  1  0  0  0  0
 43 72  1  0  0  0  0
 44 47  1  0  0  0  0
 44 72  1  0  0  0  0
 45 75  1  0  0  0  0
 46 71  1  0  0  0  0
 47 69  1  0  0  0  0
 48 57  1  0  0  0  0
 49 62  1  0  0  0  0
 50 64  1  0  0  0  0
 51 65  1  0  0  0  0
 52 66  1  0  0  0  0
 53 66  1  0  0  0  0
 54 66  1  0  0  0  0
 55 78  1  0  0  0  0
 56 60  1  0  0  0  0
 57 65  1  0  0  0  0
 58 61  1  0  0  0  0
 58 62  1  0  0  0  0
 59 65  1  0  0  0  0
 59 68  1  0  0  0  0
 60 77  1  0  0  0  0
 61 85  1  0  0  0  0
 63 66  1  0  0  0  0
 63 76  1  0  0  0  0
 64 78  1  0  0  0  0
 67 69  1  0  0  0  0
M  CHG  2  70   1  78   1
M  ISO  4  35 100  61 101  77 100  85 101
M  END
> <Batch ID>
0092

> <Smiles>
CCC(C)Cn1c(CC[100NH:0][100C:0](=O)N2CCCC(n3nc(-c4ccc(Oc5ccc(F)cc5F)cc4)c(C(N)=O)c3N)C2)cnc1C(C)C[101CH2:1][101O:1]c1ccc2c(c1)CN(C(=O)C(NC(=O)C(C)NC)C(C)(C)C)C(C(=O)NC1CCCc3ccccc31)C2

> <Shape>
0.253

> <Color>
0.088

> <Negative vol penalty>
0.000

$$$$

  -OEChem-04052319143D

 88 96  0     1  0  0  0  0  0999 V2000
  -26.3465  -32.9588   21.0704 C   0  0  0  0  0  0  0  0  0  0  0  0
  -25.9940  -31.7244   20.5343 C   0  0  0  0  0  0  0  0  0  0  0  0
  -23.0753   -9.8793   19.9516 C   0  0  0  0  0  0  0  0  0  0  0  0
  -23.7557   -9.9451   22.2689 C   0  0  0  0  0  0  0  0  0  0  0  0
  -27.6462  -33.4392   20.9155 C   0  0  0  0  0  0  0  0  0  0  0  0
  -26.9407  -30.9701   19.8421 C   0  0  0  0  0  0  0  0  0  0  0  0
  -26.8688  -26.0805   21.1581 C   0  0  0  0  0  0  0  0  0  0  0  0
  -26.0160  -19.2187   19.8398 C   0  0  0  0  0  0  0  0  0  0  0  0
  -27.1555  -18.6269   20.3847 C   0  0  0  0  0  0  0  0  0  0  0  0
  -22.3267   -8.7297   20.2039 C   0  0  0  0  0  0  0  0  0  0  0  0
  -23.0070   -8.7955   22.5213 C   0  0  0  0  0  0  0  0  0  0  0  0
  -25.8550  -25.2906   20.6178 C   0  0  0  0  0  0  0  0  0  0  0  0
  -23.3269   -5.4621   22.0558 C   0  0  0  0  0  0  0  0  0  0  0  0
  -23.9203   -4.4569   22.8194 C   0  0  0  0  0  0  0  0  0  0  0  0
  -27.4011  -24.4431   18.9714 C   0  0  0  0  0  0  0  0  0  0  0  0
  -22.1606   -4.6656   24.4616 C   0  0  0  0  0  0  0  0  0  0  0  0
  -23.7899  -10.4869   20.9840 C   0  0  0  0  0  0  0  0  0  0  0  0
  -24.1281  -13.0097   20.8140 C   0  0  0  0  0  0  0  0  0  0  0  0
  -28.6120  -32.6861   20.2294 C   0  0  0  0  0  0  0  0  0  0  0  0
  -28.1558  -26.0659   20.6013 C   0  0  0  0  0  0  0  0  0  0  0  0
  -28.2542  -31.4415   19.6767 C   0  0  0  0  0  0  0  0  0  0  0  0
  -28.4301  -25.2319   19.5080 C   0  0  0  0  0  0  0  0  0  0  0  0
  -25.9463  -19.4658   18.4687 C   0  0  0  0  0  0  0  0  0  0  0  0
  -28.2253  -18.2823   19.5587 C   0  0  0  0  0  0  0  0  0  0  0  0
  -27.0161  -19.1213   17.6427 C   0  0  0  0  0  0  0  0  0  0  0  0
  -28.1556  -18.5295   18.1876 C   0  0  0  0  0  0  0  0  0  0  0  0
  -22.2925   -8.1879   21.4888 C   0  0  0  0  0  0  0  0  0  0  0  0
  -26.1203  -24.4739   19.5225 C   0  0  0  0  0  0  0  0  0  0  0  0
  -22.1503   -6.0690   22.4951 C   0  0  0  0  0  0  0  0  0  0  0  0
  -23.3372   -4.0586   24.0223 C   0  0  0  0  0  0  0  0  0  0  0  0
  -21.5672   -5.6708   23.6980 C   0  0  0  0  0  0  0  0  0  0  0  0
  -24.5638  -11.6741   20.7238 C   0  0  0  0  0  0  0  0  0  0  0  0
  -25.2299  -13.7543   20.4703 C   0  0  0  0  0  0  0  0  0  0  0  0
  -22.8424  -13.5307   21.1762 C   0  0  0  0  0  0  0  0  0  0  0  0
  -30.0255  -28.2316   19.2165 C   0  0  0  0  0  0  0  0  0  0  0  0
  -32.2017  -25.8270   19.2855 C   0  0  0  0  0  0  0  0  0  0  0  0
  -32.8081  -22.4710   19.4123 C   0  0  0  0  0  0  0  0  0  0  0  0
  -30.8091  -14.5034   21.2631 C   0  0  0  0  0  0  0  0  0  0  0  0
  -29.9913  -33.2681   20.0467 C   0  0  0  0  0  0  0  0  0  0  0  0
  -29.2452  -26.9037   21.2125 C   0  0  0  0  0  0  0  0  0  0  0  0
  -29.8002  -25.1646   18.8861 C   0  0  0  0  0  0  0  0  0  0  0  0
  -31.0357  -32.2385   19.6231 C   0  0  0  0  0  0  0  0  0  0  0  0
  -29.6530  -12.3853   18.4562 C   0  0  0  0  0  0  0  0  0  0  0  0
  -30.4985  -31.3674   18.4920 C   0  0  0  0  0  0  0  0  0  0  0  0
  -28.2112  -12.0686   18.8497 C   0  0  0  0  0  0  0  0  0  0  0  0
  -30.5332  -12.6321   19.6777 C   0  0  0  0  0  0  0  0  0  0  0  0
  -28.5685  -13.3643   20.9884 C   0  0  0  0  0  0  0  0  0  0  0  0
  -29.2597  -30.5828   18.9407 C   0  0  1  0  0  0  0  0  0  0  0  0
  -30.3873  -27.1973   20.2446 C   0  0  1  0  0  0  0  0  0  0  0  0
  -27.6447  -13.1562   19.7790 C   0  0  2  0  0  0  0  0  0  0  0  0
  -30.4568  -19.1536   17.4118 C   0  0  0  0  0  0  0  0  0  0  0  0
  -25.9520  -18.6485   13.9617 C   0  0  0  0  0  0  0  0  0  0  0  0
  -34.6869  -20.8074   19.4160 C   0  0  0  0  0  0  0  0  0  0  0  0
  -32.5816  -26.2530   16.2881 C   0  0  0  0  0  0  0  0  0  0  0  0
  -33.7004  -24.0158   16.1826 C   0  0  0  0  0  0  0  0  0  0  0  0
  -34.6956  -25.8423   17.5596 C   0  0  0  0  0  0  0  0  0  0  0  0
  -31.1850  -16.7263   22.2615 C   0  0  0  0  0  0  0  0  0  0  0  0
  -32.0403  -21.4355   22.0764 C   0  0  0  0  0  0  0  0  0  0  0  0
  -24.7028  -20.1062   17.9056 C   0  0  0  0  0  0  0  0  0  0  0  0
  -29.4346  -17.6515   20.1681 C   0  0  0  0  0  0  0  0  0  0  0  0
  -29.3047  -18.1607   17.3034 C   0  0  0  0  0  0  0  0  0  0  0  0
  -26.9381  -19.3864   16.1726 C   0  0  0  0  0  0  0  0  0  0  0  0
  -26.0569  -18.3582   15.4505 C   0  0  0  0  0  0  0  0  0  0  0  0
  -24.3842  -21.4735   18.5145 C   0  0  0  0  0  0  0  0  0  0  0  0
  -29.1282  -16.3682   20.9474 C   0  0  0  0  0  0  0  0  0  0  0  0
  -25.5251  -22.4752   18.3792 C   0  0  0  0  0  0  0  0  0  1  0  0
  -32.5826  -24.7028   18.3528 C   0  0  1  0  0  0  0  0  0  0  0  0
  -33.7530  -21.6499   20.2710 C   0  0  2  0  0  0  0  0  0  0  0  0
  -33.3636  -25.2060   17.1060 C   0  0  0  0  0  0  0  0  0  0  0  0
  -25.8426  -11.5730   20.3517 N   0  0  0  0  0  0  0  0  0  0  0  0
  -26.2199  -12.8545   20.2050 N   0  0  0  0  0  0  0  0  0  0  0  0
  -30.8304  -26.0072   19.5155 N   0  0  0  0  0  0  0  0  0  0  0  0
  -29.9499  -13.6386   20.5653 N   0  0  0  0  0  0  0  0  0  0  0  0
  -25.4387  -15.0844   20.3720 N   0  0  0  0  0  0  0  0  0  0  0  0
  -21.8221  -12.6262   21.5006 N   0  0  0  0  0  0  0  0  0  0  0  0
  -29.6464  -29.4480   19.7513 N   0  0  0  0  0  0  0  0  0  0  0  0
  -33.3101  -23.7304   19.1612 N   0  0  0  0  0  0  0  0  0  0  0  0
  -30.3271  -15.7895   21.5500 N   0  0  0  0  0  0  0  0  0  0  0  0
  -32.9823  -20.7384   21.1633 N   0  3  0  0  0  0  0  0  0  0  0  0
  -22.6006  -14.7614   21.1952 O   0  0  0  0  0  0  0  0  0  0  0  0
  -30.0871  -27.9474   18.0260 O   0  0  0  0  0  0  0  0  0  0  0  0
  -33.0885  -26.5153   19.7968 O   0  0  0  0  0  0  0  0  0  0  0  0
  -31.7338  -22.0372   19.0020 O   0  0  0  0  0  0  0  0  0  0  0  0
  -31.9458  -14.1494   21.6015 O   0  0  0  0  0  0  0  0  0  0  0  0
  -21.5620   -7.0663   21.7355 O   0  0  0  0  0  0  0  0  0  0  0  0
  -25.1324  -23.7023   18.9927 O   0  0  0  0  0  0  0  0  0  1  0  0
  -23.9063   -3.0923   24.7547 F   0  0  0  0  0  0  0  0  0  0  0  0
  -20.4362   -6.2494   24.1246 F   0  0  0  0  0  0  0  0  0  0  0  0
  1  2  1  0  0  0  0
  1  5  2  0  0  0  0
  2  6  2  0  0  0  0
  3 10  2  0  0  0  0
  3 17  1  0  0  0  0
  4 11  1  0  0  0  0
  4 17  2  0  0  0  0
  5 19  1  0  0  0  0
  6 21  1  0  0  0  0
  7 12  2  0  0  0  0
  7 20  1  0  0  0  0
  8  9  1  0  0  0  0
  8 23  2  0  0  0  0
  9 24  2  0  0  0  0
 10 27  1  0  0  0  0
 11 27  2  0  0  0  0
 12 28  1  0  0  0  0
 13 14  2  0  0  0  0
 13 29  1  0  0  0  0
 14 30  1  0  0  0  0
 15 22  1  0  0  0  0
 15 28  2  0  0  0  0
 16 30  2  0  0  0  0
 16 31  1  0  0  0  0
 17 32  1  0  0  0  0
 18 32  1  0  0  0  0
 18 33  2  0  0  0  0
 18 34  1  0  0  0  0
 19 21  2  0  0  0  0
 19 39  1  0  0  0  0
 20 22  2  0  0  0  0
 20 40  1  0  0  0  0
 21 48  1  0  0  0  0
 22 41  1  0  0  0  0
 23 25  1  0  0  0  0
 23 59  1  0  0  0  0
 24 26  1  0  0  0  0
 24 60  1  0  0  0  0
 25 26  2  0  0  0  0
 25 62  1  0  0  0  0
 26 61  1  0  0  0  0
 27 85  1  0  0  0  0
 28 86  1  0  0  0  0
 29 31  2  0  0  0  0
 29 85  1  0  0  0  0
 30 87  1  0  0  0  0
 31 88  1  0  0  0  0
 32 70  2  0  0  0  0
 33 71  1  0  0  0  0
 33 74  1  0  0  0  0
 34 75  1  0  0  0  0
 34 80  2  0  0  0  0
 35 49  1  0  0  0  0
 35 76  1  0  0  0  0
 35 81  2  0  0  0  0
 36 67  1  0  0  0  0
 36 72  1  0  0  0  0
 36 82  2  0  0  0  0
 37 68  1  0  0  0  0
 37 77  1  0  0  0  0
 37 83  2  0  0  0  0
 38 73  1  0  0  0  0
 38 78  1  0  0  0  0
 38 84  2  0  0  0  0
 39 42  1  0  0  0  0
 40 49  1  0  0  0  0
 41 72  1  0  0  0  0
 42 44  1  0  0  0  0
 43 45  1  0  0  0  0
 43 46  1  0  0  0  0
 44 48  1  0  0  0  0
 45 50  1  0  0  0  0
 46 73  1  0  0  0  0
 47 50  1  0  0  0  0
 47 73  1  0  0  0  0
 48 76  1  0  0  0  0
 49 72  1  0  0  0  0
 50 71  1  0  0  0  0
 51 61  1  0  0  0  0
 52 63  1  0  0  0  0
 53 68  1  0  0  0  0
 54 69  1  0  0  0  0
 55 69  1  0  0  0  0
 56 69  1  0  0  0  0
 57 78  1  0  0  0  0
 58 79  1  0  0  0  0
 59 64  1  0  0  0  0
 60 65  1  0  0  0  0
 62 63  1  0  0  0  0
 64 66  1  0  0  0  0
 65 78  1  0  0  0  0
 66 86  1  0  0  0  0
 67 69  1  0  0  0  0
 67 77  1  0  0  0  0
 68 79  1  0  0  0  0
 70 71  1  0  0  0  0
M  CHG  1  79   1
M  ISO  4  38 100  66 101  78 100  86 101
M  END
> <Batch ID>
0092

> <Smiles>
CCCc1c(CC[101CH2:1][101O:1]c2ccc3c(c2)CN(C(=O)C(NC(=O)C(C)NC)C(C)(C)C)C(C(=O)NC2CCCc4ccccc42)C3)ccc(CC[100N:0](C)[100C:0](=O)N2CCCC(n3nc(-c4ccc(Oc5ccc(F)cc5F)cc4)c(C(N)=O)c3N)C2)c1CC

> <Shape>
0.266

> <Color>
0.181

> <Negative vol penalty>
0.000

$$$$

  -OEChem-04052319143D

 87 95  0     1  0  0  0  0  0999 V2000
  -21.8634  -11.7423   20.2315 C   0  0  0  0  0  0  0  0  0  0  0  0
  -21.6040  -13.1038   20.1118 C   0  0  0  0  0  0  0  0  0  0  0  0
  -31.0658  -25.0727   18.9394 C   0  0  0  0  0  0  0  0  0  0  0  0
  -31.4397  -25.8567   21.1939 C   0  0  0  0  0  0  0  0  0  0  0  0
  -23.1034  -11.3084   20.6983 C   0  0  0  0  0  0  0  0  0  0  0  0
  -22.5844  -14.0324   20.4598 C   0  0  0  0  0  0  0  0  0  0  0  0
  -23.6363  -19.4473   17.7995 C   0  0  0  0  0  0  0  0  0  0  0  0
  -32.4433  -25.0380   18.7230 C   0  0  0  0  0  0  0  0  0  0  0  0
  -32.8172  -25.8219   20.9775 C   0  0  0  0  0  0  0  0  0  0  0  0
  -23.2622  -20.7471   18.1379 C   0  0  0  0  0  0  0  0  0  0  0  0
  -35.2672  -23.4953   20.9026 C   0  0  0  0  0  0  0  0  0  0  0  0
  -36.0645  -22.9355   21.9009 C   0  0  0  0  0  0  0  0  0  0  0  0
  -25.3923  -21.0712   19.2229 C   0  0  0  0  0  0  0  0  0  0  0  0
  -20.5256  -25.2471   23.1130 C   0  0  0  0  0  0  0  0  0  0  0  0
  -20.5501  -26.9465   21.4113 C   0  0  0  0  0  0  0  0  0  0  0  0
  -37.2398  -25.0330   22.1382 C   0  0  0  0  0  0  0  0  0  0  0  0
  -30.5640  -25.4822   20.1748 C   0  0  0  0  0  0  0  0  0  0  0  0
  -28.3315  -24.4794   20.8946 C   0  0  0  0  0  0  0  0  0  0  0  0
  -24.1028  -12.2320   21.0431 C   0  0  0  0  0  0  0  0  0  0  0  0
  -24.8890  -18.9452   18.1804 C   0  0  0  0  0  0  0  0  0  0  0  0
  -23.8385  -13.6105   20.9330 C   0  0  0  0  0  0  0  0  0  0  0  0
  -25.7808  -19.7656   18.8859 C   0  0  0  0  0  0  0  0  0  0  0  0
  -20.6123  -25.6052   21.7723 C   0  0  0  0  0  0  0  0  0  0  0  0
  -33.3191  -25.4125   19.7421 C   0  0  0  0  0  0  0  0  0  0  0  0
  -24.1391  -21.5583   18.8522 C   0  0  0  0  0  0  0  0  0  0  0  0
  -35.4562  -24.8239   20.5221 C   0  0  0  0  0  0  0  0  0  0  0  0
  -37.0508  -23.7044   22.5187 C   0  0  0  0  0  0  0  0  0  0  0  0
  -36.4425  -25.5927   21.1399 C   0  0  0  0  0  0  0  0  0  0  0  0
  -29.1411  -25.5189   20.3987 C   0  0  0  0  0  0  0  0  0  0  0  0
  -20.3786  -26.2602   24.0467 C   0  0  0  0  0  0  0  0  0  0  0  0
  -20.4018  -27.8835   22.4211 C   0  0  0  0  0  0  0  0  0  0  0  0
  -27.0659  -25.0124   20.9201 C   0  0  0  0  0  0  0  0  0  0  0  0
  -28.6913  -23.1510   21.2964 C   0  0  0  0  0  0  0  0  0  0  0  0
  -25.8807  -16.5522   20.0225 C   0  0  0  0  0  0  0  0  0  0  0  0
  -28.8005  -17.4184   18.9060 C   0  0  0  0  0  0  0  0  0  0  0  0
  -30.7872  -19.8515   17.5719 C   0  0  0  0  0  0  0  0  0  0  0  0
  -23.6478  -29.0937   22.1878 C   0  0  0  0  0  0  0  0  0  0  0  0
  -25.4112  -11.7161   21.5878 C   0  0  0  0  0  0  0  0  0  0  0  0
  -25.2880  -17.5501   17.7845 C   0  0  0  0  0  0  0  0  0  0  0  0
  -27.1452  -19.2810   19.3009 C   0  0  0  0  0  0  0  0  0  0  0  0
  -26.5271  -12.7578   21.5804 C   0  0  0  0  0  0  0  0  0  0  0  0
  -25.2607  -29.3103   18.9553 C   0  0  0  0  0  0  0  0  0  0  0  0
  -26.0223  -14.0849   22.1379 C   0  0  0  0  0  0  0  0  0  0  0  0
  -26.3537  -28.2484   19.0889 C   0  0  0  0  0  0  0  0  0  0  0  0
  -25.0539  -30.0591   20.2685 C   0  0  0  0  0  0  0  0  0  0  0  0
  -25.8428  -28.1217   21.5714 C   0  0  0  0  0  0  0  0  0  0  0  0
  -24.8850  -14.6480   21.2770 C   0  0  1  0  0  0  0  0  0  0  0  0
  -26.3857  -16.9685   18.6700 C   0  0  1  0  0  0  0  0  0  0  0  0
  -26.0841  -27.3140   20.2832 C   0  0  2  0  0  0  0  0  0  0  0  0
  -18.9707  -29.9511   22.4572 C   0  0  0  0  0  0  0  0  0  0  0  0
  -33.1381  -20.2727   16.8018 C   0  0  0  0  0  0  0  0  0  0  0  0
  -22.3733  -27.2057   26.1761 C   0  0  0  0  0  0  0  0  0  0  0  0
  -21.4458  -25.4414   27.6896 C   0  0  0  0  0  0  0  0  0  0  0  0
  -29.7141  -17.6160   21.8106 C   0  0  0  0  0  0  0  0  0  0  0  0
  -31.6995  -18.9230   21.0243 C   0  0  0  0  0  0  0  0  0  0  0  0
  -31.3767  -16.5695   20.2629 C   0  0  0  0  0  0  0  0  0  0  0  0
  -29.9009  -20.4364   14.8094 C   0  0  0  0  0  0  0  0  0  0  0  0
  -20.7741  -24.5432   20.7141 C   0  0  0  0  0  0  0  0  0  0  0  0
  -20.2839  -25.9132   25.4949 C   0  0  0  0  0  0  0  0  0  0  0  0
  -22.2328  -24.2054   20.3985 C   0  0  0  0  0  0  0  0  0  0  0  0
  -21.4709  -30.1733   22.6901 C   0  0  0  0  0  0  0  0  0  0  0  0
  -22.3856  -23.0719   19.3910 C   0  0  0  0  0  0  0  0  0  1  0  0
  -20.3295  -29.3320   22.0697 C   0  0  1  0  0  0  0  0  0  0  0  0
  -29.8717  -18.3848   19.3509 C   0  0  1  0  0  0  0  0  0  0  0  0
  -31.7400  -19.8385   16.3902 C   0  0  2  0  0  0  0  0  0  0  0  0
  -21.6451  -25.8603   26.2308 C   0  0  0  0  0  0  0  0  0  0  0  0
  -30.6391  -17.8821   20.6062 C   0  0  0  0  0  0  0  0  0  0  0  0
  -28.4480  -26.6282   20.1285 N   0  0  0  0  0  0  0  0  0  0  0  0
  -20.3142  -27.5739   23.7342 N   0  0  0  0  0  0  0  0  0  0  0  0
  -27.1895  -26.2888   20.4556 N   0  0  0  0  0  0  0  0  0  0  0  0
  -27.4865  -17.9074   18.8957 N   0  0  0  0  0  0  0  0  0  0  0  0
  -24.7832  -29.1137   21.3607 N   0  0  0  0  0  0  0  0  0  0  0  0
  -25.8704  -24.5090   21.2941 N   0  0  0  0  0  0  0  0  0  0  0  0
  -30.0362  -22.7669   21.2061 N   0  0  0  0  0  0  0  0  0  0  0  0
  -25.4141  -15.2525   20.0732 N   0  0  0  0  0  0  0  0  0  0  0  0
  -30.7190  -18.6192   18.1866 N   0  0  0  0  0  0  0  0  0  0  0  0
  -22.6949  -30.0707   21.9270 N   0  0  0  0  0  0  0  0  0  0  0  0
  -31.2561  -20.7609   15.3244 N   0  3  0  0  0  0  0  0  0  0  0  0
  -27.8428  -22.3236   21.7073 O   0  0  0  0  0  0  0  0  0  0  0  0
  -25.9134  -17.3504   20.9517 O   0  0  0  0  0  0  0  0  0  0  0  0
  -29.1189  -16.2742   18.5729 O   0  0  0  0  0  0  0  0  0  0  0  0
  -30.1684  -20.8556   17.9175 O   0  0  0  0  0  0  0  0  0  0  0  0
  -23.4922  -28.2627   23.0891 O   0  0  0  0  0  0  0  0  0  0  0  0
  -34.6633  -25.3784   19.5314 O   0  0  0  0  0  0  0  0  0  0  0  0
  -23.7762  -22.8271   19.1843 O   0  0  0  0  0  0  0  0  0  1  0  0
  -37.8153  -23.1672   23.4784 F   0  0  0  0  0  0  0  0  0  0  0  0
  -36.6281  -26.8700   20.7794 F   0  0  0  0  0  0  0  0  0  0  0  0
  1  2  1  0  0  0  0
  1  5  2  0  0  0  0
  2  6  2  0  0  0  0
  3  8  2  0  0  0  0
  3 17  1  0  0  0  0
  4  9  1  0  0  0  0
  4 17  2  0  0  0  0
  5 19  1  0  0  0  0
  6 21  1  0  0  0  0
  7 10  2  0  0  0  0
  7 20  1  0  0  0  0
  8 24  1  0  0  0  0
  9 24  2  0  0  0  0
 10 25  1  0  0  0  0
 11 12  2  0  0  0  0
 11 26  1  0  0  0  0
 12 27  1  0  0  0  0
 13 22  1  0  0  0  0
 13 25  2  0  0  0  0
 14 23  1  0  0  0  0
 14 30  2  0  0  0  0
 15 23  2  0  0  0  0
 15 31  1  0  0  0  0
 16 27  2  0  0  0  0
 16 28  1  0  0  0  0
 17 29  1  0  0  0  0
 18 29  1  0  0  0  0
 18 32  2  0  0  0  0
 18 33  1  0  0  0  0
 19 21  2  0  0  0  0
 19 38  1  0  0  0  0
 20 22  2  0  0  0  0
 20 39  1  0  0  0  0
 21 47  1  0  0  0  0
 22 40  1  0  0  0  0
 23 58  1  0  0  0  0
 24 84  1  0  0  0  0
 25 85  1  0  0  0  0
 26 28  2  0  0  0  0
 26 84  1  0  0  0  0
 27 86  1  0  0  0  0
 28 87  1  0  0  0  0
 29 68  2  0  0  0  0
 30 59  1  0  0  0  0
 30 69  1  0  0  0  0
 31 63  1  0  0  0  0
 31 69  2  0  0  0  0
 32 70  1  0  0  0  0
 32 73  1  0  0  0  0
 33 74  1  0  0  0  0
 33 79  2  0  0  0  0
 34 48  1  0  0  0  0
 34 75  1  0  0  0  0
 34 80  2  0  0  0  0
 35 64  1  0  0  0  0
 35 71  1  0  0  0  0
 35 81  2  0  0  0  0
 36 65  1  0  0  0  0
 36 76  1  0  0  0  0
 36 82  2  0  0  0  0
 37 72  1  0  0  0  0
 37 77  1  0  0  0  0
 37 83  2  0  0  0  0
 38 41  1  0  0  0  0
 39 48  1  0  0  0  0
 40 71  1  0  0  0  0
 41 43  1  0  0  0  0
 42 44  1  0  0  0  0
 42 45  1  0  0  0  0
 43 47  1  0  0  0  0
 44 49  1  0  0  0  0
 45 72  1  0  0  0  0
 46 49  1  0  0  0  0
 46 72  1  0  0  0  0
 47 75  1  0  0  0  0
 48 71  1  0  0  0  0
 49 70  1  0  0  0  0
 50 63  1  0  0  0  0
 51 65  1  0  0  0  0
 52 66  1  0  0  0  0
 53 66  1  0  0  0  0
 54 67  1  0  0  0  0
 55 67  1  0  0  0  0
 56 67  1  0  0  0  0
 57 78  1  0  0  0  0
 58 60  1  0  0  0  0
 59 66  1  0  0  0  0
 60 62  1  0  0  0  0
 61 63  1  0  0  0  0
 61 77  1  0  0  0  0
 62 85  1  0  0  0  0
 64 67  1  0  0  0  0
 64 76  1  0  0  0  0
 65 78  1  0  0  0  0
 68 70  1  0  0  0  0
M  CHG  1  78   1
M  ISO  4  37 100  62 101  77 100  85 101
M  END
> <Batch ID>
0092

> <Smiles>
CNC(C)C(=O)NC(C(=O)N1Cc2cc([101O:1][101CH2:1]CCc3cc(CC(C)C)nc(C(C)C[100NH:0][100C:0](=O)N4CCCC(n5nc(-c6ccc(Oc7ccc(F)cc7F)cc6)c(C(N)=O)c5N)C4)c3)ccc2CC1C(=O)NC1CCCc2ccccc21)C(C)(C)C

> <Shape>
0.215

> <Color>
0.072

> <Negative vol penalty>
0.000

$$$$

  -OEChem-04052319143D

 87 95  0     1  0  0  0  0  0999 V2000
  -24.8704  -36.1119   15.9388 C   0  0  0  0  0  0  0  0  0  0  0  0
  -24.9875  -34.7297   15.8323 C   0  0  0  0  0  0  0  0  0  0  0  0
  -23.9584  -10.1224   22.3488 C   0  0  0  0  0  0  0  0  0  0  0  0
  -22.8658  -12.2670   22.1383 C   0  0  0  0  0  0  0  0  0  0  0  0
  -25.2523  -36.7540   17.1160 C   0  0  0  0  0  0  0  0  0  0  0  0
  -25.4875  -33.9890   16.9027 C   0  0  0  0  0  0  0  0  0  0  0  0
  -23.7959  -28.3487   18.5856 C   0  0  0  0  0  0  0  0  0  0  0  0
  -25.3867  -18.6244   23.7713 C   0  0  0  0  0  0  0  0  0  0  0  0
  -25.2410  -19.4822   22.6811 C   0  0  0  0  0  0  0  0  0  0  0  0
  -23.1284   -9.8050   23.4239 C   0  0  0  0  0  0  0  0  0  0  0  0
  -22.0357  -11.9496   23.2134 C   0  0  0  0  0  0  0  0  0  0  0  0
  -24.3539  -27.0928   18.3508 C   0  0  0  0  0  0  0  0  0  0  0  0
  -19.9538   -8.7381   23.8897 C   0  0  0  0  0  0  0  0  0  0  0  0
  -19.3812   -7.4665   23.9132 C   0  0  0  0  0  0  0  0  0  0  0  0
  -25.4728  -27.1975   20.4854 C   0  0  0  0  0  0  0  0  0  0  0  0
  -20.4797   -7.0106   26.0161 C   0  0  0  0  0  0  0  0  0  0  0  0
  -23.8272  -11.3534   21.7060 C   0  0  0  0  0  0  0  0  0  0  0  0
  -24.4455  -11.4267   19.2322 C   0  0  0  0  0  0  0  0  0  0  0  0
  -25.7482  -36.0197   18.2048 C   0  0  0  0  0  0  0  0  0  0  0  0
  -24.0813  -29.0444   19.7692 C   0  0  0  0  0  0  0  0  0  0  0  0
  -25.8776  -34.6220   18.0951 C   0  0  0  0  0  0  0  0  0  0  0  0
  -24.9151  -28.4610   20.7339 C   0  0  0  0  0  0  0  0  0  0  0  0
  -26.5941  -17.9570   23.9772 C   0  0  0  0  0  0  0  0  0  0  0  0
  -26.3027  -19.6725   21.7967 C   0  0  0  0  0  0  0  0  0  0  0  0
  -27.6558  -18.1473   23.0928 C   0  0  0  0  0  0  0  0  0  0  0  0
  -27.5102  -19.0051   22.0025 C   0  0  0  0  0  0  0  0  0  0  0  0
  -22.1670  -10.7186   23.8562 C   0  0  0  0  0  0  0  0  0  0  0  0
  -25.1948  -26.5183   19.2994 C   0  0  0  0  0  0  0  0  0  0  0  0
  -20.7895   -9.1460   24.9295 C   0  0  0  0  0  0  0  0  0  0  0  0
  -19.6441   -6.6027   24.9764 C   0  0  0  0  0  0  0  0  0  0  0  0
  -21.0524   -8.2822   25.9927 C   0  0  0  0  0  0  0  0  0  0  0  0
  -24.6847  -11.6821   20.5957 C   0  0  0  0  0  0  0  0  0  0  0  0
  -25.5512  -11.9279   18.5898 C   0  0  0  0  0  0  0  0  0  0  0  0
  -23.3241  -10.7930   18.6025 C   0  0  0  0  0  0  0  0  0  0  0  0
  -25.4815  -31.8126   20.4622 C   0  0  0  0  0  0  0  0  0  0  0  0
  -24.5229  -31.0969   23.4773 C   0  0  0  0  0  0  0  0  0  0  0  0
  -23.6220  -28.7066   25.7405 C   0  0  0  0  0  0  0  0  0  0  0  0
  -29.5216  -16.1754   20.0203 C   0  0  0  0  0  0  0  0  0  0  0  0
  -26.1924  -36.7630   19.4396 C   0  0  0  0  0  0  0  0  0  0  0  0
  -23.4502  -30.3866   20.0193 C   0  0  0  0  0  0  0  0  0  0  0  0
  -25.2368  -29.1577   22.0299 C   0  0  0  0  0  0  0  0  0  0  0  0
  -26.3613  -35.8657   20.6630 C   0  0  0  0  0  0  0  0  0  0  0  0
  -30.2134  -12.7660   19.2627 C   0  0  0  0  0  0  0  0  0  0  0  0
  -27.1403  -34.6061   20.2976 C   0  0  0  0  0  0  0  0  0  0  0  0
  -28.8533  -12.0786   19.3954 C   0  0  0  0  0  0  0  0  0  0  0  0
  -30.3901  -13.8725   20.3003 C   0  0  0  0  0  0  0  0  0  0  0  0
  -27.9512  -14.1904   20.4561 C   0  0  0  0  0  0  0  0  0  0  0  0
  -26.3923  -33.7812   19.2432 C   0  0  1  0  0  0  0  0  0  0  0  0
  -24.2194  -31.2293   21.0320 C   0  0  1  0  0  0  0  0  0  0  0  0
  -27.7041  -13.1045   19.3950 C   0  0  2  0  0  0  0  0  0  0  0  0
  -28.9499  -17.4313   23.3168 C   0  0  0  0  0  0  0  0  0  0  0  0
  -25.2795  -15.2403   24.1171 C   0  0  0  0  0  0  0  0  0  0  0  0
  -22.9295  -28.4229   28.1357 C   0  0  0  0  0  0  0  0  0  0  0  0
  -27.4156  -31.5024   24.3592 C   0  0  0  0  0  0  0  0  0  0  0  0
  -26.8607  -30.3082   26.4885 C   0  0  0  0  0  0  0  0  0  0  0  0
  -25.7065  -32.4459   25.9222 C   0  0  0  0  0  0  0  0  0  0  0  0
  -21.0038  -27.5625   24.9691 C   0  0  0  0  0  0  0  0  0  0  0  0
  -26.7238  -17.0444   25.1527 C   0  0  0  0  0  0  0  0  0  0  0  0
  -26.1180  -20.6038   20.6252 C   0  0  0  0  0  0  0  0  0  0  0  0
  -28.6473  -19.2093   21.0521 C   0  0  0  0  0  0  0  0  0  0  0  0
  -26.6240  -15.5668   24.7478 C   0  0  0  0  0  0  0  0  0  0  0  0
  -26.1752  -22.0890   20.9998 C   0  0  0  0  0  0  0  0  0  0  0  0
  -25.9093  -23.0163   19.8131 C   0  0  0  0  0  0  0  0  0  0  0  0
  -28.5003  -18.4208   19.7473 C   0  0  0  0  0  0  0  0  0  0  0  0
  -26.0135  -24.4815   20.2143 C   0  0  0  0  0  0  0  0  0  1  0  0
  -25.1245  -30.3458   24.6405 C   0  0  1  0  0  0  0  0  0  0  0  0
  -22.4531  -28.6226   26.7054 C   0  0  2  0  0  0  0  0  0  0  0  0
  -26.2725  -31.1381   25.3274 C   0  0  0  0  0  0  0  0  0  0  0  0
  -25.8509  -12.2977   20.8082 N   0  0  0  0  0  0  0  0  0  0  0  0
  -26.3544  -12.4331   19.5696 N   0  0  0  0  0  0  0  0  0  0  0  0
  -24.6004  -30.4708   22.2252 N   0  0  0  0  0  0  0  0  0  0  0  0
  -29.2679  -14.8125   20.2466 N   0  0  0  0  0  0  0  0  0  0  0  0
  -25.9052  -11.9813   17.2882 N   0  0  0  0  0  0  0  0  0  0  0  0
  -22.2740  -10.3365   19.4107 N   0  0  0  0  0  0  0  0  0  0  0  0
  -25.3090  -33.0419   19.8551 N   0  0  0  0  0  0  0  0  0  0  0  0
  -24.0157  -30.0108   25.5274 N   0  0  0  0  0  0  0  0  0  0  0  0
  -28.4016  -16.9968   19.9779 N   0  0  0  0  0  0  0  0  0  0  0  0
  -21.5632  -27.4833   26.3431 N   0  3  0  0  0  0  0  0  0  0  0  0
  -23.2627  -10.6216   17.3614 O   0  0  0  0  0  0  0  0  0  0  0  0
  -26.5341  -31.1940   20.5670 O   0  0  0  0  0  0  0  0  0  0  0  0
  -23.9970  -32.1953   23.6737 O   0  0  0  0  0  0  0  0  0  0  0  0
  -24.1369  -27.7143   25.2299 O   0  0  0  0  0  0  0  0  0  0  0  0
  -30.6612  -16.6260   19.8621 O   0  0  0  0  0  0  0  0  0  0  0  0
  -21.3567  -10.4091   24.9051 O   0  0  0  0  0  0  0  0  0  0  0  0
  -25.7413  -25.2929   19.0724 O   0  0  0  0  0  0  0  0  0  1  0  0
  -19.0928   -5.3822   24.9995 F   0  0  0  0  0  0  0  0  0  0  0  0
  -21.8535   -8.6688   26.9950 F   0  0  0  0  0  0  0  0  0  0  0  0
  1  2  1  0  0  0  0
  1  5  2  0  0  0  0
  2  6  2  0  0  0  0
  3 10  2  0  0  0  0
  3 17  1  0  0  0  0
  4 11  1  0  0  0  0
  4 17  2  0  0  0  0
  5 19  1  0  0  0  0
  6 21  1  0  0  0  0
  7 12  2  0  0  0  0
  7 20  1  0  0  0  0
  8  9  2  0  0  0  0
  8 23  1  0  0  0  0
  9 24  1  0  0  0  0
 10 27  1  0  0  0  0
 11 27  2  0  0  0  0
 12 28  1  0  0  0  0
 13 14  2  0  0  0  0
 13 29  1  0  0  0  0
 14 30  1  0  0  0  0
 15 22  1  0  0  0  0
 15 28  2  0  0  0  0
 16 30  2  0  0  0  0
 16 31  1  0  0  0  0
 17 32  1  0  0  0  0
 18 32  1  0  0  0  0
 18 33  2  0  0  0  0
 18 34  1  0  0  0  0
 19 21  2  0  0  0  0
 19 39  1  0  0  0  0
 20 22  2  0  0  0  0
 20 40  1  0  0  0  0
 21 48  1  0  0  0  0
 22 41  1  0  0  0  0
 23 25  2  0  0  0  0
 23 58  1  0  0  0  0
 24 26  2  0  0  0  0
 24 59  1  0  0  0  0
 25 26  1  0  0  0  0
 25 51  1  0  0  0  0
 26 60  1  0  0  0  0
 27 84  1  0  0  0  0
 28 85  1  0  0  0  0
 29 31  2  0  0  0  0
 29 84  1  0  0  0  0
 30 86  1  0  0  0  0
 31 87  1  0  0  0  0
 32 69  2  0  0  0  0
 33 70  1  0  0  0  0
 33 73  1  0  0  0  0
 34 74  1  0  0  0  0
 34 79  2  0  0  0  0
 35 49  1  0  0  0  0
 35 75  1  0  0  0  0
 35 80  2  0  0  0  0
 36 66  1  0  0  0  0
 36 71  1  0  0  0  0
 36 81  2  0  0  0  0
 37 67  1  0  0  0  0
 37 76  1  0  0  0  0
 37 82  2  0  0  0  0
 38 72  1  0  0  0  0
 38 77  1  0  0  0  0
 38 83  2  0  0  0  0
 39 42  1  0  0  0  0
 40 49  1  0  0  0  0
 41 71  1  0  0  0  0
 42 44  1  0  0  0  0
 43 45  1  0  0  0  0
 43 46  1  0  0  0  0
 44 48  1  0  0  0  0
 45 50  1  0  0  0  0
 46 72  1  0  0  0  0
 47 50  1  0  0  0  0
 47 72  1  0  0  0  0
 48 75  1  0  0  0  0
 49 71  1  0  0  0  0
 50 70  1  0  0  0  0
 52 61  1  0  0  0  0
 53 67  1  0  0  0  0
 54 68  1  0  0  0  0
 55 68  1  0  0  0  0
 56 68  1  0  0  0  0
 57 78  1  0  0  0  0
 58 61  1  0  0  0  0
 59 62  1  0  0  0  0
 60 64  1  0  0  0  0
 62 63  1  0  0  0  0
 63 65  1  0  0  0  0
 64 77  1  0  0  0  0
 65 85  1  0  0  0  0
 66 68  1  0  0  0  0
 66 76  1  0  0  0  0
 67 78  1  0  0  0  0
 69 70  1  0  0  0  0
M  CHG  1  78   1
M  ISO  4  38 100  65 101  77 100  85 101
M  END
> <Batch ID>
0092

> <Smiles>
CCCc1ccc(CCC[101CH2:1][101O:1]c2ccc3c(c2)CN(C(=O)C(NC(=O)C(C)NC)C(C)(C)C)C(C(=O)NC2CCCc4ccccc42)C3)c(CC[100NH:0][100C:0](=O)N2CCCC(n3nc(-c4ccc(Oc5ccc(F)cc5F)cc4)c(C(N)=O)c3N)C2)c1C

> <Shape>
0.218

> <Color>
0.088

> <Negative vol penalty>
0.000

$$$$

  -OEChem-04052319143D

 84 92  0     1  0  0  0  0  0999 V2000
  -15.6020  -20.0999   26.0302 C   0  0  0  0  0  0  0  0  0  0  0  0
  -16.8888  -19.9307   25.5293 C   0  0  0  0  0  0  0  0  0  0  0  0
  -24.0978  -13.2494   20.8750 C   0  0  0  0  0  0  0  0  0  0  0  0
  -26.4205  -12.6767   20.5370 C   0  0  0  0  0  0  0  0  0  0  0  0
  -14.8161  -21.1621   25.5854 C   0  0  0  0  0  0  0  0  0  0  0  0
  -17.3901  -20.8232   24.5823 C   0  0  0  0  0  0  0  0  0  0  0  0
  -23.1850  -22.7219   24.0179 C   0  0  0  0  0  0  0  0  0  0  0  0
  -23.7342  -11.9282   20.6148 C   0  0  0  0  0  0  0  0  0  0  0  0
  -26.0569  -11.3554   20.2769 C   0  0  0  0  0  0  0  0  0  0  0  0
  -24.2257  -22.3223   23.1805 C   0  0  0  0  0  0  0  0  0  0  0  0
  -22.2265   -8.6277   20.3942 C   0  0  0  0  0  0  0  0  0  0  0  0
  -21.2938   -8.0325   21.2436 C   0  0  0  0  0  0  0  0  0  0  0  0
  -32.1475  -24.4346   19.4430 C   0  0  0  0  0  0  0  0  0  0  0  0
  -23.6819  -24.1141   21.6597 C   0  0  0  0  0  0  0  0  0  0  0  0
  -22.7774   -8.3828   23.1180 C   0  0  0  0  0  0  0  0  0  0  0  0
  -32.4284  -23.2288   18.8211 C   0  0  0  0  0  0  0  0  0  0  0  0
  -25.4410  -13.6237   20.8360 C   0  0  0  0  0  0  0  0  0  0  0  0
  -26.1382  -15.5520   22.3536 C   0  0  0  0  0  0  0  0  0  0  0  0
  -15.3114  -22.0736   24.6396 C   0  0  0  0  0  0  0  0  0  0  0  0
  -22.3768  -23.8158   23.6765 C   0  0  0  0  0  0  0  0  0  0  0  0
  -16.6095  -21.8978   24.1234 C   0  0  0  0  0  0  0  0  0  0  0  0
  -22.6333  -24.5272   22.4957 C   0  0  0  0  0  0  0  0  0  0  0  0
  -30.8124  -24.7812   19.6179 C   0  0  0  0  0  0  0  0  0  0  0  0
  -29.8131  -23.9235   19.1717 C   0  0  0  0  0  0  0  0  0  0  0  0
  -24.7137  -10.9812   20.3158 C   0  0  0  0  0  0  0  0  0  0  0  0
  -24.4724  -23.0167   21.9998 C   0  0  0  0  0  0  0  0  0  0  0  0
  -23.4346   -9.1004   20.9066 C   0  0  0  0  0  0  0  0  0  0  0  0
  -21.5693   -7.9101   22.6055 C   0  0  0  0  0  0  0  0  0  0  0  0
  -23.7101   -8.9780   22.2685 C   0  0  0  0  0  0  0  0  0  0  0  0
  -25.8172  -14.9885   21.1041 C   0  0  0  0  0  0  0  0  0  0  0  0
  -30.1985  -22.7406   18.5617 C   0  0  0  0  0  0  0  0  0  0  0  0
  -26.4226  -16.8665   22.0745 C   0  0  0  0  0  0  0  0  0  0  0  0
  -26.1760  -14.9419   23.6505 C   0  0  0  0  0  0  0  0  0  0  0  0
  -19.2845  -24.2131   23.0571 C   0  0  0  0  0  0  0  0  0  0  0  0
  -29.0354  -20.5868   18.9744 C   0  0  0  0  0  0  0  0  0  0  0  0
  -20.1012  -27.3516   22.9853 C   0  0  0  0  0  0  0  0  0  0  0  0
  -22.5337  -29.7027   22.5364 C   0  0  0  0  0  0  0  0  0  0  0  0
  -14.4075  -23.1788   24.1538 C   0  0  0  0  0  0  0  0  0  0  0  0
  -21.2751  -24.2506   24.6037 C   0  0  0  0  0  0  0  0  0  0  0  0
  -21.8074  -25.7208   22.0937 C   0  0  0  0  0  0  0  0  0  0  0  0
  -15.1495  -24.2974   23.4269 C   0  0  0  0  0  0  0  0  0  0  0  0
  -25.7202  -19.5770   17.8715 C   0  0  0  0  0  0  0  0  0  0  0  0
  -16.1340  -23.7164   22.4169 C   0  0  0  0  0  0  0  0  0  0  0  0
  -25.4925  -18.3153   18.7030 C   0  0  0  0  0  0  0  0  0  0  0  0
  -27.1835  -19.7232   17.4624 C   0  0  0  0  0  0  0  0  0  0  0  0
  -27.9106  -18.4341   19.4458 C   0  0  0  0  0  0  0  0  0  0  0  0
  -17.1977  -22.8592   23.1135 C   0  0  1  0  0  0  0  0  0  0  0  0
  -20.1901  -25.0626   23.9031 C   0  0  1  0  0  0  0  0  0  0  0  0
  -26.4525  -18.2655   19.9045 C   0  0  2  0  0  0  0  0  0  0  0  0
  -22.8905  -32.1864   22.5022 C   0  0  0  0  0  0  0  0  0  0  0  0
  -31.7704  -26.8499   20.6897 C   0  0  0  0  0  0  0  0  0  0  0  0
  -29.6430  -25.8420   21.5810 C   0  0  0  0  0  0  0  0  0  0  0  0
  -29.6429  -27.0768   19.4231 C   0  0  0  0  0  0  0  0  0  0  0  0
  -18.8018  -27.4978   20.2285 C   0  0  0  0  0  0  0  0  0  0  0  0
  -19.9980  -29.6655   19.8565 C   0  0  0  0  0  0  0  0  0  0  0  0
  -18.3369  -29.4610   21.7063 C   0  0  0  0  0  0  0  0  0  0  0  0
  -24.4486  -29.5755   24.7894 C   0  0  0  0  0  0  0  0  0  0  0  0
  -28.3569  -24.2729   19.3478 C   0  0  0  0  0  0  0  0  0  0  0  0
  -29.1696  -21.7798   18.0620 C   0  0  0  0  0  0  0  0  0  0  0  0
  -27.5696  -23.2414   20.1588 C   0  0  0  0  0  0  0  0  0  0  0  0
  -26.1203  -23.6447   20.4043 C   0  0  0  0  0  0  0  0  0  1  0  0
  -20.5770  -28.3083   21.9189 C   0  0  1  0  0  0  0  0  0  0  0  0
  -22.9158  -30.9251   23.3514 C   0  0  2  0  0  0  0  0  0  0  0  0
  -30.4790  -26.0746   20.2851 C   0  0  0  0  0  0  0  0  0  0  0  0
  -19.4429  -28.7095   20.9339 C   0  0  0  0  0  0  0  0  0  0  0  0
  -31.4849  -22.3698   18.3743 N   0  0  0  0  0  0  0  0  0  0  0  0
  -25.8905  -15.8726   20.1056 N   0  0  0  0  0  0  0  0  0  0  0  0
  -26.2606  -17.0050   20.7274 N   0  0  0  0  0  0  0  0  0  0  0  0
  -20.7377  -26.1031   23.0303 N   0  0  0  0  0  0  0  0  0  0  0  0
  -28.0670  -19.6429   18.6317 N   0  0  0  0  0  0  0  0  0  0  0  0
  -26.7928  -17.9058   22.8525 N   0  0  0  0  0  0  0  0  0  0  0  0
  -25.8556  -13.5818   23.7586 N   0  0  0  0  0  0  0  0  0  0  0  0
  -18.1961  -23.7010   23.7373 N   0  0  0  0  0  0  0  0  0  0  0  0
  -21.1841  -29.4336   22.6215 N   0  0  0  0  0  0  0  0  0  0  0  0
  -24.2865  -30.7648   23.9140 N   0  3  0  0  0  0  0  0  0  0  0  0
  -26.4688  -15.5878   24.6852 O   0  0  0  0  0  0  0  0  0  0  0  0
  -19.5524  -24.0365   21.8744 O   0  0  0  0  0  0  0  0  0  0  0  0
  -29.7682  -20.4996   19.9631 O   0  0  0  0  0  0  0  0  0  0  0  0
  -19.2028  -27.7017   23.7547 O   0  0  0  0  0  0  0  0  0  0  0  0
  -23.3502  -29.0538   21.8861 O   0  0  0  0  0  0  0  0  0  0  0  0
  -24.3592   -9.6918   20.0621 O   0  0  0  0  0  0  0  0  0  0  0  0
  -25.4871  -22.6283   21.1804 O   0  0  0  0  0  0  0  0  0  1  0  0
  -20.6729   -7.3399   23.4213 F   0  0  0  0  0  0  0  0  0  0  0  0
  -24.8685   -9.4313   22.7668 F   0  0  0  0  0  0  0  0  0  0  0  0
  1  2  1  0  0  0  0
  1  5  2  0  0  0  0
  2  6  2  0  0  0  0
  3  8  2  0  0  0  0
  3 17  1  0  0  0  0
  4  9  1  0  0  0  0
  4 17  2  0  0  0  0
  5 19  1  0  0  0  0
  6 21  1  0  0  0  0
  7 10  2  0  0  0  0
  7 20  1  0  0  0  0
  8 25  1  0  0  0  0
  9 25  2  0  0  0  0
 10 26  1  0  0  0  0
 11 12  2  0  0  0  0
 11 27  1  0  0  0  0
 12 28  1  0  0  0  0
 13 16  1  0  0  0  0
 13 23  2  0  0  0  0
 14 22  1  0  0  0  0
 14 26  2  0  0  0  0
 15 28  2  0  0  0  0
 15 29  1  0  0  0  0
 16 66  2  0  0  0  0
 17 30  1  0  0  0  0
 18 30  1  0  0  0  0
 18 32  2  0  0  0  0
 18 33  1  0  0  0  0
 19 21  2  0  0  0  0
 19 38  1  0  0  0  0
 20 22  2  0  0  0  0
 20 39  1  0  0  0  0
 21 47  1  0  0  0  0
 22 40  1  0  0  0  0
 23 24  1  0  0  0  0
 23 64  1  0  0  0  0
 24 31  2  0  0  0  0
 24 58  1  0  0  0  0
 25 81  1  0  0  0  0
 26 82  1  0  0  0  0
 27 29  2  0  0  0  0
 27 81  1  0  0  0  0
 28 83  1  0  0  0  0
 29 84  1  0  0  0  0
 30 67  2  0  0  0  0
 31 59  1  0  0  0  0
 31 66  1  0  0  0  0
 32 68  1  0  0  0  0
 32 71  1  0  0  0  0
 33 72  1  0  0  0  0
 33 76  2  0  0  0  0
 34 48  1  0  0  0  0
 34 73  1  0  0  0  0
 34 77  2  0  0  0  0
 35 59  1  0  0  0  0
 35 70  1  0  0  0  0
 35 78  2  0  0  0  0
 36 62  1  0  0  0  0
 36 69  1  0  0  0  0
 36 79  2  0  0  0  0
 37 63  1  0  0  0  0
 37 74  1  0  0  0  0
 37 80  2  0  0  0  0
 38 41  1  0  0  0  0
 39 48  1  0  0  0  0
 40 69  1  0  0  0  0
 41 43  1  0  0  0  0
 42 44  1  0  0  0  0
 42 45  1  0  0  0  0
 43 47  1  0  0  0  0
 44 49  1  0  0  0  0
 45 70  1  0  0  0  0
 46 49  1  0  0  0  0
 46 70  1  0  0  0  0
 47 73  1  0  0  0  0
 48 69  1  0  0  0  0
 49 68  1  0  0  0  0
 50 63  1  0  0  0  0
 51 64  1  0  0  0  0
 52 64  1  0  0  0  0
 53 64  1  0  0  0  0
 54 65  1  0  0  0  0
 55 65  1  0  0  0  0
 56 65  1  0  0  0  0
 57 75  1  0  0  0  0
 58 60  1  0  0  0  0
 60 61  1  0  0  0  0
 61 82  1  0  0  0  0
 62 65  1  0  0  0  0
 62 74  1  0  0  0  0
 63 75  1  0  0  0  0
 67 68  1  0  0  0  0
M  CHG  1  75   1
M  ISO  4  35 100  59 100  61 101  82 101
M  END
> <Batch ID>
0092

> <Smiles>
CNC(C)C(=O)NC(C(=O)N1Cc2cc([101O:1][101CH2:1]CCc3c(C(C)(C)C)ccnc3[100CH2:0][100C:0](=O)N3CCCC(n4nc(-c5ccc(Oc6ccc(F)cc6F)cc5)c(C(N)=O)c4N)C3)ccc2CC1C(=O)NC1CCCc2ccccc21)C(C)(C)C

> <Shape>
0.220

> <Color>
0.067

> <Negative vol penalty>
0.000

$$$$

  -OEChem-04052319143D

 87 95  0     1  0  0  0  0  0999 V2000
  -17.5125  -27.9787   19.3422 C   0  0  0  0  0  0  0  0  0  0  0  0
  -18.8524  -28.0596   18.9768 C   0  0  0  0  0  0  0  0  0  0  0  0
  -27.8212  -14.0640   21.6028 C   0  0  0  0  0  0  0  0  0  0  0  0
  -27.8711  -13.9534   19.1899 C   0  0  0  0  0  0  0  0  0  0  0  0
  -17.1619  -27.9037   20.6896 C   0  0  0  0  0  0  0  0  0  0  0  0
  -19.8425  -28.0666   19.9586 C   0  0  0  0  0  0  0  0  0  0  0  0
  -25.4248  -25.5773   19.5755 C   0  0  0  0  0  0  0  0  0  0  0  0
  -26.9609  -12.9666   21.6354 C   0  0  0  0  0  0  0  0  0  0  0  0
  -27.0108  -12.8559   19.2224 C   0  0  0  0  0  0  0  0  0  0  0  0
  -26.6759  -26.1200   19.2857 C   0  0  0  0  0  0  0  0  0  0  0  0
  -23.6706  -12.3662   21.1477 C   0  0  0  0  0  0  0  0  0  0  0  0
  -22.5653  -12.4351   21.9958 C   0  0  0  0  0  0  0  0  0  0  0  0
  -27.1277  -26.3239   21.6465 C   0  0  0  0  0  0  0  0  0  0  0  0
  -23.3573  -10.4875   23.1861 C   0  0  0  0  0  0  0  0  0  0  0  0
  -30.5027  -24.5280   16.2640 C   0  0  0  0  0  0  0  0  0  0  0  0
  -28.2763  -14.5575   20.3801 C   0  0  0  0  0  0  0  0  0  0  0  0
  -30.5718  -15.6701   20.3757 C   0  0  0  0  0  0  0  0  0  0  0  0
  -18.1487  -27.9001   21.6880 C   0  0  0  0  0  0  0  0  0  0  0  0
  -25.0106  -25.4137   20.9052 C   0  0  0  0  0  0  0  0  0  0  0  0
  -19.5047  -27.9928   21.3207 C   0  0  0  0  0  0  0  0  0  0  0  0
  -25.8718  -25.7766   21.9505 C   0  0  0  0  0  0  0  0  0  0  0  0
  -26.5557  -12.3625   20.4452 C   0  0  0  0  0  0  0  0  0  0  0  0
  -27.5264  -26.4961   20.3212 C   0  0  0  0  0  0  0  0  0  0  0  0
  -24.6192  -11.3580   21.3188 C   0  0  0  0  0  0  0  0  0  0  0  0
  -22.4086  -11.4958   23.0150 C   0  0  0  0  0  0  0  0  0  0  0  0
  -24.4626  -10.4187   22.3380 C   0  0  0  0  0  0  0  0  0  0  0  0
  -29.1645  -15.6914   20.3458 C   0  0  0  0  0  0  0  0  0  0  0  0
  -30.4437  -23.1656   16.1786 C   0  0  0  0  0  0  0  0  0  0  0  0
  -30.9365  -16.9932   20.3217 C   0  0  0  0  0  0  0  0  0  0  0  0
  -31.7609  -23.6872   17.8796 C   0  0  0  0  0  0  0  0  0  0  0  0
  -31.4692  -14.5541   20.4458 C   0  0  0  0  0  0  0  0  0  0  0  0
  -22.6347  -26.5688   22.6728 C   0  0  0  0  0  0  0  0  0  0  0  0
  -23.7764  -24.4787   24.8751 C   0  0  0  0  0  0  0  0  0  0  0  0
  -26.4121  -22.6515   26.0420 C   0  0  0  0  0  0  0  0  0  0  0  0
  -28.2239  -21.8865   18.1889 C   0  0  0  0  0  0  0  0  0  0  0  0
  -17.7189  -27.8650   23.1333 C   0  0  0  0  0  0  0  0  0  0  0  0
  -23.6688  -24.8021   21.2013 C   0  0  0  0  0  0  0  0  0  0  0  0
  -25.4828  -25.6027   23.3951 C   0  0  0  0  0  0  0  0  0  0  0  0
  -18.8465  -27.5002   24.0954 C   0  0  0  0  0  0  0  0  0  0  0  0
  -29.3807  -21.3576   21.5144 C   0  0  0  0  0  0  0  0  0  0  0  0
  -20.1057  -28.2967   23.7686 C   0  0  0  0  0  0  0  0  0  0  0  0
  -29.5834  -19.8436   21.5947 C   0  0  0  0  0  0  0  0  0  0  0  0
  -28.1681  -21.7201   20.6598 C   0  0  0  0  0  0  0  0  0  0  0  0
  -28.3691  -19.6194   19.3870 C   0  0  0  0  0  0  0  0  0  0  0  0
  -20.6088  -27.9780   22.3555 C   0  0  1  0  0  0  0  0  0  0  0  0
  -23.1432  -25.1574   22.5887 C   0  0  1  0  0  0  0  0  0  0  0  0
  -29.6131  -19.2067   20.1923 C   0  0  2  0  0  0  0  0  0  0  0  0
  -27.6484  -20.9932   27.4629 C   0  0  0  0  0  0  0  0  0  0  0  0
  -36.9457  -23.2429   16.3412 C   0  0  0  0  0  0  0  0  0  0  0  0
  -35.7855  -21.1142   16.9607 C   0  0  0  0  0  0  0  0  0  0  0  0
  -23.9327  -26.8167   26.8294 C   0  0  0  0  0  0  0  0  0  0  0  0
  -25.4252  -25.4188   28.2740 C   0  0  0  0  0  0  0  0  0  0  0  0
  -23.0851  -24.6829   27.8210 C   0  0  0  0  0  0  0  0  0  0  0  0
  -25.7449  -20.4174   24.2192 C   0  0  0  0  0  0  0  0  0  0  0  0
  -29.7293  -22.2837   15.2520 C   0  0  0  0  0  0  0  0  0  0  0  0
  -32.6676  -23.5559   19.0473 C   0  0  0  0  0  0  0  0  0  0  0  0
  -33.9430  -22.7285   18.7799 C   0  0  0  0  0  0  0  0  0  0  0  0
  -34.8434  -23.3629   17.7122 C   0  0  0  0  0  0  0  0  0  0  0  0
  -30.8902  -26.6682   19.0220 C   0  0  0  0  0  0  0  0  0  0  0  0
  -31.6753  -26.2137   17.7896 C   0  0  0  0  0  0  0  0  0  0  0  0
  -28.3071  -21.8922   15.7085 C   0  0  0  0  0  0  0  0  0  0  0  0
  -29.3790  -26.6020   18.8337 C   0  0  0  0  0  0  0  0  0  1  0  0
  -24.8077  -24.5425   25.9758 C   0  0  1  0  0  0  0  0  0  0  0  0
  -26.5222  -21.1967   26.4614 C   0  0  2  0  0  0  0  0  0  0  0  0
  -36.1100  -22.5386   17.4131 C   0  0  0  0  0  0  0  0  0  0  0  0
  -24.3195  -25.3704   27.1979 C   0  0  0  0  0  0  0  0  0  0  0  0
  -28.6689  -16.9299   20.2783 N   0  0  0  0  0  0  0  0  0  0  0  0
  -31.3241  -24.8228   17.3253 N   0  0  0  0  0  0  0  0  0  0  0  0
  -29.7708  -17.6991   20.2654 N   0  0  0  0  0  0  0  0  0  0  0  0
  -31.2316  -22.6714   17.1901 N   0  3  0  0  0  0  0  0  0  0  0  0
  -24.1580  -25.0062   23.6334 N   0  0  0  0  0  0  0  0  0  0  0  0
  -28.2585  -21.0859   19.3425 N   0  0  0  0  0  0  0  0  0  0  0  0
  -32.1372  -17.6101   20.3175 N   0  0  0  0  0  0  0  0  0  0  0  0
  -30.9269  -13.2627   20.4945 N   0  0  0  0  0  0  0  0  0  0  0  0
  -21.3007  -26.7070   22.3400 N   0  0  0  0  0  0  0  0  0  0  0  0
  -25.1551  -23.1609   26.2903 N   0  0  0  0  0  0  0  0  0  0  0  0
  -28.3216  -21.2062   16.9813 N   0  0  0  0  0  0  0  0  0  0  0  0
  -26.7866  -20.3343   25.2751 N   0  3  0  0  0  0  0  0  0  0  0  0
  -32.7148  -14.6987   20.4813 O   0  0  0  0  0  0  0  0  0  0  0  0
  -23.3959  -27.4658   23.0158 O   0  0  0  0  0  0  0  0  0  0  0  0
  -22.6755  -23.9727   25.1065 O   0  0  0  0  0  0  0  0  0  0  0  0
  -27.3487  -23.2749   25.5473 O   0  0  0  0  0  0  0  0  0  0  0  0
  -28.1194  -23.1170   18.2321 O   0  0  0  0  0  0  0  0  0  0  0  0
  -25.7164  -11.2914   20.4766 O   0  0  0  0  0  0  0  0  0  0  0  0
  -28.7479  -27.0266   20.0411 O   0  0  0  0  0  0  0  0  0  1  0  0
  -21.3480  -11.5629   23.8303 F   0  0  0  0  0  0  0  0  0  0  0  0
  -25.3712   -9.4485   22.5081 F   0  0  0  0  0  0  0  0  0  0  0  0
  1  2  1  0  0  0  0
  1  5  2  0  0  0  0
  2  6  2  0  0  0  0
  3  8  2  0  0  0  0
  3 16  1  0  0  0  0
  4  9  1  0  0  0  0
  4 16  2  0  0  0  0
  5 18  1  0  0  0  0
  6 20  1  0  0  0  0
  7 10  2  0  0  0  0
  7 19  1  0  0  0  0
  8 22  1  0  0  0  0
  9 22  2  0  0  0  0
 10 23  1  0  0  0  0
 11 12  2  0  0  0  0
 11 24  1  0  0  0  0
 12 25  1  0  0  0  0
 13 21  1  0  0  0  0
 13 23  2  0  0  0  0
 14 25  2  0  0  0  0
 14 26  1  0  0  0  0
 15 28  2  0  0  0  0
 15 68  1  0  0  0  0
 16 27  1  0  0  0  0
 17 27  1  0  0  0  0
 17 29  2  0  0  0  0
 17 31  1  0  0  0  0
 18 20  2  0  0  0  0
 18 36  1  0  0  0  0
 19 21  2  0  0  0  0
 19 37  1  0  0  0  0
 20 45  1  0  0  0  0
 21 38  1  0  0  0  0
 22 84  1  0  0  0  0
 23 85  1  0  0  0  0
 24 26  2  0  0  0  0
 24 84  1  0  0  0  0
 25 86  1  0  0  0  0
 26 87  1  0  0  0  0
 27 67  2  0  0  0  0
 28 55  1  0  0  0  0
 28 70  1  0  0  0  0
 29 69  1  0  0  0  0
 29 73  1  0  0  0  0
 30 56  1  0  0  0  0
 30 68  1  0  0  0  0
 30 70  2  0  0  0  0
 31 74  1  0  0  0  0
 31 79  2  0  0  0  0
 32 46  1  0  0  0  0
 32 75  1  0  0  0  0
 32 80  2  0  0  0  0
 33 63  1  0  0  0  0
 33 71  1  0  0  0  0
 33 81  2  0  0  0  0
 34 64  1  0  0  0  0
 34 76  1  0  0  0  0
 34 82  2  0  0  0  0
 35 72  1  0  0  0  0
 35 77  1  0  0  0  0
 35 83  2  0  0  0  0
 36 39  1  0  0  0  0
 37 46  1  0  0  0  0
 38 71  1  0  0  0  0
 39 41  1  0  0  0  0
 40 42  1  0  0  0  0
 40 43  1  0  0  0  0
 41 45  1  0  0  0  0
 42 47  1  0  0  0  0
 43 72  1  0  0  0  0
 44 47  1  0  0  0  0
 44 72  1  0  0  0  0
 45 75  1  0  0  0  0
 46 71  1  0  0  0  0
 47 69  1  0  0  0  0
 48 64  1  0  0  0  0
 49 65  1  0  0  0  0
 50 65  1  0  0  0  0
 51 66  1  0  0  0  0
 52 66  1  0  0  0  0
 53 66  1  0  0  0  0
 54 78  1  0  0  0  0
 55 61  1  0  0  0  0
 56 57  1  0  0  0  0
 57 58  1  0  0  0  0
 58 65  1  0  0  0  0
 59 60  1  0  0  0  0
 59 62  1  0  0  0  0
 60 68  1  0  0  0  0
 61 77  1  0  0  0  0
 62 85  1  0  0  0  0
 63 66  1  0  0  0  0
 63 76  1  0  0  0  0
 64 78  1  0  0  0  0
 67 69  1  0  0  0  0
M  CHG  2  70   1  78   1
M  ISO  4  35 100  62 101  77 100  85 101
M  END
> <Batch ID>
0092

> <Smiles>
CNC(C)C(=O)NC(C(=O)N1Cc2cc([101O:1][101CH2:1]CCn3cc(CC[100NH:0][100C:0](=O)N4CCCC(n5nc(-c6ccc(Oc7ccc(F)cc7F)cc6)c(C(N)=O)c5N)C4)nc3CCCC(C)C)ccc2CC1C(=O)NC1CCCc2ccccc21)C(C)(C)C

> <Shape>
0.226

> <Color>
0.063

> <Negative vol penalty>
0.000

$$$$

  -OEChem-04052319143D

 89 97  0     1  0  0  0  0  0999 V2000
  -29.6799  -12.3327   19.8853 C   0  0  0  0  0  0  0  0  0  0  0  0
  -29.3968  -13.5279   19.2321 C   0  0  0  0  0  0  0  0  0  0  0  0
  -27.9434  -28.8124   21.1558 C   0  0  0  0  0  0  0  0  0  0  0  0
  -26.6120  -27.7476   19.4439 C   0  0  0  0  0  0  0  0  0  0  0  0
  -28.6475  -11.5911   20.4582 C   0  0  0  0  0  0  0  0  0  0  0  0
  -28.0808  -13.9817   19.1504 C   0  0  0  0  0  0  0  0  0  0  0  0
  -24.2640  -20.0422   19.0092 C   0  0  0  0  0  0  0  0  0  0  0  0
  -29.0006  -27.9482   20.8712 C   0  0  0  0  0  0  0  0  0  0  0  0
  -27.6693  -26.8834   19.1592 C   0  0  0  0  0  0  0  0  0  0  0  0
  -23.2812  -20.6787   18.2525 C   0  0  0  0  0  0  0  0  0  0  0  0
  -29.8890  -24.1608   18.2265 C   0  0  0  0  0  0  0  0  0  0  0  0
  -29.5941  -22.8073   18.0633 C   0  0  0  0  0  0  0  0  0  0  0  0
  -21.5886  -19.3542   19.3479 C   0  0  0  0  0  0  0  0  0  0  0  0
  -21.0505  -23.4626   20.1720 C   0  0  0  0  0  0  0  0  0  0  0  0
  -19.0081  -24.7497   20.0793 C   0  0  0  0  0  0  0  0  0  0  0  0
  -28.7256  -22.7250   20.3163 C   0  0  0  0  0  0  0  0  0  0  0  0
  -26.7490  -28.7121   20.4422 C   0  0  0  0  0  0  0  0  0  0  0  0
  -25.4032  -30.8597   20.1518 C   0  0  0  0  0  0  0  0  0  0  0  0
  -27.3194  -12.0410   20.3918 C   0  0  0  0  0  0  0  0  0  0  0  0
  -23.9169  -19.0475   19.9348 C   0  0  0  0  0  0  0  0  0  0  0  0
  -27.0295  -13.2448   19.7218 C   0  0  0  0  0  0  0  0  0  0  0  0
  -22.5686  -18.7084   20.1170 C   0  0  0  0  0  0  0  0  0  0  0  0
  -19.9629  -23.9519   19.4487 C   0  0  0  0  0  0  0  0  0  0  0  0
  -21.1833  -23.7709   21.5259 C   0  0  0  0  0  0  0  0  0  0  0  0
  -19.1409  -25.0581   21.4332 C   0  0  0  0  0  0  0  0  0  0  0  0
  -28.8636  -26.9837   19.8729 C   0  0  0  0  0  0  0  0  0  0  0  0
  -21.9435  -20.3327   18.4197 C   0  0  0  0  0  0  0  0  0  0  0  0
  -29.6024  -24.7964   19.4346 C   0  0  0  0  0  0  0  0  0  0  0  0
  -29.0124  -22.0894   19.1082 C   0  0  0  0  0  0  0  0  0  0  0  0
  -29.0206  -24.0785   20.4795 C   0  0  0  0  0  0  0  0  0  0  0  0
  -20.2285  -24.5686   22.1565 C   0  0  0  0  0  0  0  0  0  0  0  0
  -25.6564  -29.6041   20.7361 C   0  0  0  0  0  0  0  0  0  0  0  0
  -24.2573  -31.3002   20.7677 C   0  0  0  0  0  0  0  0  0  0  0  0
  -26.1381  -31.5646   19.1425 C   0  0  0  0  0  0  0  0  0  0  0  0
  -24.5745  -15.9543   20.2557 C   0  0  0  0  0  0  0  0  0  0  0  0
  -22.9910  -16.3080   23.0646 C   0  0  0  0  0  0  0  0  0  0  0  0
  -20.7041  -18.0524   24.9015 C   0  0  0  0  0  0  0  0  0  0  0  0
  -19.7205  -28.4601   23.4513 C   0  0  0  0  0  0  0  0  0  0  0  0
  -26.2313  -11.1813   20.9850 C   0  0  0  0  0  0  0  0  0  0  0  0
  -24.9865  -18.3893   20.7625 C   0  0  0  0  0  0  0  0  0  0  0  0
  -22.1417  -17.6615   21.1121 C   0  0  0  0  0  0  0  0  0  0  0  0
  -24.9096  -11.9199   21.1797 C   0  0  0  0  0  0  0  0  0  0  0  0
  -21.8405  -30.9376   24.8809 C   0  0  0  0  0  0  0  0  0  0  0  0
  -24.5546  -12.7177   19.9290 C   0  0  0  0  0  0  0  0  0  0  0  0
  -23.0360  -30.9901   23.9280 C   0  0  0  0  0  0  0  0  0  0  0  0
  -21.3046  -29.5162   25.0362 C   0  0  0  0  0  0  0  0  0  0  0  0
  -22.1719  -28.8887   22.8163 C   0  0  0  0  0  0  0  0  0  0  0  0
  -25.6177  -13.7827   19.6337 C   0  0  1  0  0  0  0  0  0  0  0  0
  -24.5671  -17.0274   21.3073 C   0  0  1  0  0  0  0  0  0  0  0  0
  -22.7122  -30.3101   22.5842 C   0  0  2  0  0  0  0  0  0  0  0  0
  -19.5929  -18.0804   27.1513 C   0  0  0  0  0  0  0  0  0  0  0  0
  -27.0337  -23.9404   24.1042 C   0  0  0  0  0  0  0  0  0  0  0  0
  -25.4057  -25.8351   24.2466 C   0  0  0  0  0  0  0  0  0  0  0  0
  -21.2192  -13.9735   22.2158 C   0  0  0  0  0  0  0  0  0  0  0  0
  -19.5908  -14.6545   23.9914 C   0  0  0  0  0  0  0  0  0  0  0  0
  -21.8980  -13.9466   24.6226 C   0  0  0  0  0  0  0  0  0  0  0  0
  -21.7919  -20.7311   25.5344 C   0  0  0  0  0  0  0  0  0  0  0  0
  -19.8194  -23.6187   17.9852 C   0  0  0  0  0  0  0  0  0  0  0  0
  -22.3647  -23.2244   22.2613 C   0  0  0  0  0  0  0  0  0  0  0  0
  -18.0937  -25.9162   22.0673 C   0  0  0  0  0  0  0  0  0  0  0  0
  -19.0245  -22.3383   17.7201 C   0  0  0  0  0  0  0  0  0  0  0  0
  -23.5006  -24.2408   22.4748 C   0  0  0  0  0  0  0  0  0  0  0  0
  -24.7232  -23.6261   23.1681 C   0  0  0  0  0  0  0  0  0  0  0  0
  -18.2516  -27.4067   21.7507 C   0  0  0  0  0  0  0  0  0  0  0  0
  -19.6924  -21.0866   18.2773 C   0  0  0  0  0  0  0  0  0  1  0  0
  -21.5515  -16.1868   23.5030 C   0  0  1  0  0  0  0  0  0  0  0  0
  -20.7543  -18.5981   26.3171 C   0  0  2  0  0  0  0  0  0  0  0  0
  -25.8598  -24.6370   23.4116 C   0  0  0  0  0  0  0  0  0  0  0  0
  -21.0728  -14.7087   23.5630 C   0  0  0  0  0  0  0  0  0  0  0  0
  -24.7447  -29.2688   21.6529 N   0  0  0  0  0  0  0  0  0  0  0  0
  -23.9076  -30.3202   21.6494 N   0  0  0  0  0  0  0  0  0  0  0  0
  -23.2251  -17.0420   21.8931 N   0  0  0  0  0  0  0  0  0  0  0  0
  -21.0159  -28.9288   23.7256 N   0  0  0  0  0  0  0  0  0  0  0  0
  -23.5249  -32.4265   20.6357 N   0  0  0  0  0  0  0  0  0  0  0  0
  -27.2923  -30.9679   18.6171 N   0  0  0  0  0  0  0  0  0  0  0  0
  -25.4528  -14.9193   20.5143 N   0  0  0  0  0  0  0  0  0  0  0  0
  -21.4498  -16.8998   24.7717 N   0  0  0  0  0  0  0  0  0  0  0  0
  -19.5306  -27.9241   22.1835 N   0  0  0  0  0  0  0  0  0  0  0  0
  -20.6942  -20.0871   26.3007 N   0  3  0  0  0  0  0  0  0  0  0  0
  -25.7909  -32.6975   18.7309 O   0  0  0  0  0  0  0  0  0  0  0  0
  -23.8369  -16.0568   19.2825 O   0  0  0  0  0  0  0  0  0  0  0  0
  -23.8758  -15.7773   23.7407 O   0  0  0  0  0  0  0  0  0  0  0  0
  -20.0642  -18.5924   24.0017 O   0  0  0  0  0  0  0  0  0  0  0  0
  -18.7998  -28.5201   24.2734 O   0  0  0  0  0  0  0  0  0  0  0  0
  -29.8951  -26.1404   19.5948 O   0  0  0  0  0  0  0  0  0  0  0  0
  -20.9823  -20.9519   17.6818 O   0  0  0  0  0  0  0  0  0  1  0  0
  -28.7278  -20.7900   18.9508 F   0  0  0  0  0  0  0  0  0  0  0  0
  -28.7418  -24.6839   21.6420 F   0  0  0  0  0  0  0  0  0  0  0  0
  -20.3933  -24.9513   23.8374 Cl  0  0  0  0  0  0  0  0  0  0  0  0
  1  2  1  0  0  0  0
  1  5  2  0  0  0  0
  2  6  2  0  0  0  0
  3  8  2  0  0  0  0
  3 17  1  0  0  0  0
  4  9  1  0  0  0  0
  4 17  2  0  0  0  0
  5 19  1  0  0  0  0
  6 21  1  0  0  0  0
  7 10  2  0  0  0  0
  7 20  1  0  0  0  0
  8 26  1  0  0  0  0
  9 26  2  0  0  0  0
 10 27  1  0  0  0  0
 11 12  2  0  0  0  0
 11 28  1  0  0  0  0
 12 29  1  0  0  0  0
 13 22  1  0  0  0  0
 13 27  2  0  0  0  0
 14 23  1  0  0  0  0
 14 24  2  0  0  0  0
 15 23  2  0  0  0  0
 15 25  1  0  0  0  0
 16 29  2  0  0  0  0
 16 30  1  0  0  0  0
 17 32  1  0  0  0  0
 18 32  1  0  0  0  0
 18 33  2  0  0  0  0
 18 34  1  0  0  0  0
 19 21  2  0  0  0  0
 19 39  1  0  0  0  0
 20 22  2  0  0  0  0
 20 40  1  0  0  0  0
 21 48  1  0  0  0  0
 22 41  1  0  0  0  0
 23 58  1  0  0  0  0
 24 31  1  0  0  0  0
 24 59  1  0  0  0  0
 25 31  2  0  0  0  0
 25 60  1  0  0  0  0
 26 85  1  0  0  0  0
 27 86  1  0  0  0  0
 28 30  2  0  0  0  0
 28 85  1  0  0  0  0
 29 87  1  0  0  0  0
 30 88  1  0  0  0  0
 31 89  1  0  0  0  0
 32 70  2  0  0  0  0
 33 71  1  0  0  0  0
 33 74  1  0  0  0  0
 34 75  1  0  0  0  0
 34 80  2  0  0  0  0
 35 49  1  0  0  0  0
 35 76  1  0  0  0  0
 35 81  2  0  0  0  0
 36 66  1  0  0  0  0
 36 72  1  0  0  0  0
 36 82  2  0  0  0  0
 37 67  1  0  0  0  0
 37 77  1  0  0  0  0
 37 83  2  0  0  0  0
 38 73  1  0  0  0  0
 38 78  1  0  0  0  0
 38 84  2  0  0  0  0
 39 42  1  0  0  0  0
 40 49  1  0  0  0  0
 41 72  1  0  0  0  0
 42 44  1  0  0  0  0
 43 45  1  0  0  0  0
 43 46  1  0  0  0  0
 44 48  1  0  0  0  0
 45 50  1  0  0  0  0
 46 73  1  0  0  0  0
 47 50  1  0  0  0  0
 47 73  1  0  0  0  0
 48 76  1  0  0  0  0
 49 72  1  0  0  0  0
 50 71  1  0  0  0  0
 51 67  1  0  0  0  0
 52 68  1  0  0  0  0
 53 68  1  0  0  0  0
 54 69  1  0  0  0  0
 55 69  1  0  0  0  0
 56 69  1  0  0  0  0
 57 79  1  0  0  0  0
 58 61  1  0  0  0  0
 59 62  1  0  0  0  0
 60 64  1  0  0  0  0
 61 65  1  0  0  0  0
 62 63  1  0  0  0  0
 63 68  1  0  0  0  0
 64 78  1  0  0  0  0
 65 86  1  0  0  0  0
 66 69  1  0  0  0  0
 66 77  1  0  0  0  0
 67 79  1  0  0  0  0
 70 71  1  0  0  0  0
M  CHG  1  79   1
M  ISO  4  38 100  65 101  78 100  86 101
M  END
> <Batch ID>
0092

> <Smiles>
CNC(C)C(=O)NC(C(=O)N1Cc2cc([101O:1][101CH2:1]CCc3cc(CCCC(C)C)c(Cl)c(CC[100NH:0][100C:0](=O)N4CCCC(n5nc(-c6ccc(Oc7ccc(F)cc7F)cc6)c(C(N)=O)c5N)C4)c3)ccc2CC1C(=O)NC1CCCc2ccccc21)C(C)(C)C

> <Shape>
0.232

> <Color>
0.064

> <Negative vol penalty>
0.000

$$$$

  -OEChem-04052319143D

 83 91  0     1  0  0  0  0  0999 V2000
  -16.8345  -28.0777   26.0523 C   0  0  0  0  0  0  0  0  0  0  0  0
  -17.5042  -26.8924   26.3389 C   0  0  0  0  0  0  0  0  0  0  0  0
  -22.3806  -10.8920   20.8368 C   0  0  0  0  0  0  0  0  0  0  0  0
  -23.9507  -10.2664   22.5632 C   0  0  0  0  0  0  0  0  0  0  0  0
  -17.0257  -28.7051   24.8219 C   0  0  0  0  0  0  0  0  0  0  0  0
  -18.3646  -26.3332   25.3948 C   0  0  0  0  0  0  0  0  0  0  0  0
  -24.4221  -22.5390   24.9172 C   0  0  0  0  0  0  0  0  0  0  0  0
  -21.5088   -9.8918   21.2672 C   0  0  0  0  0  0  0  0  0  0  0  0
  -23.0788   -9.2663   22.9937 C   0  0  0  0  0  0  0  0  0  0  0  0
  -24.9258  -21.3852   24.3184 C   0  0  0  0  0  0  0  0  0  0  0  0
  -20.2639   -9.0478   24.8508 C   0  0  0  0  0  0  0  0  0  0  0  0
  -20.0490   -8.9241   26.2234 C   0  0  0  0  0  0  0  0  0  0  0  0
  -25.2395  -22.5990   22.2575 C   0  0  0  0  0  0  0  0  0  0  0  0
  -20.8943   -6.6619   26.1519 C   0  0  0  0  0  0  0  0  0  0  0  0
  -23.6016  -11.0792   21.4848 C   0  0  0  0  0  0  0  0  0  0  0  0
  -24.2500  -13.4957   20.9867 C   0  0  0  0  0  0  0  0  0  0  0  0
  -17.8964  -28.1584   23.8661 C   0  0  0  0  0  0  0  0  0  0  0  0
  -24.3129  -23.7308   24.1863 C   0  0  0  0  0  0  0  0  0  0  0  0
  -18.5666  -26.9532   24.1500 C   0  0  0  0  0  0  0  0  0  0  0  0
  -24.7364  -23.7673   22.8501 C   0  0  0  0  0  0  0  0  0  0  0  0
  -21.8579   -9.0790   22.3456 C   0  0  0  0  0  0  0  0  0  0  0  0
  -25.3320  -21.4143   22.9875 C   0  0  0  0  0  0  0  0  0  0  0  0
  -20.7939   -7.9785   24.1286 C   0  0  0  0  0  0  0  0  0  0  0  0
  -20.3643   -7.7312   26.8740 C   0  0  0  0  0  0  0  0  0  0  0  0
  -21.1091   -6.7856   24.7792 C   0  0  0  0  0  0  0  0  0  0  0  0
  -24.5028  -12.1118   21.0403 C   0  0  0  0  0  0  0  0  0  0  0  0
  -25.4129  -14.0385   20.4974 C   0  0  0  0  0  0  0  0  0  0  0  0
  -23.0695  -14.2252   21.3472 C   0  0  0  0  0  0  0  0  0  0  0  0
  -21.9053  -25.6117   23.3092 C   0  0  0  0  0  0  0  0  0  0  0  0
  -24.2989  -27.5157   22.2288 C   0  0  0  0  0  0  0  0  0  0  0  0
  -27.5233  -27.7817   21.1427 C   0  0  0  0  0  0  0  0  0  0  0  0
  -30.9840  -14.3623   20.4360 C   0  0  0  0  0  0  0  0  0  0  0  0
  -18.0346  -28.8476   22.5317 C   0  0  0  0  0  0  0  0  0  0  0  0
  -23.7923  -24.9737   24.8545 C   0  0  0  0  0  0  0  0  0  0  0  0
  -24.6588  -25.0267   22.0277 C   0  0  0  0  0  0  0  0  0  0  0  0
  -19.2511  -28.3883   21.7320 C   0  0  0  0  0  0  0  0  0  0  0  0
  -32.2578  -18.9604   22.9425 C   0  0  0  0  0  0  0  0  0  0  0  0
  -33.0933  -17.6884   22.8605 C   0  0  0  0  0  0  0  0  0  0  0  0
  -29.4729  -11.8239   18.4485 C   0  0  0  0  0  0  0  0  0  0  0  0
  -19.3490  -26.8661   21.7363 C   0  0  0  0  0  0  0  0  0  0  0  0
  -31.4038  -19.1503   21.6923 C   0  0  0  0  0  0  0  0  0  0  0  0
  -28.0268  -11.7826   18.9454 C   0  0  0  0  0  0  0  0  0  0  0  0
  -32.2214  -16.4642   22.5962 C   0  0  0  0  0  0  0  0  0  0  0  0
  -30.4534  -12.0964   19.5871 C   0  0  0  0  0  0  0  0  0  0  0  0
  -28.7089  -13.2578   20.8838 C   0  0  0  0  0  0  0  0  0  0  0  0
  -19.5273  -26.3287   23.1614 C   0  0  1  0  0  0  0  0  0  0  0  0
  -23.2459  -25.9993   23.8662 C   0  0  1  0  0  0  0  0  0  0  0  0
  -30.5118  -17.9287   21.4138 C   0  0  2  0  0  0  0  0  0  0  0  0
  -27.6784  -13.0414   19.7623 C   0  0  2  0  0  0  0  0  0  0  0  0
  -31.3614  -16.6425   21.3400 C   0  0  2  0  0  0  0  0  0  0  0  0
  -29.9978  -18.4505   17.5949 C   0  0  0  0  0  0  0  0  0  0  0  0
  -29.1838  -29.4609   20.2939 C   0  0  0  0  0  0  0  0  0  0  0  0
  -22.8953  -27.5307   19.5196 C   0  0  0  0  0  0  0  0  0  0  0  0
  -25.0172  -28.3867   18.5032 C   0  0  0  0  0  0  0  0  0  0  0  0
  -23.8255  -29.7425   20.2249 C   0  0  0  0  0  0  0  0  0  0  0  0
  -29.3648  -27.2763   23.4037 C   0  0  0  0  0  0  0  0  0  0  0  0
  -30.6834  -18.2937   18.9451 C   0  0  0  0  0  0  0  0  0  0  0  0
  -27.7121  -19.2568   21.3373 C   0  0  0  0  0  0  0  0  0  0  0  0
  -28.7818  -19.3910   20.2511 C   0  0  0  0  0  0  0  0  0  0  0  0
  -26.7859  -20.4662   21.3618 C   0  0  0  0  0  0  0  0  0  1  0  0
  -25.0553  -27.6487   20.9291 C   0  0  1  0  0  0  0  0  0  0  0  0
  -28.6365  -28.7432   21.5179 C   0  0  2  0  0  0  0  0  0  0  0  0
  -29.7061  -18.1610   20.1324 C   0  0  2  0  0  0  0  0  0  0  0  0
  -24.1981  -28.3028   19.8088 C   0  0  0  0  0  0  0  0  0  0  0  0
  -25.7299  -11.7952   20.6184 N   0  0  0  0  0  0  0  0  0  0  0  0
  -26.2585  -12.9877   20.2951 N   0  0  0  0  0  0  0  0  0  0  0  0
  -24.1368  -26.2141   22.7241 N   0  0  0  0  0  0  0  0  0  0  0  0
  -30.0675  -13.3041   20.3209 N   0  0  0  0  0  0  0  0  0  0  0  0
  -25.7843  -15.3074   20.2246 N   0  0  0  0  0  0  0  0  0  0  0  0
  -22.9460  -14.6876   22.6645 N   0  0  0  0  0  0  0  0  0  0  0  0
  -20.8943  -26.5072   23.6015 N   0  0  0  0  0  0  0  0  0  0  0  0
  -26.2819  -28.3735   21.2429 N   0  0  0  0  0  0  0  0  0  0  0  0
  -30.5358  -15.4720   21.1420 N   0  0  0  0  0  0  0  0  0  0  0  0
  -29.7563  -28.0092   22.1722 N   0  3  0  0  0  0  0  0  0  0  0  0
  -22.1440  -14.4460   20.5298 O   0  0  0  0  0  0  0  0  0  0  0  0
  -21.7964  -24.5775   22.6609 O   0  0  0  0  0  0  0  0  0  0  0  0
  -23.8741  -28.5300   22.7877 O   0  0  0  0  0  0  0  0  0  0  0  0
  -27.7341  -26.6228   20.7919 O   0  0  0  0  0  0  0  0  0  0  0  0
  -32.1157  -14.3232   19.9414 O   0  0  0  0  0  0  0  0  0  0  0  0
  -21.0073   -8.1031   22.7661 O   0  0  0  0  0  0  0  0  0  0  0  0
  -25.8235  -20.2893   22.4004 O   0  0  0  0  0  0  0  0  0  1  0  0
  -20.1593   -7.6131   28.1924 F   0  0  0  0  0  0  0  0  0  0  0  0
  -21.6197   -5.7553   24.0910 F   0  0  0  0  0  0  0  0  0  0  0  0
  1  2  1  0  0  0  0
  1  5  2  0  0  0  0
  2  6  2  0  0  0  0
  3  8  2  0  0  0  0
  3 15  1  0  0  0  0
  4  9  1  0  0  0  0
  4 15  2  0  0  0  0
  5 17  1  0  0  0  0
  6 19  1  0  0  0  0
  7 10  2  0  0  0  0
  7 18  1  0  0  0  0
  8 21  1  0  0  0  0
  9 21  2  0  0  0  0
 10 22  1  0  0  0  0
 11 12  2  0  0  0  0
 11 23  1  0  0  0  0
 12 24  1  0  0  0  0
 13 20  1  0  0  0  0
 13 22  2  0  0  0  0
 14 24  2  0  0  0  0
 14 25  1  0  0  0  0
 15 26  1  0  0  0  0
 16 26  1  0  0  0  0
 16 27  2  0  0  0  0
 16 28  1  0  0  0  0
 17 19  2  0  0  0  0
 17 33  1  0  0  0  0
 18 20  2  0  0  0  0
 18 34  1  0  0  0  0
 19 46  1  0  0  0  0
 20 35  1  0  0  0  0
 21 80  1  0  0  0  0
 22 81  1  0  0  0  0
 23 25  2  0  0  0  0
 23 80  1  0  0  0  0
 24 82  1  0  0  0  0
 25 83  1  0  0  0  0
 26 65  2  0  0  0  0
 27 66  1  0  0  0  0
 27 69  1  0  0  0  0
 28 70  1  0  0  0  0
 28 75  2  0  0  0  0
 29 47  1  0  0  0  0
 29 71  1  0  0  0  0
 29 76  2  0  0  0  0
 30 61  1  0  0  0  0
 30 67  1  0  0  0  0
 30 77  2  0  0  0  0
 31 62  1  0  0  0  0
 31 72  1  0  0  0  0
 31 78  2  0  0  0  0
 32 68  1  0  0  0  0
 32 73  1  0  0  0  0
 32 79  2  0  0  0  0
 33 36  1  0  0  0  0
 34 47  1  0  0  0  0
 35 67  1  0  0  0  0
 36 40  1  0  0  0  0
 37 38  1  0  0  0  0
 37 41  1  0  0  0  0
 38 43  1  0  0  0  0
 39 42  1  0  0  0  0
 39 44  1  0  0  0  0
 40 46  1  0  0  0  0
 41 48  1  0  0  0  0
 42 49  1  0  0  0  0
 43 50  1  0  0  0  0
 44 68  1  0  0  0  0
 45 49  1  0  0  0  0
 45 68  1  0  0  0  0
 46 71  1  0  0  0  0
 47 67  1  0  0  0  0
 48 50  1  0  0  0  0
 48 63  1  0  0  0  0
 49 66  1  0  0  0  0
 50 73  1  0  0  0  0
 51 57  1  0  0  0  0
 52 62  1  0  0  0  0
 53 64  1  0  0  0  0
 54 64  1  0  0  0  0
 55 64  1  0  0  0  0
 56 74  1  0  0  0  0
 57 63  1  0  0  0  0
 58 59  1  0  0  0  0
 58 60  1  0  0  0  0
 59 63  1  0  0  0  0
 60 81  1  0  0  0  0
 61 64  1  0  0  0  0
 61 72  1  0  0  0  0
 62 74  1  0  0  0  0
 65 66  1  0  0  0  0
M  CHG  1  74   1
M  ISO  4  32 100  60 101  73 100  81 101
M  END
> <Batch ID>
0092

> <Smiles>
CCC(CC[101CH2:1][101O:1]c1ccc2c(c1)CN(C(=O)C(NC(=O)C(C)NC)C(C)(C)C)C(C(=O)NC1CCCc3ccccc31)C2)C1CCCCC1[100NH:0][100C:0](=O)N1CCCC(n2nc(-c3ccc(Oc4ccc(F)cc4F)cc3)c(C(N)=O)c2N)C1

> <Shape>
0.279

> <Color>
0.168

> <Negative vol penalty>
0.000

$$$$

  -OEChem-04052319143D

 89 97  0     1  0  0  0  0  0999 V2000
  -29.4808  -31.0834   25.6237 C   0  0  0  0  0  0  0  0  0  0  0  0
  -28.9437  -29.8269   25.3628 C   0  0  0  0  0  0  0  0  0  0  0  0
  -21.3313  -13.0478   23.2198 C   0  0  0  0  0  0  0  0  0  0  0  0
  -20.7919  -12.1212   21.0547 C   0  0  0  0  0  0  0  0  0  0  0  0
  -28.6598  -32.2101   25.5987 C   0  0  0  0  0  0  0  0  0  0  0  0
  -27.5849  -29.6962   25.0778 C   0  0  0  0  0  0  0  0  0  0  0  0
  -26.7109  -26.6233   21.1486 C   0  0  0  0  0  0  0  0  0  0  0  0
  -20.3437  -12.2554   23.8049 C   0  0  0  0  0  0  0  0  0  0  0  0
  -19.8043  -11.3288   21.6399 C   0  0  0  0  0  0  0  0  0  0  0  0
  -26.7861  -25.2512   21.3843 C   0  0  0  0  0  0  0  0  0  0  0  0
  -19.9822   -9.0359   24.7729 C   0  0  0  0  0  0  0  0  0  0  0  0
  -20.3041   -8.3650   25.9527 C   0  0  0  0  0  0  0  0  0  0  0  0
  -24.3800  -25.1495   21.5242 C   0  0  0  0  0  0  0  0  0  0  0  0
  -29.3942  -16.8952   17.5959 C   0  0  0  0  0  0  0  0  0  0  0  0
  -18.5322   -9.5376   27.1028 C   0  0  0  0  0  0  0  0  0  0  0  0
  -29.1568  -17.4410   20.2588 C   0  0  0  0  0  0  0  0  0  0  0  0
  -21.5553  -12.9807   21.8446 C   0  0  0  0  0  0  0  0  0  0  0  0
  -23.9287  -13.4657   21.0447 C   0  0  0  0  0  0  0  0  0  0  0  0
  -27.2922  -32.0942   25.3038 C   0  0  0  0  0  0  0  0  0  0  0  0
  -25.4682  -27.2718   21.1097 C   0  0  0  0  0  0  0  0  0  0  0  0
  -26.7446  -30.8221   25.0502 C   0  0  0  0  0  0  0  0  0  0  0  0
  -24.2916  -26.5294   21.2853 C   0  0  0  0  0  0  0  0  0  0  0  0
  -28.3346  -17.6785   18.0398 C   0  0  0  0  0  0  0  0  0  0  0  0
  -28.2064  -17.9612   19.3951 C   0  0  0  0  0  0  0  0  0  0  0  0
  -19.5803  -11.3959   23.0150 C   0  0  0  0  0  0  0  0  0  0  0  0
  -25.6208  -24.5146   21.5750 C   0  0  0  0  0  0  0  0  0  0  0  0
  -18.9354   -9.9577   24.7581 C   0  0  0  0  0  0  0  0  0  0  0  0
  -19.5790   -8.6158   27.1176 C   0  0  0  0  0  0  0  0  0  0  0  0
  -18.2104  -10.2085   25.9230 C   0  0  0  0  0  0  0  0  0  0  0  0
  -22.5750  -13.7994   21.2394 C   0  0  0  0  0  0  0  0  0  0  0  0
  -30.2915  -16.4229   18.5401 C   0  0  0  0  0  0  0  0  0  0  0  0
  -24.4707  -14.5710   20.4357 C   0  0  0  0  0  0  0  0  0  0  0  0
  -24.6332  -12.2639   21.3840 C   0  0  0  0  0  0  0  0  0  0  0  0
  -24.0837  -29.5713   22.8124 C   0  0  0  0  0  0  0  0  0  0  0  0
  -21.7658  -29.3079   20.5585 C   0  0  0  0  0  0  0  0  0  0  0  0
  -20.2250  -27.3838   18.1982 C   0  0  0  0  0  0  0  0  0  0  0  0
  -23.8274  -18.4364   16.3172 C   0  0  0  0  0  0  0  0  0  0  0  0
  -26.4353  -33.3349   25.3349 C   0  0  0  0  0  0  0  0  0  0  0  0
  -25.4026  -28.7478   20.8279 C   0  0  0  0  0  0  0  0  0  0  0  0
  -22.9317  -27.1746   21.2329 C   0  0  0  0  0  0  0  0  0  0  0  0
  -25.0798  -33.1562   24.6559 C   0  0  0  0  0  0  0  0  0  0  0  0
  -22.6028  -19.2078   19.7241 C   0  0  0  0  0  0  0  0  0  0  0  0
  -24.4254  -31.8536   25.1051 C   0  0  0  0  0  0  0  0  0  0  0  0
  -22.5337  -17.8268   20.3738 C   0  0  0  0  0  0  0  0  0  0  0  0
  -22.4088  -19.1338   18.2126 C   0  0  0  0  0  0  0  0  0  0  0  0
  -23.2754  -16.8182   18.1800 C   0  0  0  0  0  0  0  0  0  0  0  0
  -25.2804  -30.6426   24.7127 C   0  0  1  0  0  0  0  0  0  0  0  0
  -24.1112  -29.3934   21.3206 C   0  0  1  0  0  0  0  0  0  0  0  0
  -23.5135  -16.8525   19.6971 C   0  0  2  0  0  0  0  0  0  0  0  0
  -18.3364  -27.4285   16.5464 C   0  0  0  0  0  0  0  0  0  0  0  0
  -30.3731  -12.0359   19.3732 C   0  0  0  0  0  0  0  0  0  0  0  0
  -31.8067  -13.7343   20.5224 C   0  0  0  0  0  0  0  0  0  0  0  0
  -19.7688  -28.9352   22.8351 C   0  0  0  0  0  0  0  0  0  0  0  0
  -18.1296  -28.0546   21.1601 C   0  0  0  0  0  0  0  0  0  0  0  0
  -18.9657  -30.3973   20.9720 C   0  0  0  0  0  0  0  0  0  0  0  0
  -25.6761  -18.2020   14.7026 C   0  0  0  0  0  0  0  0  0  0  0  0
  -22.0608  -26.9775   15.9127 C   0  0  0  0  0  0  0  0  0  0  0  0
  -27.3505  -18.2032   17.0475 C   0  0  0  0  0  0  0  0  0  0  0  0
  -27.0770  -18.8045   19.9310 C   0  0  0  0  0  0  0  0  0  0  0  0
  -31.4407  -15.5789   18.0998 C   0  0  0  0  0  0  0  0  0  0  0  0
  -27.4915  -20.2338   20.2978 C   0  0  0  0  0  0  0  0  0  0  0  0
  -31.0881  -14.0800   18.0990 C   0  0  0  0  0  0  0  0  0  0  0  0
  -26.3519  -21.0489   20.9107 C   0  0  0  0  0  0  0  0  0  0  0  0
  -26.0358  -17.4159   17.0131 C   0  0  0  0  0  0  0  0  0  0  0  0
  -26.7894  -22.4731   21.2249 C   0  0  0  0  0  0  0  0  0  1  0  0
  -20.5129  -28.4798   20.4051 C   0  0  1  0  0  0  0  0  0  0  0  0
  -19.8204  -27.6791   16.7652 C   0  0  2  0  0  0  0  0  0  0  0  0
  -30.7036  -13.5265   19.4837 C   0  0  0  0  0  0  0  0  0  0  0  0
  -19.3698  -28.9546   21.3461 C   0  0  0  0  0  0  0  0  0  0  0  0
  -30.1997  -16.6764   19.8649 N   0  0  0  0  0  0  0  0  0  0  0  0
  -22.2754  -15.0212   20.7906 N   0  0  0  0  0  0  0  0  0  0  0  0
  -23.4485  -15.4650   20.3079 N   0  0  0  0  0  0  0  0  0  0  0  0
  -22.9202  -28.6214   20.9607 N   0  0  0  0  0  0  0  0  0  0  0  0
  -23.3228  -18.1690   17.6005 N   0  0  0  0  0  0  0  0  0  0  0  0
  -25.7171  -14.8558   20.0025 N   0  0  0  0  0  0  0  0  0  0  0  0
  -23.9244  -11.2267   22.0054 N   0  0  0  0  0  0  0  0  0  0  0  0
  -25.1178  -30.3437   23.3060 N   0  0  0  0  0  0  0  0  0  0  0  0
  -20.1723  -28.5136   18.9869 N   0  0  0  0  0  0  0  0  0  0  0  0
  -25.1051  -17.9408   16.0163 N   0  0  0  0  0  0  0  0  0  0  0  0
  -20.5868  -26.8163   15.8223 N   0  3  0  0  0  0  0  0  0  0  0  0
  -25.8588  -12.1207   21.1582 O   0  0  0  0  0  0  0  0  0  0  0  0
  -23.1896  -29.0480   23.4669 O   0  0  0  0  0  0  0  0  0  0  0  0
  -21.7234  -30.5180   20.3230 O   0  0  0  0  0  0  0  0  0  0  0  0
  -20.5514  -26.2623   18.5806 O   0  0  0  0  0  0  0  0  0  0  0  0
  -23.1770  -19.0895   15.4911 O   0  0  0  0  0  0  0  0  0  0  0  0
  -18.6167  -10.6224   23.5858 O   0  0  0  0  0  0  0  0  0  0  0  0
  -25.6914  -23.1754   21.8059 O   0  0  0  0  0  0  0  0  0  1  0  0
  -19.8872   -7.9703   28.2501 F   0  0  0  0  0  0  0  0  0  0  0  0
  -17.2029  -11.0921   25.9146 F   0  0  0  0  0  0  0  0  0  0  0  0
  1  2  1  0  0  0  0
  1  5  2  0  0  0  0
  2  6  2  0  0  0  0
  3  8  2  0  0  0  0
  3 17  1  0  0  0  0
  4  9  1  0  0  0  0
  4 17  2  0  0  0  0
  5 19  1  0  0  0  0
  6 21  1  0  0  0  0
  7 10  2  0  0  0  0
  7 20  1  0  0  0  0
  8 25  1  0  0  0  0
  9 25  2  0  0  0  0
 10 26  1  0  0  0  0
 11 12  2  0  0  0  0
 11 27  1  0  0  0  0
 12 28  1  0  0  0  0
 13 22  1  0  0  0  0
 13 26  2  0  0  0  0
 14 23  1  0  0  0  0
 14 31  2  0  0  0  0
 15 28  2  0  0  0  0
 15 29  1  0  0  0  0
 16 24  1  0  0  0  0
 16 70  2  0  0  0  0
 17 30  1  0  0  0  0
 18 30  1  0  0  0  0
 18 32  2  0  0  0  0
 18 33  1  0  0  0  0
 19 21  2  0  0  0  0
 19 38  1  0  0  0  0
 20 22  2  0  0  0  0
 20 39  1  0  0  0  0
 21 47  1  0  0  0  0
 22 40  1  0  0  0  0
 23 24  2  0  0  0  0
 23 58  1  0  0  0  0
 24 59  1  0  0  0  0
 25 86  1  0  0  0  0
 26 87  1  0  0  0  0
 27 29  2  0  0  0  0
 27 86  1  0  0  0  0
 28 88  1  0  0  0  0
 29 89  1  0  0  0  0
 30 71  2  0  0  0  0
 31 60  1  0  0  0  0
 31 70  1  0  0  0  0
 32 72  1  0  0  0  0
 32 75  1  0  0  0  0
 33 76  1  0  0  0  0
 33 81  2  0  0  0  0
 34 48  1  0  0  0  0
 34 77  1  0  0  0  0
 34 82  2  0  0  0  0
 35 66  1  0  0  0  0
 35 73  1  0  0  0  0
 35 83  2  0  0  0  0
 36 67  1  0  0  0  0
 36 78  1  0  0  0  0
 36 84  2  0  0  0  0
 37 74  1  0  0  0  0
 37 79  1  0  0  0  0
 37 85  2  0  0  0  0
 38 41  1  0  0  0  0
 39 48  1  0  0  0  0
 40 73  1  0  0  0  0
 41 43  1  0  0  0  0
 42 44  1  0  0  0  0
 42 45  1  0  0  0  0
 43 47  1  0  0  0  0
 44 49  1  0  0  0  0
 45 74  1  0  0  0  0
 46 49  1  0  0  0  0
 46 74  1  0  0  0  0
 47 77  1  0  0  0  0
 48 73  1  0  0  0  0
 49 72  1  0  0  0  0
 50 67  1  0  0  0  0
 51 68  1  0  0  0  0
 52 68  1  0  0  0  0
 53 69  1  0  0  0  0
 54 69  1  0  0  0  0
 55 69  1  0  0  0  0
 56 79  1  0  0  0  0
 57 80  1  0  0  0  0
 58 64  1  0  0  0  0
 59 61  1  0  0  0  0
 60 62  1  0  0  0  0
 61 63  1  0  0  0  0
 62 68  1  0  0  0  0
 63 65  1  0  0  0  0
 64 79  1  0  0  0  0
 65 87  1  0  0  0  0
 66 69  1  0  0  0  0
 66 78  1  0  0  0  0
 67 80  1  0  0  0  0
 71 72  1  0  0  0  0
M  CHG  1  80   1
M  ISO  4  37 100  65 101  79 100  87 101
M  END
> <Batch ID>
0092

> <Smiles>
CNC(C)C(=O)NC(C(=O)N1Cc2cc([101O:1][101CH2:1]CCCc3cnc(CCC(C)C)cc3CC[100N:0](C)[100C:0](=O)N3CCCC(n4nc(-c5ccc(Oc6ccc(F)cc6F)cc5)c(C(N)=O)c4N)C3)ccc2CC1C(=O)NC1CCCc2ccccc21)C(C)(C)C

> <Shape>
0.208

> <Color>
0.078

> <Negative vol penalty>
0.000

$$$$

  -OEChem-04052319143D

 89 97  0     1  0  0  0  0  0999 V2000
  -29.6733  -11.9838   20.1133 C   0  0  0  0  0  0  0  0  0  0  0  0
  -29.7298  -13.2212   20.7466 C   0  0  0  0  0  0  0  0  0  0  0  0
  -28.9945  -23.3490   18.7312 C   0  0  0  0  0  0  0  0  0  0  0  0
  -26.6318  -23.5729   19.1837 C   0  0  0  0  0  0  0  0  0  0  0  0
  -28.7304  -11.7572   19.1115 C   0  0  0  0  0  0  0  0  0  0  0  0
  -28.8441  -14.2331   20.3777 C   0  0  0  0  0  0  0  0  0  0  0  0
  -25.2578  -19.7906   23.1289 C   0  0  0  0  0  0  0  0  0  0  0  0
  -28.8669  -21.9602   18.7519 C   0  0  0  0  0  0  0  0  0  0  0  0
  -26.5042  -22.1841   19.2043 C   0  0  0  0  0  0  0  0  0  0  0  0
  -25.0473  -21.1513   22.9102 C   0  0  0  0  0  0  0  0  0  0  0  0
  -28.6233  -19.5160   21.0737 C   0  0  0  0  0  0  0  0  0  0  0  0
  -29.5819  -18.7882   21.7786 C   0  0  0  0  0  0  0  0  0  0  0  0
  -23.4086  -20.6202   21.2214 C   0  0  0  0  0  0  0  0  0  0  0  0
  -22.1893  -27.9441   20.8824 C   0  0  0  0  0  0  0  0  0  0  0  0
  -23.5553  -27.6662   22.8556 C   0  0  0  0  0  0  0  0  0  0  0  0
  -30.1911  -17.6259   19.7500 C   0  0  0  0  0  0  0  0  0  0  0  0
  -27.8770  -24.1554   18.9472 C   0  0  0  0  0  0  0  0  0  0  0  0
  -27.8752  -26.4400   17.8123 C   0  0  0  0  0  0  0  0  0  0  0  0
  -27.8264  -12.7636   18.7368 C   0  0  0  0  0  0  0  0  0  0  0  0
  -24.5520  -18.8328   22.3866 C   0  0  0  0  0  0  0  0  0  0  0  0
  -27.8892  -14.0201   19.3690 C   0  0  0  0  0  0  0  0  0  0  0  0
  -23.6101  -19.2479   21.4344 C   0  0  0  0  0  0  0  0  0  0  0  0
  -23.0171  -27.1506   21.6766 C   0  0  0  0  0  0  0  0  0  0  0  0
  -21.8997  -29.2532   21.2672 C   0  0  0  0  0  0  0  0  0  0  0  0
  -23.2657  -28.9753   23.2405 C   0  0  0  0  0  0  0  0  0  0  0  0
  -22.4379  -29.7688   22.4462 C   0  0  0  0  0  0  0  0  0  0  0  0
  -27.6217  -21.3777   18.9884 C   0  0  0  0  0  0  0  0  0  0  0  0
  -24.1247  -21.5663   21.9543 C   0  0  0  0  0  0  0  0  0  0  0  0
  -28.4484  -19.2986   19.7069 C   0  0  0  0  0  0  0  0  0  0  0  0
  -30.3659  -17.8432   21.1167 C   0  0  0  0  0  0  0  0  0  0  0  0
  -29.2324  -18.3536   19.0451 C   0  0  0  0  0  0  0  0  0  0  0  0
  -28.0083  -25.5901   18.9266 C   0  0  0  0  0  0  0  0  0  0  0  0
  -28.0899  -27.7004   18.3141 C   0  0  0  0  0  0  0  0  0  0  0  0
  -27.5835  -26.1189   16.4457 C   0  0  0  0  0  0  0  0  0  0  0  0
  -25.3615  -16.5304   20.3502 C   0  0  0  0  0  0  0  0  0  0  0  0
  -22.2018  -15.8143   20.5098 C   0  0  0  0  0  0  0  0  0  0  0  0
  -19.0203  -16.8709   21.1490 C   0  0  0  0  0  0  0  0  0  0  0  0
  -27.4689  -30.0749   23.7756 C   0  0  0  0  0  0  0  0  0  0  0  0
  -26.8561  -12.4872   17.6158 C   0  0  0  0  0  0  0  0  0  0  0  0
  -24.7712  -17.3688   22.6533 C   0  0  0  0  0  0  0  0  0  0  0  0
  -22.8120  -18.2596   20.6253 C   0  0  0  0  0  0  0  0  0  0  0  0
  -25.7071  -13.4897   17.5436 C   0  0  0  0  0  0  0  0  0  0  0  0
  -30.4301  -29.9942   21.8002 C   0  0  0  0  0  0  0  0  0  0  0  0
  -26.2346  -14.9159   17.6644 C   0  0  0  0  0  0  0  0  0  0  0  0
  -30.1332  -28.9330   20.7392 C   0  0  0  0  0  0  0  0  0  0  0  0
  -29.8239  -29.6252   23.1525 C   0  0  0  0  0  0  0  0  0  0  0  0
  -28.0834  -28.2634   22.0617 C   0  0  0  0  0  0  0  0  0  0  0  0
  -26.9292  -15.1348   19.0139 C   0  0  1  0  0  0  0  0  0  0  0  0
  -24.3710  -16.4811   21.4789 C   0  0  1  0  0  0  0  0  0  0  0  0
  -28.6268  -28.6183   20.6671 C   0  0  2  0  0  0  0  0  0  0  0  0
  -21.0096  -30.0817   20.3995 C   0  0  0  0  0  0  0  0  0  0  0  0
  -16.6425  -16.0688   21.1574 C   0  0  0  0  0  0  0  0  0  0  0  0
  -18.6709  -30.6329   24.2512 C   0  0  0  0  0  0  0  0  0  0  0  0
  -20.5309  -31.8150   25.4829 C   0  0  0  0  0  0  0  0  0  0  0  0
  -22.1395  -15.9748   17.4634 C   0  0  0  0  0  0  0  0  0  0  0  0
  -19.6431  -16.1162   17.5914 C   0  0  0  0  0  0  0  0  0  0  0  0
  -20.8205  -14.0855   18.4357 C   0  0  0  0  0  0  0  0  0  0  0  0
  -18.7278  -17.4065   24.0449 C   0  0  0  0  0  0  0  0  0  0  0  0
  -20.3073  -32.8711   22.9196 C   0  0  0  0  0  0  0  0  0  0  0  0
  -23.3307  -25.7357   21.2603 C   0  0  0  0  0  0  0  0  0  0  0  0
  -23.8545  -29.5038   24.5077 C   0  0  0  0  0  0  0  0  0  0  0  0
  -22.1269  -31.1723   22.8587 C   0  0  0  0  0  0  0  0  0  0  0  0
  -22.3409  -24.7011   21.8002 C   0  0  0  0  0  0  0  0  0  0  0  0
  -25.0644  -30.4175   24.2856 C   0  0  0  0  0  0  0  0  0  0  0  0
  -22.6161  -23.2862   21.3046 C   0  0  0  0  0  0  0  0  0  1  0  0
  -20.9692  -16.2405   19.7494 C   0  0  1  0  0  0  0  0  0  0  0  0
  -17.9055  -16.2640   21.9817 C   0  0  2  0  0  0  0  0  0  0  0  0
  -20.1714  -30.8484   24.3659 C   0  0  0  0  0  0  0  0  0  0  0  0
  -20.9094  -15.6231   18.3237 C   0  0  0  0  0  0  0  0  0  0  0  0
  -28.2862  -26.2545   20.0515 N   0  0  0  0  0  0  0  0  0  0  0  0
  -28.3295  -27.5352   19.6466 N   0  0  0  0  0  0  0  0  0  0  0  0
  -23.0666  -16.8395   20.9183 N   0  0  0  0  0  0  0  0  0  0  0  0
  -28.3936  -29.3403   23.0150 N   0  0  0  0  0  0  0  0  0  0  0  0
  -28.0952  -28.9228   17.7412 N   0  0  0  0  0  0  0  0  0  0  0  0
  -27.3910  -24.7739   16.1018 N   0  0  0  0  0  0  0  0  0  0  0  0
  -25.9491  -15.3129   20.0638 N   0  0  0  0  0  0  0  0  0  0  0  0
  -19.8301  -15.9018   20.5956 N   0  0  0  0  0  0  0  0  0  0  0  0
  -26.1331  -29.7459   23.5802 N   0  0  0  0  0  0  0  0  0  0  0  0
  -17.5811  -17.1485   23.1364 N   0  3  0  0  0  0  0  0  0  0  0  0
  -20.6738  -31.4157   23.0626 N   0  3  1  0  0  0  0  0  0  0  0  0
  -27.5124  -26.9971   15.5528 O   0  0  0  0  0  0  0  0  0  0  0  0
  -25.5757  -17.5938   19.7803 O   0  0  0  0  0  0  0  0  0  0  0  0
  -22.3867  -14.6164   20.7392 O   0  0  0  0  0  0  0  0  0  0  0  0
  -19.1567  -18.0834   21.0010 O   0  0  0  0  0  0  0  0  0  0  0  0
  -27.8083  -30.9620   24.5660 O   0  0  0  0  0  0  0  0  0  0  0  0
  -27.4968  -20.0225   19.0084 O   0  0  0  0  0  0  0  0  0  0  0  0
  -23.9177  -22.8939   21.7383 O   0  0  0  0  0  0  0  0  0  1  0  0
  -31.2875  -17.1455   21.7935 F   0  0  0  0  0  0  0  0  0  0  0  0
  -29.0698  -18.1413   17.7320 F   0  0  0  0  0  0  0  0  0  0  0  0
  1  2  1  0  0  0  0
  1  5  2  0  0  0  0
  2  6  2  0  0  0  0
  3  8  2  0  0  0  0
  3 17  1  0  0  0  0
  4  9  1  0  0  0  0
  4 17  2  0  0  0  0
  5 19  1  0  0  0  0
  6 21  1  0  0  0  0
  7 10  2  0  0  0  0
  7 20  1  0  0  0  0
  8 27  1  0  0  0  0
  9 27  2  0  0  0  0
 10 28  1  0  0  0  0
 11 12  2  0  0  0  0
 11 29  1  0  0  0  0
 12 30  1  0  0  0  0
 13 22  1  0  0  0  0
 13 28  2  0  0  0  0
 14 23  1  0  0  0  0
 14 24  2  0  0  0  0
 15 23  2  0  0  0  0
 15 25  1  0  0  0  0
 16 30  2  0  0  0  0
 16 31  1  0  0  0  0
 17 32  1  0  0  0  0
 18 32  1  0  0  0  0
 18 33  2  0  0  0  0
 18 34  1  0  0  0  0
 19 21  2  0  0  0  0
 19 39  1  0  0  0  0
 20 22  2  0  0  0  0
 20 40  1  0  0  0  0
 21 48  1  0  0  0  0
 22 41  1  0  0  0  0
 23 60  1  0  0  0  0
 24 26  1  0  0  0  0
 24 51  1  0  0  0  0
 25 26  2  0  0  0  0
 25 61  1  0  0  0  0
 26 62  1  0  0  0  0
 27 86  1  0  0  0  0
 28 87  1  0  0  0  0
 29 31  2  0  0  0  0
 29 86  1  0  0  0  0
 30 88  1  0  0  0  0
 31 89  1  0  0  0  0
 32 70  2  0  0  0  0
 33 71  1  0  0  0  0
 33 74  1  0  0  0  0
 34 75  1  0  0  0  0
 34 81  2  0  0  0  0
 35 49  1  0  0  0  0
 35 76  1  0  0  0  0
 35 82  2  0  0  0  0
 36 66  1  0  0  0  0
 36 72  1  0  0  0  0
 36 83  2  0  0  0  0
 37 67  1  0  0  0  0
 37 77  1  0  0  0  0
 37 84  2  0  0  0  0
 38 73  1  0  0  0  0
 38 78  1  0  0  0  0
 38 85  2  0  0  0  0
 39 42  1  0  0  0  0
 40 49  1  0  0  0  0
 41 72  1  0  0  0  0
 42 44  1  0  0  0  0
 43 45  1  0  0  0  0
 43 46  1  0  0  0  0
 44 48  1  0  0  0  0
 45 50  1  0  0  0  0
 46 73  1  0  0  0  0
 47 50  1  0  0  0  0
 47 73  1  0  0  0  0
 48 76  1  0  0  0  0
 49 72  1  0  0  0  0
 50 71  1  0  0  0  0
 52 67  1  0  0  0  0
 53 68  1  0  0  0  0
 54 68  1  0  0  0  0
 55 69  1  0  0  0  0
 56 69  1  0  0  0  0
 57 69  1  0  0  0  0
 58 79  1  0  0  0  0
 59 80  1  0  0  0  0
 60 63  1  0  0  0  0
 61 64  1  0  0  0  0
 62 80  1  0  0  0  0
 63 65  1  0  0  0  0
 64 78  1  0  0  0  0
 65 87  1  0  0  0  0
 66 69  1  0  0  0  0
 66 77  1  0  0  0  0
 67 79  1  0  0  0  0
 68 80  1  0  0  0  0
 70 71  1  0  0  0  0
M  CHG  2  79   1  80   1
M  ISO  4  38 100  65 101  78 100  87 101
M  END
> <Batch ID>
0092

> <Smiles>
CNC(C)C(=O)NC(C(=O)N1Cc2cc([101O:1][101CH2:1]CCc3cc(C)c(CN(C)C(C)C)c(CC[100NH:0][100C:0](=O)N4CCCC(n5nc(-c6ccc(Oc7ccc(F)cc7F)cc6)c(C(N)=O)c5N)C4)c3)ccc2CC1C(=O)NC1CCCc2ccccc21)C(C)(C)C

> <Shape>
0.207

> <Color>
0.062

> <Negative vol penalty>
0.000

$$$$

  -OEChem-04052319143D

 87 95  0     1  0  0  0  0  0999 V2000
  -34.1427  -17.1810   24.4598 C   0  0  0  0  0  0  0  0  0  0  0  0
  -33.1194  -17.8550   25.1185 C   0  0  0  0  0  0  0  0  0  0  0  0
  -28.3312  -26.3236   18.6087 C   0  0  0  0  0  0  0  0  0  0  0  0
  -26.2178  -25.1541   18.5576 C   0  0  0  0  0  0  0  0  0  0  0  0
  -33.9847  -16.8089   23.1254 C   0  0  0  0  0  0  0  0  0  0  0  0
  -31.9379  -18.1583   24.4428 C   0  0  0  0  0  0  0  0  0  0  0  0
  -24.8968  -18.8703   25.5531 C   0  0  0  0  0  0  0  0  0  0  0  0
  -29.0039  -25.1044   18.6901 C   0  0  0  0  0  0  0  0  0  0  0  0
  -26.8905  -23.9349   18.6390 C   0  0  0  0  0  0  0  0  0  0  0  0
  -23.8593  -19.7772   25.3412 C   0  0  0  0  0  0  0  0  0  0  0  0
  -31.2604  -22.3131   19.2738 C   0  0  0  0  0  0  0  0  0  0  0  0
  -32.2972  -22.2033   20.2004 C   0  0  0  0  0  0  0  0  0  0  0  0
  -23.6670  -19.0150   23.0605 C   0  0  0  0  0  0  0  0  0  0  0  0
  -30.7495  -22.6917   21.9901 C   0  0  0  0  0  0  0  0  0  0  0  0
  -19.7066  -26.2214   23.5144 C   0  0  0  0  0  0  0  0  0  0  0  0
  -26.9381  -26.3485   18.5425 C   0  0  0  0  0  0  0  0  0  0  0  0
  -25.8847  -28.3052   17.2898 C   0  0  0  0  0  0  0  0  0  0  0  0
  -32.7969  -17.0993   22.4359 C   0  0  0  0  0  0  0  0  0  0  0  0
  -25.3352  -18.0352   24.5154 C   0  0  0  0  0  0  0  0  0  0  0  0
  -31.7644  -17.7910   23.0976 C   0  0  0  0  0  0  0  0  0  0  0  0
  -24.7086  -18.0966   23.2626 C   0  0  0  0  0  0  0  0  0  0  0  0
  -28.2836  -23.9101   18.7052 C   0  0  0  0  0  0  0  0  0  0  0  0
  -23.2462  -19.8517   24.0939 C   0  0  0  0  0  0  0  0  0  0  0  0
  -29.9681  -22.6123   19.7054 C   0  0  0  0  0  0  0  0  0  0  0  0
  -32.0418  -22.3926   21.5585 C   0  0  0  0  0  0  0  0  0  0  0  0
  -29.7127  -22.8015   21.0635 C   0  0  0  0  0  0  0  0  0  0  0  0
  -26.2427  -27.6076   18.4591 C   0  0  0  0  0  0  0  0  0  0  0  0
  -19.9532  -27.0909   22.4897 C   0  0  0  0  0  0  0  0  0  0  0  0
  -25.2481  -29.4340   17.7448 C   0  0  0  0  0  0  0  0  0  0  0  0
  -21.2917  -25.3452   22.2416 C   0  0  0  0  0  0  0  0  0  0  0  0
  -26.1076  -27.9633   15.9154 C   0  0  0  0  0  0  0  0  0  0  0  0
  -28.0750  -17.6522   22.9500 C   0  0  0  0  0  0  0  0  0  0  0  0
  -26.5029  -15.1581   21.5971 C   0  0  0  0  0  0  0  0  0  0  0  0
  -23.5218  -13.7222   20.7618 C   0  0  0  0  0  0  0  0  0  0  0  0
  -22.3110  -30.6987   22.8069 C   0  0  0  0  0  0  0  0  0  0  0  0
  -32.6909  -16.7187   20.9803 C   0  0  0  0  0  0  0  0  0  0  0  0
  -26.4377  -17.0436   24.7679 C   0  0  0  0  0  0  0  0  0  0  0  0
  -25.1284  -17.2078   22.1215 C   0  0  0  0  0  0  0  0  0  0  0  0
  -31.2612  -16.7465   20.4461 C   0  0  0  0  0  0  0  0  0  0  0  0
  -25.1330  -32.4188   21.4822 C   0  0  0  0  0  0  0  0  0  0  0  0
  -30.5547  -18.0275   20.8781 C   0  0  0  0  0  0  0  0  0  0  0  0
  -25.7051  -31.4437   20.4517 C   0  0  0  0  0  0  0  0  0  0  0  0
  -24.5796  -31.6884   22.7039 C   0  0  0  0  0  0  0  0  0  0  0  0
  -24.1679  -29.6571   21.3703 C   0  0  0  0  0  0  0  0  0  0  0  0
  -30.4583  -18.1160   22.4060 C   0  0  1  0  0  0  0  0  0  0  0  0
  -27.1476  -16.6016   23.4919 C   0  0  1  0  0  0  0  0  0  0  0  0
  -24.6873  -30.3435   20.0954 C   0  0  2  0  0  0  0  0  0  0  0  0
  -25.6182  -26.1739   22.8328 C   0  0  0  0  0  0  0  0  0  0  0  0
  -22.5575  -11.7010   19.6294 C   0  0  0  0  0  0  0  0  0  0  0  0
  -19.3515  -20.2602   23.8136 C   0  0  0  0  0  0  0  0  0  0  0  0
  -27.2256  -16.3395   18.8783 C   0  0  0  0  0  0  0  0  0  0  0  0
  -25.4815  -14.8653   17.8520 C   0  0  0  0  0  0  0  0  0  0  0  0
  -27.4364  -13.8518   19.0241 C   0  0  0  0  0  0  0  0  0  0  0  0
  -22.1204  -12.8676   23.2244 C   0  0  0  0  0  0  0  0  0  0  0  0
  -19.3643  -28.3916   22.1610 C   0  0  0  0  0  0  0  0  0  0  0  0
  -22.3252  -24.4332   21.6912 C   0  0  0  0  0  0  0  0  0  0  0  0
  -24.2387  -25.5454   22.9489 C   0  0  0  0  0  0  0  0  0  0  0  0
  -23.7052  -25.1087   21.5845 C   0  0  0  0  0  0  0  0  0  0  0  0
  -19.9476  -22.6905   23.6556 C   0  0  0  0  0  0  0  0  0  0  0  0
  -20.6188  -23.9427   24.2368 C   0  0  0  0  0  0  0  0  0  0  0  0
  -20.0857  -29.6001   22.7961 C   0  0  0  0  0  0  0  0  0  0  0  0
  -21.4154  -21.0649   25.0061 C   0  0  0  0  0  0  0  0  0  1  0  0
  -25.6260  -14.9799   20.3812 C   0  0  1  0  0  0  0  0  0  0  0  0
  -22.9950  -12.3113   20.9519 C   0  0  2  0  0  0  0  0  0  0  0  0
  -19.9959  -21.4372   24.5570 C   0  0  2  0  0  0  0  0  0  0  0  0
  -26.4355  -15.0273   19.0546 C   0  0  0  0  0  0  0  0  0  0  0  0
  -25.8650  -28.2404   19.5730 N   0  0  0  0  0  0  0  0  0  0  0  0
  -20.5483  -25.1501   23.3356 N   0  0  0  0  0  0  0  0  0  0  0  0
  -25.2632  -29.3475   19.1058 N   0  0  0  0  0  0  0  0  0  0  0  0
  -20.9383  -26.5235   21.7180 N   0  3  0  0  0  0  0  0  0  0  0  0
  -26.2151  -16.2592   22.4160 N   0  0  0  0  0  0  0  0  0  0  0  0
  -23.6194  -30.6595   22.2973 N   0  0  0  0  0  0  0  0  0  0  0  0
  -24.6826  -30.4823   17.1093 N   0  0  0  0  0  0  0  0  0  0  0  0
  -26.7774  -26.7670   15.6246 N   0  0  0  0  0  0  0  0  0  0  0  0
  -29.3990  -17.2602   22.8959 N   0  0  0  0  0  0  0  0  0  0  0  0
  -24.8895  -13.7376   20.5877 N   0  0  0  0  0  0  0  0  0  0  0  0
  -21.4631  -29.6902   22.3657 N   0  0  0  0  0  0  0  0  0  0  0  0
  -21.8267  -12.3149   21.8771 N   0  3  0  0  0  0  0  0  0  0  0  0
  -25.7387  -28.7049   14.9734 O   0  0  0  0  0  0  0  0  0  0  0  0
  -27.6227  -18.7376   22.6049 O   0  0  0  0  0  0  0  0  0  0  0  0
  -27.4053  -14.3461   21.8161 O   0  0  0  0  0  0  0  0  0  0  0  0
  -22.7924  -14.7114   20.7635 O   0  0  0  0  0  0  0  0  0  0  0  0
  -21.9255  -31.5711   23.5925 O   0  0  0  0  0  0  0  0  0  0  0  0
  -28.9397  -22.7202   18.7843 O   0  0  0  0  0  0  0  0  0  0  0  0
  -22.2337  -20.7364   23.8842 O   0  0  0  0  0  0  0  0  0  1  0  0
  -33.0372  -22.2856   22.4483 F   0  0  0  0  0  0  0  0  0  0  0  0
  -28.4730  -23.0879   21.4842 F   0  0  0  0  0  0  0  0  0  0  0  0
  1  2  1  0  0  0  0
  1  5  2  0  0  0  0
  2  6  2  0  0  0  0
  3  8  2  0  0  0  0
  3 16  1  0  0  0  0
  4  9  1  0  0  0  0
  4 16  2  0  0  0  0
  5 18  1  0  0  0  0
  6 20  1  0  0  0  0
  7 10  2  0  0  0  0
  7 19  1  0  0  0  0
  8 22  1  0  0  0  0
  9 22  2  0  0  0  0
 10 23  1  0  0  0  0
 11 12  2  0  0  0  0
 11 24  1  0  0  0  0
 12 25  1  0  0  0  0
 13 21  1  0  0  0  0
 13 23  2  0  0  0  0
 14 25  2  0  0  0  0
 14 26  1  0  0  0  0
 15 28  2  0  0  0  0
 15 68  1  0  0  0  0
 16 27  1  0  0  0  0
 17 27  1  0  0  0  0
 17 29  2  0  0  0  0
 17 31  1  0  0  0  0
 18 20  2  0  0  0  0
 18 36  1  0  0  0  0
 19 21  2  0  0  0  0
 19 37  1  0  0  0  0
 20 45  1  0  0  0  0
 21 38  1  0  0  0  0
 22 84  1  0  0  0  0
 23 85  1  0  0  0  0
 24 26  2  0  0  0  0
 24 84  1  0  0  0  0
 25 86  1  0  0  0  0
 26 87  1  0  0  0  0
 27 67  2  0  0  0  0
 28 55  1  0  0  0  0
 28 70  1  0  0  0  0
 29 69  1  0  0  0  0
 29 73  1  0  0  0  0
 30 56  1  0  0  0  0
 30 68  1  0  0  0  0
 30 70  2  0  0  0  0
 31 74  1  0  0  0  0
 31 79  2  0  0  0  0
 32 46  1  0  0  0  0
 32 75  1  0  0  0  0
 32 80  2  0  0  0  0
 33 63  1  0  0  0  0
 33 71  1  0  0  0  0
 33 81  2  0  0  0  0
 34 64  1  0  0  0  0
 34 76  1  0  0  0  0
 34 82  2  0  0  0  0
 35 72  1  0  0  0  0
 35 77  1  0  0  0  0
 35 83  2  0  0  0  0
 36 39  1  0  0  0  0
 37 46  1  0  0  0  0
 38 71  1  0  0  0  0
 39 41  1  0  0  0  0
 40 42  1  0  0  0  0
 40 43  1  0  0  0  0
 41 45  1  0  0  0  0
 42 47  1  0  0  0  0
 43 72  1  0  0  0  0
 44 47  1  0  0  0  0
 44 72  1  0  0  0  0
 45 75  1  0  0  0  0
 46 71  1  0  0  0  0
 47 69  1  0  0  0  0
 48 57  1  0  0  0  0
 49 64  1  0  0  0  0
 50 65  1  0  0  0  0
 51 66  1  0  0  0  0
 52 66  1  0  0  0  0
 53 66  1  0  0  0  0
 54 78  1  0  0  0  0
 55 61  1  0  0  0  0
 56 58  1  0  0  0  0
 57 58  1  0  0  0  0
 59 60  1  0  0  0  0
 59 65  1  0  0  0  0
 60 68  1  0  0  0  0
 61 77  1  0  0  0  0
 62 65  1  0  0  0  0
 62 85  1  0  0  0  0
 63 66  1  0  0  0  0
 63 76  1  0  0  0  0
 64 78  1  0  0  0  0
 67 69  1  0  0  0  0
M  CHG  2  70   1  78   1
M  ISO  4  35 100  62 101  77 100  85 101
M  END
> <Batch ID>
0092

> <Smiles>
CCCCc1nc(CC[100NH:0][100C:0](=O)N2CCCC(n3nc(-c4ccc(Oc5ccc(F)cc5F)cc4)c(C(N)=O)c3N)C2)cn1CCC(C)[101CH2:1][101O:1]c1ccc2c(c1)CN(C(=O)C(NC(=O)C(C)NC)C(C)(C)C)C(C(=O)NC1CCCc3ccccc31)C2

> <Shape>
0.205

> <Color>
0.073

> <Negative vol penalty>
0.000

$$$$

  -OEChem-04052319143D

 90 98  0     1  0  0  0  0  0999 V2000
  -25.5218  -31.2277   20.8879 C   0  0  0  0  0  0  0  0  0  0  0  0
  -26.3153  -30.0971   21.0539 C   0  0  0  0  0  0  0  0  0  0  0  0
  -20.2903  -17.1668   19.5829 C   0  0  0  0  0  0  0  0  0  0  0  0
  -20.5579  -17.3496   21.9771 C   0  0  0  0  0  0  0  0  0  0  0  0
  -24.1478  -31.0914   20.6949 C   0  0  0  0  0  0  0  0  0  0  0  0
  -25.7350  -28.8295   21.0279 C   0  0  0  0  0  0  0  0  0  0  0  0
  -28.2201  -23.6875   18.8166 C   0  0  0  0  0  0  0  0  0  0  0  0
  -19.1489  -17.9658   19.6495 C   0  0  0  0  0  0  0  0  0  0  0  0
  -19.4166  -18.1487   22.0436 C   0  0  0  0  0  0  0  0  0  0  0  0
  -28.8724  -22.6205   19.4329 C   0  0  0  0  0  0  0  0  0  0  0  0
  -16.0641  -17.7126   22.0005 C   0  0  0  0  0  0  0  0  0  0  0  0
  -15.1371  -17.4360   23.0054 C   0  0  0  0  0  0  0  0  0  0  0  0
  -26.8006  -21.3856   19.4744 C   0  0  0  0  0  0  0  0  0  0  0  0
  -29.1316  -13.4259   20.6934 C   0  0  0  0  0  0  0  0  0  0  0  0
  -15.4396  -19.6611   23.8968 C   0  0  0  0  0  0  0  0  0  0  0  0
  -20.9948  -16.8586   20.7467 C   0  0  0  0  0  0  0  0  0  0  0  0
  -23.5023  -16.4611   20.4976 C   0  0  0  0  0  0  0  0  0  0  0  0
  -23.5517  -29.8210   20.6569 C   0  0  0  0  0  0  0  0  0  0  0  0
  -26.8485  -23.6157   18.5339 C   0  0  0  0  0  0  0  0  0  0  0  0
  -24.3515  -28.6760   20.8355 C   0  0  0  0  0  0  0  0  0  0  0  0
  -26.1338  -22.4520   18.8521 C   0  0  0  0  0  0  0  0  0  0  0  0
  -28.7444  -12.1392   20.3358 C   0  0  0  0  0  0  0  0  0  0  0  0
  -28.8750  -11.7215   19.0161 C   0  0  0  0  0  0  0  0  0  0  0  0
  -18.7121  -18.4568   20.8798 C   0  0  0  0  0  0  0  0  0  0  0  0
  -28.1621  -21.4705   19.7645 C   0  0  0  0  0  0  0  0  0  0  0  0
  -16.6790  -18.9634   21.9438 C   0  0  0  0  0  0  0  0  0  0  0  0
  -14.8248  -18.4102   23.9535 C   0  0  0  0  0  0  0  0  0  0  0  0
  -16.3667  -19.9376   22.8919 C   0  0  0  0  0  0  0  0  0  0  0  0
  -22.1736  -16.0328   20.6787 C   0  0  0  0  0  0  0  0  0  0  0  0
  -29.6394  -14.2496   19.7017 C   0  0  0  0  0  0  0  0  0  0  0  0
  -29.3941  -12.6215   18.0994 C   0  0  0  0  0  0  0  0  0  0  0  0
  -24.2404  -15.3029   20.5044 C   0  0  0  0  0  0  0  0  0  0  0  0
  -24.0228  -17.7875   20.3377 C   0  0  0  0  0  0  0  0  0  0  0  0
  -24.2813  -25.2525   19.4473 C   0  0  0  0  0  0  0  0  0  0  0  0
  -22.7930  -23.3929   17.2451 C   0  0  0  0  0  0  0  0  0  0  0  0
  -22.7619  -20.4916   15.4484 C   0  0  0  0  0  0  0  0  0  0  0  0
  -25.1721  -10.3588   23.1512 C   0  0  0  0  0  0  0  0  0  0  0  0
  -22.0555  -29.7257   20.4928 C   0  0  0  0  0  0  0  0  0  0  0  0
  -26.1653  -24.7647   17.8445 C   0  0  0  0  0  0  0  0  0  0  0  0
  -24.6641  -22.3169   18.5514 C   0  0  0  0  0  0  0  0  0  0  0  0
  -21.5730  -28.3307   20.1038 C   0  0  0  0  0  0  0  0  0  0  0  0
  -22.8094  -10.4648   20.3037 C   0  0  0  0  0  0  0  0  0  0  0  0
  -22.2406  -27.2724   20.9762 C   0  0  0  0  0  0  0  0  0  0  0  0
  -22.4944  -11.9552   20.1876 C   0  0  0  0  0  0  0  0  0  0  0  0
  -23.1732  -10.0716   21.7323 C   0  0  0  0  0  0  0  0  0  0  0  0
  -23.9662  -12.3667   22.1988 C   0  0  0  0  0  0  0  0  0  0  0  0
  -23.7625  -27.2828   20.7887 C   0  0  1  0  0  0  0  0  0  0  0  0
  -24.6565  -24.7848   18.0695 C   0  0  1  0  0  0  0  0  0  0  0  0
  -23.6410  -12.8047   20.7628 C   0  0  2  0  0  0  0  0  0  0  0  0
  -30.6285  -12.8109   14.4462 C   0  0  0  0  0  0  0  0  0  0  0  0
  -26.9670  -10.0865   18.8166 C   0  0  0  0  0  0  0  0  0  0  0  0
  -29.2944   -9.2533   19.3103 C   0  0  0  0  0  0  0  0  0  0  0  0
  -21.3969  -19.2360   13.7579 C   0  0  0  0  0  0  0  0  0  0  0  0
  -20.8152  -22.6049   19.4309 C   0  0  0  0  0  0  0  0  0  0  0  0
  -20.0958  -20.6869   17.9916 C   0  0  0  0  0  0  0  0  0  0  0  0
  -19.7824  -23.0293   17.1931 C   0  0  0  0  0  0  0  0  0  0  0  0
  -27.4761  -10.3418   24.0292 C   0  0  0  0  0  0  0  0  0  0  0  0
  -24.9585  -20.5421   13.4657 C   0  0  0  0  0  0  0  0  0  0  0  0
  -28.1911  -11.2304   21.3831 C   0  0  0  0  0  0  0  0  0  0  0  0
  -30.0707  -15.6512   20.0529 C   0  0  0  0  0  0  0  0  0  0  0  0
  -29.5597  -12.2299   16.6673 C   0  0  0  0  0  0  0  0  0  0  0  0
  -30.4333  -13.2288   15.8951 C   0  0  0  0  0  0  0  0  0  0  0  0
  -28.9549  -16.6937   19.9215 C   0  0  0  0  0  0  0  0  0  0  0  0
  -29.4304  -18.1189   20.2070 C   0  0  0  0  0  0  0  0  0  0  0  0
  -26.9684  -11.8038   22.1081 C   0  0  0  0  0  0  0  0  0  0  0  0
  -28.2878  -19.1203   20.1058 C   0  0  0  0  0  0  0  0  0  1  0  0
  -28.4702  -10.3461   18.6039 C   0  0  0  0  0  0  0  0  0  0  0  0
  -22.1106  -22.0465   17.2685 C   0  0  1  0  0  0  0  0  0  0  0  0
  -22.5334  -20.2237   13.9717 C   0  0  2  0  0  0  0  0  0  0  0  0
  -20.7283  -22.0949   17.9786 C   0  0  0  0  0  0  0  0  0  0  0  0
  -22.0704  -14.7060   20.7920 N   0  0  0  0  0  0  0  0  0  0  0  0
  -29.7811  -13.8792   18.4093 N   0  0  0  0  0  0  0  0  0  0  0  0
  -23.3438  -14.2905   20.6818 N   0  0  0  0  0  0  0  0  0  0  0  0
  -24.0396  -23.4700   17.8822 N   0  0  0  0  0  0  0  0  0  0  0  0
  -24.2353  -10.9227   22.2696 N   0  0  0  0  0  0  0  0  0  0  0  0
  -25.5624  -15.0617   20.3757 N   0  0  0  0  0  0  0  0  0  0  0  0
  -23.1255  -18.8640   20.3550 N   0  0  0  0  0  0  0  0  0  0  0  0
  -24.1241  -26.6212   19.5534 N   0  0  0  0  0  0  0  0  0  0  0  0
  -22.0551  -21.5930   15.8830 N   0  0  0  0  0  0  0  0  0  0  0  0
  -26.4664  -10.9004   23.1412 N   0  0  0  0  0  0  0  0  0  0  0  0
  -23.7664  -19.6632   13.3502 N   0  3  0  0  0  0  0  0  0  0  0  0
  -25.2455  -18.0101   20.1675 O   0  0  0  0  0  0  0  0  0  0  0  0
  -24.1432  -24.4321   20.3470 O   0  0  0  0  0  0  0  0  0  0  0  0
  -22.2435  -24.3396   16.6763 O   0  0  0  0  0  0  0  0  0  0  0  0
  -23.4912  -19.7916   16.1473 O   0  0  0  0  0  0  0  0  0  0  0  0
  -24.8714   -9.4183   23.8975 O   0  0  0  0  0  0  0  0  0  0  0  0
  -17.5985  -19.2367   20.9451 O   0  0  0  0  0  0  0  0  0  0  0  0
  -28.7962  -20.4279   20.3668 O   0  0  0  0  0  0  0  0  0  1  0  0
  -13.9335  -18.1450   24.9175 F   0  0  0  0  0  0  0  0  0  0  0  0
  -16.9532  -21.1415   22.8419 F   0  0  0  0  0  0  0  0  0  0  0  0
  1  2  1  0  0  0  0
  1  5  2  0  0  0  0
  2  6  2  0  0  0  0
  3  8  2  0  0  0  0
  3 16  1  0  0  0  0
  4  9  1  0  0  0  0
  4 16  2  0  0  0  0
  5 18  1  0  0  0  0
  6 20  1  0  0  0  0
  7 10  2  0  0  0  0
  7 19  1  0  0  0  0
  8 24  1  0  0  0  0
  9 24  2  0  0  0  0
 10 25  1  0  0  0  0
 11 12  2  0  0  0  0
 11 26  1  0  0  0  0
 12 27  1  0  0  0  0
 13 21  1  0  0  0  0
 13 25  2  0  0  0  0
 14 22  2  0  0  0  0
 14 30  1  0  0  0  0
 15 27  2  0  0  0  0
 15 28  1  0  0  0  0
 16 29  1  0  0  0  0
 17 29  1  0  0  0  0
 17 32  2  0  0  0  0
 17 33  1  0  0  0  0
 18 20  2  0  0  0  0
 18 38  1  0  0  0  0
 19 21  2  0  0  0  0
 19 39  1  0  0  0  0
 20 47  1  0  0  0  0
 21 40  1  0  0  0  0
 22 23  1  0  0  0  0
 22 59  1  0  0  0  0
 23 31  2  0  0  0  0
 23 67  1  0  0  0  0
 24 87  1  0  0  0  0
 25 88  1  0  0  0  0
 26 28  2  0  0  0  0
 26 87  1  0  0  0  0
 27 89  1  0  0  0  0
 28 90  1  0  0  0  0
 29 71  2  0  0  0  0
 30 60  1  0  0  0  0
 30 72  2  0  0  0  0
 31 61  1  0  0  0  0
 31 72  1  0  0  0  0
 32 73  1  0  0  0  0
 32 76  1  0  0  0  0
 33 77  1  0  0  0  0
 33 82  2  0  0  0  0
 34 48  1  0  0  0  0
 34 78  1  0  0  0  0
 34 83  2  0  0  0  0
 35 68  1  0  0  0  0
 35 74  1  0  0  0  0
 35 84  2  0  0  0  0
 36 69  1  0  0  0  0
 36 79  1  0  0  0  0
 36 85  2  0  0  0  0
 37 75  1  0  0  0  0
 37 80  1  0  0  0  0
 37 86  2  0  0  0  0
 38 41  1  0  0  0  0
 39 48  1  0  0  0  0
 40 74  1  0  0  0  0
 41 43  1  0  0  0  0
 42 44  1  0  0  0  0
 42 45  1  0  0  0  0
 43 47  1  0  0  0  0
 44 49  1  0  0  0  0
 45 75  1  0  0  0  0
 46 49  1  0  0  0  0
 46 75  1  0  0  0  0
 47 78  1  0  0  0  0
 48 74  1  0  0  0  0
 49 73  1  0  0  0  0
 50 62  1  0  0  0  0
 51 67  1  0  0  0  0
 52 67  1  0  0  0  0
 53 69  1  0  0  0  0
 54 70  1  0  0  0  0
 55 70  1  0  0  0  0
 56 70  1  0  0  0  0
 57 80  1  0  0  0  0
 58 81  1  0  0  0  0
 59 65  1  0  0  0  0
 60 63  1  0  0  0  0
 61 62  1  0  0  0  0
 63 64  1  0  0  0  0
 64 66  1  0  0  0  0
 65 80  1  0  0  0  0
 66 88  1  0  0  0  0
 68 70  1  0  0  0  0
 68 79  1  0  0  0  0
 69 81  1  0  0  0  0
 71 73  1  0  0  0  0
M  CHG  1  81   1
M  ISO  4  37 100  66 101  80 100  88 101
M  END
> <Batch ID>
0092

> <Smiles>
CCCc1nc(CCC[101CH2:1][101O:1]c2ccc3c(c2)CN(C(=O)C(NC(=O)C(C)NC)C(C)(C)C)C(C(=O)NC2CCCc4ccccc42)C3)cc(CC[100N:0](C)[100C:0](=O)N2CCCC(n3nc(-c4ccc(Oc5ccc(F)cc5F)cc4)c(C(N)=O)c3N)C2)c1C(C)C

> <Shape>
0.185

> <Color>
0.102

> <Negative vol penalty>
0.000

$$$$

  -OEChem-04052319143D

 82 89  0     1  0  0  0  0  0999 V2000
  -23.3524  -30.2279   21.7612 C   0  0  0  0  0  0  0  0  0  0  0  0
  -23.6110  -28.8718   21.5890 C   0  0  0  0  0  0  0  0  0  0  0  0
  -25.8304  -13.0567   21.7348 C   0  0  0  0  0  0  0  0  0  0  0  0
  -25.7576  -13.6726   19.3997 C   0  0  0  0  0  0  0  0  0  0  0  0
  -24.2755  -31.1742   21.3182 C   0  0  0  0  0  0  0  0  0  0  0  0
  -24.7925  -28.4614   20.9725 C   0  0  0  0  0  0  0  0  0  0  0  0
  -28.0705  -23.4519   22.2632 C   0  0  0  0  0  0  0  0  0  0  0  0
  -25.4392  -11.7592   21.4048 C   0  0  0  0  0  0  0  0  0  0  0  0
  -25.3663  -12.3750   19.0697 C   0  0  0  0  0  0  0  0  0  0  0  0
  -28.1332  -22.1928   21.6678 C   0  0  0  0  0  0  0  0  0  0  0  0
  -24.1107   -8.3796   21.2120 C   0  0  0  0  0  0  0  0  0  0  0  0
  -23.1183   -7.7824   21.9892 C   0  0  0  0  0  0  0  0  0  0  0  0
  -30.0539  -22.8991   20.3906 C   0  0  0  0  0  0  0  0  0  0  0  0
  -21.5833   -9.5478   21.3856 C   0  0  0  0  0  0  0  0  0  0  0  0
  -25.9896  -14.0135   20.7322 C   0  0  0  0  0  0  0  0  0  0  0  0
  -27.7079  -15.8493   21.1619 C   0  0  0  0  0  0  0  0  0  0  0  0
  -25.4733  -30.7749   20.7047 C   0  0  0  0  0  0  0  0  0  0  0  0
  -28.9940  -24.4492   21.9181 C   0  0  0  0  0  0  0  0  0  0  0  0
  -25.7319  -29.4033   20.5196 C   0  0  0  0  0  0  0  0  0  0  0  0
  -30.0024  -24.1692   20.9849 C   0  0  0  0  0  0  0  0  0  0  0  0
  -25.2072  -11.4183   20.0723 C   0  0  0  0  0  0  0  0  0  0  0  0
  -29.1232  -21.9172   20.7292 C   0  0  0  0  0  0  0  0  0  0  0  0
  -23.8395   -9.5609   20.5217 C   0  0  0  0  0  0  0  0  0  0  0  0
  -21.8546   -8.3665   22.0760 C   0  0  0  0  0  0  0  0  0  0  0  0
  -22.5758  -10.1450   20.6084 C   0  0  0  0  0  0  0  0  0  0  0  0
  -26.3932  -15.3541   21.0725 C   0  0  0  0  0  0  0  0  0  0  0  0
  -27.5550  -17.1681   21.5136 C   0  0  0  0  0  0  0  0  0  0  0  0
  -28.9559  -15.1772   20.9461 C   0  0  0  0  0  0  0  0  0  0  0  0
  -28.7918  -27.3335   20.5977 C   0  0  0  0  0  0  0  0  0  0  0  0
  -31.9608  -27.4410   21.2820 C   0  0  0  0  0  0  0  0  0  0  0  0
  -34.8529  -25.7345   21.8903 C   0  0  0  0  0  0  0  0  0  0  0  0
  -23.0954  -21.0945   20.7741 C   0  0  0  0  0  0  0  0  0  0  0  0
  -26.4190  -31.8356   20.1996 C   0  0  0  0  0  0  0  0  0  0  0  0
  -28.9291  -25.7938   22.5892 C   0  0  0  0  0  0  0  0  0  0  0  0
  -31.0300  -25.1989   20.5950 C   0  0  0  0  0  0  0  0  0  0  0  0
  -27.8185  -31.3083   19.8936 C   0  0  0  0  0  0  0  0  0  0  0  0
  -24.5833  -20.0994   23.8519 C   0  0  0  0  0  0  0  0  0  0  0  0
  -27.7375  -30.0153   19.0883 C   0  0  0  0  0  0  0  0  0  0  0  0
  -25.3345  -18.8151   23.4967 C   0  0  0  0  0  0  0  0  0  0  0  0
  -23.2687  -20.2152   23.0835 C   0  0  0  0  0  0  0  0  0  0  0  0
  -24.1448  -18.8021   21.2643 C   0  0  0  0  0  0  0  0  0  0  0  0
  -27.0136  -28.9180   19.8778 C   0  0  1  0  0  0  0  0  0  0  0  0
  -29.6063  -26.8974   21.7826 C   0  0  1  0  0  0  0  0  0  0  0  0
  -25.5037  -18.6678   21.9725 C   0  0  2  0  0  0  0  0  0  0  0  0
  -37.2878  -26.0956   22.3784 C   0  0  0  0  0  0  0  0  0  0  0  0
  -26.9879  -18.1894   17.5151 C   0  0  0  0  0  0  0  0  0  0  0  0
  -25.3076  -21.7225   15.4974 C   0  0  0  0  0  0  0  0  0  0  0  0
  -24.1461  -23.9567   19.2038 C   0  0  0  0  0  0  0  0  0  0  0  0
  -32.4425  -28.1381   18.3508 C   0  0  0  0  0  0  0  0  0  0  0  0
  -34.8546  -27.5542   18.6806 C   0  0  0  0  0  0  0  0  0  0  0  0
  -33.8393  -29.4304   19.9736 C   0  0  0  0  0  0  0  0  0  0  0  0
  -34.6513  -24.3632   24.5052 C   0  0  0  0  0  0  0  0  0  0  0  0
  -29.0684  -19.4831   18.0295 C   0  0  0  0  0  0  0  0  0  0  0  0
  -27.1379  -20.6359   16.8147 C   0  0  0  0  0  0  0  0  0  0  0  0
  -25.5233  -22.2395   17.9837 C   0  0  0  0  0  0  0  0  0  0  0  0
  -23.0061  -21.8448   18.4102 C   0  0  0  0  0  0  0  0  0  0  0  0
  -29.7055  -20.6228   18.8209 C   0  0  0  0  0  0  0  0  0  1  0  0
  -33.2251  -27.0482   20.5566 C   0  0  1  0  0  0  0  0  0  0  0  0
  -35.9042  -25.8883   22.9745 C   0  0  2  0  0  0  0  0  0  0  0  0
  -27.5321  -19.5779   17.8696 C   0  0  1  0  0  0  0  0  0  0  0  0
  -25.6856  -21.1717   16.8789 C   0  0  1  0  0  0  0  0  0  0  0  0
  -24.1176  -22.8661   18.1247 C   0  0  1  0  0  0  0  0  0  0  0  0
  -33.5700  -28.0237   19.3961 C   0  0  0  0  0  0  0  0  0  0  0  0
  -25.4728  -16.2827   21.3457 N   0  0  0  0  0  0  0  0  0  0  0  0
  -26.2103  -17.3746   21.6102 N   0  0  0  0  0  0  0  0  0  0  0  0
  -30.9210  -26.5005   21.2742 N   0  0  0  0  0  0  0  0  0  0  0  0
  -23.4990  -20.0684   21.6443 N   0  0  0  0  0  0  0  0  0  0  0  0
  -28.4409  -18.1597   21.7468 N   0  0  0  0  0  0  0  0  0  0  0  0
  -28.9321  -13.8218   20.5902 N   0  0  0  0  0  0  0  0  0  0  0  0
  -27.8946  -28.3475   20.8742 N   0  0  0  0  0  0  0  0  0  0  0  0
  -34.2637  -26.9407   21.5755 N   0  0  0  0  0  0  0  0  0  0  0  0
  -23.3567  -20.8780   19.4267 N   0  0  0  0  0  0  0  0  0  0  0  0
  -35.9411  -24.6730   23.8363 N   0  3  0  0  0  0  0  0  0  0  0  0
  -30.0600  -15.7570   21.0815 O   0  0  0  0  0  0  0  0  0  0  0  0
  -28.9655  -26.7913   19.5126 O   0  0  0  0  0  0  0  0  0  0  0  0
  -31.9007  -28.5389   21.8412 O   0  0  0  0  0  0  0  0  0  0  0  0
  -34.5842  -24.6532   21.3716 O   0  0  0  0  0  0  0  0  0  0  0  0
  -22.5480  -22.1294   21.1693 O   0  0  0  0  0  0  0  0  0  0  0  0
  -24.8256  -10.1522   19.7499 O   0  0  0  0  0  0  0  0  0  0  0  0
  -29.1868  -20.6798   20.1415 O   0  0  0  0  0  0  0  0  0  1  0  0
  -20.9012   -7.7920   22.8211 F   0  0  0  0  0  0  0  0  0  0  0  0
  -22.3089  -11.2792   19.9465 F   0  0  0  0  0  0  0  0  0  0  0  0
  1  2  1  0  0  0  0
  1  5  2  0  0  0  0
  2  6  2  0  0  0  0
  3  8  2  0  0  0  0
  3 15  1  0  0  0  0
  4  9  1  0  0  0  0
  4 15  2  0  0  0  0
  5 17  1  0  0  0  0
  6 19  1  0  0  0  0
  7 10  2  0  0  0  0
  7 18  1  0  0  0  0
  8 21  1  0  0  0  0
  9 21  2  0  0  0  0
 10 22  1  0  0  0  0
 11 12  2  0  0  0  0
 11 23  1  0  0  0  0
 12 24  1  0  0  0  0
 13 20  1  0  0  0  0
 13 22  2  0  0  0  0
 14 24  2  0  0  0  0
 14 25  1  0  0  0  0
 15 26  1  0  0  0  0
 16 26  1  0  0  0  0
 16 27  2  0  0  0  0
 16 28  1  0  0  0  0
 17 19  2  0  0  0  0
 17 33  1  0  0  0  0
 18 20  2  0  0  0  0
 18 34  1  0  0  0  0
 19 42  1  0  0  0  0
 20 35  1  0  0  0  0
 21 79  1  0  0  0  0
 22 80  1  0  0  0  0
 23 25  2  0  0  0  0
 23 79  1  0  0  0  0
 24 81  1  0  0  0  0
 25 82  1  0  0  0  0
 26 64  2  0  0  0  0
 27 65  1  0  0  0  0
 27 68  1  0  0  0  0
 28 69  1  0  0  0  0
 28 74  2  0  0  0  0
 29 43  1  0  0  0  0
 29 70  1  0  0  0  0
 29 75  2  0  0  0  0
 30 58  1  0  0  0  0
 30 66  1  0  0  0  0
 30 76  2  0  0  0  0
 31 59  1  0  0  0  0
 31 71  1  0  0  0  0
 31 77  2  0  0  0  0
 32 67  1  0  0  0  0
 32 72  1  0  0  0  0
 32 78  2  0  0  0  0
 33 36  1  0  0  0  0
 34 43  1  0  0  0  0
 35 66  1  0  0  0  0
 36 38  1  0  0  0  0
 37 39  1  0  0  0  0
 37 40  1  0  0  0  0
 38 42  1  0  0  0  0
 39 44  1  0  0  0  0
 40 67  1  0  0  0  0
 41 44  1  0  0  0  0
 41 67  1  0  0  0  0
 42 70  1  0  0  0  0
 43 66  1  0  0  0  0
 44 65  1  0  0  0  0
 45 59  1  0  0  0  0
 46 60  1  0  0  0  0
 47 61  1  0  0  0  0
 48 62  1  0  0  0  0
 49 63  1  0  0  0  0
 50 63  1  0  0  0  0
 51 63  1  0  0  0  0
 52 73  1  0  0  0  0
 53 57  1  0  0  0  0
 53 60  1  0  0  0  0
 54 60  1  0  0  0  0
 54 61  1  0  0  0  0
 55 61  1  0  0  0  0
 55 62  1  0  0  0  0
 56 62  1  0  0  0  0
 56 72  1  0  0  0  0
 57 80  1  0  0  0  0
 58 63  1  0  0  0  0
 58 71  1  0  0  0  0
 59 73  1  0  0  0  0
 64 65  1  0  0  0  0
M  CHG  1  73   1
M  ISO  4  32 100  57 101  72 100  80 101
M  END
> <Batch ID>
0092

> <Smiles>
CNC(C)C(=O)NC(C(=O)N1Cc2cc([101O:1][101CH2:1]CC(C)CC(C)CC(C)C[100NH:0][100C:0](=O)N3CCCC(n4nc(-c5ccc(Oc6ccc(F)cc6F)cc5)c(C(N)=O)c4N)C3)ccc2CC1C(=O)NC1CCCc2ccccc21)C(C)(C)C

> <Shape>
0.206

> <Color>
0.077

> <Negative vol penalty>
0.000

$$$$

  -OEChem-04052319143D

 85 93  0     1  0  0  0  0  0999 V2000
  -26.9626  -27.6285   16.4923 C   0  0  0  0  0  0  0  0  0  0  0  0
  -26.4627  -26.3695   16.8052 C   0  0  0  0  0  0  0  0  0  0  0  0
  -30.5572  -21.1681   19.8419 C   0  0  0  0  0  0  0  0  0  0  0  0
  -28.4528  -20.6293   18.7845 C   0  0  0  0  0  0  0  0  0  0  0  0
  -27.0445  -28.6071   17.4806 C   0  0  0  0  0  0  0  0  0  0  0  0
  -26.0334  -26.0924   18.1036 C   0  0  0  0  0  0  0  0  0  0  0  0
  -23.8236  -21.7608   18.8503 C   0  0  0  0  0  0  0  0  0  0  0  0
  -30.6490  -22.3259   19.0696 C   0  0  0  0  0  0  0  0  0  0  0  0
  -28.5445  -21.7872   18.0121 C   0  0  0  0  0  0  0  0  0  0  0  0
  -24.5155  -20.5505   18.8426 C   0  0  0  0  0  0  0  0  0  0  0  0
  -29.3310  -25.4397   19.0824 C   0  0  0  0  0  0  0  0  0  0  0  0
  -29.7071  -26.6193   19.7247 C   0  0  0  0  0  0  0  0  0  0  0  0
  -24.4181  -20.4863   21.2521 C   0  0  0  0  0  0  0  0  0  0  0  0
  -25.0491  -12.8662   22.0221 C   0  0  0  0  0  0  0  0  0  0  0  0
  -31.6348  -26.7921   18.2786 C   0  0  0  0  0  0  0  0  0  0  0  0
  -29.4592  -20.3197   19.6994 C   0  0  0  0  0  0  0  0  0  0  0  0
  -28.7620  -18.9906   21.7621 C   0  0  0  0  0  0  0  0  0  0  0  0
  -26.6275  -28.3371   18.7945 C   0  0  0  0  0  0  0  0  0  0  0  0
  -23.4326  -22.3495   20.0615 C   0  0  0  0  0  0  0  0  0  0  0  0
  -26.0857  -27.0743   19.1095 C   0  0  0  0  0  0  0  0  0  0  0  0
  -23.7191  -21.7029   21.2723 C   0  0  0  0  0  0  0  0  0  0  0  0
  -25.1749  -11.5757   21.5200 C   0  0  0  0  0  0  0  0  0  0  0  0
  -29.6426  -22.6355   18.1547 C   0  0  0  0  0  0  0  0  0  0  0  0
  -24.8154  -19.9145   20.0437 C   0  0  0  0  0  0  0  0  0  0  0  0
  -30.1068  -24.9362   18.0382 C   0  0  0  0  0  0  0  0  0  0  0  0
  -30.8590  -27.2955   19.3228 C   0  0  0  0  0  0  0  0  0  0  0  0
  -31.2587  -25.6124   17.6363 C   0  0  0  0  0  0  0  0  0  0  0  0
  -25.5224  -11.3849   20.1873 C   0  0  0  0  0  0  0  0  0  0  0  0
  -29.3641  -19.1233   20.4966 C   0  0  0  0  0  0  0  0  0  0  0  0
  -25.2796  -13.9238   21.1572 C   0  0  0  0  0  0  0  0  0  0  0  0
  -25.7315  -12.5089   19.4045 C   0  0  0  0  0  0  0  0  0  0  0  0
  -28.9359  -17.6677   22.0881 C   0  0  0  0  0  0  0  0  0  0  0  0
  -28.1042  -19.9750   22.5707 C   0  0  0  0  0  0  0  0  0  0  0  0
  -24.0967  -25.0810   21.5453 C   0  0  0  0  0  0  0  0  0  0  0  0
  -21.8256  -24.0537   23.6211 C   0  0  0  0  0  0  0  0  0  0  0  0
  -20.1006  -21.4333   24.9645 C   0  0  0  0  0  0  0  0  0  0  0  0
  -29.7293  -12.7280   18.7986 C   0  0  0  0  0  0  0  0  0  0  0  0
  -26.7310  -29.4354   19.8231 C   0  0  0  0  0  0  0  0  0  0  0  0
  -22.6635  -23.6420   20.0516 C   0  0  0  0  0  0  0  0  0  0  0  0
  -23.3038  -22.2831   22.5988 C   0  0  0  0  0  0  0  0  0  0  0  0
  -26.6704  -28.9158   21.2558 C   0  0  0  0  0  0  0  0  0  0  0  0
  -31.8924  -13.9826   21.3331 C   0  0  0  0  0  0  0  0  0  0  0  0
  -25.4852  -27.9757   21.4180 C   0  0  0  0  0  0  0  0  0  0  0  0
  -31.4354  -15.4304   21.5203 C   0  0  0  0  0  0  0  0  0  0  0  0
  -31.8060  -13.5480   19.8717 C   0  0  0  0  0  0  0  0  0  0  0  0
  -30.0309  -15.1994   19.4292 C   0  0  0  0  0  0  0  0  0  0  0  0
  -25.6414  -26.7405   20.5221 C   0  0  1  0  0  0  0  0  0  0  0  0
  -22.7652  -24.4080   21.3670 C   0  0  1  0  0  0  0  0  0  0  0  0
  -30.0472  -15.6655   20.8950 C   0  0  2  0  0  0  0  0  0  0  0  0
  -23.5614   -9.7907   22.2251 C   0  0  0  0  0  0  0  0  0  0  0  0
  -18.3351  -20.9028   26.6671 C   0  0  0  0  0  0  0  0  0  0  0  0
  -23.8620  -24.4618   25.8564 C   0  0  0  0  0  0  0  0  0  0  0  0
  -22.4145  -23.0548   27.3373 C   0  0  0  0  0  0  0  0  0  0  0  0
  -21.5387  -25.2003   26.4142 C   0  0  0  0  0  0  0  0  0  0  0  0
  -18.3015  -20.2881   22.9125 C   0  0  0  0  0  0  0  0  0  0  0  0
  -24.9272  -10.4318   22.4493 C   0  0  0  0  0  0  0  0  0  0  0  0
  -25.1527  -15.3372   21.6670 C   0  0  0  0  0  0  0  0  0  0  0  0
  -26.1079  -12.3928   17.9629 C   0  0  0  0  0  0  0  0  0  0  0  0
  -25.4348  -16.4026   20.6054 C   0  0  0  0  0  0  0  0  0  0  0  0
  -27.5863  -12.0563   17.7424 C   0  0  0  0  0  0  0  0  0  0  0  0
  -25.2207  -17.8260   21.1068 C   0  0  0  0  0  0  0  0  0  1  0  0
  -21.8251  -23.2144   24.8760 C   0  0  1  0  0  0  0  0  0  0  0  0
  -18.6170  -21.2225   25.2073 C   0  0  2  0  0  0  0  0  0  0  0  0
  -22.4198  -23.9726   26.0962 C   0  0  0  0  0  0  0  0  0  0  0  0
  -29.8820  -17.9763   20.0492 N   0  0  0  0  0  0  0  0  0  0  0  0
  -25.6188  -13.7780   19.8567 N   0  0  0  0  0  0  0  0  0  0  0  0
  -29.6059  -17.1103   21.0390 N   0  0  0  0  0  0  0  0  0  0  0  0
  -22.5594  -23.5518   22.5370 N   0  0  0  0  0  0  0  0  0  0  0  0
  -30.4640  -13.7961   19.3394 N   0  0  0  0  0  0  0  0  0  0  0  0
  -28.5797  -16.9386   23.1670 N   0  0  0  0  0  0  0  0  0  0  0  0
  -28.0134  -21.2865   22.0848 N   0  0  0  0  0  0  0  0  0  0  0  0
  -24.4103  -25.9817   20.5454 N   0  0  0  0  0  0  0  0  0  0  0  0
  -20.4507  -22.7632   25.0647 N   0  0  0  0  0  0  0  0  0  0  0  0
  -28.4641  -13.0485   18.3218 N   0  0  0  0  0  0  0  0  0  0  0  0
  -18.1105  -20.0962   24.3732 N   0  3  0  0  0  0  0  0  0  0  0  0
  -27.6259  -19.7036   23.6981 O   0  0  0  0  0  0  0  0  0  0  0  0
  -24.7878  -24.8046   22.5189 O   0  0  0  0  0  0  0  0  0  0  0  0
  -21.1921  -25.1120   23.6012 O   0  0  0  0  0  0  0  0  0  0  0  0
  -20.8725  -20.5100   24.7148 O   0  0  0  0  0  0  0  0  0  0  0  0
  -30.1663  -11.5732   18.7496 O   0  0  0  0  0  0  0  0  0  0  0  0
  -29.7316  -23.7654   17.4010 O   0  0  0  0  0  0  0  0  0  0  0  0
  -25.4912  -18.7333   20.0391 O   0  0  0  0  0  0  0  0  0  1  0  0
  -31.2193  -28.4292   19.9387 F   0  0  0  0  0  0  0  0  0  0  0  0
  -32.0074  -25.1342   16.6330 F   0  0  0  0  0  0  0  0  0  0  0  0
  -25.7028   -9.6381   19.4689 Br  0  0  0  0  0  0  0  0  0  0  0  0
  1  2  1  0  0  0  0
  1  5  2  0  0  0  0
  2  6  2  0  0  0  0
  3  8  2  0  0  0  0
  3 16  1  0  0  0  0
  4  9  1  0  0  0  0
  4 16  2  0  0  0  0
  5 18  1  0  0  0  0
  6 20  1  0  0  0  0
  7 10  2  0  0  0  0
  7 19  1  0  0  0  0
  8 23  1  0  0  0  0
  9 23  2  0  0  0  0
 10 24  1  0  0  0  0
 11 12  2  0  0  0  0
 11 25  1  0  0  0  0
 12 26  1  0  0  0  0
 13 21  1  0  0  0  0
 13 24  2  0  0  0  0
 14 22  1  0  0  0  0
 14 30  2  0  0  0  0
 15 26  2  0  0  0  0
 15 27  1  0  0  0  0
 16 29  1  0  0  0  0
 17 29  1  0  0  0  0
 17 32  2  0  0  0  0
 17 33  1  0  0  0  0
 18 20  2  0  0  0  0
 18 38  1  0  0  0  0
 19 21  2  0  0  0  0
 19 39  1  0  0  0  0
 20 47  1  0  0  0  0
 21 40  1  0  0  0  0
 22 28  2  0  0  0  0
 22 56  1  0  0  0  0
 23 81  1  0  0  0  0
 24 82  1  0  0  0  0
 25 27  2  0  0  0  0
 25 81  1  0  0  0  0
 26 83  1  0  0  0  0
 27 84  1  0  0  0  0
 28 31  1  0  0  0  0
 28 85  1  0  0  0  0
 29 65  2  0  0  0  0
 30 57  1  0  0  0  0
 30 66  1  0  0  0  0
 31 58  1  0  0  0  0
 31 66  2  0  0  0  0
 32 67  1  0  0  0  0
 32 70  1  0  0  0  0
 33 71  1  0  0  0  0
 33 76  2  0  0  0  0
 34 48  1  0  0  0  0
 34 72  1  0  0  0  0
 34 77  2  0  0  0  0
 35 62  1  0  0  0  0
 35 68  1  0  0  0  0
 35 78  2  0  0  0  0
 36 63  1  0  0  0  0
 36 73  1  0  0  0  0
 36 79  2  0  0  0  0
 37 69  1  0  0  0  0
 37 74  1  0  0  0  0
 37 80  2  0  0  0  0
 38 41  1  0  0  0  0
 39 48  1  0  0  0  0
 40 68  1  0  0  0  0
 41 43  1  0  0  0  0
 42 44  1  0  0  0  0
 42 45  1  0  0  0  0
 43 47  1  0  0  0  0
 44 49  1  0  0  0  0
 45 69  1  0  0  0  0
 46 49  1  0  0  0  0
 46 69  1  0  0  0  0
 47 72  1  0  0  0  0
 48 68  1  0  0  0  0
 49 67  1  0  0  0  0
 50 56  1  0  0  0  0
 51 63  1  0  0  0  0
 52 64  1  0  0  0  0
 53 64  1  0  0  0  0
 54 64  1  0  0  0  0
 55 75  1  0  0  0  0
 57 59  1  0  0  0  0
 58 60  1  0  0  0  0
 59 61  1  0  0  0  0
 60 74  1  0  0  0  0
 61 82  1  0  0  0  0
 62 64  1  0  0  0  0
 62 73  1  0  0  0  0
 63 75  1  0  0  0  0
 65 67  1  0  0  0  0
M  CHG  1  75   1
M  ISO  4  37 100  61 101  74 100  82 101
M  END
> <Batch ID>
0092

> <Smiles>
CCc1cc(CC[101CH2:1][101O:1]c2ccc3c(c2)CN(C(=O)C(NC(=O)C(C)NC)C(C)(C)C)C(C(=O)NC2CCCc4ccccc42)C3)nc(CC[100NH:0][100C:0](=O)N2CCCC(n3nc(-c4ccc(Oc5ccc(F)cc5F)cc4)c(C(N)=O)c3N)C2)c1Br

> <Shape>
0.217

> <Color>
0.052

> <Negative vol penalty>
0.000

$$$$

  -OEChem-04052319143D

 89 97  0     1  0  0  0  0  0999 V2000
  -19.8931  -25.2845   24.1670 C   0  0  0  0  0  0  0  0  0  0  0  0
  -20.9185  -24.3854   23.8920 C   0  0  0  0  0  0  0  0  0  0  0  0
  -23.0105  -10.0107   19.8356 C   0  0  0  0  0  0  0  0  0  0  0  0
  -23.8884   -9.7003   22.0649 C   0  0  0  0  0  0  0  0  0  0  0  0
  -19.6148  -26.3174   23.2728 C   0  0  0  0  0  0  0  0  0  0  0  0
  -21.6655  -24.5181   22.7221 C   0  0  0  0  0  0  0  0  0  0  0  0
  -26.6379  -23.9878   23.5216 C   0  0  0  0  0  0  0  0  0  0  0  0
  -22.2612   -8.8416   19.9678 C   0  0  0  0  0  0  0  0  0  0  0  0
  -23.1391   -8.5313   22.1972 C   0  0  0  0  0  0  0  0  0  0  0  0
  -27.1232  -22.6899   23.6757 C   0  0  0  0  0  0  0  0  0  0  0  0
  -19.9335   -7.6908   22.8595 C   0  0  0  0  0  0  0  0  0  0  0  0
  -19.2378   -7.5003   24.0533 C   0  0  0  0  0  0  0  0  0  0  0  0
  -27.8687  -22.7028   21.3815 C   0  0  0  0  0  0  0  0  0  0  0  0
  -20.4829   -5.4692   24.4549 C   0  0  0  0  0  0  0  0  0  0  0  0
  -31.6444  -20.8805   23.5824 C   0  0  0  0  0  0  0  0  0  0  0  0
  -23.8241  -10.4400   20.8841 C   0  0  0  0  0  0  0  0  0  0  0  0
  -24.2018  -12.9548   21.0864 C   0  0  0  0  0  0  0  0  0  0  0  0
  -20.3652  -26.4687   22.0961 C   0  0  0  0  0  0  0  0  0  0  0  0
  -26.7548  -24.6500   22.2911 C   0  0  0  0  0  0  0  0  0  0  0  0
  -21.3962  -25.5533   21.8107 C   0  0  0  0  0  0  0  0  0  0  0  0
  -27.3864  -24.0100   21.2151 C   0  0  0  0  0  0  0  0  0  0  0  0
  -30.9321  -19.7695   23.1604 C   0  0  0  0  0  0  0  0  0  0  0  0
  -31.3719  -19.1096   22.0183 C   0  0  0  0  0  0  0  0  0  0  0  0
  -32.4949  -19.5743   21.3427 C   0  0  0  0  0  0  0  0  0  0  0  0
  -22.3255   -8.1019   21.1487 C   0  0  0  0  0  0  0  0  0  0  0  0
  -27.7361  -22.0461   22.6047 C   0  0  0  0  0  0  0  0  0  0  0  0
  -20.9039   -6.7703   22.4633 C   0  0  0  0  0  0  0  0  0  0  0  0
  -19.5125   -6.3896   24.8511 C   0  0  0  0  0  0  0  0  0  0  0  0
  -21.1786   -5.6596   23.2610 C   0  0  0  0  0  0  0  0  0  0  0  0
  -24.5987  -11.6473   20.7479 C   0  0  0  0  0  0  0  0  0  0  0  0
  -33.1371  -20.6941   21.8460 C   0  0  0  0  0  0  0  0  0  0  0  0
  -25.2861  -13.7358   20.7691 C   0  0  0  0  0  0  0  0  0  0  0  0
  -22.9636  -13.4216   21.6385 C   0  0  0  0  0  0  0  0  0  0  0  0
  -24.6979  -25.8319   20.1755 C   0  0  0  0  0  0  0  0  0  0  0  0
  -27.3957  -26.9369   18.7531 C   0  0  0  0  0  0  0  0  0  0  0  0
  -30.7621  -26.6242   18.2879 C   0  0  0  0  0  0  0  0  0  0  0  0
  -30.7886  -14.6667   20.7980 C   0  0  0  0  0  0  0  0  0  0  0  0
  -19.9965  -27.5726   21.1369 C   0  0  0  0  0  0  0  0  0  0  0  0
  -26.2501  -26.0598   22.1489 C   0  0  0  0  0  0  0  0  0  0  0  0
  -27.5549  -24.6848   19.8792 C   0  0  0  0  0  0  0  0  0  0  0  0
  -21.0795  -27.8676   20.1023 C   0  0  0  0  0  0  0  0  0  0  0  0
  -29.4887  -12.6378   18.1769 C   0  0  0  0  0  0  0  0  0  0  0  0
  -21.6041  -26.5708   19.4940 C   0  0  0  0  0  0  0  0  0  0  0  0
  -28.0709  -12.3022   18.6430 C   0  0  0  0  0  0  0  0  0  0  0  0
  -30.4705  -12.6854   19.3456 C   0  0  0  0  0  0  0  0  0  0  0  0
  -28.6558  -13.2408   20.9180 C   0  0  0  0  0  0  0  0  0  0  0  0
  -22.2451  -25.6791   20.5642 C   0  0  1  0  0  0  0  0  0  0  0  0
  -25.9629  -26.4486   20.7019 C   0  0  1  0  0  0  0  0  0  0  0  0
  -27.6191  -13.2365   19.7816 C   0  0  2  0  0  0  0  0  0  0  0  0
  -32.6218  -19.6379   18.8394 C   0  0  0  0  0  0  0  0  0  0  0  0
  -33.2585  -23.4980   20.6062 C   0  0  0  0  0  0  0  0  0  0  0  0
  -32.6820  -27.6504   17.0396 C   0  0  0  0  0  0  0  0  0  0  0  0
  -36.1727  -21.0784   22.9676 C   0  0  0  0  0  0  0  0  0  0  0  0
  -36.8446  -20.7309   20.5796 C   0  0  0  0  0  0  0  0  0  0  0  0
  -26.4465  -25.5857   16.1873 C   0  0  0  0  0  0  0  0  0  0  0  0
  -28.7716  -25.8166   15.2880 C   0  0  0  0  0  0  0  0  0  0  0  0
  -27.4504  -27.8531   15.8624 C   0  0  0  0  0  0  0  0  0  0  0  0
  -32.1683  -27.3266   20.7956 C   0  0  0  0  0  0  0  0  0  0  0  0
  -29.7199  -19.3109   23.9341 C   0  0  0  0  0  0  0  0  0  0  0  0
  -30.6386  -17.9054   21.5205 C   0  0  0  0  0  0  0  0  0  0  0  0
  -32.9927  -18.8872   20.1156 C   0  0  0  0  0  0  0  0  0  0  0  0
  -34.4677  -22.7962   21.2161 C   0  0  0  0  0  0  0  0  0  0  0  0
  -30.9549  -16.6297   22.3074 C   0  0  0  0  0  0  0  0  0  0  0  0
  -28.6608  -20.4014   24.0524 C   0  0  0  0  0  0  0  0  0  1  0  0
  -34.3480  -21.2403   21.1627 C   0  0  1  0  0  0  0  0  0  0  0  0
  -28.3574  -26.3990   17.7212 C   0  0  1  0  0  0  0  0  0  0  0  0
  -31.8845  -27.6452   18.3345 C   0  0  2  0  0  0  0  0  0  0  0  0
  -35.7087  -20.5775   21.5945 C   0  0  0  0  0  0  0  0  0  0  0  0
  -27.7517  -26.3999   16.2892 C   0  0  0  0  0  0  0  0  0  0  0  0
  -32.7395  -21.3615   22.9524 N   0  0  0  0  0  0  0  0  0  0  0  0
  -25.8384  -11.5966   20.2532 N   0  0  0  0  0  0  0  0  0  0  0  0
  -26.2297  -12.8820   20.2785 N   0  0  0  0  0  0  0  0  0  0  0  0
  -27.0394  -26.0608   19.7881 N   0  0  0  0  0  0  0  0  0  0  0  0
  -29.9840  -13.5901   20.3900 N   0  0  0  0  0  0  0  0  0  0  0  0
  -25.5149  -15.0628   20.8645 N   0  0  0  0  0  0  0  0  0  0  0  0
  -21.9554  -12.4851   21.9043 N   0  0  0  0  0  0  0  0  0  0  0  0
  -23.5677  -26.1621   20.8987 N   0  0  0  0  0  0  0  0  0  0  0  0
  -29.5796  -27.1846   17.8535 N   0  0  0  0  0  0  0  0  0  0  0  0
  -30.2498  -15.4790   21.7882 N   0  0  0  0  0  0  0  0  0  0  0  0
  -32.8150  -27.3411   19.4582 N   0  3  0  0  0  0  0  0  0  0  0  0
  -22.7515  -14.6354   21.8733 O   0  0  0  0  0  0  0  0  0  0  0  0
  -24.7436  -25.1112   19.1854 O   0  0  0  0  0  0  0  0  0  0  0  0
  -26.9816  -28.0941   18.6486 O   0  0  0  0  0  0  0  0  0  0  0  0
  -30.9196  -25.4463   18.6017 O   0  0  0  0  0  0  0  0  0  0  0  0
  -31.9023  -14.8908   20.3117 O   0  0  0  0  0  0  0  0  0  0  0  0
  -21.5943   -6.9612   21.2782 O   0  0  0  0  0  0  0  0  0  0  0  0
  -28.2101  -20.7790   22.7522 O   0  0  0  0  0  0  0  0  0  1  0  0
  -18.8454   -6.2076   25.9983 F   0  0  0  0  0  0  0  0  0  0  0  0
  -22.1106   -4.7726   22.8862 F   0  0  0  0  0  0  0  0  0  0  0  0
  1  2  1  0  0  0  0
  1  5  2  0  0  0  0
  2  6  2  0  0  0  0
  3  8  2  0  0  0  0
  3 16  1  0  0  0  0
  4  9  1  0  0  0  0
  4 16  2  0  0  0  0
  5 18  1  0  0  0  0
  6 20  1  0  0  0  0
  7 10  2  0  0  0  0
  7 19  1  0  0  0  0
  8 25  1  0  0  0  0
  9 25  2  0  0  0  0
 10 26  1  0  0  0  0
 11 12  2  0  0  0  0
 11 27  1  0  0  0  0
 12 28  1  0  0  0  0
 13 21  1  0  0  0  0
 13 26  2  0  0  0  0
 14 28  2  0  0  0  0
 14 29  1  0  0  0  0
 15 22  2  0  0  0  0
 15 70  1  0  0  0  0
 16 30  1  0  0  0  0
 17 30  1  0  0  0  0
 17 32  2  0  0  0  0
 17 33  1  0  0  0  0
 18 20  2  0  0  0  0
 18 38  1  0  0  0  0
 19 21  2  0  0  0  0
 19 39  1  0  0  0  0
 20 47  1  0  0  0  0
 21 40  1  0  0  0  0
 22 23  1  0  0  0  0
 22 59  1  0  0  0  0
 23 24  2  0  0  0  0
 23 60  1  0  0  0  0
 24 31  1  0  0  0  0
 24 61  1  0  0  0  0
 25 86  1  0  0  0  0
 26 87  1  0  0  0  0
 27 29  2  0  0  0  0
 27 86  1  0  0  0  0
 28 88  1  0  0  0  0
 29 89  1  0  0  0  0
 30 71  2  0  0  0  0
 31 65  1  0  0  0  0
 31 70  2  0  0  0  0
 32 72  1  0  0  0  0
 32 75  1  0  0  0  0
 33 76  1  0  0  0  0
 33 81  2  0  0  0  0
 34 48  1  0  0  0  0
 34 77  1  0  0  0  0
 34 82  2  0  0  0  0
 35 66  1  0  0  0  0
 35 73  1  0  0  0  0
 35 83  2  0  0  0  0
 36 67  1  0  0  0  0
 36 78  1  0  0  0  0
 36 84  2  0  0  0  0
 37 74  1  0  0  0  0
 37 79  1  0  0  0  0
 37 85  2  0  0  0  0
 38 41  1  0  0  0  0
 39 48  1  0  0  0  0
 40 73  1  0  0  0  0
 41 43  1  0  0  0  0
 42 44  1  0  0  0  0
 42 45  1  0  0  0  0
 43 47  1  0  0  0  0
 44 49  1  0  0  0  0
 45 74  1  0  0  0  0
 46 49  1  0  0  0  0
 46 74  1  0  0  0  0
 47 77  1  0  0  0  0
 48 73  1  0  0  0  0
 49 72  1  0  0  0  0
 50 61  1  0  0  0  0
 51 62  1  0  0  0  0
 52 67  1  0  0  0  0
 53 68  1  0  0  0  0
 54 68  1  0  0  0  0
 55 69  1  0  0  0  0
 56 69  1  0  0  0  0
 57 69  1  0  0  0  0
 58 80  1  0  0  0  0
 59 64  1  0  0  0  0
 60 63  1  0  0  0  0
 62 65  1  0  0  0  0
 63 79  1  0  0  0  0
 64 87  1  0  0  0  0
 65 68  1  0  0  0  0
 66 69  1  0  0  0  0
 66 78  1  0  0  0  0
 67 80  1  0  0  0  0
 71 72  1  0  0  0  0
M  CHG  1  80   1
M  ISO  4  37 100  64 101  79 100  87 101
M  END
> <Batch ID>
0092

> <Smiles>
CCc1c(C(CC)C(C)C)ncc(C[101CH2:1][101O:1]c2ccc3c(c2)CN(C(=O)C(NC(=O)C(C)NC)C(C)(C)C)C(C(=O)NC2CCCc4ccccc42)C3)c1CC[100NH:0][100C:0](=O)N1CCCC(n2nc(-c3ccc(Oc4ccc(F)cc4F)cc3)c(C(N)=O)c2N)C1

> <Shape>
0.250

> <Color>
0.179

> <Negative vol penalty>
0.000

$$$$

  -OEChem-04052319143D

 83 91  0     1  0  0  0  0  0999 V2000
  -24.1972   -8.2457   21.8392 C   0  0  0  0  0  0  0  0  0  0  0  0
  -24.7671   -9.3478   21.2099 C   0  0  0  0  0  0  0  0  0  0  0  0
  -24.7301  -30.1756   22.6877 C   0  0  0  0  0  0  0  0  0  0  0  0
  -23.3704  -31.4229   21.1280 C   0  0  0  0  0  0  0  0  0  0  0  0
  -22.8418   -8.2546   22.1659 C   0  0  0  0  0  0  0  0  0  0  0  0
  -23.9816  -10.4591   20.9059 C   0  0  0  0  0  0  0  0  0  0  0  0
  -26.2502  -14.8267   22.0988 C   0  0  0  0  0  0  0  0  0  0  0  0
  -24.7310  -31.2653   23.5584 C   0  0  0  0  0  0  0  0  0  0  0  0
  -23.3713  -32.5127   21.9987 C   0  0  0  0  0  0  0  0  0  0  0  0
  -27.2335  -15.2923   21.2270 C   0  0  0  0  0  0  0  0  0  0  0  0
  -25.4774  -35.0146   22.8563 C   0  0  0  0  0  0  0  0  0  0  0  0
  -25.7099  -36.2781   22.3130 C   0  0  0  0  0  0  0  0  0  0  0  0
  -25.6378  -16.8151   20.2502 C   0  0  0  0  0  0  0  0  0  0  0  0
  -23.5500  -37.0162   23.1050 C   0  0  0  0  0  0  0  0  0  0  0  0
  -24.0498  -30.2544   21.4724 C   0  0  0  0  0  0  0  0  0  0  0  0
  -23.1211  -28.0713   20.5349 C   0  0  0  0  0  0  0  0  0  0  0  0
  -22.0414   -9.3705   21.8745 C   0  0  0  0  0  0  0  0  0  0  0  0
  -24.9482  -15.3449   22.0454 C   0  0  0  0  0  0  0  0  0  0  0  0
  -22.6139  -10.4824   21.2278 C   0  0  0  0  0  0  0  0  0  0  0  0
  -24.6405  -16.3562   21.1241 C   0  0  0  0  0  0  0  0  0  0  0  0
  -24.0516  -32.4338   23.2139 C   0  0  0  0  0  0  0  0  0  0  0  0
  -26.9266  -16.2846   20.3005 C   0  0  0  0  0  0  0  0  0  0  0  0
  -24.2811  -34.7519   23.5239 C   0  0  0  0  0  0  0  0  0  0  0  0
  -24.7463  -37.2789   22.4373 C   0  0  0  0  0  0  0  0  0  0  0  0
  -23.3175  -35.7527   23.6483 C   0  0  0  0  0  0  0  0  0  0  0  0
  -24.0490  -29.1293   20.5723 C   0  0  0  0  0  0  0  0  0  0  0  0
  -23.5578  -27.2677   19.5102 C   0  0  0  0  0  0  0  0  0  0  0  0
  -21.9674  -27.8360   21.3531 C   0  0  0  0  0  0  0  0  0  0  0  0
  -29.9756  -24.2306   18.9484 C   0  0  0  0  0  0  0  0  0  0  0  0
  -22.0744  -14.1320   21.4345 C   0  0  0  0  0  0  0  0  0  0  0  0
  -21.0716  -17.0981   22.2823 C   0  0  0  0  0  0  0  0  0  0  0  0
  -21.7961  -20.4165   22.6145 C   0  0  0  0  0  0  0  0  0  0  0  0
  -28.8762  -26.3885   16.9998 C   0  0  0  0  0  0  0  0  0  0  0  0
  -20.5707   -9.3149   22.2042 C   0  0  0  0  0  0  0  0  0  0  0  0
  -23.9059  -14.8509   23.0107 C   0  0  0  0  0  0  0  0  0  0  0  0
  -23.2632  -16.9599   21.0400 C   0  0  0  0  0  0  0  0  0  0  0  0
  -19.8903  -10.6812   22.1856 C   0  0  0  0  0  0  0  0  0  0  0  0
  -31.5690  -27.4740   19.1388 C   0  0  0  0  0  0  0  0  0  0  0  0
  -25.9386  -27.4115   15.3776 C   0  0  0  0  0  0  0  0  0  0  0  0
  -20.2887  -11.4590   20.9354 C   0  0  0  0  0  0  0  0  0  0  0  0
  -31.7357  -25.9693   19.3100 C   0  0  0  0  0  0  0  0  0  0  0  0
  -25.0328  -27.8884   16.5107 C   0  0  0  0  0  0  0  0  0  0  0  0
  -27.3855  -27.8126   15.6345 C   0  0  0  0  0  0  0  0  0  0  0  0
  -30.0810  -27.6283   18.8714 C   0  0  0  0  0  0  0  0  0  0  0  0
  -27.0304  -27.7591   18.0851 C   0  0  0  0  0  0  0  0  0  0  0  0
  -21.8001  -11.7165   20.9041 C   0  0  1  0  0  0  0  0  0  0  0  0
  -30.7176  -25.3779   18.3391 C   0  0  2  0  0  0  0  0  0  0  0  0
  -22.4799  -15.0859   22.5222 C   0  0  1  0  0  0  0  0  0  0  0  0
  -25.5487  -27.3882   17.8699 C   0  0  1  0  0  0  0  0  0  0  0  0
  -20.7630  -22.5998   23.2951 C   0  0  0  0  0  0  0  0  0  0  0  0
  -19.5745  -17.2149   19.6262 C   0  0  0  0  0  0  0  0  0  0  0  0
  -19.3719  -19.6919   19.9291 C   0  0  0  0  0  0  0  0  0  0  0  0
  -18.3143  -18.1451   21.5759 C   0  0  0  0  0  0  0  0  0  0  0  0
  -23.7373  -20.7808   24.8186 C   0  0  0  0  0  0  0  0  0  0  0  0
  -30.5189  -22.8449   18.6419 C   0  0  0  0  0  0  0  0  0  0  0  0
  -29.7160  -21.7121   19.2796 C   0  0  0  0  0  0  0  0  0  0  0  0
  -30.2873  -20.3308   18.9450 C   0  0  0  0  0  0  0  0  0  0  0  0
  -29.4474  -19.2165   19.5735 C   0  0  0  0  0  0  0  0  0  0  0  0
  -30.0347  -17.8362   19.2639 C   0  0  0  0  0  0  0  0  0  0  0  0
  -29.2330  -16.7114   19.9073 C   0  0  0  0  0  0  0  0  0  1  0  0
  -20.8300  -18.3952   21.5488 C   0  0  1  0  0  0  0  0  0  0  0  0
  -21.5606  -21.3896   23.7556 C   0  0  2  0  0  0  0  0  0  0  0  0
  -19.5482  -18.3492   20.6700 C   0  0  0  0  0  0  0  0  0  0  0  0
  -25.0033  -29.0113   19.6453 N   0  0  0  0  0  0  0  0  0  0  0  0
  -24.6773  -27.8696   19.0157 N   0  0  0  0  0  0  0  0  0  0  0  0
  -22.2768  -16.4392   22.0009 N   0  0  0  0  0  0  0  0  0  0  0  0
  -27.8502  -27.3405   16.9397 N   0  0  0  0  0  0  0  0  0  0  0  0
  -29.7337  -26.4332   18.1028 N   0  0  0  0  0  0  0  0  0  0  0  0
  -23.0896  -26.1120   18.9930 N   0  0  0  0  0  0  0  0  0  0  0  0
  -21.6626  -28.7618   22.3603 N   0  0  0  0  0  0  0  0  0  0  0  0
  -22.1467  -12.8007   21.7979 N   0  0  0  0  0  0  0  0  0  0  0  0
  -20.8211  -19.4428   22.5642 N   0  0  0  0  0  0  0  0  0  0  0  0
  -22.8607  -21.8656   24.3071 N   0  3  0  0  0  0  0  0  0  0  0  0
  -21.2382  -26.8260   21.2064 O   0  0  0  0  0  0  0  0  0  0  0  0
  -29.0034  -24.4217   19.6771 O   0  0  0  0  0  0  0  0  0  0  0  0
  -21.7206  -14.5712   20.3465 O   0  0  0  0  0  0  0  0  0  0  0  0
  -20.2256  -16.6884   23.0810 O   0  0  0  0  0  0  0  0  0  0  0  0
  -22.7476  -20.5128   21.8426 O   0  0  0  0  0  0  0  0  0  0  0  0
  -29.0327  -25.5520   16.1007 O   0  0  0  0  0  0  0  0  0  0  0  0
  -24.0521  -33.4973   24.0634 O   0  0  0  0  0  0  0  0  0  0  0  0
  -27.8916  -16.7438   19.4415 O   0  0  0  0  0  0  0  0  0  1  0  0
  -24.9704  -38.4926   21.9169 F   0  0  0  0  0  0  0  0  0  0  0  0
  -22.1669  -35.5066   24.2896 F   0  0  0  0  0  0  0  0  0  0  0  0
  1  2  1  0  0  0  0
  1  5  2  0  0  0  0
  2  6  2  0  0  0  0
  3  8  2  0  0  0  0
  3 15  1  0  0  0  0
  4  9  1  0  0  0  0
  4 15  2  0  0  0  0
  5 17  1  0  0  0  0
  6 19  1  0  0  0  0
  7 10  2  0  0  0  0
  7 18  1  0  0  0  0
  8 21  1  0  0  0  0
  9 21  2  0  0  0  0
 10 22  1  0  0  0  0
 11 12  2  0  0  0  0
 11 23  1  0  0  0  0
 12 24  1  0  0  0  0
 13 20  1  0  0  0  0
 13 22  2  0  0  0  0
 14 24  2  0  0  0  0
 14 25  1  0  0  0  0
 15 26  1  0  0  0  0
 16 26  1  0  0  0  0
 16 27  2  0  0  0  0
 16 28  1  0  0  0  0
 17 19  2  0  0  0  0
 17 34  1  0  0  0  0
 18 20  2  0  0  0  0
 18 35  1  0  0  0  0
 19 46  1  0  0  0  0
 20 36  1  0  0  0  0
 21 80  1  0  0  0  0
 22 81  1  0  0  0  0
 23 25  2  0  0  0  0
 23 80  1  0  0  0  0
 24 82  1  0  0  0  0
 25 83  1  0  0  0  0
 26 64  2  0  0  0  0
 27 65  1  0  0  0  0
 27 69  1  0  0  0  0
 28 70  1  0  0  0  0
 28 74  2  0  0  0  0
 29 47  1  0  0  0  0
 29 55  1  0  0  0  0
 29 75  2  0  0  0  0
 30 48  1  0  0  0  0
 30 71  1  0  0  0  0
 30 76  2  0  0  0  0
 31 61  1  0  0  0  0
 31 66  1  0  0  0  0
 31 77  2  0  0  0  0
 32 62  1  0  0  0  0
 32 72  1  0  0  0  0
 32 78  2  0  0  0  0
 33 67  1  0  0  0  0
 33 68  1  0  0  0  0
 33 79  2  0  0  0  0
 34 37  1  0  0  0  0
 35 48  1  0  0  0  0
 36 66  1  0  0  0  0
 37 40  1  0  0  0  0
 38 41  1  0  0  0  0
 38 44  1  0  0  0  0
 39 42  1  0  0  0  0
 39 43  1  0  0  0  0
 40 46  1  0  0  0  0
 41 47  1  0  0  0  0
 42 49  1  0  0  0  0
 43 67  1  0  0  0  0
 44 68  1  0  0  0  0
 45 49  1  0  0  0  0
 45 67  1  0  0  0  0
 46 71  1  0  0  0  0
 47 68  1  0  0  0  0
 48 66  1  0  0  0  0
 49 65  1  0  0  0  0
 50 62  1  0  0  0  0
 51 63  1  0  0  0  0
 52 63  1  0  0  0  0
 53 63  1  0  0  0  0
 54 73  1  0  0  0  0
 55 56  1  0  0  0  0
 56 57  1  0  0  0  0
 57 58  1  0  0  0  0
 58 59  1  0  0  0  0
 59 60  1  0  0  0  0
 60 81  1  0  0  0  0
 61 63  1  0  0  0  0
 61 72  1  0  0  0  0
 62 73  1  0  0  0  0
 64 65  1  0  0  0  0
M  CHG  1  73   1
M  ISO  4  33 100  60 101  68 100  81 101
M  END
> <Batch ID>
0092

> <Smiles>
CNC(C)C(=O)NC(C(=O)N1Cc2cc([101O:1][101CH2:1]CCCCCC(=O)C3CCC[100N:0]3[100C:0](=O)N3CCCC(n4nc(-c5ccc(Oc6ccc(F)cc6F)cc5)c(C(N)=O)c4N)C3)ccc2CC1C(=O)NC1CCCc2ccccc21)C(C)(C)C

> <Shape>
0.237

> <Color>
0.063

> <Negative vol penalty>
0.000

$$$$

  -OEChem-04052319143D

 87 95  0     1  0  0  0  0  0999 V2000
  -23.0851  -24.5042   15.7350 C   0  0  0  0  0  0  0  0  0  0  0  0
  -23.5369  -23.2287   16.0583 C   0  0  0  0  0  0  0  0  0  0  0  0
  -27.8067  -26.2380   18.6660 C   0  0  0  0  0  0  0  0  0  0  0  0
  -29.3468  -26.0149   20.5140 C   0  0  0  0  0  0  0  0  0  0  0  0
  -22.8567  -25.4383   16.7445 C   0  0  0  0  0  0  0  0  0  0  0  0
  -23.7617  -22.8870   17.3914 C   0  0  0  0  0  0  0  0  0  0  0  0
  -21.9001  -18.3270   18.5684 C   0  0  0  0  0  0  0  0  0  0  0  0
  -27.4199  -27.4916   19.1397 C   0  0  0  0  0  0  0  0  0  0  0  0
  -28.9600  -27.2685   20.9878 C   0  0  0  0  0  0  0  0  0  0  0  0
  -22.6384  -17.2147   18.1663 C   0  0  0  0  0  0  0  0  0  0  0  0
  -25.4028  -28.7278   21.5537 C   0  0  0  0  0  0  0  0  0  0  0  0
  -24.0383  -29.0154   21.5844 C   0  0  0  0  0  0  0  0  0  0  0  0
  -23.5381  -17.0136   20.3955 C   0  0  0  0  0  0  0  0  0  0  0  0
  -24.3982  -30.8822   20.0936 C   0  0  0  0  0  0  0  0  0  0  0  0
  -28.8968  -13.4832   18.5794 C   0  0  0  0  0  0  0  0  0  0  0  0
  -28.7702  -25.4996   19.3531 C   0  0  0  0  0  0  0  0  0  0  0  0
  -30.2122  -23.9208   17.9619 C   0  0  0  0  0  0  0  0  0  0  0  0
  -23.0695  -25.1048   18.0914 C   0  0  0  0  0  0  0  0  0  0  0  0
  -21.9838  -18.7983   19.8865 C   0  0  0  0  0  0  0  0  0  0  0  0
  -23.5372  -23.8180   18.4198 C   0  0  0  0  0  0  0  0  0  0  0  0
  -22.7979  -18.1305   20.8125 C   0  0  0  0  0  0  0  0  0  0  0  0
  -27.9965  -28.0069   20.3006 C   0  0  0  0  0  0  0  0  0  0  0  0
  -23.4598  -16.5596   19.0792 C   0  0  0  0  0  0  0  0  0  0  0  0
  -26.2651  -29.5175   20.7931 C   0  0  0  0  0  0  0  0  0  0  0  0
  -23.5360  -30.0926   20.8543 C   0  0  0  0  0  0  0  0  0  0  0  0
  -25.7628  -30.5946   20.0630 C   0  0  0  0  0  0  0  0  0  0  0  0
  -29.1698  -24.2044   18.8646 C   0  0  0  0  0  0  0  0  0  0  0  0
  -29.4217  -13.8947   19.7719 C   0  0  0  0  0  0  0  0  0  0  0  0
  -30.1833  -22.5547   17.8222 C   0  0  0  0  0  0  0  0  0  0  0  0
  -28.3966  -11.9615   20.1074 C   0  0  0  0  0  0  0  0  0  0  0  0
  -31.1251  -24.8125   17.3083 C   0  0  0  0  0  0  0  0  0  0  0  0
  -22.9371  -21.5104   21.2426 C   0  0  0  0  0  0  0  0  0  0  0  0
  -21.8161  -20.1005   23.9403 C   0  0  0  0  0  0  0  0  0  0  0  0
  -21.0413  -17.2185   25.5958 C   0  0  0  0  0  0  0  0  0  0  0  0
  -29.9184  -17.5524   20.0252 C   0  0  0  0  0  0  0  0  0  0  0  0
  -22.8540  -26.1631   19.1441 C   0  0  0  0  0  0  0  0  0  0  0  0
  -21.1605  -19.9832   20.3113 C   0  0  0  0  0  0  0  0  0  0  0  0
  -22.9073  -18.5844   22.2444 C   0  0  0  0  0  0  0  0  0  0  0  0
  -22.7584  -25.6025   20.5608 C   0  0  0  0  0  0  0  0  0  0  0  0
  -26.7507  -19.1602   19.3340 C   0  0  0  0  0  0  0  0  0  0  0  0
  -23.8758  -24.5953   20.8129 C   0  0  0  0  0  0  0  0  0  0  0  0
  -27.1916  -20.6019   19.0744 C   0  0  0  0  0  0  0  0  0  0  0  0
  -27.5778  -18.5208   20.4454 C   0  0  0  0  0  0  0  0  0  0  0  0
  -29.4924  -19.9929   19.9547 C   0  0  0  0  0  0  0  0  0  0  0  0
  -23.7689  -23.4017   19.8562 C   0  0  1  0  0  0  0  0  0  0  0  0
  -21.7177  -20.6864   21.5452 C   0  0  1  0  0  0  0  0  0  0  0  0
  -28.7092  -20.6876   18.8260 C   0  0  2  0  0  0  0  0  0  0  0  0
  -20.1811  -16.3835   27.8004 C   0  0  0  0  0  0  0  0  0  0  0  0
  -24.7540  -10.2277   23.1034 C   0  0  0  0  0  0  0  0  0  0  0  0
  -25.6284   -8.7115   21.3155 C   0  0  0  0  0  0  0  0  0  0  0  0
  -24.5390  -20.6433   25.2056 C   0  0  0  0  0  0  0  0  0  0  0  0
  -23.9591  -18.9911   26.9950 C   0  0  0  0  0  0  0  0  0  0  0  0
  -22.5871  -21.0553   26.7138 C   0  0  0  0  0  0  0  0  0  0  0  0
  -18.6773  -15.9657   24.3304 C   0  0  0  0  0  0  0  0  0  0  0  0
  -30.1921  -15.0884   20.1300 C   0  0  0  0  0  0  0  0  0  0  0  0
  -27.8666  -10.7496   20.7806 C   0  0  0  0  0  0  0  0  0  0  0  0
  -26.6041  -11.0496   21.6152 C   0  0  0  0  0  0  0  0  0  0  0  0
  -25.6041  -13.0760   17.7454 C   0  0  0  0  0  0  0  0  0  0  0  0
  -26.0295  -11.6136   17.8919 C   0  0  0  0  0  0  0  0  0  0  0  0
  -24.0813  -13.2213   17.8190 C   0  0  0  0  0  0  0  0  0  0  0  0
  -27.5481  -11.4633   17.7776 C   0  0  0  0  0  0  0  0  0  0  0  0
  -23.6312  -14.6671   17.6491 C   0  0  0  0  0  0  0  0  0  1  0  0
  -22.4055  -19.2036   25.0020 C   0  0  1  0  0  0  0  0  0  0  0  0
  -19.8122  -16.8115   26.3884 C   0  0  2  0  0  0  0  0  0  0  0  0
  -25.9951   -9.8161   22.3075 C   0  0  0  0  0  0  0  0  0  0  0  0
  -23.3723  -19.9657   25.9517 C   0  0  0  0  0  0  0  0  0  0  0  0
  -28.5256  -23.1067   19.2696 N   0  0  0  0  0  0  0  0  0  0  0  0
  -28.2686  -12.2843   18.8163 N   0  0  0  0  0  0  0  0  0  0  0  0
  -29.1648  -22.1201   18.6183 N   0  0  0  0  0  0  0  0  0  0  0  0
  -29.0969  -12.9344   20.6994 N   0  3  0  0  0  0  0  0  0  0  0  0
  -22.0875  -19.7515   22.6098 N   0  0  0  0  0  0  0  0  0  0  0  0
  -29.0118  -18.6195   20.1388 N   0  0  0  0  0  0  0  0  0  0  0  0
  -30.9299  -21.6950   17.0971 N   0  0  0  0  0  0  0  0  0  0  0  0
  -31.0159  -26.1861   17.5641 N   0  0  0  0  0  0  0  0  0  0  0  0
  -22.7303  -22.4941   20.2944 N   0  0  0  0  0  0  0  0  0  0  0  0
  -21.2761  -18.5747   25.6782 N   0  0  0  0  0  0  0  0  0  0  0  0
  -29.3845  -16.2845   20.2206 N   0  0  0  0  0  0  0  0  0  0  0  0
  -19.1172  -15.6755   25.7194 N   0  3  0  0  0  0  0  0  0  0  0  0
  -32.0007  -24.4048   16.5079 O   0  0  0  0  0  0  0  0  0  0  0  0
  -23.9875  -21.2724   21.8272 O   0  0  0  0  0  0  0  0  0  0  0  0
  -21.1338  -21.0708   24.2789 O   0  0  0  0  0  0  0  0  0  0  0  0
  -21.7267  -16.4133   24.9694 O   0  0  0  0  0  0  0  0  0  0  0  0
  -31.1149  -17.7170   19.7636 O   0  0  0  0  0  0  0  0  0  0  0  0
  -27.6194  -29.2302   20.7630 O   0  0  0  0  0  0  0  0  0  0  0  0
  -24.1819  -15.4741   18.6892 O   0  0  0  0  0  0  0  0  0  1  0  0
  -22.2253  -30.3677   20.8826 F   0  0  0  0  0  0  0  0  0  0  0  0
  -26.5861  -31.3561   19.3294 F   0  0  0  0  0  0  0  0  0  0  0  0
  1  2  1  0  0  0  0
  1  5  2  0  0  0  0
  2  6  2  0  0  0  0
  3  8  2  0  0  0  0
  3 16  1  0  0  0  0
  4  9  1  0  0  0  0
  4 16  2  0  0  0  0
  5 18  1  0  0  0  0
  6 20  1  0  0  0  0
  7 10  2  0  0  0  0
  7 19  1  0  0  0  0
  8 22  1  0  0  0  0
  9 22  2  0  0  0  0
 10 23  1  0  0  0  0
 11 12  2  0  0  0  0
 11 24  1  0  0  0  0
 12 25  1  0  0  0  0
 13 21  1  0  0  0  0
 13 23  2  0  0  0  0
 14 25  2  0  0  0  0
 14 26  1  0  0  0  0
 15 28  2  0  0  0  0
 15 68  1  0  0  0  0
 16 27  1  0  0  0  0
 17 27  1  0  0  0  0
 17 29  2  0  0  0  0
 17 31  1  0  0  0  0
 18 20  2  0  0  0  0
 18 36  1  0  0  0  0
 19 21  2  0  0  0  0
 19 37  1  0  0  0  0
 20 45  1  0  0  0  0
 21 38  1  0  0  0  0
 22 84  1  0  0  0  0
 23 85  1  0  0  0  0
 24 26  2  0  0  0  0
 24 84  1  0  0  0  0
 25 86  1  0  0  0  0
 26 87  1  0  0  0  0
 27 67  2  0  0  0  0
 28 55  1  0  0  0  0
 28 70  1  0  0  0  0
 29 69  1  0  0  0  0
 29 73  1  0  0  0  0
 30 56  1  0  0  0  0
 30 68  1  0  0  0  0
 30 70  2  0  0  0  0
 31 74  1  0  0  0  0
 31 79  2  0  0  0  0
 32 46  1  0  0  0  0
 32 75  1  0  0  0  0
 32 80  2  0  0  0  0
 33 63  1  0  0  0  0
 33 71  1  0  0  0  0
 33 81  2  0  0  0  0
 34 64  1  0  0  0  0
 34 76  1  0  0  0  0
 34 82  2  0  0  0  0
 35 72  1  0  0  0  0
 35 77  1  0  0  0  0
 35 83  2  0  0  0  0
 36 39  1  0  0  0  0
 37 46  1  0  0  0  0
 38 71  1  0  0  0  0
 39 41  1  0  0  0  0
 40 42  1  0  0  0  0
 40 43  1  0  0  0  0
 41 45  1  0  0  0  0
 42 47  1  0  0  0  0
 43 72  1  0  0  0  0
 44 47  1  0  0  0  0
 44 72  1  0  0  0  0
 45 75  1  0  0  0  0
 46 71  1  0  0  0  0
 47 69  1  0  0  0  0
 48 64  1  0  0  0  0
 49 65  1  0  0  0  0
 50 65  1  0  0  0  0
 51 66  1  0  0  0  0
 52 66  1  0  0  0  0
 53 66  1  0  0  0  0
 54 78  1  0  0  0  0
 55 77  1  0  0  0  0
 56 57  1  0  0  0  0
 57 65  1  0  0  0  0
 58 59  1  0  0  0  0
 58 60  1  0  0  0  0
 59 61  1  0  0  0  0
 60 62  1  0  0  0  0
 61 68  1  0  0  0  0
 62 85  1  0  0  0  0
 63 66  1  0  0  0  0
 63 76  1  0  0  0  0
 64 78  1  0  0  0  0
 67 69  1  0  0  0  0
M  CHG  2  70   1  78   1
M  ISO  4  35 100  62 101  77 100  85 101
M  END
> <Batch ID>
0092

> <Smiles>
CNC(C)C(=O)NC(C(=O)N1Cc2cc([101O:1][101CH2:1]CCCCn3cc(C[100NH:0][100C:0](=O)N4CCCC(n5nc(-c6ccc(Oc7ccc(F)cc7F)cc6)c(C(N)=O)c5N)C4)nc3CCC(C)C)ccc2CC1C(=O)NC1CCCc2ccccc21)C(C)(C)C

> <Shape>
0.195

> <Color>
0.056

> <Negative vol penalty>
0.000

$$$$

  -OEChem-04052319143D

 85 93  0     1  0  0  0  0  0999 V2000
  -29.9870  -24.1333   14.5657 C   0  0  0  0  0  0  0  0  0  0  0  0
  -28.7865  -24.4401   15.1963 C   0  0  0  0  0  0  0  0  0  0  0  0
  -25.1646  -10.1063   23.0190 C   0  0  0  0  0  0  0  0  0  0  0  0
  -24.0668  -12.1283   23.7562 C   0  0  0  0  0  0  0  0  0  0  0  0
  -31.1931  -24.5247   15.1430 C   0  0  0  0  0  0  0  0  0  0  0  0
  -28.7912  -25.1487   16.3983 C   0  0  0  0  0  0  0  0  0  0  0  0
  -24.4282  -26.5733   18.1698 C   0  0  0  0  0  0  0  0  0  0  0  0
  -24.8403   -9.4896   24.2273 C   0  0  0  0  0  0  0  0  0  0  0  0
  -23.7424  -11.5116   24.9645 C   0  0  0  0  0  0  0  0  0  0  0  0
  -23.5116  -25.6804   18.7233 C   0  0  0  0  0  0  0  0  0  0  0  0
  -22.1293   -8.0399   25.6352 C   0  0  0  0  0  0  0  0  0  0  0  0
  -21.6224   -6.7414   25.5847 C   0  0  0  0  0  0  0  0  0  0  0  0
  -24.1273  -26.4275   20.9328 C   0  0  0  0  0  0  0  0  0  0  0  0
  -27.5992  -21.8021   21.0767 C   0  0  0  0  0  0  0  0  0  0  0  0
  -26.8217  -19.5562   21.4451 C   0  0  0  0  0  0  0  0  0  0  0  0
  -23.4781   -5.9649   26.9228 C   0  0  0  0  0  0  0  0  0  0  0  0
  -24.7779  -11.4256   22.7834 C   0  0  0  0  0  0  0  0  0  0  0  0
  -24.3462  -12.0776   20.3552 C   0  0  0  0  0  0  0  0  0  0  0  0
  -31.2122  -25.2275   16.3590 C   0  0  0  0  0  0  0  0  0  0  0  0
  -25.2104  -27.3935   18.9955 C   0  0  0  0  0  0  0  0  0  0  0  0
  -29.9972  -25.5734   16.9847 C   0  0  0  0  0  0  0  0  0  0  0  0
  -25.0513  -27.3317   20.3872 C   0  0  0  0  0  0  0  0  0  0  0  0
  -26.6323  -20.9287   21.5620 C   0  0  0  0  0  0  0  0  0  0  0  0
  -24.1291  -10.1922   25.2001 C   0  0  0  0  0  0  0  0  0  0  0  0
  -23.3631  -25.6054   20.1051 C   0  0  0  0  0  0  0  0  0  0  0  0
  -23.3107   -8.3009   26.3294 C   0  0  0  0  0  0  0  0  0  0  0  0
  -22.2968   -5.7039   26.2285 C   0  0  0  0  0  0  0  0  0  0  0  0
  -23.9851   -7.2635   26.9732 C   0  0  0  0  0  0  0  0  0  0  0  0
  -25.1132  -12.0634   21.5356 C   0  0  0  0  0  0  0  0  0  0  0  0
  -28.7286  -21.2569   20.4876 C   0  0  0  0  0  0  0  0  0  0  0  0
  -27.9858  -19.1115   20.8393 C   0  0  0  0  0  0  0  0  0  0  0  0
  -25.0962  -12.8095   19.4673 C   0  0  0  0  0  0  0  0  0  0  0  0
  -23.0700  -11.4825   20.0854 C   0  0  0  0  0  0  0  0  0  0  0  0
  -28.3273  -27.7230   19.5251 C   0  0  0  0  0  0  0  0  0  0  0  0
  -27.3578  -30.2297   21.3413 C   0  0  0  0  0  0  0  0  0  0  0  0
  -24.8696  -31.7036   23.1534 C   0  0  0  0  0  0  0  0  0  0  0  0
  -29.2544  -17.0451   20.1561 C   0  0  0  0  0  0  0  0  0  0  0  0
  -32.5456  -25.6334   16.9355 C   0  0  0  0  0  0  0  0  0  0  0  0
  -26.1756  -28.3704   18.3818 C   0  0  0  0  0  0  0  0  0  0  0  0
  -25.8525  -28.2051   21.3166 C   0  0  0  0  0  0  0  0  0  0  0  0
  -32.4704  -25.9846   18.4179 C   0  0  0  0  0  0  0  0  0  0  0  0
  -29.6346  -13.9461   18.4447 C   0  0  0  0  0  0  0  0  0  0  0  0
  -31.3266  -26.9570   18.6642 C   0  0  0  0  0  0  0  0  0  0  0  0
  -28.4450  -13.1150   18.9310 C   0  0  0  0  0  0  0  0  0  0  0  0
  -30.2023  -14.8279   19.5554 C   0  0  0  0  0  0  0  0  0  0  0  0
  -28.0302  -14.8538   20.7175 C   0  0  0  0  0  0  0  0  0  0  0  0
  -29.9790  -26.3166   18.3082 C   0  0  1  0  0  0  0  0  0  0  0  0
  -27.2879  -28.7916   19.3372 C   0  0  1  0  0  0  0  0  0  0  0  0
  -27.3835  -13.9977   19.6163 C   0  0  2  0  0  0  0  0  0  0  0  0
  -29.9813  -22.0118   18.4347 C   0  0  0  0  0  0  0  0  0  0  0  0
  -31.1355  -21.9818   20.6756 C   0  0  0  0  0  0  0  0  0  0  0  0
  -24.3871  -33.7301   24.5526 C   0  0  0  0  0  0  0  0  0  0  0  0
  -28.9505  -29.0162   23.6437 C   0  0  0  0  0  0  0  0  0  0  0  0
  -27.6901  -30.5083   25.2100 C   0  0  0  0  0  0  0  0  0  0  0  0
  -29.1402  -31.5016   23.4398 C   0  0  0  0  0  0  0  0  0  0  0  0
  -22.7221  -32.5985   21.3241 C   0  0  0  0  0  0  0  0  0  0  0  0
  -25.3831  -21.4677   22.2126 C   0  0  0  0  0  0  0  0  0  0  0  0
  -24.2284  -21.7069   21.2332 C   0  0  0  0  0  0  0  0  0  0  0  0
  -22.9455  -22.1809   21.9233 C   0  0  0  0  0  0  0  0  0  0  0  0
  -21.8328  -22.4356   20.9080 C   0  0  0  0  0  0  0  0  0  0  0  0
  -22.2114  -23.5325   19.9231 C   0  0  0  0  0  0  0  0  0  1  0  0
  -29.7869  -22.1643   19.9548 C   0  0  0  0  0  0  0  0  0  0  0  0
  -26.9551  -30.4115   22.7848 C   0  0  1  0  0  0  0  0  0  0  0  0
  -24.3333  -33.1237   23.1589 C   0  0  2  0  0  0  0  0  0  0  0  0
  -28.1701  -30.3414   23.7524 C   0  0  0  0  0  0  0  0  0  0  0  0
  -26.2623  -12.7329   21.4120 N   0  0  0  0  0  0  0  0  0  0  0  0
  -28.9476  -19.9294   20.3559 N   0  0  0  0  0  0  0  0  0  0  0  0
  -26.2230  -13.1746   20.1434 N   0  0  0  0  0  0  0  0  0  0  0  0
  -26.7877  -29.1396   20.6687 N   0  0  0  0  0  0  0  0  0  0  0  0
  -29.1405  -15.6387   20.1554 N   0  0  0  0  0  0  0  0  0  0  0  0
  -24.8951  -13.1698   18.1819 N   0  0  0  0  0  0  0  0  0  0  0  0
  -22.4376  -10.7648   21.1098 N   0  0  0  0  0  0  0  0  0  0  0  0
  -28.1691  -17.7112   20.7245 N   0  0  0  0  0  0  0  0  0  0  0  0
  -28.9479  -27.3297   18.3547 N   0  0  0  0  0  0  0  0  0  0  0  0
  -26.2134  -31.6663   22.8468 N   0  0  0  0  0  0  0  0  0  0  0  0
  -22.9184  -33.1450   22.6915 N   0  3  0  0  0  0  0  0  0  0  0  0
  -22.5147  -11.5704   18.9641 O   0  0  0  0  0  0  0  0  0  0  0  0
  -28.5508  -27.2884   20.6489 O   0  0  0  0  0  0  0  0  0  0  0  0
  -28.1435  -31.0297   20.8274 O   0  0  0  0  0  0  0  0  0  0  0  0
  -24.1675  -30.7255   23.4002 O   0  0  0  0  0  0  0  0  0  0  0  0
  -30.2294  -17.6174   19.6624 O   0  0  0  0  0  0  0  0  0  0  0  0
  -23.8123   -9.5907   26.3792 O   0  0  0  0  0  0  0  0  0  0  0  0
  -22.4695  -24.7343   20.6480 O   0  0  0  0  0  0  0  0  0  1  0  0
  -21.8091   -4.4573   26.1813 F   0  0  0  0  0  0  0  0  0  0  0  0
  -25.1198   -7.5083   27.6427 F   0  0  0  0  0  0  0  0  0  0  0  0
  1  2  1  0  0  0  0
  1  5  2  0  0  0  0
  2  6  2  0  0  0  0
  3  8  2  0  0  0  0
  3 17  1  0  0  0  0
  4  9  1  0  0  0  0
  4 17  2  0  0  0  0
  5 19  1  0  0  0  0
  6 21  1  0  0  0  0
  7 10  2  0  0  0  0
  7 20  1  0  0  0  0
  8 24  1  0  0  0  0
  9 24  2  0  0  0  0
 10 25  1  0  0  0  0
 11 12  2  0  0  0  0
 11 26  1  0  0  0  0
 12 27  1  0  0  0  0
 13 22  1  0  0  0  0
 13 25  2  0  0  0  0
 14 23  2  0  0  0  0
 14 30  1  0  0  0  0
 15 23  1  0  0  0  0
 15 31  2  0  0  0  0
 16 27  2  0  0  0  0
 16 28  1  0  0  0  0
 17 29  1  0  0  0  0
 18 29  1  0  0  0  0
 18 32  2  0  0  0  0
 18 33  1  0  0  0  0
 19 21  2  0  0  0  0
 19 38  1  0  0  0  0
 20 22  2  0  0  0  0
 20 39  1  0  0  0  0
 21 47  1  0  0  0  0
 22 40  1  0  0  0  0
 23 57  1  0  0  0  0
 24 82  1  0  0  0  0
 25 83  1  0  0  0  0
 26 28  2  0  0  0  0
 26 82  1  0  0  0  0
 27 84  1  0  0  0  0
 28 85  1  0  0  0  0
 29 66  2  0  0  0  0
 30 62  1  0  0  0  0
 30 67  2  0  0  0  0
 31 67  1  0  0  0  0
 31 73  1  0  0  0  0
 32 68  1  0  0  0  0
 32 71  1  0  0  0  0
 33 72  1  0  0  0  0
 33 77  2  0  0  0  0
 34 48  1  0  0  0  0
 34 74  1  0  0  0  0
 34 78  2  0  0  0  0
 35 63  1  0  0  0  0
 35 69  1  0  0  0  0
 35 79  2  0  0  0  0
 36 64  1  0  0  0  0
 36 75  1  0  0  0  0
 36 80  2  0  0  0  0
 37 70  1  0  0  0  0
 37 73  1  0  0  0  0
 37 81  2  0  0  0  0
 38 41  1  0  0  0  0
 39 48  1  0  0  0  0
 40 69  1  0  0  0  0
 41 43  1  0  0  0  0
 42 44  1  0  0  0  0
 42 45  1  0  0  0  0
 43 47  1  0  0  0  0
 44 49  1  0  0  0  0
 45 70  1  0  0  0  0
 46 49  1  0  0  0  0
 46 70  1  0  0  0  0
 47 74  1  0  0  0  0
 48 69  1  0  0  0  0
 49 68  1  0  0  0  0
 50 62  1  0  0  0  0
 51 62  1  0  0  0  0
 52 64  1  0  0  0  0
 53 65  1  0  0  0  0
 54 65  1  0  0  0  0
 55 65  1  0  0  0  0
 56 76  1  0  0  0  0
 57 58  1  0  0  0  0
 58 59  1  0  0  0  0
 59 60  1  0  0  0  0
 60 61  1  0  0  0  0
 61 83  1  0  0  0  0
 63 65  1  0  0  0  0
 63 75  1  0  0  0  0
 64 76  1  0  0  0  0
 66 68  1  0  0  0  0
M  CHG  1  76   1
M  ISO  4  37 100  61 101  73 100  83 101
M  END
> <Batch ID>
0092

> <Smiles>
CNC(C)C(=O)NC(C(=O)N1Cc2cc([101O:1][101CH2:1]CCCCc3cc([100NH:0][100C:0](=O)N4CCCC(n5nc(-c6ccc(Oc7ccc(F)cc7F)cc6)c(C(N)=O)c5N)C4)nc(C(C)C)c3)ccc2CC1C(=O)NC1CCCc2ccccc21)C(C)(C)C

> <Shape>
0.245

> <Color>
0.078

> <Negative vol penalty>
0.000

$$$$

  -OEChem-04052319143D

 85 93  0     1  0  0  0  0  0999 V2000
  -32.4422  -27.5295   14.5931 C   0  0  0  0  0  0  0  0  0  0  0  0
  -31.3264  -26.7239   14.7964 C   0  0  0  0  0  0  0  0  0  0  0  0
  -29.6360  -18.3947   21.8719 C   0  0  0  0  0  0  0  0  0  0  0  0
  -27.8830  -17.9031   20.2837 C   0  0  0  0  0  0  0  0  0  0  0  0
  -33.0137  -28.2108   15.6670 C   0  0  0  0  0  0  0  0  0  0  0  0
  -30.7820  -26.5982   16.0740 C   0  0  0  0  0  0  0  0  0  0  0  0
  -24.8631  -25.9491   17.5064 C   0  0  0  0  0  0  0  0  0  0  0  0
  -30.3722  -17.3103   21.3950 C   0  0  0  0  0  0  0  0  0  0  0  0
  -28.6193  -16.8186   19.8067 C   0  0  0  0  0  0  0  0  0  0  0  0
  -24.0904  -24.8310   17.8170 C   0  0  0  0  0  0  0  0  0  0  0  0
  -29.2692  -13.6388   20.7541 C   0  0  0  0  0  0  0  0  0  0  0  0
  -28.5923  -12.4370   20.5465 C   0  0  0  0  0  0  0  0  0  0  0  0
  -24.4246  -25.2603   20.1671 C   0  0  0  0  0  0  0  0  0  0  0  0
  -19.9271  -18.1419   21.5100 C   0  0  0  0  0  0  0  0  0  0  0  0
  -29.1973  -12.5002   18.2083 C   0  0  0  0  0  0  0  0  0  0  0  0
  -28.3913  -18.6911   21.3163 C   0  0  0  0  0  0  0  0  0  0  0  0
  -27.6762  -21.1396   21.3462 C   0  0  0  0  0  0  0  0  0  0  0  0
  -32.4702  -28.1010   16.9566 C   0  0  0  0  0  0  0  0  0  0  0  0
  -25.4324  -26.7263   18.5254 C   0  0  0  0  0  0  0  0  0  0  0  0
  -31.3476  -27.2776   17.1664 C   0  0  0  0  0  0  0  0  0  0  0  0
  -25.2021  -26.3893   19.8669 C   0  0  0  0  0  0  0  0  0  0  0  0
  -19.5358  -18.4046   20.1740 C   0  0  0  0  0  0  0  0  0  0  0  0
  -29.8639  -16.5222   20.3624 C   0  0  0  0  0  0  0  0  0  0  0  0
  -23.8734  -24.4848   19.1474 C   0  0  0  0  0  0  0  0  0  0  0  0
  -29.9100  -14.2714   19.6887 C   0  0  0  0  0  0  0  0  0  0  0  0
  -28.5564  -11.8677   19.2736 C   0  0  0  0  0  0  0  0  0  0  0  0
  -29.8741  -13.7021   18.4159 C   0  0  0  0  0  0  0  0  0  0  0  0
  -27.6300  -19.8109   21.8089 C   0  0  0  0  0  0  0  0  0  0  0  0
  -19.7917  -19.3164   22.2168 C   0  0  0  0  0  0  0  0  0  0  0  0
  -19.1734  -19.7317   20.1049 C   0  0  0  0  0  0  0  0  0  0  0  0
  -26.7727  -21.8093   22.1348 C   0  0  0  0  0  0  0  0  0  0  0  0
  -28.4651  -21.7170   20.2974 C   0  0  0  0  0  0  0  0  0  0  0  0
  -28.4003  -27.4705   19.3866 C   0  0  0  0  0  0  0  0  0  0  0  0
  -26.8850  -29.4119   21.4978 C   0  0  0  0  0  0  0  0  0  0  0  0
  -24.0654  -30.0994   23.2934 C   0  0  0  0  0  0  0  0  0  0  0  0
  -21.9410  -20.0450   25.1995 C   0  0  0  0  0  0  0  0  0  0  0  0
  -33.1511  -28.8191   18.0948 C   0  0  0  0  0  0  0  0  0  0  0  0
  -26.2413  -27.9447   18.1742 C   0  0  0  0  0  0  0  0  0  0  0  0
  -25.7740  -27.2025   20.9983 C   0  0  0  0  0  0  0  0  0  0  0  0
  -32.2879  -28.9288   19.3491 C   0  0  0  0  0  0  0  0  0  0  0  0
  -24.8108  -21.7055   26.4972 C   0  0  0  0  0  0  0  0  0  0  0  0
  -31.6389  -27.5861   19.6695 C   0  0  0  0  0  0  0  0  0  0  0  0
  -25.8629  -21.5281   25.4011 C   0  0  0  0  0  0  0  0  0  0  0  0
  -23.9189  -20.4728   26.6282 C   0  0  0  0  0  0  0  0  0  0  0  0
  -24.3308  -19.8580   24.2775 C   0  0  0  0  0  0  0  0  0  0  0  0
  -30.7133  -27.1355   18.5330 C   0  0  1  0  0  0  0  0  0  0  0  0
  -27.1987  -28.3668   19.2845 C   0  0  1  0  0  0  0  0  0  0  0  0
  -25.2185  -21.0971   24.0698 C   0  0  2  0  0  0  0  0  0  0  0  0
  -18.6885  -20.5284   18.9576 C   0  0  0  0  0  0  0  0  0  0  0  0
  -18.5489  -16.2523   19.3096 C   0  0  0  0  0  0  0  0  0  0  0  0
  -20.9244  -16.8701   18.7349 C   0  0  0  0  0  0  0  0  0  0  0  0
  -23.1404  -31.7316   24.9600 C   0  0  0  0  0  0  0  0  0  0  0  0
  -28.5262  -28.0871   23.7026 C   0  0  0  0  0  0  0  0  0  0  0  0
  -26.9238  -29.0413   25.3728 C   0  0  0  0  0  0  0  0  0  0  0  0
  -28.2766  -30.5647   23.9335 C   0  0  0  0  0  0  0  0  0  0  0  0
  -21.9080  -30.9377   21.4490 C   0  0  0  0  0  0  0  0  0  0  0  0
  -20.0612  -19.6002   23.6414 C   0  0  0  0  0  0  0  0  0  0  0  0
  -20.3027  -22.5865   21.8158 C   0  0  0  0  0  0  0  0  0  0  0  0
  -21.1390  -22.5782   20.5352 C   0  0  0  0  0  0  0  0  0  0  0  0
  -19.0483  -21.7108   21.7189 C   0  0  0  0  0  0  0  0  0  0  0  0
  -22.3932  -23.4295   20.6808 C   0  0  0  0  0  0  0  0  0  1  0  0
  -19.5214  -17.4294   19.0655 C   0  0  0  0  0  0  0  0  0  0  0  0
  -26.3683  -29.2612   22.9082 C   0  0  1  0  0  0  0  0  0  0  0  0
  -23.2825  -31.3856   23.4859 C   0  0  2  0  0  0  0  0  0  0  0  0
  -27.5144  -29.2219   23.9582 C   0  0  0  0  0  0  0  0  0  0  0  0
  -26.7657  -19.6444   22.8135 N   0  0  0  0  0  0  0  0  0  0  0  0
  -19.3332  -20.2760   21.3525 N   0  0  0  0  0  0  0  0  0  0  0  0
  -26.2606  -20.8774   22.9888 N   0  0  0  0  0  0  0  0  0  0  0  0
  -26.5632  -28.3810   20.6036 N   0  0  0  0  0  0  0  0  0  0  0  0
  -23.3375  -20.1178   25.3314 N   0  0  0  0  0  0  0  0  0  0  0  0
  -26.3745  -23.0986   22.1741 N   0  0  0  0  0  0  0  0  0  0  0  0
  -29.3426  -20.8865   19.5870 N   0  0  0  0  0  0  0  0  0  0  0  0
  -29.4592  -27.8558   18.5868 N   0  0  0  0  0  0  0  0  0  0  0  0
  -25.4102  -30.3427   23.1097 N   0  0  0  0  0  0  0  0  0  0  0  0
  -21.4729  -19.7084   23.9353 N   0  0  0  0  0  0  0  0  0  0  0  0
  -21.9183  -31.2542   22.9005 N   0  3  0  0  0  0  0  0  0  0  0  0
  -28.4060  -22.9365   20.0099 O   0  0  0  0  0  0  0  0  0  0  0  0
  -28.3695  -26.5019   20.1366 O   0  0  0  0  0  0  0  0  0  0  0  0
  -27.5436  -30.4111   21.1985 O   0  0  0  0  0  0  0  0  0  0  0  0
  -23.5375  -28.9896   23.3084 O   0  0  0  0  0  0  0  0  0  0  0  0
  -21.1684  -20.2691   26.1375 O   0  0  0  0  0  0  0  0  0  0  0  0
  -30.5822  -15.4641   19.8966 O   0  0  0  0  0  0  0  0  0  0  0  0
  -23.1201  -23.3936   19.4534 O   0  0  0  0  0  0  0  0  0  1  0  0
  -27.9077  -10.7128   19.0747 F   0  0  0  0  0  0  0  0  0  0  0  0
  -30.4889  -14.3045   17.3888 F   0  0  0  0  0  0  0  0  0  0  0  0
  1  2  1  0  0  0  0
  1  5  2  0  0  0  0
  2  6  2  0  0  0  0
  3  8  2  0  0  0  0
  3 16  1  0  0  0  0
  4  9  1  0  0  0  0
  4 16  2  0  0  0  0
  5 18  1  0  0  0  0
  6 20  1  0  0  0  0
  7 10  2  0  0  0  0
  7 19  1  0  0  0  0
  8 23  1  0  0  0  0
  9 23  2  0  0  0  0
 10 24  1  0  0  0  0
 11 12  2  0  0  0  0
 11 25  1  0  0  0  0
 12 26  1  0  0  0  0
 13 21  1  0  0  0  0
 13 24  2  0  0  0  0
 14 22  1  0  0  0  0
 14 29  2  0  0  0  0
 15 26  2  0  0  0  0
 15 27  1  0  0  0  0
 16 28  1  0  0  0  0
 17 28  1  0  0  0  0
 17 31  2  0  0  0  0
 17 32  1  0  0  0  0
 18 20  2  0  0  0  0
 18 37  1  0  0  0  0
 19 21  2  0  0  0  0
 19 38  1  0  0  0  0
 20 46  1  0  0  0  0
 21 39  1  0  0  0  0
 22 30  2  0  0  0  0
 22 62  1  0  0  0  0
 23 82  1  0  0  0  0
 24 83  1  0  0  0  0
 25 27  2  0  0  0  0
 25 82  1  0  0  0  0
 26 84  1  0  0  0  0
 27 85  1  0  0  0  0
 28 66  2  0  0  0  0
 29 57  1  0  0  0  0
 29 67  1  0  0  0  0
 30 49  1  0  0  0  0
 30 67  1  0  0  0  0
 31 68  1  0  0  0  0
 31 71  1  0  0  0  0
 32 72  1  0  0  0  0
 32 77  2  0  0  0  0
 33 47  1  0  0  0  0
 33 73  1  0  0  0  0
 33 78  2  0  0  0  0
 34 63  1  0  0  0  0
 34 69  1  0  0  0  0
 34 79  2  0  0  0  0
 35 64  1  0  0  0  0
 35 74  1  0  0  0  0
 35 80  2  0  0  0  0
 36 70  1  0  0  0  0
 36 75  1  0  0  0  0
 36 81  2  0  0  0  0
 37 40  1  0  0  0  0
 38 47  1  0  0  0  0
 39 69  1  0  0  0  0
 40 42  1  0  0  0  0
 41 43  1  0  0  0  0
 41 44  1  0  0  0  0
 42 46  1  0  0  0  0
 43 48  1  0  0  0  0
 44 70  1  0  0  0  0
 45 48  1  0  0  0  0
 45 70  1  0  0  0  0
 46 73  1  0  0  0  0
 47 69  1  0  0  0  0
 48 68  1  0  0  0  0
 50 62  1  0  0  0  0
 51 62  1  0  0  0  0
 52 64  1  0  0  0  0
 53 65  1  0  0  0  0
 54 65  1  0  0  0  0
 55 65  1  0  0  0  0
 56 76  1  0  0  0  0
 57 75  1  0  0  0  0
 58 59  1  0  0  0  0
 58 60  1  0  0  0  0
 59 61  1  0  0  0  0
 60 67  1  0  0  0  0
 61 83  1  0  0  0  0
 63 65  1  0  0  0  0
 63 74  1  0  0  0  0
 64 76  1  0  0  0  0
 66 68  1  0  0  0  0
M  CHG  1  76   1
M  ISO  4  36 100  61 101  75 100  83 101
M  END
> <Batch ID>
0092

> <Smiles>
CNC(C)C(=O)NC(C(=O)N1Cc2cc([101O:1][101CH2:1]CCCn3c(C[100NH:0][100C:0](=O)N4CCCC(n5nc(-c6ccc(Oc7ccc(F)cc7F)cc6)c(C(N)=O)c5N)C4)cc(C(C)C)c3C)ccc2CC1C(=O)NC1CCCc2ccccc21)C(C)(C)C

> <Shape>
0.186

> <Color>
0.068

> <Negative vol penalty>
0.000

$$$$

  -OEChem-04052319143D

 87 95  0     1  0  0  0  0  0999 V2000
  -34.4686  -19.3132   14.1980 C   0  0  0  0  0  0  0  0  0  0  0  0
  -33.5650  -19.1003   15.2341 C   0  0  0  0  0  0  0  0  0  0  0  0
  -23.1502   -9.8511   19.9225 C   0  0  0  0  0  0  0  0  0  0  0  0
  -23.6538   -9.9650   22.2826 C   0  0  0  0  0  0  0  0  0  0  0  0
  -34.6647  -20.6002   13.6989 C   0  0  0  0  0  0  0  0  0  0  0  0
  -32.8577  -20.1747   15.7726 C   0  0  0  0  0  0  0  0  0  0  0  0
  -27.1207  -20.1026   17.9145 C   0  0  0  0  0  0  0  0  0  0  0  0
  -22.3949   -8.6987   20.1392 C   0  0  0  0  0  0  0  0  0  0  0  0
  -22.8984   -8.8126   22.4994 C   0  0  0  0  0  0  0  0  0  0  0  0
  -26.6025  -20.0061   19.2052 C   0  0  0  0  0  0  0  0  0  0  0  0
  -23.2816   -5.4748   22.1210 C   0  0  0  0  0  0  0  0  0  0  0  0
  -23.8248   -4.4895   22.9455 C   0  0  0  0  0  0  0  0  0  0  0  0
  -26.4155  -22.4092   19.3031 C   0  0  0  0  0  0  0  0  0  0  0  0
  -21.9448   -4.7094   24.4469 C   0  0  0  0  0  0  0  0  0  0  0  0
  -29.8000  -17.6363   23.4288 C   0  0  0  0  0  0  0  0  0  0  0  0
  -30.8267  -18.6904   21.7408 C   0  0  0  0  0  0  0  0  0  0  0  0
  -23.7798  -10.4842   20.9942 C   0  0  0  0  0  0  0  0  0  0  0  0
  -24.1077  -13.0069   20.8033 C   0  0  0  0  0  0  0  0  0  0  0  0
  -33.9523  -21.6894   14.2250 C   0  0  0  0  0  0  0  0  0  0  0  0
  -27.3007  -21.3557   17.3115 C   0  0  0  0  0  0  0  0  0  0  0  0
  -33.0455  -21.4777   15.2810 C   0  0  0  0  0  0  0  0  0  0  0  0
  -26.9338  -22.5187   18.0037 C   0  0  0  0  0  0  0  0  0  0  0  0
  -29.9750  -16.7187   22.4166 C   0  0  0  0  0  0  0  0  0  0  0  0
  -30.6244  -17.3856   21.3486 C   0  0  0  0  0  0  0  0  0  0  0  0
  -22.2690   -8.1794   21.4277 C   0  0  0  0  0  0  0  0  0  0  0  0
  -26.2525  -21.1597   19.9008 C   0  0  0  0  0  0  0  0  0  0  0  0
  -22.0701   -6.0775   22.4596 C   0  0  0  0  0  0  0  0  0  0  0  0
  -23.1563   -4.1068   24.1084 C   0  0  0  0  0  0  0  0  0  0  0  0
  -21.4016   -5.6948   23.6225 C   0  0  0  0  0  0  0  0  0  0  0  0
  -24.5606  -11.6744   20.7708 C   0  0  0  0  0  0  0  0  0  0  0  0
  -25.2256  -13.7563   20.5295 C   0  0  0  0  0  0  0  0  0  0  0  0
  -22.7938  -13.5212   21.0584 C   0  0  0  0  0  0  0  0  0  0  0  0
  -29.8055  -22.9830   16.2244 C   0  0  0  0  0  0  0  0  0  0  0  0
  -27.5250  -25.0482   15.1965 C   0  0  0  0  0  0  0  0  0  0  0  0
  -24.3590  -26.2745   15.5415 C   0  0  0  0  0  0  0  0  0  0  0  0
  -30.9996  -13.3328   21.7805 C   0  0  0  0  0  0  0  0  0  0  0  0
  -34.2329  -23.0693   13.6849 C   0  0  0  0  0  0  0  0  0  0  0  0
  -27.8359  -21.4413   15.9084 C   0  0  0  0  0  0  0  0  0  0  0  0
  -27.0884  -23.8869   17.3933 C   0  0  0  0  0  0  0  0  0  0  0  0
  -33.1679  -24.0975   14.0577 C   0  0  0  0  0  0  0  0  0  0  0  0
  -29.5865  -12.8842   18.3889 C   0  0  0  0  0  0  0  0  0  0  0  0
  -32.8208  -23.9933   15.5395 C   0  0  0  0  0  0  0  0  0  0  0  0
  -28.1176  -12.5793   18.6777 C   0  0  0  0  0  0  0  0  0  0  0  0
  -30.4930  -12.4441   19.5344 C   0  0  0  0  0  0  0  0  0  0  0  0
  -28.6357  -12.6973   21.1471 C   0  0  0  0  0  0  0  0  0  0  0  0
  -32.2412  -22.6138   15.8747 C   0  0  1  0  0  0  0  0  0  0  0  0
  -28.4573  -22.7971   15.5876 C   0  0  1  0  0  0  0  0  0  0  0  0
  -27.6907  -13.1705   20.0325 C   0  0  2  0  0  0  0  0  0  0  0  0
  -32.5445  -16.8280   19.8136 C   0  0  0  0  0  0  0  0  0  0  0  0
  -30.3039  -17.4647   18.8496 C   0  0  0  0  0  0  0  0  0  0  0  0
  -22.7934  -27.9846   14.5815 C   0  0  0  0  0  0  0  0  0  0  0  0
  -25.3035  -21.8594   23.3622 C   0  0  0  0  0  0  0  0  0  0  0  0
  -29.0383  -27.2539   16.6644 C   0  0  0  0  0  0  0  0  0  0  0  0
  -26.9905  -28.6830   16.4836 C   0  0  0  0  0  0  0  0  0  0  0  0
  -28.1566  -27.9106   14.4181 C   0  0  0  0  0  0  0  0  0  0  0  0
  -31.6474  -14.7909   23.6604 C   0  0  0  0  0  0  0  0  0  0  0  0
  -22.4100  -24.2020   14.7259 C   0  0  0  0  0  0  0  0  0  0  0  0
  -29.5593  -15.3024   22.4505 C   0  0  0  0  0  0  0  0  0  0  0  0
  -28.1661  -21.0757   22.8803 C   0  0  0  0  0  0  0  0  0  0  0  0
  -29.6655  -21.2908   23.1138 C   0  0  0  0  0  0  0  0  0  0  0  0
  -27.5197  -22.3189   22.2584 C   0  0  0  0  0  0  0  0  0  0  0  0
  -30.3397  -20.1053   23.8135 C   0  0  0  0  0  0  0  0  0  0  0  0
  -31.0167  -16.8014   20.0509 C   0  0  0  0  0  0  0  0  0  0  0  0
  -26.8276  -26.2505   15.7856 C   0  0  1  0  0  0  0  0  0  0  0  0
  -23.2651  -26.5401   14.5231 C   0  0  2  0  0  0  0  0  0  0  0  0
  -26.0105  -22.1559   22.0467 C   0  0  1  0  0  0  0  0  0  1  0  0
  -27.7520  -27.4990   15.8504 C   0  0  0  0  0  0  0  0  0  0  0  0
  -25.8646  -11.5796   20.4977 N   0  0  0  0  0  0  0  0  0  0  0  0
  -30.3218  -18.8313   23.0071 N   0  0  0  0  0  0  0  0  0  0  0  0
  -26.2406  -12.8620   20.3560 N   0  0  0  0  0  0  0  0  0  0  0  0
  -27.6219  -23.9187   16.0215 N   0  0  0  0  0  0  0  0  0  0  0  0
  -30.0395  -12.9849   20.8162 N   0  0  0  0  0  0  0  0  0  0  0  0
  -25.4296  -15.0865   20.4225 N   0  0  0  0  0  0  0  0  0  0  0  0
  -21.7601  -12.6122   21.3221 N   0  0  0  0  0  0  0  0  0  0  0  0
  -30.8591  -22.5304   15.4533 N   0  0  0  0  0  0  0  0  0  0  0  0
  -25.6148  -26.4452   14.9984 N   0  0  0  0  0  0  0  0  0  0  0  0
  -30.6795  -14.3857   22.6509 N   0  0  0  0  0  0  0  0  0  0  0  0
  -22.0948  -25.6529   14.7766 N   0  3  0  0  0  0  0  0  0  0  0  0
  -22.5406  -14.7495   21.0364 O   0  0  0  0  0  0  0  0  0  0  0  0
  -29.8842  -23.5001   17.3326 O   0  0  0  0  0  0  0  0  0  0  0  0
  -27.9613  -25.1065   14.0441 O   0  0  0  0  0  0  0  0  0  0  0  0
  -24.1230  -25.9517   16.7037 O   0  0  0  0  0  0  0  0  0  0  0  0
  -32.0851  -12.7426   21.8529 O   0  0  0  0  0  0  0  0  0  0  0  0
  -21.5318   -7.0551   21.6396 O   0  0  0  0  0  0  0  0  0  0  0  0
  -25.7471  -21.0685   21.1610 O   0  0  0  0  0  0  0  0  0  1  0  0
  -23.6773   -3.1594   24.8992 F   0  0  0  0  0  0  0  0  0  0  0  0
  -20.2368   -6.2694   23.9523 F   0  0  0  0  0  0  0  0  0  0  0  0
  1  2  1  0  0  0  0
  1  5  2  0  0  0  0
  2  6  2  0  0  0  0
  3  8  2  0  0  0  0
  3 17  1  0  0  0  0
  4  9  1  0  0  0  0
  4 17  2  0  0  0  0
  5 19  1  0  0  0  0
  6 21  1  0  0  0  0
  7 10  2  0  0  0  0
  7 20  1  0  0  0  0
  8 25  1  0  0  0  0
  9 25  2  0  0  0  0
 10 26  1  0  0  0  0
 11 12  2  0  0  0  0
 11 27  1  0  0  0  0
 12 28  1  0  0  0  0
 13 22  1  0  0  0  0
 13 26  2  0  0  0  0
 14 28  2  0  0  0  0
 14 29  1  0  0  0  0
 15 23  2  0  0  0  0
 15 69  1  0  0  0  0
 16 24  2  0  0  0  0
 16 69  1  0  0  0  0
 17 30  1  0  0  0  0
 18 30  1  0  0  0  0
 18 31  2  0  0  0  0
 18 32  1  0  0  0  0
 19 21  2  0  0  0  0
 19 37  1  0  0  0  0
 20 22  2  0  0  0  0
 20 38  1  0  0  0  0
 21 46  1  0  0  0  0
 22 39  1  0  0  0  0
 23 24  1  0  0  0  0
 23 58  1  0  0  0  0
 24 63  1  0  0  0  0
 25 84  1  0  0  0  0
 26 85  1  0  0  0  0
 27 29  2  0  0  0  0
 27 84  1  0  0  0  0
 28 86  1  0  0  0  0
 29 87  1  0  0  0  0
 30 68  2  0  0  0  0
 31 70  1  0  0  0  0
 31 73  1  0  0  0  0
 32 74  1  0  0  0  0
 32 79  2  0  0  0  0
 33 47  1  0  0  0  0
 33 75  1  0  0  0  0
 33 80  2  0  0  0  0
 34 64  1  0  0  0  0
 34 71  1  0  0  0  0
 34 81  2  0  0  0  0
 35 65  1  0  0  0  0
 35 76  1  0  0  0  0
 35 82  2  0  0  0  0
 36 72  1  0  0  0  0
 36 77  1  0  0  0  0
 36 83  2  0  0  0  0
 37 40  1  0  0  0  0
 38 47  1  0  0  0  0
 39 71  1  0  0  0  0
 40 42  1  0  0  0  0
 41 43  1  0  0  0  0
 41 44  1  0  0  0  0
 42 46  1  0  0  0  0
 43 48  1  0  0  0  0
 44 72  1  0  0  0  0
 45 48  1  0  0  0  0
 45 72  1  0  0  0  0
 46 75  1  0  0  0  0
 47 71  1  0  0  0  0
 48 70  1  0  0  0  0
 49 63  1  0  0  0  0
 50 63  1  0  0  0  0
 51 65  1  0  0  0  0
 52 66  1  0  0  0  0
 53 67  1  0  0  0  0
 54 67  1  0  0  0  0
 55 67  1  0  0  0  0
 56 77  1  0  0  0  0
 57 78  1  0  0  0  0
 58 77  1  0  0  0  0
 59 60  1  0  0  0  0
 59 61  1  0  0  0  0
 60 62  1  0  0  0  0
 61 66  1  0  0  0  0
 62 69  1  0  0  0  0
 64 67  1  0  0  0  0
 64 76  1  0  0  0  0
 65 78  1  0  0  0  0
 66 85  1  0  0  0  0
 68 70  1  0  0  0  0
M  CHG  1  78   1
M  ISO  4  36 100  66 101  77 100  85 101
M  END
> <Batch ID>
0092

> <Smiles>
CNC(C)C(=O)NC(C(=O)N1Cc2cc([101O:1][101CH:1](C)CCCCn3cc(C[100N:0](C)[100C:0](=O)N4CCCC(n5nc(-c6ccc(Oc7ccc(F)cc7F)cc6)c(C(N)=O)c5N)C4)c(C(C)C)c3)ccc2CC1C(=O)NC1CCCc2ccccc21)C(C)(C)C

> <Shape>
0.203

> <Color>
0.188

> <Negative vol penalty>
0.000

$$$$

  -OEChem-04052319143D

 90 98  0     1  0  0  0  0  0999 V2000
  -21.1369  -23.7633   19.3681 C   0  0  0  0  0  0  0  0  0  0  0  0
  -22.4727  -23.3903   19.2584 C   0  0  0  0  0  0  0  0  0  0  0  0
  -22.3205  -27.7988   20.9988 C   0  0  0  0  0  0  0  0  0  0  0  0
  -23.6378  -27.5548   23.0094 C   0  0  0  0  0  0  0  0  0  0  0  0
  -20.2828  -23.0527   20.2103 C   0  0  0  0  0  0  0  0  0  0  0  0
  -22.9553  -22.3070   19.9918 C   0  0  0  0  0  0  0  0  0  0  0  0
  -27.2474  -18.3010   18.2495 C   0  0  0  0  0  0  0  0  0  0  0  0
  -21.1530  -27.6328   21.7436 C   0  0  0  0  0  0  0  0  0  0  0  0
  -22.4702  -27.3889   23.7542 C   0  0  0  0  0  0  0  0  0  0  0  0
  -28.6114  -18.2095   18.5229 C   0  0  0  0  0  0  0  0  0  0  0  0
  -19.2110  -29.5058   23.7816 C   0  0  0  0  0  0  0  0  0  0  0  0
  -18.1536  -30.3808   23.5329 C   0  0  0  0  0  0  0  0  0  0  0  0
  -28.1434  -16.6551   20.3073 C   0  0  0  0  0  0  0  0  0  0  0  0
  -31.4903  -20.9544   21.7001 C   0  0  0  0  0  0  0  0  0  0  0  0
  -16.7503  -28.5114   22.9221 C   0  0  0  0  0  0  0  0  0  0  0  0
  -23.5630  -27.7597   21.6317 C   0  0  0  0  0  0  0  0  0  0  0  0
  -25.4310  -29.1398   20.5763 C   0  0  0  0  0  0  0  0  0  0  0  0
  -20.7529  -21.9541   20.9470 C   0  0  0  0  0  0  0  0  0  0  0  0
  -26.3187  -17.5773   19.0112 C   0  0  0  0  0  0  0  0  0  0  0  0
  -22.1070  -21.5818   20.8457 C   0  0  0  0  0  0  0  0  0  0  0  0
  -26.7683  -16.7371   20.0398 C   0  0  0  0  0  0  0  0  0  0  0  0
  -31.1976  -19.7649   22.3579 C   0  0  0  0  0  0  0  0  0  0  0  0
  -30.2242  -19.7473   23.3506 C   0  0  0  0  0  0  0  0  0  0  0  0
  -21.2278  -27.4279   23.1213 C   0  0  0  0  0  0  0  0  0  0  0  0
  -29.0594  -17.3887   19.5538 C   0  0  0  0  0  0  0  0  0  0  0  0
  -19.0381  -28.1336   23.6004 C   0  0  0  0  0  0  0  0  0  0  0  0
  -16.9232  -29.8836   23.1032 C   0  0  0  0  0  0  0  0  0  0  0  0
  -17.8077  -27.6364   23.1707 C   0  0  0  0  0  0  0  0  0  0  0  0
  -24.7695  -27.9306   20.8627 C   0  0  0  0  0  0  0  0  0  0  0  0
  -30.7870  -22.0897   22.0691 C   0  0  0  0  0  0  0  0  0  0  0  0
  -29.5776  -20.9367   23.6459 C   0  0  0  0  0  0  0  0  0  0  0  0
  -26.5160  -28.7671   19.8212 C   0  0  0  0  0  0  0  0  0  0  0  0
  -25.0947  -30.4801   20.9587 C   0  0  0  0  0  0  0  0  0  0  0  0
  -23.8933  -18.3480   20.9157 C   0  0  0  0  0  0  0  0  0  0  0  0
  -23.4171  -15.1397   20.9598 C   0  0  0  0  0  0  0  0  0  0  0  0
  -24.7262  -12.0110   20.5798 C   0  0  0  0  0  0  0  0  0  0  0  0
  -29.6251  -23.6683   19.3888 C   0  0  0  0  0  0  0  0  0  0  0  0
  -19.8032  -21.2460   21.8804 C   0  0  0  0  0  0  0  0  0  0  0  0
  -24.8528  -17.6662   18.6863 C   0  0  0  0  0  0  0  0  0  0  0  0
  -25.8136  -15.9238   20.8738 C   0  0  0  0  0  0  0  0  0  0  0  0
  -20.3046  -19.8785   22.3373 C   0  0  0  0  0  0  0  0  0  0  0  0
  -27.9621  -25.3916   16.7542 C   0  0  0  0  0  0  0  0  0  0  0  0
  -21.7645  -19.9629   22.7712 C   0  0  0  0  0  0  0  0  0  0  0  0
  -27.0150  -26.3468   17.4826 C   0  0  0  0  0  0  0  0  0  0  0  0
  -28.0889  -24.0566   17.4847 C   0  0  0  0  0  0  0  0  0  0  0  0
  -27.5188  -25.1173   19.6350 C   0  0  0  0  0  0  0  0  0  0  0  0
  -22.6621  -20.3970   21.6062 C   0  0  1  0  0  0  0  0  0  0  0  0
  -23.9563  -17.2815   19.8592 C   0  0  1  0  0  0  0  0  0  0  0  0
  -27.4021  -26.4975   18.9661 C   0  0  2  0  0  0  0  0  0  0  0  0
  -31.9936  -15.9468   26.1342 C   0  0  0  0  0  0  0  0  0  0  0  0
  -30.1722  -21.5634   26.6379 C   0  0  0  0  0  0  0  0  0  0  0  0
  -24.1017   -9.5843   20.7166 C   0  0  0  0  0  0  0  0  0  0  0  0
  -27.2839  -20.0529   24.4506 C   0  0  0  0  0  0  0  0  0  0  0  0
  -27.9230  -22.4223   24.7985 C   0  0  0  0  0  0  0  0  0  0  0  0
  -23.4753  -15.2989   24.0063 C   0  0  0  0  0  0  0  0  0  0  0  0
  -23.8041  -12.8175   24.0602 C   0  0  0  0  0  0  0  0  0  0  0  0
  -21.7231  -13.7770   23.0744 C   0  0  0  0  0  0  0  0  0  0  0  0
  -25.3827  -11.5618   17.7292 C   0  0  0  0  0  0  0  0  0  0  0  0
  -31.9491  -18.5137   21.9792 C   0  0  0  0  0  0  0  0  0  0  0  0
  -29.8873  -18.4855   24.0714 C   0  0  0  0  0  0  0  0  0  0  0  0
  -31.0738  -23.3838   21.3837 C   0  0  0  0  0  0  0  0  0  0  0  0
  -30.7690  -16.5631   25.4768 C   0  0  0  0  0  0  0  0  0  0  0  0
  -29.0749  -20.6290   26.1362 C   0  0  0  0  0  0  0  0  0  0  0  0
  -32.3692  -18.4689   20.5085 C   0  0  0  0  0  0  0  0  0  0  0  0
  -31.1118  -17.8762   24.7732 C   0  0  0  0  0  0  0  0  0  0  0  0
  -31.1891  -18.4471   19.5439 C   0  0  0  0  0  0  0  0  0  1  0  0
  -23.9060  -13.9980   21.8180 C   0  0  1  0  0  0  0  0  0  0  0  0
  -24.2323  -10.7989   19.8108 C   0  0  2  0  0  0  0  0  0  0  0  0
  -28.5216  -20.9802   24.7016 C   0  0  0  0  0  0  0  0  0  0  0  0
  -23.2452  -13.9895   23.2254 C   0  0  0  0  0  0  0  0  0  0  0  0
  -25.3830  -26.8691   20.3326 N   0  0  0  0  0  0  0  0  0  0  0  0
  -29.8348  -22.1116   23.0285 N   0  0  0  0  0  0  0  0  0  0  0  0
  -26.4413  -27.4102   19.7054 N   0  0  0  0  0  0  0  0  0  0  0  0
  -24.3897  -16.0495   20.5215 N   0  0  0  0  0  0  0  0  0  0  0  0
  -28.4596  -24.2696   18.8859 N   0  0  0  0  0  0  0  0  0  0  0  0
  -27.5172  -29.4710   19.2515 N   0  0  0  0  0  0  0  0  0  0  0  0
  -23.9461  -30.6851   21.7352 N   0  0  0  0  0  0  0  0  0  0  0  0
  -22.8996  -19.2859   20.7098 N   0  0  0  0  0  0  0  0  0  0  0  0
  -23.6815  -12.7811   21.0452 N   0  0  0  0  0  0  0  0  0  0  0  0
  -29.9067  -23.9265   20.7248 N   0  0  0  0  0  0  0  0  0  0  0  0
  -25.1780  -10.4639   18.7088 N   0  3  0  0  0  0  0  0  0  0  0  0
  -25.7831  -31.4683   20.6079 O   0  0  0  0  0  0  0  0  0  0  0  0
  -24.6865  -18.3212   21.8494 O   0  0  0  0  0  0  0  0  0  0  0  0
  -22.2177  -15.2172   20.6823 O   0  0  0  0  0  0  0  0  0  0  0  0
  -25.9195  -12.2486   20.7537 O   0  0  0  0  0  0  0  0  0  0  0  0
  -30.3631  -22.9585   18.6971 O   0  0  0  0  0  0  0  0  0  0  0  0
  -20.0886  -27.2661   23.8485 O   0  0  0  0  0  0  0  0  0  0  0  0
  -30.3902  -17.2982   19.8233 O   0  0  0  0  0  0  0  0  0  1  0  0
  -15.9074  -30.7238   22.8659 F   0  0  0  0  0  0  0  0  0  0  0  0
  -17.6353  -26.3189   22.9960 F   0  0  0  0  0  0  0  0  0  0  0  0
  1  2  1  0  0  0  0
  1  5  2  0  0  0  0
  2  6  2  0  0  0  0
  3  8  2  0  0  0  0
  3 16  1  0  0  0  0
  4  9  1  0  0  0  0
  4 16  2  0  0  0  0
  5 18  1  0  0  0  0
  6 20  1  0  0  0  0
  7 10  2  0  0  0  0
  7 19  1  0  0  0  0
  8 24  1  0  0  0  0
  9 24  2  0  0  0  0
 10 25  1  0  0  0  0
 11 12  2  0  0  0  0
 11 26  1  0  0  0  0
 12 27  1  0  0  0  0
 13 21  1  0  0  0  0
 13 25  2  0  0  0  0
 14 22  2  0  0  0  0
 14 30  1  0  0  0  0
 15 27  2  0  0  0  0
 15 28  1  0  0  0  0
 16 29  1  0  0  0  0
 17 29  1  0  0  0  0
 17 32  2  0  0  0  0
 17 33  1  0  0  0  0
 18 20  2  0  0  0  0
 18 38  1  0  0  0  0
 19 21  2  0  0  0  0
 19 39  1  0  0  0  0
 20 47  1  0  0  0  0
 21 40  1  0  0  0  0
 22 23  1  0  0  0  0
 22 59  1  0  0  0  0
 23 31  2  0  0  0  0
 23 60  1  0  0  0  0
 24 87  1  0  0  0  0
 25 88  1  0  0  0  0
 26 28  2  0  0  0  0
 26 87  1  0  0  0  0
 27 89  1  0  0  0  0
 28 90  1  0  0  0  0
 29 71  2  0  0  0  0
 30 61  1  0  0  0  0
 30 72  2  0  0  0  0
 31 69  1  0  0  0  0
 31 72  1  0  0  0  0
 32 73  1  0  0  0  0
 32 76  1  0  0  0  0
 33 77  1  0  0  0  0
 33 82  2  0  0  0  0
 34 48  1  0  0  0  0
 34 78  1  0  0  0  0
 34 83  2  0  0  0  0
 35 67  1  0  0  0  0
 35 74  1  0  0  0  0
 35 84  2  0  0  0  0
 36 68  1  0  0  0  0
 36 79  1  0  0  0  0
 36 85  2  0  0  0  0
 37 75  1  0  0  0  0
 37 80  1  0  0  0  0
 37 86  2  0  0  0  0
 38 41  1  0  0  0  0
 39 48  1  0  0  0  0
 40 74  1  0  0  0  0
 41 43  1  0  0  0  0
 42 44  1  0  0  0  0
 42 45  1  0  0  0  0
 43 47  1  0  0  0  0
 44 49  1  0  0  0  0
 45 75  1  0  0  0  0
 46 49  1  0  0  0  0
 46 75  1  0  0  0  0
 47 78  1  0  0  0  0
 48 74  1  0  0  0  0
 49 73  1  0  0  0  0
 50 62  1  0  0  0  0
 51 63  1  0  0  0  0
 52 68  1  0  0  0  0
 53 69  1  0  0  0  0
 54 69  1  0  0  0  0
 55 70  1  0  0  0  0
 56 70  1  0  0  0  0
 57 70  1  0  0  0  0
 58 81  1  0  0  0  0
 59 64  1  0  0  0  0
 60 65  1  0  0  0  0
 61 80  1  0  0  0  0
 62 65  1  0  0  0  0
 63 69  1  0  0  0  0
 64 66  1  0  0  0  0
 66 88  1  0  0  0  0
 67 70  1  0  0  0  0
 67 79  1  0  0  0  0
 68 81  1  0  0  0  0
 71 73  1  0  0  0  0
M  CHG  1  81   1
M  ISO  4  37 100  66 101  80 100  88 101
M  END
> <Batch ID>
0092

> <Smiles>
CCCCc1c(CC[101CH2:1][101O:1]c2ccc3c(c2)CN(C(=O)C(NC(=O)C(C)NC)C(C)(C)C)C(C(=O)NC2CCCc4ccccc42)C3)cc(C[100NH:0][100C:0](=O)N2CCCC(n3nc(-c4ccc(Oc5ccc(F)cc5F)cc4)c(C(N)=O)c3N)C2)nc1C(C)(C)CC

> <Shape>
0.217

> <Color>
0.075

> <Negative vol penalty>
0.000

$$$$

  -OEChem-04052319143D

 82 90  0     1  0  0  0  0  0999 V2000
  -39.5138  -24.9534   21.7318 C   0  0  0  0  0  0  0  0  0  0  0  0
  -38.3994  -24.4205   21.0919 C   0  0  0  0  0  0  0  0  0  0  0  0
  -23.1229   -9.8255   19.9659 C   0  0  0  0  0  0  0  0  0  0  0  0
  -23.4889  -10.0475   22.3436 C   0  0  0  0  0  0  0  0  0  0  0  0
  -39.3747  -25.5663   22.9764 C   0  0  0  0  0  0  0  0  0  0  0  0
  -37.1454  -24.4992   21.6967 C   0  0  0  0  0  0  0  0  0  0  0  0
  -31.7473  -25.2278   18.8975 C   0  0  0  0  0  0  0  0  0  0  0  0
  -22.3110   -8.7146   20.1945 C   0  0  0  0  0  0  0  0  0  0  0  0
  -22.6769   -8.9366   22.5723 C   0  0  0  0  0  0  0  0  0  0  0  0
  -30.7505  -24.3241   18.5323 C   0  0  0  0  0  0  0  0  0  0  0  0
  -22.9498   -5.5716   22.3902 C   0  0  0  0  0  0  0  0  0  0  0  0
  -23.4034   -4.6129   23.2961 C   0  0  0  0  0  0  0  0  0  0  0  0
  -28.8473  -16.3731   17.8081 C   0  0  0  0  0  0  0  0  0  0  0  0
  -29.5574  -24.8268   20.5678 C   0  0  0  0  0  0  0  0  0  0  0  0
  -21.4474   -4.9813   24.6655 C   0  0  0  0  0  0  0  0  0  0  0  0
  -23.7119  -10.4919   21.0404 C   0  0  0  0  0  0  0  0  0  0  0  0
  -29.1960  -15.2290   17.0990 C   0  0  0  0  0  0  0  0  0  0  0  0
  -24.1500  -12.9871   20.7408 C   0  0  0  0  0  0  0  0  0  0  0  0
  -38.1169  -25.6611   23.5924 C   0  0  0  0  0  0  0  0  0  0  0  0
  -31.6619  -25.9310   20.1078 C   0  0  0  0  0  0  0  0  0  0  0  0
  -36.9897  -25.1127   22.9512 C   0  0  0  0  0  0  0  0  0  0  0  0
  -30.5532  -25.7408   20.9448 C   0  0  0  0  0  0  0  0  0  0  0  0
  -28.6841  -15.0262   15.8222 C   0  0  0  0  0  0  0  0  0  0  0  0
  -22.0880   -8.2701   21.4978 C   0  0  0  0  0  0  0  0  0  0  0  0
  -29.6568  -24.1213   19.3688 C   0  0  0  0  0  0  0  0  0  0  0  0
  -21.7450   -6.2353   22.6220 C   0  0  0  0  0  0  0  0  0  0  0  0
  -22.6522   -4.3177   24.4337 C   0  0  0  0  0  0  0  0  0  0  0  0
  -20.9938   -5.9401   23.7596 C   0  0  0  0  0  0  0  0  0  0  0  0
  -24.5511  -11.6392   20.8048 C   0  0  0  0  0  0  0  0  0  0  0  0
  -27.9902  -17.2766   17.2006 C   0  0  0  0  0  0  0  0  0  0  0  0
  -27.8343  -15.9899   15.3035 C   0  0  0  0  0  0  0  0  0  0  0  0
  -25.3111  -13.6797   20.4983 C   0  0  0  0  0  0  0  0  0  0  0  0
  -30.1032  -14.2559   17.7210 C   0  0  0  0  0  0  0  0  0  0  0  0
  -22.8447  -13.5618   20.8877 C   0  0  0  0  0  0  0  0  0  0  0  0
  -33.4290  -26.0784   22.7458 C   0  0  0  0  0  0  0  0  0  0  0  0
  -31.3464  -28.4347   23.5414 C   0  0  0  0  0  0  0  0  0  0  0  0
  -28.2563  -29.8270   23.1415 C   0  0  0  0  0  0  0  0  0  0  0  0
  -38.0237  -26.2907   24.9597 C   0  0  0  0  0  0  0  0  0  0  0  0
  -32.7322  -26.9222   20.4746 C   0  0  0  0  0  0  0  0  0  0  0  0
  -30.4042  -26.4859   22.2452 C   0  0  0  0  0  0  0  0  0  0  0  0
  -36.5997  -26.6654   25.3620 C   0  0  0  0  0  0  0  0  0  0  0  0
  -30.1409  -12.1855   20.6285 C   0  0  0  0  0  0  0  0  0  0  0  0
  -35.6410  -25.5169   25.0640 C   0  0  0  0  0  0  0  0  0  0  0  0
  -28.6575  -11.9514   20.9196 C   0  0  0  0  0  0  0  0  0  0  0  0
  -30.4178  -12.2485   19.1285 C   0  0  0  0  0  0  0  0  0  0  0  0
  -28.1060  -12.9982   18.6834 C   0  0  0  0  0  0  0  0  0  0  0  0
  -35.6087  -25.2005   23.5639 C   0  0  1  0  0  0  0  0  0  0  0  0
  -32.7990  -27.2023   21.9727 C   0  0  1  0  0  0  0  0  0  0  0  0
  -27.7760  -12.9788   20.1850 C   0  0  1  0  0  0  0  0  0  0  0  0
  -29.0389  -13.8090   15.0353 C   0  0  0  0  0  0  0  0  0  0  0  0
  -27.2532  -15.8271   13.9371 C   0  0  0  0  0  0  0  0  0  0  0  0
  -26.8313  -31.7261   23.9538 C   0  0  0  0  0  0  0  0  0  0  0  0
  -30.8454  -26.9385   26.1530 C   0  0  0  0  0  0  0  0  0  0  0  0
  -28.7829  -28.3221   26.4689 C   0  0  0  0  0  0  0  0  0  0  0  0
  -31.0205  -29.4219   26.3905 C   0  0  0  0  0  0  0  0  0  0  0  0
  -28.0455  -30.9833   20.4254 C   0  0  0  0  0  0  0  0  0  0  0  0
  -27.5903  -18.5285   17.9400 C   0  0  0  0  0  0  0  0  0  0  0  0
  -28.5260  -19.7176   17.6954 C   0  0  0  0  0  0  0  0  0  0  0  0
  -28.1489  -20.9541   18.5126 C   0  0  0  0  0  0  0  0  0  0  0  0
  -29.0751  -22.1253   18.2141 C   0  0  0  0  0  0  0  0  0  1  0  0
  -30.0213  -28.4918   24.2625 C   0  0  1  0  0  0  0  0  0  0  0  0
  -27.8214  -31.2608   22.8975 C   0  0  2  0  0  0  0  0  0  0  0  0
  -30.1710  -28.2779   25.7952 C   0  0  0  0  0  0  0  0  0  0  0  0
  -25.8643  -11.4826   20.6178 N   0  0  0  0  0  0  0  0  0  0  0  0
  -27.4729  -17.1139   15.9622 N   0  0  0  0  0  0  0  0  0  0  0  0
  -26.2985  -12.7410   20.4339 N   0  0  0  0  0  0  0  0  0  0  0  0
  -29.5438  -13.2265   18.4817 N   0  0  0  0  0  0  0  0  0  0  0  0
  -31.4800  -27.4395   22.5628 N   0  0  0  0  0  0  0  0  0  0  0  0
  -25.5735  -14.9939   20.3359 N   0  0  0  0  0  0  0  0  0  0  0  0
  -21.7619  -12.7065   21.1334 N   0  0  0  0  0  0  0  0  0  0  0  0
  -34.8029  -26.1744   22.8592 N   0  0  0  0  0  0  0  0  0  0  0  0
  -29.4103  -29.7642   23.8935 N   0  0  0  0  0  0  0  0  0  0  0  0
  -27.1755  -31.3857   21.5603 N   0  3  0  0  0  0  0  0  0  0  0  0
  -31.3052  -14.4342   17.5298 O   0  0  0  0  0  0  0  0  0  0  0  0
  -22.6419  -14.7956   20.7871 O   0  0  0  0  0  0  0  0  0  0  0  0
  -32.7210  -25.1907   23.2067 O   0  0  0  0  0  0  0  0  0  0  0  0
  -32.2278  -29.2477   23.8306 O   0  0  0  0  0  0  0  0  0  0  0  0
  -27.6325  -28.8593   22.7114 O   0  0  0  0  0  0  0  0  0  0  0  0
  -21.2956   -7.1863   21.7213 O   0  0  0  0  0  0  0  0  0  0  0  0
  -28.6828  -23.2392   19.0151 O   0  0  0  0  0  0  0  0  0  1  0  0
  -23.0872   -3.3959   25.3028 F   0  0  0  0  0  0  0  0  0  0  0  0
  -19.8350   -6.5735   23.9871 F   0  0  0  0  0  0  0  0  0  0  0  0
  1  2  1  0  0  0  0
  1  5  2  0  0  0  0
  2  6  2  0  0  0  0
  3  8  2  0  0  0  0
  3 16  1  0  0  0  0
  4  9  1  0  0  0  0
  4 16  2  0  0  0  0
  5 19  1  0  0  0  0
  6 21  1  0  0  0  0
  7 10  2  0  0  0  0
  7 20  1  0  0  0  0
  8 24  1  0  0  0  0
  9 24  2  0  0  0  0
 10 25  1  0  0  0  0
 11 12  2  0  0  0  0
 11 26  1  0  0  0  0
 12 27  1  0  0  0  0
 13 17  2  0  0  0  0
 13 30  1  0  0  0  0
 14 22  1  0  0  0  0
 14 25  2  0  0  0  0
 15 27  2  0  0  0  0
 15 28  1  0  0  0  0
 16 29  1  0  0  0  0
 17 23  1  0  0  0  0
 17 33  1  0  0  0  0
 18 29  1  0  0  0  0
 18 32  2  0  0  0  0
 18 34  1  0  0  0  0
 19 21  2  0  0  0  0
 19 38  1  0  0  0  0
 20 22  2  0  0  0  0
 20 39  1  0  0  0  0
 21 47  1  0  0  0  0
 22 40  1  0  0  0  0
 23 31  2  0  0  0  0
 23 50  1  0  0  0  0
 24 79  1  0  0  0  0
 25 80  1  0  0  0  0
 26 28  2  0  0  0  0
 26 79  1  0  0  0  0
 27 81  1  0  0  0  0
 28 82  1  0  0  0  0
 29 64  2  0  0  0  0
 30 57  1  0  0  0  0
 30 65  2  0  0  0  0
 31 51  1  0  0  0  0
 31 65  1  0  0  0  0
 32 66  1  0  0  0  0
 32 69  1  0  0  0  0
 33 67  1  0  0  0  0
 33 74  2  0  0  0  0
 34 70  1  0  0  0  0
 34 75  2  0  0  0  0
 35 48  1  0  0  0  0
 35 71  1  0  0  0  0
 35 76  2  0  0  0  0
 36 61  1  0  0  0  0
 36 68  1  0  0  0  0
 36 77  2  0  0  0  0
 37 62  1  0  0  0  0
 37 72  1  0  0  0  0
 37 78  2  0  0  0  0
 38 41  1  0  0  0  0
 39 48  1  0  0  0  0
 40 68  1  0  0  0  0
 41 43  1  0  0  0  0
 42 44  1  0  0  0  0
 42 45  1  0  0  0  0
 43 47  1  0  0  0  0
 44 49  1  0  0  0  0
 45 67  1  0  0  0  0
 46 49  1  0  0  0  0
 46 67  1  0  0  0  0
 47 71  1  0  0  0  0
 48 68  1  0  0  0  0
 49 66  1  0  0  0  0
 52 62  1  0  0  0  0
 53 63  1  0  0  0  0
 54 63  1  0  0  0  0
 55 63  1  0  0  0  0
 56 73  1  0  0  0  0
 57 58  1  0  0  0  0
 58 59  1  0  0  0  0
 59 60  1  0  0  0  0
 60 80  1  0  0  0  0
 61 63  1  0  0  0  0
 61 72  1  0  0  0  0
 62 73  1  0  0  0  0
 64 66  1  0  0  0  0
M  CHG  1  73   1
M  ISO  4  17 100  33 100  60 101  80 101
M  END
> <Batch ID>
0092

> <Smiles>
CNC(C)C(=O)NC(C(=O)N1Cc2cc([101O:1][101CH2:1]CCCc3c[100c:0]([100C:0](=O)N4CCCC(n5nc(-c6ccc(Oc7ccc(F)cc7F)cc6)c(C(N)=O)c5N)C4)c(C)c(C)n3)ccc2CC1C(=O)NC1CCCc2ccccc21)C(C)(C)C

> <Shape>
0.227

> <Color>
0.207

> <Negative vol penalty>
0.000

$$$$

  -OEChem-04052319143D

 85 93  0     1  0  0  0  0  0999 V2000
  -23.1318   -8.0624   20.5542 C   0  0  0  0  0  0  0  0  0  0  0  0
  -22.4139   -9.1363   20.0378 C   0  0  0  0  0  0  0  0  0  0  0  0
  -23.8932  -31.0947   21.7758 C   0  0  0  0  0  0  0  0  0  0  0  0
  -23.8671  -29.2870   23.3784 C   0  0  0  0  0  0  0  0  0  0  0  0
  -24.0482   -8.2688   21.5846 C   0  0  0  0  0  0  0  0  0  0  0  0
  -22.6111  -10.4172   20.5523 C   0  0  0  0  0  0  0  0  0  0  0  0
  -22.6156  -17.2964   18.5541 C   0  0  0  0  0  0  0  0  0  0  0  0
  -22.5014  -31.1657   21.8332 C   0  0  0  0  0  0  0  0  0  0  0  0
  -22.4752  -29.3580   23.4359 C   0  0  0  0  0  0  0  0  0  0  0  0
  -22.0562  -18.5223   18.9119 C   0  0  0  0  0  0  0  0  0  0  0  0
  -19.8493  -28.3368   21.5670 C   0  0  0  0  0  0  0  0  0  0  0  0
  -19.1367  -27.1387   21.5187 C   0  0  0  0  0  0  0  0  0  0  0  0
  -23.7231  -18.7724   20.6376 C   0  0  0  0  0  0  0  0  0  0  0  0
  -25.0952  -24.5148   19.3707 C   0  0  0  0  0  0  0  0  0  0  0  0
  -25.6707  -23.1877   21.2922 C   0  0  0  0  0  0  0  0  0  0  0  0
  -18.1786  -27.6213   23.6835 C   0  0  0  0  0  0  0  0  0  0  0  0
  -24.5761  -30.1553   22.5484 C   0  0  0  0  0  0  0  0  0  0  0  0
  -26.9350  -30.7796   23.2924 C   0  0  0  0  0  0  0  0  0  0  0  0
  -24.2638   -9.5545   22.1054 C   0  0  0  0  0  0  0  0  0  0  0  0
  -23.7282  -16.7934   19.2436 C   0  0  0  0  0  0  0  0  0  0  0  0
  -23.5302  -10.6409   21.5915 C   0  0  0  0  0  0  0  0  0  0  0  0
  -24.2963  -17.5410   20.2849 C   0  0  0  0  0  0  0  0  0  0  0  0
  -24.7218  -23.8849   20.5527 C   0  0  0  0  0  0  0  0  0  0  0  0
  -21.7923  -30.2974   22.6632 C   0  0  0  0  0  0  0  0  0  0  0  0
  -22.6082  -19.2591   19.9557 C   0  0  0  0  0  0  0  0  0  0  0  0
  -19.7267  -29.1771   22.6736 C   0  0  0  0  0  0  0  0  0  0  0  0
  -18.3013  -26.7809   22.5769 C   0  0  0  0  0  0  0  0  0  0  0  0
  -18.8913  -28.8194   23.7318 C   0  0  0  0  0  0  0  0  0  0  0  0
  -26.0138  -30.0810   22.4891 C   0  0  0  0  0  0  0  0  0  0  0  0
  -26.4195  -24.4185   18.9748 C   0  0  0  0  0  0  0  0  0  0  0  0
  -26.9692  -23.1507   20.8102 C   0  0  0  0  0  0  0  0  0  0  0  0
  -28.1652  -30.3639   22.8449 C   0  0  0  0  0  0  0  0  0  0  0  0
  -26.6996  -31.7200   24.3487 C   0  0  0  0  0  0  0  0  0  0  0  0
  -24.2958  -14.2074   21.0028 C   0  0  0  0  0  0  0  0  0  0  0  0
  -27.3400  -15.3270   20.9648 C   0  0  0  0  0  0  0  0  0  0  0  0
  -29.4424  -17.9928   20.6181 C   0  0  0  0  0  0  0  0  0  0  0  0
  -30.0286  -25.3993   20.0643 C   0  0  0  0  0  0  0  0  0  0  0  0
  -25.2302   -9.7209   23.2512 C   0  0  0  0  0  0  0  0  0  0  0  0
  -24.3362  -15.4819   18.8279 C   0  0  0  0  0  0  0  0  0  0  0  0
  -25.5031  -17.0547   21.0436 C   0  0  0  0  0  0  0  0  0  0  0  0
  -25.6537  -11.1687   23.4855 C   0  0  0  0  0  0  0  0  0  0  0  0
  -30.3727  -28.7525   18.9179 C   0  0  0  0  0  0  0  0  0  0  0  0
  -24.4381  -12.0899   23.4682 C   0  0  0  0  0  0  0  0  0  0  0  0
  -29.3777  -29.5363   19.7756 C   0  0  0  0  0  0  0  0  0  0  0  0
  -29.8436  -27.3638   18.5666 C   0  0  0  0  0  0  0  0  0  0  0  0
  -28.4229  -27.3363   20.5802 C   0  0  0  0  0  0  0  0  0  0  0  0
  -23.7344  -12.0492   22.1063 C   0  0  1  0  0  0  0  0  0  0  0  0
  -25.1543  -14.8248   19.9353 C   0  0  1  0  0  0  0  0  0  0  0  0
  -28.9359  -28.7224   21.0067 C   0  0  2  0  0  0  0  0  0  0  0  0
  -26.8557  -25.0823   17.7115 C   0  0  0  0  0  0  0  0  0  0  0  0
  -31.8759  -18.6030   20.6758 C   0  0  0  0  0  0  0  0  0  0  0  0
  -27.3082  -15.1557   24.0110 C   0  0  0  0  0  0  0  0  0  0  0  0
  -29.3305  -16.6313   24.0456 C   0  0  0  0  0  0  0  0  0  0  0  0
  -29.4391  -14.3951   22.9456 C   0  0  0  0  0  0  0  0  0  0  0  0
  -27.5322  -21.7827   22.8032 C   0  0  0  0  0  0  0  0  0  0  0  0
  -29.3958  -18.9199   17.8079 C   0  0  0  0  0  0  0  0  0  0  0  0
  -23.2935  -23.9576   21.0305 C   0  0  0  0  0  0  0  0  0  0  0  0
  -22.4112  -22.8210   20.5097 C   0  0  0  0  0  0  0  0  0  0  0  0
  -30.1120  -23.5069   21.6677 C   0  0  0  0  0  0  0  0  0  0  0  0
  -29.2958  -22.3449   21.1232 C   0  0  0  0  0  0  0  0  0  0  0  0
  -22.9462  -21.4356   20.8528 C   0  0  0  0  0  0  0  0  0  1  0  0
  -28.1463  -16.2618   21.8338 C   0  0  1  0  0  0  0  0  0  0  0  0
  -30.7076  -18.1782   19.7999 C   0  0  2  0  0  0  0  0  0  0  0  0
  -28.5321  -15.6195   23.1962 C   0  0  0  0  0  0  0  0  0  0  0  0
  -26.6080  -29.2823   21.5986 N   0  0  0  0  0  0  0  0  0  0  0  0
  -27.3695  -23.7503   19.6665 N   0  0  0  0  0  0  0  0  0  0  0  0
  -27.9158  -29.4765   21.8396 N   0  0  0  0  0  0  0  0  0  0  0  0
  -26.0575  -15.7637   20.6038 N   0  0  0  0  0  0  0  0  0  0  0  0
  -29.4434  -26.6437   19.7779 N   0  0  0  0  0  0  0  0  0  0  0  0
  -29.4251  -30.6747   23.2170 N   0  0  0  0  0  0  0  0  0  0  0  0
  -25.3747  -32.0344   24.6806 N   0  0  0  0  0  0  0  0  0  0  0  0
  -24.4610  -12.8422   21.1380 N   0  0  0  0  0  0  0  0  0  0  0  0
  -29.2867  -16.6858   21.0288 N   0  0  0  0  0  0  0  0  0  0  0  0
  -29.5978  -24.7872   21.2350 N   0  0  0  0  0  0  0  0  0  0  0  0
  -27.9250  -22.4363   21.5745 N   0  0  3  0  0  0  0  0  0  0  0  0
  -30.5005  -19.2202   18.7547 N   0  3  0  0  0  0  0  0  0  0  0  0
  -27.6367  -32.2779   24.9686 O   0  0  0  0  0  0  0  0  0  0  0  0
  -23.5405  -14.9174   21.6564 O   0  0  0  0  0  0  0  0  0  0  0  0
  -27.8328  -14.2522   20.6132 O   0  0  0  0  0  0  0  0  0  0  0  0
  -28.6715  -18.9160   20.8711 O   0  0  0  0  0  0  0  0  0  0  0  0
  -30.8763  -24.8753   19.3338 O   0  0  0  0  0  0  0  0  0  0  0  0
  -20.4342  -30.3666   22.7197 O   0  0  0  0  0  0  0  0  0  0  0  0
  -22.0637  -20.4557   20.3074 O   0  0  0  0  0  0  0  0  0  1  0  0
  -17.6159  -25.6311   22.5297 F   0  0  0  0  0  0  0  0  0  0  0  0
  -18.7685  -29.6232   24.7970 F   0  0  0  0  0  0  0  0  0  0  0  0
  1  2  1  0  0  0  0
  1  5  2  0  0  0  0
  2  6  2  0  0  0  0
  3  8  2  0  0  0  0
  3 17  1  0  0  0  0
  4  9  1  0  0  0  0
  4 17  2  0  0  0  0
  5 19  1  0  0  0  0
  6 21  1  0  0  0  0
  7 10  2  0  0  0  0
  7 20  1  0  0  0  0
  8 24  1  0  0  0  0
  9 24  2  0  0  0  0
 10 25  1  0  0  0  0
 11 12  2  0  0  0  0
 11 26  1  0  0  0  0
 12 27  1  0  0  0  0
 13 22  1  0  0  0  0
 13 25  2  0  0  0  0
 14 23  1  0  0  0  0
 14 30  2  0  0  0  0
 15 23  2  0  0  0  0
 15 31  1  0  0  0  0
 16 27  2  0  0  0  0
 16 28  1  0  0  0  0
 17 29  1  0  0  0  0
 18 29  1  0  0  0  0
 18 32  2  0  0  0  0
 18 33  1  0  0  0  0
 19 21  2  0  0  0  0
 19 38  1  0  0  0  0
 20 22  2  0  0  0  0
 20 39  1  0  0  0  0
 21 47  1  0  0  0  0
 22 40  1  0  0  0  0
 23 57  1  0  0  0  0
 24 82  1  0  0  0  0
 25 83  1  0  0  0  0
 26 28  2  0  0  0  0
 26 82  1  0  0  0  0
 27 84  1  0  0  0  0
 28 85  1  0  0  0  0
 29 65  2  0  0  0  0
 30 50  1  0  0  0  0
 30 66  1  0  0  0  0
 31 66  2  0  0  0  0
 31 75  1  0  0  0  0
 32 67  1  0  0  0  0
 32 70  1  0  0  0  0
 33 71  1  0  0  0  0
 33 77  2  0  0  0  0
 34 48  1  0  0  0  0
 34 72  1  0  0  0  0
 34 78  2  0  0  0  0
 35 62  1  0  0  0  0
 35 68  1  0  0  0  0
 35 79  2  0  0  0  0
 36 63  1  0  0  0  0
 36 73  1  0  0  0  0
 36 80  2  0  0  0  0
 37 69  1  0  0  0  0
 37 74  1  0  0  0  0
 37 81  2  0  0  0  0
 38 41  1  0  0  0  0
 39 48  1  0  0  0  0
 40 68  1  0  0  0  0
 41 43  1  0  0  0  0
 42 44  1  0  0  0  0
 42 45  1  0  0  0  0
 43 47  1  0  0  0  0
 44 49  1  0  0  0  0
 45 69  1  0  0  0  0
 46 49  1  0  0  0  0
 46 69  1  0  0  0  0
 47 72  1  0  0  0  0
 48 68  1  0  0  0  0
 49 67  1  0  0  0  0
 51 63  1  0  0  0  0
 52 64  1  0  0  0  0
 53 64  1  0  0  0  0
 54 64  1  0  0  0  0
 55 75  1  0  0  0  0
 56 76  1  0  0  0  0
 57 58  1  0  0  0  0
 58 61  1  0  0  0  0
 59 60  1  0  0  0  0
 59 74  1  0  0  0  0
 60 75  1  0  0  0  0
 61 83  1  0  0  0  0
 62 64  1  0  0  0  0
 62 73  1  0  0  0  0
 63 76  1  0  0  0  0
 65 67  1  0  0  0  0
M  CHG  1  76   1
M  ISO  4  37 100  61 101  74 100  83 101
M  END
> <Batch ID>
0092

> <Smiles>
CNC(C)C(=O)NC(C(=O)N1Cc2cc([101O:1][101CH2:1]CCc3cc(C)nc(N(C)CC[100NH:0][100C:0](=O)N4CCCC(n5nc(-c6ccc(Oc7ccc(F)cc7F)cc6)c(C(N)=O)c5N)C4)c3)ccc2CC1C(=O)NC1CCCc2ccccc21)C(C)(C)C

> <Shape>
0.293

> <Color>
0.052

> <Negative vol penalty>
0.000

$$$$

  -OEChem-04052319143D

 86 94  0     1  0  0  0  0  0999 V2000
  -23.2139  -20.4097   12.5925 C   0  0  0  0  0  0  0  0  0  0  0  0
  -23.8471  -20.5846   13.8189 C   0  0  0  0  0  0  0  0  0  0  0  0
  -22.9986   -9.8998   19.9780 C   0  0  0  0  0  0  0  0  0  0  0  0
  -23.7342   -9.9377   22.2789 C   0  0  0  0  0  0  0  0  0  0  0  0
  -23.3088  -21.3975   11.6132 C   0  0  0  0  0  0  0  0  0  0  0  0
  -24.5766  -21.7470   14.0661 C   0  0  0  0  0  0  0  0  0  0  0  0
  -23.6317  -23.6970   18.6432 C   0  0  0  0  0  0  0  0  0  0  0  0
  -22.2336   -8.7636   20.2412 C   0  0  0  0  0  0  0  0  0  0  0  0
  -22.9691   -8.8014   22.5422 C   0  0  0  0  0  0  0  0  0  0  0  0
  -24.2478  -23.0868   19.7348 C   0  0  0  0  0  0  0  0  0  0  0  0
  -21.4939   -5.7011   23.7344 C   0  0  0  0  0  0  0  0  0  0  0  0
  -22.0836   -4.6811   24.4811 C   0  0  0  0  0  0  0  0  0  0  0  0
  -25.9248  -24.8208   19.7499 C   0  0  0  0  0  0  0  0  0  0  0  0
  -28.3735  -21.4533   18.8501 C   0  0  0  0  0  0  0  0  0  0  0  0
  -23.8024   -4.4441   22.7998 C   0  0  0  0  0  0  0  0  0  0  0  0
  -23.7490  -10.4868   20.9968 C   0  0  0  0  0  0  0  0  0  0  0  0
  -24.1329  -13.0035   20.8336 C   0  0  0  0  0  0  0  0  0  0  0  0
  -24.0317  -22.5769   11.8520 C   0  0  0  0  0  0  0  0  0  0  0  0
  -24.1646  -24.8697   18.0889 C   0  0  0  0  0  0  0  0  0  0  0  0
  -24.6823  -22.7509   13.0885 C   0  0  0  0  0  0  0  0  0  0  0  0
  -25.3120  -25.4454   18.6528 C   0  0  0  0  0  0  0  0  0  0  0  0
  -28.5380  -20.7885   20.0903 C   0  0  0  0  0  0  0  0  0  0  0  0
  -22.2188   -8.2144   21.5233 C   0  0  0  0  0  0  0  0  0  0  0  0
  -25.3962  -23.6471   20.2865 C   0  0  0  0  0  0  0  0  0  0  0  0
  -22.0584   -6.0925   22.5204 C   0  0  0  0  0  0  0  0  0  0  0  0
  -23.2379   -4.0526   24.0138 C   0  0  0  0  0  0  0  0  0  0  0  0
  -23.2127   -5.4640   22.0531 C   0  0  0  0  0  0  0  0  0  0  0  0
  -24.5399  -11.6602   20.7254 C   0  0  0  0  0  0  0  0  0  0  0  0
  -28.5603  -20.5196   17.8549 C   0  0  0  0  0  0  0  0  0  0  0  0
  -28.8205  -19.4687   19.8152 C   0  0  0  0  0  0  0  0  0  0  0  0
  -25.2408  -13.7285   20.4683 C   0  0  0  0  0  0  0  0  0  0  0  0
  -22.8666  -13.5473   21.2290 C   0  0  0  0  0  0  0  0  0  0  0  0
  -25.3494  -25.6721   15.2506 C   0  0  0  0  0  0  0  0  0  0  0  0
  -25.4211  -28.6414   16.5547 C   0  0  0  0  0  0  0  0  0  0  0  0
  -25.5348  -30.5673   19.3698 C   0  0  0  0  0  0  0  0  0  0  0  0
  -30.7380  -14.6631   20.6973 C   0  0  0  0  0  0  0  0  0  0  0  0
  -24.1453  -23.5954   10.7455 C   0  0  0  0  0  0  0  0  0  0  0  0
  -23.4728  -25.5304   16.9281 C   0  0  0  0  0  0  0  0  0  0  0  0
  -25.9123  -26.7146   18.1076 C   0  0  0  0  0  0  0  0  0  0  0  0
  -24.6258  -24.9632   11.2237 C   0  0  0  0  0  0  0  0  0  0  0  0
  -29.5873  -12.2527   18.3431 C   0  0  0  0  0  0  0  0  0  0  0  0
  -25.8284  -24.8128   12.1499 C   0  0  0  0  0  0  0  0  0  0  0  0
  -28.1408  -11.9902   18.7657 C   0  0  0  0  0  0  0  0  0  0  0  0
  -30.4951  -12.4813   19.5496 C   0  0  0  0  0  0  0  0  0  0  0  0
  -28.5909  -13.2686   20.9016 C   0  0  0  0  0  0  0  0  0  0  0  0
  -25.4623  -24.0090   13.4034 C   0  0  1  0  0  0  0  0  0  0  0  0
  -24.3951  -26.4393   16.1215 C   0  0  1  0  0  0  0  0  0  0  0  0
  -27.6265  -13.0875   19.7168 C   0  0  2  0  0  0  0  0  0  0  0  0
  -28.5018  -20.6763   16.3870 C   0  0  0  0  0  0  0  0  0  0  0  0
  -28.0979  -16.1296   16.5050 C   0  0  0  0  0  0  0  0  0  0  0  0
  -25.6215  -32.9616   20.1163 C   0  0  0  0  0  0  0  0  0  0  0  0
  -28.3708  -28.7719   15.7852 C   0  0  0  0  0  0  0  0  0  0  0  0
  -28.6232  -30.7053   17.3557 C   0  0  0  0  0  0  0  0  0  0  0  0
  -27.0955  -30.8870   15.3920 C   0  0  0  0  0  0  0  0  0  0  0  0
  -22.9700  -30.3270   20.8269 C   0  0  0  0  0  0  0  0  0  0  0  0
  -28.4226  -21.4173   21.4559 C   0  0  0  0  0  0  0  0  0  0  0  0
  -29.0809  -18.3389   20.7327 C   0  0  0  0  0  0  0  0  0  0  0  0
  -27.8083  -17.4355   17.2266 C   0  0  0  0  0  0  0  0  0  0  0  0
  -27.1114  -21.0925   22.1747 C   0  0  0  0  0  0  0  0  0  0  0  0
  -30.5739  -17.9754   20.9104 C   0  0  0  0  0  0  0  0  0  0  0  0
  -29.0906  -18.0763   17.7529 C   0  0  0  0  0  0  0  0  0  0  0  0
  -30.8256  -16.8352   21.8947 C   0  0  0  0  0  0  0  0  0  0  0  0
  -25.8799  -21.6352   21.4589 C   0  0  0  0  0  0  0  0  0  1  0  0
  -26.4283  -29.4351   17.3513 C   0  0  1  0  0  0  0  0  0  0  0  0
  -24.7230  -31.7772   19.7959 C   0  0  2  0  0  0  0  0  0  0  0  0
  -27.6195  -29.9248   16.4803 C   0  0  0  0  0  0  0  0  0  0  0  0
  -25.8074  -11.5363   20.3227 N   0  0  0  0  0  0  0  0  0  0  0  0
  -28.8318  -19.3169   18.4532 N   0  0  0  0  0  0  0  0  0  0  0  0
  -26.2064  -12.8111   20.1746 N   0  0  0  0  0  0  0  0  0  0  0  0
  -25.2031  -27.3195   16.9681 N   0  0  0  0  0  0  0  0  0  0  0  0
  -29.9519  -13.5350   20.4102 N   0  0  0  0  0  0  0  0  0  0  0  0
  -25.4735  -15.0548   20.3729 N   0  0  0  0  0  0  0  0  0  0  0  0
  -21.8366  -12.6609   21.5721 N   0  0  0  0  0  0  0  0  0  0  0  0
  -24.7320  -24.8368   14.3392 N   0  0  0  0  0  0  0  0  0  0  0  0
  -25.6818  -30.5076   18.0001 N   0  0  0  0  0  0  0  0  0  0  0  0
  -30.1451  -15.6170   21.5154 N   0  0  0  0  0  0  0  0  0  0  0  0
  -23.9155  -31.4586   21.0073 N   0  3  0  0  0  0  0  0  0  0  0  0
  -22.6497  -14.7824   21.2609 O   0  0  0  0  0  0  0  0  0  0  0  0
  -26.5564  -25.8277   15.3937 O   0  0  0  0  0  0  0  0  0  0  0  0
  -24.8437  -29.1768   15.6052 O   0  0  0  0  0  0  0  0  0  0  0  0
  -25.9958  -29.7583   20.1720 O   0  0  0  0  0  0  0  0  0  0  0  0
  -31.8814  -14.8119   20.2529 O   0  0  0  0  0  0  0  0  0  0  0  0
  -21.4722   -7.1058   21.7807 O   0  0  0  0  0  0  0  0  0  0  0  0
  -26.0000  -23.0531   21.3517 O   0  0  0  0  0  0  0  0  0  1  0  0
  -23.8049   -3.0742   24.7317 F   0  0  0  0  0  0  0  0  0  0  0  0
  -23.7602   -5.8365   20.8881 F   0  0  0  0  0  0  0  0  0  0  0  0
  1  2  1  0  0  0  0
  1  5  2  0  0  0  0
  2  6  2  0  0  0  0
  3  8  2  0  0  0  0
  3 16  1  0  0  0  0
  4  9  1  0  0  0  0
  4 16  2  0  0  0  0
  5 18  1  0  0  0  0
  6 20  1  0  0  0  0
  7 10  2  0  0  0  0
  7 19  1  0  0  0  0
  8 23  1  0  0  0  0
  9 23  2  0  0  0  0
 10 24  1  0  0  0  0
 11 12  2  0  0  0  0
 11 25  1  0  0  0  0
 12 26  1  0  0  0  0
 13 21  1  0  0  0  0
 13 24  2  0  0  0  0
 14 22  1  0  0  0  0
 14 29  2  0  0  0  0
 15 26  2  0  0  0  0
 15 27  1  0  0  0  0
 16 28  1  0  0  0  0
 17 28  1  0  0  0  0
 17 31  2  0  0  0  0
 17 32  1  0  0  0  0
 18 20  2  0  0  0  0
 18 37  1  0  0  0  0
 19 21  2  0  0  0  0
 19 38  1  0  0  0  0
 20 46  1  0  0  0  0
 21 39  1  0  0  0  0
 22 30  2  0  0  0  0
 22 56  1  0  0  0  0
 23 83  1  0  0  0  0
 24 84  1  0  0  0  0
 25 27  2  0  0  0  0
 25 83  1  0  0  0  0
 26 85  1  0  0  0  0
 27 86  1  0  0  0  0
 28 67  2  0  0  0  0
 29 49  1  0  0  0  0
 29 68  1  0  0  0  0
 30 57  1  0  0  0  0
 30 68  1  0  0  0  0
 31 69  1  0  0  0  0
 31 72  1  0  0  0  0
 32 73  1  0  0  0  0
 32 78  2  0  0  0  0
 33 47  1  0  0  0  0
 33 74  1  0  0  0  0
 33 79  2  0  0  0  0
 34 64  1  0  0  0  0
 34 70  1  0  0  0  0
 34 80  2  0  0  0  0
 35 65  1  0  0  0  0
 35 75  1  0  0  0  0
 35 81  2  0  0  0  0
 36 71  1  0  0  0  0
 36 76  1  0  0  0  0
 36 82  2  0  0  0  0
 37 40  1  0  0  0  0
 38 47  1  0  0  0  0
 39 70  1  0  0  0  0
 40 42  1  0  0  0  0
 41 43  1  0  0  0  0
 41 44  1  0  0  0  0
 42 46  1  0  0  0  0
 43 48  1  0  0  0  0
 44 71  1  0  0  0  0
 45 48  1  0  0  0  0
 45 71  1  0  0  0  0
 46 74  1  0  0  0  0
 47 70  1  0  0  0  0
 48 69  1  0  0  0  0
 50 58  1  0  0  0  0
 51 65  1  0  0  0  0
 52 66  1  0  0  0  0
 53 66  1  0  0  0  0
 54 66  1  0  0  0  0
 55 77  1  0  0  0  0
 56 59  1  0  0  0  0
 57 60  1  0  0  0  0
 58 61  1  0  0  0  0
 59 63  1  0  0  0  0
 60 62  1  0  0  0  0
 61 68  1  0  0  0  0
 62 76  1  0  0  0  0
 63 84  1  0  0  0  0
 64 66  1  0  0  0  0
 64 75  1  0  0  0  0
 65 77  1  0  0  0  0
 67 69  1  0  0  0  0
M  CHG  1  77   1
M  ISO  4  36 100  63 101  76 100  84 101
M  END
> <Batch ID>
0092

> <Smiles>
CCCn1c(C)cc(CC[101CH2:1][101O:1]c2ccc3c(c2)CN(C(=O)C(NC(=O)C(C)NC)C(C)(C)C)C(C(=O)NC2CCCc4ccccc42)C3)c1CCC[100NH:0][100C:0](=O)N1CCCC(n2nc(-c3ccc(Oc4ccc(F)cc4F)cc3)c(C(N)=O)c2N)C1

> <Shape>
0.252

> <Color>
0.202

> <Negative vol penalty>
0.000

$$$$

  -OEChem-04052319143D

 84 92  0     1  0  0  0  0  0999 V2000
  -39.5354  -25.4733   23.6987 C   0  0  0  0  0  0  0  0  0  0  0  0
  -39.1629  -24.1843   23.3310 C   0  0  0  0  0  0  0  0  0  0  0  0
  -23.2558   -9.8278   19.8851 C   0  0  0  0  0  0  0  0  0  0  0  0
  -23.8052   -9.9040   22.2365 C   0  0  0  0  0  0  0  0  0  0  0  0
  -38.5711  -26.4757   23.7946 C   0  0  0  0  0  0  0  0  0  0  0  0
  -37.8256  -23.8967   23.0601 C   0  0  0  0  0  0  0  0  0  0  0  0
  -37.2484  -21.1019   18.8767 C   0  0  0  0  0  0  0  0  0  0  0  0
  -22.5445   -8.6455   20.0895 C   0  0  0  0  0  0  0  0  0  0  0  0
  -23.0938   -8.7217   22.4411 C   0  0  0  0  0  0  0  0  0  0  0  0
  -37.5132  -19.7371   18.9812 C   0  0  0  0  0  0  0  0  0  0  0  0
  -19.8632   -7.7854   22.7682 C   0  0  0  0  0  0  0  0  0  0  0  0
  -19.0065   -7.7282   23.8675 C   0  0  0  0  0  0  0  0  0  0  0  0
  -35.1477  -19.2976   19.1552 C   0  0  0  0  0  0  0  0  0  0  0  0
  -31.5599  -16.8239   19.2843 C   0  0  0  0  0  0  0  0  0  0  0  0
  -20.2615   -5.8611   24.7484 C   0  0  0  0  0  0  0  0  0  0  0  0
  -33.0786  -15.9515   20.6993 C   0  0  0  0  0  0  0  0  0  0  0  0
  -23.8862  -10.4570   20.9586 C   0  0  0  0  0  0  0  0  0  0  0  0
  -24.1248  -12.9931   20.8215 C   0  0  0  0  0  0  0  0  0  0  0  0
  -37.2227  -26.2025   23.5153 C   0  0  0  0  0  0  0  0  0  0  0  0
  -35.9296  -21.5765   18.9217 C   0  0  0  0  0  0  0  0  0  0  0  0
  -36.8421  -24.8961   23.1536 C   0  0  0  0  0  0  0  0  0  0  0  0
  -34.8686  -20.6686   19.0485 C   0  0  0  0  0  0  0  0  0  0  0  0
  -31.8477  -16.5676   20.6476 C   0  0  0  0  0  0  0  0  0  0  0  0
  -22.4634   -8.0925   21.3675 C   0  0  0  0  0  0  0  0  0  0  0  0
  -36.4630  -18.8349   19.1234 C   0  0  0  0  0  0  0  0  0  0  0  0
  -20.9190   -6.8804   22.6590 C   0  0  0  0  0  0  0  0  0  0  0  0
  -19.2056   -6.7661   24.8576 C   0  0  0  0  0  0  0  0  0  0  0  0
  -21.1182   -5.9183   23.6491 C   0  0  0  0  0  0  0  0  0  0  0  0
  -24.6216  -11.6780   20.7479 C   0  0  0  0  0  0  0  0  0  0  0  0
  -32.6237  -16.3566   18.5444 C   0  0  0  0  0  0  0  0  0  0  0  0
  -25.2108  -13.7865   20.5430 C   0  0  0  0  0  0  0  0  0  0  0  0
  -22.8001  -13.4562   21.1156 C   0  0  0  0  0  0  0  0  0  0  0  0
  -34.3040  -23.5035   20.8577 C   0  0  0  0  0  0  0  0  0  0  0  0
  -31.9734  -23.1329   18.6321 C   0  0  0  0  0  0  0  0  0  0  0  0
  -30.6310  -21.2391   16.1305 C   0  0  0  0  0  0  0  0  0  0  0  0
  -31.0210  -13.5316   21.6655 C   0  0  0  0  0  0  0  0  0  0  0  0
  -36.2093  -27.3076   23.6784 C   0  0  0  0  0  0  0  0  0  0  0  0
  -35.6591  -23.0494   18.7808 C   0  0  0  0  0  0  0  0  0  0  0  0
  -33.4338  -21.1254   19.0818 C   0  0  0  0  0  0  0  0  0  0  0  0
  -34.8695  -27.0087   23.0107 C   0  0  0  0  0  0  0  0  0  0  0  0
  -29.5523  -13.1138   18.2936 C   0  0  0  0  0  0  0  0  0  0  0  0
  -34.4089  -25.5941   23.3478 C   0  0  0  0  0  0  0  0  0  0  0  0
  -28.1009  -12.7524   18.6049 C   0  0  0  0  0  0  0  0  0  0  0  0
  -30.4971  -12.6785   19.4095 C   0  0  0  0  0  0  0  0  0  0  0  0
  -28.6670  -12.8305   21.0654 C   0  0  0  0  0  0  0  0  0  0  0  0
  -35.4052  -24.5509   22.8278 C   0  0  1  0  0  0  0  0  0  0  0  0
  -34.3089  -23.4666   19.3556 C   0  0  1  0  0  0  0  0  0  0  0  0
  -27.6832  -13.2970   19.9819 C   0  0  2  0  0  0  0  0  0  0  0  0
  -32.8408  -16.3703   17.0829 C   0  0  0  0  0  0  0  0  0  0  0  0
  -28.7032  -21.1763   14.5251 C   0  0  0  0  0  0  0  0  0  0  0  0
  -37.3845  -16.9472   21.4642 C   0  0  0  0  0  0  0  0  0  0  0  0
  -30.1153  -22.2883   20.9001 C   0  0  0  0  0  0  0  0  0  0  0  0
  -28.5572  -21.3486   19.1803 C   0  0  0  0  0  0  0  0  0  0  0  0
  -29.0672  -23.7904   19.1974 C   0  0  0  0  0  0  0  0  0  0  0  0
  -31.2754  -14.5475   23.8977 C   0  0  0  0  0  0  0  0  0  0  0  0
  -32.4331  -21.2940   13.7836 C   0  0  0  0  0  0  0  0  0  0  0  0
  -30.9887  -16.8991   21.8003 C   0  0  0  0  0  0  0  0  0  0  0  0
  -35.9564  -15.3832   20.0971 C   0  0  0  0  0  0  0  0  0  0  0  0
  -34.8601  -15.2038   19.0370 C   0  0  0  0  0  0  0  0  0  0  0  0
  -29.9981  -15.7860   22.1889 C   0  0  0  0  0  0  0  0  0  0  0  0
  -30.8381  -22.1598   18.4248 C   0  0  1  0  0  0  0  0  0  0  0  0
  -30.1465  -21.6051   14.7392 C   0  0  2  0  0  0  0  0  0  0  0  0
  -36.2828  -16.8473   20.4168 C   0  0  2  0  0  0  0  0  0  1  0  0
  -29.6715  -22.3880   19.4270 C   0  0  0  0  0  0  0  0  0  0  0  0
  -25.9220  -11.6342   20.4460 N   0  0  0  0  0  0  0  0  0  0  0  0
  -33.5407  -15.8281   19.4150 N   0  0  0  0  0  0  0  0  0  0  0  0
  -26.2515  -12.9317   20.3274 N   0  0  0  0  0  0  0  0  0  0  0  0
  -33.2210  -22.5759   18.9468 N   0  0  0  0  0  0  0  0  0  0  0  0
  -30.0529  -13.1736   20.7129 N   0  0  0  0  0  0  0  0  0  0  0  0
  -25.3675  -15.1250   20.4637 N   0  0  0  0  0  0  0  0  0  0  0  0
  -21.8034  -12.5065   21.3784 N   0  0  0  0  0  0  0  0  0  0  0  0
  -35.2406  -24.3611   21.4025 N   0  0  0  0  0  0  0  0  0  0  0  0
  -30.4524  -22.2752   17.0225 N   0  0  0  0  0  0  0  0  0  0  0  0
  -30.6842  -14.5525   22.5672 N   0  0  0  0  0  0  0  0  0  0  0  0
  -30.9917  -20.9432   13.7056 N   0  3  0  0  0  0  0  0  0  0  0  0
  -22.5052  -14.6753   21.1282 O   0  0  0  0  0  0  0  0  0  0  0  0
  -33.5084  -22.8066   21.4766 O   0  0  0  0  0  0  0  0  0  0  0  0
  -31.7628  -24.3424   18.5120 O   0  0  0  0  0  0  0  0  0  0  0  0
  -31.1157  -20.1423   16.3999 O   0  0  0  0  0  0  0  0  0  0  0  0
  -32.1271  -12.9773   21.7015 O   0  0  0  0  0  0  0  0  0  0  0  0
  -21.7692   -6.9389   21.5675 O   0  0  0  0  0  0  0  0  0  0  0  0
  -36.7187  -17.5023   19.2263 O   0  0  0  0  0  0  0  0  0  1  0  0
  -18.3838   -6.7123   25.9139 F   0  0  0  0  0  0  0  0  0  0  0  0
  -22.1315   -5.0469   23.5503 F   0  0  0  0  0  0  0  0  0  0  0  0
  1  2  1  0  0  0  0
  1  5  2  0  0  0  0
  2  6  2  0  0  0  0
  3  8  2  0  0  0  0
  3 17  1  0  0  0  0
  4  9  1  0  0  0  0
  4 17  2  0  0  0  0
  5 19  1  0  0  0  0
  6 21  1  0  0  0  0
  7 10  2  0  0  0  0
  7 20  1  0  0  0  0
  8 24  1  0  0  0  0
  9 24  2  0  0  0  0
 10 25  1  0  0  0  0
 11 12  2  0  0  0  0
 11 26  1  0  0  0  0
 12 27  1  0  0  0  0
 13 22  1  0  0  0  0
 13 25  2  0  0  0  0
 14 23  1  0  0  0  0
 14 30  2  0  0  0  0
 15 27  2  0  0  0  0
 15 28  1  0  0  0  0
 16 23  2  0  0  0  0
 16 66  1  0  0  0  0
 17 29  1  0  0  0  0
 18 29  1  0  0  0  0
 18 31  2  0  0  0  0
 18 32  1  0  0  0  0
 19 21  2  0  0  0  0
 19 37  1  0  0  0  0
 20 22  2  0  0  0  0
 20 38  1  0  0  0  0
 21 46  1  0  0  0  0
 22 39  1  0  0  0  0
 23 57  1  0  0  0  0
 24 81  1  0  0  0  0
 25 82  1  0  0  0  0
 26 28  2  0  0  0  0
 26 81  1  0  0  0  0
 27 83  1  0  0  0  0
 28 84  1  0  0  0  0
 29 65  2  0  0  0  0
 30 49  1  0  0  0  0
 30 66  1  0  0  0  0
 31 67  1  0  0  0  0
 31 70  1  0  0  0  0
 32 71  1  0  0  0  0
 32 76  2  0  0  0  0
 33 47  1  0  0  0  0
 33 72  1  0  0  0  0
 33 77  2  0  0  0  0
 34 61  1  0  0  0  0
 34 68  1  0  0  0  0
 34 78  2  0  0  0  0
 35 62  1  0  0  0  0
 35 73  1  0  0  0  0
 35 79  2  0  0  0  0
 36 69  1  0  0  0  0
 36 74  1  0  0  0  0
 36 80  2  0  0  0  0
 37 40  1  0  0  0  0
 38 47  1  0  0  0  0
 39 68  1  0  0  0  0
 40 42  1  0  0  0  0
 41 43  1  0  0  0  0
 41 44  1  0  0  0  0
 42 46  1  0  0  0  0
 43 48  1  0  0  0  0
 44 69  1  0  0  0  0
 45 48  1  0  0  0  0
 45 69  1  0  0  0  0
 46 72  1  0  0  0  0
 47 68  1  0  0  0  0
 48 67  1  0  0  0  0
 50 62  1  0  0  0  0
 51 63  1  0  0  0  0
 52 64  1  0  0  0  0
 53 64  1  0  0  0  0
 54 64  1  0  0  0  0
 55 74  1  0  0  0  0
 56 75  1  0  0  0  0
 57 60  1  0  0  0  0
 58 59  1  0  0  0  0
 58 63  1  0  0  0  0
 59 66  1  0  0  0  0
 60 74  1  0  0  0  0
 61 64  1  0  0  0  0
 61 73  1  0  0  0  0
 62 75  1  0  0  0  0
 63 82  1  0  0  0  0
 65 67  1  0  0  0  0
M  CHG  1  75   1
M  ISO  4  36 100  63 101  74 100  82 101
M  END
> <Batch ID>
0092

> <Smiles>
CNC(C)C(=O)NC(C(=O)N1Cc2cc([101O:1][101CH:1](C)CCn3cc(CC[100N:0](C)[100C:0](=O)N4CCCC(n5nc(-c6ccc(Oc7ccc(F)cc7F)cc6)c(C(N)=O)c5N)C4)cc3C)ccc2CC1C(=O)NC1CCCc2ccccc21)C(C)(C)C

> <Shape>
0.197

> <Color>
0.186

> <Negative vol penalty>
0.000

$$$$

  -OEChem-04052319143D

 90 98  0     1  0  0  0  0  0999 V2000
  -16.9627  -29.3049   24.6509 C   0  0  0  0  0  0  0  0  0  0  0  0
  -17.6562  -28.2063   24.1534 C   0  0  0  0  0  0  0  0  0  0  0  0
  -22.7156  -10.3233   22.1494 C   0  0  0  0  0  0  0  0  0  0  0  0
  -23.0755   -9.7691   19.8256 C   0  0  0  0  0  0  0  0  0  0  0  0
  -17.2220  -30.5785   24.1462 C   0  0  0  0  0  0  0  0  0  0  0  0
  -18.6087  -28.3805   23.1500 C   0  0  0  0  0  0  0  0  0  0  0  0
  -22.8671  -25.7894   24.0428 C   0  0  0  0  0  0  0  0  0  0  0  0
  -22.2667   -9.0248   22.3896 C   0  0  0  0  0  0  0  0  0  0  0  0
  -22.6266   -8.4705   20.0658 C   0  0  0  0  0  0  0  0  0  0  0  0
  -22.8475  -24.4210   23.7766 C   0  0  0  0  0  0  0  0  0  0  0  0
  -19.4362   -7.2400   21.9126 C   0  0  0  0  0  0  0  0  0  0  0  0
  -18.2803   -7.0858   22.6779 C   0  0  0  0  0  0  0  0  0  0  0  0
  -23.9680  -24.8193   21.6778 C   0  0  0  0  0  0  0  0  0  0  0  0
  -26.6741  -18.4903   21.8626 C   0  0  0  0  0  0  0  0  0  0  0  0
  -19.5272   -5.8044   24.3029 C   0  0  0  0  0  0  0  0  0  0  0  0
  -23.1199  -10.6956   20.8674 C   0  0  0  0  0  0  0  0  0  0  0  0
  -24.9058  -12.5104   20.7102 C   0  0  0  0  0  0  0  0  0  0  0  0
  -18.1851  -30.7697   23.1429 C   0  0  0  0  0  0  0  0  0  0  0  0
  -23.4285  -26.6857   23.1220 C   0  0  0  0  0  0  0  0  0  0  0  0
  -18.8802  -29.6576   22.6304 C   0  0  0  0  0  0  0  0  0  0  0  0
  -23.9958  -26.1984   21.9359 C   0  0  0  0  0  0  0  0  0  0  0  0
  -27.7902  -18.7083   21.0177 C   0  0  0  0  0  0  0  0  0  0  0  0
  -22.2222   -8.0983   21.3478 C   0  0  0  0  0  0  0  0  0  0  0  0
  -23.3954  -23.9361   22.5927 C   0  0  0  0  0  0  0  0  0  0  0  0
  -20.6376   -6.6763   22.3424 C   0  0  0  0  0  0  0  0  0  0  0  0
  -18.3258   -6.3680   23.8731 C   0  0  0  0  0  0  0  0  0  0  0  0
  -20.6831   -5.9586   23.5376 C   0  0  0  0  0  0  0  0  0  0  0  0
  -23.5831  -12.0371   20.6185 C   0  0  0  0  0  0  0  0  0  0  0  0
  -25.5432  -18.5783   21.0811 C   0  0  0  0  0  0  0  0  0  0  0  0
  -27.3074  -18.9230   19.7456 C   0  0  0  0  0  0  0  0  0  0  0  0
  -24.8182  -13.8404   20.3786 C   0  0  0  0  0  0  0  0  0  0  0  0
  -26.1062  -11.8105   21.0635 C   0  0  0  0  0  0  0  0  0  0  0  0
  -22.3255  -29.1238   21.4066 C   0  0  0  0  0  0  0  0  0  0  0  0
  -25.4532  -29.4825   20.6247 C   0  0  0  0  0  0  0  0  0  0  0  0
  -28.5398  -28.0631   20.3010 C   0  0  0  0  0  0  0  0  0  0  0  0
  -22.6928  -17.6204   16.7028 C   0  0  0  0  0  0  0  0  0  0  0  0
  -18.3971  -32.1589   22.5954 C   0  0  0  0  0  0  0  0  0  0  0  0
  -23.4658  -28.1562   23.4362 C   0  0  0  0  0  0  0  0  0  0  0  0
  -24.6288  -27.1168   20.9238 C   0  0  0  0  0  0  0  0  0  0  0  0
  -19.6891  -32.3080   21.7961 C   0  0  0  0  0  0  0  0  0  0  0  0
  -20.8053  -16.8484   19.7920 C   0  0  0  0  0  0  0  0  0  0  0  0
  -19.8484  -31.1485   20.8178 C   0  0  0  0  0  0  0  0  0  0  0  0
  -21.4287  -15.5282   20.2420 C   0  0  0  0  0  0  0  0  0  0  0  0
  -20.8884  -17.0282   18.2792 C   0  0  0  0  0  0  0  0  0  0  0  0
  -22.8898  -15.5794   18.1822 C   0  0  0  0  0  0  0  0  0  0  0  0
  -19.9386  -29.8094   21.5595 C   0  0  1  0  0  0  0  0  0  0  0  0
  -23.6024  -29.0295   22.1928 C   0  0  1  0  0  0  0  0  0  0  0  0
  -22.8642  -15.3884   19.7061 C   0  0  2  0  0  0  0  0  0  0  0  0
  -29.3058  -20.9257   17.1187 C   0  0  0  0  0  0  0  0  0  0  0  0
  -30.8907  -28.5979   19.6049 C   0  0  0  0  0  0  0  0  0  0  0  0
  -29.5632  -16.2027   21.0722 C   0  0  0  0  0  0  0  0  0  0  0  0
  -31.1619  -17.4867   22.5071 C   0  0  0  0  0  0  0  0  0  0  0  0
  -24.6002  -29.4083   17.6960 C   0  0  0  0  0  0  0  0  0  0  0  0
  -26.9911  -28.9890   17.0826 C   0  0  0  0  0  0  0  0  0  0  0  0
  -26.3531  -31.1106   18.2293 C   0  0  0  0  0  0  0  0  0  0  0  0
  -24.5558  -18.7541   15.5524 C   0  0  0  0  0  0  0  0  0  0  0  0
  -29.6059  -27.4112   22.9838 C   0  0  0  0  0  0  0  0  0  0  0  0
  -29.2073  -18.7037   21.4323 C   0  0  0  0  0  0  0  0  0  0  0  0
  -24.0918  -18.4294   21.4620 C   0  0  0  0  0  0  0  0  0  0  0  0
  -28.0309  -19.1987   18.4860 C   0  0  0  0  0  0  0  0  0  0  0  0
  -28.5297  -20.6542   18.3977 C   0  0  0  0  0  0  0  0  0  0  0  0
  -23.4229  -19.7442   21.8781 C   0  0  0  0  0  0  0  0  0  0  0  0
  -24.1370  -20.4379   23.0391 C   0  0  0  0  0  0  0  0  0  0  0  0
  -25.0511  -19.0089   18.6658 C   0  0  0  0  0  0  0  0  0  0  0  0
  -24.9797  -17.7714   17.7750 C   0  0  0  0  0  0  0  0  0  0  0  0
  -23.4223  -21.7180   23.4502 C   0  0  0  0  0  0  0  0  0  1  0  0
  -26.3513  -28.9463   19.5362 C   0  0  1  0  0  0  0  0  0  0  0  0
  -29.9115  -28.5181   20.7657 C   0  0  2  0  0  0  0  0  0  0  0  0
  -29.7045  -17.3683   22.0543 C   0  0  0  0  0  0  0  0  0  0  0  0
  -26.0603  -29.5962   18.1540 C   0  0  0  0  0  0  0  0  0  0  0  0
  -22.7187  -12.9890   20.2571 N   0  0  0  0  0  0  0  0  0  0  0  0
  -25.9403  -18.8419   19.7962 N   0  0  0  0  0  0  0  0  0  0  0  0
  -23.4998  -14.0738   20.1188 N   0  0  0  0  0  0  0  0  0  0  0  0
  -24.6352  -28.5469   21.2737 N   0  0  0  0  0  0  0  0  0  0  0  0
  -22.2561  -16.8475   17.7913 N   0  0  0  0  0  0  0  0  0  0  0  0
  -25.7411  -14.8213   20.2868 N   0  0  0  0  0  0  0  0  0  0  0  0
  -26.0173  -10.4471   21.3757 N   0  0  0  0  0  0  0  0  0  0  0  0
  -21.2594  -29.6321   22.1238 N   0  0  0  0  0  0  0  0  0  0  0  0
  -27.7195  -29.1318   20.0076 N   0  0  0  0  0  0  0  0  0  0  0  0
  -24.0570  -17.9449   16.6553 N   0  0  0  0  0  0  0  0  0  0  0  0
  -30.4572  -27.5688   21.7765 N   0  3  0  0  0  0  0  0  0  0  0  0
  -27.2219  -12.3812   21.1172 O   0  0  0  0  0  0  0  0  0  0  0  0
  -22.3091  -28.7635   20.2354 O   0  0  0  0  0  0  0  0  0  0  0  0
  -25.4817  -30.6859   20.8941 O   0  0  0  0  0  0  0  0  0  0  0  0
  -28.2285  -26.8781   20.2042 O   0  0  0  0  0  0  0  0  0  0  0  0
  -21.9063  -18.0067   15.8286 O   0  0  0  0  0  0  0  0  0  0  0  0
  -21.7845   -6.8310   21.5819 O   0  0  0  0  0  0  0  0  0  0  0  0
  -23.3770  -22.6009   22.3301 O   0  0  0  0  0  0  0  0  0  1  0  0
  -17.2160   -6.2213   24.6087 F   0  0  0  0  0  0  0  0  0  0  0  0
  -21.8346   -5.4158   23.9563 F   0  0  0  0  0  0  0  0  0  0  0  0
  1  2  1  0  0  0  0
  1  5  2  0  0  0  0
  2  6  2  0  0  0  0
  3  8  2  0  0  0  0
  3 16  1  0  0  0  0
  4  9  1  0  0  0  0
  4 16  2  0  0  0  0
  5 18  1  0  0  0  0
  6 20  1  0  0  0  0
  7 10  2  0  0  0  0
  7 19  1  0  0  0  0
  8 23  1  0  0  0  0
  9 23  2  0  0  0  0
 10 24  1  0  0  0  0
 11 12  2  0  0  0  0
 11 25  1  0  0  0  0
 12 26  1  0  0  0  0
 13 21  1  0  0  0  0
 13 24  2  0  0  0  0
 14 22  1  0  0  0  0
 14 29  2  0  0  0  0
 15 26  2  0  0  0  0
 15 27  1  0  0  0  0
 16 28  1  0  0  0  0
 17 28  1  0  0  0  0
 17 31  2  0  0  0  0
 17 32  1  0  0  0  0
 18 20  2  0  0  0  0
 18 37  1  0  0  0  0
 19 21  2  0  0  0  0
 19 38  1  0  0  0  0
 20 46  1  0  0  0  0
 21 39  1  0  0  0  0
 22 30  2  0  0  0  0
 22 58  1  0  0  0  0
 23 87  1  0  0  0  0
 24 88  1  0  0  0  0
 25 27  2  0  0  0  0
 25 87  1  0  0  0  0
 26 89  1  0  0  0  0
 27 90  1  0  0  0  0
 28 71  2  0  0  0  0
 29 59  1  0  0  0  0
 29 72  1  0  0  0  0
 30 60  1  0  0  0  0
 30 72  1  0  0  0  0
 31 73  1  0  0  0  0
 31 76  1  0  0  0  0
 32 77  1  0  0  0  0
 32 82  2  0  0  0  0
 33 47  1  0  0  0  0
 33 78  1  0  0  0  0
 33 83  2  0  0  0  0
 34 67  1  0  0  0  0
 34 74  1  0  0  0  0
 34 84  2  0  0  0  0
 35 68  1  0  0  0  0
 35 79  1  0  0  0  0
 35 85  2  0  0  0  0
 36 75  1  0  0  0  0
 36 80  1  0  0  0  0
 36 86  2  0  0  0  0
 37 40  1  0  0  0  0
 38 47  1  0  0  0  0
 39 74  1  0  0  0  0
 40 42  1  0  0  0  0
 41 43  1  0  0  0  0
 41 44  1  0  0  0  0
 42 46  1  0  0  0  0
 43 48  1  0  0  0  0
 44 75  1  0  0  0  0
 45 48  1  0  0  0  0
 45 75  1  0  0  0  0
 46 78  1  0  0  0  0
 47 74  1  0  0  0  0
 48 73  1  0  0  0  0
 49 61  1  0  0  0  0
 50 68  1  0  0  0  0
 51 69  1  0  0  0  0
 52 69  1  0  0  0  0
 53 70  1  0  0  0  0
 54 70  1  0  0  0  0
 55 70  1  0  0  0  0
 56 80  1  0  0  0  0
 57 81  1  0  0  0  0
 58 69  1  0  0  0  0
 59 62  1  0  0  0  0
 60 61  1  0  0  0  0
 62 63  1  0  0  0  0
 63 66  1  0  0  0  0
 64 65  1  0  0  0  0
 64 72  1  0  0  0  0
 65 80  1  0  0  0  0
 66 88  1  0  0  0  0
 67 70  1  0  0  0  0
 67 79  1  0  0  0  0
 68 81  1  0  0  0  0
 71 73  1  0  0  0  0
M  CHG  1  81   1
M  ISO  4  36 100  66 101  80 100  88 101
M  END
> <Batch ID>
0092

> <Smiles>
CCCc1c(CC(C)C)cc(CCC[101CH2:1][101O:1]c2ccc3c(c2)CN(C(=O)C(NC(=O)C(C)NC)C(C)(C)C)C(C(=O)NC2CCCc4ccccc42)C3)n1CC[100N:0](C)[100C:0](=O)N1CCCC(n2nc(-c3ccc(Oc4ccc(F)cc4F)cc3)c(C(N)=O)c2N)C1

> <Shape>
0.234

> <Color>
0.128

> <Negative vol penalty>
0.000

$$$$

  -OEChem-04052319143D

 82 90  0     1  0  0  0  0  0999 V2000
  -36.4925  -23.7830   22.5724 C   0  0  0  0  0  0  0  0  0  0  0  0
  -35.3986  -23.0784   22.0799 C   0  0  0  0  0  0  0  0  0  0  0  0
  -23.0778   -9.8621   19.9486 C   0  0  0  0  0  0  0  0  0  0  0  0
  -23.8388   -9.8795   22.2416 C   0  0  0  0  0  0  0  0  0  0  0  0
  -36.3263  -25.0834   23.0470 C   0  0  0  0  0  0  0  0  0  0  0  0
  -34.1377  -23.6735   22.0627 C   0  0  0  0  0  0  0  0  0  0  0  0
  -31.6940  -22.9215   17.6915 C   0  0  0  0  0  0  0  0  0  0  0  0
  -22.3361   -8.7086   20.2035 C   0  0  0  0  0  0  0  0  0  0  0  0
  -23.0971   -8.7260   22.4965 C   0  0  0  0  0  0  0  0  0  0  0  0
  -31.1002  -21.6746   17.5003 C   0  0  0  0  0  0  0  0  0  0  0  0
  -21.1177   -5.9906   23.8448 C   0  0  0  0  0  0  0  0  0  0  0  0
  -20.3621   -5.9503   25.0165 C   0  0  0  0  0  0  0  0  0  0  0  0
  -28.9604  -22.6071   18.1093 C   0  0  0  0  0  0  0  0  0  0  0  0
  -28.3767  -18.7623   21.9706 C   0  0  0  0  0  0  0  0  0  0  0  0
  -19.1137   -7.8824   24.2780 C   0  0  0  0  0  0  0  0  0  0  0  0
  -27.0561  -18.7313   19.5830 C   0  0  0  0  0  0  0  0  0  0  0  0
  -23.8292  -10.4475   20.9676 C   0  0  0  0  0  0  0  0  0  0  0  0
  -24.1664  -12.9728   20.8375 C   0  0  0  0  0  0  0  0  0  0  0  0
  -35.0644  -25.6982   23.0266 C   0  0  0  0  0  0  0  0  0  0  0  0
  -30.9261  -24.0198   18.1042 C   0  0  0  0  0  0  0  0  0  0  0  0
  -33.9542  -24.9829   22.5387 C   0  0  0  0  0  0  0  0  0  0  0  0
  -29.5464  -23.8674   18.3025 C   0  0  0  0  0  0  0  0  0  0  0  0
  -29.0650  -18.4100   20.8149 C   0  0  0  0  0  0  0  0  0  0  0  0
  -28.3994  -18.3918   19.5943 C   0  0  0  0  0  0  0  0  0  0  0  0
  -22.3457   -8.1406   21.4774 C   0  0  0  0  0  0  0  0  0  0  0  0
  -29.7337  -21.5166   17.7120 C   0  0  0  0  0  0  0  0  0  0  0  0
  -20.8714   -6.9769   22.8897 C   0  0  0  0  0  0  0  0  0  0  0  0
  -19.3601   -6.8961   25.2331 C   0  0  0  0  0  0  0  0  0  0  0  0
  -19.8694   -7.9227   23.1062 C   0  0  0  0  0  0  0  0  0  0  0  0
  -24.5960  -11.6388   20.7048 C   0  0  0  0  0  0  0  0  0  0  0  0
  -27.0345  -19.0855   21.8528 C   0  0  0  0  0  0  0  0  0  0  0  0
  -25.2570  -13.7228   20.4707 C   0  0  0  0  0  0  0  0  0  0  0  0
  -22.8952  -13.4880   21.2550 C   0  0  0  0  0  0  0  0  0  0  0  0
  -30.9215  -25.9240   20.6493 C   0  0  0  0  0  0  0  0  0  0  0  0
  -28.6691  -27.5321   18.9572 C   0  0  0  0  0  0  0  0  0  0  0  0
  -26.2779  -27.4658   16.5232 C   0  0  0  0  0  0  0  0  0  0  0  0
  -30.7390  -14.7525   20.6524 C   0  0  0  0  0  0  0  0  0  0  0  0
  -34.9252  -27.0887   23.5940 C   0  0  0  0  0  0  0  0  0  0  0  0
  -31.5770  -25.3643   18.2802 C   0  0  0  0  0  0  0  0  0  0  0  0
  -28.6741  -25.0197   18.7264 C   0  0  0  0  0  0  0  0  0  0  0  0
  -33.6255  -27.7823   23.1943 C   0  0  0  0  0  0  0  0  0  0  0  0
  -29.6045  -12.3565   18.2756 C   0  0  0  0  0  0  0  0  0  0  0  0
  -32.4397  -26.8403   23.3765 C   0  0  0  0  0  0  0  0  0  0  0  0
  -28.1678  -12.0619   18.7103 C   0  0  0  0  0  0  0  0  0  0  0  0
  -30.5218  -12.5838   19.4751 C   0  0  0  0  0  0  0  0  0  0  0  0
  -28.6195  -13.3168   20.8598 C   0  0  0  0  0  0  0  0  0  0  0  0
  -32.5751  -25.6032   22.4806 C   0  0  1  0  0  0  0  0  0  0  0  0
  -30.7898  -26.2936   19.1989 C   0  0  1  0  0  0  0  0  0  0  0  0
  -27.6450  -13.1359   19.6833 C   0  0  2  0  0  0  0  0  0  0  0  0
  -26.2641  -19.4681   23.0723 C   0  0  0  0  0  0  0  0  0  0  0  0
  -24.5780  -28.9243   15.3916 C   0  0  0  0  0  0  0  0  0  0  0  0
  -26.8519  -27.3033   21.3976 C   0  0  0  0  0  0  0  0  0  0  0  0
  -24.9162  -27.8975   19.9251 C   0  0  0  0  0  0  0  0  0  0  0  0
  -26.7804  -29.5232   20.2481 C   0  0  0  0  0  0  0  0  0  0  0  0
  -27.5738  -27.1274   13.8840 C   0  0  0  0  0  0  0  0  0  0  0  0
  -30.5124  -18.0567   20.9079 C   0  0  0  0  0  0  0  0  0  0  0  0
  -29.0972  -18.0166   18.3096 C   0  0  0  0  0  0  0  0  0  0  0  0
  -30.8016  -16.9080   21.8807 C   0  0  0  0  0  0  0  0  0  0  0  0
  -29.9609  -19.1499   17.7666 C   0  0  0  0  0  0  0  0  0  1  0  0
  -27.1658  -27.4593   18.8396 C   0  0  1  0  0  0  0  0  0  0  0  0
  -26.0035  -28.3958   15.3551 C   0  0  2  0  0  0  0  0  0  0  0  0
  -26.4451  -28.0235   20.0965 C   0  0  0  0  0  0  0  0  0  0  0  0
  -26.3540  -19.0789   20.6847 N   0  0  0  0  0  0  0  0  0  0  0  0
  -25.8608  -11.5436   20.2863 N   0  0  0  0  0  0  0  0  0  0  0  0
  -26.2353  -12.8273   20.1527 N   0  0  0  0  0  0  0  0  0  0  0  0
  -29.3582  -26.3128   18.8915 N   0  0  0  0  0  0  0  0  0  0  0  0
  -29.9699  -13.6148   20.3573 N   0  0  0  0  0  0  0  0  0  0  0  0
  -25.4650  -15.0544   20.3924 N   0  0  0  0  0  0  0  0  0  0  0  0
  -21.8851  -12.5783   21.5964 N   0  0  0  0  0  0  0  0  0  0  0  0
  -32.2225  -25.9272   21.1149 N   0  0  0  0  0  0  0  0  0  0  0  0
  -26.8202  -28.1404   17.5966 N   0  0  0  0  0  0  0  0  0  0  0  0
  -30.1386  -15.6835   21.4910 N   0  0  0  0  0  0  0  0  0  0  0  0
  -26.2064  -27.6796   14.0641 N   0  3  0  0  0  0  0  0  0  0  0  0
  -22.6567  -14.7184   21.3076 O   0  0  0  0  0  0  0  0  0  0  0  0
  -29.9169  -25.6572   21.2985 O   0  0  0  0  0  0  0  0  0  0  0  0
  -29.2125  -28.6309   19.0950 O   0  0  0  0  0  0  0  0  0  0  0  0
  -26.0321  -26.2621   16.4883 O   0  0  0  0  0  0  0  0  0  0  0  0
  -31.8744  -14.9282   20.1975 O   0  0  0  0  0  0  0  0  0  0  0  0
  -21.6219   -7.0151   21.7265 O   0  0  0  0  0  0  0  0  0  0  0  0
  -29.1517  -20.3005   17.5267 O   0  0  0  0  0  0  0  0  0  1  0  0
  -18.6335   -6.8563   26.3577 F   0  0  0  0  0  0  0  0  0  0  0  0
  -19.6273   -8.8719   22.1918 F   0  0  0  0  0  0  0  0  0  0  0  0
  1  2  1  0  0  0  0
  1  5  2  0  0  0  0
  2  6  2  0  0  0  0
  3  8  2  0  0  0  0
  3 17  1  0  0  0  0
  4  9  1  0  0  0  0
  4 17  2  0  0  0  0
  5 19  1  0  0  0  0
  6 21  1  0  0  0  0
  7 10  2  0  0  0  0
  7 20  1  0  0  0  0
  8 25  1  0  0  0  0
  9 25  2  0  0  0  0
 10 26  1  0  0  0  0
 11 12  2  0  0  0  0
 11 27  1  0  0  0  0
 12 28  1  0  0  0  0
 13 22  1  0  0  0  0
 13 26  2  0  0  0  0
 14 23  1  0  0  0  0
 14 31  2  0  0  0  0
 15 28  2  0  0  0  0
 15 29  1  0  0  0  0
 16 24  1  0  0  0  0
 16 63  2  0  0  0  0
 17 30  1  0  0  0  0
 18 30  1  0  0  0  0
 18 32  2  0  0  0  0
 18 33  1  0  0  0  0
 19 21  2  0  0  0  0
 19 38  1  0  0  0  0
 20 22  2  0  0  0  0
 20 39  1  0  0  0  0
 21 47  1  0  0  0  0
 22 40  1  0  0  0  0
 23 24  2  0  0  0  0
 23 56  1  0  0  0  0
 24 57  1  0  0  0  0
 25 79  1  0  0  0  0
 26 80  1  0  0  0  0
 27 29  2  0  0  0  0
 27 79  1  0  0  0  0
 28 81  1  0  0  0  0
 29 82  1  0  0  0  0
 30 64  2  0  0  0  0
 31 50  1  0  0  0  0
 31 63  1  0  0  0  0
 32 65  1  0  0  0  0
 32 68  1  0  0  0  0
 33 69  1  0  0  0  0
 33 74  2  0  0  0  0
 34 48  1  0  0  0  0
 34 70  1  0  0  0  0
 34 75  2  0  0  0  0
 35 60  1  0  0  0  0
 35 66  1  0  0  0  0
 35 76  2  0  0  0  0
 36 61  1  0  0  0  0
 36 71  1  0  0  0  0
 36 77  2  0  0  0  0
 37 67  1  0  0  0  0
 37 72  1  0  0  0  0
 37 78  2  0  0  0  0
 38 41  1  0  0  0  0
 39 48  1  0  0  0  0
 40 66  1  0  0  0  0
 41 43  1  0  0  0  0
 42 44  1  0  0  0  0
 42 45  1  0  0  0  0
 43 47  1  0  0  0  0
 44 49  1  0  0  0  0
 45 67  1  0  0  0  0
 46 49  1  0  0  0  0
 46 67  1  0  0  0  0
 47 70  1  0  0  0  0
 48 66  1  0  0  0  0
 49 65  1  0  0  0  0
 51 61  1  0  0  0  0
 52 62  1  0  0  0  0
 53 62  1  0  0  0  0
 54 62  1  0  0  0  0
 55 73  1  0  0  0  0
 56 58  1  0  0  0  0
 57 59  1  0  0  0  0
 58 72  1  0  0  0  0
 59 80  1  0  0  0  0
 60 62  1  0  0  0  0
 60 71  1  0  0  0  0
 61 73  1  0  0  0  0
 64 65  1  0  0  0  0
M  CHG  1  73   1
M  ISO  4  37 100  59 101  72 100  80 101
M  END
> <Batch ID>
0092

> <Smiles>
CNC(C)C(=O)NC(C(=O)N1Cc2cc([101O:1][101CH2:1]Cc3cnc(C)cc3CC[100NH:0][100C:0](=O)N3CCCC(n4nc(-c5ccc(Oc6ccc(F)cc6F)cc5)c(C(N)=O)c4N)C3)ccc2CC1C(=O)NC1CCCc2ccccc21)C(C)(C)C

> <Shape>
0.294

> <Color>
0.196

> <Negative vol penalty>
0.000

$$$$

  -OEChem-04052319143D

 84 92  0     1  0  0  0  0  0999 V2000
  -29.3038  -28.3584   20.6842 C   0  0  0  0  0  0  0  0  0  0  0  0
  -29.2053  -27.0414   21.1213 C   0  0  0  0  0  0  0  0  0  0  0  0
  -23.1890   -9.9606   19.8826 C   0  0  0  0  0  0  0  0  0  0  0  0
  -23.7337   -9.9511   22.2364 C   0  0  0  0  0  0  0  0  0  0  0  0
  -28.1835  -29.0045   20.1632 C   0  0  0  0  0  0  0  0  0  0  0  0
  -27.9859  -26.3700   21.0388 C   0  0  0  0  0  0  0  0  0  0  0  0
  -27.1321  -20.4170   19.8815 C   0  0  0  0  0  0  0  0  0  0  0  0
  -22.4174   -8.8117   20.0565 C   0  0  0  0  0  0  0  0  0  0  0  0
  -22.9620   -8.8022   22.4103 C   0  0  0  0  0  0  0  0  0  0  0  0
  -26.8916  -19.3247   20.7138 C   0  0  0  0  0  0  0  0  0  0  0  0
  -19.6866   -8.0250   22.7076 C   0  0  0  0  0  0  0  0  0  0  0  0
  -18.8244   -7.9849   23.8033 C   0  0  0  0  0  0  0  0  0  0  0  0
  -24.5227  -19.5546   20.3208 C   0  0  0  0  0  0  0  0  0  0  0  0
  -19.9793   -6.0351   24.6408 C   0  0  0  0  0  0  0  0  0  0  0  0
  -30.0527  -14.1680   25.7200 C   0  0  0  0  0  0  0  0  0  0  0  0
  -23.8472  -10.5303   20.9725 C   0  0  0  0  0  0  0  0  0  0  0  0
  -24.2158  -13.0534   20.8983 C   0  0  0  0  0  0  0  0  0  0  0  0
  -26.9522  -28.3375   20.0653 C   0  0  0  0  0  0  0  0  0  0  0  0
  -26.0672  -21.0942   19.2702 C   0  0  0  0  0  0  0  0  0  0  0  0
  -26.8477  -27.0081   20.5173 C   0  0  0  0  0  0  0  0  0  0  0  0
  -24.7525  -20.6535   19.4791 C   0  0  0  0  0  0  0  0  0  0  0  0
  -30.6635  -14.7012   24.6064 C   0  0  0  0  0  0  0  0  0  0  0  0
  -29.9314  -15.7987   24.0683 C   0  0  0  0  0  0  0  0  0  0  0  0
  -22.3039   -8.2325   21.3203 C   0  0  0  0  0  0  0  0  0  0  0  0
  -25.5865  -18.8951   20.9359 C   0  0  0  0  0  0  0  0  0  0  0  0
  -20.6951   -7.0700   22.5784 C   0  0  0  0  0  0  0  0  0  0  0  0
  -18.9707   -6.9900   24.7699 C   0  0  0  0  0  0  0  0  0  0  0  0
  -20.8415   -6.0751   23.5450 C   0  0  0  0  0  0  0  0  0  0  0  0
  -24.6449  -11.7167   20.7934 C   0  0  0  0  0  0  0  0  0  0  0  0
  -28.7887  -16.0625   24.7911 C   0  0  0  0  0  0  0  0  0  0  0  0
  -25.3419  -13.7967   20.6416 C   0  0  0  0  0  0  0  0  0  0  0  0
  -22.9156  -13.5764   21.2008 C   0  0  0  0  0  0  0  0  0  0  0  0
  -24.9258  -24.0582   19.3962 C   0  0  0  0  0  0  0  0  0  0  0  0
  -22.9834  -22.9946   17.0259 C   0  0  0  0  0  0  0  0  0  0  0  0
  -21.4746  -20.3503   15.4839 C   0  0  0  0  0  0  0  0  0  0  0  0
  -31.1941  -12.6514   21.1819 C   0  0  0  0  0  0  0  0  0  0  0  0
  -25.7574  -29.0926   19.5389 C   0  0  0  0  0  0  0  0  0  0  0  0
  -26.3452  -22.2541   18.3538 C   0  0  0  0  0  0  0  0  0  0  0  0
  -23.5757  -21.3336   18.8303 C   0  0  0  0  0  0  0  0  0  0  0  0
  -24.5937  -28.1892   19.1391 C   0  0  0  0  0  0  0  0  0  0  0  0
  -29.4681  -13.6299   18.2255 C   0  0  0  0  0  0  0  0  0  0  0  0
  -24.3300  -27.1477   20.2220 C   0  0  0  0  0  0  0  0  0  0  0  0
  -27.9976  -13.3712   18.5578 C   0  0  0  0  0  0  0  0  0  0  0  0
  -30.3808  -12.5729   18.8433 C   0  0  0  0  0  0  0  0  0  0  0  0
  -28.7422  -12.1235   20.6285 C   0  0  0  0  0  0  0  0  0  0  0  0
  -25.5485  -26.2382   20.4211 C   0  0  1  0  0  0  0  0  0  0  0  0
  -25.1496  -23.1877   18.1921 C   0  0  1  0  0  0  0  0  0  0  0  0
  -27.7879  -13.1950   20.0738 C   0  0  2  0  0  0  0  0  0  0  0  0
  -30.3493  -16.5684   22.8701 C   0  0  0  0  0  0  0  0  0  0  0  0
  -33.1146  -14.3330   25.0313 C   0  0  0  0  0  0  0  0  0  0  0  0
  -19.9155  -19.7981   13.5967 C   0  0  0  0  0  0  0  0  0  0  0  0
  -24.5701  -17.8387   24.0185 C   0  0  0  0  0  0  0  0  0  0  0  0
  -20.6218  -23.9656   18.6962 C   0  0  0  0  0  0  0  0  0  0  0  0
  -19.1209  -22.5691   17.2590 C   0  0  0  0  0  0  0  0  0  0  0  0
  -20.4308  -24.4355   16.2473 C   0  0  0  0  0  0  0  0  0  0  0  0
  -23.5249  -18.7123   14.1156 C   0  0  0  0  0  0  0  0  0  0  0  0
  -27.7470  -17.1279   24.5602 C   0  0  0  0  0  0  0  0  0  0  0  0
  -26.7901  -16.8173   23.4000 C   0  0  0  0  0  0  0  0  0  0  0  0
  -31.8544  -12.7079   23.5736 C   0  0  0  0  0  0  0  0  0  0  0  0
  -31.9344  -14.1842   24.0436 C   0  0  1  0  0  0  0  0  0  0  0  0
  -21.6291  -22.3301   16.9709 C   0  0  1  0  0  0  0  0  0  0  0  0
  -21.3667  -19.9659   14.0193 C   0  0  2  0  0  0  0  0  0  0  0  0
  -25.7841  -17.9362   23.1033 C   0  0  1  0  0  0  0  0  0  1  0  0
  -20.4725  -23.3132   17.3072 C   0  0  0  0  0  0  0  0  0  0  0  0
  -25.9423  -11.6137   20.4933 N   0  0  0  0  0  0  0  0  0  0  0  0
  -26.3382  -12.8951   20.4073 N   0  0  0  0  0  0  0  0  0  0  0  0
  -23.8986  -22.4670   17.9478 N   0  0  0  0  0  0  0  0  0  0  0  0
  -30.1330  -12.4563   20.2824 N   0  0  0  0  0  0  0  0  0  0  0  0
  -25.5672  -15.1269   20.5955 N   0  0  0  0  0  0  0  0  0  0  0  0
  -21.8706  -12.6730   21.4382 N   0  0  0  0  0  0  0  0  0  0  0  0
  -25.6211  -25.2519   19.3645 N   0  0  0  0  0  0  0  0  0  0  0  0
  -21.5281  -21.7180   15.6504 N   0  0  0  0  0  0  0  0  0  0  0  0
  -30.8717  -12.5291   22.5280 N   0  0  0  0  0  0  0  0  0  0  0  0
  -22.0812  -18.6828   13.7665 N   0  3  0  0  0  0  0  0  0  0  0  0
  -22.6834  -14.8084   21.2427 O   0  0  0  0  0  0  0  0  0  0  0  0
  -24.1767  -23.6757   20.2874 O   0  0  0  0  0  0  0  0  0  0  0  0
  -23.2231  -23.9423   16.2735 O   0  0  0  0  0  0  0  0  0  0  0  0
  -21.5045  -19.5204   16.3900 O   0  0  0  0  0  0  0  0  0  0  0  0
  -32.3423  -12.9203   20.8130 O   0  0  0  0  0  0  0  0  0  0  0  0
  -21.5508   -7.1115   21.4904 O   0  0  0  0  0  0  0  0  0  0  0  0
  -25.3489  -17.8297   21.7484 O   0  0  0  0  0  0  0  0  0  1  0  0
  -18.1437   -6.9526   25.8228 F   0  0  0  0  0  0  0  0  0  0  0  0
  -21.8092   -5.1556   23.4270 F   0  0  0  0  0  0  0  0  0  0  0  0
  -28.6024  -14.9896   26.1126 S   0  0  0  0  0  0  0  0  0  0  0  0
  1  2  1  0  0  0  0
  1  5  2  0  0  0  0
  2  6  2  0  0  0  0
  3  8  2  0  0  0  0
  3 16  1  0  0  0  0
  4  9  1  0  0  0  0
  4 16  2  0  0  0  0
  5 18  1  0  0  0  0
  6 20  1  0  0  0  0
  7 10  2  0  0  0  0
  7 19  1  0  0  0  0
  8 24  1  0  0  0  0
  9 24  2  0  0  0  0
 10 25  1  0  0  0  0
 11 12  2  0  0  0  0
 11 26  1  0  0  0  0
 12 27  1  0  0  0  0
 13 21  1  0  0  0  0
 13 25  2  0  0  0  0
 14 27  2  0  0  0  0
 14 28  1  0  0  0  0
 15 22  2  0  0  0  0
 15 84  1  0  0  0  0
 16 29  1  0  0  0  0
 17 29  1  0  0  0  0
 17 31  2  0  0  0  0
 17 32  1  0  0  0  0
 18 20  2  0  0  0  0
 18 37  1  0  0  0  0
 19 21  2  0  0  0  0
 19 38  1  0  0  0  0
 20 46  1  0  0  0  0
 21 39  1  0  0  0  0
 22 23  1  0  0  0  0
 22 60  1  0  0  0  0
 23 30  2  0  0  0  0
 23 49  1  0  0  0  0
 24 80  1  0  0  0  0
 25 81  1  0  0  0  0
 26 28  2  0  0  0  0
 26 80  1  0  0  0  0
 27 82  1  0  0  0  0
 28 83  1  0  0  0  0
 29 65  2  0  0  0  0
 30 57  1  0  0  0  0
 30 84  1  0  0  0  0
 31 66  1  0  0  0  0
 31 69  1  0  0  0  0
 32 70  1  0  0  0  0
 32 75  2  0  0  0  0
 33 47  1  0  0  0  0
 33 71  1  0  0  0  0
 33 76  2  0  0  0  0
 34 61  1  0  0  0  0
 34 67  1  0  0  0  0
 34 77  2  0  0  0  0
 35 62  1  0  0  0  0
 35 72  1  0  0  0  0
 35 78  2  0  0  0  0
 36 68  1  0  0  0  0
 36 73  1  0  0  0  0
 36 79  2  0  0  0  0
 37 40  1  0  0  0  0
 38 47  1  0  0  0  0
 39 67  1  0  0  0  0
 40 42  1  0  0  0  0
 41 43  1  0  0  0  0
 41 44  1  0  0  0  0
 42 46  1  0  0  0  0
 43 48  1  0  0  0  0
 44 68  1  0  0  0  0
 45 48  1  0  0  0  0
 45 68  1  0  0  0  0
 46 71  1  0  0  0  0
 47 67  1  0  0  0  0
 48 66  1  0  0  0  0
 50 60  1  0  0  0  0
 51 62  1  0  0  0  0
 52 63  1  0  0  0  0
 53 64  1  0  0  0  0
 54 64  1  0  0  0  0
 55 64  1  0  0  0  0
 56 74  1  0  0  0  0
 57 58  1  0  0  0  0
 58 63  1  0  0  0  0
 59 60  1  0  0  0  0
 59 73  1  0  0  0  0
 61 64  1  0  0  0  0
 61 72  1  0  0  0  0
 62 74  1  0  0  0  0
 63 81  1  0  0  0  0
 65 66  1  0  0  0  0
M  CHG  1  74   1
M  ISO  4  36 100  63 101  73 100  81 101
M  END
> <Batch ID>
0092

> <Smiles>
CNC(C)C(=O)NC(C(=O)N1Cc2cc([101O:1][101CH:1](C)CCc3scc(C(C)C[100NH:0][100C:0](=O)N4CCCC(n5nc(-c6ccc(Oc7ccc(F)cc7F)cc6)c(C(N)=O)c5N)C4)c3C)ccc2CC1C(=O)NC1CCCc2ccccc21)C(C)(C)C

> <Shape>
0.201

> <Color>
0.187

> <Negative vol penalty>
0.000

$$$$

  -OEChem-04052319143D

 83 91  0     1  0  0  0  0  0999 V2000
  -21.2576  -21.6338   18.0569 C   0  0  0  0  0  0  0  0  0  0  0  0
  -22.5346  -22.0564   18.4121 C   0  0  0  0  0  0  0  0  0  0  0  0
  -26.9727  -13.1793   21.0696 C   0  0  0  0  0  0  0  0  0  0  0  0
  -26.8403  -13.5516   18.6861 C   0  0  0  0  0  0  0  0  0  0  0  0
  -20.3843  -22.5155   17.4214 C   0  0  0  0  0  0  0  0  0  0  0  0
  -22.9394  -23.3609   18.1310 C   0  0  0  0  0  0  0  0  0  0  0  0
  -25.3289  -25.5363   22.0300 C   0  0  0  0  0  0  0  0  0  0  0  0
  -26.2942  -11.9700   20.9184 C   0  0  0  0  0  0  0  0  0  0  0  0
  -26.1618  -12.3422   18.5349 C   0  0  0  0  0  0  0  0  0  0  0  0
  -26.6591  -25.1769   22.2423 C   0  0  0  0  0  0  0  0  0  0  0  0
  -23.1040  -10.9419   20.4824 C   0  0  0  0  0  0  0  0  0  0  0  0
  -22.0745  -10.6606   21.3805 C   0  0  0  0  0  0  0  0  0  0  0  0
  -27.3750  -27.2053   21.1503 C   0  0  0  0  0  0  0  0  0  0  0  0
  -30.5915  -22.5656   16.9485 C   0  0  0  0  0  0  0  0  0  0  0  0
  -23.2475   -8.6760   22.1035 C   0  0  0  0  0  0  0  0  0  0  0  0
  -29.5675  -24.3885   17.7842 C   0  0  0  0  0  0  0  0  0  0  0  0
  -27.2457  -13.9701   19.9535 C   0  0  0  0  0  0  0  0  0  0  0  0
  -29.3379  -15.4254   20.0637 C   0  0  0  0  0  0  0  0  0  0  0  0
  -20.7752  -23.8343   17.1411 C   0  0  0  0  0  0  0  0  0  0  0  0
  -25.0113  -26.7296   21.3655 C   0  0  0  0  0  0  0  0  0  0  0  0
  -22.0709  -24.2607   17.4900 C   0  0  0  0  0  0  0  0  0  0  0  0
  -26.0399  -27.5788   20.9332 C   0  0  0  0  0  0  0  0  0  0  0  0
  -29.3319  -23.1620   17.2033 C   0  0  0  0  0  0  0  0  0  0  0  0
  -25.8888  -11.5514   19.6511 C   0  0  0  0  0  0  0  0  0  0  0  0
  -27.6825  -26.0100   21.7998 C   0  0  0  0  0  0  0  0  0  0  0  0
  -24.2052  -10.0903   20.3947 C   0  0  0  0  0  0  0  0  0  0  0  0
  -22.1462   -9.5277   22.1910 C   0  0  0  0  0  0  0  0  0  0  0  0
  -24.2770   -8.9574   21.2053 C   0  0  0  0  0  0  0  0  0  0  0  0
  -27.9460  -15.2197   20.1091 C   0  0  0  0  0  0  0  0  0  0  0  0
  -31.5585  -23.4458   17.3815 C   0  0  0  0  0  0  0  0  0  0  0  0
  -29.4922  -16.7753   20.2651 C   0  0  0  0  0  0  0  0  0  0  0  0
  -30.3967  -14.4809   19.8578 C   0  0  0  0  0  0  0  0  0  0  0  0
  -23.4901  -27.4609   18.6720 C   0  0  0  0  0  0  0  0  0  0  0  0
  -23.8834  -30.5008   19.7335 C   0  0  0  0  0  0  0  0  0  0  0  0
  -25.6433  -32.6865   21.6757 C   0  0  0  0  0  0  0  0  0  0  0  0
  -26.9241  -21.8059   18.9954 C   0  0  0  0  0  0  0  0  0  0  0  0
  -19.8130  -24.7369   16.4102 C   0  0  0  0  0  0  0  0  0  0  0  0
  -23.5711  -27.1159   21.1681 C   0  0  0  0  0  0  0  0  0  0  0  0
  -25.7518  -28.8806   20.2327 C   0  0  0  0  0  0  0  0  0  0  0  0
  -20.1878  -26.2148   16.4848 C   0  0  0  0  0  0  0  0  0  0  0  0
  -26.6971  -20.3460   22.2348 C   0  0  0  0  0  0  0  0  0  0  0  0
  -21.6723  -26.4046   16.1897 C   0  0  0  0  0  0  0  0  0  0  0  0
  -27.1254  -18.8944   22.0127 C   0  0  0  0  0  0  0  0  0  0  0  0
  -25.8954  -20.8852   21.0522 C   0  0  0  0  0  0  0  0  0  0  0  0
  -26.9835  -19.2921   19.5186 C   0  0  0  0  0  0  0  0  0  0  0  0
  -22.5381  -25.6753   17.2242 C   0  0  1  0  0  0  0  0  0  0  0  0
  -23.3691  -28.1049   20.0242 C   0  0  1  0  0  0  0  0  0  0  0  0
  -27.8426  -18.7221   20.6602 C   0  0  2  0  0  0  0  0  0  0  0  0
  -33.0309  -23.3252   17.3543 C   0  0  0  0  0  0  0  0  0  0  0  0
  -25.7523  -35.1126   22.3081 C   0  0  0  0  0  0  0  0  0  0  0  0
  -31.8205  -25.0362   22.3151 C   0  0  0  0  0  0  0  0  0  0  0  0
  -25.1619  -31.1434   17.0386 C   0  0  0  0  0  0  0  0  0  0  0  0
  -26.0843  -33.2376   18.0542 C   0  0  0  0  0  0  0  0  0  0  0  0
  -23.6162  -32.9072   17.9070 C   0  0  0  0  0  0  0  0  0  0  0  0
  -25.1433  -32.0845   24.5299 C   0  0  0  0  0  0  0  0  0  0  0  0
  -28.0109  -22.5784   16.9022 C   0  0  0  0  0  0  0  0  0  0  0  0
  -32.1610  -25.5491   19.8845 C   0  0  0  0  0  0  0  0  0  0  0  0
  -31.5990  -25.7660   18.4726 C   0  0  0  0  0  0  0  0  0  0  0  0
  -29.9354  -26.1148   21.0453 C   0  0  0  0  0  0  0  0  0  1  0  0
  -24.9499  -31.5579   19.5781 C   0  0  1  0  0  0  0  0  0  0  0  0
  -25.1902  -33.7452   22.6648 C   0  0  2  0  0  0  0  0  0  0  0  0
  -31.1219  -25.1458   20.9537 C   0  0  2  0  0  0  0  0  0  0  0  0
  -24.9588  -32.1861   18.1559 C   0  0  0  0  0  0  0  0  0  0  0  0
  -27.2646  -16.3484   20.3227 N   0  0  0  0  0  0  0  0  0  0  0  0
  -30.9245  -24.5503   17.8879 N   0  0  0  0  0  0  0  0  0  0  0  0
  -28.2324  -17.2764   20.4135 N   0  0  0  0  0  0  0  0  0  0  0  0
  -24.3279  -29.2112   20.0576 N   0  0  0  0  0  0  0  0  0  0  0  0
  -26.6317  -20.6927   19.8005 N   0  0  0  0  0  0  0  0  0  0  0  0
  -30.5812  -17.5706   20.3281 N   0  0  0  0  0  0  0  0  0  0  0  0
  -30.0622  -13.1333   19.6666 N   0  0  0  0  0  0  0  0  0  0  0  0
  -22.5951  -26.4301   18.4577 N   0  0  0  0  0  0  0  0  0  0  0  0
  -24.7323  -32.5185   20.6543 N   0  0  0  0  0  0  0  0  0  0  0  0
  -27.6306  -21.5363   17.8297 N   0  0  0  0  0  0  0  0  0  0  0  0
  -25.6423  -33.3956   24.0411 N   0  3  0  0  0  0  0  0  0  0  0  0
  -31.6047  -14.8192   19.8601 O   0  0  0  0  0  0  0  0  0  0  0  0
  -24.3320  -27.8700   17.8812 O   0  0  0  0  0  0  0  0  0  0  0  0
  -22.6990  -30.8096   19.5802 O   0  0  0  0  0  0  0  0  0  0  0  0
  -26.7014  -32.0728   21.7950 O   0  0  0  0  0  0  0  0  0  0  0  0
  -26.5856  -22.9557   19.2960 O   0  0  0  0  0  0  0  0  0  0  0  0
  -25.2269  -10.3714   19.5032 O   0  0  0  0  0  0  0  0  0  0  0  0
  -28.9818  -25.6613   22.0051 O   0  0  0  0  0  0  0  0  0  1  0  0
  -21.1583   -9.2585   23.0545 F   0  0  0  0  0  0  0  0  0  0  0  0
  -25.3330   -8.1361   21.1265 F   0  0  0  0  0  0  0  0  0  0  0  0
  1  2  1  0  0  0  0
  1  5  2  0  0  0  0
  2  6  2  0  0  0  0
  3  8  2  0  0  0  0
  3 17  1  0  0  0  0
  4  9  1  0  0  0  0
  4 17  2  0  0  0  0
  5 19  1  0  0  0  0
  6 21  1  0  0  0  0
  7 10  2  0  0  0  0
  7 20  1  0  0  0  0
  8 24  1  0  0  0  0
  9 24  2  0  0  0  0
 10 25  1  0  0  0  0
 11 12  2  0  0  0  0
 11 26  1  0  0  0  0
 12 27  1  0  0  0  0
 13 22  1  0  0  0  0
 13 25  2  0  0  0  0
 14 23  1  0  0  0  0
 14 30  2  0  0  0  0
 15 27  2  0  0  0  0
 15 28  1  0  0  0  0
 16 23  2  0  0  0  0
 16 65  1  0  0  0  0
 17 29  1  0  0  0  0
 18 29  1  0  0  0  0
 18 31  2  0  0  0  0
 18 32  1  0  0  0  0
 19 21  2  0  0  0  0
 19 37  1  0  0  0  0
 20 22  2  0  0  0  0
 20 38  1  0  0  0  0
 21 46  1  0  0  0  0
 22 39  1  0  0  0  0
 23 56  1  0  0  0  0
 24 80  1  0  0  0  0
 25 81  1  0  0  0  0
 26 28  2  0  0  0  0
 26 80  1  0  0  0  0
 27 82  1  0  0  0  0
 28 83  1  0  0  0  0
 29 64  2  0  0  0  0
 30 49  1  0  0  0  0
 30 65  1  0  0  0  0
 31 66  1  0  0  0  0
 31 69  1  0  0  0  0
 32 70  1  0  0  0  0
 32 75  2  0  0  0  0
 33 47  1  0  0  0  0
 33 71  1  0  0  0  0
 33 76  2  0  0  0  0
 34 60  1  0  0  0  0
 34 67  1  0  0  0  0
 34 77  2  0  0  0  0
 35 61  1  0  0  0  0
 35 72  1  0  0  0  0
 35 78  2  0  0  0  0
 36 68  1  0  0  0  0
 36 73  1  0  0  0  0
 36 79  2  0  0  0  0
 37 40  1  0  0  0  0
 38 47  1  0  0  0  0
 39 67  1  0  0  0  0
 40 42  1  0  0  0  0
 41 43  1  0  0  0  0
 41 44  1  0  0  0  0
 42 46  1  0  0  0  0
 43 48  1  0  0  0  0
 44 68  1  0  0  0  0
 45 48  1  0  0  0  0
 45 68  1  0  0  0  0
 46 71  1  0  0  0  0
 47 67  1  0  0  0  0
 48 66  1  0  0  0  0
 50 61  1  0  0  0  0
 51 62  1  0  0  0  0
 52 63  1  0  0  0  0
 53 63  1  0  0  0  0
 54 63  1  0  0  0  0
 55 74  1  0  0  0  0
 56 73  1  0  0  0  0
 57 58  1  0  0  0  0
 57 62  1  0  0  0  0
 58 65  1  0  0  0  0
 59 62  1  0  0  0  0
 59 81  1  0  0  0  0
 60 63  1  0  0  0  0
 60 72  1  0  0  0  0
 61 74  1  0  0  0  0
 64 66  1  0  0  0  0
M  CHG  1  74   1
M  ISO  4  36 100  59 101  73 100  81 101
M  END
> <Batch ID>
0092

> <Smiles>
CNC(C)C(=O)NC(C(=O)N1Cc2cc([101O:1][101CH2:1]C(C)CCn3cc(C[100NH:0][100C:0](=O)N4CCCC(n5nc(-c6ccc(Oc7ccc(F)cc7F)cc6)c(C(N)=O)c5N)C4)cc3C)ccc2CC1C(=O)NC1CCCc2ccccc21)C(C)(C)C

> <Shape>
0.225

> <Color>
0.067

> <Negative vol penalty>
0.000

$$$$

  -OEChem-04052319143D

 91 99  0     1  0  0  0  0  0999 V2000
  -30.2522  -31.7603   25.8871 C   0  0  0  0  0  0  0  0  0  0  0  0
  -29.7953  -30.6706   25.1528 C   0  0  0  0  0  0  0  0  0  0  0  0
  -24.9918   -8.2886   21.1748 C   0  0  0  0  0  0  0  0  0  0  0  0
  -23.4195   -9.3019   19.6457 C   0  0  0  0  0  0  0  0  0  0  0  0
  -29.3406  -32.6613   26.4358 C   0  0  0  0  0  0  0  0  0  0  0  0
  -28.4263  -30.4806   24.9678 C   0  0  0  0  0  0  0  0  0  0  0  0
  -27.2607  -29.2743   20.1896 C   0  0  0  0  0  0  0  0  0  0  0  0
  -24.0527   -7.3065   21.4897 C   0  0  0  0  0  0  0  0  0  0  0  0
  -22.4803   -8.3197   19.9606 C   0  0  0  0  0  0  0  0  0  0  0  0
  -27.4899  -27.9581   19.7912 C   0  0  0  0  0  0  0  0  0  0  0  0
  -21.2988   -7.0247   23.4291 C   0  0  0  0  0  0  0  0  0  0  0  0
  -21.1242   -6.7039   24.7753 C   0  0  0  0  0  0  0  0  0  0  0  0
  -25.1485  -27.4643   20.0965 C   0  0  0  0  0  0  0  0  0  0  0  0
  -30.1652  -20.9058   22.2144 C   0  0  0  0  0  0  0  0  0  0  0  0
  -21.7658   -4.4207   24.3144 C   0  0  0  0  0  0  0  0  0  0  0  0
  -24.6752   -9.2863   20.2528 C   0  0  0  0  0  0  0  0  0  0  0  0
  -26.6108  -10.2575   18.9046 C   0  0  0  0  0  0  0  0  0  0  0  0
  -27.9601  -32.4876   26.2493 C   0  0  0  0  0  0  0  0  0  0  0  0
  -25.9735  -29.6933   20.5556 C   0  0  0  0  0  0  0  0  0  0  0  0
  -27.4953  -31.3794   25.5157 C   0  0  0  0  0  0  0  0  0  0  0  0
  -24.9051  -28.7871   20.4968 C   0  0  0  0  0  0  0  0  0  0  0  0
  -29.5178  -22.1304   22.0943 C   0  0  0  0  0  0  0  0  0  0  0  0
  -29.8414  -19.8667   21.3491 C   0  0  0  0  0  0  0  0  0  0  0  0
  -22.7970   -7.3221   20.8826 C   0  0  0  0  0  0  0  0  0  0  0  0
  -26.4343  -27.0521   19.7473 C   0  0  0  0  0  0  0  0  0  0  0  0
  -21.7068   -6.0435   22.5255 C   0  0  0  0  0  0  0  0  0  0  0  0
  -21.3578   -5.4019   25.2179 C   0  0  0  0  0  0  0  0  0  0  0  0
  -21.9403   -4.7415   22.9682 C   0  0  0  0  0  0  0  0  0  0  0  0
  -25.6446  -10.3014   19.9275 C   0  0  0  0  0  0  0  0  0  0  0  0
  -28.5617  -22.2638   21.1004 C   0  0  0  0  0  0  0  0  0  0  0  0
  -28.8707  -20.1014   20.3887 C   0  0  0  0  0  0  0  0  0  0  0  0
  -27.2775  -11.4537   19.0105 C   0  0  0  0  0  0  0  0  0  0  0  0
  -26.8815   -9.2276   17.9446 C   0  0  0  0  0  0  0  0  0  0  0  0
  -24.6561  -30.8301   23.2156 C   0  0  0  0  0  0  0  0  0  0  0  0
  -22.0657  -31.2196   21.3024 C   0  0  0  0  0  0  0  0  0  0  0  0
  -20.3716  -30.2800   18.4928 C   0  0  0  0  0  0  0  0  0  0  0  0
  -27.4247  -16.8013   19.5956 C   0  0  0  0  0  0  0  0  0  0  0  0
  -27.0112  -33.4616   26.9016 C   0  0  0  0  0  0  0  0  0  0  0  0
  -25.7379  -31.1235   20.9574 C   0  0  0  0  0  0  0  0  0  0  0  0
  -23.5007  -29.1921   20.8601 C   0  0  0  0  0  0  0  0  0  0  0  0
  -25.5920  -33.3962   26.3431 C   0  0  0  0  0  0  0  0  0  0  0  0
  -27.1728  -14.9873   22.6152 C   0  0  0  0  0  0  0  0  0  0  0  0
  -25.1274  -31.9474   26.2342 C   0  0  0  0  0  0  0  0  0  0  0  0
  -26.8199  -13.5921   22.1015 C   0  0  0  0  0  0  0  0  0  0  0  0
  -26.4557  -16.0871   21.8300 C   0  0  0  0  0  0  0  0  0  0  0  0
  -26.3028  -14.6086   19.8518 C   0  0  0  0  0  0  0  0  0  0  0  0
  -26.0190  -31.1530   25.2721 C   0  0  1  0  0  0  0  0  0  0  0  0
  -24.4807  -31.3076   21.8018 C   0  0  1  0  0  0  0  0  0  0  0  0
  -27.0565  -13.4882   20.5848 C   0  0  2  0  0  0  0  0  0  0  0  0
  -31.9420  -18.5774   20.8887 C   0  0  0  0  0  0  0  0  0  0  0  0
  -28.0310  -19.5679   18.0709 C   0  0  0  0  0  0  0  0  0  0  0  0
  -18.2652  -30.7510   17.2126 C   0  0  0  0  0  0  0  0  0  0  0  0
  -32.4175  -27.5400   23.8857 C   0  0  0  0  0  0  0  0  0  0  0  0
  -31.4616  -27.1784   21.6017 C   0  0  0  0  0  0  0  0  0  0  0  0
  -20.4638  -29.6356   23.3602 C   0  0  0  0  0  0  0  0  0  0  0  0
  -18.6810  -29.3246   21.6301 C   0  0  0  0  0  0  0  0  0  0  0  0
  -19.2714  -31.6188   22.4117 C   0  0  0  0  0  0  0  0  0  0  0  0
  -26.3728  -18.8247   20.6931 C   0  0  0  0  0  0  0  0  0  0  0  0
  -21.8820  -31.1480   16.1003 C   0  0  0  0  0  0  0  0  0  0  0  0
  -30.5311  -18.5520   21.4727 C   0  0  0  0  0  0  0  0  0  0  0  0
  -29.8603  -23.2476   23.0181 C   0  0  0  0  0  0  0  0  0  0  0  0
  -27.8260  -23.5680   20.9230 C   0  0  0  0  0  0  0  0  0  0  0  0
  -30.7937  -24.3129   22.4101 C   0  0  0  0  0  0  0  0  0  0  0  0
  -26.5926  -23.4619   20.0235 C   0  0  0  0  0  0  0  0  0  0  0  0
  -31.1755  -25.4070   23.4153 C   0  0  0  0  0  0  0  0  0  0  0  0
  -25.8076  -24.7644   19.9192 C   0  0  0  0  0  0  0  0  0  1  0  0
  -28.4838  -19.0216   19.4317 C   0  0  2  0  0  0  0  0  0  0  0  0
  -20.8816  -30.3652   20.9191 C   0  0  1  0  0  0  0  0  0  0  0  0
  -19.7374  -31.0941   17.3795 C   0  0  2  0  0  0  0  0  0  0  0  0
  -32.0885  -26.4941   22.8174 C   0  0  0  0  0  0  0  0  0  0  0  0
  -19.8511  -30.2276   22.0753 C   0  0  0  0  0  0  0  0  0  0  0  0
  -25.6902  -11.4356   20.6315 N   0  0  0  0  0  0  0  0  0  0  0  0
  -28.2203  -21.2773   20.2414 N   0  0  0  0  0  0  0  0  0  0  0  0
  -26.6931  -12.1154   20.0500 N   0  0  0  0  0  0  0  0  0  0  0  0
  -23.3224  -30.5998   21.2527 N   0  0  0  0  0  0  0  0  0  0  0  0
  -26.6684  -15.9229   20.3855 N   0  0  0  0  0  0  0  0  0  0  0  0
  -28.3008  -11.9935   18.3148 N   0  0  0  0  0  0  0  0  0  0  0  0
  -26.1018   -8.0633   17.9760 N   0  0  0  0  0  0  0  0  0  0  0  0
  -25.6793  -31.4590   23.8990 N   0  0  0  0  0  0  0  0  0  0  0  0
  -20.3356  -30.9483   19.6983 N   0  0  0  0  0  0  0  0  0  0  0  0
  -27.4585  -18.1485   19.9856 N   0  0  0  0  0  0  0  0  0  0  0  0
  -20.4305  -30.8318   16.0865 N   0  3  0  0  0  0  0  0  0  0  0  0
  -27.7986   -9.3296   17.0949 O   0  0  0  0  0  0  0  0  0  0  0  0
  -23.9169  -29.9568   23.6545 O   0  0  0  0  0  0  0  0  0  0  0  0
  -21.8832  -32.3956   21.6269 O   0  0  0  0  0  0  0  0  0  0  0  0
  -20.8477  -29.1615   18.3120 O   0  0  0  0  0  0  0  0  0  0  0  0
  -28.0309  -16.4062   18.5913 O   0  0  0  0  0  0  0  0  0  0  0  0
  -21.8804   -6.3638   21.1895 O   0  0  0  0  0  0  0  0  0  0  0  0
  -26.6553  -25.7666   19.3594 O   0  0  0  0  0  0  0  0  0  1  0  0
  -21.1916   -5.0944   26.5110 F   0  0  0  0  0  0  0  0  0  0  0  0
  -22.3336   -3.7949   22.1050 F   0  0  0  0  0  0  0  0  0  0  0  0
  1  2  1  0  0  0  0
  1  5  2  0  0  0  0
  2  6  2  0  0  0  0
  3  8  2  0  0  0  0
  3 16  1  0  0  0  0
  4  9  1  0  0  0  0
  4 16  2  0  0  0  0
  5 18  1  0  0  0  0
  6 20  1  0  0  0  0
  7 10  2  0  0  0  0
  7 19  1  0  0  0  0
  8 24  1  0  0  0  0
  9 24  2  0  0  0  0
 10 25  1  0  0  0  0
 11 12  2  0  0  0  0
 11 26  1  0  0  0  0
 12 27  1  0  0  0  0
 13 21  1  0  0  0  0
 13 25  2  0  0  0  0
 14 22  2  0  0  0  0
 14 23  1  0  0  0  0
 15 27  2  0  0  0  0
 15 28  1  0  0  0  0
 16 29  1  0  0  0  0
 17 29  1  0  0  0  0
 17 32  2  0  0  0  0
 17 33  1  0  0  0  0
 18 20  2  0  0  0  0
 18 38  1  0  0  0  0
 19 21  2  0  0  0  0
 19 39  1  0  0  0  0
 20 47  1  0  0  0  0
 21 40  1  0  0  0  0
 22 30  1  0  0  0  0
 22 61  1  0  0  0  0
 23 31  2  0  0  0  0
 23 60  1  0  0  0  0
 24 88  1  0  0  0  0
 25 89  1  0  0  0  0
 26 28  2  0  0  0  0
 26 88  1  0  0  0  0
 27 90  1  0  0  0  0
 28 91  1  0  0  0  0
 29 72  2  0  0  0  0
 30 62  1  0  0  0  0
 30 73  2  0  0  0  0
 31 67  1  0  0  0  0
 31 73  1  0  0  0  0
 32 74  1  0  0  0  0
 32 77  1  0  0  0  0
 33 78  1  0  0  0  0
 33 83  2  0  0  0  0
 34 48  1  0  0  0  0
 34 79  1  0  0  0  0
 34 84  2  0  0  0  0
 35 68  1  0  0  0  0
 35 75  1  0  0  0  0
 35 85  2  0  0  0  0
 36 69  1  0  0  0  0
 36 80  1  0  0  0  0
 36 86  2  0  0  0  0
 37 76  1  0  0  0  0
 37 81  1  0  0  0  0
 37 87  2  0  0  0  0
 38 41  1  0  0  0  0
 39 48  1  0  0  0  0
 40 75  1  0  0  0  0
 41 43  1  0  0  0  0
 42 44  1  0  0  0  0
 42 45  1  0  0  0  0
 43 47  1  0  0  0  0
 44 49  1  0  0  0  0
 45 76  1  0  0  0  0
 46 49  1  0  0  0  0
 46 76  1  0  0  0  0
 47 79  1  0  0  0  0
 48 75  1  0  0  0  0
 49 74  1  0  0  0  0
 50 60  1  0  0  0  0
 51 67  1  0  0  0  0
 52 69  1  0  0  0  0
 53 70  1  0  0  0  0
 54 70  1  0  0  0  0
 55 71  1  0  0  0  0
 56 71  1  0  0  0  0
 57 71  1  0  0  0  0
 58 81  1  0  0  0  0
 59 82  1  0  0  0  0
 61 63  1  0  0  0  0
 62 64  1  0  0  0  0
 63 65  1  0  0  0  0
 64 66  1  0  0  0  0
 65 70  1  0  0  0  0
 66 89  1  0  0  0  0
 67 81  1  0  0  0  0
 68 71  1  0  0  0  0
 68 80  1  0  0  0  0
 69 82  1  0  0  0  0
 72 74  1  0  0  0  0
M  CHG  1  82   1
M  ISO  4  37 100  66 101  81 100  89 101
M  END
> <Batch ID>
0092

> <Smiles>
CCc1cc(CCCC(C)C)c(CC[101CH2:1][101O:1]c2ccc3c(c2)CN(C(=O)C(NC(=O)C(C)NC)C(C)(C)C)C(C(=O)NC2CCCc4ccccc42)C3)nc1C(C)[100N:0](C)[100C:0](=O)N1CCCC(n2nc(-c3ccc(Oc4ccc(F)cc4F)cc3)c(C(N)=O)c2N)C1

> <Shape>
0.315

> <Color>
0.092

> <Negative vol penalty>
0.000

$$$$

  -OEChem-04052319143D

 88 96  0     1  0  0  0  0  0999 V2000
  -29.6491  -24.9867   34.3143 C   0  0  0  0  0  0  0  0  0  0  0  0
  -29.5982  -24.6008   32.9787 C   0  0  0  0  0  0  0  0  0  0  0  0
  -23.1459   -9.7223   20.0626 C   0  0  0  0  0  0  0  0  0  0  0  0
  -23.7988   -9.9695   22.3755 C   0  0  0  0  0  0  0  0  0  0  0  0
  -29.1165  -26.2146   34.7048 C   0  0  0  0  0  0  0  0  0  0  0  0
  -29.0135  -25.4422   32.0328 C   0  0  0  0  0  0  0  0  0  0  0  0
  -31.7754  -25.8292   27.8059 C   0  0  0  0  0  0  0  0  0  0  0  0
  -22.4157   -8.5801   20.3907 C   0  0  0  0  0  0  0  0  0  0  0  0
  -23.0686   -8.8272   22.7037 C   0  0  0  0  0  0  0  0  0  0  0  0
  -31.7037  -24.7724   26.8994 C   0  0  0  0  0  0  0  0  0  0  0  0
  -23.0436   -5.3207   21.0282 C   0  0  0  0  0  0  0  0  0  0  0  0
  -23.1754   -4.2075   20.1982 C   0  0  0  0  0  0  0  0  0  0  0  0
  -30.1483  -26.0369   25.5575 C   0  0  0  0  0  0  0  0  0  0  0  0
  -28.9246  -17.2994   25.8225 C   0  0  0  0  0  0  0  0  0  0  0  0
  -20.8067   -4.2780   19.7276 C   0  0  0  0  0  0  0  0  0  0  0  0
  -23.8376  -10.4170   21.0550 C   0  0  0  0  0  0  0  0  0  0  0  0
  -24.1314  -12.9267   20.7048 C   0  0  0  0  0  0  0  0  0  0  0  0
  -28.5337  -27.0757   33.7617 C   0  0  0  0  0  0  0  0  0  0  0  0
  -31.0245  -26.9955   27.6003 C   0  0  0  0  0  0  0  0  0  0  0  0
  -28.4714  -26.6822   32.4113 C   0  0  0  0  0  0  0  0  0  0  0  0
  -30.2142  -27.1081   26.4615 C   0  0  0  0  0  0  0  0  0  0  0  0
  -28.9983  -15.9984   26.3077 C   0  0  0  0  0  0  0  0  0  0  0  0
  -29.7046  -17.6748   24.7344 C   0  0  0  0  0  0  0  0  0  0  0  0
  -22.3770   -8.1326   21.7113 C   0  0  0  0  0  0  0  0  0  0  0  0
  -30.8878  -24.8749   25.7765 C   0  0  0  0  0  0  0  0  0  0  0  0
  -21.7934   -5.9126   21.2081 C   0  0  0  0  0  0  0  0  0  0  0  0
  -22.0570   -3.6862   19.5478 C   0  0  0  0  0  0  0  0  0  0  0  0
  -20.6750   -5.3912   20.5577 C   0  0  0  0  0  0  0  0  0  0  0  0
  -24.5925  -11.5967   20.7165 C   0  0  0  0  0  0  0  0  0  0  0  0
  -29.8608  -15.1180   25.6746 C   0  0  0  0  0  0  0  0  0  0  0  0
  -30.5355  -16.7194   24.1718 C   0  0  0  0  0  0  0  0  0  0  0  0
  -25.2232  -13.6652   20.3186 C   0  0  0  0  0  0  0  0  0  0  0  0
  -22.8324  -13.4481   21.0153 C   0  0  0  0  0  0  0  0  0  0  0  0
  -28.7158  -28.4874   29.1965 C   0  0  0  0  0  0  0  0  0  0  0  0
  -29.1287  -30.7483   26.9074 C   0  0  0  0  0  0  0  0  0  0  0  0
  -30.1800  -31.5200   23.7536 C   0  0  0  0  0  0  0  0  0  0  0  0
  -30.6697  -14.8366   20.6475 C   0  0  0  0  0  0  0  0  0  0  0  0
  -27.9289  -28.3723   34.2389 C   0  0  0  0  0  0  0  0  0  0  0  0
  -31.1335  -28.1372   28.5735 C   0  0  0  0  0  0  0  0  0  0  0  0
  -29.4036  -28.3469   26.1843 C   0  0  0  0  0  0  0  0  0  0  0  0
  -27.6625  -29.3703   33.1148 C   0  0  0  0  0  0  0  0  0  0  0  0
  -29.6939  -12.2052   18.4566 C   0  0  0  0  0  0  0  0  0  0  0  0
  -26.9776  -28.6802   31.9395 C   0  0  0  0  0  0  0  0  0  0  0  0
  -28.2445  -11.9181   18.8525 C   0  0  0  0  0  0  0  0  0  0  0  0
  -30.5498  -12.5638   19.6694 C   0  0  0  0  0  0  0  0  0  0  0  0
  -28.5711  -13.3766   20.8933 C   0  0  0  0  0  0  0  0  0  0  0  0
  -27.8677  -27.5784   31.3518 C   0  0  1  0  0  0  0  0  0  0  0  0
  -29.9299  -29.0737   28.5332 C   0  0  1  0  0  0  0  0  0  0  0  0
  -27.6562  -13.0647   19.6966 C   0  0  2  0  0  0  0  0  0  0  0  0
  -29.9827  -13.7082   26.1526 C   0  0  0  0  0  0  0  0  0  0  0  0
  -24.8498  -13.5797   27.8120 C   0  0  0  0  0  0  0  0  0  0  0  0
  -30.3561  -33.4431   22.1512 C   0  0  0  0  0  0  0  0  0  0  0  0
  -26.1315  -30.5676   26.3649 C   0  0  0  0  0  0  0  0  0  0  0  0
  -26.5239  -31.7504   24.1935 C   0  0  0  0  0  0  0  0  0  0  0  0
  -27.0567  -32.8910   26.3471 C   0  0  0  0  0  0  0  0  0  0  0  0
  -33.1273  -31.2878   23.6178 C   0  0  0  0  0  0  0  0  0  0  0  0
  -28.1652  -15.5899   27.4731 C   0  0  0  0  0  0  0  0  0  0  0  0
  -29.6296  -19.0842   24.2034 C   0  0  0  0  0  0  0  0  0  0  0  0
  -31.3947  -17.0666   23.0003 C   0  0  0  0  0  0  0  0  0  0  0  0
  -26.0732  -14.3716   28.2452 C   0  0  0  0  0  0  0  0  0  0  0  0
  -26.9458  -14.7537   27.0496 C   0  0  0  0  0  0  0  0  0  0  0  0
  -30.3750  -20.1104   25.0638 C   0  0  0  0  0  0  0  0  0  0  0  0
  -30.2233  -21.5437   24.5522 C   0  0  0  0  0  0  0  0  0  0  0  0
  -30.6332  -17.0973   21.6708 C   0  0  0  0  0  0  0  0  0  0  0  0
  -31.0087  -22.5286   25.4075 C   0  0  0  0  0  0  0  0  0  1  0  0
  -28.5389  -31.0076   25.5422 C   0  0  1  0  0  0  0  0  0  0  0  0
  -31.0626  -32.6394   23.2317 C   0  0  2  0  0  0  0  0  0  0  0  0
  -27.0764  -31.5299   25.6178 C   0  0  0  0  0  0  0  0  0  0  0  0
  -25.8771  -11.4931   20.3655 N   0  0  0  0  0  0  0  0  0  0  0  0
  -30.6340  -15.4461   24.6154 N   0  0  0  0  0  0  0  0  0  0  0  0
  -26.2324  -12.7675   20.1295 N   0  0  0  0  0  0  0  0  0  0  0  0
  -29.5390  -29.4333   27.1686 N   0  0  0  0  0  0  0  0  0  0  0  0
  -29.9374  -13.6586   20.4259 N   0  0  0  0  0  0  0  0  0  0  0  0
  -25.4087  -14.9884   20.1255 N   0  0  0  0  0  0  0  0  0  0  0  0
  -21.8253  -12.5502   21.3947 N   0  0  0  0  0  0  0  0  0  0  0  0
  -28.9056  -28.1548   30.5242 N   0  0  0  0  0  0  0  0  0  0  0  0
  -29.4618  -31.9112   24.8637 N   0  0  0  0  0  0  0  0  0  0  0  0
  -30.0129  -15.8267   21.3679 N   0  0  0  0  0  0  0  0  0  0  0  0
  -32.3198  -32.0826   22.6569 N   0  3  0  0  0  0  0  0  0  0  0  0
  -22.5679  -14.6721   20.9421 O   0  0  0  0  0  0  0  0  0  0  0  0
  -27.6829  -28.3486   28.5520 O   0  0  0  0  0  0  0  0  0  0  0  0
  -29.2285  -31.6798   27.7099 O   0  0  0  0  0  0  0  0  0  0  0  0
  -30.1297  -30.4107   23.2269 O   0  0  0  0  0  0  0  0  0  0  0  0
  -31.8215  -14.9964   20.2292 O   0  0  0  0  0  0  0  0  0  0  0  0
  -21.6644   -7.0182   22.0319 O   0  0  0  0  0  0  0  0  0  0  0  0
  -30.8154  -23.8446   24.8905 O   0  0  0  0  0  0  0  0  0  1  0  0
  -22.1839   -2.6181   18.7495 F   0  0  0  0  0  0  0  0  0  0  0  0
  -19.4715   -5.9562   20.7257 F   0  0  0  0  0  0  0  0  0  0  0  0
  1  2  1  0  0  0  0
  1  5  2  0  0  0  0
  2  6  2  0  0  0  0
  3  8  2  0  0  0  0
  3 16  1  0  0  0  0
  4  9  1  0  0  0  0
  4 16  2  0  0  0  0
  5 18  1  0  0  0  0
  6 20  1  0  0  0  0
  7 10  2  0  0  0  0
  7 19  1  0  0  0  0
  8 24  1  0  0  0  0
  9 24  2  0  0  0  0
 10 25  1  0  0  0  0
 11 12  2  0  0  0  0
 11 26  1  0  0  0  0
 12 27  1  0  0  0  0
 13 21  1  0  0  0  0
 13 25  2  0  0  0  0
 14 22  1  0  0  0  0
 14 23  2  0  0  0  0
 15 27  2  0  0  0  0
 15 28  1  0  0  0  0
 16 29  1  0  0  0  0
 17 29  1  0  0  0  0
 17 32  2  0  0  0  0
 17 33  1  0  0  0  0
 18 20  2  0  0  0  0
 18 38  1  0  0  0  0
 19 21  2  0  0  0  0
 19 39  1  0  0  0  0
 20 47  1  0  0  0  0
 21 40  1  0  0  0  0
 22 30  2  0  0  0  0
 22 57  1  0  0  0  0
 23 31  1  0  0  0  0
 23 58  1  0  0  0  0
 24 85  1  0  0  0  0
 25 86  1  0  0  0  0
 26 28  2  0  0  0  0
 26 85  1  0  0  0  0
 27 87  1  0  0  0  0
 28 88  1  0  0  0  0
 29 69  2  0  0  0  0
 30 50  1  0  0  0  0
 30 70  1  0  0  0  0
 31 59  1  0  0  0  0
 31 70  2  0  0  0  0
 32 71  1  0  0  0  0
 32 74  1  0  0  0  0
 33 75  1  0  0  0  0
 33 80  2  0  0  0  0
 34 48  1  0  0  0  0
 34 76  1  0  0  0  0
 34 81  2  0  0  0  0
 35 66  1  0  0  0  0
 35 72  1  0  0  0  0
 35 82  2  0  0  0  0
 36 67  1  0  0  0  0
 36 77  1  0  0  0  0
 36 83  2  0  0  0  0
 37 73  1  0  0  0  0
 37 78  1  0  0  0  0
 37 84  2  0  0  0  0
 38 41  1  0  0  0  0
 39 48  1  0  0  0  0
 40 72  1  0  0  0  0
 41 43  1  0  0  0  0
 42 44  1  0  0  0  0
 42 45  1  0  0  0  0
 43 47  1  0  0  0  0
 44 49  1  0  0  0  0
 45 73  1  0  0  0  0
 46 49  1  0  0  0  0
 46 73  1  0  0  0  0
 47 76  1  0  0  0  0
 48 72  1  0  0  0  0
 49 71  1  0  0  0  0
 51 60  1  0  0  0  0
 52 67  1  0  0  0  0
 53 68  1  0  0  0  0
 54 68  1  0  0  0  0
 55 68  1  0  0  0  0
 56 79  1  0  0  0  0
 57 61  1  0  0  0  0
 58 62  1  0  0  0  0
 59 64  1  0  0  0  0
 60 61  1  0  0  0  0
 62 63  1  0  0  0  0
 63 65  1  0  0  0  0
 64 78  1  0  0  0  0
 65 86  1  0  0  0  0
 66 68  1  0  0  0  0
 66 77  1  0  0  0  0
 67 79  1  0  0  0  0
 69 71  1  0  0  0  0
M  CHG  1  79   1
M  ISO  4  37 100  65 101  78 100  86 101
M  END
> <Batch ID>
0092

> <Smiles>
CCCCc1cc(CCC[101CH2:1][101O:1]c2ccc3c(c2)CN(C(=O)C(NC(=O)C(C)NC)C(C)(C)C)C(C(=O)NC2CCCc4ccccc42)C3)c(CC[100NH:0][100C:0](=O)N2CCCC(n3nc(-c4ccc(Oc5ccc(F)cc5F)cc4)c(C(N)=O)c3N)C2)nc1C

> <Shape>
0.185

> <Color>
0.205

> <Negative vol penalty>
0.000

$$$$

  -OEChem-04052319143D

 87 95  0     1  0  0  0  0  0999 V2000
  -27.2886  -22.7739   28.8333 C   0  0  0  0  0  0  0  0  0  0  0  0
  -27.7205  -23.4403   27.6911 C   0  0  0  0  0  0  0  0  0  0  0  0
  -24.8872  -30.7512   18.2961 C   0  0  0  0  0  0  0  0  0  0  0  0
  -24.2837  -17.1924   23.2371 C   0  0  0  0  0  0  0  0  0  0  0  0
  -23.2392  -18.2757   21.3470 C   0  0  0  0  0  0  0  0  0  0  0  0
  -27.4763  -21.3972   28.9487 C   0  0  0  0  0  0  0  0  0  0  0  0
  -28.3415  -22.7305   26.6640 C   0  0  0  0  0  0  0  0  0  0  0  0
  -26.6181  -24.0337   22.0839 C   0  0  0  0  0  0  0  0  0  0  0  0
  -26.2349  -30.5716   18.6078 C   0  0  0  0  0  0  0  0  0  0  0  0
  -23.9207  -30.6531   19.2972 C   0  0  0  0  0  0  0  0  0  0  0  0
  -24.9165  -16.2974   22.3744 C   0  0  0  0  0  0  0  0  0  0  0  0
  -23.8721  -17.3808   20.4843 C   0  0  0  0  0  0  0  0  0  0  0  0
  -27.0954  -25.2251   21.5393 C   0  0  0  0  0  0  0  0  0  0  0  0
  -24.1068  -13.5051   20.6506 C   0  0  0  0  0  0  0  0  0  0  0  0
  -24.0965  -12.1542   20.9978 C   0  0  0  0  0  0  0  0  0  0  0  0
  -28.6560  -23.9757   20.1893 C   0  0  0  0  0  0  0  0  0  0  0  0
  -26.5121  -12.1477   21.0440 C   0  0  0  0  0  0  0  0  0  0  0  0
  -23.4450  -18.1815   22.7234 C   0  0  0  0  0  0  0  0  0  0  0  0
  -21.8896  -18.7950   24.6500 C   0  0  0  0  0  0  0  0  0  0  0  0
  -28.0912  -20.6686   27.9183 C   0  0  0  0  0  0  0  0  0  0  0  0
  -27.1647  -22.8030   21.6927 C   0  0  0  0  0  0  0  0  0  0  0  0
  -28.5388  -21.3429   26.7663 C   0  0  0  0  0  0  0  0  0  0  0  0
  -28.1822  -22.7700   20.7285 C   0  0  0  0  0  0  0  0  0  0  0  0
  -26.6161  -30.2939   19.9205 C   0  0  0  0  0  0  0  0  0  0  0  0
  -24.3020  -30.3754   20.6098 C   0  0  0  0  0  0  0  0  0  0  0  0
  -25.6497  -30.1958   20.9215 C   0  0  0  0  0  0  0  0  0  0  0  0
  -24.7108  -16.3916   20.9980 C   0  0  0  0  0  0  0  0  0  0  0  0
  -28.1165  -25.1964   20.5940 C   0  0  0  0  0  0  0  0  0  0  0  0
  -25.3198  -14.1773   20.5000 C   0  0  0  0  0  0  0  0  0  0  0  0
  -25.2991  -11.4755   21.1945 C   0  0  0  0  0  0  0  0  0  0  0  0
  -26.5224  -13.4986   20.6967 C   0  0  0  0  0  0  0  0  0  0  0  0
  -22.7905  -19.1060   23.6140 C   0  0  0  0  0  0  0  0  0  0  0  0
  -21.5569  -20.0121   25.1927 C   0  0  0  0  0  0  0  0  0  0  0  0
  -21.3975  -17.5199   25.0833 C   0  0  0  0  0  0  0  0  0  0  0  0
  -28.7171  -20.4630   23.1820 C   0  0  0  0  0  0  0  0  0  0  0  0
  -28.4336  -18.9762   20.3129 C   0  0  0  0  0  0  0  0  0  0  0  0
  -28.0208  -19.2498   16.9363 C   0  0  0  0  0  0  0  0  0  0  0  0
  -21.4615  -25.4470   22.9379 C   0  0  0  0  0  0  0  0  0  0  0  0
  -28.3148  -19.1893   28.1088 C   0  0  0  0  0  0  0  0  0  0  0  0
  -26.6204  -21.5250   22.2698 C   0  0  0  0  0  0  0  0  0  0  0  0
  -28.7887  -21.4735   20.2597 C   0  0  0  0  0  0  0  0  0  0  0  0
  -28.6443  -18.4513   26.8138 C   0  0  0  0  0  0  0  0  0  0  0  0
  -23.3054  -24.4193   25.8583 C   0  0  0  0  0  0  0  0  0  0  0  0
  -29.7008  -19.2127   26.0195 C   0  0  0  0  0  0  0  0  0  0  0  0
  -23.2848  -22.8964   25.7098 C   0  0  0  0  0  0  0  0  0  0  0  0
  -23.4680  -25.1039   24.5044 C   0  0  0  0  0  0  0  0  0  0  0  0
  -22.4255  -23.2001   23.3409 C   0  0  0  0  0  0  0  0  0  0  0  0
  -29.1943  -20.6039   25.6199 C   0  0  1  0  0  0  0  0  0  0  0  0
  -27.6034  -20.3619   22.1784 C   0  0  1  0  0  0  0  0  0  0  0  0
  -22.2400  -22.4468   24.6707 C   0  0  1  0  0  0  0  0  0  0  0  0
  -26.0333  -31.1410   23.2119 C   0  0  0  0  0  0  0  0  0  0  0  0
  -27.6654  -18.5060   14.5661 C   0  0  0  0  0  0  0  0  0  0  0  0
  -31.4541  -18.5491   20.3769 C   0  0  0  0  0  0  0  0  0  0  0  0
  -31.3644  -18.0441   17.9263 C   0  0  0  0  0  0  0  0  0  0  0  0
  -30.1410  -16.5908   19.5430 C   0  0  0  0  0  0  0  0  0  0  0  0
  -25.0774  -19.2936   17.2415 C   0  0  0  0  0  0  0  0  0  0  0  0
  -20.1774  -30.2079   22.4291 C   0  0  0  0  0  0  0  0  0  0  0  0
  -28.0659  -30.1063   20.2278 C   0  0  0  0  0  0  0  0  0  0  0  0
  -23.2421  -30.2754   21.6685 C   0  0  0  0  0  0  0  0  0  0  0  0
  -26.0585  -29.8980   22.3291 C   0  0  0  0  0  0  0  0  0  0  0  0
  -28.6311  -28.7461   19.7926 C   0  0  0  0  0  0  0  0  0  0  0  0
  -22.1991  -29.1960   21.3969 C   0  0  0  0  0  0  0  0  0  0  0  0
  -27.9852  -27.5697   20.5153 C   0  0  0  0  0  0  0  0  0  1  0  0
  -20.5762  -27.7598   22.6760 C   0  0  0  0  0  0  0  0  0  0  0  0
  -29.2661  -18.9121   19.0552 C   0  0  1  0  0  0  0  0  0  0  0  0
  -27.0908  -18.5334   15.9739 C   0  0  2  0  0  0  0  0  0  0  0  0
  -30.5465  -18.0487   19.2354 C   0  0  0  0  0  0  0  0  0  0  0  0
  -23.0158  -20.4178   23.5030 N   0  0  0  0  0  0  0  0  0  0  0  0
  -22.2515  -20.9419   24.4763 N   0  0  0  0  0  0  0  0  0  0  0  0
  -28.2270  -20.2513   20.8582 N   0  0  0  0  0  0  0  0  0  0  0  0
  -22.4251  -24.6479   23.5749 N   0  0  0  0  0  0  0  0  0  0  0  0
  -20.7409  -20.3669   26.2078 N   0  0  0  0  0  0  0  0  0  0  0  0
  -20.2273  -17.0205   24.4954 N   0  0  0  0  0  0  0  0  0  0  0  0
  -28.2888  -20.5082   24.4950 N   0  0  0  0  0  0  0  0  0  0  0  0
  -28.3745  -18.4455   17.9989 N   0  0  0  0  0  0  0  0  0  0  0  0
  -21.5077  -26.8029   23.2392 N   0  0  0  0  0  0  0  0  0  0  0  0
  -25.7669  -19.2162   15.9280 N   0  3  0  0  0  0  0  0  0  0  0  0
  -21.2132  -29.1222   22.5319 N   0  3  2  0  0  0  0  0  0  0  0  0
  -21.9692  -16.8509   25.9772 O   0  0  0  0  0  0  0  0  0  0  0  0
  -29.8789  -20.4959   22.7939 O   0  0  0  0  0  0  0  0  0  0  0  0
  -27.9773  -17.9342   20.7899 O   0  0  0  0  0  0  0  0  0  0  0  0
  -28.3989  -20.4061   16.7609 O   0  0  0  0  0  0  0  0  0  0  0  0
  -20.6146  -24.9840   22.1663 O   0  0  0  0  0  0  0  0  0  0  0  0
  -25.3283  -15.5187   20.1560 O   0  0  0  0  0  0  0  0  0  0  0  0
  -28.5879  -26.3661   20.0576 O   0  0  0  0  0  0  0  0  0  1  0  0
  -25.2890  -10.1786   21.5295 F   0  0  0  0  0  0  0  0  0  0  0  0
  -27.6908  -14.1393   20.5546 F   0  0  0  0  0  0  0  0  0  0  0  0
  1  2  1  0  0  0  0
  1  6  2  0  0  0  0
  2  7  2  0  0  0  0
  3  9  2  0  0  0  0
  3 10  1  0  0  0  0
  4 11  2  0  0  0  0
  4 18  1  0  0  0  0
  5 12  1  0  0  0  0
  5 18  2  0  0  0  0
  6 20  1  0  0  0  0
  7 22  1  0  0  0  0
  8 13  2  0  0  0  0
  8 21  1  0  0  0  0
  9 24  1  0  0  0  0
 10 25  2  0  0  0  0
 11 27  1  0  0  0  0
 12 27  2  0  0  0  0
 13 28  1  0  0  0  0
 14 15  2  0  0  0  0
 14 29  1  0  0  0  0
 15 30  1  0  0  0  0
 16 23  1  0  0  0  0
 16 28  2  0  0  0  0
 17 30  2  0  0  0  0
 17 31  1  0  0  0  0
 18 32  1  0  0  0  0
 19 32  1  0  0  0  0
 19 33  2  0  0  0  0
 19 34  1  0  0  0  0
 20 22  2  0  0  0  0
 20 39  1  0  0  0  0
 21 23  2  0  0  0  0
 21 40  1  0  0  0  0
 22 48  1  0  0  0  0
 23 41  1  0  0  0  0
 24 26  2  0  0  0  0
 24 58  1  0  0  0  0
 25 26  1  0  0  0  0
 25 59  1  0  0  0  0
 26 60  1  0  0  0  0
 27 84  1  0  0  0  0
 28 85  1  0  0  0  0
 29 31  2  0  0  0  0
 29 84  1  0  0  0  0
 30 86  1  0  0  0  0
 31 87  1  0  0  0  0
 32 68  2  0  0  0  0
 33 69  1  0  0  0  0
 33 72  1  0  0  0  0
 34 73  1  0  0  0  0
 34 79  2  0  0  0  0
 35 49  1  0  0  0  0
 35 74  1  0  0  0  0
 35 80  2  0  0  0  0
 36 65  1  0  0  0  0
 36 70  1  0  0  0  0
 36 81  2  0  0  0  0
 37 66  1  0  0  0  0
 37 75  1  0  0  0  0
 37 82  2  0  0  0  0
 38 71  1  0  0  0  0
 38 76  1  0  0  0  0
 38 83  2  0  0  0  0
 39 42  1  0  0  0  0
 40 49  1  0  0  0  0
 41 70  1  0  0  0  0
 42 44  1  0  0  0  0
 43 45  1  0  0  0  0
 43 46  1  0  0  0  0
 44 48  1  0  0  0  0
 45 50  1  0  0  0  0
 46 71  1  0  0  0  0
 47 50  1  0  0  0  0
 47 71  1  0  0  0  0
 48 74  1  0  0  0  0
 49 70  1  0  0  0  0
 50 69  1  0  0  0  0
 51 60  1  0  0  0  0
 52 66  1  0  0  0  0
 53 67  1  0  0  0  0
 54 67  1  0  0  0  0
 55 67  1  0  0  0  0
 56 77  1  0  0  0  0
 57 78  1  0  0  0  0
 58 61  1  0  0  0  0
 59 62  1  0  0  0  0
 61 63  1  0  0  0  0
 62 78  1  0  0  0  0
 63 85  1  0  0  0  0
 64 76  1  0  0  0  0
 64 78  1  0  0  0  0
 65 67  1  0  0  0  0
 65 75  1  0  0  0  0
 66 77  1  0  0  0  0
 68 69  1  0  0  0  0
M  CHG  2  77   1  78   1
M  ISO  4  38 100  63 101  76 100  85 101
M  END
> <Batch ID>
0092

> <Smiles>
CCc1c(CCN(C)C[100NH:0][100C:0](=O)N2CCCC(n3nc(-c4ccc(Oc5ccc(F)cc5F)cc4)c(C(N)=O)c3N)C2)cccc1CC[101CH2:1][101O:1]c1ccc2c(c1)CN(C(=O)C(NC(=O)C(C)NC)C(C)(C)C)C(C(=O)NC1CCCc3ccccc31)C2

> <Shape>
0.196

> <Color>
0.067

> <Negative vol penalty>
0.000

$$$$

  -OEChem-04052319143D

 84 92  0     1  0  0  0  0  0999 V2000
  -27.4753  -30.5226   13.1954 C   0  0  0  0  0  0  0  0  0  0  0  0
  -27.8016  -29.2385   13.6198 C   0  0  0  0  0  0  0  0  0  0  0  0
  -23.0446   -9.8629   19.9247 C   0  0  0  0  0  0  0  0  0  0  0  0
  -23.8308   -9.8208   22.2089 C   0  0  0  0  0  0  0  0  0  0  0  0
  -27.4811  -31.5789   14.1054 C   0  0  0  0  0  0  0  0  0  0  0  0
  -28.1350  -29.0102   14.9544 C   0  0  0  0  0  0  0  0  0  0  0  0
  -26.8847  -24.0068   18.2572 C   0  0  0  0  0  0  0  0  0  0  0  0
  -22.2955   -8.7103   20.1613 C   0  0  0  0  0  0  0  0  0  0  0  0
  -23.0816   -8.6682   22.4455 C   0  0  0  0  0  0  0  0  0  0  0  0
  -27.6482  -22.8897   18.5932 C   0  0  0  0  0  0  0  0  0  0  0  0
  -19.3585   -7.9065   21.6313 C   0  0  0  0  0  0  0  0  0  0  0  0
  -18.0458   -7.8785   21.1604 C   0  0  0  0  0  0  0  0  0  0  0  0
  -28.2141  -23.9178   20.7008 C   0  0  0  0  0  0  0  0  0  0  0  0
  -18.5765   -5.9573   19.7950 C   0  0  0  0  0  0  0  0  0  0  0  0
  -29.6069  -18.7288   20.7619 C   0  0  0  0  0  0  0  0  0  0  0  0
  -23.8123  -10.4181   20.9485 C   0  0  0  0  0  0  0  0  0  0  0  0
  -24.1707  -12.9427   20.8726 C   0  0  0  0  0  0  0  0  0  0  0  0
  -27.8053  -31.3617   15.4539 C   0  0  0  0  0  0  0  0  0  0  0  0
  -26.7888  -25.0943   19.1374 C   0  0  0  0  0  0  0  0  0  0  0  0
  -28.1464  -30.0648   15.8831 C   0  0  0  0  0  0  0  0  0  0  0  0
  -27.4467  -25.0465   20.3747 C   0  0  0  0  0  0  0  0  0  0  0  0
  -22.3139   -8.1130   21.4216 C   0  0  0  0  0  0  0  0  0  0  0  0
  -28.3154  -22.8463   19.8139 C   0  0  0  0  0  0  0  0  0  0  0  0
  -20.2802   -6.9599   21.1839 C   0  0  0  0  0  0  0  0  0  0  0  0
  -17.6548   -6.9039   20.2423 C   0  0  0  0  0  0  0  0  0  0  0  0
  -19.8892   -5.9853   20.2658 C   0  0  0  0  0  0  0  0  0  0  0  0
  -24.5868  -11.6084   20.7046 C   0  0  0  0  0  0  0  0  0  0  0  0
  -30.6730  -17.9064   20.9943 C   0  0  0  0  0  0  0  0  0  0  0  0
  -25.2639  -13.6914   20.5111 C   0  0  0  0  0  0  0  0  0  0  0  0
  -31.2435  -19.3302   19.3981 C   0  0  0  0  0  0  0  0  0  0  0  0
  -22.9088  -13.4591   21.3160 C   0  0  0  0  0  0  0  0  0  0  0  0
  -27.5975  -28.1655   19.0046 C   0  0  0  0  0  0  0  0  0  0  0  0
  -26.0701  -28.2894   21.8636 C   0  0  0  0  0  0  0  0  0  0  0  0
  -25.0021  -26.6365   24.6519 C   0  0  0  0  0  0  0  0  0  0  0  0
  -30.7566  -14.6689   20.6552 C   0  0  0  0  0  0  0  0  0  0  0  0
  -27.8440  -32.5431   16.3906 C   0  0  0  0  0  0  0  0  0  0  0  0
  -25.9395  -26.2806   18.7715 C   0  0  0  0  0  0  0  0  0  0  0  0
  -27.3594  -26.1792   21.3635 C   0  0  0  0  0  0  0  0  0  0  0  0
  -27.8443  -32.1510   17.8659 C   0  0  0  0  0  0  0  0  0  0  0  0
  -29.5747  -12.3383   18.2368 C   0  0  0  0  0  0  0  0  0  0  0  0
  -28.8514  -31.0341   18.1212 C   0  0  0  0  0  0  0  0  0  0  0  0
  -28.1403  -12.0463   18.6807 C   0  0  0  0  0  0  0  0  0  0  0  0
  -30.5071  -12.5298   19.4309 C   0  0  0  0  0  0  0  0  0  0  0  0
  -28.6266  -13.2473   20.8532 C   0  0  0  0  0  0  0  0  0  0  0  0
  -28.4894  -29.7728   17.3278 C   0  0  1  0  0  0  0  0  0  0  0  0
  -26.3293  -27.5492   19.5239 C   0  0  1  0  0  0  0  0  0  0  0  0
  -27.6378  -13.1020   19.6838 C   0  0  2  0  0  0  0  0  0  0  0  0
  -30.3318  -18.5334   15.1141 C   0  0  0  0  0  0  0  0  0  0  0  0
  -23.8163  -27.0119   26.8313 C   0  0  0  0  0  0  0  0  0  0  0  0
  -33.4732  -19.4098   18.2222 C   0  0  0  0  0  0  0  0  0  0  0  0
  -32.3115  -21.5568   18.6303 C   0  0  0  0  0  0  0  0  0  0  0  0
  -28.5946  -29.5577   23.0160 C   0  0  0  0  0  0  0  0  0  0  0  0
  -27.7275  -29.0360   25.3060 C   0  0  0  0  0  0  0  0  0  0  0  0
  -26.4561  -30.5792   23.8145 C   0  0  0  0  0  0  0  0  0  0  0  0
  -22.8171  -24.7811   23.9157 C   0  0  0  0  0  0  0  0  0  0  0  0
  -30.8519  -16.7949   21.9319 C   0  0  0  0  0  0  0  0  0  0  0  0
  -30.8416  -18.5627   16.5481 C   0  0  0  0  0  0  0  0  0  0  0  0
  -31.3912  -19.9485   16.9129 C   0  0  0  0  0  0  0  0  0  0  0  0
  -29.1221  -20.6891   19.1947 C   0  0  0  0  0  0  0  0  0  1  0  0
  -26.4811  -28.1031   23.3042 C   0  0  1  0  0  0  0  0  0  0  0  0
  -23.6634  -26.6289   25.3675 C   0  0  2  0  0  0  0  0  0  0  0  0
  -32.0362  -20.0327   18.3584 C   0  0  0  0  0  0  0  0  0  0  0  0
  -27.3183  -29.2984   23.8409 C   0  0  0  0  0  0  0  0  0  0  0  0
  -25.8461  -11.5118   20.2699 N   0  0  0  0  0  0  0  0  0  0  0  0
  -29.9880  -19.6000   19.7701 N   0  0  0  0  0  0  0  0  0  0  0  0
  -26.2306  -12.7950   20.1617 N   0  0  0  0  0  0  0  0  0  0  0  0
  -31.6712  -18.3010   20.1364 N   0  3  0  0  0  0  0  0  0  0  0  0
  -26.5218  -27.3197   20.9572 N   0  0  0  0  0  0  0  0  0  0  0  0
  -29.9741  -13.5450   20.3427 N   0  0  0  0  0  0  0  0  0  0  0  0
  -25.4829  -15.0225   20.4610 N   0  0  0  0  0  0  0  0  0  0  0  0
  -21.8944  -12.5507   21.6476 N   0  0  0  0  0  0  0  0  0  0  0  0
  -27.4049  -29.0640   17.9726 N   0  0  0  0  0  0  0  0  0  0  0  0
  -25.2526  -27.8515   24.0499 N   0  0  0  0  0  0  0  0  0  0  0  0
  -30.1737  -15.5855   21.5216 N   0  0  0  0  0  0  0  0  0  0  0  0
  -23.0466  -25.2741   25.2982 N   0  3  0  0  0  0  0  0  0  0  0  0
  -22.6820  -14.6900   21.3995 O   0  0  0  0  0  0  0  0  0  0  0  0
  -28.6711  -27.8503   19.5043 O   0  0  0  0  0  0  0  0  0  0  0  0
  -25.3679  -29.2555   21.5551 O   0  0  0  0  0  0  0  0  0  0  0  0
  -25.7524  -25.6632   24.6321 O   0  0  0  0  0  0  0  0  0  0  0  0
  -31.8885  -14.8451   20.1918 O   0  0  0  0  0  0  0  0  0  0  0  0
  -21.5828   -6.9884   21.6529 O   0  0  0  0  0  0  0  0  0  0  0  0
  -29.0619  -21.7574   20.1440 O   0  0  0  0  0  0  0  0  0  1  0  0
  -16.3938   -6.8763   19.7914 F   0  0  0  0  0  0  0  0  0  0  0  0
  -20.7699   -5.0725   19.8333 F   0  0  0  0  0  0  0  0  0  0  0  0
  1  2  1  0  0  0  0
  1  5  2  0  0  0  0
  2  6  2  0  0  0  0
  3  8  2  0  0  0  0
  3 16  1  0  0  0  0
  4  9  1  0  0  0  0
  4 16  2  0  0  0  0
  5 18  1  0  0  0  0
  6 20  1  0  0  0  0
  7 10  2  0  0  0  0
  7 19  1  0  0  0  0
  8 22  1  0  0  0  0
  9 22  2  0  0  0  0
 10 23  1  0  0  0  0
 11 12  2  0  0  0  0
 11 24  1  0  0  0  0
 12 25  1  0  0  0  0
 13 21  1  0  0  0  0
 13 23  2  0  0  0  0
 14 25  2  0  0  0  0
 14 26  1  0  0  0  0
 15 28  2  0  0  0  0
 15 65  1  0  0  0  0
 16 27  1  0  0  0  0
 17 27  1  0  0  0  0
 17 29  2  0  0  0  0
 17 31  1  0  0  0  0
 18 20  2  0  0  0  0
 18 36  1  0  0  0  0
 19 21  2  0  0  0  0
 19 37  1  0  0  0  0
 20 45  1  0  0  0  0
 21 38  1  0  0  0  0
 22 81  1  0  0  0  0
 23 82  1  0  0  0  0
 24 26  2  0  0  0  0
 24 81  1  0  0  0  0
 25 83  1  0  0  0  0
 26 84  1  0  0  0  0
 27 64  2  0  0  0  0
 28 56  1  0  0  0  0
 28 67  1  0  0  0  0
 29 66  1  0  0  0  0
 29 70  1  0  0  0  0
 30 62  1  0  0  0  0
 30 65  1  0  0  0  0
 30 67  2  0  0  0  0
 31 71  1  0  0  0  0
 31 76  2  0  0  0  0
 32 46  1  0  0  0  0
 32 72  1  0  0  0  0
 32 77  2  0  0  0  0
 33 60  1  0  0  0  0
 33 68  1  0  0  0  0
 33 78  2  0  0  0  0
 34 61  1  0  0  0  0
 34 73  1  0  0  0  0
 34 79  2  0  0  0  0
 35 69  1  0  0  0  0
 35 74  1  0  0  0  0
 35 80  2  0  0  0  0
 36 39  1  0  0  0  0
 37 46  1  0  0  0  0
 38 68  1  0  0  0  0
 39 41  1  0  0  0  0
 40 42  1  0  0  0  0
 40 43  1  0  0  0  0
 41 45  1  0  0  0  0
 42 47  1  0  0  0  0
 43 69  1  0  0  0  0
 44 47  1  0  0  0  0
 44 69  1  0  0  0  0
 45 72  1  0  0  0  0
 46 68  1  0  0  0  0
 47 66  1  0  0  0  0
 48 57  1  0  0  0  0
 49 61  1  0  0  0  0
 50 62  1  0  0  0  0
 51 62  1  0  0  0  0
 52 63  1  0  0  0  0
 53 63  1  0  0  0  0
 54 63  1  0  0  0  0
 55 75  1  0  0  0  0
 56 74  1  0  0  0  0
 57 58  1  0  0  0  0
 58 62  1  0  0  0  0
 59 65  1  0  0  0  0
 59 82  1  0  0  0  0
 60 63  1  0  0  0  0
 60 73  1  0  0  0  0
 61 75  1  0  0  0  0
 64 66  1  0  0  0  0
M  CHG  2  67   1  75   1
M  ISO  4  35 100  59 101  74 100  82 101
M  END
> <Batch ID>
0092

> <Smiles>
CCCC(C)(C)c1nc(C[100NH:0][100C:0](=O)N2CCCC(n3nc(-c4ccc(Oc5ccc(F)cc5F)cc4)c(C(N)=O)c3N)C2)cn1[101CH2:1][101O:1]c1ccc2c(c1)CN(C(=O)C(NC(=O)C(C)NC)C(C)(C)C)C(C(=O)NC1CCCc3ccccc31)C2

> <Shape>
0.246

> <Color>
0.193

> <Negative vol penalty>
0.000

$$$$

  -OEChem-04052319143D

 85 93  0     1  0  0  0  0  0999 V2000
  -31.7865  -22.8540   25.9266 C   0  0  0  0  0  0  0  0  0  0  0  0
  -30.5133  -23.0265   25.3931 C   0  0  0  0  0  0  0  0  0  0  0  0
  -30.4801  -28.2946   19.5621 C   0  0  0  0  0  0  0  0  0  0  0  0
  -30.1394  -27.6550   21.8668 C   0  0  0  0  0  0  0  0  0  0  0  0
  -32.6479  -21.9044   25.3787 C   0  0  0  0  0  0  0  0  0  0  0  0
  -30.1011  -22.2500   24.3106 C   0  0  0  0  0  0  0  0  0  0  0  0
  -25.4064  -20.4426   24.8920 C   0  0  0  0  0  0  0  0  0  0  0  0
  -31.8559  -28.3571   19.7827 C   0  0  0  0  0  0  0  0  0  0  0  0
  -31.5153  -27.7174   22.0875 C   0  0  0  0  0  0  0  0  0  0  0  0
  -24.3514  -21.3223   24.6535 C   0  0  0  0  0  0  0  0  0  0  0  0
  -34.2231  -25.7873   21.4849 C   0  0  0  0  0  0  0  0  0  0  0  0
  -34.8117  -24.7426   22.1974 C   0  0  0  0  0  0  0  0  0  0  0  0
  -24.0528  -20.3603   22.4615 C   0  0  0  0  0  0  0  0  0  0  0  0
  -20.3820  -26.7144   22.6228 C   0  0  0  0  0  0  0  0  0  0  0  0
  -35.5573  -26.3093   23.8787 C   0  0  0  0  0  0  0  0  0  0  0  0
  -18.1178  -28.2317   22.7544 C   0  0  0  0  0  0  0  0  0  0  0  0
  -29.6218  -27.9436   20.6041 C   0  0  0  0  0  0  0  0  0  0  0  0
  -27.4563  -26.7607   19.9567 C   0  0  0  0  0  0  0  0  0  0  0  0
  -32.2426  -21.1092   24.2952 C   0  0  0  0  0  0  0  0  0  0  0  0
  -25.8003  -19.5210   23.9113 C   0  0  0  0  0  0  0  0  0  0  0  0
  -30.9584  -21.2898   23.7469 C   0  0  0  0  0  0  0  0  0  0  0  0
  -25.1115  -19.4683   22.6910 C   0  0  0  0  0  0  0  0  0  0  0  0
  -19.1593  -26.0961   22.8600 C   0  0  0  0  0  0  0  0  0  0  0  0
  -18.0009  -26.8621   22.9284 C   0  0  0  0  0  0  0  0  0  0  0  0
  -32.3736  -28.0685   21.0454 C   0  0  0  0  0  0  0  0  0  0  0  0
  -23.6763  -21.2832   23.4370 C   0  0  0  0  0  0  0  0  0  0  0  0
  -34.3016  -27.0931   21.9692 C   0  0  0  0  0  0  0  0  0  0  0  0
  -35.4788  -25.0035   23.3943 C   0  0  0  0  0  0  0  0  0  0  0  0
  -34.9687  -27.3540   23.1661 C   0  0  0  0  0  0  0  0  0  0  0  0
  -28.2004  -27.8795   20.3769 C   0  0  0  0  0  0  0  0  0  0  0  0
  -20.3923  -28.0906   22.4623 C   0  0  0  0  0  0  0  0  0  0  0  0
  -26.1615  -27.2142   19.8920 C   0  0  0  0  0  0  0  0  0  0  0  0
  -27.8963  -25.4306   19.6521 C   0  0  0  0  0  0  0  0  0  0  0  0
  -28.4621  -19.0139   22.2496 C   0  0  0  0  0  0  0  0  0  0  0  0
  -26.8475  -16.4024   21.2028 C   0  0  0  0  0  0  0  0  0  0  0  0
  -23.8417  -14.8842   20.6486 C   0  0  0  0  0  0  0  0  0  0  0  0
  -21.8884  -30.0712   22.0325 C   0  0  0  0  0  0  0  0  0  0  0  0
  -33.2258  -20.1287   23.7066 C   0  0  0  0  0  0  0  0  0  0  0  0
  -26.9230  -18.5609   24.1943 C   0  0  0  0  0  0  0  0  0  0  0  0
  -25.4821  -18.4840   21.6130 C   0  0  0  0  0  0  0  0  0  0  0  0
  -32.5772  -19.0860   22.7996 C   0  0  0  0  0  0  0  0  0  0  0  0
  -24.2991  -31.9128   20.1686 C   0  0  0  0  0  0  0  0  0  0  0  0
  -31.6029  -19.7514   21.8328 C   0  0  0  0  0  0  0  0  0  0  0  0
  -25.4678  -30.9356   20.0221 C   0  0  0  0  0  0  0  0  0  0  0  0
  -23.6185  -31.7828   21.5300 C   0  0  0  0  0  0  0  0  0  0  0  0
  -24.3658  -29.4447   21.7395 C   0  0  0  0  0  0  0  0  0  0  0  0
  -30.4659  -20.4495   22.5887 C   0  0  1  0  0  0  0  0  0  0  0  0
  -27.5724  -18.0110   22.9281 C   0  0  1  0  0  0  0  0  0  0  0  0
  -25.0421  -29.4933   20.3597 C   0  0  2  0  0  0  0  0  0  0  0  0
  -16.0895  -25.8606   20.7147 C   0  0  0  0  0  0  0  0  0  0  0  0
  -16.0572  -26.7477   24.5095 C   0  0  0  0  0  0  0  0  0  0  0  0
  -22.8409  -12.7662   19.7489 C   0  0  0  0  0  0  0  0  0  0  0  0
  -27.4232  -17.3419   18.3575 C   0  0  0  0  0  0  0  0  0  0  0  0
  -25.6437  -15.7745   17.5544 C   0  0  0  0  0  0  0  0  0  0  0  0
  -27.6637  -14.8779   18.7113 C   0  0  0  0  0  0  0  0  0  0  0  0
  -22.5725  -14.2444   23.2444 C   0  0  0  0  0  0  0  0  0  0  0  0
  -19.1130  -24.5995   23.0385 C   0  0  0  0  0  0  0  0  0  0  0  0
  -15.6388  -26.4736   22.0351 C   0  0  0  0  0  0  0  0  0  0  0  0
  -20.3989  -23.8845   22.6089 C   0  0  0  0  0  0  0  0  0  0  0  0
  -20.3050  -22.3625   22.7248 C   0  0  0  0  0  0  0  0  0  0  0  0
  -21.6121  -21.6899   22.3280 C   0  0  0  0  0  0  0  0  0  1  0  0
  -16.6660  -26.2511   23.1800 C   0  0  1  0  0  0  0  0  0  0  0  0
  -25.9129  -16.1132   20.0532 C   0  0  1  0  0  0  0  0  0  0  0  0
  -23.3380  -13.4932   20.9887 C   0  0  2  0  0  0  0  0  0  0  0  0
  -26.6549  -16.0468   18.6884 C   0  0  0  0  0  0  0  0  0  0  0  0
  -19.2878  -28.8679   22.5222 N   0  0  0  0  0  0  0  0  0  0  0  0
  -27.4414  -28.9622   20.5657 N   0  0  0  0  0  0  0  0  0  0  0  0
  -26.2069  -28.5260   20.2627 N   0  0  0  0  0  0  0  0  0  0  0  0
  -26.5908  -17.5703   21.9350 N   0  0  0  0  0  0  0  0  0  0  0  0
  -23.2393  -30.3904   21.7794 N   0  0  0  0  0  0  0  0  0  0  0  0
  -24.9998  -26.6149   19.5547 N   0  0  0  0  0  0  0  0  0  0  0  0
  -29.2610  -25.1346   19.7709 N   0  0  0  0  0  0  0  0  0  0  0  0
  -21.6430  -28.7118   22.2227 N   0  0  0  0  0  0  0  0  0  0  0  0
  -29.4920  -19.4805   23.0440 N   0  0  0  0  0  0  0  0  0  0  0  0
  -25.1989  -14.8906   20.4052 N   0  0  0  0  0  0  0  0  0  0  0  0
  -22.2172  -13.5732   21.9676 N   0  3  0  0  0  0  0  0  0  0  0  0
  -27.1050  -24.5355   19.2696 O   0  0  0  0  0  0  0  0  0  0  0  0
  -28.2322  -19.3391   21.0907 O   0  0  0  0  0  0  0  0  0  0  0  0
  -27.7671  -15.6173   21.4469 O   0  0  0  0  0  0  0  0  0  0  0  0
  -23.1044  -15.8663   20.5998 O   0  0  0  0  0  0  0  0  0  0  0  0
  -21.0095  -30.9367   22.0502 O   0  0  0  0  0  0  0  0  0  0  0  0
  -33.7161  -28.1291   21.2611 O   0  0  0  0  0  0  0  0  0  0  0  0
  -22.6466  -22.1411   23.2013 O   0  0  0  0  0  0  0  0  0  1  0  0
  -36.0426  -24.0000   24.0792 F   0  0  0  0  0  0  0  0  0  0  0  0
  -35.0465  -28.6062   23.6370 F   0  0  0  0  0  0  0  0  0  0  0  0
  1  2  1  0  0  0  0
  1  5  2  0  0  0  0
  2  6  2  0  0  0  0
  3  8  2  0  0  0  0
  3 17  1  0  0  0  0
  4  9  1  0  0  0  0
  4 17  2  0  0  0  0
  5 19  1  0  0  0  0
  6 21  1  0  0  0  0
  7 10  2  0  0  0  0
  7 20  1  0  0  0  0
  8 25  1  0  0  0  0
  9 25  2  0  0  0  0
 10 26  1  0  0  0  0
 11 12  2  0  0  0  0
 11 27  1  0  0  0  0
 12 28  1  0  0  0  0
 13 22  1  0  0  0  0
 13 26  2  0  0  0  0
 14 23  1  0  0  0  0
 14 31  2  0  0  0  0
 15 28  2  0  0  0  0
 15 29  1  0  0  0  0
 16 24  1  0  0  0  0
 16 66  2  0  0  0  0
 17 30  1  0  0  0  0
 18 30  1  0  0  0  0
 18 32  2  0  0  0  0
 18 33  1  0  0  0  0
 19 21  2  0  0  0  0
 19 38  1  0  0  0  0
 20 22  2  0  0  0  0
 20 39  1  0  0  0  0
 21 47  1  0  0  0  0
 22 40  1  0  0  0  0
 23 24  2  0  0  0  0
 23 57  1  0  0  0  0
 24 62  1  0  0  0  0
 25 82  1  0  0  0  0
 26 83  1  0  0  0  0
 27 29  2  0  0  0  0
 27 82  1  0  0  0  0
 28 84  1  0  0  0  0
 29 85  1  0  0  0  0
 30 67  2  0  0  0  0
 31 66  1  0  0  0  0
 31 73  1  0  0  0  0
 32 68  1  0  0  0  0
 32 71  1  0  0  0  0
 33 72  1  0  0  0  0
 33 77  2  0  0  0  0
 34 48  1  0  0  0  0
 34 74  1  0  0  0  0
 34 78  2  0  0  0  0
 35 63  1  0  0  0  0
 35 69  1  0  0  0  0
 35 79  2  0  0  0  0
 36 64  1  0  0  0  0
 36 75  1  0  0  0  0
 36 80  2  0  0  0  0
 37 70  1  0  0  0  0
 37 73  1  0  0  0  0
 37 81  2  0  0  0  0
 38 41  1  0  0  0  0
 39 48  1  0  0  0  0
 40 69  1  0  0  0  0
 41 43  1  0  0  0  0
 42 44  1  0  0  0  0
 42 45  1  0  0  0  0
 43 47  1  0  0  0  0
 44 49  1  0  0  0  0
 45 70  1  0  0  0  0
 46 49  1  0  0  0  0
 46 70  1  0  0  0  0
 47 74  1  0  0  0  0
 48 69  1  0  0  0  0
 49 68  1  0  0  0  0
 50 58  1  0  0  0  0
 51 62  1  0  0  0  0
 52 64  1  0  0  0  0
 53 65  1  0  0  0  0
 54 65  1  0  0  0  0
 55 65  1  0  0  0  0
 56 76  1  0  0  0  0
 57 59  1  0  0  0  0
 58 62  1  0  0  0  0
 59 60  1  0  0  0  0
 60 61  1  0  0  0  0
 61 83  1  0  0  0  0
 63 65  1  0  0  0  0
 63 75  1  0  0  0  0
 64 76  1  0  0  0  0
 67 68  1  0  0  0  0
M  CHG  1  76   1
M  ISO  4  37 100  61 101  73 100  83 101
M  END
> <Batch ID>
0092

> <Smiles>
CCC(C)c1cnc([100NH:0][100C:0](=O)N2CCCC(n3nc(-c4ccc(Oc5ccc(F)cc5F)cc4)c(C(N)=O)c3N)C2)cc1CCC[101CH2:1][101O:1]c1ccc2c(c1)CN(C(=O)C(NC(=O)C(C)NC)C(C)(C)C)C(C(=O)NC1CCCc3ccccc31)C2

> <Shape>
0.188

> <Color>
0.077

> <Negative vol penalty>
0.000

$$$$

  -OEChem-04052319143D

 87 95  0     1  0  0  0  0  0999 V2000
  -16.5210  -28.9428   23.3211 C   0  0  0  0  0  0  0  0  0  0  0  0
  -17.1433  -29.2857   22.1251 C   0  0  0  0  0  0  0  0  0  0  0  0
  -22.2562  -15.6617   19.7961 C   0  0  0  0  0  0  0  0  0  0  0  0
  -22.6628  -13.7948   21.2747 C   0  0  0  0  0  0  0  0  0  0  0  0
  -17.1482  -29.2174   24.5357 C   0  0  0  0  0  0  0  0  0  0  0  0
  -18.3928  -29.9045   22.1429 C   0  0  0  0  0  0  0  0  0  0  0  0
  -25.0836  -27.7635   18.7258 C   0  0  0  0  0  0  0  0  0  0  0  0
  -21.0575  -15.0772   19.3876 C   0  0  0  0  0  0  0  0  0  0  0  0
  -21.4640  -13.2102   20.8662 C   0  0  0  0  0  0  0  0  0  0  0  0
  -26.3631  -27.4052   18.3010 C   0  0  0  0  0  0  0  0  0  0  0  0
  -20.3297  -11.4432   18.2164 C   0  0  0  0  0  0  0  0  0  0  0  0
  -20.3418  -10.0807   17.9179 C   0  0  0  0  0  0  0  0  0  0  0  0
  -27.3323  -28.6593   20.1274 C   0  0  0  0  0  0  0  0  0  0  0  0
  -30.4265  -22.9103   19.6325 C   0  0  0  0  0  0  0  0  0  0  0  0
  -18.7000   -9.6875   19.6462 C   0  0  0  0  0  0  0  0  0  0  0  0
  -23.0590  -15.0205   20.7396 C   0  0  0  0  0  0  0  0  0  0  0  0
  -24.4871  -16.5146   22.2348 C   0  0  0  0  0  0  0  0  0  0  0  0
  -18.4104  -29.8311   24.5682 C   0  0  0  0  0  0  0  0  0  0  0  0
  -24.9228  -28.5593   19.8634 C   0  0  0  0  0  0  0  0  0  0  0  0
  -19.0369  -30.1888   23.3591 C   0  0  0  0  0  0  0  0  0  0  0  0
  -26.0527  -29.0111   20.5649 C   0  0  0  0  0  0  0  0  0  0  0  0
  -29.9274  -24.0829   20.1885 C   0  0  0  0  0  0  0  0  0  0  0  0
  -28.9276  -24.0181   21.1526 C   0  0  0  0  0  0  0  0  0  0  0  0
  -20.6613  -13.8514   19.9227 C   0  0  0  0  0  0  0  0  0  0  0  0
  -27.4847  -27.8522   18.9999 C   0  0  0  0  0  0  0  0  0  0  0  0
  -19.5029  -11.9278   19.2299 C   0  0  0  0  0  0  0  0  0  0  0  0
  -19.5269   -9.2029   18.6327 C   0  0  0  0  0  0  0  0  0  0  0  0
  -18.6880  -11.0500   19.9447 C   0  0  0  0  0  0  0  0  0  0  0  0
  -24.2977  -15.6236   21.1615 C   0  0  0  0  0  0  0  0  0  0  0  0
  -29.8964  -21.7077   20.0712 C   0  0  0  0  0  0  0  0  0  0  0  0
  -28.4645  -22.7659   21.5231 C   0  0  0  0  0  0  0  0  0  0  0  0
  -25.8321  -16.7924   22.2170 C   0  0  0  0  0  0  0  0  0  0  0  0
  -30.3875  -20.4334   19.5172 C   0  0  0  0  0  0  0  0  0  0  0  0
  -23.5327  -17.0438   23.1647 C   0  0  0  0  0  0  0  0  0  0  0  0
  -22.5484  -30.2689   22.2119 C   0  0  0  0  0  0  0  0  0  0  0  0
  -24.7893  -29.0679   23.9284 C   0  0  0  0  0  0  0  0  0  0  0  0
  -27.2103  -27.2388   25.4876 C   0  0  0  0  0  0  0  0  0  0  0  0
  -30.4245  -18.1399   19.3453 C   0  0  0  0  0  0  0  0  0  0  0  0
  -19.0279  -30.1508   25.9065 C   0  0  0  0  0  0  0  0  0  0  0  0
  -23.5659  -29.0205   20.3217 C   0  0  0  0  0  0  0  0  0  0  0  0
  -25.8330  -29.8939   21.7630 C   0  0  0  0  0  0  0  0  0  0  0  0
  -20.5188  -30.4693   25.8289 C   0  0  0  0  0  0  0  0  0  0  0  0
  -29.6185  -14.6390   19.6597 C   0  0  0  0  0  0  0  0  0  0  0  0
  -20.7978  -31.4440   24.6892 C   0  0  0  0  0  0  0  0  0  0  0  0
  -28.1653  -14.6586   20.1333 C   0  0  0  0  0  0  0  0  0  0  0  0
  -29.9094  -15.7865   18.6974 C   0  0  0  0  0  0  0  0  0  0  0  0
  -28.1155  -17.1581   19.7216 C   0  0  0  0  0  0  0  0  0  0  0  0
  -20.4033  -30.8387   23.3366 C   0  0  1  0  0  0  0  0  0  0  0  0
  -23.4490  -29.1237   21.8530 C   0  0  1  0  0  0  0  0  0  0  0  0
  -27.7932  -16.0324   20.7191 C   0  0  1  0  0  0  0  0  0  0  0  0
  -28.3732  -25.2594   21.7663 C   0  0  0  0  0  0  0  0  0  0  0  0
  -25.4240  -21.2608   23.3659 C   0  0  0  0  0  0  0  0  0  0  0  0
  -32.3225  -25.4250   21.5207 C   0  0  0  0  0  0  0  0  0  0  0  0
  -28.4737  -26.1824   27.3810 C   0  0  0  0  0  0  0  0  0  0  0  0
  -26.0939  -31.8189   24.1119 C   0  0  0  0  0  0  0  0  0  0  0  0
  -27.6555  -30.8853   25.8318 C   0  0  0  0  0  0  0  0  0  0  0  0
  -25.2016  -30.9406   26.2768 C   0  0  0  0  0  0  0  0  0  0  0  0
  -25.5030  -24.8220   25.4316 C   0  0  0  0  0  0  0  0  0  0  0  0
  -27.3910  -22.6334   22.5536 C   0  0  0  0  0  0  0  0  0  0  0  0
  -26.4951  -21.4132   22.2974 C   0  0  0  0  0  0  0  0  0  0  0  0
  -31.9984  -25.5517   20.0366 C   0  0  0  0  0  0  0  0  0  0  0  0
  -30.2403  -25.6634   18.2231 C   0  0  0  0  0  0  0  0  0  0  0  0
  -28.8576  -26.2357   17.9231 C   0  0  0  0  0  0  0  0  0  1  0  0
  -30.4898  -25.4185   19.7274 C   0  0  1  0  0  0  0  0  0  0  0  0
  -26.1206  -29.2842   24.6023 C   0  0  1  0  0  0  0  0  0  0  0  0
  -27.1444  -26.2604   26.6463 C   0  0  2  0  0  0  0  0  0  0  0  0
  -26.2660  -30.7204   25.1799 C   0  0  0  0  0  0  0  0  0  0  0  0
  -25.4315  -15.3534   20.5093 N   0  0  0  0  0  0  0  0  0  0  0  0
  -28.9247  -21.6049   21.0056 N   0  0  0  0  0  0  0  0  0  0  0  0
  -29.9156  -19.2949   19.9076 N   0  0  0  0  0  0  0  0  0  0  0  0
  -26.3464  -16.0790   21.1746 N   0  0  0  0  0  0  0  0  0  0  0  0
  -24.7118  -29.3812   22.5659 N   0  0  0  0  0  0  0  0  0  0  0  0
  -29.5121  -17.0711   19.2751 N   0  0  0  0  0  0  0  0  0  0  0  0
  -26.6132  -17.5750   22.9916 N   0  0  0  0  0  0  0  0  0  0  0  0
  -22.1921  -16.6544   23.0404 N   0  0  0  0  0  0  0  0  0  0  0  0
  -21.4064  -29.8942   22.8937 N   0  0  0  0  0  0  0  0  0  0  0  0
  -26.2520  -28.2243   25.5962 N   0  0  0  0  0  0  0  0  0  0  0  0
  -26.7990  -24.8969   26.1539 N   0  3  0  0  0  0  0  0  0  0  0  0
  -23.8562  -17.8512   24.0685 O   0  0  0  0  0  0  0  0  0  0  0  0
  -22.8659  -31.4094   21.8955 O   0  0  0  0  0  0  0  0  0  0  0  0
  -23.8407  -28.6382   24.5908 O   0  0  0  0  0  0  0  0  0  0  0  0
  -28.0321  -27.1410   24.5790 O   0  0  0  0  0  0  0  0  0  0  0  0
  -31.5791  -18.0305   18.9259 O   0  0  0  0  0  0  0  0  0  0  0  0
  -19.4915  -13.2809   19.5245 O   0  0  0  0  0  0  0  0  0  0  0  0
  -28.7308  -27.4949   18.5823 O   0  0  0  0  0  0  0  0  0  1  0  0
  -19.5374   -7.8947   18.3449 F   0  0  0  0  0  0  0  0  0  0  0  0
  -17.8907  -11.5099   20.9187 F   0  0  0  0  0  0  0  0  0  0  0  0
  1  2  1  0  0  0  0
  1  5  2  0  0  0  0
  2  6  2  0  0  0  0
  3  8  2  0  0  0  0
  3 16  1  0  0  0  0
  4  9  1  0  0  0  0
  4 16  2  0  0  0  0
  5 18  1  0  0  0  0
  6 20  1  0  0  0  0
  7 10  2  0  0  0  0
  7 19  1  0  0  0  0
  8 24  1  0  0  0  0
  9 24  2  0  0  0  0
 10 25  1  0  0  0  0
 11 12  2  0  0  0  0
 11 26  1  0  0  0  0
 12 27  1  0  0  0  0
 13 21  1  0  0  0  0
 13 25  2  0  0  0  0
 14 22  2  0  0  0  0
 14 30  1  0  0  0  0
 15 27  2  0  0  0  0
 15 28  1  0  0  0  0
 16 29  1  0  0  0  0
 17 29  1  0  0  0  0
 17 32  2  0  0  0  0
 17 34  1  0  0  0  0
 18 20  2  0  0  0  0
 18 39  1  0  0  0  0
 19 21  2  0  0  0  0
 19 40  1  0  0  0  0
 20 48  1  0  0  0  0
 21 41  1  0  0  0  0
 22 23  1  0  0  0  0
 22 64  1  0  0  0  0
 23 31  2  0  0  0  0
 23 51  1  0  0  0  0
 24 84  1  0  0  0  0
 25 85  1  0  0  0  0
 26 28  2  0  0  0  0
 26 84  1  0  0  0  0
 27 86  1  0  0  0  0
 28 87  1  0  0  0  0
 29 68  2  0  0  0  0
 30 33  1  0  0  0  0
 30 69  2  0  0  0  0
 31 59  1  0  0  0  0
 31 69  1  0  0  0  0
 32 71  1  0  0  0  0
 32 74  1  0  0  0  0
 33 70  2  0  0  0  0
 34 75  1  0  0  0  0
 34 79  2  0  0  0  0
 35 49  1  0  0  0  0
 35 76  1  0  0  0  0
 35 80  2  0  0  0  0
 36 65  1  0  0  0  0
 36 72  1  0  0  0  0
 36 81  2  0  0  0  0
 37 66  1  0  0  0  0
 37 77  1  0  0  0  0
 37 82  2  0  0  0  0
 38 70  1  0  0  0  0
 38 73  1  0  0  0  0
 38 83  2  0  0  0  0
 39 42  1  0  0  0  0
 40 49  1  0  0  0  0
 41 72  1  0  0  0  0
 42 44  1  0  0  0  0
 43 45  1  0  0  0  0
 43 46  1  0  0  0  0
 44 48  1  0  0  0  0
 45 50  1  0  0  0  0
 46 73  1  0  0  0  0
 47 50  1  0  0  0  0
 47 73  1  0  0  0  0
 48 76  1  0  0  0  0
 49 72  1  0  0  0  0
 50 71  1  0  0  0  0
 52 60  1  0  0  0  0
 53 61  1  0  0  0  0
 54 66  1  0  0  0  0
 55 67  1  0  0  0  0
 56 67  1  0  0  0  0
 57 67  1  0  0  0  0
 58 78  1  0  0  0  0
 59 60  1  0  0  0  0
 61 64  1  0  0  0  0
 62 63  1  0  0  0  0
 62 64  1  0  0  0  0
 63 85  1  0  0  0  0
 65 67  1  0  0  0  0
 65 77  1  0  0  0  0
 66 78  1  0  0  0  0
 68 71  1  0  0  0  0
M  CHG  1  78   1
M  ISO  4  38 100  63 101  70 100  85 101
M  END
> <Batch ID>
0092

> <Smiles>
CC=Cc1nc(C[100NH:0][100C:0](=O)N2CCCC(n3nc(-c4ccc(Oc5ccc(F)cc5F)cc4)c(C(N)=O)c3N)C2)cc(C(CC)C[101CH2:1][101O:1]c2ccc3c(c2)CN(C(=O)C(NC(=O)C(C)NC)C(C)(C)C)C(C(=O)NC2CCCc4ccccc42)C3)c1C

> <Shape>
0.247

> <Color>
0.093

> <Negative vol penalty>
0.000

$$$$

  -OEChem-04052319143D

 90 98  0     1  0  0  0  0  0999 V2000
  -16.9712  -30.7882   23.4059 C   0  0  0  0  0  0  0  0  0  0  0  0
  -18.2965  -30.8583   23.8232 C   0  0  0  0  0  0  0  0  0  0  0  0
  -24.3562  -11.7987   19.9176 C   0  0  0  0  0  0  0  0  0  0  0  0
  -25.2441  -12.1486   22.1371 C   0  0  0  0  0  0  0  0  0  0  0  0
  -16.4069  -29.5542   23.0854 C   0  0  0  0  0  0  0  0  0  0  0  0
  -19.0579  -29.6943   23.9214 C   0  0  0  0  0  0  0  0  0  0  0  0
  -25.1514  -28.9206   20.1581 C   0  0  0  0  0  0  0  0  0  0  0  0
  -24.4768  -10.4195   20.0868 C   0  0  0  0  0  0  0  0  0  0  0  0
  -25.3647  -10.7693   22.3063 C   0  0  0  0  0  0  0  0  0  0  0  0
  -26.4364  -28.7823   19.6330 C   0  0  0  0  0  0  0  0  0  0  0  0
  -24.2135   -6.7938   20.0711 C   0  0  0  0  0  0  0  0  0  0  0  0
  -23.1407   -5.9955   19.6744 C   0  0  0  0  0  0  0  0  0  0  0  0
  -26.5827  -26.5497   20.5508 C   0  0  0  0  0  0  0  0  0  0  0  0
  -21.7065   -7.1428   21.2440 C   0  0  0  0  0  0  0  0  0  0  0  0
  -31.9982  -22.5093   20.3655 C   0  0  0  0  0  0  0  0  0  0  0  0
  -24.7398  -12.6633   20.9428 C   0  0  0  0  0  0  0  0  0  0  0  0
  -23.5037  -14.8902   21.0872 C   0  0  0  0  0  0  0  0  0  0  0  0
  -17.1646  -28.3755   23.1704 C   0  0  0  0  0  0  0  0  0  0  0  0
  -24.5705  -27.8669   20.8693 C   0  0  0  0  0  0  0  0  0  0  0  0
  -18.5028  -28.4432   23.6030 C   0  0  0  0  0  0  0  0  0  0  0  0
  -25.2911  -26.6778   21.0684 C   0  0  0  0  0  0  0  0  0  0  0  0
  -24.9810   -9.9047   21.2811 C   0  0  0  0  0  0  0  0  0  0  0  0
  -27.1504  -27.5999   19.8291 C   0  0  0  0  0  0  0  0  0  0  0  0
  -24.0328   -7.7666   21.0544 C   0  0  0  0  0  0  0  0  0  0  0  0
  -21.8872   -6.1700   20.2608 C   0  0  0  0  0  0  0  0  0  0  0  0
  -22.7793   -7.9411   21.6408 C   0  0  0  0  0  0  0  0  0  0  0  0
  -24.6160  -14.0883   20.7684 C   0  0  0  0  0  0  0  0  0  0  0  0
  -30.6421  -22.4957   20.1240 C   0  0  0  0  0  0  0  0  0  0  0  0
  -32.2846  -24.0203   18.6730 C   0  0  0  0  0  0  0  0  0  0  0  0
  -30.9285  -24.0062   18.4310 C   0  0  0  0  0  0  0  0  0  0  0  0
  -23.8851  -16.1618   20.7351 C   0  0  0  0  0  0  0  0  0  0  0  0
  -22.2390  -14.5189   21.6512 C   0  0  0  0  0  0  0  0  0  0  0  0
  -21.5786  -26.5878   22.7370 C   0  0  0  0  0  0  0  0  0  0  0  0
  -22.6345  -24.2583   21.0432 C   0  0  0  0  0  0  0  0  0  0  0  0
  -23.8545  -22.0826   18.7162 C   0  0  0  0  0  0  0  0  0  0  0  0
  -28.5005  -19.4938   20.8256 C   0  0  0  0  0  0  0  0  0  0  0  0
  -16.4972  -27.0594   22.8590 C   0  0  0  0  0  0  0  0  0  0  0  0
  -23.2129  -27.9945   21.5054 C   0  0  0  0  0  0  0  0  0  0  0  0
  -24.6397  -25.5838   21.8695 C   0  0  0  0  0  0  0  0  0  0  0  0
  -17.4824  -25.9160   22.6299 C   0  0  0  0  0  0  0  0  0  0  0  0
  -27.3127  -18.0637   17.7205 C   0  0  0  0  0  0  0  0  0  0  0  0
  -18.5523  -25.9074   23.7171 C   0  0  0  0  0  0  0  0  0  0  0  0
  -26.3805  -16.9629   18.2296 C   0  0  0  0  0  0  0  0  0  0  0  0
  -28.5458  -18.1986   18.6090 C   0  0  0  0  0  0  0  0  0  0  0  0
  -27.3130  -17.3346   20.5603 C   0  0  0  0  0  0  0  0  0  0  0  0
  -19.3684  -27.2055   23.6984 C   0  0  1  0  0  0  0  0  0  0  0  0
  -22.4155  -26.6780   21.4949 C   0  0  1  0  0  0  0  0  0  0  0  0
  -26.0362  -17.1638   19.7173 C   0  0  2  0  0  0  0  0  0  0  0  0
  -34.7710  -24.4926   14.3236 C   0  0  0  0  0  0  0  0  0  0  0  0
  -23.9829  -20.0086   17.3093 C   0  0  0  0  0  0  0  0  0  0  0  0
  -27.3849  -21.7965   16.0531 C   0  0  0  0  0  0  0  0  0  0  0  0
  -27.5610  -23.4398   14.1618 C   0  0  0  0  0  0  0  0  0  0  0  0
  -23.9927  -23.1028   23.5178 C   0  0  0  0  0  0  0  0  0  0  0  0
  -24.4768  -21.0313   22.1977 C   0  0  0  0  0  0  0  0  0  0  0  0
  -22.1155  -21.7185   22.6154 C   0  0  0  0  0  0  0  0  0  0  0  0
  -22.1183  -23.2538   16.6250 C   0  0  0  0  0  0  0  0  0  0  0  0
  -33.2091  -24.8681   17.8679 C   0  0  0  0  0  0  0  0  0  0  0  0
  -29.7379  -21.6415   20.9415 C   0  0  0  0  0  0  0  0  0  0  0  0
  -34.4690  -25.1177   15.6762 C   0  0  0  0  0  0  0  0  0  0  0  0
  -33.4893  -24.2643   16.4817 C   0  0  0  0  0  0  0  0  0  0  0  0
  -29.8318  -26.2325   17.8051 C   0  0  0  0  0  0  0  0  0  0  0  0
  -29.5437  -23.1059   15.7237 C   0  0  0  0  0  0  0  0  0  0  0  0
  -28.8208  -26.1547   18.9466 C   0  0  0  0  0  0  0  0  0  1  0  0
  -30.3139  -24.8507   17.3365 C   0  0  2  0  0  0  0  0  0  0  0  0
  -23.5201  -23.0397   20.9804 C   0  0  1  0  0  0  0  0  0  0  0  0
  -23.1584  -21.2356   17.6662 C   0  0  2  0  0  0  0  0  0  0  0  0
  -28.3294  -22.4585   15.0485 C   0  0  0  0  0  0  0  0  0  0  0  0
  -23.5353  -22.2485   22.3187 C   0  0  0  0  0  0  0  0  0  0  0  0
  -32.8438  -23.2718   19.6443 N   0  0  0  0  0  0  0  0  0  0  0  0
  -25.6280  -14.7914   20.2533 N   0  0  0  0  0  0  0  0  0  0  0  0
  -30.0829  -23.2439   19.1524 N   0  0  0  0  0  0  0  0  0  0  0  0
  -25.1531  -16.0486   20.2456 N   0  0  0  0  0  0  0  0  0  0  0  0
  -23.2272  -25.4492   21.4804 N   0  0  0  0  0  0  0  0  0  0  0  0
  -28.1489  -18.4063   20.0088 N   0  0  0  0  0  0  0  0  0  0  0  0
  -23.2562  -17.3546   20.7994 N   0  0  0  0  0  0  0  0  0  0  0  0
  -22.0127  -13.1692   21.9536 N   0  0  0  0  0  0  0  0  0  0  0  0
  -20.3351  -27.1793   22.6217 N   0  0  0  0  0  0  0  0  0  0  0  0
  -23.0651  -22.2632   19.8322 N   0  0  0  0  0  0  0  0  0  0  0  0
  -29.2997  -20.4616   20.2295 N   0  0  0  0  0  0  0  0  0  0  0  0
  -22.9355  -22.0295   16.4247 N   0  3  0  0  0  0  0  0  0  0  0  0
  -29.1515  -24.1598   16.6888 N   0  3  0  0  0  0  0  0  0  0  0  0
  -21.3301  -15.3566   21.8649 O   0  0  0  0  0  0  0  0  0  0  0  0
  -22.0264  -26.0221   23.7275 O   0  0  0  0  0  0  0  0  0  0  0  0
  -21.4476  -24.1587   20.7195 O   0  0  0  0  0  0  0  0  0  0  0  0
  -24.9868  -22.5354   18.5633 O   0  0  0  0  0  0  0  0  0  0  0  0
  -28.1255  -19.5974   21.9985 O   0  0  0  0  0  0  0  0  0  0  0  0
  -25.0987   -8.5589   21.4466 O   0  0  0  0  0  0  0  0  0  0  0  0
  -28.4027  -27.4699   19.3098 O   0  0  0  0  0  0  0  0  0  1  0  0
  -20.8567   -5.4043   19.8786 F   0  0  0  0  0  0  0  0  0  0  0  0
  -22.5993   -8.8748   22.5850 F   0  0  0  0  0  0  0  0  0  0  0  0
  1  2  1  0  0  0  0
  1  5  2  0  0  0  0
  2  6  2  0  0  0  0
  3  8  2  0  0  0  0
  3 16  1  0  0  0  0
  4  9  1  0  0  0  0
  4 16  2  0  0  0  0
  5 18  1  0  0  0  0
  6 20  1  0  0  0  0
  7 10  2  0  0  0  0
  7 19  1  0  0  0  0
  8 22  1  0  0  0  0
  9 22  2  0  0  0  0
 10 23  1  0  0  0  0
 11 12  2  0  0  0  0
 11 24  1  0  0  0  0
 12 25  1  0  0  0  0
 13 21  1  0  0  0  0
 13 23  2  0  0  0  0
 14 25  2  0  0  0  0
 14 26  1  0  0  0  0
 15 28  1  0  0  0  0
 15 69  2  0  0  0  0
 16 27  1  0  0  0  0
 17 27  1  0  0  0  0
 17 31  2  0  0  0  0
 17 32  1  0  0  0  0
 18 20  2  0  0  0  0
 18 37  1  0  0  0  0
 19 21  2  0  0  0  0
 19 38  1  0  0  0  0
 20 46  1  0  0  0  0
 21 39  1  0  0  0  0
 22 87  1  0  0  0  0
 23 88  1  0  0  0  0
 24 26  2  0  0  0  0
 24 87  1  0  0  0  0
 25 89  1  0  0  0  0
 26 90  1  0  0  0  0
 27 70  2  0  0  0  0
 28 58  1  0  0  0  0
 28 71  2  0  0  0  0
 29 30  2  0  0  0  0
 29 57  1  0  0  0  0
 29 69  1  0  0  0  0
 30 64  1  0  0  0  0
 30 71  1  0  0  0  0
 31 72  1  0  0  0  0
 31 75  1  0  0  0  0
 32 76  1  0  0  0  0
 32 82  2  0  0  0  0
 33 47  1  0  0  0  0
 33 77  1  0  0  0  0
 33 83  2  0  0  0  0
 34 65  1  0  0  0  0
 34 73  1  0  0  0  0
 34 84  2  0  0  0  0
 35 66  1  0  0  0  0
 35 78  1  0  0  0  0
 35 85  2  0  0  0  0
 36 74  1  0  0  0  0
 36 79  1  0  0  0  0
 36 86  2  0  0  0  0
 37 40  1  0  0  0  0
 38 47  1  0  0  0  0
 39 73  1  0  0  0  0
 40 42  1  0  0  0  0
 41 43  1  0  0  0  0
 41 44  1  0  0  0  0
 42 46  1  0  0  0  0
 43 48  1  0  0  0  0
 44 74  1  0  0  0  0
 45 48  1  0  0  0  0
 45 74  1  0  0  0  0
 46 77  1  0  0  0  0
 47 73  1  0  0  0  0
 48 72  1  0  0  0  0
 49 59  1  0  0  0  0
 50 66  1  0  0  0  0
 51 67  1  0  0  0  0
 52 67  1  0  0  0  0
 53 68  1  0  0  0  0
 54 68  1  0  0  0  0
 55 68  1  0  0  0  0
 56 80  1  0  0  0  0
 57 60  1  0  0  0  0
 58 79  1  0  0  0  0
 59 60  1  0  0  0  0
 61 63  1  0  0  0  0
 61 64  1  0  0  0  0
 62 67  1  0  0  0  0
 62 81  1  0  0  0  0
 63 88  1  0  0  0  0
 64 81  1  0  0  0  0
 65 68  1  0  0  0  0
 65 78  1  0  0  0  0
 66 80  1  0  0  0  0
 70 72  1  0  0  0  0
M  CHG  2  80   1  81   1
M  ISO  4  36 100  63 101  79 100  88 101
M  END
> <Batch ID>
0092

> <Smiles>
CCCCc1ncc(C[100NH:0][100C:0](=O)N2CCCC(n3nc(-c4ccc(Oc5ccc(F)cc5F)cc4)c(C(N)=O)c3N)C2)nc1C(C[101CH2:1][101O:1]c1ccc2c(c1)CN(C(=O)C(NC(=O)C(C)NC)C(C)(C)C)C(C(=O)NC1CCCc3ccccc31)C2)NCC(C)C

> <Shape>
0.247

> <Color>
0.075

> <Negative vol penalty>
0.000

$$$$

  -OEChem-04052319143D

 81 89  0     1  0  0  0  0  0999 V2000
  -25.8711  -16.4652   23.5539 C   0  0  0  0  0  0  0  0  0  0  0  0
  -26.5580  -17.6748   23.5774 C   0  0  0  0  0  0  0  0  0  0  0  0
  -26.3372  -12.9817   21.4072 C   0  0  0  0  0  0  0  0  0  0  0  0
  -26.1668  -13.4456   19.0423 C   0  0  0  0  0  0  0  0  0  0  0  0
  -24.6067  -16.3941   22.9709 C   0  0  0  0  0  0  0  0  0  0  0  0
  -25.9812  -18.8138   23.0167 C   0  0  0  0  0  0  0  0  0  0  0  0
  -26.5552  -24.5828   24.9901 C   0  0  0  0  0  0  0  0  0  0  0  0
  -25.1112  -12.3178   21.3653 C   0  0  0  0  0  0  0  0  0  0  0  0
  -24.9408  -12.7816   19.0004 C   0  0  0  0  0  0  0  0  0  0  0  0
  -27.3717  -25.6368   24.5825 C   0  0  0  0  0  0  0  0  0  0  0  0
  -23.9479   -9.2938   20.3983 C   0  0  0  0  0  0  0  0  0  0  0  0
  -23.8523   -8.0671   21.0552 C   0  0  0  0  0  0  0  0  0  0  0  0
  -25.5834  -26.4798   23.2003 C   0  0  0  0  0  0  0  0  0  0  0  0
  -22.1033   -8.9578   22.4641 C   0  0  0  0  0  0  0  0  0  0  0  0
  -28.6487  -24.5182   19.7990 C   0  0  0  0  0  0  0  0  0  0  0  0
  -26.8650  -13.5457   20.2457 C   0  0  0  0  0  0  0  0  0  0  0  0
  -29.4078  -13.6743   20.0868 C   0  0  0  0  0  0  0  0  0  0  0  0
  -24.0099  -17.5349   22.4114 C   0  0  0  0  0  0  0  0  0  0  0  0
  -25.2480  -24.4632   24.4967 C   0  0  0  0  0  0  0  0  0  0  0  0
  -24.7081  -18.7576   22.4244 C   0  0  0  0  0  0  0  0  0  0  0  0
  -24.7514  -25.4248   23.6052 C   0  0  0  0  0  0  0  0  0  0  0  0
  -24.4131  -12.2177   20.1619 C   0  0  0  0  0  0  0  0  0  0  0  0
  -26.8869  -26.5838   23.6852 C   0  0  0  0  0  0  0  0  0  0  0  0
  -23.1212  -10.3526   20.7743 C   0  0  0  0  0  0  0  0  0  0  0  0
  -22.9300   -7.8990   22.0880 C   0  0  0  0  0  0  0  0  0  0  0  0
  -22.1990  -10.1846   21.8072 C   0  0  0  0  0  0  0  0  0  0  0  0
  -28.1311  -14.2321   20.2884 C   0  0  0  0  0  0  0  0  0  0  0  0
  -29.8943  -24.2021   19.3205 C   0  0  0  0  0  0  0  0  0  0  0  0
  -30.2716  -14.7323   20.2312 C   0  0  0  0  0  0  0  0  0  0  0  0
  -29.3845  -26.6063   20.2439 C   0  0  0  0  0  0  0  0  0  0  0  0
  -29.7797  -12.3207   19.7950 C   0  0  0  0  0  0  0  0  0  0  0  0
  -23.6903  -22.2923   22.7749 C   0  0  0  0  0  0  0  0  0  0  0  0
  -21.1369  -24.1896   23.4095 C   0  0  0  0  0  0  0  0  0  0  0  0
  -19.9619  -27.2859   24.2335 C   0  0  0  0  0  0  0  0  0  0  0  0
  -29.5466  -20.5379   19.4404 C   0  0  0  0  0  0  0  0  0  0  0  0
  -22.6613  -17.3985   21.7503 C   0  0  0  0  0  0  0  0  0  0  0  0
  -24.3708  -23.3354   24.9669 C   0  0  0  0  0  0  0  0  0  0  0  0
  -23.3486  -25.3529   23.0618 C   0  0  0  0  0  0  0  0  0  0  0  0
  -21.9619  -18.7343   21.5118 C   0  0  0  0  0  0  0  0  0  0  0  0
  -30.6989  -18.9382   22.4753 C   0  0  0  0  0  0  0  0  0  0  0  0
  -22.9307  -19.7428   20.9026 C   0  0  0  0  0  0  0  0  0  0  0  0
  -30.2857  -17.4860   22.2294 C   0  0  0  0  0  0  0  0  0  0  0  0
  -29.6576  -19.9096   21.9275 C   0  0  0  0  0  0  0  0  0  0  0  0
  -28.9282  -18.2733   20.2351 C   0  0  0  0  0  0  0  0  0  0  0  0
  -24.1052  -20.0205   21.8487 C   0  0  1  0  0  0  0  0  0  0  0  0
  -23.2296  -23.0245   24.0034 C   0  0  1  0  0  0  0  0  0  0  0  0
  -29.9508  -17.2422   20.7460 C   0  0  2  0  0  0  0  0  0  0  0  0
  -17.8257  -28.5373   24.6435 C   0  0  0  0  0  0  0  0  0  0  0  0
  -20.6170  -24.2819   20.4043 C   0  0  0  0  0  0  0  0  0  0  0  0
  -19.1181  -26.2490   20.7945 C   0  0  0  0  0  0  0  0  0  0  0  0
  -18.5637  -24.0396   21.8113 C   0  0  0  0  0  0  0  0  0  0  0  0
  -20.7309  -27.9172   27.0208 C   0  0  0  0  0  0  0  0  0  0  0  0
  -30.1955  -22.8443   18.7949 C   0  0  0  0  0  0  0  0  0  0  0  0
  -29.1215  -27.9956   20.7677 C   0  0  0  0  0  0  0  0  0  0  0  0
  -29.7034  -28.2493   22.1601 C   0  0  0  0  0  0  0  0  0  0  0  0
  -29.0874  -27.3692   23.2414 C   0  0  0  0  0  0  0  0  0  1  0  0
  -20.4966  -25.3803   22.7377 C   0  0  1  0  0  0  0  0  0  0  0  0
  -18.9536  -27.7363   25.2751 C   0  0  2  0  0  0  0  0  0  0  0  0
  -19.7260  -24.9883   21.4455 C   0  0  0  0  0  0  0  0  0  0  0  0
  -28.3619  -25.7388   20.2762 N   0  0  0  0  0  0  0  0  0  0  0  0
  -28.1753  -15.5428   20.5418 N   0  0  0  0  0  0  0  0  0  0  0  0
  -30.8823  -25.1152   19.3134 N   0  0  0  0  0  0  0  0  0  0  0  0
  -30.6265  -26.3526   19.7868 N   0  0  0  0  0  0  0  0  0  0  0  0
  -29.4902  -15.8173   20.5005 N   0  0  0  0  0  0  0  0  0  0  0  0
  -22.5318  -24.2281   23.5466 N   0  0  0  0  0  0  0  0  0  0  0  0
  -29.3982  -19.6358   20.5070 N   0  0  0  0  0  0  0  0  0  0  0  0
  -31.6156  -14.8312   20.1531 N   0  0  0  0  0  0  0  0  0  0  0  0
  -28.7663  -11.3593   19.6802 N   0  0  0  0  0  0  0  0  0  0  0  0
  -23.6986  -20.9171   22.9095 N   0  0  0  0  0  0  0  0  0  0  0  0
  -19.6715  -26.0267   23.7526 N   0  0  0  0  0  0  0  0  0  0  0  0
  -29.9893  -21.8095   19.7837 N   0  0  0  0  0  0  0  0  0  0  0  0
  -19.6162  -28.5877   26.3032 N   0  3  0  0  0  0  0  0  0  0  0  0
  -30.9764  -11.9708   19.6568 O   0  0  0  0  0  0  0  0  0  0  0  0
  -24.0130  -22.9279   21.7781 O   0  0  0  0  0  0  0  0  0  0  0  0
  -20.4250  -23.2629   23.8045 O   0  0  0  0  0  0  0  0  0  0  0  0
  -20.9099  -27.9831   23.8789 O   0  0  0  0  0  0  0  0  0  0  0  0
  -29.3075  -20.2312   18.2675 O   0  0  0  0  0  0  0  0  0  0  0  0
  -23.2168  -11.5697   20.1206 O   0  0  0  0  0  0  0  0  0  0  0  0
  -27.6821  -27.6132   23.2852 O   0  0  0  0  0  0  0  0  0  1  0  0
  -22.8372   -6.7205   22.7177 F   0  0  0  0  0  0  0  0  0  0  0  0
  -21.4013  -11.1977   22.1720 F   0  0  0  0  0  0  0  0  0  0  0  0
  1  2  1  0  0  0  0
  1  5  2  0  0  0  0
  2  6  2  0  0  0  0
  3  8  2  0  0  0  0
  3 16  1  0  0  0  0
  4  9  1  0  0  0  0
  4 16  2  0  0  0  0
  5 18  1  0  0  0  0
  6 20  1  0  0  0  0
  7 10  2  0  0  0  0
  7 19  1  0  0  0  0
  8 22  1  0  0  0  0
  9 22  2  0  0  0  0
 10 23  1  0  0  0  0
 11 12  2  0  0  0  0
 11 24  1  0  0  0  0
 12 25  1  0  0  0  0
 13 21  1  0  0  0  0
 13 23  2  0  0  0  0
 14 25  2  0  0  0  0
 14 26  1  0  0  0  0
 15 28  1  0  0  0  0
 15 60  2  0  0  0  0
 16 27  1  0  0  0  0
 17 27  1  0  0  0  0
 17 29  2  0  0  0  0
 17 31  1  0  0  0  0
 18 20  2  0  0  0  0
 18 36  1  0  0  0  0
 19 21  2  0  0  0  0
 19 37  1  0  0  0  0
 20 45  1  0  0  0  0
 21 38  1  0  0  0  0
 22 78  1  0  0  0  0
 23 79  1  0  0  0  0
 24 26  2  0  0  0  0
 24 78  1  0  0  0  0
 25 80  1  0  0  0  0
 26 81  1  0  0  0  0
 27 61  2  0  0  0  0
 28 53  1  0  0  0  0
 28 62  2  0  0  0  0
 29 64  1  0  0  0  0
 29 67  1  0  0  0  0
 30 54  1  0  0  0  0
 30 60  1  0  0  0  0
 30 63  2  0  0  0  0
 31 68  1  0  0  0  0
 31 73  2  0  0  0  0
 32 46  1  0  0  0  0
 32 69  1  0  0  0  0
 32 74  2  0  0  0  0
 33 57  1  0  0  0  0
 33 65  1  0  0  0  0
 33 75  2  0  0  0  0
 34 58  1  0  0  0  0
 34 70  1  0  0  0  0
 34 76  2  0  0  0  0
 35 66  1  0  0  0  0
 35 71  1  0  0  0  0
 35 77  2  0  0  0  0
 36 39  1  0  0  0  0
 37 46  1  0  0  0  0
 38 65  1  0  0  0  0
 39 41  1  0  0  0  0
 40 42  1  0  0  0  0
 40 43  1  0  0  0  0
 41 45  1  0  0  0  0
 42 47  1  0  0  0  0
 43 66  1  0  0  0  0
 44 47  1  0  0  0  0
 44 66  1  0  0  0  0
 45 69  1  0  0  0  0
 46 65  1  0  0  0  0
 47 64  1  0  0  0  0
 48 58  1  0  0  0  0
 49 59  1  0  0  0  0
 50 59  1  0  0  0  0
 51 59  1  0  0  0  0
 52 72  1  0  0  0  0
 53 71  1  0  0  0  0
 54 55  1  0  0  0  0
 55 56  1  0  0  0  0
 56 79  1  0  0  0  0
 57 59  1  0  0  0  0
 57 70  1  0  0  0  0
 58 72  1  0  0  0  0
 61 64  1  0  0  0  0
 62 63  1  0  0  0  0
M  CHG  1  72   1
M  ISO  4  35 100  56 101  71 100  79 101
M  END
> <Batch ID>
0092

> <Smiles>
CNC(C)C(=O)NC(C(=O)N1Cc2cc([101O:1][101CH2:1]CCc3ncc(C[100NH:0][100C:0](=O)N4CCCC(n5nc(-c6ccc(Oc7ccc(F)cc7F)cc6)c(C(N)=O)c5N)C4)nn3)ccc2CC1C(=O)NC1CCCc2ccccc21)C(C)(C)C

> <Shape>
0.227

> <Color>
0.078

> <Negative vol penalty>
0.000

$$$$

  -OEChem-04052319143D

 86 94  0     1  0  0  0  0  0999 V2000
  -20.6815  -34.8028   20.1035 C   0  0  0  0  0  0  0  0  0  0  0  0
  -22.0685  -34.7037   20.0603 C   0  0  0  0  0  0  0  0  0  0  0  0
  -29.3084  -13.2834   20.8038 C   0  0  0  0  0  0  0  0  0  0  0  0
  -29.5287  -13.7141   18.4368 C   0  0  0  0  0  0  0  0  0  0  0  0
  -19.9306  -33.7976   20.7114 C   0  0  0  0  0  0  0  0  0  0  0  0
  -22.7055  -33.5997   20.6260 C   0  0  0  0  0  0  0  0  0  0  0  0
  -28.4465  -29.4074   19.7420 C   0  0  0  0  0  0  0  0  0  0  0  0
  -32.1616  -22.9755   18.5186 C   0  0  0  0  0  0  0  0  0  0  0  0
  -28.5805  -12.1266   20.5256 C   0  0  0  0  0  0  0  0  0  0  0  0
  -28.8008  -12.5572   18.1585 C   0  0  0  0  0  0  0  0  0  0  0  0
  -29.5388  -28.9129   20.4533 C   0  0  0  0  0  0  0  0  0  0  0  0
  -26.3555   -9.2514   20.4435 C   0  0  0  0  0  0  0  0  0  0  0  0
  -25.1972   -9.0182   21.1847 C   0  0  0  0  0  0  0  0  0  0  0  0
  -32.6637  -23.6563   19.6221 C   0  0  0  0  0  0  0  0  0  0  0  0
  -28.1343  -27.1990   21.4068 C   0  0  0  0  0  0  0  0  0  0  0  0
  -24.2602  -11.0918   20.3728 C   0  0  0  0  0  0  0  0  0  0  0  0
  -29.7825  -14.0772   19.7594 C   0  0  0  0  0  0  0  0  0  0  0  0
  -31.9293  -15.3842   20.1962 C   0  0  0  0  0  0  0  0  0  0  0  0
  -20.5580  -32.6761   21.2763 C   0  0  0  0  0  0  0  0  0  0  0  0
  -27.1853  -28.8071   19.8664 C   0  0  0  0  0  0  0  0  0  0  0  0
  -21.9623  -32.5792   21.2432 C   0  0  0  0  0  0  0  0  0  0  0  0
  -27.0281  -27.6862   20.6940 C   0  0  0  0  0  0  0  0  0  0  0  0
  -31.1956  -23.5757   17.7187 C   0  0  0  0  0  0  0  0  0  0  0  0
  -28.3267  -11.7634   19.2029 C   0  0  0  0  0  0  0  0  0  0  0  0
  -29.3822  -27.8103   21.2881 C   0  0  0  0  0  0  0  0  0  0  0  0
  -26.4663  -10.4048   19.6670 C   0  0  0  0  0  0  0  0  0  0  0  0
  -24.1495   -9.9384   21.1493 C   0  0  0  0  0  0  0  0  0  0  0  0
  -25.4186  -11.3250   19.6316 C   0  0  0  0  0  0  0  0  0  0  0  0
  -30.5340  -15.2727   20.0462 C   0  0  0  0  0  0  0  0  0  0  0  0
  -32.1707  -24.9252   19.8806 C   0  0  0  0  0  0  0  0  0  0  0  0
  -30.7682  -24.8481   18.0626 C   0  0  0  0  0  0  0  0  0  0  0  0
  -32.1412  -16.7158   20.4574 C   0  0  0  0  0  0  0  0  0  0  0  0
  -32.9432  -14.3743   20.1073 C   0  0  0  0  0  0  0  0  0  0  0  0
  -24.3350  -29.7683   20.8938 C   0  0  0  0  0  0  0  0  0  0  0  0
  -23.3985  -26.8535   19.8217 C   0  0  0  0  0  0  0  0  0  0  0  0
  -24.2497  -23.6406   19.0474 C   0  0  0  0  0  0  0  0  0  0  0  0
  -29.0267  -21.6675   19.1800 C   0  0  0  0  0  0  0  0  0  0  0  0
  -19.7072  -31.6380   21.9643 C   0  0  0  0  0  0  0  0  0  0  0  0
  -26.0229  -29.3361   19.0717 C   0  0  0  0  0  0  0  0  0  0  0  0
  -25.6997  -26.9931   20.8467 C   0  0  0  0  0  0  0  0  0  0  0  0
  -20.4352  -30.3187   22.2092 C   0  0  0  0  0  0  0  0  0  0  0  0
  -30.0164  -20.5337   22.4067 C   0  0  0  0  0  0  0  0  0  0  0  0
  -21.8207  -30.5741   22.7940 C   0  0  0  0  0  0  0  0  0  0  0  0
  -30.3872  -19.0669   22.1812 C   0  0  0  0  0  0  0  0  0  0  0  0
  -28.8286  -20.9546   21.5441 C   0  0  0  0  0  0  0  0  0  0  0  0
  -29.3542  -19.2173   19.8770 C   0  0  0  0  0  0  0  0  0  0  0  0
  -22.6882  -31.3850   21.8239 C   0  0  1  0  0  0  0  0  0  0  0  0
  -24.6704  -28.9628   19.6705 C   0  0  1  0  0  0  0  0  0  0  0  0
  -30.5821  -18.7616   20.6838 C   0  0  2  0  0  0  0  0  0  0  0  0
  -23.9702  -21.3021   18.1811 C   0  0  0  0  0  0  0  0  0  0  0  0
  -31.4097  -26.6889   15.6949 C   0  0  0  0  0  0  0  0  0  0  0  0
  -29.0610  -27.5403   15.8450 C   0  0  0  0  0  0  0  0  0  0  0  0
  -22.1991  -26.3617   22.5838 C   0  0  0  0  0  0  0  0  0  0  0  0
  -22.0904  -23.9235   22.0258 C   0  0  0  0  0  0  0  0  0  0  0  0
  -20.7878  -25.5690   20.6774 C   0  0  0  0  0  0  0  0  0  0  0  0
  -25.0102  -24.4426   16.3019 C   0  0  0  0  0  0  0  0  0  0  0  0
  -30.6531  -22.8507   16.5360 C   0  0  0  0  0  0  0  0  0  0  0  0
  -32.6939  -25.6931   21.0680 C   0  0  0  0  0  0  0  0  0  0  0  0
  -29.7349  -25.5431   17.2380 C   0  0  0  0  0  0  0  0  0  0  0  0
  -31.9007  -25.4538   22.3545 C   0  0  0  0  0  0  0  0  0  0  0  0
  -29.2711  -22.2292   16.7750 C   0  0  0  0  0  0  0  0  0  0  0  0
  -30.4545  -25.9277   22.2691 C   0  0  0  0  0  0  0  0  0  1  0  0
  -23.3016  -25.4731   20.4249 C   0  0  1  0  0  0  0  0  0  0  0  0
  -23.9438  -22.7823   17.8332 C   0  0  2  0  0  0  0  0  0  0  0  0
  -30.2052  -26.8817   16.6198 C   0  0  0  0  0  0  0  0  0  0  0  0
  -22.1194  -25.3458   21.4268 C   0  0  0  0  0  0  0  0  0  0  0  0
  -29.9040  -16.4404   20.1995 N   0  0  0  0  0  0  0  0  0  0  0  0
  -31.2326  -25.5408   19.1266 N   0  0  0  0  0  0  0  0  0  0  0  0
  -30.9080  -17.2983   20.4486 N   0  0  0  0  0  0  0  0  0  0  0  0
  -24.5921  -27.5517   20.0538 N   0  0  0  0  0  0  0  0  0  0  0  0
  -29.0780  -20.6392   20.1355 N   0  0  0  0  0  0  0  0  0  0  0  0
  -33.2603  -17.4337   20.6914 N   0  0  0  0  0  0  0  0  0  0  0  0
  -32.5518  -13.0570   19.8319 N   0  0  0  0  0  0  0  0  0  0  0  0
  -23.1929  -30.5357   20.7664 N   0  0  0  0  0  0  0  0  0  0  0  0
  -23.2378  -24.5414   19.3041 N   0  0  0  0  0  0  0  0  0  0  0  0
  -29.2813  -21.2838   17.8690 N   0  0  0  0  0  0  0  0  0  0  0  0
  -24.9454  -23.0303   16.7579 N   0  3  0  0  0  0  0  0  0  0  0  0
  -34.1586  -14.6295   20.2836 O   0  0  0  0  0  0  0  0  0  0  0  0
  -25.0580  -29.6977   21.8807 O   0  0  0  0  0  0  0  0  0  0  0  0
  -22.4531  -27.2933   19.1626 O   0  0  0  0  0  0  0  0  0  0  0  0
  -25.2813  -23.5213   19.7047 O   0  0  0  0  0  0  0  0  0  0  0  0
  -28.7780  -22.8416   19.4742 O   0  0  0  0  0  0  0  0  0  0  0  0
  -27.6167  -10.6345   18.9310 O   0  0  0  0  0  0  0  0  0  0  0  0
  -30.4466  -27.3260   21.9841 O   0  0  0  0  0  0  0  0  0  1  0  0
  -23.0366   -9.7135   21.8600 F   0  0  0  0  0  0  0  0  0  0  0  0
  -25.5187  -12.4343   18.8865 F   0  0  0  0  0  0  0  0  0  0  0  0
  1  2  1  0  0  0  0
  1  5  2  0  0  0  0
  2  6  2  0  0  0  0
  3  9  2  0  0  0  0
  3 17  1  0  0  0  0
  4 10  1  0  0  0  0
  4 17  2  0  0  0  0
  5 19  1  0  0  0  0
  6 21  1  0  0  0  0
  7 11  2  0  0  0  0
  7 20  1  0  0  0  0
  8 14  2  0  0  0  0
  8 23  1  0  0  0  0
  9 24  1  0  0  0  0
 10 24  2  0  0  0  0
 11 25  1  0  0  0  0
 12 13  2  0  0  0  0
 12 26  1  0  0  0  0
 13 27  1  0  0  0  0
 14 30  1  0  0  0  0
 15 22  1  0  0  0  0
 15 25  2  0  0  0  0
 16 27  2  0  0  0  0
 16 28  1  0  0  0  0
 17 29  1  0  0  0  0
 18 29  1  0  0  0  0
 18 32  2  0  0  0  0
 18 33  1  0  0  0  0
 19 21  2  0  0  0  0
 19 38  1  0  0  0  0
 20 22  2  0  0  0  0
 20 39  1  0  0  0  0
 21 47  1  0  0  0  0
 22 40  1  0  0  0  0
 23 31  2  0  0  0  0
 23 57  1  0  0  0  0
 24 83  1  0  0  0  0
 25 84  1  0  0  0  0
 26 28  2  0  0  0  0
 26 83  1  0  0  0  0
 27 85  1  0  0  0  0
 28 86  1  0  0  0  0
 29 67  2  0  0  0  0
 30 58  1  0  0  0  0
 30 68  2  0  0  0  0
 31 59  1  0  0  0  0
 31 68  1  0  0  0  0
 32 69  1  0  0  0  0
 32 72  1  0  0  0  0
 33 73  1  0  0  0  0
 33 78  2  0  0  0  0
 34 48  1  0  0  0  0
 34 74  1  0  0  0  0
 34 79  2  0  0  0  0
 35 63  1  0  0  0  0
 35 70  1  0  0  0  0
 35 80  2  0  0  0  0
 36 64  1  0  0  0  0
 36 75  1  0  0  0  0
 36 81  2  0  0  0  0
 37 71  1  0  0  0  0
 37 76  1  0  0  0  0
 37 82  2  0  0  0  0
 38 41  1  0  0  0  0
 39 48  1  0  0  0  0
 40 70  1  0  0  0  0
 41 43  1  0  0  0  0
 42 44  1  0  0  0  0
 42 45  1  0  0  0  0
 43 47  1  0  0  0  0
 44 49  1  0  0  0  0
 45 71  1  0  0  0  0
 46 49  1  0  0  0  0
 46 71  1  0  0  0  0
 47 74  1  0  0  0  0
 48 70  1  0  0  0  0
 49 69  1  0  0  0  0
 50 64  1  0  0  0  0
 51 65  1  0  0  0  0
 52 65  1  0  0  0  0
 53 66  1  0  0  0  0
 54 66  1  0  0  0  0
 55 66  1  0  0  0  0
 56 77  1  0  0  0  0
 57 61  1  0  0  0  0
 58 60  1  0  0  0  0
 59 65  1  0  0  0  0
 60 62  1  0  0  0  0
 61 76  1  0  0  0  0
 62 84  1  0  0  0  0
 63 66  1  0  0  0  0
 63 75  1  0  0  0  0
 64 77  1  0  0  0  0
 67 69  1  0  0  0  0
M  CHG  1  77   1
M  ISO  4  37 100  62 101  76 100  84 101
M  END
> <Batch ID>
0092

> <Smiles>
CNC(C)C(=O)NC(C(=O)N1Cc2cc([101O:1][101CH2:1]CCc3ccc(CC[100NH:0][100C:0](=O)N4CCCC(n5nc(-c6ccc(Oc7ccc(F)cc7F)cc6)c(C(N)=O)c5N)C4)c(CC(C)C)n3)ccc2CC1C(=O)NC1CCCc2ccccc21)C(C)(C)C

> <Shape>
0.249

> <Color>
0.066

> <Negative vol penalty>
0.000

$$$$

  -OEChem-04052319143D

 88 97  0     1  0  0  0  0  0999 V2000
  -28.1707  -24.7826   16.8826 C   0  0  0  0  0  0  0  0  0  0  0  0
  -26.9761  -24.9850   17.5662 C   0  0  0  0  0  0  0  0  0  0  0  0
  -27.6029  -16.6255   21.4229 C   0  0  0  0  0  0  0  0  0  0  0  0
  -25.2310  -16.1752   21.3294 C   0  0  0  0  0  0  0  0  0  0  0  0
  -29.3616  -25.2948   17.3959 C   0  0  0  0  0  0  0  0  0  0  0  0
  -26.9719  -25.6987   18.7641 C   0  0  0  0  0  0  0  0  0  0  0  0
  -23.1975  -29.0663   19.0058 C   0  0  0  0  0  0  0  0  0  0  0  0
  -27.8660  -15.2588   21.3310 C   0  0  0  0  0  0  0  0  0  0  0  0
  -25.4941  -14.8085   21.2374 C   0  0  0  0  0  0  0  0  0  0  0  0
  -21.9257  -28.5772   19.3010 C   0  0  0  0  0  0  0  0  0  0  0  0
  -27.9534  -12.8959   18.9139 C   0  0  0  0  0  0  0  0  0  0  0  0
  -28.9540  -12.4862   18.0327 C   0  0  0  0  0  0  0  0  0  0  0  0
  -22.1978  -29.2716   21.5951 C   0  0  0  0  0  0  0  0  0  0  0  0
  -30.1728  -11.5041   19.8731 C   0  0  0  0  0  0  0  0  0  0  0  0
  -19.6299  -23.0008   24.4190 C   0  0  0  0  0  0  0  0  0  0  0  0
  -26.2854  -17.0837   21.4221 C   0  0  0  0  0  0  0  0  0  0  0  0
  -25.8811  -19.4095   20.4551 C   0  0  0  0  0  0  0  0  0  0  0  0
  -29.3705  -26.0234   18.5957 C   0  0  0  0  0  0  0  0  0  0  0  0
  -23.9846  -29.6529   20.0071 C   0  0  0  0  0  0  0  0  0  0  0  0
  -28.1642  -26.2199   19.2946 C   0  0  0  0  0  0  0  0  0  0  0  0
  -23.4782  -29.7697   21.3094 C   0  0  0  0  0  0  0  0  0  0  0  0
  -26.8116  -14.3503   21.2382 C   0  0  0  0  0  0  0  0  0  0  0  0
  -21.4268  -28.6772   20.5965 C   0  0  0  0  0  0  0  0  0  0  0  0
  -28.0625  -12.6098   20.2748 C   0  0  0  0  0  0  0  0  0  0  0  0
  -30.0636  -11.7903   18.5122 C   0  0  0  0  0  0  0  0  0  0  0  0
  -29.1722  -11.9139   20.7543 C   0  0  0  0  0  0  0  0  0  0  0  0
  -26.0129  -18.4954   21.5176 C   0  0  0  0  0  0  0  0  0  0  0  0
  -20.1786  -22.8663   25.6631 C   0  0  0  0  0  0  0  0  0  0  0  0
  -25.6277  -20.6128   21.0669 C   0  0  0  0  0  0  0  0  0  0  0  0
  -19.4568  -24.9488   25.4563 C   0  0  0  0  0  0  0  0  0  0  0  0
  -25.9789  -19.1904   19.0416 C   0  0  0  0  0  0  0  0  0  0  0  0
  -26.7964  -28.9838   21.3300 C   0  0  0  0  0  0  0  0  0  0  0  0
  -26.3252  -31.8197   22.8328 C   0  0  0  0  0  0  0  0  0  0  0  0
  -24.1247  -34.1837   23.9355 C   0  0  0  0  0  0  0  0  0  0  0  0
  -23.2570  -22.0725   26.3679 C   0  0  0  0  0  0  0  0  0  0  0  0
  -30.6895  -26.5170   19.1355 C   0  0  0  0  0  0  0  0  0  0  0  0
  -25.3438  -30.1997   19.6664 C   0  0  0  0  0  0  0  0  0  0  0  0
  -24.2753  -30.4092   22.4158 C   0  0  0  0  0  0  0  0  0  0  0  0
  -30.5439  -27.5833   20.2181 C   0  0  0  0  0  0  0  0  0  0  0  0
  -22.2759  -29.4113   25.6665 C   0  0  0  0  0  0  0  0  0  0  0  0
  -22.6516  -27.9766   25.3091 C   0  0  0  0  0  0  0  0  0  0  0  0
  -21.2566  -29.4585   26.8005 C   0  0  0  0  0  0  0  0  0  0  0  0
  -26.4644  -22.9975   25.1294 C   0  0  0  0  0  0  0  0  0  0  0  0
  -29.4922  -27.1654   21.2409 C   0  0  0  0  0  0  0  0  0  0  0  0
  -21.4187  -27.1344   24.9891 C   0  0  0  0  0  0  0  0  0  0  0  0
  -20.0214  -28.6187   26.4831 C   0  0  0  0  0  0  0  0  0  0  0  0
  -26.7005  -22.0310   23.9675 C   0  0  0  0  0  0  0  0  0  0  0  0
  -25.7198  -22.3248   26.2806 C   0  0  0  0  0  0  0  0  0  0  0  0
  -24.6918  -20.7007   24.7381 C   0  0  0  0  0  0  0  0  0  0  0  0
  -28.1152  -27.0101   20.5843 C   0  0  1  0  0  0  0  0  0  0  0  0
  -26.2629  -30.3140   20.8786 C   0  0  1  0  0  0  0  0  0  0  0  0
  -20.3946  -27.1722   26.1316 C   0  0  0  0  0  0  0  0  0  0  0  0
  -25.3902  -21.3488   23.5305 C   0  0  2  0  0  0  0  0  0  0  0  0
  -24.0343  -36.3711   25.1621 C   0  0  0  0  0  0  0  0  0  0  0  0
  -26.7937  -30.3576   25.4696 C   0  0  0  0  0  0  0  0  0  0  0  0
  -25.7742  -32.3132   26.6547 C   0  0  0  0  0  0  0  0  0  0  0  0
  -27.8624  -32.6140   25.3236 C   0  0  0  0  0  0  0  0  0  0  0  0
  -22.9282  -35.5705   21.6108 C   0  0  0  0  0  0  0  0  0  0  0  0
  -20.8010  -21.7183   26.3276 C   0  0  0  0  0  0  0  0  0  0  0  0
  -19.1489  -26.3672   25.7662 C   0  0  0  0  0  0  0  0  0  0  0  0
  -19.4395  -25.7552   22.2423 C   0  0  0  0  0  0  0  0  0  0  0  0
  -18.7613  -26.2706   20.9719 C   0  0  0  0  0  0  0  0  0  0  0  0
  -18.5140  -24.8942   23.1095 C   0  0  0  0  0  0  0  0  0  0  0  0
  -19.7201  -27.0911   20.1197 C   0  0  0  0  0  0  0  0  0  1  0  0
  -25.6680  -32.2503   24.1218 C   0  0  1  0  0  0  0  0  0  0  0  0
  -24.1203  -35.6959   23.8022 C   0  0  2  0  0  0  0  0  0  0  0  0
  -26.5101  -31.8699   25.3722 C   0  0  0  0  0  0  0  0  0  0  0  0
  -25.8564  -19.0689   22.7137 N   0  0  0  0  0  0  0  0  0  0  0  0
  -19.1909  -24.2990   24.3185 N   0  0  0  0  0  0  0  0  0  0  0  0
  -25.6237  -20.3564   22.4065 N   0  0  0  0  0  0  0  0  0  0  0  0
  -20.0581  -24.0868   26.2827 N   0  3  0  0  0  0  0  0  0  0  0  0
  -25.6012  -30.9230   22.0342 N   0  0  0  0  0  0  0  0  0  0  0  0
  -24.4859  -21.6987   25.7995 N   0  0  0  0  0  0  0  0  0  0  0  0
  -25.4102  -21.8547   20.5843 N   0  0  0  0  0  0  0  0  0  0  0  0
  -26.2440  -17.8928   18.5833 N   0  0  0  0  0  0  0  0  0  0  0  0
  -27.5125  -28.3068   20.3613 N   0  0  0  0  0  0  0  0  0  0  0  0
  -25.4070  -33.6795   23.9893 N   0  0  0  0  0  0  0  0  0  0  0  0
  -22.1361  -21.4354   25.8498 N   0  0  0  0  0  0  0  0  0  0  0  0
  -22.9576  -36.1402   22.9825 N   0  3  0  0  0  0  0  0  0  0  0  0
  -25.8516  -20.1211   18.2102 O   0  0  0  0  0  0  0  0  0  0  0  0
  -26.5760  -28.6008   22.4730 O   0  0  0  0  0  0  0  0  0  0  0  0
  -27.4369  -32.2681   22.5415 O   0  0  0  0  0  0  0  0  0  0  0  0
  -23.0938  -33.5168   23.9905 O   0  0  0  0  0  0  0  0  0  0  0  0
  -23.1651  -22.9156   27.2666 O   0  0  0  0  0  0  0  0  0  0  0  0
  -27.0680  -13.0166   21.1483 O   0  0  0  0  0  0  0  0  0  0  0  0
  -20.1861  -28.2000   20.8876 O   0  0  0  0  0  0  0  0  0  1  0  0
  -31.0236  -11.3956   17.6656 F   0  0  0  0  0  0  0  0  0  0  0  0
  -29.2820  -11.6351   22.0605 F   0  0  0  0  0  0  0  0  0  0  0  0
  1  2  1  0  0  0  0
  1  5  2  0  0  0  0
  2  6  2  0  0  0  0
  3  8  2  0  0  0  0
  3 16  1  0  0  0  0
  4  9  1  0  0  0  0
  4 16  2  0  0  0  0
  5 18  1  0  0  0  0
  6 20  1  0  0  0  0
  7 10  2  0  0  0  0
  7 19  1  0  0  0  0
  8 22  1  0  0  0  0
  9 22  2  0  0  0  0
 10 23  1  0  0  0  0
 11 12  2  0  0  0  0
 11 24  1  0  0  0  0
 12 25  1  0  0  0  0
 13 21  1  0  0  0  0
 13 23  2  0  0  0  0
 14 25  2  0  0  0  0
 14 26  1  0  0  0  0
 15 28  2  0  0  0  0
 15 69  1  0  0  0  0
 16 27  1  0  0  0  0
 17 27  1  0  0  0  0
 17 29  2  0  0  0  0
 17 31  1  0  0  0  0
 18 20  2  0  0  0  0
 18 36  1  0  0  0  0
 19 21  2  0  0  0  0
 19 37  1  0  0  0  0
 20 50  1  0  0  0  0
 21 38  1  0  0  0  0
 22 85  1  0  0  0  0
 23 86  1  0  0  0  0
 24 26  2  0  0  0  0
 24 85  1  0  0  0  0
 25 87  1  0  0  0  0
 26 88  1  0  0  0  0
 27 68  2  0  0  0  0
 28 59  1  0  0  0  0
 28 71  1  0  0  0  0
 29 70  1  0  0  0  0
 29 74  1  0  0  0  0
 30 60  1  0  0  0  0
 30 69  1  0  0  0  0
 30 71  2  0  0  0  0
 31 75  1  0  0  0  0
 31 80  2  0  0  0  0
 32 51  1  0  0  0  0
 32 76  1  0  0  0  0
 32 81  2  0  0  0  0
 33 65  1  0  0  0  0
 33 72  1  0  0  0  0
 33 82  2  0  0  0  0
 34 66  1  0  0  0  0
 34 77  1  0  0  0  0
 34 83  2  0  0  0  0
 35 73  1  0  0  0  0
 35 78  1  0  0  0  0
 35 84  2  0  0  0  0
 36 39  1  0  0  0  0
 37 51  1  0  0  0  0
 38 72  1  0  0  0  0
 39 44  1  0  0  0  0
 40 41  1  0  0  0  0
 40 42  1  0  0  0  0
 41 45  1  0  0  0  0
 42 46  1  0  0  0  0
 43 47  1  0  0  0  0
 43 48  1  0  0  0  0
 44 50  1  0  0  0  0
 45 52  1  0  0  0  0
 46 52  1  0  0  0  0
 47 53  1  0  0  0  0
 48 73  1  0  0  0  0
 49 53  1  0  0  0  0
 49 73  1  0  0  0  0
 50 76  1  0  0  0  0
 51 72  1  0  0  0  0
 52 60  1  0  0  0  0
 53 70  1  0  0  0  0
 54 66  1  0  0  0  0
 55 67  1  0  0  0  0
 56 67  1  0  0  0  0
 57 67  1  0  0  0  0
 58 79  1  0  0  0  0
 59 78  1  0  0  0  0
 61 62  1  0  0  0  0
 61 63  1  0  0  0  0
 62 64  1  0  0  0  0
 63 69  1  0  0  0  0
 64 86  1  0  0  0  0
 65 67  1  0  0  0  0
 65 77  1  0  0  0  0
 66 79  1  0  0  0  0
 68 70  1  0  0  0  0
M  CHG  2  71   1  79   1
M  ISO  4  35 100  64 101  78 100  86 101
M  END
> <Batch ID>
0092

> <Smiles>
CNC(C)C(=O)NC(C(=O)N1Cc2cc([101O:1][101CH2:1]CCCn3cc(C[100NH:0][100C:0](=O)N4CCCC(n5nc(-c6ccc(Oc7ccc(F)cc7F)cc6)c(C(N)=O)c5N)C4)nc3CC3CCCCC3)ccc2CC1C(=O)NC1CCCc2ccccc21)C(C)(C)C

> <Shape>
0.268

> <Color>
0.065

> <Negative vol penalty>
0.000

$$$$

  -OEChem-04052319143D

 81 88  0     1  0  0  0  0  0999 V2000
  -26.6358  -12.5984   36.4074 C   0  0  0  0  0  0  0  0  0  0  0  0
  -27.2172  -13.6089   35.6483 C   0  0  0  0  0  0  0  0  0  0  0  0
  -23.2881   -9.7998   19.9130 C   0  0  0  0  0  0  0  0  0  0  0  0
  -23.7395   -9.9399   22.2823 C   0  0  0  0  0  0  0  0  0  0  0  0
  -26.0352  -11.5107   35.7750 C   0  0  0  0  0  0  0  0  0  0  0  0
  -27.1993  -13.5316   34.2561 C   0  0  0  0  0  0  0  0  0  0  0  0
  -26.8420  -17.6951   28.4377 C   0  0  0  0  0  0  0  0  0  0  0  0
  -22.5617   -8.6273   20.1207 C   0  0  0  0  0  0  0  0  0  0  0  0
  -23.0130   -8.7674   22.4900 C   0  0  0  0  0  0  0  0  0  0  0  0
  -27.5093  -17.9254   27.2354 C   0  0  0  0  0  0  0  0  0  0  0  0
  -19.7660   -7.8566   22.7080 C   0  0  0  0  0  0  0  0  0  0  0  0
  -18.8639   -7.8347   23.7716 C   0  0  0  0  0  0  0  0  0  0  0  0
  -26.3736  -16.0386   26.2508 C   0  0  0  0  0  0  0  0  0  0  0  0
  -20.0697   -5.9872   24.7564 C   0  0  0  0  0  0  0  0  0  0  0  0
  -23.8771  -10.4561   20.9938 C   0  0  0  0  0  0  0  0  0  0  0  0
  -24.1366  -12.9861   20.7957 C   0  0  0  0  0  0  0  0  0  0  0  0
  -26.0015  -11.4248   34.3742 C   0  0  0  0  0  0  0  0  0  0  0  0
  -25.9422  -16.6265   28.5590 C   0  0  0  0  0  0  0  0  0  0  0  0
  -26.5989  -12.4410   33.6043 C   0  0  0  0  0  0  0  0  0  0  0  0
  -25.6943  -15.7985   27.4549 C   0  0  0  0  0  0  0  0  0  0  0  0
  -22.4241   -8.1111   21.4092 C   0  0  0  0  0  0  0  0  0  0  0  0
  -27.2773  -17.0953   26.1426 C   0  0  0  0  0  0  0  0  0  0  0  0
  -20.8199   -6.9437   22.6685 C   0  0  0  0  0  0  0  0  0  0  0  0
  -19.0157   -6.9001   24.7958 C   0  0  0  0  0  0  0  0  0  0  0  0
  -20.9718   -6.0090   23.6927 C   0  0  0  0  0  0  0  0  0  0  0  0
  -24.6280  -11.6670   20.7798 C   0  0  0  0  0  0  0  0  0  0  0  0
  -25.2381  -13.7660   20.5406 C   0  0  0  0  0  0  0  0  0  0  0  0
  -22.8036  -13.4638   21.0209 C   0  0  0  0  0  0  0  0  0  0  0  0
  -25.7987  -14.0078   30.3551 C   0  0  0  0  0  0  0  0  0  0  0  0
  -22.8867  -13.6840   28.9631 C   0  0  0  0  0  0  0  0  0  0  0  0
  -20.8400  -14.3979   26.3272 C   0  0  0  0  0  0  0  0  0  0  0  0
  -31.1092  -12.9223   21.3585 C   0  0  0  0  0  0  0  0  0  0  0  0
  -25.3825  -10.2063   33.7364 C   0  0  0  0  0  0  0  0  0  0  0  0
  -25.2103  -16.4077   29.8548 C   0  0  0  0  0  0  0  0  0  0  0  0
  -24.7227  -14.6499   27.5273 C   0  0  0  0  0  0  0  0  0  0  0  0
  -25.0760  -10.3853   32.2517 C   0  0  0  0  0  0  0  0  0  0  0  0
  -29.4596  -13.6625   18.2914 C   0  0  0  0  0  0  0  0  0  0  0  0
  -26.2665  -11.0117   31.5325 C   0  0  0  0  0  0  0  0  0  0  0  0
  -27.9899  -13.3540   18.5828 C   0  0  0  0  0  0  0  0  0  0  0  0
  -30.3930  -12.6828   18.9993 C   0  0  0  0  0  0  0  0  0  0  0  0
  -28.7067  -12.2533   20.7445 C   0  0  0  0  0  0  0  0  0  0  0  0
  -26.5779  -12.4053   32.0916 C   0  0  1  0  0  0  0  0  0  0  0  0
  -24.7021  -14.9788   30.0201 C   0  0  1  0  0  0  0  0  0  0  0  0
  -27.7287  -13.2487   20.0973 C   0  0  2  0  0  0  0  0  0  0  0  0
  -18.5283  -13.9618   25.4536 C   0  0  0  0  0  0  0  0  0  0  0  0
  -29.1168  -13.5267   26.7631 C   0  0  0  0  0  0  0  0  0  0  0  0
  -29.7856  -11.5107   25.4703 C   0  0  0  0  0  0  0  0  0  0  0  0
  -32.3709  -15.8992   25.3114 C   0  0  0  0  0  0  0  0  0  0  0  0
  -23.7297  -10.8680   28.1450 C   0  0  0  0  0  0  0  0  0  0  0  0
  -21.8308  -10.8487   26.5134 C   0  0  0  0  0  0  0  0  0  0  0  0
  -21.3717  -11.0566   28.9565 C   0  0  0  0  0  0  0  0  0  0  0  0
  -20.1558  -17.2770   26.3682 C   0  0  0  0  0  0  0  0  0  0  0  0
  -30.0849  -17.4362   23.8735 C   0  0  0  0  0  0  0  0  0  0  0  0
  -30.3195  -15.9177   23.8122 C   0  0  0  0  0  0  0  0  0  0  0  0
  -31.6717  -13.1355   23.7663 C   0  0  0  0  0  0  0  0  0  0  0  0
  -29.2242  -17.9032   25.0413 C   0  0  0  0  0  0  0  0  0  1  0  0
  -22.3682  -13.0183   27.7113 C   0  0  1  0  0  0  0  0  0  0  0  0
  -19.4071  -14.8961   26.2705 C   0  0  2  0  0  0  0  0  0  0  0  0
  -29.6687  -13.0413   25.4157 C   0  0  0  0  0  0  0  0  0  0  0  0
  -30.9801  -15.2946   25.0619 C   0  0  1  0  0  0  0  0  0  0  0  0
  -31.0308  -13.7232   25.0469 C   0  0  2  0  0  0  0  0  0  0  0  0
  -22.3449  -11.4683   27.8305 C   0  0  0  0  0  0  0  0  0  0  0  0
  -25.9396  -11.6083   20.5340 N   0  0  0  0  0  0  0  0  0  0  0  0
  -26.2816  -12.9003   20.3929 N   0  0  0  0  0  0  0  0  0  0  0  0
  -24.0365  -14.4731   28.8178 N   0  0  0  0  0  0  0  0  0  0  0  0
  -30.0940  -12.6312   20.4324 N   0  0  0  0  0  0  0  0  0  0  0  0
  -25.4061  -15.1009   20.4304 N   0  0  0  0  0  0  0  0  0  0  0  0
  -21.7911  -12.5269   21.2684 N   0  0  0  0  0  0  0  0  0  0  0  0
  -25.6395  -13.3783   31.5749 N   0  0  0  0  0  0  0  0  0  0  0  0
  -21.0653  -13.6164   27.4406 N   0  0  0  0  0  0  0  0  0  0  0  0
  -30.7398  -12.8565   22.6964 N   0  0  0  0  0  0  0  0  0  0  0  0
  -19.3539  -16.2513   25.6527 N   0  3  0  0  0  0  0  0  0  0  0  0
  -22.5159  -14.6843   20.9869 O   0  0  0  0  0  0  0  0  0  0  0  0
  -26.7202  -13.8409   29.5647 O   0  0  0  0  0  0  0  0  0  0  0  0
  -22.2892  -13.5160   30.0292 O   0  0  0  0  0  0  0  0  0  0  0  0
  -21.6747  -14.6714   25.4676 O   0  0  0  0  0  0  0  0  0  0  0  0
  -32.2581  -13.2241   21.0182 O   0  0  0  0  0  0  0  0  0  0  0  0
  -21.7151   -6.9671   21.6123 O   0  0  0  0  0  0  0  0  0  0  0  0
  -27.9328  -17.3191   24.9590 O   0  0  0  0  0  0  0  0  0  1  0  0
  -18.1503   -6.8802   25.8180 F   0  0  0  0  0  0  0  0  0  0  0  0
  -21.9830   -5.1303   23.6609 F   0  0  0  0  0  0  0  0  0  0  0  0
  1  2  1  0  0  0  0
  1  5  2  0  0  0  0
  2  6  2  0  0  0  0
  3  8  2  0  0  0  0
  3 15  1  0  0  0  0
  4  9  1  0  0  0  0
  4 15  2  0  0  0  0
  5 17  1  0  0  0  0
  6 19  1  0  0  0  0
  7 10  2  0  0  0  0
  7 18  1  0  0  0  0
  8 21  1  0  0  0  0
  9 21  2  0  0  0  0
 10 22  1  0  0  0  0
 11 12  2  0  0  0  0
 11 23  1  0  0  0  0
 12 24  1  0  0  0  0
 13 20  1  0  0  0  0
 13 22  2  0  0  0  0
 14 24  2  0  0  0  0
 14 25  1  0  0  0  0
 15 26  1  0  0  0  0
 16 26  1  0  0  0  0
 16 27  2  0  0  0  0
 16 28  1  0  0  0  0
 17 19  2  0  0  0  0
 17 33  1  0  0  0  0
 18 20  2  0  0  0  0
 18 34  1  0  0  0  0
 19 42  1  0  0  0  0
 20 35  1  0  0  0  0
 21 78  1  0  0  0  0
 22 79  1  0  0  0  0
 23 25  2  0  0  0  0
 23 78  1  0  0  0  0
 24 80  1  0  0  0  0
 25 81  1  0  0  0  0
 26 63  2  0  0  0  0
 27 64  1  0  0  0  0
 27 67  1  0  0  0  0
 28 68  1  0  0  0  0
 28 73  2  0  0  0  0
 29 43  1  0  0  0  0
 29 69  1  0  0  0  0
 29 74  2  0  0  0  0
 30 57  1  0  0  0  0
 30 65  1  0  0  0  0
 30 75  2  0  0  0  0
 31 58  1  0  0  0  0
 31 70  1  0  0  0  0
 31 76  2  0  0  0  0
 32 66  1  0  0  0  0
 32 71  1  0  0  0  0
 32 77  2  0  0  0  0
 33 36  1  0  0  0  0
 34 43  1  0  0  0  0
 35 65  1  0  0  0  0
 36 38  1  0  0  0  0
 37 39  1  0  0  0  0
 37 40  1  0  0  0  0
 38 42  1  0  0  0  0
 39 44  1  0  0  0  0
 40 66  1  0  0  0  0
 41 44  1  0  0  0  0
 41 66  1  0  0  0  0
 42 69  1  0  0  0  0
 43 65  1  0  0  0  0
 44 64  1  0  0  0  0
 45 58  1  0  0  0  0
 46 59  1  0  0  0  0
 47 59  1  0  0  0  0
 48 60  1  0  0  0  0
 49 62  1  0  0  0  0
 50 62  1  0  0  0  0
 51 62  1  0  0  0  0
 52 72  1  0  0  0  0
 53 54  1  0  0  0  0
 53 56  1  0  0  0  0
 54 60  1  0  0  0  0
 55 61  1  0  0  0  0
 55 71  1  0  0  0  0
 56 79  1  0  0  0  0
 57 62  1  0  0  0  0
 57 70  1  0  0  0  0
 58 72  1  0  0  0  0
 59 61  1  0  0  0  0
 60 61  1  0  0  0  0
 63 64  1  0  0  0  0
M  CHG  1  72   1
M  ISO  4  32 100  56 101  71 100  79 101
M  END
> <Batch ID>
0092

> <Smiles>
CNC(C)C(=O)NC(C(=O)N1Cc2cc([101O:1][101CH2:1]CCC(C)C(C[100NH:0][100C:0](=O)N3CCCC(n4nc(-c5ccc(Oc6ccc(F)cc6F)cc5)c(C(N)=O)c4N)C3)C(C)C)ccc2CC1C(=O)NC1CCCc2ccccc21)C(C)(C)C

> <Shape>
0.140

> <Color>
0.174

> <Negative vol penalty>
0.000

$$$$

  -OEChem-04052319143D

 84 92  0     1  0  0  0  0  0999 V2000
  -19.6996  -26.5717   10.3896 C   0  0  0  0  0  0  0  0  0  0  0  0
  -20.1516  -25.2796   10.6379 C   0  0  0  0  0  0  0  0  0  0  0  0
  -23.0697   -9.8766   19.9433 C   0  0  0  0  0  0  0  0  0  0  0  0
  -23.8340   -9.8807   22.2352 C   0  0  0  0  0  0  0  0  0  0  0  0
  -20.4810  -27.6655   10.7599 C   0  0  0  0  0  0  0  0  0  0  0  0
  -21.3858  -25.0806   11.2556 C   0  0  0  0  0  0  0  0  0  0  0  0
  -24.7305  -20.5964   15.7302 C   0  0  0  0  0  0  0  0  0  0  0  0
  -27.0549  -18.6303   19.6020 C   0  0  0  0  0  0  0  0  0  0  0  0
  -22.3247   -8.7242   20.1938 C   0  0  0  0  0  0  0  0  0  0  0  0
  -23.0890   -8.7284   22.4858 C   0  0  0  0  0  0  0  0  0  0  0  0
  -25.8944  -19.8342   15.8207 C   0  0  0  0  0  0  0  0  0  0  0  0
  -22.8930   -5.4048   20.4811 C   0  0  0  0  0  0  0  0  0  0  0  0
  -22.9566   -4.3758   19.5416 C   0  0  0  0  0  0  0  0  0  0  0  0
  -26.4304  -19.0608   20.7673 C   0  0  0  0  0  0  0  0  0  0  0  0
  -27.1228  -21.8002   16.4880 C   0  0  0  0  0  0  0  0  0  0  0  0
  -20.5717   -4.5452   19.1946 C   0  0  0  0  0  0  0  0  0  0  0  0
  -23.8244  -10.4548   20.9640 C   0  0  0  0  0  0  0  0  0  0  0  0
  -24.1695  -12.9796   20.8452 C   0  0  0  0  0  0  0  0  0  0  0  0
  -21.7210  -27.4799   11.3912 C   0  0  0  0  0  0  0  0  0  0  0  0
  -24.7563  -21.9707   16.0078 C   0  0  0  0  0  0  0  0  0  0  0  0
  -22.1851  -26.1728   11.6334 C   0  0  0  0  0  0  0  0  0  0  0  0
  -25.9574  -22.5771   16.4028 C   0  0  0  0  0  0  0  0  0  0  0  0
  -28.4036  -18.2929   19.6266 C   0  0  0  0  0  0  0  0  0  0  0  0
  -22.3343   -8.1502   21.4650 C   0  0  0  0  0  0  0  0  0  0  0  0
  -27.0914  -20.4366   16.1968 C   0  0  0  0  0  0  0  0  0  0  0  0
  -21.6687   -6.0039   20.7775 C   0  0  0  0  0  0  0  0  0  0  0  0
  -21.7960   -3.9460   18.8983 C   0  0  0  0  0  0  0  0  0  0  0  0
  -20.5081   -5.5741   20.1342 C   0  0  0  0  0  0  0  0  0  0  0  0
  -24.5946  -11.6448   20.7057 C   0  0  0  0  0  0  0  0  0  0  0  0
  -27.1926  -19.1361   21.9219 C   0  0  0  0  0  0  0  0  0  0  0  0
  -29.0776  -18.4028   20.8322 C   0  0  0  0  0  0  0  0  0  0  0  0
  -25.2620  -13.7278   20.4804 C   0  0  0  0  0  0  0  0  0  0  0  0
  -22.9005  -13.4968   21.2670 C   0  0  0  0  0  0  0  0  0  0  0  0
  -24.1578  -24.6082   14.3377 C   0  0  0  0  0  0  0  0  0  0  0  0
  -24.5869  -26.0557   17.2088 C   0  0  0  0  0  0  0  0  0  0  0  0
  -25.9671  -25.9517   20.3282 C   0  0  0  0  0  0  0  0  0  0  0  0
  -30.7475  -14.7392   20.6589 C   0  0  0  0  0  0  0  0  0  0  0  0
  -22.5516  -28.6922   11.7303 C   0  0  0  0  0  0  0  0  0  0  0  0
  -23.4867  -22.7737   15.9315 C   0  0  0  0  0  0  0  0  0  0  0  0
  -26.0341  -24.0450   16.7312 C   0  0  0  0  0  0  0  0  0  0  0  0
  -23.6779  -28.4017   12.7189 C   0  0  0  0  0  0  0  0  0  0  0  0
  -29.6020  -12.3581   18.2726 C   0  0  0  0  0  0  0  0  0  0  0  0
  -24.4322  -27.1395   12.3130 C   0  0  0  0  0  0  0  0  0  0  0  0
  -28.1649  -12.0660   18.7080 C   0  0  0  0  0  0  0  0  0  0  0  0
  -30.5217  -12.5767   19.4718 C   0  0  0  0  0  0  0  0  0  0  0  0
  -28.6237  -13.3093   20.8627 C   0  0  0  0  0  0  0  0  0  0  0  0
  -23.5071  -25.9165   12.3239 C   0  0  1  0  0  0  0  0  0  0  0  0
  -23.7346  -24.2665   15.7384 C   0  0  1  0  0  0  0  0  0  0  0  0
  -27.6470  -13.1370   19.6868 C   0  0  2  0  0  0  0  0  0  0  0  0
  -26.5540  -19.5926   23.1911 C   0  0  0  0  0  0  0  0  0  0  0  0
  -31.3913  -19.2697   21.2998 C   0  0  0  0  0  0  0  0  0  0  0  0
  -26.1755  -27.2976   22.4360 C   0  0  0  0  0  0  0  0  0  0  0  0
  -26.6431  -27.8565   15.8527 C   0  0  0  0  0  0  0  0  0  0  0  0
  -27.4783  -28.4961   18.1246 C   0  0  0  0  0  0  0  0  0  0  0  0
  -25.1322  -29.0281   17.4648 C   0  0  0  0  0  0  0  0  0  0  0  0
  -24.6115  -23.8661   21.9317 C   0  0  0  0  0  0  0  0  0  0  0  0
  -29.0867  -17.8266   18.3658 C   0  0  0  0  0  0  0  0  0  0  0  0
  -29.9766  -18.8896   17.7182 C   0  0  0  0  0  0  0  0  0  0  0  0
  -30.8187  -16.8887   21.8973 C   0  0  0  0  0  0  0  0  0  0  0  0
  -29.2044  -20.1134   17.2391 C   0  0  0  0  0  0  0  0  0  1  0  0
  -30.5265  -18.0510   20.9188 C   0  0  1  0  0  0  0  0  0  0  0  0
  -25.7698  -26.6302   17.9502 C   0  0  1  0  0  0  0  0  0  0  0  0
  -25.3793  -26.2315   21.6996 C   0  0  2  0  0  0  0  0  0  0  0  0
  -26.2551  -27.9755   17.3401 C   0  0  0  0  0  0  0  0  0  0  0  0
  -25.8585  -11.5476   20.2849 N   0  0  0  0  0  0  0  0  0  0  0  0
  -28.5048  -18.8170   21.9846 N   0  0  0  0  0  0  0  0  0  0  0  0
  -26.2370  -12.8307   20.1568 N   0  0  0  0  0  0  0  0  0  0  0  0
  -24.7672  -24.7888   16.6358 N   0  0  0  0  0  0  0  0  0  0  0  0
  -29.9743  -13.6053   20.3597 N   0  0  0  0  0  0  0  0  0  0  0  0
  -25.4741  -15.0590   20.4080 N   0  0  0  0  0  0  0  0  0  0  0  0
  -21.8880  -12.5888   21.6055 N   0  0  0  0  0  0  0  0  0  0  0  0
  -23.2902  -25.4588   13.6796 N   0  0  0  0  0  0  0  0  0  0  0  0
  -25.3700  -26.7189   19.3504 N   0  0  0  0  0  0  0  0  0  0  0  0
  -30.1512  -15.6682   21.5028 N   0  0  0  0  0  0  0  0  0  0  0  0
  -25.3785  -24.9911   22.5257 N   0  3  0  0  0  0  0  0  0  0  0  0
  -22.6661  -14.7277   21.3257 O   0  0  0  0  0  0  0  0  0  0  0  0
  -25.1954  -24.1362   13.8879 O   0  0  0  0  0  0  0  0  0  0  0  0
  -23.5392  -26.7039   17.1466 O   0  0  0  0  0  0  0  0  0  0  0  0
  -26.8686  -25.1370   20.1435 O   0  0  0  0  0  0  0  0  0  0  0  0
  -31.8828  -14.9134   20.2032 O   0  0  0  0  0  0  0  0  0  0  0  0
  -21.6073   -7.0259   21.7099 O   0  0  0  0  0  0  0  0  0  0  0  0
  -28.2290  -19.6951   16.2853 O   0  0  0  0  0  0  0  0  0  1  0  0
  -21.8575   -2.9589   17.9949 F   0  0  0  0  0  0  0  0  0  0  0  0
  -19.3292   -6.1467   20.4139 F   0  0  0  0  0  0  0  0  0  0  0  0
  1  2  1  0  0  0  0
  1  5  2  0  0  0  0
  2  6  2  0  0  0  0
  3  9  2  0  0  0  0
  3 17  1  0  0  0  0
  4 10  1  0  0  0  0
  4 17  2  0  0  0  0
  5 19  1  0  0  0  0
  6 21  1  0  0  0  0
  7 11  2  0  0  0  0
  7 20  1  0  0  0  0
  8 14  2  0  0  0  0
  8 23  1  0  0  0  0
  9 24  1  0  0  0  0
 10 24  2  0  0  0  0
 11 25  1  0  0  0  0
 12 13  2  0  0  0  0
 12 26  1  0  0  0  0
 13 27  1  0  0  0  0
 14 30  1  0  0  0  0
 15 22  1  0  0  0  0
 15 25  2  0  0  0  0
 16 27  2  0  0  0  0
 16 28  1  0  0  0  0
 17 29  1  0  0  0  0
 18 29  1  0  0  0  0
 18 32  2  0  0  0  0
 18 33  1  0  0  0  0
 19 21  2  0  0  0  0
 19 38  1  0  0  0  0
 20 22  2  0  0  0  0
 20 39  1  0  0  0  0
 21 47  1  0  0  0  0
 22 40  1  0  0  0  0
 23 31  2  0  0  0  0
 23 57  1  0  0  0  0
 24 81  1  0  0  0  0
 25 82  1  0  0  0  0
 26 28  2  0  0  0  0
 26 81  1  0  0  0  0
 27 83  1  0  0  0  0
 28 84  1  0  0  0  0
 29 65  2  0  0  0  0
 30 50  1  0  0  0  0
 30 66  2  0  0  0  0
 31 61  1  0  0  0  0
 31 66  1  0  0  0  0
 32 67  1  0  0  0  0
 32 70  1  0  0  0  0
 33 71  1  0  0  0  0
 33 76  2  0  0  0  0
 34 48  1  0  0  0  0
 34 72  1  0  0  0  0
 34 77  2  0  0  0  0
 35 62  1  0  0  0  0
 35 68  1  0  0  0  0
 35 78  2  0  0  0  0
 36 63  1  0  0  0  0
 36 73  1  0  0  0  0
 36 79  2  0  0  0  0
 37 69  1  0  0  0  0
 37 74  1  0  0  0  0
 37 80  2  0  0  0  0
 38 41  1  0  0  0  0
 39 48  1  0  0  0  0
 40 68  1  0  0  0  0
 41 43  1  0  0  0  0
 42 44  1  0  0  0  0
 42 45  1  0  0  0  0
 43 47  1  0  0  0  0
 44 49  1  0  0  0  0
 45 69  1  0  0  0  0
 46 49  1  0  0  0  0
 46 69  1  0  0  0  0
 47 72  1  0  0  0  0
 48 68  1  0  0  0  0
 49 67  1  0  0  0  0
 51 61  1  0  0  0  0
 52 63  1  0  0  0  0
 53 64  1  0  0  0  0
 54 64  1  0  0  0  0
 55 64  1  0  0  0  0
 56 75  1  0  0  0  0
 57 58  1  0  0  0  0
 58 60  1  0  0  0  0
 59 61  1  0  0  0  0
 59 74  1  0  0  0  0
 60 82  1  0  0  0  0
 62 64  1  0  0  0  0
 62 73  1  0  0  0  0
 63 75  1  0  0  0  0
 65 67  1  0  0  0  0
M  CHG  1  75   1
M  ISO  4  37 100  60 101  74 100  82 101
M  END
> <Batch ID>
0092

> <Smiles>
CNC(C)C(=O)NC(C(=O)N1Cc2cc([101O:1][101CH2:1]CCc3ccc(C)nc3C(C)C[100NH:0][100C:0](=O)N3CCCC(n4nc(-c5ccc(Oc6ccc(F)cc6F)cc5)c(C(N)=O)c4N)C3)ccc2CC1C(=O)NC1CCCc2ccccc21)C(C)(C)C

> <Shape>
0.201

> <Color>
0.192

> <Negative vol penalty>
0.000

$$$$

  -OEChem-04052319143D

 88 96  0     1  0  0  0  0  0999 V2000
  -19.0379  -26.9126   26.0439 C   0  0  0  0  0  0  0  0  0  0  0  0
  -20.4179  -26.8402   25.8834 C   0  0  0  0  0  0  0  0  0  0  0  0
  -24.4920  -13.7350   21.0089 C   0  0  0  0  0  0  0  0  0  0  0  0
  -26.7261  -13.2850   20.2069 C   0  0  0  0  0  0  0  0  0  0  0  0
  -18.2289  -27.2621   24.9634 C   0  0  0  0  0  0  0  0  0  0  0  0
  -20.9896  -27.1163   24.6419 C   0  0  0  0  0  0  0  0  0  0  0  0
  -26.3849  -29.8172   23.5923 C   0  0  0  0  0  0  0  0  0  0  0  0
  -24.0970  -12.4526   20.6281 C   0  0  0  0  0  0  0  0  0  0  0  0
  -26.3311  -12.0026   19.8261 C   0  0  0  0  0  0  0  0  0  0  0  0
  -27.6461  -29.3066   23.2880 C   0  0  0  0  0  0  0  0  0  0  0  0
  -24.3762   -9.3022   21.8239 C   0  0  0  0  0  0  0  0  0  0  0  0
  -23.6090   -8.5655   22.7262 C   0  0  0  0  0  0  0  0  0  0  0  0
  -27.2170  -29.6622   20.9409 C   0  0  0  0  0  0  0  0  0  0  0  0
  -21.8259   -8.4323   21.1014 C   0  0  0  0  0  0  0  0  0  0  0  0
  -25.8065  -14.1512   20.7983 C   0  0  0  0  0  0  0  0  0  0  0  0
  -26.7413  -15.8694   22.4359 C   0  0  0  0  0  0  0  0  0  0  0  0
  -18.7918  -27.5520   23.7106 C   0  0  0  0  0  0  0  0  0  0  0  0
  -25.5247  -30.2447   22.5707 C   0  0  0  0  0  0  0  0  0  0  0  0
  -20.1874  -27.4687   23.5433 C   0  0  0  0  0  0  0  0  0  0  0  0
  -25.9465  -30.1802   21.2351 C   0  0  0  0  0  0  0  0  0  0  0  0
  -25.0165  -11.5864   20.0368 C   0  0  0  0  0  0  0  0  0  0  0  0
  -28.0612  -29.2263   21.9619 C   0  0  0  0  0  0  0  0  0  0  0  0
  -23.8683   -9.6040   20.5603 C   0  0  0  0  0  0  0  0  0  0  0  0
  -22.3339   -8.1305   22.3650 C   0  0  0  0  0  0  0  0  0  0  0  0
  -22.5932   -9.1690   20.1991 C   0  0  0  0  0  0  0  0  0  0  0  0
  -26.2150  -15.4760   21.1909 C   0  0  0  0  0  0  0  0  0  0  0  0
  -29.0297  -23.9104   21.6136 C   0  0  0  0  0  0  0  0  0  0  0  0
  -28.9471  -25.1680   21.0534 C   0  0  0  0  0  0  0  0  0  0  0  0
  -26.9661  -17.2178   22.3031 C   0  0  0  0  0  0  0  0  0  0  0  0
  -26.8464  -24.1161   21.5852 C   0  0  0  0  0  0  0  0  0  0  0  0
  -27.0037  -15.0859   23.6076 C   0  0  0  0  0  0  0  0  0  0  0  0
  -22.6511  -29.3587   21.5406 C   0  0  0  0  0  0  0  0  0  0  0  0
  -22.9671  -31.9559   19.6231 C   0  0  0  0  0  0  0  0  0  0  0  0
  -25.0437  -34.1648   18.0560 C   0  0  0  0  0  0  0  0  0  0  0  0
  -28.8491  -21.5714   19.3627 C   0  0  0  0  0  0  0  0  0  0  0  0
  -17.8731  -27.8791   22.5601 C   0  0  0  0  0  0  0  0  0  0  0  0
  -24.1779  -30.8179   22.9174 C   0  0  0  0  0  0  0  0  0  0  0  0
  -25.0687  -30.6450   20.1029 C   0  0  0  0  0  0  0  0  0  0  0  0
  -18.5875  -28.5214   21.3738 C   0  0  0  0  0  0  0  0  0  0  0  0
  -25.5370  -20.4534   18.6871 C   0  0  0  0  0  0  0  0  0  0  0  0
  -19.8645  -27.7562   21.0415 C   0  0  0  0  0  0  0  0  0  0  0  0
  -25.4639  -19.0892   19.3754 C   0  0  0  0  0  0  0  0  0  0  0  0
  -26.9151  -20.7058   18.0795 C   0  0  0  0  0  0  0  0  0  0  0  0
  -27.9703  -19.1824   19.7042 C   0  0  0  0  0  0  0  0  0  0  0  0
  -20.8470  -27.7850   22.2186 C   0  0  1  0  0  0  0  0  0  0  0  0
  -23.1830  -30.7463   21.7631 C   0  0  1  0  0  0  0  0  0  0  0  0
  -26.6167  -18.9059   20.3807 C   0  0  2  0  0  0  0  0  0  0  0  0
  -30.1437  -22.2796   23.1704 C   0  0  0  0  0  0  0  0  0  0  0  0
  -25.0109  -36.1551   16.5280 C   0  0  0  0  0  0  0  0  0  0  0  0
  -25.1157  -25.5094   26.5364 C   0  0  0  0  0  0  0  0  0  0  0  0
  -25.6127  -23.0833   26.1792 C   0  0  0  0  0  0  0  0  0  0  0  0
  -22.3670  -30.1260   17.2565 C   0  0  0  0  0  0  0  0  0  0  0  0
  -23.2688  -31.9043   15.7423 C   0  0  0  0  0  0  0  0  0  0  0  0
  -21.2615  -32.3667   17.1492 C   0  0  0  0  0  0  0  0  0  0  0  0
  -26.3524  -35.8845   20.0781 C   0  0  0  0  0  0  0  0  0  0  0  0
  -30.0398  -26.1052   20.6048 C   0  0  0  0  0  0  0  0  0  0  0  0
  -25.4101  -23.8118   21.7655 C   0  0  0  0  0  0  0  0  0  0  0  0
  -30.7470  -26.8229   21.7565 C   0  0  0  0  0  0  0  0  0  0  0  0
  -24.9993  -23.4649   23.2147 C   0  0  0  0  0  0  0  0  0  0  0  0
  -25.2320  -24.6294   24.1858 C   0  0  0  0  0  0  0  0  0  0  0  0
  -30.7863  -22.2989   20.7329 C   0  0  0  0  0  0  0  0  0  0  0  0
  -29.8278  -27.7460   22.5479 C   0  0  0  0  0  0  0  0  0  1  0  0
  -30.2739  -23.1718   21.9117 C   0  0  1  0  0  0  0  0  0  0  0  0
  -23.5336  -32.2057   18.2463 C   0  0  1  0  0  0  0  0  0  0  0  0
  -25.0241  -35.6804   17.9727 C   0  0  2  0  0  0  0  0  0  0  0  0
  -24.8522  -24.2961   25.6411 C   0  0  0  0  0  0  0  0  0  0  0  0
  -22.6237  -31.6400   17.1195 C   0  0  0  0  0  0  0  0  0  0  0  0
  -26.1114  -16.4925   20.3305 N   0  0  0  0  0  0  0  0  0  0  0  0
  -27.8261  -23.3059   21.9196 N   0  0  0  0  0  0  0  0  0  0  0  0
  -26.5757  -17.5378   21.0361 N   0  0  0  0  0  0  0  0  0  0  0  0
  -23.7584  -31.1918   20.4924 N   0  0  0  0  0  0  0  0  0  0  0  0
  -27.9635  -20.5171   19.0851 N   0  0  0  0  0  0  0  0  0  0  0  0
  -27.4577  -18.1492   23.1477 N   0  0  0  0  0  0  0  0  0  0  0  0
  -26.7144  -13.7149   23.5732 N   0  0  0  0  0  0  0  0  0  0  0  0
  -21.5228  -29.0632   22.2816 N   0  0  0  0  0  0  0  0  0  0  0  0
  -23.7717  -33.6423   18.1573 N   0  0  0  0  0  0  0  0  0  0  0  0
  -29.8087  -21.3112   20.3335 N   0  0  0  0  0  0  0  0  0  0  0  0
  -26.2256  -36.2517   18.6442 N   0  3  0  0  0  0  0  0  0  0  0  0
  -27.4651  -15.5897   24.6596 O   0  0  0  0  0  0  0  0  0  0  0  0
  -23.2212  -28.6120   20.7538 O   0  0  0  0  0  0  0  0  0  0  0  0
  -21.8664  -32.4277   19.9189 O   0  0  0  0  0  0  0  0  0  0  0  0
  -26.0832  -33.5096   18.0299 O   0  0  0  0  0  0  0  0  0  0  0  0
  -28.7858  -22.6656   18.7919 O   0  0  0  0  0  0  0  0  0  0  0  0
  -24.6315  -10.3348   19.6653 O   0  0  0  0  0  0  0  0  0  0  0  0
  -29.2914  -28.7277   21.6621 O   0  0  0  0  0  0  0  0  0  1  0  0
  -21.5979   -7.4217   23.2310 F   0  0  0  0  0  0  0  0  0  0  0  0
  -22.1003   -9.4549   18.9861 F   0  0  0  0  0  0  0  0  0  0  0  0
  -27.3005  -25.6211   20.8970 S   0  0  0  0  0  0  0  0  0  0  0  0
  1  2  1  0  0  0  0
  1  5  2  0  0  0  0
  2  6  2  0  0  0  0
  3  8  2  0  0  0  0
  3 15  1  0  0  0  0
  4  9  1  0  0  0  0
  4 15  2  0  0  0  0
  5 17  1  0  0  0  0
  6 19  1  0  0  0  0
  7 10  2  0  0  0  0
  7 18  1  0  0  0  0
  8 21  1  0  0  0  0
  9 21  2  0  0  0  0
 10 22  1  0  0  0  0
 11 12  2  0  0  0  0
 11 23  1  0  0  0  0
 12 24  1  0  0  0  0
 13 20  1  0  0  0  0
 13 22  2  0  0  0  0
 14 24  2  0  0  0  0
 14 25  1  0  0  0  0
 15 26  1  0  0  0  0
 16 26  1  0  0  0  0
 16 29  2  0  0  0  0
 16 31  1  0  0  0  0
 17 19  2  0  0  0  0
 17 36  1  0  0  0  0
 18 20  2  0  0  0  0
 18 37  1  0  0  0  0
 19 45  1  0  0  0  0
 20 38  1  0  0  0  0
 21 84  1  0  0  0  0
 22 85  1  0  0  0  0
 23 25  2  0  0  0  0
 23 84  1  0  0  0  0
 24 86  1  0  0  0  0
 25 87  1  0  0  0  0
 26 68  2  0  0  0  0
 27 28  2  0  0  0  0
 27 63  1  0  0  0  0
 27 69  1  0  0  0  0
 28 56  1  0  0  0  0
 28 88  1  0  0  0  0
 29 70  1  0  0  0  0
 29 73  1  0  0  0  0
 30 57  1  0  0  0  0
 30 69  2  0  0  0  0
 30 88  1  0  0  0  0
 31 74  1  0  0  0  0
 31 79  2  0  0  0  0
 32 46  1  0  0  0  0
 32 75  1  0  0  0  0
 32 80  2  0  0  0  0
 33 64  1  0  0  0  0
 33 71  1  0  0  0  0
 33 81  2  0  0  0  0
 34 65  1  0  0  0  0
 34 76  1  0  0  0  0
 34 82  2  0  0  0  0
 35 72  1  0  0  0  0
 35 77  1  0  0  0  0
 35 83  2  0  0  0  0
 36 39  1  0  0  0  0
 37 46  1  0  0  0  0
 38 71  1  0  0  0  0
 39 41  1  0  0  0  0
 40 42  1  0  0  0  0
 40 43  1  0  0  0  0
 41 45  1  0  0  0  0
 42 47  1  0  0  0  0
 43 72  1  0  0  0  0
 44 47  1  0  0  0  0
 44 72  1  0  0  0  0
 45 75  1  0  0  0  0
 46 71  1  0  0  0  0
 47 70  1  0  0  0  0
 48 63  1  0  0  0  0
 49 65  1  0  0  0  0
 50 66  1  0  0  0  0
 51 66  1  0  0  0  0
 52 67  1  0  0  0  0
 53 67  1  0  0  0  0
 54 67  1  0  0  0  0
 55 78  1  0  0  0  0
 56 58  1  0  0  0  0
 57 59  1  0  0  0  0
 58 62  1  0  0  0  0
 59 60  1  0  0  0  0
 60 66  1  0  0  0  0
 61 63  1  0  0  0  0
 61 77  1  0  0  0  0
 62 85  1  0  0  0  0
 64 67  1  0  0  0  0
 64 76  1  0  0  0  0
 65 78  1  0  0  0  0
 68 70  1  0  0  0  0
M  CHG  1  78   1
M  ISO  4  35 100  62 101  77 100  85 101
M  END
> <Batch ID>
0092

> <Smiles>
CNC(C)C(=O)NC(C(=O)N1Cc2cc([101O:1][101CH2:1]CCc3sc(CCCC(C)C)nc3C(C)C[100NH:0][100C:0](=O)N3CCCC(n4nc(-c5ccc(Oc6ccc(F)cc6F)cc5)c(C(N)=O)c4N)C3)ccc2CC1C(=O)NC1CCCc2ccccc21)C(C)(C)C

> <Shape>
0.246

> <Color>
0.096

> <Negative vol penalty>
0.000

$$$$

  -OEChem-04052319143D

 84 91  0     1  0  0  0  0  0999 V2000
  -37.7712  -26.5447   28.3108 C   0  0  0  0  0  0  0  0  0  0  0  0
  -36.7130  -25.6419   28.2897 C   0  0  0  0  0  0  0  0  0  0  0  0
  -23.0049   -9.8876   19.9805 C   0  0  0  0  0  0  0  0  0  0  0  0
  -23.7338   -9.9405   22.2833 C   0  0  0  0  0  0  0  0  0  0  0  0
  -37.9495  -27.4329   27.2510 C   0  0  0  0  0  0  0  0  0  0  0  0
  -35.8317  -25.6275   27.2092 C   0  0  0  0  0  0  0  0  0  0  0  0
  -34.8052  -20.9363   25.6018 C   0  0  0  0  0  0  0  0  0  0  0  0
  -22.2430   -8.7502   20.2478 C   0  0  0  0  0  0  0  0  0  0  0  0
  -22.9719   -8.8032   22.5506 C   0  0  0  0  0  0  0  0  0  0  0  0
  -33.8912  -20.1934   26.3478 C   0  0  0  0  0  0  0  0  0  0  0  0
  -23.2276   -5.4653   22.0773 C   0  0  0  0  0  0  0  0  0  0  0  0
  -23.8202   -4.4500   22.8281 C   0  0  0  0  0  0  0  0  0  0  0  0
  -32.1650  -20.7217   24.7477 C   0  0  0  0  0  0  0  0  0  0  0  0
  -22.0983   -4.6861   24.5063 C   0  0  0  0  0  0  0  0  0  0  0  0
  -23.7504  -10.4827   20.9983 C   0  0  0  0  0  0  0  0  0  0  0  0
  -24.1262  -12.9998   20.8223 C   0  0  0  0  0  0  0  0  0  0  0  0
  -37.0757  -27.4229   26.1524 C   0  0  0  0  0  0  0  0  0  0  0  0
  -34.4026  -21.5876   24.4270 C   0  0  0  0  0  0  0  0  0  0  0  0
  -35.9977  -26.5173   26.1343 C   0  0  0  0  0  0  0  0  0  0  0  0
  -33.0763  -21.4701   23.9873 C   0  0  0  0  0  0  0  0  0  0  0  0
  -22.2265   -8.2080   21.5329 C   0  0  0  0  0  0  0  0  0  0  0  0
  -32.5702  -20.0883   25.9223 C   0  0  0  0  0  0  0  0  0  0  0  0
  -22.0704   -6.0911   22.5410 C   0  0  0  0  0  0  0  0  0  0  0  0
  -23.2555   -4.0604   24.0426 C   0  0  0  0  0  0  0  0  0  0  0  0
  -21.5058   -5.7014   23.7555 C   0  0  0  0  0  0  0  0  0  0  0  0
  -24.5381  -11.6573   20.7226 C   0  0  0  0  0  0  0  0  0  0  0  0
  -25.2327  -13.7265   20.4563 C   0  0  0  0  0  0  0  0  0  0  0  0
  -31.0895  -17.2542   27.5608 C   0  0  0  0  0  0  0  0  0  0  0  0
  -22.8569  -13.5414   21.2112 C   0  0  0  0  0  0  0  0  0  0  0  0
  -30.7832  -16.2323   26.7404 C   0  0  0  0  0  0  0  0  0  0  0  0
  -34.2856  -24.6160   23.4685 C   0  0  0  0  0  0  0  0  0  0  0  0
  -33.4374  -23.2796   20.6371 C   0  0  0  0  0  0  0  0  0  0  0  0
  -32.0923  -20.6185   18.9768 C   0  0  0  0  0  0  0  0  0  0  0  0
  -30.7260  -14.6812   20.6956 C   0  0  0  0  0  0  0  0  0  0  0  0
  -37.2810  -28.4340   25.0523 C   0  0  0  0  0  0  0  0  0  0  0  0
  -35.4070  -22.3631   23.6193 C   0  0  0  0  0  0  0  0  0  0  0  0
  -32.5986  -22.1334   22.7223 C   0  0  0  0  0  0  0  0  0  0  0  0
  -36.5230  -28.1010   23.7698 C   0  0  0  0  0  0  0  0  0  0  0  0
  -29.5901  -12.2541   18.3514 C   0  0  0  0  0  0  0  0  0  0  0  0
  -35.0836  -27.7084   24.0870 C   0  0  0  0  0  0  0  0  0  0  0  0
  -28.1433  -11.9889   18.7714 C   0  0  0  0  0  0  0  0  0  0  0  0
  -30.4938  -12.4924   19.5591 C   0  0  0  0  0  0  0  0  0  0  0  0
  -28.5830  -13.2805   20.9014 C   0  0  0  0  0  0  0  0  0  0  0  0
  -35.0351  -26.4544   24.9683 C   0  0  1  0  0  0  0  0  0  0  0  0
  -34.7654  -23.4091   22.7129 C   0  0  1  0  0  0  0  0  0  0  0  0
  -27.6227  -13.0897   19.7150 C   0  0  2  0  0  0  0  0  0  0  0  0
  -26.5992  -17.5878   27.5993 C   0  0  0  0  0  0  0  0  0  0  0  0
  -31.4952  -19.8337   16.6693 C   0  0  0  0  0  0  0  0  0  0  0  0
  -27.4160  -14.6618   27.8631 C   0  0  0  0  0  0  0  0  0  0  0  0
  -30.9889  -25.1002   20.6540 C   0  0  0  0  0  0  0  0  0  0  0  0
  -29.9784  -23.6413   18.8881 C   0  0  0  0  0  0  0  0  0  0  0  0
  -32.1008  -24.8679   18.4260 C   0  0  0  0  0  0  0  0  0  0  0  0
  -33.9405  -18.3141   19.1567 C   0  0  0  0  0  0  0  0  0  0  0  0
  -32.3364  -14.8343   25.5728 C   0  0  0  0  0  0  0  0  0  0  0  0
  -32.1863  -18.2568   27.3899 C   0  0  0  0  0  0  0  0  0  1  0  0
  -29.6720  -15.2298   26.9289 C   0  0  0  0  0  0  0  0  0  0  0  0
  -27.8177  -16.9876   26.9106 C   0  0  0  0  0  0  0  0  0  0  0  0
  -31.5990  -16.7113   23.1733 C   0  0  0  0  0  0  0  0  0  0  0  0
  -30.8028  -16.8600   21.8813 C   0  0  0  0  0  0  0  0  0  0  0  0
  -30.7209  -16.3008   24.3485 C   0  0  0  0  0  0  0  0  0  0  0  0
  -32.1322  -22.8823   19.9908 C   0  0  1  0  0  0  0  0  0  0  0  0
  -32.5619  -19.8529   17.7530 C   0  0  2  0  0  0  0  0  0  0  0  0
  -28.4337  -15.7916   27.6666 C   0  0  1  0  0  0  0  0  0  0  0  0
  -31.3083  -24.1119   19.5146 C   0  0  0  0  0  0  0  0  0  0  0  0
  -25.8071  -11.5356   20.3242 N   0  0  0  0  0  0  0  0  0  0  0  0
  -26.2022  -12.8109   20.1703 N   0  0  0  0  0  0  0  0  0  0  0  0
  -33.6168  -22.8856   21.9707 N   0  0  0  0  0  0  0  0  0  0  0  0
  -29.9446  -13.5488   20.4125 N   0  0  0  0  0  0  0  0  0  0  0  0
  -25.4611  -15.0531   20.3542 N   0  0  0  0  0  0  0  0  0  0  0  0
  -21.8289  -12.6534   21.5562 N   0  0  0  0  0  0  0  0  0  0  0  0
  -35.2780  -25.2690   24.1743 N   0  0  0  0  0  0  0  0  0  0  0  0
  -32.4725  -21.9430   18.9276 N   0  0  0  0  0  0  0  0  0  0  0  0
  -30.1275  -15.6375   21.5068 N   0  0  0  0  0  0  0  0  0  0  0  0
  -32.8879  -18.4449   18.1165 N   0  3  0  0  0  0  0  0  0  0  0  0
  -31.5803  -16.1284   25.5643 N   0  3  1  0  0  0  0  0  0  0  0  0
  -22.6357  -14.7759   21.2357 O   0  0  0  0  0  0  0  0  0  0  0  0
  -33.1030  -24.9323   23.4138 O   0  0  0  0  0  0  0  0  0  0  0  0
  -34.2701  -23.9098   19.9806 O   0  0  0  0  0  0  0  0  0  0  0  0
  -31.4491  -20.0950   19.8839 O   0  0  0  0  0  0  0  0  0  0  0  0
  -31.8701  -14.8314   20.2536 O   0  0  0  0  0  0  0  0  0  0  0  0
  -21.4829   -7.0983   21.7941 O   0  0  0  0  0  0  0  0  0  0  0  0
  -31.6759  -19.3643   26.6490 O   0  0  0  0  0  0  0  0  0  1  0  0
  -23.8238   -3.0844   24.7627 F   0  0  0  0  0  0  0  0  0  0  0  0
  -20.3935   -6.2981   24.2056 F   0  0  0  0  0  0  0  0  0  0  0  0
  1  2  1  0  0  0  0
  1  5  2  0  0  0  0
  2  6  2  0  0  0  0
  3  8  2  0  0  0  0
  3 15  1  0  0  0  0
  4  9  1  0  0  0  0
  4 15  2  0  0  0  0
  5 17  1  0  0  0  0
  6 19  1  0  0  0  0
  7 10  2  0  0  0  0
  7 18  1  0  0  0  0
  8 21  1  0  0  0  0
  9 21  2  0  0  0  0
 10 22  1  0  0  0  0
 11 12  2  0  0  0  0
 11 23  1  0  0  0  0
 12 24  1  0  0  0  0
 13 20  1  0  0  0  0
 13 22  2  0  0  0  0
 14 24  2  0  0  0  0
 14 25  1  0  0  0  0
 15 26  1  0  0  0  0
 16 26  1  0  0  0  0
 16 27  2  0  0  0  0
 16 29  1  0  0  0  0
 17 19  2  0  0  0  0
 17 35  1  0  0  0  0
 18 20  2  0  0  0  0
 18 36  1  0  0  0  0
 19 44  1  0  0  0  0
 20 37  1  0  0  0  0
 21 81  1  0  0  0  0
 22 82  1  0  0  0  0
 23 25  2  0  0  0  0
 23 81  1  0  0  0  0
 24 83  1  0  0  0  0
 25 84  1  0  0  0  0
 26 65  2  0  0  0  0
 27 66  1  0  0  0  0
 27 69  1  0  0  0  0
 28 30  2  0  0  0  0
 28 55  1  0  0  0  0
 29 70  1  0  0  0  0
 29 76  2  0  0  0  0
 30 56  1  0  0  0  0
 30 75  1  0  0  0  0
 31 45  1  0  0  0  0
 31 71  1  0  0  0  0
 31 77  2  0  0  0  0
 32 61  1  0  0  0  0
 32 67  1  0  0  0  0
 32 78  2  0  0  0  0
 33 62  1  0  0  0  0
 33 72  1  0  0  0  0
 33 79  2  0  0  0  0
 34 68  1  0  0  0  0
 34 73  1  0  0  0  0
 34 80  2  0  0  0  0
 35 38  1  0  0  0  0
 36 45  1  0  0  0  0
 37 67  1  0  0  0  0
 38 40  1  0  0  0  0
 39 41  1  0  0  0  0
 39 42  1  0  0  0  0
 40 44  1  0  0  0  0
 41 46  1  0  0  0  0
 42 68  1  0  0  0  0
 43 46  1  0  0  0  0
 43 68  1  0  0  0  0
 44 71  1  0  0  0  0
 45 67  1  0  0  0  0
 46 66  1  0  0  0  0
 47 57  1  0  0  0  0
 48 62  1  0  0  0  0
 49 63  1  0  0  0  0
 50 64  1  0  0  0  0
 51 64  1  0  0  0  0
 52 64  1  0  0  0  0
 53 74  1  0  0  0  0
 54 75  1  0  0  0  0
 55 82  1  0  0  0  0
 56 63  1  0  0  0  0
 57 63  1  0  0  0  0
 58 59  1  0  0  0  0
 58 60  1  0  0  0  0
 59 73  1  0  0  0  0
 60 75  1  0  0  0  0
 61 64  1  0  0  0  0
 61 72  1  0  0  0  0
 62 74  1  0  0  0  0
 65 66  1  0  0  0  0
M  CHG  2  74   1  75   1
M  ISO  4  34 100  55 101  73 100  82 101
M  END
> <Batch ID>
0092

> <Smiles>
CCC(C)CC(=C[101CH2:1][101O:1]c1ccc2c(c1)CN(C(=O)C(NC(=O)C(C)NC)C(C)(C)C)C(C(=O)NC1CCCc3ccccc31)C2)N(C)CCC[100NH:0][100C:0](=O)N1CCCC(n2nc(-c3ccc(Oc4ccc(F)cc4F)cc3)c(C(N)=O)c2N)C1

> <Shape>
0.189

> <Color>
0.194

> <Negative vol penalty>
0.000

$$$$

  -OEChem-04052319143D

 82 90  0     1  0  0  0  0  0999 V2000
  -16.9391  -30.3471   24.5332 C   0  0  0  0  0  0  0  0  0  0  0  0
  -18.1848  -30.0061   25.0502 C   0  0  0  0  0  0  0  0  0  0  0  0
  -24.4477  -13.7450   20.3901 C   0  0  0  0  0  0  0  0  0  0  0  0
  -26.7429  -13.4982   21.1028 C   0  0  0  0  0  0  0  0  0  0  0  0
  -16.6549  -30.1102   23.1889 C   0  0  0  0  0  0  0  0  0  0  0  0
  -19.1468  -29.4270   24.2234 C   0  0  0  0  0  0  0  0  0  0  0  0
  -25.2104  -30.2412   24.4993 C   0  0  0  0  0  0  0  0  0  0  0  0
  -24.3572  -12.3657   20.2036 C   0  0  0  0  0  0  0  0  0  0  0  0
  -26.6524  -12.1188   20.9164 C   0  0  0  0  0  0  0  0  0  0  0  0
  -26.2341  -29.4815   25.0639 C   0  0  0  0  0  0  0  0  0  0  0  0
  -23.4106   -8.8703   19.8849 C   0  0  0  0  0  0  0  0  0  0  0  0
  -22.2716   -8.2243   20.3654 C   0  0  0  0  0  0  0  0  0  0  0  0
  -25.9196  -22.4655   23.9564 C   0  0  0  0  0  0  0  0  0  0  0  0
  -26.4370  -22.7523   22.6691 C   0  0  0  0  0  0  0  0  0  0  0  0
  -26.6517  -28.4610   22.9183 C   0  0  0  0  0  0  0  0  0  0  0  0
  -22.7943   -8.9677   22.6040 C   0  0  0  0  0  0  0  0  0  0  0  0
  -25.6405  -14.3113   20.8396 C   0  0  0  0  0  0  0  0  0  0  0  0
  -25.4475  -16.4563   22.2069 C   0  0  0  0  0  0  0  0  0  0  0  0
  -17.6173  -29.5368   22.3430 C   0  0  0  0  0  0  0  0  0  0  0  0
  -24.8919  -30.1083   23.1402 C   0  0  0  0  0  0  0  0  0  0  0  0
  -18.8748  -29.1810   22.8669 C   0  0  0  0  0  0  0  0  0  0  0  0
  -25.6252  -29.2220   22.3384 C   0  0  0  0  0  0  0  0  0  0  0  0
  -25.4596  -11.5526   20.4668 C   0  0  0  0  0  0  0  0  0  0  0  0
  -26.9530  -28.5891   24.2740 C   0  0  0  0  0  0  0  0  0  0  0  0
  -24.2416   -9.5650   20.7639 C   0  0  0  0  0  0  0  0  0  0  0  0
  -21.9634   -8.2730   21.7249 C   0  0  0  0  0  0  0  0  0  0  0  0
  -23.9334   -9.6137   22.1235 C   0  0  0  0  0  0  0  0  0  0  0  0
  -25.7348  -15.7362   21.0318 C   0  0  0  0  0  0  0  0  0  0  0  0
  -26.8093  -22.9699   24.8790 C   0  0  0  0  0  0  0  0  0  0  0  0
  -27.6272  -23.4231   22.8442 C   0  0  0  0  0  0  0  0  0  0  0  0
  -25.6923  -17.7665   21.8752 C   0  0  0  0  0  0  0  0  0  0  0  0
  -24.9996  -15.9832   23.4841 C   0  0  0  0  0  0  0  0  0  0  0  0
  -22.3152  -29.1937   21.5191 C   0  0  0  0  0  0  0  0  0  0  0  0
  -24.0776  -30.1180   18.9575 C   0  0  0  0  0  0  0  0  0  0  0  0
  -27.1642  -30.6927   17.6197 C   0  0  0  0  0  0  0  0  0  0  0  0
  -28.8707  -21.6608   19.4509 C   0  0  0  0  0  0  0  0  0  0  0  0
  -17.2476  -29.2564   20.9079 C   0  0  0  0  0  0  0  0  0  0  0  0
  -23.8025  -30.9545   22.5405 C   0  0  0  0  0  0  0  0  0  0  0  0
  -25.3361  -29.0569   20.8695 C   0  0  0  0  0  0  0  0  0  0  0  0
  -18.4522  -28.9835   20.0108 C   0  0  0  0  0  0  0  0  0  0  0  0
  -26.5577  -19.9180   17.3798 C   0  0  0  0  0  0  0  0  0  0  0  0
  -19.4065  -28.0013   20.6826 C   0  0  0  0  0  0  0  0  0  0  0  0
  -26.1189  -18.7314   18.2396 C   0  0  0  0  0  0  0  0  0  0  0  0
  -28.0321  -20.2542   17.5922 C   0  0  0  0  0  0  0  0  0  0  0  0
  -27.9825  -19.2856   19.8578 C   0  0  0  0  0  0  0  0  0  0  0  0
  -19.9532  -28.5738   21.9959 C   0  0  1  0  0  0  0  0  0  0  0  0
  -23.2229  -30.3626   21.2595 C   0  0  1  0  0  0  0  0  0  0  0  0
  -26.4889  -18.9442   19.7198 C   0  0  2  0  0  0  0  0  0  0  0  0
  -26.7572  -22.9463   26.3554 C   0  0  0  0  0  0  0  0  0  0  0  0
  -28.2873  -31.4047   15.4915 C   0  0  0  0  0  0  0  0  0  0  0  0
  -23.5632  -27.3569   17.7651 C   0  0  0  0  0  0  0  0  0  0  0  0
  -25.4363  -27.7785   16.1583 C   0  0  0  0  0  0  0  0  0  0  0  0
  -23.4173  -29.2432   16.1296 C   0  0  0  0  0  0  0  0  0  0  0  0
  -28.3670  -33.0676   18.9127 C   0  0  0  0  0  0  0  0  0  0  0  0
  -28.5724  -23.9519   21.8393 C   0  0  0  0  0  0  0  0  0  0  0  0
  -28.7495  -25.6394   25.3248 C   0  0  0  0  0  0  0  0  0  0  0  0
  -29.0366  -24.2232   24.8211 C   0  0  0  0  0  0  0  0  0  0  0  0
  -29.6635  -22.9525   21.4161 C   0  0  0  0  0  0  0  0  0  0  0  0
  -28.2012  -26.5650   24.2450 C   0  0  0  0  0  0  0  0  0  1  0  0
  -25.0642  -29.4399   18.0378 C   0  0  1  0  0  0  0  0  0  0  0  0
  -27.7154  -31.8623   16.8243 C   0  0  2  0  0  0  0  0  0  0  0  0
  -24.3747  -28.4561   17.0508 C   0  0  0  0  0  0  0  0  0  0  0  0
  -26.1315  -16.5236   20.0285 N   0  0  0  0  0  0  0  0  0  0  0  0
  -27.8436  -23.5495   24.1916 N   0  0  0  0  0  0  0  0  0  0  0  0
  -26.0952  -17.7521   20.5722 N   0  0  0  0  0  0  0  0  0  0  0  0
  -24.2574  -29.9019   20.3311 N   0  0  0  0  0  0  0  0  0  0  0  0
  -28.3165  -20.4454   19.0164 N   0  0  0  0  0  0  0  0  0  0  0  0
  -25.5999  -18.9179   22.5738 N   0  0  0  0  0  0  0  0  0  0  0  0
  -24.7981  -14.6066   23.6535 N   0  0  0  0  0  0  0  0  0  0  0  0
  -20.9949  -29.5426   21.7301 N   0  0  0  0  0  0  0  0  0  0  0  0
  -25.8175  -30.5074   17.3887 N   0  0  0  0  0  0  0  0  0  0  0  0
  -29.1031  -21.7617   20.8171 N   0  0  0  0  0  0  0  0  0  0  0  0
  -28.7962  -32.5457   17.5897 N   0  3  0  0  0  0  0  0  0  0  0  0
  -24.7686  -16.7600   24.4416 O   0  0  0  0  0  0  0  0  0  0  0  0
  -22.7781  -28.0591   21.5259 O   0  0  0  0  0  0  0  0  0  0  0  0
  -23.1849  -30.8195   18.4753 O   0  0  0  0  0  0  0  0  0  0  0  0
  -27.8596  -30.0093   18.3680 O   0  0  0  0  0  0  0  0  0  0  0  0
  -29.1336  -22.5894   18.6791 O   0  0  0  0  0  0  0  0  0  0  0  0
  -25.3716  -10.2065   20.2852 O   0  0  0  0  0  0  0  0  0  0  0  0
  -27.9522  -27.8459   24.8227 O   0  0  0  0  0  0  0  0  0  1  0  0
  -20.8688   -7.6539   22.1859 F   0  0  0  0  0  0  0  0  0  0  0  0
  -24.7272  -10.2805   22.9726 F   0  0  0  0  0  0  0  0  0  0  0  0
  1  2  1  0  0  0  0
  1  5  2  0  0  0  0
  2  6  2  0  0  0  0
  3  8  2  0  0  0  0
  3 17  1  0  0  0  0
  4  9  1  0  0  0  0
  4 17  2  0  0  0  0
  5 19  1  0  0  0  0
  6 21  1  0  0  0  0
  7 10  2  0  0  0  0
  7 20  1  0  0  0  0
  8 23  1  0  0  0  0
  9 23  2  0  0  0  0
 10 24  1  0  0  0  0
 11 12  2  0  0  0  0
 11 25  1  0  0  0  0
 12 26  1  0  0  0  0
 13 14  1  0  0  0  0
 13 29  2  0  0  0  0
 14 30  2  0  0  0  0
 15 22  1  0  0  0  0
 15 24  2  0  0  0  0
 16 26  2  0  0  0  0
 16 27  1  0  0  0  0
 17 28  1  0  0  0  0
 18 28  1  0  0  0  0
 18 31  2  0  0  0  0
 18 32  1  0  0  0  0
 19 21  2  0  0  0  0
 19 37  1  0  0  0  0
 20 22  2  0  0  0  0
 20 38  1  0  0  0  0
 21 46  1  0  0  0  0
 22 39  1  0  0  0  0
 23 79  1  0  0  0  0
 24 80  1  0  0  0  0
 25 27  2  0  0  0  0
 25 79  1  0  0  0  0
 26 81  1  0  0  0  0
 27 82  1  0  0  0  0
 28 63  2  0  0  0  0
 29 49  1  0  0  0  0
 29 64  1  0  0  0  0
 30 55  1  0  0  0  0
 30 64  1  0  0  0  0
 31 65  1  0  0  0  0
 31 68  1  0  0  0  0
 32 69  1  0  0  0  0
 32 74  2  0  0  0  0
 33 47  1  0  0  0  0
 33 70  1  0  0  0  0
 33 75  2  0  0  0  0
 34 60  1  0  0  0  0
 34 66  1  0  0  0  0
 34 76  2  0  0  0  0
 35 61  1  0  0  0  0
 35 71  1  0  0  0  0
 35 77  2  0  0  0  0
 36 67  1  0  0  0  0
 36 72  1  0  0  0  0
 36 78  2  0  0  0  0
 37 40  1  0  0  0  0
 38 47  1  0  0  0  0
 39 66  1  0  0  0  0
 40 42  1  0  0  0  0
 41 43  1  0  0  0  0
 41 44  1  0  0  0  0
 42 46  1  0  0  0  0
 43 48  1  0  0  0  0
 44 67  1  0  0  0  0
 45 48  1  0  0  0  0
 45 67  1  0  0  0  0
 46 70  1  0  0  0  0
 47 66  1  0  0  0  0
 48 65  1  0  0  0  0
 50 61  1  0  0  0  0
 51 62  1  0  0  0  0
 52 62  1  0  0  0  0
 53 62  1  0  0  0  0
 54 73  1  0  0  0  0
 55 58  1  0  0  0  0
 56 57  1  0  0  0  0
 56 59  1  0  0  0  0
 57 64  1  0  0  0  0
 58 72  1  0  0  0  0
 59 80  1  0  0  0  0
 60 62  1  0  0  0  0
 60 71  1  0  0  0  0
 61 73  1  0  0  0  0
 63 65  1  0  0  0  0
M  CHG  1  73   1
M  ISO  4  36 100  59 101  72 100  80 101
M  END
> <Batch ID>
0092

> <Smiles>
CNC(C)C(=O)NC(C(=O)N1Cc2cc([101O:1][101CH2:1]CCn3c(C)ccc3CC[100NH:0][100C:0](=O)N3CCCC(n4nc(-c5ccc(Oc6ccc(F)cc6F)cc5)c(C(N)=O)c4N)C3)ccc2CC1C(=O)NC1CCCc2ccccc21)C(C)(C)C

> <Shape>
0.221

> <Color>
0.094

> <Negative vol penalty>
0.000

$$$$
